# Generated by pormake.
# Topology llk, (3,12)-cn, num edge types: 1
# Building blocks:
#     Node 0, Type 0, BuildingBlock: PAMTOO_clean_linker_0, # of connection points: 3
#     Node 1, Type 0, BuildingBlock: PAMTOO_clean_linker_0, # of connection points: 3
#     Node 2, Type 0, BuildingBlock: PAMTOO_clean_linker_0, # of connection points: 3
#     Node 3, Type 0, BuildingBlock: PAMTOO_clean_linker_0, # of connection points: 3
#     Node 4, Type 0, BuildingBlock: PAMTOO_clean_linker_0, # of connection points: 3
#     Node 5, Type 0, BuildingBlock: PAMTOO_clean_linker_0, # of connection points: 3
#     Node 6, Type 0, BuildingBlock: PAMTOO_clean_linker_0, # of connection points: 3
#     Node 7, Type 0, BuildingBlock: PAMTOO_clean_linker_0, # of connection points: 3
#     Node 8, Type 0, BuildingBlock: PAMTOO_clean_linker_0, # of connection points: 3
#     Node 9, Type 0, BuildingBlock: PAMTOO_clean_linker_0, # of connection points: 3
#     Node 10, Type 0, BuildingBlock: PAMTOO_clean_linker_0, # of connection points: 3
#     Node 11, Type 0, BuildingBlock: PAMTOO_clean_linker_0, # of connection points: 3
#     Node 12, Type 0, BuildingBlock: PAMTOO_clean_linker_0, # of connection points: 3
#     Node 13, Type 0, BuildingBlock: PAMTOO_clean_linker_0, # of connection points: 3
#     Node 14, Type 0, BuildingBlock: PAMTOO_clean_linker_0, # of connection points: 3
#     Node 15, Type 0, BuildingBlock: PAMTOO_clean_linker_0, # of connection points: 3
#     Node 16, Type 0, BuildingBlock: PAMTOO_clean_linker_0, # of connection points: 3
#     Node 17, Type 0, BuildingBlock: PAMTOO_clean_linker_0, # of connection points: 3
#     Node 18, Type 0, BuildingBlock: PAMTOO_clean_linker_0, # of connection points: 3
#     Node 19, Type 0, BuildingBlock: PAMTOO_clean_linker_0, # of connection points: 3
#     Node 20, Type 0, BuildingBlock: PAMTOO_clean_linker_0, # of connection points: 3
#     Node 21, Type 0, BuildingBlock: PAMTOO_clean_linker_0, # of connection points: 3
#     Node 22, Type 0, BuildingBlock: PAMTOO_clean_linker_0, # of connection points: 3
#     Node 23, Type 0, BuildingBlock: PAMTOO_clean_linker_0, # of connection points: 3
#     Node 24, Type 1, BuildingBlock: EZIPEK_clean_sbu_0, # of connection points: 12
#     Node 25, Type 1, BuildingBlock: EZIPEK_clean_sbu_0, # of connection points: 12
#     Node 26, Type 1, BuildingBlock: EZIPEK_clean_sbu_0, # of connection points: 12
#     Node 27, Type 1, BuildingBlock: EZIPEK_clean_sbu_0, # of connection points: 12
#     Node 28, Type 1, BuildingBlock: EZIPEK_clean_sbu_0, # of connection points: 12
#     Node 29, Type 1, BuildingBlock: EZIPEK_clean_sbu_0, # of connection points: 12
#     Edge 30, Type (0, 1), BuildingBlock: KIFKEQ_clean_linker_1, # of connection points: 2
#     Edge 31, Type (0, 1), BuildingBlock: KIFKEQ_clean_linker_1, # of connection points: 2
#     Edge 32, Type (0, 1), BuildingBlock: KIFKEQ_clean_linker_1, # of connection points: 2
#     Edge 33, Type (0, 1), BuildingBlock: KIFKEQ_clean_linker_1, # of connection points: 2
#     Edge 34, Type (0, 1), BuildingBlock: KIFKEQ_clean_linker_1, # of connection points: 2
#     Edge 35, Type (0, 1), BuildingBlock: KIFKEQ_clean_linker_1, # of connection points: 2
#     Edge 36, Type (0, 1), BuildingBlock: KIFKEQ_clean_linker_1, # of connection points: 2
#     Edge 37, Type (0, 1), BuildingBlock: KIFKEQ_clean_linker_1, # of connection points: 2
#     Edge 38, Type (0, 1), BuildingBlock: KIFKEQ_clean_linker_1, # of connection points: 2
#     Edge 39, Type (0, 1), BuildingBlock: KIFKEQ_clean_linker_1, # of connection points: 2
#     Edge 40, Type (0, 1), BuildingBlock: KIFKEQ_clean_linker_1, # of connection points: 2
#     Edge 41, Type (0, 1), BuildingBlock: KIFKEQ_clean_linker_1, # of connection points: 2
#     Edge 42, Type (0, 1), BuildingBlock: KIFKEQ_clean_linker_1, # of connection points: 2
#     Edge 43, Type (0, 1), BuildingBlock: KIFKEQ_clean_linker_1, # of connection points: 2
#     Edge 44, Type (0, 1), BuildingBlock: KIFKEQ_clean_linker_1, # of connection points: 2
#     Edge 45, Type (0, 1), BuildingBlock: KIFKEQ_clean_linker_1, # of connection points: 2
#     Edge 46, Type (0, 1), BuildingBlock: KIFKEQ_clean_linker_1, # of connection points: 2
#     Edge 47, Type (0, 1), BuildingBlock: KIFKEQ_clean_linker_1, # of connection points: 2
#     Edge 48, Type (0, 1), BuildingBlock: KIFKEQ_clean_linker_1, # of connection points: 2
#     Edge 49, Type (0, 1), BuildingBlock: KIFKEQ_clean_linker_1, # of connection points: 2
#     Edge 50, Type (0, 1), BuildingBlock: KIFKEQ_clean_linker_1, # of connection points: 2
#     Edge 51, Type (0, 1), BuildingBlock: KIFKEQ_clean_linker_1, # of connection points: 2
#     Edge 52, Type (0, 1), BuildingBlock: KIFKEQ_clean_linker_1, # of connection points: 2
#     Edge 53, Type (0, 1), BuildingBlock: KIFKEQ_clean_linker_1, # of connection points: 2
#     Edge 54, Type (0, 1), BuildingBlock: KIFKEQ_clean_linker_1, # of connection points: 2
#     Edge 55, Type (0, 1), BuildingBlock: KIFKEQ_clean_linker_1, # of connection points: 2
#     Edge 56, Type (0, 1), BuildingBlock: KIFKEQ_clean_linker_1, # of connection points: 2
#     Edge 57, Type (0, 1), BuildingBlock: KIFKEQ_clean_linker_1, # of connection points: 2
#     Edge 58, Type (0, 1), BuildingBlock: KIFKEQ_clean_linker_1, # of connection points: 2
#     Edge 59, Type (0, 1), BuildingBlock: KIFKEQ_clean_linker_1, # of connection points: 2
#     Edge 60, Type (0, 1), BuildingBlock: KIFKEQ_clean_linker_1, # of connection points: 2
#     Edge 61, Type (0, 1), BuildingBlock: KIFKEQ_clean_linker_1, # of connection points: 2
#     Edge 62, Type (0, 1), BuildingBlock: KIFKEQ_clean_linker_1, # of connection points: 2
#     Edge 63, Type (0, 1), BuildingBlock: KIFKEQ_clean_linker_1, # of connection points: 2
#     Edge 64, Type (0, 1), BuildingBlock: KIFKEQ_clean_linker_1, # of connection points: 2
#     Edge 65, Type (0, 1), BuildingBlock: KIFKEQ_clean_linker_1, # of connection points: 2
#     Edge 66, Type (0, 1), BuildingBlock: KIFKEQ_clean_linker_1, # of connection points: 2
#     Edge 67, Type (0, 1), BuildingBlock: KIFKEQ_clean_linker_1, # of connection points: 2
#     Edge 68, Type (0, 1), BuildingBlock: KIFKEQ_clean_linker_1, # of connection points: 2
#     Edge 69, Type (0, 1), BuildingBlock: KIFKEQ_clean_linker_1, # of connection points: 2
#     Edge 70, Type (0, 1), BuildingBlock: KIFKEQ_clean_linker_1, # of connection points: 2
#     Edge 71, Type (0, 1), BuildingBlock: KIFKEQ_clean_linker_1, # of connection points: 2
#     Edge 72, Type (0, 1), BuildingBlock: KIFKEQ_clean_linker_1, # of connection points: 2
#     Edge 73, Type (0, 1), BuildingBlock: KIFKEQ_clean_linker_1, # of connection points: 2
#     Edge 74, Type (0, 1), BuildingBlock: KIFKEQ_clean_linker_1, # of connection points: 2
#     Edge 75, Type (0, 1), BuildingBlock: KIFKEQ_clean_linker_1, # of connection points: 2
#     Edge 76, Type (0, 1), BuildingBlock: KIFKEQ_clean_linker_1, # of connection points: 2
#     Edge 77, Type (0, 1), BuildingBlock: KIFKEQ_clean_linker_1, # of connection points: 2
#     Edge 78, Type (0, 1), BuildingBlock: KIFKEQ_clean_linker_1, # of connection points: 2
#     Edge 79, Type (0, 1), BuildingBlock: KIFKEQ_clean_linker_1, # of connection points: 2
#     Edge 80, Type (0, 1), BuildingBlock: KIFKEQ_clean_linker_1, # of connection points: 2
#     Edge 81, Type (0, 1), BuildingBlock: KIFKEQ_clean_linker_1, # of connection points: 2
#     Edge 82, Type (0, 1), BuildingBlock: KIFKEQ_clean_linker_1, # of connection points: 2
#     Edge 83, Type (0, 1), BuildingBlock: KIFKEQ_clean_linker_1, # of connection points: 2
#     Edge 84, Type (0, 1), BuildingBlock: KIFKEQ_clean_linker_1, # of connection points: 2
#     Edge 85, Type (0, 1), BuildingBlock: KIFKEQ_clean_linker_1, # of connection points: 2
#     Edge 86, Type (0, 1), BuildingBlock: KIFKEQ_clean_linker_1, # of connection points: 2
#     Edge 87, Type (0, 1), BuildingBlock: KIFKEQ_clean_linker_1, # of connection points: 2
#     Edge 88, Type (0, 1), BuildingBlock: KIFKEQ_clean_linker_1, # of connection points: 2
#     Edge 89, Type (0, 1), BuildingBlock: KIFKEQ_clean_linker_1, # of connection points: 2
#     Edge 90, Type (0, 1), BuildingBlock: KIFKEQ_clean_linker_1, # of connection points: 2
#     Edge 91, Type (0, 1), BuildingBlock: KIFKEQ_clean_linker_1, # of connection points: 2
#     Edge 92, Type (0, 1), BuildingBlock: KIFKEQ_clean_linker_1, # of connection points: 2
#     Edge 93, Type (0, 1), BuildingBlock: KIFKEQ_clean_linker_1, # of connection points: 2
#     Edge 94, Type (0, 1), BuildingBlock: KIFKEQ_clean_linker_1, # of connection points: 2
#     Edge 95, Type (0, 1), BuildingBlock: KIFKEQ_clean_linker_1, # of connection points: 2
#     Edge 96, Type (0, 1), BuildingBlock: KIFKEQ_clean_linker_1, # of connection points: 2
#     Edge 97, Type (0, 1), BuildingBlock: KIFKEQ_clean_linker_1, # of connection points: 2
#     Edge 98, Type (0, 1), BuildingBlock: KIFKEQ_clean_linker_1, # of connection points: 2
#     Edge 99, Type (0, 1), BuildingBlock: KIFKEQ_clean_linker_1, # of connection points: 2
#     Edge 100, Type (0, 1), BuildingBlock: KIFKEQ_clean_linker_1, # of connection points: 2
#     Edge 101, Type (0, 1), BuildingBlock: KIFKEQ_clean_linker_1, # of connection points: 2
# Relax obj value: 0.069
# Max RMSD: 0.163
# Mean RMSD: 0.123
data_MOF--net-llk--node1-EZIPEK_clean_sbu_0--node2-PAMTOO_clean_linker_0--edge1-KIFKEQ_clean_linker_1
_symmetry_space_group_name_H-M    P1
_symmetry_Int_Tables_number       1
_symmetry_cell_setting            triclinic
loop_
_symmetry_equiv_pos_as_xyz
'x, y, z'
_cell_length_a     47.017625
_cell_length_b     47.864571
_cell_length_c     47.427479
_cell_angle_alpha  90.038323
_cell_angle_beta   90.022506
_cell_angle_gamma 90.035505
loop_
_atom_site_label
_atom_site_type_symbol
_atom_site_fract_x
_atom_site_fract_y
_atom_site_fract_z
_atom_type_partial_charge
H0 H 0.00516 0.34096 0.26016 0.0
H1 H 0.02084 0.26661 0.3081 0.0
H2 H 0.01585 0.26195 0.21756 0.0
H3 H 0.99888 0.19951 0.25316 0.0
C4 C 1.00123 0.21393 0.27139 0.0
O5 O 0.0227 0.2329 0.26533 0.0
H6 H 0.98032 0.22466 0.27372 0.0
C7 C 0.00836 0.31852 0.26069 0.0
C8 C 0.00979 0.30336 0.23538 0.0
C9 C 0.01242 0.30546 0.28674 0.0
C10 C 0.01765 0.27677 0.28792 0.0
C11 C 0.01822 0.26086 0.26322 0.0
C12 C 0.01476 0.27418 0.23674 0.0
H13 H 0.76758 0.99565 0.33384 0.0
H14 H 0.71885 1.00017 0.2573 0.0
H15 H 0.81002 1.00725 0.2543 0.0
H16 H 0.77255 0.03757 0.19674 0.0
C17 C 0.75484 0.03106 0.21078 0.0
O18 O 0.76246 1.00654 0.22423 0.0
H19 H 0.75164 0.04838 0.22617 0.0
C20 C 0.76674 0.99733 0.31104 0.0
C21 C 0.79209 1.0006 0.29586 0.0
C22 C 0.74029 0.99736 0.29748 0.0
C23 C 0.73915 1.0004 0.26814 0.0
C24 C 0.76416 1.00411 0.2526 0.0
C25 C 0.79071 1.00456 0.26644 0.0
H26 H 0.02952 0.76459 0.33502 0.0
H27 H 0.02774 0.71657 0.2585 0.0
H28 H 0.02099 0.80617 0.25492 0.0
H29 H 0.99243 0.7676 0.1957 0.0
C30 C 0.99889 0.75043 0.21008 0.0
O31 O 0.02284 0.75886 0.22489 0.0
H32 H 0.98057 0.74686 0.22455 0.0
C33 C 0.02844 0.76378 0.31219 0.0
C34 C 0.02595 0.78874 0.2969 0.0
C35 C 0.0289 0.73776 0.29865 0.0
C36 C 0.0269 0.73654 0.26926 0.0
C37 C 0.02376 0.76097 0.25343 0.0
C38 C 0.02294 0.78722 0.26723 0.0
H39 H 0.34031 1.01328 0.25626 0.0
H40 H 0.26328 1.00914 0.3049 0.0
H41 H 0.25992 1.00104 0.21461 0.0
H42 H 0.19508 0.02266 0.24878 0.0
C43 C 0.21087 0.02274 0.26621 0.0
O44 O 0.22992 1.00116 0.26188 0.0
H45 H 0.2217 0.04346 0.26552 0.0
C46 C 0.31734 1.01125 0.25725 0.0
C47 C 0.30198 1.00683 0.23234 0.0
C48 C 0.30365 1.01246 0.28343 0.0
C49 C 0.27415 1.00872 0.28475 0.0
C50 C 0.25834 1.00508 0.26 0.0
C51 C 0.27217 1.00444 0.23366 0.0
H52 H 0.02908 0.6887 0.75915 0.0
H53 H 0.02769 0.76444 0.71068 0.0
H54 H 0.02096 0.76813 0.80114 0.0
H55 H 0.99273 0.82664 0.7628 0.0
C56 C 0.99923 0.81277 0.74516 0.0
O57 O 0.02311 0.79786 0.75339 0.0
H58 H 0.98089 0.79854 0.74114 0.0
C59 C 0.0281 0.71133 0.75834 0.0
C60 C 0.02565 0.7265 0.78352 0.0
C61 C 0.02867 0.7247 0.73209 0.0
C62 C 0.02679 0.75383 0.73085 0.0
C63 C 0.02376 0.76957 0.75551 0.0
C64 C 0.02284 0.75591 0.78201 0.0
H65 H 0.34071 0.01452 0.7598 0.0
H66 H 0.26293 0.01899 0.71239 0.0
H67 H 0.26093 0.02563 0.80283 0.0
H68 H 0.19534 1.00415 0.76869 0.0
C69 C 0.21127 1.00426 0.7514 0.0
O70 O 0.23017 0.02593 0.75601 0.0
H71 H 0.2222 0.98361 0.75208 0.0
C72 C 0.31773 0.01646 0.75921 0.0
C73 C 0.30276 0.02043 0.78442 0.0
C74 C 0.30362 0.01558 0.73322 0.0
C75 C 0.27409 0.01916 0.73238 0.0
C76 C 0.25865 0.02226 0.75742 0.0
C77 C 0.2729 0.02261 0.78356 0.0
H78 H 0.01651 0.26448 0.68148 0.0
H79 H 0.01925 0.31328 0.75749 0.0
H80 H 0.02625 0.22375 0.7619 0.0
H81 H 1.00164 0.25872 0.82443 0.0
C82 C 0.00361 0.27667 0.80971 0.0
O83 O 0.02593 0.27145 0.79136 0.0
H84 H 0.98297 0.27798 0.7982 0.0
C85 C 0.018 0.26554 0.70428 0.0
C86 C 0.02175 0.24084 0.71973 0.0
C87 C 0.01681 0.29164 0.71763 0.0
C88 C 0.01973 0.29319 0.74694 0.0
C89 C 0.02261 0.2689 0.76303 0.0
C90 C 0.02335 0.24252 0.74949 0.0
H91 H 0.76941 0.01733 0.68367 0.0
H92 H 0.71899 0.01718 0.75912 0.0
H93 H 0.80994 0.02587 0.76463 0.0
H94 H 0.77724 0.99914 0.82455 0.0
C95 C 0.75804 1.001 0.81102 0.0
O96 O 0.7616 0.02389 0.79354 0.0
H97 H 0.7562 0.9813 0.79861 0.0
C98 C 0.76801 0.01833 0.70648 0.0
C99 C 0.79284 0.02203 0.72237 0.0
C100 C 0.74139 0.01633 0.7195 0.0
C101 C 0.73951 0.01852 0.74885 0.0
C102 C 0.76412 0.02165 0.76519 0.0
C103 C 0.79095 0.0231 0.752 0.0
H104 H 0.26165 0.34118 0.99508 0.0
H105 H 0.31481 0.26846 0.9978 0.0
H106 H 0.22379 0.2595 1.00195 0.0
H107 H 0.262 0.2072 0.03345 0.0
C108 C 0.28113 0.21832 0.02547 0.0
O109 O 0.27354 0.23249 1.00112 0.0
H110 H 0.28814 0.23309 0.04225 0.0
C111 C 0.26384 0.31863 0.99602 0.0
C112 C 0.23938 0.30199 0.99785 0.0
C113 C 0.29101 0.30678 0.99618 0.0
C114 C 0.29385 0.27776 0.99798 0.0
C115 C 0.26985 0.2606 1.00019 0.0
C116 C 0.24242 0.27273 1.00048 0.0
H117 H 0.26557 0.68922 0.02355 0.0
H118 H 0.3145 0.765 0.02107 0.0
H119 H 0.22329 0.76843 0.01391 0.0
H120 H 0.26187 0.82638 0.98501 0.0
C121 C 0.27955 0.81248 0.99166 0.0
O122 O 0.27127 0.79819 0.01569 0.0
H123 H 0.28341 0.79785 0.97377 0.0
C124 C 0.26643 0.71184 0.0223 0.0
C125 C 0.24108 0.72697 0.01945 0.0
C126 C 0.2929 0.72524 0.02269 0.0
C127 C 0.29416 0.75434 0.02039 0.0
C128 C 0.26925 0.76996 0.01702 0.0
C129 C 0.24258 0.75629 0.01619 0.0
H130 H 0.76676 0.33918 0.02751 0.0
H131 H 0.7176 0.26358 0.02371 0.0
H132 H 0.80877 0.26009 0.01615 0.0
H133 H 0.77094 0.20296 0.9864 0.0
C134 C 0.75311 0.21665 0.99308 0.0
O135 O 0.76092 0.23044 0.01756 0.0
H136 H 0.74939 0.23165 0.97549 0.0
C137 C 0.76581 0.31659 0.0259 0.0
C138 C 0.79107 0.30143 0.02259 0.0
C139 C 0.73931 0.30327 0.02614 0.0
C140 C 0.73797 0.2742 0.02325 0.0
C141 C 0.76286 0.25861 0.01953 0.0
C142 C 0.78952 0.27222 0.01882 0.0
H143 H 0.77001 0.69119 0.00905 0.0
H144 H 0.71932 0.76585 1.00703 0.0
H145 H 0.81035 0.77129 0.99891 0.0
H146 H 0.77618 0.83238 0.02357 0.0
C147 C 0.75769 0.81797 0.02229 0.0
O148 O 0.76183 0.79984 0.99993 0.0
H149 H 0.7569 0.80655 0.04276 0.0
C150 C 0.76855 0.71378 1.00771 0.0
C151 C 0.79334 0.72946 1.00368 0.0
C152 C 0.74188 0.72663 0.00925 0.0
C153 C 0.73989 0.75566 1.00636 0.0
C154 C 0.76448 0.77185 1.00311 0.0
C155 C 0.79139 0.7588 1.00202 0.0
H156 H 0.50589 0.84057 0.75784 0.0
H157 H 0.51887 0.76614 0.80669 0.0
H158 H 0.5177 0.76146 0.71607 0.0
H159 H 0.5003 0.69888 0.75145 0.0
C160 C 0.50199 0.7134 0.76966 0.0
O161 O 0.52333 0.73263 0.76406 0.0
H162 H 0.48088 0.72384 0.77147 0.0
C163 C 0.50882 0.81811 0.75876 0.0
C164 C 0.51093 0.80285 0.73358 0.0
C165 C 0.51156 0.80517 0.7851 0.0
C166 C 0.51673 0.77642 0.78644 0.0
C167 C 0.51854 0.76052 0.76177 0.0
C168 C 0.51594 0.77373 0.73517 0.0
H169 H 0.26761 0.49653 0.83386 0.0
H170 H 0.21855 0.50076 0.75751 0.0
H171 H 0.3097 0.5078 0.75409 0.0
H172 H 0.27236 0.53781 0.69666 0.0
C173 C 0.25454 0.53138 0.7106 0.0
O174 O 0.26202 0.50691 0.72421 0.0
H175 H 0.25124 0.54878 0.7259 0.0
C176 C 0.26667 0.49816 0.81106 0.0
C177 C 0.29196 0.50137 0.79575 0.0
C178 C 0.24016 0.49811 0.79761 0.0
C179 C 0.23889 0.50106 0.76827 0.0
C180 C 0.26384 0.50468 0.7526 0.0
C181 C 0.29044 0.50518 0.76633 0.0
H182 H 0.52025 0.26487 0.83655 0.0
H183 H 0.52737 0.21703 0.76018 0.0
H184 H 0.51353 0.30579 0.75591 0.0
H185 H 0.49085 0.26705 0.69605 0.0
C186 C 0.49706 0.24999 0.71067 0.0
O187 O 0.52042 0.25877 0.72621 0.0
H188 H 0.47832 0.24628 0.72457 0.0
C189 C 0.52039 0.26398 0.8137 0.0
C190 C 0.51641 0.28862 0.79818 0.0
C191 C 0.52432 0.23818 0.80028 0.0
C192 C 0.5243 0.23686 0.77081 0.0
C193 C 0.52023 0.261 0.75475 0.0
C194 C 0.51652 0.28708 0.76838 0.0
H195 H 0.8404 0.51385 0.75624 0.0
H196 H 0.76325 0.50976 0.80468 0.0
H197 H 0.75995 0.50314 0.71427 0.0
H198 H 0.69515 0.52487 0.74894 0.0
C199 C 0.71109 0.52459 0.76624 0.0
O200 O 0.72986 0.50286 0.76151 0.0
H201 H 0.72215 0.5452 0.76567 0.0
C202 C 0.81741 0.51203 0.75715 0.0
C203 C 0.80205 0.50817 0.73214 0.0
C204 C 0.80369 0.51297 0.78333 0.0
C205 C 0.77415 0.50953 0.78455 0.0
C206 C 0.75834 0.50646 0.75972 0.0
C207 C 0.7722 0.50608 0.73339 0.0
H208 H 0.51519 0.18882 0.26142 0.0
H209 H 0.51619 0.26258 0.21009 0.0
H210 H 0.52502 0.2697 0.30017 0.0
H211 H 0.49712 0.32757 0.26586 0.0
C212 C 0.50101 0.31541 0.24626 0.0
O213 O 0.52373 0.29757 0.25115 0.0
H214 H 0.48123 0.30345 0.24158 0.0
C215 C 0.51641 0.21139 0.25968 0.0
C216 C 0.52037 0.22745 0.28409 0.0
C217 C 0.51473 0.22384 0.23305 0.0
C218 C 0.5173 0.25284 0.23065 0.0
C219 C 0.52065 0.26954 0.25462 0.0
C220 C 0.5219 0.25689 0.2816 0.0
H221 H 0.84017 0.5153 0.26003 0.0
H222 H 0.76248 0.51957 0.21244 0.0
H223 H 0.76028 0.52627 0.30288 0.0
H224 H 0.69496 0.50456 0.26883 0.0
C225 C 0.71077 0.50478 0.25144 0.0
O226 O 0.72962 0.5265 0.25599 0.0
H227 H 0.72177 0.48415 0.25198 0.0
C228 C 0.81718 0.51719 0.25938 0.0
C229 C 0.80215 0.52114 0.28455 0.0
C230 C 0.80314 0.51626 0.23337 0.0
C231 C 0.77361 0.51978 0.23246 0.0
C232 C 0.75811 0.52289 0.25746 0.0
C233 C 0.7723 0.52327 0.28364 0.0
H234 H 0.5225 0.76234 0.18218 0.0
H235 H 0.51762 0.81261 0.2573 0.0
H236 H 0.52566 0.72342 0.26383 0.0
H237 H 0.49777 0.76008 0.32417 0.0
C238 C 0.501 0.7778 0.30939 0.0
O239 O 0.52399 0.77174 0.29214 0.0
H240 H 0.481 0.77966 0.2969 0.0
C241 C 0.52186 0.76407 0.20496 0.0
C242 C 0.52415 0.7397 0.22117 0.0
C243 C 0.51891 0.79044 0.21754 0.0
C244 C 0.51954 0.79249 0.24702 0.0
C245 C 0.52196 0.76857 0.26376 0.0
C246 C 0.52366 0.74195 0.25088 0.0
H247 H 0.26751 0.50222 0.1846 0.0
H248 H 0.21909 0.51663 0.26004 0.0
H249 H 0.31049 0.51694 0.2634 0.0
H250 H 0.2772 0.50241 0.32789 0.0
C251 C 0.25905 0.50183 0.31289 0.0
O252 O 0.26297 0.52249 0.29289 0.0
H253 H 0.25926 0.48062 0.30314 0.0
C254 C 0.26678 0.50568 0.20719 0.0
C255 C 0.29228 0.50868 0.22223 0.0
C256 C 0.24035 0.50847 0.22052 0.0
C257 C 0.23936 0.51441 0.24941 0.0
C258 C 0.26454 0.51706 0.26493 0.0
C259 C 0.29107 0.51449 0.25135 0.0
H260 H 0.76397 0.84076 0.50575 0.0
H261 H 0.81343 0.76572 0.4976 0.0
H262 H 0.72321 0.76041 0.51208 0.0
H263 H 0.76196 0.70188 0.53389 0.0
C264 C 0.77958 0.71616 0.52785 0.0
O265 O 0.7711 0.73157 0.50461 0.0
H266 H 0.78347 0.72991 0.54645 0.0
C267 C 0.76515 0.81812 0.50534 0.0
C268 C 0.74035 0.80241 0.50946 0.0
C269 C 0.79148 0.80519 0.50101 0.0
C270 C 0.79315 0.77599 0.50084 0.0
C271 C 0.76872 0.7598 0.50494 0.0
C272 C 0.74213 0.77297 0.509 0.0
H273 H 0.76611 0.18892 0.5233 0.0
H274 H 0.81571 0.26428 0.52074 0.0
H275 H 0.7245 0.26851 0.51403 0.0
H276 H 0.76277 0.3259 0.48506 0.0
C277 C 0.78068 0.31225 0.49165 0.0
O278 O 0.7727 0.29787 0.51572 0.0
H279 H 0.78469 0.29765 0.47376 0.0
C280 C 0.76718 0.21153 0.52206 0.0
C281 C 0.74196 0.22689 0.51934 0.0
C282 C 0.79377 0.22469 0.52239 0.0
C283 C 0.79528 0.2538 0.52011 0.0
C284 C 0.77048 0.26964 0.51691 0.0
C285 C 0.7437 0.25619 0.51617 0.0
H286 H 0.26724 0.83927 0.5146 0.0
H287 H 0.21967 0.76286 0.52136 0.0
H288 H 0.30953 0.76019 0.50421 0.0
H289 H 0.27159 0.70106 0.48181 0.0
C290 C 0.25415 0.71538 0.48816 0.0
O291 O 0.26268 0.73004 0.51187 0.0
H292 H 0.2505 0.72966 0.46995 0.0
C293 C 0.26655 0.81661 0.51428 0.0
C294 C 0.29152 0.80162 0.50885 0.0
C295 C 0.24066 0.80292 0.51889 0.0
C296 C 0.23962 0.77371 0.51802 0.0
C297 C 0.26432 0.75828 0.51266 0.0
C298 C 0.29044 0.77218 0.50832 0.0
H299 H 0.27122 0.19025 0.49074 0.0
H300 H 0.21839 0.26312 0.4953 0.0
H301 H 0.30942 0.27145 0.50058 0.0
H302 H 0.27155 0.32318 0.53319 0.0
C303 C 0.2525 0.31197 0.52512 0.0
O304 O 0.25994 0.29871 0.50021 0.0
H305 H 0.24598 0.29659 0.54151 0.0
C306 C 0.26913 0.21278 0.49223 0.0
C307 C 0.29363 0.22923 0.49487 0.0
C308 C 0.24202 0.22474 0.49255 0.0
C309 C 0.23931 0.25371 0.49524 0.0
C310 C 0.26341 0.27065 0.49819 0.0
C311 C 0.29074 0.25838 0.49838 0.0
C312 C 0.01641 0.94746 0.57908 0.0
C313 C 0.01764 0.94534 0.44094 0.0
C314 C 0.01898 0.08303 0.57677 0.0
C315 C 0.01759 0.08088 0.43864 0.0
C316 C 0.9496 0.08252 0.5099 0.0
C317 C 0.9485 0.94673 0.50794 0.0
C318 C 0.08699 0.08138 0.50577 0.0
C319 C 0.08572 0.94561 0.51227 0.0
C320 C 0.08616 1.01159 0.4398 0.0
C321 C 0.94867 1.01359 0.44025 0.0
C322 C 0.08652 0.01569 0.57775 0.0
C323 C 0.9491 0.01586 0.57787 0.0
Eu324 Eu 0.01728 0.96111 0.50983 0.0
O325 O 0.99216 0.9891 0.48452 0.0
O326 O 0.04293 0.98957 0.53421 0.0
Eu327 Eu 0.96364 0.01451 0.50901 0.0
Eu328 Eu 0.072 1.01364 0.5088 0.0
O329 O 0.99204 0.98975 0.53442 0.0
O330 O 0.04284 0.98866 0.48429 0.0
Eu331 Eu 0.01774 0.01503 0.56197 0.0
Eu332 Eu 0.01744 1.01328 0.45578 0.0
O333 O 0.99274 0.03959 0.53331 0.0
O334 O 0.99233 0.03894 0.48348 0.0
O335 O 0.0432 0.03828 0.48353 0.0
O336 O 0.04335 0.03922 0.53328 0.0
Eu337 Eu 0.01817 0.06722 0.50789 0.0
O338 O 0.0161 0.93826 0.55236 0.0
O339 O 0.01842 0.93714 0.46797 0.0
O340 O 0.01949 0.0912 0.54972 0.0
O341 O 0.01746 0.0901 0.46535 0.0
O342 O 0.94055 0.05605 0.50967 0.0
O343 O 0.93985 0.97331 0.50845 0.0
O344 O 0.09569 0.05483 0.5067 0.0
O345 O 0.09492 0.97201 0.51106 0.0
O346 O 0.05891 1.01208 0.43206 0.0
O347 O 0.97577 1.01335 0.43194 0.0
O348 O 0.0593 0.0156 0.58557 0.0
O349 O 0.97626 0.01588 0.586 0.0
O350 O 0.06004 0.09 0.50621 0.0
O351 O 0.97668 0.09078 0.50914 0.0
O352 O 0.05861 0.93749 0.51185 0.0
O353 O 0.97546 0.93813 0.50845 0.0
O354 O 0.01673 0.97189 0.43233 0.0
O355 O 0.01784 0.05396 0.4311 0.0
O356 O 0.01726 0.97436 0.58664 0.0
O357 O 0.01802 0.05648 0.5854 0.0
O358 O 0.94007 0.01526 0.55109 0.0
O359 O 0.93982 0.01406 0.46708 0.0
O360 O 0.09583 0.01501 0.55103 0.0
O361 O 0.0956 1.01204 0.46648 0.0
C362 C 0.51573 0.94828 0.07866 0.0
C363 C 0.5146 0.08326 0.07641 0.0
C364 C 0.51658 0.94552 0.94198 0.0
C365 C 0.51879 0.08109 0.93976 0.0
C366 C 0.58708 1.01254 0.94196 0.0
C367 C 0.58601 0.01666 0.07779 0.0
C368 C 0.44808 0.01453 0.94047 0.0
C369 C 0.44719 1.0135 0.07675 0.0
C370 C 0.44664 0.08158 1.00866 0.0
C371 C 0.58591 0.08243 1.00834 0.0
C372 C 0.4473 0.94637 1.00844 0.0
C373 C 0.58656 0.9472 0.01104 0.0
Eu374 Eu 0.51669 0.0153 0.06273 0.0
O375 O 0.54163 0.04022 0.03421 0.0
O376 O 0.49179 0.98981 0.03444 0.0
Eu377 Eu 0.56992 0.01472 0.00973 0.0
Eu378 Eu 0.46347 0.0141 1.00871 0.0
O379 O 0.54185 0.9897 0.03497 0.0
O380 O 0.49152 0.03954 0.03368 0.0
Eu381 Eu 0.51688 0.96101 0.01004 0.0
Eu382 Eu 0.5164 0.06778 1.0084 0.0
O383 O 0.54202 0.98916 0.98471 0.0
O384 O 0.5418 0.03915 0.98399 0.0
O385 O 0.49179 0.03894 0.98333 0.0
O386 O 0.49214 0.98896 0.98416 0.0
Eu387 Eu 0.51739 1.01364 0.95551 0.0
O388 O 0.51773 0.97479 0.08698 0.0
O389 O 0.51489 0.05682 0.08533 0.0
O390 O 0.51642 0.97197 0.933 0.0
O391 O 0.51905 0.05444 0.93143 0.0
O392 O 0.59456 1.01358 0.96904 0.0
O393 O 0.59399 0.01589 0.05084 0.0
O394 O 0.43962 0.01424 0.96731 0.0
O395 O 0.43905 1.01361 0.0498 0.0
O396 O 0.47357 0.09082 1.00807 0.0
O397 O 0.55887 0.09134 1.00843 0.0
O398 O 0.47433 0.93746 0.00914 0.0
O399 O 0.55964 0.93793 0.0111 0.0
O400 O 0.47518 0.01447 0.93181 0.0
O401 O 0.56024 1.01235 0.93242 0.0
O402 O 0.47417 0.01402 0.08576 0.0
O403 O 0.55899 0.01669 0.08675 0.0
O404 O 0.51536 0.09155 0.04956 0.0
O405 O 0.51744 0.08998 0.96642 0.0
O406 O 0.51441 0.93901 0.05216 0.0
O407 O 0.51719 0.93727 0.96885 0.0
O408 O 0.59424 0.97404 0.01062 0.0
O409 O 0.59392 0.05569 1.00865 0.0
O410 O 0.43936 0.97314 1.00822 0.0
O411 O 0.43898 0.05474 0.00903 0.0
C412 C 0.01404 0.44699 0.07821 0.0
C413 C 0.01472 0.44495 0.9414 0.0
C414 C 0.01492 0.58399 0.07637 0.0
C415 C 0.01603 0.58203 0.93956 0.0
C416 C 0.94712 0.58338 1.00767 0.0
C417 C 0.94598 0.44657 0.00958 0.0
C418 C 0.0846 0.58233 1.00857 0.0
C419 C 0.08342 0.44568 0.00923 0.0
C420 C 0.08376 0.51166 0.94045 0.0
C421 C 0.94594 0.51484 0.94057 0.0
C422 C 0.08332 0.51373 0.07771 0.0
C423 C 0.94546 0.51513 0.07654 0.0
Eu424 Eu 0.01475 0.46183 0.00964 0.0
O425 O 0.98954 0.48944 0.98387 0.0
O426 O 0.04005 0.49008 0.03451 0.0
Eu427 Eu 0.96112 0.51485 1.00863 0.0
Eu428 Eu 0.06909 0.51409 0.00902 0.0
O429 O 0.98948 0.49032 0.03424 0.0
O430 O 0.0401 0.48938 0.98419 0.0
Eu431 Eu 0.01465 0.51532 0.06258 0.0
Eu432 Eu 0.01503 0.51365 0.9551 0.0
O433 O 0.98984 0.53987 0.03354 0.0
O434 O 0.99011 0.53903 0.9833 0.0
O435 O 0.04067 0.53864 0.9833 0.0
O436 O 0.04048 0.53937 0.03381 0.0
Eu437 Eu 0.01564 0.56718 1.00809 0.0
O438 O 0.01456 0.43857 0.05136 0.0
O439 O 0.01499 0.43757 0.96855 0.0
O440 O 0.0155 0.59144 0.04922 0.0
O441 O 0.01549 0.59044 0.96641 0.0
O442 O 0.93789 0.55687 1.00778 0.0
O443 O 0.93719 0.4732 0.00949 0.0
O444 O 0.09326 0.55566 0.00929 0.0
O445 O 0.09251 0.47221 1.00859 0.0
O446 O 0.05676 0.51195 0.93185 0.0
O447 O 0.97296 0.51455 0.93187 0.0
O448 O 0.05629 0.51486 0.08616 0.0
O449 O 0.97241 0.51523 0.08544 0.0
O450 O 0.05752 0.59063 1.00779 0.0
O451 O 0.97433 0.59122 1.00786 0.0
O452 O 0.05621 0.43776 0.01005 0.0
O453 O 0.97306 0.43832 0.00949 0.0
O454 O 0.01445 0.4714 0.932 0.0
O455 O 0.01631 0.55527 0.93108 0.0
O456 O 0.0138 0.47375 0.08666 0.0
O457 O 0.01456 0.55753 0.0857 0.0
O458 O 0.93701 0.51528 0.04971 0.0
O459 O 0.93732 0.5147 0.96734 0.0
O460 O 0.09224 0.51318 0.05096 0.0
O461 O 0.09256 0.51267 0.96725 0.0
C462 C 0.51661 0.44938 0.07918 0.0
C463 C 0.51855 0.58449 0.07641 0.0
C464 C 0.51684 0.4465 0.94097 0.0
C465 C 0.51784 0.58209 0.93819 0.0
C466 C 0.58635 0.51321 0.93981 0.0
C467 C 0.58596 0.51689 0.07776 0.0
C468 C 0.44885 0.51487 0.93972 0.0
C469 C 0.44859 0.51618 0.07727 0.0
C470 C 0.4494 0.58402 0.00945 0.0
C471 C 0.58672 0.58309 1.00819 0.0
C472 C 0.44811 0.44839 1.00786 0.0
C473 C 0.58548 0.44703 0.01169 0.0
Eu474 Eu 0.51727 0.51669 0.06152 0.0
O475 O 0.54297 0.5407 0.03289 0.0
O476 O 0.4917 0.49124 0.03407 0.0
Eu477 Eu 0.57184 0.51515 1.00876 0.0
Eu478 Eu 0.46349 0.51604 1.00853 0.0
O479 O 0.5426 0.49108 0.03402 0.0
O480 O 0.49229 0.54132 0.03292 0.0
Eu481 Eu 0.51699 0.46247 0.00981 0.0
Eu482 Eu 0.51797 0.56874 1.0075 0.0
O483 O 0.54272 0.48998 0.98431 0.0
O484 O 0.54325 0.53982 0.98323 0.0
O485 O 0.49233 0.54031 0.98305 0.0
O486 O 0.49217 0.49053 0.9843 0.0
Eu487 Eu 0.51758 0.51457 0.95556 0.0
O488 O 0.51725 0.47633 0.08642 0.0
O489 O 0.51747 0.55795 0.08494 0.0
O490 O 0.51703 0.47305 0.93227 0.0
O491 O 0.51802 0.55514 0.93078 0.0
O492 O 0.59568 0.51405 0.96653 0.0
O493 O 0.59543 0.51588 0.05112 0.0
O494 O 0.4399 0.51556 0.96651 0.0
O495 O 0.4397 0.51532 0.05046 0.0
O496 O 0.47646 0.59231 1.0085 0.0
O497 O 0.55976 0.59161 1.00732 0.0
O498 O 0.47501 0.43964 0.00897 0.0
O499 O 0.55837 0.43891 0.01123 0.0
O500 O 0.47599 0.51451 0.93152 0.0
O501 O 0.55912 0.51329 0.93199 0.0
O502 O 0.4757 0.5172 0.08548 0.0
O503 O 0.55868 0.51733 0.08538 0.0
O504 O 0.51915 0.59277 0.0494 0.0
O505 O 0.51768 0.59145 0.96486 0.0
O506 O 0.51615 0.43986 0.05257 0.0
O507 O 0.51691 0.43837 0.96802 0.0
O508 O 0.59471 0.47345 0.01079 0.0
O509 O 0.59547 0.55652 1.00878 0.0
O510 O 0.43962 0.47501 1.00763 0.0
O511 O 0.44039 0.55754 0.00943 0.0
C512 C 0.01563 0.44888 0.57819 0.0
C513 C 0.01677 0.44624 0.44174 0.0
C514 C 0.01796 0.58439 0.57562 0.0
C515 C 0.0184 0.58167 0.43891 0.0
C516 C 0.94706 0.58297 0.50824 0.0
C517 C 0.94724 0.44757 0.50846 0.0
C518 C 0.08619 0.58306 0.50723 0.0
C519 C 0.08646 0.44799 0.5106 0.0
C520 C 0.08688 0.51455 0.44092 0.0
C521 C 0.94789 0.51507 0.4401 0.0
C522 C 0.08613 0.51692 0.57705 0.0
C523 C 0.94722 0.51544 0.57639 0.0
Eu524 Eu 0.01681 0.46214 0.50954 0.0
O525 O 0.99198 0.49003 0.48373 0.0
O526 O 0.04184 0.49078 0.5344 0.0
Eu527 Eu 0.96344 0.51531 0.50832 0.0
Eu528 Eu 0.07002 0.51544 0.50889 0.0
O529 O 0.99172 0.49092 0.53403 0.0
O530 O 0.04215 0.48983 0.48393 0.0
Eu531 Eu 0.01672 0.51626 0.56227 0.0
Eu532 Eu 0.01731 0.51431 0.45488 0.0
O533 O 0.9916 0.54075 0.5333 0.0
O534 O 0.99189 0.53982 0.48276 0.0
O535 O 0.04185 0.53987 0.48323 0.0
O536 O 0.04163 0.54082 0.53337 0.0
Eu537 Eu 0.01665 0.56863 0.50765 0.0
O538 O 0.01575 0.43999 0.55152 0.0
O539 O 0.01592 0.43815 0.46861 0.0
O540 O 0.01767 0.59254 0.54872 0.0
O541 O 0.01743 0.59068 0.46554 0.0
O542 O 0.93918 0.55617 0.50845 0.0
O543 O 0.93927 0.47434 0.50799 0.0
O544 O 0.09413 0.55631 0.50799 0.0
O545 O 0.09427 0.47477 0.51012 0.0
O546 O 0.05999 0.51405 0.43156 0.0
O547 O 0.97497 0.51461 0.43135 0.0
O548 O 0.05914 0.51664 0.58609 0.0
O549 O 0.97421 0.51615 0.58537 0.0
O550 O 0.05919 0.59204 0.50701 0.0
O551 O 0.97406 0.59198 0.50776 0.0
O552 O 0.05948 0.43885 0.51033 0.0
O553 O 0.97426 0.43868 0.50929 0.0
O554 O 0.01786 0.47253 0.4324 0.0
O555 O 0.01843 0.555 0.43067 0.0
O556 O 0.01622 0.47553 0.58651 0.0
O557 O 0.01739 0.55798 0.58469 0.0
O558 O 0.93906 0.51506 0.54945 0.0
O559 O 0.93951 0.51531 0.46697 0.0
O560 O 0.09408 0.51665 0.55006 0.0
O561 O 0.09453 0.51501 0.46799 0.0
C562 C 0.51473 0.9473 0.57749 0.0
C563 C 0.51471 0.94607 0.44079 0.0
C564 C 0.51514 0.08427 0.57662 0.0
C565 C 0.51655 0.0832 0.43981 0.0
C566 C 0.44738 0.08406 0.50779 0.0
C567 C 0.44642 0.94722 0.50809 0.0
C568 C 0.58485 0.0831 0.50854 0.0
C569 C 0.58385 0.94653 0.50975 0.0
C570 C 0.58405 1.01233 0.44021 0.0
C571 C 0.44627 0.01622 0.44026 0.0
C572 C 0.58364 0.0146 0.5774 0.0
C573 C 0.4457 0.01511 0.57622 0.0
Eu574 Eu 0.51515 0.96263 0.50906 0.0
O575 O 0.48994 0.99036 0.48347 0.0
O576 O 0.54033 0.99075 0.5341 0.0
Eu577 Eu 0.46142 0.01554 0.5083 0.0
Eu578 Eu 0.56936 0.01489 0.50878 0.0
O579 O 0.48975 0.99087 0.53385 0.0
O580 O 0.54051 0.99026 0.4837 0.0
Eu581 Eu 0.51492 0.01571 0.56236 0.0
Eu582 Eu 0.51535 0.01472 0.45482 0.0
O583 O 0.49008 0.04041 0.53345 0.0
O584 O 0.49043 0.03992 0.48319 0.0
O585 O 0.54093 0.03956 0.48323 0.0
O586 O 0.54074 0.03997 0.53375 0.0
Eu587 Eu 0.5159 0.06792 0.50824 0.0
O588 O 0.51524 0.93907 0.55058 0.0
O589 O 0.51516 0.93858 0.46791 0.0
O590 O 0.51578 0.0919 0.54953 0.0
O591 O 0.51592 0.09141 0.46672 0.0
O592 O 0.43817 0.05755 0.50757 0.0
O593 O 0.43757 0.97383 0.50758 0.0
O594 O 0.59351 0.05642 0.50895 0.0
O595 O 0.59289 0.97308 0.50983 0.0
O596 O 0.55707 1.01297 0.43159 0.0
O597 O 0.47329 0.01587 0.43155 0.0
O598 O 0.55661 0.01517 0.58592 0.0
O599 O 0.47264 0.01533 0.58515 0.0
O600 O 0.55776 0.0914 0.50806 0.0
O601 O 0.47457 0.09196 0.50823 0.0
O602 O 0.55664 0.9386 0.50927 0.0
O603 O 0.47352 0.93909 0.50895 0.0
O604 O 0.51446 0.97256 0.43151 0.0
O605 O 0.51677 0.05651 0.43112 0.0
O606 O 0.51431 0.97399 0.58614 0.0
O607 O 0.51474 0.05776 0.58577 0.0
O608 O 0.43727 0.01534 0.54938 0.0
O609 O 0.43766 0.01596 0.46703 0.0
O610 O 0.59249 0.01452 0.55064 0.0
O611 O 0.59284 1.0131 0.46701 0.0
H612 H 0.19496 0.22697 0.526 0.0
H613 H 0.23246 0.18109 0.45692 0.0
H614 H 0.15633 0.19293 0.52834 0.0
H615 H 0.19386 0.14709 0.45921 0.0
H616 H 0.14436 0.07451 0.49869 0.0
H617 H 0.18023 0.11083 0.49374 0.0
H618 H 0.11532 0.17416 0.50181 0.0
H619 H 0.07941 0.13804 0.50731 0.0
C620 C 0.19458 0.20993 0.51095 0.0
C621 C 0.21674 0.20647 0.49143 0.0
C622 C 0.17255 0.19044 0.51232 0.0
C623 C 0.17236 0.16722 0.49419 0.0
C624 C 0.19385 0.16449 0.47383 0.0
C625 C 0.21582 0.18396 0.47245 0.0
C626 C 0.13768 0.09615 0.49953 0.0
C627 C 0.10897 0.1033 0.50341 0.0
C628 C 0.15822 0.11695 0.49644 0.0
C629 C 0.15048 0.14528 0.49721 0.0
C630 C 0.12187 0.15247 0.50131 0.0
C631 C 0.10131 0.13171 0.50434 0.0
H632 H 0.84122 0.22818 0.4895 0.0
H633 H 0.80451 0.18212 0.55881 0.0
H634 H 0.8805 0.1948 0.48739 0.0
H635 H 0.84375 0.1489 0.55685 0.0
H636 H 0.89224 0.0762 0.51727 0.0
H637 H 0.85673 0.11272 0.52229 0.0
H638 H 0.92197 0.17564 0.51315 0.0
H639 H 0.95762 0.1392 0.50759 0.0
C640 C 0.84194 0.21129 0.50468 0.0
C641 C 0.81975 0.20746 0.52409 0.0
C642 C 0.86435 0.19218 0.50345 0.0
C643 C 0.86487 0.16902 0.52166 0.0
C644 C 0.84351 0.16619 0.54213 0.0
C645 C 0.82116 0.18523 0.54333 0.0
C646 C 0.8991 0.09778 0.51619 0.0
C647 C 0.92783 0.10469 0.51202 0.0
C648 C 0.87875 0.11871 0.51934 0.0
C649 C 0.88666 0.14701 0.51837 0.0
C650 C 0.91528 0.15399 0.51386 0.0
C651 C 0.93568 0.13306 0.51077 0.0
H652 H 0.84193 0.80001 0.52886 0.0
H653 H 0.79848 0.85 0.46653 0.0
H654 H 0.88126 0.83343 0.52921 0.0
H655 H 0.83782 0.88322 0.46658 0.0
H656 H 0.89076 0.95363 0.50513 0.0
H657 H 0.85465 0.91751 0.501 0.0
H658 H 0.91994 0.85404 0.50137 0.0
H659 H 0.95618 0.89002 0.50607 0.0
C660 C 0.84116 0.8178 0.51477 0.0
C661 C 0.81715 0.82267 0.49789 0.0
C662 C 0.86359 0.83694 0.51498 0.0
C663 C 0.86236 0.86115 0.49824 0.0
C664 C 0.83903 0.86509 0.48019 0.0
C665 C 0.81662 0.84605 0.48005 0.0
C666 C 0.8975 0.93201 0.5044 0.0
C667 C 0.92642 0.9248 0.50598 0.0
C668 C 0.87679 0.91131 0.50179 0.0
C669 C 0.88452 0.88297 0.50065 0.0
C670 C 0.91337 0.87571 0.50238 0.0
C671 C 0.93411 0.89639 0.505 0.0
H672 H 0.23336 0.84619 0.55528 0.0
H673 H 0.19005 0.79798 0.49135 0.0
H674 H 0.19415 0.87953 0.55594 0.0
H675 H 0.15086 0.8315 0.49173 0.0
H676 H 0.07677 0.88908 0.51413 0.0
H677 H 0.1121 0.8524 0.51953 0.0
H678 H 0.17873 0.91456 0.52142 0.0
H679 H 0.14351 0.9514 0.51657 0.0
C680 C 0.21521 0.84259 0.54166 0.0
C681 C 0.21474 0.81977 0.52305 0.0
C682 C 0.1929 0.8617 0.54191 0.0
C683 C 0.16975 0.85837 0.52352 0.0
C684 C 0.16842 0.83454 0.50621 0.0
C685 C 0.19076 0.81533 0.50601 0.0
C686 C 0.09894 0.89503 0.51573 0.0
C687 C 0.10727 0.92329 0.51488 0.0
C688 C 0.11915 0.87394 0.51875 0.0
C689 C 0.1481 0.88063 0.52107 0.0
C690 C 0.15647 0.90881 0.52019 0.0
C691 C 0.13629 0.92992 0.51713 0.0
H692 H 0.47738 0.18106 0.22557 0.0
H693 H 0.54453 0.22665 0.18376 0.0
H694 H 0.47526 0.14841 0.18614 0.0
H695 H 0.54252 0.19388 0.1443 0.0
H696 H 0.51511 0.14011 0.06898 0.0
H697 H 0.51229 0.17606 0.1053 0.0
H698 H 0.50817 0.11214 0.16943 0.0
H699 H 0.5105 0.07623 0.13343 0.0
C700 C 0.49157 0.18413 0.20785 0.0
C701 C 0.51132 0.20613 0.20778 0.0
C702 C 0.49039 0.16547 0.18535 0.0
C703 C 0.50896 0.16845 0.16237 0.0
C704 C 0.52782 0.19122 0.16168 0.0
C705 C 0.52898 0.20994 0.18422 0.0
C706 C 0.51353 0.13368 0.09081 0.0
C707 C 0.51305 0.10522 0.09825 0.0
C708 C 0.512 0.1543 0.11158 0.0
C709 C 0.50985 0.14686 0.14012 0.0
C710 C 0.50932 0.11848 0.14754 0.0
C711 C 0.5109 0.09789 0.12686 0.0
H712 H 0.80032 0.54686 0.18487 0.0
H713 H 0.84399 0.47741 0.22359 0.0
H714 H 0.83339 0.54507 0.14508 0.0
H715 H 0.87686 0.47549 0.18391 0.0
H716 H 0.95211 0.50957 0.13352 0.0
H717 H 0.91517 0.50759 0.16921 0.0
H718 H 0.85081 0.51624 0.10479 0.0
H719 H 0.88776 0.51867 0.06886 0.0
C720 C 0.81658 0.53084 0.18451 0.0
C721 C 0.81994 0.51252 0.20737 0.0
C722 C 0.83549 0.52982 0.16182 0.0
C723 C 0.85794 0.51043 0.16171 0.0
C724 C 0.86014 0.49105 0.18379 0.0
C725 C 0.84132 0.49209 0.20641 0.0
C726 C 0.93014 0.51111 0.12685 0.0
C727 C 0.92297 0.51431 0.09828 0.0
C728 C 0.90895 0.50972 0.14732 0.0
C729 C 0.88014 0.51152 0.1397 0.0
C730 C 0.87288 0.51491 0.11122 0.0
C731 C 0.89409 0.51621 0.09067 0.0
H732 H 0.53989 0.84343 0.2265 0.0
H733 H 0.48969 0.79474 0.16789 0.0
H734 H 0.53574 0.88372 0.19574 0.0
H735 H 0.4885 0.83367 0.13577 0.0
H736 H 0.47329 0.91156 0.08777 0.0
H737 H 0.47061 0.87622 0.12459 0.0
H738 H 0.55384 0.90151 0.15459 0.0
H739 H 0.55486 0.93843 0.11921 0.0
C740 C 0.52795 0.84126 0.20711 0.0
C741 C 0.51546 0.81562 0.19958 0.0
C742 C 0.526 0.86429 0.18915 0.0
C743 C 0.51209 0.86205 0.16296 0.0
C744 C 0.49907 0.83656 0.15583 0.0
C745 C 0.50031 0.81386 0.17408 0.0
C746 C 0.49078 0.90951 0.10252 0.0
C747 C 0.51434 0.92727 0.10084 0.0
C748 C 0.48945 0.88918 0.12349 0.0
C749 C 0.51218 0.88559 0.14251 0.0
C750 C 0.53567 0.90383 0.14078 0.0
C751 C 0.5365 0.92477 0.12036 0.0
H752 H 0.19451 0.5435 0.22085 0.0
H753 H 0.22735 0.46875 0.18155 0.0
H754 H 0.15484 0.54378 0.18749 0.0
H755 H 0.18783 0.46904 0.14826 0.0
H756 H 0.14024 0.50363 0.07157 0.0
H757 H 0.17601 0.50064 0.10848 0.0
H758 H 0.1119 0.51743 0.17143 0.0
H759 H 0.07599 0.52086 0.13457 0.0
C760 C 0.19287 0.52681 0.20549 0.0
C761 C 0.21411 0.5063 0.2035 0.0
C762 C 0.17025 0.527 0.18639 0.0
C763 C 0.16858 0.50668 0.16504 0.0
C764 C 0.18897 0.4853 0.16412 0.0
C765 C 0.2115 0.48509 0.18319 0.0
C766 C 0.13369 0.50678 0.09323 0.0
C767 C 0.1052 0.51246 0.10005 0.0
C768 C 0.15417 0.50481 0.1144 0.0
C769 C 0.14663 0.50857 0.14281 0.0
C770 C 0.11827 0.51455 0.14968 0.0
C771 C 0.09772 0.51639 0.12852 0.0
H772 H 0.54694 0.80425 0.83084 0.0
H773 H 0.47199 0.84468 0.79755 0.0
H774 H 0.54715 0.83686 0.87059 0.0
H775 H 0.47221 0.87718 0.83712 0.0
H776 H 0.52274 0.88897 0.94912 0.0
H777 H 0.51957 0.85271 0.91307 0.0
H778 H 0.50502 0.91584 0.84967 0.0
H779 H 0.50777 0.95203 0.88544 0.0
C780 C 0.53022 0.81974 0.83234 0.0
C781 C 0.50967 0.82224 0.81099 0.0
C782 C 0.53035 0.83838 0.85503 0.0
C783 C 0.50994 0.85975 0.85663 0.0
C784 C 0.48855 0.86126 0.83604 0.0
C785 C 0.4884 0.84267 0.81346 0.0
C786 C 0.51882 0.89515 0.92751 0.0
C787 C 0.51545 0.92345 0.92021 0.0
C788 C 0.51713 0.87436 0.90689 0.0
C789 C 0.51183 0.88149 0.87868 0.0
C790 C 0.50865 0.90973 0.87137 0.0
C791 C 0.51048 0.93049 0.89188 0.0
H792 H 0.193 0.53106 0.79411 0.0
H793 H 0.22889 0.46179 0.8403 0.0
H794 H 0.1537 0.53338 0.82772 0.0
H795 H 0.18961 0.46398 0.8738 0.0
H796 H 0.14097 0.5034 0.94723 0.0
H797 H 0.17667 0.49803 0.91054 0.0
H798 H 0.11198 0.5083 0.84669 0.0
H799 H 0.07621 0.51423 0.88325 0.0
C800 C 0.19207 0.51592 0.81105 0.0
C801 C 0.21406 0.49645 0.81484 0.0
C802 C 0.16966 0.51728 0.83032 0.0
C803 C 0.1689 0.49915 0.85362 0.0
C804 C 0.19004 0.47863 0.85641 0.0
C805 C 0.2124 0.47729 0.8372 0.0
C806 C 0.1343 0.50466 0.92541 0.0
C807 C 0.10569 0.50926 0.91826 0.0
C808 C 0.15474 0.5013 0.90438 0.0
C809 C 0.14703 0.50251 0.87577 0.0
C810 C 0.11853 0.5074 0.86857 0.0
C811 C 0.09805 0.51069 0.88959 0.0
H812 H 0.49665 0.18844 0.79375 0.0
H813 H 0.55898 0.23051 0.84554 0.0
H814 H 0.49712 0.14868 0.8261 0.0
H815 H 0.55967 0.19079 0.87768 0.0
H816 H 0.52042 0.13766 0.94715 0.0
H817 H 0.52434 0.17349 0.91134 0.0
H818 H 0.52609 0.11019 0.84641 0.0
H819 H 0.52168 0.07394 0.88232 0.0
C820 C 0.51088 0.18888 0.81172 0.0
C821 C 0.5275 0.21262 0.81743 0.0
C822 C 0.51116 0.16617 0.8302 0.0
C823 C 0.52811 0.16687 0.85461 0.0
C824 C 0.54592 0.18997 0.85936 0.0
C825 C 0.54558 0.21264 0.84098 0.0
C826 C 0.52162 0.1312 0.92529 0.0
C827 C 0.52074 0.10282 0.91769 0.0
C828 C 0.52412 0.15181 0.90476 0.0
C829 C 0.52583 0.14461 0.87611 0.0
C830 C 0.52472 0.11631 0.86835 0.0
C831 C 0.52226 0.09559 0.88896 0.0
H832 H 0.80091 0.48277 0.83211 0.0
H833 H 0.84518 0.55141 0.79251 0.0
H834 H 0.83406 0.48477 0.87183 0.0
H835 H 0.87816 0.5535 0.83213 0.0
H836 H 0.95296 0.51975 0.88355 0.0
H837 H 0.91622 0.52147 0.8476 0.0
H838 H 0.85145 0.51414 0.91173 0.0
H839 H 0.88817 0.51199 0.94792 0.0
C840 C 0.81735 0.49864 0.83223 0.0
C841 C 0.8208 0.51669 0.80917 0.0
C842 C 0.8363 0.49978 0.8549 0.0
C843 C 0.85891 0.519 0.85478 0.0
C844 C 0.8613 0.53806 0.83243 0.0
C845 C 0.84242 0.53692 0.80985 0.0
C846 C 0.93093 0.51848 0.8901 0.0
C847 C 0.92359 0.51572 0.91868 0.0
C848 C 0.90987 0.51969 0.86948 0.0
C849 C 0.881 0.51815 0.87693 0.0
C850 C 0.87356 0.51524 0.90542 0.0
C851 C 0.89464 0.51412 0.92612 0.0
H852 H 0.69284 0.72847 0.97855 0.0
H853 H 0.73374 0.68491 0.0472 0.0
H854 H 0.65399 0.6945 0.97939 0.0
H855 H 0.69495 0.65109 0.04817 0.0
H856 H 0.64443 0.57689 0.01318 0.0
H857 H 0.68014 0.61365 0.01549 0.0
H858 H 0.61435 0.67618 1.0082 0.0
H859 H 0.57859 0.63963 1.00539 0.0
C860 C 0.69314 0.712 0.99421 0.0
C861 C 0.71632 0.70905 0.01261 0.0
C862 C 0.671 0.69255 0.99466 0.0
C863 C 0.67175 0.66994 0.01356 0.0
C864 C 0.69419 0.66795 0.03296 0.0
C865 C 0.71627 0.68734 0.0325 0.0
C866 C 0.63752 0.59844 0.012 0.0
C867 C 0.60861 0.60523 0.00909 0.0
C868 C 0.65797 0.6195 0.01356 0.0
C869 C 0.64994 0.64775 0.0122 0.0
C870 C 0.62112 0.65457 0.00911 0.0
C871 C 0.60066 0.63355 1.0076 0.0
H872 H 0.34034 0.72929 0.98987 0.0
H873 H 0.30402 0.68266 0.059 0.0
H874 H 0.37989 0.69623 0.98762 0.0
H875 H 0.34352 0.64975 0.05689 0.0
H876 H 0.39203 0.57753 0.01647 0.0
H877 H 0.35645 0.61391 0.02178 0.0
H878 H 0.42155 0.67707 0.01339 0.0
H879 H 0.45732 0.64075 1.00759 0.0
C880 C 0.34121 0.71235 1.00499 0.0
C881 C 0.31904 0.70825 0.02438 0.0
C882 C 0.36377 0.69343 1.00368 0.0
C883 C 0.36446 0.67019 0.02177 0.0
C884 C 0.34314 0.66712 0.04226 0.0
C885 C 0.32064 0.68597 0.04354 0.0
C886 C 0.39886 0.59913 0.01563 0.0
C887 C 0.42759 0.60614 0.01163 0.0
C888 C 0.37847 0.61998 0.01894 0.0
C889 C 0.38632 0.64829 0.01829 0.0
C890 C 0.41493 0.6554 0.01389 0.0
C891 C 0.43539 0.63453 0.01065 0.0
H892 H 0.33846 0.30385 0.02914 0.0
H893 H 0.30027 0.35113 0.96144 0.0
H894 H 0.37761 0.33736 0.03127 0.0
H895 H 0.33937 0.38457 0.96351 0.0
H896 H 0.3907 0.45591 1.00235 0.0
H897 H 0.35427 0.42015 0.99808 0.0
H898 H 0.41845 0.3559 1.00418 0.0
H899 H 0.45505 0.39157 0.00896 0.0
C900 C 0.33875 0.32112 0.01438 0.0
C901 C 0.31628 0.3251 0.9953 0.0
C902 C 0.36109 0.34029 0.01562 0.0
C903 C 0.36129 0.36371 0.99778 0.0
C904 C 0.33941 0.367 0.97791 0.0
C905 C 0.31712 0.34787 0.97668 0.0
C906 C 0.39714 0.4342 1.00289 0.0
C907 C 0.42585 0.42668 1.00601 0.0
C908 C 0.37625 0.41371 1.0002 0.0
C909 C 0.38359 0.38528 1.0006 0.0
C910 C 0.41221 0.37768 1.00399 0.0
C911 C 0.43315 0.39817 1.00663 0.0
H912 H 0.72827 0.34534 0.06311 0.0
H913 H 0.6922 0.30021 0.99277 0.0
H914 H 0.68951 0.37911 0.0607 0.0
H915 H 0.65341 0.3341 0.99023 0.0
H916 H 0.57685 0.39052 0.00914 0.0
H917 H 0.61184 0.35366 0.0154 0.0
H918 H 0.67775 0.4157 0.02591 0.0
H919 H 0.64281 0.45273 0.02019 0.0
C920 C 0.71181 0.34251 0.04736 0.0
C921 C 0.71329 0.32041 0.02793 0.0
C922 C 0.68977 0.36187 0.04588 0.0
C923 C 0.66879 0.35948 0.02496 0.0
C924 C 0.66929 0.33639 1.00662 0.0
C925 C 0.69139 0.31697 1.00811 0.0
C926 C 0.59879 0.39641 0.01279 0.0
C927 C 0.60699 0.42467 0.01421 0.0
C928 C 0.61882 0.37521 0.01628 0.0
C929 C 0.64742 0.38182 0.02135 0.0
C930 C 0.65571 0.41002 0.02251 0.0
C931 C 0.63572 0.43123 0.01895 0.0
H932 H 0.06512 0.68191 0.72146 0.0
H933 H 0.99628 0.7291 0.68453 0.0
H934 H 0.06372 0.64942 0.68189 0.0
H935 H 0.99476 0.69643 0.64485 0.0
H936 H 0.01676 0.64121 0.56791 0.0
H937 H 0.02182 0.67742 0.60378 0.0
H938 H 0.02826 0.61392 0.66813 0.0
H939 H 0.02366 0.57776 0.63257 0.0
C940 C 0.04985 0.68541 0.70472 0.0
C941 C 0.03056 0.70773 0.70615 0.0
C942 C 0.049 0.66681 0.68215 0.0
C943 C 0.02882 0.67017 0.6606 0.0
C944 C 0.01059 0.69342 0.66117 0.0
C945 C 0.01147 0.7121 0.68381 0.0
C946 C 0.01925 0.63493 0.58971 0.0
C947 C 0.01987 0.60651 0.59731 0.0
C948 C 0.02206 0.65571 0.61021 0.0
C949 C 0.02571 0.64845 0.63865 0.0
C950 C 0.02602 0.62011 0.64627 0.0
C951 C 0.02312 0.59938 0.62587 0.0
H952 H 0.30078 0.04635 0.68485 0.0
H953 H 0.34435 0.97666 0.72323 0.0
H954 H 0.33375 0.04462 0.64499 0.0
H955 H 0.37712 0.97478 0.68345 0.0
H956 H 0.45238 1.00895 0.63313 0.0
H957 H 0.41547 1.00676 0.66883 0.0
H958 H 0.35107 0.01606 0.60454 0.0
H959 H 0.388 0.01874 0.5686 0.0
C960 C 0.31699 0.03029 0.68439 0.0
C961 C 0.32035 1.01188 0.70718 0.0
C962 C 0.33584 0.0293 0.66166 0.0
C963 C 0.35824 1.00986 0.66142 0.0
C964 C 0.36044 0.99038 0.68343 0.0
C965 C 0.34168 0.9914 0.7061 0.0
C966 C 0.4304 1.01059 0.62649 0.0
C967 C 0.42322 0.01405 0.59795 0.0
C968 C 0.40923 1.00907 0.64696 0.0
C969 C 0.38041 1.011 0.63939 0.0
C970 C 0.37314 0.01463 0.61094 0.0
C971 C 0.39433 0.01606 0.59039 0.0
H972 H 0.04718 0.34021 0.72116 0.0
H973 H 0.97867 0.3005 0.67552 0.0
H974 H 0.04501 0.38008 0.68901 0.0
H975 H 0.97636 0.34029 0.64356 0.0
H976 H 0.01104 0.39249 0.57085 0.0
H977 H 0.0091 0.35662 0.60677 0.0
H978 H 0.01508 0.4196 0.67177 0.0
H979 H 0.01749 0.4559 0.63569 0.0
C980 C 0.03131 0.3403 0.7046 0.0
C981 C 0.01335 0.31718 0.70052 0.0
C982 C 0.03005 0.36308 0.68624 0.0
C983 C 0.01077 0.36306 0.66359 0.0
C984 C 0.99183 0.34057 0.66049 0.0
C985 C 0.99313 0.31784 0.67875 0.0
C986 C 0.01195 0.39887 0.59275 0.0
C987 C 0.01445 0.42717 0.60032 0.0
C988 C 0.01058 0.37825 0.61336 0.0
C989 C 0.01168 0.38535 0.64205 0.0
C990 C 0.0143 0.41357 0.64977 0.0
C991 C 0.01559 0.43432 0.62908 0.0
H992 H 0.69153 0.04537 0.72252 0.0
H993 H 0.73369 0.97922 0.67682 0.0
H994 H 0.65183 0.04341 0.68926 0.0
H995 H 0.69405 0.97709 0.64375 0.0
H996 H 0.64125 1.01091 0.57044 0.0
H997 H 0.67749 1.0092 0.60685 0.0
H998 H 0.61256 1.01388 0.6711 0.0
H999 H 0.57608 0.0161 0.63471 0.0
C1000 C 0.69199 0.03005 0.70571 0.0
C1001 C 0.71573 1.01269 0.70195 0.0
C1002 C 0.66933 0.02892 0.68669 0.0
C1003 C 0.67011 1.01038 0.66371 0.0
C1004 C 0.69321 0.99202 0.66091 0.0
C1005 C 0.71581 0.99318 0.67984 0.0
C1006 C 0.63458 1.0116 0.59228 0.0
C1007 C 0.60569 1.01367 0.59958 0.0
C1008 C 0.65538 1.01038 0.61316 0.0
C1009 C 0.64779 1.0112 0.64179 0.0
C1010 C 0.61899 1.01338 0.64917 0.0
C1011 C 0.59812 0.01454 0.62828 0.0
H1012 H 0.96858 0.33606 0.30721 0.0
H1013 H 0.05594 0.31353 0.32338 0.0
H1014 H 0.96974 0.36859 0.34725 0.0
H1015 H 0.05734 0.34673 0.36294 0.0
H1016 H 0.04587 0.44462 0.39228 0.0
H1017 H 0.04501 0.40728 0.35683 0.0
H1018 H 0.9851 0.36106 0.40752 0.0
H1019 H 0.98656 0.39793 0.44347 0.0
C1020 C 0.98783 0.33789 0.31964 0.0
C1021 C 0.01214 0.32243 0.31256 0.0
C1022 C 0.98849 0.35635 0.34238 0.0
C1023 C 0.01364 0.35995 0.35784 0.0
C1024 C 0.03778 0.3441 0.35115 0.0
C1025 C 0.03694 0.32516 0.32877 0.0
C1026 C 0.03262 0.42643 0.39583 0.0
C1027 C 0.01629 0.424 0.42046 0.0
C1028 C 0.03228 0.40513 0.37575 0.0
C1029 C 0.0151 0.38151 0.37979 0.0
C1030 C 0.99858 0.37914 0.40424 0.0
C1031 C 0.99946 0.40011 0.42467 0.0
H1032 H 0.72871 0.96112 0.34016 0.0
H1033 H 0.69329 0.03049 0.29375 0.0
H1034 H 0.68943 0.96367 0.37364 0.0
H1035 H 0.65398 0.03314 0.32733 0.0
H1036 H 0.57643 0.01457 0.38301 0.0
H1037 H 0.6121 1.00824 0.34643 0.0
H1038 H 0.67687 0.9982 0.41023 0.0
H1039 H 0.64126 1.004 0.44695 0.0
C1040 C 0.71231 0.9767 0.337 0.0
C1041 C 0.71411 0.9958 0.3146 0.0
C1042 C 0.68996 0.97825 0.35619 0.0
C1043 C 0.66897 0.9989 0.35334 0.0
C1044 C 0.66984 0.01695 0.32998 0.0
C1045 C 0.69225 0.01539 0.31073 0.0
C1046 C 0.59826 1.01101 0.38933 0.0
C1047 C 0.60594 1.00974 0.418 0.0
C1048 C 0.61868 1.00748 0.36831 0.0
C1049 C 0.64717 1.00252 0.37549 0.0
C1050 C 0.65493 1.00151 0.40409 0.0
C1051 C 0.63455 1.00511 0.42513 0.0
H1052 H 0.99668 0.69053 0.29377 0.0
H1053 H 0.0652 0.72713 0.34199 0.0
H1054 H 0.99537 0.65089 0.32628 0.0
H1055 H 0.064 0.68759 0.37433 0.0
H1056 H 0.02384 0.63805 0.44598 0.0
H1057 H 0.02844 0.6735 0.40981 0.0
H1058 H 0.02267 0.61011 0.3452 0.0
H1059 H 0.01761 0.57429 0.38147 0.0
C1060 C 0.01184 0.68977 0.31097 0.0
C1061 C 0.03077 0.712 0.31567 0.0
C1062 C 0.01109 0.66714 0.32954 0.0
C1063 C 0.02928 0.66644 0.35304 0.0
C1064 C 0.0493 0.68792 0.35674 0.0
C1065 C 0.05003 0.71048 0.33824 0.0
C1066 C 0.02345 0.63151 0.42412 0.0
C1067 C 0.02038 0.60324 0.4167 0.0
C1068 C 0.02636 0.65187 0.40338 0.0
C1069 C 0.02624 0.6445 0.37473 0.0
C1070 C 0.02278 0.61634 0.36716 0.0
C1071 C 0.01996 0.59586 0.38796 0.0
H1072 H 0.34486 0.05133 0.29203 0.0
H1073 H 0.30122 0.98287 0.33259 0.0
H1074 H 0.37795 0.05414 0.33153 0.0
H1075 H 0.33446 0.98557 0.37218 0.0
H1076 H 0.38854 1.01341 0.44774 0.0
H1077 H 0.35174 0.01531 0.41165 0.0
H1078 H 0.41631 0.02271 0.34733 0.0
H1079 H 0.45316 0.02126 0.38321 0.0
C1080 C 0.34226 0.03704 0.30955 0.0
C1081 C 0.32078 0.01666 0.30918 0.0
C1082 C 0.3612 0.03859 0.33207 0.0
C1083 C 0.35902 0.01978 0.35466 0.0
C1084 C 0.33654 1.0004 0.35506 0.0
C1085 C 0.31753 0.99886 0.33248 0.0
C1086 C 0.39496 0.01552 0.42592 0.0
C1087 C 0.42388 0.01718 0.4184 0.0
C1088 C 0.37383 0.01651 0.40528 0.0
C1089 C 0.38118 0.01931 0.37676 0.0
C1090 C 0.41002 0.021 0.36923 0.0
C1091 C 0.43115 0.01993 0.38981 0.0
H1092 H 0.98068 0.22145 0.32534 0.0
H1093 H 0.0364 0.16844 0.27703 0.0
H1094 H 0.98628 0.19079 0.36627 0.0
H1095 H 0.04275 0.13804 0.31801 0.0
H1096 H 0.01729 0.07092 0.38163 0.0
H1097 H 0.01584 0.10423 0.34322 0.0
H1098 H 0.01618 0.1723 0.40301 0.0
H1099 H 0.01705 0.1387 0.44186 0.0
C1100 C 0.99449 0.20342 0.32365 0.0
C1101 C 0.00776 0.19711 0.29783 0.0
C1102 C 0.99783 0.18585 0.34717 0.0
C1103 C 0.01465 0.16152 0.34556 0.0
C1104 C 0.02906 0.15612 0.32003 0.0
C1105 C 0.02568 0.17367 0.29654 0.0
C1106 C 0.01714 0.09296 0.38682 0.0
C1107 C 0.01727 0.1019 0.41515 0.0
C1108 C 0.01654 0.11221 0.36457 0.0
C1109 C 0.01608 0.14118 0.36973 0.0
C1110 C 0.01627 0.15022 0.39806 0.0
C1111 C 0.0169 0.13088 0.42043 0.0
H1112 H 0.80928 0.9616 0.33364 0.0
H1113 H 0.8357 0.03891 0.2949 0.0
H1114 H 0.84824 0.9651 0.36733 0.0
H1115 H 0.87508 0.04245 0.32881 0.0
H1116 H 0.9557 0.02384 0.38376 0.0
H1117 H 0.92034 0.01978 0.34626 0.0
H1118 H 0.85677 0.99708 0.40777 0.0
H1119 H 0.89201 1.00092 0.44529 0.0
C1120 C 0.82377 0.97915 0.33208 0.0
C1121 C 0.81931 1.00013 0.31181 0.0
C1122 C 0.84593 0.98127 0.35152 0.0
C1123 C 0.86436 1.00436 0.35116 0.0
C1124 C 0.86117 0.02444 0.32966 0.0
C1125 C 0.83877 0.02236 0.31015 0.0
C1126 C 0.93417 0.01801 0.38935 0.0
C1127 C 0.92678 1.01257 0.41763 0.0
C1128 C 0.91389 0.01584 0.36781 0.0
C1129 C 0.88584 1.00786 0.37398 0.0
C1130 C 0.87834 1.00285 0.40226 0.0
C1131 C 0.89851 1.00528 0.42383 0.0
H1132 H 0.0654 0.80433 0.33569 0.0
H1133 H 0.98856 0.83333 0.2956 0.0
H1134 H 0.06302 0.84276 0.36924 0.0
H1135 H 0.98614 0.87227 0.32942 0.0
H1136 H 0.00709 0.95135 0.38415 0.0
H1137 H 0.00979 0.9159 0.34718 0.0
H1138 H 0.03212 0.85398 0.40946 0.0
H1139 H 0.0296 0.88933 0.44643 0.0
C1140 C 0.04815 0.81922 0.33381 0.0
C1141 C 0.02703 0.81559 0.31307 0.0
C1142 C 0.04665 0.84115 0.35325 0.0
C1143 C 0.02405 0.86034 0.35253 0.0
C1144 C 0.00382 0.85784 0.33067 0.0
C1145 C 0.00526 0.83565 0.31115 0.0
C1146 C 0.01257 0.93017 0.39006 0.0
C1147 C 0.01826 0.92337 0.41846 0.0
C1148 C 0.01394 0.90979 0.36878 0.0
C1149 C 0.02139 0.88206 0.37519 0.0
C1150 C 0.02675 0.8752 0.40361 0.0
C1151 C 0.0251 0.89549 0.42492 0.0
H1152 H 0.17348 0.98148 0.28035 0.0
H1153 H 0.21442 0.05464 0.31454 0.0
H1154 H 0.14648 0.97591 0.32401 0.0
H1155 H 0.18682 0.04974 0.35807 0.0
H1156 H 0.14416 0.02182 0.44093 0.0
H1157 H 0.17699 0.02221 0.40069 0.0
H1158 H 0.10764 1.00022 0.34517 0.0
H1159 H 0.07546 0.99914 0.38477 0.0
C1160 C 0.17667 0.99633 0.29732 0.0
C1161 C 0.19563 0.0187 0.29395 0.0
C1162 C 0.16116 0.99327 0.32228 0.0
C1163 C 0.16414 1.01261 0.34451 0.0
C1164 C 0.18406 0.03438 0.34153 0.0
C1165 C 0.19968 0.03735 0.31651 0.0
C1166 C 0.13607 0.01677 0.42016 0.0
C1167 C 0.10708 1.01057 0.41622 0.0
C1168 C 0.15483 0.01718 0.39706 0.0
C1169 C 0.14502 1.01115 0.36962 0.0
C1170 C 0.11616 1.00451 0.36595 0.0
C1171 C 0.09755 1.00419 0.38881 0.0
H1172 H 0.03167 0.86033 0.74126 0.0
H1173 H 0.98035 0.80514 0.69056 0.0
H1174 H 0.038 0.89134 0.70075 0.0
H1175 H 0.98582 0.83641 0.65014 0.0
H1176 H 0.01748 0.88968 0.57588 0.0
H1177 H 0.01609 0.85607 0.61469 0.0
H1178 H 0.0113 0.9241 0.67435 0.0
H1179 H 0.01334 0.95743 0.63599 0.0
C1180 C 0.02186 0.8548 0.72135 0.0
C1181 C 0.0053 0.83047 0.7192 0.0
C1182 C 0.02523 0.87269 0.69812 0.0
C1183 C 0.01209 0.86677 0.67202 0.0
C1184 C 0.99644 0.84174 0.66967 0.0
C1185 C 0.99314 0.82383 0.69292 0.0
C1186 C 0.01622 0.89749 0.59728 0.0
C1187 C 0.0156 0.92646 0.60254 0.0
C1188 C 0.01529 0.87814 0.61963 0.0
C1189 C 0.01372 0.88718 0.64791 0.0
C1190 C 0.0131 0.91614 0.65306 0.0
C1191 C 0.01406 0.9354 0.63083 0.0
H1192 H 0.17463 0.046 0.73681 0.0
H1193 H 0.2143 0.97192 0.70332 0.0
H1194 H 0.14771 0.05158 0.69309 0.0
H1195 H 0.18678 0.97685 0.65973 0.0
H1196 H 0.14436 1.00458 0.57661 0.0
H1197 H 0.17729 1.0041 0.61681 0.0
H1198 H 0.10845 0.02762 0.67222 0.0
H1199 H 0.07619 0.02879 0.63267 0.0
C1200 C 0.17758 0.03096 0.71998 0.0
C1201 C 0.19617 1.00834 0.72356 0.0
C1202 C 0.16211 0.03402 0.69498 0.0
C1203 C 0.16474 0.01444 0.67293 0.0
C1204 C 0.1843 0.99241 0.67613 0.0
C1205 C 0.19988 0.98942 0.70117 0.0
C1206 C 0.13641 1.00994 0.59735 0.0
C1207 C 0.10753 0.0166 0.60127 0.0
C1208 C 0.15522 1.00948 0.62043 0.0
C1209 C 0.14559 0.01593 0.64783 0.0
C1210 C 0.11685 0.02301 0.65148 0.0
C1211 C 0.09818 0.02338 0.62864 0.0
H1212 H 0.05934 0.22997 0.67778 0.0
H1213 H 0.99058 0.19211 0.72418 0.0
H1214 H 0.05918 0.19108 0.64465 0.0
H1215 H 0.99012 0.15289 0.69065 0.0
H1216 H 0.01334 0.07658 0.63425 0.0
H1217 H 0.01563 0.11237 0.67085 0.0
H1218 H 0.02824 0.17546 0.60707 0.0
H1219 H 0.02633 0.13977 0.57049 0.0
C1220 C 0.04442 0.21303 0.68112 0.0
C1221 C 0.0249 0.21419 0.70358 0.0
C1222 C 0.04411 0.19084 0.66191 0.0
C1223 C 0.02423 0.16902 0.66448 0.0
C1224 C 0.00575 0.1693 0.68794 0.0
C1225 C 0.00607 0.19167 0.70729 0.0
C1226 C 0.01663 0.09808 0.62792 0.0
C1227 C 0.01976 0.1051 0.59919 0.0
C1228 C 0.01778 0.11867 0.64903 0.0
C1229 C 0.02232 0.14689 0.64209 0.0
C1230 C 0.02521 0.15392 0.61336 0.0
C1231 C 0.0239 0.13339 0.59226 0.0
H1232 H 0.80542 0.06094 0.68299 0.0
H1233 H 0.84057 0.98932 0.72566 0.0
H1234 H 0.84463 0.06018 0.64937 0.0
H1235 H 0.87998 0.98824 0.69169 0.0
H1236 H 0.95728 1.00919 0.63477 0.0
H1237 H 0.92216 1.01285 0.67238 0.0
H1238 H 0.85664 0.02852 0.61058 0.0
H1239 H 0.89171 0.02527 0.57291 0.0
C1240 C 0.82197 0.04539 0.68548 0.0
C1241 C 0.82002 0.02517 0.70686 0.0
C1242 C 0.84423 0.04473 0.66604 0.0
C1243 C 0.8651 0.02378 0.66745 0.0
C1244 C 0.86423 1.00465 0.69002 0.0
C1245 C 0.84182 1.00533 0.70958 0.0
C1246 C 0.93539 1.01345 0.62911 0.0
C1247 C 0.92741 0.01704 0.60068 0.0
C1248 C 0.91524 0.0154 0.65075 0.0
C1249 C 0.88665 0.02121 0.64455 0.0
C1250 C 0.87861 0.02451 0.61614 0.0
C1251 C 0.8987 0.02239 0.59448 0.0
H1252 H 0.29733 0.03796 0.18398 0.0
H1253 H 0.34394 0.96982 0.22137 0.0
H1254 H 0.33139 0.03912 0.14471 0.0
H1255 H 0.37759 0.97062 0.18232 0.0
H1256 H 0.45268 1.00668 0.13392 0.0
H1257 H 0.41504 1.00342 0.16895 0.0
H1258 H 0.35183 1.01373 0.10372 0.0
H1259 H 0.38946 0.01741 0.06856 0.0
C1260 C 0.31437 0.02275 0.18333 0.0
C1261 C 0.31816 1.00391 0.20568 0.0
C1262 C 0.33394 0.02346 0.16098 0.0
C1263 C 0.35756 1.00533 0.16071 0.0
C1264 C 0.36009 0.98534 0.18223 0.0
C1265 C 0.34067 0.98467 0.20444 0.0
C1266 C 0.43081 1.00835 0.12695 0.0
C1267 C 0.42425 1.01222 0.09831 0.0
C1268 C 0.40917 1.00625 0.14705 0.0
C1269 C 0.38038 1.00803 0.1391 0.0
C1270 C 0.37377 1.01237 0.11056 0.0
C1271 C 0.39542 0.01434 0.09039 0.0
H1272 H 0.96912 0.34142 0.22118 0.0
H1273 H 0.04513 0.30241 0.18899 0.0
H1274 H 0.97002 0.37495 0.18256 0.0
H1275 H 0.04608 0.33613 0.14999 0.0
H1276 H 0.02457 0.39083 0.07169 0.0
H1277 H 0.02206 0.35396 0.10712 0.0
H1278 H 0.99969 0.4151 0.17023 0.0
H1279 H 1.00194 0.45201 0.13482 0.0
C1280 C 0.98582 0.33973 0.20554 0.0
C1281 C 0.00716 0.31928 0.20832 0.0
C1282 C 0.98649 0.35917 0.1835 0.0
C1283 C 0.00846 0.35875 0.1634 0.0
C1284 C 0.02883 0.33716 0.16508 0.0
C1285 C 0.02821 0.31766 0.18732 0.0
C1286 C 0.01908 0.39651 0.09311 0.0
C1287 C 0.01335 0.42458 0.10023 0.0
C1288 C 0.01781 0.37528 0.1135 0.0
C1289 C 0.01048 0.38138 0.14158 0.0
C1290 C 0.00497 0.40947 0.14875 0.0
C1291 C 0.00649 0.43075 0.12843 0.0
H1292 H 0.70119 0.05301 0.21871 0.0
H1293 H 0.7488 0.99859 0.16381 0.0
H1294 H 0.65945 0.04821 0.18815 0.0
H1295 H 0.70703 0.99297 0.13365 0.0
H1296 H 0.64309 0.01948 0.06743 0.0
H1297 H 0.68188 0.02133 0.10072 0.0
H1298 H 0.62224 0.01755 0.16985 0.0
H1299 H 0.58272 0.01625 0.13613 0.0
C1300 C 0.70258 0.0398 0.2002 0.0
C1301 C 0.72832 0.02651 0.19331 0.0
C1302 C 0.67862 0.03686 0.1828 0.0
C1303 C 0.67987 0.02046 0.15818 0.0
C1304 C 0.70539 1.00628 0.15205 0.0
C1305 C 0.72931 1.00932 0.16937 0.0
C1306 C 0.63795 0.01895 0.08968 0.0
C1307 C 0.60951 0.01763 0.09894 0.0
C1308 C 0.66043 0.0198 0.10888 0.0
C1309 C 0.65537 0.01928 0.13807 0.0
C1310 C 0.62696 0.01813 0.14751 0.0
C1311 C 0.60428 0.01728 0.12817 0.0
H1312 H 0.03231 0.74518 0.16295 0.0
H1313 H 0.97877 0.69682 0.21816 0.0
H1314 H 0.03852 0.70445 0.13239 0.0
H1315 H 0.98414 0.65616 0.18732 0.0
H1316 H 0.01527 0.58126 0.13478 0.0
H1317 H 0.0142 0.62009 0.16839 0.0
H1318 H 0.01156 0.67862 0.09919 0.0
H1319 H 0.01326 0.64031 0.06592 0.0
C1320 C 0.022 0.72573 0.16859 0.0
C1321 C 0.00485 0.72431 0.19278 0.0
C1322 C 0.02531 0.70238 0.15096 0.0
C1323 C 0.0115 0.67688 0.15699 0.0
C1324 C 0.99526 0.67523 0.18192 0.0
C1325 C 0.99202 0.69861 0.19958 0.0
C1326 C 0.01457 0.60242 0.12673 0.0
C1327 C 0.01443 0.60738 0.09745 0.0
C1328 C 0.01383 0.62477 0.14606 0.0
C1329 C 0.01296 0.65273 0.13669 0.0
C1330 C 0.01283 0.65757 0.10742 0.0
C1331 C 0.01358 0.63536 0.08819 0.0
H1332 H 0.29824 0.98945 0.83293 0.0
H1333 H 0.34546 0.05687 0.79489 0.0
H1334 H 0.33249 0.9882 0.87205 0.0
H1335 H 0.37931 0.05597 0.83378 0.0
H1336 H 0.454 0.02067 0.88321 0.0
H1337 H 0.41659 0.02345 0.84784 0.0
H1338 H 0.35295 1.01372 0.91272 0.0
H1339 H 0.39031 1.01049 0.94818 0.0
C1340 C 0.31549 1.00445 0.83337 0.0
C1341 C 0.31936 0.02312 0.81088 0.0
C1342 C 0.33517 1.0037 0.85564 0.0
C1343 C 0.35899 0.02161 0.85572 0.0
C1344 C 0.36168 0.0414 0.83402 0.0
C1345 C 0.34214 0.04211 0.81189 0.0
C1346 C 0.43208 0.01903 0.89002 0.0
C1347 C 0.42533 0.01546 0.91866 0.0
C1348 C 0.41057 0.02084 0.86973 0.0
C1349 C 0.38171 0.01908 0.87748 0.0
C1350 C 0.37493 0.01503 0.90602 0.0
C1351 C 0.39644 1.01333 0.92636 0.0
H1352 H 0.0385 0.2845 0.85544 0.0
H1353 H 0.98015 0.32892 0.80167 0.0
H1354 H 0.04337 0.32592 0.88531 0.0
H1355 H 0.98432 0.3703 0.83182 0.0
H1356 H 0.01354 0.44738 0.88294 0.0
H1357 H 0.01348 0.40829 0.84955 0.0
H1358 H 0.01519 0.35017 0.9191 0.0
H1359 H 0.01578 0.38871 0.95212 0.0
C1360 C 0.02682 0.30324 0.84997 0.0
C1361 C 0.00863 0.30331 0.82649 0.0
C1362 C 0.02939 0.32697 0.8672 0.0
C1363 C 0.01387 0.35152 0.86139 0.0
C1364 C 0.99669 0.35194 0.83703 0.0
C1365 C 0.99416 0.32816 0.81979 0.0
C1366 C 0.014 0.42627 0.89111 0.0
C1367 C 0.01471 0.42147 0.92041 0.0
C1368 C 0.01385 0.40378 0.87191 0.0
C1369 C 0.01454 0.37587 0.88147 0.0
C1370 C 0.01524 0.37122 0.91075 0.0
C1371 C 0.01534 0.39355 0.92983 0.0
H1372 H 0.71075 0.03632 0.8054 0.0
H1373 H 0.74548 0.97089 0.85768 0.0
H1374 H 0.66868 0.03847 0.83552 0.0
H1375 H 0.70338 0.97291 0.88769 0.0
H1376 H 0.64371 1.00783 0.95379 0.0
H1377 H 0.68334 1.00555 0.9215 0.0
H1378 H 0.62573 1.01156 0.85088 0.0
H1379 H 0.58535 0.01428 0.88356 0.0
C1380 C 0.70948 0.02236 0.82328 0.0
C1381 C 0.73181 1.00371 0.82946 0.0
C1382 C 0.6852 0.02349 0.84045 0.0
C1383 C 0.68269 1.00602 0.86416 0.0
C1384 C 0.70479 0.98704 0.86992 0.0
C1385 C 0.72892 0.98584 0.85274 0.0
C1386 C 0.63917 1.00872 0.93142 0.0
C1387 C 0.61106 1.01121 0.92141 0.0
C1388 C 0.66209 1.00719 0.91283 0.0
C1389 C 0.65779 1.00812 0.88356 0.0
C1390 C 0.62979 1.01092 0.87334 0.0
C1391 C 0.60663 1.01233 0.89207 0.0
H1392 H 0.06535 0.68854 0.79954 0.0
H1393 H 0.98756 0.72703 0.82793 0.0
H1394 H 0.06258 0.65473 0.83778 0.0
H1395 H 0.98474 0.69298 0.86669 0.0
H1396 H 0.00479 0.63805 0.94608 0.0
H1397 H 0.0078 0.67511 0.91086 0.0
H1398 H 0.03176 0.61436 0.84795 0.0
H1399 H 0.02891 0.57725 0.88312 0.0
C1400 C 0.04784 0.69004 0.8143 0.0
C1401 C 0.02658 0.71042 0.81055 0.0
C1402 C 0.0461 0.67045 0.83609 0.0
C1403 C 0.02311 0.67064 0.85502 0.0
C1404 C 1.00273 0.69214 0.85246 0.0
C1405 C 0.0044 0.7118 0.83039 0.0
C1406 C 0.01069 0.63249 0.92473 0.0
C1407 C 0.01675 0.60448 0.9176 0.0
C1408 C 0.01224 0.65382 0.90448 0.0
C1409 C 0.02024 0.64787 0.87656 0.0
C1410 C 0.02595 0.61984 0.86934 0.0
C1411 C 0.02411 0.59846 0.88951 0.0
H1412 H 0.22017 0.33623 0.95667 0.0
H1413 H 0.1966 0.302 0.03742 0.0
H1414 H 0.1812 0.36968 0.95963 0.0
H1415 H 0.15722 0.33569 0.0405 0.0
H1416 H 0.07639 0.3903 0.02266 0.0
H1417 H 0.11111 0.35253 0.01886 0.0
H1418 H 0.17413 0.41148 0.98989 0.0
H1419 H 0.13951 0.44926 0.99355 0.0
C1420 C 0.20612 0.33543 0.97476 0.0
C1421 C 0.21141 0.31651 0.99682 0.0
C1422 C 0.18402 0.35483 0.97663 0.0
C1423 C 0.16647 0.35581 1.00058 0.0
C1424 C 0.1704 0.33552 0.02178 0.0
C1425 C 0.19276 0.31608 0.01995 0.0
C1426 C 0.09767 0.39528 0.01551 0.0
C1427 C 0.10506 0.42293 1.00831 0.0
C1428 C 0.1176 0.37358 0.01347 0.0
C1429 C 0.14532 0.37888 1.00382 0.0
C1430 C 0.15281 0.40657 0.99698 0.0
C1431 C 0.13301 0.42831 0.99932 0.0
H1432 H 0.22422 0.68964 0.05906 0.0
H1433 H 0.19713 0.72718 0.9809 0.0
H1434 H 0.18566 0.65578 0.05593 0.0
H1435 H 0.1581 0.69307 0.9777 0.0
H1436 H 0.07783 0.63815 0.99684 0.0
H1437 H 0.11313 0.67543 1.00019 0.0
H1438 H 0.17658 0.61515 0.02506 0.0
H1439 H 0.14134 0.57783 0.0219 0.0
C1440 C 0.20965 0.69092 0.0414 0.0
C1441 C 0.21383 0.71099 0.02012 0.0
C1442 C 0.1877 0.67132 0.03947 0.0
C1443 C 0.16914 0.67125 0.01626 0.0
C1444 C 0.17208 0.69249 0.99584 0.0
C1445 C 0.19428 0.71215 0.99773 0.0
C1446 C 0.09932 0.63275 1.003 0.0
C1447 C 0.10661 0.60484 0.00925 0.0
C1448 C 0.1196 0.65419 1.00475 0.0
C1449 C 0.14764 0.6484 0.01313 0.0
C1450 C 0.15505 0.62046 0.01897 0.0
C1451 C 0.13486 0.59897 0.01694 0.0
H1452 H 0.32787 0.22273 0.98956 0.0
H1453 H 0.28973 0.16802 0.0511 0.0
H1454 H 0.36812 0.19076 0.98498 0.0
H1455 H 0.32987 0.13605 0.04661 0.0
H1456 H 0.38946 0.07089 0.01054 0.0
H1457 H 0.35037 0.10369 0.01301 0.0
H1458 H 0.4097 0.17252 0.01135 0.0
H1459 H 0.44937 0.13944 1.00852 0.0
C1460 C 0.32792 0.20382 1.00199 0.0
C1461 C 0.30518 0.19769 0.02029 0.0
C1462 C 0.35116 0.18554 0.99951 0.0
C1463 C 0.35228 0.16068 0.0153 0.0
C1464 C 0.32958 0.1547 0.0337 0.0
C1465 C 0.3065 0.17302 0.03628 0.0
C1466 C 0.39445 0.09298 0.01064 0.0
C1467 C 0.42287 0.10234 0.00943 0.0
C1468 C 0.37184 0.11187 0.01223 0.0
C1469 C 0.37675 0.14082 0.01262 0.0
C1470 C 0.40508 0.15036 0.01091 0.0
C1471 C 0.42787 0.13136 0.00942 0.0
H1472 H 0.80883 0.33809 0.06246 0.0
H1473 H 0.83393 0.30163 0.98309 0.0
H1474 H 0.84714 0.37219 0.05876 0.0
H1475 H 0.87268 0.33594 0.97933 0.0
H1476 H 0.95302 0.39099 0.99741 0.0
H1477 H 0.91814 0.35344 1.00133 0.0
H1478 H 0.85464 0.41316 0.02749 0.0
H1479 H 0.8895 0.4508 0.02376 0.0
C1480 C 0.82296 0.33707 0.04444 0.0
C1481 C 0.81829 0.3173 0.02297 0.0
C1482 C 0.84471 0.35679 0.04218 0.0
C1483 C 0.86256 0.35722 0.01845 0.0
C1484 C 0.85922 0.33622 0.99785 0.0
C1485 C 0.8372 0.31644 1.00006 0.0
C1486 C 0.93161 0.39621 1.00397 0.0
C1487 C 0.92416 0.42402 0.01043 0.0
C1488 C 0.91159 0.37462 1.00605 0.0
C1489 C 0.88369 0.38021 0.01497 0.0
C1490 C 0.8761 0.40806 0.02097 0.0
C1491 C 0.89603 0.42971 0.01861 0.0
H1492 H 0.74906 0.86237 0.98705 0.0
H1493 H 0.70542 0.81071 0.04757 0.0
H1494 H 0.70666 0.89151 0.98219 0.0
H1495 H 0.66304 0.84021 0.04341 0.0
H1496 H 0.58397 0.88937 0.01327 0.0
H1497 H 0.62385 0.85641 0.01372 0.0
H1498 H 0.68287 0.9255 0.01061 0.0
H1499 H 0.64365 0.95805 0.00962 0.0
C1500 C 0.73031 0.85729 0.99928 0.0
C1501 C 0.73069 0.83467 0.01807 0.0
C1502 C 0.70604 0.87404 0.99666 0.0
C1503 C 0.68145 0.86856 0.01275 0.0
C1504 C 0.68147 0.84507 0.03063 0.0
C1505 C 0.7058 0.82828 0.03319 0.0
C1506 C 0.60545 0.8975 0.01259 0.0
C1507 C 0.61036 0.9265 0.01138 0.0
C1508 C 0.62836 0.87858 0.01296 0.0
C1509 C 0.65669 0.88821 0.01198 0.0
C1510 C 0.66145 0.91718 0.0108 0.0
C1511 C 0.63874 0.93596 0.01048 0.0
H1512 H 0.80578 0.69144 0.96342 0.0
H1513 H 0.84074 0.73101 0.0374 0.0
H1514 H 0.84418 0.65721 0.96387 0.0
H1515 H 0.87937 0.69647 0.03814 0.0
H1516 H 0.95595 0.6394 0.01627 0.0
H1517 H 0.9215 0.67726 0.01331 0.0
H1518 H 0.8552 0.61756 0.99477 0.0
H1519 H 0.88968 0.57957 0.99737 0.0
C1520 C 0.82218 0.69317 0.97939 0.0
C1521 C 0.8204 0.7139 1.00031 0.0
C1522 C 0.84395 0.67335 0.97989 0.0
C1523 C 0.86452 0.67371 1.00137 0.0
C1524 C 0.86385 0.6956 0.02128 0.0
C1525 C 0.84191 0.71551 0.02079 0.0
C1526 C 0.93403 0.63423 0.01152 0.0
C1527 C 0.92569 0.60628 1.00692 0.0
C1528 C 0.91425 0.65603 0.00999 0.0
C1529 C 0.88564 0.65054 1.00359 0.0
C1530 C 0.8772 0.6226 0.99929 0.0
C1531 C 0.89694 0.60075 1.00101 0.0
H1532 H 0.28405 0.85969 0.02404 0.0
H1533 H 0.3343 0.80466 0.97221 0.0
H1534 H 0.32524 0.89028 0.03042 0.0
H1535 H 0.37545 0.83555 0.97777 0.0
H1536 H 0.45073 0.88856 0.00991 0.0
H1537 H 0.41152 0.85488 1.00849 0.0
H1538 H 0.35142 0.92285 1.00303 0.0
H1539 H 0.39003 0.95618 1.00505 0.0
C1540 C 0.30401 0.85414 0.0141 0.0
C1541 C 0.30586 0.83001 0.99737 0.0
C1542 C 0.32761 0.87174 0.01754 0.0
C1543 C 0.35375 0.86573 1.00427 0.0
C1544 C 0.35584 0.8409 0.98844 0.0
C1545 C 0.3322 0.82324 0.98508 0.0
C1546 C 0.42914 0.89632 1.00851 0.0
C1547 C 0.42379 0.92526 1.00768 0.0
C1548 C 0.4066 0.87695 1.00757 0.0
C1549 C 0.3781 0.88601 1.00584 0.0
C1550 C 0.3729 0.91493 1.00498 0.0
C1551 C 0.39528 0.93417 1.00592 0.0
H1552 H 0.7482 0.16999 0.02597 0.0
H1553 H 0.699 0.22356 0.97167 0.0
H1554 H 0.70705 0.13931 0.03193 0.0
H1555 H 0.65792 0.19253 0.97678 0.0
H1556 H 0.58222 0.14018 1.00859 0.0
H1557 H 0.62134 0.17394 1.00733 0.0
H1558 H 0.68174 0.10606 1.00445 0.0
H1559 H 0.64322 0.07266 1.00636 0.0
C1560 C 0.72849 0.17517 0.01537 0.0
C1561 C 0.72689 0.19893 0.99813 0.0
C1562 C 0.70492 0.15753 0.01858 0.0
C1563 C 0.67911 0.16313 1.00453 0.0
C1564 C 0.67729 0.18755 0.98807 0.0
C1565 C 0.70088 0.20526 0.98496 0.0
C1566 C 0.60385 0.13247 1.00781 0.0
C1567 C 0.60934 0.10355 1.00767 0.0
C1568 C 0.62633 0.15187 1.00695 0.0
C1569 C 0.65486 0.14284 1.00598 0.0
C1570 C 0.6602 0.11394 1.0058 0.0
C1571 C 0.63789 0.09467 1.00668 0.0
H1572 H 0.48026 0.72097 0.82314 0.0
H1573 H 0.53773 0.66851 0.77625 0.0
H1574 H 0.48577 0.69081 0.86447 0.0
H1575 H 0.54396 0.63863 0.81762 0.0
H1576 H 0.51841 0.57169 0.88131 0.0
H1577 H 0.51698 0.60465 0.84262 0.0
H1578 H 0.51571 0.67321 0.90182 0.0
H1579 H 0.51657 0.63993 0.94098 0.0
C1580 C 0.4944 0.70316 0.82184 0.0
C1581 C 0.5082 0.69682 0.79631 0.0
C1582 C 0.4977 0.68589 0.84559 0.0
C1583 C 0.51501 0.66188 0.84447 0.0
C1584 C 0.52991 0.65647 0.81923 0.0
C1585 C 0.52657 0.67371 0.79553 0.0
C1586 C 0.51792 0.59375 0.88632 0.0
C1587 C 0.51761 0.60293 0.91457 0.0
C1588 C 0.51732 0.6128 0.86392 0.0
C1589 C 0.51642 0.64179 0.86883 0.0
C1590 C 0.51616 0.65108 0.89707 0.0
C1591 C 0.5168 0.63194 0.91961 0.0
H1592 H 0.3093 0.46247 0.83357 0.0
H1593 H 0.33562 0.53963 0.79445 0.0
H1594 H 0.34842 0.46603 0.86706 0.0
H1595 H 0.37517 0.54323 0.82816 0.0
H1596 H 0.45593 0.52476 0.88314 0.0
H1597 H 0.42054 0.52054 0.84565 0.0
H1598 H 0.35696 0.49826 0.90732 0.0
H1599 H 0.39221 0.50227 0.94479 0.0
C1600 C 0.3238 0.48 0.83188 0.0
C1601 C 0.31926 0.50092 0.81158 0.0
C1602 C 0.34607 0.48215 0.8512 0.0
C1603 C 0.36451 0.50522 0.85068 0.0
C1604 C 0.36125 0.52523 0.82914 0.0
C1605 C 0.33875 0.52311 0.80974 0.0
C1606 C 0.43439 0.51899 0.88876 0.0
C1607 C 0.42699 0.51374 0.91707 0.0
C1608 C 0.4141 0.51672 0.86723 0.0
C1609 C 0.38603 0.50882 0.87345 0.0
C1610 C 0.37854 0.50398 0.90177 0.0
C1611 C 0.39872 0.50651 0.92331 0.0
H1612 H 0.54634 0.33795 0.79368 0.0
H1613 H 0.47822 0.29886 0.83998 0.0
H1614 H 0.54605 0.37713 0.82716 0.0
H1615 H 0.47763 0.33777 0.87311 0.0
H1616 H 0.50976 0.38973 0.9473 0.0
H1617 H 0.50804 0.354 0.91074 0.0
H1618 H 0.52034 0.41714 0.84694 0.0
H1619 H 0.52251 0.45293 0.88352 0.0
C1620 C 0.53079 0.33811 0.81053 0.0
C1621 C 0.5124 0.31524 0.81423 0.0
C1622 C 0.53069 0.36048 0.82986 0.0
C1623 C 0.5122 0.36043 0.85331 0.0
C1624 C 0.4927 0.33828 0.85586 0.0
C1625 C 0.49281 0.31607 0.83665 0.0
C1626 C 0.51218 0.3961 0.92553 0.0
C1627 C 0.51621 0.4244 0.91859 0.0
C1628 C 0.51095 0.37555 0.90443 0.0
C1629 C 0.51381 0.38259 0.8757 0.0
C1630 C 0.51821 0.41083 0.86876 0.0
C1631 C 0.51929 0.43143 0.88985 0.0
H1632 H 0.7144 0.55666 0.81449 0.0
H1633 H 0.67415 0.48299 0.7806 0.0
H1634 H 0.68686 0.55169 0.85803 0.0
H1635 H 0.64721 0.47736 0.82429 0.0
H1636 H 0.5759 0.50029 0.88484 0.0
H1637 H 0.60814 0.50139 0.84531 0.0
H1638 H 0.67719 0.52435 0.9008 0.0
H1639 H 0.64428 0.52394 0.94099 0.0
C1640 C 0.69985 0.53923 0.81654 0.0
C1641 C 0.69599 0.52045 0.79406 0.0
C1642 C 0.68426 0.53622 0.84156 0.0
C1643 C 0.66453 0.5143 0.84464 0.0
C1644 C 0.66174 0.49484 0.8225 0.0
C1645 C 0.67722 0.49793 0.79751 0.0
C1646 C 0.59793 0.50556 0.8889 0.0
C1647 C 0.60735 0.51222 0.91629 0.0
C1648 C 0.61659 0.50589 0.86607 0.0
C1649 C 0.64538 0.51281 0.86974 0.0
C1650 C 0.65508 0.51911 0.89716 0.0
C1651 C 0.63628 0.51869 0.92024 0.0
H1652 H 0.47984 0.36785 0.23902 0.0
H1653 H 0.5327 0.30714 0.19702 0.0
H1654 H 0.48406 0.39898 0.19859 0.0
H1655 H 0.53719 0.3384 0.15645 0.0
H1656 H 0.51267 0.39155 0.07727 0.0
H1657 H 0.51037 0.359 0.11709 0.0
H1658 H 0.51785 0.42823 0.17501 0.0
H1659 H 0.51968 0.46049 0.13577 0.0
C1660 C 0.49279 0.36134 0.22131 0.0
C1661 C 0.50642 0.33522 0.22168 0.0
C1662 C 0.49523 0.37921 0.19804 0.0
C1663 C 0.51117 0.37143 0.17415 0.0
C1664 C 0.52459 0.34511 0.17433 0.0
C1665 C 0.5222 0.32722 0.19775 0.0
C1666 C 0.51387 0.39983 0.09849 0.0
C1667 C 0.51614 0.42884 0.10304 0.0
C1668 C 0.5127 0.38111 0.12138 0.0
C1669 C 0.51367 0.3909 0.14943 0.0
C1670 C 0.51645 0.41983 0.15384 0.0
C1671 C 0.51766 0.43843 0.13112 0.0
H1672 H 0.67312 0.54586 0.23753 0.0
H1673 H 0.7145 0.47322 0.20288 0.0
H1674 H 0.64606 0.55151 0.19391 0.0
H1675 H 0.68685 0.4782 0.15937 0.0
H1676 H 0.64397 0.50663 0.07664 0.0
H1677 H 0.67678 0.50593 0.11692 0.0
H1678 H 0.60736 0.52705 0.17259 0.0
H1679 H 0.57519 0.52842 0.133 0.0
C1680 C 0.6764 0.53115 0.22048 0.0
C1681 C 0.69551 0.50889 0.2237 0.0
C1682 C 0.66085 0.53425 0.19552 0.0
C1683 C 0.66393 0.51507 0.17318 0.0
C1684 C 0.684 0.49343 0.17602 0.0
C1685 C 0.69965 0.49041 0.20102 0.0
C1686 C 0.63585 0.51139 0.09746 0.0
C1687 C 0.60684 0.51748 0.10142 0.0
C1688 C 0.6546 0.51081 0.12058 0.0
C1689 C 0.64478 0.51656 0.14807 0.0
C1690 C 0.6159 0.523 0.15178 0.0
C1691 C 0.59729 0.5235 0.1289 0.0
H1692 H 0.48966 0.6933 0.22337 0.0
H1693 H 0.56452 0.72606 0.18267 0.0
H1694 H 0.48843 0.65466 0.18926 0.0
H1695 H 0.56353 0.6877 0.14883 0.0
H1696 H 0.53028 0.64069 0.0714 0.0
H1697 H 0.53316 0.67557 0.10886 0.0
H1698 H 0.51228 0.61256 0.17055 0.0
H1699 H 0.50909 0.57771 0.13319 0.0
C1700 C 0.50635 0.69172 0.20772 0.0
C1701 C 0.52719 0.71269 0.20573 0.0
C1702 C 0.50557 0.66973 0.188 0.0
C1703 C 0.52555 0.66834 0.16583 0.0
C1704 C 0.54737 0.68842 0.16509 0.0
C1705 C 0.54818 0.71022 0.18474 0.0
C1706 C 0.52619 0.63422 0.0929 0.0
C1707 C 0.51952 0.60623 0.09907 0.0
C1708 C 0.52807 0.65422 0.11449 0.0
C1709 C 0.52318 0.6469 0.14288 0.0
C1710 C 0.51605 0.61903 0.149 0.0
C1711 C 0.51438 0.59899 0.12746 0.0
H1712 H 0.30828 0.46814 0.18533 0.0
H1713 H 0.33705 0.54553 0.22237 0.0
H1714 H 0.34725 0.46983 0.1515 0.0
H1715 H 0.37634 0.54726 0.18838 0.0
H1716 H 0.45588 0.52714 0.13362 0.0
H1717 H 0.42071 0.52383 0.17127 0.0
H1718 H 0.35678 0.50022 0.11037 0.0
H1719 H 0.39189 0.50326 0.07268 0.0
C1720 C 0.32328 0.4853 0.18651 0.0
C1721 C 0.31948 0.50684 0.20634 0.0
C1722 C 0.34545 0.48639 0.16698 0.0
C1723 C 0.36453 0.50898 0.16683 0.0
C1724 C 0.36196 0.52958 0.18792 0.0
C1725 C 0.3396 0.52853 0.2075 0.0
C1726 C 0.43432 0.52124 0.12817 0.0
C1727 C 0.4268 0.51535 0.10001 0.0
C1728 C 0.41415 0.51948 0.14981 0.0
C1729 C 0.38602 0.51154 0.14389 0.0
C1730 C 0.37841 0.50597 0.11572 0.0
C1731 C 0.3985 0.50795 0.09405 0.0
H1732 H 0.79745 0.53981 0.68408 0.0
H1733 H 0.84402 0.47127 0.72076 0.0
H1734 H 0.8315 0.54133 0.64481 0.0
H1735 H 0.87768 0.47245 0.68173 0.0
H1736 H 0.95276 0.50863 0.63356 0.0
H1737 H 0.91516 0.50539 0.66863 0.0
H1738 H 0.85189 0.51617 0.60354 0.0
H1739 H 0.8895 0.51983 0.56832 0.0
C1740 C 0.81449 0.5246 0.68328 0.0
C1741 C 0.81826 0.50554 0.70545 0.0
C1742 C 0.83405 0.52552 0.66093 0.0
C1743 C 0.85766 0.50739 0.66048 0.0
C1744 C 0.86019 0.48718 0.6818 0.0
C1745 C 0.84077 0.4863 0.704 0.0
C1746 C 0.93089 0.51044 0.62663 0.0
C1747 C 0.9243 0.5144 0.598 0.0
C1748 C 0.90927 0.50835 0.64676 0.0
C1749 C 0.88047 0.51023 0.63885 0.0
C1750 C 0.87383 0.51472 0.61034 0.0
C1751 C 0.89547 0.51668 0.59014 0.0
H1752 H 0.4696 0.83972 0.71851 0.0
H1753 H 0.54739 0.80282 0.688 0.0
H1754 H 0.47054 0.87346 0.68008 0.0
H1755 H 0.54835 0.83675 0.64913 0.0
H1756 H 0.52634 0.8914 0.57057 0.0
H1757 H 0.52419 0.8542 0.60568 0.0
H1758 H 0.50015 0.91442 0.66908 0.0
H1759 H 0.50213 0.95167 0.63402 0.0
C1760 C 0.48669 0.83852 0.70324 0.0
C1761 C 0.50852 0.81864 0.70646 0.0
C1762 C 0.48738 0.85808 0.68134 0.0
C1763 C 0.50985 0.85832 0.66179 0.0
C1764 C 0.53074 0.83724 0.66383 0.0
C1765 C 0.53011 0.81764 0.68597 0.0
C1766 C 0.52057 0.89681 0.59199 0.0
C1767 C 0.51429 0.92472 0.59931 0.0
C1768 C 0.51951 0.87539 0.61218 0.0
C1769 C 0.5118 0.88115 0.64023 0.0
C1770 C 0.50576 0.90907 0.6476 0.0
C1771 C 0.50711 0.93055 0.62749 0.0
H1772 H 0.24881 0.4989 0.66359 0.0
H1773 H 0.20083 0.55328 0.71821 0.0
H1774 H 0.2072 0.4932 0.63322 0.0
H1775 H 0.15927 0.54841 0.68744 0.0
H1776 H 0.08279 0.51658 0.63536 0.0
H1777 H 0.12223 0.51785 0.66912 0.0
H1778 H 0.18202 0.52116 0.6001 0.0
H1779 H 0.14327 0.51927 0.56674 0.0
C1780 C 0.22927 0.5096 0.66904 0.0
C1781 C 0.22813 0.5268 0.69297 0.0
C1782 C 0.20546 0.50652 0.6516 0.0
C1783 C 0.17987 0.52066 0.65759 0.0
C1784 C 0.17848 0.53709 0.68219 0.0
C1785 C 0.20234 0.54007 0.69972 0.0
C1786 C 0.10436 0.51747 0.62742 0.0
C1787 C 0.10964 0.51771 0.5982 0.0
C1788 C 0.127 0.51832 0.6468 0.0
C1789 C 0.15543 0.51938 0.63741 0.0
C1790 C 0.16055 0.51973 0.60823 0.0
C1791 C 0.1381 0.51886 0.58898 0.0
H1792 H 0.47747 0.19619 0.71855 0.0
H1793 H 0.53158 0.24499 0.66429 0.0
H1794 H 0.48355 0.15564 0.68769 0.0
H1795 H 0.5385 0.20436 0.63373 0.0
H1796 H 0.51376 0.14066 0.56654 0.0
H1797 H 0.51188 0.17875 0.60006 0.0
H1798 H 0.51389 0.11974 0.66887 0.0
H1799 H 0.51514 0.08114 0.635 0.0
C1800 C 0.49104 0.19809 0.7002 0.0
C1801 C 0.50378 0.22388 0.69363 0.0
C1802 C 0.49467 0.17478 0.68253 0.0
C1803 C 0.51124 0.1766 0.65783 0.0
C1804 C 0.52504 0.20217 0.65211 0.0
C1805 C 0.52133 0.22546 0.66975 0.0
C1806 C 0.51391 0.13556 0.58878 0.0
C1807 C 0.51462 0.10752 0.59785 0.0
C1808 C 0.51305 0.15763 0.60816 0.0
C1809 C 0.51294 0.1526 0.63739 0.0
C1810 C 0.5137 0.12457 0.64658 0.0
C1811 C 0.51456 0.10235 0.62709 0.0
H1812 H 0.84452 0.55786 0.29526 0.0
H1813 H 0.79789 0.4898 0.33284 0.0
H1814 H 0.87848 0.55687 0.33406 0.0
H1815 H 0.83224 0.48846 0.37187 0.0
H1816 H 0.8902 0.51053 0.44799 0.0
H1817 H 0.85268 0.51381 0.4127 0.0
H1818 H 0.91601 0.52436 0.34766 0.0
H1819 H 0.95358 0.52154 0.38287 0.0
C1820 C 0.84134 0.54296 0.31216 0.0
C1821 C 0.8187 0.52382 0.31104 0.0
C1822 C 0.86094 0.54219 0.33422 0.0
C1823 C 0.85846 0.52219 0.35575 0.0
C1824 C 0.83476 0.50412 0.35559 0.0
C1825 C 0.81502 0.50493 0.33338 0.0
C1826 C 0.89623 0.51356 0.42617 0.0
C1827 C 0.92507 0.51591 0.41837 0.0
C1828 C 0.87463 0.51529 0.40592 0.0
C1829 C 0.88128 0.51959 0.3774 0.0
C1830 C 0.9101 0.52155 0.36954 0.0
C1831 C 0.9317 0.5197 0.38974 0.0
H1832 H 0.5365 0.78551 0.35462 0.0
H1833 H 0.47738 0.83008 0.30181 0.0
H1834 H 0.54208 0.82694 0.38432 0.0
H1835 H 0.48221 0.87146 0.33185 0.0
H1836 H 0.5125 0.94853 0.38234 0.0
H1837 H 0.51176 0.9094 0.34897 0.0
H1838 H 0.51477 0.85133 0.41854 0.0
H1839 H 0.5161 0.88986 0.45148 0.0
C1840 C 0.52479 0.80427 0.34934 0.0
C1841 C 0.50622 0.8044 0.32615 0.0
C1842 C 0.52777 0.82802 0.36646 0.0
C1843 C 0.51226 0.85263 0.36089 0.0
C1844 C 0.49462 0.85307 0.33686 0.0
C1845 C 0.49169 0.82928 0.3197 0.0
C1846 C 0.51313 0.92741 0.3905 0.0
C1847 C 0.5144 0.92263 0.41978 0.0
C1848 C 0.51257 0.90491 0.37133 0.0
C1849 C 0.5134 0.877 0.3809 0.0
C1850 C 0.5147 0.87237 0.41015 0.0
C1851 C 0.51522 0.8947 0.4292 0.0
H1852 H 0.24797 0.54093 0.35343 0.0
H1853 H 0.20823 0.47361 0.30762 0.0
H1854 H 0.20499 0.54655 0.38187 0.0
H1855 H 0.16534 0.47856 0.3365 0.0
H1856 H 0.08449 0.5079 0.38295 0.0
H1857 H 0.12442 0.50737 0.34973 0.0
H1858 H 0.18286 0.52027 0.4188 0.0
H1859 H 0.14355 0.52141 0.45155 0.0
C1860 C 0.22993 0.5274 0.34946 0.0
C1861 C 0.23158 0.50651 0.32877 0.0
C1862 C 0.20535 0.53047 0.3658 0.0
C1863 C 0.18176 0.5127 0.36184 0.0
C1864 C 0.18298 0.49266 0.34012 0.0
C1865 C 0.20761 0.48966 0.32372 0.0
C1866 C 0.10586 0.5108 0.39099 0.0
C1867 C 0.11061 0.51465 0.42004 0.0
C1868 C 0.12878 0.51035 0.37195 0.0
C1869 C 0.15694 0.51394 0.38151 0.0
C1870 C 0.16153 0.51797 0.4105 0.0
C1871 C 0.1388 0.51834 0.42942 0.0
H1872 H 0.56052 0.18897 0.29686 0.0
H1873 H 0.4867 0.22976 0.33153 0.0
H1874 H 0.56004 0.15529 0.3354 0.0
H1875 H 0.48595 0.19576 0.37037 0.0
H1876 H 0.5078 0.13952 0.44731 0.0
H1877 H 0.51053 0.17676 0.41236 0.0
H1878 H 0.52958 0.11589 0.34791 0.0
H1879 H 0.52714 0.07858 0.38286 0.0
C1880 C 0.54456 0.19109 0.31319 0.0
C1881 C 0.52373 0.2121 0.31124 0.0
C1882 C 0.54402 0.17153 0.33509 0.0
C1883 C 0.52261 0.17235 0.35576 0.0
C1884 C 0.50278 0.19447 0.35485 0.0
C1885 C 0.50329 0.21411 0.33274 0.0
C1886 C 0.5126 0.13396 0.4257 0.0
C1887 C 0.51736 0.10584 0.41806 0.0
C1888 C 0.51401 0.15542 0.40559 0.0
C1889 C 0.52048 0.14949 0.37728 0.0
C1890 C 0.525 0.12137 0.36959 0.0
C1891 C 0.52337 0.09986 0.38964 0.0
H1892 H 0.69084 0.79942 0.47883 0.0
H1893 H 0.72965 0.84165 0.54936 0.0
H1894 H 0.6516 0.83325 0.47957 0.0
H1895 H 0.69064 0.87516 0.55038 0.0
H1896 H 0.64159 0.95116 0.51795 0.0
H1897 H 0.67672 0.9138 0.5199 0.0
H1898 H 0.61067 0.85272 0.50559 0.0
H1899 H 0.57549 0.89003 0.50327 0.0
C1900 C 0.69049 0.81538 0.49503 0.0
C1901 C 0.7133 0.81793 0.51399 0.0
C1902 C 0.66814 0.83489 0.49538 0.0
C1903 C 0.66825 0.85734 0.51468 0.0
C1904 C 0.69018 0.85863 0.53478 0.0
C1905 C 0.71237 0.83922 0.53443 0.0
C1906 C 0.63447 0.92981 0.51515 0.0
C1907 C 0.60557 0.92379 0.51051 0.0
C1908 C 0.65464 0.9083 0.5165 0.0
C1909 C 0.64654 0.88013 0.51313 0.0
C1910 C 0.61772 0.87412 0.50815 0.0
C1911 C 0.5975 0.89561 0.50696 0.0
H1912 H 0.69797 0.22742 0.48086 0.0
H1913 H 0.72484 0.18979 0.55905 0.0
H1914 H 0.6587 0.19358 0.47773 0.0
H1915 H 0.68604 0.15619 0.55598 0.0
H1916 H 0.64157 0.07842 0.52173 0.0
H1917 H 0.67691 0.11563 0.52492 0.0
H1918 H 0.61357 0.17615 0.50038 0.0
H1919 H 0.57815 0.13897 0.49702 0.0
C1920 C 0.69502 0.21244 0.49772 0.0
C1921 C 0.71458 0.21115 0.5201 0.0
C1922 C 0.67268 0.19293 0.49586 0.0
C1923 C 0.66961 0.17174 0.5163 0.0
C1924 C 0.68818 0.17171 0.53951 0.0
C1925 C 0.71026 0.19116 0.54141 0.0
C1926 C 0.63514 0.09959 0.51685 0.0
C1927 C 0.60688 0.10556 0.50925 0.0
C1928 C 0.65538 0.12101 0.51889 0.0
C1929 C 0.64803 0.14898 0.51316 0.0
C1930 C 0.61999 0.15488 0.50487 0.0
C1931 C 0.59964 0.1335 0.5031 0.0
H1932 H 0.83438 0.72356 0.54725 0.0
H1933 H 0.78401 0.67024 0.49363 0.0
H1934 H 0.87546 0.69288 0.54069 0.0
H1935 H 0.82517 0.63987 0.48624 0.0
H1936 H 0.88971 0.57309 0.51036 0.0
H1937 H 0.85115 0.60642 0.51274 0.0
H1938 H 0.91148 0.67443 0.5096 0.0
H1939 H 0.9506 0.64075 0.50786 0.0
C1940 C 0.83225 0.70543 0.53373 0.0
C1941 C 0.80589 0.69904 0.52126 0.0
C1942 C 0.85585 0.68789 0.52981 0.0
C1943 C 0.85371 0.66356 0.5132 0.0
C1944 C 0.82757 0.658 0.4997 0.0
C1945 C 0.804 0.67549 0.5037 0.0
C1946 C 0.89501 0.59511 0.51006 0.0
C1947 C 0.92355 0.60404 0.5089 0.0
C1948 C 0.87267 0.61436 0.5112 0.0
C1949 C 0.87797 0.64328 0.51115 0.0
C1950 C 0.90649 0.65234 0.50991 0.0
C1951 C 0.92899 0.63299 0.50877 0.0
H1952 H 0.34178 0.79871 0.53799 0.0
H1953 H 0.30021 0.84212 0.46986 0.0
H1954 H 0.38042 0.83316 0.5371 0.0
H1955 H 0.33871 0.87626 0.4686 0.0
H1956 H 0.38846 0.9519 0.50123 0.0
H1957 H 0.35341 0.91437 0.49925 0.0
H1958 H 0.42006 0.85339 0.51066 0.0
H1959 H 0.45505 0.89074 0.51312 0.0
C1960 C 0.34141 0.8151 0.52226 0.0
C1961 C 0.31804 0.81779 0.50403 0.0
C1962 C 0.36341 0.83496 0.52182 0.0
C1963 C 0.36239 0.85786 0.50314 0.0
C1964 C 0.33985 0.85936 0.48374 0.0
C1965 C 0.31797 0.83961 0.4842 0.0
C1966 C 0.39569 0.93053 0.50339 0.0
C1967 C 0.42469 0.92453 0.50731 0.0
C1968 C 0.37559 0.90894 0.50202 0.0
C1969 C 0.38392 0.88077 0.5046 0.0
C1970 C 0.41285 0.87479 0.50878 0.0
C1971 C 0.43295 0.89633 0.51005 0.0
H1972 H 0.24198 0.35972 0.55455 0.0
H1973 H 0.20693 0.30946 0.48745 0.0
H1974 H 0.20146 0.3914 0.55115 0.0
H1975 H 0.16633 0.3411 0.48403 0.0
H1976 H 0.08381 0.39021 0.50784 0.0
H1977 H 0.12349 0.35707 0.51056 0.0
H1978 H 0.18238 0.42584 0.51852 0.0
H1979 H 0.14333 0.45864 0.51618 0.0
C1980 C 0.22579 0.35564 0.53881 0.0
C1981 C 0.22809 0.33235 0.52092 0.0
C1982 C 0.20251 0.37376 0.53687 0.0
C1983 C 0.18062 0.36892 0.5172 0.0
C1984 C 0.18266 0.34537 0.49955 0.0
C1985 C 0.2061 0.32729 0.5014 0.0
C1986 C 0.10521 0.39824 0.51018 0.0
C1987 C 0.11014 0.42722 0.51185 0.0
C1988 C 0.12799 0.37924 0.51158 0.0
C1989 C 0.15617 0.38877 0.51493 0.0
C1990 C 0.16099 0.41768 0.5164 0.0
C1991 C 0.13842 0.43657 0.51486 0.0
H1992 H 0.31349 0.19557 0.45349 0.0
H1993 H 0.3354 0.22841 0.53536 0.0
H1994 H 0.35193 0.16157 0.45697 0.0
H1995 H 0.37425 0.19422 0.53894 0.0
H1996 H 0.45481 0.13911 0.52191 0.0
H1997 H 0.42067 0.1773 0.51776 0.0
H1998 H 0.35736 0.11928 0.48737 0.0
H1999 H 0.39145 0.08102 0.49139 0.0
C2000 C 0.3271 0.19596 0.47193 0.0
C2001 C 0.32148 0.21461 0.49416 0.0
C2002 C 0.34887 0.17626 0.47409 0.0
C2003 C 0.36572 0.17476 0.4985 0.0
C2004 C 0.36156 0.19481 0.51988 0.0
C2005 C 0.33953 0.21454 0.51777 0.0
C2006 C 0.43358 0.13442 0.51437 0.0
C2007 C 0.42595 0.10691 0.50684 0.0
C2008 C 0.414 0.15635 0.51214 0.0
C2009 C 0.38641 0.15141 0.50198 0.0
C2010 C 0.37862 0.12386 0.49487 0.0
C2011 C 0.39809 0.10186 0.49741 0.0
H2012 H 0.78464 0.35951 0.52402 0.0
H2013 H 0.83543 0.30516 0.47198 0.0
H2014 H 0.82548 0.39055 0.53039 0.0
H2015 H 0.8762 0.33651 0.4775 0.0
H2016 H 0.951 0.38983 0.50965 0.0
H2017 H 0.91204 0.35592 0.50817 0.0
H2018 H 0.85145 0.42353 0.50334 0.0
H2019 H 0.88986 0.45711 0.50546 0.0
C2020 C 0.80464 0.35421 0.51402 0.0
C2021 C 0.80675 0.33013 0.49726 0.0
C2022 C 0.82804 0.37208 0.51745 0.0
C2023 C 0.85423 0.36638 0.50414 0.0
C2024 C 0.85656 0.34161 0.48822 0.0
C2025 C 0.83313 0.3237 0.48488 0.0
C2026 C 0.92936 0.39746 0.5084 0.0
C2027 C 0.92381 0.42637 0.50777 0.0
C2028 C 0.90696 0.37797 0.50741 0.0
C2029 C 0.8784 0.38684 0.5058 0.0
C2030 C 0.87298 0.41574 0.50517 0.0
C2031 C 0.89524 0.43512 0.50617 0.0
H2032 H 0.19998 0.72232 0.46699 0.0
H2033 H 0.24879 0.67031 0.52317 0.0
H2034 H 0.15862 0.69191 0.47334 0.0
H2035 H 0.20733 0.64026 0.53035 0.0
H2036 H 0.14346 0.57308 0.50593 0.0
H2037 H 0.18209 0.60632 0.50351 0.0
H2038 H 0.12187 0.67442 0.50453 0.0
H2039 H 0.08264 0.6408 0.50633 0.0
C2040 C 0.2017 0.70453 0.481 0.0
C2041 C 0.22768 0.6984 0.49431 0.0
C2042 C 0.17794 0.68719 0.48481 0.0
C2043 C 0.1796 0.66334 0.50211 0.0
C2044 C 0.20536 0.65804 0.51637 0.0
C2045 C 0.22908 0.67532 0.51248 0.0
C2046 C 0.13819 0.5951 0.50575 0.0
C2047 C 0.10967 0.6041 0.50635 0.0
C2048 C 0.16056 0.61429 0.50458 0.0
C2049 C 0.15529 0.64319 0.50407 0.0
C2050 C 0.12679 0.65233 0.5047 0.0
C2051 C 0.10426 0.63302 0.50586 0.0
loop_
_geom_bond_atom_site_label_1
_geom_bond_atom_site_label_2
_geom_bond_distance
_geom_bond_site_symmetry_2
_ccdc_geom_bond_type
H0 C7 0.929 . S
H1 C10 0.930 . S
H2 C12 0.929 . S
H3 C4 0.969 1_655 S
C4 H3 0.969 1_455 S
C4 O5 1.550 . S
C4 H6 0.973 . S
O5 C4 1.550 . S
O5 C11 1.412 . S
H6 C4 0.973 . S
C7 H0 0.929 . S
C7 C8 1.400 . S
C7 C9 1.364 . S
C8 C7 1.400 . S
C8 C12 1.377 . S
C9 C7 1.364 . S
C9 C10 1.374 . S
C10 H1 0.930 . S
C10 C9 1.374 . S
C10 C11 1.383 . S
C11 O5 1.412 . S
C11 C10 1.383 . S
C11 C12 1.394 . S
C12 H2 0.929 . S
C12 C8 1.377 . S
C12 C11 1.394 . S
H13 C20 0.928 . S
H14 C23 0.930 1_565 S
H15 C25 0.928 . S
H16 C17 0.969 . S
C17 H16 0.969 . S
C17 O18 1.550 1_545 S
C17 H19 0.973 1_545 S
O18 C17 1.550 1_565 S
O18 C24 1.412 1_565 S
H19 C17 0.973 1_565 S
C20 H13 0.928 . S
C20 C21 1.400 . S
C20 C22 1.364 . S
C21 C20 1.400 . S
C21 C25 1.378 . S
C22 C20 1.364 . S
C22 C23 1.374 . S
C23 H14 0.930 1_545 S
C23 C22 1.374 . S
C23 C24 1.384 . S
C24 O18 1.412 1_545 S
C24 C23 1.384 . S
C24 C25 1.396 . S
C25 H15 0.928 . S
C25 C21 1.378 . S
C25 C24 1.396 . S
H26 C33 0.929 . S
H27 C36 0.930 . S
H28 C38 0.929 . S
H29 C30 0.969 1_655 S
C30 H29 0.969 1_455 S
C30 O31 1.550 . S
C30 H32 0.973 . S
O31 C30 1.550 . S
O31 C37 1.412 . S
H32 C30 0.973 . S
C33 H26 0.929 . S
C33 C34 1.400 . S
C33 C35 1.364 . S
C34 C33 1.400 . S
C34 C38 1.377 . S
C35 C33 1.364 . S
C35 C36 1.374 . S
C36 H27 0.930 . S
C36 C35 1.374 . S
C36 C37 1.383 . S
C37 O31 1.412 . S
C37 C36 1.383 . S
C37 C38 1.394 . S
C38 H28 0.929 . S
C38 C34 1.377 . S
C38 C37 1.394 . S
H39 C46 0.928 . S
H40 C49 0.930 1_565 S
H41 C51 0.928 . S
H42 C43 0.969 . S
C43 H42 0.969 . S
C43 O44 1.550 1_545 S
C43 H45 0.973 1_545 S
O44 C43 1.550 1_565 S
O44 C50 1.412 1_565 S
H45 C43 0.973 1_565 S
C46 H39 0.928 . S
C46 C47 1.400 . S
C46 C48 1.364 . S
C47 C46 1.400 . S
C47 C51 1.378 . S
C48 C46 1.364 . S
C48 C49 1.374 . S
C49 H40 0.930 1_545 S
C49 C48 1.374 . S
C49 C50 1.384 . S
C50 O44 1.412 1_545 S
C50 C49 1.384 . S
C50 C51 1.396 . S
C51 H41 0.928 . S
C51 C47 1.378 . S
C51 C50 1.396 . S
H52 C59 0.929 . S
H53 C62 0.930 . S
H54 C64 0.929 . S
H55 C56 0.969 1_655 S
C56 H55 0.969 1_455 S
C56 O57 1.550 . S
C56 H58 0.973 . S
O57 C56 1.550 . S
O57 C63 1.412 . S
H58 C56 0.973 . S
C59 H52 0.929 . S
C59 C60 1.400 . S
C59 C61 1.364 . S
C60 C59 1.400 . S
C60 C64 1.377 . S
C61 C59 1.364 . S
C61 C62 1.374 . S
C62 H53 0.930 . S
C62 C61 1.374 . S
C62 C63 1.383 . S
C63 O57 1.412 . S
C63 C62 1.383 . S
C63 C64 1.394 . S
C64 H54 0.929 . S
C64 C60 1.377 . S
C64 C63 1.394 . S
H65 C72 0.928 1_545 S
H66 C75 0.931 . S
H67 C77 0.928 1_545 S
H68 C69 0.969 . S
C69 H68 0.969 . S
C69 O70 1.550 1_565 S
C69 H71 0.973 1_565 S
O70 C69 1.550 1_545 S
O70 C76 1.404 1_545 S
H71 C69 0.973 1_545 S
C72 H65 0.928 1_565 S
C72 C73 1.400 . S
C72 C74 1.364 . S
C73 C72 1.400 . S
C73 C77 1.377 . S
C74 C72 1.364 . S
C74 C75 1.374 1_565 S
C75 H66 0.931 . S
C75 C74 1.374 1_545 S
C75 C76 1.382 1_545 S
C76 O70 1.404 1_565 S
C76 C75 1.382 1_565 S
C76 C77 1.394 . S
C77 H67 0.928 1_565 S
C77 C73 1.377 . S
C77 C76 1.394 . S
H78 C85 0.929 . S
H79 C88 0.930 . S
H80 C90 0.929 . S
H81 C82 0.969 1_655 S
C82 H81 0.969 1_455 S
C82 O83 1.550 . S
C82 H84 0.973 . S
O83 C82 1.550 . S
O83 C89 1.412 . S
H84 C82 0.973 . S
C85 H78 0.929 . S
C85 C86 1.400 . S
C85 C87 1.364 . S
C86 C85 1.400 . S
C86 C90 1.377 . S
C87 C85 1.364 . S
C87 C88 1.374 . S
C88 H79 0.930 . S
C88 C87 1.374 . S
C88 C89 1.383 . S
C89 O83 1.412 . S
C89 C88 1.383 . S
C89 C90 1.394 . S
C90 H80 0.929 . S
C90 C86 1.377 . S
C90 C89 1.394 . S
H91 C98 0.928 1_545 S
H92 C101 0.931 . S
H93 C103 0.928 1_545 S
H94 C95 0.969 . S
C95 H94 0.969 . S
C95 O96 1.550 1_565 S
C95 H97 0.973 1_565 S
O96 C95 1.550 1_545 S
O96 C102 1.404 1_545 S
H97 C95 0.973 1_545 S
C98 H91 0.928 1_565 S
C98 C99 1.400 . S
C98 C100 1.364 . S
C99 C98 1.400 . S
C99 C103 1.377 . S
C100 C98 1.364 . S
C100 C101 1.374 1_565 S
C101 H92 0.931 . S
C101 C100 1.374 1_545 S
C101 C102 1.382 1_545 S
C102 O96 1.404 1_565 S
C102 C101 1.382 1_565 S
C102 C103 1.394 . S
C103 H93 0.928 1_565 S
C103 C99 1.377 . S
C103 C102 1.394 . S
H104 C111 0.928 1_556 S
H105 C114 0.930 . S
H106 C116 0.928 1_556 S
H107 C108 0.969 . S
C108 H107 0.969 . S
C108 O109 1.550 1_554 S
C108 H110 0.973 1_554 S
O109 C108 1.550 1_556 S
O109 C115 1.402 1_556 S
H110 C108 0.973 1_556 S
C111 H104 0.928 1_554 S
C111 C112 1.400 . S
C111 C113 1.364 . S
C112 C111 1.400 . S
C112 C116 1.377 . S
C113 C111 1.364 . S
C113 C114 1.374 1_554 S
C114 H105 0.930 . S
C114 C113 1.374 1_556 S
C114 C115 1.382 1_556 S
C115 O109 1.402 1_554 S
C115 C114 1.382 1_554 S
C115 C116 1.394 . S
C116 H106 0.928 1_554 S
C116 C112 1.377 . S
C116 C115 1.394 . S
H117 C124 0.928 . S
H118 C127 0.932 . S
H119 C129 0.929 . S
H120 C121 0.969 . S
C121 H120 0.969 . S
C121 O122 1.550 1_556 S
C121 H123 0.973 1_556 S
O122 C121 1.550 1_554 S
O122 C128 1.411 1_554 S
H123 C121 0.973 1_554 S
C124 H117 0.928 . S
C124 C125 1.400 . S
C124 C126 1.364 . S
C125 C124 1.400 . S
C125 C129 1.377 . S
C126 C124 1.364 . S
C126 C127 1.374 . S
C127 H118 0.932 . S
C127 C126 1.374 . S
C127 C128 1.382 1_554 S
C128 O122 1.411 1_556 S
C128 C127 1.382 1_556 S
C128 C129 1.394 1_556 S
C129 H119 0.929 . S
C129 C125 1.377 . S
C129 C128 1.394 1_554 S
H130 C137 0.928 1_554 S
H131 C140 0.931 . S
H132 C142 0.928 1_554 S
H133 C134 0.969 . S
C134 H133 0.969 . S
C134 O135 1.550 1_556 S
C134 H136 0.973 1_556 S
O135 C134 1.550 1_554 S
O135 C141 1.404 1_554 S
H136 C134 0.973 1_554 S
C137 H130 0.928 1_556 S
C137 C138 1.400 . S
C137 C139 1.364 . S
C138 C137 1.400 . S
C138 C142 1.377 . S
C139 C137 1.364 . S
C139 C140 1.374 1_556 S
C140 H131 0.931 . S
C140 C139 1.374 1_554 S
C140 C141 1.382 1_554 S
C141 O135 1.404 1_556 S
C141 C140 1.382 1_556 S
C141 C142 1.394 . S
C142 H132 0.928 1_556 S
C142 C138 1.377 . S
C142 C141 1.394 . S
H143 C150 0.928 . S
H144 C153 0.930 1_556 S
H145 C155 0.928 . S
H146 C147 0.969 . S
C147 H146 0.969 . S
C147 O148 1.550 1_554 S
C147 H149 0.973 1_554 S
O148 C147 1.550 1_556 S
O148 C154 1.412 1_556 S
H149 C147 0.973 1_556 S
C150 H143 0.928 . S
C150 C151 1.400 . S
C150 C152 1.364 . S
C151 C150 1.400 . S
C151 C155 1.378 . S
C152 C150 1.364 . S
C152 C153 1.374 . S
C153 H144 0.930 1_554 S
C153 C152 1.374 . S
C153 C154 1.384 . S
C154 O148 1.412 1_554 S
C154 C153 1.384 . S
C154 C155 1.396 . S
C155 H145 0.928 . S
C155 C151 1.378 . S
C155 C154 1.396 . S
H156 C163 0.929 . S
H157 C166 0.930 . S
H158 C168 0.929 . S
H159 C160 0.969 . S
C160 H159 0.969 . S
C160 O161 1.550 . S
C160 H162 0.973 . S
O161 C160 1.550 . S
O161 C167 1.412 . S
H162 C160 0.973 . S
C163 H156 0.929 . S
C163 C164 1.400 . S
C163 C165 1.364 . S
C164 C163 1.400 . S
C164 C168 1.377 . S
C165 C163 1.364 . S
C165 C166 1.374 . S
C166 H157 0.930 . S
C166 C165 1.374 . S
C166 C167 1.383 . S
C167 O161 1.412 . S
C167 C166 1.383 . S
C167 C168 1.394 . S
C168 H158 0.929 . S
C168 C164 1.377 . S
C168 C167 1.394 . S
H169 C176 0.929 . S
H170 C179 0.930 . S
H171 C181 0.929 . S
H172 C173 0.969 . S
C173 H172 0.969 . S
C173 O174 1.550 . S
C173 H175 0.973 . S
O174 C173 1.550 . S
O174 C180 1.412 . S
H175 C173 0.973 . S
C176 H169 0.929 . S
C176 C177 1.400 . S
C176 C178 1.364 . S
C177 C176 1.400 . S
C177 C181 1.377 . S
C178 C176 1.364 . S
C178 C179 1.374 . S
C179 H170 0.930 . S
C179 C178 1.374 . S
C179 C180 1.383 . S
C180 O174 1.412 . S
C180 C179 1.383 . S
C180 C181 1.394 . S
C181 H171 0.929 . S
C181 C177 1.377 . S
C181 C180 1.394 . S
H182 C189 0.929 . S
H183 C192 0.930 . S
H184 C194 0.929 . S
H185 C186 0.969 . S
C186 H185 0.969 . S
C186 O187 1.550 . S
C186 H188 0.973 . S
O187 C186 1.550 . S
O187 C193 1.412 . S
H188 C186 0.973 . S
C189 H182 0.929 . S
C189 C190 1.400 . S
C189 C191 1.364 . S
C190 C189 1.400 . S
C190 C194 1.377 . S
C191 C189 1.364 . S
C191 C192 1.374 . S
C192 H183 0.930 . S
C192 C191 1.374 . S
C192 C193 1.383 . S
C193 O187 1.412 . S
C193 C192 1.383 . S
C193 C194 1.394 . S
C194 H184 0.929 . S
C194 C190 1.377 . S
C194 C193 1.394 . S
H195 C202 0.929 . S
H196 C205 0.930 . S
H197 C207 0.929 . S
H198 C199 0.969 . S
C199 H198 0.969 . S
C199 O200 1.550 . S
C199 H201 0.973 . S
O200 C199 1.550 . S
O200 C206 1.412 . S
H201 C199 0.973 . S
C202 H195 0.929 . S
C202 C203 1.400 . S
C202 C204 1.364 . S
C203 C202 1.400 . S
C203 C207 1.377 . S
C204 C202 1.364 . S
C204 C205 1.374 . S
C205 H196 0.930 . S
C205 C204 1.374 . S
C205 C206 1.383 . S
C206 O200 1.412 . S
C206 C205 1.383 . S
C206 C207 1.394 . S
C207 H197 0.929 . S
C207 C203 1.377 . S
C207 C206 1.394 . S
H208 C215 0.929 . S
H209 C218 0.930 . S
H210 C220 0.929 . S
H211 C212 0.969 . S
C212 H211 0.969 . S
C212 O213 1.550 . S
C212 H214 0.973 . S
O213 C212 1.550 . S
O213 C219 1.412 . S
H214 C212 0.973 . S
C215 H208 0.929 . S
C215 C216 1.400 . S
C215 C217 1.364 . S
C216 C215 1.400 . S
C216 C220 1.377 . S
C217 C215 1.364 . S
C217 C218 1.374 . S
C218 H209 0.930 . S
C218 C217 1.374 . S
C218 C219 1.383 . S
C219 O213 1.412 . S
C219 C218 1.383 . S
C219 C220 1.394 . S
C220 H210 0.929 . S
C220 C216 1.377 . S
C220 C219 1.394 . S
H221 C228 0.929 . S
H222 C231 0.930 . S
H223 C233 0.929 . S
H224 C225 0.969 . S
C225 H224 0.969 . S
C225 O226 1.550 . S
C225 H227 0.973 . S
O226 C225 1.550 . S
O226 C232 1.412 . S
H227 C225 0.973 . S
C228 H221 0.929 . S
C228 C229 1.400 . S
C228 C230 1.364 . S
C229 C228 1.400 . S
C229 C233 1.377 . S
C230 C228 1.364 . S
C230 C231 1.374 . S
C231 H222 0.930 . S
C231 C230 1.374 . S
C231 C232 1.383 . S
C232 O226 1.412 . S
C232 C231 1.383 . S
C232 C233 1.394 . S
C233 H223 0.929 . S
C233 C229 1.377 . S
C233 C232 1.394 . S
H234 C241 0.929 . S
H235 C244 0.930 . S
H236 C246 0.929 . S
H237 C238 0.969 . S
C238 H237 0.969 . S
C238 O239 1.550 . S
C238 H240 0.973 . S
O239 C238 1.550 . S
O239 C245 1.412 . S
H240 C238 0.973 . S
C241 H234 0.929 . S
C241 C242 1.400 . S
C241 C243 1.364 . S
C242 C241 1.400 . S
C242 C246 1.377 . S
C243 C241 1.364 . S
C243 C244 1.374 . S
C244 H235 0.930 . S
C244 C243 1.374 . S
C244 C245 1.383 . S
C245 O239 1.412 . S
C245 C244 1.383 . S
C245 C246 1.394 . S
C246 H236 0.929 . S
C246 C242 1.377 . S
C246 C245 1.394 . S
H247 C254 0.929 . S
H248 C257 0.930 . S
H249 C259 0.929 . S
H250 C251 0.969 . S
C251 H250 0.969 . S
C251 O252 1.550 . S
C251 H253 0.973 . S
O252 C251 1.550 . S
O252 C258 1.412 . S
H253 C251 0.973 . S
C254 H247 0.929 . S
C254 C255 1.400 . S
C254 C256 1.364 . S
C255 C254 1.400 . S
C255 C259 1.377 . S
C256 C254 1.364 . S
C256 C257 1.374 . S
C257 H248 0.930 . S
C257 C256 1.374 . S
C257 C258 1.383 . S
C258 O252 1.412 . S
C258 C257 1.383 . S
C258 C259 1.394 . S
C259 H249 0.929 . S
C259 C255 1.377 . S
C259 C258 1.394 . S
H260 C267 0.929 . S
H261 C270 0.930 . S
H262 C272 0.929 . S
H263 C264 0.969 . S
C264 H263 0.969 . S
C264 O265 1.550 . S
C264 H266 0.973 . S
O265 C264 1.550 . S
O265 C271 1.412 . S
H266 C264 0.973 . S
C267 H260 0.929 . S
C267 C268 1.400 . S
C267 C269 1.364 . S
C268 C267 1.400 . S
C268 C272 1.377 . S
C269 C267 1.364 . S
C269 C270 1.374 . S
C270 H261 0.930 . S
C270 C269 1.374 . S
C270 C271 1.383 . S
C271 O265 1.412 . S
C271 C270 1.383 . S
C271 C272 1.394 . S
C272 H262 0.929 . S
C272 C268 1.377 . S
C272 C271 1.394 . S
H273 C280 0.929 . S
H274 C283 0.930 . S
H275 C285 0.929 . S
H276 C277 0.969 . S
C277 H276 0.969 . S
C277 O278 1.550 . S
C277 H279 0.973 . S
O278 C277 1.550 . S
O278 C284 1.412 . S
H279 C277 0.973 . S
C280 H273 0.929 . S
C280 C281 1.400 . S
C280 C282 1.364 . S
C281 C280 1.400 . S
C281 C285 1.377 . S
C282 C280 1.364 . S
C282 C283 1.374 . S
C283 H274 0.930 . S
C283 C282 1.374 . S
C283 C284 1.383 . S
C284 O278 1.412 . S
C284 C283 1.383 . S
C284 C285 1.394 . S
C285 H275 0.929 . S
C285 C281 1.377 . S
C285 C284 1.394 . S
H286 C293 0.929 . S
H287 C296 0.930 . S
H288 C298 0.929 . S
H289 C290 0.969 . S
C290 H289 0.969 . S
C290 O291 1.550 . S
C290 H292 0.973 . S
O291 C290 1.550 . S
O291 C297 1.412 . S
H292 C290 0.973 . S
C293 H286 0.929 . S
C293 C294 1.400 . S
C293 C295 1.364 . S
C294 C293 1.400 . S
C294 C298 1.377 . S
C295 C293 1.364 . S
C295 C296 1.374 . S
C296 H287 0.930 . S
C296 C295 1.374 . S
C296 C297 1.383 . S
C297 O291 1.412 . S
C297 C296 1.383 . S
C297 C298 1.394 . S
C298 H288 0.929 . S
C298 C294 1.377 . S
C298 C297 1.394 . S
H299 C306 0.929 . S
H300 C309 0.930 . S
H301 C311 0.929 . S
H302 C303 0.969 . S
C303 H302 0.969 . S
C303 O304 1.550 . S
C303 H305 0.973 . S
O304 C303 1.550 . S
O304 C310 1.412 . S
H305 C303 0.973 . S
C306 H299 0.929 . S
C306 C307 1.400 . S
C306 C308 1.364 . S
C307 C306 1.400 . S
C307 C311 1.377 . S
C308 C306 1.364 . S
C308 C309 1.374 . S
C309 H300 0.930 . S
C309 C308 1.374 . S
C309 C310 1.383 . S
C310 O304 1.412 . S
C310 C309 1.383 . S
C310 C311 1.394 . S
C311 H301 0.929 . S
C311 C307 1.377 . S
C311 C310 1.394 . S
C312 O338 1.283 . S
C312 O356 1.283 . S
C313 O339 1.283 . S
C313 O354 1.283 . S
C314 O340 1.283 . S
C314 O357 1.283 . S
C315 O341 1.283 . S
C315 O355 1.283 . S
C316 O342 1.283 . S
C316 O351 1.283 . S
C317 O343 1.283 . S
C317 O353 1.283 . S
C318 O344 1.283 . S
C318 O350 1.283 . S
C319 O345 1.283 . S
C319 O352 1.283 . S
C320 O346 1.283 . S
C320 O361 1.283 . S
C321 O347 1.283 . S
C321 O359 1.283 . S
C322 O348 1.283 . S
C322 O360 1.283 . S
C323 O349 1.283 . S
C323 O358 1.283 . S
Eu324 O325 2.370 1_455 S
Eu324 O326 2.370 . S
Eu324 O329 2.370 1_455 S
Eu324 O330 2.370 . S
Eu324 O338 2.363 . S
Eu324 O339 2.363 . S
Eu324 O352 2.363 . S
Eu324 O353 2.363 1_455 S
O325 Eu324 2.370 1_655 S
O325 Eu327 2.365 1_565 S
O325 Eu332 2.364 1_665 S
O326 Eu324 2.370 . S
O326 Eu328 2.365 1_565 S
O326 Eu331 2.366 1_565 S
Eu327 O325 2.365 1_545 S
Eu327 O329 2.365 1_545 S
Eu327 O333 2.376 . S
Eu327 O334 2.376 . S
Eu327 O342 2.372 . S
Eu327 O343 2.354 1_545 S
Eu327 O358 2.363 . S
Eu327 O359 2.363 . S
Eu328 O326 2.365 1_545 S
Eu328 O330 2.365 1_545 S
Eu328 O335 2.376 . S
Eu328 O336 2.376 . S
Eu328 O344 2.372 . S
Eu328 O345 2.354 1_545 S
Eu328 O360 2.363 . S
Eu328 O361 2.363 . S
O329 Eu324 2.370 1_655 S
O329 Eu327 2.365 1_565 S
O329 Eu331 2.366 1_665 S
O330 Eu324 2.370 . S
O330 Eu328 2.365 1_565 S
O330 Eu332 2.364 1_565 S
Eu331 O326 2.366 1_545 S
Eu331 O329 2.366 1_445 S
Eu331 O333 2.375 1_455 S
Eu331 O336 2.375 . S
Eu331 O348 2.363 . S
Eu331 O349 2.363 1_455 S
Eu331 O356 2.355 1_545 S
Eu331 O357 2.371 . S
Eu332 O325 2.364 1_445 S
Eu332 O330 2.364 1_545 S
Eu332 O334 2.377 1_455 S
Eu332 O335 2.377 . S
Eu332 O346 2.363 . S
Eu332 O347 2.363 1_455 S
Eu332 O354 2.352 1_545 S
Eu332 O355 2.374 . S
O333 Eu327 2.376 . S
O333 Eu331 2.375 1_655 S
O333 Eu337 2.370 1_655 S
O334 Eu327 2.376 . S
O334 Eu332 2.377 1_655 S
O334 Eu337 2.370 1_655 S
O335 Eu328 2.376 . S
O335 Eu332 2.377 . S
O335 Eu337 2.370 . S
O336 Eu328 2.376 . S
O336 Eu331 2.375 . S
O336 Eu337 2.370 . S
Eu337 O333 2.370 1_455 S
Eu337 O334 2.370 1_455 S
Eu337 O335 2.370 . S
Eu337 O336 2.370 . S
Eu337 O340 2.363 . S
Eu337 O341 2.363 . S
Eu337 O350 2.363 . S
Eu337 O351 2.363 1_455 S
O338 C312 1.283 . S
O338 Eu324 2.363 . S
O339 C313 1.283 . S
O339 Eu324 2.363 . S
O340 C314 1.283 . S
O340 Eu337 2.363 . S
O341 C315 1.283 . S
O341 Eu337 2.363 . S
O342 C316 1.283 . S
O342 Eu327 2.372 . S
O343 C317 1.283 . S
O343 Eu327 2.354 1_565 S
O344 C318 1.283 . S
O344 Eu328 2.372 . S
O345 C319 1.283 . S
O345 Eu328 2.354 1_565 S
O346 C320 1.283 . S
O346 Eu332 2.363 . S
O347 C321 1.283 . S
O347 Eu332 2.363 1_655 S
O348 C322 1.283 . S
O348 Eu331 2.363 . S
O349 C323 1.283 . S
O349 Eu331 2.363 1_655 S
O350 C318 1.283 . S
O350 Eu337 2.363 . S
O351 C316 1.283 . S
O351 Eu337 2.363 1_655 S
O352 C319 1.283 . S
O352 Eu324 2.363 . S
O353 C317 1.283 . S
O353 Eu324 2.363 1_655 S
O354 C313 1.283 . S
O354 Eu332 2.352 1_565 S
O355 C315 1.283 . S
O355 Eu332 2.374 . S
O356 C312 1.283 . S
O356 Eu331 2.355 1_565 S
O357 C314 1.283 . S
O357 Eu331 2.371 . S
O358 C323 1.283 . S
O358 Eu327 2.363 . S
O359 C321 1.283 . S
O359 Eu327 2.363 . S
O360 C322 1.283 . S
O360 Eu328 2.363 . S
O361 C320 1.283 . S
O361 Eu328 2.363 . S
C362 O388 1.283 . S
C362 O406 1.283 . S
C363 O389 1.283 . S
C363 O404 1.283 . S
C364 O390 1.283 . S
C364 O407 1.283 . S
C365 O391 1.283 . S
C365 O405 1.283 . S
C366 O392 1.283 . S
C366 O401 1.283 . S
C367 O393 1.283 . S
C367 O403 1.283 . S
C368 O394 1.283 . S
C368 O400 1.283 . S
C369 O395 1.283 . S
C369 O402 1.283 . S
C370 O396 1.283 . S
C370 O411 1.283 . S
C371 O397 1.283 . S
C371 O409 1.283 . S
C372 O398 1.283 . S
C372 O410 1.283 . S
C373 O399 1.283 . S
C373 O408 1.283 . S
Eu374 O375 2.377 . S
Eu374 O376 2.363 1_545 S
Eu374 O379 2.363 1_545 S
Eu374 O380 2.377 . S
Eu374 O388 2.351 1_545 S
Eu374 O389 2.375 . S
Eu374 O402 2.363 . S
Eu374 O403 2.363 . S
O375 Eu374 2.377 . S
O375 Eu377 2.380 . S
O375 Eu382 2.373 . S
O376 Eu374 2.363 1_565 S
O376 Eu378 2.370 1_565 S
O376 Eu381 2.377 . S
Eu377 O375 2.380 . S
Eu377 O379 2.370 1_545 S
Eu377 O383 2.360 1_544 S
Eu377 O384 2.370 1_554 S
Eu377 O392 2.354 1_554 S
Eu377 O393 2.371 . S
Eu377 O408 2.354 1_545 S
Eu377 O409 2.372 . S
Eu378 O376 2.370 1_545 S
Eu378 O380 2.381 . S
Eu378 O385 2.370 1_554 S
Eu378 O386 2.360 1_544 S
Eu378 O394 2.354 1_554 S
Eu378 O395 2.371 . S
Eu378 O410 2.354 1_545 S
Eu378 O411 2.372 . S
O379 Eu374 2.363 1_565 S
O379 Eu377 2.370 1_565 S
O379 Eu381 2.377 . S
O380 Eu374 2.377 . S
O380 Eu378 2.381 . S
O380 Eu382 2.373 . S
Eu381 O376 2.377 . S
Eu381 O379 2.377 . S
Eu381 O383 2.363 1_554 S
Eu381 O386 2.363 1_554 S
Eu381 O398 2.363 . S
Eu381 O399 2.363 . S
Eu381 O406 2.375 . S
Eu381 O407 2.351 1_554 S
Eu382 O375 2.373 . S
Eu382 O380 2.373 . S
Eu382 O384 2.367 1_554 S
Eu382 O385 2.367 1_554 S
Eu382 O396 2.363 . S
Eu382 O397 2.363 . S
Eu382 O404 2.368 . S
Eu382 O405 2.358 1_554 S
O383 Eu377 2.360 1_566 S
O383 Eu381 2.363 1_556 S
O383 Eu387 2.367 1_565 S
O384 Eu377 2.370 1_556 S
O384 Eu382 2.367 1_556 S
O384 Eu387 2.374 . S
O385 Eu378 2.370 1_556 S
O385 Eu382 2.367 1_556 S
O385 Eu387 2.373 . S
O386 Eu378 2.360 1_566 S
O386 Eu381 2.363 1_556 S
O386 Eu387 2.367 1_565 S
Eu387 O383 2.367 1_545 S
Eu387 O384 2.374 . S
Eu387 O385 2.373 . S
Eu387 O386 2.367 1_545 S
Eu387 O390 2.357 1_545 S
Eu387 O391 2.369 . S
Eu387 O400 2.363 . S
Eu387 O401 2.363 . S
O388 C362 1.283 . S
O388 Eu374 2.351 1_565 S
O389 C363 1.283 . S
O389 Eu374 2.375 . S
O390 C364 1.283 . S
O390 Eu387 2.357 1_565 S
O391 C365 1.283 . S
O391 Eu387 2.369 . S
O392 C366 1.283 . S
O392 Eu377 2.354 1_556 S
O393 C367 1.283 . S
O393 Eu377 2.371 . S
O394 C368 1.283 . S
O394 Eu378 2.354 1_556 S
O395 C369 1.283 . S
O395 Eu378 2.371 . S
O396 C370 1.283 . S
O396 Eu382 2.363 . S
O397 C371 1.283 . S
O397 Eu382 2.363 . S
O398 C372 1.283 . S
O398 Eu381 2.363 . S
O399 C373 1.283 . S
O399 Eu381 2.363 . S
O400 C368 1.283 . S
O400 Eu387 2.363 . S
O401 C366 1.283 . S
O401 Eu387 2.363 . S
O402 C369 1.283 . S
O402 Eu374 2.363 . S
O403 C367 1.283 . S
O403 Eu374 2.363 . S
O404 C363 1.283 . S
O404 Eu382 2.368 . S
O405 C365 1.283 . S
O405 Eu382 2.358 1_556 S
O406 C362 1.283 . S
O406 Eu381 2.375 . S
O407 C364 1.283 . S
O407 Eu381 2.351 1_556 S
O408 C373 1.283 . S
O408 Eu377 2.354 1_565 S
O409 C371 1.283 . S
O409 Eu377 2.372 . S
O410 C372 1.283 . S
O410 Eu378 2.354 1_565 S
O411 C370 1.283 . S
O411 Eu378 2.372 . S
C412 O438 1.283 . S
C412 O456 1.283 . S
C413 O439 1.283 . S
C413 O454 1.283 . S
C414 O440 1.283 . S
C414 O457 1.283 . S
C415 O441 1.283 . S
C415 O455 1.283 . S
C416 O442 1.283 . S
C416 O451 1.283 . S
C417 O443 1.283 . S
C417 O453 1.283 . S
C418 O444 1.283 . S
C418 O450 1.283 . S
C419 O445 1.283 . S
C419 O452 1.283 . S
C420 O446 1.283 . S
C420 O461 1.283 . S
C421 O447 1.283 . S
C421 O459 1.283 . S
C422 O448 1.283 . S
C422 O460 1.283 . S
C423 O449 1.283 . S
C423 O458 1.283 . S
Eu424 O425 2.366 1_454 S
Eu424 O426 2.374 . S
Eu424 O429 2.374 1_455 S
Eu424 O430 2.366 1_554 S
Eu424 O438 2.370 . S
Eu424 O439 2.356 1_554 S
Eu424 O452 2.363 . S
Eu424 O453 2.363 1_455 S
O425 Eu424 2.366 1_656 S
O425 Eu427 2.365 1_556 S
O425 Eu432 2.370 1_655 S
O426 Eu424 2.374 . S
O426 Eu428 2.375 . S
O426 Eu431 2.370 . S
Eu427 O425 2.365 1_554 S
Eu427 O429 2.375 . S
Eu427 O433 2.375 . S
Eu427 O434 2.365 1_554 S
Eu427 O442 2.363 . S
Eu427 O443 2.363 . S
Eu427 O458 2.371 . S
Eu427 O459 2.354 1_554 S
Eu428 O426 2.375 . S
Eu428 O430 2.365 1_554 S
Eu428 O435 2.365 1_554 S
Eu428 O436 2.375 . S
Eu428 O444 2.363 . S
Eu428 O445 2.363 . S
Eu428 O460 2.371 . S
Eu428 O461 2.354 1_554 S
O429 Eu424 2.374 1_655 S
O429 Eu427 2.375 . S
O429 Eu431 2.370 1_655 S
O430 Eu424 2.366 1_556 S
O430 Eu428 2.365 1_556 S
O430 Eu432 2.370 . S
Eu431 O426 2.370 . S
Eu431 O429 2.370 1_455 S
Eu431 O433 2.370 1_455 S
Eu431 O436 2.370 . S
Eu431 O448 2.363 . S
Eu431 O449 2.363 1_455 S
Eu431 O456 2.363 . S
Eu431 O457 2.363 . S
Eu432 O425 2.370 1_455 S
Eu432 O430 2.370 . S
Eu432 O434 2.370 1_455 S
Eu432 O435 2.370 . S
Eu432 O446 2.363 . S
Eu432 O447 2.363 1_455 S
Eu432 O454 2.363 . S
Eu432 O455 2.363 . S
O433 Eu427 2.375 . S
O433 Eu431 2.370 1_655 S
O433 Eu437 2.376 1_655 S
O434 Eu427 2.365 1_556 S
O434 Eu432 2.370 1_655 S
O434 Eu437 2.364 1_656 S
O435 Eu428 2.365 1_556 S
O435 Eu432 2.370 . S
O435 Eu437 2.364 1_556 S
O436 Eu428 2.375 . S
O436 Eu431 2.370 . S
O436 Eu437 2.376 . S
Eu437 O433 2.376 1_455 S
Eu437 O434 2.364 1_454 S
Eu437 O435 2.364 1_554 S
Eu437 O436 2.376 . S
Eu437 O440 2.373 . S
Eu437 O441 2.353 1_554 S
Eu437 O450 2.363 . S
Eu437 O451 2.363 1_455 S
O438 C412 1.283 . S
O438 Eu424 2.370 . S
O439 C413 1.283 . S
O439 Eu424 2.356 1_556 S
O440 C414 1.283 . S
O440 Eu437 2.373 . S
O441 C415 1.283 . S
O441 Eu437 2.353 1_556 S
O442 C416 1.283 . S
O442 Eu427 2.363 . S
O443 C417 1.283 . S
O443 Eu427 2.363 . S
O444 C418 1.283 . S
O444 Eu428 2.363 . S
O445 C419 1.283 . S
O445 Eu428 2.363 . S
O446 C420 1.283 . S
O446 Eu432 2.363 . S
O447 C421 1.283 . S
O447 Eu432 2.363 1_655 S
O448 C422 1.283 . S
O448 Eu431 2.363 . S
O449 C423 1.283 . S
O449 Eu431 2.363 1_655 S
O450 C418 1.283 . S
O450 Eu437 2.363 . S
O451 C416 1.283 . S
O451 Eu437 2.363 1_655 S
O452 C419 1.283 . S
O452 Eu424 2.363 . S
O453 C417 1.283 . S
O453 Eu424 2.363 1_655 S
O454 C413 1.283 . S
O454 Eu432 2.363 . S
O455 C415 1.283 . S
O455 Eu432 2.363 . S
O456 C412 1.283 . S
O456 Eu431 2.363 . S
O457 C414 1.283 . S
O457 Eu431 2.363 . S
O458 C423 1.283 . S
O458 Eu427 2.371 . S
O459 C421 1.283 . S
O459 Eu427 2.354 1_556 S
O460 C422 1.283 . S
O460 Eu428 2.371 . S
O461 C420 1.283 . S
O461 Eu428 2.354 1_556 S
C462 O488 1.283 . S
C462 O506 1.283 . S
C463 O489 1.283 . S
C463 O504 1.283 . S
C464 O490 1.283 . S
C464 O507 1.283 . S
C465 O491 1.283 . S
C465 O505 1.283 . S
C466 O492 1.283 . S
C466 O501 1.283 . S
C467 O493 1.283 . S
C467 O503 1.283 . S
C468 O494 1.283 . S
C468 O500 1.283 . S
C469 O495 1.283 . S
C469 O502 1.283 . S
C470 O496 1.283 . S
C470 O511 1.283 . S
C471 O497 1.283 . S
C471 O509 1.283 . S
C472 O498 1.283 . S
C472 O510 1.283 . S
C473 O499 1.283 . S
C473 O508 1.283 . S
Eu474 O475 2.370 . S
Eu474 O476 2.370 . S
Eu474 O479 2.370 . S
Eu474 O480 2.370 . S
Eu474 O488 2.363 . S
Eu474 O489 2.363 . S
Eu474 O502 2.363 . S
Eu474 O503 2.363 . S
O475 Eu474 2.370 . S
O475 Eu477 2.375 . S
O475 Eu482 2.376 . S
O476 Eu474 2.370 . S
O476 Eu478 2.375 . S
O476 Eu481 2.374 . S
Eu477 O475 2.375 . S
Eu477 O479 2.375 . S
Eu477 O483 2.365 1_554 S
Eu477 O484 2.365 1_554 S
Eu477 O492 2.354 1_554 S
Eu477 O493 2.371 . S
Eu477 O508 2.363 . S
Eu477 O509 2.363 . S
Eu478 O476 2.375 . S
Eu478 O480 2.375 . S
Eu478 O485 2.365 1_554 S
Eu478 O486 2.365 1_554 S
Eu478 O494 2.354 1_554 S
Eu478 O495 2.371 . S
Eu478 O510 2.363 . S
Eu478 O511 2.363 . S
O479 Eu474 2.370 . S
O479 Eu477 2.375 . S
O479 Eu481 2.374 . S
O480 Eu474 2.370 . S
O480 Eu478 2.375 . S
O480 Eu482 2.376 . S
Eu481 O476 2.374 . S
Eu481 O479 2.374 . S
Eu481 O483 2.366 1_554 S
Eu481 O486 2.366 1_554 S
Eu481 O498 2.363 . S
Eu481 O499 2.363 . S
Eu481 O506 2.370 . S
Eu481 O507 2.356 1_554 S
Eu482 O475 2.376 . S
Eu482 O480 2.376 . S
Eu482 O484 2.364 1_554 S
Eu482 O485 2.364 1_554 S
Eu482 O496 2.363 . S
Eu482 O497 2.363 . S
Eu482 O504 2.373 . S
Eu482 O505 2.353 1_554 S
O483 Eu477 2.365 1_556 S
O483 Eu481 2.366 1_556 S
O483 Eu487 2.370 . S
O484 Eu477 2.365 1_556 S
O484 Eu482 2.364 1_556 S
O484 Eu487 2.370 . S
O485 Eu478 2.365 1_556 S
O485 Eu482 2.364 1_556 S
O485 Eu487 2.370 . S
O486 Eu478 2.365 1_556 S
O486 Eu481 2.366 1_556 S
O486 Eu487 2.370 . S
Eu487 O483 2.370 . S
Eu487 O484 2.370 . S
Eu487 O485 2.370 . S
Eu487 O486 2.370 . S
Eu487 O490 2.363 . S
Eu487 O491 2.363 . S
Eu487 O500 2.363 . S
Eu487 O501 2.363 . S
O488 C462 1.283 . S
O488 Eu474 2.363 . S
O489 C463 1.283 . S
O489 Eu474 2.363 . S
O490 C464 1.283 . S
O490 Eu487 2.363 . S
O491 C465 1.283 . S
O491 Eu487 2.363 . S
O492 C466 1.283 . S
O492 Eu477 2.354 1_556 S
O493 C467 1.283 . S
O493 Eu477 2.371 . S
O494 C468 1.283 . S
O494 Eu478 2.354 1_556 S
O495 C469 1.283 . S
O495 Eu478 2.371 . S
O496 C470 1.283 . S
O496 Eu482 2.363 . S
O497 C471 1.283 . S
O497 Eu482 2.363 . S
O498 C472 1.283 . S
O498 Eu481 2.363 . S
O499 C473 1.283 . S
O499 Eu481 2.363 . S
O500 C468 1.283 . S
O500 Eu487 2.363 . S
O501 C466 1.283 . S
O501 Eu487 2.363 . S
O502 C469 1.283 . S
O502 Eu474 2.363 . S
O503 C467 1.283 . S
O503 Eu474 2.363 . S
O504 C463 1.283 . S
O504 Eu482 2.373 . S
O505 C465 1.283 . S
O505 Eu482 2.353 1_556 S
O506 C462 1.283 . S
O506 Eu481 2.370 . S
O507 C464 1.283 . S
O507 Eu481 2.356 1_556 S
O508 C473 1.283 . S
O508 Eu477 2.363 . S
O509 C471 1.283 . S
O509 Eu477 2.363 . S
O510 C472 1.283 . S
O510 Eu478 2.363 . S
O511 C470 1.283 . S
O511 Eu478 2.363 . S
C512 O538 1.283 . S
C512 O556 1.283 . S
C513 O539 1.283 . S
C513 O554 1.283 . S
C514 O540 1.283 . S
C514 O557 1.283 . S
C515 O541 1.283 . S
C515 O555 1.283 . S
C516 O542 1.283 . S
C516 O551 1.283 . S
C517 O543 1.283 . S
C517 O553 1.283 . S
C518 O544 1.283 . S
C518 O550 1.283 . S
C519 O545 1.283 . S
C519 O552 1.283 . S
C520 O546 1.283 . S
C520 O561 1.283 . S
C521 O547 1.283 . S
C521 O559 1.283 . S
C522 O548 1.283 . S
C522 O560 1.283 . S
C523 O549 1.283 . S
C523 O558 1.283 . S
Eu524 O525 2.370 1_455 S
Eu524 O526 2.370 . S
Eu524 O529 2.370 1_455 S
Eu524 O530 2.370 . S
Eu524 O538 2.363 . S
Eu524 O539 2.363 . S
Eu524 O552 2.363 . S
Eu524 O553 2.363 1_455 S
O525 Eu524 2.370 1_655 S
O525 Eu527 2.370 . S
O525 Eu532 2.370 1_655 S
O526 Eu524 2.370 . S
O526 Eu528 2.370 . S
O526 Eu531 2.370 . S
Eu527 O525 2.370 . S
Eu527 O529 2.370 . S
Eu527 O533 2.370 . S
Eu527 O534 2.370 . S
Eu527 O542 2.363 . S
Eu527 O543 2.363 . S
Eu527 O558 2.363 . S
Eu527 O559 2.363 . S
Eu528 O526 2.370 . S
Eu528 O530 2.370 . S
Eu528 O535 2.370 . S
Eu528 O536 2.370 . S
Eu528 O544 2.363 . S
Eu528 O545 2.363 . S
Eu528 O560 2.363 . S
Eu528 O561 2.363 . S
O529 Eu524 2.370 1_655 S
O529 Eu527 2.370 . S
O529 Eu531 2.370 1_655 S
O530 Eu524 2.370 . S
O530 Eu528 2.370 . S
O530 Eu532 2.370 . S
Eu531 O526 2.370 . S
Eu531 O529 2.370 1_455 S
Eu531 O533 2.370 1_455 S
Eu531 O536 2.370 . S
Eu531 O548 2.363 . S
Eu531 O549 2.363 1_455 S
Eu531 O556 2.363 . S
Eu531 O557 2.363 . S
Eu532 O525 2.370 1_455 S
Eu532 O530 2.370 . S
Eu532 O534 2.370 1_455 S
Eu532 O535 2.370 . S
Eu532 O546 2.363 . S
Eu532 O547 2.363 1_455 S
Eu532 O554 2.363 . S
Eu532 O555 2.363 . S
O533 Eu527 2.370 . S
O533 Eu531 2.370 1_655 S
O533 Eu537 2.370 1_655 S
O534 Eu527 2.370 . S
O534 Eu532 2.370 1_655 S
O534 Eu537 2.370 1_655 S
O535 Eu528 2.370 . S
O535 Eu532 2.370 . S
O535 Eu537 2.370 . S
O536 Eu528 2.370 . S
O536 Eu531 2.370 . S
O536 Eu537 2.370 . S
Eu537 O533 2.370 1_455 S
Eu537 O534 2.370 1_455 S
Eu537 O535 2.370 . S
Eu537 O536 2.370 . S
Eu537 O540 2.363 . S
Eu537 O541 2.363 . S
Eu537 O550 2.363 . S
Eu537 O551 2.363 1_455 S
O538 C512 1.283 . S
O538 Eu524 2.363 . S
O539 C513 1.283 . S
O539 Eu524 2.363 . S
O540 C514 1.283 . S
O540 Eu537 2.363 . S
O541 C515 1.283 . S
O541 Eu537 2.363 . S
O542 C516 1.283 . S
O542 Eu527 2.363 . S
O543 C517 1.283 . S
O543 Eu527 2.363 . S
O544 C518 1.283 . S
O544 Eu528 2.363 . S
O545 C519 1.283 . S
O545 Eu528 2.363 . S
O546 C520 1.283 . S
O546 Eu532 2.363 . S
O547 C521 1.283 . S
O547 Eu532 2.363 1_655 S
O548 C522 1.283 . S
O548 Eu531 2.363 . S
O549 C523 1.283 . S
O549 Eu531 2.363 1_655 S
O550 C518 1.283 . S
O550 Eu537 2.363 . S
O551 C516 1.283 . S
O551 Eu537 2.363 1_655 S
O552 C519 1.283 . S
O552 Eu524 2.363 . S
O553 C517 1.283 . S
O553 Eu524 2.363 1_655 S
O554 C513 1.283 . S
O554 Eu532 2.363 . S
O555 C515 1.283 . S
O555 Eu532 2.363 . S
O556 C512 1.283 . S
O556 Eu531 2.363 . S
O557 C514 1.283 . S
O557 Eu531 2.363 . S
O558 C523 1.283 . S
O558 Eu527 2.363 . S
O559 C521 1.283 . S
O559 Eu527 2.363 . S
O560 C522 1.283 . S
O560 Eu528 2.363 . S
O561 C520 1.283 . S
O561 Eu528 2.363 . S
C562 O588 1.283 . S
C562 O606 1.283 . S
C563 O589 1.283 . S
C563 O604 1.283 . S
C564 O590 1.283 . S
C564 O607 1.283 . S
C565 O591 1.283 . S
C565 O605 1.283 . S
C566 O592 1.283 . S
C566 O601 1.283 . S
C567 O593 1.283 . S
C567 O603 1.283 . S
C568 O594 1.283 . S
C568 O600 1.283 . S
C569 O595 1.283 . S
C569 O602 1.283 . S
C570 O596 1.283 . S
C570 O611 1.283 . S
C571 O597 1.283 . S
C571 O609 1.283 . S
C572 O598 1.283 . S
C572 O610 1.283 . S
C573 O599 1.283 . S
C573 O608 1.283 . S
Eu574 O575 2.370 . S
Eu574 O576 2.370 . S
Eu574 O579 2.370 . S
Eu574 O580 2.370 . S
Eu574 O588 2.363 . S
Eu574 O589 2.363 . S
Eu574 O602 2.363 . S
Eu574 O603 2.363 . S
O575 Eu574 2.370 . S
O575 Eu577 2.365 1_565 S
O575 Eu582 2.364 1_565 S
O576 Eu574 2.370 . S
O576 Eu578 2.365 1_565 S
O576 Eu581 2.366 1_565 S
Eu577 O575 2.365 1_545 S
Eu577 O579 2.365 1_545 S
Eu577 O583 2.376 . S
Eu577 O584 2.376 . S
Eu577 O592 2.372 . S
Eu577 O593 2.354 1_545 S
Eu577 O608 2.363 . S
Eu577 O609 2.363 . S
Eu578 O576 2.365 1_545 S
Eu578 O580 2.365 1_545 S
Eu578 O585 2.376 . S
Eu578 O586 2.376 . S
Eu578 O594 2.372 . S
Eu578 O595 2.354 1_545 S
Eu578 O610 2.363 . S
Eu578 O611 2.363 . S
O579 Eu574 2.370 . S
O579 Eu577 2.365 1_565 S
O579 Eu581 2.366 1_565 S
O580 Eu574 2.370 . S
O580 Eu578 2.365 1_565 S
O580 Eu582 2.364 1_565 S
Eu581 O576 2.366 1_545 S
Eu581 O579 2.366 1_545 S
Eu581 O583 2.375 . S
Eu581 O586 2.375 . S
Eu581 O598 2.363 . S
Eu581 O599 2.363 . S
Eu581 O606 2.355 1_545 S
Eu581 O607 2.370 . S
Eu582 O575 2.364 1_545 S
Eu582 O580 2.364 1_545 S
Eu582 O584 2.377 . S
Eu582 O585 2.377 . S
Eu582 O596 2.363 . S
Eu582 O597 2.363 . S
Eu582 O604 2.352 1_545 S
Eu582 O605 2.374 . S
O583 Eu577 2.376 . S
O583 Eu581 2.375 . S
O583 Eu587 2.370 . S
O584 Eu577 2.376 . S
O584 Eu582 2.377 . S
O584 Eu587 2.370 . S
O585 Eu578 2.376 . S
O585 Eu582 2.377 . S
O585 Eu587 2.370 . S
O586 Eu578 2.376 . S
O586 Eu581 2.375 . S
O586 Eu587 2.370 . S
Eu587 O583 2.370 . S
Eu587 O584 2.370 . S
Eu587 O585 2.370 . S
Eu587 O586 2.370 . S
Eu587 O590 2.363 . S
Eu587 O591 2.363 . S
Eu587 O600 2.363 . S
Eu587 O601 2.363 . S
O588 C562 1.283 . S
O588 Eu574 2.363 . S
O589 C563 1.283 . S
O589 Eu574 2.363 . S
O590 C564 1.283 . S
O590 Eu587 2.363 . S
O591 C565 1.283 . S
O591 Eu587 2.363 . S
O592 C566 1.283 . S
O592 Eu577 2.372 . S
O593 C567 1.283 . S
O593 Eu577 2.354 1_565 S
O594 C568 1.283 . S
O594 Eu578 2.372 . S
O595 C569 1.283 . S
O595 Eu578 2.354 1_565 S
O596 C570 1.283 . S
O596 Eu582 2.363 . S
O597 C571 1.283 . S
O597 Eu582 2.363 . S
O598 C572 1.283 . S
O598 Eu581 2.363 . S
O599 C573 1.283 . S
O599 Eu581 2.363 . S
O600 C568 1.283 . S
O600 Eu587 2.363 . S
O601 C566 1.283 . S
O601 Eu587 2.363 . S
O602 C569 1.283 . S
O602 Eu574 2.363 . S
O603 C567 1.283 . S
O603 Eu574 2.363 . S
O604 C563 1.283 . S
O604 Eu582 2.352 1_565 S
O605 C565 1.283 . S
O605 Eu582 2.374 . S
O606 C562 1.283 . S
O606 Eu581 2.355 1_565 S
O607 C564 1.283 . S
O607 Eu581 2.370 . S
O608 C573 1.283 . S
O608 Eu577 2.363 . S
O609 C571 1.283 . S
O609 Eu577 2.363 . S
O610 C572 1.283 . S
O610 Eu578 2.363 . S
O611 C570 1.283 . S
O611 Eu578 2.363 . S
H612 C620 0.950 . S
H613 C625 0.950 . S
H614 C622 0.950 . S
H615 C624 0.950 . S
H616 C626 0.950 . S
H617 C628 0.950 . S
H618 C630 0.950 . S
H619 C631 0.950 . S
C620 H612 0.950 . S
C620 C621 1.386 . S
C620 C622 1.391 . S
C621 C620 1.386 . S
C621 C625 1.393 . S
C622 H614 0.950 . S
C622 C620 1.391 . S
C622 C623 1.400 . S
C623 C622 1.400 . S
C623 C624 1.398 . S
C623 C629 1.491 . S
C624 H615 0.950 . S
C624 C623 1.398 . S
C624 C625 1.391 . S
C625 H613 0.950 . S
C625 C621 1.393 . S
C625 C624 1.391 . S
C626 H616 0.950 . S
C626 C627 1.386 . S
C626 C628 1.391 . S
C627 C626 1.386 . S
C627 C631 1.393 . S
C628 H617 0.950 . S
C628 C626 1.391 . S
C628 C629 1.400 . S
C629 C623 1.491 . S
C629 C628 1.400 . S
C629 C630 1.398 . S
C630 H618 0.950 . S
C630 C629 1.398 . S
C630 C631 1.391 . S
C631 H619 0.950 . S
C631 C627 1.393 . S
C631 C630 1.391 . S
H632 C640 0.950 . S
H633 C645 0.950 . S
H634 C642 0.950 . S
H635 C644 0.950 . S
H636 C646 0.950 . S
H637 C648 0.950 . S
H638 C650 0.950 . S
H639 C651 0.950 . S
C640 H632 0.950 . S
C640 C641 1.386 . S
C640 C642 1.391 . S
C641 C640 1.386 . S
C641 C645 1.393 . S
C642 H634 0.950 . S
C642 C640 1.391 . S
C642 C643 1.400 . S
C643 C642 1.400 . S
C643 C644 1.398 . S
C643 C649 1.491 . S
C644 H635 0.950 . S
C644 C643 1.398 . S
C644 C645 1.391 . S
C645 H633 0.950 . S
C645 C641 1.393 . S
C645 C644 1.391 . S
C646 H636 0.950 . S
C646 C647 1.386 . S
C646 C648 1.391 . S
C647 C646 1.386 . S
C647 C651 1.393 . S
C648 H637 0.950 . S
C648 C646 1.391 . S
C648 C649 1.400 . S
C649 C643 1.491 . S
C649 C648 1.400 . S
C649 C650 1.398 . S
C650 H638 0.950 . S
C650 C649 1.398 . S
C650 C651 1.391 . S
C651 H639 0.950 . S
C651 C647 1.393 . S
C651 C650 1.391 . S
H652 C660 0.950 . S
H653 C665 0.950 . S
H654 C662 0.950 . S
H655 C664 0.950 . S
H656 C666 0.950 . S
H657 C668 0.950 . S
H658 C670 0.950 . S
H659 C671 0.950 . S
C660 H652 0.950 . S
C660 C661 1.386 . S
C660 C662 1.391 . S
C661 C660 1.386 . S
C661 C665 1.393 . S
C662 H654 0.950 . S
C662 C660 1.391 . S
C662 C663 1.400 . S
C663 C662 1.400 . S
C663 C664 1.398 . S
C663 C669 1.491 . S
C664 H655 0.950 . S
C664 C663 1.398 . S
C664 C665 1.391 . S
C665 H653 0.950 . S
C665 C661 1.393 . S
C665 C664 1.391 . S
C666 H656 0.950 . S
C666 C667 1.386 . S
C666 C668 1.391 . S
C667 C666 1.386 . S
C667 C671 1.393 . S
C668 H657 0.950 . S
C668 C666 1.391 . S
C668 C669 1.400 . S
C669 C663 1.491 . S
C669 C668 1.400 . S
C669 C670 1.398 . S
C670 H658 0.950 . S
C670 C669 1.398 . S
C670 C671 1.391 . S
C671 H659 0.950 . S
C671 C667 1.393 . S
C671 C670 1.391 . S
H672 C680 0.950 . S
H673 C685 0.950 . S
H674 C682 0.950 . S
H675 C684 0.950 . S
H676 C686 0.950 . S
H677 C688 0.950 . S
H678 C690 0.950 . S
H679 C691 0.950 . S
C680 H672 0.950 . S
C680 C681 1.386 . S
C680 C682 1.391 . S
C681 C680 1.386 . S
C681 C685 1.393 . S
C682 H674 0.950 . S
C682 C680 1.391 . S
C682 C683 1.400 . S
C683 C682 1.400 . S
C683 C684 1.398 . S
C683 C689 1.491 . S
C684 H675 0.950 . S
C684 C683 1.398 . S
C684 C685 1.391 . S
C685 H673 0.950 . S
C685 C681 1.393 . S
C685 C684 1.391 . S
C686 H676 0.950 . S
C686 C687 1.386 . S
C686 C688 1.391 . S
C687 C686 1.386 . S
C687 C691 1.393 . S
C688 H677 0.950 . S
C688 C686 1.391 . S
C688 C689 1.400 . S
C689 C683 1.491 . S
C689 C688 1.400 . S
C689 C690 1.398 . S
C690 H678 0.950 . S
C690 C689 1.398 . S
C690 C691 1.391 . S
C691 H679 0.950 . S
C691 C687 1.393 . S
C691 C690 1.391 . S
H692 C700 0.950 . S
H693 C705 0.950 . S
H694 C702 0.950 . S
H695 C704 0.950 . S
H696 C706 0.950 . S
H697 C708 0.950 . S
H698 C710 0.950 . S
H699 C711 0.950 . S
C700 H692 0.950 . S
C700 C701 1.386 . S
C700 C702 1.391 . S
C701 C700 1.386 . S
C701 C705 1.393 . S
C702 H694 0.950 . S
C702 C700 1.391 . S
C702 C703 1.400 . S
C703 C702 1.400 . S
C703 C704 1.398 . S
C703 C709 1.491 . S
C704 H695 0.950 . S
C704 C703 1.398 . S
C704 C705 1.391 . S
C705 H693 0.950 . S
C705 C701 1.393 . S
C705 C704 1.391 . S
C706 H696 0.950 . S
C706 C707 1.386 . S
C706 C708 1.391 . S
C707 C706 1.386 . S
C707 C711 1.393 . S
C708 H697 0.950 . S
C708 C706 1.391 . S
C708 C709 1.400 . S
C709 C703 1.491 . S
C709 C708 1.400 . S
C709 C710 1.398 . S
C710 H698 0.950 . S
C710 C709 1.398 . S
C710 C711 1.391 . S
C711 H699 0.950 . S
C711 C707 1.393 . S
C711 C710 1.391 . S
H712 C720 0.950 . S
H713 C725 0.950 . S
H714 C722 0.950 . S
H715 C724 0.950 . S
H716 C726 0.950 . S
H717 C728 0.950 . S
H718 C730 0.950 . S
H719 C731 0.950 . S
C720 H712 0.950 . S
C720 C721 1.386 . S
C720 C722 1.391 . S
C721 C720 1.386 . S
C721 C725 1.393 . S
C722 H714 0.950 . S
C722 C720 1.391 . S
C722 C723 1.400 . S
C723 C722 1.400 . S
C723 C724 1.398 . S
C723 C729 1.491 . S
C724 H715 0.950 . S
C724 C723 1.398 . S
C724 C725 1.391 . S
C725 H713 0.950 . S
C725 C721 1.393 . S
C725 C724 1.391 . S
C726 H716 0.950 . S
C726 C727 1.386 . S
C726 C728 1.391 . S
C727 C726 1.386 . S
C727 C731 1.393 . S
C728 H717 0.950 . S
C728 C726 1.391 . S
C728 C729 1.400 . S
C729 C723 1.491 . S
C729 C728 1.400 . S
C729 C730 1.398 . S
C730 H718 0.950 . S
C730 C729 1.398 . S
C730 C731 1.391 . S
C731 H719 0.950 . S
C731 C727 1.393 . S
C731 C730 1.391 . S
H732 C740 0.950 . S
H733 C745 0.950 . S
H734 C742 0.950 . S
H735 C744 0.950 . S
H736 C746 0.950 . S
H737 C748 0.950 . S
H738 C750 0.950 . S
H739 C751 0.950 . S
C740 H732 0.950 . S
C740 C741 1.386 . S
C740 C742 1.391 . S
C741 C740 1.386 . S
C741 C745 1.393 . S
C742 H734 0.950 . S
C742 C740 1.391 . S
C742 C743 1.400 . S
C743 C742 1.400 . S
C743 C744 1.398 . S
C743 C749 1.491 . S
C744 H735 0.950 . S
C744 C743 1.398 . S
C744 C745 1.391 . S
C745 H733 0.950 . S
C745 C741 1.393 . S
C745 C744 1.391 . S
C746 H736 0.950 . S
C746 C747 1.386 . S
C746 C748 1.391 . S
C747 C746 1.386 . S
C747 C751 1.393 . S
C748 H737 0.950 . S
C748 C746 1.391 . S
C748 C749 1.400 . S
C749 C743 1.491 . S
C749 C748 1.400 . S
C749 C750 1.398 . S
C750 H738 0.950 . S
C750 C749 1.398 . S
C750 C751 1.391 . S
C751 H739 0.950 . S
C751 C747 1.393 . S
C751 C750 1.391 . S
H752 C760 0.950 . S
H753 C765 0.950 . S
H754 C762 0.950 . S
H755 C764 0.950 . S
H756 C766 0.950 . S
H757 C768 0.950 . S
H758 C770 0.950 . S
H759 C771 0.950 . S
C760 H752 0.950 . S
C760 C761 1.386 . S
C760 C762 1.391 . S
C761 C760 1.386 . S
C761 C765 1.393 . S
C762 H754 0.950 . S
C762 C760 1.391 . S
C762 C763 1.400 . S
C763 C762 1.400 . S
C763 C764 1.398 . S
C763 C769 1.491 . S
C764 H755 0.950 . S
C764 C763 1.398 . S
C764 C765 1.391 . S
C765 H753 0.950 . S
C765 C761 1.393 . S
C765 C764 1.391 . S
C766 H756 0.950 . S
C766 C767 1.386 . S
C766 C768 1.391 . S
C767 C766 1.386 . S
C767 C771 1.393 . S
C768 H757 0.950 . S
C768 C766 1.391 . S
C768 C769 1.400 . S
C769 C763 1.491 . S
C769 C768 1.400 . S
C769 C770 1.398 . S
C770 H758 0.950 . S
C770 C769 1.398 . S
C770 C771 1.391 . S
C771 H759 0.950 . S
C771 C767 1.393 . S
C771 C770 1.391 . S
H772 C780 0.950 . S
H773 C785 0.950 . S
H774 C782 0.950 . S
H775 C784 0.950 . S
H776 C786 0.950 . S
H777 C788 0.950 . S
H778 C790 0.950 . S
H779 C791 0.950 . S
C780 H772 0.950 . S
C780 C781 1.386 . S
C780 C782 1.391 . S
C781 C780 1.386 . S
C781 C785 1.393 . S
C782 H774 0.950 . S
C782 C780 1.391 . S
C782 C783 1.400 . S
C783 C782 1.400 . S
C783 C784 1.398 . S
C783 C789 1.491 . S
C784 H775 0.950 . S
C784 C783 1.398 . S
C784 C785 1.391 . S
C785 H773 0.950 . S
C785 C781 1.393 . S
C785 C784 1.391 . S
C786 H776 0.950 . S
C786 C787 1.386 . S
C786 C788 1.391 . S
C787 C786 1.386 . S
C787 C791 1.393 . S
C788 H777 0.950 . S
C788 C786 1.391 . S
C788 C789 1.400 . S
C789 C783 1.491 . S
C789 C788 1.400 . S
C789 C790 1.398 . S
C790 H778 0.950 . S
C790 C789 1.398 . S
C790 C791 1.391 . S
C791 H779 0.950 . S
C791 C787 1.393 . S
C791 C790 1.391 . S
H792 C800 0.950 . S
H793 C805 0.950 . S
H794 C802 0.950 . S
H795 C804 0.950 . S
H796 C806 0.950 . S
H797 C808 0.950 . S
H798 C810 0.950 . S
H799 C811 0.950 . S
C800 H792 0.950 . S
C800 C801 1.386 . S
C800 C802 1.391 . S
C801 C800 1.386 . S
C801 C805 1.393 . S
C802 H794 0.950 . S
C802 C800 1.391 . S
C802 C803 1.400 . S
C803 C802 1.400 . S
C803 C804 1.398 . S
C803 C809 1.491 . S
C804 H795 0.950 . S
C804 C803 1.398 . S
C804 C805 1.391 . S
C805 H793 0.950 . S
C805 C801 1.393 . S
C805 C804 1.391 . S
C806 H796 0.950 . S
C806 C807 1.386 . S
C806 C808 1.391 . S
C807 C806 1.386 . S
C807 C811 1.393 . S
C808 H797 0.950 . S
C808 C806 1.391 . S
C808 C809 1.400 . S
C809 C803 1.491 . S
C809 C808 1.400 . S
C809 C810 1.398 . S
C810 H798 0.950 . S
C810 C809 1.398 . S
C810 C811 1.391 . S
C811 H799 0.950 . S
C811 C807 1.393 . S
C811 C810 1.391 . S
H812 C820 0.950 . S
H813 C825 0.950 . S
H814 C822 0.950 . S
H815 C824 0.950 . S
H816 C826 0.950 . S
H817 C828 0.950 . S
H818 C830 0.950 . S
H819 C831 0.950 . S
C820 H812 0.950 . S
C820 C821 1.386 . S
C820 C822 1.391 . S
C821 C820 1.386 . S
C821 C825 1.393 . S
C822 H814 0.950 . S
C822 C820 1.391 . S
C822 C823 1.400 . S
C823 C822 1.400 . S
C823 C824 1.398 . S
C823 C829 1.491 . S
C824 H815 0.950 . S
C824 C823 1.398 . S
C824 C825 1.391 . S
C825 H813 0.950 . S
C825 C821 1.393 . S
C825 C824 1.391 . S
C826 H816 0.950 . S
C826 C827 1.386 . S
C826 C828 1.391 . S
C827 C826 1.386 . S
C827 C831 1.393 . S
C828 H817 0.950 . S
C828 C826 1.391 . S
C828 C829 1.400 . S
C829 C823 1.491 . S
C829 C828 1.400 . S
C829 C830 1.398 . S
C830 H818 0.950 . S
C830 C829 1.398 . S
C830 C831 1.391 . S
C831 H819 0.950 . S
C831 C827 1.393 . S
C831 C830 1.391 . S
H832 C840 0.950 . S
H833 C845 0.950 . S
H834 C842 0.950 . S
H835 C844 0.950 . S
H836 C846 0.950 . S
H837 C848 0.950 . S
H838 C850 0.950 . S
H839 C851 0.950 . S
C840 H832 0.950 . S
C840 C841 1.386 . S
C840 C842 1.391 . S
C841 C840 1.386 . S
C841 C845 1.393 . S
C842 H834 0.950 . S
C842 C840 1.391 . S
C842 C843 1.400 . S
C843 C842 1.400 . S
C843 C844 1.398 . S
C843 C849 1.491 . S
C844 H835 0.950 . S
C844 C843 1.398 . S
C844 C845 1.391 . S
C845 H833 0.950 . S
C845 C841 1.393 . S
C845 C844 1.391 . S
C846 H836 0.950 . S
C846 C847 1.386 . S
C846 C848 1.391 . S
C847 C846 1.386 . S
C847 C851 1.393 . S
C848 H837 0.950 . S
C848 C846 1.391 . S
C848 C849 1.400 . S
C849 C843 1.491 . S
C849 C848 1.400 . S
C849 C850 1.398 . S
C850 H838 0.950 . S
C850 C849 1.398 . S
C850 C851 1.391 . S
C851 H839 0.950 . S
C851 C847 1.393 . S
C851 C850 1.391 . S
H852 C860 0.950 . S
H853 C865 0.950 . S
H854 C862 0.950 . S
H855 C864 0.950 . S
H856 C866 0.950 . S
H857 C868 0.950 . S
H858 C870 0.950 . S
H859 C871 0.950 . S
C860 H852 0.950 . S
C860 C861 1.383 . S
C860 C862 1.391 . S
C861 C860 1.383 . S
C861 C865 1.396 1_556 S
C862 H854 0.950 . S
C862 C860 1.391 . S
C862 C863 1.398 1_556 S
C863 C862 1.398 1_554 S
C863 C864 1.401 . S
C863 C869 1.490 . S
C864 H855 0.950 . S
C864 C863 1.401 . S
C864 C865 1.391 . S
C865 H853 0.950 . S
C865 C861 1.396 1_554 S
C865 C864 1.391 . S
C866 H856 0.950 . S
C866 C867 1.412 . S
C866 C868 1.391 . S
C867 C866 1.412 . S
C867 C871 1.367 1_554 S
C868 H857 0.950 . S
C868 C866 1.391 . S
C868 C869 1.421 . S
C869 C863 1.490 . S
C869 C868 1.421 . S
C869 C870 1.379 1_554 S
C870 H858 0.950 . S
C870 C869 1.379 1_556 S
C870 C871 1.391 . S
C871 H859 0.950 . S
C871 C867 1.367 1_556 S
C871 C870 1.391 . S
H872 C880 0.950 . S
H873 C885 0.950 . S
H874 C882 0.950 . S
H875 C884 0.950 . S
H876 C886 0.950 . S
H877 C888 0.950 . S
H878 C890 0.950 . S
H879 C891 0.950 . S
C880 H872 0.950 . S
C880 C881 1.386 1_556 S
C880 C882 1.391 . S
C881 C880 1.386 1_554 S
C881 C885 1.393 . S
C882 H874 0.950 . S
C882 C880 1.391 . S
C882 C883 1.376 1_556 S
C883 C882 1.376 1_554 S
C883 C884 1.424 . S
C883 C889 1.490 . S
C884 H875 0.950 . S
C884 C883 1.424 . S
C884 C885 1.391 . S
C885 H873 0.950 . S
C885 C881 1.393 . S
C885 C884 1.391 . S
C886 H876 0.950 . S
C886 C887 1.378 1_554 S
C886 C888 1.391 . S
C887 C886 1.378 1_556 S
C887 C891 1.400 . S
C888 H877 0.950 . S
C888 C886 1.391 . S
C888 C889 1.400 . S
C889 C883 1.490 . S
C889 C888 1.400 . S
C889 C890 1.398 1_554 S
C890 H878 0.950 . S
C890 C889 1.398 1_556 S
C890 C891 1.391 . S
C891 H879 0.950 . S
C891 C887 1.400 . S
C891 C890 1.391 . S
H892 C900 0.950 . S
H893 C905 0.950 . S
H894 C902 0.950 . S
H895 C904 0.950 . S
H896 C906 0.950 . S
H897 C908 0.950 . S
H898 C910 0.950 . S
H899 C911 0.950 . S
C900 H892 0.950 . S
C900 C901 1.380 1_554 S
C900 C902 1.391 . S
C901 C900 1.380 1_556 S
C901 C905 1.400 . S
C902 H894 0.950 . S
C902 C900 1.391 . S
C902 C903 1.399 1_554 S
C903 C902 1.399 1_556 S
C903 C904 1.400 . S
C903 C909 1.490 1_556 S
C904 H895 0.950 . S
C904 C903 1.400 . S
C904 C905 1.391 . S
C905 H893 0.950 . S
C905 C901 1.400 . S
C905 C904 1.391 . S
C906 H896 0.950 . S
C906 C907 1.386 1_556 S
C906 C908 1.391 . S
C907 C906 1.386 1_554 S
C907 C911 1.393 . S
C908 H897 0.950 . S
C908 C906 1.391 . S
C908 C909 1.396 1_556 S
C909 C903 1.490 1_554 S
C909 C908 1.396 1_554 S
C909 C910 1.405 . S
C910 H898 0.950 . S
C910 C909 1.405 . S
C910 C911 1.391 . S
C911 H899 0.950 . S
C911 C907 1.393 . S
C911 C910 1.391 . S
H912 C920 0.950 . S
H913 C925 0.950 . S
H914 C922 0.950 . S
H915 C924 0.950 . S
H916 C926 0.950 . S
H917 C928 0.950 . S
H918 C930 0.950 . S
H919 C931 0.950 . S
C920 H912 0.950 . S
C920 C921 1.375 1_554 S
C920 C922 1.391 . S
C921 C920 1.375 1_556 S
C921 C925 1.405 . S
C922 H914 0.950 . S
C922 C920 1.391 . S
C922 C923 1.396 1_554 S
C923 C922 1.396 1_556 S
C923 C924 1.403 . S
C923 C929 1.490 1_556 S
C924 H915 0.950 . S
C924 C923 1.403 . S
C924 C925 1.391 . S
C925 H913 0.950 . S
C925 C921 1.405 . S
C925 C924 1.391 . S
C926 H916 0.950 . S
C926 C927 1.386 1_556 S
C926 C928 1.391 . S
C927 C926 1.386 1_554 S
C927 C931 1.393 . S
C928 H917 0.950 . S
C928 C926 1.391 . S
C928 C929 1.393 1_556 S
C929 C923 1.490 1_554 S
C929 C928 1.393 1_554 S
C929 C930 1.407 . S
C930 H918 0.950 . S
C930 C929 1.407 . S
C930 C931 1.391 . S
C931 H919 0.950 . S
C931 C927 1.393 . S
C931 C930 1.391 . S
H932 C940 0.950 . S
H933 C945 0.950 . S
H934 C942 0.950 . S
H935 C944 0.950 . S
H936 C946 0.950 . S
H937 C948 0.950 . S
H938 C950 0.950 . S
H939 C951 0.950 . S
C940 H932 0.950 . S
C940 C941 1.386 . S
C940 C942 1.391 . S
C941 C940 1.386 . S
C941 C945 1.393 . S
C942 H934 0.950 . S
C942 C940 1.391 . S
C942 C943 1.400 . S
C943 C942 1.400 . S
C943 C944 1.398 . S
C943 C949 1.491 . S
C944 H935 0.950 . S
C944 C943 1.398 . S
C944 C945 1.391 . S
C945 H933 0.950 . S
C945 C941 1.393 . S
C945 C944 1.391 . S
C946 H936 0.950 . S
C946 C947 1.386 . S
C946 C948 1.391 . S
C947 C946 1.386 . S
C947 C951 1.393 . S
C948 H937 0.950 . S
C948 C946 1.391 . S
C948 C949 1.400 . S
C949 C943 1.491 . S
C949 C948 1.400 . S
C949 C950 1.398 . S
C950 H938 0.950 . S
C950 C949 1.398 . S
C950 C951 1.391 . S
C951 H939 0.950 . S
C951 C947 1.393 . S
C951 C950 1.391 . S
H952 C960 0.950 . S
H953 C965 0.950 . S
H954 C962 0.950 . S
H955 C964 0.950 . S
H956 C966 0.950 . S
H957 C968 0.950 . S
H958 C970 0.950 . S
H959 C971 0.950 . S
C960 H952 0.950 . S
C960 C961 1.405 . S
C960 C962 1.391 . S
C961 C960 1.405 . S
C961 C965 1.375 1_545 S
C962 H954 0.950 . S
C962 C960 1.391 . S
C962 C963 1.413 . S
C963 C962 1.413 . S
C963 C964 1.387 1_545 S
C963 C969 1.490 1_545 S
C964 H955 0.950 . S
C964 C963 1.387 1_565 S
C964 C965 1.391 . S
C965 H953 0.950 . S
C965 C961 1.375 1_565 S
C965 C964 1.391 . S
C966 H956 0.950 . S
C966 C967 1.393 . S
C966 C968 1.391 . S
C967 C966 1.393 . S
C967 C971 1.386 1_565 S
C968 H957 0.950 . S
C968 C966 1.391 . S
C968 C969 1.401 . S
C969 C963 1.490 1_565 S
C969 C968 1.401 . S
C969 C970 1.398 1_565 S
C970 H958 0.950 . S
C970 C969 1.398 1_545 S
C970 C971 1.391 . S
C971 H959 0.950 . S
C971 C967 1.386 1_545 S
C971 C970 1.391 . S
H972 C980 0.950 . S
H973 C985 0.950 . S
H974 C982 0.950 . S
H975 C984 0.950 . S
H976 C986 0.950 . S
H977 C988 0.950 . S
H978 C990 0.950 . S
H979 C991 0.950 . S
C980 H972 0.950 . S
C980 C981 1.386 . S
C980 C982 1.391 . S
C981 C980 1.386 . S
C981 C985 1.393 1_455 S
C982 H974 0.950 . S
C982 C980 1.391 . S
C982 C983 1.400 . S
C983 C982 1.400 . S
C983 C984 1.398 1_455 S
C983 C989 1.491 . S
C984 H975 0.950 . S
C984 C983 1.398 1_655 S
C984 C985 1.391 . S
C985 H973 0.950 . S
C985 C981 1.393 1_655 S
C985 C984 1.391 . S
C986 H976 0.950 . S
C986 C987 1.386 1_655 S
C986 C988 1.391 . S
C987 C986 1.386 1_455 S
C987 C991 1.393 . S
C988 H977 0.950 . S
C988 C986 1.391 . S
C988 C989 1.400 1_655 S
C989 C983 1.491 . S
C989 C988 1.400 1_455 S
C989 C990 1.398 . S
C990 H978 0.950 . S
C990 C989 1.398 . S
C990 C991 1.391 . S
C991 H979 0.950 . S
C991 C987 1.393 . S
C991 C990 1.391 . S
H992 C1000 0.950 . S
H993 C1005 0.950 . S
H994 C1002 0.950 . S
H995 C1004 0.950 . S
H996 C1006 0.950 . S
H997 C1008 0.950 . S
H998 C1010 0.950 . S
H999 C1011 0.950 . S
C1000 H992 0.950 . S
C1000 C1001 1.401 . S
C1000 C1002 1.391 . S
C1001 C1000 1.401 . S
C1001 C1005 1.379 1_545 S
C1002 H994 0.950 . S
C1002 C1000 1.391 . S
C1002 C1003 1.410 . S
C1003 C1002 1.410 . S
C1003 C1004 1.390 1_545 S
C1003 C1009 1.490 1_545 S
C1004 H995 0.950 . S
C1004 C1003 1.390 1_565 S
C1004 C1005 1.391 . S
C1005 H993 0.950 . S
C1005 C1001 1.379 1_565 S
C1005 C1004 1.391 . S
C1006 H996 0.950 . S
C1006 C1007 1.393 . S
C1006 C1008 1.391 . S
C1007 C1006 1.393 . S
C1007 C1011 1.386 1_565 S
C1008 H997 0.950 . S
C1008 C1006 1.391 . S
C1008 C1009 1.402 . S
C1009 C1003 1.490 1_565 S
C1009 C1008 1.402 . S
C1009 C1010 1.397 1_565 S
C1010 H998 0.950 . S
C1010 C1009 1.397 1_545 S
C1010 C1011 1.391 . S
C1011 H999 0.950 . S
C1011 C1007 1.386 1_545 S
C1011 C1010 1.391 . S
H1012 C1020 0.950 . S
H1013 C1025 0.950 . S
H1014 C1022 0.950 . S
H1015 C1024 0.950 . S
H1016 C1026 0.950 . S
H1017 C1028 0.950 . S
H1018 C1030 0.950 . S
H1019 C1031 0.950 . S
C1020 H1012 0.950 . S
C1020 C1021 1.386 1_655 S
C1020 C1022 1.391 . S
C1021 C1020 1.386 1_455 S
C1021 C1025 1.393 . S
C1022 H1014 0.950 . S
C1022 C1020 1.391 . S
C1022 C1023 1.400 1_655 S
C1023 C1022 1.400 1_455 S
C1023 C1024 1.398 . S
C1023 C1029 1.491 . S
C1024 H1015 0.950 . S
C1024 C1023 1.398 . S
C1024 C1025 1.391 . S
C1025 H1013 0.950 . S
C1025 C1021 1.393 . S
C1025 C1024 1.391 . S
C1026 H1016 0.950 . S
C1026 C1027 1.386 . S
C1026 C1028 1.391 . S
C1027 C1026 1.386 . S
C1027 C1031 1.393 1_455 S
C1028 H1017 0.950 . S
C1028 C1026 1.391 . S
C1028 C1029 1.400 . S
C1029 C1023 1.491 . S
C1029 C1028 1.400 . S
C1029 C1030 1.398 1_455 S
C1030 H1018 0.950 . S
C1030 C1029 1.398 1_655 S
C1030 C1031 1.391 . S
C1031 H1019 0.950 . S
C1031 C1027 1.393 1_655 S
C1031 C1030 1.391 . S
H1032 C1040 0.950 . S
H1033 C1045 0.950 . S
H1034 C1042 0.950 . S
H1035 C1044 0.950 . S
H1036 C1046 0.950 . S
H1037 C1048 0.950 . S
H1038 C1050 0.950 . S
H1039 C1051 0.950 . S
C1040 H1032 0.950 . S
C1040 C1041 1.386 1_565 S
C1040 C1042 1.391 . S
C1041 C1040 1.386 1_545 S
C1041 C1045 1.393 . S
C1042 H1034 0.950 . S
C1042 C1040 1.391 . S
C1042 C1043 1.385 1_565 S
C1043 C1042 1.385 1_545 S
C1043 C1044 1.417 . S
C1043 C1049 1.490 1_545 S
C1044 H1035 0.950 . S
C1044 C1043 1.417 . S
C1044 C1045 1.391 . S
C1045 H1033 0.950 . S
C1045 C1041 1.393 . S
C1045 C1044 1.391 . S
C1046 H1036 0.950 . S
C1046 C1047 1.377 1_545 S
C1046 C1048 1.391 . S
C1047 C1046 1.377 1_565 S
C1047 C1051 1.402 . S
C1048 H1037 0.950 . S
C1048 C1046 1.391 . S
C1048 C1049 1.402 1_545 S
C1049 C1043 1.490 1_565 S
C1049 C1048 1.402 1_565 S
C1049 C1050 1.397 . S
C1050 H1038 0.950 . S
C1050 C1049 1.397 . S
C1050 C1051 1.391 . S
C1051 H1039 0.950 . S
C1051 C1047 1.402 . S
C1051 C1050 1.391 . S
H1052 C1060 0.950 . S
H1053 C1065 0.950 . S
H1054 C1062 0.950 . S
H1055 C1064 0.950 . S
H1056 C1066 0.950 . S
H1057 C1068 0.950 . S
H1058 C1070 0.950 . S
H1059 C1071 0.950 . S
C1060 H1052 0.950 . S
C1060 C1061 1.386 1_655 S
C1060 C1062 1.391 . S
C1061 C1060 1.386 1_455 S
C1061 C1065 1.393 . S
C1062 H1054 0.950 . S
C1062 C1060 1.391 . S
C1062 C1063 1.400 1_655 S
C1063 C1062 1.400 1_455 S
C1063 C1064 1.398 . S
C1063 C1069 1.491 . S
C1064 H1055 0.950 . S
C1064 C1063 1.398 . S
C1064 C1065 1.391 . S
C1065 H1053 0.950 . S
C1065 C1061 1.393 . S
C1065 C1064 1.391 . S
C1066 H1056 0.950 . S
C1066 C1067 1.386 . S
C1066 C1068 1.391 . S
C1067 C1066 1.386 . S
C1067 C1071 1.393 1_455 S
C1068 H1057 0.950 . S
C1068 C1066 1.391 . S
C1068 C1069 1.400 . S
C1069 C1063 1.491 . S
C1069 C1068 1.400 . S
C1069 C1070 1.398 1_455 S
C1070 H1058 0.950 . S
C1070 C1069 1.398 1_655 S
C1070 C1071 1.391 . S
C1071 H1059 0.950 . S
C1071 C1067 1.393 1_655 S
C1071 C1070 1.391 . S
H1072 C1080 0.950 . S
H1073 C1085 0.950 . S
H1074 C1082 0.950 . S
H1075 C1084 0.950 . S
H1076 C1086 0.950 . S
H1077 C1088 0.950 . S
H1078 C1090 0.950 . S
H1079 C1091 0.950 . S
C1080 H1072 0.950 . S
C1080 C1081 1.386 . S
C1080 C1082 1.391 . S
C1081 C1080 1.386 . S
C1081 C1085 1.393 1_545 S
C1082 H1074 0.950 . S
C1082 C1080 1.391 . S
C1082 C1083 1.424 . S
C1083 C1082 1.424 . S
C1083 C1084 1.376 1_545 S
C1083 C1089 1.490 . S
C1084 H1075 0.950 . S
C1084 C1083 1.376 1_565 S
C1084 C1085 1.391 . S
C1085 H1073 0.950 . S
C1085 C1081 1.393 1_565 S
C1085 C1084 1.391 . S
C1086 H1076 0.950 . S
C1086 C1087 1.384 . S
C1086 C1088 1.391 . S
C1087 C1086 1.384 . S
C1087 C1091 1.395 1_565 S
C1088 H1077 0.950 . S
C1088 C1086 1.391 . S
C1088 C1089 1.395 1_565 S
C1089 C1083 1.490 . S
C1089 C1088 1.395 1_545 S
C1089 C1090 1.403 . S
C1090 H1078 0.950 . S
C1090 C1089 1.403 . S
C1090 C1091 1.391 . S
C1091 H1079 0.950 . S
C1091 C1087 1.395 1_545 S
C1091 C1090 1.391 . S
H1092 C1100 0.950 . S
H1093 C1105 0.950 . S
H1094 C1102 0.950 . S
H1095 C1104 0.950 . S
H1096 C1106 0.950 . S
H1097 C1108 0.950 . S
H1098 C1110 0.950 . S
H1099 C1111 0.950 . S
C1100 H1092 0.950 . S
C1100 C1101 1.386 1_655 S
C1100 C1102 1.391 . S
C1101 C1100 1.386 1_455 S
C1101 C1105 1.393 . S
C1102 H1094 0.950 . S
C1102 C1100 1.391 . S
C1102 C1103 1.400 1_655 S
C1103 C1102 1.400 1_455 S
C1103 C1104 1.398 . S
C1103 C1109 1.491 . S
C1104 H1095 0.950 . S
C1104 C1103 1.398 . S
C1104 C1105 1.391 . S
C1105 H1093 0.950 . S
C1105 C1101 1.393 . S
C1105 C1104 1.391 . S
C1106 H1096 0.950 . S
C1106 C1107 1.386 . S
C1106 C1108 1.391 . S
C1107 C1106 1.386 . S
C1107 C1111 1.393 1_455 S
C1108 H1097 0.950 . S
C1108 C1106 1.391 . S
C1108 C1109 1.400 . S
C1109 C1103 1.491 . S
C1109 C1108 1.400 . S
C1109 C1110 1.398 1_455 S
C1110 H1098 0.950 . S
C1110 C1109 1.398 1_655 S
C1110 C1111 1.391 . S
C1111 H1099 0.950 . S
C1111 C1107 1.393 1_655 S
C1111 C1110 1.391 . S
H1112 C1120 0.950 . S
H1113 C1125 0.950 . S
H1114 C1122 0.950 . S
H1115 C1124 0.950 . S
H1116 C1126 0.950 . S
H1117 C1128 0.950 . S
H1118 C1130 0.950 . S
H1119 C1131 0.950 . S
C1120 H1112 0.950 . S
C1120 C1121 1.385 . S
C1120 C1122 1.391 . S
C1121 C1120 1.385 . S
C1121 C1125 1.394 1_565 S
C1122 H1114 0.950 . S
C1122 C1120 1.391 . S
C1122 C1123 1.399 1_565 S
C1123 C1122 1.399 1_545 S
C1123 C1124 1.400 . S
C1123 C1129 1.490 . S
C1124 H1115 0.950 . S
C1124 C1123 1.400 . S
C1124 C1125 1.391 . S
C1125 H1113 0.950 . S
C1125 C1121 1.394 1_545 S
C1125 C1124 1.391 . S
C1126 H1116 0.950 . S
C1126 C1127 1.386 . S
C1126 C1128 1.391 . S
C1127 C1126 1.386 . S
C1127 C1131 1.393 1_545 S
C1128 H1117 0.950 . S
C1128 C1126 1.391 . S
C1128 C1129 1.420 . S
C1129 C1123 1.490 . S
C1129 C1128 1.420 . S
C1129 C1130 1.380 1_545 S
C1130 H1118 0.950 . S
C1130 C1129 1.380 1_565 S
C1130 C1131 1.391 . S
C1131 H1119 0.950 . S
C1131 C1127 1.393 1_565 S
C1131 C1130 1.391 . S
H1132 C1140 0.950 . S
H1133 C1145 0.950 1_655 S
H1134 C1142 0.950 . S
H1135 C1144 0.950 1_655 S
H1136 C1146 0.950 . S
H1137 C1148 0.950 . S
H1138 C1150 0.950 . S
H1139 C1151 0.950 . S
C1140 H1132 0.950 . S
C1140 C1141 1.386 . S
C1140 C1142 1.391 . S
C1141 C1140 1.386 . S
C1141 C1145 1.393 . S
C1142 H1134 0.950 . S
C1142 C1140 1.391 . S
C1142 C1143 1.400 . S
C1143 C1142 1.400 . S
C1143 C1144 1.398 . S
C1143 C1149 1.491 . S
C1144 H1135 0.950 1_455 S
C1144 C1143 1.398 . S
C1144 C1145 1.391 . S
C1145 H1133 0.950 1_455 S
C1145 C1141 1.393 . S
C1145 C1144 1.391 . S
C1146 H1136 0.950 . S
C1146 C1147 1.386 1_655 S
C1146 C1148 1.391 . S
C1147 C1146 1.386 1_455 S
C1147 C1151 1.393 . S
C1148 H1137 0.950 . S
C1148 C1146 1.391 . S
C1148 C1149 1.400 1_655 S
C1149 C1143 1.491 . S
C1149 C1148 1.400 1_455 S
C1149 C1150 1.398 . S
C1150 H1138 0.950 . S
C1150 C1149 1.398 . S
C1150 C1151 1.391 . S
C1151 H1139 0.950 . S
C1151 C1147 1.393 . S
C1151 C1150 1.391 . S
H1152 C1160 0.950 . S
H1153 C1165 0.950 . S
H1154 C1162 0.950 . S
H1155 C1164 0.950 . S
H1156 C1166 0.950 . S
H1157 C1168 0.950 . S
H1158 C1170 0.950 . S
H1159 C1171 0.950 . S
C1160 H1152 0.950 . S
C1160 C1161 1.366 1_565 S
C1160 C1162 1.391 . S
C1161 C1160 1.366 1_545 S
C1161 C1165 1.412 . S
C1162 H1154 0.950 . S
C1162 C1160 1.391 . S
C1162 C1163 1.385 1_565 S
C1163 C1162 1.385 1_545 S
C1163 C1164 1.414 . S
C1163 C1169 1.491 . S
C1164 H1155 0.950 . S
C1164 C1163 1.414 . S
C1164 C1165 1.391 . S
C1165 H1153 0.950 . S
C1165 C1161 1.412 . S
C1165 C1164 1.391 . S
C1166 H1156 0.950 . S
C1166 C1167 1.400 . S
C1166 C1168 1.391 . S
C1167 C1166 1.400 . S
C1167 C1171 1.379 1_545 S
C1168 H1157 0.950 . S
C1168 C1166 1.391 . S
C1168 C1169 1.417 . S
C1169 C1163 1.491 . S
C1169 C1168 1.417 . S
C1169 C1170 1.381 1_545 S
C1170 H1158 0.950 . S
C1170 C1169 1.381 1_565 S
C1170 C1171 1.391 . S
C1171 H1159 0.950 . S
C1171 C1167 1.379 1_565 S
C1171 C1170 1.391 . S
H1172 C1180 0.950 . S
H1173 C1185 0.950 . S
H1174 C1182 0.950 . S
H1175 C1184 0.950 . S
H1176 C1186 0.950 . S
H1177 C1188 0.950 . S
H1178 C1190 0.950 . S
H1179 C1191 0.950 . S
C1180 H1172 0.950 . S
C1180 C1181 1.386 1_655 S
C1180 C1182 1.391 . S
C1181 C1180 1.386 1_455 S
C1181 C1185 1.393 . S
C1182 H1174 0.950 . S
C1182 C1180 1.391 . S
C1182 C1183 1.400 1_655 S
C1183 C1182 1.400 1_455 S
C1183 C1184 1.398 . S
C1183 C1189 1.491 . S
C1184 H1175 0.950 . S
C1184 C1183 1.398 . S
C1184 C1185 1.391 . S
C1185 H1173 0.950 . S
C1185 C1181 1.393 . S
C1185 C1184 1.391 . S
C1186 H1176 0.950 . S
C1186 C1187 1.386 . S
C1186 C1188 1.391 . S
C1187 C1186 1.386 . S
C1187 C1191 1.393 1_455 S
C1188 H1177 0.950 . S
C1188 C1186 1.391 . S
C1188 C1189 1.400 . S
C1189 C1183 1.491 . S
C1189 C1188 1.400 . S
C1189 C1190 1.398 1_455 S
C1190 H1178 0.950 . S
C1190 C1189 1.398 1_655 S
C1190 C1191 1.391 . S
C1191 H1179 0.950 . S
C1191 C1187 1.393 1_655 S
C1191 C1190 1.391 . S
H1192 C1200 0.950 . S
H1193 C1205 0.950 . S
H1194 C1202 0.950 . S
H1195 C1204 0.950 . S
H1196 C1206 0.950 . S
H1197 C1208 0.950 . S
H1198 C1210 0.950 . S
H1199 C1211 0.950 . S
C1200 H1192 0.950 . S
C1200 C1201 1.384 1_545 S
C1200 C1202 1.391 . S
C1201 C1200 1.384 1_565 S
C1201 C1205 1.395 . S
C1202 H1194 0.950 . S
C1202 C1200 1.391 . S
C1202 C1203 1.398 . S
C1203 C1202 1.398 . S
C1203 C1204 1.401 1_545 S
C1203 C1209 1.491 . S
C1204 H1195 0.950 . S
C1204 C1203 1.401 1_565 S
C1204 C1205 1.391 . S
C1205 H1193 0.950 . S
C1205 C1201 1.395 . S
C1205 C1204 1.391 . S
C1206 H1196 0.950 . S
C1206 C1207 1.373 1_565 S
C1206 C1208 1.391 . S
C1207 C1206 1.373 1_545 S
C1207 C1211 1.406 . S
C1208 H1197 0.950 . S
C1208 C1206 1.391 . S
C1208 C1209 1.395 1_565 S
C1209 C1203 1.491 . S
C1209 C1208 1.395 1_545 S
C1209 C1210 1.403 . S
C1210 H1198 0.950 . S
C1210 C1209 1.403 . S
C1210 C1211 1.391 . S
C1211 H1199 0.950 . S
C1211 C1207 1.406 . S
C1211 C1210 1.391 . S
H1212 C1220 0.950 . S
H1213 C1225 0.950 . S
H1214 C1222 0.950 . S
H1215 C1224 0.950 . S
H1216 C1226 0.950 . S
H1217 C1228 0.950 . S
H1218 C1230 0.950 . S
H1219 C1231 0.950 . S
C1220 H1212 0.950 . S
C1220 C1221 1.386 . S
C1220 C1222 1.391 . S
C1221 C1220 1.386 . S
C1221 C1225 1.393 1_455 S
C1222 H1214 0.950 . S
C1222 C1220 1.391 . S
C1222 C1223 1.400 . S
C1223 C1222 1.400 . S
C1223 C1224 1.398 1_455 S
C1223 C1229 1.491 . S
C1224 H1215 0.950 . S
C1224 C1223 1.398 1_655 S
C1224 C1225 1.391 . S
C1225 H1213 0.950 . S
C1225 C1221 1.393 1_655 S
C1225 C1224 1.391 . S
C1226 H1216 0.950 . S
C1226 C1227 1.386 1_655 S
C1226 C1228 1.391 . S
C1227 C1226 1.386 1_455 S
C1227 C1231 1.393 . S
C1228 H1217 0.950 . S
C1228 C1226 1.391 . S
C1228 C1229 1.400 1_655 S
C1229 C1223 1.491 . S
C1229 C1228 1.400 1_455 S
C1229 C1230 1.398 . S
C1230 H1218 0.950 . S
C1230 C1229 1.398 . S
C1230 C1231 1.391 . S
C1231 H1219 0.950 . S
C1231 C1227 1.393 . S
C1231 C1230 1.391 . S
H1232 C1240 0.950 . S
H1233 C1245 0.950 . S
H1234 C1242 0.950 . S
H1235 C1244 0.950 . S
H1236 C1246 0.950 . S
H1237 C1248 0.950 . S
H1238 C1250 0.950 . S
H1239 C1251 0.950 . S
C1240 H1232 0.950 . S
C1240 C1241 1.389 . S
C1240 C1242 1.391 . S
C1241 C1240 1.389 . S
C1241 C1245 1.390 1_545 S
C1242 H1234 0.950 . S
C1242 C1240 1.391 . S
C1242 C1243 1.404 . S
C1243 C1242 1.404 . S
C1243 C1244 1.394 1_545 S
C1243 C1249 1.491 . S
C1244 H1235 0.950 . S
C1244 C1243 1.394 1_565 S
C1244 C1245 1.391 . S
C1245 H1233 0.950 . S
C1245 C1241 1.390 1_565 S
C1245 C1244 1.391 . S
C1246 H1236 0.950 . S
C1246 C1247 1.386 1_565 S
C1246 C1248 1.391 . S
C1247 C1246 1.386 1_545 S
C1247 C1251 1.392 . S
C1248 H1237 0.950 . S
C1248 C1246 1.391 . S
C1248 C1249 1.402 1_565 S
C1249 C1243 1.491 . S
C1249 C1248 1.402 1_545 S
C1249 C1250 1.397 . S
C1250 H1238 0.950 . S
C1250 C1249 1.397 . S
C1250 C1251 1.391 . S
C1251 H1239 0.950 . S
C1251 C1247 1.392 . S
C1251 C1250 1.391 . S
H1252 C1260 0.950 . S
H1253 C1265 0.950 . S
H1254 C1262 0.950 . S
H1255 C1264 0.950 . S
H1256 C1266 0.950 . S
H1257 C1268 0.950 . S
H1258 C1270 0.950 . S
H1259 C1271 0.950 . S
C1260 H1252 0.950 . S
C1260 C1261 1.386 . S
C1260 C1262 1.391 . S
C1261 C1260 1.386 . S
C1261 C1265 1.393 1_545 S
C1262 H1254 0.950 . S
C1262 C1260 1.391 . S
C1262 C1263 1.425 . S
C1263 C1262 1.425 . S
C1263 C1264 1.375 1_545 S
C1263 C1269 1.490 . S
C1264 H1255 0.950 . S
C1264 C1263 1.375 1_565 S
C1264 C1265 1.391 . S
C1265 H1253 0.950 . S
C1265 C1261 1.393 1_565 S
C1265 C1264 1.391 . S
C1266 H1256 0.950 . S
C1266 C1267 1.383 . S
C1266 C1268 1.391 . S
C1267 C1266 1.383 . S
C1267 C1271 1.395 1_565 S
C1268 H1257 0.950 . S
C1268 C1266 1.391 . S
C1268 C1269 1.395 1_565 S
C1269 C1263 1.490 . S
C1269 C1268 1.395 1_545 S
C1269 C1270 1.403 . S
C1270 H1258 0.950 . S
C1270 C1269 1.403 . S
C1270 C1271 1.391 . S
C1271 H1259 0.950 . S
C1271 C1267 1.395 1_545 S
C1271 C1270 1.391 . S
H1272 C1280 0.950 . S
H1273 C1285 0.950 . S
H1274 C1282 0.950 . S
H1275 C1284 0.950 . S
H1276 C1286 0.950 . S
H1277 C1288 0.950 . S
H1278 C1290 0.950 . S
H1279 C1291 0.950 . S
C1280 H1272 0.950 . S
C1280 C1281 1.386 1_655 S
C1280 C1282 1.391 . S
C1281 C1280 1.386 1_455 S
C1281 C1285 1.393 . S
C1282 H1274 0.950 . S
C1282 C1280 1.391 . S
C1282 C1283 1.400 1_655 S
C1283 C1282 1.400 1_455 S
C1283 C1284 1.398 . S
C1283 C1289 1.491 . S
C1284 H1275 0.950 . S
C1284 C1283 1.398 . S
C1284 C1285 1.391 . S
C1285 H1273 0.950 . S
C1285 C1281 1.393 . S
C1285 C1284 1.391 . S
C1286 H1276 0.950 . S
C1286 C1287 1.386 . S
C1286 C1288 1.391 . S
C1287 C1286 1.386 . S
C1287 C1291 1.393 1_455 S
C1288 H1277 0.950 . S
C1288 C1286 1.391 . S
C1288 C1289 1.400 . S
C1289 C1283 1.491 . S
C1289 C1288 1.400 . S
C1289 C1290 1.398 1_455 S
C1290 H1278 0.950 . S
C1290 C1289 1.398 1_655 S
C1290 C1291 1.391 . S
C1291 H1279 0.950 . S
C1291 C1287 1.393 1_655 S
C1291 C1290 1.391 . S
H1292 C1300 0.950 . S
H1293 C1305 0.950 . S
H1294 C1302 0.950 . S
H1295 C1304 0.950 . S
H1296 C1306 0.950 . S
H1297 C1308 0.950 . S
H1298 C1310 0.950 . S
H1299 C1311 0.950 . S
C1300 H1292 0.950 . S
C1300 C1301 1.386 . S
C1300 C1302 1.391 . S
C1301 C1300 1.386 . S
C1301 C1305 1.393 1_545 S
C1302 H1294 0.950 . S
C1302 C1300 1.391 . S
C1302 C1303 1.419 . S
C1303 C1302 1.419 . S
C1303 C1304 1.381 1_545 S
C1303 C1309 1.490 . S
C1304 H1295 0.950 . S
C1304 C1303 1.381 1_565 S
C1304 C1305 1.391 . S
C1305 H1293 0.950 . S
C1305 C1301 1.393 1_565 S
C1305 C1304 1.391 . S
C1306 H1296 0.950 . S
C1306 C1307 1.392 . S
C1306 C1308 1.391 . S
C1307 C1306 1.392 . S
C1307 C1311 1.387 1_565 S
C1308 H1297 0.950 . S
C1308 C1306 1.391 . S
C1308 C1309 1.401 1_565 S
C1309 C1303 1.490 . S
C1309 C1308 1.401 1_545 S
C1309 C1310 1.398 . S
C1310 H1298 0.950 . S
C1310 C1309 1.398 . S
C1310 C1311 1.391 . S
C1311 H1299 0.950 . S
C1311 C1307 1.387 1_545 S
C1311 C1310 1.391 . S
H1312 C1320 0.950 . S
H1313 C1325 0.950 . S
H1314 C1322 0.950 . S
H1315 C1324 0.950 . S
H1316 C1326 0.950 . S
H1317 C1328 0.950 . S
H1318 C1330 0.950 . S
H1319 C1331 0.950 . S
C1320 H1312 0.950 . S
C1320 C1321 1.386 1_655 S
C1320 C1322 1.391 . S
C1321 C1320 1.386 1_455 S
C1321 C1325 1.393 . S
C1322 H1314 0.950 . S
C1322 C1320 1.391 . S
C1322 C1323 1.400 1_655 S
C1323 C1322 1.400 1_455 S
C1323 C1324 1.398 . S
C1323 C1329 1.491 . S
C1324 H1315 0.950 . S
C1324 C1323 1.398 . S
C1324 C1325 1.391 . S
C1325 H1313 0.950 . S
C1325 C1321 1.393 . S
C1325 C1324 1.391 . S
C1326 H1316 0.950 . S
C1326 C1327 1.386 . S
C1326 C1328 1.391 . S
C1327 C1326 1.386 . S
C1327 C1331 1.393 1_455 S
C1328 H1317 0.950 . S
C1328 C1326 1.391 . S
C1328 C1329 1.400 . S
C1329 C1323 1.491 . S
C1329 C1328 1.400 . S
C1329 C1330 1.398 1_455 S
C1330 H1318 0.950 . S
C1330 C1329 1.398 1_655 S
C1330 C1331 1.391 . S
C1331 H1319 0.950 . S
C1331 C1327 1.393 1_655 S
C1331 C1330 1.391 . S
H1332 C1340 0.950 . S
H1333 C1345 0.950 . S
H1334 C1342 0.950 . S
H1335 C1344 0.950 . S
H1336 C1346 0.950 . S
H1337 C1348 0.950 . S
H1338 C1350 0.950 . S
H1339 C1351 0.950 . S
C1340 H1332 0.950 . S
C1340 C1341 1.398 . S
C1340 C1342 1.391 . S
C1341 C1340 1.398 . S
C1341 C1345 1.381 1_565 S
C1342 H1334 0.950 . S
C1342 C1340 1.391 . S
C1342 C1343 1.402 . S
C1343 C1342 1.402 . S
C1343 C1344 1.397 1_565 S
C1343 C1349 1.490 1_565 S
C1344 H1335 0.950 . S
C1344 C1343 1.397 1_545 S
C1344 C1345 1.391 . S
C1345 H1333 0.950 . S
C1345 C1341 1.381 1_545 S
C1345 C1344 1.391 . S
C1346 H1336 0.950 . S
C1346 C1347 1.410 . S
C1346 C1348 1.391 . S
C1347 C1346 1.410 . S
C1347 C1351 1.370 1_545 S
C1348 H1337 0.950 . S
C1348 C1346 1.391 . S
C1348 C1349 1.414 . S
C1349 C1343 1.490 1_545 S
C1349 C1348 1.414 . S
C1349 C1350 1.386 1_545 S
C1350 H1338 0.950 . S
C1350 C1349 1.386 1_565 S
C1350 C1351 1.391 . S
C1351 H1339 0.950 . S
C1351 C1347 1.370 1_565 S
C1351 C1350 1.391 . S
H1352 C1360 0.950 . S
H1353 C1365 0.950 . S
H1354 C1362 0.950 . S
H1355 C1364 0.950 . S
H1356 C1366 0.950 . S
H1357 C1368 0.950 . S
H1358 C1370 0.950 . S
H1359 C1371 0.950 . S
C1360 H1352 0.950 . S
C1360 C1361 1.386 . S
C1360 C1362 1.391 . S
C1361 C1360 1.386 . S
C1361 C1365 1.393 1_455 S
C1362 H1354 0.950 . S
C1362 C1360 1.391 . S
C1362 C1363 1.400 . S
C1363 C1362 1.400 . S
C1363 C1364 1.398 1_455 S
C1363 C1369 1.491 . S
C1364 H1355 0.950 . S
C1364 C1363 1.398 1_655 S
C1364 C1365 1.391 . S
C1365 H1353 0.950 . S
C1365 C1361 1.393 1_655 S
C1365 C1364 1.391 . S
C1366 H1356 0.950 . S
C1366 C1367 1.386 1_655 S
C1366 C1368 1.391 . S
C1367 C1366 1.386 1_455 S
C1367 C1371 1.393 . S
C1368 H1357 0.950 . S
C1368 C1366 1.391 . S
C1368 C1369 1.400 1_655 S
C1369 C1363 1.491 . S
C1369 C1368 1.400 1_455 S
C1369 C1370 1.398 . S
C1370 H1358 0.950 . S
C1370 C1369 1.398 . S
C1370 C1371 1.391 . S
C1371 H1359 0.950 . S
C1371 C1367 1.393 . S
C1371 C1370 1.391 . S
H1372 C1380 0.950 . S
H1373 C1385 0.950 . S
H1374 C1382 0.950 . S
H1375 C1384 0.950 . S
H1376 C1386 0.950 . S
H1377 C1388 0.950 . S
H1378 C1390 0.950 . S
H1379 C1391 0.950 . S
C1380 H1372 0.950 . S
C1380 C1381 1.378 1_545 S
C1380 C1382 1.391 . S
C1381 C1380 1.378 1_565 S
C1381 C1385 1.403 . S
C1382 H1374 0.950 . S
C1382 C1380 1.391 . S
C1382 C1383 1.397 1_545 S
C1383 C1382 1.397 1_565 S
C1383 C1384 1.402 . S
C1383 C1389 1.490 1_565 S
C1384 H1375 0.950 . S
C1384 C1383 1.402 . S
C1384 C1385 1.391 . S
C1385 H1373 0.950 . S
C1385 C1381 1.403 . S
C1385 C1384 1.391 . S
C1386 H1376 0.950 . S
C1386 C1387 1.386 1_565 S
C1386 C1388 1.391 . S
C1387 C1386 1.386 1_545 S
C1387 C1391 1.393 . S
C1388 H1377 0.950 . S
C1388 C1386 1.391 . S
C1388 C1389 1.395 1_565 S
C1389 C1383 1.490 1_545 S
C1389 C1388 1.395 1_545 S
C1389 C1390 1.405 . S
C1390 H1378 0.950 . S
C1390 C1389 1.405 . S
C1390 C1391 1.391 . S
C1391 H1379 0.950 . S
C1391 C1387 1.393 . S
C1391 C1390 1.391 . S
H1392 C1400 0.950 . S
H1393 C1405 0.950 . S
H1394 C1402 0.950 . S
H1395 C1404 0.950 . S
H1396 C1406 0.950 . S
H1397 C1408 0.950 . S
H1398 C1410 0.950 . S
H1399 C1411 0.950 . S
C1400 H1392 0.950 . S
C1400 C1401 1.386 . S
C1400 C1402 1.391 . S
C1401 C1400 1.386 . S
C1401 C1405 1.393 . S
C1402 H1394 0.950 . S
C1402 C1400 1.391 . S
C1402 C1403 1.400 . S
C1403 C1402 1.400 . S
C1403 C1404 1.398 . S
C1403 C1409 1.491 . S
C1404 H1395 0.950 . S
C1404 C1403 1.398 . S
C1404 C1405 1.391 . S
C1405 H1393 0.950 . S
C1405 C1401 1.393 . S
C1405 C1404 1.391 . S
C1406 H1396 0.950 . S
C1406 C1407 1.386 . S
C1406 C1408 1.391 . S
C1407 C1406 1.386 . S
C1407 C1411 1.393 . S
C1408 H1397 0.950 . S
C1408 C1406 1.391 . S
C1408 C1409 1.400 . S
C1409 C1403 1.491 . S
C1409 C1408 1.400 . S
C1409 C1410 1.398 . S
C1410 H1398 0.950 . S
C1410 C1409 1.398 . S
C1410 C1411 1.391 . S
C1411 H1399 0.950 . S
C1411 C1407 1.393 . S
C1411 C1410 1.391 . S
H1412 C1420 0.950 . S
H1413 C1425 0.950 . S
H1414 C1422 0.950 . S
H1415 C1424 0.950 . S
H1416 C1426 0.950 . S
H1417 C1428 0.950 . S
H1418 C1430 0.950 . S
H1419 C1431 0.950 . S
C1420 H1412 0.950 . S
C1420 C1421 1.393 . S
C1420 C1422 1.391 . S
C1421 C1420 1.393 . S
C1421 C1425 1.385 1_556 S
C1422 H1414 0.950 . S
C1422 C1420 1.391 . S
C1422 C1423 1.400 . S
C1423 C1422 1.400 . S
C1423 C1424 1.399 1_556 S
C1423 C1429 1.490 1_556 S
C1424 H1415 0.950 . S
C1424 C1423 1.399 1_554 S
C1424 C1425 1.391 . S
C1425 H1413 0.950 . S
C1425 C1421 1.385 1_554 S
C1425 C1424 1.391 . S
C1426 H1416 0.950 . S
C1426 C1427 1.402 . S
C1426 C1428 1.391 . S
C1427 C1426 1.402 . S
C1427 C1431 1.377 1_554 S
C1428 H1417 0.950 . S
C1428 C1426 1.391 . S
C1428 C1429 1.408 . S
C1429 C1423 1.490 1_554 S
C1429 C1428 1.408 . S
C1429 C1430 1.390 1_554 S
C1430 H1418 0.950 . S
C1430 C1429 1.390 1_556 S
C1430 C1431 1.391 . S
C1431 H1419 0.950 . S
C1431 C1427 1.377 1_556 S
C1431 C1430 1.391 . S
H1432 C1440 0.950 . S
H1433 C1445 0.950 . S
H1434 C1442 0.950 . S
H1435 C1444 0.950 . S
H1436 C1446 0.950 . S
H1437 C1448 0.950 . S
H1438 C1450 0.950 . S
H1439 C1451 0.950 . S
C1440 H1432 0.950 . S
C1440 C1441 1.386 . S
C1440 C1442 1.391 . S
C1441 C1440 1.386 . S
C1441 C1445 1.393 1_554 S
C1442 H1434 0.950 . S
C1442 C1440 1.391 . S
C1442 C1443 1.412 . S
C1443 C1442 1.412 . S
C1443 C1444 1.389 1_554 S
C1443 C1449 1.490 1_554 S
C1444 H1435 0.950 . S
C1444 C1443 1.389 1_556 S
C1444 C1445 1.391 . S
C1445 H1433 0.950 . S
C1445 C1441 1.393 1_556 S
C1445 C1444 1.391 . S
C1446 H1436 0.950 . S
C1446 C1447 1.392 . S
C1446 C1448 1.391 . S
C1447 C1446 1.392 . S
C1447 C1451 1.387 1_556 S
C1448 H1437 0.950 . S
C1448 C1446 1.391 . S
C1448 C1449 1.399 . S
C1449 C1443 1.490 1_556 S
C1449 C1448 1.399 . S
C1449 C1450 1.399 1_556 S
C1450 H1438 0.950 . S
C1450 C1449 1.399 1_554 S
C1450 C1451 1.391 . S
C1451 H1439 0.950 . S
C1451 C1447 1.387 1_554 S
C1451 C1450 1.391 . S
H1452 C1460 0.950 . S
H1453 C1465 0.950 . S
H1454 C1462 0.950 . S
H1455 C1464 0.950 . S
H1456 C1466 0.950 . S
H1457 C1468 0.950 . S
H1458 C1470 0.950 . S
H1459 C1471 0.950 . S
C1460 H1452 0.950 . S
C1460 C1461 1.369 1_556 S
C1460 C1462 1.391 . S
C1461 C1460 1.369 1_554 S
C1461 C1465 1.411 . S
C1462 H1454 0.950 . S
C1462 C1460 1.391 . S
C1462 C1463 1.391 1_556 S
C1463 C1462 1.391 1_554 S
C1463 C1464 1.408 . S
C1463 C1469 1.490 1_554 S
C1464 H1455 0.950 . S
C1464 C1463 1.408 . S
C1464 C1465 1.391 . S
C1465 H1453 0.950 . S
C1465 C1461 1.411 . S
C1465 C1464 1.391 . S
C1466 H1456 0.950 . S
C1466 C1467 1.373 1_554 S
C1466 C1468 1.391 . S
C1467 C1466 1.373 1_556 S
C1467 C1471 1.407 . S
C1468 H1457 0.950 . S
C1468 C1466 1.391 . S
C1468 C1469 1.395 1_554 S
C1469 C1463 1.490 1_556 S
C1469 C1468 1.395 1_556 S
C1469 C1470 1.404 . S
C1470 H1458 0.950 . S
C1470 C1469 1.404 . S
C1470 C1471 1.391 . S
C1471 H1459 0.950 . S
C1471 C1467 1.407 . S
C1471 C1470 1.391 . S
H1472 C1480 0.950 . S
H1473 C1485 0.950 . S
H1474 C1482 0.950 . S
H1475 C1484 0.950 . S
H1476 C1486 0.950 . S
H1477 C1488 0.950 . S
H1478 C1490 0.950 . S
H1479 C1491 0.950 . S
C1480 H1472 0.950 . S
C1480 C1481 1.402 . S
C1480 C1482 1.391 . S
C1481 C1480 1.402 . S
C1481 C1485 1.377 1_554 S
C1482 H1474 0.950 . S
C1482 C1480 1.391 . S
C1482 C1483 1.410 . S
C1483 C1482 1.410 . S
C1483 C1484 1.389 1_554 S
C1483 C1489 1.490 1_554 S
C1484 H1475 0.950 . S
C1484 C1483 1.389 1_556 S
C1484 C1485 1.391 . S
C1485 H1473 0.950 . S
C1485 C1481 1.377 1_556 S
C1485 C1484 1.391 . S
C1486 H1476 0.950 . S
C1486 C1487 1.396 . S
C1486 C1488 1.391 . S
C1487 C1486 1.396 . S
C1487 C1491 1.383 1_556 S
C1488 H1477 0.950 . S
C1488 C1486 1.391 . S
C1488 C1489 1.404 . S
C1489 C1483 1.490 1_556 S
C1489 C1488 1.404 . S
C1489 C1490 1.395 1_556 S
C1490 H1478 0.950 . S
C1490 C1489 1.395 1_554 S
C1490 C1491 1.391 . S
C1491 H1479 0.950 . S
C1491 C1487 1.383 1_554 S
C1491 C1490 1.391 . S
H1492 C1500 0.950 . S
H1493 C1505 0.950 . S
H1494 C1502 0.950 . S
H1495 C1504 0.950 . S
H1496 C1506 0.950 . S
H1497 C1508 0.950 . S
H1498 C1510 0.950 . S
H1499 C1511 0.950 . S
C1500 H1492 0.950 . S
C1500 C1501 1.361 1_556 S
C1500 C1502 1.391 . S
C1501 C1500 1.361 1_554 S
C1501 C1505 1.418 . S
C1502 H1494 0.950 . S
C1502 C1500 1.391 . S
C1502 C1503 1.381 1_556 S
C1503 C1502 1.381 1_554 S
C1503 C1504 1.417 . S
C1503 C1509 1.491 . S
C1504 H1495 0.950 . S
C1504 C1503 1.417 . S
C1504 C1505 1.391 . S
C1505 H1493 0.950 . S
C1505 C1501 1.418 . S
C1505 C1504 1.391 . S
C1506 H1496 0.950 . S
C1506 C1507 1.394 . S
C1506 C1508 1.391 . S
C1507 C1506 1.394 . S
C1507 C1511 1.385 1_554 S
C1508 H1497 0.950 . S
C1508 C1506 1.391 . S
C1508 C1509 1.414 . S
C1509 C1503 1.491 . S
C1509 C1508 1.414 . S
C1509 C1510 1.385 1_554 S
C1510 H1498 0.950 . S
C1510 C1509 1.385 1_556 S
C1510 C1511 1.391 . S
C1511 H1499 0.950 . S
C1511 C1507 1.385 1_556 S
C1511 C1510 1.391 . S
H1512 C1520 0.950 . S
H1513 C1525 0.950 . S
H1514 C1522 0.950 . S
H1515 C1524 0.950 . S
H1516 C1526 0.950 . S
H1517 C1528 0.950 . S
H1518 C1530 0.950 . S
H1519 C1531 0.950 . S
C1520 H1512 0.950 . S
C1520 C1521 1.389 1_556 S
C1520 C1522 1.391 . S
C1521 C1520 1.389 1_554 S
C1521 C1525 1.390 . S
C1522 H1514 0.950 . S
C1522 C1520 1.391 . S
C1522 C1523 1.397 1_556 S
C1523 C1522 1.397 1_554 S
C1523 C1524 1.401 . S
C1523 C1529 1.490 . S
C1524 H1515 0.950 . S
C1524 C1523 1.401 . S
C1524 C1525 1.391 . S
C1525 H1513 0.950 . S
C1525 C1521 1.390 . S
C1525 C1524 1.391 . S
C1526 H1516 0.950 . S
C1526 C1527 1.413 . S
C1526 C1528 1.391 . S
C1527 C1526 1.413 . S
C1527 C1531 1.367 1_554 S
C1528 H1517 0.950 . S
C1528 C1526 1.391 . S
C1528 C1529 1.421 . S
C1529 C1523 1.490 . S
C1529 C1528 1.421 . S
C1529 C1530 1.379 1_554 S
C1530 H1518 0.950 . S
C1530 C1529 1.379 1_556 S
C1530 C1531 1.391 . S
C1531 H1519 0.950 . S
C1531 C1527 1.367 1_556 S
C1531 C1530 1.391 . S
H1532 C1540 0.950 . S
H1533 C1545 0.950 . S
H1534 C1542 0.950 . S
H1535 C1544 0.950 . S
H1536 C1546 0.950 . S
H1537 C1548 0.950 . S
H1538 C1550 0.950 . S
H1539 C1551 0.950 . S
C1540 H1532 0.950 . S
C1540 C1541 1.386 . S
C1540 C1542 1.391 . S
C1541 C1540 1.386 . S
C1541 C1545 1.393 1_554 S
C1542 H1534 0.950 . S
C1542 C1540 1.391 . S
C1542 C1543 1.421 . S
C1543 C1542 1.421 . S
C1543 C1544 1.379 1_554 S
C1543 C1549 1.490 . S
C1544 H1535 0.950 . S
C1544 C1543 1.379 1_556 S
C1544 C1545 1.391 . S
C1545 H1533 0.950 . S
C1545 C1541 1.393 1_556 S
C1545 C1544 1.391 . S
C1546 H1536 0.950 . S
C1546 C1547 1.391 . S
C1546 C1548 1.391 . S
C1547 C1546 1.391 . S
C1547 C1551 1.388 1_556 S
C1548 H1537 0.950 . S
C1548 C1546 1.391 . S
C1548 C1549 1.400 1_556 S
C1549 C1543 1.490 . S
C1549 C1548 1.400 1_554 S
C1549 C1550 1.398 . S
C1550 H1538 0.950 . S
C1550 C1549 1.398 . S
C1550 C1551 1.391 . S
C1551 H1539 0.950 . S
C1551 C1547 1.388 1_554 S
C1551 C1550 1.391 . S
H1552 C1560 0.950 . S
H1553 C1565 0.950 . S
H1554 C1562 0.950 . S
H1555 C1564 0.950 . S
H1556 C1566 0.950 . S
H1557 C1568 0.950 . S
H1558 C1570 0.950 . S
H1559 C1571 0.950 . S
C1560 H1552 0.950 . S
C1560 C1561 1.402 . S
C1560 C1562 1.391 . S
C1561 C1560 1.402 . S
C1561 C1565 1.377 1_554 S
C1562 H1554 0.950 . S
C1562 C1560 1.391 . S
C1562 C1563 1.410 . S
C1563 C1562 1.410 . S
C1563 C1564 1.389 1_554 S
C1563 C1569 1.490 1_554 S
C1564 H1555 0.950 . S
C1564 C1563 1.389 1_556 S
C1564 C1565 1.391 . S
C1565 H1553 0.950 . S
C1565 C1561 1.377 1_556 S
C1565 C1564 1.391 . S
C1566 H1556 0.950 . S
C1566 C1567 1.396 . S
C1566 C1568 1.391 . S
C1567 C1566 1.396 . S
C1567 C1571 1.383 1_556 S
C1568 H1557 0.950 . S
C1568 C1566 1.391 . S
C1568 C1569 1.404 . S
C1569 C1563 1.490 1_556 S
C1569 C1568 1.404 . S
C1569 C1570 1.395 1_556 S
C1570 H1558 0.950 . S
C1570 C1569 1.395 1_554 S
C1570 C1571 1.391 . S
C1571 H1559 0.950 . S
C1571 C1567 1.383 1_554 S
C1571 C1570 1.391 . S
H1572 C1580 0.950 . S
H1573 C1585 0.950 . S
H1574 C1582 0.950 . S
H1575 C1584 0.950 . S
H1576 C1586 0.950 . S
H1577 C1588 0.950 . S
H1578 C1590 0.950 . S
H1579 C1591 0.950 . S
C1580 H1572 0.950 . S
C1580 C1581 1.386 . S
C1580 C1582 1.391 . S
C1581 C1580 1.386 . S
C1581 C1585 1.393 . S
C1582 H1574 0.950 . S
C1582 C1580 1.391 . S
C1582 C1583 1.400 . S
C1583 C1582 1.400 . S
C1583 C1584 1.398 . S
C1583 C1589 1.491 . S
C1584 H1575 0.950 . S
C1584 C1583 1.398 . S
C1584 C1585 1.391 . S
C1585 H1573 0.950 . S
C1585 C1581 1.393 . S
C1585 C1584 1.391 . S
C1586 H1576 0.950 . S
C1586 C1587 1.386 . S
C1586 C1588 1.391 . S
C1587 C1586 1.386 . S
C1587 C1591 1.393 . S
C1588 H1577 0.950 . S
C1588 C1586 1.391 . S
C1588 C1589 1.400 . S
C1589 C1583 1.491 . S
C1589 C1588 1.400 . S
C1589 C1590 1.398 . S
C1590 H1578 0.950 . S
C1590 C1589 1.398 . S
C1590 C1591 1.391 . S
C1591 H1579 0.950 . S
C1591 C1587 1.393 . S
C1591 C1590 1.391 . S
H1592 C1600 0.950 . S
H1593 C1605 0.950 . S
H1594 C1602 0.950 . S
H1595 C1604 0.950 . S
H1596 C1606 0.950 . S
H1597 C1608 0.950 . S
H1598 C1610 0.950 . S
H1599 C1611 0.950 . S
C1600 H1592 0.950 . S
C1600 C1601 1.386 . S
C1600 C1602 1.391 . S
C1601 C1600 1.386 . S
C1601 C1605 1.393 . S
C1602 H1594 0.950 . S
C1602 C1600 1.391 . S
C1602 C1603 1.400 . S
C1603 C1602 1.400 . S
C1603 C1604 1.398 . S
C1603 C1609 1.491 . S
C1604 H1595 0.950 . S
C1604 C1603 1.398 . S
C1604 C1605 1.391 . S
C1605 H1593 0.950 . S
C1605 C1601 1.393 . S
C1605 C1604 1.391 . S
C1606 H1596 0.950 . S
C1606 C1607 1.386 . S
C1606 C1608 1.391 . S
C1607 C1606 1.386 . S
C1607 C1611 1.393 . S
C1608 H1597 0.950 . S
C1608 C1606 1.391 . S
C1608 C1609 1.400 . S
C1609 C1603 1.491 . S
C1609 C1608 1.400 . S
C1609 C1610 1.398 . S
C1610 H1598 0.950 . S
C1610 C1609 1.398 . S
C1610 C1611 1.391 . S
C1611 H1599 0.950 . S
C1611 C1607 1.393 . S
C1611 C1610 1.391 . S
H1612 C1620 0.950 . S
H1613 C1625 0.950 . S
H1614 C1622 0.950 . S
H1615 C1624 0.950 . S
H1616 C1626 0.950 . S
H1617 C1628 0.950 . S
H1618 C1630 0.950 . S
H1619 C1631 0.950 . S
C1620 H1612 0.950 . S
C1620 C1621 1.386 . S
C1620 C1622 1.391 . S
C1621 C1620 1.386 . S
C1621 C1625 1.393 . S
C1622 H1614 0.950 . S
C1622 C1620 1.391 . S
C1622 C1623 1.400 . S
C1623 C1622 1.400 . S
C1623 C1624 1.398 . S
C1623 C1629 1.491 . S
C1624 H1615 0.950 . S
C1624 C1623 1.398 . S
C1624 C1625 1.391 . S
C1625 H1613 0.950 . S
C1625 C1621 1.393 . S
C1625 C1624 1.391 . S
C1626 H1616 0.950 . S
C1626 C1627 1.386 . S
C1626 C1628 1.391 . S
C1627 C1626 1.386 . S
C1627 C1631 1.393 . S
C1628 H1617 0.950 . S
C1628 C1626 1.391 . S
C1628 C1629 1.400 . S
C1629 C1623 1.491 . S
C1629 C1628 1.400 . S
C1629 C1630 1.398 . S
C1630 H1618 0.950 . S
C1630 C1629 1.398 . S
C1630 C1631 1.391 . S
C1631 H1619 0.950 . S
C1631 C1627 1.393 . S
C1631 C1630 1.391 . S
H1632 C1640 0.950 . S
H1633 C1645 0.950 . S
H1634 C1642 0.950 . S
H1635 C1644 0.950 . S
H1636 C1646 0.950 . S
H1637 C1648 0.950 . S
H1638 C1650 0.950 . S
H1639 C1651 0.950 . S
C1640 H1632 0.950 . S
C1640 C1641 1.386 . S
C1640 C1642 1.391 . S
C1641 C1640 1.386 . S
C1641 C1645 1.393 . S
C1642 H1634 0.950 . S
C1642 C1640 1.391 . S
C1642 C1643 1.400 . S
C1643 C1642 1.400 . S
C1643 C1644 1.398 . S
C1643 C1649 1.491 . S
C1644 H1635 0.950 . S
C1644 C1643 1.398 . S
C1644 C1645 1.391 . S
C1645 H1633 0.950 . S
C1645 C1641 1.393 . S
C1645 C1644 1.391 . S
C1646 H1636 0.950 . S
C1646 C1647 1.386 . S
C1646 C1648 1.391 . S
C1647 C1646 1.386 . S
C1647 C1651 1.393 . S
C1648 H1637 0.950 . S
C1648 C1646 1.391 . S
C1648 C1649 1.400 . S
C1649 C1643 1.491 . S
C1649 C1648 1.400 . S
C1649 C1650 1.398 . S
C1650 H1638 0.950 . S
C1650 C1649 1.398 . S
C1650 C1651 1.391 . S
C1651 H1639 0.950 . S
C1651 C1647 1.393 . S
C1651 C1650 1.391 . S
H1652 C1660 0.950 . S
H1653 C1665 0.950 . S
H1654 C1662 0.950 . S
H1655 C1664 0.950 . S
H1656 C1666 0.950 . S
H1657 C1668 0.950 . S
H1658 C1670 0.950 . S
H1659 C1671 0.950 . S
C1660 H1652 0.950 . S
C1660 C1661 1.386 . S
C1660 C1662 1.391 . S
C1661 C1660 1.386 . S
C1661 C1665 1.393 . S
C1662 H1654 0.950 . S
C1662 C1660 1.391 . S
C1662 C1663 1.400 . S
C1663 C1662 1.400 . S
C1663 C1664 1.398 . S
C1663 C1669 1.491 . S
C1664 H1655 0.950 . S
C1664 C1663 1.398 . S
C1664 C1665 1.391 . S
C1665 H1653 0.950 . S
C1665 C1661 1.393 . S
C1665 C1664 1.391 . S
C1666 H1656 0.950 . S
C1666 C1667 1.386 . S
C1666 C1668 1.391 . S
C1667 C1666 1.386 . S
C1667 C1671 1.393 . S
C1668 H1657 0.950 . S
C1668 C1666 1.391 . S
C1668 C1669 1.400 . S
C1669 C1663 1.491 . S
C1669 C1668 1.400 . S
C1669 C1670 1.398 . S
C1670 H1658 0.950 . S
C1670 C1669 1.398 . S
C1670 C1671 1.391 . S
C1671 H1659 0.950 . S
C1671 C1667 1.393 . S
C1671 C1670 1.391 . S
H1672 C1680 0.950 . S
H1673 C1685 0.950 . S
H1674 C1682 0.950 . S
H1675 C1684 0.950 . S
H1676 C1686 0.950 . S
H1677 C1688 0.950 . S
H1678 C1690 0.950 . S
H1679 C1691 0.950 . S
C1680 H1672 0.950 . S
C1680 C1681 1.386 . S
C1680 C1682 1.391 . S
C1681 C1680 1.386 . S
C1681 C1685 1.393 . S
C1682 H1674 0.950 . S
C1682 C1680 1.391 . S
C1682 C1683 1.400 . S
C1683 C1682 1.400 . S
C1683 C1684 1.398 . S
C1683 C1689 1.491 . S
C1684 H1675 0.950 . S
C1684 C1683 1.398 . S
C1684 C1685 1.391 . S
C1685 H1673 0.950 . S
C1685 C1681 1.393 . S
C1685 C1684 1.391 . S
C1686 H1676 0.950 . S
C1686 C1687 1.386 . S
C1686 C1688 1.391 . S
C1687 C1686 1.386 . S
C1687 C1691 1.393 . S
C1688 H1677 0.950 . S
C1688 C1686 1.391 . S
C1688 C1689 1.400 . S
C1689 C1683 1.491 . S
C1689 C1688 1.400 . S
C1689 C1690 1.398 . S
C1690 H1678 0.950 . S
C1690 C1689 1.398 . S
C1690 C1691 1.391 . S
C1691 H1679 0.950 . S
C1691 C1687 1.393 . S
C1691 C1690 1.391 . S
H1692 C1700 0.950 . S
H1693 C1705 0.950 . S
H1694 C1702 0.950 . S
H1695 C1704 0.950 . S
H1696 C1706 0.950 . S
H1697 C1708 0.950 . S
H1698 C1710 0.950 . S
H1699 C1711 0.950 . S
C1700 H1692 0.950 . S
C1700 C1701 1.386 . S
C1700 C1702 1.391 . S
C1701 C1700 1.386 . S
C1701 C1705 1.393 . S
C1702 H1694 0.950 . S
C1702 C1700 1.391 . S
C1702 C1703 1.400 . S
C1703 C1702 1.400 . S
C1703 C1704 1.398 . S
C1703 C1709 1.491 . S
C1704 H1695 0.950 . S
C1704 C1703 1.398 . S
C1704 C1705 1.391 . S
C1705 H1693 0.950 . S
C1705 C1701 1.393 . S
C1705 C1704 1.391 . S
C1706 H1696 0.950 . S
C1706 C1707 1.386 . S
C1706 C1708 1.391 . S
C1707 C1706 1.386 . S
C1707 C1711 1.393 . S
C1708 H1697 0.950 . S
C1708 C1706 1.391 . S
C1708 C1709 1.400 . S
C1709 C1703 1.491 . S
C1709 C1708 1.400 . S
C1709 C1710 1.398 . S
C1710 H1698 0.950 . S
C1710 C1709 1.398 . S
C1710 C1711 1.391 . S
C1711 H1699 0.950 . S
C1711 C1707 1.393 . S
C1711 C1710 1.391 . S
H1712 C1720 0.950 . S
H1713 C1725 0.950 . S
H1714 C1722 0.950 . S
H1715 C1724 0.950 . S
H1716 C1726 0.950 . S
H1717 C1728 0.950 . S
H1718 C1730 0.950 . S
H1719 C1731 0.950 . S
C1720 H1712 0.950 . S
C1720 C1721 1.386 . S
C1720 C1722 1.391 . S
C1721 C1720 1.386 . S
C1721 C1725 1.393 . S
C1722 H1714 0.950 . S
C1722 C1720 1.391 . S
C1722 C1723 1.400 . S
C1723 C1722 1.400 . S
C1723 C1724 1.398 . S
C1723 C1729 1.491 . S
C1724 H1715 0.950 . S
C1724 C1723 1.398 . S
C1724 C1725 1.391 . S
C1725 H1713 0.950 . S
C1725 C1721 1.393 . S
C1725 C1724 1.391 . S
C1726 H1716 0.950 . S
C1726 C1727 1.386 . S
C1726 C1728 1.391 . S
C1727 C1726 1.386 . S
C1727 C1731 1.393 . S
C1728 H1717 0.950 . S
C1728 C1726 1.391 . S
C1728 C1729 1.400 . S
C1729 C1723 1.491 . S
C1729 C1728 1.400 . S
C1729 C1730 1.398 . S
C1730 H1718 0.950 . S
C1730 C1729 1.398 . S
C1730 C1731 1.391 . S
C1731 H1719 0.950 . S
C1731 C1727 1.393 . S
C1731 C1730 1.391 . S
H1732 C1740 0.950 . S
H1733 C1745 0.950 . S
H1734 C1742 0.950 . S
H1735 C1744 0.950 . S
H1736 C1746 0.950 . S
H1737 C1748 0.950 . S
H1738 C1750 0.950 . S
H1739 C1751 0.950 . S
C1740 H1732 0.950 . S
C1740 C1741 1.386 . S
C1740 C1742 1.391 . S
C1741 C1740 1.386 . S
C1741 C1745 1.393 . S
C1742 H1734 0.950 . S
C1742 C1740 1.391 . S
C1742 C1743 1.400 . S
C1743 C1742 1.400 . S
C1743 C1744 1.398 . S
C1743 C1749 1.491 . S
C1744 H1735 0.950 . S
C1744 C1743 1.398 . S
C1744 C1745 1.391 . S
C1745 H1733 0.950 . S
C1745 C1741 1.393 . S
C1745 C1744 1.391 . S
C1746 H1736 0.950 . S
C1746 C1747 1.386 . S
C1746 C1748 1.391 . S
C1747 C1746 1.386 . S
C1747 C1751 1.393 . S
C1748 H1737 0.950 . S
C1748 C1746 1.391 . S
C1748 C1749 1.400 . S
C1749 C1743 1.491 . S
C1749 C1748 1.400 . S
C1749 C1750 1.398 . S
C1750 H1738 0.950 . S
C1750 C1749 1.398 . S
C1750 C1751 1.391 . S
C1751 H1739 0.950 . S
C1751 C1747 1.393 . S
C1751 C1750 1.391 . S
H1752 C1760 0.950 . S
H1753 C1765 0.950 . S
H1754 C1762 0.950 . S
H1755 C1764 0.950 . S
H1756 C1766 0.950 . S
H1757 C1768 0.950 . S
H1758 C1770 0.950 . S
H1759 C1771 0.950 . S
C1760 H1752 0.950 . S
C1760 C1761 1.386 . S
C1760 C1762 1.391 . S
C1761 C1760 1.386 . S
C1761 C1765 1.393 . S
C1762 H1754 0.950 . S
C1762 C1760 1.391 . S
C1762 C1763 1.400 . S
C1763 C1762 1.400 . S
C1763 C1764 1.398 . S
C1763 C1769 1.491 . S
C1764 H1755 0.950 . S
C1764 C1763 1.398 . S
C1764 C1765 1.391 . S
C1765 H1753 0.950 . S
C1765 C1761 1.393 . S
C1765 C1764 1.391 . S
C1766 H1756 0.950 . S
C1766 C1767 1.386 . S
C1766 C1768 1.391 . S
C1767 C1766 1.386 . S
C1767 C1771 1.393 . S
C1768 H1757 0.950 . S
C1768 C1766 1.391 . S
C1768 C1769 1.400 . S
C1769 C1763 1.491 . S
C1769 C1768 1.400 . S
C1769 C1770 1.398 . S
C1770 H1758 0.950 . S
C1770 C1769 1.398 . S
C1770 C1771 1.391 . S
C1771 H1759 0.950 . S
C1771 C1767 1.393 . S
C1771 C1770 1.391 . S
H1772 C1780 0.950 . S
H1773 C1785 0.950 . S
H1774 C1782 0.950 . S
H1775 C1784 0.950 . S
H1776 C1786 0.950 . S
H1777 C1788 0.950 . S
H1778 C1790 0.950 . S
H1779 C1791 0.950 . S
C1780 H1772 0.950 . S
C1780 C1781 1.386 . S
C1780 C1782 1.391 . S
C1781 C1780 1.386 . S
C1781 C1785 1.393 . S
C1782 H1774 0.950 . S
C1782 C1780 1.391 . S
C1782 C1783 1.400 . S
C1783 C1782 1.400 . S
C1783 C1784 1.398 . S
C1783 C1789 1.491 . S
C1784 H1775 0.950 . S
C1784 C1783 1.398 . S
C1784 C1785 1.391 . S
C1785 H1773 0.950 . S
C1785 C1781 1.393 . S
C1785 C1784 1.391 . S
C1786 H1776 0.950 . S
C1786 C1787 1.386 . S
C1786 C1788 1.391 . S
C1787 C1786 1.386 . S
C1787 C1791 1.393 . S
C1788 H1777 0.950 . S
C1788 C1786 1.391 . S
C1788 C1789 1.400 . S
C1789 C1783 1.491 . S
C1789 C1788 1.400 . S
C1789 C1790 1.398 . S
C1790 H1778 0.950 . S
C1790 C1789 1.398 . S
C1790 C1791 1.391 . S
C1791 H1779 0.950 . S
C1791 C1787 1.393 . S
C1791 C1790 1.391 . S
H1792 C1800 0.950 . S
H1793 C1805 0.950 . S
H1794 C1802 0.950 . S
H1795 C1804 0.950 . S
H1796 C1806 0.950 . S
H1797 C1808 0.950 . S
H1798 C1810 0.950 . S
H1799 C1811 0.950 . S
C1800 H1792 0.950 . S
C1800 C1801 1.386 . S
C1800 C1802 1.391 . S
C1801 C1800 1.386 . S
C1801 C1805 1.393 . S
C1802 H1794 0.950 . S
C1802 C1800 1.391 . S
C1802 C1803 1.400 . S
C1803 C1802 1.400 . S
C1803 C1804 1.398 . S
C1803 C1809 1.491 . S
C1804 H1795 0.950 . S
C1804 C1803 1.398 . S
C1804 C1805 1.391 . S
C1805 H1793 0.950 . S
C1805 C1801 1.393 . S
C1805 C1804 1.391 . S
C1806 H1796 0.950 . S
C1806 C1807 1.386 . S
C1806 C1808 1.391 . S
C1807 C1806 1.386 . S
C1807 C1811 1.393 . S
C1808 H1797 0.950 . S
C1808 C1806 1.391 . S
C1808 C1809 1.400 . S
C1809 C1803 1.491 . S
C1809 C1808 1.400 . S
C1809 C1810 1.398 . S
C1810 H1798 0.950 . S
C1810 C1809 1.398 . S
C1810 C1811 1.391 . S
C1811 H1799 0.950 . S
C1811 C1807 1.393 . S
C1811 C1810 1.391 . S
H1812 C1820 0.950 . S
H1813 C1825 0.950 . S
H1814 C1822 0.950 . S
H1815 C1824 0.950 . S
H1816 C1826 0.950 . S
H1817 C1828 0.950 . S
H1818 C1830 0.950 . S
H1819 C1831 0.950 . S
C1820 H1812 0.950 . S
C1820 C1821 1.386 . S
C1820 C1822 1.391 . S
C1821 C1820 1.386 . S
C1821 C1825 1.393 . S
C1822 H1814 0.950 . S
C1822 C1820 1.391 . S
C1822 C1823 1.400 . S
C1823 C1822 1.400 . S
C1823 C1824 1.398 . S
C1823 C1829 1.491 . S
C1824 H1815 0.950 . S
C1824 C1823 1.398 . S
C1824 C1825 1.391 . S
C1825 H1813 0.950 . S
C1825 C1821 1.393 . S
C1825 C1824 1.391 . S
C1826 H1816 0.950 . S
C1826 C1827 1.386 . S
C1826 C1828 1.391 . S
C1827 C1826 1.386 . S
C1827 C1831 1.393 . S
C1828 H1817 0.950 . S
C1828 C1826 1.391 . S
C1828 C1829 1.400 . S
C1829 C1823 1.491 . S
C1829 C1828 1.400 . S
C1829 C1830 1.398 . S
C1830 H1818 0.950 . S
C1830 C1829 1.398 . S
C1830 C1831 1.391 . S
C1831 H1819 0.950 . S
C1831 C1827 1.393 . S
C1831 C1830 1.391 . S
H1832 C1840 0.950 . S
H1833 C1845 0.950 . S
H1834 C1842 0.950 . S
H1835 C1844 0.950 . S
H1836 C1846 0.950 . S
H1837 C1848 0.950 . S
H1838 C1850 0.950 . S
H1839 C1851 0.950 . S
C1840 H1832 0.950 . S
C1840 C1841 1.386 . S
C1840 C1842 1.391 . S
C1841 C1840 1.386 . S
C1841 C1845 1.393 . S
C1842 H1834 0.950 . S
C1842 C1840 1.391 . S
C1842 C1843 1.400 . S
C1843 C1842 1.400 . S
C1843 C1844 1.398 . S
C1843 C1849 1.491 . S
C1844 H1835 0.950 . S
C1844 C1843 1.398 . S
C1844 C1845 1.391 . S
C1845 H1833 0.950 . S
C1845 C1841 1.393 . S
C1845 C1844 1.391 . S
C1846 H1836 0.950 . S
C1846 C1847 1.386 . S
C1846 C1848 1.391 . S
C1847 C1846 1.386 . S
C1847 C1851 1.393 . S
C1848 H1837 0.950 . S
C1848 C1846 1.391 . S
C1848 C1849 1.400 . S
C1849 C1843 1.491 . S
C1849 C1848 1.400 . S
C1849 C1850 1.398 . S
C1850 H1838 0.950 . S
C1850 C1849 1.398 . S
C1850 C1851 1.391 . S
C1851 H1839 0.950 . S
C1851 C1847 1.393 . S
C1851 C1850 1.391 . S
H1852 C1860 0.950 . S
H1853 C1865 0.950 . S
H1854 C1862 0.950 . S
H1855 C1864 0.950 . S
H1856 C1866 0.950 . S
H1857 C1868 0.950 . S
H1858 C1870 0.950 . S
H1859 C1871 0.950 . S
C1860 H1852 0.950 . S
C1860 C1861 1.386 . S
C1860 C1862 1.391 . S
C1861 C1860 1.386 . S
C1861 C1865 1.393 . S
C1862 H1854 0.950 . S
C1862 C1860 1.391 . S
C1862 C1863 1.400 . S
C1863 C1862 1.400 . S
C1863 C1864 1.398 . S
C1863 C1869 1.491 . S
C1864 H1855 0.950 . S
C1864 C1863 1.398 . S
C1864 C1865 1.391 . S
C1865 H1853 0.950 . S
C1865 C1861 1.393 . S
C1865 C1864 1.391 . S
C1866 H1856 0.950 . S
C1866 C1867 1.386 . S
C1866 C1868 1.391 . S
C1867 C1866 1.386 . S
C1867 C1871 1.393 . S
C1868 H1857 0.950 . S
C1868 C1866 1.391 . S
C1868 C1869 1.400 . S
C1869 C1863 1.491 . S
C1869 C1868 1.400 . S
C1869 C1870 1.398 . S
C1870 H1858 0.950 . S
C1870 C1869 1.398 . S
C1870 C1871 1.391 . S
C1871 H1859 0.950 . S
C1871 C1867 1.393 . S
C1871 C1870 1.391 . S
H1872 C1880 0.950 . S
H1873 C1885 0.950 . S
H1874 C1882 0.950 . S
H1875 C1884 0.950 . S
H1876 C1886 0.950 . S
H1877 C1888 0.950 . S
H1878 C1890 0.950 . S
H1879 C1891 0.950 . S
C1880 H1872 0.950 . S
C1880 C1881 1.386 . S
C1880 C1882 1.391 . S
C1881 C1880 1.386 . S
C1881 C1885 1.393 . S
C1882 H1874 0.950 . S
C1882 C1880 1.391 . S
C1882 C1883 1.400 . S
C1883 C1882 1.400 . S
C1883 C1884 1.398 . S
C1883 C1889 1.491 . S
C1884 H1875 0.950 . S
C1884 C1883 1.398 . S
C1884 C1885 1.391 . S
C1885 H1873 0.950 . S
C1885 C1881 1.393 . S
C1885 C1884 1.391 . S
C1886 H1876 0.950 . S
C1886 C1887 1.386 . S
C1886 C1888 1.391 . S
C1887 C1886 1.386 . S
C1887 C1891 1.393 . S
C1888 H1877 0.950 . S
C1888 C1886 1.391 . S
C1888 C1889 1.400 . S
C1889 C1883 1.491 . S
C1889 C1888 1.400 . S
C1889 C1890 1.398 . S
C1890 H1878 0.950 . S
C1890 C1889 1.398 . S
C1890 C1891 1.391 . S
C1891 H1879 0.950 . S
C1891 C1887 1.393 . S
C1891 C1890 1.391 . S
H1892 C1900 0.950 . S
H1893 C1905 0.950 . S
H1894 C1902 0.950 . S
H1895 C1904 0.950 . S
H1896 C1906 0.950 . S
H1897 C1908 0.950 . S
H1898 C1910 0.950 . S
H1899 C1911 0.950 . S
C1900 H1892 0.950 . S
C1900 C1901 1.386 . S
C1900 C1902 1.391 . S
C1901 C1900 1.386 . S
C1901 C1905 1.393 . S
C1902 H1894 0.950 . S
C1902 C1900 1.391 . S
C1902 C1903 1.400 . S
C1903 C1902 1.400 . S
C1903 C1904 1.398 . S
C1903 C1909 1.491 . S
C1904 H1895 0.950 . S
C1904 C1903 1.398 . S
C1904 C1905 1.391 . S
C1905 H1893 0.950 . S
C1905 C1901 1.393 . S
C1905 C1904 1.391 . S
C1906 H1896 0.950 . S
C1906 C1907 1.386 . S
C1906 C1908 1.391 . S
C1907 C1906 1.386 . S
C1907 C1911 1.393 . S
C1908 H1897 0.950 . S
C1908 C1906 1.391 . S
C1908 C1909 1.400 . S
C1909 C1903 1.491 . S
C1909 C1908 1.400 . S
C1909 C1910 1.398 . S
C1910 H1898 0.950 . S
C1910 C1909 1.398 . S
C1910 C1911 1.391 . S
C1911 H1899 0.950 . S
C1911 C1907 1.393 . S
C1911 C1910 1.391 . S
H1912 C1920 0.950 . S
H1913 C1925 0.950 . S
H1914 C1922 0.950 . S
H1915 C1924 0.950 . S
H1916 C1926 0.950 . S
H1917 C1928 0.950 . S
H1918 C1930 0.950 . S
H1919 C1931 0.950 . S
C1920 H1912 0.950 . S
C1920 C1921 1.386 . S
C1920 C1922 1.391 . S
C1921 C1920 1.386 . S
C1921 C1925 1.393 . S
C1922 H1914 0.950 . S
C1922 C1920 1.391 . S
C1922 C1923 1.400 . S
C1923 C1922 1.400 . S
C1923 C1924 1.398 . S
C1923 C1929 1.491 . S
C1924 H1915 0.950 . S
C1924 C1923 1.398 . S
C1924 C1925 1.391 . S
C1925 H1913 0.950 . S
C1925 C1921 1.393 . S
C1925 C1924 1.391 . S
C1926 H1916 0.950 . S
C1926 C1927 1.386 . S
C1926 C1928 1.391 . S
C1927 C1926 1.386 . S
C1927 C1931 1.393 . S
C1928 H1917 0.950 . S
C1928 C1926 1.391 . S
C1928 C1929 1.400 . S
C1929 C1923 1.491 . S
C1929 C1928 1.400 . S
C1929 C1930 1.398 . S
C1930 H1918 0.950 . S
C1930 C1929 1.398 . S
C1930 C1931 1.391 . S
C1931 H1919 0.950 . S
C1931 C1927 1.393 . S
C1931 C1930 1.391 . S
H1932 C1940 0.950 . S
H1933 C1945 0.950 . S
H1934 C1942 0.950 . S
H1935 C1944 0.950 . S
H1936 C1946 0.950 . S
H1937 C1948 0.950 . S
H1938 C1950 0.950 . S
H1939 C1951 0.950 . S
C1940 H1932 0.950 . S
C1940 C1941 1.386 . S
C1940 C1942 1.391 . S
C1941 C1940 1.386 . S
C1941 C1945 1.393 . S
C1942 H1934 0.950 . S
C1942 C1940 1.391 . S
C1942 C1943 1.400 . S
C1943 C1942 1.400 . S
C1943 C1944 1.398 . S
C1943 C1949 1.491 . S
C1944 H1935 0.950 . S
C1944 C1943 1.398 . S
C1944 C1945 1.391 . S
C1945 H1933 0.950 . S
C1945 C1941 1.393 . S
C1945 C1944 1.391 . S
C1946 H1936 0.950 . S
C1946 C1947 1.386 . S
C1946 C1948 1.391 . S
C1947 C1946 1.386 . S
C1947 C1951 1.393 . S
C1948 H1937 0.950 . S
C1948 C1946 1.391 . S
C1948 C1949 1.400 . S
C1949 C1943 1.491 . S
C1949 C1948 1.400 . S
C1949 C1950 1.398 . S
C1950 H1938 0.950 . S
C1950 C1949 1.398 . S
C1950 C1951 1.391 . S
C1951 H1939 0.950 . S
C1951 C1947 1.393 . S
C1951 C1950 1.391 . S
H1952 C1960 0.950 . S
H1953 C1965 0.950 . S
H1954 C1962 0.950 . S
H1955 C1964 0.950 . S
H1956 C1966 0.950 . S
H1957 C1968 0.950 . S
H1958 C1970 0.950 . S
H1959 C1971 0.950 . S
C1960 H1952 0.950 . S
C1960 C1961 1.386 . S
C1960 C1962 1.391 . S
C1961 C1960 1.386 . S
C1961 C1965 1.393 . S
C1962 H1954 0.950 . S
C1962 C1960 1.391 . S
C1962 C1963 1.400 . S
C1963 C1962 1.400 . S
C1963 C1964 1.398 . S
C1963 C1969 1.491 . S
C1964 H1955 0.950 . S
C1964 C1963 1.398 . S
C1964 C1965 1.391 . S
C1965 H1953 0.950 . S
C1965 C1961 1.393 . S
C1965 C1964 1.391 . S
C1966 H1956 0.950 . S
C1966 C1967 1.386 . S
C1966 C1968 1.391 . S
C1967 C1966 1.386 . S
C1967 C1971 1.393 . S
C1968 H1957 0.950 . S
C1968 C1966 1.391 . S
C1968 C1969 1.400 . S
C1969 C1963 1.491 . S
C1969 C1968 1.400 . S
C1969 C1970 1.398 . S
C1970 H1958 0.950 . S
C1970 C1969 1.398 . S
C1970 C1971 1.391 . S
C1971 H1959 0.950 . S
C1971 C1967 1.393 . S
C1971 C1970 1.391 . S
H1972 C1980 0.950 . S
H1973 C1985 0.950 . S
H1974 C1982 0.950 . S
H1975 C1984 0.950 . S
H1976 C1986 0.950 . S
H1977 C1988 0.950 . S
H1978 C1990 0.950 . S
H1979 C1991 0.950 . S
C1980 H1972 0.950 . S
C1980 C1981 1.386 . S
C1980 C1982 1.391 . S
C1981 C1980 1.386 . S
C1981 C1985 1.393 . S
C1982 H1974 0.950 . S
C1982 C1980 1.391 . S
C1982 C1983 1.400 . S
C1983 C1982 1.400 . S
C1983 C1984 1.398 . S
C1983 C1989 1.491 . S
C1984 H1975 0.950 . S
C1984 C1983 1.398 . S
C1984 C1985 1.391 . S
C1985 H1973 0.950 . S
C1985 C1981 1.393 . S
C1985 C1984 1.391 . S
C1986 H1976 0.950 . S
C1986 C1987 1.386 . S
C1986 C1988 1.391 . S
C1987 C1986 1.386 . S
C1987 C1991 1.393 . S
C1988 H1977 0.950 . S
C1988 C1986 1.391 . S
C1988 C1989 1.400 . S
C1989 C1983 1.491 . S
C1989 C1988 1.400 . S
C1989 C1990 1.398 . S
C1990 H1978 0.950 . S
C1990 C1989 1.398 . S
C1990 C1991 1.391 . S
C1991 H1979 0.950 . S
C1991 C1987 1.393 . S
C1991 C1990 1.391 . S
H1992 C2000 0.950 . S
H1993 C2005 0.950 . S
H1994 C2002 0.950 . S
H1995 C2004 0.950 . S
H1996 C2006 0.950 . S
H1997 C2008 0.950 . S
H1998 C2010 0.950 . S
H1999 C2011 0.950 . S
C2000 H1992 0.950 . S
C2000 C2001 1.386 . S
C2000 C2002 1.391 . S
C2001 C2000 1.386 . S
C2001 C2005 1.393 . S
C2002 H1994 0.950 . S
C2002 C2000 1.391 . S
C2002 C2003 1.400 . S
C2003 C2002 1.400 . S
C2003 C2004 1.398 . S
C2003 C2009 1.491 . S
C2004 H1995 0.950 . S
C2004 C2003 1.398 . S
C2004 C2005 1.391 . S
C2005 H1993 0.950 . S
C2005 C2001 1.393 . S
C2005 C2004 1.391 . S
C2006 H1996 0.950 . S
C2006 C2007 1.386 . S
C2006 C2008 1.391 . S
C2007 C2006 1.386 . S
C2007 C2011 1.393 . S
C2008 H1997 0.950 . S
C2008 C2006 1.391 . S
C2008 C2009 1.400 . S
C2009 C2003 1.491 . S
C2009 C2008 1.400 . S
C2009 C2010 1.398 . S
C2010 H1998 0.950 . S
C2010 C2009 1.398 . S
C2010 C2011 1.391 . S
C2011 H1999 0.950 . S
C2011 C2007 1.393 . S
C2011 C2010 1.391 . S
H2012 C2020 0.950 . S
H2013 C2025 0.950 . S
H2014 C2022 0.950 . S
H2015 C2024 0.950 . S
H2016 C2026 0.950 . S
H2017 C2028 0.950 . S
H2018 C2030 0.950 . S
H2019 C2031 0.950 . S
C2020 H2012 0.950 . S
C2020 C2021 1.386 . S
C2020 C2022 1.391 . S
C2021 C2020 1.386 . S
C2021 C2025 1.393 . S
C2022 H2014 0.950 . S
C2022 C2020 1.391 . S
C2022 C2023 1.400 . S
C2023 C2022 1.400 . S
C2023 C2024 1.398 . S
C2023 C2029 1.491 . S
C2024 H2015 0.950 . S
C2024 C2023 1.398 . S
C2024 C2025 1.391 . S
C2025 H2013 0.950 . S
C2025 C2021 1.393 . S
C2025 C2024 1.391 . S
C2026 H2016 0.950 . S
C2026 C2027 1.386 . S
C2026 C2028 1.391 . S
C2027 C2026 1.386 . S
C2027 C2031 1.393 . S
C2028 H2017 0.950 . S
C2028 C2026 1.391 . S
C2028 C2029 1.400 . S
C2029 C2023 1.491 . S
C2029 C2028 1.400 . S
C2029 C2030 1.398 . S
C2030 H2018 0.950 . S
C2030 C2029 1.398 . S
C2030 C2031 1.391 . S
C2031 H2019 0.950 . S
C2031 C2027 1.393 . S
C2031 C2030 1.391 . S
H2032 C2040 0.950 . S
H2033 C2045 0.950 . S
H2034 C2042 0.950 . S
H2035 C2044 0.950 . S
H2036 C2046 0.950 . S
H2037 C2048 0.950 . S
H2038 C2050 0.950 . S
H2039 C2051 0.950 . S
C2040 H2032 0.950 . S
C2040 C2041 1.386 . S
C2040 C2042 1.391 . S
C2041 C2040 1.386 . S
C2041 C2045 1.393 . S
C2042 H2034 0.950 . S
C2042 C2040 1.391 . S
C2042 C2043 1.400 . S
C2043 C2042 1.400 . S
C2043 C2044 1.398 . S
C2043 C2049 1.491 . S
C2044 H2035 0.950 . S
C2044 C2043 1.398 . S
C2044 C2045 1.391 . S
C2045 H2033 0.950 . S
C2045 C2041 1.393 . S
C2045 C2044 1.391 . S
C2046 H2036 0.950 . S
C2046 C2047 1.386 . S
C2046 C2048 1.391 . S
C2047 C2046 1.386 . S
C2047 C2051 1.393 . S
C2048 H2037 0.950 . S
C2048 C2046 1.391 . S
C2048 C2049 1.400 . S
C2049 C2043 1.491 . S
C2049 C2048 1.400 . S
C2049 C2050 1.398 . S
C2050 H2038 0.950 . S
C2050 C2049 1.398 . S
C2050 C2051 1.391 . S
C2051 H2039 0.950 . S
C2051 C2047 1.393 . S
C2051 C2050 1.391 . S
C627 C318 1.572 . S
C621 C308 1.575 . S
C641 C282 1.381 . S
C647 C316 1.383 . S
C667 C317 1.383 . S
C661 C269 1.384 . S
C681 C295 1.573 . S
C687 C319 1.574 . S
C707 C363 1.519 . S
C701 C217 1.521 . S
C727 C423 1.529 . S
C721 C230 1.527 . S
C741 C243 1.527 . S
C747 C362 1.528 . S
C767 C422 1.345 . S
C761 C256 1.341 . S
C781 C165 1.519 . S
C787 C364 1.521 . S
C807 C420 1.345 . S
C801 C178 1.344 . S
C821 C191 1.528 . S
C827 C365 1.525 . S
C841 C204 1.527 . S
C847 C421 1.529 . S
C867 C471 1.575 . S
C861 C152 1.573 1_556 S
C881 C126 1.384 . S
C887 C470 1.382 1_556 S
C901 C113 1.380 1_556 S
C907 C472 1.383 . S
C927 C473 1.574 . S
C921 C139 1.573 . S
C941 C61 1.520 . S
C947 C514 1.520 . S
C961 C74 1.526 1_545 S
C967 C573 1.528 1_565 S
C981 C87 1.527 . S
C987 C512 1.528 . S
C1001 C100 1.342 1_545 S
C1007 C572 1.344 1_565 S
C1027 C513 1.519 . S
C1021 C9 1.521 . S
C1047 C570 1.344 1_565 S
C1041 C22 1.344 . S
C1061 C35 1.528 . S
C1067 C515 1.525 . S
C1087 C571 1.528 1_565 S
C1081 C48 1.530 . S
C1107 C315 1.492 . S
C1101 C4 1.307 . S
C1121 C21 1.414 1_565 S
C1127 C321 1.450 . S
C1141 C34 1.722 . S
C1147 C313 1.752 . S
C1161 C43 1.140 . S
C1167 C320 1.344 . S
C1181 C56 1.311 . S
C1187 C312 1.493 . S
C1207 C322 1.344 . S
C1201 C69 1.134 . S
C1221 C86 1.725 . S
C1227 C314 1.751 . S
C1247 C323 1.450 . S
C1241 C99 1.416 1_545 S
C1267 C369 1.632 1_565 S
C1261 C47 1.587 . S
C1281 C8 1.646 . S
C1287 C412 1.692 . S
C1307 C367 1.286 1_565 S
C1301 C17 1.119 . S
C1327 C414 1.447 . S
C1321 C30 1.265 . S
C1341 C73 1.588 . S
C1347 C368 1.631 . S
C1367 C413 1.441 . S
C1361 C82 1.220 . S
C1387 C366 1.285 . S
C1381 C95 1.102 . S
C1407 C415 1.692 . S
C1401 C60 1.657 . S
C1427 C419 1.475 . S
C1421 C112 1.439 1_556 S
C1441 C125 1.433 . S
C1447 C418 1.473 1_556 S
C1467 C370 1.426 1_556 S
C1461 C108 1.225 . S
C1487 C417 1.680 1_556 S
C1481 C138 1.649 1_554 S
C1501 C147 1.233 . S
C1507 C373 1.445 . S
C1521 C151 1.651 . S
C1527 C416 1.680 . S
C1547 C372 1.426 1_556 S
C1541 C121 1.223 1_554 S
C1567 C371 1.445 1_556 S
C1561 C134 1.233 1_554 S
C1587 C465 1.493 . S
C1581 C160 1.311 . S
C1607 C468 1.449 . S
C1601 C177 1.410 . S
C1621 C190 1.721 . S
C1627 C464 1.751 . S
C1647 C466 1.349 . S
C1641 C199 1.178 . S
C1667 C462 1.493 . S
C1661 C212 1.308 . S
C1681 C225 1.143 . S
C1687 C467 1.344 . S
C1701 C242 1.709 . S
C1707 C463 1.752 . S
C1727 C469 1.447 . S
C1721 C255 1.393 . S
C1747 C523 1.632 . S
C1741 C203 1.586 . S
C1761 C164 1.645 . S
C1767 C562 1.692 . S
C1787 C522 1.282 . S
C1781 C173 1.087 . S
C1807 C564 1.446 . S
C1801 C186 1.235 . S
C1827 C521 1.631 . S
C1821 C229 1.605 . S
C1841 C238 1.214 . S
C1847 C563 1.441 . S
C1867 C520 1.282 . S
C1861 C251 1.079 . S
C1887 C565 1.692 . S
C1881 C216 1.656 . S
C1907 C569 1.473 . S
C1901 C268 1.427 . S
C1921 C281 1.416 . S
C1927 C568 1.471 . S
C1947 C516 1.428 . S
C1941 C264 1.234 . S
C1961 C294 1.648 . S
C1967 C567 1.680 . S
C1987 C519 1.447 . S
C1981 C303 1.263 . S
C2007 C566 1.680 . S
C2001 C307 1.650 . S
C2027 C517 1.426 . S
C2021 C277 1.226 . S
C2041 C290 1.254 . S
C2047 C518 1.447 . S
