# Generated by pormake.
# Topology anh, (6,3)-cn, num edge types: 1
# Building blocks:
#     Node 0, Type 0, BuildingBlock: CUKXOW_clean_sbu_0, # of connection points: 6
#     Node 1, Type 0, BuildingBlock: CUKXOW_clean_sbu_0, # of connection points: 6
#     Node 2, Type 0, BuildingBlock: CUKXOW_clean_sbu_0, # of connection points: 6
#     Node 3, Type 1, BuildingBlock: BETDIP_clean_linker_0, # of connection points: 3
#     Node 4, Type 1, BuildingBlock: BETDIP_clean_linker_0, # of connection points: 3
#     Node 5, Type 1, BuildingBlock: BETDIP_clean_linker_0, # of connection points: 3
#     Node 6, Type 1, BuildingBlock: BETDIP_clean_linker_0, # of connection points: 3
#     Node 7, Type 1, BuildingBlock: BETDIP_clean_linker_0, # of connection points: 3
#     Node 8, Type 1, BuildingBlock: BETDIP_clean_linker_0, # of connection points: 3
#     Edge 9, Type (0, 1), BuildingBlock: OJICUG_clean_linker_0, # of connection points: 2
#     Edge 10, Type (0, 1), BuildingBlock: OJICUG_clean_linker_0, # of connection points: 2
#     Edge 11, Type (0, 1), BuildingBlock: OJICUG_clean_linker_0, # of connection points: 2
#     Edge 12, Type (0, 1), BuildingBlock: OJICUG_clean_linker_0, # of connection points: 2
#     Edge 13, Type (0, 1), BuildingBlock: OJICUG_clean_linker_0, # of connection points: 2
#     Edge 14, Type (0, 1), BuildingBlock: OJICUG_clean_linker_0, # of connection points: 2
#     Edge 15, Type (0, 1), BuildingBlock: OJICUG_clean_linker_0, # of connection points: 2
#     Edge 16, Type (0, 1), BuildingBlock: OJICUG_clean_linker_0, # of connection points: 2
#     Edge 17, Type (0, 1), BuildingBlock: OJICUG_clean_linker_0, # of connection points: 2
#     Edge 18, Type (0, 1), BuildingBlock: OJICUG_clean_linker_0, # of connection points: 2
#     Edge 19, Type (0, 1), BuildingBlock: OJICUG_clean_linker_0, # of connection points: 2
#     Edge 20, Type (0, 1), BuildingBlock: OJICUG_clean_linker_0, # of connection points: 2
#     Edge 21, Type (0, 1), BuildingBlock: OJICUG_clean_linker_0, # of connection points: 2
#     Edge 22, Type (0, 1), BuildingBlock: OJICUG_clean_linker_0, # of connection points: 2
#     Edge 23, Type (0, 1), BuildingBlock: OJICUG_clean_linker_0, # of connection points: 2
#     Edge 24, Type (0, 1), BuildingBlock: OJICUG_clean_linker_0, # of connection points: 2
#     Edge 25, Type (0, 1), BuildingBlock: OJICUG_clean_linker_0, # of connection points: 2
#     Edge 26, Type (0, 1), BuildingBlock: OJICUG_clean_linker_0, # of connection points: 2
# Relax obj value: 0.088
# Max RMSD: 0.175
# Mean RMSD: 0.107
data_MOF--net-anh--node1-CUKXOW_clean_sbu_0--node2-BETDIP_clean_linker_0--edge1-OJICUG_clean_linker_0
_symmetry_space_group_name_H-M    P1
_symmetry_Int_Tables_number       1
_symmetry_cell_setting            triclinic
loop_
_symmetry_equiv_pos_as_xyz
'x, y, z'
_cell_length_a     20.663356
_cell_length_b     20.255485
_cell_length_c     35.342925
_cell_angle_alpha  98.779341
_cell_angle_beta   90.759921
_cell_angle_gamma 109.61691
loop_
_atom_site_label
_atom_site_type_symbol
_atom_site_fract_x
_atom_site_fract_y
_atom_site_fract_z
_atom_type_partial_charge
Tb0 Tb 0.13788 0.59446 0.1421 0.0
C1 C 0.09487 0.54233 0.22059 0.0
Tb2 Tb 0.05741 0.42778 0.14376 0.0
O3 O 1.04397 0.62543 0.14152 0.0
O4 O 1.03761 0.52231 0.14052 0.0
O5 O 0.13659 0.59221 0.20321 0.0
C6 C 0.95182 0.31107 0.14882 0.0
O7 O 0.0532 0.4798 0.20224 0.0
C8 C 0.19423 0.46217 0.14558 0.0
C9 C 0.1041 0.4793 0.06539 0.0
O10 O 1.0034 0.34185 0.17419 0.0
O11 O 0.96138 0.34452 0.11966 0.0
O12 O 0.15192 0.39761 0.14554 0.0
O13 O 0.15672 0.49978 0.14516 0.0
O14 O 0.06101 0.42925 0.08243 0.0
O15 O 0.14338 0.5432 0.08382 0.0
C16 C 0.24594 0.71274 0.14798 0.0
O17 O 0.19395 0.69528 0.12275 0.0
O18 O 0.23584 0.66489 0.16987 0.0
C19 C 1.00085 0.56093 0.1404 0.0
Tb20 Tb 0.51381 0.02026 0.49554 0.0
C21 C 0.57476 0.05141 0.41809 0.0
Tb22 Tb 0.66792 0.10286 0.4954 0.0
O23 O 0.48689 0.11151 0.48333 0.0
O24 O 0.57966 0.12682 0.51267 0.0
O25 O 0.5304 1.00256 0.43488 0.0
C26 C 0.79022 0.19947 0.48767 0.0
O27 O 0.62748 0.10308 0.43779 0.0
C28 C 0.63504 0.9655 0.49466 0.0
C29 C 0.6066 0.0756 0.57477 0.0
O30 O 0.77015 0.13264 0.47264 0.0
O31 O 0.74165 0.21169 0.50724 0.0
O32 O 0.69332 0.01223 0.50961 0.0
O33 O 0.60181 0.99612 0.47805 0.0
O34 O 0.65966 0.11274 0.55707 0.0
O35 O 0.54698 0.03361 0.55626 0.0
C36 C 0.39152 0.9196 0.49858 0.0
O37 O 0.40192 0.9764 0.48342 0.0
O38 O 0.45001 0.92011 0.51265 0.0
C39 C 0.54616 0.15788 0.49677 0.0
Tb40 Tb 0.51275 0.58608 0.8185 0.0
C41 C 0.57526 0.61722 0.90277 0.0
Tb42 Tb 0.67295 0.63276 0.83275 0.0
O43 O 0.50329 0.48622 0.83803 0.0
O44 O 0.59006 0.53837 0.81119 0.0
O45 O 0.52124 0.61396 0.88067 0.0
C46 C 0.78925 0.61151 0.84803 0.0
O47 O 0.63562 0.61916 0.88948 0.0
C48 C 0.63258 0.74397 0.83797 0.0
C49 C 0.60869 0.61355 0.74947 0.0
O50 O 0.73256 0.58742 0.86468 0.0
O51 O 0.78119 0.64897 0.82266 0.0
O52 O 0.69701 0.74943 0.84254 0.0
O53 O 0.59782 0.67903 0.83172 0.0
O54 O 0.66043 0.60923 0.7705 0.0
O55 O 0.55093 0.61718 0.76422 0.0
C56 C 0.38316 0.55066 0.79116 0.0
O57 O 0.42593 0.51887 0.7795 0.0
O58 O 0.41352 0.60384 0.81856 0.0
C59 C 0.56365 0.48665 0.8284 0.0
H60 H 0.52052 1.00102 0.14156 0.0
H61 H 0.63457 0.11176 0.24859 0.0
H62 H 0.44337 0.94089 0.248 0.0
H63 H 0.66667 0.20327 0.21607 0.0
C64 C 0.67823 0.1764 0.18935 0.0
C65 C 0.52485 0.00992 0.17266 0.0
C66 C 0.4763 0.96432 0.19275 0.0
C67 C 0.5807 0.06541 0.19277 0.0
C68 C 0.5886 0.07325 0.2331 0.0
C69 C 0.53939 0.02882 0.25351 0.0
C70 C 0.48248 0.9756 0.23294 0.0
N71 N 0.63124 0.1093 0.17194 0.0
H72 H 0.59018 0.48863 0.47443 0.0
H73 H 0.5997 0.65133 0.57036 0.0
H74 H 0.60175 0.44818 0.59013 0.0
H75 H 0.49734 0.63876 0.50391 0.0
C76 C 0.55037 0.66384 0.49738 0.0
C77 C 0.59309 0.50597 0.50516 0.0
C78 C 0.59547 0.45934 0.53056 0.0
C79 C 0.59391 0.57508 0.51952 0.0
C80 C 0.5977 0.59768 0.5593 0.0
C81 C 0.60254 0.55268 0.58478 0.0
C82 C 0.60089 0.48377 0.57025 0.0
N83 N 0.5952 0.62351 0.4942 0.0
H84 H 0.99569 0.4547 0.80311 0.0
H85 H 0.11234 0.37368 0.87409 0.0
H86 H 1.02062 0.52439 0.92508 0.0
H87 H 0.05629 0.41915 0.75296 0.0
C88 C 0.09455 0.40557 0.76837 0.0
C89 C 1.01754 0.45436 0.83106 0.0
C90 C 1.00272 0.49403 0.8637 0.0
C91 C 0.0577 0.41145 0.83464 0.0
C92 C 0.08202 0.40734 0.87118 0.0
C93 C 0.06968 0.44935 0.90367 0.0
C94 C 1.03084 0.49289 0.89969 0.0
N95 N 0.07629 0.37434 0.80171 0.0
H96 H 0.13616 0.6163 0.4985 0.0
H97 H 1.0467 0.48331 0.39092 0.0
H98 H 0.17785 0.69978 0.39321 0.0
H99 H 0.06274 0.39934 0.42799 0.0
C100 C 1.03418 0.41486 0.45127 0.0
C101 C 0.12893 0.60943 0.46753 0.0
C102 C 0.16256 0.66574 0.44812 0.0
C103 C 0.08688 0.54367 0.44701 0.0
C104 C 0.07848 0.53434 0.40674 0.0
C105 C 0.11123 0.59025 0.38686 0.0
C106 C 0.1522 0.65607 0.40802 0.0
N107 N 0.05203 0.48797 0.4673 0.0
H108 H 0.60094 0.18456 0.84988 0.0
H109 H 0.59602 0.02917 0.75132 0.0
H110 H 0.62429 0.24363 0.73742 0.0
H111 H 0.50083 0.96486 0.79499 0.0
C112 C 0.54477 0.97694 0.81537 0.0
C113 C 0.60444 0.17117 0.81927 0.0
C114 C 0.61407 0.22326 0.79565 0.0
C115 C 0.59676 0.10097 0.80333 0.0
C116 C 0.60064 0.08307 0.76364 0.0
C117 C 0.61229 0.13479 0.73991 0.0
C118 C 0.61898 0.20462 0.7561 0.0
N119 N 0.58691 0.04903 0.82751 0.0
H120 H 0.53451 0.50733 0.16045 0.0
H121 H 0.65338 0.55227 0.06239 0.0
H122 H 0.44784 0.55891 0.06222 0.0
H123 H 0.68201 0.44872 0.08809 0.0
C124 C 0.70397 0.48886 0.11331 0.0
C125 C 0.53901 0.5213 0.13198 0.0
C126 C 0.48252 0.5312 0.11321 0.0
C127 C 0.60137 0.52924 0.11367 0.0
C128 C 0.60615 0.54678 0.07656 0.0
C129 C 0.55114 0.55797 0.05785 0.0
C130 C 0.4903 0.55039 0.07656 0.0
N131 N 0.66013 0.52276 0.13284 0.0
C132 C 0.30634 0.43773 0.14844 0.0
C133 C 0.27045 0.48394 0.14258 0.0
H134 H 0.4019 0.41681 0.1447 0.0
C135 C 0.30757 0.54919 0.13166 0.0
H136 H 0.27926 0.38684 0.1568 0.0
C137 C 0.37792 0.56704 0.12564 0.0
C138 C 0.4133 0.51939 0.12942 0.0
H139 H 0.28155 0.58499 0.1257 0.0
H140 H 0.40396 0.61696 0.11597 0.0
C141 C 0.37692 0.45525 0.14201 0.0
C142 C 0.87082 0.32521 0.49821 0.0
C143 C 0.8552 0.25397 0.48088 0.0
H144 H 0.94018 0.43244 0.50279 0.0
C145 C 0.90056 0.23581 0.45556 0.0
H146 H 0.83657 0.34055 0.51784 0.0
C147 C 0.95959 0.28832 0.44683 0.0
C148 C 0.97449 0.35979 0.46341 0.0
H149 H 0.88965 0.18127 0.44179 0.0
H150 H 0.99299 0.2732 0.4265 0.0
C151 C 0.93012 0.37775 0.48962 0.0
C152 C 0.6513 0.87351 0.84793 0.0
C153 C 0.60729 0.80322 0.83592 0.0
H154 H 0.66581 0.98407 0.85157 0.0
C155 C 0.54097 0.79056 0.81977 0.0
H156 H 0.7027 0.88452 0.86053 0.0
C157 C 0.52008 0.84751 0.81425 0.0
C158 C 0.5648 0.91785 0.82526 0.0
H159 H 0.50629 0.73678 0.81012 0.0
H160 H 0.46953 0.83655 0.80051 0.0
C161 C 0.6301 0.93044 0.8429 0.0
C162 C 0.88235 0.47234 0.11841 0.0
C163 C 0.92391 0.53951 0.13771 0.0
H164 H 0.78093 0.40444 0.09552 0.0
C165 C 0.89154 0.58884 0.15153 0.0
H166 H 0.90546 0.43386 0.10654 0.0
C167 C 0.81966 0.57172 0.14574 0.0
C168 C 0.77856 0.50538 0.12509 0.0
H169 H 0.9221 0.64135 0.16629 0.0
H170 H 0.79684 0.61152 0.15591 0.0
C171 C 0.81089 0.4558 0.11186 0.0
C172 C 0.26975 0.86053 0.47227 0.0
C173 C 0.32702 0.85793 0.49297 0.0
H174 H 0.17162 0.80133 0.44238 0.0
C175 C 0.32491 0.79343 0.5039 0.0
H176 H 0.26992 0.90966 0.46364 0.0
C177 C 0.26845 0.73141 0.49183 0.0
C178 C 0.21356 0.73298 0.46849 0.0
H179 H 0.36852 0.79003 0.51983 0.0
H180 H 0.27001 0.68147 0.49849 0.0
C181 C 0.21357 0.79859 0.46008 0.0
C182 C 0.54609 0.36513 0.84211 0.0
C183 C 0.58569 0.42419 0.8263 0.0
H184 H 0.52432 0.25513 0.84493 0.0
C185 C 0.64167 0.41986 0.80527 0.0
H186 H 0.50297 0.36732 0.85874 0.0
C187 C 0.65423 0.35558 0.79752 0.0
C188 C 0.61111 0.29471 0.81078 0.0
H189 H 0.67348 0.46493 0.79312 0.0
H190 H 0.69572 0.35261 0.77969 0.0
C191 C 0.55868 0.30099 0.83445 0.0
C192 C 0.54964 0.84187 0.47745 0.0
C193 C 0.61496 0.88766 0.49321 0.0
H194 H 0.47745 0.73511 0.46751 0.0
C195 C 0.66084 0.8584 0.5079 0.0
H196 H 0.51404 0.86245 0.46476 0.0
C197 C 0.64116 0.78499 0.5076 0.0
C198 C 0.5746 0.7399 0.49358 0.0
H199 H 0.71177 0.89229 0.51991 0.0
H200 H 0.677 0.76393 0.51974 0.0
C201 C 0.52904 0.76893 0.47853 0.0
C202 C 0.90147 0.60058 0.82833 0.0
C203 C 0.8491 0.59016 0.85398 0.0
H204 H 0.99229 0.57807 0.81133 0.0
C205 C 0.85013 0.55229 0.88385 0.0
H206 H 0.90126 0.6294 0.80493 0.0
C207 C 0.90119 0.52288 0.88735 0.0
C208 C 0.95254 0.5309 0.86108 0.0
H209 H 0.81007 0.54331 0.90391 0.0
H210 H 0.89882 0.49146 0.90984 0.0
C211 C 0.95293 0.57081 0.83178 0.0
C212 C 0.30853 0.83974 0.14141 0.0
C213 C 0.30846 0.7756 0.15193 0.0
H214 H 0.36374 0.9521 0.14637 0.0
C215 C 0.36783 0.77269 0.17016 0.0
H216 H 0.26307 0.84278 0.12723 0.0
C217 C 0.42472 0.83393 0.18044 0.0
C218 C 0.42306 0.89931 0.17296 0.0
H219 H 0.36929 0.72347 0.17798 0.0
H220 H 0.46866 0.83105 0.19634 0.0
C221 C 0.36582 0.90182 0.15214 0.0
C222 C 0.52323 0.266 0.48249 0.0
C223 C 0.56368 0.23593 0.50158 0.0
H224 H 0.50226 0.3609 0.47623 0.0
C225 C 0.61907 0.28096 0.52696 0.0
H226 H 0.48032 0.23246 0.46264 0.0
C227 C 0.63198 0.35416 0.53443 0.0
C228 C 0.58955 0.38413 0.51685 0.0
H229 H 0.65076 0.25938 0.54237 0.0
H230 H 0.67379 0.38716 0.55511 0.0
C231 C 0.53619 0.33953 0.48996 0.0
C232 C 0.26338 0.55305 0.79648 0.0
C233 C 0.30912 0.52137 0.7796 0.0
H234 H 0.1576 0.54073 0.80512 0.0
C235 C 0.28294 0.45602 0.75453 0.0
H236 H 0.2824 0.60334 0.81588 0.0
C237 C 0.21213 0.42022 0.74874 0.0
C238 C 0.16671 0.44992 0.76736 0.0
H239 H 0.31718 0.43045 0.74111 0.0
H240 H 0.19304 0.36779 0.73135 0.0
C241 C 0.19233 0.51747 0.79027 0.0
C242 C 0.83064 0.23192 0.12901 0.0
C243 C 0.88435 0.26447 0.15777 0.0
H244 H 0.72199 0.17644 0.11657 0.0
C245 C 0.87032 0.26217 0.19638 0.0
H246 H 0.84033 0.23373 0.09907 0.0
C247 C 0.80299 0.23229 0.20628 0.0
C248 C 0.74902 0.20209 0.17773 0.0
H249 H 0.91066 0.28743 0.21914 0.0
H250 H 0.79284 0.23393 0.23636 0.0
C251 C 0.76325 0.19971 0.13895 0.0
C252 C 0.06294 0.40035 0.00157 0.0
C253 C 0.10629 0.46479 0.02319 0.0
H254 H 1.01882 0.34423 0.94559 0.0
C255 C 0.14772 0.51783 0.0038 0.0
H256 H 1.03088 0.35807 0.01553 0.0
C257 C 0.14103 0.50938 0.96389 0.0
C258 C 0.09353 0.44752 0.94269 0.0
H259 H 0.18237 0.56776 0.01943 0.0
H260 H 0.16926 0.55324 0.94976 0.0
C261 C 0.05659 0.39185 0.96154 0.0
C262 C 0.58952 0.10725 0.35901 0.0
C263 C 0.56671 0.04617 0.37622 0.0
H264 H 0.59637 0.15026 0.30699 0.0
C265 C 0.53552 0.97966 0.35313 0.0
H266 H 0.6133 0.15926 0.37634 0.0
C267 C 0.52763 0.97409 0.31342 0.0
C268 C 0.54904 0.03519 0.29593 0.0
H269 H 0.51828 0.93162 0.3657 0.0
H270 H 0.50545 0.92153 0.2965 0.0
C271 C 0.58009 0.10193 0.31928 0.0
C272 C 0.56352 0.62042 0.68454 0.0
C273 C 0.61246 0.60699 0.70741 0.0
H274 H 0.5225 0.61429 0.62751 0.0
C275 C 0.66165 0.58143 0.68945 0.0
H276 H 0.52513 0.64045 0.69753 0.0
C277 C 0.65963 0.56598 0.64953 0.0
C278 C 0.60899 0.57661 0.62676 0.0
H279 H 0.70005 0.5705 0.70617 0.0
H280 H 0.69681 0.54421 0.6364 0.0
C281 C 0.56209 0.60577 0.64452 0.0
C282 C 0.66467 0.14448 0.63818 0.0
C283 C 0.61166 0.08656 0.61718 0.0
H284 H 0.70634 0.20498 0.69355 0.0
C285 C 0.56135 0.04192 0.63711 0.0
H286 H 0.70424 0.17996 0.62376 0.0
C287 C 0.56288 0.05618 0.67712 0.0
C288 C 0.61433 0.11572 0.69791 0.0
H289 H 0.52 0.99668 0.62179 0.0
H290 H 0.5224 0.02209 0.69169 0.0
C291 C 0.66575 0.15912 0.67812 0.0
C292 C 0.62416 0.63748 0.97021 0.0
C293 C 0.56681 0.60996 0.94346 0.0
H294 H 0.66392 0.64459 0.02742 0.0
C295 C 0.50374 0.56758 0.95482 0.0
H296 H 0.67352 0.6703 0.96214 0.0
C297 C 0.49876 0.55066 -0.00821 0.0
C298 C 0.5564 0.57713 0.01859 0.0
H299 H 0.45909 0.54439 0.93454 0.0
H300 H 0.45007 0.5149 -0.00114 0.0
C301 C 0.61886 0.62186 0.00746 0.0
C302 C 0.15778 0.60231 0.28387 0.0
C303 C 0.09712 0.55634 0.2629 0.0
H304 H 0.21091 0.64648 0.33885 0.0
C305 C 1.04033 0.52227 0.28274 0.0
H306 H 0.2028 0.62848 0.26935 0.0
C307 C 1.04417 0.53423 0.32291 0.0
C308 C 0.10545 0.57932 0.34405 0.0
H309 H 0.99278 0.48677 0.26724 0.0
H310 H 0.99898 0.50828 0.3373 0.0
C311 C 0.1622 0.61298 0.32387 0.0
loop_
_geom_bond_atom_site_label_1
_geom_bond_atom_site_label_2
_geom_bond_distance
_geom_bond_site_symmetry_2
_ccdc_geom_bond_type
Tb0 O3 2.453 1_455 S
Tb0 O4 2.596 1_455 S
Tb0 O5 2.374 . S
Tb0 O13 2.343 . S
Tb0 O15 2.353 . S
Tb0 O17 2.427 . S
Tb0 O18 2.513 . S
C1 O5 1.251 . S
C1 O7 1.263 . S
Tb2 O4 2.343 1_455 S
Tb2 O7 2.353 . S
Tb2 O10 2.427 1_455 S
Tb2 O11 2.513 1_455 S
Tb2 O12 2.453 . S
Tb2 O13 2.596 . S
Tb2 O14 2.374 . S
O3 Tb0 2.453 1_655 S
O3 C19 1.245 . S
O4 Tb0 2.596 1_655 S
O4 Tb2 2.343 1_655 S
O4 C19 1.259 . S
O5 Tb0 2.374 . S
O5 C1 1.251 . S
C6 O10 1.275 . S
C6 O11 1.246 . S
O7 C1 1.263 . S
O7 Tb2 2.353 . S
C8 O12 1.245 . S
C8 O13 1.259 . S
C9 O14 1.250 . S
C9 O15 1.263 . S
O10 Tb2 2.427 1_655 S
O10 C6 1.275 . S
O11 Tb2 2.513 1_655 S
O11 C6 1.246 . S
O12 Tb2 2.453 . S
O12 C8 1.245 . S
O13 Tb0 2.343 . S
O13 Tb2 2.596 . S
O13 C8 1.259 . S
O14 Tb2 2.374 . S
O14 C9 1.250 . S
O15 Tb0 2.353 . S
O15 C9 1.263 . S
C16 O17 1.275 . S
C16 O18 1.246 . S
O17 Tb0 2.427 . S
O17 C16 1.275 . S
O18 Tb0 2.513 . S
O18 C16 1.246 . S
C19 O3 1.245 . S
C19 O4 1.259 . S
Tb20 O23 2.453 . S
Tb20 O24 2.596 . S
Tb20 O25 2.374 . S
Tb20 O33 2.343 1_545 S
Tb20 O35 2.353 . S
Tb20 O37 2.427 1_545 S
Tb20 O38 2.513 1_545 S
C21 O25 1.251 . S
C21 O27 1.263 . S
Tb22 O24 2.343 . S
Tb22 O27 2.353 . S
Tb22 O30 2.427 . S
Tb22 O31 2.513 . S
Tb22 O32 2.453 1_545 S
Tb22 O33 2.596 1_545 S
Tb22 O34 2.374 . S
O23 Tb20 2.453 . S
O23 C39 1.245 . S
O24 Tb20 2.596 . S
O24 Tb22 2.343 . S
O24 C39 1.259 . S
O25 Tb20 2.374 . S
O25 C21 1.251 . S
C26 O30 1.275 . S
C26 O31 1.246 . S
O27 C21 1.263 . S
O27 Tb22 2.353 . S
C28 O32 1.245 . S
C28 O33 1.259 . S
C29 O34 1.250 . S
C29 O35 1.263 . S
O30 Tb22 2.427 . S
O30 C26 1.275 . S
O31 Tb22 2.513 . S
O31 C26 1.246 . S
O32 Tb22 2.453 1_565 S
O32 C28 1.245 . S
O33 Tb20 2.343 1_565 S
O33 Tb22 2.596 1_565 S
O33 C28 1.259 . S
O34 Tb22 2.374 . S
O34 C29 1.250 . S
O35 Tb20 2.353 . S
O35 C29 1.263 . S
C36 O37 1.275 . S
C36 O38 1.246 . S
O37 Tb20 2.427 1_565 S
O37 C36 1.275 . S
O38 Tb20 2.513 1_565 S
O38 C36 1.246 . S
C39 O23 1.245 . S
C39 O24 1.259 . S
Tb40 O43 2.453 . S
Tb40 O44 2.596 . S
Tb40 O45 2.374 . S
Tb40 O53 2.343 . S
Tb40 O55 2.353 . S
Tb40 O57 2.427 . S
Tb40 O58 2.513 . S
C41 O45 1.251 . S
C41 O47 1.263 . S
Tb42 O44 2.343 . S
Tb42 O47 2.353 . S
Tb42 O50 2.427 . S
Tb42 O51 2.513 . S
Tb42 O52 2.453 . S
Tb42 O53 2.596 . S
Tb42 O54 2.374 . S
O43 Tb40 2.453 . S
O43 C59 1.245 . S
O44 Tb40 2.596 . S
O44 Tb42 2.343 . S
O44 C59 1.259 . S
O45 Tb40 2.374 . S
O45 C41 1.251 . S
C46 O50 1.275 . S
C46 O51 1.246 . S
O47 C41 1.263 . S
O47 Tb42 2.353 . S
C48 O52 1.245 . S
C48 O53 1.259 . S
C49 O54 1.250 . S
C49 O55 1.263 . S
O50 Tb42 2.427 . S
O50 C46 1.275 . S
O51 Tb42 2.513 . S
O51 C46 1.246 . S
O52 Tb42 2.453 . S
O52 C48 1.245 . S
O53 Tb40 2.343 . S
O53 Tb42 2.596 . S
O53 C48 1.259 . S
O54 Tb42 2.374 . S
O54 C49 1.250 . S
O55 Tb40 2.353 . S
O55 C49 1.263 . S
C56 O57 1.275 . S
C56 O58 1.246 . S
O57 Tb40 2.427 . S
O57 C56 1.275 . S
O58 Tb40 2.513 . S
O58 C56 1.246 . S
C59 O43 1.245 . S
C59 O44 1.259 . S
H60 C65 0.930 . S
H61 C68 0.930 . S
H62 C70 0.930 1_565 S
H63 C64 1.016 . S
C64 H63 1.016 . S
C64 N71 1.286 . S
C65 H60 0.930 . S
C65 C66 1.397 1_545 S
C65 C67 1.361 . S
C66 C65 1.397 1_565 S
C66 C70 1.390 1_565 S
C67 C65 1.361 . S
C67 C68 1.393 . S
C67 N71 1.413 . S
C68 H61 0.930 . S
C68 C67 1.393 . S
C68 C69 1.399 . S
C69 C68 1.399 . S
C69 C70 1.381 . S
C70 H62 0.930 1_545 S
C70 C66 1.390 1_545 S
C70 C69 1.381 . S
N71 C64 1.286 . S
N71 C67 1.413 . S
H72 C77 0.930 . S
H73 C80 0.930 . S
H74 C82 0.930 . S
H75 C76 1.016 . S
C76 H75 1.016 . S
C76 N83 1.286 . S
C77 H72 0.930 . S
C77 C78 1.397 . S
C77 C79 1.361 . S
C78 C77 1.397 . S
C78 C82 1.390 . S
C79 C77 1.361 . S
C79 C80 1.393 . S
C79 N83 1.413 . S
C80 H73 0.930 . S
C80 C79 1.393 . S
C80 C81 1.399 . S
C81 C80 1.399 . S
C81 C82 1.381 . S
C82 H74 0.930 . S
C82 C78 1.390 . S
C82 C81 1.381 . S
N83 C76 1.286 . S
N83 C79 1.413 . S
H84 C89 0.930 . S
H85 C92 0.930 . S
H86 C94 0.930 . S
H87 C88 1.016 . S
C88 H87 1.016 . S
C88 N95 1.286 . S
C89 H84 0.930 . S
C89 C90 1.397 1_455 S
C89 C91 1.361 . S
C90 C89 1.397 1_655 S
C90 C94 1.390 . S
C91 C89 1.361 . S
C91 C92 1.393 . S
C91 N95 1.413 . S
C92 H85 0.930 . S
C92 C91 1.393 . S
C92 C93 1.399 . S
C93 C92 1.399 . S
C93 C94 1.381 1_455 S
C94 H86 0.930 . S
C94 C90 1.390 . S
C94 C93 1.381 1_655 S
N95 C88 1.286 . S
N95 C91 1.413 . S
H96 C101 0.930 . S
H97 C104 0.930 . S
H98 C106 0.930 . S
H99 C100 1.016 . S
C100 H99 1.016 . S
C100 N107 1.286 . S
C101 H96 0.930 . S
C101 C102 1.397 . S
C101 C103 1.361 1_455 S
C102 C101 1.397 . S
C102 C106 1.390 . S
C103 C101 1.361 1_655 S
C103 C104 1.393 . S
C103 N107 1.413 . S
C104 H97 0.930 . S
C104 C103 1.393 . S
C104 C105 1.399 1_655 S
C105 C104 1.399 1_455 S
C105 C106 1.381 . S
C106 H98 0.930 . S
C106 C102 1.390 . S
C106 C105 1.381 . S
N107 C100 1.286 . S
N107 C103 1.413 . S
H108 C113 0.930 . S
H109 C116 0.917 1_565 S
H110 C118 0.930 . S
H111 C112 1.016 . S
C112 H111 1.016 . S
C112 N119 1.286 . S
C113 H108 0.930 . S
C113 C114 1.397 . S
C113 C115 1.361 . S
C114 C113 1.397 . S
C114 C118 1.390 . S
C115 C113 1.361 . S
C115 C116 1.393 . S
C115 N119 1.413 1_545 S
C116 H109 0.917 1_545 S
C116 C115 1.393 . S
C116 C117 1.413 . S
C117 C116 1.413 . S
C117 C118 1.381 . S
C118 H110 0.930 . S
C118 C114 1.390 . S
C118 C117 1.381 . S
N119 C112 1.286 . S
N119 C115 1.413 1_565 S
H120 C125 0.930 . S
H121 C128 0.930 . S
H122 C130 0.930 . S
H123 C124 1.016 . S
C124 H123 1.016 . S
C124 N131 1.286 . S
C125 H120 0.930 . S
C125 C126 1.397 . S
C125 C127 1.361 . S
C126 C125 1.397 . S
C126 C130 1.390 . S
C127 C125 1.361 . S
C127 C128 1.393 . S
C127 N131 1.413 . S
C128 H121 0.930 . S
C128 C127 1.393 . S
C128 C129 1.399 . S
C129 C128 1.399 . S
C129 C130 1.381 . S
C130 H122 0.930 . S
C130 C126 1.390 . S
C130 C129 1.381 . S
N131 C124 1.286 . S
N131 C127 1.413 . S
C132 C133 1.387 . S
C132 H136 0.950 . S
C132 C141 1.390 . S
C133 C132 1.387 . S
C133 C135 1.387 . S
H134 C141 0.950 . S
C135 C133 1.387 . S
C135 C137 1.390 . S
C135 H139 0.950 . S
H136 C132 0.950 . S
C137 C135 1.390 . S
C137 C138 1.387 . S
C137 H140 0.950 . S
C138 C137 1.387 . S
C138 C141 1.387 . S
H139 C135 0.950 . S
H140 C137 0.950 . S
C141 C132 1.390 . S
C141 H134 0.950 . S
C141 C138 1.387 . S
C142 C143 1.387 . S
C142 H146 0.950 . S
C142 C151 1.390 . S
C143 C142 1.387 . S
C143 C145 1.387 . S
H144 C151 0.950 . S
C145 C143 1.387 . S
C145 C147 1.390 . S
C145 H149 0.950 . S
H146 C142 0.950 . S
C147 C145 1.390 . S
C147 C148 1.387 . S
C147 H150 0.950 . S
C148 C147 1.387 . S
C148 C151 1.387 . S
H149 C145 0.950 . S
H150 C147 0.950 . S
C151 C142 1.390 . S
C151 H144 0.950 . S
C151 C148 1.387 . S
C152 C153 1.387 . S
C152 H156 0.950 . S
C152 C161 1.390 . S
C153 C152 1.387 . S
C153 C155 1.387 . S
H154 C161 0.950 . S
C155 C153 1.387 . S
C155 C157 1.390 . S
C155 H159 0.950 . S
H156 C152 0.950 . S
C157 C155 1.390 . S
C157 C158 1.387 . S
C157 H160 0.950 . S
C158 C157 1.387 . S
C158 C161 1.387 . S
H159 C155 0.950 . S
H160 C157 0.950 . S
C161 C152 1.390 . S
C161 H154 0.950 . S
C161 C158 1.387 . S
C162 C163 1.387 . S
C162 H166 0.950 . S
C162 C171 1.390 . S
C163 C162 1.387 . S
C163 C165 1.387 . S
H164 C171 0.950 . S
C165 C163 1.387 . S
C165 C167 1.390 . S
C165 H169 0.950 . S
H166 C162 0.950 . S
C167 C165 1.390 . S
C167 C168 1.387 . S
C167 H170 0.950 . S
C168 C167 1.387 . S
C168 C171 1.387 . S
H169 C165 0.950 . S
H170 C167 0.950 . S
C171 C162 1.390 . S
C171 H164 0.950 . S
C171 C168 1.387 . S
C172 C173 1.387 . S
C172 H176 0.950 . S
C172 C181 1.390 . S
C173 C172 1.387 . S
C173 C175 1.387 . S
H174 C181 0.950 . S
C175 C173 1.387 . S
C175 C177 1.390 . S
C175 H179 0.950 . S
H176 C172 0.950 . S
C177 C175 1.390 . S
C177 C178 1.387 . S
C177 H180 0.950 . S
C178 C177 1.387 . S
C178 C181 1.387 . S
H179 C175 0.950 . S
H180 C177 0.950 . S
C181 C172 1.390 . S
C181 H174 0.950 . S
C181 C178 1.387 . S
C182 C183 1.387 . S
C182 H186 0.950 . S
C182 C191 1.390 . S
C183 C182 1.387 . S
C183 C185 1.387 . S
H184 C191 0.950 . S
C185 C183 1.387 . S
C185 C187 1.390 . S
C185 H189 0.950 . S
H186 C182 0.950 . S
C187 C185 1.390 . S
C187 C188 1.387 . S
C187 H190 0.950 . S
C188 C187 1.387 . S
C188 C191 1.387 . S
H189 C185 0.950 . S
H190 C187 0.950 . S
C191 C182 1.390 . S
C191 H184 0.950 . S
C191 C188 1.387 . S
C192 C193 1.387 . S
C192 H196 0.950 . S
C192 C201 1.390 . S
C193 C192 1.387 . S
C193 C195 1.387 . S
H194 C201 0.950 . S
C195 C193 1.387 . S
C195 C197 1.390 . S
C195 H199 0.950 . S
H196 C192 0.950 . S
C197 C195 1.390 . S
C197 C198 1.387 . S
C197 H200 0.950 . S
C198 C197 1.387 . S
C198 C201 1.387 . S
H199 C195 0.950 . S
H200 C197 0.950 . S
C201 C192 1.390 . S
C201 H194 0.950 . S
C201 C198 1.387 . S
C202 C203 1.387 . S
C202 H206 0.950 . S
C202 C211 1.390 . S
C203 C202 1.387 . S
C203 C205 1.387 . S
H204 C211 0.950 . S
C205 C203 1.387 . S
C205 C207 1.390 . S
C205 H209 0.950 . S
H206 C202 0.950 . S
C207 C205 1.390 . S
C207 C208 1.387 . S
C207 H210 0.950 . S
C208 C207 1.387 . S
C208 C211 1.387 . S
H209 C205 0.950 . S
H210 C207 0.950 . S
C211 C202 1.390 . S
C211 H204 0.950 . S
C211 C208 1.387 . S
C212 C213 1.387 . S
C212 H216 0.950 . S
C212 C221 1.390 . S
C213 C212 1.387 . S
C213 C215 1.387 . S
H214 C221 0.950 . S
C215 C213 1.387 . S
C215 C217 1.390 . S
C215 H219 0.950 . S
H216 C212 0.950 . S
C217 C215 1.390 . S
C217 C218 1.387 . S
C217 H220 0.950 . S
C218 C217 1.387 . S
C218 C221 1.387 . S
H219 C215 0.950 . S
H220 C217 0.950 . S
C221 C212 1.390 . S
C221 H214 0.950 . S
C221 C218 1.387 . S
C222 C223 1.387 . S
C222 H226 0.950 . S
C222 C231 1.390 . S
C223 C222 1.387 . S
C223 C225 1.387 . S
H224 C231 0.950 . S
C225 C223 1.387 . S
C225 C227 1.390 . S
C225 H229 0.950 . S
H226 C222 0.950 . S
C227 C225 1.390 . S
C227 C228 1.387 . S
C227 H230 0.950 . S
C228 C227 1.387 . S
C228 C231 1.387 . S
H229 C225 0.950 . S
H230 C227 0.950 . S
C231 C222 1.390 . S
C231 H224 0.950 . S
C231 C228 1.387 . S
C232 C233 1.387 . S
C232 H236 0.950 . S
C232 C241 1.390 . S
C233 C232 1.387 . S
C233 C235 1.387 . S
H234 C241 0.950 . S
C235 C233 1.387 . S
C235 C237 1.390 . S
C235 H239 0.950 . S
H236 C232 0.950 . S
C237 C235 1.390 . S
C237 C238 1.387 . S
C237 H240 0.950 . S
C238 C237 1.387 . S
C238 C241 1.387 . S
H239 C235 0.950 . S
H240 C237 0.950 . S
C241 C232 1.390 . S
C241 H234 0.950 . S
C241 C238 1.387 . S
C242 C243 1.387 . S
C242 H246 0.950 . S
C242 C251 1.390 . S
C243 C242 1.387 . S
C243 C245 1.387 . S
H244 C251 0.950 . S
C245 C243 1.387 . S
C245 C247 1.390 . S
C245 H249 0.950 . S
H246 C242 0.950 . S
C247 C245 1.390 . S
C247 C248 1.387 . S
C247 H250 0.950 . S
C248 C247 1.387 . S
C248 C251 1.387 . S
H249 C245 0.950 . S
H250 C247 0.950 . S
C251 C242 1.390 . S
C251 H244 0.950 . S
C251 C248 1.387 . S
C252 C253 1.387 . S
C252 H256 0.950 . S
C252 C261 1.390 1_554 S
C253 C252 1.387 . S
C253 C255 1.387 . S
H254 C261 0.950 . S
C255 C253 1.387 . S
C255 C257 1.390 1_554 S
C255 H259 0.950 . S
H256 C252 0.950 . S
C257 C255 1.390 1_556 S
C257 C258 1.387 . S
C257 H260 0.950 . S
C258 C257 1.387 . S
C258 C261 1.387 . S
H259 C255 0.950 . S
H260 C257 0.950 . S
C261 C252 1.390 1_556 S
C261 H254 0.950 . S
C261 C258 1.387 . S
C262 C263 1.387 . S
C262 H266 0.950 . S
C262 C271 1.390 . S
C263 C262 1.387 . S
C263 C265 1.387 . S
H264 C271 0.950 . S
C265 C263 1.387 . S
C265 C267 1.390 . S
C265 H269 0.950 1_545 S
H266 C262 0.950 . S
C267 C265 1.390 . S
C267 C268 1.387 . S
C267 H270 0.950 1_545 S
C268 C267 1.387 . S
C268 C271 1.387 . S
H269 C265 0.950 1_565 S
H270 C267 0.950 1_565 S
C271 C262 1.390 . S
C271 H264 0.950 . S
C271 C268 1.387 . S
C272 C273 1.387 . S
C272 H276 0.950 . S
C272 C281 1.390 . S
C273 C272 1.387 . S
C273 C275 1.387 . S
H274 C281 0.950 . S
C275 C273 1.387 . S
C275 C277 1.390 . S
C275 H279 0.950 . S
H276 C272 0.950 . S
C277 C275 1.390 . S
C277 C278 1.387 . S
C277 H280 0.950 . S
C278 C277 1.387 . S
C278 C281 1.387 . S
H279 C275 0.950 . S
H280 C277 0.950 . S
C281 C272 1.390 . S
C281 H274 0.950 . S
C281 C278 1.387 . S
C282 C283 1.387 . S
C282 H286 0.950 . S
C282 C291 1.390 . S
C283 C282 1.387 . S
C283 C285 1.387 1_545 S
H284 C291 0.950 . S
C285 C283 1.387 1_565 S
C285 C287 1.390 . S
C285 H289 0.950 . S
H286 C282 0.950 . S
C287 C285 1.390 . S
C287 C288 1.387 1_565 S
C287 H290 0.950 . S
C288 C287 1.387 1_545 S
C288 C291 1.387 . S
H289 C285 0.950 . S
H290 C287 0.950 . S
C291 C282 1.390 . S
C291 H284 0.950 . S
C291 C288 1.387 . S
C292 C293 1.387 . S
C292 H296 0.950 . S
C292 C301 1.390 1_556 S
C293 C292 1.387 . S
C293 C295 1.387 . S
H294 C301 0.950 . S
C295 C293 1.387 . S
C295 C297 1.390 1_556 S
C295 H299 0.950 . S
H296 C292 0.950 . S
C297 C295 1.390 1_554 S
C297 C298 1.387 . S
C297 H300 0.950 . S
C298 C297 1.387 . S
C298 C301 1.387 . S
H299 C295 0.950 . S
H300 C297 0.950 . S
C301 C292 1.390 1_554 S
C301 H294 0.950 . S
C301 C298 1.387 . S
C302 C303 1.387 . S
C302 H306 0.950 . S
C302 C311 1.390 . S
C303 C302 1.387 . S
C303 C305 1.387 1_455 S
H304 C311 0.950 . S
C305 C303 1.387 1_655 S
C305 C307 1.390 . S
C305 H309 0.950 . S
H306 C302 0.950 . S
C307 C305 1.390 . S
C307 C308 1.387 1_655 S
C307 H310 0.950 . S
C308 C307 1.387 1_455 S
C308 C311 1.387 . S
H309 C305 0.950 . S
H310 C307 0.950 . S
C311 C302 1.390 . S
C311 H304 0.950 . S
C311 C308 1.387 . S
C133 C8 2.112 . S
C138 C126 2.189 . S
C143 C26 1.417 . S
C148 C100 1.411 . S
C153 C48 1.569 . S
C158 C112 1.594 . S
C163 C19 1.741 . S
C168 C124 1.679 . S
C178 C102 1.360 . S
C173 C36 1.355 . S
C188 C114 1.573 . S
C183 C59 1.520 . S
C193 C28 1.577 . S
C198 C76 1.597 . S
C203 C46 1.331 . S
C208 C90 1.384 . S
C213 C16 1.373 . S
C218 C66 1.367 . S
C228 C78 1.568 . S
C223 C39 1.534 . S
C238 C88 0.902 . S
C233 C56 0.916 . S
C243 C6 1.456 . S
C248 C64 1.437 . S
C258 C93 1.513 . S
C253 C9 1.457 . S
C263 C21 1.523 . S
C268 C69 1.542 . S
C273 C49 1.483 . S
C278 C81 1.480 . S
C288 C117 1.497 . S
C283 C29 1.500 . S
C298 C129 1.648 . S
C293 C41 1.605 . S
C303 C1 1.501 . S
C308 C105 1.507 . S
