# Generated by pormake.
# Topology ftw, (4,12)-cn, num edge types: 1
# Building blocks:
#     Node 0, Type 0, BuildingBlock: NAWXER_clean_linker_0, # of connection points: 4
#     Node 1, Type 0, BuildingBlock: NAWXER_clean_linker_0, # of connection points: 4
#     Node 2, Type 0, BuildingBlock: NAWXER_clean_linker_0, # of connection points: 4
#     Node 3, Type 1, BuildingBlock: QEWDON_clean_sbu_0, # of connection points: 12
#     Edge 4, Type (0, 1), BuildingBlock: CIFDUS_clean_linker_0, # of connection points: 2
#     Edge 5, Type (0, 1), BuildingBlock: CIFDUS_clean_linker_0, # of connection points: 2
#     Edge 6, Type (0, 1), BuildingBlock: CIFDUS_clean_linker_0, # of connection points: 2
#     Edge 7, Type (0, 1), BuildingBlock: CIFDUS_clean_linker_0, # of connection points: 2
#     Edge 8, Type (0, 1), BuildingBlock: CIFDUS_clean_linker_0, # of connection points: 2
#     Edge 9, Type (0, 1), BuildingBlock: CIFDUS_clean_linker_0, # of connection points: 2
#     Edge 10, Type (0, 1), BuildingBlock: CIFDUS_clean_linker_0, # of connection points: 2
#     Edge 11, Type (0, 1), BuildingBlock: CIFDUS_clean_linker_0, # of connection points: 2
#     Edge 12, Type (0, 1), BuildingBlock: CIFDUS_clean_linker_0, # of connection points: 2
#     Edge 13, Type (0, 1), BuildingBlock: CIFDUS_clean_linker_0, # of connection points: 2
#     Edge 14, Type (0, 1), BuildingBlock: CIFDUS_clean_linker_0, # of connection points: 2
#     Edge 15, Type (0, 1), BuildingBlock: CIFDUS_clean_linker_0, # of connection points: 2
# Relax obj value: 0.056
# Max RMSD: 0.157
# Mean RMSD: 0.118
data_MOF--net-ftw--node1-QEWDON_clean_sbu_0--node2-NAWXER_clean_linker_0--edge1-CIFDUS_clean_linker_0
_symmetry_space_group_name_H-M    P1
_symmetry_Int_Tables_number       1
_symmetry_cell_setting            triclinic
loop_
_symmetry_equiv_pos_as_xyz
'x, y, z'
_cell_length_a     24.569476
_cell_length_b     27.229765
_cell_length_c     26.266817
_cell_angle_alpha  90.012573
_cell_angle_beta   90.210448
_cell_angle_gamma 90.006735
loop_
_atom_site_label
_atom_site_type_symbol
_atom_site_fract_x
_atom_site_fract_y
_atom_site_fract_z
_atom_type_partial_charge
C0 C 0.02642 0.66109 0.60549 0.0
C1 C -0.00611 0.66217 0.64961 0.0
C2 C 0.02187 0.62262 0.57023 0.0
C3 C 0.9836 0.58487 0.5774 0.0
C4 C 0.95438 0.62522 0.65567 0.0
C5 C 0.94925 0.58732 0.62004 0.0
C6 C 0.98483 0.53889 0.54657 0.0
C7 C 0.95661 0.65253 0.41996 0.0
C8 C -0.0065 0.65043 0.37911 0.0
C9 C 0.9586 0.6172 0.45914 0.0
C10 C -0.00188 0.57965 0.45855 0.0
C11 C 0.03427 0.6142 0.38003 0.0
C12 C 0.03645 0.57938 0.419 0.0
C13 C -0.00405 0.53657 0.49369 0.0
C14 C 0.96287 0.33199 0.42706 0.0
C15 C 0.00857 0.32658 0.39511 0.0
C16 C 0.96105 0.36932 0.46388 0.0
C17 C 0.00461 0.40228 0.46922 0.0
C18 C 0.05347 0.35785 0.40323 0.0
C19 C 0.05115 0.39559 0.43926 0.0
C20 C -0.0015 0.44839 0.49861 0.0
C21 C 0.01823 0.33492 0.62677 0.0
C22 C 0.97603 0.33513 0.663 0.0
C23 C 0.02003 0.37058 0.58802 0.0
C24 C 0.9795 0.40698 0.58462 0.0
C25 C 0.93427 0.37015 0.65765 0.0
C26 C 0.93624 0.4057 0.61934 0.0
C27 C 0.98524 0.45056 0.55078 0.0
H28 H 0.05675 0.68918 0.59883 0.0
H29 H 0.05034 0.62132 0.53893 0.0
H30 H 0.92906 0.62394 0.68928 0.0
H31 H 0.91977 0.55854 0.62711 0.0
H32 H 0.92462 0.67989 0.42027 0.0
H33 H 0.92766 0.61788 0.48837 0.0
H34 H 0.06391 0.61198 0.34968 0.0
H35 H 0.06739 0.55107 0.41732 0.0
H36 H 0.92716 0.30924 0.42189 0.0
H37 H 0.92425 0.37434 0.48586 0.0
H38 H 0.09004 0.35423 0.38067 0.0
H39 H 0.08519 0.42072 0.44256 0.0
H40 H 0.05125 0.30874 0.62981 0.0
H41 H 0.0546 0.37123 0.56258 0.0
H42 H 0.90041 0.37085 0.68393 0.0
H43 H 0.90446 0.43326 0.61773 0.0
N44 N 0.97938 0.49571 0.57237 0.0
N45 N 0.00287 0.49134 0.47244 0.0
C46 C 0.5783 0.02882 0.70278 0.0
C47 C 0.62213 -0.00413 0.70833 0.0
C48 C 0.54334 0.02582 0.66066 0.0
C49 C 0.5512 -0.01038 0.62327 0.0
C50 C 0.62991 0.95982 0.67065 0.0
C51 C 0.5951 0.95699 0.6285 0.0
C52 C 0.51723 0.98821 0.57644 0.0
C53 C 0.40038 0.95174 0.70356 0.0
C54 C 0.3555 0.98358 0.70855 0.0
C55 C 0.4348 0.95468 0.66123 0.0
C56 C 0.42559 -0.01013 0.62299 0.0
C57 C 0.34599 0.01831 0.66984 0.0
C58 C 0.38042 0.02122 0.62754 0.0
C59 C 0.45975 -0.00834 0.57625 0.0
C60 C 0.38379 0.9477 0.36851 0.0
C61 C 0.34043 0.98149 0.36709 0.0
C62 C 0.42629 0.95341 0.40403 0.0
C63 C 0.42602 -0.00694 0.43837 0.0
C64 C 0.34294 0.02306 0.39881 0.0
C65 C 0.3849 0.02852 0.43424 0.0
C66 C 0.46019 -0.00728 0.48491 0.0
C67 C 0.59951 0.03384 0.37314 0.0
C68 C 0.6391 -0.00342 0.36947 0.0
C69 C 0.55615 0.0294 0.40771 0.0
C70 C 0.55178 0.98768 0.43898 0.0
C71 C 0.63165 0.95331 0.39796 0.0
C72 C 0.589 0.94921 0.43264 0.0
C73 C 0.51736 0.98805 0.48517 0.0
H74 H 0.57156 0.05759 0.73051 0.0
H75 H 0.51095 0.05254 0.65676 0.0
H76 H 0.66261 0.93334 0.67392 0.0
H77 H 0.6024 0.92907 0.59993 0.0
H78 H 0.40846 0.92389 0.73201 0.0
H79 H 0.46795 0.92868 0.65796 0.0
H80 H 0.31235 0.04385 0.67253 0.0
H81 H 0.37189 0.04831 0.59838 0.0
H82 H 0.38312 0.91537 0.3445 0.0
H83 H 0.45704 0.92505 0.40707 0.0
H84 H 0.31104 0.05051 0.39778 0.0
H85 H 0.38369 0.05932 0.46036 0.0
H86 H 0.60387 0.06759 0.35174 0.0
H87 H 0.52841 0.05996 0.41256 0.0
H88 H 0.66029 0.92321 0.39509 0.0
H89 H 0.58664 0.91679 0.45647 0.0
N90 N 0.54341 0.98611 0.53093 0.0
N91 N 0.43386 -0.00578 0.53045 0.0
C92 C 0.37247 0.35006 0.98159 0.0
C93 C 0.34199 0.33409 0.02332 0.0
C94 C 0.41134 0.38643 0.98818 0.0
C95 C 0.42043 0.40648 0.03658 0.0
C96 C 0.35094 0.3547 0.07176 0.0
C97 C 0.39009 0.39092 0.07832 0.0
C98 C 0.45893 0.44639 0.04212 0.0
C99 C 0.57694 0.31371 0.04719 0.0
C100 C 0.58915 0.30284 0.99596 0.0
C101 C 0.55072 0.35747 0.05987 0.0
C102 C 0.53748 0.39112 0.02164 0.0
C103 C 0.57308 0.33604 0.95781 0.0
C104 C 0.54843 0.38022 0.97069 0.0
C105 C 0.51477 0.43914 0.03413 0.0
C106 C 0.61137 0.63695 0.05517 0.0
C107 C 0.63717 0.64213 1.00763 0.0
C108 C 0.57475 0.59909 0.06325 0.0
C109 C 0.56476 0.56528 0.02449 0.0
C110 C 0.62504 0.60897 0.96825 0.0
C111 C 0.58967 0.57017 0.977 0.0
C112 C 0.52777 0.52476 0.03322 0.0
C113 C 0.42898 0.64708 0.97187 0.0
C114 C 0.39833 0.67107 1.00925 0.0
C115 C 0.45261 0.60184 0.98225 0.0
C116 C 0.44683 0.58024 0.0304 0.0
C117 C 0.39194 0.64901 0.05738 0.0
C118 C 0.41597 0.60367 0.06783 0.0
C119 C 0.47176 0.53224 0.03998 0.0
H120 H 0.36621 0.33452 0.94405 0.0
H121 H 0.43375 0.39947 0.95542 0.0
H122 H 0.32704 0.34341 0.1043 0.0
H123 H 0.39637 0.40703 0.11561 0.0
H124 H 0.58965 0.28961 0.07776 0.0
H125 H 0.54264 0.36587 0.09945 0.0
H126 H 0.58072 0.32855 0.91799 0.0
H127 H 0.53818 0.40616 0.94087 0.0
H128 H 0.62075 0.66093 0.08688 0.0
H129 H 0.55541 0.59533 0.10007 0.0
H130 H 0.6434 0.61253 0.93103 0.0
H131 H 0.58122 0.54426 0.94665 0.0
H132 H 0.43439 0.66312 0.93449 0.0
H133 H 0.47503 0.58339 0.95241 0.0
H134 H 0.36729 0.66618 0.08649 0.0
H135 H 0.41048 0.58693 0.10487 0.0
N136 N 0.4389 0.49267 0.04462 0.0
N137 N 0.5476 0.47863 0.03003 0.0
Zn138 Zn 0.05022 0.05649 0.99095 0.0
Zn139 Zn 0.04907 0.06426 0.11766 0.0
O140 O 0.02762 0.02168 0.05708 0.0
H141 H 0.02853 0.98634 0.05645 0.0
C142 C 0.96821 0.1216 0.87412 0.0
O143 O 0.96986 0.07392 0.86655 0.0
Zn144 Zn 0.92383 0.91482 0.11408 0.0
Zn145 Zn 0.92765 0.91832 0.98888 0.0
O146 O 0.93596 0.95898 0.05277 0.0
H147 H 0.93006 -0.0062 0.04902 0.0
Zn148 Zn 0.92209 0.0921 0.9759 0.0
O149 O 0.95352 0.09617 0.04815 0.0
Zn150 Zn 0.89241 0.08481 0.09846 0.0
H151 H 0.98593 0.11503 0.05541 0.0
Zn152 Zn 0.07923 0.89128 0.96979 0.0
O153 O 0.03762 0.88529 0.03672 0.0
H154 H 0.0021 0.87029 0.0393 0.0
Zn155 Zn 0.09258 0.89291 0.09393 0.0
C156 C 0.00576 0.83624 0.8962 0.0
O157 O 0.96763 0.844 0.93014 0.0
O158 O 0.09831 0.11543 1.00688 0.0
O159 O 0.10184 0.11242 0.09163 0.0
O160 O 0.88206 0.85843 1.0063 0.0
O161 O 0.8718 0.8641 0.0906 0.0
O162 O 0.83863 0.09481 0.97984 0.0
O163 O 0.82122 0.09757 0.06321 0.0
C164 C 0.10841 0.98326 0.16054 0.0
O165 O 0.16161 0.88578 0.98275 0.0
O166 O 0.16719 0.87933 0.06726 0.0
O167 O 0.8956 0.95124 0.92342 0.0
C168 C 0.11729 0.13003 0.04933 0.0
O169 O 0.08349 0.01959 0.9277 0.0
C170 C 0.87345 -0.00584 0.16554 0.0
O171 O 0.95242 0.13766 0.9172 0.0
C172 C 0.8605 0.84465 0.04783 0.0
O173 O 0.05347 0.85267 0.9045 0.0
C174 C 0.95224 0.1279 0.17673 0.0
O175 O 0.09347 0.02706 0.16887 0.0
O176 O 0.08913 0.96126 0.12182 0.0
C177 C 0.80549 0.09875 0.01687 0.0
O178 O 0.88566 0.94926 0.17104 0.0
O179 O 0.89296 0.01673 0.12736 0.0
C180 C 0.02256 0.85318 0.16388 0.0
O181 O 0.90425 0.12795 0.15861 0.0
O182 O 0.98941 0.10355 0.15418 0.0
C183 C 0.18926 0.8795 0.02339 0.0
O184 O 0.07226 0.84815 0.15195 0.0
O185 O -0.00602 0.88219 0.13668 0.0
C186 C 0.84712 0.96737 0.92673 0.0
O187 O 0.82327 0.96683 0.97144 0.0
C188 C 0.13393 0.00884 0.93007 0.0
O189 O 0.15968 0.01543 0.97348 0.0
H190 H 0.96 0.23559 0.38897 0.0
H191 H 0.05468 0.33852 0.30078 0.0
H192 H 0.05089 0.28383 0.22777 0.0
H193 H 0.01566 0.20889 0.18618 0.0
H194 H 0.91273 0.11071 0.27088 0.0
H195 H 0.92435 0.16121 0.34746 0.0
C196 C 0.97962 0.24636 0.35381 0.0
C197 C 0.00795 0.29135 0.35116 0.0
C198 C 0.9757 0.21539 0.31095 0.0
C199 C 0.03366 0.30384 0.305 0.0
C200 C 0.03108 0.27271 0.26273 0.0
C201 C -0.00349 0.19842 0.22171 0.0
C202 C 0.96393 0.1561 0.22341 0.0
C203 C 0.00176 0.22864 0.26501 0.0
C204 C 0.93829 0.14312 0.26911 0.0
C205 C 0.94479 0.17204 0.31274 0.0
H206 H 0.653 0.03829 0.2743 0.0
H207 H 0.74167 0.97181 0.3987 0.0
H208 H 0.82478 0.97321 0.34896 0.0
H209 H 0.86992 0.98325 0.26696 0.0
H210 H 0.78375 0.04901 0.14147 0.0
H211 H 0.70309 0.05984 0.195 0.0
C212 C 0.69068 0.02485 0.29076 0.0
C213 C 0.69037 0.00341 0.33972 0.0
C214 C 0.73909 0.02599 0.2618 0.0
C215 C 0.73995 0.98674 0.36051 0.0
C216 C 0.78782 0.98795 0.33227 0.0
C217 C 0.83402 0.00148 0.25189 0.0
C218 C 0.83288 0.01566 0.20051 0.0
C219 C 0.78753 0.00605 0.28242 0.0
C220 C 0.78608 0.03885 0.18121 0.0
C221 C 0.73957 0.04414 0.21165 0.0
H222 H 0.98027 0.75114 0.37516 0.0
H223 H -0.00572 0.62258 0.28008 0.0
H224 H -0.0026 0.67398 0.20428 0.0
H225 H 0.00696 0.75546 0.16537 0.0
H226 H -0.00691 0.88496 0.25822 0.0
H227 H 0.97867 0.83379 0.33409 0.0
C228 C 0.98314 0.73448 0.33777 0.0
C229 C 0.9883 0.68301 0.33352 0.0
C230 C 0.98519 0.76455 0.29383 0.0
C231 C -0.00831 0.66206 0.28465 0.0
C232 C -0.00675 0.69144 0.24116 0.0
C233 C -0.0009 0.77236 0.20203 0.0
C234 C 0.00023 0.82373 0.20625 0.0
C235 C -0.00839 0.74269 0.24532 0.0
C236 C -0.00885 0.84541 0.254 0.0
C237 C 0.98355 0.8161 0.29743 0.0
H238 H 0.33217 0.94938 0.26781 0.0
H239 H 0.23567 -0.0081 0.39754 0.0
H240 H 0.15313 0.98741 0.34639 0.0
H241 H 0.10968 0.98239 0.26266 0.0
H242 H 0.20449 0.94281 0.13171 0.0
H243 H 0.28563 0.93308 0.18531 0.0
C244 C 0.29297 0.9568 0.28499 0.0
C245 C 0.29043 0.9724 0.33612 0.0
C246 C 0.24514 0.9542 0.25513 0.0
C247 C 0.23913 0.98146 0.35789 0.0
C248 C 0.19173 0.97852 0.32878 0.0
C249 C 0.14774 0.96987 0.24631 0.0
C250 C 0.15099 0.96214 0.19361 0.0
C251 C 0.19441 0.96647 0.27707 0.0
C252 C 0.2006 0.94691 0.17247 0.0
C253 C 0.24727 0.94255 0.20304 0.0
H254 H 0.91953 0.70524 0.71385 0.0
H255 H 0.0915 0.70183 0.68005 0.0
H256 H 0.10945 0.75741 0.75056 0.0
H257 H 0.07773 0.80335 0.82512 0.0
H258 H 0.90689 0.80257 0.86285 0.0
H259 H 0.88763 0.75152 0.78844 0.0
C260 C 0.96105 0.71628 0.72192 0.0
C261 C 0.00391 0.69904 0.69102 0.0
C262 C 0.97155 0.74727 0.76379 0.0
C263 C 0.05727 0.71493 0.70202 0.0
C264 C 0.06781 0.74643 0.74292 0.0
C265 C 0.0362 0.79228 0.81699 0.0
C266 C -0.0061 0.80682 0.84975 0.0
C267 C 0.02542 0.76235 0.77443 0.0
C268 C 0.94036 0.7919 0.8385 0.0
C269 C 0.92925 0.76267 0.79586 0.0
H270 H 0.24431 -0.00661 0.7133 0.0
H271 H 0.38598 0.96898 0.80769 0.0
H272 H 0.32913 0.96937 0.88352 0.0
H273 H 0.24055 0.98261 0.92394 0.0
H274 H 0.0988 0.00983 0.83062 0.0
H275 H 0.15421 0.00221 0.75382 0.0
C276 C 0.26284 0.98833 0.75045 0.0
C277 C 0.31966 0.98145 0.75447 0.0
C278 C 0.22985 -0.01082 0.79429 0.0
C279 C 0.34251 0.97391 0.80307 0.0
C280 C 0.31 0.97443 0.84665 0.0
C281 C 0.22153 0.98643 0.88682 0.0
C282 C 0.16553 -0.00279 0.88328 0.0
C283 C 0.25379 0.98277 0.84281 0.0
C284 C 0.14172 0.00155 0.83469 0.0
C285 C 0.17351 -0.00252 0.79066 0.0
H286 H 0.00368 0.23703 0.66692 0.0
H287 H 0.95035 0.35746 0.76128 0.0
H288 H 0.94582 0.30315 0.8347 0.0
H289 H 0.95317 0.22094 0.87207 0.0
H290 H 0.00642 0.09979 0.77883 0.0
H291 H 0.01577 0.15485 0.70589 0.0
C292 C -0.00841 0.2515 0.70363 0.0
C293 C 0.97649 0.30132 0.70801 0.0
C294 C 0.9891 0.21986 0.74623 0.0
C295 C 0.96087 0.31916 0.75614 0.0
C296 C 0.95863 0.28815 0.79844 0.0
C297 C 0.96731 0.20655 0.83597 0.0
C298 C 0.97874 0.15609 0.83114 0.0
C299 C 0.97198 0.23833 0.79388 0.0
C300 C -0.00299 0.13834 0.78382 0.0
C301 C 0.0023 0.16986 0.74192 0.0
H302 H 0.73261 0.98253 0.7117 0.0
H303 H 0.59458 0.01492 0.80729 0.0
H304 H 0.65329 0.01448 0.88229 0.0
H305 H 0.74206 -0.00162 0.92172 0.0
H306 H 0.87961 0.96213 0.82709 0.0
H307 H 0.82285 0.97059 0.75097 0.0
C308 C 0.71525 -0.01073 0.74894 0.0
C309 C 0.65896 -0.00165 0.75363 0.0
C310 C 0.74916 0.98811 0.79224 0.0
C311 C 0.63766 0.00821 0.80222 0.0
C312 C 0.6712 0.00764 0.84531 0.0
C313 C 0.75987 -0.00724 0.88446 0.0
C314 C 0.81497 0.97912 0.8803 0.0
C315 C 0.72678 -0.00321 0.84088 0.0
C316 C 0.83732 0.97246 0.83155 0.0
C317 C 0.80479 0.97708 0.78795 0.0
H318 H 0.32625 0.25592 0.08299 0.0
H319 H 0.265 0.32851 0.94853 0.0
H320 H 0.19031 0.2693 0.94285 0.0
H321 H 0.13939 0.20059 0.98022 0.0
H322 H 0.19827 0.13314 0.11867 0.0
H323 H 0.27684 0.18746 0.11933 0.0
C324 C 0.29635 0.25879 0.0526 0.0
C325 C 0.30023 0.29641 0.01667 0.0
C326 C 0.253 0.22613 0.05072 0.0
C327 C 0.26249 0.29939 0.97652 0.0
C328 C 0.21972 0.26596 0.97351 0.0
C329 C 0.16949 0.19807 0.01044 0.0
C330 C 0.16302 0.1639 0.04972 0.0
C331 C 0.21403 0.22983 0.01106 0.0
C332 C 0.20209 0.16024 0.08868 0.0
C333 C 0.24713 0.19086 0.0889 0.0
H334 H 0.39012 0.75206 0.06858 0.0
H335 H 0.34268 0.69329 0.92235 0.0
H336 H 0.28363 0.76368 0.90764 0.0
H337 H 0.23234 0.83153 0.94365 0.0
H338 H 0.27016 0.88374 0.09481 0.0
H339 H 0.34738 0.82758 0.09967 0.0
C340 C 0.36727 0.75508 0.0333 0.0
C341 C 0.36992 0.71731 0.99706 0.0
C342 C 0.33173 0.79455 0.026 0.0
C343 C 0.34131 0.722 0.95087 0.0
C344 C 0.30731 0.76209 0.94252 0.0
C345 C 0.25861 0.83188 0.97695 0.0
C346 C 0.24505 0.86077 0.01928 0.0
C347 C 0.30039 0.79731 0.9808 0.0
C348 C 0.2795 0.86115 0.06207 0.0
C349 C 0.32327 0.82873 0.06505 0.0
H350 H 0.5893 0.2122 0.04059 0.0
H351 H 0.66736 0.2972 0.92247 0.0
H352 H 0.73261 0.23197 0.90902 0.0
H353 H 0.77793 0.1595 0.94138 0.0
H354 H 0.71219 0.08245 0.0707 0.0
H355 H 0.63135 0.13506 0.06875 0.0
C356 C 0.62041 0.21638 0.01175 0.0
C357 C 0.62335 0.25984 0.98295 0.0
C358 C 0.66021 0.17998 1.00628 0.0
C359 C 0.66321 0.26402 0.94481 0.0
C360 C 0.70111 0.22684 0.93733 0.0
C361 C 0.745 0.15307 0.968 0.0
C362 C 0.75077 0.11756 1.00627 0.0
C363 C 0.70127 0.18571 0.96919 0.0
C364 C 0.70834 0.10984 0.041 0.0
C365 C 0.66256 0.1402 0.04019 0.0
H366 H 0.6392 0.73362 0.04753 0.0
H367 H 0.73178 0.63389 0.95348 0.0
H368 H 0.80861 0.69015 0.95491 0.0
H369 H 0.85284 0.7633 0.99057 0.0
H370 H 0.76508 0.85466 0.09638 0.0
H371 H 0.68361 0.80446 0.08509 0.0
C372 C 0.67634 0.72383 0.02776 0.0
C373 C 0.67998 0.67934 1.0012 0.0
C374 C 0.72168 0.75407 0.03216 0.0
C375 C 0.72756 0.66821 0.97389 0.0
C376 C 0.77192 0.69991 0.97535 0.0
C377 C 0.81587 0.77162 0.01137 0.0
C378 C 0.81451 0.81151 0.04478 0.0
C379 C 0.76997 0.74203 1.00575 0.0
C380 C 0.76682 0.82298 0.07144 0.0
C381 C 0.72027 0.79485 0.06451 0.0
loop_
_geom_bond_atom_site_label_1
_geom_bond_atom_site_label_2
_geom_bond_distance
_geom_bond_site_symmetry_2
_ccdc_geom_bond_type
C0 C1 1.384 1_455 S
C0 C2 1.384 . S
C0 H28 0.931 . S
C1 C0 1.384 1_655 S
C1 C4 1.382 . S
C2 C0 1.384 . S
C2 C3 1.381 1_455 S
C2 H29 0.930 . S
C3 C2 1.381 1_655 S
C3 C5 1.381 . S
C3 C6 1.487 . S
C4 C1 1.382 . S
C4 C5 1.387 . S
C4 H30 0.930 . S
C5 C3 1.381 . S
C5 C4 1.387 . S
C5 H31 0.931 . S
C6 C3 1.487 . S
C6 C13 1.399 1_655 S
C6 N44 1.343 . S
C7 C8 1.384 1_655 S
C7 C9 1.384 . S
C7 H32 0.931 . S
C8 C7 1.384 1_455 S
C8 C11 1.382 . S
C9 C7 1.384 . S
C9 C10 1.381 1_655 S
C9 H33 0.930 . S
C10 C9 1.381 1_455 S
C10 C12 1.381 . S
C10 C13 1.487 . S
C11 C8 1.382 . S
C11 C12 1.387 . S
C11 H34 0.930 . S
C12 C10 1.381 . S
C12 C11 1.387 . S
C12 H35 0.931 . S
C13 C6 1.399 1_455 S
C13 C10 1.487 . S
C13 N45 1.343 . S
C14 C15 1.384 1_655 S
C14 C16 1.384 . S
C14 H36 0.931 . S
C15 C14 1.384 1_455 S
C15 C18 1.382 . S
C16 C14 1.384 . S
C16 C17 1.381 1_655 S
C16 H37 0.930 . S
C17 C16 1.381 1_455 S
C17 C19 1.381 . S
C17 C20 1.487 . S
C18 C15 1.382 . S
C18 C19 1.387 . S
C18 H38 0.930 . S
C19 C17 1.381 . S
C19 C18 1.387 . S
C19 H39 0.931 . S
C20 C17 1.487 . S
C20 C27 1.399 1_455 S
C20 N45 1.343 . S
C21 C22 1.384 1_455 S
C21 C23 1.384 . S
C21 H40 0.931 . S
C22 C21 1.384 1_655 S
C22 C25 1.382 . S
C23 C21 1.384 . S
C23 C24 1.381 1_455 S
C23 H41 0.930 . S
C24 C23 1.381 1_655 S
C24 C26 1.381 . S
C24 C27 1.487 . S
C25 C22 1.382 . S
C25 C26 1.387 . S
C25 H42 0.930 . S
C26 C24 1.381 . S
C26 C25 1.387 . S
C26 H43 0.931 . S
C27 C20 1.399 1_655 S
C27 C24 1.487 . S
C27 N44 1.343 . S
H28 C0 0.931 . S
H29 C2 0.930 . S
H30 C4 0.930 . S
H31 C5 0.931 . S
H32 C7 0.931 . S
H33 C9 0.930 . S
H34 C11 0.930 . S
H35 C12 0.931 . S
H36 C14 0.931 . S
H37 C16 0.930 . S
H38 C18 0.930 . S
H39 C19 0.931 . S
H40 C21 0.931 . S
H41 C23 0.930 . S
H42 C25 0.930 . S
H43 C26 0.931 . S
N44 C6 1.343 . S
N44 C27 1.343 . S
N45 C13 1.343 . S
N45 C20 1.343 . S
C46 C47 1.384 1_545 S
C46 C48 1.384 . S
C46 H74 0.931 . S
C47 C46 1.384 1_565 S
C47 C50 1.382 . S
C48 C46 1.384 . S
C48 C49 1.381 1_545 S
C48 H75 0.930 . S
C49 C48 1.381 1_565 S
C49 C51 1.381 . S
C49 C52 1.487 . S
C50 C47 1.382 . S
C50 C51 1.387 . S
C50 H76 0.930 . S
C51 C49 1.381 . S
C51 C50 1.387 . S
C51 H77 0.931 . S
C52 C49 1.487 . S
C52 C59 1.399 1_565 S
C52 N90 1.343 . S
C53 C54 1.384 1_565 S
C53 C55 1.384 . S
C53 H78 0.931 . S
C54 C53 1.384 1_545 S
C54 C57 1.382 . S
C55 C53 1.384 . S
C55 C56 1.381 1_565 S
C55 H79 0.930 . S
C56 C55 1.381 1_545 S
C56 C58 1.381 . S
C56 C59 1.487 . S
C57 C54 1.382 . S
C57 C58 1.387 . S
C57 H80 0.930 . S
C58 C56 1.381 . S
C58 C57 1.387 . S
C58 H81 0.931 . S
C59 C52 1.399 1_545 S
C59 C56 1.487 . S
C59 N91 1.343 . S
C60 C61 1.384 1_565 S
C60 C62 1.384 . S
C60 H82 0.931 . S
C61 C60 1.384 1_545 S
C61 C64 1.382 . S
C62 C60 1.384 . S
C62 C63 1.381 1_565 S
C62 H83 0.930 . S
C63 C62 1.381 1_545 S
C63 C65 1.381 . S
C63 C66 1.487 . S
C64 C61 1.382 . S
C64 C65 1.387 . S
C64 H84 0.930 . S
C65 C63 1.381 . S
C65 C64 1.387 . S
C65 H85 0.931 . S
C66 C63 1.487 . S
C66 C73 1.399 1_545 S
C66 N91 1.343 . S
C67 C68 1.384 1_545 S
C67 C69 1.384 . S
C67 H86 0.931 . S
C68 C67 1.384 1_565 S
C68 C71 1.382 . S
C69 C67 1.384 . S
C69 C70 1.381 1_545 S
C69 H87 0.930 . S
C70 C69 1.381 1_565 S
C70 C72 1.381 . S
C70 C73 1.487 . S
C71 C68 1.382 . S
C71 C72 1.387 . S
C71 H88 0.930 . S
C72 C70 1.381 . S
C72 C71 1.387 . S
C72 H89 0.931 . S
C73 C66 1.399 1_565 S
C73 C70 1.487 . S
C73 N90 1.343 . S
H74 C46 0.931 . S
H75 C48 0.930 . S
H76 C50 0.930 . S
H77 C51 0.931 . S
H78 C53 0.931 . S
H79 C55 0.930 . S
H80 C57 0.930 . S
H81 C58 0.931 . S
H82 C60 0.931 . S
H83 C62 0.930 . S
H84 C64 0.930 . S
H85 C65 0.931 . S
H86 C67 0.931 . S
H87 C69 0.930 . S
H88 C71 0.930 . S
H89 C72 0.931 . S
N90 C52 1.343 . S
N90 C73 1.343 . S
N91 C59 1.343 . S
N91 C66 1.343 . S
C92 C93 1.384 1_556 S
C92 C94 1.384 . S
C92 H120 0.931 . S
C93 C92 1.384 1_554 S
C93 C96 1.382 . S
C94 C92 1.384 . S
C94 C95 1.381 1_556 S
C94 H121 0.930 . S
C95 C94 1.381 1_554 S
C95 C97 1.381 . S
C95 C98 1.487 . S
C96 C93 1.382 . S
C96 C97 1.387 . S
C96 H122 0.930 . S
C97 C95 1.381 . S
C97 C96 1.387 . S
C97 H123 0.931 . S
C98 C95 1.487 . S
C98 C105 1.399 . S
C98 N136 1.343 . S
C99 C100 1.384 . S
C99 C101 1.384 . S
C99 H124 0.931 . S
C100 C99 1.384 . S
C100 C103 1.382 1_554 S
C101 C99 1.384 . S
C101 C102 1.381 . S
C101 H125 0.930 . S
C102 C101 1.381 . S
C102 C104 1.381 1_554 S
C102 C105 1.487 . S
C103 C100 1.382 1_556 S
C103 C104 1.387 . S
C103 H126 0.930 . S
C104 C102 1.381 1_556 S
C104 C103 1.387 . S
C104 H127 0.931 . S
C105 C98 1.399 . S
C105 C102 1.487 . S
C105 N137 1.343 . S
C106 C107 1.384 . S
C106 C108 1.384 . S
C106 H128 0.931 . S
C107 C106 1.384 . S
C107 C110 1.382 1_554 S
C108 C106 1.384 . S
C108 C109 1.381 . S
C108 H129 0.930 . S
C109 C108 1.381 . S
C109 C111 1.381 1_554 S
C109 C112 1.487 . S
C110 C107 1.382 1_556 S
C110 C111 1.387 . S
C110 H130 0.930 . S
C111 C109 1.381 1_556 S
C111 C110 1.387 . S
C111 H131 0.931 . S
C112 C109 1.487 . S
C112 C119 1.399 . S
C112 N137 1.343 . S
C113 C114 1.384 1_556 S
C113 C115 1.384 . S
C113 H132 0.931 . S
C114 C113 1.384 1_554 S
C114 C117 1.382 . S
C115 C113 1.384 . S
C115 C116 1.381 1_556 S
C115 H133 0.930 . S
C116 C115 1.381 1_554 S
C116 C118 1.381 . S
C116 C119 1.487 . S
C117 C114 1.382 . S
C117 C118 1.387 . S
C117 H134 0.930 . S
C118 C116 1.381 . S
C118 C117 1.387 . S
C118 H135 0.931 . S
C119 C112 1.399 . S
C119 C116 1.487 . S
C119 N136 1.343 . S
H120 C92 0.931 . S
H121 C94 0.930 . S
H122 C96 0.930 . S
H123 C97 0.931 . S
H124 C99 0.931 . S
H125 C101 0.930 . S
H126 C103 0.930 . S
H127 C104 0.931 . S
H128 C106 0.931 . S
H129 C108 0.930 . S
H130 C110 0.930 . S
H131 C111 0.931 . S
H132 C113 0.931 . S
H133 C115 0.930 . S
H134 C117 0.930 . S
H135 C118 0.931 . S
N136 C98 1.343 . S
N136 C119 1.343 . S
N137 C105 1.343 . S
N137 C112 1.343 . S
Zn138 O140 1.933 1_556 S
Zn138 O158 1.985 . S
Zn138 O169 1.955 . S
Zn139 O140 1.911 . S
Zn139 O159 1.970 . S
Zn139 O175 1.945 . S
Zn139 O182 1.981 . S
O140 Zn138 1.933 1_554 S
O140 Zn139 1.911 . S
O140 H141 0.841 . S
H141 O140 0.841 . S
C142 O143 1.246 . S
C142 O171 1.276 1_455 S
O143 C142 1.246 . S
Zn144 O146 1.911 . S
Zn144 O161 1.970 . S
Zn144 O178 1.945 . S
Zn144 O185 1.981 . S
Zn145 O146 1.933 1_556 S
Zn145 O160 1.985 . S
Zn145 O167 1.955 . S
O146 Zn144 1.911 . S
O146 Zn145 1.933 1_554 S
O146 H147 0.841 . S
H147 O146 0.841 . S
Zn148 O149 1.933 1_556 S
Zn148 O162 1.985 . S
Zn148 O171 1.955 . S
O149 Zn148 1.933 1_554 S
O149 Zn150 1.911 . S
O149 H151 0.841 . S
Zn150 O149 1.911 . S
Zn150 O163 1.970 . S
Zn150 O179 1.981 . S
Zn150 O181 1.945 . S
H151 O149 0.841 . S
Zn152 O153 1.933 1_556 S
Zn152 O165 1.985 . S
Zn152 O173 1.955 . S
O153 Zn152 1.933 1_554 S
O153 H154 0.841 . S
O153 Zn155 1.911 . S
H154 O153 0.841 . S
Zn155 O153 1.911 . S
Zn155 O166 1.970 . S
Zn155 O176 1.981 . S
Zn155 O184 1.945 . S
C156 O157 1.246 . S
C156 O173 1.276 1_655 S
O157 C156 1.246 . S
O158 Zn138 1.985 . S
O158 C168 1.245 1_556 S
O159 Zn139 1.970 . S
O159 C168 1.263 . S
O160 Zn145 1.985 . S
O160 C172 1.245 1_556 S
O161 Zn144 1.970 . S
O161 C172 1.263 . S
O162 Zn148 1.985 . S
O162 C177 1.245 1_556 S
O163 Zn150 1.970 . S
O163 C177 1.263 . S
C164 O175 1.263 . S
C164 O176 1.244 1_545 S
O165 Zn152 1.985 . S
O165 C183 1.245 1_556 S
O166 Zn155 1.970 . S
O166 C183 1.263 . S
O167 Zn145 1.955 . S
O167 C186 1.276 1_565 S
C168 O158 1.245 1_554 S
C168 O159 1.263 . S
O169 Zn138 1.955 . S
O169 C188 1.276 1_545 S
C170 O178 1.263 1_545 S
C170 O179 1.244 . S
O171 C142 1.276 1_655 S
O171 Zn148 1.955 . S
C172 O160 1.245 1_554 S
C172 O161 1.263 . S
O173 Zn152 1.955 . S
O173 C156 1.276 1_455 S
C174 O181 1.263 1_455 S
C174 O182 1.244 . S
O175 Zn139 1.945 . S
O175 C164 1.263 . S
O176 Zn155 1.981 . S
O176 C164 1.244 1_565 S
C177 O162 1.245 1_554 S
C177 O163 1.263 . S
O178 Zn144 1.945 . S
O178 C170 1.263 1_565 S
O179 Zn150 1.981 . S
O179 C170 1.244 . S
C180 O184 1.263 . S
C180 O185 1.244 1_455 S
O181 Zn150 1.945 . S
O181 C174 1.263 1_655 S
O182 Zn139 1.981 . S
O182 C174 1.244 . S
C183 O165 1.245 1_554 S
C183 O166 1.263 . S
O184 Zn155 1.945 . S
O184 C180 1.263 . S
O185 Zn144 1.981 . S
O185 C180 1.244 1_655 S
C186 O167 1.276 1_545 S
C186 O187 1.246 . S
O187 C186 1.246 . S
C188 O169 1.276 1_565 S
C188 O189 1.246 . S
O189 C188 1.246 . S
H190 C196 0.930 . S
H191 C199 0.930 . S
H192 C200 0.930 . S
H193 C201 0.930 . S
H194 C204 0.930 . S
H195 C205 0.930 . S
C196 H190 0.930 . S
C196 C197 1.355 1_655 S
C196 C198 1.415 . S
C197 C196 1.355 1_455 S
C197 C199 1.419 . S
C198 C196 1.415 . S
C198 C203 1.425 1_655 S
C198 C205 1.409 . S
C199 H191 0.930 . S
C199 C197 1.419 . S
C199 C200 1.362 . S
C200 H192 0.930 . S
C200 C199 1.362 . S
C200 C203 1.409 . S
C201 H193 0.930 . S
C201 C202 1.355 . S
C201 C203 1.415 . S
C202 C201 1.355 . S
C202 C204 1.419 1_455 S
C203 C198 1.425 1_455 S
C203 C200 1.409 . S
C203 C201 1.415 . S
C204 H194 0.930 . S
C204 C202 1.419 1_655 S
C204 C205 1.362 . S
C205 H195 0.930 . S
C205 C198 1.409 . S
C205 C204 1.362 . S
H206 C212 0.930 . S
H207 C215 0.930 . S
H208 C216 0.930 . S
H209 C217 0.930 . S
H210 C220 0.930 . S
H211 C221 0.930 . S
C212 H206 0.930 . S
C212 C213 1.355 1_545 S
C212 C214 1.415 . S
C213 C212 1.355 1_565 S
C213 C215 1.419 . S
C214 C212 1.415 . S
C214 C219 1.425 1_545 S
C214 C221 1.409 . S
C215 H207 0.930 . S
C215 C213 1.419 . S
C215 C216 1.362 . S
C216 H208 0.930 . S
C216 C215 1.362 . S
C216 C219 1.409 . S
C217 H209 0.930 . S
C217 C218 1.355 1_565 S
C217 C219 1.415 . S
C218 C217 1.355 1_545 S
C218 C220 1.419 . S
C219 C214 1.425 1_565 S
C219 C216 1.409 . S
C219 C217 1.415 . S
C220 H210 0.930 . S
C220 C218 1.419 . S
C220 C221 1.362 . S
C221 H211 0.930 . S
C221 C214 1.409 . S
C221 C220 1.362 . S
H222 C228 0.930 . S
H223 C231 0.930 . S
H224 C232 0.930 . S
H225 C233 0.930 . S
H226 C236 0.930 . S
H227 C237 0.930 . S
C228 H222 0.930 . S
C228 C229 1.355 1_455 S
C228 C230 1.415 . S
C229 C228 1.355 1_655 S
C229 C231 1.419 . S
C230 C228 1.415 . S
C230 C235 1.425 1_455 S
C230 C237 1.409 . S
C231 H223 0.930 . S
C231 C229 1.419 . S
C231 C232 1.362 . S
C232 H224 0.930 . S
C232 C231 1.362 . S
C232 C235 1.409 . S
C233 H225 0.930 . S
C233 C234 1.355 . S
C233 C235 1.415 . S
C234 C233 1.355 . S
C234 C236 1.419 1_655 S
C235 C230 1.425 1_655 S
C235 C232 1.409 . S
C235 C233 1.415 . S
C236 H226 0.930 . S
C236 C234 1.419 1_455 S
C236 C237 1.362 . S
C237 H227 0.930 . S
C237 C230 1.409 . S
C237 C236 1.362 . S
H238 C244 0.931 . S
H239 C247 0.930 . S
H240 C248 0.930 . S
H241 C249 0.930 . S
H242 C252 0.930 . S
H243 C253 0.930 . S
C244 H238 0.931 . S
C244 C245 1.355 . S
C244 C246 1.414 1_545 S
C245 C244 1.355 . S
C245 C247 1.419 1_545 S
C246 C244 1.414 1_565 S
C246 C251 1.425 . S
C246 C253 1.409 . S
C247 H239 0.930 . S
C247 C245 1.419 1_565 S
C247 C248 1.362 . S
C248 H240 0.930 . S
C248 C247 1.362 . S
C248 C251 1.409 . S
C249 H241 0.930 . S
C249 C250 1.355 . S
C249 C251 1.415 . S
C250 C249 1.355 . S
C250 C252 1.419 . S
C251 C246 1.425 . S
C251 C248 1.409 . S
C251 C249 1.415 . S
C252 H242 0.930 . S
C252 C250 1.419 . S
C252 C253 1.362 . S
C253 H243 0.930 . S
C253 C246 1.409 . S
C253 C252 1.362 . S
H254 C260 0.930 . S
H255 C263 0.930 . S
H256 C264 0.930 . S
H257 C265 0.930 . S
H258 C268 0.930 . S
H259 C269 0.930 . S
C260 H254 0.930 . S
C260 C261 1.349 1_655 S
C260 C262 1.415 . S
C261 C260 1.349 1_455 S
C261 C263 1.426 . S
C262 C260 1.415 . S
C262 C267 1.425 1_655 S
C262 C269 1.409 . S
C263 H255 0.930 . S
C263 C261 1.426 . S
C263 C264 1.362 . S
C264 H256 0.930 . S
C264 C263 1.362 . S
C264 C267 1.409 . S
C265 H257 0.930 . S
C265 C266 1.355 1_455 S
C265 C267 1.415 . S
C266 C265 1.355 1_655 S
C266 C268 1.419 . S
C267 C262 1.425 1_455 S
C267 C264 1.409 . S
C267 C265 1.415 . S
C268 H258 0.930 . S
C268 C266 1.419 . S
C268 C269 1.362 . S
C269 H259 0.930 . S
C269 C262 1.409 . S
C269 C268 1.362 . S
H270 C276 0.930 . S
H271 C279 0.930 . S
H272 C280 0.930 . S
H273 C281 0.930 . S
H274 C284 0.930 . S
H275 C285 0.930 . S
C276 H270 0.930 . S
C276 C277 1.355 1_545 S
C276 C278 1.415 . S
C277 C276 1.355 1_565 S
C277 C279 1.419 . S
C278 C276 1.415 . S
C278 C283 1.425 1_545 S
C278 C285 1.409 . S
C279 H271 0.930 . S
C279 C277 1.419 . S
C279 C280 1.362 . S
C280 H272 0.930 . S
C280 C279 1.362 . S
C280 C283 1.409 . S
C281 H273 0.930 . S
C281 C282 1.355 . S
C281 C283 1.415 . S
C282 C281 1.355 . S
C282 C284 1.419 1_565 S
C283 C278 1.425 1_565 S
C283 C280 1.409 . S
C283 C281 1.415 . S
C284 H274 0.930 . S
C284 C282 1.419 1_545 S
C284 C285 1.362 . S
C285 H275 0.930 . S
C285 C278 1.409 . S
C285 C284 1.362 . S
H286 C292 0.930 . S
H287 C295 0.930 . S
H288 C296 0.930 . S
H289 C297 0.930 1_655 S
H290 C300 0.930 . S
H291 C301 0.930 . S
C292 H286 0.930 . S
C292 C293 1.353 1_455 S
C292 C294 1.415 . S
C293 C292 1.353 1_655 S
C293 C295 1.421 . S
C294 C292 1.415 . S
C294 C299 1.427 . S
C294 C301 1.409 . S
C295 H287 0.930 . S
C295 C293 1.421 . S
C295 C296 1.362 . S
C296 H288 0.930 . S
C296 C295 1.362 . S
C296 C299 1.408 1_655 S
C297 H289 0.930 1_455 S
C297 C298 1.355 . S
C297 C299 1.415 . S
C298 C297 1.355 . S
C298 C300 1.419 . S
C299 C294 1.427 . S
C299 C296 1.408 1_455 S
C299 C297 1.415 . S
C300 H290 0.930 . S
C300 C298 1.419 . S
C300 C301 1.362 . S
C301 H291 0.930 . S
C301 C294 1.409 . S
C301 C300 1.362 . S
H302 C308 0.930 . S
H303 C311 0.930 . S
H304 C312 0.930 . S
H305 C313 0.930 . S
H306 C316 0.930 . S
H307 C317 0.930 . S
C308 H302 0.930 . S
C308 C309 1.355 1_565 S
C308 C310 1.415 . S
C309 C308 1.355 1_545 S
C309 C311 1.419 . S
C310 C308 1.415 . S
C310 C315 1.425 1_565 S
C310 C317 1.409 . S
C311 H303 0.930 . S
C311 C309 1.419 . S
C311 C312 1.362 . S
C312 H304 0.930 . S
C312 C311 1.362 . S
C312 C315 1.409 . S
C313 H305 0.930 . S
C313 C314 1.355 . S
C313 C315 1.415 . S
C314 C313 1.355 . S
C314 C316 1.419 1_545 S
C315 C310 1.425 1_545 S
C315 C312 1.409 . S
C315 C313 1.415 . S
C316 H306 0.930 . S
C316 C314 1.419 1_565 S
C316 C317 1.362 . S
C317 H307 0.930 . S
C317 C310 1.409 . S
C317 C316 1.362 . S
H318 C324 0.930 . S
H319 C327 0.930 1_556 S
H320 C328 0.930 . S
H321 C329 0.929 1_556 S
H322 C332 0.930 . S
H323 C333 0.930 . S
C324 H318 0.930 . S
C324 C325 1.355 . S
C324 C326 1.415 . S
C325 C324 1.355 . S
C325 C327 1.419 . S
C326 C324 1.415 . S
C326 C331 1.425 . S
C326 C333 1.409 . S
C327 H319 0.930 1_554 S
C327 C325 1.419 . S
C327 C328 1.362 1_554 S
C328 H320 0.930 . S
C328 C327 1.362 1_556 S
C328 C331 1.409 1_556 S
C329 H321 0.929 1_554 S
C329 C330 1.355 . S
C329 C331 1.415 . S
C330 C329 1.355 . S
C330 C332 1.419 . S
C331 C326 1.425 . S
C331 C328 1.409 1_554 S
C331 C329 1.415 . S
C332 H322 0.930 . S
C332 C330 1.419 . S
C332 C333 1.362 . S
C333 H323 0.930 . S
C333 C326 1.409 . S
C333 C332 1.362 . S
H334 C340 0.930 . S
H335 C343 0.930 . S
H336 C344 0.930 . S
H337 C345 0.930 . S
H338 C348 0.930 . S
H339 C349 0.930 . S
C340 H334 0.930 . S
C340 C341 1.355 . S
C340 C342 1.415 . S
C341 C340 1.355 . S
C341 C343 1.419 1_554 S
C342 C340 1.415 . S
C342 C347 1.425 1_554 S
C342 C349 1.409 . S
C343 H335 0.930 . S
C343 C341 1.419 1_556 S
C343 C344 1.362 . S
C344 H336 0.930 . S
C344 C343 1.362 . S
C344 C347 1.409 . S
C345 H337 0.930 . S
C345 C346 1.355 1_556 S
C345 C347 1.415 . S
C346 C345 1.355 1_554 S
C346 C348 1.419 . S
C347 C342 1.425 1_556 S
C347 C344 1.409 . S
C347 C345 1.415 . S
C348 H338 0.930 . S
C348 C346 1.419 . S
C348 C349 1.362 . S
C349 H339 0.930 . S
C349 C342 1.409 . S
C349 C348 1.362 . S
H350 C356 0.930 . S
H351 C359 0.930 . S
H352 C360 0.930 . S
H353 C361 0.930 1_556 S
H354 C364 0.930 . S
H355 C365 0.930 . S
C356 H350 0.930 . S
C356 C357 1.355 . S
C356 C358 1.415 . S
C357 C356 1.355 . S
C357 C359 1.419 1_554 S
C358 C356 1.415 . S
C358 C363 1.425 . S
C358 C365 1.409 . S
C359 H351 0.930 . S
C359 C357 1.419 1_556 S
C359 C360 1.362 . S
C360 H352 0.930 . S
C360 C359 1.362 . S
C360 C363 1.409 1_556 S
C361 H353 0.930 1_554 S
C361 C362 1.355 . S
C361 C363 1.415 . S
C362 C361 1.355 . S
C362 C364 1.419 . S
C363 C358 1.425 . S
C363 C360 1.409 1_554 S
C363 C361 1.415 . S
C364 H354 0.930 . S
C364 C362 1.419 . S
C364 C365 1.362 . S
C365 H355 0.930 . S
C365 C358 1.409 . S
C365 C364 1.362 . S
H366 C372 0.930 . S
H367 C375 0.930 1_556 S
H368 C376 0.930 . S
H369 C377 0.930 1_556 S
H370 C380 0.930 . S
H371 C381 0.930 . S
C372 H366 0.930 . S
C372 C373 1.355 . S
C372 C374 1.415 . S
C373 C372 1.355 . S
C373 C375 1.419 . S
C374 C372 1.415 . S
C374 C379 1.425 . S
C374 C381 1.409 . S
C375 H367 0.930 1_554 S
C375 C373 1.419 . S
C375 C376 1.362 1_554 S
C376 H368 0.930 . S
C376 C375 1.362 1_556 S
C376 C379 1.409 1_556 S
C377 H369 0.930 1_554 S
C377 C378 1.355 . S
C377 C379 1.415 . S
C378 C377 1.355 . S
C378 C380 1.419 . S
C379 C374 1.425 . S
C379 C376 1.409 1_554 S
C379 C377 1.415 . S
C380 H370 0.930 . S
C380 C378 1.419 . S
C380 C381 1.362 . S
C381 H371 0.930 . S
C381 C374 1.409 . S
C381 C380 1.362 . S
C202 C174 1.854 . S
C197 C15 1.920 . S
C218 C170 1.394 . S
C213 C68 1.484 . S
C234 C180 1.856 1_655 S
C229 C8 1.928 1_655 S
C250 C164 1.376 1_565 S
C245 C61 1.478 . S
C261 C1 2.052 1_455 S
C266 C156 1.945 . S
C282 C188 1.521 . S
C277 C54 1.614 1_565 S
C293 C22 2.041 . S
C298 C142 1.973 . S
C309 C47 1.615 1_545 S
C314 C186 1.515 . S
C325 C93 1.036 . S
C330 C168 0.985 . S
C341 C114 1.048 . S
C346 C183 1.043 . S
C362 C177 1.066 . S
C357 C100 1.045 . S
C378 C172 0.989 . S
C373 C107 1.033 . S
