# Generated by pormake.
# Topology pth, (4,4)-cn, num edge types: 1
# Building blocks:
#     Node 0, Type 0, BuildingBlock: AZAVOO_clean_sbu_0, # of connection points: 4
#     Node 1, Type 0, BuildingBlock: AZAVOO_clean_sbu_0, # of connection points: 4
#     Node 2, Type 0, BuildingBlock: AZAVOO_clean_sbu_0, # of connection points: 4
#     Node 3, Type 1, BuildingBlock: MIFKUJ_clean_linker_1, # of connection points: 4
#     Node 4, Type 1, BuildingBlock: MIFKUJ_clean_linker_1, # of connection points: 4
#     Node 5, Type 1, BuildingBlock: MIFKUJ_clean_linker_1, # of connection points: 4
#     Edge 6, Type (0, 1), BuildingBlock: KIFKEQ_clean_linker_1, # of connection points: 2
#     Edge 7, Type (0, 1), BuildingBlock: KIFKEQ_clean_linker_1, # of connection points: 2
#     Edge 8, Type (0, 1), BuildingBlock: KIFKEQ_clean_linker_1, # of connection points: 2
#     Edge 9, Type (0, 1), BuildingBlock: KIFKEQ_clean_linker_1, # of connection points: 2
#     Edge 10, Type (0, 1), BuildingBlock: KIFKEQ_clean_linker_1, # of connection points: 2
#     Edge 11, Type (0, 1), BuildingBlock: KIFKEQ_clean_linker_1, # of connection points: 2
#     Edge 12, Type (0, 1), BuildingBlock: KIFKEQ_clean_linker_1, # of connection points: 2
#     Edge 13, Type (0, 1), BuildingBlock: KIFKEQ_clean_linker_1, # of connection points: 2
#     Edge 14, Type (0, 1), BuildingBlock: KIFKEQ_clean_linker_1, # of connection points: 2
#     Edge 15, Type (0, 1), BuildingBlock: KIFKEQ_clean_linker_1, # of connection points: 2
#     Edge 16, Type (0, 1), BuildingBlock: KIFKEQ_clean_linker_1, # of connection points: 2
#     Edge 17, Type (0, 1), BuildingBlock: KIFKEQ_clean_linker_1, # of connection points: 2
# Relax obj value: 0.066
# Max RMSD: 0.212
# Mean RMSD: 0.113
data_MOF--net-pth--node1-AZAVOO_clean_sbu_0--node2-MIFKUJ_clean_linker_1--edge1-KIFKEQ_clean_linker_1
_symmetry_space_group_name_H-M    P1
_symmetry_Int_Tables_number       1
_symmetry_cell_setting            triclinic
loop_
_symmetry_equiv_pos_as_xyz
'x, y, z'
_cell_length_a     29.856411
_cell_length_b     30.420667
_cell_length_c     64.102519
_cell_angle_alpha  90.938584
_cell_angle_beta   92.552529
_cell_angle_gamma 121.91134
loop_
_atom_site_label
_atom_site_type_symbol
_atom_site_fract_x
_atom_site_fract_y
_atom_site_fract_z
_atom_type_partial_charge
Mg0 Mg 0.08651 0.07208 0.03134 0.0
O1 O 0.01286 0.01341 0.01096 0.0
O2 O 0.9908 0.05752 0.98971 0.0
Mg3 Mg 0.05347 0.14383 -0.00512 0.0
C4 C 0.9826 0.01494 -0.00333 0.0
C5 C 0.106 -0.00178 0.05769 0.0
O6 O 0.15091 0.02401 0.04859 0.0
O7 O 0.03928 0.09624 0.05007 0.0
O8 O 0.02564 0.14416 0.02767 0.0
O9 O 0.13873 0.06989 0.00795 0.0
O10 O 0.10984 0.12349 0.00741 0.0
C11 C 0.02186 0.12556 0.04569 0.0
C12 C 0.13555 0.10578 -0.00128 0.0
O13 O 0.07092 0.00914 0.05389 0.0
Mg14 Mg 0.96906 0.02777 0.35312 0.0
O15 O 0.03865 0.04484 0.37576 0.0
O16 O 0.06186 0.11575 0.39553 0.0
Mg17 Mg 0.00483 0.1419 0.38673 0.0
C18 C 0.06819 0.07893 0.39011 0.0
C19 C 0.94841 0.92535 0.33133 0.0
O20 O 0.90401 0.90694 0.34067 0.0
O21 O 0.02258 0.09641 0.33349 0.0
O22 O 0.03869 0.16324 0.35457 0.0
O23 O 0.91125 0.97958 0.3769 0.0
O24 O 0.94559 0.06341 0.37397 0.0
C25 C 0.04335 0.145 0.33727 0.0
C26 C 0.91547 0.02211 0.38358 0.0
O27 O 0.98317 0.97348 0.33353 0.0
Mg28 Mg 0.98994 0.99676 0.69021 0.0
O29 O 0.05071 0.0694 0.71012 0.0
O30 O 0.00664 0.08773 0.73236 0.0
Mg31 Mg 0.91869 0.02625 0.72742 0.0
C32 C 0.04976 0.09765 0.72485 0.0
C33 C 0.06008 0.97689 0.66251 0.0
O34 O 0.0322 0.93206 0.67117 0.0
O35 O 0.96288 0.04284 0.67173 0.0
O36 O 0.91634 0.05537 0.69484 0.0
O37 O -0.00481 0.94551 0.71356 0.0
O38 O 0.93922 0.97203 0.71451 0.0
C39 C 0.9336 0.05989 0.67663 0.0
C40 C 0.95853 0.94701 0.723 0.0
O41 O 0.05208 0.01286 0.66712 0.0
H42 H 0.0872 0.49654 0.15293 0.0
H43 H 0.07755 0.42219 0.13302 0.0
H44 H 0.93344 0.31984 0.16295 0.0
H45 H 0.94325 0.39424 0.18281 0.0
H46 H 0.02513 0.53696 0.15458 0.0
H47 H 0.10021 0.47398 0.19968 0.0
H48 H 0.11512 0.41467 0.21965 0.0
H49 H 0.98068 0.37617 0.25535 0.0
H50 H 0.9653 0.43497 0.23508 0.0
H51 H 0.93935 0.55503 0.22804 0.0
H52 H 0.92914 0.61676 0.24887 0.0
H53 H 0.07913 0.742 0.22973 0.0
H54 H 0.08968 0.67958 0.20926 0.0
H55 H 0.02028 0.53425 0.23184 0.0
H56 H 0.95483 0.60957 0.17867 0.0
H57 H 0.96637 0.68383 0.15957 0.0
H58 H 0.11746 0.71534 0.14073 0.0
H59 H 0.10613 0.64203 0.16008 0.0
C60 C 0.0161 0.45081 0.16939 0.0
C61 C 0.05349 0.45811 0.15513 0.0
C62 C 0.04815 0.41564 0.14393 0.0
C63 C 0.00488 0.36531 0.14656 0.0
C64 C 0.96704 0.35822 0.16059 0.0
C65 C 0.97273 0.4006 0.17197 0.0
C66 C 0.0223 0.49534 0.18184 0.0
C67 C 0.02448 0.53658 0.17148 0.0
C68 C 0.02342 0.49579 0.2039 0.0
C69 C 0.03124 0.45855 0.21572 0.0
C70 C 0.07331 0.45209 0.21155 0.0
C71 C 0.08191 0.41826 0.22298 0.0
C72 C 0.04912 0.3909 0.23905 0.0
C73 C 0.00692 0.39723 0.24318 0.0
C74 C -0.00194 0.43075 0.23162 0.0
C75 C 0.01501 0.61277 0.21697 0.0
C76 C 0.97008 0.59578 0.22837 0.0
C77 C 0.96411 0.63117 0.24012 0.0
C78 C 0.00315 0.68434 0.24083 0.0
C79 C 0.0485 0.70126 0.22958 0.0
C80 C 0.0544 0.66574 0.21776 0.0
C81 C 0.02016 0.5744 0.2045 0.0
C82 C 0.02055 0.53437 0.21492 0.0
C83 C 0.02432 0.57664 0.1826 0.0
C84 C 0.02984 0.62063 0.1709 0.0
C85 C 0.99049 0.63272 0.1705 0.0
C86 C -0.00301 0.67489 0.15949 0.0
C87 C 0.043 0.70561 0.14877 0.0
C88 C 0.082 0.69298 0.14911 0.0
C89 C 0.07539 0.65084 0.16001 0.0
H90 H 0.62829 0.12508 0.48508 0.0
H91 H 0.69448 0.11611 0.46738 0.0
H92 H 0.63844 0.969 0.49535 0.0
H93 H 0.57266 0.97826 0.51306 0.0
H94 H 0.51709 0.06057 0.48298 0.0
H95 H 0.66042 0.13284 0.53295 0.0
H96 H 0.73397 0.14389 0.55569 0.0
H97 H 0.62576 0.00491 0.58673 0.0
H98 H 0.55241 0.99408 0.56396 0.0
H99 H 0.40477 0.96838 0.5528 0.0
H100 H 0.33261 0.95631 0.57338 0.0
H101 H 0.36433 0.10683 0.55656 0.0
H102 H 0.43618 0.11817 0.53563 0.0
H103 H 0.51204 0.05159 0.56015 0.0
H104 H 0.3769 0.97457 0.49712 0.0
H105 H 0.30818 0.97549 0.47522 0.0
H106 H 0.40888 0.14225 0.47274 0.0
H107 H 0.47808 0.14012 0.4936 0.0
C108 C 0.59588 0.05248 0.50041 0.0
C109 C 0.6303 0.09094 0.48734 0.0
C110 C 0.66822 0.08593 0.4774 0.0
C111 C 0.67159 0.04194 0.48011 0.0
C112 C 0.63653 0.00316 0.49296 0.0
C113 C 0.59916 0.00852 0.50311 0.0
C114 C 0.55654 0.05789 0.5115 0.0
C115 C 0.51646 0.05937 0.49987 0.0
C116 C 0.55609 0.05719 0.53352 0.0
C117 C 0.60093 0.06247 0.5467 0.0
C118 C 0.65267 0.10435 0.54446 0.0
C119 C 0.69468 0.11066 0.55746 0.0
C120 C 0.68562 0.07544 0.57306 0.0
C121 C 0.63387 0.03317 0.57507 0.0
C122 C 0.59193 0.02683 0.56205 0.0
C123 C 0.42562 0.04404 0.54266 0.0
C124 C 0.39587 -0.00141 0.55342 0.0
C125 C 0.35487 0.99192 0.56529 0.0
C126 C 0.34306 0.03086 0.56681 0.0
C127 C 0.37212 0.07592 0.55557 0.0
C128 C 0.41317 0.08249 0.54361 0.0
C129 C 0.47154 0.05189 0.53158 0.0
C130 C 0.51303 0.05314 0.54326 0.0
C131 C 0.47413 0.05671 0.50974 0.0
C132 C 0.43232 0.05725 0.49684 0.0
C133 C 0.38397 0.01115 0.4917 0.0
C134 C 0.34464 0.01191 0.47933 0.0
C135 C 0.35278 0.05897 0.47212 0.0
C136 C 0.40143 0.10513 0.47755 0.0
C137 C 0.44096 0.10415 0.48962 0.0
H138 H 0.51274 0.42799 0.81437 0.0
H139 H 0.43971 0.36766 0.78961 0.0
H140 H 0.33509 0.40143 0.82078 0.0
H141 H 0.40832 0.46262 0.84492 0.0
H142 H 0.55995 0.52999 0.82262 0.0
H143 H 0.46459 0.37844 0.85977 0.0
H144 H 0.39064 0.30396 0.87502 0.0
H145 H 0.37091 0.40777 0.915 0.0
H146 H 0.4419 0.48168 0.8985 0.0
H147 H 0.57237 0.63115 0.89629 0.0
H148 H 0.63698 0.70564 0.91916 0.0
H149 H 0.75353 0.66556 0.90952 0.0
H150 H 0.68911 0.59176 0.88612 0.0
H151 H 0.53922 0.51886 0.89909 0.0
H152 H 0.62323 0.66735 0.8551 0.0
H153 H 0.69731 0.74056 0.8391 0.0
H154 H 0.74265 0.63798 0.81388 0.0
H155 H 0.66923 0.56511 0.83047 0.0
C156 C 0.46579 0.44925 0.83165 0.0
C157 C 0.47411 0.42257 0.81574 0.0
C158 C 0.43229 0.38789 0.8017 0.0
C159 C 0.38157 0.37968 0.80325 0.0
C160 C 0.37375 0.40726 0.81899 0.0
C161 C 0.41546 0.44183 0.83297 0.0
C162 C 0.50955 0.48529 0.84689 0.0
C163 C 0.55573 0.52684 0.83935 0.0
C164 C 0.5041 0.48135 0.86874 0.0
C165 C 0.45861 0.43583 0.87781 0.0
C166 C 0.44353 0.38513 0.87148 0.0
C167 C 0.4016 0.34247 0.88045 0.0
C168 C 0.37456 0.3496 0.89629 0.0
C169 C 0.38988 0.4005 0.90257 0.0
C170 C 0.43115 0.44302 0.89335 0.0
C171 C 0.62619 0.60624 0.88957 0.0
C172 C 0.61172 0.63823 0.89924 0.0
C173 C 0.64854 0.6807 0.91218 0.0
C174 C 0.69994 0.691 0.91601 0.0
C175 C 0.71394 0.65803 0.90683 0.0
C176 C 0.67739 0.61613 0.89351 0.0
C177 C 0.58804 0.56387 0.87469 0.0
C178 C 0.54328 0.52117 0.88234 0.0
C179 C 0.59496 0.56626 0.85301 0.0
C180 C 0.6411 0.61095 0.8441 0.0
C181 C 0.64972 0.66084 0.84646 0.0
C182 C 0.69179 0.70253 0.83717 0.0
C183 C 0.72578 0.69501 0.82522 0.0
C184 C 0.71759 0.64513 0.82322 0.0
C185 C 0.67544 0.60341 0.83251 0.0
H186 H 0.96405 0.171 0.04171 0.0
H187 H 0.03958 0.12506 0.08792 0.0
H188 H 0.95145 0.21994 0.06876 0.0
H189 H 0.02682 0.17418 0.115 0.0
H190 H 0.07996 0.34165 0.14148 0.0
H191 H 0.07281 0.27176 0.11942 0.0
H192 H 0.90954 0.21782 0.10243 0.0
H193 H 0.91685 0.28813 0.12448 0.0
C194 C 0.97681 0.1703 0.05772 0.0
C195 C 0.0035 0.14477 0.06261 0.0
C196 C 0.96933 0.19814 0.07324 0.0
C197 C 0.9888 0.20138 0.09392 0.0
C198 C 0.01203 0.17279 0.09911 0.0
C199 C 0.01898 0.14441 0.08362 0.0
C200 C 0.04247 0.3146 0.13314 0.0
C201 C -0.00088 0.32049 0.13451 0.0
C202 C 0.03816 0.27426 0.12073 0.0
C203 C 0.99055 0.23931 0.10926 0.0
C204 C 0.9467 0.2443 0.11108 0.0
C205 C 0.95084 0.28434 0.12373 0.0
H206 H 0.91081 0.10441 0.39721 0.0
H207 H 0.85156 0.94383 0.40905 0.0
H208 H 0.85575 0.1069 0.42304 0.0
H209 H 0.7966 0.94666 0.43566 0.0
H210 H 0.65516 0.95785 0.45713 0.0
H211 H 0.71859 0.95125 0.43668 0.0
H212 H 0.84095 0.10612 0.45896 0.0
H213 H 0.77689 0.11307 0.47876 0.0
C214 C 0.88692 0.06983 0.4057 0.0
C215 C 0.88574 0.02391 0.40108 0.0
C216 C 0.85534 0.07136 0.42066 0.0
C217 C 0.82177 0.02706 0.43154 0.0
C218 C 0.82163 0.98136 0.4274 0.0
C219 C 0.8533 0.97978 0.41227 0.0
C220 C 0.69581 0.99016 0.4578 0.0
C221 C 0.71107 0.03625 0.46925 0.0
C222 C 0.73226 0.98631 0.4462 0.0
C223 C 0.78483 0.02833 0.446 0.0
C224 C 0.80052 0.07344 0.45837 0.0
C225 C 0.76394 0.07749 0.46973 0.0
H226 H 0.91039 0.96772 0.75351 0.0
H227 H 0.95779 0.86151 0.73555 0.0
H228 H 0.86201 0.91267 0.78156 0.0
H229 H 0.90773 0.80511 0.76324 0.0
H230 H 0.82813 0.72155 0.82102 0.0
H231 H 0.89357 0.78901 0.79972 0.0
H232 H 0.7808 0.8316 0.78149 0.0
H233 H 0.71634 0.76522 0.80287 0.0
C234 C 0.9107 0.93273 0.75561 0.0
C235 C 0.93704 0.91845 0.74208 0.0
C236 C 0.88281 0.90101 0.77168 0.0
C237 C 0.87993 0.85383 0.77438 0.0
C238 C 0.90923 0.84125 0.76169 0.0
C239 C 0.93781 0.87347 0.74576 0.0
C240 C 0.81766 0.74568 0.81254 0.0
C241 C 0.76715 0.73817 0.81364 0.0
C242 C 0.85507 0.78425 0.80033 0.0
C243 C 0.84258 0.81589 0.78892 0.0
C244 C 0.79235 0.80886 0.79042 0.0
C245 C 0.75521 0.77063 0.80266 0.0
H246 H 0.17128 0.96331 0.06788 0.0
H247 H 0.01842 0.93878 0.07966 0.0
H248 H 0.15473 0.89376 0.09069 0.0
H249 H 0.00235 0.8698 0.1029 0.0
H250 H 0.97068 0.71039 0.12271 0.0
H251 H 0.98523 0.7822 0.10146 0.0
H252 H 0.14677 0.87377 0.12716 0.0
H253 H 0.13228 0.80191 0.14821 0.0
C254 C 0.13427 0.94332 0.07544 0.0
C255 C 0.09617 0.95659 0.07193 0.0
C256 C 0.12491 0.90362 0.08864 0.0
C257 C 0.07727 0.8763 0.09869 0.0
C258 C 0.03921 0.88969 0.09523 0.0
C259 C 0.04855 0.92941 0.08199 0.0
C260 C 0.00906 0.74613 0.124 0.0
C261 C 0.05046 0.75037 0.13699 0.0
C262 C 0.01741 0.78728 0.11184 0.0
C263 C 0.06731 0.83359 0.11248 0.0
C264 C 0.1082 0.83827 0.12596 0.0
C265 C 0.09988 0.79714 0.13805 0.0
H266 H 0.1579 0.15679 0.41096 0.0
H267 H 0.07423 0.99285 0.39421 0.0
H268 H 0.22707 0.15054 0.4299 0.0
H269 H 0.1432 0.98666 0.41352 0.0
H270 H 0.24498 -0.00134 0.47478 0.0
H271 H 0.17671 0.00176 0.4537 0.0
H272 H 0.2966 0.12641 0.41957 0.0
H273 H 0.36506 0.12189 0.43977 0.0
C274 C 0.15427 0.11945 0.41133 0.0
C275 C 0.11064 0.0753 0.40111 0.0
C276 C 0.19395 0.11598 0.42207 0.0
C277 C 0.19027 0.06813 0.42314 0.0
C278 C 0.1467 0.02393 0.41298 0.0
C279 C 0.10749 0.02757 0.40186 0.0
C280 C 0.25697 0.02608 0.46253 0.0
C281 C 0.31081 0.06013 0.45909 0.0
C282 C 0.21778 0.02794 0.45054 0.0
C283 C 0.23156 0.06443 0.43512 0.0
C284 C 0.28509 0.09829 0.43155 0.0
C285 C 0.32425 0.09585 0.44325 0.0
H286 H 0.06325 0.17111 0.75389 0.0
H287 H 0.15075 0.12538 0.71679 0.0
H288 H 0.14562 0.2414 0.77065 0.0
H289 H 0.23345 0.19648 0.7335 0.0
H290 H 0.35719 0.28315 0.78986 0.0
H291 H 0.27906 0.21782 0.76876 0.0
H292 H 0.22538 0.3243 0.76341 0.0
H293 H 0.30363 0.38976 0.78439 0.0
C294 C 0.10002 0.17626 0.74916 0.0
C295 C 0.10026 0.14235 0.73404 0.0
C296 C 0.14734 0.21685 0.75869 0.0
C297 C 0.19605 0.2245 0.75339 0.0
C298 C 0.19647 0.19123 0.73803 0.0
C299 C 0.14908 0.15069 0.7284 0.0
C300 C 0.32922 0.29296 0.78386 0.0
C301 C 0.33641 0.34151 0.78895 0.0
C302 C 0.28445 0.25551 0.77177 0.0
C303 C 0.24588 0.26579 0.76455 0.0
C304 C 0.25395 0.31493 0.76906 0.0
C305 C 0.29873 0.35238 0.78109 0.0
H306 H 0.89095 0.11915 0.68188 0.0
H307 H 0.92816 0.04328 0.63423 0.0
H308 H 0.83922 0.13427 0.65587 0.0
H309 H 0.87506 0.05706 0.60831 0.0
H310 H 0.78625 0.10404 0.56394 0.0
H311 H 0.85719 0.11412 0.58814 0.0
H312 H 0.75387 0.07322 0.63905 0.0
H313 H 0.68426 0.06514 0.61516 0.0
C314 C 0.88881 0.10646 0.66578 0.0
C315 C 0.91285 0.0792 0.66018 0.0
C316 C 0.85891 0.11486 0.6509 0.0
C317 C 0.85194 0.09572 0.63014 0.0
C318 C 0.87966 0.07235 0.62416 0.0
C319 C 0.91005 0.06436 0.63905 0.0
C320 C 0.77914 0.09801 0.58037 0.0
C321 C 0.72954 0.08336 0.58764 0.0
C322 C 0.8196 0.10345 0.59419 0.0
C323 C 0.81129 0.09465 0.61553 0.0
C324 C 0.76202 0.08115 0.62278 0.0
C325 C 0.72173 0.07567 0.60903 0.0
H326 H 0.97523 0.92191 0.99308 0.0
H327 H 0.89005 -0.00278 0.97828 0.0
H328 H 0.90607 0.84317 0.97425 0.0
H329 H 0.819 0.91758 0.96057 0.0
H330 H 0.7323 0.79102 0.90952 0.0
H331 H 0.79915 0.86816 0.92997 0.0
H332 H 0.82081 0.77144 0.97285 0.0
H333 H 0.7561 0.69469 0.95138 0.0
C334 C 0.94108 0.9212 0.98614 0.0
C335 C 0.93816 0.96576 0.98701 0.0
C336 C 0.90114 0.87589 0.97541 0.0
C337 C 0.85676 0.87375 0.96567 0.0
C338 C 0.85308 0.91796 0.96732 0.0
C339 C 0.8936 0.96358 0.97764 0.0
C340 C 0.7515 0.78656 0.92335 0.0
C341 C 0.73938 0.73726 0.92893 0.0
C342 C 0.78952 0.83067 0.93523 0.0
C343 C 0.81551 0.82639 0.95324 0.0
C344 C 0.80253 0.77659 0.95892 0.0
C345 C 0.76526 0.73254 0.94674 0.0
H346 H 0.03437 0.95145 0.30889 0.0
H347 H 0.88289 0.82075 0.32383 0.0
H348 H 0.04819 0.89451 0.28656 0.0
H349 H 0.89724 0.76375 0.30188 0.0
H350 H 0.91367 0.68722 0.24356 0.0
H351 H 0.90125 0.746 0.26526 0.0
H352 H 0.06484 0.82451 0.28843 0.0
H353 H 0.07729 0.76573 0.2666 0.0
C354 C 0.00412 0.91054 0.3075 0.0
C355 C 0.95744 0.89068 0.31811 0.0
C356 C 0.0122 0.87786 0.29478 0.0
C357 C 0.97378 0.82458 0.29238 0.0
C358 C 0.92728 0.80473 0.30311 0.0
C359 C 0.91919 0.83738 0.31582 0.0
C360 C 0.94693 0.71688 0.25336 0.0
C361 C -0.0036 0.72165 0.25343 0.0
C362 C 0.93979 0.75053 0.26582 0.0
C363 C 0.98195 0.78977 0.27869 0.0
C364 C 0.03169 0.79508 0.27852 0.0
C365 C 0.03884 0.76142 0.26601 0.0
H366 H 0.0912 0.91029 0.65183 0.0
H367 H 0.12084 0.06272 0.64013 0.0
H368 H 0.15902 0.92443 0.62833 0.0
H369 H 0.18927 0.077 0.61671 0.0
H370 H 0.2685 0.05662 0.5595 0.0
H371 H 0.19973 0.04463 0.58234 0.0
H372 H 0.25601 0.9798 0.62831 0.0
H373 H 0.32474 0.99217 0.60573 0.0
C374 C 0.11217 0.94683 0.64425 0.0
C375 C 0.10072 0.98544 0.64792 0.0
C376 C 0.15124 0.95503 0.63086 0.0
C377 C 0.17967 0.00194 0.62075 0.0
C378 C 0.16774 0.04031 0.62415 0.0
C379 C 0.12876 0.03222 0.63766 0.0
C380 C 0.26644 0.04025 0.57456 0.0
C381 C 0.30178 0.02486 0.58069 0.0
C382 C 0.22707 0.03337 0.58762 0.0
C383 C 0.2222 0.01085 0.60703 0.0
C384 C 0.25806 0.99627 0.61327 0.0
C385 C 0.2974 0.00329 0.60029 0.0
H386 H 0.10174 0.1382 0.96562 0.0
H387 H 0.23087 0.12358 0.98879 0.0
H388 H 0.15289 0.18726 0.93671 0.0
H389 H 0.28365 0.17523 0.96072 0.0
H390 H 0.36881 0.25905 0.90591 0.0
H391 H 0.3038 0.18934 0.92605 0.0
H392 H 0.22213 0.27082 0.93264 0.0
H393 H 0.28403 0.33774 0.91091 0.0
C394 C 0.14113 0.14551 0.96446 0.0
C395 C 0.16278 0.12793 0.97954 0.0
C396 C 0.17067 0.17387 0.94796 0.0
C397 C 0.22305 0.18644 0.94652 0.0
C398 C 0.2434 0.16609 0.96106 0.0
C399 C 0.21329 0.13663 0.97726 0.0
C400 C 0.3361 0.26139 0.91111 0.0
C401 C 0.33224 0.30459 0.90696 0.0
C402 C 0.29915 0.22164 0.923 0.0
C403 C 0.2579 0.22448 0.93134 0.0
C404 C 0.25283 0.26663 0.9264 0.0
C405 C 0.28915 0.3058 0.91421 0.0
H406 H 0.11707 0.24827 0.34088 0.0
H407 H 0.01786 0.12385 0.2953 0.0
H408 H 0.13164 0.31152 0.31499 0.0
H409 H 0.03139 0.18723 0.2695 0.0
H410 H 0.07237 0.31921 0.22601 0.0
H411 H 0.08741 0.2621 0.24778 0.0
H412 H 0.06456 0.3299 0.30292 0.0
H413 H 0.05074 0.38714 0.28136 0.0
C414 C 0.09963 0.23446 0.32514 0.0
C415 C 0.06549 0.18119 0.32021 0.0
C416 C 0.10768 0.27067 0.31036 0.0
C417 C 0.08134 0.25432 0.29043 0.0
C418 C 0.05209 0.20103 0.28475 0.0
C419 C 0.04439 0.16468 0.29954 0.0
C420 C 0.07129 0.3222 0.24282 0.0
C421 C 0.05995 0.35727 0.25201 0.0
C422 C 0.07971 0.28946 0.25524 0.0
C423 C 0.07761 0.29177 0.27706 0.0
C424 C 0.06746 0.32775 0.28619 0.0
C425 C 0.0587 0.36004 0.27383 0.0
loop_
_geom_bond_atom_site_label_1
_geom_bond_atom_site_label_2
_geom_bond_distance
_geom_bond_site_symmetry_2
_ccdc_geom_bond_type
Mg0 O1 2.028 . S
Mg0 O7 1.986 . S
Mg0 O9 2.114 . S
Mg0 O10 2.251 . S
Mg0 O13 2.010 . S
O1 Mg0 2.028 . S
O1 C4 1.250 1_455 S
O2 Mg3 2.028 1_655 S
O2 C4 1.248 . S
Mg3 O2 2.028 1_455 S
Mg3 O8 2.032 . S
Mg3 O10 2.079 . S
C4 O1 1.250 1_655 S
C4 O2 1.248 . S
C5 O6 1.264 . S
C5 O13 1.249 1_565 S
O6 C5 1.264 . S
O7 Mg0 1.986 . S
O7 C11 1.246 . S
O8 Mg3 2.032 . S
O8 C11 1.259 . S
O9 Mg0 2.114 . S
O9 C12 1.252 . S
O10 Mg0 2.251 . S
O10 Mg3 2.079 . S
O10 C12 1.273 . S
C11 O7 1.246 . S
C11 O8 1.259 . S
C12 O9 1.252 . S
C12 O10 1.273 . S
O13 Mg0 2.010 . S
O13 C5 1.249 1_545 S
Mg14 O15 2.028 1_655 S
Mg14 O21 1.986 1_655 S
Mg14 O23 2.114 1_545 S
Mg14 O24 2.251 . S
Mg14 O27 2.010 1_545 S
O15 Mg14 2.028 1_455 S
O15 C18 1.250 . S
O16 Mg17 2.028 . S
O16 C18 1.248 . S
Mg17 O16 2.028 . S
Mg17 O22 2.032 . S
Mg17 O24 2.079 1_455 S
C18 O15 1.250 . S
C18 O16 1.248 . S
C19 O20 1.264 . S
C19 O27 1.249 . S
O20 C19 1.264 . S
O21 Mg14 1.986 1_455 S
O21 C25 1.246 . S
O22 Mg17 2.032 . S
O22 C25 1.259 . S
O23 Mg14 2.114 1_565 S
O23 C26 1.252 1_565 S
O24 Mg14 2.251 . S
O24 Mg17 2.079 1_655 S
O24 C26 1.273 . S
C25 O21 1.246 . S
C25 O22 1.259 . S
C26 O23 1.252 1_545 S
C26 O24 1.273 . S
O27 Mg14 2.010 1_565 S
O27 C19 1.249 . S
Mg28 O29 2.028 . S
Mg28 O35 1.986 1_455 S
Mg28 O37 2.114 1_545 S
Mg28 O38 2.251 1_445 S
Mg28 O41 2.010 1_545 S
O29 Mg28 2.028 . S
O29 C32 1.250 . S
O30 Mg31 2.028 1_455 S
O30 C32 1.248 . S
Mg31 O30 2.028 1_655 S
Mg31 O36 2.032 . S
Mg31 O38 2.079 1_545 S
C32 O29 1.250 . S
C32 O30 1.248 . S
C33 O34 1.264 . S
C33 O41 1.249 . S
O34 C33 1.264 . S
O35 Mg28 1.986 1_655 S
O35 C39 1.246 . S
O36 Mg31 2.032 . S
O36 C39 1.259 . S
O37 Mg28 2.114 1_565 S
O37 C40 1.252 1_455 S
O38 Mg28 2.251 1_665 S
O38 Mg31 2.079 1_565 S
O38 C40 1.273 . S
C39 O35 1.246 . S
C39 O36 1.259 . S
C40 O37 1.252 1_655 S
C40 O38 1.273 . S
O41 Mg28 2.010 1_565 S
O41 C33 1.249 . S
H42 C61 0.949 . S
H43 C62 0.950 . S
H44 C64 0.950 . S
H45 C65 0.950 . S
H46 C67 0.950 . S
H47 C70 0.950 . S
H48 C71 0.950 . S
H49 C73 0.951 . S
H50 C74 0.949 . S
H51 C76 0.949 . S
H52 C77 0.950 . S
H53 C79 0.950 . S
H54 C80 0.950 . S
H55 C82 0.950 . S
H56 C85 0.950 1_655 S
H57 C86 0.950 1_655 S
H58 C88 0.951 . S
H59 C89 0.949 . S
C60 C61 1.376 . S
C60 C65 1.386 1_455 S
C60 C66 1.483 . S
C61 H42 0.949 . S
C61 C60 1.376 . S
C61 C62 1.397 . S
C62 H43 0.950 . S
C62 C61 1.397 . S
C62 C63 1.391 . S
C63 C62 1.391 . S
C63 C64 1.405 1_455 S
C64 H44 0.950 . S
C64 C63 1.405 1_655 S
C64 C65 1.367 . S
C65 H45 0.950 . S
C65 C60 1.386 1_655 S
C65 C64 1.367 . S
C66 C60 1.483 . S
C66 C67 1.382 . S
C66 C68 1.403 . S
C67 H46 0.950 . S
C67 C66 1.382 . S
C67 C83 1.411 . S
C68 C66 1.403 . S
C68 C69 1.489 . S
C68 C82 1.411 . S
C69 C68 1.489 . S
C69 C70 1.383 . S
C69 C74 1.382 1_455 S
C70 H47 0.950 . S
C70 C69 1.383 . S
C70 C71 1.395 . S
C71 H48 0.950 . S
C71 C70 1.395 . S
C71 C72 1.288 . S
C72 C71 1.288 . S
C72 C73 1.392 1_455 S
C73 H49 0.951 . S
C73 C72 1.392 1_655 S
C73 C74 1.392 . S
C74 H50 0.949 . S
C74 C69 1.382 1_655 S
C74 C73 1.392 . S
C75 C76 1.376 1_455 S
C75 C80 1.386 . S
C75 C81 1.483 . S
C76 H51 0.949 . S
C76 C75 1.376 1_655 S
C76 C77 1.397 . S
C77 H52 0.950 . S
C77 C76 1.397 . S
C77 C78 1.391 1_655 S
C78 C77 1.391 1_455 S
C78 C79 1.405 . S
C79 H53 0.950 . S
C79 C78 1.405 . S
C79 C80 1.367 . S
C80 H54 0.950 . S
C80 C75 1.386 . S
C80 C79 1.367 . S
C81 C75 1.483 . S
C81 C82 1.382 . S
C81 C83 1.403 . S
C82 H55 0.950 . S
C82 C68 1.411 . S
C82 C81 1.382 . S
C83 C67 1.411 . S
C83 C81 1.403 . S
C83 C84 1.489 . S
C84 C83 1.489 . S
C84 C85 1.383 . S
C84 C89 1.382 . S
C85 H56 0.950 1_455 S
C85 C84 1.383 . S
C85 C86 1.395 . S
C86 H57 0.950 1_455 S
C86 C85 1.395 . S
C86 C87 1.288 . S
C87 C86 1.288 . S
C87 C88 1.392 . S
C88 H58 0.951 . S
C88 C87 1.392 . S
C88 C89 1.392 . S
C89 H59 0.949 . S
C89 C84 1.382 . S
C89 C88 1.392 . S
H90 C109 0.949 . S
H91 C110 0.950 . S
H92 C112 0.950 1_565 S
H93 C113 0.950 1_565 S
H94 C115 0.950 . S
H95 C118 0.950 . S
H96 C119 0.950 . S
H97 C121 0.951 1_565 S
H98 C122 0.949 1_565 S
H99 C124 0.949 1_565 S
H100 C125 0.950 1_565 S
H101 C127 0.950 . S
H102 C128 0.950 . S
H103 C130 0.950 . S
H104 C133 0.950 . S
H105 C134 0.950 . S
H106 C136 0.951 . S
H107 C137 0.949 . S
C108 C109 1.376 . S
C108 C113 1.386 . S
C108 C114 1.483 . S
C109 H90 0.949 . S
C109 C108 1.376 . S
C109 C110 1.397 . S
C110 H91 0.950 . S
C110 C109 1.397 . S
C110 C111 1.391 . S
C111 C110 1.391 . S
C111 C112 1.405 . S
C112 H92 0.950 1_545 S
C112 C111 1.405 . S
C112 C113 1.367 . S
C113 H93 0.950 1_545 S
C113 C108 1.386 . S
C113 C112 1.367 . S
C114 C108 1.483 . S
C114 C115 1.382 . S
C114 C116 1.403 . S
C115 H94 0.950 . S
C115 C114 1.382 . S
C115 C131 1.411 . S
C116 C114 1.403 . S
C116 C117 1.489 . S
C116 C130 1.411 . S
C117 C116 1.489 . S
C117 C118 1.383 . S
C117 C122 1.382 . S
C118 H95 0.950 . S
C118 C117 1.383 . S
C118 C119 1.395 . S
C119 H96 0.950 . S
C119 C118 1.395 . S
C119 C120 1.288 . S
C120 C119 1.288 . S
C120 C121 1.392 . S
C121 H97 0.951 1_545 S
C121 C120 1.392 . S
C121 C122 1.392 . S
C122 H98 0.949 1_545 S
C122 C117 1.382 . S
C122 C121 1.392 . S
C123 C124 1.376 . S
C123 C128 1.386 . S
C123 C129 1.483 . S
C124 H99 0.949 1_545 S
C124 C123 1.376 . S
C124 C125 1.397 . S
C125 H100 0.950 1_545 S
C125 C124 1.397 . S
C125 C126 1.391 . S
C126 C125 1.391 . S
C126 C127 1.405 . S
C127 H101 0.950 . S
C127 C126 1.405 . S
C127 C128 1.367 . S
C128 H102 0.950 . S
C128 C123 1.386 . S
C128 C127 1.367 . S
C129 C123 1.483 . S
C129 C130 1.382 . S
C129 C131 1.403 . S
C130 H103 0.950 . S
C130 C116 1.411 . S
C130 C129 1.382 . S
C131 C115 1.411 . S
C131 C129 1.403 . S
C131 C132 1.489 . S
C132 C131 1.489 . S
C132 C133 1.383 . S
C132 C137 1.382 . S
C133 H104 0.950 . S
C133 C132 1.383 . S
C133 C134 1.395 . S
C134 H105 0.950 . S
C134 C133 1.395 . S
C134 C135 1.288 . S
C135 C134 1.288 . S
C135 C136 1.392 . S
C136 H106 0.951 . S
C136 C135 1.392 . S
C136 C137 1.392 . S
C137 H107 0.949 . S
C137 C132 1.382 . S
C137 C136 1.392 . S
H138 C157 0.949 . S
H139 C158 0.950 . S
H140 C160 0.950 . S
H141 C161 0.950 . S
H142 C163 0.950 . S
H143 C166 0.950 . S
H144 C167 0.950 . S
H145 C169 0.951 . S
H146 C170 0.949 . S
H147 C172 0.949 . S
H148 C173 0.950 . S
H149 C175 0.950 . S
H150 C176 0.950 . S
H151 C178 0.950 . S
H152 C181 0.950 . S
H153 C182 0.950 . S
H154 C184 0.951 . S
H155 C185 0.949 . S
C156 C157 1.376 . S
C156 C161 1.386 . S
C156 C162 1.483 . S
C157 H138 0.949 . S
C157 C156 1.376 . S
C157 C158 1.397 . S
C158 H139 0.950 . S
C158 C157 1.397 . S
C158 C159 1.391 . S
C159 C158 1.391 . S
C159 C160 1.405 . S
C160 H140 0.950 . S
C160 C159 1.405 . S
C160 C161 1.367 . S
C161 H141 0.950 . S
C161 C156 1.386 . S
C161 C160 1.367 . S
C162 C156 1.483 . S
C162 C163 1.382 . S
C162 C164 1.403 . S
C163 H142 0.950 . S
C163 C162 1.382 . S
C163 C179 1.411 . S
C164 C162 1.403 . S
C164 C165 1.489 . S
C164 C178 1.411 . S
C165 C164 1.489 . S
C165 C166 1.383 . S
C165 C170 1.382 . S
C166 H143 0.950 . S
C166 C165 1.383 . S
C166 C167 1.395 . S
C167 H144 0.950 . S
C167 C166 1.395 . S
C167 C168 1.288 . S
C168 C167 1.288 . S
C168 C169 1.392 . S
C169 H145 0.951 . S
C169 C168 1.392 . S
C169 C170 1.392 . S
C170 H146 0.949 . S
C170 C165 1.382 . S
C170 C169 1.392 . S
C171 C172 1.376 . S
C171 C176 1.386 . S
C171 C177 1.483 . S
C172 H147 0.949 . S
C172 C171 1.376 . S
C172 C173 1.397 . S
C173 H148 0.950 . S
C173 C172 1.397 . S
C173 C174 1.391 . S
C174 C173 1.391 . S
C174 C175 1.405 . S
C175 H149 0.950 . S
C175 C174 1.405 . S
C175 C176 1.367 . S
C176 H150 0.950 . S
C176 C171 1.386 . S
C176 C175 1.367 . S
C177 C171 1.483 . S
C177 C178 1.382 . S
C177 C179 1.403 . S
C178 H151 0.950 . S
C178 C164 1.411 . S
C178 C177 1.382 . S
C179 C163 1.411 . S
C179 C177 1.403 . S
C179 C180 1.489 . S
C180 C179 1.489 . S
C180 C181 1.383 . S
C180 C185 1.382 . S
C181 H152 0.950 . S
C181 C180 1.383 . S
C181 C182 1.395 . S
C182 H153 0.950 . S
C182 C181 1.395 . S
C182 C183 1.288 . S
C183 C182 1.288 . S
C183 C184 1.392 . S
C184 H154 0.951 . S
C184 C183 1.392 . S
C184 C185 1.392 . S
C185 H155 0.949 . S
C185 C180 1.382 . S
C185 C184 1.392 . S
H186 C194 0.950 . S
H187 C199 0.950 . S
H188 C196 0.950 . S
H189 C198 0.950 . S
H190 C200 0.950 . S
H191 C202 0.950 . S
H192 C204 0.950 . S
H193 C205 0.950 . S
C194 H186 0.950 . S
C194 C195 1.386 1_655 S
C194 C196 1.391 . S
C195 C194 1.386 1_455 S
C195 C199 1.393 . S
C196 H188 0.950 . S
C196 C194 1.391 . S
C196 C197 1.400 1_655 S
C197 C196 1.400 1_455 S
C197 C198 1.398 . S
C197 C203 1.491 . S
C198 H189 0.950 . S
C198 C197 1.398 . S
C198 C199 1.391 . S
C199 H187 0.950 . S
C199 C195 1.393 . S
C199 C198 1.391 . S
C200 H190 0.950 . S
C200 C201 1.386 . S
C200 C202 1.391 . S
C201 C200 1.386 . S
C201 C205 1.393 1_455 S
C202 H191 0.950 . S
C202 C200 1.391 . S
C202 C203 1.400 . S
C203 C197 1.491 . S
C203 C202 1.400 . S
C203 C204 1.398 1_455 S
C204 H192 0.950 . S
C204 C203 1.398 1_655 S
C204 C205 1.391 . S
C205 H193 0.950 . S
C205 C201 1.393 1_655 S
C205 C204 1.391 . S
H206 C214 0.950 . S
H207 C219 0.950 . S
H208 C216 0.950 . S
H209 C218 0.950 . S
H210 C220 0.950 1_565 S
H211 C222 0.950 . S
H212 C224 0.950 . S
H213 C225 0.950 . S
C214 H206 0.950 . S
C214 C215 1.386 . S
C214 C216 1.391 . S
C215 C214 1.386 . S
C215 C219 1.393 1_545 S
C216 H208 0.950 . S
C216 C214 1.391 . S
C216 C217 1.400 . S
C217 C216 1.400 . S
C217 C218 1.398 1_545 S
C217 C223 1.491 . S
C218 H209 0.950 . S
C218 C217 1.398 1_565 S
C218 C219 1.391 . S
C219 H207 0.950 . S
C219 C215 1.393 1_565 S
C219 C218 1.391 . S
C220 H210 0.950 1_545 S
C220 C221 1.386 . S
C220 C222 1.391 1_545 S
C221 C220 1.386 . S
C221 C225 1.393 . S
C222 H211 0.950 . S
C222 C220 1.391 1_565 S
C222 C223 1.400 1_565 S
C223 C217 1.491 . S
C223 C222 1.400 1_545 S
C223 C224 1.398 . S
C224 H212 0.950 . S
C224 C223 1.398 . S
C224 C225 1.391 . S
C225 H213 0.950 . S
C225 C221 1.393 . S
C225 C224 1.391 . S
H226 C234 0.950 . S
H227 C239 0.950 . S
H228 C236 0.950 . S
H229 C238 0.950 . S
H230 C240 0.950 . S
H231 C242 0.950 . S
H232 C244 0.950 . S
H233 C245 0.950 . S
C234 H226 0.950 . S
C234 C235 1.386 . S
C234 C236 1.391 . S
C235 C234 1.386 . S
C235 C239 1.393 . S
C236 H228 0.950 . S
C236 C234 1.391 . S
C236 C237 1.400 . S
C237 C236 1.400 . S
C237 C238 1.398 . S
C237 C243 1.491 . S
C238 H229 0.950 . S
C238 C237 1.398 . S
C238 C239 1.391 . S
C239 H227 0.950 . S
C239 C235 1.393 . S
C239 C238 1.391 . S
C240 H230 0.950 . S
C240 C241 1.386 . S
C240 C242 1.391 . S
C241 C240 1.386 . S
C241 C245 1.393 . S
C242 H231 0.950 . S
C242 C240 1.391 . S
C242 C243 1.400 . S
C243 C237 1.491 . S
C243 C242 1.400 . S
C243 C244 1.398 . S
C244 H232 0.950 . S
C244 C243 1.398 . S
C244 C245 1.391 . S
C245 H233 0.950 . S
C245 C241 1.393 . S
C245 C244 1.391 . S
H246 C254 0.950 . S
H247 C259 0.950 1_655 S
H248 C256 0.950 . S
H249 C258 0.950 1_655 S
H250 C260 0.950 . S
H251 C262 0.950 1_655 S
H252 C264 0.950 . S
H253 C265 0.950 . S
C254 H246 0.950 . S
C254 C255 1.386 . S
C254 C256 1.391 . S
C255 C254 1.386 . S
C255 C259 1.393 . S
C256 H248 0.950 . S
C256 C254 1.391 . S
C256 C257 1.400 . S
C257 C256 1.400 . S
C257 C258 1.398 . S
C257 C263 1.491 . S
C258 H249 0.950 1_455 S
C258 C257 1.398 . S
C258 C259 1.391 . S
C259 H247 0.950 1_455 S
C259 C255 1.393 . S
C259 C258 1.391 . S
C260 H250 0.950 . S
C260 C261 1.386 1_655 S
C260 C262 1.391 1_655 S
C261 C260 1.386 1_455 S
C261 C265 1.393 . S
C262 H251 0.950 1_455 S
C262 C260 1.391 1_455 S
C262 C263 1.400 . S
C263 C257 1.491 . S
C263 C262 1.400 . S
C263 C264 1.398 . S
C264 H252 0.950 . S
C264 C263 1.398 . S
C264 C265 1.391 . S
C265 H253 0.950 . S
C265 C261 1.393 . S
C265 C264 1.391 . S
H266 C274 0.950 . S
H267 C279 0.945 1_565 S
H268 C276 0.950 . S
H269 C278 0.950 . S
H270 C280 0.950 1_565 S
H271 C282 0.950 1_565 S
H272 C284 0.950 . S
H273 C285 0.950 . S
C274 H266 0.950 . S
C274 C275 1.386 . S
C274 C276 1.391 . S
C275 C274 1.386 . S
C275 C279 1.393 . S
C276 H268 0.950 . S
C276 C274 1.391 . S
C276 C277 1.400 . S
C277 C276 1.400 . S
C277 C278 1.398 . S
C277 C283 1.491 . S
C278 H269 0.950 . S
C278 C277 1.398 . S
C278 C279 1.391 . S
C279 H267 0.945 1_545 S
C279 C275 1.393 . S
C279 C278 1.391 . S
C280 H270 0.950 1_545 S
C280 C281 1.386 . S
C280 C282 1.391 . S
C281 C280 1.386 . S
C281 C285 1.393 . S
C282 H271 0.950 1_545 S
C282 C280 1.391 . S
C282 C283 1.400 . S
C283 C277 1.491 . S
C283 C282 1.400 . S
C283 C284 1.398 . S
C284 H272 0.950 . S
C284 C283 1.398 . S
C284 C285 1.391 . S
C285 H273 0.950 . S
C285 C281 1.393 . S
C285 C284 1.391 . S
H286 C294 0.950 . S
H287 C299 0.950 . S
H288 C296 0.950 . S
H289 C298 0.950 . S
H290 C300 0.950 . S
H291 C302 0.950 . S
H292 C304 0.950 . S
H293 C305 0.950 . S
C294 H286 0.950 . S
C294 C295 1.386 . S
C294 C296 1.391 . S
C295 C294 1.386 . S
C295 C299 1.393 . S
C296 H288 0.950 . S
C296 C294 1.391 . S
C296 C297 1.400 . S
C297 C296 1.400 . S
C297 C298 1.398 . S
C297 C303 1.491 . S
C298 H289 0.950 . S
C298 C297 1.398 . S
C298 C299 1.391 . S
C299 H287 0.950 . S
C299 C295 1.393 . S
C299 C298 1.391 . S
C300 H290 0.950 . S
C300 C301 1.386 . S
C300 C302 1.391 . S
C301 C300 1.386 . S
C301 C305 1.393 . S
C302 H291 0.950 . S
C302 C300 1.391 . S
C302 C303 1.400 . S
C303 C297 1.491 . S
C303 C302 1.400 . S
C303 C304 1.398 . S
C304 H292 0.950 . S
C304 C303 1.398 . S
C304 C305 1.391 . S
C305 H293 0.950 . S
C305 C301 1.393 . S
C305 C304 1.391 . S
H306 C314 0.950 . S
H307 C319 0.950 . S
H308 C316 0.950 . S
H309 C318 0.950 . S
H310 C320 0.950 . S
H311 C322 0.950 . S
H312 C324 0.950 . S
H313 C325 0.950 . S
C314 H306 0.950 . S
C314 C315 1.386 . S
C314 C316 1.391 . S
C315 C314 1.386 . S
C315 C319 1.393 . S
C316 H308 0.950 . S
C316 C314 1.391 . S
C316 C317 1.400 . S
C317 C316 1.400 . S
C317 C318 1.398 . S
C317 C323 1.491 . S
C318 H309 0.950 . S
C318 C317 1.398 . S
C318 C319 1.391 . S
C319 H307 0.950 . S
C319 C315 1.393 . S
C319 C318 1.391 . S
C320 H310 0.950 . S
C320 C321 1.386 . S
C320 C322 1.391 . S
C321 C320 1.386 . S
C321 C325 1.393 . S
C322 H311 0.950 . S
C322 C320 1.391 . S
C322 C323 1.400 . S
C323 C317 1.491 . S
C323 C322 1.400 . S
C323 C324 1.398 . S
C324 H312 0.950 . S
C324 C323 1.398 . S
C324 C325 1.391 . S
C325 H313 0.950 . S
C325 C321 1.393 . S
C325 C324 1.391 . S
H326 C334 0.950 . S
H327 C339 0.950 1_554 S
H328 C336 0.950 . S
H329 C338 0.950 . S
H330 C340 0.950 . S
H331 C342 0.950 . S
H332 C344 0.950 . S
H333 C345 0.950 . S
C334 H326 0.950 . S
C334 C335 1.412 . S
C334 C336 1.391 . S
C335 C334 1.412 . S
C335 C339 1.394 . S
C336 H328 0.950 . S
C336 C334 1.391 . S
C336 C337 1.400 . S
C337 C336 1.400 . S
C337 C338 1.398 . S
C337 C343 1.491 . S
C338 H329 0.950 . S
C338 C337 1.398 . S
C338 C339 1.391 . S
C339 H327 0.950 1_556 S
C339 C335 1.394 . S
C339 C338 1.391 . S
C340 H330 0.950 . S
C340 C341 1.386 . S
C340 C342 1.391 . S
C341 C340 1.386 . S
C341 C345 1.393 . S
C342 H331 0.950 . S
C342 C340 1.391 . S
C342 C343 1.400 . S
C343 C337 1.491 . S
C343 C342 1.400 . S
C343 C344 1.398 . S
C344 H332 0.950 . S
C344 C343 1.398 . S
C344 C345 1.391 . S
C345 H333 0.950 . S
C345 C341 1.393 . S
C345 C344 1.391 . S
H346 C354 0.950 . S
H347 C359 0.950 . S
H348 C356 0.950 . S
H349 C358 0.950 . S
H350 C360 0.950 . S
H351 C362 0.950 . S
H352 C364 0.950 . S
H353 C365 0.950 . S
C354 H346 0.950 . S
C354 C355 1.386 1_455 S
C354 C356 1.391 . S
C355 C354 1.386 1_655 S
C355 C359 1.393 . S
C356 H348 0.950 . S
C356 C354 1.391 . S
C356 C357 1.397 1_455 S
C357 C356 1.397 1_655 S
C357 C358 1.407 . S
C357 C363 1.485 1_655 S
C358 H349 0.950 . S
C358 C357 1.407 . S
C358 C359 1.391 . S
C359 H347 0.950 . S
C359 C355 1.393 . S
C359 C358 1.391 . S
C360 H350 0.950 . S
C360 C361 1.386 1_655 S
C360 C362 1.391 . S
C361 C360 1.386 1_455 S
C361 C365 1.393 . S
C362 H351 0.950 . S
C362 C360 1.391 . S
C362 C363 1.400 1_655 S
C363 C357 1.485 1_455 S
C363 C362 1.400 1_455 S
C363 C364 1.398 . S
C364 H352 0.950 . S
C364 C363 1.398 . S
C364 C365 1.391 . S
C365 H353 0.950 . S
C365 C361 1.393 . S
C365 C364 1.391 . S
H366 C374 0.950 . S
H367 C379 0.950 . S
H368 C376 0.950 . S
H369 C378 0.950 . S
H370 C380 0.950 . S
H371 C382 0.950 . S
H372 C384 0.950 1_565 S
H373 C385 0.950 . S
C374 H366 0.950 . S
C374 C375 1.386 1_565 S
C374 C376 1.391 . S
C375 C374 1.386 1_545 S
C375 C379 1.393 . S
C376 H368 0.950 . S
C376 C374 1.391 . S
C376 C377 1.400 1_565 S
C377 C376 1.400 1_545 S
C377 C378 1.398 . S
C377 C383 1.491 . S
C378 H369 0.950 . S
C378 C377 1.398 . S
C378 C379 1.391 . S
C379 H367 0.950 . S
C379 C375 1.393 . S
C379 C378 1.391 . S
C380 H370 0.950 . S
C380 C381 1.386 . S
C380 C382 1.391 . S
C381 C380 1.386 . S
C381 C385 1.393 . S
C382 H371 0.950 . S
C382 C380 1.391 . S
C382 C383 1.400 . S
C383 C377 1.491 . S
C383 C382 1.400 . S
C383 C384 1.398 . S
C384 H372 0.950 1_545 S
C384 C383 1.398 . S
C384 C385 1.391 . S
C385 H373 0.950 . S
C385 C381 1.393 . S
C385 C384 1.391 . S
H386 C394 0.950 . S
H387 C399 0.932 1_554 S
H388 C396 0.950 . S
H389 C398 0.950 . S
H390 C400 0.950 . S
H391 C402 0.950 . S
H392 C404 0.950 . S
H393 C405 0.950 . S
C394 H386 0.950 . S
C394 C395 1.386 . S
C394 C396 1.391 . S
C395 C394 1.386 . S
C395 C399 1.393 . S
C396 H388 0.950 . S
C396 C394 1.391 . S
C396 C397 1.400 . S
C397 C396 1.400 . S
C397 C398 1.398 . S
C397 C403 1.491 . S
C398 H389 0.950 . S
C398 C397 1.398 . S
C398 C399 1.391 . S
C399 H387 0.932 1_556 S
C399 C395 1.393 . S
C399 C398 1.391 . S
C400 H390 0.950 . S
C400 C401 1.386 . S
C400 C402 1.391 . S
C401 C400 1.386 . S
C401 C405 1.393 . S
C402 H391 0.950 . S
C402 C400 1.391 . S
C402 C403 1.400 . S
C403 C397 1.491 . S
C403 C402 1.400 . S
C403 C404 1.398 . S
C404 H392 0.950 . S
C404 C403 1.398 . S
C404 C405 1.391 . S
C405 H393 0.950 . S
C405 C401 1.393 . S
C405 C404 1.391 . S
H406 C414 0.950 . S
H407 C419 0.950 . S
H408 C416 0.950 . S
H409 C418 0.950 . S
H410 C420 0.950 . S
H411 C422 0.950 . S
H412 C424 0.950 . S
H413 C425 0.950 . S
C414 H406 0.950 . S
C414 C415 1.386 . S
C414 C416 1.391 . S
C415 C414 1.386 . S
C415 C419 1.393 . S
C416 H408 0.950 . S
C416 C414 1.391 . S
C416 C417 1.400 . S
C417 C416 1.400 . S
C417 C418 1.398 . S
C417 C423 1.491 . S
C418 H409 0.950 . S
C418 C417 1.398 . S
C418 C419 1.391 . S
C419 H407 0.950 . S
C419 C415 1.393 . S
C419 C418 1.391 . S
C420 H410 0.950 . S
C420 C421 1.386 . S
C420 C422 1.391 . S
C421 C420 1.386 . S
C421 C425 1.393 . S
C422 H411 0.950 . S
C422 C420 1.391 . S
C422 C423 1.400 . S
C423 C417 1.491 . S
C423 C422 1.400 . S
C423 C424 1.398 . S
C424 H412 0.950 . S
C424 C423 1.398 . S
C424 C425 1.391 . S
C425 H413 0.950 . S
C425 C421 1.393 . S
C425 C424 1.391 . S
C201 C63 1.397 . S
C195 C11 1.381 . S
C215 C26 1.543 . S
C221 C111 1.561 . S
C235 C40 1.426 . S
C241 C183 1.427 . S
C255 C5 1.228 . S
C261 C87 1.382 . S
C281 C135 1.537 . S
C275 C18 1.521 . S
C295 C32 1.397 . S
C301 C159 1.420 . S
C321 C120 1.269 . S
C315 C39 1.271 . S
C335 C4 1.402 1_566 S
C341 C174 1.426 . S
C361 C78 1.400 . S
C355 C19 1.273 . S
C381 C126 1.317 . S
C375 C33 1.148 1_545 S
C401 C168 1.450 . S
C395 C12 1.432 1_556 S
C415 C25 1.387 . S
C421 C72 1.400 . S
