# Generated by pormake.
# Topology ctn, (3,4)-cn, num edge types: 1
# Building blocks:
#     Node 0, Type 0, BuildingBlock: PAMTOO_clean_linker_0, # of connection points: 3
#     Node 1, Type 0, BuildingBlock: PAMTOO_clean_linker_0, # of connection points: 3
#     Node 2, Type 0, BuildingBlock: PAMTOO_clean_linker_0, # of connection points: 3
#     Node 3, Type 0, BuildingBlock: PAMTOO_clean_linker_0, # of connection points: 3
#     Node 4, Type 0, BuildingBlock: PAMTOO_clean_linker_0, # of connection points: 3
#     Node 5, Type 0, BuildingBlock: PAMTOO_clean_linker_0, # of connection points: 3
#     Node 6, Type 0, BuildingBlock: PAMTOO_clean_linker_0, # of connection points: 3
#     Node 7, Type 0, BuildingBlock: PAMTOO_clean_linker_0, # of connection points: 3
#     Node 8, Type 0, BuildingBlock: PAMTOO_clean_linker_0, # of connection points: 3
#     Node 9, Type 0, BuildingBlock: PAMTOO_clean_linker_0, # of connection points: 3
#     Node 10, Type 0, BuildingBlock: PAMTOO_clean_linker_0, # of connection points: 3
#     Node 11, Type 0, BuildingBlock: PAMTOO_clean_linker_0, # of connection points: 3
#     Node 12, Type 0, BuildingBlock: PAMTOO_clean_linker_0, # of connection points: 3
#     Node 13, Type 0, BuildingBlock: PAMTOO_clean_linker_0, # of connection points: 3
#     Node 14, Type 0, BuildingBlock: PAMTOO_clean_linker_0, # of connection points: 3
#     Node 15, Type 0, BuildingBlock: PAMTOO_clean_linker_0, # of connection points: 3
#     Node 16, Type 1, BuildingBlock: NAHDIM_clean_sbu_0, # of connection points: 4
#     Node 17, Type 1, BuildingBlock: NAHDIM_clean_sbu_0, # of connection points: 4
#     Node 18, Type 1, BuildingBlock: NAHDIM_clean_sbu_0, # of connection points: 4
#     Node 19, Type 1, BuildingBlock: NAHDIM_clean_sbu_0, # of connection points: 4
#     Node 20, Type 1, BuildingBlock: NAHDIM_clean_sbu_0, # of connection points: 4
#     Node 21, Type 1, BuildingBlock: NAHDIM_clean_sbu_0, # of connection points: 4
#     Node 22, Type 1, BuildingBlock: NAHDIM_clean_sbu_0, # of connection points: 4
#     Node 23, Type 1, BuildingBlock: NAHDIM_clean_sbu_0, # of connection points: 4
#     Node 24, Type 1, BuildingBlock: NAHDIM_clean_sbu_0, # of connection points: 4
#     Node 25, Type 1, BuildingBlock: NAHDIM_clean_sbu_0, # of connection points: 4
#     Node 26, Type 1, BuildingBlock: NAHDIM_clean_sbu_0, # of connection points: 4
#     Node 27, Type 1, BuildingBlock: NAHDIM_clean_sbu_0, # of connection points: 4
#     Edge 28, Type (0, 1), BuildingBlock: UVAHIK_clean_linker_0, # of connection points: 2
#     Edge 29, Type (0, 1), BuildingBlock: UVAHIK_clean_linker_0, # of connection points: 2
#     Edge 30, Type (0, 1), BuildingBlock: UVAHIK_clean_linker_0, # of connection points: 2
#     Edge 31, Type (0, 1), BuildingBlock: UVAHIK_clean_linker_0, # of connection points: 2
#     Edge 32, Type (0, 1), BuildingBlock: UVAHIK_clean_linker_0, # of connection points: 2
#     Edge 33, Type (0, 1), BuildingBlock: UVAHIK_clean_linker_0, # of connection points: 2
#     Edge 34, Type (0, 1), BuildingBlock: UVAHIK_clean_linker_0, # of connection points: 2
#     Edge 35, Type (0, 1), BuildingBlock: UVAHIK_clean_linker_0, # of connection points: 2
#     Edge 36, Type (0, 1), BuildingBlock: UVAHIK_clean_linker_0, # of connection points: 2
#     Edge 37, Type (0, 1), BuildingBlock: UVAHIK_clean_linker_0, # of connection points: 2
#     Edge 38, Type (0, 1), BuildingBlock: UVAHIK_clean_linker_0, # of connection points: 2
#     Edge 39, Type (0, 1), BuildingBlock: UVAHIK_clean_linker_0, # of connection points: 2
#     Edge 40, Type (0, 1), BuildingBlock: UVAHIK_clean_linker_0, # of connection points: 2
#     Edge 41, Type (0, 1), BuildingBlock: UVAHIK_clean_linker_0, # of connection points: 2
#     Edge 42, Type (0, 1), BuildingBlock: UVAHIK_clean_linker_0, # of connection points: 2
#     Edge 43, Type (0, 1), BuildingBlock: UVAHIK_clean_linker_0, # of connection points: 2
#     Edge 44, Type (0, 1), BuildingBlock: UVAHIK_clean_linker_0, # of connection points: 2
#     Edge 45, Type (0, 1), BuildingBlock: UVAHIK_clean_linker_0, # of connection points: 2
#     Edge 46, Type (0, 1), BuildingBlock: UVAHIK_clean_linker_0, # of connection points: 2
#     Edge 47, Type (0, 1), BuildingBlock: UVAHIK_clean_linker_0, # of connection points: 2
#     Edge 48, Type (0, 1), BuildingBlock: UVAHIK_clean_linker_0, # of connection points: 2
#     Edge 49, Type (0, 1), BuildingBlock: UVAHIK_clean_linker_0, # of connection points: 2
#     Edge 50, Type (0, 1), BuildingBlock: UVAHIK_clean_linker_0, # of connection points: 2
#     Edge 51, Type (0, 1), BuildingBlock: UVAHIK_clean_linker_0, # of connection points: 2
#     Edge 52, Type (0, 1), BuildingBlock: UVAHIK_clean_linker_0, # of connection points: 2
#     Edge 53, Type (0, 1), BuildingBlock: UVAHIK_clean_linker_0, # of connection points: 2
#     Edge 54, Type (0, 1), BuildingBlock: UVAHIK_clean_linker_0, # of connection points: 2
#     Edge 55, Type (0, 1), BuildingBlock: UVAHIK_clean_linker_0, # of connection points: 2
#     Edge 56, Type (0, 1), BuildingBlock: UVAHIK_clean_linker_0, # of connection points: 2
#     Edge 57, Type (0, 1), BuildingBlock: UVAHIK_clean_linker_0, # of connection points: 2
#     Edge 58, Type (0, 1), BuildingBlock: UVAHIK_clean_linker_0, # of connection points: 2
#     Edge 59, Type (0, 1), BuildingBlock: UVAHIK_clean_linker_0, # of connection points: 2
#     Edge 60, Type (0, 1), BuildingBlock: UVAHIK_clean_linker_0, # of connection points: 2
#     Edge 61, Type (0, 1), BuildingBlock: UVAHIK_clean_linker_0, # of connection points: 2
#     Edge 62, Type (0, 1), BuildingBlock: UVAHIK_clean_linker_0, # of connection points: 2
#     Edge 63, Type (0, 1), BuildingBlock: UVAHIK_clean_linker_0, # of connection points: 2
#     Edge 64, Type (0, 1), BuildingBlock: UVAHIK_clean_linker_0, # of connection points: 2
#     Edge 65, Type (0, 1), BuildingBlock: UVAHIK_clean_linker_0, # of connection points: 2
#     Edge 66, Type (0, 1), BuildingBlock: UVAHIK_clean_linker_0, # of connection points: 2
#     Edge 67, Type (0, 1), BuildingBlock: UVAHIK_clean_linker_0, # of connection points: 2
#     Edge 68, Type (0, 1), BuildingBlock: UVAHIK_clean_linker_0, # of connection points: 2
#     Edge 69, Type (0, 1), BuildingBlock: UVAHIK_clean_linker_0, # of connection points: 2
#     Edge 70, Type (0, 1), BuildingBlock: UVAHIK_clean_linker_0, # of connection points: 2
#     Edge 71, Type (0, 1), BuildingBlock: UVAHIK_clean_linker_0, # of connection points: 2
#     Edge 72, Type (0, 1), BuildingBlock: UVAHIK_clean_linker_0, # of connection points: 2
#     Edge 73, Type (0, 1), BuildingBlock: UVAHIK_clean_linker_0, # of connection points: 2
#     Edge 74, Type (0, 1), BuildingBlock: UVAHIK_clean_linker_0, # of connection points: 2
#     Edge 75, Type (0, 1), BuildingBlock: UVAHIK_clean_linker_0, # of connection points: 2
# Relax obj value: 0.061
# Max RMSD: 0.181
# Mean RMSD: 0.113
data_MOF--net-ctn--node1-NAHDIM_clean_sbu_0--node2-PAMTOO_clean_linker_0--edge1-UVAHIK_clean_linker_0
_symmetry_space_group_name_H-M    P1
_symmetry_Int_Tables_number       1
_symmetry_cell_setting            triclinic
loop_
_symmetry_equiv_pos_as_xyz
'x, y, z'
_cell_length_a     69.6978
_cell_length_b     70.481558
_cell_length_c     70.894891
_cell_angle_alpha  86.125266
_cell_angle_beta   92.403024
_cell_angle_gamma 99.473705
loop_
_atom_site_label
_atom_site_type_symbol
_atom_site_fract_x
_atom_site_fract_y
_atom_site_fract_z
_atom_type_partial_charge
H0 H 0.00037 0.06981 0.03778 0.0
H1 H 0.02921 0.02202 0.05697 0.0
H2 H 0.0455 0.05438 0.00514 0.0
H3 H 0.03921 0.01189 0.00439 0.0
C4 C 0.04658 0.00857 0.01818 0.0
O5 O 0.05152 0.02506 0.0279 0.0
H6 H 0.03625 0.99782 0.02653 0.0
C7 C 0.01106 0.06059 0.03591 0.0
C8 C 0.02269 0.06397 0.01995 0.0
C9 C 0.01331 0.04559 0.04953 0.0
C10 C 0.02708 0.03362 0.04667 0.0
C11 C 0.03847 0.03672 0.03061 0.0
C12 C 0.03649 0.05202 0.01744 0.0
H13 H 0.29966 0.68901 0.24339 0.0
H14 H 0.26119 0.7012 0.19662 0.0
H15 H 0.30747 0.74506 0.21374 0.0
H16 H 0.26951 0.75751 0.20567 0.0
C17 C 0.26427 0.74825 0.19379 0.0
O18 O 0.27786 0.73686 0.19033 0.0
H19 H 0.25035 0.73904 0.19794 0.0
C20 C 0.29533 0.69888 0.23225 0.0
C21 C 0.30567 0.71775 0.23012 0.0
C22 C 0.27931 0.69266 0.22021 0.0
C23 C 0.27367 0.70556 0.20589 0.0
C24 C 0.28371 0.72443 0.20381 0.0
C25 C 0.29971 0.73047 0.21576 0.0
H26 H 0.96707 0.49242 0.09167 0.0
H27 H 0.95658 0.47362 0.03501 0.0
H28 H 0.00085 0.45292 0.07041 0.0
H29 H 0.01122 0.46196 0.0315 0.0
C30 C 0.99673 0.45814 0.02429 0.0
O31 O 0.9829 0.45119 0.03747 0.0
H32 H 0.993 0.47143 0.01662 0.0
C33 C 0.97061 0.48417 0.08032 0.0
C34 C 0.98541 0.4728 0.08326 0.0
C35 C 0.96004 0.48464 0.06299 0.0
C36 C 0.96429 0.47334 0.04859 0.0
C37 C 0.97889 0.46192 0.05141 0.0
C38 C 0.98936 0.4616 0.06866 0.0
H39 H 0.70007 0.83205 0.23978 0.0
H40 H 0.67987 0.77705 0.21665 0.0
H41 H 0.7353 0.80914 0.20129 0.0
H42 H 0.70536 0.79261 0.17132 0.0
C43 C 0.70399 0.77763 0.17784 0.0
O44 O 0.71052 0.77766 0.19648 0.0
H45 H 0.68831 0.77121 0.17716 0.0
C46 C 0.70207 0.82091 0.23058 0.0
C47 C 0.71935 0.82272 0.22063 0.0
C48 C 0.68774 0.80445 0.2294 0.0
C49 C 0.6908 0.78978 0.21794 0.0
C50 C 0.70786 0.79162 0.20776 0.0
C51 C 0.72216 0.80794 0.20923 0.0
H52 H 0.08455 0.96953 0.4958 0.0
H53 H 0.03057 0.96348 0.4632 0.0
H54 H 0.07367 0.01363 0.45349 0.0
H55 H 0.03494 0.02296 0.44962 0.0
C56 C 0.02657 0.0084 0.44734 0.0
O57 O 0.03919 0.99613 0.44343 0.0
H58 H 0.01868 0.00306 0.46049 0.0
C59 C 0.07519 0.97502 0.48489 0.0
C60 C 0.08152 0.99288 0.4752 0.0
C61 C 0.05684 0.96424 0.48079 0.0
C62 C 0.04475 0.97154 0.46672 0.0
C63 C 0.05093 0.98926 0.45692 0.0
C64 C 0.06927 -0.00017 0.46105 0.0
H65 H 0.20013 0.76626 0.80062 0.0
H66 H 0.21917 0.72293 0.76913 0.0
H67 H 0.25266 0.7441 0.81761 0.0
H68 H 0.27668 0.73695 0.78731 0.0
C69 C 0.26643 0.72573 0.78007 0.0
O70 O 0.25004 0.72022 0.79062 0.0
H71 H 0.26232 0.73196 0.76591 0.0
C72 C 0.21051 0.75677 0.79848 0.0
C73 C 0.22674 0.75677 0.81092 0.0
C74 C 0.20758 0.74465 0.78331 0.0
C75 C 0.22107 0.73233 0.78077 0.0
C76 C 0.2373 0.73228 0.79306 0.0
C77 C 0.24013 0.74444 0.80808 0.0
H78 H 0.95681 0.56435 0.50688 0.0
H79 H 0.97468 0.53528 0.4607 0.0
H80 H 0.01121 0.58552 0.47996 0.0
H81 H 0.01212 0.58312 0.43908 0.0
C82 C 0.00701 0.56737 0.43834 0.0
O83 O 0.00756 0.55846 0.45621 0.0
H84 H 0.99184 0.56535 0.43231 0.0
C85 C 0.96718 0.56339 0.49616 0.0
C86 C 0.98439 0.57697 0.495 0.0
C87 C 0.96345 0.54826 0.48387 0.0
C88 C 0.97729 0.54667 0.47047 0.0
C89 C 0.99443 0.56006 0.46923 0.0
C90 C 0.99798 0.57512 0.48142 0.0
H91 H 0.78708 0.80582 0.84389 0.0
H92 H 0.82846 0.77988 0.81498 0.0
H93 H 0.80181 0.82477 0.78647 0.0
H94 H 0.80763 0.79609 0.76027 0.0
C95 C 0.81805 0.7888 0.76926 0.0
O96 O 0.82585 0.80054 0.78338 0.0
H97 H 0.8099 0.77498 0.7754 0.0
C98 C 0.7955 0.80506 0.83153 0.0
C99 C 0.79292 0.81708 0.81528 0.0
C100 C 0.80821 0.79147 0.83162 0.0
C101 C 0.81847 0.79013 0.81524 0.0
C102 C 0.81602 0.80206 0.79906 0.0
C103 C 0.8034 0.81554 0.7991 0.0
H104 H 0.29007 0.30983 0.34403 0.0
H105 H 0.33067 0.27909 0.31979 0.0
H106 H 0.31121 0.32666 0.28815 0.0
H107 H 0.31493 0.29609 0.2646 0.0
C108 C 0.32533 0.28861 0.27341 0.0
O109 O 0.33303 0.29992 0.2879 0.0
H110 H 0.31724 0.27466 0.27933 0.0
C111 C 0.29919 0.30794 0.33251 0.0
C112 C 0.29921 0.32008 0.31595 0.0
C113 C 0.31049 0.29307 0.33414 0.0
C114 C 0.32212 0.29066 0.31904 0.0
C115 C 0.32225 0.30272 0.30253 0.0
C116 C 0.31094 0.31744 0.30103 0.0
H117 H 0.47324 0.99253 0.58924 0.0
H118 H 0.45956 0.97213 0.5335 0.0
H119 H 0.50029 0.94694 0.56986 0.0
H120 H 0.51164 0.95792 0.53021 0.0
C121 C 0.49734 0.95277 0.52312 0.0
O122 O 0.48333 0.94709 0.53643 0.0
H123 H 0.4933 0.96492 0.51378 0.0
C124 C 0.47488 0.98274 0.57849 0.0
C125 C 0.48784 0.96945 0.5819 0.0
C126 C 0.46459 0.98396 0.56106 0.0
C127 C 0.46745 0.97168 0.54697 0.0
C128 C 0.48047 0.9586 0.55016 0.0
C129 C 0.49051 0.95739 0.56757 0.0
H130 H 0.20247 0.333 0.73789 0.0
H131 H 0.1814 0.27791 0.71534 0.0
H132 H 0.23562 0.31049 0.69719 0.0
H133 H 0.20884 0.29351 0.66783 0.0
C134 C 0.20406 0.27908 0.67504 0.0
O135 O 0.21092 0.27876 0.69358 0.0
H136 H 0.18787 0.27625 0.67474 0.0
C137 C 0.20407 0.32191 0.72846 0.0
C138 C 0.22075 0.32395 0.71755 0.0
C139 C 0.18981 0.30535 0.72788 0.0
C140 C 0.19231 0.29073 0.71615 0.0
C141 C 0.20877 0.29271 0.70508 0.0
C142 C 0.223 0.30916 0.7059 0.0
H143 H 0.79281 0.19604 0.75721 0.0
H144 H 0.75961 0.21198 0.70767 0.0
H145 H 0.80767 0.25194 0.72821 0.0
H146 H 0.77403 0.26978 0.71577 0.0
C147 C 0.76743 0.25954 0.70511 0.0
O148 O 0.77963 0.24644 0.70264 0.0
H149 H 0.75321 0.25197 0.71047 0.0
C150 C 0.79019 0.20639 0.74578 0.0
C151 C 0.80228 0.22445 0.74428 0.0
C152 C 0.7747 0.20165 0.73267 0.0
C153 C 0.77137 0.21529 0.71802 0.0
C154 C 0.78322 0.23334 0.71654 0.0
C155 C 0.79871 0.23784 0.7295 0.0
H156 H 0.50261 0.56905 0.54036 0.0
H157 H 0.53386 0.52275 0.5587 0.0
H158 H 0.54388 0.55184 0.50418 0.0
H159 H 0.53981 0.51018 0.50474 0.0
C160 C 0.54709 0.50722 0.51865 0.0
O161 O 0.55269 0.52414 0.52755 0.0
H162 H 0.53652 0.49719 0.52745 0.0
C163 C 0.51308 0.55979 0.53785 0.0
C164 C 0.52286 0.56237 0.5207 0.0
C165 C 0.5169 0.54565 0.55185 0.0
C166 C 0.53039 0.53364 0.54818 0.0
C167 C 0.53986 0.53581 0.53096 0.0
C168 C 0.5363 0.55026 0.51738 0.0
H169 H 0.58006 0.47858 0.00034 0.0
H170 H 0.52707 0.46816 0.96641 0.0
H171 H 0.56717 0.52056 0.95666 0.0
H172 H 0.52695 0.52659 0.95271 0.0
C173 C 0.51985 0.51169 0.94984 0.0
O174 O 0.53383 0.50077 0.94629 0.0
H175 H 0.51161 0.50549 0.96256 0.0
C176 C 0.57054 0.48311 0.98904 0.0
C177 C 0.57592 0.50099 0.97905 0.0
C178 C 0.55297 0.47107 0.98468 0.0
C179 C 0.54066 0.47718 0.97013 0.0
C180 C 0.54586 0.49497 0.96012 0.0
C181 C 0.56348 0.50675 0.96444 0.0
H182 H 0.70736 0.27089 0.29711 0.0
H183 H 0.72152 0.22279 0.26932 0.0
H184 H 0.757 0.24479 0.3164 0.0
H185 H 0.77962 0.23472 0.28567 0.0
C186 C 0.76842 0.22379 0.2791 0.0
O187 O 0.75256 0.21951 0.29053 0.0
H188 H 0.76408 0.23004 0.26503 0.0
C189 C 0.71681 0.26031 0.29576 0.0
C190 C 0.73265 0.25951 0.30856 0.0
C191 C 0.71257 0.24703 0.28169 0.0
C192 C 0.72448 0.23301 0.28025 0.0
C193 C 0.74061 0.23244 0.29259 0.0
C194 C 0.74452 0.24546 0.30688 0.0
H195 H 0.4595 0.06368 0.00874 0.0
H196 H 0.478 0.03575 0.96198 0.0
H197 H 0.51307 0.08685 0.98142 0.0
H198 H 0.51298 0.08546 0.94005 0.0
C199 C 0.5085 0.06965 0.93907 0.0
O200 O 0.50975 0.06049 0.95677 0.0
H201 H 0.49322 0.06709 0.93334 0.0
C202 C 0.47007 0.06273 0.99819 0.0
C203 C 0.48675 0.07691 0.99679 0.0
C204 C 0.46659 0.04784 0.98563 0.0
C205 C 0.48017 0.04721 0.97167 0.0
C206 C 0.49678 0.06131 0.97017 0.0
C207 C 0.50006 0.07611 0.98267 0.0
C208 C 0.21798 0.92568 0.98839 0.0
O209 O 0.22799 0.92969 0.97292 0.0
O210 O 0.24199 0.88438 0.97515 0.0
Zn211 Zn 0.24612 0.90033 0.99807 0.0
O212 O 0.27071 0.91977 0.9962 0.0
C213 C 0.23784 0.86666 0.02378 0.0
O214 O 0.22442 0.8611 0.01084 0.0
O215 O 0.22314 0.91362 0.00094 0.0
C216 C 0.28692 0.91386 0.99911 0.0
O217 O 0.287 0.89538 0.00303 0.0
C218 C 0.25309 0.88736 0.96111 0.0
O219 O 0.26771 0.90173 0.961 0.0
O220 O 0.24872 0.88289 0.02129 0.0
C221 C 0.16553 0.45626 0.2975 0.0
O222 O 0.16701 0.4703 0.30902 0.0
O223 O 0.12368 0.48223 0.30103 0.0
Zn224 Zn 0.13842 0.47786 0.27825 0.0
O225 O 0.15709 0.50198 0.27132 0.0
C226 C 0.11007 0.48587 0.25049 0.0
O227 O 0.11346 0.50231 0.25869 0.0
O228 O 0.15368 0.45613 0.28338 0.0
C229 C 0.16358 0.5059 0.25479 0.0
O230 O 0.15811 0.49373 0.2416 0.0
C231 C 0.13034 0.49551 0.31197 0.0
O232 O 0.14752 0.50583 0.30885 0.0
O233 O 0.11924 0.4724 0.25655 0.0
C234 C 0.81405 0.60701 0.02804 0.0
O235 O 0.799 0.60141 0.01682 0.0
O236 O 0.80324 0.66 0.00841 0.0
Zn237 Zn 0.79496 0.64007 0.02939 0.0
O238 O 0.76986 0.62399 0.02105 0.0
C239 C 0.79877 0.6698 0.05633 0.0
O240 O 0.81319 0.67806 0.04571 0.0
O241 O 0.81557 0.62326 0.03524 0.0
C242 C 0.75895 0.61399 0.0332 0.0
O243 O 0.76438 0.61419 0.05117 0.0
C244 C 0.80454 0.65505 0.99167 0.0
O245 O 0.80109 0.63666 0.98838 0.0
O246 O 0.78951 0.65342 0.05231 0.0
C247 C 0.85163 0.05518 0.24546 0.0
O248 O 0.84272 0.0421 0.23433 0.0
O249 O 0.89914 0.02673 0.27152 0.0
Zn250 Zn 0.88055 0.02984 0.2495 0.0
O251 O 0.85993 0.00617 0.24806 0.0
C252 C 0.90079 0.01978 0.21808 0.0
O253 O 0.89646 0.00253 0.22651 0.0
O254 O 0.86793 0.05297 0.25325 0.0
C255 C 0.86297 0.98954 0.25427 0.0
O256 O 0.87992 0.9876 0.26231 0.0
C257 C 0.89281 0.02319 0.28815 0.0
O258 O 0.874 0.02134 0.29066 0.0
O259 O 0.89546 0.03402 0.22533 0.0
C260 C 0.32832 0.11614 0.52351 0.0
O261 O 0.32389 0.12106 0.50585 0.0
O262 O 0.30328 0.15481 0.50774 0.0
Zn263 Zn 0.2963 0.13523 0.52942 0.0
O264 O 0.2737 0.11597 0.52055 0.0
C265 C 0.27093 0.14968 0.55426 0.0
O266 O 0.25741 0.14096 0.54292 0.0
O267 O 0.31862 0.12108 0.53661 0.0
C268 C 0.26571 0.102 0.53129 0.0
O269 O 0.27253 0.0998 0.54872 0.0
C270 C 0.28933 0.16174 0.49924 0.0
O271 O 0.27158 0.15607 0.50518 0.0
O272 O 0.28871 0.14897 0.55147 0.0
C273 C 0.36023 0.55962 0.76521 0.0
O274 O 0.36268 0.54845 0.78041 0.0
O275 O 0.39677 0.5295 0.77135 0.0
Zn276 Zn 0.37995 0.53266 0.74783 0.0
O277 O 0.35982 0.50888 0.74445 0.0
C278 C 0.4117 0.52851 0.72445 0.0
O279 O 0.41609 0.51724 0.73895 0.0
O280 O 0.3664 0.55567 0.74955 0.0
C281 C 0.36471 0.49228 0.74448 0.0
O282 O 0.3831 0.49057 0.74727 0.0
C283 C 0.39135 0.51817 0.78554 0.0
O284 O 0.37383 0.50787 0.78527 0.0
O285 O 0.39702 0.53701 0.72514 0.0
C286 C 0.71933 0.42426 0.49234 0.0
O287 O 0.7334 0.43339 0.48177 0.0
O288 O 0.74356 0.37937 0.47783 0.0
Zn289 Zn 0.7457 0.39657 0.49959 0.0
O290 O 0.7692 0.41711 0.49648 0.0
C291 C 0.73834 0.36503 0.52763 0.0
O292 O 0.72419 0.35892 0.51559 0.0
O293 O 0.7214 0.40834 0.50108 0.0
C294 C 0.78543 0.41175 0.49419 0.0
O295 O 0.78605 0.39325 0.49379 0.0
C296 C 0.74488 0.38643 0.46087 0.0
O297 O 0.74723 0.40523 0.45761 0.0
O298 O 0.74943 0.38089 0.52376 0.0
C299 C 0.66419 0.95759 0.79862 0.0
O300 O 0.66512 0.97116 0.8106 0.0
O301 O 0.62395 0.98572 0.79998 0.0
Zn302 Zn 0.6385 0.98016 0.77745 0.0
O303 O 0.65702 0.00409 0.76953 0.0
C304 C 0.60168 0.97414 0.75606 0.0
O305 O 0.59452 0.97833 0.77182 0.0
O306 O 0.65354 0.95837 0.78368 0.0
C307 C 0.64992 0.01888 0.76334 0.0
O308 O 0.63091 0.01784 0.76211 0.0
C309 C 0.63129 0.99865 0.81104 0.0
O310 O 0.64903 0.00784 0.80828 0.0
O311 O 0.61981 0.9737 0.75543 0.0
C312 C 0.99771 0.23054 0.8984 0.0
O313 O 0.98476 0.22918 0.88435 0.0
O314 O 0.98182 0.26789 0.86856 0.0
Zn315 Zn 0.00638 0.27096 0.88481 0.0
O316 O 0.0073 0.29329 0.90141 0.0
C317 C 0.03214 0.28986 0.85583 0.0
O318 O 0.02034 0.30265 0.85502 0.0
O319 O 0.00816 0.24673 0.9012 0.0
C320 C 0.99834 0.30731 0.89679 0.0
O321 O 0.9884 0.30746 0.88064 0.0
C322 C 0.96492 0.26476 0.87535 0.0
O323 O 0.96315 0.26343 0.8938 0.0
O324 O 0.02913 0.27543 0.86768 0.0
C325 C 0.49044 0.73126 0.40619 0.0
O326 O 0.47274 0.73508 0.40288 0.0
O327 O 0.47704 0.75969 0.36576 0.0
Zn328 Zn 0.50127 0.76583 0.38206 0.0
O329 O 0.49977 0.78837 0.39758 0.0
C330 C 0.52776 0.78696 0.35462 0.0
O331 O 0.51662 0.80023 0.35519 0.0
O332 O 0.50473 0.74256 0.399 0.0
C333 C 0.51155 0.79214 0.41149 0.0
O334 O 0.52486 0.78116 0.4156 0.0
C335 C 0.46658 0.77226 0.36017 0.0
O336 O 0.47142 0.78997 0.36544 0.0
O337 O 0.52406 0.77154 0.36509 0.0
C338 C 0.00427 0.79855 0.60903 0.0
O339 O 0.98604 0.79191 0.61295 0.0
O340 O 0.98797 0.77078 0.65044 0.0
Zn341 Zn 0.01123 0.76773 0.63577 0.0
O342 O 0.00544 0.74403 0.62095 0.0
C343 C 0.03772 0.75011 0.6613 0.0
O344 O 0.02589 0.73419 0.6576 0.0
O345 O 0.01767 0.79056 0.6173 0.0
C346 C 0.01931 0.73873 0.61268 0.0
O347 O 0.03689 0.74875 0.61428 0.0
C348 C 0.97912 0.75701 0.66088 0.0
O349 O 0.98527 0.74031 0.66208 0.0
O350 O 0.03426 0.7661 0.65366 0.0
C351 C 0.50745 0.30104 0.10925 0.0
O352 O 0.48938 0.29331 0.11276 0.0
O353 O 0.49266 0.27201 0.15043 0.0
Zn354 Zn 0.51579 0.26989 0.13495 0.0
O355 O 0.51069 0.24693 0.11881 0.0
C356 C 0.53866 0.25927 0.16805 0.0
O357 O 0.5218 0.2502 0.17399 0.0
O358 O 0.52126 0.29354 0.11733 0.0
C359 C 0.51302 0.22998 0.12464 0.0
O360 O 0.51861 0.22665 0.14229 0.0
C361 C 0.47996 0.2578 0.15578 0.0
O362 O 0.48158 0.24042 0.15115 0.0
O363 O 0.53948 0.26859 0.15203 0.0
C364 C 0.24782 0.78106 0.8302 0.0
C365 C 0.22965 0.76969 0.82679 0.0
C366 C 0.25036 0.79375 0.84476 0.0
C367 C 0.22234 0.81895 0.87571 0.0
H368 H 0.27101 0.82714 0.90485 0.0
C369 C 0.23297 0.8607 0.94391 0.0
C370 C 0.25006 0.87431 0.94539 0.0
C371 C 0.23035 0.84809 0.92929 0.0
C372 C 0.2574 0.82509 0.89672 0.0
H373 H 0.20005 0.76221 0.83622 0.0
H374 H 0.20454 0.78395 0.86194 0.0
H375 H 0.26674 0.8044 0.87998 0.0
H376 H 0.27779 0.88535 0.93268 0.0
H377 H 0.27326 0.86318 0.90727 0.0
H378 H 0.21293 0.83941 0.8928 0.0
C379 C 0.21672 0.78354 0.85307 0.0
C380 C 0.25495 0.81211 0.88243 0.0
C381 C 0.21415 0.77101 0.8384 0.0
C382 C 0.26445 0.87506 0.93193 0.0
C383 C 0.26192 0.8623 0.91744 0.0
C384 C 0.22473 0.83178 0.89014 0.0
C385 C 0.23481 0.7952 0.85636 0.0
C386 C 0.2374 0.8089 0.8717 0.0
C387 C 0.24486 0.84867 0.916 0.0
C388 C 0.24229 0.83501 0.90074 0.0
H389 H 0.25996 0.78047 0.82132 0.0
H390 H 0.2644 0.80271 0.84666 0.0
H391 H 0.20876 0.81715 0.86753 0.0
H392 H 0.22161 0.85977 0.95406 0.0
H393 H 0.21712 0.83763 0.92858 0.0
C394 C 0.01242 0.54206 0.41661 0.0
C395 C 0.01979 0.55884 0.42585 0.0
C396 C 0.0244 0.5338 0.40535 0.0
C397 C 0.07603 0.53224 0.39664 0.0
H398 H 0.05591 0.51527 0.3477 0.0
C399 C 0.12524 0.51577 0.33841 0.0
C400 C 0.11826 0.50037 0.32705 0.0
C401 C 0.11333 0.52138 0.35166 0.0
C402 C 0.06167 0.51965 0.36145 0.0
H403 H 0.04551 0.57971 0.43139 0.0
H404 H 0.06649 0.56549 0.41147 0.0
H405 H 0.03487 0.52811 0.36845 0.0
H406 H 0.09349 0.47835 0.32114 0.0
H407 H 0.07277 0.48805 0.34441 0.0
H408 H 0.10291 0.52397 0.38953 0.0
C409 C 0.05147 0.55869 0.41288 0.0
C410 C 0.04961 0.52704 0.37333 0.0
C411 C 0.03946 0.56694 0.42412 0.0
C412 C 0.09929 0.49034 0.32961 0.0
C413 C 0.08737 0.49597 0.34286 0.0
C414 C 0.0881 0.52485 0.38475 0.0
C415 C 0.04405 0.54207 0.4033 0.0
C416 C 0.05669 0.53356 0.391 0.0
C417 C 0.09417 0.51172 0.35385 0.0
C418 C 0.0811 0.5186 0.36696 0.0
H419 H 0.99737 0.53536 0.41812 0.0
H420 H 0.01833 0.52082 0.39843 0.0
H421 H 0.08183 0.53686 0.4103 0.0
H422 H 0.13978 0.52381 0.3368 0.0
H423 H 0.11895 0.5337 0.35975 0.0
C424 C 0.81164 0.78526 0.86681 0.0
C425 C 0.81035 0.77834 0.84859 0.0
C426 C 0.81316 0.77276 0.88277 0.0
C427 C 0.82543 0.72474 0.89809 0.0
H428 H 0.79398 0.72907 0.94094 0.0
C429 C 0.80902 0.66446 0.95724 0.0
C430 C 0.80842 0.66987 0.97589 0.0
C431 C 0.81131 0.67841 0.94218 0.0
C432 C 0.80309 0.72784 0.92922 0.0
H433 H 0.80952 0.75287 0.83284 0.0
H434 H 0.81208 0.73107 0.86066 0.0
H435 H 0.79407 0.75216 0.91378 0.0
H436 H 0.81041 0.69424 0.99343 0.0
H437 H 0.81453 0.71857 0.96715 0.0
H438 H 0.83417 0.70019 0.91344 0.0
C439 C 0.81228 0.74621 0.86262 0.0
C440 C 0.80314 0.74108 0.91364 0.0
C441 C 0.81079 0.7587 0.84667 0.0
C442 C 0.8107 0.68957 0.97922 0.0
C443 C 0.81296 0.70351 0.96415 0.0
C444 C 0.82535 0.71147 0.91366 0.0
C445 C 0.81338 0.75307 0.88086 0.0
C446 C 0.81417 0.73958 0.89782 0.0
C447 C 0.81303 0.69808 0.94545 0.0
C448 C 0.81404 0.71277 0.92933 0.0
H449 H 0.81162 0.80037 0.86873 0.0
H450 H 0.81426 0.77855 0.89661 0.0
H451 H 0.83433 0.72337 0.88625 0.0
H452 H 0.80731 0.64941 0.95419 0.0
H453 H 0.81111 0.67373 0.92792 0.0
C454 C 0.99242 0.00382 0.43301 0.0
C455 C 0.01247 0.00987 0.43088 0.0
C456 C 0.97943 0.00521 0.41761 0.0
C457 C 0.97523 0.03 0.37015 0.0
H458 H 0.93123 0.98924 0.3635 0.0
C459 C 0.92667 0.02545 0.30209 0.0
C460 C 0.90645 0.0213 0.30446 0.0
C461 C 0.93956 0.02397 0.31755 0.0
C462 C 0.94336 0.00081 0.36527 0.0
H463 H 0.03476 0.02198 0.41118 0.0
H464 H 0.01215 0.02407 0.38408 0.0
H465 H 0.95391 0.98678 0.39036 0.0
H466 H 0.88393 0.01216 0.32489 0.0
H467 H 0.90649 0.00952 0.35186 0.0
H468 H 0.96476 0.04389 0.3449 0.0
C469 C 0.00636 0.01859 0.39768 0.0
C470 C 0.95634 0.99943 0.38068 0.0
C471 C 0.01933 0.01729 0.41311 0.0
C472 C 0.89942 0.01547 0.32259 0.0
C473 C 0.91233 0.01385 0.33802 0.0
C474 C 0.96232 0.0313 0.35468 0.0
C475 C 0.98624 0.01259 0.39974 0.0
C476 C 0.97243 0.01403 0.38333 0.0
C477 C 0.93253 0.01817 0.33567 0.0
C478 C 0.94624 0.01673 0.35209 0.0
H479 H 0.98679 0.99808 0.4466 0.0
H480 H 0.96402 0.00073 0.41978 0.0
H481 H 0.98726 0.04166 0.37192 0.0
H482 H 0.93257 0.02995 0.28831 0.0
H483 H 0.95506 0.02718 0.31527 0.0
C484 C 0.23218 0.26586 0.66264 0.0
C485 C 0.21204 0.26428 0.66473 0.0
C486 C 0.23969 0.25248 0.65261 0.0
C487 C 0.22691 0.20383 0.63398 0.0
H488 H 0.2683 0.22285 0.5993 0.0
C489 C 0.24573 0.16038 0.57331 0.0
C490 C 0.26544 0.16109 0.56935 0.0
C491 C 0.2403 0.17193 0.58673 0.0
C492 C 0.25694 0.21726 0.60913 0.0
H493 H 0.18391 0.24754 0.65815 0.0
H494 H 0.19692 0.22434 0.64032 0.0
H495 H 0.2567 0.2451 0.61931 0.0
H496 H 0.29495 0.1742 0.57671 0.0
H497 H 0.28541 0.19447 0.60017 0.0
H498 H 0.22685 0.17607 0.6234 0.0
C499 C 0.207 0.23567 0.64669 0.0
C500 C 0.25029 0.23001 0.62062 0.0
C501 C 0.19952 0.24902 0.65677 0.0
C502 C 0.27964 0.17334 0.57941 0.0
C503 C 0.27418 0.18502 0.59277 0.0
C504 C 0.2335 0.19111 0.62243 0.0
C505 C 0.22718 0.23728 0.64441 0.0
C506 C 0.23503 0.2235 0.63303 0.0
C507 C 0.25444 0.18455 0.59644 0.0
C508 C 0.24844 0.19773 0.60973 0.0
H509 H 0.24207 0.27753 0.66871 0.0
H510 H 0.25531 0.25401 0.65134 0.0
H511 H 0.21539 0.19826 0.64364 0.0
H512 H 0.23442 0.15108 0.56584 0.0
H513 H 0.22496 0.17139 0.58909 0.0
C514 C 0.50262 0.56007 0.57848 0.0
C515 C 0.50695 0.54368 0.57026 0.0
C516 C 0.4926 0.55825 0.5953 0.0
C517 C 0.48319 0.52927 0.63867 0.0
H518 H 0.43476 0.54957 0.63882 0.0
C519 C 0.43408 0.51628 0.70333 0.0
C520 C 0.4232 0.53056 0.70721 0.0
C521 C 0.44446 0.51778 0.68672 0.0
C522 C 0.44843 0.54413 0.6392 0.0
H523 H 0.50427 0.51249 0.57371 0.0
H524 H 0.48752 0.50953 0.60363 0.0
H525 H 0.45301 0.55257 0.6099 0.0
H526 H 0.41501 0.55787 0.69704 0.0
H527 H 0.43386 0.56107 0.66852 0.0
H528 H 0.47924 0.52151 0.66806 0.0
C529 C 0.49177 0.52371 0.59675 0.0
C530 C 0.45876 0.54573 0.62257 0.0
C531 C 0.50145 0.52546 0.57968 0.0
C532 C 0.42315 0.54656 0.69432 0.0
C533 C 0.43386 0.54829 0.67788 0.0
C534 C 0.47308 0.52801 0.65545 0.0
C535 C 0.48707 0.54007 0.60454 0.0
C536 C 0.47617 0.53825 0.62216 0.0
C537 C 0.44453 0.53383 0.67375 0.0
C538 C 0.4555 0.53537 0.65594 0.0
H539 H 0.50706 0.57439 0.572 0.0
H540 H 0.48932 0.57109 0.60122 0.0
H541 H 0.49671 0.52356 0.63869 0.0
H542 H 0.43423 0.50367 0.71294 0.0
H543 H 0.45211 0.50614 0.68393 0.0
C544 C 0.74936 0.26276 0.67385 0.0
C545 C 0.76422 0.27027 0.68653 0.0
C546 C 0.74661 0.27252 0.65637 0.0
C547 C 0.77179 0.3088 0.62186 0.0
H548 H 0.71942 0.31382 0.60391 0.0
C549 C 0.75655 0.36027 0.55833 0.0
C550 C 0.74137 0.35367 0.54551 0.0
C551 C 0.7594 0.34961 0.57525 0.0
C552 C 0.73412 0.31235 0.60861 0.0
H553 H 0.78839 0.29328 0.69079 0.0
H554 H 0.78349 0.31057 0.66032 0.0
H555 H 0.72435 0.29607 0.63398 0.0
H556 H 0.71733 0.33064 0.54039 0.0
H557 H 0.72242 0.31197 0.56989 0.0
H558 H 0.78157 0.32514 0.59654 0.0
C559 C 0.77392 0.29717 0.66383 0.0
C560 C 0.73694 0.30218 0.62584 0.0
C561 C 0.77664 0.28741 0.6813 0.0
C562 C 0.72912 0.33615 0.54998 0.0
C563 C 0.73197 0.3255 0.56693 0.0
C564 C 0.76897 0.31897 0.60464 0.0
C565 C 0.75883 0.28987 0.65119 0.0
C566 C 0.75582 0.30036 0.6327 0.0
C567 C 0.74714 0.33212 0.57976 0.0
C568 C 0.75011 0.32093 0.59786 0.0
H569 H 0.73988 0.24934 0.67747 0.0
H570 H 0.73509 0.26634 0.64682 0.0
H571 H 0.78649 0.30739 0.6266 0.0
H572 H 0.76622 0.37372 0.55535 0.0
H573 H 0.77105 0.35524 0.58495 0.0
C574 C 0.5185 0.96631 0.60092 0.0
C575 C 0.49876 0.96838 0.6003 0.0
C576 C 0.52885 0.96555 0.61819 0.0
C577 C 0.52851 0.97936 0.66731 0.0
H578 H 0.56532 0.94382 0.67665 0.0
C579 C 0.56906 0.97208 0.73938 0.0
C580 C 0.58902 0.97118 0.73887 0.0
C581 C 0.55732 0.97037 0.72291 0.0
C582 C 0.55521 0.95394 0.6742 0.0
H583 H 0.47431 0.97087 0.6174 0.0
H584 H 0.49241 0.96961 0.64755 0.0
H585 H 0.54619 0.94353 0.64702 0.0
H586 H 0.61224 0.9674 0.72071 0.0
H587 H 0.59182 0.96463 0.69199 0.0
H588 H 0.53768 0.98994 0.69436 0.0
C589 C 0.49994 0.96883 0.63464 0.0
C590 C 0.54426 0.95376 0.65722 0.0
C591 C 0.48958 0.96956 0.61737 0.0
C592 C 0.59691 0.96813 0.72161 0.0
C593 C 0.58517 0.96643 0.70515 0.0
C594 C 0.53948 0.97955 0.68427 0.0
C595 C 0.51971 0.96686 0.63524 0.0
C596 C 0.53087 0.96656 0.65354 0.0
C597 C 0.56528 0.96772 0.70557 0.0
C598 C 0.55305 0.96692 0.68786 0.0
H599 H 0.52609 0.96565 0.58801 0.0
H600 H 0.54414 0.96434 0.61814 0.0
H601 H 0.51853 0.98959 0.6648 0.0
H602 H 0.5625 0.97433 0.75246 0.0
H603 H 0.54199 0.97114 0.72377 0.0
C604 C 0.83691 0.23835 0.75223 0.0
C605 C 0.81849 0.22937 0.75824 0.0
C606 C 0.85221 0.24287 0.76536 0.0
C607 C 0.86833 0.23038 0.81437 0.0
H608 H 0.90488 0.27789 0.80705 0.0
C609 C 0.92894 0.25553 0.86971 0.0
C610 C 0.94753 0.26196 0.86253 0.0
C611 C 0.91265 0.25226 0.85745 0.0
C612 C 0.89485 0.26451 0.80921 0.0
H613 H 0.80152 0.21844 0.78274 0.0
H614 H 0.82817 0.22651 0.80571 0.0
H615 H 0.8774 0.27083 0.78478 0.0
H616 H 0.96358 0.27031 0.83689 0.0
H617 H 0.93519 0.26463 0.81557 0.0
H618 H 0.8858 0.22413 0.83886 0.0
C619 C 0.83092 0.22971 0.79082 0.0
C620 C 0.87913 0.26044 0.79644 0.0
C621 C 0.81565 0.22511 0.77767 0.0
C622 C 0.94946 0.26534 0.84288 0.0
C623 C 0.93318 0.2622 0.83066 0.0
C624 C 0.88399 0.23451 0.82721 0.0
C625 C 0.84941 0.2386 0.78482 0.0
C626 C 0.86577 0.24324 0.79877 0.0
C627 C 0.91462 0.25551 0.83779 0.0
C628 C 0.8975 0.25155 0.82467 0.0
H629 H 0.83958 0.24159 0.73732 0.0
H630 H 0.86634 0.2494 0.76022 0.0
H631 H 0.85849 0.21687 0.81645 0.0
H632 H 0.92697 0.25281 0.88478 0.0
H633 H 0.89849 0.24726 0.86335 0.0
C634 C 0.48642 0.93212 0.49578 0.0
C635 C 0.49895 0.93606 0.51155 0.0
C636 C 0.48769 0.9164 0.48516 0.0
C637 C 0.52123 0.88342 0.47454 0.0
H638 H 0.47427 0.85161 0.45629 0.0
C639 C 0.52274 0.81243 0.43881 0.0
C640 C 0.51017 0.80859 0.42301 0.0
C641 C 0.52134 0.82788 0.44976 0.0
C642 C 0.48752 0.86048 0.4611 0.0
H643 H 0.52195 0.92632 0.52918 0.0
H644 H 0.52422 0.89876 0.51064 0.0
H645 H 0.47177 0.87869 0.47521 0.0
H646 H 0.48634 0.81807 0.40626 0.0
H647 H 0.48406 0.84514 0.42522 0.0
H648 H 0.53699 0.86527 0.46038 0.0
C649 C 0.51373 0.90805 0.50619 0.0
C650 C 0.48609 0.87599 0.47195 0.0
C651 C 0.51242 0.92375 0.51683 0.0
C652 C 0.4962 0.82058 0.41838 0.0
C653 C 0.49481 0.83603 0.42932 0.0
C654 C 0.52267 0.86793 0.46367 0.0
C655 C 0.50142 0.90424 0.49019 0.0
C656 C 0.50293 0.88765 0.47877 0.0
C657 C 0.50735 0.83986 0.44515 0.0
C658 C 0.50583 0.85628 0.4568 0.0
H659 H 0.47573 0.94129 0.49164 0.0
H660 H 0.47808 0.91393 0.47285 0.0
H661 H 0.53448 0.8923 0.47935 0.0
H662 H 0.53362 0.80344 0.44281 0.0
H663 H 0.53106 0.83028 0.462 0.0
C664 C 0.16249 0.31894 0.74101 0.0
C665 C 0.17251 0.30334 0.73979 0.0
C666 C 0.14678 0.31741 0.75291 0.0
C667 C 0.11109 0.28188 0.77968 0.0
H668 H 0.10671 0.32572 0.80855 0.0
C669 C 0.05933 0.27683 0.84186 0.0
C670 C 0.0483 0.29176 0.8426 0.0
C671 C 0.07422 0.27832 0.829 0.0
C672 C 0.10764 0.31344 0.80044 0.0
H673 H 0.17389 0.2739 0.74997 0.0
H674 H 0.1466 0.27127 0.77096 0.0
H675 H 0.133 0.32799 0.78649 0.0
H676 H 0.04442 0.32005 0.83056 0.0
H677 H 0.07053 0.32267 0.80814 0.0
H678 H 0.08587 0.26726 0.79393 0.0
C679 C 0.15064 0.28458 0.76248 0.0
C680 C 0.12267 0.31473 0.78776 0.0
C681 C 0.1663 0.28608 0.75047 0.0
C682 C 0.05264 0.3083 0.83034 0.0
C683 C 0.06764 0.30984 0.81756 0.0
C684 C 0.09613 0.28056 0.79245 0.0
C685 C 0.14079 0.30029 0.76395 0.0
C686 C 0.1246 0.29896 0.77723 0.0
C687 C 0.07851 0.29482 0.81669 0.0
C688 C 0.09427 0.29631 0.80299 0.0
H689 H 0.1668 0.33233 0.73271 0.0
H690 H 0.13928 0.32965 0.7534 0.0
H691 H 0.11195 0.26958 0.77159 0.0
H692 H 0.05637 0.26389 0.85111 0.0
H693 H 0.08251 0.26662 0.8288 0.0
C694 C 0.50051 0.58207 0.50265 0.0
C695 C 0.51944 0.57817 0.50668 0.0
C696 C 0.49744 0.59793 0.49068 0.0
C697 C 0.52261 0.64542 0.4732 0.0
H698 H 0.47898 0.64339 0.4372 0.0
C699 C 0.51269 0.70942 0.42069 0.0
C700 C 0.49375 0.71365 0.41761 0.0
C701 C 0.51584 0.69261 0.43109 0.0
C702 C 0.49111 0.64423 0.44734 0.0
H703 H 0.54996 0.58756 0.50095 0.0
H704 H 0.54459 0.61509 0.47978 0.0
H705 H 0.48458 0.61412 0.45554 0.0
H706 H 0.46327 0.7036 0.42316 0.0
H707 H 0.46882 0.67435 0.44153 0.0
H708 H 0.52907 0.67552 0.46515 0.0
C709 C 0.53213 0.60601 0.48608 0.0
C710 C 0.49434 0.62746 0.45781 0.0
C711 C 0.53519 0.59012 0.49802 0.0
C712 C 0.47804 0.70075 0.42525 0.0
C713 C 0.4812 0.68392 0.43566 0.0
C714 C 0.51938 0.66218 0.46275 0.0
C715 C 0.51325 0.61026 0.48249 0.0
C716 C 0.51011 0.62788 0.47088 0.0
C717 C 0.50015 0.67965 0.43867 0.0
C718 C 0.50357 0.66179 0.44972 0.0
H719 H 0.48806 0.57298 0.50893 0.0
H720 H 0.48273 0.60087 0.4883 0.0
H721 H 0.53468 0.64631 0.48341 0.0
H722 H 0.52512 0.71901 0.41494 0.0
H723 H 0.53059 0.68964 0.43295 0.0
C724 C 0.84232 0.79882 0.74371 0.0
C725 C 0.83419 0.7849 0.75745 0.0
C726 C 0.85778 0.79554 0.73311 0.0
C727 C 0.89709 0.76604 0.73356 0.0
H728 H 0.89855 0.78162 0.68005 0.0
C729 C 0.95338 0.74524 0.68447 0.0
C730 C 0.96222 0.75986 0.67168 0.0
C731 C 0.93757 0.74806 0.69484 0.0
C732 C 0.89842 0.77734 0.69501 0.0
H733 H 0.83606 0.75696 0.77141 0.0
H734 H 0.86282 0.75095 0.75263 0.0
H735 H 0.87127 0.78693 0.69835 0.0
H736 H 0.96132 0.78886 0.65965 0.0
H737 H 0.93376 0.79375 0.67777 0.0
H738 H 0.92422 0.75637 0.73016 0.0
C739 C 0.85737 0.76445 0.75005 0.0
C740 C 0.88281 0.78041 0.70551 0.0
C741 C 0.84196 0.76778 0.76068 0.0
C742 C 0.95483 0.7773 0.66938 0.0
C743 C 0.93897 0.78007 0.67968 0.0
C744 C 0.91266 0.76291 0.72304 0.0
C745 C 0.86548 0.7783 0.73614 0.0
C746 C 0.88198 0.77485 0.72492 0.0
C747 C 0.93021 0.7655 0.69256 0.0
C748 C 0.91352 0.76857 0.70366 0.0
H749 H 0.83676 0.81228 0.74127 0.0
H750 H 0.86392 0.80666 0.72277 0.0
H751 H 0.89707 0.76187 0.74854 0.0
H752 H 0.9587 0.73163 0.68655 0.0
H753 H 0.93098 0.73649 0.70451 0.0
C754 C 0.03121 0.9411 0.49815 0.0
C755 C 0.0503 0.94568 0.49162 0.0
C756 C 0.02562 0.92438 0.5097 0.0
C757 C 0.04652 0.89136 0.54358 0.0
H758 H 0.99715 0.85755 0.53736 0.0
C759 C 0.02827 0.82024 0.58877 0.0
C760 C 0.00915 0.81499 0.59503 0.0
C761 C 0.03292 0.83573 0.57552 0.0
C762 C 0.01089 0.86698 0.53943 0.0
H763 H 0.07812 0.93572 0.49121 0.0
H764 H 0.06842 0.90672 0.51153 0.0
H765 H 0.00571 0.88528 0.51497 0.0
H766 H 0.97992 0.82189 0.59232 0.0
H767 H 0.98814 0.84922 0.56953 0.0
H768 H 0.05164 0.87345 0.56818 0.0
C769 C 0.05789 0.91622 0.50796 0.0
C770 C 0.0158 0.88281 0.52657 0.0
C771 C 0.06344 0.93284 0.49635 0.0
C772 C 0.99478 0.82554 0.58773 0.0
C773 C -0.00054 0.84113 0.57457 0.0
C774 C 0.04158 0.87565 0.5565 0.0
C775 C 0.03903 0.91198 0.51501 0.0
C776 C 0.03371 0.8951 0.52849 0.0
C777 C 0.01861 0.84644 0.56833 0.0
C778 C 0.02373 0.86321 0.55456 0.0
H779 H 0.0208 0.95078 0.49492 0.0
H780 H 0.01103 0.92153 0.51504 0.0
H781 H 0.06028 0.90079 0.54562 0.0
H782 H 0.03965 0.81231 0.594 0.0
H783 H 0.04773 0.83918 0.57078 0.0
C784 C 0.185 0.76255 0.76342 0.0
C785 C 0.19047 0.74494 0.77018 0.0
C786 C 0.1687 0.76287 0.75132 0.0
C787 C 0.12261 0.73325 0.73704 0.0
H788 H 0.12464 0.77003 0.69365 0.0
C789 C 0.05985 0.7316 0.68103 0.0
C790 C 0.05512 0.74939 0.67385 0.0
C791 C 0.07644 0.73089 0.69265 0.0
C792 C 0.12375 0.75983 0.70583 0.0
H793 H 0.18315 0.71387 0.7696 0.0
H794 H 0.15472 0.71444 0.74832 0.0
H795 H 0.15356 0.76905 0.71403 0.0
H796 H 0.06402 0.7804 0.67339 0.0
H797 H 0.09277 0.77916 0.6939 0.0
H798 H 0.09276 0.72414 0.72898 0.0
C799 C 0.16299 0.72798 0.75248 0.0
C800 C 0.14034 0.75925 0.71748 0.0
C801 C 0.17936 0.72766 0.7645 0.0
C802 C 0.06729 0.76645 0.67862 0.0
C803 C 0.08385 0.76574 0.69029 0.0
C804 C 0.10599 0.73388 0.72542 0.0
C805 C 0.15747 0.74559 0.74579 0.0
C806 C 0.13994 0.74598 0.73323 0.0
C807 C 0.08866 0.74795 0.6974 0.0
C808 C 0.10636 0.74719 0.7097 0.0
H809 H 0.19339 0.7761 0.7674 0.0
H810 H 0.16472 0.77666 0.74654 0.0
H811 H 0.12177 0.72305 0.74922 0.0
H812 H 0.05083 0.71818 0.67756 0.0
H813 H 0.07986 0.71694 0.69767 0.0
C814 C 0.97274 0.60247 0.51264 0.0
C815 C 0.98805 0.59314 0.50782 0.0
C816 C 0.97619 0.61775 0.52454 0.0
C817 C 0.01451 0.65555 0.54072 0.0
H818 H 0.98039 0.65751 0.58213 0.0
C819 C 0.03145 0.71384 0.59493 0.0
C820 C 0.01576 0.72158 0.60135 0.0
C821 C 0.02815 0.69777 0.58402 0.0
C822 C 0.98992 0.65733 0.57048 0.0
H823 H 0.01896 0.59243 0.51206 0.0
H824 H 0.02501 0.61942 0.53249 0.0
H825 H 0.97437 0.63028 0.56199 0.0
H826 H 0.98429 0.71859 0.60134 0.0
H827 H 0.97852 0.6909 0.58189 0.0
H828 H 0.02982 0.68274 0.54883 0.0
C829 C 0.01036 0.6149 0.52695 0.0
C830 C 0.98649 0.6417 0.559 0.0
C831 C 0.00689 0.59949 0.5152 0.0
C832 C 0.99669 0.71289 0.59668 0.0
C833 C 0.99339 0.69694 0.58562 0.0
C834 C 0.01783 0.67128 0.55207 0.0
C835 C 0.99505 0.62417 0.53174 0.0
C836 C 0.99876 0.64066 0.54402 0.0
C837 C 0.00908 0.68919 0.57912 0.0
C838 C 0.00559 0.67237 0.56711 0.0
H839 H 0.95812 0.59821 0.50695 0.0
H840 H 0.96416 0.62481 0.52781 0.0
H841 H 0.02404 0.65524 0.5291 0.0
H842 H 0.04632 0.72011 0.59841 0.0
H843 H 0.04058 0.69199 0.57957 0.0
C844 C 0.72946 0.85844 0.22146 0.0
C845 C 0.73454 0.83991 0.22256 0.0
C846 C 0.7436 0.87459 0.22423 0.0
C847 C 0.79086 0.88906 0.2478 0.0
H848 H 0.7932 0.93547 0.21476 0.0
C849 C 0.85275 0.95378 0.25457 0.0
C850 C 0.84807 0.97239 0.25131 0.0
C851 C 0.83896 0.93758 0.25096 0.0
C852 C 0.79258 0.92273 0.2243 0.0
H853 H 0.75836 0.82371 0.22725 0.0
H854 H 0.78313 0.85199 0.23215 0.0
H855 H 0.76913 0.90726 0.20819 0.0
H856 H 0.8251 0.98859 0.24211 0.0
H857 H 0.80088 0.96032 0.23632 0.0
H858 H 0.81398 0.90455 0.26416 0.0
C859 C 0.76819 0.85399 0.22918 0.0
C860 C 0.77884 0.90655 0.22046 0.0
C861 C 0.75408 0.83785 0.22621 0.0
C862 C 0.8292 0.97444 0.24466 0.0
C863 C 0.81535 0.95823 0.24121 0.0
C864 C 0.80448 0.90529 0.25175 0.0
C865 C 0.76307 0.8725 0.22833 0.0
C866 C 0.77786 0.88956 0.23217 0.0
C867 C 0.82011 0.93959 0.24417 0.0
C868 C 0.80553 0.92233 0.24004 0.0
H869 H 0.71452 0.86044 0.21853 0.0
H870 H 0.73922 0.88868 0.22361 0.0
H871 H 0.79023 0.87623 0.25723 0.0
H872 H 0.8672 0.95171 0.25957 0.0
H873 H 0.84324 0.92348 0.25314 0.0
C874 C 0.79377 0.20223 0.28592 0.0
C875 C 0.77654 0.20573 0.27636 0.0
C876 C 0.8015 0.18564 0.28295 0.0
C877 C 0.78882 0.13674 0.26561 0.0
H878 H 0.8444 0.14191 0.25881 0.0
C879 C 0.82484 0.07498 0.24034 0.0
C880 C 0.84275 0.07223 0.24907 0.0
C881 C 0.81649 0.09109 0.24383 0.0
C882 C 0.82889 0.14016 0.2609 0.0
H883 H 0.75343 0.19449 0.25684 0.0
H884 H 0.76697 0.16543 0.25149 0.0
H885 H 0.83021 0.17016 0.26495 0.0
H886 H 0.86584 0.0842 0.26844 0.0
H887 H 0.85119 0.11212 0.27464 0.0
H888 H 0.78753 0.10671 0.26157 0.0
C889 C 0.77453 0.17547 0.26128 0.0
C890 C 0.82076 0.15636 0.26443 0.0
C891 C 0.76684 0.19211 0.26422 0.0
C892 C 0.85208 0.08592 0.2614 0.0
C893 C 0.84373 0.102 0.26488 0.0
C894 C 0.79697 0.12051 0.26212 0.0
C895 C 0.79205 0.17214 0.27047 0.0
C896 C 0.80064 0.15484 0.26684 0.0
C897 C 0.82586 0.1048 0.25612 0.0
C898 C 0.81711 0.12203 0.25974 0.0
H899 H 0.80135 0.21243 0.29556 0.0
H900 H 0.81483 0.18332 0.2905 0.0
H901 H 0.7733 0.13505 0.26764 0.0
H902 H 0.81728 0.06473 0.23075 0.0
H903 H 0.80282 0.09293 0.23667 0.0
C904 C 0.4415 0.02573 0.00458 0.0
C905 C 0.44861 0.03326 0.98689 0.0
C906 C 0.42425 0.01251 0.00578 0.0
C907 C 0.39313 0.97705 0.00411 0.0
H908 H 0.34967 0.98486 0.97013 0.0
C909 C 0.32331 0.92063 -0.00049 0.0
C910 C 0.30545 0.92746 0.99767 0.0
C911 C 0.34085 0.93341 0.99807 0.0
C912 C 0.36161 0.98256 0.97982 0.0
H913 H 0.44313 0.03274 0.95656 0.0
H914 H 0.4133 0.0093 0.95864 0.0
H915 H 0.38012 0.00741 0.96807 0.0
H916 H 0.29197 0.95309 0.99297 0.0
H917 H 0.32258 0.97542 0.99077 0.0
H918 H 0.37446 0.9525 0.0162 0.0
C919 C 0.42093 0.01383 0.97161 0.0
C920 C 0.37915 0.99534 0.97848 0.0
C921 C 0.43817 0.02708 0.97041 0.0
C922 C 0.30549 0.94736 0.99439 0.0
C923 C 0.32304 0.96015 0.99301 0.0
C924 C 0.37557 0.96429 0.00548 0.0
C925 C 0.4137 0.00648 0.98931 0.0
C926 C 0.39512 0.99275 0.99061 0.0
C927 C 0.34093 0.95332 0.99483 0.0
C928 C 0.3596 0.9669 0.99336 0.0
H929 H 0.44931 0.03002 0.01754 0.0
H930 H 0.419 0.00728 0.01965 0.0
H931 H 0.4052 0.97452 0.01354 0.0
H932 H 0.3238 0.90538 0.00195 0.0
H933 H 0.35435 0.92764 0.99927 0.0
C934 C 0.27483 0.33682 0.29738 0.0
C935 C 0.28626 0.33487 0.31398 0.0
C936 C 0.26181 0.34997 0.29587 0.0
C937 C 0.251 0.39392 0.31539 0.0
H938 H 0.19881 0.37693 0.29535 0.0
C939 C 0.19075 0.44099 0.3164 0.0
C940 C 0.1784 0.44151 0.30025 0.0
C941 C 0.2036 0.42767 0.31856 0.0
C942 C 0.21338 0.38199 0.30077 0.0
H943 H 0.2934 0.3455 0.34182 0.0
H944 H 0.27059 0.36852 0.33919 0.0
H945 H 0.2223 0.35473 0.29777 0.0
H946 H 0.16973 0.42831 0.27378 0.0
H947 H 0.19234 0.40533 0.27739 0.0
H948 H 0.24222 0.42126 0.31815 0.0
C949 C 0.27173 0.35987 0.32735 0.0
C950 C 0.22683 0.36926 0.30217 0.0
C951 C 0.28467 0.34661 0.32891 0.0
C952 C 0.17898 0.42824 0.28644 0.0
C953 C 0.1919 0.41499 0.28855 0.0
C954 C 0.23759 0.40671 0.31388 0.0
C955 C 0.26003 0.36154 0.31088 0.0
C956 C 0.24578 0.3751 0.30946 0.0
C957 C 0.20446 0.41462 0.30458 0.0
C958 C 0.21862 0.40091 0.30652 0.0
H959 H 0.27562 0.32785 0.28571 0.0
H960 H 0.25312 0.3511 0.28293 0.0
H961 H 0.26557 0.39889 0.32086 0.0
H962 H 0.1906 0.45096 0.32735 0.0
H963 H 0.21283 0.42757 0.33123 0.0
C964 C 0.10739 0.00503 0.49915 0.0
C965 C 0.10078 0.00425 0.48016 0.0
C966 C 0.12572 0.01511 0.50388 0.0
C967 C 0.16363 0.05409 0.48713 0.0
H968 H 0.19688 0.02996 0.5233 0.0
C969 C 0.24177 0.09063 0.50553 0.0
C970 C 0.24797 0.0894 0.52463 0.0
C971 C 0.22445 0.07952 0.49938 0.0
C972 C 0.18771 0.037 0.51334 0.0
H973 H 0.10826 0.01369 0.45124 0.0
H974 H 0.14021 0.03166 0.45959 0.0
H975 H 0.16519 0.01234 0.51397 0.0
H976 H 0.24097 0.07538 0.55223 0.0
H977 H 0.21056 0.05632 0.54162 0.0
H978 H 0.18586 0.07893 0.4868 0.0
C979 C 0.13112 0.0244 0.47078 0.0
C980 C 0.16958 0.02688 0.50797 0.0
C981 C 0.11281 0.01416 0.46602 0.0
C982 C 0.23664 0.07659 0.5374 0.0
C983 C 0.21924 0.06558 0.53128 0.0
C984 C 0.1817 0.06429 0.49262 0.0
C985 C 0.13781 0.02482 0.48975 0.0
C986 C 0.15732 0.03536 0.4949 0.0
C987 C 0.21285 0.06702 0.51222 0.0
C988 C 0.19392 0.05591 0.50588 0.0
H989 H 0.09833 0.99796 0.51045 0.0
H990 H 0.13035 0.01549 0.51865 0.0
H991 H 0.15438 0.06105 0.47718 0.0
H992 H 0.25024 0.10028 0.4953 0.0
H993 H 0.22017 0.08074 0.48454 0.0
C994 C 0.76977 0.16573 0.73918 0.0
C995 C 0.76189 0.18262 0.73446 0.0
C996 C 0.75765 0.14789 0.74128 0.0
C997 C 0.7069 0.1263 0.75097 0.0
H998 H 0.72174 0.08043 0.73243 0.0
C999 C 0.65482 0.05378 0.75235 0.0
C1000 C 0.66279 0.03729 0.75851 0.0
C1001 C 0.6669 0.07137 0.7485 0.0
C1002 C 0.71749 0.09309 0.73782 0.0
H1003 H 0.73507 0.19398 0.72821 0.0
H1004 H 0.71397 0.16282 0.73149 0.0
H1005 H 0.74286 0.11147 0.72734 0.0
H1006 H 0.68972 0.02625 0.76519 0.0
H1007 H 0.71079 0.05702 0.75858 0.0
H1008 H 0.68158 0.10795 0.76151 0.0
C1009 C 0.72952 0.1634 0.73378 0.0
C1010 C 0.72958 0.11086 0.73492 0.0
C1011 C 0.74163 0.18123 0.73169 0.0
C1012 C 0.68312 0.03869 0.76044 0.0
C1013 C 0.69521 0.05629 0.75657 0.0
C1014 C 0.69481 0.10856 0.75384 0.0
C1015 C 0.73738 0.14654 0.73871 0.0
C1016 C 0.72443 0.12767 0.74149 0.0
C1017 C 0.68721 0.07287 0.75071 0.0
C1018 C 0.69998 0.09174 0.74733 0.0
H1019 H 0.78534 0.16629 0.74119 0.0
H1020 H 0.76416 0.13521 0.74524 0.0
H1021 H 0.70267 0.13891 0.7565 0.0
H1022 H 0.63922 0.05318 0.75063 0.0
H1023 H 0.66031 0.08382 0.74375 0.0
C1024 C 0.45019 0.00829 0.53975 0.0
C1025 C 0.45108 0.9982 0.55749 0.0
C1026 C 0.43741 0.02155 0.53633 0.0
C1027 C 0.40937 0.05233 0.56018 0.0
H1028 H 0.37882 0.05142 0.51317 0.0
C1029 C 0.3462 0.09596 0.54632 0.0
C1030 C 0.34359 0.10405 0.52791 0.0
C1031 C 0.35987 0.08364 0.55016 0.0
C1032 C 0.38744 0.05208 0.52625 0.0
H1033 H 0.43907 0.99411 0.5855 0.0
H1034 H 0.41692 0.01744 0.57956 0.0
H1035 H 0.40158 0.0288 0.51939 0.0
H1036 H 0.35372 0.10602 0.49922 0.0
H1037 H 0.37782 0.08491 0.50598 0.0
H1038 H 0.39533 0.0757 0.567 0.0
C1039 C 0.42626 0.01518 0.56837 0.0
C1040 C 0.40045 0.03907 0.52983 0.0
C1041 C 0.43897 0.00182 0.57177 0.0
C1042 C 0.35526 0.09991 0.51353 0.0
C1043 C 0.369 0.08769 0.51739 0.0
C1044 C 0.39642 0.06543 0.55656 0.0
C1045 C 0.42529 0.02512 0.55059 0.0
C1046 C 0.41154 0.03904 0.54683 0.0
C1047 C 0.37132 0.07921 0.5357 0.0
C1048 C 0.38528 0.06546 0.53955 0.0
H1049 H 0.45955 0.00613 0.52855 0.0
H1050 H 0.43719 0.02921 0.52257 0.0
H1051 H 0.4179 0.0528 0.57332 0.0
H1052 H 0.33738 0.09881 0.55771 0.0
H1053 H 0.3611 0.0772 0.56438 0.0
C1054 C 0.57811 0.50682 0.50186 0.0
C1055 C 0.56477 0.49832 0.51547 0.0
C1056 C 0.59474 0.49882 0.49899 0.0
C1057 C 0.61481 0.45357 0.50614 0.0
H1058 H 0.66461 0.48689 0.50037 0.0
C1059 C 0.68707 0.42363 0.50691 0.0
C1060 C 0.7014 0.43257 0.49437 0.0
C1061 C 0.6703 0.43162 0.50909 0.0
C1062 C 0.65078 0.47739 0.5017 0.0
H1063 H 0.55841 0.47515 0.53706 0.0
H1064 H 0.58748 0.46107 0.53206 0.0
H1065 H 0.63555 0.50094 0.50491 0.0
H1066 H 0.70923 0.45682 0.47413 0.0
H1067 H 0.67982 0.4706 0.47771 0.0
H1068 H 0.62997 0.43002 0.50284 0.0
C1069 C 0.58497 0.47374 0.5234 0.0
C1070 C 0.63413 0.48545 0.50433 0.0
C1071 C 0.56839 0.48181 0.52632 0.0
C1072 C 0.69851 0.44961 0.48397 0.0
C1073 C 0.6817 0.45758 0.4861 0.0
C1074 C 0.63144 0.44551 0.50343 0.0
C1075 C 0.59833 0.48216 0.50969 0.0
C1076 C 0.61598 0.47362 0.50665 0.0
C1077 C 0.66741 0.44871 0.49874 0.0
C1078 C 0.64965 0.45732 0.50125 0.0
H1079 H 0.57562 0.51965 0.49344 0.0
H1080 H 0.60468 0.50555 0.48823 0.0
H1081 H 0.60097 0.4441 0.5076 0.0
H1082 H 0.68886 0.41052 0.5152 0.0
H1083 H 0.65974 0.42456 0.51914 0.0
C1084 C 0.73998 0.26646 0.34257 0.0
C1085 C 0.73638 0.27314 0.32384 0.0
C1086 C 0.74204 0.27908 0.35718 0.0
C1087 C 0.7296 0.32599 0.36861 0.0
H1088 H 0.76563 0.32115 0.41117 0.0
C1089 C 0.74389 0.38124 0.42622 0.0
C1090 C 0.7443 0.37367 0.44506 0.0
C1091 C 0.7435 0.3692 0.41128 0.0
C1092 C 0.7554 0.32257 0.39943 0.0
H1093 H 0.73302 0.29837 0.30558 0.0
H1094 H 0.73699 0.32049 0.33097 0.0
H1095 H 0.76459 0.29994 0.38518 0.0
H1096 H 0.74471 0.34752 0.463 0.0
H1097 H 0.74406 0.32655 0.43689 0.0
H1098 H 0.72053 0.3487 0.38282 0.0
C1099 C 0.73769 0.30542 0.3345 0.0
C1100 C 0.75477 0.31041 0.38455 0.0
C1101 C 0.73549 0.29278 0.31993 0.0
C1102 C 0.74438 0.35381 0.44864 0.0
C1103 C 0.74414 0.34181 0.4337 0.0
C1104 C 0.73033 0.33822 0.38341 0.0
C1105 C 0.74069 0.29868 0.35335 0.0
C1106 C 0.74181 0.31192 0.36898 0.0
C1107 C 0.74367 0.34937 0.41487 0.0
C1108 C 0.74317 0.33658 0.39901 0.0
H1109 H 0.74053 0.25135 0.34601 0.0
H1110 H 0.74409 0.27333 0.37154 0.0
H1111 H 0.71916 0.32733 0.35704 0.0
H1112 H 0.74385 0.39647 0.42297 0.0
H1113 H 0.74332 0.37546 0.39691 0.0
C1114 C 0.51447 0.04592 0.91583 0.0
C1115 C 0.52155 0.06207 0.92612 0.0
C1116 C 0.52675 0.0385 0.90419 0.0
C1117 C 0.57285 0.05188 0.87914 0.0
H1118 H 0.56942 0.99664 0.87643 0.0
C1119 C 0.62736 0.01931 0.83751 0.0
C1120 C 0.61951 0.00435 0.82593 0.0
C1121 C 0.61588 0.02567 0.85068 0.0
C1122 C 0.57044 0.0121 0.87693 0.0
H1123 H 0.54706 0.08259 0.93318 0.0
H1124 H 0.56868 0.0696 0.9129 0.0
H1125 H 0.54842 0.00918 0.89757 0.0
H1126 H 0.59355 0.98399 0.81943 0.0
H1127 H 0.57348 0.99518 0.84237 0.0
H1128 H 0.59479 0.05482 0.85846 0.0
C1129 C 0.55353 0.06296 0.91339 0.0
C1130 C 0.5584 0.01929 0.88902 0.0
C1131 C 0.54122 0.07038 0.92501 0.0
C1132 C 0.60006 0.99554 0.82816 0.0
C1133 C 0.58857 0.00189 0.84136 0.0
C1134 C 0.58489 0.0447 0.86708 0.0
C1135 C 0.54642 0.04697 0.90279 0.0
C1136 C 0.55943 0.03927 0.89021 0.0
C1137 C 0.59629 0.0172 0.85259 0.0
C1138 C 0.58379 0.02473 0.8658 0.0
H1139 H 0.4994 0.03911 0.91675 0.0
H1140 H 0.52078 0.02627 0.89611 0.0
H1141 H 0.57379 0.06735 0.87949 0.0
H1142 H 0.64232 0.02636 0.83623 0.0
H1143 H 0.62233 0.03729 0.85934 0.0
C1144 C 0.2914 0.2724 0.35927 0.0
C1145 C 0.30945 0.27959 0.35123 0.0
C1146 C 0.29023 0.2595 0.37514 0.0
C1147 C 0.31912 0.242 0.4154 0.0
H1148 H 0.27642 0.19909 0.4174 0.0
C1149 C 0.31156 0.1814 0.47567 0.0
C1150 C 0.29275 0.17549 0.48256 0.0
C1151 C 0.31451 0.194 0.45955 0.0
C1152 C 0.28833 0.21109 0.41713 0.0
H1153 H 0.34046 0.27899 0.35367 0.0
H1154 H 0.33838 0.25616 0.38134 0.0
H1155 H 0.27995 0.22116 0.38938 0.0
H1156 H 0.26235 0.17842 0.47811 0.0
H1157 H 0.26751 0.20041 0.45021 0.0
H1158 H 0.32742 0.23189 0.44326 0.0
C1159 C 0.32516 0.26067 0.37541 0.0
C1160 C 0.29035 0.22374 0.40108 0.0
C1161 C 0.32633 0.2736 0.35947 0.0
C1162 C 0.27702 0.1826 0.47314 0.0
C1163 C 0.27995 0.19512 0.45706 0.0
C1164 C 0.3171 0.2293 0.43149 0.0
C1165 C 0.30707 0.25341 0.38336 0.0
C1166 C 0.30562 0.23948 0.40011 0.0
C1167 C 0.29869 0.20086 0.44999 0.0
C1168 C 0.30154 0.21385 0.43261 0.0
H1169 H 0.27809 0.27654 0.35312 0.0
H1170 H 0.27611 0.25437 0.38106 0.0
H1171 H 0.33094 0.25409 0.41514 0.0
H1172 H 0.32399 0.17617 0.48261 0.0
H1173 H 0.3291 0.19808 0.45437 0.0
C1174 C 0.51134 0.52515 0.91733 0.0
C1175 C 0.50622 0.51222 0.93291 0.0
C1176 C 0.49895 0.52533 0.90133 0.0
C1177 C 0.44783 0.51136 0.88561 0.0
H1178 H 0.46924 0.51626 0.83557 0.0
C1179 C 0.39899 0.50391 0.81778 0.0
C1180 C 0.40456 0.51689 0.8023 0.0
C1181 C 0.41144 0.50285 0.83367 0.0
C1182 C 0.46305 0.51509 0.84944 0.0
H1183 H 0.48467 0.48882 0.94383 0.0
H1184 H 0.46288 0.48912 0.91586 0.0
H1185 H 0.49092 0.51542 0.86341 0.0
H1186 H 0.42757 0.53894 0.79136 0.0
H1187 H 0.44911 0.53729 0.81914 0.0
H1188 H 0.41998 0.51121 0.87168 0.0
C1189 C 0.47626 0.49939 0.91614 0.0
C1190 C 0.47547 0.5146 0.86539 0.0
C1191 C 0.4887 0.49918 0.93211 0.0
C1192 C 0.42285 0.52874 0.80302 0.0
C1193 C 0.43526 0.52771 0.81891 0.0
C1194 C 0.43541 0.51191 0.86967 0.0
C1195 C 0.48124 0.51249 0.90059 0.0
C1196 C 0.46801 0.51278 0.88365 0.0
C1197 C 0.4297 0.51477 0.83443 0.0
C1198 C 0.44287 0.51384 0.85139 0.0
H1199 H 0.52493 0.53514 0.91758 0.0
H1200 H 0.50313 0.53568 0.88964 0.0
H1201 H 0.44167 0.51021 0.8995 0.0
H1202 H 0.38503 0.49452 0.81764 0.0
H1203 H 0.40681 0.49255 0.84527 0.0
C1204 C 0.70928 0.74662 0.16462 0.0
C1205 C 0.71574 0.76627 0.167 0.0
C1206 C 0.72019 0.73612 0.15441 0.0
C1207 C 0.75714 0.74264 0.11793 0.0
H1208 H 0.76163 0.68963 0.1332 0.0
C1209 C 0.80121 0.69897 0.07523 0.0
C1210 C 0.79211 0.68019 0.07165 0.0
C1211 C 0.7938 0.70938 0.08855 0.0
C1212 C 0.76041 0.70439 0.12869 0.0
H1213 H 0.73903 0.79015 0.16165 0.0
H1214 H 0.75823 0.77183 0.14377 0.0
H1215 H 0.74497 0.70806 0.15333 0.0
H1216 H 0.76848 0.65736 0.07973 0.0
H1217 H 0.75549 0.67555 0.10276 0.0
H1218 H 0.77225 0.73891 0.09315 0.0
C1219 C 0.74453 0.76462 0.14939 0.0
C1220 C 0.75086 0.71494 0.14022 0.0
C1221 C 0.73361 0.7751 0.15962 0.0
C1222 C 0.77585 0.6718 0.08213 0.0
C1223 C 0.76846 0.6822 0.09543 0.0
C1224 C 0.76667 0.7321 0.10641 0.0
C1225 C 0.73785 0.74505 0.14652 0.0
C1226 C 0.74894 0.73413 0.13487 0.0
C1227 C 0.77715 0.70122 0.09858 0.0
C1228 C 0.76824 0.71278 0.11155 0.0
H1229 H 0.69566 0.73947 0.17045 0.0
H1230 H 0.71456 0.72112 0.15234 0.0
H1231 H 0.75568 0.7573 0.11326 0.0
H1232 H 0.81382 0.70582 0.06747 0.0
H1233 H 0.80101 0.7239 0.09085 0.0
C1234 C 0.99789 0.05868 0.07616 0.0
C1235 C 0.00154 0.04272 0.06681 0.0
C1236 C 0.98674 0.05609 0.09232 0.0
C1237 C 0.97027 0.0207 0.13112 0.0
H1238 H 0.93109 0.05299 0.13662 0.0
C1239 C 0.91632 0.00646 0.19184 0.0
C1240 C 0.91189 0.0225 0.20049 0.0
C1241 C 0.92698 0.00889 0.17536 0.0
C1242 C 0.94213 0.04401 0.13542 0.0
H1243 H 0.9962 0.0115 0.0671 0.0
H1244 H 0.97687 0.00698 0.09548 0.0
H1245 H 0.95028 0.05722 0.10822 0.0
H1246 H 0.91515 0.0537 0.19862 0.0
H1247 H 0.93406 0.05798 0.17002 0.0
H1248 H 0.96232 0.00763 0.15838 0.0
C1249 C 0.98279 0.0215 0.09033 0.0
C1250 C 0.9531 0.04642 0.11913 0.0
C1251 C 0.99388 0.02409 0.0741 0.0
C1252 C 0.91828 0.04104 0.19226 0.0
C1253 C 0.92903 0.04349 0.1758 0.0
C1254 C 0.95937 0.01836 0.14745 0.0
C1255 C 0.97906 0.03748 0.09958 0.0
C1256 C 0.96728 0.03479 0.1168 0.0
C1257 C 0.93355 0.02743 0.16718 0.0
C1258 C 0.94516 0.02998 0.1498 0.0
H1259 H 0.00389 0.07322 0.07115 0.0
H1260 H 0.98439 0.06867 0.09931 0.0
H1261 H 0.98129 0.01172 0.12985 0.0
H1262 H 0.91152 0.99196 0.19774 0.0
H1263 H 0.92992 0.9962 0.16893 0.0
C1264 C 0.24679 0.75386 0.16258 0.0
C1265 C 0.26097 0.76061 0.17625 0.0
C1266 C 0.24406 0.76516 0.14603 0.0
C1267 C 0.25327 0.8154 0.12595 0.0
H1268 H 0.24447 0.7918 0.07782 0.0
C1269 C 0.2546 0.86038 0.05495 0.0
C1270 C 0.24029 0.85427 0.04112 0.0
C1271 C 0.25691 0.84878 0.07138 0.0
C1272 C 0.24669 0.79857 0.09118 0.0
H1273 H 0.28401 0.78387 0.18312 0.0
H1274 H 0.27936 0.80368 0.15414 0.0
H1275 H 0.24899 0.77182 0.10662 0.0
H1276 H 0.21721 0.83113 0.03367 0.0
H1277 H 0.22117 0.81093 0.06245 0.0
H1278 H 0.25102 0.84214 0.11053 0.0
C1279 C 0.26999 0.78991 0.15638 0.0
C1280 C 0.24928 0.78713 0.10768 0.0
C1281 C 0.27271 0.7786 0.17292 0.0
C1282 C 0.22839 0.83625 0.04404 0.0
C1283 C 0.23072 0.82463 0.06048 0.0
C1284 C 0.25069 0.82683 0.10946 0.0
C1285 C 0.25559 0.78334 0.14277 0.0
C1286 C 0.25265 0.79543 0.12524 0.0
C1287 C 0.24498 0.83079 0.07435 0.0
C1288 C 0.24743 0.81856 0.09189 0.0
H1289 H 0.23779 0.73987 0.16476 0.0
H1290 H 0.23277 0.75974 0.13588 0.0
H1291 H 0.25551 0.82219 0.1393 0.0
H1292 H 0.26407 0.87414 0.05312 0.0
H1293 H 0.26821 0.85382 0.08166 0.0
C1294 C 0.00263 0.45596 0.10967 0.0
C1295 C 0.99698 0.47297 0.10137 0.0
C1296 C 0.01391 0.45629 0.12646 0.0
C1297 C 0.02802 0.48476 0.168 0.0
H1298 H 0.07303 0.45872 0.17142 0.0
C1299 C 0.08754 0.49889 0.22645 0.0
C1300 C 0.09614 0.48331 0.23418 0.0
C1301 C 0.07465 0.49669 0.21084 0.0
C1302 C 0.06035 0.46582 0.17083 0.0
H1303 H 0.99899 0.50372 0.1042 0.0
H1304 H 0.01842 0.50422 0.13357 0.0
H1305 H 0.05176 0.45643 0.14318 0.0
H1306 H 0.09778 0.45311 0.23173 0.0
H1307 H 0.07502 0.44918 0.20464 0.0
H1308 H 0.03654 0.49416 0.19561 0.0
C1309 C 0.01392 0.49059 0.12719 0.0
C1310 C 0.04819 0.46452 0.15463 0.0
C1311 C 0.00276 0.49028 0.11036 0.0
C1312 C 0.09145 0.46543 0.22605 0.0
C1313 C 0.07849 0.4632 0.21046 0.0
C1314 C 0.04011 0.48597 0.18423 0.0
C1315 C 0.0197 0.47362 0.13537 0.0
C1316 C 0.03202 0.47415 0.15296 0.0
C1317 C 0.06998 0.47883 0.20263 0.0
C1318 C 0.05656 0.4767 0.18577 0.0
H1319 H 0.99819 0.44233 0.10329 0.0
H1320 H 0.01796 0.44295 0.13256 0.0
H1321 H 0.01549 0.49208 0.16723 0.0
H1322 H 0.0909 0.5129 0.23231 0.0
H1323 H 0.06864 0.50912 0.20499 0.0
C1324 C 0.32505 0.74253 0.2503 0.0
C1325 C 0.32246 0.72415 0.24307 0.0
C1326 C 0.34046 0.74823 0.26302 0.0
C1327 C 0.37381 0.72833 0.29761 0.0
H1328 H 0.40493 0.77922 0.29239 0.0
C1329 C 0.44525 0.74846 0.34064 0.0
C1330 C 0.44947 0.76703 0.34739 0.0
C1331 C 0.42939 0.74358 0.32823 0.0
C1332 C 0.39621 0.76505 0.2942 0.0
H1333 H 0.33443 0.69761 0.24308 0.0
H1334 H 0.36117 0.7075 0.26539 0.0
H1335 H 0.37803 0.77017 0.26988 0.0
H1336 H 0.4402 0.795 0.34655 0.0
H1337 H 0.41229 0.78637 0.32509 0.0
H1338 H 0.39184 0.72317 0.32194 0.0
C1339 C 0.35111 0.71738 0.26143 0.0
C1340 C 0.38084 0.75987 0.28129 0.0
C1341 C 0.33578 0.71172 0.24866 0.0
C1342 C 0.43738 0.78058 0.34156 0.0
C1343 C 0.42145 0.77567 0.32917 0.0
C1344 C 0.3891 0.73353 0.31056 0.0
C1345 C 0.35355 0.73564 0.26884 0.0
C1346 C 0.36958 0.74139 0.28277 0.0
C1347 C 0.41731 0.75712 0.32232 0.0
C1348 C 0.40059 0.7519 0.30893 0.0
H1349 H 0.31491 0.75236 0.24648 0.0
H1350 H 0.34187 0.76232 0.26864 0.0
H1351 H 0.36516 0.7141 0.29931 0.0
H1352 H 0.45431 0.7377 0.34478 0.0
H1353 H 0.42681 0.72926 0.32301 0.0
C1354 C 0.00863 0.42825 0.01524 0.0
C1355 C 0.99756 0.44293 0.01064 0.0
C1356 C 0.00894 0.4137 0.00284 0.0
C1357 C 0.98107 0.38972 0.96313 0.0
H1358 H 0.02961 0.37199 0.95455 0.0
C1359 C 0.98815 0.33817 0.90488 0.0
C1360 C 0.99875 0.3231 0.90963 0.0
C1361 C 0.9882 0.35289 0.91713 0.0
C1362 C 0.01591 0.37665 0.95694 0.0
H1363 H 0.97764 0.45371 0.98995 0.0
H1364 H 0.97839 0.42849 0.96805 0.0
H1365 H 0.02927 0.3975 0.97609 0.0
H1366 H 0.01781 0.31176 0.93096 0.0
H1367 H 0.0178 0.33742 0.95238 0.0
H1368 H 0.96772 0.3689 0.94396 0.0
C1369 C 0.98682 0.42814 0.98122 0.0
C1370 C 0.01571 0.39126 0.96929 0.0
C1371 C 0.9865 0.44266 0.99363 0.0
C1372 C 0.00952 0.32317 0.92685 0.0
C1373 C 0.0096 0.33793 0.93908 0.0
C1374 C 0.98128 0.37515 0.95076 0.0
C1375 C 0.99805 0.41349 0.98567 0.0
C1376 C 0.99828 0.39797 0.97253 0.0
C1377 C 0.99887 0.35292 0.9344 0.0
C1378 C 0.9987 0.36844 0.94752 0.0
H1379 H 0.01695 0.428 0.02848 0.0
H1380 H 0.01746 0.40245 0.00687 0.0
H1381 H 0.96735 0.39432 0.96554 0.0
H1382 H 0.97974 0.33859 0.8917 0.0
H1383 H 0.97999 0.36437 0.91299 0.0
C1384 C 0.66296 0.78512 0.25072 0.0
C1385 C 0.66988 0.80251 0.24051 0.0
C1386 C 0.64682 0.78367 0.26207 0.0
C1387 C 0.6187 0.81371 0.28711 0.0
H1388 H 0.58097 0.76672 0.2912 0.0
C1389 C 0.54859 0.80654 0.32995 0.0
C1390 C 0.54393 0.78942 0.34135 0.0
C1391 C 0.56355 0.80851 0.31705 0.0
C1392 C 0.59147 0.77989 0.2903 0.0
H1393 H 0.66489 0.83177 0.23361 0.0
H1394 H 0.63656 0.82918 0.25326 0.0
H1395 H 0.60746 0.76932 0.26929 0.0
H1396 H 0.55145 0.76101 0.34825 0.0
H1397 H 0.57751 0.76451 0.32585 0.0
H1398 H 0.60266 0.82424 0.30815 0.0
C1399 C 0.64386 0.8168 0.25284 0.0
C1400 C 0.60666 0.78137 0.27777 0.0
C1401 C 0.66005 0.81827 0.24155 0.0
C1402 C 0.55462 0.77438 0.33966 0.0
C1403 C 0.56948 0.77632 0.32673 0.0
C1404 C 0.60346 0.81224 0.29959 0.0
C1405 C 0.63718 0.79954 0.2634 0.0
C1406 C 0.62055 0.79824 0.27613 0.0
C1407 C 0.57405 0.79336 0.31523 0.0
C1408 C 0.58979 0.79525 0.30144 0.0
H1409 H 0.67039 0.77281 0.25038 0.0
H1410 H 0.64223 0.77025 0.27022 0.0
H1411 H 0.6293 0.8268 0.28641 0.0
H1412 H 0.54062 0.81838 0.33089 0.0
H1413 H 0.56667 0.82177 0.30828 0.0
C1414 C 0.0369 0.09387 0.0011 0.0
C1415 C 0.02059 0.08024 0.00615 0.0
C1416 C 0.03474 0.10987 0.98892 0.0
C1417 C 0.00364 0.12771 0.95156 0.0
H1418 H 0.02449 0.1784 0.96846 0.0
C1419 C 0.98595 0.19687 0.91119 0.0
C1420 C 0.00042 0.21329 0.9106 0.0
C1421 C 0.98854 0.18053 0.92269 0.0
C1422 C 0.01886 0.16438 0.96332 0.0
H1423 H 0.9894 0.07222 0.00212 0.0
H1424 H 0.98568 0.10005 0.98044 0.0
H1425 H 0.02933 0.14981 0.9882 0.0
H1426 H 0.02909 0.2254 0.92133 0.0
H1427 H 0.03399 0.19671 0.94077 0.0
H1428 H 0.99361 0.14208 0.92647 0.0
C1429 C 6e-05 0.09842 0.98603 0.0
C1430 C 0.02157 0.14802 0.9747 0.0
C1431 C 0.00217 0.0826 0.99847 0.0
C1432 C 0.01759 0.21301 0.92163 0.0
C1433 C 0.02033 0.19657 0.93288 0.0
C1434 C 0.00119 0.14406 0.94001 0.0
C1435 C 0.0163 0.11231 0.98134 0.0
C1436 C 0.0139 0.12956 0.96897 0.0
C1437 C 0.00582 0.18011 0.93363 0.0
C1438 C 0.00867 0.16264 0.94578 0.0
H1439 H 0.05123 0.09239 0.00694 0.0
H1440 H 0.04748 0.12035 0.98542 0.0
H1441 H 0.99773 0.11359 0.94678 0.0
H1442 H 0.97248 0.19672 0.90295 0.0
H1443 H 0.97686 0.16832 0.92315 0.0
C1444 C 0.35294 0.30088 0.25174 0.0
C1445 C 0.34142 0.28522 0.26122 0.0
C1446 C 0.36786 0.29787 0.24029 0.0
C1447 C 0.39892 0.26178 0.23107 0.0
H1448 H 0.40798 0.2924 0.1838 0.0
C1449 C 0.45108 0.24503 0.17546 0.0
C1450 C 0.46376 0.26083 0.16747 0.0
C1451 C 0.436 0.24792 0.18679 0.0
C1452 C 0.40572 0.28385 0.19704 0.0
H1453 H 0.33623 0.25417 0.26615 0.0
H1454 H 0.36202 0.2488 0.24585 0.0
H1455 H 0.38193 0.29758 0.20381 0.0
H1456 H 0.47046 0.29206 0.16496 0.0
H1457 H 0.44413 0.29706 0.1847 0.0
H1458 H 0.42262 0.24793 0.22415 0.0
C1459 C 0.35984 0.26345 0.24751 0.0
C1460 C 0.39083 0.28684 0.20853 0.0
C1461 C 0.34499 0.26649 0.25903 0.0
C1462 C 0.46094 0.27957 0.17091 0.0
C1463 C 0.4458 0.28245 0.18213 0.0
C1464 C 0.41374 0.25872 0.21952 0.0
C1465 C 0.37148 0.27911 0.238 0.0
C1466 C 0.38727 0.27587 0.22572 0.0
C1467 C 0.43321 0.26666 0.19025 0.0
C1468 C 0.41732 0.26975 0.2024 0.0
H1469 H 0.35041 0.31545 0.25327 0.0
H1470 H 0.37671 0.31027 0.2334 0.0
H1471 H 0.39681 0.25329 0.24435 0.0
H1472 H 0.45284 0.2304 0.17308 0.0
H1473 H 0.4264 0.23547 0.19271 0.0
C1474 C 0.56158 0.44074 0.00097 0.0
C1475 C 0.54746 0.45238 0.99565 0.0
C1476 C 0.55681 0.42387 0.01243 0.0
C1477 C 0.51599 0.38754 0.02916 0.0
H1478 H 0.55119 0.37973 0.07176 0.0
C1479 C 0.49667 0.32778 0.08848 0.0
C1480 C 0.51169 0.31812 0.09588 0.0
C1481 C 0.50073 0.34394 0.07587 0.0
C1482 C 0.54133 0.38152 0.0598 0.0
H1483 H 0.5171 0.45513 0.99785 0.0
H1484 H 0.5087 0.42546 0.01771 0.0
H1485 H 0.55876 0.40791 0.04995 0.0
H1486 H 0.54274 0.3177 0.09563 0.0
H1487 H 0.54976 0.34559 0.0734 0.0
H1488 H 0.49863 0.36104 0.03891 0.0
C1489 C 0.52347 0.42943 0.01294 0.0
C1490 C 0.54567 0.3977 0.04731 0.0
C1491 C 0.52827 0.44639 0.00154 0.0
C1492 C 0.53084 0.32489 0.0903 0.0
C1493 C 0.53488 0.34096 0.07762 0.0
C1494 C 0.5117 0.37126 0.04159 0.0
C1495 C 0.53777 0.41817 0.01874 0.0
C1496 C 0.53307 0.40087 0.03185 0.0
C1497 C 0.5199 0.35074 0.0703 0.0
C1498 C 0.52434 0.36805 0.05706 0.0
H1499 H 0.5764 0.44472 0.99634 0.0
H1500 H 0.56804 0.41528 0.0164 0.0
H1501 H 0.50611 0.38954 0.01726 0.0
H1502 H 0.48176 0.32296 0.09254 0.0
H1503 H 0.48888 0.35127 0.07072 0.0
C1504 C 0.69314 0.26512 0.25863 0.0
C1505 C 0.69553 0.24781 0.26871 0.0
C1506 C 0.67661 0.26616 0.24702 0.0
C1507 C 0.63423 0.23559 0.22417 0.0
H1508 H 0.61291 0.28323 0.22114 0.0
C1509 C 0.55721 0.24309 0.19355 0.0
C1510 C 0.55663 0.25809 0.17954 0.0
C1511 C 0.57438 0.24166 0.20408 0.0
C1512 C 0.61879 0.26989 0.22181 0.0
H1513 H 0.68271 0.21802 0.2747 0.0
H1514 H 0.6534 0.21991 0.25508 0.0
H1515 H 0.64239 0.28088 0.24025 0.0
H1516 H 0.57342 0.28351 0.16575 0.0
H1517 H 0.60329 0.28129 0.18458 0.0
H1518 H 0.61 0.22448 0.20624 0.0
C1519 C 0.6645 0.23259 0.25556 0.0
C1520 C 0.63577 0.26854 0.23264 0.0
C1521 C 0.68122 0.23148 0.26689 0.0
C1522 C 0.57346 0.27178 0.17643 0.0
C1523 C 0.5905 0.27056 0.18722 0.0
C1524 C 0.61704 0.23685 0.21362 0.0
C1525 C 0.6619 0.24999 0.24554 0.0
C1526 C 0.64379 0.25139 0.23392 0.0
C1527 C 0.59113 0.25542 0.20104 0.0
C1528 C 0.60924 0.25403 0.2123 0.0
H1529 H 0.70411 0.27785 0.2597 0.0
H1530 H 0.67542 0.27967 0.2392 0.0
H1531 H 0.6401 0.22227 0.22449 0.0
H1532 H 0.54449 0.23229 0.19621 0.0
H1533 H 0.57452 0.22993 0.21476 0.0
C1534 C 0.49491 0.11192 0.003 0.0
C1535 C 0.49005 0.09266 0.00993 0.0
C1536 C 0.49742 0.12681 0.01537 0.0
C1537 C 0.50947 0.13744 0.06462 0.0
H1538 H 0.48283 0.18122 0.05334 0.0
C1539 C 0.50868 0.19496 0.11851 0.0
C1540 C 0.50985 0.21424 0.11154 0.0
C1541 C 0.50603 0.1801 0.10611 0.0
C1542 C 0.49062 0.16926 0.05659 0.0
H1543 H 0.48441 0.07377 0.03518 0.0
H1544 H 0.48904 0.09982 0.05687 0.0
H1545 H 0.47929 0.1555 0.03151 0.0
H1546 H 0.50926 0.23307 0.08611 0.0
H1547 H 0.50525 0.20725 0.06446 0.0
H1548 H 0.5212 0.15128 0.08945 0.0
C1549 C 0.49081 0.10338 0.04187 0.0
C1550 C 0.48852 0.15451 0.0441 0.0
C1551 C 0.48804 0.08852 0.02948 0.0
C1552 C 0.50828 0.21835 0.09192 0.0
C1553 C 0.50587 0.20351 0.07951 0.0
C1554 C 0.51177 0.1523 0.07701 0.0
C1555 C 0.49539 0.12267 0.03492 0.0
C1556 C 0.49787 0.13844 0.04803 0.0
C1557 C 0.50472 0.18418 0.08644 0.0
C1558 C 0.50232 0.16838 0.0732 0.0
H1559 H 0.49641 0.11549 0.98797 0.0
H1560 H 0.50108 0.14156 0.00968 0.0
H1561 H 0.51702 0.1253 0.06787 0.0
H1562 H 0.50969 0.19132 0.13357 0.0
H1563 H 0.50484 0.16538 0.11199 0.0
C1564 C 0.23045 0.35972 0.71894 0.0
C1565 C 0.23584 0.34138 0.71863 0.0
C1566 C 0.24457 0.37606 0.72084 0.0
C1567 C 0.29474 0.39081 0.73867 0.0
H1568 H 0.29071 0.43885 0.70989 0.0
C1569 C 0.35561 0.45688 0.74064 0.0
C1570 C 0.34995 0.47506 0.7413 0.0
C1571 C 0.34178 0.44059 0.73744 0.0
C1572 C 0.29192 0.4256 0.71819 0.0
H1573 H 0.26029 0.32584 0.71984 0.0
H1574 H 0.285 0.35443 0.7229 0.0
H1575 H 0.26652 0.41034 0.70463 0.0
H1576 H 0.32531 0.49039 0.7392 0.0
H1577 H 0.30113 0.4619 0.73386 0.0
H1578 H 0.32003 0.40606 0.75233 0.0
C1579 C 0.26982 0.35613 0.72187 0.0
C1580 C 0.27809 0.40926 0.71515 0.0
C1581 C 0.25569 0.33978 0.71991 0.0
C1582 C 0.33015 0.47659 0.73872 0.0
C1583 C 0.31631 0.46029 0.73554 0.0
C1584 C 0.30855 0.40714 0.74173 0.0
C1585 C 0.2644 0.37442 0.72251 0.0
C1586 C 0.27933 0.39169 0.72538 0.0
C1587 C 0.32197 0.4421 0.73486 0.0
C1588 C 0.30729 0.42473 0.73154 0.0
H1589 H 0.21527 0.36144 0.71777 0.0
H1590 H 0.23991 0.38992 0.72143 0.0
H1591 H 0.29591 0.37757 0.74701 0.0
H1592 H 0.37075 0.45519 0.74248 0.0
H1593 H 0.34666 0.42685 0.73675 0.0
C1594 C 0.28254 0.69845 0.79439 0.0
C1595 C 0.27633 0.70857 0.77816 0.0
C1596 C 0.29168 0.68245 0.79278 0.0
C1597 C 0.29847 0.64613 0.75921 0.0
H1598 H 0.34126 0.63768 0.79381 0.0
C1599 C 0.34627 0.58774 0.74998 0.0
C1600 C 0.35058 0.57669 0.7664 0.0
C1601 C 0.33721 0.60389 0.7512 0.0
C1602 C 0.32923 0.63976 0.78415 0.0
H1603 H 0.27506 0.71021 0.74753 0.0
H1604 H 0.29141 0.68249 0.74463 0.0
H1605 H 0.32567 0.66589 0.79626 0.0
H1606 H 0.34873 0.57394 0.79697 0.0
H1607 H 0.33298 0.60211 0.79906 0.0
H1608 H 0.30223 0.62005 0.747 0.0
C1609 C 0.28885 0.6866 0.75863 0.0
C1610 C 0.32025 0.65591 0.78557 0.0
C1611 C 0.2796 0.70255 0.76026 0.0
C1612 C 0.34564 0.58214 0.78404 0.0
C1613 C 0.33671 0.59835 0.78527 0.0
C1614 C 0.30754 0.63004 0.75772 0.0
C1615 C 0.29496 0.67631 0.77488 0.0
C1616 C 0.3047 0.65926 0.77317 0.0
C1617 C 0.33241 0.60941 0.76886 0.0
C1618 C 0.32296 0.62664 0.77023 0.0
H1619 H 0.28017 0.70289 0.80833 0.0
H1620 H 0.29594 0.67473 0.80559 0.0
H1621 H 0.28635 0.64808 0.74962 0.0
H1622 H 0.34989 0.58393 0.73616 0.0
H1623 H 0.33423 0.61223 0.73833 0.0
C1624 C 0.94503 0.51453 0.48336 0.0
C1625 C 0.94502 0.53431 0.48488 0.0
C1626 C 0.92765 0.50145 0.48411 0.0
C1627 C 0.87717 0.4957 0.50012 0.0
H1628 H 0.86809 0.45431 0.46584 0.0
C1629 C 0.80299 0.44582 0.49336 0.0
C1630 C 0.80345 0.42605 0.4924 0.0
C1631 C 0.82012 0.45924 0.49207 0.0
C1632 C 0.87049 0.46568 0.47562 0.0
H1633 H 0.92673 0.5559 0.48812 0.0
H1634 H 0.89639 0.53307 0.48942 0.0
H1635 H 0.89832 0.47729 0.46446 0.0
H1636 H 0.82225 0.40487 0.48918 0.0
H1637 H 0.8521 0.42826 0.48706 0.0
H1638 H 0.84934 0.48407 0.5113 0.0
C1639 C 0.90987 0.52764 0.48795 0.0
C1640 C 0.88781 0.47883 0.47485 0.0
C1641 C 0.92725 0.54071 0.4872 0.0
C1642 C 0.82137 0.42 0.48995 0.0
C1643 C 0.83848 0.43341 0.48862 0.0
C1644 C 0.85983 0.48255 0.50088 0.0
C1645 C 0.90986 0.50786 0.48639 0.0
C1646 C 0.89138 0.49396 0.48712 0.0
C1647 C 0.83806 0.45317 0.48974 0.0
C1648 C 0.85632 0.46736 0.48868 0.0
H1649 H 0.95852 0.50912 0.48183 0.0
H1650 H 0.92818 0.48628 0.48317 0.0
H1651 H 0.87959 0.50703 0.50995 0.0
H1652 H 0.78941 0.45096 0.49518 0.0
H1653 H 0.81928 0.47439 0.49274 0.0
C1654 C 0.76627 0.8327 0.79927 0.0
C1655 C 0.77893 0.83087 0.81499 0.0
C1656 C 0.75312 0.84568 0.79889 0.0
C1657 C 0.74478 0.89 0.81934 0.0
H1658 H 0.69208 0.8753 0.79959 0.0
C1659 C 0.68777 0.94102 0.8186 0.0
C1660 C 0.67606 0.94204 0.80205 0.0
C1661 C 0.69957 0.92678 0.82145 0.0
C1662 C 0.70679 0.87969 0.80499 0.0
H1663 H 0.78777 0.84123 0.84264 0.0
H1664 H 0.76467 0.86389 0.84203 0.0
H1665 H 0.7142 0.85174 0.80218 0.0
H1666 H 0.66739 0.92876 0.77562 0.0
H1667 H 0.68813 0.90415 0.78047 0.0
H1668 H 0.73752 0.91804 0.82184 0.0
C1669 C 0.76501 0.85533 0.82996 0.0
C1670 C 0.71945 0.86619 0.80649 0.0
C1671 C 0.77811 0.84225 0.83038 0.0
C1672 C 0.67619 0.92835 0.78855 0.0
C1673 C 0.68801 0.91415 0.79139 0.0
C1674 C 0.73214 0.90354 0.81778 0.0
C1675 C 0.75237 0.85718 0.8142 0.0
C1676 C 0.73864 0.87125 0.81351 0.0
C1677 C 0.69993 0.91326 0.80782 0.0
C1678 C 0.71305 0.89859 0.81041 0.0
H1679 H 0.76641 0.82398 0.78728 0.0
H1680 H 0.74372 0.84692 0.78646 0.0
H1681 H 0.75955 0.8944 0.82459 0.0
H1682 H 0.68795 0.95129 0.82932 0.0
H1683 H 0.70838 0.92633 0.83438 0.0
C1684 C 0.60021 0.51569 0.00316 0.0
C1685 C 0.59442 0.51357 0.98408 0.0
C1686 C 0.61798 0.52681 0.00801 0.0
C1687 C 0.65616 0.5654 0.9899 0.0
H1688 H 0.68788 0.54489 0.03004 0.0
C1689 C 0.73481 0.60157 0.00792 0.0
C1690 C 0.7403 0.60242 0.02719 0.0
C1691 C 0.71712 0.59075 0.00228 0.0
C1692 C 0.67911 0.55092 0.01895 0.0
H1693 H 0.60264 0.5217 0.95513 0.0
H1694 H 0.63372 0.54126 0.96362 0.0
H1695 H 0.65667 0.52627 0.02086 0.0
H1696 H 0.73147 0.59259 0.05566 0.0
H1697 H 0.70054 0.57392 0.04585 0.0
H1698 H 0.67857 0.59012 0.98807 0.0
C1699 C 0.62441 0.53438 0.97481 0.0
C1700 C 0.66123 0.54025 0.01368 0.0
C1701 C 0.60662 0.5232 0.96995 0.0
C1702 C 0.72773 0.59219 0.0407 0.0
C1703 C 0.71003 0.58139 0.03506 0.0
C1704 C 0.67404 0.57611 0.9952 0.0
C1705 C 0.63036 0.53613 0.9939 0.0
C1706 C 0.64951 0.5474 0.99917 0.0
C1707 C 0.70452 0.58053 0.01579 0.0
C1708 C 0.68568 0.56903 0.00986 0.0
H1709 H 0.59096 0.5088 0.01439 0.0
H1710 H 0.62197 0.52819 0.02284 0.0
H1711 H 0.64735 0.57138 0.9788 0.0
H1712 H 0.7442 0.60924 0.99714 0.0
H1713 H 0.71342 0.59019 0.98731 0.0
C1714 C 0.26234 0.66175 0.20734 0.0
C1715 C 0.26825 0.67286 0.22292 0.0
C1716 C 0.25197 0.64308 0.20999 0.0
C1717 C 0.24081 0.60311 0.24653 0.0
H1718 H 0.19677 0.58617 0.21307 0.0
C1719 C 0.18357 0.53652 0.26493 0.0
C1720 C 0.17677 0.52422 0.25044 0.0
C1721 C 0.19569 0.55403 0.26087 0.0
C1722 C 0.20919 0.59061 0.22238 0.0
H1723 H 0.26755 0.67328 0.25344 0.0
H1724 H 0.24938 0.64082 0.25806 0.0
H1725 H 0.21608 0.61805 0.20723 0.0
H1726 H 0.17745 0.52059 0.22034 0.0
H1727 H 0.19866 0.55125 0.21327 0.0
H1728 H 0.2337 0.5758 0.26185 0.0
C1729 C 0.25311 0.64633 0.24382 0.0
C1730 C 0.22026 0.60886 0.21904 0.0
C1731 C 0.2635 0.66495 0.24118 0.0
C1732 C 0.18244 0.52976 0.23182 0.0
C1733 C 0.1945 0.54735 0.22774 0.0
C1734 C 0.22971 0.58491 0.2499 0.0
C1735 C 0.24725 0.63515 0.22827 0.0
C1736 C 0.23607 0.6154 0.2312 0.0
C1737 C 0.20122 0.55967 0.24223 0.0
C1738 C 0.21366 0.57854 0.23798 0.0
H1739 H 0.26598 0.6674 0.19312 0.0
H1740 H 0.24787 0.63476 0.19774 0.0
H1741 H 0.25313 0.60756 0.25595 0.0
H1742 H 0.17947 0.53271 0.27943 0.0
H1743 H 0.20043 0.56332 0.2723 0.0
C1744 C 0.9478 0.51577 0.06651 0.0
C1745 C 0.94482 0.49713 0.05985 0.0
C1746 C 0.93361 0.52761 0.06341 0.0
C1747 C 0.89163 0.53495 0.03214 0.0
H1748 H 0.87873 0.56501 0.07226 0.0
C1749 C 0.82656 0.57609 0.02501 0.0
C1750 C 0.82902 0.59451 0.03211 0.0
C1751 C 0.84067 0.56426 0.02865 0.0
C1752 C 0.88233 0.55689 0.06083 0.0
H1753 H 0.92438 0.47622 0.04498 0.0
H1754 H 0.89967 0.49695 0.03944 0.0
H1755 H 0.90336 0.54421 0.07816 0.0
H1756 H 0.84828 0.61495 0.04861 0.0
H1757 H 0.87308 0.59438 0.05473 0.0
H1758 H 0.87076 0.54769 0.01475 0.0
C1759 C 0.91311 0.50247 0.04688 0.0
C1760 C 0.89642 0.54495 0.06423 0.0
C1761 C 0.92728 0.4906 0.05004 0.0
C1762 C 0.84591 0.60081 0.04299 0.0
C1763 C 0.86008 0.58898 0.04658 0.0
C1764 C 0.8776 0.54692 0.02872 0.0
C1765 C 0.91613 0.52112 0.0535 0.0
C1766 C 0.90118 0.53382 0.04993 0.0
C1767 C 0.85764 0.57057 0.03941 0.0
C1768 C 0.87274 0.558 0.04304 0.0
H1769 H 0.96128 0.52138 0.07384 0.0
H1770 H 0.93648 0.54201 0.06845 0.0
H1771 H 0.89521 0.52679 0.02074 0.0
H1772 H 0.81367 0.57074 0.01667 0.0
H1773 H 0.83817 0.55005 0.02317 0.0
C1774 C 0.07157 0.98758 0.02842 0.0
C1775 C 0.06466 0.00043 0.01483 0.0
C1776 C 0.08857 0.98024 0.02547 0.0
C1777 C 0.12055 0.97192 0.98773 0.0
H1778 H 0.15745 0.96626 0.02938 0.0
C1779 C 0.19495 0.94835 0.97751 0.0
C1780 C 0.20085 0.93498 0.99125 0.0
C1781 C 0.1787 0.95702 0.98026 0.0
C1782 C 0.1472 0.96758 0.01764 0.0
H1783 H 0.07038 0.01644 0.98797 0.0
H1784 H 0.10019 0.00365 0.98274 0.0
H1785 H 0.12844 0.98017 0.03449 0.0
H1786 H 0.19427 0.92022 0.01866 0.0
H1787 H 0.16589 0.93517 0.02333 0.0
H1788 H 0.13926 0.95921 0.97091 0.0
C1789 C 0.09226 0.99887 0.99547 0.0
C1790 C 0.13058 0.97555 0.02057 0.0
C1791 C 0.07527 0.00623 0.99846 0.0
C1792 C 0.19017 0.93051 0.0078 0.0
C1793 C 0.17396 0.93917 0.01055 0.0
C1794 C 0.13718 0.96394 0.9848 0.0
C1795 C 0.09907 0.98574 0.00892 0.0
C1796 C 0.117 0.97771 0.00568 0.0
C1797 C 0.16802 0.95253 0.99682 0.0
C1798 C 0.15064 0.96157 -0.00025 0.0
H1799 H 0.06374 0.98315 0.04128 0.0
H1800 H 0.09334 0.97004 0.03604 0.0
H1801 H 0.11025 0.97316 0.97602 0.0
H1802 H 0.20289 0.95215 0.96462 0.0
H1803 H 0.17463 0.96741 0.9695 0.0
loop_
_geom_bond_atom_site_label_1
_geom_bond_atom_site_label_2
_geom_bond_distance
_geom_bond_site_symmetry_2
_ccdc_geom_bond_type
H0 C7 0.929 . S
H1 C10 0.930 . S
H2 C12 0.929 . S
H3 C4 0.969 . S
C4 H3 0.969 . S
C4 O5 1.550 . S
C4 H6 0.973 . S
O5 C4 1.550 . S
O5 C11 1.412 . S
H6 C4 0.973 . S
C7 H0 0.929 . S
C7 C8 1.400 . S
C7 C9 1.364 . S
C8 C7 1.400 . S
C8 C12 1.377 . S
C9 C7 1.364 . S
C9 C10 1.374 . S
C10 H1 0.930 . S
C10 C9 1.374 . S
C10 C11 1.383 . S
C11 O5 1.412 . S
C11 C10 1.383 . S
C11 C12 1.394 . S
C12 H2 0.929 . S
C12 C8 1.377 . S
C12 C11 1.394 . S
H13 C20 0.929 . S
H14 C23 0.930 . S
H15 C25 0.929 . S
H16 C17 0.969 . S
C17 H16 0.969 . S
C17 O18 1.550 . S
C17 H19 0.973 . S
O18 C17 1.550 . S
O18 C24 1.412 . S
H19 C17 0.973 . S
C20 H13 0.929 . S
C20 C21 1.400 . S
C20 C22 1.364 . S
C21 C20 1.400 . S
C21 C25 1.377 . S
C22 C20 1.364 . S
C22 C23 1.374 . S
C23 H14 0.930 . S
C23 C22 1.374 . S
C23 C24 1.383 . S
C24 O18 1.412 . S
C24 C23 1.383 . S
C24 C25 1.394 . S
C25 H15 0.929 . S
C25 C21 1.377 . S
C25 C24 1.394 . S
H26 C33 0.929 . S
H27 C36 0.930 . S
H28 C38 0.924 . S
H29 C30 0.969 . S
C30 H29 0.969 . S
C30 O31 1.550 . S
C30 H32 0.973 . S
O31 C30 1.550 . S
O31 C37 1.412 . S
H32 C30 0.973 . S
C33 H26 0.929 . S
C33 C34 1.400 . S
C33 C35 1.364 . S
C34 C33 1.400 . S
C34 C38 1.377 . S
C35 C33 1.364 . S
C35 C36 1.374 . S
C36 H27 0.930 . S
C36 C35 1.374 . S
C36 C37 1.383 . S
C37 O31 1.412 . S
C37 C36 1.383 . S
C37 C38 1.394 . S
C38 H28 0.924 . S
C38 C34 1.377 . S
C38 C37 1.394 . S
H39 C46 0.929 . S
H40 C49 0.930 . S
H41 C51 0.929 . S
H42 C43 0.969 . S
C43 H42 0.969 . S
C43 O44 1.550 . S
C43 H45 0.973 . S
O44 C43 1.550 . S
O44 C50 1.412 . S
H45 C43 0.973 . S
C46 H39 0.929 . S
C46 C47 1.400 . S
C46 C48 1.364 . S
C47 C46 1.400 . S
C47 C51 1.377 . S
C48 C46 1.364 . S
C48 C49 1.374 . S
C49 H40 0.930 . S
C49 C48 1.374 . S
C49 C50 1.383 . S
C50 O44 1.412 . S
C50 C49 1.383 . S
C50 C51 1.394 . S
C51 H41 0.929 . S
C51 C47 1.377 . S
C51 C50 1.394 . S
H52 C59 0.929 . S
H53 C62 0.930 . S
H54 C64 0.927 1_545 S
H55 C56 0.969 . S
C56 H55 0.969 . S
C56 O57 1.550 . S
C56 H58 0.973 . S
O57 C56 1.550 . S
O57 C63 1.412 . S
H58 C56 0.973 . S
C59 H52 0.929 . S
C59 C60 1.400 . S
C59 C61 1.364 . S
C60 C59 1.400 . S
C60 C64 1.378 . S
C61 C59 1.364 . S
C61 C62 1.374 . S
C62 H53 0.930 . S
C62 C61 1.374 . S
C62 C63 1.383 . S
C63 O57 1.412 . S
C63 C62 1.383 . S
C63 C64 1.396 . S
C64 H54 0.927 1_565 S
C64 C60 1.378 . S
C64 C63 1.396 . S
H65 C72 0.929 . S
H66 C75 0.930 . S
H67 C77 0.929 . S
H68 C69 0.969 . S
C69 H68 0.969 . S
C69 O70 1.550 . S
C69 H71 0.973 . S
O70 C69 1.550 . S
O70 C76 1.412 . S
H71 C69 0.973 . S
C72 H65 0.929 . S
C72 C73 1.400 . S
C72 C74 1.364 . S
C73 C72 1.400 . S
C73 C77 1.377 . S
C74 C72 1.364 . S
C74 C75 1.374 . S
C75 H66 0.930 . S
C75 C74 1.374 . S
C75 C76 1.383 . S
C76 O70 1.412 . S
C76 C75 1.383 . S
C76 C77 1.394 . S
C77 H67 0.929 . S
C77 C73 1.377 . S
C77 C76 1.394 . S
H78 C85 0.929 . S
H79 C88 0.930 . S
H80 C90 0.929 1_455 S
H81 C82 0.969 1_655 S
C82 H81 0.969 1_455 S
C82 O83 1.550 . S
C82 H84 0.973 1_455 S
O83 C82 1.550 . S
O83 C89 1.412 1_455 S
H84 C82 0.973 1_655 S
C85 H78 0.929 . S
C85 C86 1.400 . S
C85 C87 1.364 . S
C86 C85 1.400 . S
C86 C90 1.377 . S
C87 C85 1.364 . S
C87 C88 1.374 . S
C88 H79 0.930 . S
C88 C87 1.374 . S
C88 C89 1.383 . S
C89 O83 1.412 1_655 S
C89 C88 1.383 . S
C89 C90 1.394 . S
C90 H80 0.929 1_655 S
C90 C86 1.377 . S
C90 C89 1.394 . S
H91 C98 0.929 . S
H92 C101 0.930 . S
H93 C103 0.929 . S
H94 C95 0.969 . S
C95 H94 0.969 . S
C95 O96 1.550 . S
C95 H97 0.973 . S
O96 C95 1.550 . S
O96 C102 1.412 . S
H97 C95 0.973 . S
C98 H91 0.929 . S
C98 C99 1.400 . S
C98 C100 1.364 . S
C99 C98 1.400 . S
C99 C103 1.377 . S
C100 C98 1.364 . S
C100 C101 1.374 . S
C101 H92 0.930 . S
C101 C100 1.374 . S
C101 C102 1.383 . S
C102 O96 1.412 . S
C102 C101 1.383 . S
C102 C103 1.394 . S
C103 H93 0.929 . S
C103 C99 1.377 . S
C103 C102 1.394 . S
H104 C111 0.929 . S
H105 C114 0.930 . S
H106 C116 0.929 . S
H107 C108 0.969 . S
C108 H107 0.969 . S
C108 O109 1.550 . S
C108 H110 0.973 . S
O109 C108 1.550 . S
O109 C115 1.412 . S
H110 C108 0.973 . S
C111 H104 0.929 . S
C111 C112 1.400 . S
C111 C113 1.364 . S
C112 C111 1.400 . S
C112 C116 1.377 . S
C113 C111 1.364 . S
C113 C114 1.374 . S
C114 H105 0.930 . S
C114 C113 1.374 . S
C114 C115 1.383 . S
C115 O109 1.412 . S
C115 C114 1.383 . S
C115 C116 1.394 . S
C116 H106 0.929 . S
C116 C112 1.377 . S
C116 C115 1.394 . S
H117 C124 0.929 . S
H118 C127 0.930 . S
H119 C129 0.929 . S
H120 C121 0.969 . S
C121 H120 0.969 . S
C121 O122 1.550 . S
C121 H123 0.973 . S
O122 C121 1.550 . S
O122 C128 1.412 . S
H123 C121 0.973 . S
C124 H117 0.929 . S
C124 C125 1.400 . S
C124 C126 1.364 . S
C125 C124 1.400 . S
C125 C129 1.377 . S
C126 C124 1.364 . S
C126 C127 1.374 . S
C127 H118 0.930 . S
C127 C126 1.374 . S
C127 C128 1.383 . S
C128 O122 1.412 . S
C128 C127 1.383 . S
C128 C129 1.394 . S
C129 H119 0.929 . S
C129 C125 1.377 . S
C129 C128 1.394 . S
H130 C137 0.929 . S
H131 C140 0.930 . S
H132 C142 0.929 . S
H133 C134 0.969 . S
C134 H133 0.969 . S
C134 O135 1.550 . S
C134 H136 0.973 . S
O135 C134 1.550 . S
O135 C141 1.412 . S
H136 C134 0.973 . S
C137 H130 0.929 . S
C137 C138 1.400 . S
C137 C139 1.364 . S
C138 C137 1.400 . S
C138 C142 1.377 . S
C139 C137 1.364 . S
C139 C140 1.374 . S
C140 H131 0.930 . S
C140 C139 1.374 . S
C140 C141 1.383 . S
C141 O135 1.412 . S
C141 C140 1.383 . S
C141 C142 1.394 . S
C142 H132 0.929 . S
C142 C138 1.377 . S
C142 C141 1.394 . S
H143 C150 0.929 . S
H144 C153 0.930 . S
H145 C155 0.929 . S
H146 C147 0.969 . S
C147 H146 0.969 . S
C147 O148 1.550 . S
C147 H149 0.973 . S
O148 C147 1.550 . S
O148 C154 1.412 . S
H149 C147 0.973 . S
C150 H143 0.929 . S
C150 C151 1.400 . S
C150 C152 1.364 . S
C151 C150 1.400 . S
C151 C155 1.377 . S
C152 C150 1.364 . S
C152 C153 1.374 . S
C153 H144 0.930 . S
C153 C152 1.374 . S
C153 C154 1.383 . S
C154 O148 1.412 . S
C154 C153 1.383 . S
C154 C155 1.394 . S
C155 H145 0.929 . S
C155 C151 1.377 . S
C155 C154 1.394 . S
H156 C163 0.929 . S
H157 C166 0.930 . S
H158 C168 0.929 . S
H159 C160 0.969 . S
C160 H159 0.969 . S
C160 O161 1.550 . S
C160 H162 0.973 . S
O161 C160 1.550 . S
O161 C167 1.412 . S
H162 C160 0.973 . S
C163 H156 0.929 . S
C163 C164 1.400 . S
C163 C165 1.364 . S
C164 C163 1.400 . S
C164 C168 1.377 . S
C165 C163 1.364 . S
C165 C166 1.374 . S
C166 H157 0.930 . S
C166 C165 1.374 . S
C166 C167 1.383 . S
C167 O161 1.412 . S
C167 C166 1.383 . S
C167 C168 1.394 . S
C168 H158 0.929 . S
C168 C164 1.377 . S
C168 C167 1.394 . S
H169 C176 0.929 . S
H170 C179 0.930 . S
H171 C181 0.929 . S
H172 C173 0.969 . S
C173 H172 0.969 . S
C173 O174 1.550 . S
C173 H175 0.973 . S
O174 C173 1.550 . S
O174 C180 1.412 . S
H175 C173 0.973 . S
C176 H169 0.929 . S
C176 C177 1.400 . S
C176 C178 1.364 . S
C177 C176 1.400 . S
C177 C181 1.377 . S
C178 C176 1.364 . S
C178 C179 1.374 . S
C179 H170 0.930 . S
C179 C178 1.374 . S
C179 C180 1.383 . S
C180 O174 1.412 . S
C180 C179 1.383 . S
C180 C181 1.394 . S
C181 H171 0.929 . S
C181 C177 1.377 . S
C181 C180 1.394 . S
H182 C189 0.929 . S
H183 C192 0.930 . S
H184 C194 0.929 . S
H185 C186 0.969 . S
C186 H185 0.969 . S
C186 O187 1.550 . S
C186 H188 0.973 . S
O187 C186 1.550 . S
O187 C193 1.412 . S
H188 C186 0.973 . S
C189 H182 0.929 . S
C189 C190 1.400 . S
C189 C191 1.364 . S
C190 C189 1.400 . S
C190 C194 1.377 . S
C191 C189 1.364 . S
C191 C192 1.374 . S
C192 H183 0.930 . S
C192 C191 1.374 . S
C192 C193 1.383 . S
C193 O187 1.412 . S
C193 C192 1.383 . S
C193 C194 1.394 . S
C194 H184 0.929 . S
C194 C190 1.377 . S
C194 C193 1.394 . S
H195 C202 0.929 1_554 S
H196 C205 0.930 . S
H197 C207 0.929 . S
H198 C199 0.969 . S
C199 H198 0.969 . S
C199 O200 1.550 . S
C199 H201 0.973 . S
O200 C199 1.550 . S
O200 C206 1.412 . S
H201 C199 0.973 . S
C202 H195 0.929 1_556 S
C202 C203 1.400 . S
C202 C204 1.364 . S
C203 C202 1.400 . S
C203 C207 1.377 . S
C204 C202 1.364 . S
C204 C205 1.374 . S
C205 H196 0.930 . S
C205 C204 1.374 . S
C205 C206 1.383 . S
C206 O200 1.412 . S
C206 C205 1.383 . S
C206 C207 1.394 . S
C207 H197 0.929 . S
C207 C203 1.377 . S
C207 C206 1.394 . S
C208 O209 1.190 . S
C208 O215 1.165 1_556 S
O209 C208 1.190 . S
O210 Zn211 1.899 1_556 S
O210 C218 1.284 . S
Zn211 O210 1.899 1_554 S
Zn211 O212 2.032 1_554 S
Zn211 O215 2.086 . S
Zn211 O220 1.977 . S
O212 Zn211 2.032 1_556 S
O212 C216 1.280 . S
C213 O214 1.203 . S
C213 O220 1.267 . S
O214 C213 1.203 . S
O215 C208 1.165 1_554 S
O215 Zn211 2.086 . S
C216 O212 1.280 . S
C216 O217 1.205 1_556 S
O217 C216 1.205 1_554 S
C218 O210 1.284 . S
C218 O219 1.273 . S
O219 C218 1.273 . S
O220 Zn211 1.977 . S
O220 C213 1.267 . S
C221 O222 1.160 . S
C221 O228 1.185 . S
O222 C221 1.160 . S
O223 Zn224 1.899 . S
O223 C231 1.284 . S
Zn224 O223 1.899 . S
Zn224 O225 2.032 . S
Zn224 O228 2.086 . S
Zn224 O233 1.977 . S
O225 Zn224 2.032 . S
O225 C229 1.278 . S
C226 O227 1.203 . S
C226 O233 1.267 . S
O227 C226 1.203 . S
O228 C221 1.185 . S
O228 Zn224 2.086 . S
C229 O225 1.278 . S
C229 O230 1.211 . S
O230 C229 1.211 . S
C231 O223 1.284 . S
C231 O232 1.273 . S
O232 C231 1.273 . S
O233 Zn224 1.977 . S
O233 C226 1.267 . S
C234 O235 1.160 . S
C234 O241 1.185 . S
O235 C234 1.160 . S
O236 Zn237 1.899 . S
O236 C244 1.284 . S
Zn237 O236 1.899 . S
Zn237 O238 2.032 . S
Zn237 O241 2.086 . S
Zn237 O246 1.977 . S
O238 Zn237 2.032 . S
O238 C242 1.278 . S
C239 O240 1.203 . S
C239 O246 1.267 . S
O240 C239 1.203 . S
O241 C234 1.185 . S
O241 Zn237 2.086 . S
C242 O238 1.278 . S
C242 O243 1.211 . S
O243 C242 1.211 . S
C244 O236 1.284 . S
C244 O245 1.273 . S
O245 C244 1.273 . S
O246 Zn237 1.977 . S
O246 C239 1.267 . S
C247 O248 1.160 . S
C247 O254 1.185 . S
O248 C247 1.160 . S
O249 Zn250 1.899 . S
O249 C257 1.284 . S
Zn250 O249 1.899 . S
Zn250 O251 2.032 . S
Zn250 O254 2.086 . S
Zn250 O259 1.977 . S
O251 Zn250 2.032 . S
O251 C255 1.278 1_545 S
C252 O253 1.203 . S
C252 O259 1.267 . S
O253 C252 1.203 . S
O254 C247 1.185 . S
O254 Zn250 2.086 . S
C255 O251 1.278 1_565 S
C255 O256 1.211 . S
O256 C255 1.211 . S
C257 O249 1.284 . S
C257 O258 1.273 . S
O258 C257 1.273 . S
O259 Zn250 1.977 . S
O259 C252 1.267 . S
C260 O261 1.160 . S
C260 O267 1.185 . S
O261 C260 1.160 . S
O262 Zn263 1.899 . S
O262 C270 1.284 . S
Zn263 O262 1.899 . S
Zn263 O264 2.032 . S
Zn263 O267 2.086 . S
Zn263 O272 1.977 . S
O264 Zn263 2.032 . S
O264 C268 1.278 . S
C265 O266 1.203 . S
C265 O272 1.267 . S
O266 C265 1.203 . S
O267 C260 1.185 . S
O267 Zn263 2.086 . S
C268 O264 1.278 . S
C268 O269 1.211 . S
O269 C268 1.211 . S
C270 O262 1.284 . S
C270 O271 1.273 . S
O271 C270 1.273 . S
O272 Zn263 1.977 . S
O272 C265 1.267 . S
C273 O274 1.160 . S
C273 O280 1.185 . S
O274 C273 1.160 . S
O275 Zn276 1.899 . S
O275 C283 1.284 . S
Zn276 O275 1.899 . S
Zn276 O277 2.032 . S
Zn276 O280 2.086 . S
Zn276 O285 1.977 . S
O277 Zn276 2.032 . S
O277 C281 1.278 . S
C278 O279 1.203 . S
C278 O285 1.267 . S
O279 C278 1.203 . S
O280 C273 1.185 . S
O280 Zn276 2.086 . S
C281 O277 1.278 . S
C281 O282 1.211 . S
O282 C281 1.211 . S
C283 O275 1.284 . S
C283 O284 1.273 . S
O284 C283 1.273 . S
O285 Zn276 1.977 . S
O285 C278 1.267 . S
C286 O287 1.160 . S
C286 O293 1.185 . S
O287 C286 1.160 . S
O288 Zn289 1.899 . S
O288 C296 1.284 . S
Zn289 O288 1.899 . S
Zn289 O290 2.032 . S
Zn289 O293 2.086 . S
Zn289 O298 1.977 . S
O290 Zn289 2.032 . S
O290 C294 1.278 . S
C291 O292 1.203 . S
C291 O298 1.267 . S
O292 C291 1.203 . S
O293 C286 1.185 . S
O293 Zn289 2.086 . S
C294 O290 1.278 . S
C294 O295 1.211 . S
O295 C294 1.211 . S
C296 O288 1.284 . S
C296 O297 1.273 . S
O297 C296 1.273 . S
O298 Zn289 1.977 . S
O298 C291 1.267 . S
C299 O300 1.160 . S
C299 O306 1.185 . S
O300 C299 1.160 . S
O301 Zn302 1.899 . S
O301 C309 1.284 1_565 S
Zn302 O301 1.899 . S
Zn302 O303 2.032 1_565 S
Zn302 O306 2.086 . S
Zn302 O311 1.977 . S
O303 Zn302 2.032 1_545 S
O303 C307 1.278 . S
C304 O305 1.203 1_565 S
C304 O311 1.267 . S
O305 C304 1.203 1_545 S
O306 C299 1.185 . S
O306 Zn302 2.086 . S
C307 O303 1.278 . S
C307 O308 1.211 . S
O308 C307 1.211 . S
C309 O301 1.284 1_545 S
C309 O310 1.273 . S
O310 C309 1.273 . S
O311 Zn302 1.977 . S
O311 C304 1.267 . S
C312 O313 1.160 . S
C312 O319 1.185 1_655 S
O313 C312 1.160 . S
O314 Zn315 1.899 1_655 S
O314 C322 1.284 . S
Zn315 O314 1.899 1_455 S
Zn315 O316 2.032 1_455 S
Zn315 O319 2.086 . S
Zn315 O324 1.977 . S
O316 Zn315 2.032 1_655 S
O316 C320 1.278 1_655 S
C317 O318 1.203 . S
C317 O324 1.267 . S
O318 C317 1.203 . S
O319 C312 1.185 1_455 S
O319 Zn315 2.086 . S
C320 O316 1.278 1_455 S
C320 O321 1.211 . S
O321 C320 1.211 . S
C322 O314 1.284 . S
C322 O323 1.273 . S
O323 C322 1.273 . S
O324 Zn315 1.977 . S
O324 C317 1.267 . S
C325 O326 1.160 . S
C325 O332 1.185 . S
O326 C325 1.160 . S
O327 Zn328 1.899 . S
O327 C335 1.284 . S
Zn328 O327 1.899 . S
Zn328 O329 2.032 . S
Zn328 O332 2.086 . S
Zn328 O337 1.977 . S
O329 Zn328 2.032 . S
O329 C333 1.278 . S
C330 O331 1.203 . S
C330 O337 1.267 . S
O331 C330 1.203 . S
O332 C325 1.185 . S
O332 Zn328 2.086 . S
C333 O329 1.278 . S
C333 O334 1.211 . S
O334 C333 1.211 . S
C335 O327 1.284 . S
C335 O336 1.273 . S
O336 C335 1.273 . S
O337 Zn328 1.977 . S
O337 C330 1.267 . S
C338 O339 1.160 . S
C338 O345 1.185 . S
O339 C338 1.160 . S
O340 Zn341 1.899 . S
O340 C348 1.284 1_455 S
Zn341 O340 1.899 . S
Zn341 O342 2.032 . S
Zn341 O345 2.086 . S
Zn341 O350 1.977 . S
O342 Zn341 2.032 . S
O342 C346 1.278 . S
C343 O344 1.203 . S
C343 O350 1.267 . S
O344 C343 1.203 . S
O345 C338 1.185 . S
O345 Zn341 2.086 . S
C346 O342 1.278 . S
C346 O347 1.211 . S
O347 C346 1.211 . S
C348 O340 1.284 1_655 S
C348 O349 1.273 . S
O349 C348 1.273 . S
O350 Zn341 1.977 . S
O350 C343 1.267 . S
C351 O352 1.160 . S
C351 O358 1.185 . S
O352 C351 1.160 . S
O353 Zn354 1.899 . S
O353 C361 1.284 . S
Zn354 O353 1.899 . S
Zn354 O355 2.032 . S
Zn354 O358 2.086 . S
Zn354 O363 1.977 . S
O355 Zn354 2.032 . S
O355 C359 1.278 . S
C356 O357 1.203 . S
C356 O363 1.267 . S
O357 C356 1.203 . S
O358 C351 1.185 . S
O358 Zn354 2.086 . S
C359 O355 1.278 . S
C359 O360 1.211 . S
O360 C359 1.211 . S
C361 O353 1.284 . S
C361 O362 1.273 . S
O362 C361 1.273 . S
O363 Zn354 1.977 . S
O363 C356 1.267 . S
C364 C365 1.349 . S
C364 C366 1.327 . S
C364 H389 0.950 . S
C365 C364 1.349 . S
C365 C381 1.349 . S
C366 C364 1.327 . S
C366 C385 1.429 . S
C366 H390 0.950 . S
C367 C384 1.574 . S
C367 C386 1.368 . S
C367 H391 0.949 . S
H368 C372 0.949 . S
C369 C370 1.349 . S
C369 C371 1.327 . S
C369 H392 0.950 . S
C370 C369 1.349 . S
C370 C382 1.349 . S
C371 C369 1.327 . S
C371 C387 1.429 . S
C371 H393 0.950 . S
C372 H368 0.949 . S
C372 C380 1.574 . S
C372 C388 1.368 . S
H373 C381 0.950 . S
H374 C379 0.950 . S
H375 C380 0.949 . S
H376 C382 0.950 . S
H377 C383 0.950 . S
H378 C384 0.949 . S
C379 H374 0.950 . S
C379 C381 1.327 . S
C379 C385 1.429 . S
C380 C372 1.574 . S
C380 H375 0.949 . S
C380 C386 1.368 . S
C381 C365 1.349 . S
C381 H373 0.950 . S
C381 C379 1.327 . S
C382 C370 1.349 . S
C382 H376 0.950 . S
C382 C383 1.327 . S
C383 H377 0.950 . S
C383 C382 1.327 . S
C383 C387 1.429 . S
C384 C367 1.574 . S
C384 H378 0.949 . S
C384 C388 1.368 . S
C385 C366 1.429 . S
C385 C379 1.429 . S
C385 C386 1.523 . S
C386 C367 1.368 . S
C386 C380 1.368 . S
C386 C385 1.523 . S
C387 C371 1.429 . S
C387 C383 1.429 . S
C387 C388 1.523 . S
C388 C372 1.368 . S
C388 C384 1.368 . S
C388 C387 1.523 . S
H389 C364 0.950 . S
H390 C366 0.950 . S
H391 C367 0.949 . S
H392 C369 0.950 . S
H393 C371 0.950 . S
C394 C395 1.349 . S
C394 C396 1.327 . S
C394 H419 0.950 . S
C395 C394 1.349 . S
C395 C411 1.349 . S
C396 C394 1.327 . S
C396 C415 1.429 . S
C396 H420 0.950 . S
C397 C414 1.574 . S
C397 C416 1.368 . S
C397 H421 0.949 . S
H398 C402 0.949 . S
C399 C400 1.349 . S
C399 C401 1.327 . S
C399 H422 0.950 . S
C400 C399 1.349 . S
C400 C412 1.349 . S
C401 C399 1.327 . S
C401 C417 1.429 . S
C401 H423 0.950 . S
C402 H398 0.949 . S
C402 C410 1.574 . S
C402 C418 1.368 . S
H403 C411 0.950 . S
H404 C409 0.950 . S
H405 C410 0.949 . S
H406 C412 0.950 . S
H407 C413 0.950 . S
H408 C414 0.949 . S
C409 H404 0.950 . S
C409 C411 1.327 . S
C409 C415 1.429 . S
C410 C402 1.574 . S
C410 H405 0.949 . S
C410 C416 1.368 . S
C411 C395 1.349 . S
C411 H403 0.950 . S
C411 C409 1.327 . S
C412 C400 1.349 . S
C412 H406 0.950 . S
C412 C413 1.327 . S
C413 H407 0.950 . S
C413 C412 1.327 . S
C413 C417 1.429 . S
C414 C397 1.574 . S
C414 H408 0.949 . S
C414 C418 1.368 . S
C415 C396 1.429 . S
C415 C409 1.429 . S
C415 C416 1.523 . S
C416 C397 1.368 . S
C416 C410 1.368 . S
C416 C415 1.523 . S
C417 C401 1.429 . S
C417 C413 1.429 . S
C417 C418 1.523 . S
C418 C402 1.368 . S
C418 C414 1.368 . S
C418 C417 1.523 . S
H419 C394 0.950 . S
H420 C396 0.950 . S
H421 C397 0.949 . S
H422 C399 0.950 . S
H423 C401 0.950 . S
C424 C425 1.349 . S
C424 C426 1.327 . S
C424 H449 0.950 . S
C425 C424 1.349 . S
C425 C441 1.349 . S
C426 C424 1.327 . S
C426 C445 1.429 . S
C426 H450 0.950 . S
C427 C444 1.574 . S
C427 C446 1.368 . S
C427 H451 0.949 . S
H428 C432 0.949 . S
C429 C430 1.349 . S
C429 C431 1.327 . S
C429 H452 0.950 . S
C430 C429 1.349 . S
C430 C442 1.349 . S
C431 C429 1.327 . S
C431 C447 1.429 . S
C431 H453 0.950 . S
C432 H428 0.949 . S
C432 C440 1.574 . S
C432 C448 1.368 . S
H433 C441 0.950 . S
H434 C439 0.950 . S
H435 C440 0.949 . S
H436 C442 0.950 . S
H437 C443 0.950 . S
H438 C444 0.949 . S
C439 H434 0.950 . S
C439 C441 1.327 . S
C439 C445 1.429 . S
C440 C432 1.574 . S
C440 H435 0.949 . S
C440 C446 1.368 . S
C441 C425 1.349 . S
C441 H433 0.950 . S
C441 C439 1.327 . S
C442 C430 1.349 . S
C442 H436 0.950 . S
C442 C443 1.327 . S
C443 H437 0.950 . S
C443 C442 1.327 . S
C443 C447 1.429 . S
C444 C427 1.574 . S
C444 H438 0.949 . S
C444 C448 1.368 . S
C445 C426 1.429 . S
C445 C439 1.429 . S
C445 C446 1.523 . S
C446 C427 1.368 . S
C446 C440 1.368 . S
C446 C445 1.523 . S
C447 C431 1.429 . S
C447 C443 1.429 . S
C447 C448 1.523 . S
C448 C432 1.368 . S
C448 C444 1.368 . S
C448 C447 1.523 . S
H449 C424 0.950 . S
H450 C426 0.950 . S
H451 C427 0.949 . S
H452 C429 0.950 . S
H453 C431 0.950 . S
C454 C455 1.349 1_655 S
C454 C456 1.327 . S
C454 H479 0.950 . S
C455 C454 1.349 1_455 S
C455 C471 1.349 . S
C456 C454 1.327 . S
C456 C475 1.429 . S
C456 H480 0.950 . S
C457 C474 1.574 . S
C457 C476 1.368 . S
C457 H481 0.949 . S
H458 C462 0.949 . S
C459 C460 1.349 . S
C459 C461 1.327 . S
C459 H482 0.950 . S
C460 C459 1.349 . S
C460 C472 1.349 . S
C461 C459 1.327 . S
C461 C477 1.429 . S
C461 H483 0.950 . S
C462 H458 0.949 . S
C462 C470 1.574 . S
C462 C478 1.368 . S
H463 C471 0.950 . S
H464 C469 0.950 1_545 S
H465 C470 0.949 1_565 S
H466 C472 0.950 . S
H467 C473 0.950 . S
H468 C474 0.949 . S
C469 H464 0.950 1_565 S
C469 C471 1.327 . S
C469 C475 1.429 1_455 S
C470 C462 1.574 . S
C470 H465 0.949 1_545 S
C470 C476 1.368 . S
C471 C455 1.349 . S
C471 H463 0.950 . S
C471 C469 1.327 . S
C472 C460 1.349 . S
C472 H466 0.950 . S
C472 C473 1.327 . S
C473 H467 0.950 . S
C473 C472 1.327 . S
C473 C477 1.429 . S
C474 C457 1.574 . S
C474 H468 0.949 . S
C474 C478 1.368 . S
C475 C456 1.429 . S
C475 C469 1.429 1_655 S
C475 C476 1.523 1_565 S
C476 C457 1.368 . S
C476 C470 1.368 . S
C476 C475 1.523 1_545 S
C477 C461 1.429 . S
C477 C473 1.429 . S
C477 C478 1.523 . S
C478 C462 1.368 . S
C478 C474 1.368 . S
C478 C477 1.523 . S
H479 C454 0.950 . S
H480 C456 0.950 . S
H481 C457 0.949 . S
H482 C459 0.950 . S
H483 C461 0.950 . S
C484 C485 1.349 . S
C484 C486 1.327 . S
C484 H509 0.950 . S
C485 C484 1.349 . S
C485 C501 1.349 . S
C486 C484 1.327 . S
C486 C505 1.429 . S
C486 H510 0.950 . S
C487 C504 1.574 . S
C487 C506 1.368 . S
C487 H511 0.949 . S
H488 C492 0.949 . S
C489 C490 1.349 . S
C489 C491 1.327 . S
C489 H512 0.950 . S
C490 C489 1.349 . S
C490 C502 1.349 . S
C491 C489 1.327 . S
C491 C507 1.429 . S
C491 H513 0.950 . S
C492 H488 0.949 . S
C492 C500 1.574 . S
C492 C508 1.368 . S
H493 C501 0.950 . S
H494 C499 0.950 . S
H495 C500 0.949 . S
H496 C502 0.950 . S
H497 C503 0.950 . S
H498 C504 0.949 . S
C499 H494 0.950 . S
C499 C501 1.327 . S
C499 C505 1.429 . S
C500 C492 1.574 . S
C500 H495 0.949 . S
C500 C506 1.368 . S
C501 C485 1.349 . S
C501 H493 0.950 . S
C501 C499 1.327 . S
C502 C490 1.349 . S
C502 H496 0.950 . S
C502 C503 1.327 . S
C503 H497 0.950 . S
C503 C502 1.327 . S
C503 C507 1.429 . S
C504 C487 1.574 . S
C504 H498 0.949 . S
C504 C508 1.368 . S
C505 C486 1.429 . S
C505 C499 1.429 . S
C505 C506 1.523 . S
C506 C487 1.368 . S
C506 C500 1.368 . S
C506 C505 1.523 . S
C507 C491 1.429 . S
C507 C503 1.429 . S
C507 C508 1.523 . S
C508 C492 1.368 . S
C508 C504 1.368 . S
C508 C507 1.523 . S
H509 C484 0.950 . S
H510 C486 0.950 . S
H511 C487 0.949 . S
H512 C489 0.950 . S
H513 C491 0.950 . S
C514 C515 1.349 . S
C514 C516 1.327 . S
C514 H539 0.950 . S
C515 C514 1.349 . S
C515 C531 1.349 . S
C516 C514 1.327 . S
C516 C535 1.429 . S
C516 H540 0.950 . S
C517 C534 1.574 . S
C517 C536 1.368 . S
C517 H541 0.949 . S
H518 C522 0.949 . S
C519 C520 1.349 . S
C519 C521 1.327 . S
C519 H542 0.950 . S
C520 C519 1.349 . S
C520 C532 1.349 . S
C521 C519 1.327 . S
C521 C537 1.429 . S
C521 H543 0.950 . S
C522 H518 0.949 . S
C522 C530 1.574 . S
C522 C538 1.368 . S
H523 C531 0.950 . S
H524 C529 0.950 . S
H525 C530 0.949 . S
H526 C532 0.950 . S
H527 C533 0.950 . S
H528 C534 0.949 . S
C529 H524 0.950 . S
C529 C531 1.327 . S
C529 C535 1.429 . S
C530 C522 1.574 . S
C530 H525 0.949 . S
C530 C536 1.368 . S
C531 C515 1.349 . S
C531 H523 0.950 . S
C531 C529 1.327 . S
C532 C520 1.349 . S
C532 H526 0.950 . S
C532 C533 1.327 . S
C533 H527 0.950 . S
C533 C532 1.327 . S
C533 C537 1.429 . S
C534 C517 1.574 . S
C534 H528 0.949 . S
C534 C538 1.368 . S
C535 C516 1.429 . S
C535 C529 1.429 . S
C535 C536 1.523 . S
C536 C517 1.368 . S
C536 C530 1.368 . S
C536 C535 1.523 . S
C537 C521 1.429 . S
C537 C533 1.429 . S
C537 C538 1.523 . S
C538 C522 1.368 . S
C538 C534 1.368 . S
C538 C537 1.523 . S
H539 C514 0.950 . S
H540 C516 0.950 . S
H541 C517 0.949 . S
H542 C519 0.950 . S
H543 C521 0.950 . S
C544 C545 1.349 . S
C544 C546 1.327 . S
C544 H569 0.950 . S
C545 C544 1.349 . S
C545 C561 1.349 . S
C546 C544 1.327 . S
C546 C565 1.429 . S
C546 H570 0.950 . S
C547 C564 1.574 . S
C547 C566 1.368 . S
C547 H571 0.949 . S
H548 C552 0.949 . S
C549 C550 1.349 . S
C549 C551 1.327 . S
C549 H572 0.950 . S
C550 C549 1.349 . S
C550 C562 1.349 . S
C551 C549 1.327 . S
C551 C567 1.429 . S
C551 H573 0.950 . S
C552 H548 0.949 . S
C552 C560 1.574 . S
C552 C568 1.368 . S
H553 C561 0.950 . S
H554 C559 0.950 . S
H555 C560 0.949 . S
H556 C562 0.950 . S
H557 C563 0.950 . S
H558 C564 0.949 . S
C559 H554 0.950 . S
C559 C561 1.327 . S
C559 C565 1.429 . S
C560 C552 1.574 . S
C560 H555 0.949 . S
C560 C566 1.368 . S
C561 C545 1.349 . S
C561 H553 0.950 . S
C561 C559 1.327 . S
C562 C550 1.349 . S
C562 H556 0.950 . S
C562 C563 1.327 . S
C563 H557 0.950 . S
C563 C562 1.327 . S
C563 C567 1.429 . S
C564 C547 1.574 . S
C564 H558 0.949 . S
C564 C568 1.368 . S
C565 C546 1.429 . S
C565 C559 1.429 . S
C565 C566 1.523 . S
C566 C547 1.368 . S
C566 C560 1.368 . S
C566 C565 1.523 . S
C567 C551 1.429 . S
C567 C563 1.429 . S
C567 C568 1.523 . S
C568 C552 1.368 . S
C568 C564 1.368 . S
C568 C567 1.523 . S
H569 C544 0.950 . S
H570 C546 0.950 . S
H571 C547 0.949 . S
H572 C549 0.950 . S
H573 C551 0.950 . S
C574 C575 1.349 . S
C574 C576 1.327 . S
C574 H599 0.950 . S
C575 C574 1.349 . S
C575 C591 1.349 . S
C576 C574 1.327 . S
C576 C595 1.429 . S
C576 H600 0.950 . S
C577 C594 1.574 . S
C577 C596 1.368 . S
C577 H601 0.949 . S
H578 C582 0.949 . S
C579 C580 1.374 . S
C579 C581 1.330 . S
C579 H602 0.923 1_565 S
C580 C579 1.374 . S
C580 C592 1.349 . S
C581 C579 1.330 . S
C581 C597 1.429 . S
C581 H603 0.950 1_565 S
C582 H578 0.949 . S
C582 C590 1.574 . S
C582 C598 1.368 . S
H583 C591 0.950 . S
H584 C589 0.950 . S
H585 C590 0.949 . S
H586 C592 0.950 . S
H587 C593 0.950 . S
H588 C594 0.949 1_545 S
C589 H584 0.950 . S
C589 C591 1.327 . S
C589 C595 1.429 . S
C590 C582 1.574 . S
C590 H585 0.949 . S
C590 C596 1.368 . S
C591 C575 1.349 . S
C591 H583 0.950 . S
C591 C589 1.327 . S
C592 C580 1.349 . S
C592 H586 0.950 . S
C592 C593 1.327 . S
C593 H587 0.950 . S
C593 C592 1.327 . S
C593 C597 1.429 . S
C594 C577 1.574 . S
C594 H588 0.949 1_565 S
C594 C598 1.368 . S
C595 C576 1.429 . S
C595 C589 1.429 . S
C595 C596 1.523 . S
C596 C577 1.368 . S
C596 C590 1.368 . S
C596 C595 1.523 . S
C597 C581 1.429 . S
C597 C593 1.429 . S
C597 C598 1.523 . S
C598 C582 1.368 . S
C598 C594 1.368 . S
C598 C597 1.523 . S
H599 C574 0.950 . S
H600 C576 0.950 . S
H601 C577 0.949 . S
H602 C579 0.923 1_545 S
H603 C581 0.950 1_545 S
C604 C605 1.349 . S
C604 C606 1.327 . S
C604 H629 0.950 . S
C605 C604 1.349 . S
C605 C621 1.349 . S
C606 C604 1.327 . S
C606 C625 1.429 . S
C606 H630 0.950 . S
C607 C624 1.574 . S
C607 C626 1.368 . S
C607 H631 0.949 . S
H608 C612 0.949 . S
C609 C610 1.349 . S
C609 C611 1.327 . S
C609 H632 0.950 . S
C610 C609 1.349 . S
C610 C622 1.349 . S
C611 C609 1.327 . S
C611 C627 1.429 . S
C611 H633 0.950 . S
C612 H608 0.949 . S
C612 C620 1.574 . S
C612 C628 1.368 . S
H613 C621 0.950 . S
H614 C619 0.950 . S
H615 C620 0.949 . S
H616 C622 0.950 . S
H617 C623 0.950 . S
H618 C624 0.949 . S
C619 H614 0.950 . S
C619 C621 1.327 . S
C619 C625 1.429 . S
C620 C612 1.574 . S
C620 H615 0.949 . S
C620 C626 1.368 . S
C621 C605 1.349 . S
C621 H613 0.950 . S
C621 C619 1.327 . S
C622 C610 1.349 . S
C622 H616 0.950 . S
C622 C623 1.327 . S
C623 H617 0.950 . S
C623 C622 1.327 . S
C623 C627 1.429 . S
C624 C607 1.574 . S
C624 H618 0.949 . S
C624 C628 1.368 . S
C625 C606 1.429 . S
C625 C619 1.429 . S
C625 C626 1.523 . S
C626 C607 1.368 . S
C626 C620 1.368 . S
C626 C625 1.523 . S
C627 C611 1.429 . S
C627 C623 1.429 . S
C627 C628 1.523 . S
C628 C612 1.368 . S
C628 C624 1.368 . S
C628 C627 1.523 . S
H629 C604 0.950 . S
H630 C606 0.950 . S
H631 C607 0.949 . S
H632 C609 0.950 . S
H633 C611 0.950 . S
C634 C635 1.349 . S
C634 C636 1.327 . S
C634 H659 0.950 . S
C635 C634 1.349 . S
C635 C651 1.349 . S
C636 C634 1.327 . S
C636 C655 1.429 . S
C636 H660 0.950 . S
C637 C654 1.574 . S
C637 C656 1.368 . S
C637 H661 0.949 . S
H638 C642 0.949 . S
C639 C640 1.349 . S
C639 C641 1.327 . S
C639 H662 0.950 . S
C640 C639 1.349 . S
C640 C652 1.349 . S
C641 C639 1.327 . S
C641 C657 1.429 . S
C641 H663 0.950 . S
C642 H638 0.949 . S
C642 C650 1.574 . S
C642 C658 1.368 . S
H643 C651 0.950 . S
H644 C649 0.950 . S
H645 C650 0.949 . S
H646 C652 0.950 . S
H647 C653 0.950 . S
H648 C654 0.949 . S
C649 H644 0.950 . S
C649 C651 1.327 . S
C649 C655 1.429 . S
C650 C642 1.574 . S
C650 H645 0.949 . S
C650 C656 1.368 . S
C651 C635 1.349 . S
C651 H643 0.950 . S
C651 C649 1.327 . S
C652 C640 1.349 . S
C652 H646 0.950 . S
C652 C653 1.327 . S
C653 H647 0.950 . S
C653 C652 1.327 . S
C653 C657 1.429 . S
C654 C637 1.574 . S
C654 H648 0.949 . S
C654 C658 1.368 . S
C655 C636 1.429 . S
C655 C649 1.429 . S
C655 C656 1.523 . S
C656 C637 1.368 . S
C656 C650 1.368 . S
C656 C655 1.523 . S
C657 C641 1.429 . S
C657 C653 1.429 . S
C657 C658 1.523 . S
C658 C642 1.368 . S
C658 C654 1.368 . S
C658 C657 1.523 . S
H659 C634 0.950 . S
H660 C636 0.950 . S
H661 C637 0.949 . S
H662 C639 0.950 . S
H663 C641 0.950 . S
C664 C665 1.349 . S
C664 C666 1.327 . S
C664 H689 0.950 . S
C665 C664 1.349 . S
C665 C681 1.349 . S
C666 C664 1.327 . S
C666 C685 1.429 . S
C666 H690 0.950 . S
C667 C684 1.574 . S
C667 C686 1.368 . S
C667 H691 0.949 . S
H668 C672 0.949 . S
C669 C670 1.349 . S
C669 C671 1.327 . S
C669 H692 0.950 . S
C670 C669 1.349 . S
C670 C682 1.349 . S
C671 C669 1.327 . S
C671 C687 1.429 . S
C671 H693 0.950 . S
C672 H668 0.949 . S
C672 C680 1.574 . S
C672 C688 1.368 . S
H673 C681 0.950 . S
H674 C679 0.950 . S
H675 C680 0.949 . S
H676 C682 0.950 . S
H677 C683 0.950 . S
H678 C684 0.949 . S
C679 H674 0.950 . S
C679 C681 1.327 . S
C679 C685 1.429 . S
C680 C672 1.574 . S
C680 H675 0.949 . S
C680 C686 1.368 . S
C681 C665 1.349 . S
C681 H673 0.950 . S
C681 C679 1.327 . S
C682 C670 1.349 . S
C682 H676 0.950 . S
C682 C683 1.327 . S
C683 H677 0.950 . S
C683 C682 1.327 . S
C683 C687 1.429 . S
C684 C667 1.574 . S
C684 H678 0.949 . S
C684 C688 1.368 . S
C685 C666 1.429 . S
C685 C679 1.429 . S
C685 C686 1.523 . S
C686 C667 1.368 . S
C686 C680 1.368 . S
C686 C685 1.523 . S
C687 C671 1.429 . S
C687 C683 1.429 . S
C687 C688 1.523 . S
C688 C672 1.368 . S
C688 C684 1.368 . S
C688 C687 1.523 . S
H689 C664 0.950 . S
H690 C666 0.950 . S
H691 C667 0.949 . S
H692 C669 0.950 . S
H693 C671 0.950 . S
C694 C695 1.349 . S
C694 C696 1.327 . S
C694 H719 0.950 . S
C695 C694 1.349 . S
C695 C711 1.349 . S
C696 C694 1.327 . S
C696 C715 1.429 . S
C696 H720 0.950 . S
C697 C714 1.574 . S
C697 C716 1.368 . S
C697 H721 0.949 . S
H698 C702 0.949 . S
C699 C700 1.349 . S
C699 C701 1.327 . S
C699 H722 0.950 . S
C700 C699 1.349 . S
C700 C712 1.349 . S
C701 C699 1.327 . S
C701 C717 1.429 . S
C701 H723 0.950 . S
C702 H698 0.949 . S
C702 C710 1.574 . S
C702 C718 1.368 . S
H703 C711 0.950 . S
H704 C709 0.950 . S
H705 C710 0.949 . S
H706 C712 0.950 . S
H707 C713 0.950 . S
H708 C714 0.949 . S
C709 H704 0.950 . S
C709 C711 1.327 . S
C709 C715 1.429 . S
C710 C702 1.574 . S
C710 H705 0.949 . S
C710 C716 1.368 . S
C711 C695 1.349 . S
C711 H703 0.950 . S
C711 C709 1.327 . S
C712 C700 1.349 . S
C712 H706 0.950 . S
C712 C713 1.327 . S
C713 H707 0.950 . S
C713 C712 1.327 . S
C713 C717 1.429 . S
C714 C697 1.574 . S
C714 H708 0.949 . S
C714 C718 1.368 . S
C715 C696 1.429 . S
C715 C709 1.429 . S
C715 C716 1.523 . S
C716 C697 1.368 . S
C716 C710 1.368 . S
C716 C715 1.523 . S
C717 C701 1.429 . S
C717 C713 1.429 . S
C717 C718 1.523 . S
C718 C702 1.368 . S
C718 C714 1.368 . S
C718 C717 1.523 . S
H719 C694 0.950 . S
H720 C696 0.950 . S
H721 C697 0.949 . S
H722 C699 0.950 . S
H723 C701 0.950 . S
C724 C725 1.349 . S
C724 C726 1.327 . S
C724 H749 0.950 . S
C725 C724 1.349 . S
C725 C741 1.349 . S
C726 C724 1.327 . S
C726 C745 1.429 . S
C726 H750 0.950 . S
C727 C744 1.574 . S
C727 C746 1.368 . S
C727 H751 0.949 . S
H728 C732 0.949 . S
C729 C730 1.349 . S
C729 C731 1.327 . S
C729 H752 0.950 . S
C730 C729 1.349 . S
C730 C742 1.349 . S
C731 C729 1.327 . S
C731 C747 1.429 . S
C731 H753 0.950 . S
C732 H728 0.949 . S
C732 C740 1.574 . S
C732 C748 1.368 . S
H733 C741 0.950 . S
H734 C739 0.950 . S
H735 C740 0.949 . S
H736 C742 0.950 . S
H737 C743 0.950 . S
H738 C744 0.949 . S
C739 H734 0.950 . S
C739 C741 1.327 . S
C739 C745 1.429 . S
C740 C732 1.574 . S
C740 H735 0.949 . S
C740 C746 1.368 . S
C741 C725 1.349 . S
C741 H733 0.950 . S
C741 C739 1.327 . S
C742 C730 1.349 . S
C742 H736 0.950 . S
C742 C743 1.327 . S
C743 H737 0.950 . S
C743 C742 1.327 . S
C743 C747 1.429 . S
C744 C727 1.574 . S
C744 H738 0.949 . S
C744 C748 1.368 . S
C745 C726 1.429 . S
C745 C739 1.429 . S
C745 C746 1.523 . S
C746 C727 1.368 . S
C746 C740 1.368 . S
C746 C745 1.523 . S
C747 C731 1.429 . S
C747 C743 1.429 . S
C747 C748 1.523 . S
C748 C732 1.368 . S
C748 C744 1.368 . S
C748 C747 1.523 . S
H749 C724 0.950 . S
H750 C726 0.950 . S
H751 C727 0.949 . S
H752 C729 0.950 . S
H753 C731 0.950 . S
C754 C755 1.349 . S
C754 C756 1.327 . S
C754 H779 0.950 . S
C755 C754 1.349 . S
C755 C771 1.349 . S
C756 C754 1.327 . S
C756 C775 1.429 . S
C756 H780 0.950 . S
C757 C774 1.574 . S
C757 C776 1.368 . S
C757 H781 0.949 . S
H758 C762 0.949 . S
C759 C760 1.349 . S
C759 C761 1.327 . S
C759 H782 0.950 . S
C760 C759 1.349 . S
C760 C772 1.349 . S
C761 C759 1.327 . S
C761 C777 1.429 . S
C761 H783 0.950 . S
C762 H758 0.949 . S
C762 C770 1.574 . S
C762 C778 1.368 . S
H763 C771 0.950 . S
H764 C769 0.950 . S
H765 C770 0.949 . S
H766 C772 0.950 . S
H767 C773 0.950 . S
H768 C774 0.949 . S
C769 H764 0.950 . S
C769 C771 1.327 . S
C769 C775 1.429 . S
C770 C762 1.574 . S
C770 H765 0.949 . S
C770 C776 1.368 . S
C771 C755 1.349 . S
C771 H763 0.950 . S
C771 C769 1.327 . S
C772 C760 1.349 . S
C772 H766 0.950 . S
C772 C773 1.327 . S
C773 H767 0.950 . S
C773 C772 1.327 . S
C773 C777 1.429 . S
C774 C757 1.574 . S
C774 H768 0.949 . S
C774 C778 1.368 . S
C775 C756 1.429 . S
C775 C769 1.429 . S
C775 C776 1.523 . S
C776 C757 1.368 . S
C776 C770 1.368 . S
C776 C775 1.523 . S
C777 C761 1.429 . S
C777 C773 1.429 . S
C777 C778 1.523 . S
C778 C762 1.368 . S
C778 C774 1.368 . S
C778 C777 1.523 . S
H779 C754 0.950 . S
H780 C756 0.950 . S
H781 C757 0.949 . S
H782 C759 0.950 . S
H783 C761 0.950 . S
C784 C785 1.349 . S
C784 C786 1.327 . S
C784 H809 0.950 . S
C785 C784 1.349 . S
C785 C801 1.349 . S
C786 C784 1.327 . S
C786 C805 1.429 . S
C786 H810 0.950 . S
C787 C804 1.574 . S
C787 C806 1.368 . S
C787 H811 0.949 . S
H788 C792 0.949 . S
C789 C790 1.349 . S
C789 C791 1.327 . S
C789 H812 0.950 . S
C790 C789 1.349 . S
C790 C802 1.349 . S
C791 C789 1.327 . S
C791 C807 1.429 . S
C791 H813 0.950 . S
C792 H788 0.949 . S
C792 C800 1.574 . S
C792 C808 1.368 . S
H793 C801 0.950 . S
H794 C799 0.950 . S
H795 C800 0.949 . S
H796 C802 0.950 . S
H797 C803 0.950 . S
H798 C804 0.949 . S
C799 H794 0.950 . S
C799 C801 1.327 . S
C799 C805 1.429 . S
C800 C792 1.574 . S
C800 H795 0.949 . S
C800 C806 1.368 . S
C801 C785 1.349 . S
C801 H793 0.950 . S
C801 C799 1.327 . S
C802 C790 1.349 . S
C802 H796 0.950 . S
C802 C803 1.327 . S
C803 H797 0.950 . S
C803 C802 1.327 . S
C803 C807 1.429 . S
C804 C787 1.574 . S
C804 H798 0.949 . S
C804 C808 1.368 . S
C805 C786 1.429 . S
C805 C799 1.429 . S
C805 C806 1.523 . S
C806 C787 1.368 . S
C806 C800 1.368 . S
C806 C805 1.523 . S
C807 C791 1.429 . S
C807 C803 1.429 . S
C807 C808 1.523 . S
C808 C792 1.368 . S
C808 C804 1.368 . S
C808 C807 1.523 . S
H809 C784 0.950 . S
H810 C786 0.950 . S
H811 C787 0.949 . S
H812 C789 0.950 . S
H813 C791 0.950 . S
C814 C815 1.349 . S
C814 C816 1.327 . S
C814 H839 0.950 . S
C815 C814 1.349 . S
C815 C831 1.349 1_655 S
C816 C814 1.327 . S
C816 C835 1.429 . S
C816 H840 0.950 . S
C817 C834 1.574 . S
C817 C836 1.368 1_455 S
C817 H841 0.949 . S
H818 C822 0.949 . S
C819 C820 1.349 . S
C819 C821 1.327 . S
C819 H842 0.950 . S
C820 C819 1.349 . S
C820 C832 1.349 1_455 S
C821 C819 1.327 . S
C821 C837 1.429 . S
C821 H843 0.950 . S
C822 H818 0.949 . S
C822 C830 1.574 . S
C822 C838 1.368 . S
H823 C831 0.950 . S
H824 C829 0.950 . S
H825 C830 0.949 . S
H826 C832 0.950 . S
H827 C833 0.950 . S
H828 C834 0.949 . S
C829 H824 0.950 . S
C829 C831 1.327 . S
C829 C835 1.429 1_455 S
C830 C822 1.574 . S
C830 H825 0.949 . S
C830 C836 1.368 . S
C831 C815 1.349 1_455 S
C831 H823 0.950 . S
C831 C829 1.327 . S
C832 C820 1.349 1_655 S
C832 H826 0.950 . S
C832 C833 1.327 . S
C833 H827 0.950 . S
C833 C832 1.327 . S
C833 C837 1.429 1_655 S
C834 C817 1.574 . S
C834 H828 0.949 . S
C834 C838 1.368 1_455 S
C835 C816 1.429 . S
C835 C829 1.429 1_655 S
C835 C836 1.523 . S
C836 C817 1.368 1_655 S
C836 C830 1.368 . S
C836 C835 1.523 . S
C837 C821 1.429 . S
C837 C833 1.429 1_455 S
C837 C838 1.523 1_455 S
C838 C822 1.368 . S
C838 C834 1.368 1_655 S
C838 C837 1.523 1_655 S
H839 C814 0.950 . S
H840 C816 0.950 . S
H841 C817 0.949 . S
H842 C819 0.950 . S
H843 C821 0.950 . S
C844 C845 1.349 . S
C844 C846 1.327 . S
C844 H869 0.950 . S
C845 C844 1.349 . S
C845 C861 1.349 . S
C846 C844 1.327 . S
C846 C865 1.429 . S
C846 H870 0.950 . S
C847 C864 1.574 . S
C847 C866 1.368 . S
C847 H871 0.949 . S
H848 C852 0.949 . S
C849 C850 1.349 . S
C849 C851 1.327 . S
C849 H872 0.950 . S
C850 C849 1.349 . S
C850 C862 1.349 . S
C851 C849 1.327 . S
C851 C867 1.429 . S
C851 H873 0.950 . S
C852 H848 0.949 . S
C852 C860 1.574 . S
C852 C868 1.368 . S
H853 C861 0.950 . S
H854 C859 0.950 . S
H855 C860 0.949 . S
H856 C862 0.950 . S
H857 C863 0.950 . S
H858 C864 0.949 . S
C859 H854 0.950 . S
C859 C861 1.327 . S
C859 C865 1.429 . S
C860 C852 1.574 . S
C860 H855 0.949 . S
C860 C866 1.368 . S
C861 C845 1.349 . S
C861 H853 0.950 . S
C861 C859 1.327 . S
C862 C850 1.349 . S
C862 H856 0.950 . S
C862 C863 1.327 . S
C863 H857 0.950 . S
C863 C862 1.327 . S
C863 C867 1.429 . S
C864 C847 1.574 . S
C864 H858 0.949 . S
C864 C868 1.368 . S
C865 C846 1.429 . S
C865 C859 1.429 . S
C865 C866 1.523 . S
C866 C847 1.368 . S
C866 C860 1.368 . S
C866 C865 1.523 . S
C867 C851 1.429 . S
C867 C863 1.429 . S
C867 C868 1.523 . S
C868 C852 1.368 . S
C868 C864 1.368 . S
C868 C867 1.523 . S
H869 C844 0.950 . S
H870 C846 0.950 . S
H871 C847 0.949 . S
H872 C849 0.950 . S
H873 C851 0.950 . S
C874 C875 1.349 . S
C874 C876 1.327 . S
C874 H899 0.950 . S
C875 C874 1.349 . S
C875 C891 1.349 . S
C876 C874 1.327 . S
C876 C895 1.429 . S
C876 H900 0.950 . S
C877 C894 1.574 . S
C877 C896 1.368 . S
C877 H901 0.949 . S
H878 C882 0.949 . S
C879 C880 1.349 . S
C879 C881 1.327 . S
C879 H902 0.950 . S
C880 C879 1.349 . S
C880 C892 1.349 . S
C881 C879 1.327 . S
C881 C897 1.429 . S
C881 H903 0.950 . S
C882 H878 0.949 . S
C882 C890 1.574 . S
C882 C898 1.368 . S
H883 C891 0.950 . S
H884 C889 0.950 . S
H885 C890 0.949 . S
H886 C892 0.950 . S
H887 C893 0.950 . S
H888 C894 0.949 . S
C889 H884 0.950 . S
C889 C891 1.327 . S
C889 C895 1.429 . S
C890 C882 1.574 . S
C890 H885 0.949 . S
C890 C896 1.368 . S
C891 C875 1.349 . S
C891 H883 0.950 . S
C891 C889 1.327 . S
C892 C880 1.349 . S
C892 H886 0.950 . S
C892 C893 1.327 . S
C893 H887 0.950 . S
C893 C892 1.327 . S
C893 C897 1.429 . S
C894 C877 1.574 . S
C894 H888 0.949 . S
C894 C898 1.368 . S
C895 C876 1.429 . S
C895 C889 1.429 . S
C895 C896 1.523 . S
C896 C877 1.368 . S
C896 C890 1.368 . S
C896 C895 1.523 . S
C897 C881 1.429 . S
C897 C893 1.429 . S
C897 C898 1.523 . S
C898 C882 1.368 . S
C898 C894 1.368 . S
C898 C897 1.523 . S
H899 C874 0.950 . S
H900 C876 0.950 . S
H901 C877 0.949 . S
H902 C879 0.950 . S
H903 C881 0.950 . S
C904 C905 1.341 1_554 S
C904 C906 1.328 . S
C904 H929 0.957 . S
C905 C904 1.341 1_556 S
C905 C921 1.349 . S
C906 C904 1.328 . S
C906 C925 1.429 1_554 S
C906 H930 0.950 . S
C907 C924 1.574 . S
C907 C926 1.368 . S
C907 H931 0.949 . S
H908 C912 0.949 . S
C909 C910 1.349 . S
C909 C911 1.327 . S
C909 H932 0.950 . S
C910 C909 1.349 . S
C910 C922 1.349 1_556 S
C911 C909 1.327 . S
C911 C927 1.429 . S
C911 H933 0.950 . S
C912 H908 0.949 . S
C912 C920 1.574 1_565 S
C912 C928 1.368 1_554 S
H913 C921 0.950 . S
H914 C919 0.950 1_565 S
H915 C920 0.949 . S
H916 C922 0.950 . S
H917 C923 0.950 . S
H918 C924 0.949 . S
C919 H914 0.950 1_545 S
C919 C921 1.327 . S
C919 C925 1.429 . S
C920 C912 1.574 1_545 S
C920 H915 0.949 . S
C920 C926 1.368 1_544 S
C921 C905 1.349 . S
C921 H913 0.950 . S
C921 C919 1.327 . S
C922 C910 1.349 1_554 S
C922 H916 0.950 . S
C922 C923 1.327 . S
C923 H917 0.950 . S
C923 C922 1.327 . S
C923 C927 1.429 1_554 S
C924 C907 1.574 . S
C924 H918 0.949 . S
C924 C928 1.368 . S
C925 C906 1.429 1_556 S
C925 C919 1.429 . S
C925 C926 1.523 1_545 S
C926 C907 1.368 . S
C926 C920 1.368 1_566 S
C926 C925 1.523 1_565 S
C927 C911 1.429 . S
C927 C923 1.429 1_556 S
C927 C928 1.523 . S
C928 C912 1.368 1_556 S
C928 C924 1.368 . S
C928 C927 1.523 . S
H929 C904 0.957 . S
H930 C906 0.950 . S
H931 C907 0.949 . S
H932 C909 0.950 . S
H933 C911 0.950 . S
C934 C935 1.349 . S
C934 C936 1.327 . S
C934 H959 0.950 . S
C935 C934 1.349 . S
C935 C951 1.349 . S
C936 C934 1.327 . S
C936 C955 1.429 . S
C936 H960 0.950 . S
C937 C954 1.574 . S
C937 C956 1.368 . S
C937 H961 0.949 . S
H938 C942 0.949 . S
C939 C940 1.349 . S
C939 C941 1.327 . S
C939 H962 0.950 . S
C940 C939 1.349 . S
C940 C952 1.349 . S
C941 C939 1.327 . S
C941 C957 1.429 . S
C941 H963 0.950 . S
C942 H938 0.949 . S
C942 C950 1.574 . S
C942 C958 1.368 . S
H943 C951 0.950 . S
H944 C949 0.950 . S
H945 C950 0.949 . S
H946 C952 0.950 . S
H947 C953 0.950 . S
H948 C954 0.949 . S
C949 H944 0.950 . S
C949 C951 1.327 . S
C949 C955 1.429 . S
C950 C942 1.574 . S
C950 H945 0.949 . S
C950 C956 1.368 . S
C951 C935 1.349 . S
C951 H943 0.950 . S
C951 C949 1.327 . S
C952 C940 1.349 . S
C952 H946 0.950 . S
C952 C953 1.327 . S
C953 H947 0.950 . S
C953 C952 1.327 . S
C953 C957 1.429 . S
C954 C937 1.574 . S
C954 H948 0.949 . S
C954 C958 1.368 . S
C955 C936 1.429 . S
C955 C949 1.429 . S
C955 C956 1.523 . S
C956 C937 1.368 . S
C956 C950 1.368 . S
C956 C955 1.523 . S
C957 C941 1.429 . S
C957 C953 1.429 . S
C957 C958 1.523 . S
C958 C942 1.368 . S
C958 C954 1.368 . S
C958 C957 1.523 . S
H959 C934 0.950 . S
H960 C936 0.950 . S
H961 C937 0.949 . S
H962 C939 0.950 . S
H963 C941 0.950 . S
C964 C965 1.349 . S
C964 C966 1.327 . S
C964 H989 0.950 1_545 S
C965 C964 1.349 . S
C965 C981 1.349 . S
C966 C964 1.327 . S
C966 C985 1.429 . S
C966 H990 0.950 . S
C967 C984 1.574 . S
C967 C986 1.368 . S
C967 H991 0.949 . S
H968 C972 0.949 . S
C969 C970 1.349 . S
C969 C971 1.327 . S
C969 H992 0.950 . S
C970 C969 1.349 . S
C970 C982 1.349 . S
C971 C969 1.327 . S
C971 C987 1.429 . S
C971 H993 0.950 . S
C972 H968 0.949 . S
C972 C980 1.574 . S
C972 C988 1.368 . S
H973 C981 0.950 . S
H974 C979 0.950 . S
H975 C980 0.949 . S
H976 C982 0.950 . S
H977 C983 0.950 . S
H978 C984 0.949 . S
C979 H974 0.950 . S
C979 C981 1.327 . S
C979 C985 1.429 . S
C980 C972 1.574 . S
C980 H975 0.949 . S
C980 C986 1.368 . S
C981 C965 1.349 . S
C981 H973 0.950 . S
C981 C979 1.327 . S
C982 C970 1.349 . S
C982 H976 0.950 . S
C982 C983 1.327 . S
C983 H977 0.950 . S
C983 C982 1.327 . S
C983 C987 1.429 . S
C984 C967 1.574 . S
C984 H978 0.949 . S
C984 C988 1.368 . S
C985 C966 1.429 . S
C985 C979 1.429 . S
C985 C986 1.523 . S
C986 C967 1.368 . S
C986 C980 1.368 . S
C986 C985 1.523 . S
C987 C971 1.429 . S
C987 C983 1.429 . S
C987 C988 1.523 . S
C988 C972 1.368 . S
C988 C984 1.368 . S
C988 C987 1.523 . S
H989 C964 0.950 1_565 S
H990 C966 0.950 . S
H991 C967 0.949 . S
H992 C969 0.950 . S
H993 C971 0.950 . S
C994 C995 1.349 . S
C994 C996 1.327 . S
C994 H1019 0.950 . S
C995 C994 1.349 . S
C995 C1011 1.349 . S
C996 C994 1.327 . S
C996 C1015 1.429 . S
C996 H1020 0.950 . S
C997 C1014 1.574 . S
C997 C1016 1.368 . S
C997 H1021 0.949 . S
H998 C1002 0.949 . S
C999 C1000 1.349 . S
C999 C1001 1.327 . S
C999 H1022 0.950 . S
C1000 C999 1.349 . S
C1000 C1012 1.349 . S
C1001 C999 1.327 . S
C1001 C1017 1.429 . S
C1001 H1023 0.950 . S
C1002 H998 0.949 . S
C1002 C1010 1.574 . S
C1002 C1018 1.368 . S
H1003 C1011 0.950 . S
H1004 C1009 0.950 . S
H1005 C1010 0.949 . S
H1006 C1012 0.950 . S
H1007 C1013 0.950 . S
H1008 C1014 0.949 . S
C1009 H1004 0.950 . S
C1009 C1011 1.327 . S
C1009 C1015 1.429 . S
C1010 C1002 1.574 . S
C1010 H1005 0.949 . S
C1010 C1016 1.368 . S
C1011 C995 1.349 . S
C1011 H1003 0.950 . S
C1011 C1009 1.327 . S
C1012 C1000 1.349 . S
C1012 H1006 0.950 . S
C1012 C1013 1.327 . S
C1013 H1007 0.950 . S
C1013 C1012 1.327 . S
C1013 C1017 1.429 . S
C1014 C997 1.574 . S
C1014 H1008 0.949 . S
C1014 C1018 1.368 . S
C1015 C996 1.429 . S
C1015 C1009 1.429 . S
C1015 C1016 1.523 . S
C1016 C997 1.368 . S
C1016 C1010 1.368 . S
C1016 C1015 1.523 . S
C1017 C1001 1.429 . S
C1017 C1013 1.429 . S
C1017 C1018 1.523 . S
C1018 C1002 1.368 . S
C1018 C1014 1.368 . S
C1018 C1017 1.523 . S
H1019 C994 0.950 . S
H1020 C996 0.950 . S
H1021 C997 0.949 . S
H1022 C999 0.950 . S
H1023 C1001 0.950 . S
C1024 C1025 1.349 . S
C1024 C1026 1.298 1_565 S
C1024 H1049 0.950 . S
C1025 C1024 1.349 . S
C1025 C1041 1.349 1_565 S
C1026 C1024 1.298 1_545 S
C1026 C1045 1.459 . S
C1026 H1050 0.951 . S
C1027 C1044 1.574 . S
C1027 C1046 1.368 . S
C1027 H1051 0.949 . S
H1028 C1032 0.949 . S
C1029 C1030 1.349 . S
C1029 C1031 1.327 . S
C1029 H1052 0.950 . S
C1030 C1029 1.349 . S
C1030 C1042 1.349 . S
C1031 C1029 1.327 . S
C1031 C1047 1.429 . S
C1031 H1053 0.950 . S
C1032 H1028 0.949 . S
C1032 C1040 1.574 . S
C1032 C1048 1.368 . S
H1033 C1041 0.950 . S
H1034 C1039 0.950 . S
H1035 C1040 0.949 . S
H1036 C1042 0.950 . S
H1037 C1043 0.950 . S
H1038 C1044 0.949 . S
C1039 H1034 0.950 . S
C1039 C1041 1.327 . S
C1039 C1045 1.429 . S
C1040 C1032 1.574 . S
C1040 H1035 0.949 . S
C1040 C1046 1.368 . S
C1041 C1025 1.349 1_545 S
C1041 H1033 0.950 . S
C1041 C1039 1.327 . S
C1042 C1030 1.349 . S
C1042 H1036 0.950 . S
C1042 C1043 1.327 . S
C1043 H1037 0.950 . S
C1043 C1042 1.327 . S
C1043 C1047 1.429 . S
C1044 C1027 1.574 . S
C1044 H1038 0.949 . S
C1044 C1048 1.368 . S
C1045 C1026 1.459 . S
C1045 C1039 1.429 . S
C1045 C1046 1.523 . S
C1046 C1027 1.368 . S
C1046 C1040 1.368 . S
C1046 C1045 1.523 . S
C1047 C1031 1.429 . S
C1047 C1043 1.429 . S
C1047 C1048 1.523 . S
C1048 C1032 1.368 . S
C1048 C1044 1.368 . S
C1048 C1047 1.523 . S
H1049 C1024 0.950 . S
H1050 C1026 0.951 . S
H1051 C1027 0.949 . S
H1052 C1029 0.950 . S
H1053 C1031 0.950 . S
C1054 C1055 1.349 . S
C1054 C1056 1.327 . S
C1054 H1079 0.950 . S
C1055 C1054 1.349 . S
C1055 C1071 1.349 . S
C1056 C1054 1.327 . S
C1056 C1075 1.429 . S
C1056 H1080 0.950 . S
C1057 C1074 1.574 . S
C1057 C1076 1.368 . S
C1057 H1081 0.949 . S
H1058 C1062 0.949 . S
C1059 C1060 1.349 . S
C1059 C1061 1.327 . S
C1059 H1082 0.950 . S
C1060 C1059 1.349 . S
C1060 C1072 1.349 . S
C1061 C1059 1.327 . S
C1061 C1077 1.429 . S
C1061 H1083 0.950 . S
C1062 H1058 0.949 . S
C1062 C1070 1.574 . S
C1062 C1078 1.368 . S
H1063 C1071 0.950 . S
H1064 C1069 0.950 . S
H1065 C1070 0.949 . S
H1066 C1072 0.950 . S
H1067 C1073 0.950 . S
H1068 C1074 0.949 . S
C1069 H1064 0.950 . S
C1069 C1071 1.327 . S
C1069 C1075 1.429 . S
C1070 C1062 1.574 . S
C1070 H1065 0.949 . S
C1070 C1076 1.368 . S
C1071 C1055 1.349 . S
C1071 H1063 0.950 . S
C1071 C1069 1.327 . S
C1072 C1060 1.349 . S
C1072 H1066 0.950 . S
C1072 C1073 1.327 . S
C1073 H1067 0.950 . S
C1073 C1072 1.327 . S
C1073 C1077 1.429 . S
C1074 C1057 1.574 . S
C1074 H1068 0.949 . S
C1074 C1078 1.368 . S
C1075 C1056 1.429 . S
C1075 C1069 1.429 . S
C1075 C1076 1.523 . S
C1076 C1057 1.368 . S
C1076 C1070 1.368 . S
C1076 C1075 1.523 . S
C1077 C1061 1.429 . S
C1077 C1073 1.429 . S
C1077 C1078 1.523 . S
C1078 C1062 1.368 . S
C1078 C1074 1.368 . S
C1078 C1077 1.523 . S
H1079 C1054 0.950 . S
H1080 C1056 0.950 . S
H1081 C1057 0.949 . S
H1082 C1059 0.950 . S
H1083 C1061 0.950 . S
C1084 C1085 1.349 . S
C1084 C1086 1.327 . S
C1084 H1109 0.950 . S
C1085 C1084 1.349 . S
C1085 C1101 1.349 . S
C1086 C1084 1.327 . S
C1086 C1105 1.429 . S
C1086 H1110 0.950 . S
C1087 C1104 1.574 . S
C1087 C1106 1.368 . S
C1087 H1111 0.949 . S
H1088 C1092 0.949 . S
C1089 C1090 1.349 . S
C1089 C1091 1.327 . S
C1089 H1112 0.950 . S
C1090 C1089 1.349 . S
C1090 C1102 1.349 . S
C1091 C1089 1.327 . S
C1091 C1107 1.429 . S
C1091 H1113 0.950 . S
C1092 H1088 0.949 . S
C1092 C1100 1.574 . S
C1092 C1108 1.368 . S
H1093 C1101 0.950 . S
H1094 C1099 0.950 . S
H1095 C1100 0.949 . S
H1096 C1102 0.950 . S
H1097 C1103 0.950 . S
H1098 C1104 0.949 . S
C1099 H1094 0.950 . S
C1099 C1101 1.327 . S
C1099 C1105 1.429 . S
C1100 C1092 1.574 . S
C1100 H1095 0.949 . S
C1100 C1106 1.368 . S
C1101 C1085 1.349 . S
C1101 H1093 0.950 . S
C1101 C1099 1.327 . S
C1102 C1090 1.349 . S
C1102 H1096 0.950 . S
C1102 C1103 1.327 . S
C1103 H1097 0.950 . S
C1103 C1102 1.327 . S
C1103 C1107 1.429 . S
C1104 C1087 1.574 . S
C1104 H1098 0.949 . S
C1104 C1108 1.368 . S
C1105 C1086 1.429 . S
C1105 C1099 1.429 . S
C1105 C1106 1.523 . S
C1106 C1087 1.368 . S
C1106 C1100 1.368 . S
C1106 C1105 1.523 . S
C1107 C1091 1.429 . S
C1107 C1103 1.429 . S
C1107 C1108 1.523 . S
C1108 C1092 1.368 . S
C1108 C1104 1.368 . S
C1108 C1107 1.523 . S
H1109 C1084 0.950 . S
H1110 C1086 0.950 . S
H1111 C1087 0.949 . S
H1112 C1089 0.950 . S
H1113 C1091 0.950 . S
C1114 C1115 1.349 . S
C1114 C1116 1.327 . S
C1114 H1139 0.950 . S
C1115 C1114 1.349 . S
C1115 C1131 1.349 . S
C1116 C1114 1.327 . S
C1116 C1135 1.429 . S
C1116 H1140 0.950 . S
C1117 C1134 1.574 . S
C1117 C1136 1.368 . S
C1117 H1141 0.949 . S
H1118 C1122 0.949 1_565 S
C1119 C1120 1.349 . S
C1119 C1121 1.327 . S
C1119 H1142 0.950 . S
C1120 C1119 1.349 . S
C1120 C1132 1.349 1_545 S
C1121 C1119 1.327 . S
C1121 C1137 1.429 . S
C1121 H1143 0.950 . S
C1122 H1118 0.949 1_545 S
C1122 C1130 1.574 . S
C1122 C1138 1.368 . S
H1123 C1131 0.950 . S
H1124 C1129 0.950 . S
H1125 C1130 0.949 . S
H1126 C1132 0.950 . S
H1127 C1133 0.955 . S
H1128 C1134 0.949 . S
C1129 H1124 0.950 . S
C1129 C1131 1.327 . S
C1129 C1135 1.429 . S
C1130 C1122 1.574 . S
C1130 H1125 0.949 . S
C1130 C1136 1.368 . S
C1131 C1115 1.349 . S
C1131 H1123 0.950 . S
C1131 C1129 1.327 . S
C1132 C1120 1.349 1_565 S
C1132 H1126 0.950 . S
C1132 C1133 1.331 . S
C1133 H1127 0.955 . S
C1133 C1132 1.331 . S
C1133 C1137 1.419 1_565 S
C1134 C1117 1.574 . S
C1134 H1128 0.949 . S
C1134 C1138 1.368 . S
C1135 C1116 1.429 . S
C1135 C1129 1.429 . S
C1135 C1136 1.523 . S
C1136 C1117 1.368 . S
C1136 C1130 1.368 . S
C1136 C1135 1.523 . S
C1137 C1121 1.429 . S
C1137 C1133 1.419 1_545 S
C1137 C1138 1.523 . S
C1138 C1122 1.368 . S
C1138 C1134 1.368 . S
C1138 C1137 1.523 . S
H1139 C1114 0.950 . S
H1140 C1116 0.950 . S
H1141 C1117 0.949 . S
H1142 C1119 0.950 . S
H1143 C1121 0.950 . S
C1144 C1145 1.349 . S
C1144 C1146 1.327 . S
C1144 H1169 0.950 . S
C1145 C1144 1.349 . S
C1145 C1161 1.349 . S
C1146 C1144 1.327 . S
C1146 C1165 1.429 . S
C1146 H1170 0.950 . S
C1147 C1164 1.574 . S
C1147 C1166 1.368 . S
C1147 H1171 0.949 . S
H1148 C1152 0.949 . S
C1149 C1150 1.349 . S
C1149 C1151 1.327 . S
C1149 H1172 0.950 . S
C1150 C1149 1.349 . S
C1150 C1162 1.349 . S
C1151 C1149 1.327 . S
C1151 C1167 1.429 . S
C1151 H1173 0.950 . S
C1152 H1148 0.949 . S
C1152 C1160 1.574 . S
C1152 C1168 1.368 . S
H1153 C1161 0.950 . S
H1154 C1159 0.950 . S
H1155 C1160 0.949 . S
H1156 C1162 0.950 . S
H1157 C1163 0.950 . S
H1158 C1164 0.949 . S
C1159 H1154 0.950 . S
C1159 C1161 1.327 . S
C1159 C1165 1.429 . S
C1160 C1152 1.574 . S
C1160 H1155 0.949 . S
C1160 C1166 1.368 . S
C1161 C1145 1.349 . S
C1161 H1153 0.950 . S
C1161 C1159 1.327 . S
C1162 C1150 1.349 . S
C1162 H1156 0.950 . S
C1162 C1163 1.327 . S
C1163 H1157 0.950 . S
C1163 C1162 1.327 . S
C1163 C1167 1.429 . S
C1164 C1147 1.574 . S
C1164 H1158 0.949 . S
C1164 C1168 1.368 . S
C1165 C1146 1.429 . S
C1165 C1159 1.429 . S
C1165 C1166 1.523 . S
C1166 C1147 1.368 . S
C1166 C1160 1.368 . S
C1166 C1165 1.523 . S
C1167 C1151 1.429 . S
C1167 C1163 1.429 . S
C1167 C1168 1.523 . S
C1168 C1152 1.368 . S
C1168 C1164 1.368 . S
C1168 C1167 1.523 . S
H1169 C1144 0.950 . S
H1170 C1146 0.950 . S
H1171 C1147 0.949 . S
H1172 C1149 0.950 . S
H1173 C1151 0.950 . S
C1174 C1175 1.349 . S
C1174 C1176 1.327 . S
C1174 H1199 0.950 . S
C1175 C1174 1.349 . S
C1175 C1191 1.349 . S
C1176 C1174 1.327 . S
C1176 C1195 1.429 . S
C1176 H1200 0.950 . S
C1177 C1194 1.574 . S
C1177 C1196 1.368 . S
C1177 H1201 0.949 . S
H1178 C1182 0.949 . S
C1179 C1180 1.349 . S
C1179 C1181 1.327 . S
C1179 H1202 0.950 . S
C1180 C1179 1.349 . S
C1180 C1192 1.349 . S
C1181 C1179 1.327 . S
C1181 C1197 1.429 . S
C1181 H1203 0.950 . S
C1182 H1178 0.949 . S
C1182 C1190 1.574 . S
C1182 C1198 1.368 . S
H1183 C1191 0.950 . S
H1184 C1189 0.950 . S
H1185 C1190 0.949 . S
H1186 C1192 0.950 . S
H1187 C1193 0.950 . S
H1188 C1194 0.949 . S
C1189 H1184 0.950 . S
C1189 C1191 1.327 . S
C1189 C1195 1.429 . S
C1190 C1182 1.574 . S
C1190 H1185 0.949 . S
C1190 C1196 1.368 . S
C1191 C1175 1.349 . S
C1191 H1183 0.950 . S
C1191 C1189 1.327 . S
C1192 C1180 1.349 . S
C1192 H1186 0.950 . S
C1192 C1193 1.327 . S
C1193 H1187 0.950 . S
C1193 C1192 1.327 . S
C1193 C1197 1.429 . S
C1194 C1177 1.574 . S
C1194 H1188 0.949 . S
C1194 C1198 1.368 . S
C1195 C1176 1.429 . S
C1195 C1189 1.429 . S
C1195 C1196 1.523 . S
C1196 C1177 1.368 . S
C1196 C1190 1.368 . S
C1196 C1195 1.523 . S
C1197 C1181 1.429 . S
C1197 C1193 1.429 . S
C1197 C1198 1.523 . S
C1198 C1182 1.368 . S
C1198 C1194 1.368 . S
C1198 C1197 1.523 . S
H1199 C1174 0.950 . S
H1200 C1176 0.950 . S
H1201 C1177 0.949 . S
H1202 C1179 0.950 . S
H1203 C1181 0.950 . S
C1204 C1205 1.349 . S
C1204 C1206 1.327 . S
C1204 H1229 0.950 . S
C1205 C1204 1.349 . S
C1205 C1221 1.349 . S
C1206 C1204 1.327 . S
C1206 C1225 1.429 . S
C1206 H1230 0.950 . S
C1207 C1224 1.574 . S
C1207 C1226 1.368 . S
C1207 H1231 0.949 . S
H1208 C1212 0.949 . S
C1209 C1210 1.349 . S
C1209 C1211 1.327 . S
C1209 H1232 0.950 . S
C1210 C1209 1.349 . S
C1210 C1222 1.349 . S
C1211 C1209 1.327 . S
C1211 C1227 1.429 . S
C1211 H1233 0.950 . S
C1212 H1208 0.949 . S
C1212 C1220 1.574 . S
C1212 C1228 1.368 . S
H1213 C1221 0.950 . S
H1214 C1219 0.950 . S
H1215 C1220 0.949 . S
H1216 C1222 0.950 . S
H1217 C1223 0.950 . S
H1218 C1224 0.949 . S
C1219 H1214 0.950 . S
C1219 C1221 1.327 . S
C1219 C1225 1.429 . S
C1220 C1212 1.574 . S
C1220 H1215 0.949 . S
C1220 C1226 1.368 . S
C1221 C1205 1.349 . S
C1221 H1213 0.950 . S
C1221 C1219 1.327 . S
C1222 C1210 1.349 . S
C1222 H1216 0.950 . S
C1222 C1223 1.327 . S
C1223 H1217 0.950 . S
C1223 C1222 1.327 . S
C1223 C1227 1.429 . S
C1224 C1207 1.574 . S
C1224 H1218 0.949 . S
C1224 C1228 1.368 . S
C1225 C1206 1.429 . S
C1225 C1219 1.429 . S
C1225 C1226 1.523 . S
C1226 C1207 1.368 . S
C1226 C1220 1.368 . S
C1226 C1225 1.523 . S
C1227 C1211 1.429 . S
C1227 C1223 1.429 . S
C1227 C1228 1.523 . S
C1228 C1212 1.368 . S
C1228 C1224 1.368 . S
C1228 C1227 1.523 . S
H1229 C1204 0.950 . S
H1230 C1206 0.950 . S
H1231 C1207 0.949 . S
H1232 C1209 0.950 . S
H1233 C1211 0.950 . S
C1234 C1235 1.349 1_655 S
C1234 C1236 1.327 . S
C1234 H1259 0.950 . S
C1235 C1234 1.349 1_455 S
C1235 C1251 1.349 . S
C1236 C1234 1.327 . S
C1236 C1255 1.429 . S
C1236 H1260 0.950 . S
C1237 C1254 1.574 . S
C1237 C1256 1.368 . S
C1237 H1261 0.949 . S
H1238 C1242 0.949 . S
C1239 C1240 1.349 . S
C1239 C1241 1.327 . S
C1239 H1262 0.950 . S
C1240 C1239 1.349 . S
C1240 C1252 1.349 . S
C1241 C1239 1.327 . S
C1241 C1257 1.429 . S
C1241 H1263 0.950 . S
C1242 H1238 0.949 . S
C1242 C1250 1.574 . S
C1242 C1258 1.368 . S
H1243 C1251 0.950 . S
H1244 C1249 0.950 . S
H1245 C1250 0.949 . S
H1246 C1252 0.950 . S
H1247 C1253 0.950 . S
H1248 C1254 0.949 . S
C1249 H1244 0.950 . S
C1249 C1251 1.327 1_655 S
C1249 C1255 1.429 . S
C1250 C1242 1.574 . S
C1250 H1245 0.949 . S
C1250 C1256 1.368 . S
C1251 C1235 1.349 . S
C1251 H1243 0.950 . S
C1251 C1249 1.327 1_455 S
C1252 C1240 1.349 . S
C1252 H1246 0.950 . S
C1252 C1253 1.327 . S
C1253 H1247 0.950 . S
C1253 C1252 1.327 . S
C1253 C1257 1.429 . S
C1254 C1237 1.574 . S
C1254 H1248 0.949 . S
C1254 C1258 1.368 . S
C1255 C1236 1.429 . S
C1255 C1249 1.429 . S
C1255 C1256 1.523 . S
C1256 C1237 1.368 . S
C1256 C1250 1.368 . S
C1256 C1255 1.523 . S
C1257 C1241 1.429 . S
C1257 C1253 1.429 . S
C1257 C1258 1.523 . S
C1258 C1242 1.368 . S
C1258 C1254 1.368 . S
C1258 C1257 1.523 . S
H1259 C1234 0.950 . S
H1260 C1236 0.950 . S
H1261 C1237 0.949 . S
H1262 C1239 0.950 . S
H1263 C1241 0.950 . S
C1264 C1265 1.349 . S
C1264 C1266 1.327 . S
C1264 H1289 0.950 . S
C1265 C1264 1.349 . S
C1265 C1281 1.349 . S
C1266 C1264 1.327 . S
C1266 C1285 1.429 . S
C1266 H1290 0.950 . S
C1267 C1284 1.574 . S
C1267 C1286 1.368 . S
C1267 H1291 0.949 . S
H1268 C1272 0.949 . S
C1269 C1270 1.349 . S
C1269 C1271 1.327 . S
C1269 H1292 0.950 . S
C1270 C1269 1.349 . S
C1270 C1282 1.349 . S
C1271 C1269 1.327 . S
C1271 C1287 1.429 . S
C1271 H1293 0.950 . S
C1272 H1268 0.949 . S
C1272 C1280 1.574 . S
C1272 C1288 1.368 . S
H1273 C1281 0.950 . S
H1274 C1279 0.950 . S
H1275 C1280 0.949 . S
H1276 C1282 0.950 . S
H1277 C1283 0.950 . S
H1278 C1284 0.949 . S
C1279 H1274 0.950 . S
C1279 C1281 1.327 . S
C1279 C1285 1.429 . S
C1280 C1272 1.574 . S
C1280 H1275 0.949 . S
C1280 C1286 1.368 . S
C1281 C1265 1.349 . S
C1281 H1273 0.950 . S
C1281 C1279 1.327 . S
C1282 C1270 1.349 . S
C1282 H1276 0.950 . S
C1282 C1283 1.327 . S
C1283 H1277 0.950 . S
C1283 C1282 1.327 . S
C1283 C1287 1.429 . S
C1284 C1267 1.574 . S
C1284 H1278 0.949 . S
C1284 C1288 1.368 . S
C1285 C1266 1.429 . S
C1285 C1279 1.429 . S
C1285 C1286 1.523 . S
C1286 C1267 1.368 . S
C1286 C1280 1.368 . S
C1286 C1285 1.523 . S
C1287 C1271 1.429 . S
C1287 C1283 1.429 . S
C1287 C1288 1.523 . S
C1288 C1272 1.368 . S
C1288 C1284 1.368 . S
C1288 C1287 1.523 . S
H1289 C1264 0.950 . S
H1290 C1266 0.950 . S
H1291 C1267 0.949 . S
H1292 C1269 0.950 . S
H1293 C1271 0.950 . S
C1294 C1295 1.349 . S
C1294 C1296 1.327 . S
C1294 H1319 0.950 . S
C1295 C1294 1.349 . S
C1295 C1311 1.349 . S
C1296 C1294 1.327 . S
C1296 C1315 1.429 . S
C1296 H1320 0.950 . S
C1297 C1314 1.574 . S
C1297 C1316 1.368 . S
C1297 H1321 0.949 . S
H1298 C1302 0.949 . S
C1299 C1300 1.349 . S
C1299 C1301 1.327 . S
C1299 H1322 0.950 . S
C1300 C1299 1.349 . S
C1300 C1312 1.349 . S
C1301 C1299 1.327 . S
C1301 C1317 1.429 . S
C1301 H1323 0.950 . S
C1302 H1298 0.949 . S
C1302 C1310 1.574 . S
C1302 C1318 1.368 . S
H1303 C1311 0.950 1_655 S
H1304 C1309 0.950 . S
H1305 C1310 0.949 . S
H1306 C1312 0.950 . S
H1307 C1313 0.950 . S
H1308 C1314 0.949 . S
C1309 H1304 0.950 . S
C1309 C1311 1.327 . S
C1309 C1315 1.429 . S
C1310 C1302 1.574 . S
C1310 H1305 0.949 . S
C1310 C1316 1.368 . S
C1311 C1295 1.349 . S
C1311 H1303 0.950 1_455 S
C1311 C1309 1.327 . S
C1312 C1300 1.349 . S
C1312 H1306 0.950 . S
C1312 C1313 1.327 . S
C1313 H1307 0.950 . S
C1313 C1312 1.327 . S
C1313 C1317 1.429 . S
C1314 C1297 1.574 . S
C1314 H1308 0.949 . S
C1314 C1318 1.368 . S
C1315 C1296 1.429 . S
C1315 C1309 1.429 . S
C1315 C1316 1.523 . S
C1316 C1297 1.368 . S
C1316 C1310 1.368 . S
C1316 C1315 1.523 . S
C1317 C1301 1.429 . S
C1317 C1313 1.429 . S
C1317 C1318 1.523 . S
C1318 C1302 1.368 . S
C1318 C1314 1.368 . S
C1318 C1317 1.523 . S
H1319 C1294 0.950 . S
H1320 C1296 0.950 . S
H1321 C1297 0.949 . S
H1322 C1299 0.950 . S
H1323 C1301 0.950 . S
C1324 C1325 1.349 . S
C1324 C1326 1.327 . S
C1324 H1349 0.950 . S
C1325 C1324 1.349 . S
C1325 C1341 1.349 . S
C1326 C1324 1.327 . S
C1326 C1345 1.429 . S
C1326 H1350 0.950 . S
C1327 C1344 1.574 . S
C1327 C1346 1.368 . S
C1327 H1351 0.949 . S
H1328 C1332 0.949 . S
C1329 C1330 1.349 . S
C1329 C1331 1.327 . S
C1329 H1352 0.950 . S
C1330 C1329 1.349 . S
C1330 C1342 1.349 . S
C1331 C1329 1.327 . S
C1331 C1347 1.429 . S
C1331 H1353 0.950 . S
C1332 H1328 0.949 . S
C1332 C1340 1.574 . S
C1332 C1348 1.368 . S
H1333 C1341 0.950 . S
H1334 C1339 0.950 . S
H1335 C1340 0.949 . S
H1336 C1342 0.950 . S
H1337 C1343 0.950 . S
H1338 C1344 0.949 . S
C1339 H1334 0.950 . S
C1339 C1341 1.327 . S
C1339 C1345 1.429 . S
C1340 C1332 1.574 . S
C1340 H1335 0.949 . S
C1340 C1346 1.368 . S
C1341 C1325 1.349 . S
C1341 H1333 0.950 . S
C1341 C1339 1.327 . S
C1342 C1330 1.349 . S
C1342 H1336 0.950 . S
C1342 C1343 1.327 . S
C1343 H1337 0.950 . S
C1343 C1342 1.327 . S
C1343 C1347 1.429 . S
C1344 C1327 1.574 . S
C1344 H1338 0.949 . S
C1344 C1348 1.368 . S
C1345 C1326 1.429 . S
C1345 C1339 1.429 . S
C1345 C1346 1.523 . S
C1346 C1327 1.368 . S
C1346 C1340 1.368 . S
C1346 C1345 1.523 . S
C1347 C1331 1.429 . S
C1347 C1343 1.429 . S
C1347 C1348 1.523 . S
C1348 C1332 1.368 . S
C1348 C1344 1.368 . S
C1348 C1347 1.523 . S
H1349 C1324 0.950 . S
H1350 C1326 0.950 . S
H1351 C1327 0.949 . S
H1352 C1329 0.950 . S
H1353 C1331 0.950 . S
C1354 C1355 1.349 . S
C1354 C1356 1.327 . S
C1354 H1379 0.950 . S
C1355 C1354 1.349 . S
C1355 C1371 1.349 1_554 S
C1356 C1354 1.327 . S
C1356 C1375 1.429 1_554 S
C1356 H1380 0.950 . S
C1357 C1374 1.574 . S
C1357 C1376 1.368 . S
C1357 H1381 0.949 . S
H1358 C1362 0.949 . S
C1359 C1360 1.349 . S
C1359 C1361 1.327 . S
C1359 H1382 0.950 1_655 S
C1360 C1359 1.349 . S
C1360 C1372 1.349 . S
C1361 C1359 1.327 . S
C1361 C1377 1.429 . S
C1361 H1383 0.950 . S
C1362 H1358 0.949 . S
C1362 C1370 1.574 . S
C1362 C1378 1.368 . S
H1363 C1371 0.950 . S
H1364 C1369 0.950 . S
H1365 C1370 0.937 1_554 S
H1366 C1372 0.950 . S
H1367 C1373 0.950 . S
H1368 C1374 0.949 . S
C1369 H1364 0.950 . S
C1369 C1371 1.327 . S
C1369 C1375 1.429 . S
C1370 C1362 1.574 . S
C1370 H1365 0.937 1_556 S
C1370 C1376 1.368 . S
C1371 C1355 1.349 1_556 S
C1371 H1363 0.950 . S
C1371 C1369 1.327 . S
C1372 C1360 1.349 . S
C1372 H1366 0.950 . S
C1372 C1373 1.327 . S
C1373 H1367 0.950 . S
C1373 C1372 1.327 . S
C1373 C1377 1.429 . S
C1374 C1357 1.574 . S
C1374 H1368 0.949 . S
C1374 C1378 1.368 . S
C1375 C1356 1.429 1_556 S
C1375 C1369 1.429 . S
C1375 C1376 1.523 . S
C1376 C1357 1.368 . S
C1376 C1370 1.368 . S
C1376 C1375 1.523 . S
C1377 C1361 1.429 . S
C1377 C1373 1.429 . S
C1377 C1378 1.523 . S
C1378 C1362 1.368 . S
C1378 C1374 1.368 . S
C1378 C1377 1.523 . S
H1379 C1354 0.950 . S
H1380 C1356 0.950 . S
H1381 C1357 0.949 . S
H1382 C1359 0.950 1_455 S
H1383 C1361 0.950 . S
C1384 C1385 1.349 . S
C1384 C1386 1.327 . S
C1384 H1409 0.950 . S
C1385 C1384 1.349 . S
C1385 C1401 1.349 . S
C1386 C1384 1.327 . S
C1386 C1405 1.429 . S
C1386 H1410 0.950 . S
C1387 C1404 1.574 . S
C1387 C1406 1.368 . S
C1387 H1411 0.949 . S
H1388 C1392 0.949 . S
C1389 C1390 1.349 . S
C1389 C1391 1.327 . S
C1389 H1412 0.950 . S
C1390 C1389 1.349 . S
C1390 C1402 1.349 . S
C1391 C1389 1.327 . S
C1391 C1407 1.429 . S
C1391 H1413 0.950 . S
C1392 H1388 0.949 . S
C1392 C1400 1.574 . S
C1392 C1408 1.368 . S
H1393 C1401 0.950 . S
H1394 C1399 0.950 . S
H1395 C1400 0.949 . S
H1396 C1402 0.950 . S
H1397 C1403 0.950 . S
H1398 C1404 0.949 . S
C1399 H1394 0.950 . S
C1399 C1401 1.327 . S
C1399 C1405 1.429 . S
C1400 C1392 1.574 . S
C1400 H1395 0.949 . S
C1400 C1406 1.368 . S
C1401 C1385 1.349 . S
C1401 H1393 0.950 . S
C1401 C1399 1.327 . S
C1402 C1390 1.349 . S
C1402 H1396 0.950 . S
C1402 C1403 1.327 . S
C1403 H1397 0.950 . S
C1403 C1402 1.327 . S
C1403 C1407 1.429 . S
C1404 C1387 1.574 . S
C1404 H1398 0.949 . S
C1404 C1408 1.368 . S
C1405 C1386 1.429 . S
C1405 C1399 1.429 . S
C1405 C1406 1.523 . S
C1406 C1387 1.368 . S
C1406 C1400 1.368 . S
C1406 C1405 1.523 . S
C1407 C1391 1.429 . S
C1407 C1403 1.429 . S
C1407 C1408 1.523 . S
C1408 C1392 1.368 . S
C1408 C1404 1.368 . S
C1408 C1407 1.523 . S
H1409 C1384 0.950 . S
H1410 C1386 0.950 . S
H1411 C1387 0.949 . S
H1412 C1389 0.950 . S
H1413 C1391 0.950 . S
C1414 C1415 1.349 . S
C1414 C1416 1.327 . S
C1414 H1439 0.950 . S
C1415 C1414 1.349 . S
C1415 C1431 1.349 1_554 S
C1416 C1414 1.327 . S
C1416 C1435 1.429 1_554 S
C1416 H1440 0.950 . S
C1417 C1434 1.570 1_455 S
C1417 C1436 1.368 . S
C1417 H1441 0.949 1_455 S
H1418 C1422 0.949 . S
C1419 C1420 1.349 1_655 S
C1419 C1421 1.327 . S
C1419 H1442 0.950 . S
C1420 C1419 1.349 1_455 S
C1420 C1432 1.349 . S
C1421 C1419 1.327 . S
C1421 C1437 1.429 1_655 S
C1421 H1443 0.950 . S
C1422 H1418 0.949 . S
C1422 C1430 1.574 . S
C1422 C1438 1.368 . S
H1423 C1431 0.950 . S
H1424 C1429 0.936 1_655 S
H1425 C1430 0.949 . S
H1426 C1432 0.950 . S
H1427 C1433 0.950 . S
H1428 C1434 0.958 . S
C1429 H1424 0.936 1_455 S
C1429 C1431 1.327 . S
C1429 C1435 1.429 . S
C1430 C1422 1.574 . S
C1430 H1425 0.949 . S
C1430 C1436 1.368 . S
C1431 C1415 1.349 1_556 S
C1431 H1423 0.950 . S
C1431 C1429 1.327 . S
C1432 C1420 1.349 . S
C1432 H1426 0.950 . S
C1432 C1433 1.327 . S
C1433 H1427 0.950 . S
C1433 C1432 1.327 . S
C1433 C1437 1.429 . S
C1434 C1417 1.570 1_655 S
C1434 H1428 0.958 . S
C1434 C1438 1.362 1_655 S
C1435 C1416 1.429 1_556 S
C1435 C1429 1.429 . S
C1435 C1436 1.523 . S
C1436 C1417 1.368 . S
C1436 C1430 1.368 . S
C1436 C1435 1.523 . S
C1437 C1421 1.429 1_455 S
C1437 C1433 1.429 . S
C1437 C1438 1.523 . S
C1438 C1422 1.368 . S
C1438 C1434 1.362 1_455 S
C1438 C1437 1.523 . S
H1439 C1414 0.950 . S
H1440 C1416 0.950 . S
H1441 C1417 0.949 1_655 S
H1442 C1419 0.950 . S
H1443 C1421 0.950 . S
C1444 C1445 1.349 . S
C1444 C1446 1.327 . S
C1444 H1469 0.950 . S
C1445 C1444 1.349 . S
C1445 C1461 1.349 . S
C1446 C1444 1.327 . S
C1446 C1465 1.429 . S
C1446 H1470 0.950 . S
C1447 C1464 1.574 . S
C1447 C1466 1.368 . S
C1447 H1471 0.949 . S
H1448 C1452 0.949 . S
C1449 C1450 1.349 . S
C1449 C1451 1.327 . S
C1449 H1472 0.950 . S
C1450 C1449 1.349 . S
C1450 C1462 1.349 . S
C1451 C1449 1.327 . S
C1451 C1467 1.429 . S
C1451 H1473 0.950 . S
C1452 H1448 0.949 . S
C1452 C1460 1.574 . S
C1452 C1468 1.368 . S
H1453 C1461 0.950 . S
H1454 C1459 0.950 . S
H1455 C1460 0.949 . S
H1456 C1462 0.950 . S
H1457 C1463 0.950 . S
H1458 C1464 0.949 . S
C1459 H1454 0.950 . S
C1459 C1461 1.327 . S
C1459 C1465 1.429 . S
C1460 C1452 1.574 . S
C1460 H1455 0.949 . S
C1460 C1466 1.368 . S
C1461 C1445 1.349 . S
C1461 H1453 0.950 . S
C1461 C1459 1.327 . S
C1462 C1450 1.349 . S
C1462 H1456 0.950 . S
C1462 C1463 1.327 . S
C1463 H1457 0.950 . S
C1463 C1462 1.327 . S
C1463 C1467 1.429 . S
C1464 C1447 1.574 . S
C1464 H1458 0.949 . S
C1464 C1468 1.368 . S
C1465 C1446 1.429 . S
C1465 C1459 1.429 . S
C1465 C1466 1.523 . S
C1466 C1447 1.368 . S
C1466 C1460 1.368 . S
C1466 C1465 1.523 . S
C1467 C1451 1.429 . S
C1467 C1463 1.429 . S
C1467 C1468 1.523 . S
C1468 C1452 1.368 . S
C1468 C1464 1.368 . S
C1468 C1467 1.523 . S
H1469 C1444 0.950 . S
H1470 C1446 0.950 . S
H1471 C1447 0.949 . S
H1472 C1449 0.950 . S
H1473 C1451 0.950 . S
C1474 C1475 1.349 . S
C1474 C1476 1.327 1_556 S
C1474 H1499 0.950 . S
C1475 C1474 1.349 . S
C1475 C1491 1.349 . S
C1476 C1474 1.327 1_554 S
C1476 C1495 1.429 . S
C1476 H1500 0.950 . S
C1477 C1494 1.574 . S
C1477 C1496 1.368 . S
C1477 H1501 0.949 . S
H1478 C1482 0.949 . S
C1479 C1480 1.349 . S
C1479 C1481 1.327 . S
C1479 H1502 0.950 . S
C1480 C1479 1.349 . S
C1480 C1492 1.349 . S
C1481 C1479 1.327 . S
C1481 C1497 1.429 . S
C1481 H1503 0.950 . S
C1482 H1478 0.949 . S
C1482 C1490 1.574 . S
C1482 C1498 1.368 . S
H1483 C1491 0.950 . S
H1484 C1489 0.950 . S
H1485 C1490 0.949 . S
H1486 C1492 0.950 . S
H1487 C1493 0.950 . S
H1488 C1494 0.949 . S
C1489 H1484 0.950 . S
C1489 C1491 1.327 1_554 S
C1489 C1495 1.429 . S
C1490 C1482 1.574 . S
C1490 H1485 0.949 . S
C1490 C1496 1.368 . S
C1491 C1475 1.349 . S
C1491 H1483 0.950 . S
C1491 C1489 1.327 1_556 S
C1492 C1480 1.349 . S
C1492 H1486 0.950 . S
C1492 C1493 1.327 . S
C1493 H1487 0.950 . S
C1493 C1492 1.327 . S
C1493 C1497 1.429 . S
C1494 C1477 1.574 . S
C1494 H1488 0.949 . S
C1494 C1498 1.368 . S
C1495 C1476 1.429 . S
C1495 C1489 1.429 . S
C1495 C1496 1.523 . S
C1496 C1477 1.368 . S
C1496 C1490 1.368 . S
C1496 C1495 1.523 . S
C1497 C1481 1.429 . S
C1497 C1493 1.429 . S
C1497 C1498 1.523 . S
C1498 C1482 1.368 . S
C1498 C1494 1.368 . S
C1498 C1497 1.523 . S
H1499 C1474 0.950 . S
H1500 C1476 0.950 . S
H1501 C1477 0.949 . S
H1502 C1479 0.950 . S
H1503 C1481 0.950 . S
C1504 C1505 1.349 . S
C1504 C1506 1.327 . S
C1504 H1529 0.950 . S
C1505 C1504 1.349 . S
C1505 C1521 1.349 . S
C1506 C1504 1.327 . S
C1506 C1525 1.429 . S
C1506 H1530 0.950 . S
C1507 C1524 1.574 . S
C1507 C1526 1.368 . S
C1507 H1531 0.949 . S
H1508 C1512 0.949 . S
C1509 C1510 1.349 . S
C1509 C1511 1.327 . S
C1509 H1532 0.950 . S
C1510 C1509 1.349 . S
C1510 C1522 1.349 . S
C1511 C1509 1.327 . S
C1511 C1527 1.429 . S
C1511 H1533 0.950 . S
C1512 H1508 0.949 . S
C1512 C1520 1.574 . S
C1512 C1528 1.368 . S
H1513 C1521 0.950 . S
H1514 C1519 0.950 . S
H1515 C1520 0.949 . S
H1516 C1522 0.950 . S
H1517 C1523 0.950 . S
H1518 C1524 0.949 . S
C1519 H1514 0.950 . S
C1519 C1521 1.327 . S
C1519 C1525 1.429 . S
C1520 C1512 1.574 . S
C1520 H1515 0.949 . S
C1520 C1526 1.368 . S
C1521 C1505 1.349 . S
C1521 H1513 0.950 . S
C1521 C1519 1.327 . S
C1522 C1510 1.349 . S
C1522 H1516 0.950 . S
C1522 C1523 1.327 . S
C1523 H1517 0.950 . S
C1523 C1522 1.327 . S
C1523 C1527 1.429 . S
C1524 C1507 1.574 . S
C1524 H1518 0.949 . S
C1524 C1528 1.368 . S
C1525 C1506 1.429 . S
C1525 C1519 1.429 . S
C1525 C1526 1.523 . S
C1526 C1507 1.368 . S
C1526 C1520 1.368 . S
C1526 C1525 1.523 . S
C1527 C1511 1.429 . S
C1527 C1523 1.429 . S
C1527 C1528 1.523 . S
C1528 C1512 1.368 . S
C1528 C1524 1.368 . S
C1528 C1527 1.523 . S
H1529 C1504 0.950 . S
H1530 C1506 0.950 . S
H1531 C1507 0.949 . S
H1532 C1509 0.950 . S
H1533 C1511 0.950 . S
C1534 C1535 1.349 . S
C1534 C1536 1.327 . S
C1534 H1559 0.950 1_554 S
C1535 C1534 1.349 . S
C1535 C1551 1.349 . S
C1536 C1534 1.327 . S
C1536 C1555 1.429 . S
C1536 H1560 0.950 . S
C1537 C1554 1.574 . S
C1537 C1556 1.368 . S
C1537 H1561 0.949 . S
H1538 C1542 0.949 . S
C1539 C1540 1.349 . S
C1539 C1541 1.327 . S
C1539 H1562 0.950 . S
C1540 C1539 1.349 . S
C1540 C1552 1.349 . S
C1541 C1539 1.327 . S
C1541 C1557 1.429 . S
C1541 H1563 0.950 . S
C1542 H1538 0.949 . S
C1542 C1550 1.574 . S
C1542 C1558 1.368 . S
H1543 C1551 0.950 . S
H1544 C1549 0.950 . S
H1545 C1550 0.949 . S
H1546 C1552 0.950 . S
H1547 C1553 0.950 . S
H1548 C1554 0.949 . S
C1549 H1544 0.950 . S
C1549 C1551 1.327 . S
C1549 C1555 1.429 . S
C1550 C1542 1.574 . S
C1550 H1545 0.949 . S
C1550 C1556 1.368 . S
C1551 C1535 1.349 . S
C1551 H1543 0.950 . S
C1551 C1549 1.327 . S
C1552 C1540 1.349 . S
C1552 H1546 0.950 . S
C1552 C1553 1.327 . S
C1553 H1547 0.950 . S
C1553 C1552 1.327 . S
C1553 C1557 1.429 . S
C1554 C1537 1.574 . S
C1554 H1548 0.949 . S
C1554 C1558 1.368 . S
C1555 C1536 1.429 . S
C1555 C1549 1.429 . S
C1555 C1556 1.523 . S
C1556 C1537 1.368 . S
C1556 C1550 1.368 . S
C1556 C1555 1.523 . S
C1557 C1541 1.429 . S
C1557 C1553 1.429 . S
C1557 C1558 1.523 . S
C1558 C1542 1.368 . S
C1558 C1554 1.368 . S
C1558 C1557 1.523 . S
H1559 C1534 0.950 1_556 S
H1560 C1536 0.950 . S
H1561 C1537 0.949 . S
H1562 C1539 0.950 . S
H1563 C1541 0.950 . S
C1564 C1565 1.349 . S
C1564 C1566 1.327 . S
C1564 H1589 0.950 . S
C1565 C1564 1.349 . S
C1565 C1581 1.349 . S
C1566 C1564 1.327 . S
C1566 C1585 1.429 . S
C1566 H1590 0.950 . S
C1567 C1584 1.574 . S
C1567 C1586 1.368 . S
C1567 H1591 0.949 . S
H1568 C1572 0.949 . S
C1569 C1570 1.349 . S
C1569 C1571 1.327 . S
C1569 H1592 0.950 . S
C1570 C1569 1.349 . S
C1570 C1582 1.349 . S
C1571 C1569 1.327 . S
C1571 C1587 1.429 . S
C1571 H1593 0.950 . S
C1572 H1568 0.949 . S
C1572 C1580 1.574 . S
C1572 C1588 1.368 . S
H1573 C1581 0.950 . S
H1574 C1579 0.950 . S
H1575 C1580 0.949 . S
H1576 C1582 0.950 . S
H1577 C1583 0.950 . S
H1578 C1584 0.949 . S
C1579 H1574 0.950 . S
C1579 C1581 1.327 . S
C1579 C1585 1.429 . S
C1580 C1572 1.574 . S
C1580 H1575 0.949 . S
C1580 C1586 1.368 . S
C1581 C1565 1.349 . S
C1581 H1573 0.950 . S
C1581 C1579 1.327 . S
C1582 C1570 1.349 . S
C1582 H1576 0.950 . S
C1582 C1583 1.327 . S
C1583 H1577 0.950 . S
C1583 C1582 1.327 . S
C1583 C1587 1.429 . S
C1584 C1567 1.574 . S
C1584 H1578 0.949 . S
C1584 C1588 1.368 . S
C1585 C1566 1.429 . S
C1585 C1579 1.429 . S
C1585 C1586 1.523 . S
C1586 C1567 1.368 . S
C1586 C1580 1.368 . S
C1586 C1585 1.523 . S
C1587 C1571 1.429 . S
C1587 C1583 1.429 . S
C1587 C1588 1.523 . S
C1588 C1572 1.368 . S
C1588 C1584 1.368 . S
C1588 C1587 1.523 . S
H1589 C1564 0.950 . S
H1590 C1566 0.950 . S
H1591 C1567 0.949 . S
H1592 C1569 0.950 . S
H1593 C1571 0.950 . S
C1594 C1595 1.349 . S
C1594 C1596 1.327 . S
C1594 H1619 0.950 . S
C1595 C1594 1.349 . S
C1595 C1611 1.349 . S
C1596 C1594 1.327 . S
C1596 C1615 1.429 . S
C1596 H1620 0.950 . S
C1597 C1614 1.574 . S
C1597 C1616 1.368 . S
C1597 H1621 0.949 . S
H1598 C1602 0.949 . S
C1599 C1600 1.349 . S
C1599 C1601 1.327 . S
C1599 H1622 0.950 . S
C1600 C1599 1.349 . S
C1600 C1612 1.349 . S
C1601 C1599 1.327 . S
C1601 C1617 1.429 . S
C1601 H1623 0.950 . S
C1602 H1598 0.949 . S
C1602 C1610 1.574 . S
C1602 C1618 1.368 . S
H1603 C1611 0.950 . S
H1604 C1609 0.950 . S
H1605 C1610 0.949 . S
H1606 C1612 0.950 . S
H1607 C1613 0.950 . S
H1608 C1614 0.949 . S
C1609 H1604 0.950 . S
C1609 C1611 1.327 . S
C1609 C1615 1.429 . S
C1610 C1602 1.574 . S
C1610 H1605 0.949 . S
C1610 C1616 1.368 . S
C1611 C1595 1.349 . S
C1611 H1603 0.950 . S
C1611 C1609 1.327 . S
C1612 C1600 1.349 . S
C1612 H1606 0.950 . S
C1612 C1613 1.327 . S
C1613 H1607 0.950 . S
C1613 C1612 1.327 . S
C1613 C1617 1.429 . S
C1614 C1597 1.574 . S
C1614 H1608 0.949 . S
C1614 C1618 1.368 . S
C1615 C1596 1.429 . S
C1615 C1609 1.429 . S
C1615 C1616 1.523 . S
C1616 C1597 1.368 . S
C1616 C1610 1.368 . S
C1616 C1615 1.523 . S
C1617 C1601 1.429 . S
C1617 C1613 1.429 . S
C1617 C1618 1.523 . S
C1618 C1602 1.368 . S
C1618 C1614 1.368 . S
C1618 C1617 1.523 . S
H1619 C1594 0.950 . S
H1620 C1596 0.950 . S
H1621 C1597 0.949 . S
H1622 C1599 0.950 . S
H1623 C1601 0.950 . S
C1624 C1625 1.349 . S
C1624 C1626 1.327 . S
C1624 H1649 0.950 . S
C1625 C1624 1.349 . S
C1625 C1641 1.349 . S
C1626 C1624 1.327 . S
C1626 C1645 1.429 . S
C1626 H1650 0.950 . S
C1627 C1644 1.574 . S
C1627 C1646 1.368 . S
C1627 H1651 0.949 . S
H1628 C1632 0.949 . S
C1629 C1630 1.349 . S
C1629 C1631 1.327 . S
C1629 H1652 0.950 . S
C1630 C1629 1.349 . S
C1630 C1642 1.349 . S
C1631 C1629 1.327 . S
C1631 C1647 1.429 . S
C1631 H1653 0.950 . S
C1632 H1628 0.949 . S
C1632 C1640 1.574 . S
C1632 C1648 1.368 . S
H1633 C1641 0.950 . S
H1634 C1639 0.950 . S
H1635 C1640 0.949 . S
H1636 C1642 0.950 . S
H1637 C1643 0.950 . S
H1638 C1644 0.949 . S
C1639 H1634 0.950 . S
C1639 C1641 1.327 . S
C1639 C1645 1.429 . S
C1640 C1632 1.574 . S
C1640 H1635 0.949 . S
C1640 C1646 1.368 . S
C1641 C1625 1.349 . S
C1641 H1633 0.950 . S
C1641 C1639 1.327 . S
C1642 C1630 1.349 . S
C1642 H1636 0.950 . S
C1642 C1643 1.327 . S
C1643 H1637 0.950 . S
C1643 C1642 1.327 . S
C1643 C1647 1.429 . S
C1644 C1627 1.574 . S
C1644 H1638 0.949 . S
C1644 C1648 1.368 . S
C1645 C1626 1.429 . S
C1645 C1639 1.429 . S
C1645 C1646 1.523 . S
C1646 C1627 1.368 . S
C1646 C1640 1.368 . S
C1646 C1645 1.523 . S
C1647 C1631 1.429 . S
C1647 C1643 1.429 . S
C1647 C1648 1.523 . S
C1648 C1632 1.368 . S
C1648 C1644 1.368 . S
C1648 C1647 1.523 . S
H1649 C1624 0.950 . S
H1650 C1626 0.950 . S
H1651 C1627 0.949 . S
H1652 C1629 0.950 . S
H1653 C1631 0.950 . S
C1654 C1655 1.349 . S
C1654 C1656 1.327 . S
C1654 H1679 0.950 . S
C1655 C1654 1.349 . S
C1655 C1671 1.349 . S
C1656 C1654 1.327 . S
C1656 C1675 1.429 . S
C1656 H1680 0.950 . S
C1657 C1674 1.574 . S
C1657 C1676 1.368 . S
C1657 H1681 0.949 . S
H1658 C1662 0.949 . S
C1659 C1660 1.349 . S
C1659 C1661 1.327 . S
C1659 H1682 0.950 . S
C1660 C1659 1.349 . S
C1660 C1672 1.349 . S
C1661 C1659 1.327 . S
C1661 C1677 1.429 . S
C1661 H1683 0.950 . S
C1662 H1658 0.949 . S
C1662 C1670 1.574 . S
C1662 C1678 1.368 . S
H1663 C1671 0.950 . S
H1664 C1669 0.950 . S
H1665 C1670 0.949 . S
H1666 C1672 0.950 . S
H1667 C1673 0.950 . S
H1668 C1674 0.949 . S
C1669 H1664 0.950 . S
C1669 C1671 1.327 . S
C1669 C1675 1.429 . S
C1670 C1662 1.574 . S
C1670 H1665 0.949 . S
C1670 C1676 1.368 . S
C1671 C1655 1.349 . S
C1671 H1663 0.950 . S
C1671 C1669 1.327 . S
C1672 C1660 1.349 . S
C1672 H1666 0.950 . S
C1672 C1673 1.327 . S
C1673 H1667 0.950 . S
C1673 C1672 1.327 . S
C1673 C1677 1.429 . S
C1674 C1657 1.574 . S
C1674 H1668 0.949 . S
C1674 C1678 1.368 . S
C1675 C1656 1.429 . S
C1675 C1669 1.429 . S
C1675 C1676 1.523 . S
C1676 C1657 1.368 . S
C1676 C1670 1.368 . S
C1676 C1675 1.523 . S
C1677 C1661 1.429 . S
C1677 C1673 1.429 . S
C1677 C1678 1.523 . S
C1678 C1662 1.368 . S
C1678 C1674 1.368 . S
C1678 C1677 1.523 . S
H1679 C1654 0.950 . S
H1680 C1656 0.950 . S
H1681 C1657 0.949 . S
H1682 C1659 0.950 . S
H1683 C1661 0.950 . S
C1684 C1685 1.349 . S
C1684 C1686 1.327 . S
C1684 H1709 0.950 . S
C1685 C1684 1.349 . S
C1685 C1701 1.349 . S
C1686 C1684 1.327 . S
C1686 C1705 1.429 . S
C1686 H1710 0.950 1_556 S
C1687 C1704 1.574 . S
C1687 C1706 1.368 . S
C1687 H1711 0.949 . S
H1688 C1692 0.949 . S
C1689 C1690 1.348 . S
C1689 C1691 1.327 1_554 S
C1689 H1712 0.950 1_554 S
C1690 C1689 1.348 . S
C1690 C1702 1.349 . S
C1691 C1689 1.327 1_556 S
C1691 C1707 1.429 1_556 S
C1691 H1713 0.950 . S
C1692 H1688 0.949 . S
C1692 C1700 1.574 . S
C1692 C1708 1.384 . S
H1693 C1701 0.950 . S
H1694 C1699 0.950 . S
H1695 C1700 0.949 . S
H1696 C1702 0.950 . S
H1697 C1703 0.950 . S
H1698 C1704 0.949 . S
C1699 H1694 0.950 . S
C1699 C1701 1.327 . S
C1699 C1705 1.429 . S
C1700 C1692 1.574 . S
C1700 H1695 0.949 . S
C1700 C1706 1.368 1_554 S
C1701 C1685 1.349 . S
C1701 H1693 0.950 . S
C1701 C1699 1.327 . S
C1702 C1690 1.349 . S
C1702 H1696 0.950 . S
C1702 C1703 1.327 . S
C1703 H1697 0.950 . S
C1703 C1702 1.327 . S
C1703 C1707 1.429 . S
C1704 C1687 1.574 . S
C1704 H1698 0.949 . S
C1704 C1708 1.348 1_556 S
C1705 C1686 1.429 . S
C1705 C1699 1.429 . S
C1705 C1706 1.523 . S
C1706 C1687 1.368 . S
C1706 C1700 1.368 1_556 S
C1706 C1705 1.523 . S
C1707 C1691 1.429 1_554 S
C1707 C1703 1.429 . S
C1707 C1708 1.529 . S
C1708 C1692 1.384 . S
C1708 C1704 1.348 1_554 S
C1708 C1707 1.529 . S
H1709 C1684 0.950 . S
H1710 C1686 0.950 1_554 S
H1711 C1687 0.949 . S
H1712 C1689 0.950 1_556 S
H1713 C1691 0.950 . S
C1714 C1715 1.349 . S
C1714 C1716 1.327 . S
C1714 H1739 0.950 . S
C1715 C1714 1.349 . S
C1715 C1731 1.349 . S
C1716 C1714 1.327 . S
C1716 C1735 1.429 . S
C1716 H1740 0.950 . S
C1717 C1734 1.574 . S
C1717 C1736 1.368 . S
C1717 H1741 0.949 . S
H1718 C1722 0.949 . S
C1719 C1720 1.349 . S
C1719 C1721 1.327 . S
C1719 H1742 0.950 . S
C1720 C1719 1.349 . S
C1720 C1732 1.349 . S
C1721 C1719 1.327 . S
C1721 C1737 1.429 . S
C1721 H1743 0.950 . S
C1722 H1718 0.949 . S
C1722 C1730 1.574 . S
C1722 C1738 1.368 . S
H1723 C1731 0.950 . S
H1724 C1729 0.950 . S
H1725 C1730 0.949 . S
H1726 C1732 0.950 . S
H1727 C1733 0.950 . S
H1728 C1734 0.949 . S
C1729 H1724 0.950 . S
C1729 C1731 1.327 . S
C1729 C1735 1.429 . S
C1730 C1722 1.574 . S
C1730 H1725 0.949 . S
C1730 C1736 1.368 . S
C1731 C1715 1.349 . S
C1731 H1723 0.950 . S
C1731 C1729 1.327 . S
C1732 C1720 1.349 . S
C1732 H1726 0.950 . S
C1732 C1733 1.327 . S
C1733 H1727 0.950 . S
C1733 C1732 1.327 . S
C1733 C1737 1.429 . S
C1734 C1717 1.574 . S
C1734 H1728 0.949 . S
C1734 C1738 1.368 . S
C1735 C1716 1.429 . S
C1735 C1729 1.429 . S
C1735 C1736 1.523 . S
C1736 C1717 1.368 . S
C1736 C1730 1.368 . S
C1736 C1735 1.523 . S
C1737 C1721 1.429 . S
C1737 C1733 1.429 . S
C1737 C1738 1.523 . S
C1738 C1722 1.368 . S
C1738 C1734 1.368 . S
C1738 C1737 1.523 . S
H1739 C1714 0.950 . S
H1740 C1716 0.950 . S
H1741 C1717 0.949 . S
H1742 C1719 0.950 . S
H1743 C1721 0.950 . S
C1744 C1745 1.349 . S
C1744 C1746 1.327 . S
C1744 H1769 0.950 . S
C1745 C1744 1.349 . S
C1745 C1761 1.349 . S
C1746 C1744 1.327 . S
C1746 C1765 1.429 . S
C1746 H1770 0.950 . S
C1747 C1764 1.574 . S
C1747 C1766 1.368 . S
C1747 H1771 0.949 . S
H1748 C1752 0.949 . S
C1749 C1750 1.349 . S
C1749 C1751 1.327 . S
C1749 H1772 0.950 . S
C1750 C1749 1.349 . S
C1750 C1762 1.349 . S
C1751 C1749 1.327 . S
C1751 C1767 1.429 . S
C1751 H1773 0.950 . S
C1752 H1748 0.949 . S
C1752 C1760 1.574 . S
C1752 C1768 1.368 . S
H1753 C1761 0.950 . S
H1754 C1759 0.950 . S
H1755 C1760 0.949 . S
H1756 C1762 0.950 . S
H1757 C1763 0.950 . S
H1758 C1764 0.949 . S
C1759 H1754 0.950 . S
C1759 C1761 1.327 . S
C1759 C1765 1.429 . S
C1760 C1752 1.574 . S
C1760 H1755 0.949 . S
C1760 C1766 1.368 . S
C1761 C1745 1.349 . S
C1761 H1753 0.950 . S
C1761 C1759 1.327 . S
C1762 C1750 1.349 . S
C1762 H1756 0.950 . S
C1762 C1763 1.327 . S
C1763 H1757 0.950 . S
C1763 C1762 1.327 . S
C1763 C1767 1.429 . S
C1764 C1747 1.574 . S
C1764 H1758 0.949 . S
C1764 C1768 1.368 . S
C1765 C1746 1.429 . S
C1765 C1759 1.429 . S
C1765 C1766 1.523 . S
C1766 C1747 1.368 . S
C1766 C1760 1.368 . S
C1766 C1765 1.523 . S
C1767 C1751 1.429 . S
C1767 C1763 1.429 . S
C1767 C1768 1.523 . S
C1768 C1752 1.368 . S
C1768 C1764 1.368 . S
C1768 C1767 1.523 . S
H1769 C1744 0.950 . S
H1770 C1746 0.950 . S
H1771 C1747 0.949 . S
H1772 C1749 0.950 . S
H1773 C1751 0.950 . S
C1774 C1775 1.352 . S
C1774 C1776 1.322 1_545 S
C1774 H1799 0.951 . S
C1775 C1774 1.352 . S
C1775 C1791 1.349 . S
C1776 C1774 1.322 1_565 S
C1776 C1795 1.429 . S
C1776 H1800 0.950 . S
C1777 C1794 1.561 1_554 S
C1777 C1796 1.431 . S
C1777 H1801 0.907 1_554 S
H1778 C1782 0.949 . S
C1779 C1780 1.349 1_556 S
C1779 C1781 1.327 . S
C1779 H1802 0.950 . S
C1780 C1779 1.349 1_554 S
C1780 C1792 1.349 . S
C1781 C1779 1.327 . S
C1781 C1797 1.429 1_556 S
C1781 H1803 0.950 . S
C1782 H1778 0.949 . S
C1782 C1790 1.574 . S
C1782 C1798 1.368 . S
H1783 C1791 0.950 . S
H1784 C1789 0.950 1_556 S
H1785 C1790 0.949 . S
H1786 C1792 0.950 . S
H1787 C1793 0.950 . S
H1788 C1794 0.949 . S
C1789 H1784 0.950 1_554 S
C1789 C1791 1.327 1_565 S
C1789 C1795 1.429 . S
C1790 C1782 1.574 . S
C1790 H1785 0.949 . S
C1790 C1796 1.368 . S
C1791 C1775 1.349 . S
C1791 H1783 0.950 . S
C1791 C1789 1.327 1_545 S
C1792 C1780 1.349 . S
C1792 H1786 0.950 . S
C1792 C1793 1.327 . S
C1793 H1787 0.950 . S
C1793 C1792 1.327 . S
C1793 C1797 1.429 . S
C1794 C1777 1.561 1_556 S
C1794 H1788 0.949 . S
C1794 C1798 1.368 1_556 S
C1795 C1776 1.429 . S
C1795 C1789 1.429 . S
C1795 C1796 1.523 . S
C1796 C1777 1.431 . S
C1796 C1790 1.368 . S
C1796 C1795 1.523 . S
C1797 C1781 1.429 1_554 S
C1797 C1793 1.429 . S
C1797 C1798 1.523 . S
C1798 C1782 1.368 . S
C1798 C1794 1.368 1_554 S
C1798 C1797 1.523 . S
H1799 C1774 0.951 . S
H1800 C1776 0.950 . S
H1801 C1777 0.907 1_556 S
H1802 C1779 0.950 . S
H1803 C1781 0.950 . S
C370 C218 1.693 . S
C365 C73 1.715 . S
C400 C231 1.325 . S
C395 C82 1.289 . S
C425 C100 1.870 . S
C430 C244 1.845 1_556 S
C460 C257 1.317 . S
C455 C56 1.292 . S
C490 C265 1.303 . S
C485 C134 1.321 . S
C520 C278 1.640 . S
C515 C165 1.665 . S
C545 C147 1.130 . S
C550 C291 1.146 . S
C580 C304 1.861 . S
C575 C125 1.889 . S
C605 C151 1.288 . S
C610 C322 1.285 . S
C640 C333 1.456 . S
C635 C121 1.430 . S
C665 C139 1.766 . S
C670 C317 1.745 . S
C700 C325 1.225 . S
C695 C164 1.243 . S
C725 C95 1.294 . S
C730 C348 1.347 . S
C755 C61 1.490 . S
C760 C338 1.476 . S
C785 C74 1.407 . S
C790 C343 1.384 . S
C815 C86 1.860 . S
C820 C346 1.819 . S
C845 C47 1.304 . S
C850 C255 1.277 . S
C875 C186 1.163 . S
C880 C247 1.182 . S
C910 C216 1.523 . S
C905 C204 1.567 . S
C940 C221 1.952 . S
C935 C112 1.967 . S
C965 C60 1.405 1_545 S
C970 C268 1.380 . S
C1000 C307 1.404 . S
C995 C152 1.431 . S
C1030 C260 1.925 . S
C1025 C126 1.967 . S
C1060 C286 1.182 . S
C1055 C160 1.180 . S
C1090 C296 1.693 . S
C1085 C190 1.715 . S
C1115 C199 1.289 . S
C1120 C309 1.326 . S
C1145 C113 1.870 . S
C1150 C270 1.845 . S
C1180 C283 1.317 . S
C1175 C173 1.292 . S
C1205 C43 1.321 . S
C1210 C239 1.303 . S
C1240 C252 1.640 . S
C1235 C9 1.665 . S
C1270 C213 1.146 . S
C1265 C17 1.130 . S
C1300 C226 1.861 . S
C1295 C34 1.889 1_455 S
C1325 C21 1.288 . S
C1330 C335 1.283 . S
C1355 C30 1.430 . S
C1360 C320 1.458 1_655 S
C1385 C48 1.766 . S
C1390 C330 1.749 . S
C1415 C8 1.243 . S
C1420 C312 1.223 1_455 S
C1450 C361 1.347 . S
C1445 C108 1.294 . S
C1480 C351 1.476 . S
C1475 C178 1.490 . S
C1510 C356 1.384 . S
C1505 C191 1.407 . S
C1535 C203 1.860 1_554 S
C1540 C359 1.819 . S
C1565 C138 1.304 . S
C1570 C281 1.276 . S
C1600 C273 1.183 . S
C1595 C69 1.163 . S
C1630 C294 1.519 . S
C1625 C87 1.567 . S
C1660 C299 1.952 . S
C1655 C99 1.967 . S
C1685 C177 1.405 . S
C1690 C242 1.380 . S
C1720 C229 1.404 . S
C1715 C22 1.431 . S
C1745 C35 1.967 . S
C1750 C234 1.925 . S
C1780 C208 1.172 1_554 S
C1775 C4 1.179 . S
