# Generated by pormake.
# Topology zzz, (3,6)-cn, num edge types: 1
# Building blocks:
#     Node 0, Type 0, BuildingBlock: ESEHIV_clean_linker_0, # of connection points: 3
#     Node 1, Type 0, BuildingBlock: ESEHIV_clean_linker_0, # of connection points: 3
#     Node 2, Type 0, BuildingBlock: ESEHIV_clean_linker_0, # of connection points: 3
#     Node 3, Type 0, BuildingBlock: ESEHIV_clean_linker_0, # of connection points: 3
#     Node 4, Type 0, BuildingBlock: ESEHIV_clean_linker_0, # of connection points: 3
#     Node 5, Type 0, BuildingBlock: ESEHIV_clean_linker_0, # of connection points: 3
#     Node 6, Type 0, BuildingBlock: ESEHIV_clean_linker_0, # of connection points: 3
#     Node 7, Type 0, BuildingBlock: ESEHIV_clean_linker_0, # of connection points: 3
#     Node 8, Type 1, BuildingBlock: KUMJIN_clean_sbu_0, # of connection points: 6
#     Node 9, Type 1, BuildingBlock: KUMJIN_clean_sbu_0, # of connection points: 6
#     Node 10, Type 1, BuildingBlock: KUMJIN_clean_sbu_0, # of connection points: 6
#     Node 11, Type 1, BuildingBlock: KUMJIN_clean_sbu_0, # of connection points: 6
#     Edge 12, Type (0, 1), BuildingBlock: KIFKEQ_clean_linker_1, # of connection points: 2
#     Edge 13, Type (0, 1), BuildingBlock: KIFKEQ_clean_linker_1, # of connection points: 2
#     Edge 14, Type (0, 1), BuildingBlock: KIFKEQ_clean_linker_1, # of connection points: 2
#     Edge 15, Type (0, 1), BuildingBlock: KIFKEQ_clean_linker_1, # of connection points: 2
#     Edge 16, Type (0, 1), BuildingBlock: KIFKEQ_clean_linker_1, # of connection points: 2
#     Edge 17, Type (0, 1), BuildingBlock: KIFKEQ_clean_linker_1, # of connection points: 2
#     Edge 18, Type (0, 1), BuildingBlock: KIFKEQ_clean_linker_1, # of connection points: 2
#     Edge 19, Type (0, 1), BuildingBlock: KIFKEQ_clean_linker_1, # of connection points: 2
#     Edge 20, Type (0, 1), BuildingBlock: KIFKEQ_clean_linker_1, # of connection points: 2
#     Edge 21, Type (0, 1), BuildingBlock: KIFKEQ_clean_linker_1, # of connection points: 2
#     Edge 22, Type (0, 1), BuildingBlock: KIFKEQ_clean_linker_1, # of connection points: 2
#     Edge 23, Type (0, 1), BuildingBlock: KIFKEQ_clean_linker_1, # of connection points: 2
#     Edge 24, Type (0, 1), BuildingBlock: KIFKEQ_clean_linker_1, # of connection points: 2
#     Edge 25, Type (0, 1), BuildingBlock: KIFKEQ_clean_linker_1, # of connection points: 2
#     Edge 26, Type (0, 1), BuildingBlock: KIFKEQ_clean_linker_1, # of connection points: 2
#     Edge 27, Type (0, 1), BuildingBlock: KIFKEQ_clean_linker_1, # of connection points: 2
#     Edge 28, Type (0, 1), BuildingBlock: KIFKEQ_clean_linker_1, # of connection points: 2
#     Edge 29, Type (0, 1), BuildingBlock: KIFKEQ_clean_linker_1, # of connection points: 2
#     Edge 30, Type (0, 1), BuildingBlock: KIFKEQ_clean_linker_1, # of connection points: 2
#     Edge 31, Type (0, 1), BuildingBlock: KIFKEQ_clean_linker_1, # of connection points: 2
#     Edge 32, Type (0, 1), BuildingBlock: KIFKEQ_clean_linker_1, # of connection points: 2
#     Edge 33, Type (0, 1), BuildingBlock: KIFKEQ_clean_linker_1, # of connection points: 2
#     Edge 34, Type (0, 1), BuildingBlock: KIFKEQ_clean_linker_1, # of connection points: 2
#     Edge 35, Type (0, 1), BuildingBlock: KIFKEQ_clean_linker_1, # of connection points: 2
# Relax obj value: 0.336
# Max RMSD: 0.221
# Mean RMSD: 0.214
data_MOF--net-zzz--node1-KUMJIN_clean_sbu_0--node2-ESEHIV_clean_linker_0--edge1-KIFKEQ_clean_linker_1
_symmetry_space_group_name_H-M    P1
_symmetry_Int_Tables_number       1
_symmetry_cell_setting            triclinic
loop_
_symmetry_equiv_pos_as_xyz
'x, y, z'
_cell_length_a     44.511553
_cell_length_b     44.454455
_cell_length_c     15.557965
_cell_angle_alpha  91.379535
_cell_angle_beta   89.970189
_cell_angle_gamma 89.93933
loop_
_atom_site_label
_atom_site_type_symbol
_atom_site_fract_x
_atom_site_fract_y
_atom_site_fract_z
_atom_type_partial_charge
H0 H 0.80912 0.58595 0.2389 0.0
H1 H 0.73746 0.59338 0.05809 0.0
H2 H 0.73229 0.52767 0.25849 0.0
C3 C 0.78678 0.57942 0.21769 0.0
C4 C 0.77234 0.55577 0.25868 0.0
C5 C 0.7744 0.59281 0.14541 0.0
C6 C 0.74623 0.58339 0.1158 0.0
C7 C 0.73002 0.56046 0.15634 0.0
C8 C 0.74372 0.54597 0.22756 0.0
H9 H 0.94472 0.82091 0.23079 0.0
H10 H 0.93395 0.7407 0.0758 0.0
H11 H 1.00755 0.74808 0.2563 0.0
C12 C 0.95138 0.79803 0.21427 0.0
C13 C 0.97677 0.78628 0.25462 0.0
C14 C 0.93622 0.78212 0.14864 0.0
C15 C 0.94582 0.75291 0.12634 0.0
C16 C 0.97149 0.73989 0.16339 0.0
C17 C 0.98746 0.75718 0.2275 0.0
H18 H 0.71274 0.93295 0.20807 0.0
H19 H 0.7972 0.92987 0.0757 0.0
H20 H 0.78207 0.99632 0.27732 0.0
C21 C 0.7358 0.94037 0.20252 0.0
C22 C 0.74579 0.96393 0.25738 0.0
C23 C 0.75368 0.92833 0.13569 0.0
C24 C 0.78297 0.93923 0.12624 0.0
C25 C 0.79321 0.96427 0.17418 0.0
C26 C 0.77447 0.97687 0.24025 0.0
H27 H 0.59194 0.73331 0.29868 0.0
H28 H 0.52966 0.80682 0.30984 0.0
H29 H 0.60454 0.80852 0.13374 0.0
C30 C 0.58604 0.75577 0.27894 0.0
C31 C 0.60152 0.76907 0.2109 0.0
C32 C 0.56049 0.76901 0.316 0.0
C33 C 0.55025 0.79695 0.28493 0.0
C34 C 0.56688 0.81181 0.22044 0.0
C35 C 0.59271 0.79786 0.18575 0.0
H36 H 0.21761 0.4505 0.1231 0.0
H37 H 0.29112 0.44217 0.29804 0.0
H38 H 0.29535 0.50703 0.09544 0.0
C39 C 0.24029 0.4566 0.14226 0.0
C40 C 0.25489 0.47965 0.09904 0.0
C41 C 0.25307 0.44331 0.21422 0.0
C42 C 0.28182 0.45211 0.2409 0.0
C43 C 0.29793 0.47464 0.19842 0.0
C44 C 0.2839 0.48902 0.12771 0.0
H45 H 0.09406 0.22287 0.11721 0.0
H46 H 0.10162 0.30259 0.27678 0.0
H47 H 0.02468 0.29002 0.11083 0.0
C48 C 0.08609 0.24503 0.13678 0.0
C49 C 0.05908 0.25513 0.1013 0.0
C50 C 0.10099 0.26123 0.20249 0.0
C51 C 0.08959 0.28946 0.22839 0.0
C52 C 0.06173 0.30007 0.19876 0.0
C53 C 0.04637 0.28269 0.13383 0.0
H54 H 0.32295 0.10675 0.1139 0.0
H55 H 0.25429 0.1009 0.3079 0.0
H56 H 0.25228 0.04128 0.0873 0.0
C57 C 0.3023 0.09718 0.13779 0.0
C58 C 0.28947 0.07302 0.09124 0.0
C59 C 0.29119 0.10633 0.21897 0.0
C60 C 0.26354 0.09443 0.24583 0.0
C61 C 0.2485 0.07196 0.19777 0.0
C62 C 0.26218 0.06036 0.12132 0.0
H63 H 0.43471 0.3126 0.0656 0.0
H64 H 0.49459 0.23674 0.05206 0.0
H65 H 0.42652 0.24274 0.24926 0.0
C66 C 0.44069 0.29031 0.0869 0.0
C67 C 0.42759 0.27936 0.16186 0.0
C68 C 0.46468 0.27532 0.04615 0.0
C69 C 0.47494 0.24768 0.07957 0.0
C70 C 0.46053 0.23531 0.15221 0.0
C71 C 0.43653 0.25116 0.19097 0.0
Eu72 Eu 0.04618 1.00912 0.76038 0.0
C73 C 0.9308 0.99936 0.52554 0.0
C74 C 0.94495 0.96543 0.40859 0.0
C75 C 0.89256 0.96961 0.451 0.0
C76 C 0.95276 0.98653 0.47413 0.0
C77 C 0.90033 0.99158 0.51345 0.0
C78 C 0.91485 0.95654 0.39864 0.0
C79 C 0.88725 0.02977 0.61999 0.0
N80 N 0.93904 0.02079 0.58411 0.0
C81 C 0.91773 0.03673 0.62933 0.0
C82 C 0.87852 1.00681 0.56259 0.0
Eu83 Eu 0.99108 0.031 0.60049 0.0
N84 N 0.98151 0.99602 0.48482 0.0
C85 C 1.00314 0.98684 0.42739 0.0
C86 C 0.96745 0.95463 0.35322 0.0
C87 C 0.99658 0.96574 0.36194 0.0
H88 H 0.92431 0.05434 0.67447 0.0
H89 H 0.01409 0.95798 0.31843 0.0
H90 H 0.90849 0.94021 0.34911 0.0
H91 H 0.87055 0.04205 0.65732 0.0
H92 H 0.02585 0.99483 0.43264 0.0
H93 H 0.02351 0.08108 0.04477 0.0
H94 H 0.96242 0.93835 0.3023 0.0
H95 H 0.11284 0.98748 0.68109 0.0
H96 H 1.01164 0.04434 0.93037 0.0
H97 H 0.16646 1.00086 0.69551 0.0
H98 H 0.86932 0.96318 0.44116 0.0
H99 H 0.07499 0.10134 0.0592 0.0
H100 H 0.12866 0.10046 1.00985 0.0
H101 H 0.85489 1.00151 0.55523 0.0
H102 H 0.16762 0.07858 0.91506 0.0
N103 N 0.05577 0.0438 0.87656 0.0
C104 C 0.03428 0.05261 0.93487 0.0
C105 C 0.06993 0.0851 1.00823 0.0
C106 C 0.09228 0.07475 0.95169 0.0
C107 C 0.04089 0.07365 1.00044 0.0
C108 C 0.08444 0.05368 0.88611 0.0
H109 H 0.182 0.04114 0.79858 0.0
N110 N 0.09811 0.02018 0.77396 0.0
C111 C 0.14979 1.01254 0.73447 0.0
C112 C 0.10631 0.04147 0.83305 0.0
C113 C 0.11941 1.00496 0.7267 0.0
C114 C 0.15845 0.03535 0.79246 0.0
C115 C 0.13669 0.04984 0.84362 0.0
O116 O 0.0682 0.96671 0.7897 0.0
O117 O 0.01484 0.9919 0.65656 0.0
O118 O 0.96494 1.00647 0.70439 0.0
O119 O 0.99857 1.0107 0.81862 0.0
O120 O 0.05781 0.97457 0.65519 0.0
O121 O 0.03257 0.98364 0.87211 0.0
O122 O 0.97004 0.07365 0.56826 0.0
O123 O 0.02192 0.04796 0.70524 0.0
O124 O 0.07144 0.03549 0.65924 0.0
O125 O 0.03897 0.02877 0.54353 0.0
O126 O 0.97919 0.06569 0.70517 0.0
O127 O 1.00654 0.05625 0.49016 0.0
C128 C 0.03184 0.97266 0.61912 0.0
C129 C 0.0299 0.93263 0.82492 0.0
C130 C 0.98123 0.90703 0.81989 0.0
C131 C 0.99952 0.93089 0.8494 0.0
C132 C 0.99381 0.88496 0.76412 0.0
C133 C 0.04198 0.90993 0.77068 0.0
C134 C 0.02393 0.88646 0.73997 0.0
C135 C 0.9712 1.00534 0.78775 0.0
C136 C 0.04768 0.95995 0.84577 0.0
C137 C 0.14445 0.0717 0.90636 0.0
C138 C 0.12227 0.08415 0.9603 0.0
C139 C 1.00494 0.0672 0.74262 0.0
C140 C 1.00905 0.10742 0.53544 0.0
C141 C 0.0389 0.11004 0.5065 0.0
C142 C 0.05717 0.13408 0.535 0.0
C143 C 0.04519 0.15536 0.59425 0.0
C144 C 0.99754 0.12939 0.59312 0.0
C145 C 0.01562 0.15298 0.62281 0.0
C146 C 0.06589 0.03555 0.57552 0.0
C147 C 0.9913 0.0801 0.51415 0.0
H148 H 0.98998 0.94829 0.89086 0.0
H149 H 0.98078 0.86581 0.74153 0.0
H150 H 0.06519 0.91078 0.74986 0.0
H151 H 0.03335 0.86927 0.69743 0.0
H152 H 0.04801 0.09319 0.4623 0.0
H153 H 0.0582 0.17461 0.61625 0.0
H154 H 0.97477 0.12794 0.61725 0.0
H155 H 1.00664 0.16959 0.66795 0.0
Eu156 Eu 0.52742 0.04941 0.75015 0.0
C157 C 0.54736 0.93482 0.51722 0.0
C158 C 0.57691 0.9538 0.39994 0.0
C159 C 0.58282 0.90187 0.44146 0.0
C160 C 0.55535 0.95832 0.46585 0.0
C161 C 0.56025 0.90603 0.5037 0.0
C162 C 0.5912 0.92577 0.38978 0.0
C163 C 0.52501 0.88666 0.6063 0.0
N164 N 0.52528 0.93945 0.57599 0.0
C165 C 0.51297 0.91557 0.61721 0.0
C166 C 0.54918 0.88196 0.55051 0.0
Eu167 Eu 0.50607 0.98914 0.59513 0.0
N168 N 0.54081 0.98504 0.47685 0.0
C169 C 0.54544 1.00735 0.41886 0.0
C170 C 0.58281 0.97723 0.34427 0.0
C171 C 0.56659 1.0039 0.35285 0.0
H172 H 0.49441 0.91909 0.66126 0.0
H173 H 0.57049 0.022 0.30891 0.0
H174 H 0.60802 0.92206 0.34023 0.0
H175 H 0.5157 0.86808 0.64119 0.0
H176 H 0.53372 0.02843 0.42286 0.0
H177 H 0.45659 0.02442 0.03044 0.0
H178 H 0.59922 0.97468 0.29312 0.0
H179 H 0.54709 0.1173 0.68356 0.0
H180 H 0.49346 0.01377 0.91866 0.0
H181 H 0.5303 0.17021 0.69675 0.0
H182 H 0.5932 0.88003 0.43086 0.0
H183 H 0.43357 0.07484 0.04498 0.0
H184 H 0.43128 0.12813 0.997 0.0
H185 H 0.55842 0.85953 0.54183 0.0
H186 H 0.45099 0.16786 0.90526 0.0
N187 N 0.49201 0.0577 0.86511 0.0
C188 C 0.48432 0.0361 0.92261 0.0
C189 C 0.45003 0.07038 0.99493 0.0
C190 C 0.45904 0.09293 0.93957 0.0
C191 C 0.46304 0.04196 0.98706 0.0
C192 C 0.48048 0.08588 0.87505 0.0
H193 H 0.48804 0.18383 0.79354 0.0
N194 N 0.51332 0.10084 0.76664 0.0
C195 C 0.5189 0.15296 0.73223 0.0
C196 C 0.49136 0.10812 0.8236 0.0
C197 C 0.5282 0.12297 0.72442 0.0
C198 C 0.49503 0.16054 0.78678 0.0
C199 C 0.48141 0.13814 0.83491 0.0
O200 O 0.5685 0.0746 0.77817 0.0
O201 O 0.54407 0.01532 0.65201 0.0
O202 O 0.52921 0.96593 0.70718 0.0
O203 O 0.52828 1.00359 0.814 0.0
O204 O 0.5614 0.0583 0.64448 0.0
O205 O 0.55572 0.03821 0.85953 0.0
O206 O 0.46783 0.95933 0.57235 0.0
O207 O 0.48904 0.02356 0.69223 0.0
O208 O 0.50653 0.07353 0.63776 0.0
O209 O 0.50079 0.0353 0.53305 0.0
O210 O 0.47224 0.98033 0.70042 0.0
O211 O 0.47594 0.99598 0.4866 0.0
C212 C 0.56298 0.03131 0.61271 0.0
C213 C 0.60635 0.04013 0.81245 0.0
C214 C 0.6358 0.99385 0.79514 0.0
C215 C 0.60986 1.00902 0.82413 0.0
C216 C 0.65809 1.01024 0.75228 0.0
C217 C 0.62914 0.05601 0.77069 0.0
C218 C 0.65469 0.04104 0.74016 0.0
C219 C 0.53194 0.97513 0.78867 0.0
C220 C 0.57762 0.05524 0.83375 0.0
C221 C 0.45908 0.145 0.89609 0.0
C222 C 0.4479 0.12241 0.94837 0.0
C223 C 0.47006 1.00743 0.73103 0.0
C224 C 0.42579 0.98581 0.52655 0.0
C225 C 0.41963 0.01543 0.55522 0.0
C226 C 0.38981 0.02556 0.56657 0.0
C227 C 0.36649 1.00422 0.55526 0.0
C228 C 0.40226 0.96528 0.51582 0.0
C229 C 0.37278 0.97439 0.53139 0.0
C230 C 0.50072 0.06408 0.55803 0.0
C231 C 0.45686 0.97577 0.5121 0.0
H232 H 0.5923 0.99647 0.85525 0.0
H233 H 0.6787 0.99955 0.73059 0.0
H234 H 0.62686 0.07988 0.75978 0.0
H235 H 0.67205 0.05342 0.7075 0.0
H236 H 0.43827 0.0305 0.56701 0.0
H237 H 0.34309 1.01045 0.5606 0.0
H238 H 0.40672 0.9422 0.49568 0.0
H239 H 0.3546 0.95848 0.52245 0.0
Eu240 Eu 0.54625 0.51167 0.60621 0.0
C241 C 0.41775 0.49472 0.74979 0.0
C242 C 0.38528 0.51551 0.64165 0.0
C243 C 0.36813 0.4733 0.72469 0.0
C244 C 0.41309 0.51505 0.68548 0.0
C245 C 0.39492 0.47432 0.77224 0.0
C246 C 0.36333 0.49387 0.6594 0.0
C247 C 0.42491 0.4603 0.8942 0.0
N248 N 0.44358 0.49666 0.79544 0.0
C249 C 0.44669 0.48105 0.86989 0.0
C250 C 0.39914 0.45647 0.84415 0.0
Eu251 Eu 0.48148 0.52955 0.7443 0.0
N252 N 0.43473 0.53583 0.6704 0.0
C253 C 0.42833 0.55961 0.61917 0.0
C254 C 0.37988 0.5384 0.58366 0.0
C255 C 0.40123 0.56093 0.57396 0.0
H256 H 0.46662 0.48397 0.90888 0.0
H257 H 0.39685 0.5794 0.53164 0.0
H258 H 0.34211 0.49359 0.62528 0.0
H259 H 0.428 0.44733 0.95153 0.0
H260 H 0.44381 0.57776 0.6115 0.0
H261 H 0.62537 0.45323 0.81736 0.0
H262 H 0.3589 0.5395 0.54855 0.0
H263 H 0.56194 0.56566 0.46504 0.0
H264 H 0.5785 0.46014 0.7403 0.0
H265 H 0.60298 0.60106 0.43264 0.0
H266 H 0.35054 0.45748 0.7401 0.0
H267 H 0.66662 0.48986 0.80385 0.0
H268 H 0.68684 0.53591 0.73553 0.0
H269 H 0.38214 0.44055 0.86341 0.0
H270 H 0.68076 0.57621 0.63158 0.0
N271 N 0.59154 0.50148 0.68292 0.0
C272 C 0.59573 0.47672 0.73237 0.0
C273 C 0.64585 0.49318 0.76903 0.0
C274 C 0.64229 0.51751 0.71477 0.0
C275 C 0.62263 0.47248 0.77677 0.0
C276 C 0.61467 0.52097 0.67122 0.0
H277 H 0.64988 0.60033 0.51769 0.0
N278 N 0.58508 0.54574 0.56911 0.0
C279 C 0.60557 0.58522 0.48387 0.0
C280 C 0.61126 0.54382 0.61309 0.0
C281 C 0.58246 0.56513 0.50227 0.0
C282 C 0.63194 0.58479 0.53219 0.0
C283 C 0.63529 0.56359 0.59656 0.0
O284 O 0.56354 0.50509 0.47626 0.0
O285 O 0.49567 0.5109 0.6154 0.0
O286 O 0.48763 0.4789 0.74699 0.0
O287 O 0.53315 0.46885 0.67725 0.0
O288 O 0.51354 0.52676 0.5028 0.0
O289 O 0.5524 0.46633 0.5513 0.0
O290 O 0.46013 0.54457 0.86457 0.0
O291 O 0.53182 0.52828 0.73601 0.0
O292 O 0.54287 0.5625 0.62894 0.0
O293 O 0.49198 0.56883 0.65499 0.0
O294 O 0.51346 0.51347 0.84868 0.0
O295 O 0.48689 0.57561 0.79385 0.0
C296 C 0.48892 0.52023 0.54157 0.0
C297 C 0.54429 0.46363 0.40047 0.0
C298 C 0.49901 0.44392 0.33051 0.0
C299 C 0.51384 0.45537 0.40433 0.0
C300 C 0.51524 0.44182 0.2525 0.0
C301 C 0.55974 0.46151 0.32219 0.0
C302 C 0.54519 0.45081 0.24848 0.0
C303 C 0.50966 0.46056 0.72354 0.0
C304 C 0.56005 0.47612 0.47593 0.0
C305 C 0.66221 0.56102 0.64271 0.0
C306 C 0.66569 0.53804 0.70175 0.0
C307 C 0.53839 0.51855 0.80953 0.0
C308 C 0.49343 0.57571 0.94474 0.0
C309 C 0.51844 0.59487 0.94022 0.0
C310 C 0.53763 0.59917 1.01115 0.0
C311 C 0.5318 0.58353 0.08687 0.0
C312 C 0.48778 0.56066 0.02155 0.0
C313 C 0.50701 0.56444 0.09183 0.0
C314 C 0.51834 0.57932 0.62924 0.0
C315 C 0.4747 0.56986 0.86759 0.0
H316 H 0.50194 0.45774 0.46481 0.0
H317 H 0.5053 0.43222 0.19463 0.0
H318 H 0.58308 0.46825 0.31808 0.0
H319 H 0.55731 0.44899 0.18822 0.0
H320 H 0.52319 0.6063 0.881 0.0
H321 H 0.54583 0.58671 0.14318 0.0
H322 H 0.46877 0.54563 0.02699 0.0
H323 H 0.50255 0.55268 0.15062 0.0
Eu324 Eu 0.02222 0.5524 0.61399 0.0
C325 C 0.04324 0.42525 0.757 0.0
C326 C 0.02268 0.38972 0.65233 0.0
C327 C 0.06502 0.37519 0.74057 0.0
C328 C 0.0228 0.41861 0.6923 0.0
C329 C 0.06408 0.40334 0.78333 0.0
C330 C 0.04436 0.36839 0.67518 0.0
C331 C 0.07955 0.43748 0.89802 0.0
N332 N 0.04164 0.45251 0.7977 0.0
C333 C 0.05851 0.45841 0.86983 0.0
C334 C 0.08269 0.41 0.85372 0.0
Eu335 Eu 1.00619 0.48738 0.74417 0.0
N336 N 1.0021 0.43975 0.67139 0.0
C337 C 0.97917 0.4323 0.61638 0.0
C338 C 1.00028 0.38279 0.59215 0.0
C339 C 0.9782 0.40405 0.57506 0.0
H340 H 0.05631 0.47976 0.90399 0.0
H341 H 0.96037 0.39869 0.53 0.0
H342 H 0.04482 0.34629 0.64426 0.0
H343 H 0.09338 0.44262 0.95364 0.0
H344 H 0.96159 0.44793 0.60248 0.0
H345 H 0.07028 0.64067 0.82527 0.0
H346 H 0.99942 0.3609 0.56011 0.0
H347 H 0.97244 0.56169 0.45409 0.0
H348 H 0.06901 0.59206 0.74874 0.0
H349 H 0.93487 0.59901 0.40831 0.0
H350 H 0.08108 0.35822 0.75924 0.0
H351 H 0.02979 0.67779 0.80394 0.0
H352 H 0.98322 0.69248 0.72483 0.0
H353 H 0.09896 0.39377 0.87581 0.0
H354 H 0.94637 0.68124 0.61083 0.0
N355 N 0.027 0.59989 0.6872 0.0
C356 C 0.05077 0.60739 0.73909 0.0
C357 C 0.02892 0.65619 0.77025 0.0
C358 C 1.00586 0.64941 0.71202 0.0
C359 C 0.0518 0.6353 0.78242 0.0
C360 C 1.00571 0.62086 0.67007 0.0
H361 H 0.92866 0.64681 0.49116 0.0
N362 N 0.98683 0.58784 0.56285 0.0
C363 C 0.94868 0.60364 0.4643 0.0
C364 C 0.98496 0.61461 0.60604 0.0
C365 C 0.97003 0.58263 0.49021 0.0
C366 C 0.94517 0.63052 0.51145 0.0
C367 C 0.96381 0.63657 0.5822 0.0
O368 O 0.03358 0.57061 0.48932 0.0
O369 O 0.02398 0.50177 0.61759 0.0
O370 O 0.05691 0.49136 0.72781 0.0
O371 O 0.06208 0.5424 0.70482 0.0
O372 O 1.00928 0.51939 0.5045 0.0
O373 O 0.06911 0.55709 0.57467 0.0
O374 O 0.99473 0.4679 0.86701 0.0
O375 O 1.00461 0.53801 0.74072 0.0
O376 O 0.97135 0.54781 0.62764 0.0
O377 O 0.96628 0.49691 0.65328 0.0
O378 O 0.01904 0.52043 0.85399 0.0
O379 O 0.95927 0.48264 0.78303 0.0
C380 C 0.01552 0.49469 0.54209 0.0
C381 C 0.07472 0.54664 0.42558 0.0
C382 C 0.09252 0.49846 0.36609 0.0
C383 C 0.08188 0.51612 0.43591 0.0
C384 C 0.09511 0.5119 0.2851 0.0
C385 C 0.07744 0.55941 0.34458 0.0
C386 C 0.08746 0.54203 0.2746 0.0
C387 C 0.07311 0.51629 0.73065 0.0
C388 C 0.062 0.56472 0.49684 0.0
C389 C 0.96271 0.66425 0.62746 0.0
C390 C 0.98369 0.67065 0.69233 0.0
C391 C 0.01322 0.54515 0.81603 0.0
C392 C 0.95286 0.48958 0.93324 0.0
C393 C 0.94647 0.52048 0.93 0.0
C394 C 0.93421 0.53592 1.00183 0.0
C395 C 0.92945 0.51982 0.07786 0.0
C396 C 0.9481 0.47417 1.00944 0.0
C397 C 0.93661 0.48933 0.08158 0.0
C398 C 0.95524 0.5228 0.62588 0.0
C399 C 0.96625 0.47345 0.85949 0.0
H400 H 0.07914 0.50625 0.49834 0.0
H401 H 0.1041 0.49958 0.23001 0.0
H402 H 0.0715 0.58276 0.33535 0.0
H403 H 0.08967 0.55203 0.21216 0.0
H404 H 0.95087 0.53231 0.87132 0.0
H405 H 0.91914 0.53033 0.13398 0.0
H406 H 0.95342 0.45045 1.01316 0.0
H407 H 0.93274 0.47729 0.14023 0.0
H408 H 0.18963 0.08016 0.14834 0.0
H409 H 0.24401 0.03849 0.34097 0.0
H410 H 0.14453 0.07174 0.2359 0.0
H411 H 0.19934 0.02979 0.42806 0.0
H412 H 0.06662 0.03003 0.398 0.0
H413 H 0.10915 0.03584 0.30024 0.0
H414 H 0.16568 0.0607 0.51558 0.0
H415 H 0.12324 0.05522 0.61285 0.0
C416 C 0.1918 0.06818 0.20783 0.0
C417 C 0.22042 0.05947 0.23674 0.0
C418 C 0.16596 0.06358 0.25867 0.0
C419 C 0.16811 0.05048 0.34032 0.0
C420 C 0.19664 0.0405 0.36675 0.0
C421 C 0.22229 0.04496 0.31599 0.0
C422 C 0.08809 0.03675 0.42478 0.0
C423 C 0.09141 0.04129 0.5144 0.0
C424 C 0.11257 0.04021 0.36829 0.0
C425 C 0.14128 0.04816 0.39951 0.0
C426 C 0.14429 0.05369 0.48879 0.0
C427 C 0.11979 0.05051 0.54502 0.0
H428 H 0.48279 0.2359 0.3132 0.0
H429 H 0.46319 0.1751 0.10089 0.0
H430 H 0.49252 0.19383 0.40498 0.0
H431 H 0.47434 0.13203 0.19249 0.0
H432 H 0.46362 0.063 0.41483 0.0
H433 H 0.45655 0.1029 0.31002 0.0
H434 H 0.52469 0.15594 0.44061 0.0
H435 H 0.5304 0.11709 0.54524 0.0
C436 C 0.48148 0.21334 0.28543 0.0
C437 C 0.47256 0.20894 0.19943 0.0
C438 C 0.48714 0.18898 0.33824 0.0
C439 C 0.48446 0.15908 0.30702 0.0
C440 C 0.47642 0.15458 0.21967 0.0
C441 C 0.47052 0.17925 0.16649 0.0
C442 C 0.47675 0.08342 0.42136 0.0
C443 C 0.49656 0.08742 0.49131 0.0
C444 C 0.47297 0.10624 0.36063 0.0
C445 C 0.48953 0.13332 0.36703 0.0
C446 C 0.51048 0.13626 0.43461 0.0
C447 C 0.51372 0.11388 0.49566 0.0
H448 H 0.34268 0.43666 0.2483 0.0
H449 H 0.32227 0.53125 0.23333 0.0
H450 H 0.38722 0.44829 0.33255 0.0
H451 H 0.36793 0.54307 0.31626 0.0
H452 H 0.46695 0.55277 0.40983 0.0
H453 H 0.42245 0.54297 0.32115 0.0
H454 H 0.4026 0.465 0.47143 0.0
H455 H 0.4474 0.4748 0.55895 0.0
C456 C 0.34791 0.46009 0.26192 0.0
C457 C 0.32845 0.48297 0.23408 0.0
C458 C 0.37362 0.46675 0.31081 0.0
C459 C 0.38143 0.49661 0.33252 0.0
C460 C 0.36291 0.51973 0.30081 0.0
C461 C 0.33674 0.513 0.25252 0.0
C462 C 0.45285 0.5337 0.42433 0.0
C463 C 0.46032 0.51503 0.49298 0.0
C464 C 0.42721 0.52811 0.37356 0.0
C465 C 0.40851 0.50322 0.38855 0.0
C466 C 0.41636 0.48428 0.45683 0.0
C467 C 0.44188 0.49008 0.5081 0.0
H468 H 0.04025 0.35392 0.13254 0.0
H469 H 0.05579 0.30949 0.37167 0.0
H470 H 0.02899 0.40101 0.21328 0.0
H471 H 0.04507 0.35598 0.45148 0.0
H472 H 0.05893 0.45109 0.56694 0.0
H473 H 0.06786 0.40486 0.48152 0.0
H474 H 0.99444 0.42758 0.31405 0.0
H475 H 0.98559 0.47367 0.40002 0.0
C476 C 0.04064 0.35394 0.20213 0.0
C477 C 0.04901 0.32766 0.24504 0.0
C478 C 0.03439 0.38106 0.24876 0.0
C479 C 0.03656 0.38277 0.33962 0.0
C480 C 0.04375 0.3561 0.382 0.0
C481 C 0.04966 0.32918 0.33585 0.0
C482 C 0.04435 0.44593 0.51286 0.0
C483 C 0.02081 0.46566 0.49254 0.0
C484 C 0.04953 0.4194 0.46327 0.0
C485 C 0.03165 0.4119 0.3907 0.0
C486 C 1.00877 0.43229 0.36892 0.0
C487 C 1.00353 0.4587 0.41881 0.0
H488 H 0.85138 0.94732 0.20647 0.0
H489 H 0.79874 1.00913 0.05996 0.0
H490 H 0.89539 0.9577 0.11664 0.0
H491 H 0.84241 0.01928 0.96931 0.0
H492 H 0.91131 0.99304 0.75513 0.0
H493 H 0.8703 0.98756 0.8578 0.0
H494 H 0.93302 0.99709 0.06772 0.0
H495 H 0.97398 1.0037 0.9651 0.0
C496 C 0.84957 0.96417 0.15758 0.0
C497 C 0.8217 0.97816 0.1425 0.0
C498 C 0.87473 0.96984 0.10515 0.0
C499 C 0.87252 0.98909 0.03462 0.0
C500 C 0.84499 1.00409 0.02219 0.0
C501 C 0.82006 0.99878 0.07541 0.0
C502 C 0.91645 0.99455 0.82296 0.0
C503 C 0.94615 0.99971 0.85082 0.0
C504 C 0.89281 0.99129 0.88223 0.0
C505 C 0.89808 0.99236 0.97163 0.0
C506 C 0.92793 0.9963 0.99964 0.0
C507 C 0.9515 1.00017 0.94034 0.0
H508 H 0.51865 0.81815 0.11463 0.0
H509 H 0.59345 0.86725 0.22334 0.0
H510 H 0.50997 0.85871 1.0134 0.0
H511 H 0.58466 0.90808 0.12301 0.0
H512 H 0.54202 0.98534 0.96199 0.0
H513 H 0.54783 0.94853 0.07496 0.0
H514 H 0.54039 0.87649 0.88571 0.0
H515 H 0.53564 0.9131 0.77291 0.0
C516 C 0.5325 0.83815 0.11906 0.0
C517 C 0.55636 0.83973 0.17811 0.0
C518 C 0.52789 0.86119 0.0601 0.0
C519 C 0.54683 0.88659 0.05917 0.0
C520 C 0.56955 0.88899 0.12193 0.0
C521 C 0.57446 0.8657 0.17994 0.0
C522 C 0.54165 0.96168 0.94395 0.0
C523 C 0.5376 0.95245 0.85721 0.0
C524 C 0.54504 0.94052 1.00915 0.0
C525 C 0.54396 0.90944 0.99 0.0
C526 C 0.54058 0.90021 0.90337 0.0
C527 C 0.53782 0.92135 0.83814 0.0
H528 H 0.70401 0.50394 0.12502 0.0
H529 H 0.68685 0.59881 0.099 0.0
H530 H 0.65843 0.49265 0.04074 0.0
H531 H 0.64362 0.58765 1.0108 0.0
H532 H 0.58104 0.56291 0.79249 0.0
H533 H 0.62647 0.57106 0.87797 0.0
H534 H 0.60445 0.49398 0.02972 0.0
H535 H 0.55951 0.48553 0.94176 0.0
C536 C 0.6904 0.52239 0.1028 0.0
C537 C 0.69963 0.55234 0.11874 0.0
C538 C 0.66428 0.51595 0.0536 0.0
C539 C 0.6469 0.53926 1.01788 0.0
C540 C 0.65591 0.56899 0.03637 0.0
C541 C 0.68116 0.5754 0.08712 0.0
C542 C 0.58621 0.54744 0.84313 0.0
C543 C 0.5671 0.52303 0.85837 0.0
C544 C 0.61215 0.5523 0.89344 0.0
C545 C 0.61963 0.53317 0.96171 0.0
C546 C 0.60012 0.50893 0.97724 0.0
C547 C 0.57416 0.50415 0.92697 0.0
H548 H 0.02818 0.7186 0.11289 0.0
H549 H 0.93556 0.69095 0.12958 0.0
H550 H 0.03961 0.6722 0.02888 0.0
H551 H 0.94666 0.64616 0.04287 0.0
H552 H 0.96784 0.5873 0.80254 0.0
H553 H 0.95969 0.6329 0.89178 0.0
H554 H 0.04094 0.61464 0.03231 0.0
H555 H 0.04862 0.56876 0.94394 0.0
C556 C 1.01037 0.70251 0.10043 0.0
C557 C 0.98083 0.70904 0.12824 0.0
C558 C 0.01685 0.67594 0.05128 0.0
C559 C 0.99392 0.65535 0.02729 0.0
C560 C 0.96483 0.6614 0.05838 0.0
C561 C 0.95853 0.68731 0.1087 0.0
C562 C 0.98413 0.59321 0.85179 0.0
C563 C 1.00922 0.57457 0.86464 0.0
C564 C 0.97937 0.61929 0.90376 0.0
C565 C 0.99971 0.62785 0.9698 0.0
C566 C 0.02494 0.60924 0.98189 0.0
C567 C 0.02931 0.58282 0.9312 0.0
H568 H 0.14348 0.21802 0.15413 0.0
H569 H 0.11032 0.26795 0.37674 0.0
H570 H 0.15758 0.17688 0.24676 0.0
H571 H 0.12581 0.22839 0.46745 0.0
H572 H 0.0742 0.12302 0.3679 0.0
H573 H 0.1128 0.14957 0.29333 0.0
H574 H 0.1473 0.1846 0.53508 0.0
H575 H 0.10856 0.15702 0.61111 0.0
C576 C 0.14028 0.22091 0.22283 0.0
C577 C 0.12351 0.24538 0.25672 0.0
C578 C 0.14882 0.19744 0.27606 0.0
C579 C 0.14114 0.19855 0.36375 0.0
C580 C 0.13134 0.22618 0.39979 0.0
C581 C 0.12223 0.24926 0.34672 0.0
C582 C 0.09082 0.13501 0.40615 0.0
C583 C 0.08708 0.13945 0.49527 0.0
C584 C 0.11338 0.15027 0.36294 0.0
C585 C 0.13212 0.17067 0.40802 0.0
C586 C 0.13238 0.16997 0.49834 0.0
C587 C 0.10988 0.15452 0.54179 0.0
H588 H 0.27626 0.14152 0.36461 0.0
H589 H 0.3534 0.10781 0.22212 0.0
H590 H 0.30681 0.14394 0.49425 0.0
H591 H 0.38336 0.11231 0.34682 0.0
H592 H 0.42602 0.0752 0.53043 0.0
H593 H 0.40714 0.12183 0.47802 0.0
H594 H 0.31841 0.09921 0.56751 0.0
H595 H 0.33793 0.05398 0.62915 0.0
C596 C 0.29973 0.13535 0.35957 0.0
C597 C 0.31136 0.12198 0.28331 0.0
C598 C 0.31739 0.13723 0.43407 0.0
C599 C 0.34713 0.12651 0.43274 0.0
C600 C 0.36033 0.11997 0.35222 0.0
C601 C 0.34265 0.11732 0.27879 0.0
C602 C 0.40271 0.08023 0.54266 0.0
C603 C 0.38269 0.05859 0.57475 0.0
C604 C 0.39184 0.10748 0.51241 0.0
C605 C 0.36072 0.11274 0.51019 0.0
C606 C 0.34233 0.09511 0.56268 0.0
C607 C 0.35344 0.06839 0.59601 0.0
H608 H 0.38359 0.32111 0.12533 0.0
H609 H 0.43749 0.28781 0.33307 0.0
H610 H 0.37951 0.36969 0.2005 0.0
H611 H 0.43474 0.33563 0.40545 0.0
H612 H 0.47118 0.41725 0.46869 0.0
H613 H 0.42958 0.38248 0.46047 0.0
H614 H 0.41672 0.40413 0.19327 0.0
H615 H 0.45518 0.44184 0.20549 0.0
C616 C 0.39356 0.32377 0.18856 0.0
C617 C 0.4122 0.30117 0.22103 0.0
C618 C 0.39153 0.35175 0.23144 0.0
C619 C 0.40883 0.35761 0.30588 0.0
C620 C 0.42184 0.33285 0.34695 0.0
C621 C 0.42346 0.30488 0.3049 0.0
C622 C 0.45863 0.41575 0.40921 0.0
C623 C 0.46815 0.43088 0.33553 0.0
C624 C 0.43483 0.3953 0.40414 0.0
C625 C 0.4212 0.3884 0.32437 0.0
C626 C 0.42718 0.40754 0.25546 0.0
C627 C 0.44998 0.42895 0.26174 0.0
H628 H 0.24521 0.45053 0.38632 0.0
H629 H 0.21642 0.39551 0.16985 0.0
H630 H 0.19963 0.43987 0.46043 0.0
H631 H 0.17051 0.38306 0.24617 0.0
H632 H 0.09183 0.44983 0.25271 0.0
H633 H 0.12951 0.41117 0.24814 0.0
H634 H 0.15395 0.43349 0.51108 0.0
H635 H 0.11894 0.4749 0.51119 0.0
C636 C 0.22967 0.43477 0.35623 0.0
C637 C 0.23353 0.42528 0.27043 0.0
C638 C 0.203 0.42847 0.39907 0.0
C639 C 0.17956 0.41279 0.35627 0.0
C640 C 0.18678 0.39737 0.27862 0.0
C641 C 0.21331 0.40418 0.23493 0.0
C642 C 0.10536 0.4466 0.3096 0.0
C643 C 0.10449 0.46752 0.37867 0.0
C644 C 0.12687 0.42375 0.30794 0.0
C645 C 0.14759 0.42132 0.37613 0.0
C646 C 0.14062 0.4367 0.45388 0.0
C647 C 0.12001 0.46042 0.45437 0.0
H648 H 0.89427 0.82579 0.19516 0.0
H649 H 0.92855 0.77583 0.97416 0.0
H650 H 0.87892 0.86615 0.10128 0.0
H651 H 0.9122 0.81471 0.8821 0.0
H652 H 0.93076 0.88404 0.73865 0.0
H653 H 0.89077 0.85746 0.81219 0.0
H654 H 0.92146 0.89535 0.05484 0.0
H655 H 0.9612 0.92093 0.98296 0.0
C656 C 0.89749 0.82277 0.1265 0.0
C657 C 0.91456 0.79844 0.09316 0.0
C658 C 0.88827 0.84577 0.07255 0.0
C659 C 0.89596 0.84455 0.98483 0.0
C660 C 0.90657 0.81707 0.94965 0.0
C661 C 0.9162 0.7944 1.00337 0.0
C662 C 0.92835 0.88737 0.8075 0.0
C663 C 0.95053 0.90275 0.85562 0.0
C664 C 0.90511 0.8725 0.84949 0.0
C665 C 0.90425 0.87254 0.93988 0.0
C666 C 0.92198 0.89376 0.98529 0.0
C667 C 0.94524 0.90847 0.9436 0.0
H668 H 0.76586 0.92913 0.96258 0.0
H669 H 0.70849 0.88545 0.14611 0.0
H670 H 0.72975 0.92 0.85232 0.0
H671 H 0.67096 0.87746 0.03384 0.0
H672 H 0.61997 0.96612 0.94378 0.0
H673 H 0.64461 0.92332 1.00273 0.0
H674 H 0.68921 0.90554 0.75995 0.0
H675 H 0.66397 0.9489 0.69975 0.0
C676 C 0.74622 0.9162 0.97929 0.0
C677 C 0.73929 0.90997 0.06531 0.0
C678 C 0.72514 0.9108 0.91476 0.0
C679 C 0.69646 0.89983 0.93546 0.0
C680 C 0.69233 0.88732 1.01682 0.0
C681 C 0.71374 0.89228 0.08148 0.0
C682 C 0.63385 0.95244 0.90109 0.0
C683 C 0.64141 0.96207 0.81844 0.0
C684 C 0.648 0.92741 0.93508 0.0
C685 C 0.67036 0.91197 0.88754 0.0
C686 C 0.67307 0.91782 0.79939 0.0
C687 C 0.65889 0.94293 0.76522 0.0
H688 H 0.64017 0.723 0.25531 0.0
H689 H 0.60801 0.76999 0.0338 0.0
H690 H 0.63915 0.67636 0.17383 0.0
H691 H 0.61172 0.72424 0.94828 0.0
H692 H 0.59444 0.59545 0.07881 0.0
H693 H 0.63154 0.63554 0.09174 0.0
H694 H 0.57178 0.69401 0.95248 0.0
H695 H 0.5362 0.65405 0.93746 0.0
C696 C 0.63429 0.72369 0.18782 0.0
C697 C 0.62072 0.74945 0.15408 0.0
C698 C 0.63398 0.6967 0.14009 0.0
C699 C 0.62186 0.69588 0.05636 0.0
C700 C 0.61812 0.72353 1.01532 0.0
C701 C 0.61669 0.7502 0.06444 0.0
C702 C 0.58975 0.61682 0.04964 0.0
C703 C 0.56222 0.62166 1.00818 0.0
C704 C 0.61102 0.63992 0.05699 0.0
C705 C 0.6049 0.66867 0.02497 0.0
C706 C 0.5782 0.67246 0.97747 0.0
C707 C 0.55728 0.64933 0.96919 0.0
H708 H 0.78386 0.58728 0.97345 0.0
H709 H 0.80959 0.64103 0.19579 0.0
H710 H 0.83065 0.59824 0.90562 0.0
H711 H 0.85683 0.65346 0.12591 0.0
H712 H 0.93146 0.58022 0.12841 0.0
H713 H 0.89427 0.61933 0.13456 0.0
H714 H 0.87794 0.60684 0.86193 0.0
H715 H 0.91216 0.5647 0.85872 0.0
C716 C 0.79891 0.60293 1.00604 0.0
C717 C 0.79397 0.61177 0.09195 0.0
C718 C 0.82619 0.60942 0.96679 0.0
C719 C 0.84901 0.62453 1.01366 0.0
C720 C 0.84073 0.63976 0.09058 0.0
C721 C 0.81355 0.63283 0.13062 0.0
C722 C 0.9199 0.58571 0.06959 0.0
C723 C 0.92281 0.56735 0.99533 0.0
C724 C 0.89879 0.60887 0.07242 0.0
C725 C 0.88086 0.61468 0.99995 0.0
C726 C 0.88962 0.60149 0.92064 0.0
C727 C 0.90969 0.5773 0.91867 0.0
H728 H 0.07645 0.24181 0.93619 0.0
H729 H 1.01194 0.21666 0.1273 0.0
H730 H 0.06386 0.19697 0.84944 0.0
H731 H 0.9998 0.17124 0.04279 0.0
H732 H 0.9683 0.1002 0.84655 0.0
H733 H 0.97808 0.14723 0.92448 0.0
H734 H 0.07026 0.14446 0.83765 0.0
H735 H 0.05975 0.09758 0.75634 0.0
C736 C 0.05872 0.22721 0.95825 0.0
C737 C 0.04443 0.23367 0.03754 0.0
C738 C 0.05198 0.20091 0.90937 0.0
C739 C 0.03092 0.17969 0.9384 0.0
C740 C 0.01581 0.18683 1.01645 0.0
C741 C 0.02249 0.21326 0.06505 0.0
C742 C 0.99079 0.10946 0.8446 0.0
C743 C 0.01335 0.09452 0.79646 0.0
C744 C 0.99651 0.13661 0.88998 0.0
C745 C 0.02509 0.15024 0.88891 0.0
C746 C 0.0478 0.13525 0.84017 0.0
C747 C 0.04198 0.10793 0.79435 0.0
H748 H 0.3034 0.09431 0.93147 0.0
H749 H 0.32237 0.02192 0.10173 0.0
H750 H 0.34503 0.07825 0.8383 0.0
H751 H 0.36511 1.00696 1.0139 0.0
H752 H 0.43408 0.97303 0.8276 0.0
H753 H 0.38747 0.98577 0.89956 0.0
H754 H 0.39562 0.07738 0.81465 0.0
H755 H 0.44143 0.06334 0.73595 0.0
C756 C 0.316 0.07436 0.94757 0.0
C757 C 0.30878 0.05874 0.02252 0.0
C758 C 0.34051 0.06549 0.89519 0.0
C759 C 0.35927 0.04119 0.9174 0.0
C760 C 0.35132 0.02523 0.99172 0.0
C761 C 0.32646 0.0337 0.04269 0.0
C762 C 0.42597 0.99596 0.82432 0.0
C763 C 0.44222 0.01738 0.77825 0.0
C764 C 0.39909 1.00349 0.86675 0.0
C765 C 0.38736 0.03299 0.86605 0.0
C766 C 0.40333 0.05435 0.81754 0.0
C767 C 0.43012 0.04653 0.77338 0.0
H768 H 0.5163 0.30733 0.06638 0.0
H769 H 0.44721 0.28601 0.8813 0.0
H770 H 0.53187 0.35017 0.98084 0.0
H771 H 0.46292 0.3286 0.79474 0.0
H772 H 0.50903 0.40483 0.64081 0.0
H773 H 0.50382 0.35527 0.70749 0.0
H774 H 0.50412 0.39864 0.9587 0.0
H775 H 0.50892 0.44759 0.89225 0.0
C776 C 0.50545 0.31086 1.00511 0.0
C777 C 0.481 0.29274 0.9797 0.0
C778 C 0.514 0.33577 0.95671 0.0
C779 C 0.49848 0.34316 0.88107 0.0
C780 C 0.47558 0.32357 0.85207 0.0
C781 C 0.46674 0.29891 0.90125 0.0
C782 C 0.50832 0.40357 0.71023 0.0
C783 C 0.50927 0.43008 0.76136 0.0
C784 C 0.5052 0.37525 0.74849 0.0
C785 C 0.50372 0.3728 0.83874 0.0
C786 C 0.50558 0.39944 0.88929 0.0
C787 C 0.50808 0.42759 0.85116 0.0
H788 H 0.24967 0.46048 0.93169 0.0
H789 H 0.21685 0.52777 0.11164 0.0
H790 H 0.20872 0.47202 0.83298 0.0
H791 H 0.17531 0.53898 1.01473 0.0
H792 H 0.10634 0.56174 0.80981 0.0
H793 H 0.15406 0.55761 0.88638 0.0
H794 H 0.15686 0.46257 0.82249 0.0
H795 H 0.10997 0.46711 0.7435 0.0
C796 C 0.23438 0.47866 0.94859 0.0
C797 C 0.23725 0.49386 0.02855 0.0
C798 C 0.21034 0.48487 0.89277 0.0
C799 C 0.188 0.50623 0.91548 0.0
C800 C 0.19194 0.52264 0.99357 0.0
C801 C 0.21607 0.51645 0.04923 0.0
C802 C 0.11741 0.54009 0.81052 0.0
C803 C 0.10395 0.51478 0.77024 0.0
C804 C 0.14478 0.53759 0.85564 0.0
C805 C 0.15979 0.50969 0.86175 0.0
C806 C 0.14664 0.48461 0.81899 0.0
C807 C 0.11935 0.48714 0.77403 0.0
H808 H 0.02437 0.82429 0.23189 0.0
H809 H 0.95902 0.79873 0.4201 0.0
H810 H 0.03674 0.86909 0.31863 0.0
H811 H 0.97182 0.84301 0.50919 0.0
H812 H 0.97688 0.9424 0.6054 0.0
H813 H 0.96613 0.89566 0.52356 0.0
H814 H 0.05845 0.89223 0.43812 0.0
H815 H 0.06848 0.93907 0.51657 0.0
C816 C 0.01369 0.82743 0.29405 0.0
C817 C 0.99152 0.80703 0.32012 0.0
C818 C 0.02051 0.85352 0.34398 0.0
C819 C 1.00528 0.8604 0.42198 0.0
C820 C 0.98388 0.83924 0.44947 0.0
C821 C 0.97701 0.81323 0.39926 0.0
C822 C 0.99465 0.93189 0.56774 0.0
C823 C 0.02339 0.94511 0.56608 0.0
C824 C 0.98868 0.90466 0.52155 0.0
C825 C 1.01132 0.88958 0.47276 0.0
C826 C 0.04004 0.90294 0.47251 0.0
C827 C 0.04592 0.92998 0.51827 0.0
H828 H 0.73171 0.02271 0.31125 0.0
H829 H 0.70959 0.93029 0.3599 0.0
H830 H 0.6902 0.0391 0.40416 0.0
H831 H 0.66682 0.94606 0.44441 0.0
H832 H 0.5947 0.97817 0.62841 0.0
H833 H 0.64159 0.96364 0.55775 0.0
H834 H 0.64057 0.04684 0.41889 0.0
H835 H 0.59495 0.06173 0.4945 0.0
C836 C 0.71823 1.00584 0.3422 0.0
C837 C 0.72408 0.97509 0.32629 0.0
C838 C 0.69374 0.0152 0.39453 0.0
C839 C 0.67395 0.99414 0.43186 0.0
C840 C 0.681 0.96344 0.41891 0.0
C841 C 0.7057 0.95422 0.3687 0.0
C842 C 0.60452 0.99319 0.58234 0.0
C843 C 0.59059 0.02079 0.56556 0.0
C844 C 0.63163 0.98488 0.54107 0.0
C845 C 0.64564 1.00375 0.48066 0.0
C846 C 0.63152 0.03158 0.46531 0.0
C847 C 0.60486 0.04009 0.50803 0.0
H848 H 0.5752 0.76072 0.48341 0.0
H849 H 0.51247 0.73195 0.28792 0.0
H850 H 0.56216 0.71719 0.56886 0.0
H851 H 0.49966 0.68793 0.37188 0.0
H852 H 0.47399 0.61433 0.55766 0.0
H853 H 0.47878 0.66394 0.49515 0.0
H854 H 0.57315 0.66479 0.55929 0.0
H855 H 0.56797 0.61576 0.6244 0.0
C856 C 0.55758 0.74577 0.46052 0.0
C857 C 0.54426 0.75037 0.37989 0.0
C858 C 0.55056 0.72032 0.50858 0.0
C859 C 0.53017 0.69841 0.47714 0.0
C860 C 0.51527 0.70419 0.39914 0.0
C861 C 0.52231 0.72973 0.35112 0.0
C862 C 0.49563 0.62527 0.55998 0.0
C863 C 0.52057 0.61073 0.59624 0.0
C864 C 0.4985 0.65375 0.52303 0.0
C865 C 0.52638 0.66878 0.52159 0.0
C866 C 0.55115 0.65444 0.55981 0.0
C867 C 0.54827 0.62598 0.59647 0.0
H868 H 0.81041 0.50759 0.24764 0.0
H869 H 0.77749 0.57548 0.42551 0.0
H870 H 0.85241 0.49736 0.34401 0.0
H871 H 0.81894 0.56501 0.52348 0.0
H872 H 0.91804 0.57168 0.60961 0.0
H873 H 0.87091 0.57524 0.53107 0.0
H874 H 0.87425 0.47979 0.47361 0.0
H875 H 0.92209 0.4766 0.54988 0.0
C876 C 0.81124 0.51922 0.30959 0.0
C877 C 0.78987 0.54169 0.32974 0.0
C878 C 0.83566 0.51363 0.36487 0.0
C879 C 0.83974 0.53058 0.442 0.0
C880 C 0.81722 0.55177 0.4644 0.0
C881 C 0.79287 0.55733 0.40905 0.0
C882 C 0.90877 0.55137 0.58042 0.0
C883 C 0.92437 0.52388 0.58601 0.0
C884 C 0.88133 0.55333 0.5358 0.0
C885 C 0.86823 0.52782 0.49507 0.0
C886 C 0.88347 0.50011 0.50276 0.0
C887 C 0.91095 0.49818 0.54766 0.0
loop_
_geom_bond_atom_site_label_1
_geom_bond_atom_site_label_2
_geom_bond_distance
_geom_bond_site_symmetry_2
_ccdc_geom_bond_type
H0 C3 0.931 . S
H1 C6 0.928 . S
H2 C8 0.930 . S
C3 H0 0.931 . S
C3 C4 1.413 . S
C3 C5 1.360 . S
C4 C3 1.413 . S
C4 C8 1.429 . S
C5 C3 1.360 . S
C5 C6 1.372 . S
C6 H1 0.928 . S
C6 C5 1.372 . S
C6 C7 1.404 . S
C7 C6 1.404 . S
C7 C8 1.391 . S
C8 H2 0.930 . S
C8 C4 1.429 . S
C8 C7 1.391 . S
H9 C12 0.931 . S
H10 C15 0.928 . S
H11 C17 0.930 . S
C12 H9 0.931 . S
C12 C13 1.413 . S
C12 C14 1.360 . S
C13 C12 1.413 . S
C13 C17 1.429 . S
C14 C12 1.360 . S
C14 C15 1.372 . S
C15 H10 0.928 . S
C15 C14 1.372 . S
C15 C16 1.404 . S
C16 C15 1.404 . S
C16 C17 1.391 . S
C17 H11 0.930 . S
C17 C13 1.429 . S
C17 C16 1.391 . S
H18 C21 0.931 . S
H19 C24 0.928 . S
H20 C26 0.930 . S
C21 H18 0.931 . S
C21 C22 1.413 . S
C21 C23 1.360 . S
C22 C21 1.413 . S
C22 C26 1.429 . S
C23 C21 1.360 . S
C23 C24 1.372 . S
C24 H19 0.928 . S
C24 C23 1.372 . S
C24 C25 1.404 . S
C25 C24 1.404 . S
C25 C26 1.391 . S
C26 H20 0.930 . S
C26 C22 1.429 . S
C26 C25 1.391 . S
H27 C30 0.931 . S
H28 C33 0.928 . S
H29 C35 0.930 . S
C30 H27 0.931 . S
C30 C31 1.413 . S
C30 C32 1.360 . S
C31 C30 1.413 . S
C31 C35 1.429 . S
C32 C30 1.360 . S
C32 C33 1.372 . S
C33 H28 0.928 . S
C33 C32 1.372 . S
C33 C34 1.404 . S
C34 C33 1.404 . S
C34 C35 1.391 . S
C35 H29 0.930 . S
C35 C31 1.429 . S
C35 C34 1.391 . S
H36 C39 0.931 1_556 S
H37 C42 0.928 . S
H38 C44 0.930 . S
C39 H36 0.931 1_554 S
C39 C40 1.413 1_554 S
C39 C41 1.360 . S
C40 C39 1.413 1_556 S
C40 C44 1.429 . S
C41 C39 1.360 . S
C41 C42 1.372 . S
C42 H37 0.928 . S
C42 C41 1.372 . S
C42 C43 1.404 . S
C43 C42 1.404 . S
C43 C44 1.391 1_554 S
C44 H38 0.930 . S
C44 C40 1.429 . S
C44 C43 1.391 1_556 S
H45 C48 0.931 1_556 S
H46 C51 0.928 . S
H47 C53 0.930 . S
C48 H45 0.931 1_554 S
C48 C49 1.413 1_554 S
C48 C50 1.360 . S
C49 C48 1.413 1_556 S
C49 C53 1.429 . S
C50 C48 1.360 . S
C50 C51 1.372 . S
C51 H46 0.928 . S
C51 C50 1.372 . S
C51 C52 1.404 . S
C52 C51 1.404 . S
C52 C53 1.391 1_554 S
C53 H47 0.930 . S
C53 C49 1.429 . S
C53 C52 1.391 1_556 S
H54 C57 0.931 1_556 S
H55 C60 0.928 . S
H56 C62 0.930 . S
C57 H54 0.931 1_554 S
C57 C58 1.413 1_554 S
C57 C59 1.360 . S
C58 C57 1.413 1_556 S
C58 C62 1.429 . S
C59 C57 1.360 . S
C59 C60 1.372 . S
C60 H55 0.928 . S
C60 C59 1.372 . S
C60 C61 1.404 . S
C61 C60 1.404 . S
C61 C62 1.391 1_554 S
C62 H56 0.930 . S
C62 C58 1.429 . S
C62 C61 1.391 1_556 S
H63 C66 0.931 1_556 S
H64 C69 0.928 . S
H65 C71 0.930 . S
C66 H63 0.931 1_554 S
C66 C67 1.413 . S
C66 C68 1.360 1_554 S
C67 C66 1.413 . S
C67 C71 1.429 . S
C68 C66 1.360 1_556 S
C68 C69 1.372 . S
C69 H64 0.928 . S
C69 C68 1.372 . S
C69 C70 1.404 1_556 S
C70 C69 1.404 1_554 S
C70 C71 1.391 . S
C71 H65 0.930 . S
C71 C67 1.429 . S
C71 C70 1.391 . S
Eu72 N103 2.657 1_565 S
Eu72 N110 2.609 . S
Eu72 O116 2.558 . S
Eu72 O117 2.612 1_455 S
Eu72 O119 2.339 1_455 S
Eu72 O120 2.563 . S
Eu72 O121 2.419 . S
Eu72 O123 2.380 1_565 S
Eu72 O124 2.432 . S
Eu72 C136 2.848 . S
C73 C76 1.429 1_545 S
C73 C77 1.411 1_545 S
C73 N80 1.377 . S
C74 C76 1.420 . S
C74 C78 1.423 . S
C74 C86 1.392 . S
C75 C77 1.420 . S
C75 C78 1.351 . S
C75 H98 0.931 . S
C76 C73 1.429 1_565 S
C76 C74 1.420 . S
C76 N84 1.362 . S
C77 C73 1.411 1_565 S
C77 C75 1.420 . S
C77 C82 1.395 1_565 S
C78 C74 1.423 . S
C78 C75 1.351 . S
C78 H90 0.930 . S
C79 C81 1.400 . S
C79 C82 1.386 . S
C79 H91 0.930 . S
N80 C73 1.377 . S
N80 C81 1.321 . S
N80 Eu83 2.609 . S
C81 C79 1.400 . S
C81 N80 1.321 . S
C81 H88 0.930 . S
C82 C77 1.395 1_545 S
C82 C79 1.386 . S
C82 H101 0.930 . S
Eu83 N80 2.609 . S
Eu83 N84 2.657 1_545 S
Eu83 O117 2.380 1_545 S
Eu83 O118 2.432 . S
Eu83 O122 2.558 . S
Eu83 O123 2.612 1_655 S
Eu83 O125 2.339 1_655 S
Eu83 O126 2.551 1_655 S
Eu83 O127 2.419 . S
Eu83 C147 2.848 . S
N84 C76 1.362 . S
N84 Eu83 2.657 1_565 S
N84 C85 1.334 . S
C85 N84 1.334 . S
C85 C87 1.413 . S
C85 H92 0.929 1_655 S
C86 C74 1.392 . S
C86 C87 1.367 . S
C86 H94 0.930 . S
C87 C85 1.413 . S
C87 C86 1.367 . S
C87 H89 0.930 1_655 S
H88 C81 0.930 . S
H89 C87 0.930 1_455 S
H90 C78 0.930 . S
H91 C79 0.930 . S
H92 C85 0.929 1_455 S
H93 C107 0.930 1_654 S
H94 C86 0.930 . S
H95 C113 0.930 . S
H96 C104 0.929 1_655 S
H97 C111 0.930 . S
H98 C75 0.931 . S
H99 C105 0.930 . S
H100 C138 0.930 . S
H101 C82 0.930 . S
H102 C137 0.931 . S
N103 Eu72 2.657 1_545 S
N103 C104 1.334 . S
N103 C108 1.362 . S
C104 H96 0.929 1_455 S
C104 N103 1.334 . S
C104 C107 1.413 . S
C105 H99 0.930 . S
C105 C106 1.392 1_554 S
C105 C107 1.367 1_554 S
C106 C105 1.392 1_556 S
C106 C108 1.420 . S
C106 C138 1.423 1_556 S
C107 H93 0.930 1_456 S
C107 C104 1.413 . S
C107 C105 1.367 1_556 S
C108 N103 1.362 . S
C108 C106 1.420 . S
C108 C112 1.429 . S
H109 C114 0.930 . S
N110 Eu72 2.609 . S
N110 C112 1.377 1_565 S
N110 C113 1.321 . S
C111 H97 0.930 . S
C111 C113 1.400 . S
C111 C114 1.386 1_565 S
C112 C108 1.429 . S
C112 N110 1.377 1_545 S
C112 C115 1.411 . S
C113 H95 0.930 . S
C113 N110 1.321 . S
C113 C111 1.400 . S
C114 H109 0.930 . S
C114 C111 1.386 1_545 S
C114 C115 1.395 . S
C115 C112 1.411 . S
C115 C114 1.395 . S
C115 C137 1.420 . S
O116 Eu72 2.558 . S
O116 C136 1.257 . S
O117 Eu72 2.612 1_655 S
O117 Eu83 2.380 1_565 S
O117 C128 1.276 . S
O118 Eu83 2.432 . S
O118 C135 1.293 . S
O119 Eu72 2.339 1_655 S
O119 C135 1.243 1_565 S
O120 Eu72 2.563 . S
O120 C128 1.235 1_455 S
O121 Eu72 2.419 . S
O121 C136 1.249 . S
O122 Eu83 2.558 . S
O122 C147 1.257 . S
O123 Eu72 2.380 1_545 S
O123 Eu83 2.612 1_455 S
O123 C139 1.276 . S
O124 Eu72 2.432 . S
O124 C146 1.264 1_565 S
O125 Eu83 2.339 1_455 S
O125 C146 1.254 . S
O126 Eu83 2.551 1_455 S
O126 C139 1.258 . S
O127 Eu83 2.419 . S
O127 C147 1.249 . S
C128 O117 1.276 . S
C128 O120 1.235 1_655 S
C129 C131 1.393 . S
C129 C133 1.395 . S
C129 C136 1.492 . S
C130 C131 1.392 . S
C130 C132 1.386 . S
C131 C129 1.393 . S
C131 C130 1.392 . S
C131 H148 0.930 . S
C132 C130 1.386 . S
C132 C134 1.395 . S
C132 H149 0.930 . S
C133 C129 1.395 . S
C133 C134 1.379 . S
C133 H150 0.930 . S
C134 C132 1.395 . S
C134 C133 1.379 . S
C134 H151 0.930 . S
C135 O118 1.293 . S
C135 O119 1.243 1_545 S
C136 Eu72 2.848 . S
C136 O116 1.257 . S
C136 O121 1.249 . S
C136 C129 1.492 . S
C137 H102 0.931 . S
C137 C115 1.420 . S
C137 C138 1.351 1_556 S
C138 H100 0.930 . S
C138 C106 1.423 1_554 S
C138 C137 1.351 1_554 S
C139 O123 1.276 . S
C139 O126 1.258 . S
C140 C141 1.393 . S
C140 C144 1.395 . S
C140 C147 1.492 . S
C141 C140 1.393 . S
C141 C142 1.392 . S
C141 H152 0.930 1_655 S
C142 C141 1.392 . S
C142 C143 1.386 . S
C143 C142 1.386 . S
C143 C145 1.395 . S
C143 H153 0.930 . S
C144 C140 1.395 . S
C144 C145 1.379 . S
C144 H154 0.930 . S
C145 C143 1.395 . S
C145 C144 1.379 . S
C145 H155 0.930 . S
C146 O124 1.264 1_545 S
C146 O125 1.254 . S
C147 Eu83 2.848 . S
C147 O122 1.257 . S
C147 O127 1.249 . S
C147 C140 1.492 . S
H148 C131 0.930 . S
H149 C132 0.930 . S
H150 C133 0.930 . S
H151 C134 0.930 . S
H152 C141 0.930 1_455 S
H153 C143 0.930 . S
H154 C144 0.930 . S
H155 C145 0.930 . S
Eu156 N187 2.657 . S
Eu156 N194 2.609 . S
Eu156 O200 2.558 . S
Eu156 O201 2.612 1_545 S
Eu156 O203 2.339 1_545 S
Eu156 O204 2.563 . S
Eu156 O205 2.419 . S
Eu156 O207 2.380 . S
Eu156 O208 2.432 . S
Eu156 C220 2.848 . S
C157 C160 1.429 . S
C157 C161 1.411 . S
C157 N164 1.377 . S
C158 C160 1.420 . S
C158 C162 1.423 . S
C158 C170 1.392 . S
C159 C161 1.420 . S
C159 C162 1.351 . S
C159 H182 0.931 . S
C160 C157 1.429 . S
C160 C158 1.420 . S
C160 N168 1.362 . S
C161 C157 1.411 . S
C161 C159 1.420 . S
C161 C166 1.395 . S
C162 C158 1.423 . S
C162 C159 1.351 . S
C162 H174 0.930 . S
C163 C165 1.400 . S
C163 C166 1.386 . S
C163 H175 0.930 . S
N164 C157 1.377 . S
N164 C165 1.321 . S
N164 Eu167 2.609 . S
C165 C163 1.400 . S
C165 N164 1.321 . S
C165 H172 0.930 . S
C166 C161 1.395 . S
C166 C163 1.386 . S
C166 H185 0.930 . S
Eu167 N164 2.609 . S
Eu167 N168 2.657 . S
Eu167 O201 2.380 . S
Eu167 O202 2.432 . S
Eu167 O206 2.558 . S
Eu167 O207 2.612 1_565 S
Eu167 O209 2.339 1_565 S
Eu167 O210 2.563 1_565 S
Eu167 O211 2.419 . S
Eu167 C231 2.848 . S
N168 C160 1.362 . S
N168 Eu167 2.657 . S
N168 C169 1.334 1_565 S
C169 N168 1.334 1_545 S
C169 C171 1.412 1_545 S
C169 H176 0.929 . S
C170 C158 1.392 . S
C170 C171 1.391 . S
C170 H178 0.930 . S
C171 C169 1.412 1_565 S
C171 C170 1.391 . S
C171 H173 0.909 1_565 S
H172 C165 0.930 . S
H173 C171 0.909 1_545 S
H174 C162 0.930 . S
H175 C163 0.930 . S
H176 C169 0.929 . S
H177 C191 0.930 1_564 S
H178 C170 0.930 . S
H179 C197 0.930 . S
H180 C188 0.929 1_565 S
H181 C195 0.930 . S
H182 C159 0.931 . S
H183 C189 0.930 . S
H184 C222 0.930 . S
H185 C166 0.930 . S
H186 C221 0.931 . S
N187 Eu156 2.657 . S
N187 C188 1.334 . S
N187 C192 1.362 . S
C188 H180 0.929 1_545 S
C188 N187 1.334 . S
C188 C191 1.413 . S
C189 H183 0.930 . S
C189 C190 1.392 1_554 S
C189 C191 1.367 1_554 S
C190 C189 1.392 1_556 S
C190 C192 1.420 . S
C190 C222 1.423 1_556 S
C191 H177 0.930 1_546 S
C191 C188 1.413 . S
C191 C189 1.367 1_556 S
C192 N187 1.362 . S
C192 C190 1.420 . S
C192 C196 1.429 . S
H193 C198 0.930 . S
N194 Eu156 2.609 . S
N194 C196 1.377 . S
N194 C197 1.321 . S
C195 H181 0.930 . S
C195 C197 1.400 . S
C195 C198 1.386 . S
C196 C192 1.429 . S
C196 N194 1.377 . S
C196 C199 1.411 . S
C197 H179 0.930 . S
C197 N194 1.321 . S
C197 C195 1.400 . S
C198 H193 0.930 . S
C198 C195 1.386 . S
C198 C199 1.395 . S
C199 C196 1.411 . S
C199 C198 1.395 . S
C199 C221 1.420 . S
O200 Eu156 2.558 . S
O200 C220 1.257 . S
O201 Eu156 2.612 1_565 S
O201 Eu167 2.380 . S
O201 C212 1.276 . S
O202 Eu167 2.432 . S
O202 C219 1.264 . S
O203 Eu156 2.339 1_565 S
O203 C219 1.254 . S
O204 Eu156 2.563 . S
O204 C212 1.235 1_545 S
O205 Eu156 2.419 . S
O205 C220 1.249 . S
O206 Eu167 2.558 . S
O206 C231 1.257 . S
O207 Eu156 2.380 . S
O207 Eu167 2.612 1_545 S
O207 C223 1.276 . S
O208 Eu156 2.432 . S
O208 C230 1.264 . S
O209 Eu167 2.339 1_545 S
O209 C230 1.254 . S
O210 Eu167 2.563 1_545 S
O210 C223 1.235 . S
O211 Eu167 2.419 . S
O211 C231 1.249 . S
C212 O201 1.276 . S
C212 O204 1.235 1_565 S
C213 C215 1.393 . S
C213 C217 1.395 . S
C213 C220 1.492 . S
C214 C215 1.392 . S
C214 C216 1.386 . S
C215 C213 1.393 . S
C215 C214 1.392 . S
C215 H232 0.930 . S
C216 C214 1.386 . S
C216 C218 1.395 . S
C216 H233 0.926 1_556 S
C217 C213 1.395 . S
C217 C218 1.379 . S
C217 H234 0.930 . S
C218 C216 1.395 . S
C218 C217 1.379 . S
C218 H235 0.930 . S
C219 O202 1.264 . S
C219 O203 1.254 . S
C220 Eu156 2.848 . S
C220 O200 1.257 . S
C220 O205 1.249 . S
C220 C213 1.492 . S
C221 H186 0.931 . S
C221 C199 1.420 . S
C221 C222 1.351 1_556 S
C222 H184 0.930 . S
C222 C190 1.423 1_554 S
C222 C221 1.351 1_554 S
C223 O207 1.276 . S
C223 O210 1.235 . S
C224 C225 1.393 . S
C224 C228 1.395 . S
C224 C231 1.492 . S
C225 C224 1.393 . S
C225 C226 1.392 . S
C225 H236 0.930 1_565 S
C226 C225 1.392 . S
C226 C227 1.386 . S
C227 C226 1.386 . S
C227 C229 1.395 . S
C227 H237 0.930 . S
C228 C224 1.395 . S
C228 C229 1.379 . S
C228 H238 0.930 . S
C229 C227 1.395 . S
C229 C228 1.379 . S
C229 H239 0.930 . S
C230 O208 1.264 . S
C230 O209 1.254 . S
C231 Eu167 2.848 . S
C231 O206 1.257 . S
C231 O211 1.249 . S
C231 C224 1.492 . S
H232 C215 0.930 . S
H233 C216 0.926 1_554 S
H234 C217 0.930 . S
H235 C218 0.930 . S
H236 C225 0.930 1_545 S
H237 C227 0.930 . S
H238 C228 0.930 . S
H239 C229 0.930 . S
Eu240 N271 2.657 . S
Eu240 N278 2.609 . S
Eu240 O284 2.558 . S
Eu240 O285 2.612 . S
Eu240 O287 2.339 . S
Eu240 O288 2.563 . S
Eu240 O289 2.419 . S
Eu240 O291 2.380 . S
Eu240 O292 2.432 . S
Eu240 C304 2.848 . S
C241 C244 1.429 . S
C241 C245 1.411 . S
C241 N248 1.377 . S
C242 C244 1.420 . S
C242 C246 1.423 . S
C242 C254 1.392 . S
C243 C245 1.420 . S
C243 C246 1.351 . S
C243 H266 0.931 . S
C244 C241 1.429 . S
C244 C242 1.420 . S
C244 N252 1.362 . S
C245 C241 1.411 . S
C245 C243 1.420 . S
C245 C250 1.395 . S
C246 C242 1.423 . S
C246 C243 1.351 . S
C246 H258 0.930 . S
C247 C249 1.400 . S
C247 C250 1.386 . S
C247 H259 0.930 . S
N248 C241 1.377 . S
N248 C249 1.321 . S
N248 Eu251 2.609 . S
C249 C247 1.400 . S
C249 N248 1.321 . S
C249 H256 0.930 . S
C250 C245 1.395 . S
C250 C247 1.386 . S
C250 H269 0.930 . S
Eu251 N248 2.609 . S
Eu251 N252 2.657 . S
Eu251 O285 2.380 . S
Eu251 O286 2.432 . S
Eu251 O290 2.558 . S
Eu251 O291 2.612 . S
Eu251 O293 2.339 . S
Eu251 O294 2.563 . S
Eu251 O295 2.419 . S
Eu251 C315 2.848 . S
N252 C244 1.362 . S
N252 Eu251 2.657 . S
N252 C253 1.334 . S
C253 N252 1.334 . S
C253 C255 1.413 . S
C253 H260 0.929 . S
C254 C242 1.392 . S
C254 C255 1.367 . S
C254 H262 0.930 . S
C255 C253 1.413 . S
C255 C254 1.367 . S
C255 H257 0.930 . S
H256 C249 0.930 . S
H257 C255 0.930 . S
H258 C246 0.930 . S
H259 C247 0.930 . S
H260 C253 0.929 . S
H261 C275 0.930 . S
H262 C254 0.930 . S
H263 C281 0.930 . S
H264 C272 0.929 . S
H265 C279 0.930 . S
H266 C243 0.931 . S
H267 C273 0.930 . S
H268 C306 0.930 . S
H269 C250 0.930 . S
H270 C305 0.931 . S
N271 Eu240 2.657 . S
N271 C272 1.334 . S
N271 C276 1.362 . S
C272 H264 0.929 . S
C272 N271 1.334 . S
C272 C275 1.413 . S
C273 H267 0.930 . S
C273 C274 1.392 . S
C273 C275 1.367 . S
C274 C273 1.392 . S
C274 C276 1.420 . S
C274 C306 1.423 . S
C275 H261 0.930 . S
C275 C272 1.413 . S
C275 C273 1.367 . S
C276 N271 1.362 . S
C276 C274 1.420 . S
C276 C280 1.429 . S
H277 C282 0.930 . S
N278 Eu240 2.609 . S
N278 C280 1.377 . S
N278 C281 1.321 . S
C279 H265 0.930 . S
C279 C281 1.400 . S
C279 C282 1.386 . S
C280 C276 1.429 . S
C280 N278 1.377 . S
C280 C283 1.411 . S
C281 H263 0.930 . S
C281 N278 1.321 . S
C281 C279 1.400 . S
C282 H277 0.930 . S
C282 C279 1.386 . S
C282 C283 1.395 . S
C283 C280 1.411 . S
C283 C282 1.395 . S
C283 C305 1.420 . S
O284 Eu240 2.558 . S
O284 C304 1.257 . S
O285 Eu240 2.612 . S
O285 Eu251 2.380 . S
O285 C296 1.276 . S
O286 Eu251 2.432 . S
O286 C303 1.264 . S
O287 Eu240 2.339 . S
O287 C303 1.254 . S
O288 Eu240 2.563 . S
O288 C296 1.235 . S
O289 Eu240 2.419 . S
O289 C304 1.249 . S
O290 Eu251 2.558 . S
O290 C315 1.257 . S
O291 Eu240 2.380 . S
O291 Eu251 2.612 . S
O291 C307 1.276 . S
O292 Eu240 2.432 . S
O292 C314 1.264 . S
O293 Eu251 2.339 . S
O293 C314 1.254 . S
O294 Eu251 2.563 . S
O294 C307 1.235 . S
O295 Eu251 2.419 . S
O295 C315 1.249 . S
C296 O285 1.276 . S
C296 O288 1.235 . S
C297 C299 1.393 . S
C297 C301 1.395 . S
C297 C304 1.492 . S
C298 C299 1.392 . S
C298 C300 1.386 . S
C299 C297 1.393 . S
C299 C298 1.392 . S
C299 H316 0.930 . S
C300 C298 1.386 . S
C300 C302 1.395 . S
C300 H317 0.930 . S
C301 C297 1.395 . S
C301 C302 1.379 . S
C301 H318 0.930 . S
C302 C300 1.395 . S
C302 C301 1.379 . S
C302 H319 0.930 . S
C303 O286 1.264 . S
C303 O287 1.254 . S
C304 Eu240 2.848 . S
C304 O284 1.257 . S
C304 O289 1.249 . S
C304 C297 1.492 . S
C305 H270 0.931 . S
C305 C283 1.420 . S
C305 C306 1.351 . S
C306 H268 0.930 . S
C306 C274 1.423 . S
C306 C305 1.351 . S
C307 O291 1.276 . S
C307 O294 1.235 . S
C308 C309 1.393 . S
C308 C312 1.395 1_556 S
C308 C315 1.492 . S
C309 C308 1.393 . S
C309 C310 1.392 . S
C309 H320 0.930 . S
C310 C309 1.392 . S
C310 C311 1.386 1_556 S
C311 C310 1.386 1_554 S
C311 C313 1.395 . S
C311 H321 0.930 . S
C312 C308 1.395 1_554 S
C312 C313 1.379 . S
C312 H322 0.930 . S
C313 C311 1.395 . S
C313 C312 1.379 . S
C313 H323 0.930 . S
C314 O292 1.264 . S
C314 O293 1.254 . S
C315 Eu251 2.848 . S
C315 O290 1.257 . S
C315 O295 1.249 . S
C315 C308 1.492 . S
H316 C299 0.930 . S
H317 C300 0.930 . S
H318 C301 0.930 . S
H319 C302 0.930 . S
H320 C309 0.930 . S
H321 C311 0.930 . S
H322 C312 0.930 . S
H323 C313 0.930 . S
Eu324 N355 2.657 . S
Eu324 N362 2.609 . S
Eu324 O368 2.558 . S
Eu324 O369 2.612 . S
Eu324 O371 2.339 . S
Eu324 O372 2.563 . S
Eu324 O373 2.419 . S
Eu324 O375 2.380 1_455 S
Eu324 O376 2.432 1_455 S
Eu324 C388 2.848 . S
C325 C328 1.429 . S
C325 C329 1.411 . S
C325 N332 1.377 . S
C326 C328 1.420 . S
C326 C330 1.423 . S
C326 C338 1.392 . S
C327 C329 1.420 . S
C327 C330 1.351 . S
C327 H350 0.931 . S
C328 C325 1.429 . S
C328 C326 1.420 . S
C328 N336 1.362 . S
C329 C325 1.411 . S
C329 C327 1.420 . S
C329 C334 1.388 1_655 S
C330 C326 1.423 . S
C330 C327 1.351 . S
C330 H342 0.930 . S
C331 C333 1.400 . S
C331 C334 1.392 . S
C331 H343 0.930 . S
N332 C325 1.377 . S
N332 C333 1.321 1_655 S
N332 Eu335 2.609 . S
C333 C331 1.400 . S
C333 N332 1.321 1_455 S
C333 H340 0.930 . S
C334 C329 1.388 1_455 S
C334 C331 1.392 . S
C334 H353 0.931 . S
Eu335 N332 2.609 . S
Eu335 N336 2.657 . S
Eu335 O369 2.380 1_655 S
Eu335 O370 2.432 1_655 S
Eu335 O374 2.558 . S
Eu335 O375 2.612 . S
Eu335 O377 2.339 . S
Eu335 O378 2.563 . S
Eu335 O379 2.419 . S
Eu335 C399 2.848 . S
N336 C328 1.362 . S
N336 Eu335 2.657 . S
N336 C337 1.334 . S
C337 N336 1.334 . S
C337 C339 1.413 . S
C337 H344 0.929 . S
C338 C326 1.392 . S
C338 C339 1.367 . S
C338 H346 0.930 . S
C339 C337 1.413 . S
C339 C338 1.367 . S
C339 H341 0.930 . S
H340 C333 0.930 . S
H341 C339 0.930 . S
H342 C330 0.930 . S
H343 C331 0.930 . S
H344 C337 0.929 . S
H345 C359 0.930 . S
H346 C338 0.930 . S
H347 C365 0.930 . S
H348 C356 0.929 . S
H349 C363 0.930 . S
H350 C327 0.931 . S
H351 C357 0.930 . S
H352 C390 0.930 . S
H353 C334 0.931 . S
H354 C389 0.931 . S
N355 Eu324 2.657 . S
N355 C356 1.334 . S
N355 C360 1.362 . S
C356 H348 0.929 . S
C356 N355 1.334 . S
C356 C359 1.413 . S
C357 H351 0.930 . S
C357 C358 1.392 . S
C357 C359 1.367 . S
C358 C357 1.392 . S
C358 C360 1.420 . S
C358 C390 1.423 . S
C359 H345 0.930 . S
C359 C356 1.413 . S
C359 C357 1.367 . S
C360 N355 1.362 . S
C360 C358 1.420 . S
C360 C364 1.429 . S
H361 C366 0.930 . S
N362 Eu324 2.609 . S
N362 C364 1.377 . S
N362 C365 1.321 1_455 S
C363 H349 0.930 . S
C363 C365 1.400 . S
C363 C366 1.386 1_655 S
C364 C360 1.429 . S
C364 N362 1.377 . S
C364 C367 1.411 . S
C365 H347 0.930 . S
C365 N362 1.321 1_655 S
C365 C363 1.400 . S
C366 H361 0.930 . S
C366 C363 1.386 1_455 S
C366 C367 1.395 . S
C367 C364 1.411 . S
C367 C366 1.395 . S
C367 C389 1.420 . S
O368 Eu324 2.558 . S
O368 C388 1.257 . S
O369 Eu324 2.612 . S
O369 Eu335 2.380 1_455 S
O369 C380 1.276 . S
O370 Eu335 2.432 1_455 S
O370 C387 1.264 . S
O371 Eu324 2.339 . S
O371 C387 1.254 . S
O372 Eu324 2.563 . S
O372 C380 1.235 . S
O373 Eu324 2.419 . S
O373 C388 1.249 . S
O374 Eu335 2.558 . S
O374 C399 1.257 . S
O375 Eu324 2.380 1_655 S
O375 Eu335 2.612 . S
O375 C391 1.276 . S
O376 Eu324 2.432 1_655 S
O376 C398 1.264 . S
O377 Eu335 2.339 . S
O377 C398 1.254 . S
O378 Eu335 2.563 . S
O378 C391 1.235 . S
O379 Eu335 2.419 . S
O379 C399 1.249 . S
C380 O369 1.276 . S
C380 O372 1.235 . S
C381 C383 1.393 . S
C381 C385 1.395 . S
C381 C388 1.492 . S
C382 C383 1.392 . S
C382 C384 1.386 . S
C383 C381 1.393 . S
C383 C382 1.392 . S
C383 H400 0.930 . S
C384 C382 1.386 . S
C384 C386 1.395 . S
C384 H401 0.930 . S
C385 C381 1.395 . S
C385 C386 1.379 . S
C385 H402 0.930 . S
C386 C384 1.395 . S
C386 C385 1.379 . S
C386 H403 0.930 . S
C387 O370 1.264 . S
C387 O371 1.254 . S
C388 Eu324 2.848 . S
C388 O368 1.257 . S
C388 O373 1.249 . S
C388 C381 1.492 . S
C389 H354 0.931 . S
C389 C367 1.420 . S
C389 C390 1.351 . S
C390 H352 0.930 . S
C390 C358 1.423 . S
C390 C389 1.351 . S
C391 O375 1.276 . S
C391 O378 1.235 . S
C392 C393 1.393 . S
C392 C396 1.395 1_556 S
C392 C399 1.492 . S
C393 C392 1.393 . S
C393 C394 1.392 . S
C393 H404 0.930 . S
C394 C393 1.392 . S
C394 C395 1.386 1_556 S
C395 C394 1.386 1_554 S
C395 C397 1.395 . S
C395 H405 0.930 . S
C396 C392 1.395 1_554 S
C396 C397 1.379 . S
C396 H406 0.930 . S
C397 C395 1.395 . S
C397 C396 1.379 . S
C397 H407 0.930 . S
C398 O376 1.264 . S
C398 O377 1.254 . S
C399 Eu335 2.848 . S
C399 O374 1.257 . S
C399 O379 1.249 . S
C399 C392 1.492 . S
H400 C383 0.930 . S
H401 C384 0.930 . S
H402 C385 0.930 . S
H403 C386 0.930 . S
H404 C393 0.930 . S
H405 C395 0.930 . S
H406 C396 0.930 . S
H407 C397 0.930 . S
H408 C416 0.950 . S
H409 C421 0.950 . S
H410 C418 0.950 . S
H411 C420 0.950 . S
H412 C422 0.950 . S
H413 C424 0.950 . S
H414 C426 0.950 . S
H415 C427 0.950 . S
C416 H408 0.950 . S
C416 C417 1.386 . S
C416 C418 1.391 . S
C417 C416 1.386 . S
C417 C421 1.393 . S
C418 H410 0.950 . S
C418 C416 1.391 . S
C418 C419 1.400 . S
C419 C418 1.400 . S
C419 C420 1.398 . S
C419 C425 1.491 . S
C420 H411 0.950 . S
C420 C419 1.398 . S
C420 C421 1.391 . S
C421 H409 0.950 . S
C421 C417 1.393 . S
C421 C420 1.391 . S
C422 H412 0.950 . S
C422 C423 1.386 . S
C422 C424 1.391 . S
C423 C422 1.386 . S
C423 C427 1.393 . S
C424 H413 0.950 . S
C424 C422 1.391 . S
C424 C425 1.400 . S
C425 C419 1.491 . S
C425 C424 1.400 . S
C425 C426 1.398 . S
C426 H414 0.950 . S
C426 C425 1.398 . S
C426 C427 1.391 . S
C427 H415 0.950 . S
C427 C423 1.393 . S
C427 C426 1.391 . S
H428 C436 0.950 . S
H429 C441 0.950 . S
H430 C438 0.950 . S
H431 C440 0.950 . S
H432 C442 0.950 . S
H433 C444 0.950 . S
H434 C446 0.950 . S
H435 C447 0.950 . S
C436 H428 0.950 . S
C436 C437 1.386 . S
C436 C438 1.391 . S
C437 C436 1.386 . S
C437 C441 1.393 . S
C438 H430 0.950 . S
C438 C436 1.391 . S
C438 C439 1.400 . S
C439 C438 1.400 . S
C439 C440 1.398 . S
C439 C445 1.491 . S
C440 H431 0.950 . S
C440 C439 1.398 . S
C440 C441 1.391 . S
C441 H429 0.950 . S
C441 C437 1.393 . S
C441 C440 1.391 . S
C442 H432 0.950 . S
C442 C443 1.386 . S
C442 C444 1.391 . S
C443 C442 1.386 . S
C443 C447 1.393 . S
C444 H433 0.950 . S
C444 C442 1.391 . S
C444 C445 1.400 . S
C445 C439 1.491 . S
C445 C444 1.400 . S
C445 C446 1.398 . S
C446 H434 0.950 . S
C446 C445 1.398 . S
C446 C447 1.391 . S
C447 H435 0.950 . S
C447 C443 1.393 . S
C447 C446 1.391 . S
H448 C456 0.950 . S
H449 C461 0.950 . S
H450 C458 0.950 . S
H451 C460 0.950 . S
H452 C462 0.950 . S
H453 C464 0.950 . S
H454 C466 0.950 . S
H455 C467 0.950 . S
C456 H448 0.950 . S
C456 C457 1.386 . S
C456 C458 1.391 . S
C457 C456 1.386 . S
C457 C461 1.393 . S
C458 H450 0.950 . S
C458 C456 1.391 . S
C458 C459 1.400 . S
C459 C458 1.400 . S
C459 C460 1.398 . S
C459 C465 1.491 . S
C460 H451 0.950 . S
C460 C459 1.398 . S
C460 C461 1.391 . S
C461 H449 0.950 . S
C461 C457 1.393 . S
C461 C460 1.391 . S
C462 H452 0.950 . S
C462 C463 1.386 . S
C462 C464 1.391 . S
C463 C462 1.386 . S
C463 C467 1.393 . S
C464 H453 0.950 . S
C464 C462 1.391 . S
C464 C465 1.400 . S
C465 C459 1.491 . S
C465 C464 1.400 . S
C465 C466 1.398 . S
C466 H454 0.950 . S
C466 C465 1.398 . S
C466 C467 1.391 . S
C467 H455 0.950 . S
C467 C463 1.393 . S
C467 C466 1.391 . S
H468 C476 0.950 . S
H469 C481 0.950 . S
H470 C478 0.950 . S
H471 C480 0.950 . S
H472 C482 0.950 . S
H473 C484 0.950 . S
H474 C486 0.950 . S
H475 C487 0.950 . S
C476 H468 0.950 . S
C476 C477 1.386 . S
C476 C478 1.391 . S
C477 C476 1.386 . S
C477 C481 1.393 . S
C478 H470 0.950 . S
C478 C476 1.391 . S
C478 C479 1.400 . S
C479 C478 1.400 . S
C479 C480 1.398 . S
C479 C485 1.491 . S
C480 H471 0.950 . S
C480 C479 1.398 . S
C480 C481 1.391 . S
C481 H469 0.950 . S
C481 C477 1.393 . S
C481 C480 1.391 . S
C482 H472 0.950 . S
C482 C483 1.386 . S
C482 C484 1.391 . S
C483 C482 1.386 . S
C483 C487 1.393 . S
C484 H473 0.950 . S
C484 C482 1.391 . S
C484 C485 1.400 . S
C485 C479 1.491 . S
C485 C484 1.400 . S
C485 C486 1.398 . S
C486 H474 0.950 . S
C486 C485 1.398 . S
C486 C487 1.391 . S
C487 H475 0.950 . S
C487 C483 1.393 . S
C487 C486 1.391 . S
H488 C496 0.950 . S
H489 C501 0.920 1_545 S
H490 C498 0.950 . S
H491 C500 0.950 1_545 S
H492 C502 0.950 . S
H493 C504 0.950 . S
H494 C506 0.950 . S
H495 C507 0.950 . S
C496 H488 0.950 . S
C496 C497 1.386 . S
C496 C498 1.391 . S
C497 C496 1.386 . S
C497 C501 1.393 . S
C498 H490 0.950 . S
C498 C496 1.391 . S
C498 C499 1.400 . S
C499 C498 1.400 . S
C499 C500 1.398 . S
C499 C505 1.491 1_554 S
C500 H491 0.950 1_565 S
C500 C499 1.398 . S
C500 C501 1.391 . S
C501 H489 0.920 1_565 S
C501 C497 1.393 . S
C501 C500 1.391 . S
C502 H492 0.950 . S
C502 C503 1.386 1_545 S
C502 C504 1.391 . S
C503 C502 1.386 1_565 S
C503 C507 1.393 . S
C504 H493 0.950 . S
C504 C502 1.391 . S
C504 C505 1.400 1_545 S
C505 C499 1.491 1_556 S
C505 C504 1.400 1_565 S
C505 C506 1.398 . S
C506 H494 0.950 . S
C506 C505 1.398 . S
C506 C507 1.391 . S
C507 H495 0.950 . S
C507 C503 1.393 . S
C507 C506 1.391 . S
H508 C516 0.950 . S
H509 C521 0.950 . S
H510 C518 0.950 . S
H511 C520 0.950 . S
H512 C522 0.950 . S
H513 C524 0.950 1_554 S
H514 C526 0.950 . S
H515 C527 0.950 . S
C516 H508 0.950 . S
C516 C517 1.386 . S
C516 C518 1.391 . S
C517 C516 1.386 . S
C517 C521 1.393 . S
C518 H510 0.950 . S
C518 C516 1.391 . S
C518 C519 1.400 . S
C519 C518 1.400 . S
C519 C520 1.398 . S
C519 C525 1.491 1_554 S
C520 H511 0.950 . S
C520 C519 1.398 . S
C520 C521 1.391 . S
C521 H509 0.950 . S
C521 C517 1.393 . S
C521 C520 1.391 . S
C522 H512 0.950 . S
C522 C523 1.386 . S
C522 C524 1.391 . S
C523 C522 1.386 . S
C523 C527 1.393 . S
C524 H513 0.950 1_556 S
C524 C522 1.391 . S
C524 C525 1.400 . S
C525 C519 1.491 1_556 S
C525 C524 1.400 . S
C525 C526 1.398 . S
C526 H514 0.950 . S
C526 C525 1.398 . S
C526 C527 1.391 . S
C527 H515 0.950 . S
C527 C523 1.393 . S
C527 C526 1.391 . S
H528 C536 0.950 . S
H529 C541 0.950 . S
H530 C538 0.950 . S
H531 C540 0.950 1_556 S
H532 C542 0.950 . S
H533 C544 0.950 . S
H534 C546 0.950 1_554 S
H535 C547 0.950 . S
C536 H528 0.950 . S
C536 C537 1.386 . S
C536 C538 1.391 . S
C537 C536 1.386 . S
C537 C541 1.393 . S
C538 H530 0.950 . S
C538 C536 1.391 . S
C538 C539 1.400 . S
C539 C538 1.400 . S
C539 C540 1.398 . S
C539 C545 1.491 1_554 S
C540 H531 0.950 1_554 S
C540 C539 1.398 . S
C540 C541 1.391 . S
C541 H529 0.950 . S
C541 C537 1.393 . S
C541 C540 1.391 . S
C542 H532 0.950 . S
C542 C543 1.386 . S
C542 C544 1.391 . S
C543 C542 1.386 . S
C543 C547 1.393 . S
C544 H533 0.950 . S
C544 C542 1.391 . S
C544 C545 1.400 . S
C545 C539 1.491 1_556 S
C545 C544 1.400 . S
C545 C546 1.398 . S
C546 H534 0.950 1_556 S
C546 C545 1.398 . S
C546 C547 1.391 . S
C547 H535 0.950 . S
C547 C543 1.393 . S
C547 C546 1.391 . S
H548 C556 0.950 . S
H549 C561 0.950 . S
H550 C558 0.950 . S
H551 C560 0.950 . S
H552 C562 0.950 . S
H553 C564 0.950 . S
H554 C566 0.950 1_454 S
H555 C567 0.950 . S
C556 H548 0.950 . S
C556 C557 1.386 . S
C556 C558 1.391 . S
C557 C556 1.386 . S
C557 C561 1.393 . S
C558 H550 0.950 . S
C558 C556 1.391 . S
C558 C559 1.400 . S
C559 C558 1.400 . S
C559 C560 1.398 . S
C559 C565 1.491 1_554 S
C560 H551 0.950 . S
C560 C559 1.398 . S
C560 C561 1.391 . S
C561 H549 0.950 . S
C561 C557 1.393 . S
C561 C560 1.391 . S
C562 H552 0.950 . S
C562 C563 1.386 . S
C562 C564 1.391 . S
C563 C562 1.386 . S
C563 C567 1.393 1_655 S
C564 H553 0.950 . S
C564 C562 1.391 . S
C564 C565 1.400 . S
C565 C559 1.491 1_556 S
C565 C564 1.400 . S
C565 C566 1.398 . S
C566 H554 0.950 1_656 S
C566 C565 1.398 . S
C566 C567 1.391 1_655 S
C567 H555 0.950 . S
C567 C563 1.393 1_455 S
C567 C566 1.391 1_455 S
H568 C576 0.950 . S
H569 C581 0.950 . S
H570 C578 0.950 . S
H571 C580 0.950 . S
H572 C582 0.950 . S
H573 C584 0.950 . S
H574 C586 0.950 . S
H575 C587 0.950 . S
C576 H568 0.950 . S
C576 C577 1.386 . S
C576 C578 1.391 . S
C577 C576 1.386 . S
C577 C581 1.393 . S
C578 H570 0.950 . S
C578 C576 1.391 . S
C578 C579 1.400 . S
C579 C578 1.400 . S
C579 C580 1.398 . S
C579 C585 1.491 . S
C580 H571 0.950 . S
C580 C579 1.398 . S
C580 C581 1.391 . S
C581 H569 0.950 . S
C581 C577 1.393 . S
C581 C580 1.391 . S
C582 H572 0.950 . S
C582 C583 1.386 . S
C582 C584 1.391 . S
C583 C582 1.386 . S
C583 C587 1.393 1_655 S
C584 H573 0.950 . S
C584 C582 1.391 . S
C584 C585 1.400 1_655 S
C585 C579 1.491 . S
C585 C584 1.400 1_455 S
C585 C586 1.398 . S
C586 H574 0.950 . S
C586 C585 1.398 . S
C586 C587 1.391 . S
C587 H575 0.950 . S
C587 C583 1.393 1_455 S
C587 C586 1.391 . S
H588 C596 0.950 . S
H589 C601 0.950 . S
H590 C598 0.950 . S
H591 C600 0.950 . S
H592 C602 0.953 . S
H593 C604 0.950 . S
H594 C606 0.950 . S
H595 C607 0.950 1_565 S
C596 H588 0.950 . S
C596 C597 1.386 . S
C596 C598 1.391 . S
C597 C596 1.386 . S
C597 C601 1.393 . S
C598 H590 0.950 . S
C598 C596 1.391 . S
C598 C599 1.400 . S
C599 C598 1.400 . S
C599 C600 1.398 . S
C599 C605 1.491 . S
C600 H591 0.950 . S
C600 C599 1.398 . S
C600 C601 1.391 . S
C601 H589 0.950 . S
C601 C597 1.393 . S
C601 C600 1.391 . S
C602 H592 0.953 . S
C602 C603 1.389 . S
C602 C604 1.386 1_565 S
C603 C602 1.389 . S
C603 C607 1.393 1_565 S
C604 H593 0.950 . S
C604 C602 1.386 1_545 S
C604 C605 1.400 . S
C605 C599 1.491 . S
C605 C604 1.400 . S
C605 C606 1.398 . S
C606 H594 0.950 . S
C606 C605 1.398 . S
C606 C607 1.391 . S
C607 H595 0.950 1_545 S
C607 C603 1.393 1_545 S
C607 C606 1.391 . S
H608 C616 0.950 . S
H609 C621 0.950 . S
H610 C618 0.950 . S
H611 C620 0.950 . S
H612 C622 0.950 . S
H613 C624 0.950 . S
H614 C626 0.950 . S
H615 C627 0.950 . S
C616 H608 0.950 . S
C616 C617 1.386 . S
C616 C618 1.391 . S
C617 C616 1.386 . S
C617 C621 1.393 . S
C618 H610 0.950 . S
C618 C616 1.391 . S
C618 C619 1.400 . S
C619 C618 1.400 . S
C619 C620 1.398 . S
C619 C625 1.491 . S
C620 H611 0.950 . S
C620 C619 1.398 . S
C620 C621 1.391 . S
C621 H609 0.950 . S
C621 C617 1.393 . S
C621 C620 1.391 . S
C622 H612 0.950 . S
C622 C623 1.386 . S
C622 C624 1.391 . S
C623 C622 1.386 . S
C623 C627 1.393 . S
C624 H613 0.950 . S
C624 C622 1.391 . S
C624 C625 1.400 . S
C625 C619 1.491 . S
C625 C624 1.400 . S
C625 C626 1.398 . S
C626 H614 0.950 . S
C626 C625 1.398 . S
C626 C627 1.391 . S
C627 H615 0.950 . S
C627 C623 1.393 . S
C627 C626 1.391 . S
H628 C636 0.950 . S
H629 C641 0.950 . S
H630 C638 0.950 . S
H631 C640 0.950 . S
H632 C642 0.950 . S
H633 C644 0.950 . S
H634 C646 0.950 . S
H635 C647 0.950 . S
C636 H628 0.950 . S
C636 C637 1.386 . S
C636 C638 1.391 . S
C637 C636 1.386 . S
C637 C641 1.393 . S
C638 H630 0.950 . S
C638 C636 1.391 . S
C638 C639 1.400 . S
C639 C638 1.400 . S
C639 C640 1.398 . S
C639 C645 1.491 . S
C640 H631 0.950 . S
C640 C639 1.398 . S
C640 C641 1.391 . S
C641 H629 0.950 . S
C641 C637 1.393 . S
C641 C640 1.391 . S
C642 H632 0.950 . S
C642 C643 1.386 . S
C642 C644 1.391 . S
C643 C642 1.386 . S
C643 C647 1.393 . S
C644 H633 0.950 . S
C644 C642 1.391 . S
C644 C645 1.400 . S
C645 C639 1.491 . S
C645 C644 1.400 . S
C645 C646 1.398 . S
C646 H634 0.950 . S
C646 C645 1.398 . S
C646 C647 1.391 . S
C647 H635 0.950 . S
C647 C643 1.393 . S
C647 C646 1.391 . S
H648 C656 0.950 . S
H649 C661 0.950 . S
H650 C658 0.950 . S
H651 C660 0.950 . S
H652 C662 0.950 . S
H653 C664 0.950 . S
H654 C666 0.950 . S
H655 C667 0.950 . S
C656 H648 0.950 . S
C656 C657 1.386 . S
C656 C658 1.391 . S
C657 C656 1.386 . S
C657 C661 1.393 . S
C658 H650 0.950 . S
C658 C656 1.391 . S
C658 C659 1.400 . S
C659 C658 1.400 . S
C659 C660 1.398 . S
C659 C665 1.491 . S
C660 H651 0.950 . S
C660 C659 1.398 . S
C660 C661 1.391 . S
C661 H649 0.950 . S
C661 C657 1.393 . S
C661 C660 1.391 . S
C662 H652 0.950 . S
C662 C663 1.386 . S
C662 C664 1.391 1_455 S
C663 C662 1.386 . S
C663 C667 1.393 1_556 S
C664 H653 0.950 . S
C664 C662 1.391 1_655 S
C664 C665 1.400 1_556 S
C665 C659 1.491 . S
C665 C664 1.400 1_554 S
C665 C666 1.398 . S
C666 H654 0.950 . S
C666 C665 1.398 . S
C666 C667 1.391 1_655 S
C667 H655 0.950 . S
C667 C663 1.393 1_554 S
C667 C666 1.391 1_455 S
H668 C676 0.950 . S
H669 C681 0.950 . S
H670 C678 0.950 1_545 S
H671 C680 0.950 . S
H672 C682 0.950 . S
H673 C684 0.950 . S
H674 C686 0.950 . S
H675 C687 0.950 . S
C676 H668 0.950 . S
C676 C677 1.386 . S
C676 C678 1.391 . S
C677 C676 1.386 . S
C677 C681 1.393 . S
C678 H670 0.950 1_565 S
C678 C676 1.391 . S
C678 C679 1.400 . S
C679 C678 1.400 . S
C679 C680 1.398 . S
C679 C685 1.491 . S
C680 H671 0.950 . S
C680 C679 1.398 . S
C680 C681 1.391 . S
C681 H669 0.950 . S
C681 C677 1.393 . S
C681 C680 1.391 . S
C682 H672 0.950 . S
C682 C683 1.386 1_565 S
C682 C684 1.391 1_556 S
C683 C682 1.386 1_545 S
C683 C687 1.393 . S
C684 H673 0.950 . S
C684 C682 1.391 1_554 S
C684 C685 1.400 . S
C685 C679 1.491 . S
C685 C684 1.400 . S
C685 C686 1.398 1_565 S
C686 H674 0.950 . S
C686 C685 1.398 1_545 S
C686 C687 1.391 1_554 S
C687 H675 0.950 . S
C687 C683 1.393 . S
C687 C686 1.391 1_556 S
H688 C696 0.950 . S
H689 C701 0.950 . S
H690 C698 0.950 . S
H691 C700 0.950 . S
H692 C702 0.950 . S
H693 C704 0.950 . S
H694 C706 0.950 . S
H695 C707 0.950 . S
C696 H688 0.950 . S
C696 C697 1.386 . S
C696 C698 1.391 . S
C697 C696 1.386 . S
C697 C701 1.393 . S
C698 H690 0.950 . S
C698 C696 1.391 . S
C698 C699 1.400 . S
C699 C698 1.400 . S
C699 C700 1.398 . S
C699 C705 1.491 . S
C700 H691 0.950 . S
C700 C699 1.398 . S
C700 C701 1.391 . S
C701 H689 0.950 . S
C701 C697 1.393 . S
C701 C700 1.391 . S
C702 H692 0.950 . S
C702 C703 1.386 . S
C702 C704 1.391 . S
C703 C702 1.386 . S
C703 C707 1.393 1_556 S
C704 H693 0.950 . S
C704 C702 1.391 . S
C704 C705 1.400 1_556 S
C705 C699 1.491 . S
C705 C704 1.400 1_554 S
C705 C706 1.398 . S
C706 H694 0.950 . S
C706 C705 1.398 . S
C706 C707 1.391 . S
C707 H695 0.950 . S
C707 C703 1.393 1_554 S
C707 C706 1.391 . S
H708 C716 0.950 . S
H709 C721 0.950 . S
H710 C718 0.950 . S
H711 C720 0.950 . S
H712 C722 0.950 . S
H713 C724 0.950 . S
H714 C726 0.950 . S
H715 C727 0.950 . S
C716 H708 0.950 . S
C716 C717 1.386 . S
C716 C718 1.391 . S
C717 C716 1.386 . S
C717 C721 1.393 . S
C718 H710 0.950 . S
C718 C716 1.391 . S
C718 C719 1.400 . S
C719 C718 1.400 . S
C719 C720 1.398 . S
C719 C725 1.491 . S
C720 H711 0.950 . S
C720 C719 1.398 . S
C720 C721 1.391 . S
C721 H709 0.950 . S
C721 C717 1.393 . S
C721 C720 1.391 . S
C722 H712 0.950 . S
C722 C723 1.386 1_554 S
C722 C724 1.391 . S
C723 C722 1.386 1_556 S
C723 C727 1.393 . S
C724 H713 0.950 . S
C724 C722 1.391 . S
C724 C725 1.400 . S
C725 C719 1.491 . S
C725 C724 1.400 . S
C725 C726 1.398 1_554 S
C726 H714 0.950 . S
C726 C725 1.398 1_556 S
C726 C727 1.391 . S
C727 H715 0.950 . S
C727 C723 1.393 . S
C727 C726 1.391 . S
H728 C736 0.950 . S
H729 C741 0.950 . S
H730 C738 0.950 . S
H731 C740 0.950 . S
H732 C742 0.950 . S
H733 C744 0.950 . S
H734 C746 0.950 . S
H735 C747 0.950 . S
C736 H728 0.950 . S
C736 C737 1.386 . S
C736 C738 1.391 . S
C737 C736 1.386 . S
C737 C741 1.393 . S
C738 H730 0.950 . S
C738 C736 1.391 . S
C738 C739 1.400 . S
C739 C738 1.400 . S
C739 C740 1.398 . S
C739 C745 1.491 . S
C740 H731 0.950 . S
C740 C739 1.398 . S
C740 C741 1.391 . S
C741 H729 0.950 . S
C741 C737 1.393 . S
C741 C740 1.391 . S
C742 H732 0.950 . S
C742 C743 1.386 . S
C742 C744 1.391 . S
C743 C742 1.386 . S
C743 C747 1.393 . S
C744 H733 0.950 . S
C744 C742 1.391 . S
C744 C745 1.400 . S
C745 C739 1.491 . S
C745 C744 1.400 . S
C745 C746 1.398 . S
C746 H734 0.950 . S
C746 C745 1.398 . S
C746 C747 1.391 . S
C747 H735 0.950 . S
C747 C743 1.393 . S
C747 C746 1.391 . S
H748 C756 0.950 . S
H749 C761 0.950 . S
H750 C758 0.950 . S
H751 C760 0.950 . S
H752 C762 0.950 . S
H753 C764 0.950 . S
H754 C766 0.950 . S
H755 C767 0.950 . S
C756 H748 0.950 . S
C756 C757 1.386 . S
C756 C758 1.391 . S
C757 C756 1.386 . S
C757 C761 1.393 . S
C758 H750 0.950 . S
C758 C756 1.391 . S
C758 C759 1.400 . S
C759 C758 1.400 . S
C759 C760 1.398 . S
C759 C765 1.491 . S
C760 H751 0.950 . S
C760 C759 1.398 . S
C760 C761 1.391 . S
C761 H749 0.950 . S
C761 C757 1.393 . S
C761 C760 1.391 . S
C762 H752 0.950 . S
C762 C763 1.386 . S
C762 C764 1.391 . S
C763 C762 1.386 . S
C763 C767 1.393 . S
C764 H753 0.950 . S
C764 C762 1.391 . S
C764 C765 1.400 . S
C765 C759 1.491 . S
C765 C764 1.400 . S
C765 C766 1.398 . S
C766 H754 0.950 . S
C766 C765 1.398 . S
C766 C767 1.391 . S
C767 H755 0.950 . S
C767 C763 1.393 . S
C767 C766 1.391 . S
H768 C776 0.950 . S
H769 C781 0.950 . S
H770 C778 0.950 . S
H771 C780 0.950 . S
H772 C782 0.950 . S
H773 C784 0.950 . S
H774 C786 0.950 . S
H775 C787 0.950 . S
C776 H768 0.950 . S
C776 C777 1.386 . S
C776 C778 1.391 . S
C777 C776 1.386 . S
C777 C781 1.393 . S
C778 H770 0.950 . S
C778 C776 1.391 . S
C778 C779 1.400 . S
C779 C778 1.400 . S
C779 C780 1.398 . S
C779 C785 1.491 . S
C780 H771 0.950 . S
C780 C779 1.398 . S
C780 C781 1.391 . S
C781 H769 0.950 . S
C781 C777 1.393 . S
C781 C780 1.391 . S
C782 H772 0.950 . S
C782 C783 1.386 . S
C782 C784 1.391 . S
C783 C782 1.386 . S
C783 C787 1.393 . S
C784 H773 0.950 . S
C784 C782 1.391 . S
C784 C785 1.400 . S
C785 C779 1.491 . S
C785 C784 1.400 . S
C785 C786 1.398 . S
C786 H774 0.950 . S
C786 C785 1.398 . S
C786 C787 1.391 . S
C787 H775 0.950 . S
C787 C783 1.393 . S
C787 C786 1.391 . S
H788 C796 0.950 . S
H789 C801 0.950 . S
H790 C798 0.950 . S
H791 C800 0.950 . S
H792 C802 0.950 . S
H793 C804 0.950 . S
H794 C806 0.950 . S
H795 C807 0.950 . S
C796 H788 0.950 . S
C796 C797 1.386 . S
C796 C798 1.391 . S
C797 C796 1.386 . S
C797 C801 1.393 . S
C798 H790 0.950 . S
C798 C796 1.391 . S
C798 C799 1.400 . S
C799 C798 1.400 . S
C799 C800 1.398 . S
C799 C805 1.491 . S
C800 H791 0.950 . S
C800 C799 1.398 . S
C800 C801 1.391 . S
C801 H789 0.950 . S
C801 C797 1.393 . S
C801 C800 1.391 . S
C802 H792 0.950 . S
C802 C803 1.386 . S
C802 C804 1.391 . S
C803 C802 1.386 . S
C803 C807 1.393 . S
C804 H793 0.950 . S
C804 C802 1.391 . S
C804 C805 1.400 . S
C805 C799 1.491 . S
C805 C804 1.400 . S
C805 C806 1.398 . S
C806 H794 0.950 . S
C806 C805 1.398 . S
C806 C807 1.391 . S
C807 H795 0.950 . S
C807 C803 1.393 . S
C807 C806 1.391 . S
H808 C816 0.950 . S
H809 C821 0.950 . S
H810 C818 0.962 . S
H811 C820 0.950 . S
H812 C822 0.950 . S
H813 C824 0.950 . S
H814 C826 0.950 1_455 S
H815 C827 0.950 1_455 S
C816 H808 0.950 . S
C816 C817 1.386 . S
C816 C818 1.391 . S
C817 C816 1.386 . S
C817 C821 1.393 . S
C818 H810 0.962 . S
C818 C816 1.391 . S
C818 C819 1.400 . S
C819 C818 1.400 . S
C819 C820 1.398 . S
C819 C825 1.491 . S
C820 H811 0.950 . S
C820 C819 1.398 . S
C820 C821 1.391 . S
C821 H809 0.950 . S
C821 C817 1.393 . S
C821 C820 1.391 . S
C822 H812 0.950 . S
C822 C823 1.386 . S
C822 C824 1.391 . S
C823 C822 1.386 . S
C823 C827 1.393 . S
C824 H813 0.950 . S
C824 C822 1.391 . S
C824 C825 1.400 . S
C825 C819 1.491 . S
C825 C824 1.400 . S
C825 C826 1.398 . S
C826 H814 0.950 1_655 S
C826 C825 1.398 . S
C826 C827 1.391 . S
C827 H815 0.950 1_655 S
C827 C823 1.393 . S
C827 C826 1.391 . S
H828 C836 0.950 . S
H829 C841 0.950 . S
H830 C838 0.950 . S
H831 C840 0.950 . S
H832 C842 0.950 . S
H833 C844 0.950 . S
H834 C846 0.950 . S
H835 C847 0.950 . S
C836 H828 0.950 . S
C836 C837 1.386 . S
C836 C838 1.391 . S
C837 C836 1.386 . S
C837 C841 1.393 . S
C838 H830 0.950 . S
C838 C836 1.391 . S
C838 C839 1.400 . S
C839 C838 1.400 . S
C839 C840 1.398 . S
C839 C845 1.491 . S
C840 H831 0.950 . S
C840 C839 1.398 . S
C840 C841 1.391 . S
C841 H829 0.950 . S
C841 C837 1.393 . S
C841 C840 1.391 . S
C842 H832 0.950 . S
C842 C843 1.386 . S
C842 C844 1.391 . S
C843 C842 1.386 . S
C843 C847 1.393 . S
C844 H833 0.950 . S
C844 C842 1.391 . S
C844 C845 1.400 . S
C845 C839 1.491 . S
C845 C844 1.400 . S
C845 C846 1.398 . S
C846 H834 0.950 . S
C846 C845 1.398 . S
C846 C847 1.391 . S
C847 H835 0.950 . S
C847 C843 1.393 . S
C847 C846 1.391 . S
H848 C856 0.950 . S
H849 C861 0.950 . S
H850 C858 0.950 . S
H851 C860 0.950 . S
H852 C862 0.950 . S
H853 C864 0.950 . S
H854 C866 0.950 . S
H855 C867 0.950 . S
C856 H848 0.950 . S
C856 C857 1.386 . S
C856 C858 1.391 . S
C857 C856 1.386 . S
C857 C861 1.393 . S
C858 H850 0.950 . S
C858 C856 1.391 . S
C858 C859 1.400 . S
C859 C858 1.400 . S
C859 C860 1.398 . S
C859 C865 1.491 . S
C860 H851 0.950 . S
C860 C859 1.398 . S
C860 C861 1.391 . S
C861 H849 0.950 . S
C861 C857 1.393 . S
C861 C860 1.391 . S
C862 H852 0.950 . S
C862 C863 1.386 . S
C862 C864 1.391 . S
C863 C862 1.386 . S
C863 C867 1.393 . S
C864 H853 0.950 . S
C864 C862 1.391 . S
C864 C865 1.400 . S
C865 C859 1.491 . S
C865 C864 1.400 . S
C865 C866 1.398 . S
C866 H854 0.950 . S
C866 C865 1.398 . S
C866 C867 1.391 . S
C867 H855 0.950 . S
C867 C863 1.393 . S
C867 C866 1.391 . S
H868 C876 0.950 . S
H869 C881 0.950 . S
H870 C878 0.950 . S
H871 C880 0.950 . S
H872 C882 0.950 . S
H873 C884 0.950 . S
H874 C886 0.950 . S
H875 C887 0.950 . S
C876 H868 0.950 . S
C876 C877 1.386 . S
C876 C878 1.391 . S
C877 C876 1.386 . S
C877 C881 1.393 . S
C878 H870 0.950 . S
C878 C876 1.391 . S
C878 C879 1.400 . S
C879 C878 1.400 . S
C879 C880 1.398 . S
C879 C885 1.491 . S
C880 H871 0.950 . S
C880 C879 1.398 . S
C880 C881 1.391 . S
C881 H869 0.950 . S
C881 C877 1.393 . S
C881 C880 1.391 . S
C882 H872 0.950 . S
C882 C883 1.386 . S
C882 C884 1.391 . S
C883 C882 1.386 . S
C883 C887 1.393 . S
C884 H873 0.950 . S
C884 C882 1.391 . S
C884 C885 1.400 . S
C885 C879 1.491 . S
C885 C884 1.400 . S
C885 C886 1.398 . S
C886 H874 0.950 . S
C886 C885 1.398 . S
C886 C887 1.391 . S
C887 H875 0.950 . S
C887 C883 1.393 . S
C887 C886 1.391 . S
C417 C61 1.836 . S
C423 C146 1.888 . S
C443 C230 1.905 . S
C437 C70 1.848 . S
C463 C296 1.892 . S
C457 C43 1.949 . S
C483 C380 1.873 . S
C477 C52 1.930 . S
C503 C135 1.871 1_565 S
C497 C25 1.819 . S
C517 C34 1.859 . S
C523 C219 1.919 . S
C537 C7 1.952 . S
C543 C307 1.890 . S
C557 C16 1.943 . S
C563 C391 1.882 . S
C583 C142 0.594 . S
C577 C50 0.591 . S
C603 C226 0.586 . S
C597 C59 0.535 . S
C623 C298 0.507 . S
C617 C67 0.521 . S
C637 C41 0.550 . S
C643 C382 0.587 . S
C657 C14 0.562 . S
C663 C130 0.611 . S
C683 C214 0.541 . S
C677 C23 0.581 . S
C703 C310 0.516 . S
C697 C31 0.515 . S
C717 C5 0.576 . S
C723 C394 0.540 . S
C737 C49 1.973 . S
C743 C139 2.054 . S
C757 C58 1.948 . S
C763 C223 2.047 . S
C783 C303 2.029 . S
C777 C68 1.860 . S
C803 C387 2.053 . S
C797 C40 1.862 . S
C817 C13 1.970 . S
C823 C128 2.060 . S
C843 C212 2.044 . S
C837 C22 1.947 . S
C863 C314 2.022 . S
C857 C32 1.864 . S
C877 C4 1.864 . S
C883 C398 2.053 . S
