# Generated by pormake.
# Topology nom, (4,4)-cn, num edge types: 1
# Building blocks:
#     Node 0, Type 0, BuildingBlock: AZAVOO_clean_linker_0, # of connection points: 4
#     Node 1, Type 0, BuildingBlock: AZAVOO_clean_linker_0, # of connection points: 4
#     Node 2, Type 0, BuildingBlock: AZAVOO_clean_linker_0, # of connection points: 4
#     Node 3, Type 0, BuildingBlock: AZAVOO_clean_linker_0, # of connection points: 4
#     Node 4, Type 0, BuildingBlock: AZAVOO_clean_linker_0, # of connection points: 4
#     Node 5, Type 0, BuildingBlock: AZAVOO_clean_linker_0, # of connection points: 4
#     Node 6, Type 1, BuildingBlock: UXUYUI_clean_sbu_0, # of connection points: 4
#     Node 7, Type 1, BuildingBlock: UXUYUI_clean_sbu_0, # of connection points: 4
#     Node 8, Type 1, BuildingBlock: UXUYUI_clean_sbu_0, # of connection points: 4
#     Node 9, Type 1, BuildingBlock: UXUYUI_clean_sbu_0, # of connection points: 4
#     Node 10, Type 1, BuildingBlock: UXUYUI_clean_sbu_0, # of connection points: 4
#     Node 11, Type 1, BuildingBlock: UXUYUI_clean_sbu_0, # of connection points: 4
#     Edge 12, Type (0, 1), BuildingBlock: AJUNOK_clean_linker_0, # of connection points: 2
#     Edge 13, Type (0, 1), BuildingBlock: AJUNOK_clean_linker_0, # of connection points: 2
#     Edge 14, Type (0, 1), BuildingBlock: AJUNOK_clean_linker_0, # of connection points: 2
#     Edge 15, Type (0, 1), BuildingBlock: AJUNOK_clean_linker_0, # of connection points: 2
#     Edge 16, Type (0, 1), BuildingBlock: AJUNOK_clean_linker_0, # of connection points: 2
#     Edge 17, Type (0, 1), BuildingBlock: AJUNOK_clean_linker_0, # of connection points: 2
#     Edge 18, Type (0, 1), BuildingBlock: AJUNOK_clean_linker_0, # of connection points: 2
#     Edge 19, Type (0, 1), BuildingBlock: AJUNOK_clean_linker_0, # of connection points: 2
#     Edge 20, Type (0, 1), BuildingBlock: AJUNOK_clean_linker_0, # of connection points: 2
#     Edge 21, Type (0, 1), BuildingBlock: AJUNOK_clean_linker_0, # of connection points: 2
#     Edge 22, Type (0, 1), BuildingBlock: AJUNOK_clean_linker_0, # of connection points: 2
#     Edge 23, Type (0, 1), BuildingBlock: AJUNOK_clean_linker_0, # of connection points: 2
#     Edge 24, Type (0, 1), BuildingBlock: AJUNOK_clean_linker_0, # of connection points: 2
#     Edge 25, Type (0, 1), BuildingBlock: AJUNOK_clean_linker_0, # of connection points: 2
#     Edge 26, Type (0, 1), BuildingBlock: AJUNOK_clean_linker_0, # of connection points: 2
#     Edge 27, Type (0, 1), BuildingBlock: AJUNOK_clean_linker_0, # of connection points: 2
#     Edge 28, Type (0, 1), BuildingBlock: AJUNOK_clean_linker_0, # of connection points: 2
#     Edge 29, Type (0, 1), BuildingBlock: AJUNOK_clean_linker_0, # of connection points: 2
#     Edge 30, Type (0, 1), BuildingBlock: AJUNOK_clean_linker_0, # of connection points: 2
#     Edge 31, Type (0, 1), BuildingBlock: AJUNOK_clean_linker_0, # of connection points: 2
#     Edge 32, Type (0, 1), BuildingBlock: AJUNOK_clean_linker_0, # of connection points: 2
#     Edge 33, Type (0, 1), BuildingBlock: AJUNOK_clean_linker_0, # of connection points: 2
#     Edge 34, Type (0, 1), BuildingBlock: AJUNOK_clean_linker_0, # of connection points: 2
#     Edge 35, Type (0, 1), BuildingBlock: AJUNOK_clean_linker_0, # of connection points: 2
# Relax obj value: 0.178
# Max RMSD: 0.225
# Mean RMSD: 0.184
data_MOF--net-nom--node1-UXUYUI_clean_sbu_0--node2-AZAVOO_clean_linker_0--edge1-AJUNOK_clean_linker_0
_symmetry_space_group_name_H-M    P1
_symmetry_Int_Tables_number       1
_symmetry_cell_setting            triclinic
loop_
_symmetry_equiv_pos_as_xyz
'x, y, z'
_cell_length_a     47.182444
_cell_length_b     48.11333
_cell_length_c     58.829756
_cell_angle_alpha  89.981925
_cell_angle_beta   89.882677
_cell_angle_gamma 121.36627
loop_
_atom_site_label
_atom_site_type_symbol
_atom_site_fract_x
_atom_site_fract_y
_atom_site_fract_z
_atom_type_partial_charge
H0 H 0.06713 0.48526 0.16866 0.0
H1 H 0.25313 0.66792 0.3848 0.0
H2 H 0.00422 0.45574 0.28802 0.0
H3 H 0.96615 0.43058 0.25602 0.0
H4 H 0.95598 0.51451 0.25116 0.0
H5 H 0.99414 0.53956 0.28333 0.0
H6 H 0.07861 0.49243 0.26779 0.0
H7 H 0.0772 0.48314 0.22677 0.0
H8 H 0.04852 0.55404 0.21556 0.0
H9 H 0.05048 0.56337 0.25656 0.0
H10 H 0.14539 0.54076 0.30208 0.0
H11 H 0.20216 0.57992 0.28919 0.0
H12 H 0.16912 0.64191 0.26257 0.0
H13 H 0.11277 0.60337 0.27612 0.0
H14 H 0.12289 0.52702 0.35015 0.0
H15 H 0.17534 0.55668 0.37092 0.0
H16 H 0.18434 0.64777 0.35189 0.0
H17 H 0.132 0.61778 0.33098 0.0
H18 H 0.05074 0.48979 0.36637 0.0
H19 H 0.06885 0.49648 0.40608 0.0
H20 H 0.09242 0.59598 0.40467 0.0
H21 H 0.07431 0.58917 0.36493 0.0
H22 H 0.97847 0.46286 0.33737 0.0
H23 H 0.92631 0.45192 0.35522 0.0
H24 H 0.96296 0.55497 0.35538 0.0
H25 H 0.0147 0.56566 0.33768 0.0
O26 O 0.06812 0.48972 0.18477 0.0
O27 O 0.05285 0.52596 0.17998 0.0
O28 O 0.22671 0.60811 0.38583 0.0
O29 O 0.23239 0.65561 0.37665 0.0
C30 C 0.03248 0.51828 0.30149 0.0
C31 C 0.06334 0.53235 0.29004 0.0
C32 C 0.09309 0.55022 0.3023 0.0
C33 C 0.09219 0.55222 0.32618 0.0
C34 C 0.06141 0.53812 0.33764 0.0
C35 C 0.03154 0.52249 0.32518 0.0
C36 C 0.00172 0.49934 0.28805 0.0
C37 C 0.99255 0.46801 0.28074 0.0
C38 C 0.971 0.45378 0.26239 0.0
C39 C 0.95837 0.47075 0.25109 0.0
C40 C 0.96555 0.50105 0.25958 0.0
C41 C 0.98692 0.51516 0.27808 0.0
C42 C 0.06445 0.52839 0.26509 0.0
C43 C 0.07231 0.5061 0.2564 0.0
C44 C 0.07136 0.50077 0.23299 0.0
C45 C 0.06257 0.51772 0.21788 0.0
C46 C 0.05528 0.5405 0.2267 0.0
C47 C 0.05636 0.54586 0.2501 0.0
C48 C 0.12513 0.56942 0.29016 0.0
C49 C 0.15031 0.56246 0.29305 0.0
C50 C 0.18256 0.58474 0.28576 0.0
C51 C 0.1897 0.61383 0.27514 0.0
C52 C 0.16398 0.61952 0.27068 0.0
C53 C 0.13189 0.59753 0.2783 0.0
C54 C 0.12367 0.57029 0.33917 0.0
C55 C 0.13618 0.55337 0.35059 0.0
C56 C 0.16612 0.57037 0.36243 0.0
C57 C 0.18391 0.6046 0.36321 0.0
C58 C 0.17121 0.62143 0.35172 0.0
C59 C 0.14135 0.6044 0.33978 0.0
C60 C 0.06125 0.539 0.36282 0.0
C61 C 0.05842 0.51257 0.37494 0.0
C62 C 0.06906 0.5165 0.39749 0.0
C63 C 0.08245 0.54687 0.4082 0.0
C64 C 0.08212 0.57233 0.39675 0.0
C65 C 0.07166 0.56844 0.37414 0.0
C66 C 0.00025 0.51502 0.33633 0.0
C67 C 0.97518 0.48297 0.3414 0.0
C68 C 0.94562 0.47683 0.35164 0.0
C69 C 0.94082 0.50268 0.35671 0.0
C70 C 0.96606 0.53467 0.35157 0.0
C71 C 0.99556 0.54078 0.34156 0.0
C72 C 0.06088 0.5115 0.19307 0.0
C73 C 0.2156 0.62274 0.37592 0.0
H74 H 0.59277 0.07664 0.34724 0.0
H75 H 0.55413 0.19818 0.58504 0.0
H76 H 0.56834 0.00091 0.46575 0.0
H77 H 0.56523 0.96518 0.43496 0.0
H78 H 0.46179 0.93267 0.42525 0.0
H79 H 0.46502 0.96816 0.45638 0.0
H80 H 0.59289 0.07016 0.44654 0.0
H81 H 0.6029 0.07704 0.4055 0.0
H82 H 0.49804 0.03699 0.39434 0.0
H83 H 0.48849 0.03046 0.43545 0.0
H84 H 0.60334 0.12156 0.47406 0.0
H85 H 0.61982 0.1761 0.45989 0.0
H86 H 0.51665 0.14707 0.45561 0.0
H87 H 0.50035 0.09254 0.46942 0.0
H88 H 0.59415 0.1021 0.52981 0.0
H89 H 0.60857 0.14583 0.55716 0.0
H90 H 0.51467 0.1384 0.54413 0.0
H91 H 0.50042 0.09438 0.51707 0.0
H92 H 0.56769 0.03154 0.54247 0.0
H93 H 0.57804 0.04655 0.58249 0.0
H94 H 0.48778 0.04886 0.58562 0.0
H95 H 0.47825 0.03483 0.54519 0.0
H96 H 0.53126 0.96266 0.50926 0.0
H97 H 0.49533 0.90757 0.525 0.0
H98 H 0.41464 0.92524 0.52988 0.0
H99 H 0.45062 0.98 0.51474 0.0
O100 O 0.58831 0.07395 0.3634 0.0
O101 O 0.53418 0.05312 0.35858 0.0
O102 O 0.59699 0.18376 0.5804 0.0
O103 O 0.54937 0.18142 0.57397 0.0
C104 C 0.52121 0.01357 0.47821 0.0
C105 C 0.53398 0.04488 0.46868 0.0
C106 C 0.54058 0.07126 0.48272 0.0
C107 C 0.5366 0.06692 0.50641 0.0
C108 C 0.52352 0.03558 0.51592 0.0
C109 C 0.5143 0.0086 0.50171 0.0
C110 C 0.51683 0.98682 0.46336 0.0
C111 C 0.54475 0.98523 0.45746 0.0
C112 C 0.54301 0.96509 0.43979 0.0
C113 C 0.51329 0.94619 0.42775 0.0
C114 C 0.48486 0.94656 0.4345 0.0
C115 C 0.48662 0.96675 0.45224 0.0
C116 C 0.54002 0.0499 0.44387 0.0
C117 C 0.57219 0.0631 0.43518 0.0
C118 C 0.5778 0.0669 0.41174 0.0
C119 C 0.55126 0.05753 0.39662 0.0
C120 C 0.51903 0.04445 0.4055 0.0
C121 C 0.51349 0.04071 0.42894 0.0
C122 C 0.55072 0.1033 0.47269 0.0
C123 C 0.58438 0.12693 0.46976 0.0
C124 C 0.59369 0.15789 0.46171 0.0
C125 C 0.56943 0.16561 0.45687 0.0
C126 C 0.53573 0.14166 0.45944 0.0
C127 C 0.52644 0.11064 0.4672 0.0
C128 C 0.54634 0.09525 0.52145 0.0
C129 C 0.57689 0.11018 0.53276 0.0
C130 C 0.585 0.13506 0.5484 0.0
C131 C 0.56273 0.14557 0.55287 0.0
C132 C 0.53238 0.1309 0.54111 0.0
C133 C 0.52424 0.1059 0.52556 0.0
C134 C 0.5223 0.0322 0.54098 0.0
C135 C 0.54933 0.03374 0.55207 0.0
C136 C 0.55519 0.04233 0.57499 0.0
C137 C 0.53379 0.04906 0.5872 0.0
C138 C 0.5048 0.04405 0.57657 0.0
C139 C 0.49912 0.03571 0.55358 0.0
C140 C 0.49354 0.9753 0.51103 0.0
C141 C 0.50587 0.95455 0.51385 0.0
C142 C 0.48536 0.92321 0.52279 0.0
C143 C 0.45237 0.91236 0.52907 0.0
C144 C 0.44018 0.93321 0.52587 0.0
C145 C 0.46061 0.96438 0.51705 0.0
C146 C 0.55726 0.06135 0.37173 0.0
C147 C 0.57087 0.17143 0.56989 0.0
H148 H 0.52997 0.48067 0.80136 0.0
H149 H 0.60237 0.41735 0.55081 0.0
H150 H 0.53761 0.56841 0.68432 0.0
H151 H 0.52277 0.58359 0.72001 0.0
H152 H 0.42733 0.49394 0.71889 0.0
H153 H 0.44297 0.47843 0.68346 0.0
H154 H 0.55725 0.53043 0.70816 0.0
H155 H 0.55371 0.51855 0.74886 0.0
H156 H 0.47018 0.4216 0.73638 0.0
H157 H 0.4737 0.43404 0.69572 0.0
H158 H 0.5838 0.49226 0.68838 0.0
H159 H 0.59732 0.45413 0.70546 0.0
H160 H 0.5179 0.37543 0.66728 0.0
H161 H 0.50318 0.41329 0.65159 0.0
H162 H 0.60236 0.51644 0.63024 0.0
H163 H 0.63305 0.5019 0.60408 0.0
H164 H 0.54071 0.41699 0.58301 0.0
H165 H 0.51036 0.43207 0.60903 0.0
H166 H 0.57486 0.5572 0.60925 0.0
H167 H 0.59674 0.56037 0.57109 0.0
H168 H 0.50602 0.47185 0.55291 0.0
H169 H 0.4847 0.46839 0.59138 0.0
H170 H 0.51678 0.57588 0.6438 0.0
H171 H 0.47996 0.59407 0.62974 0.0
H172 H 0.41284 0.49768 0.60358 0.0
H173 H 0.44923 0.47961 0.61791 0.0
O174 O 0.53075 0.48495 0.78522 0.0
O175 O 0.4899 0.43446 0.77763 0.0
O176 O 0.63776 0.46707 0.57323 0.0
O177 O 0.59097 0.42316 0.56175 0.0
C178 C 0.50517 0.50874 0.66538 0.0
C179 C 0.51812 0.49032 0.67434 0.0
C180 C 0.53243 0.47778 0.65971 0.0
C181 C 0.53575 0.48538 0.63641 0.0
C182 C 0.52244 0.50346 0.62738 0.0
C183 C 0.50584 0.51398 0.64171 0.0
C184 C 0.49136 0.52235 0.68139 0.0
C185 C 0.51296 0.55271 0.69128 0.0
C186 C 0.50452 0.56123 0.71174 0.0
C187 C 0.47428 0.53949 0.72252 0.0
C188 C 0.45119 0.5107 0.71124 0.0
C189 C 0.4598 0.50206 0.69084 0.0
C190 C 0.51563 0.48314 0.69907 0.0
C191 C 0.53805 0.50674 0.71429 0.0
C192 C 0.53604 0.49984 0.73751 0.0
C193 C 0.51175 0.46907 0.74586 0.0
C194 C 0.48926 0.4455 0.7305 0.0
C195 C 0.49118 0.45251 0.7073 0.0
C196 C 0.54265 0.45552 0.66867 0.0
C197 C 0.56942 0.46678 0.68372 0.0
C198 C 0.57728 0.44504 0.69326 0.0
C199 C 0.55889 0.41182 0.6875 0.0
C200 C 0.53239 0.40082 0.67214 0.0
C201 C 0.52421 0.42244 0.66295 0.0
C202 C 0.55422 0.4753 0.62147 0.0
C203 C 0.58888 0.4946 0.62005 0.0
C204 C 0.6063 0.48627 0.60507 0.0
C205 C 0.58931 0.45831 0.59139 0.0
C206 C 0.55456 0.43868 0.59327 0.0
C207 C 0.53717 0.44719 0.60813 0.0
C208 C 0.52822 0.51258 0.60305 0.0
C209 C 0.55895 0.53954 0.59664 0.0
C210 C 0.57146 0.54127 0.57481 0.0
C211 C 0.55317 0.51615 0.55914 0.0
C212 C 0.52065 0.49142 0.56476 0.0
C213 C 0.50825 0.48961 0.58662 0.0
C214 C 0.48575 0.52647 0.63177 0.0
C215 C 0.49424 0.55882 0.6349 0.0
C216 C 0.47327 0.56914 0.62687 0.0
C217 C 0.4438 0.54734 0.61536 0.0
C218 C 0.43574 0.51515 0.61195 0.0
C219 C 0.45648 0.50482 0.62014 0.0
C220 C 0.51006 0.46165 0.77049 0.0
C221 C 0.60759 0.44985 0.57499 0.0
H222 H 0.03559 0.53965 0.97734 0.0
H223 H 0.24084 0.57974 0.77237 0.0
H224 H 0.98585 0.53758 0.85788 0.0
H225 H 0.94788 0.52004 0.89032 0.0
H226 H 0.92295 0.42103 0.87984 0.0
H227 H 0.96099 0.43877 0.84729 0.0
H228 H 0.05728 0.56498 0.87963 0.0
H229 H 0.05299 0.56431 0.92115 0.0
H230 H 0.00872 0.45982 0.92087 0.0
H231 H 0.01358 0.46094 0.87942 0.0
H232 H 0.12524 0.58337 0.84866 0.0
H233 H 0.17649 0.59104 0.86533 0.0
H234 H 0.12631 0.4881 0.88004 0.0
H235 H 0.07585 0.48039 0.86242 0.0
H236 H 0.1068 0.58713 0.79719 0.0
H237 H 0.16273 0.61246 0.78104 0.0
H238 H 0.16422 0.52519 0.7959 0.0
H239 H 0.10811 0.49999 0.81167 0.0
H240 H 0.03831 0.55866 0.77556 0.0
H241 H 0.06205 0.57394 0.73717 0.0
H242 H 0.07822 0.49351 0.73711 0.0
H243 H 0.05482 0.47858 0.77549 0.0
H244 H 0.95873 0.5121 0.8091 0.0
H245 H 0.90464 0.4754 0.79138 0.0
H246 H 0.93831 0.41097 0.77143 0.0
H247 H 0.99176 0.44708 0.78955 0.0
O248 O 0.03761 0.53945 0.96097 0.0
O249 O 0.01481 0.48574 0.95987 0.0
O250 O 0.21658 0.61449 0.7712 0.0
O251 O 0.21844 0.57004 0.77818 0.0
C252 C 0.00816 0.50187 0.83811 0.0
C253 C 0.03722 0.51352 0.8513 0.0
C254 C 0.06802 0.52516 0.84059 0.0
C255 C 0.07043 0.52741 0.8167 0.0
C256 C 0.04142 0.51529 0.8034 0.0
C257 C 0.00999 0.50124 0.81409 0.0
C258 C 0.97626 0.48946 0.85033 0.0
C259 C 0.97086 0.51185 0.86181 0.0
C260 C 0.94949 0.50188 0.88049 0.0
C261 C 0.93294 0.46931 0.88773 0.0
C262 C 0.93527 0.44624 0.8745 0.0
C263 C 0.95681 0.45629 0.85582 0.0
C264 C 0.03544 0.51299 0.87656 0.0
C265 C 0.04682 0.54202 0.88861 0.0
C266 C 0.04428 0.54154 0.9123 0.0
C267 C 0.03044 0.51199 0.92433 0.0
C268 C 0.01947 0.48298 0.91214 0.0
C269 C 0.0221 0.48353 0.88847 0.0
C270 C 0.09706 0.53132 0.85419 0.0
C271 C 0.12529 0.56263 0.85578 0.0
C272 C 0.15437 0.56695 0.86535 0.0
C273 C 0.15535 0.54002 0.87354 0.0
C274 C 0.12632 0.5091 0.87337 0.0
C275 C 0.09746 0.50475 0.86359 0.0
C276 C 0.10351 0.54181 0.80563 0.0
C277 C 0.11915 0.57344 0.79672 0.0
C278 C 0.15113 0.58788 0.78762 0.0
C279 C 0.16807 0.57094 0.78737 0.0
C280 C 0.15197 0.53897 0.79592 0.0
C281 C 0.11993 0.5245 0.80492 0.0
C282 C 0.04492 0.51757 0.7783 0.0
C283 C 0.04568 0.54355 0.76687 0.0
C284 C 0.05941 0.55235 0.74504 0.0
C285 C 0.07257 0.53529 0.73449 0.0
C286 C 0.06874 0.50736 0.74509 0.0
C287 C 0.05504 0.49859 0.76686 0.0
C288 C 0.97924 0.48233 0.80057 0.0
C289 C 0.95458 0.49034 0.80059 0.0
C290 C 0.92382 0.46945 0.79048 0.0
C291 C 0.91754 0.44057 0.77993 0.0
C292 C 0.94278 0.43339 0.77906 0.0
C293 C 0.97329 0.45401 0.78939 0.0
C294 C 0.02715 0.51147 0.94945 0.0
C295 C 0.20247 0.58658 0.77842 0.0
H296 H 0.46527 0.96614 0.84448 0.0
H297 H 0.50255 0.8292 0.07918 0.0
H298 H 0.4989 0.03881 0.9581 0.0
H299 H 0.51512 0.0782 0.92704 0.0
H300 H 0.61656 0.10201 0.93321 0.0
H301 H 0.6 0.06193 0.96374 0.0
H302 H 0.46275 0.96252 0.94391 0.0
H303 H 0.4537 0.95949 0.90279 0.0
H304 H 0.55932 0.00424 0.89172 0.0
H305 H 0.5679 0.00662 0.93284 0.0
H306 H 0.45232 0.9044 0.97044 0.0
H307 H 0.44246 0.85423 0.95194 0.0
H308 H 0.54818 0.89804 0.94248 0.0
H309 H 0.55766 0.94787 0.96054 0.0
H310 H 0.45529 0.91381 0.0166 0.0
H311 H 0.44082 0.86727 0.04135 0.0
H312 H 0.5442 0.89597 0.04364 0.0
H313 H 0.55818 0.94206 0.01864 0.0
H314 H 0.4848 0.97544 0.04556 0.0
H315 H 0.48667 0.96082 0.08505 0.0
H316 H 0.59097 0.9952 0.0774 0.0
H317 H 0.58803 0.00671 0.03744 0.0
H318 H 0.53042 0.06597 0.0156 0.0
H319 H 0.5707 0.12036 0.03074 0.0
H320 H 0.64897 0.09969 0.02325 0.0
H321 H 0.60913 0.0462 0.00759 0.0
O322 O 0.46937 0.96734 0.86067 0.0
O323 O 0.5239 0.99075 0.85591 0.0
O324 O 0.45428 0.83174 0.06594 0.0
O325 O 0.50738 0.84671 0.06876 0.0
C326 C 0.53701 0.01806 0.9772 0.0
C327 C 0.52129 0.98746 0.96628 0.0
C328 C 0.51263 0.95923 0.97885 0.0
C329 C 0.51681 0.96096 0.00259 0.0
C330 C 0.53215 0.99146 0.0136 0.0
C331 C 0.54388 0.02015 0.0007 0.0
C332 C 0.54831 0.04771 0.96328 0.0
C333 C 0.52482 0.05343 0.9533 0.0
C334 C 0.53412 0.07592 0.93559 0.0
C335 C 0.56708 0.09305 0.92775 0.0
C336 C 0.59098 0.08901 0.93894 0.0
C337 C 0.58166 0.06646 0.95656 0.0
C338 C 0.51598 0.98509 0.9413 0.0
C339 C 0.48385 0.97155 0.93255 0.0
C340 C 0.47879 0.96991 0.90907 0.0
C341 C 0.50581 0.98176 0.89396 0.0
C342 C 0.53798 0.995 0.90286 0.0
C343 C 0.54297 0.99649 0.92633 0.0
C344 C 0.50565 0.9295 0.96675 0.0
C345 C 0.47318 0.90312 0.96409 0.0
C346 C 0.46765 0.87469 0.95356 0.0
C347 C 0.49456 0.87255 0.94553 0.0
C348 C 0.52697 0.89934 0.94795 0.0
C349 C 0.53243 0.92762 0.95844 0.0
C350 C 0.50772 0.93117 0.01584 0.0
C351 C 0.47465 0.90967 0.02221 0.0
C352 C 0.46651 0.88326 0.03644 0.0
C353 C 0.4914 0.878 0.04457 0.0
C354 C 0.52445 0.89933 0.03774 0.0
C355 C 0.5325 0.92561 0.02342 0.0
C356 C 0.53635 0.99253 0.03863 0.0
C357 C 0.50828 0.9807 0.05262 0.0
C358 C 0.5094 0.97234 0.07519 0.0
C359 C 0.53879 0.97611 0.08418 0.0
C360 C 0.56771 0.99109 0.07076 0.0
C361 C 0.56633 0.99858 0.04802 0.0
C362 C 0.56688 0.05207 0.01102 0.0
C363 C 0.5562 0.07319 0.01747 0.0
C364 C 0.57909 0.10404 0.02602 0.0
C365 C 0.61269 0.11379 0.02827 0.0
C366 C 0.62309 0.09241 0.02198 0.0
C367 C 0.60041 0.06193 0.01317 0.0
C368 C 0.50038 0.98027 0.86903 0.0
C369 C 0.48309 0.85069 0.06035 0.0
H370 H 0.47518 0.4265 0.0195 0.0
H371 H 0.65917 0.44761 0.24567 0.0
H372 H 0.46098 0.48889 0.13348 0.0
H373 H 0.44223 0.50482 0.09987 0.0
H374 H 0.54094 0.58897 0.0914 0.0
H375 H 0.55873 0.57392 0.12581 0.0
H376 H 0.48497 0.43824 0.11856 0.0
H377 H 0.47286 0.42423 0.0783 0.0
H378 H 0.55726 0.51818 0.05987 0.0
H379 H 0.56926 0.53168 0.10017 0.0
H380 H 0.53674 0.41964 0.14862 0.0
H381 H 0.57137 0.40071 0.13134 0.0
H382 H 0.64123 0.49892 0.10903 0.0
H383 H 0.60658 0.51726 0.12579 0.0
H384 H 0.52348 0.43778 0.20262 0.0
H385 H 0.54888 0.41795 0.22918 0.0
H386 H 0.64583 0.48842 0.20251 0.0
H387 H 0.62011 0.50835 0.17629 0.0
H388 H 0.50153 0.48291 0.21819 0.0
H389 H 0.51587 0.48147 0.25807 0.0
H390 H 0.61917 0.54907 0.24234 0.0
H391 H 0.60456 0.55087 0.20288 0.0
H392 H 0.47403 0.52265 0.17778 0.0
H393 H 0.46802 0.5664 0.19379 0.0
H394 H 0.57461 0.62684 0.20022 0.0
H395 H 0.58043 0.58372 0.18321 0.0
O396 O 0.48061 0.4324 0.03531 0.0
O397 O 0.52364 0.4814 0.02675 0.0
O398 O 0.59804 0.41905 0.24831 0.0
O399 O 0.64842 0.45437 0.23491 0.0
C400 C 0.52498 0.51539 0.14673 0.0
C401 C 0.53426 0.49459 0.1367 0.0
C402 C 0.55059 0.48261 0.14973 0.0
C403 C 0.5546 0.48855 0.17326 0.0
C404 C 0.54543 0.50944 0.18329 0.0
C405 C 0.53178 0.5239 0.16988 0.0
C406 C 0.51118 0.53023 0.13193 0.0
C407 C 0.47805 0.51153 0.12492 0.0
C408 C 0.46764 0.52029 0.10546 0.0
C409 C 0.49051 0.5474 0.09248 0.0
C410 C 0.52279 0.56783 0.10093 0.0
C411 C 0.53297 0.55941 0.12066 0.0
C412 C 0.52781 0.48602 0.11223 0.0
C413 C 0.50087 0.45567 0.10578 0.0
C414 C 0.49399 0.44778 0.08278 0.0
C415 C 0.51405 0.47012 0.06586 0.0
C416 C 0.54127 0.50044 0.07246 0.0
C417 C 0.54815 0.50824 0.09545 0.0
C418 C 0.56904 0.46966 0.1381 0.0
C419 C 0.55921 0.43677 0.13959 0.0
C420 C 0.57895 0.4261 0.12981 0.0
C421 C 0.60858 0.44827 0.11847 0.0
C422 C 0.61801 0.4811 0.11697 0.0
C423 C 0.59836 0.49165 0.12663 0.0
C424 C 0.56994 0.4743 0.18744 0.0
C425 C 0.55016 0.44862 0.20237 0.0
C426 C 0.56475 0.43743 0.21757 0.0
C427 C 0.59942 0.45167 0.21802 0.0
C428 C 0.61908 0.47693 0.20263 0.0
C429 C 0.60445 0.4882 0.1875 0.0
C430 C 0.55204 0.51698 0.20777 0.0
C431 C 0.52698 0.49861 0.22367 0.0
C432 C 0.53524 0.49759 0.24632 0.0
C433 C 0.56862 0.51506 0.25323 0.0
C434 C 0.59319 0.53583 0.23764 0.0
C435 C 0.58491 0.53688 0.21508 0.0
C436 C 0.52763 0.54994 0.17957 0.0
C437 C 0.49601 0.54538 0.18262 0.0
C438 C 0.49264 0.57022 0.19198 0.0
C439 C 0.52086 0.59982 0.19862 0.0
C440 C 0.55246 0.60431 0.1953 0.0
C441 C 0.5558 0.57964 0.18576 0.0
C442 C 0.50653 0.46177 0.04145 0.0
C443 C 0.61511 0.44059 0.23465 0.0
Li444 Li 0.66695 0.45905 0.43163 0.0
Li445 Li 0.65578 0.40792 0.41499 0.0
Li446 Li 0.7103 0.45735 0.41117 0.0
Li447 Li 0.66235 0.45321 0.39233 0.0
C448 C 0.67772 0.41791 0.45983 0.0
N449 N 0.65601 0.38538 0.50083 0.0
C450 C 0.64417 0.40249 0.46586 0.0
C451 C 0.70017 0.41666 0.4746 0.0
C452 C 0.63371 0.3862 0.48667 0.0
C453 C 0.68873 0.40013 0.49527 0.0
C454 C 0.59921 0.41444 0.40211 0.0
C455 C 0.56507 0.38096 0.37116 0.0
N456 N 0.5438 0.39157 0.37489 0.0
C457 C 0.57693 0.4249 0.40572 0.0
C458 C 0.5932 0.39219 0.38476 0.0
C459 C 0.54908 0.41309 0.39175 0.0
C460 C 0.63612 0.49003 0.44891 0.0
N461 N 0.65523 0.47796 0.45552 0.0
C462 C 0.64893 0.48742 0.4945 0.0
C463 C 0.66289 0.47761 0.47774 0.0
C464 C 0.62768 0.49834 0.48816 0.0
C465 C 0.62207 0.50054 0.46505 0.0
H466 H 0.63096 0.49049 0.43107 0.0
H467 H 0.67884 0.46872 0.48257 0.0
C468 C 0.65711 0.35137 0.41889 0.0
N469 N 0.63599 0.36258 0.41912 0.0
C470 C 0.64558 0.31891 0.4241 0.0
C471 C 0.5905 0.30992 0.42903 0.0
C472 C 0.60319 0.34269 0.42393 0.0
C473 C 0.61196 0.29784 0.42958 0.0
H474 H 0.68315 0.36797 0.41528 0.0
H475 H 0.58706 0.35241 0.42433 0.0
C476 C 0.71203 0.51833 0.4217 0.0
N477 N 0.73826 0.57276 0.44913 0.0
C478 C 0.705 0.54268 0.41732 0.0
C479 C 0.73257 0.52175 0.43992 0.0
C480 C 0.71846 0.56999 0.43142 0.0
C481 C 0.74555 0.54942 0.45361 0.0
C482 C 0.69994 0.43226 0.36748 0.0
C483 C 0.71782 0.46397 0.35884 0.0
C484 C 0.70127 0.40734 0.35633 0.0
C485 C 0.73663 0.47016 0.33907 0.0
C486 C 0.72035 0.41451 0.33658 0.0
N487 N 0.73749 0.44551 0.32843 0.0
C488 C 0.76097 0.44488 0.40774 0.0
C489 C 0.77921 0.50044 0.40148 0.0
C490 C 0.79195 0.45027 0.40145 0.0
N491 N 0.75514 0.46971 0.40736 0.0
C492 C 0.81071 0.507 0.39524 0.0
C493 C 0.81723 0.4816 0.39487 0.0
H494 H 0.74099 0.42055 0.41193 0.0
H495 H 0.77358 0.51953 0.40078 0.0
C496 C 0.63619 0.48628 0.37109 0.0
N497 N 0.64596 0.46474 0.3669 0.0
C498 C 0.62231 0.49526 0.35384 0.0
C499 C 0.62869 0.45953 0.32826 0.0
C500 C 0.64214 0.45099 0.34608 0.0
C501 C 0.61872 0.48206 0.33204 0.0
H502 H 0.6385 0.4959 0.38803 0.0
H503 H 0.6491 0.43311 0.34336 0.0
O504 O 0.68868 0.43376 0.43945 0.0
O505 O 0.6272 0.42647 0.4151 0.0
O506 O 0.69843 0.49098 0.40851 0.0
O507 O 0.68195 0.42567 0.38711 0.0
H508 H 0.62638 0.40317 0.45471 0.0
H509 H 0.72619 0.42835 0.47012 0.0
H510 H 0.60785 0.37423 0.49158 0.0
H511 H 0.70585 0.39901 0.50689 0.0
H512 H 0.56024 0.36391 0.35757 0.0
H513 H 0.58106 0.44198 0.41911 0.0
H514 H 0.61036 0.38408 0.3816 0.0
H515 H 0.53168 0.42105 0.39429 0.0
H516 H 0.65387 0.48561 0.51225 0.0
H517 H 0.60563 0.50866 0.45959 0.0
H518 H 0.66297 0.31063 0.42449 0.0
H519 H 0.56429 0.29432 0.43274 0.0
H520 H 0.68928 0.54051 0.40325 0.0
H521 H 0.7381 0.50302 0.4436 0.0
H522 H 0.71314 0.58898 0.4283 0.0
H523 H 0.76133 0.5523 0.46785 0.0
H524 H 0.71727 0.48362 0.36733 0.0
H525 H 0.68776 0.38272 0.36293 0.0
H526 H 0.75059 0.49457 0.33219 0.0
H527 H 0.7216 0.39545 0.32775 0.0
H528 H 0.79555 0.42982 0.40077 0.0
H529 H 0.82953 0.53148 0.39022 0.0
H530 H 0.61398 0.5119 0.35763 0.0
H531 H 0.62616 0.44869 0.31168 0.0
Li532 Li 0.2322 0.62697 0.59403 0.0
Li533 Li 0.27218 0.61656 0.57732 0.0
Li534 Li 0.27732 0.67173 0.57275 0.0
Li535 Li 0.23181 0.62088 0.55334 0.0
C536 C 0.28552 0.6572 0.62294 0.0
N537 N 0.29519 0.6715 0.66876 0.0
C538 C 0.27701 0.63242 0.6388 0.0
C539 C 0.29914 0.68928 0.63033 0.0
C540 C 0.282 0.64014 0.66191 0.0
C541 C 0.30382 0.69601 0.65359 0.0
C542 C 0.21645 0.55699 0.57687 0.0
C543 C 0.20978 0.5101 0.55705 0.0
N544 N 0.20333 0.49394 0.57718 0.0
C545 C 0.20945 0.53984 0.59733 0.0
C546 C 0.21637 0.54196 0.55654 0.0
C547 C 0.203 0.50802 0.59714 0.0
C548 C 0.17287 0.58597 0.61717 0.0
N549 N 0.20174 0.61519 0.61914 0.0
C550 C 0.1862 0.62257 0.65634 0.0
C551 C 0.20814 0.63407 0.63792 0.0
C552 C 0.15707 0.59183 0.65509 0.0
C553 C 0.14998 0.57379 0.63502 0.0
H554 H 0.16788 0.57179 0.60184 0.0
H555 H 0.23044 0.65779 0.63883 0.0
C556 C 0.32647 0.60928 0.56731 0.0
N557 N 0.29981 0.59875 0.58133 0.0
C558 C 0.34983 0.60033 0.57135 0.0
C559 C 0.31798 0.56988 0.60421 0.0
C560 C 0.29519 0.57932 0.59949 0.0
C561 C 0.34587 0.58064 0.59014 0.0
H562 H 0.33034 0.62568 0.55348 0.0
H563 H 0.27444 0.57199 0.61079 0.0
C564 C 0.20589 0.65971 0.58037 0.0
N565 N 0.15809 0.66648 0.6024 0.0
C566 C 0.1723 0.63825 0.5757 0.0
C567 C 0.21523 0.68467 0.59618 0.0
C568 C 0.14849 0.64206 0.58704 0.0
C569 C 0.19067 0.68769 0.60714 0.0
C570 C 0.28961 0.64365 0.52739 0.0
C571 C 0.30336 0.67247 0.51478 0.0
C572 C 0.28475 0.61529 0.51716 0.0
C573 C 0.31162 0.67228 0.49198 0.0
C574 C 0.29331 0.6161 0.49432 0.0
N575 N 0.30644 0.64434 0.48231 0.0
C576 C 0.34146 0.72493 0.56746 0.0
C577 C 0.29998 0.73866 0.56534 0.0
C578 C 0.36622 0.75699 0.56256 0.0
N579 N 0.30914 0.71645 0.56861 0.0
C580 C 0.32399 0.77109 0.56063 0.0
C581 C 0.35754 0.78047 0.55905 0.0
H582 H 0.34785 0.70655 0.56986 0.0
H583 H 0.27402 0.73106 0.56586 0.0
C584 C 0.17444 0.57714 0.52865 0.0
N585 N 0.20419 0.60561 0.52712 0.0
C586 C 0.15284 0.56575 0.51009 0.0
C587 C 0.19282 0.61323 0.48882 0.0
C588 C 0.21339 0.62395 0.50787 0.0
C589 C 0.16222 0.58386 0.48991 0.0
H590 H 0.16737 0.56345 0.54437 0.0
H591 H 0.23647 0.64708 0.50735 0.0
O592 O 0.28094 0.65026 0.60025 0.0
O593 O 0.2228 0.58816 0.57674 0.0
O594 O 0.22947 0.65577 0.56995 0.0
O595 O 0.28131 0.64337 0.54971 0.0
H596 H 0.2661 0.60745 0.63338 0.0
H597 H 0.3059 0.70874 0.61824 0.0
H598 H 0.27526 0.62118 0.67441 0.0
H599 H 0.31425 0.72071 0.65958 0.0
H600 H 0.20973 0.49819 0.54144 0.0
H601 H 0.20937 0.55112 0.61323 0.0
H602 H 0.22117 0.55468 0.54052 0.0
H603 H 0.19778 0.49454 0.61287 0.0
H604 H 0.19216 0.63724 0.67156 0.0
H605 H 0.12764 0.55 0.63353 0.0
H606 H 0.37142 0.60974 0.56041 0.0
H607 H 0.31415 0.55475 0.61892 0.0
H608 H 0.1647 0.61868 0.56361 0.0
H609 H 0.24113 0.70117 0.60023 0.0
H610 H 0.12238 0.62554 0.58369 0.0
H611 H 0.1975 0.70676 0.61953 0.0
H612 H 0.30734 0.69466 0.52245 0.0
H613 H 0.27469 0.59296 0.52679 0.0
H614 H 0.32212 0.69435 0.48198 0.0
H615 H 0.28961 0.59431 0.48617 0.0
H616 H 0.39184 0.76336 0.5614 0.0
H617 H 0.31634 0.78844 0.5576 0.0
H618 H 0.12925 0.54301 0.5114 0.0
H619 H 0.20054 0.62783 0.47346 0.0
Li620 Li 0.67478 0.25065 0.74788 0.0
Li621 Li 0.6288 0.21165 0.76977 0.0
Li622 Li 0.63062 0.20345 0.72773 0.0
Li623 Li 0.62194 0.24641 0.74415 0.0
C624 C 0.68846 0.2025 0.74884 0.0
N625 N 0.74433 0.19847 0.74262 0.0
C626 C 0.712 0.21206 0.76618 0.0
C627 C 0.69343 0.19092 0.72834 0.0
C628 C 0.74004 0.20981 0.76271 0.0
C629 C 0.72182 0.18909 0.72552 0.0
C630 C 0.65222 0.26368 0.79389 0.0
C631 C 0.628 0.26583 0.82948 0.0
N632 N 0.65518 0.27002 0.84063 0.0
C633 C 0.67997 0.26812 0.80567 0.0
C634 C 0.62606 0.26266 0.80584 0.0
C635 C 0.68099 0.27127 0.82931 0.0
C636 C 0.72545 0.31277 0.75763 0.0
N637 N 0.72085 0.28467 0.74865 0.0
C638 C 0.77947 0.30899 0.74393 0.0
C639 C 0.74702 0.28275 0.741 0.0
C640 C 0.78486 0.33776 0.75416 0.0
C641 C 0.75726 0.33963 0.76055 0.0
H642 H 0.70429 0.31428 0.76274 0.0
H643 H 0.74291 0.26091 0.7328 0.0
C644 C 0.58414 0.17729 0.80647 0.0
N645 N 0.61546 0.18963 0.79833 0.0
C646 C 0.57536 0.16245 0.82786 0.0
C647 C 0.63113 0.1731 0.83191 0.0
C648 C 0.63874 0.18761 0.81051 0.0
C649 C 0.59912 0.16036 0.84086 0.0
H650 H 0.56598 0.17896 0.79641 0.0
H651 H 0.66339 0.19766 0.80373 0.0
C652 C 0.67748 0.27366 0.70729 0.0
N653 N 0.73164 0.32324 0.68467 0.0
C654 C 0.68354 0.30534 0.70787 0.0
C655 C 0.69887 0.26714 0.69515 0.0
C656 C 0.71108 0.33009 0.69634 0.0
C657 C 0.72614 0.29256 0.68383 0.0
C658 C 0.56235 0.19353 0.74253 0.0
C659 C 0.5459 0.17838 0.72238 0.0
C660 C 0.54764 0.20455 0.75785 0.0
C661 C 0.51504 0.17464 0.71784 0.0
C662 C 0.51679 0.20041 0.75267 0.0
N663 N 0.50127 0.18566 0.73294 0.0
C664 C 0.59792 0.14056 0.70815 0.0
C665 C 0.62278 0.18448 0.68198 0.0
C666 C 0.58392 0.11817 0.69034 0.0
N667 N 0.61661 0.17298 0.70363 0.0
C668 C 0.60963 0.16302 0.66372 0.0
C669 C 0.5895 0.12941 0.66777 0.0
H670 H 0.59288 0.13222 0.7256 0.0
H671 H 0.63709 0.2104 0.6789 0.0
C672 C 0.61319 0.29907 0.75083 0.0
N673 N 0.60339 0.27215 0.7379 0.0
C674 C 0.60476 0.32178 0.74447 0.0
C675 C 0.57529 0.28797 0.71213 0.0
C676 C 0.58481 0.26622 0.71887 0.0
C677 C 0.58596 0.3164 0.72477 0.0
H678 H 0.62888 0.30368 0.76544 0.0
H679 H 0.57857 0.24534 0.70842 0.0
O680 O 0.66032 0.20362 0.7521 0.0
O681 O 0.65033 0.25961 0.77081 0.0
O682 O 0.65123 0.24931 0.71903 0.0
O683 O 0.5927 0.19764 0.74721 0.0
H684 H 0.70917 0.22186 0.78195 0.0
H685 H 0.6756 0.18337 0.71473 0.0
H686 H 0.75851 0.21731 0.77592 0.0
H687 H 0.72595 0.1802 0.70973 0.0
H688 H 0.60785 0.26488 0.83897 0.0
H689 H 0.70029 0.26864 0.79672 0.0
H690 H 0.60438 0.25917 0.79698 0.0
H691 H 0.70222 0.27452 0.83867 0.0
H692 H 0.80004 0.30641 0.73883 0.0
H693 H 0.76025 0.36156 0.76804 0.0
H694 H 0.5502 0.15229 0.834 0.0
H695 H 0.65016 0.17204 0.84145 0.0
H696 H 0.66735 0.31084 0.7173 0.0
H697 H 0.69476 0.24282 0.69477 0.0
H698 H 0.71617 0.35475 0.69672 0.0
H699 H 0.74303 0.28792 0.6745 0.0
H700 H 0.55686 0.16976 0.71029 0.0
H701 H 0.56016 0.21666 0.77339 0.0
H702 H 0.50209 0.16305 0.70228 0.0
H703 H 0.50524 0.20902 0.76429 0.0
H704 H 0.56794 0.09255 0.69425 0.0
H705 H 0.61466 0.17269 0.64657 0.0
H706 H 0.61356 0.34372 0.75441 0.0
H707 H 0.56117 0.2835 0.69664 0.0
Li708 Li 0.44 0.59739 0.92913 0.0
Li709 Li 0.44877 0.64373 0.90644 0.0
Li710 Li 0.39504 0.59259 0.90546 0.0
Li711 Li 0.44272 0.59785 0.8871 0.0
C712 C 0.39508 0.629 0.94091 0.0
N713 N 0.34989 0.64343 0.9588 0.0
C714 C 0.39144 0.65353 0.93125 0.0
C715 C 0.37571 0.61193 0.95981 0.0
C716 C 0.36849 0.66044 0.9405 0.0
C717 C 0.35301 0.61954 0.96856 0.0
C718 C 0.50814 0.65366 0.91271 0.0
C719 C 0.55373 0.70532 0.89971 0.0
N720 N 0.56725 0.71114 0.92086 0.0
C721 C 0.52257 0.66005 0.93428 0.0
C722 C 0.52392 0.67635 0.89523 0.0
C723 C 0.55244 0.68929 0.93806 0.0
C724 C 0.46161 0.56587 0.95977 0.0
N725 N 0.45053 0.58673 0.95754 0.0
C726 C 0.45202 0.59431 0.99768 0.0
C727 C 0.44624 0.60134 0.97586 0.0
C728 C 0.46315 0.57261 0.00071 0.0
C729 C 0.46847 0.55867 0.98136 0.0
H730 H 0.4652 0.55497 0.94481 0.0
H731 H 0.43819 0.61843 0.97353 0.0
C732 C 0.46424 0.70614 0.89141 0.0
N733 N 0.46788 0.6891 0.9084 0.0
C734 C 0.47124 0.73769 0.8954 0.0
C735 C 0.4871 0.73382 0.93384 0.0
C736 C 0.4796 0.70238 0.92917 0.0
C737 C 0.48195 0.75144 0.91705 0.0
H738 H 0.45363 0.69447 0.87537 0.0
H739 H 0.48115 0.68777 0.94252 0.0
C740 C 0.38934 0.53295 0.91832 0.0
N741 N 0.34698 0.47536 0.94079 0.0
C742 C 0.3793 0.5031 0.90795 0.0
C743 C 0.37799 0.53348 0.94017 0.0
C744 C 0.3578 0.47425 0.91956 0.0
C745 C 0.35658 0.50414 0.95125 0.0
C746 C 0.41815 0.62031 0.85724 0.0
C747 C 0.38948 0.59533 0.84692 0.0
C748 C 0.44479 0.64264 0.84374 0.0
C749 C 0.38806 0.59296 0.82323 0.0
C750 C 0.44243 0.63939 0.82011 0.0
N751 N 0.41436 0.61482 0.81043 0.0
C752 C 0.34346 0.60014 0.89413 0.0
C753 C 0.32372 0.54675 0.90787 0.0
C754 C 0.31123 0.59324 0.89116 0.0
N755 N 0.34916 0.57721 0.9026 0.0
C756 C 0.29092 0.53863 0.90489 0.0
C757 C 0.28459 0.56216 0.89648 0.0
H758 H 0.36412 0.62385 0.88947 0.0
H759 H 0.32859 0.5286 0.91409 0.0
C760 C 0.4833 0.60228 0.84956 0.0
N761 N 0.45394 0.58343 0.86055 0.0
C762 C 0.48765 0.59419 0.82757 0.0
C763 C 0.43219 0.54669 0.82925 0.0
C764 C 0.42887 0.55574 0.85112 0.0
C765 C 0.46163 0.56638 0.81707 0.0
H766 H 0.50258 0.62443 0.85736 0.0
H767 H 0.40549 0.54184 0.86003 0.0
O768 O 0.41736 0.62171 0.93197 0.0
O769 O 0.47869 0.62535 0.90875 0.0
O770 O 0.41091 0.56138 0.90731 0.0
O771 O 0.42036 0.62251 0.88044 0.0
H772 H 0.40551 0.66665 0.91641 0.0
H773 H 0.3781 0.59303 0.96778 0.0
H774 H 0.36534 0.6792 0.93303 0.0
H775 H 0.33789 0.60645 0.98314 0.0
H776 H 0.56607 0.72323 0.8864 0.0
H777 H 0.51079 0.64273 0.94799 0.0
H778 H 0.51298 0.67191 0.87849 0.0
H779 H 0.56382 0.69462 0.95469 0.0
H780 H 0.44756 0.60561 0.01205 0.0
H781 H 0.47812 0.54267 0.98282 0.0
H782 H 0.4663 0.75031 0.88221 0.0
H783 H 0.49533 0.7437 0.95073 0.0
H784 H 0.38811 0.50218 0.89113 0.0
H785 H 0.38543 0.55626 0.94838 0.0
H786 H 0.34979 0.45098 0.91171 0.0
H787 H 0.34756 0.50425 0.96815 0.0
H788 H 0.36874 0.57761 0.85708 0.0
H789 H 0.46731 0.6619 0.85143 0.0
H790 H 0.36613 0.5736 0.81502 0.0
H791 H 0.46299 0.6563 0.80947 0.0
H792 H 0.30714 0.61175 0.88425 0.0
H793 H 0.27076 0.51432 0.90904 0.0
H794 H 0.51072 0.60989 0.81862 0.0
H795 H 0.41136 0.52543 0.82154 0.0
Li796 Li 0.79135 0.39762 0.07601 0.0
Li797 Li 0.83659 0.39484 0.09445 0.0
Li798 Li 0.83337 0.40029 0.05136 0.0
Li799 Li 0.79511 0.35114 0.07092 0.0
C800 C 0.83881 0.45887 0.08004 0.0
N801 N 0.83465 0.51306 0.08863 0.0
C802 C 0.847 0.47342 0.10149 0.0
C803 C 0.82881 0.47202 0.06289 0.0
C804 C 0.84468 0.50079 0.10551 0.0
C805 C 0.82675 0.49937 0.0676 0.0
C806 C 0.76388 0.34231 0.11128 0.0
C807 C 0.74501 0.29576 0.13589 0.0
N808 N 0.71343 0.2894 0.13422 0.0
C809 C 0.73127 0.3355 0.11002 0.0
C810 C 0.77086 0.32246 0.1245 0.0
C811 C 0.70611 0.30857 0.12165 0.0
C812 C 0.73771 0.40454 0.06515 0.0
N813 N 0.76099 0.41106 0.08119 0.0
C814 C 0.73525 0.42937 0.10708 0.0
C815 C 0.7603 0.42323 0.10187 0.0
C816 C 0.71045 0.42231 0.09098 0.0
C817 C 0.71191 0.40983 0.06974 0.0
H818 H 0.7385 0.3941 0.04912 0.0
H819 H 0.77865 0.42722 0.11452 0.0
C820 C 0.89482 0.41888 0.12269 0.0
N821 N 0.86165 0.40706 0.12175 0.0
C822 C 0.91136 0.42827 0.14359 0.0
C823 C 0.85927 0.41294 0.1619 0.0
C824 C 0.84386 0.40407 0.14076 0.0
C825 C 0.89341 0.42515 0.16352 0.0
H826 H 0.90837 0.4212 0.10724 0.0
H827 H 0.81766 0.3952 0.13947 0.0
C828 C 0.77836 0.3581 0.02701 0.0
N829 N 0.76597 0.32622 0.98577 0.0
C830 C 0.7955 0.34273 0.02087 0.0
C831 C 0.75483 0.35717 0.0121 0.0
C832 C 0.78892 0.32676 -1e-05 0.0
C833 C 0.74894 0.34096 0.99135 0.0
C834 C 0.85413 0.34946 0.07271 0.0
C835 C 0.86488 0.33862 0.05445 0.0
C836 C 0.85405 0.33826 0.09463 0.0
C837 C 0.8746 0.31614 0.05839 0.0
C838 C 0.86399 0.3158 0.09789 0.0
N839 N 0.87392 0.30526 0.07984 0.0
C840 C 0.88407 0.41808 0.01778 0.0
C841 C 0.8406 0.42707 0.00836 0.0
C842 C 0.89731 0.42723 0.99585 0.0
N843 N 0.85602 0.41788 0.02344 0.0
C844 C 0.85262 0.43582 0.98623 0.0
C845 C 0.88102 0.43553 0.97972 0.0
H846 H 0.89561 0.41034 0.03006 0.0
H847 H 0.81822 0.4265 0.01332 0.0
C848 C 0.73415 0.29913 0.06371 0.0
N849 N 0.76545 0.30561 0.06733 0.0
C850 C 0.70859 0.26779 0.0587 0.0
C851 C 0.74774 0.24981 0.06117 0.0
C852 C 0.77267 0.2817 0.06648 0.0
C853 C 0.71541 0.24285 0.05674 0.0
H854 H 0.72921 0.31868 0.06418 0.0
H855 H 0.79771 0.28734 0.06924 0.0
O856 O 0.8404 0.43176 0.07589 0.0
O857 O 0.78886 0.36848 0.09986 0.0
O858 O 0.78456 0.37412 0.0474 0.0
O859 O 0.84468 0.37162 0.06918 0.0
H860 H 0.85485 0.46356 0.11492 0.0
H861 H 0.82232 0.46096 0.04622 0.0
H862 H 0.85078 0.51223 0.12205 0.0
H863 H 0.81881 0.50968 0.05455 0.0
H864 H 0.75007 0.28012 0.14608 0.0
H865 H 0.7253 0.35054 0.09993 0.0
H866 H 0.79592 0.32757 0.12601 0.0
H867 H 0.68074 0.30289 0.12065 0.0
H868 H 0.73497 0.43906 0.12365 0.0
H869 H 0.69279 0.40321 0.0571 0.0
H870 H 0.9378 0.43777 0.14422 0.0
H871 H 0.84475 0.41093 0.17678 0.0
H872 H 0.81363 0.34304 0.03211 0.0
H873 H 0.74131 0.36895 0.01639 0.0
H874 H 0.80206 0.31479 0.9951 0.0
H875 H 0.73084 0.34013 0.97966 0.0
H876 H 0.86577 0.34749 0.03739 0.0
H877 H 0.84655 0.34688 0.109 0.0
H878 H 0.88278 0.30741 0.0444 0.0
H879 H 0.86388 0.30683 0.11477 0.0
H880 H 0.91937 0.42685 0.99131 0.0
H881 H 0.83971 0.44248 0.97426 0.0
H882 H 0.68384 0.26326 0.05597 0.0
H883 H 0.75386 0.23108 0.05982 0.0
Li884 Li 0.48666 0.83042 0.27298 0.0
Li885 Li 0.43779 0.79323 0.25142 0.0
Li886 Li 0.48536 0.78739 0.24773 0.0
Li887 Li 0.48536 0.83403 0.23061 0.0
C888 C 0.43369 0.76193 0.28929 0.0
N889 N 0.3789 0.72022 0.31532 0.0
C890 C 0.42121 0.77438 0.30526 0.0
C891 C 0.41846 0.72826 0.28668 0.0
C892 C 0.39347 0.7529 0.31825 0.0
C893 C 0.39071 0.70758 0.29995 0.0
C894 C 0.43908 0.85323 0.25562 0.0
C895 C 0.40863 0.87545 0.23855 0.0
N896 N 0.39885 0.87898 0.25957 0.0
C897 C 0.42915 0.85756 0.27707 0.0
C898 C 0.42914 0.86268 0.23621 0.0
C899 C 0.40864 0.87042 0.2787 0.0
C900 C 0.50676 0.88427 0.3016 0.0
N901 N 0.50116 0.8536 0.30068 0.0
C902 C 0.50636 0.85241 0.34099 0.0
C903 C 0.50174 0.83785 0.3197 0.0
C904 C 0.51031 0.88335 0.3426 0.0
C905 C 0.51145 0.89973 0.32253 0.0
H906 H 0.50592 0.89606 0.28617 0.0
H907 H 0.49713 0.81341 0.31841 0.0
C908 C 0.3782 0.73657 0.2419 0.0
N909 N 0.39063 0.76579 0.25248 0.0
C910 C 0.3448 0.71262 0.24413 0.0
C911 C 0.33743 0.74902 0.26832 0.0
C912 C 0.37094 0.77251 0.26533 0.0
C913 C 0.3243 0.71858 0.25786 0.0
H914 H 0.39455 0.73124 0.23258 0.0
H915 H 0.38144 0.79527 0.27427 0.0
C916 C 0.54793 0.84252 0.23667 0.0
N917 N 0.60197 0.85813 0.20936 0.0
C918 C 0.54359 0.82591 0.21625 0.0
C919 C 0.57972 0.86711 0.24317 0.0
C920 C 0.57122 0.83414 0.20269 0.0
C921 C 0.60674 0.87462 0.22914 0.0
C922 C 0.43939 0.77911 0.20383 0.0
C923 C 0.44265 0.75934 0.18795 0.0
C924 C 0.41805 0.79042 0.19935 0.0
C925 C 0.42467 0.75145 0.16771 0.0
C926 C 0.40046 0.78196 0.17893 0.0
N927 N 0.40413 0.76283 0.16365 0.0
C928 C 0.47023 0.7264 0.23602 0.0
C929 C 0.52703 0.75971 0.24601 0.0
C930 C 0.47451 0.70063 0.23076 0.0
N931 N 0.49627 0.75518 0.24335 0.0
C932 C 0.53256 0.73459 0.24061 0.0
C933 C 0.506 0.70467 0.2329 0.0
H934 H 0.44617 0.72373 0.23388 0.0
H935 H 0.5473 0.78291 0.25186 0.0
C936 C 0.51066 0.89492 0.20846 0.0
N937 N 0.50051 0.86306 0.20535 0.0
C938 C 0.52073 0.91614 0.18985 0.0
C939 C 0.50942 0.87122 0.16534 0.0
C940 C 0.50034 0.85118 0.18438 0.0
C941 C 0.52011 0.90428 0.1679 0.0
H942 H 0.51067 0.90375 0.22537 0.0
H943 H 0.49291 0.82603 0.18228 0.0
O944 O 0.46028 0.78262 0.27597 0.0
O945 O 0.45978 0.84137 0.2537 0.0
O946 O 0.52121 0.83522 0.2501 0.0
O947 O 0.45696 0.7871 0.22369 0.0
H948 H 0.43245 0.80036 0.30736 0.0
H949 H 0.42776 0.71818 0.27443 0.0
H950 H 0.38341 0.76221 0.33055 0.0
H951 H 0.37853 0.68147 0.298 0.0
H952 H 0.40064 0.88272 0.22367 0.0
H953 H 0.43683 0.85069 0.2923 0.0
H954 H 0.43742 0.86051 0.21951 0.0
H955 H 0.40051 0.8736 0.29518 0.0
H956 H 0.50604 0.83931 0.35606 0.0
H957 H 0.51442 0.92361 0.32309 0.0
H958 H 0.33546 0.68914 0.23614 0.0
H959 H 0.32215 0.75419 0.27916 0.0
H960 H 0.51919 0.80682 0.21091 0.0
H961 H 0.58346 0.88028 0.25889 0.0
H962 H 0.56822 0.82147 0.18686 0.0
H963 H 0.6315 0.8936 0.23397 0.0
H964 H 0.45911 0.75041 0.19117 0.0
H965 H 0.4148 0.8052 0.21163 0.0
H966 H 0.42706 0.73628 0.15522 0.0
H967 H 0.38382 0.79052 0.17525 0.0
H968 H 0.45363 0.67809 0.22446 0.0
H969 H 0.55721 0.73847 0.24234 0.0
H970 H 0.52878 0.94146 0.19259 0.0
H971 H 0.50738 0.86062 0.14875 0.0
C972 C 0.23484 0.65175 0.24866 0.0
C973 C 0.22432 0.63977 0.27079 0.0
C974 C 0.26739 0.67736 0.24453 0.0
C975 C 0.28998 0.69216 0.2625 0.0
H976 H 0.21784 0.64115 0.23451 0.0
H977 H 0.27487 0.68588 0.22725 0.0
S978 S 0.27423 0.66987 0.32348 0.0
N979 N 0.23872 0.6445 0.31083 0.0
N980 N 0.29982 0.69296 0.30308 0.0
C981 C 0.27965 0.68049 0.28469 0.0
C982 C 0.24678 0.65416 0.28884 0.0
C983 C 0.59932 0.21311 0.43056 0.0
C984 C 0.57929 0.19896 0.44987 0.0
C985 C 0.60929 0.2449 0.42389 0.0
C986 C 0.59981 0.26372 0.43642 0.0
H987 H 0.60715 0.19942 0.42049 0.0
H988 H 0.62451 0.25481 0.40878 0.0
S989 S 0.54956 0.23835 0.48941 0.0
N990 N 0.55135 0.20621 0.48196 0.0
N991 N 0.57067 0.26626 0.4698 0.0
C992 C 0.58003 0.24983 0.45593 0.0
C993 C 0.56966 0.21739 0.46257 0.0
C994 C 0.40886 0.57116 0.62393 0.0
C995 C 0.42036 0.5574 0.60807 0.0
C996 C 0.38476 0.57855 0.61797 0.0
C997 C 0.37154 0.57277 0.59586 0.0
H998 H 0.41797 0.57552 0.64124 0.0
H999 H 0.37644 0.58895 0.63076 0.0
S1000 S 0.39425 0.53812 0.54786 0.0
N1001 N 0.41748 0.53909 0.56918 0.0
N1002 N 0.37209 0.55293 0.55797 0.0
C1003 C 0.38329 0.55959 0.57972 0.0
C1004 C 0.40767 0.55185 0.58584 0.0
C1005 C 0.85699 0.40473 0.78734 0.0
C1006 C 0.88374 0.41617 0.77209 0.0
C1007 C 0.8252 0.37958 0.78125 0.0
C1008 C 0.81882 0.36505 0.7596 0.0
H1009 H 0.86089 0.41458 0.80438 0.0
H1010 H 0.8056 0.37094 0.79384 0.0
S1011 S 0.88005 0.38838 0.71283 0.0
N1012 N 0.90176 0.41245 0.73411 0.0
N1013 N 0.84165 0.36552 0.72238 0.0
C1014 C 0.84524 0.37689 0.74397 0.0
C1015 C 0.87776 0.40239 0.75027 0.0
C1016 C 0.47063 0.81292 0.94935 0.0
C1017 C 0.48934 0.84154 0.93657 0.0
C1018 C 0.46822 0.7839 0.94271 0.0
C1019 C 0.4844 0.78243 0.92304 0.0
H1020 H 0.4586 0.81318 0.96499 0.0
H1021 H 0.4537 0.76244 0.95315 0.0
S1022 S 0.53483 0.85017 0.88299 0.0
N1023 N 0.52287 0.86639 0.90271 0.0
N1024 N 0.51876 0.8117 0.89041 0.0
C1025 C 0.50239 0.81061 0.90973 0.0
C1026 C 0.50485 0.84024 0.9165 0.0
C1027 C 0.64125 0.42157 0.12431 0.0
C1028 C 0.63135 0.43822 0.10986 0.0
C1029 C 0.66643 0.41601 0.11786 0.0
C1030 C 0.68262 0.42693 0.09674 0.0
H1031 H 0.63039 0.41392 0.14109 0.0
H1032 H 0.67358 0.40343 0.12964 0.0
S1033 S 0.66414 0.46977 0.05215 0.0
N1034 N 0.63785 0.46353 0.0729 0.0
N1035 N 0.68608 0.45413 0.06105 0.0
C1036 C 0.67213 0.44261 0.08181 0.0
C1037 C 0.64631 0.44805 0.08832 0.0
C1038 C 0.42742 0.85195 0.52699 0.0
C1039 C 0.43012 0.87904 0.53822 0.0
C1040 C 0.4044 0.82013 0.53416 0.0
C1041 C 0.38319 0.81429 0.55276 0.0
H1042 H 0.44245 0.85532 0.5121 0.0
H1043 H 0.40249 0.79993 0.52467 0.0
S1044 S 0.38319 0.87672 0.58964 0.0
N1045 N 0.41176 0.89788 0.57018 0.0
N1046 N 0.36818 0.83806 0.58339 0.0
C1047 C 0.38644 0.84111 0.56462 0.0
C1048 C 0.40999 0.87347 0.55743 0.0
C1049 C 0.54071 0.3581 0.70586 0.0
C1050 C 0.56664 0.38835 0.69773 0.0
C1051 C 0.54712 0.33496 0.71484 0.0
C1052 C 0.5797 0.34152 0.71633 0.0
H1053 H 0.51522 0.35223 0.70525 0.0
H1054 H 0.52652 0.31182 0.72068 0.0
S1055 S 0.65619 0.41593 0.69666 0.0
N1056 N 0.62609 0.4228 0.69098 0.0
N1057 N 0.63806 0.37957 0.70863 0.0
C1058 C 0.60587 0.37157 0.7085 0.0
C1059 C 0.59937 0.39498 0.69905 0.0
C1060 C 0.20805 0.56853 0.89581 0.0
C1061 C 0.18719 0.54377 0.88057 0.0
C1062 C 0.23925 0.57372 0.90146 0.0
C1063 C 0.25045 0.55423 0.89212 0.0
H1064 H 0.20032 0.58416 0.90322 0.0
H1065 H 0.25493 0.59336 0.91298 0.0
S1066 S 0.20613 0.48753 0.85047 0.0
N1067 N 0.18046 0.50045 0.85557 0.0
N1068 N 0.23898 0.50999 0.86654 0.0
C1069 C 0.22977 0.52924 0.87706 0.0
C1070 C 0.19814 0.52407 0.87119 0.0
C1071 C 0.65794 0.15111 0.05468 0.0
C1072 C 0.63754 0.14682 0.03598 0.0
C1073 C 0.68319 0.18228 0.06132 0.0
C1074 C 0.68895 0.21005 0.04935 0.0
H1075 H 0.65433 0.13021 0.06419 0.0
H1076 H 0.69814 0.18467 0.07599 0.0
S1077 S 0.64414 0.21122 0.99789 0.0
N1078 N 0.6256 0.17238 0.00494 0.0
N1079 N 0.67349 0.23099 0.01703 0.0
C1080 C 0.66897 0.20591 0.03038 0.0
C1081 C 0.64313 0.17426 0.0238 0.0
C1082 C 0.53778 0.65847 0.20033 0.0
C1083 C 0.51761 0.62642 0.20847 0.0
C1084 C 0.53466 0.68392 0.20889 0.0
C1085 C 0.51115 0.67816 0.2258 0.0
H1086 H 0.55558 0.66382 0.18684 0.0
H1087 H 0.55002 0.70806 0.20174 0.0
S1088 S 0.45475 0.59953 0.25447 0.0
N1089 N 0.47517 0.59094 0.23571 0.0
N1090 N 0.4689 0.63877 0.25146 0.0
C1091 C 0.49145 0.64649 0.23453 0.0
C1092 C 0.49476 0.62061 0.22593 0.0
C1093 C 0.89184 0.50941 0.35622 0.0
C1094 C 0.90931 0.49661 0.36679 0.0
C1095 C 0.86233 0.5047 0.36556 0.0
C1096 C 0.84928 0.48721 0.38594 0.0
H1097 H 0.90089 0.52289 0.34044 0.0
H1098 H 0.84935 0.5144 0.35653 0.0
S1099 S 0.88707 0.45083 0.42108 0.0
N1100 N 0.91239 0.46688 0.3991 0.0
N1101 N 0.85711 0.45841 0.41697 0.0
C1102 C 0.86681 0.47466 0.39685 0.0
C1103 C 0.89677 0.47926 0.3872 0.0
C1104 C 0.09319 0.56624 0.44865 0.0
C1105 C 0.101 0.5535 0.42976 0.0
C1106 C 0.11251 0.5751 0.46848 0.0
C1107 C 0.14053 0.57206 0.46978 0.0
H1108 H 0.07225 0.56966 0.44796 0.0
H1109 H 0.10608 0.58517 0.48265 0.0
S1110 S 0.17184 0.54073 0.42502 0.0
N1111 N 0.13861 0.53833 0.41374 0.0
N1112 N 0.17519 0.55566 0.45082 0.0
C1113 C 0.14847 0.55927 0.45113 0.0
C1114 C 0.12861 0.54979 0.43115 0.0
C1115 C 0.54398 0.09524 0.61212 0.0
C1116 C 0.5446 0.06653 0.60925 0.0
C1117 C 0.5579 0.11488 0.6313 0.0
C1118 C 0.57316 0.10675 0.6484 0.0
H1119 H 0.53376 0.10334 0.59903 0.0
H1120 H 0.55707 0.13691 0.63258 0.0
S1121 S 0.57988 0.03326 0.6496 0.0
N1122 N 0.56012 0.02996 0.62567 0.0
N1123 N 0.58721 0.06744 0.66155 0.0
C1124 C 0.57314 0.07762 0.64611 0.0
C1125 C 0.55876 0.05747 0.62655 0.0
C1126 C 0.47598 0.57627 0.75336 0.0
C1127 C 0.46886 0.54528 0.74647 0.0
C1128 C 0.47377 0.58296 0.77626 0.0
C1129 C 0.46435 0.55889 0.79307 0.0
H1130 H 0.48343 0.59553 0.74096 0.0
H1131 H 0.4792 0.60706 0.78084 0.0
S1132 S 0.44469 0.47442 0.78419 0.0
N1133 N 0.45322 0.49068 0.75851 0.0
N1134 N 0.44867 0.50325 0.80148 0.0
C1135 C 0.45713 0.52784 0.78645 0.0
C1136 C 0.45947 0.52103 0.76318 0.0
C1137 C 0.9377 0.47852 0.92959 0.0
C1138 C 0.91819 0.46074 0.91082 0.0
C1139 C 0.92567 0.46996 0.95185 0.0
C1140 C 0.89344 0.44371 0.9561 0.0
H1141 H 0.96273 0.49891 0.92706 0.0
H1142 H 0.94156 0.48415 0.96583 0.0
S1143 S 0.83225 0.3896 0.91301 0.0
N1144 N 0.86512 0.41569 0.89797 0.0
N1145 N 0.84211 0.39995 0.9399 0.0
C1146 C 0.8735 0.42591 0.93753 0.0
C1147 C 0.88598 0.43431 0.91486 0.0
C1148 C 0.52096 0.96384 0.12503 0.0
C1149 C 0.53799 0.96096 0.10639 0.0
C1150 C 0.51646 0.94649 0.14522 0.0
C1151 C 0.5289 0.92564 0.14756 0.0
H1152 H 0.51029 0.97901 0.12381 0.0
H1153 H 0.50196 0.94843 0.15873 0.0
S1154 S 0.57714 0.91108 0.10429 0.0
N1155 N 0.5679 0.93604 0.09176 0.0
N1156 N 0.56135 0.9052 0.13013 0.0
C1157 C 0.54734 0.92376 0.12942 0.0
C1158 C 0.55145 0.94098 0.10876 0.0
C1159 C 0.56712 0.47489 0.28061 0.0
C1160 C 0.57852 0.50753 0.27514 0.0
C1161 C 0.57973 0.46689 0.29933 0.0
C1162 C 0.60424 0.49124 0.31328 0.0
H1163 H 0.54931 0.45537 0.26979 0.0
H1164 H 0.57058 0.44145 0.3027 0.0
S1165 S 0.64128 0.58034 0.3068 0.0
N1166 N 0.61444 0.56427 0.28572 0.0
N1167 N 0.63887 0.54934 0.32069 0.0
C1168 C 0.61515 0.52395 0.30841 0.0
C1169 C 0.60219 0.53208 0.28936 0.0
C1170 C 0.53718 0.94561 0.38995 0.0
C1171 C 0.51298 0.92878 0.40686 0.0
C1172 C 0.53648 0.93058 0.3694 0.0
C1173 C 0.51171 0.89807 0.36505 0.0
H1174 H 0.55634 0.97091 0.39237 0.0
H1175 H 0.55536 0.94458 0.35674 0.0
S1176 S 0.44299 0.84318 0.40396 0.0
N1177 N 0.46402 0.87769 0.41815 0.0
N1178 N 0.46237 0.84946 0.37936 0.0
C1179 C 0.48764 0.88079 0.38195 0.0
C1180 C 0.4883 0.89617 0.40287 0.0
C1181 C 0.56912 0.48235 0.53702 0.0
C1182 C 0.57027 0.51202 0.53945 0.0
C1183 C 0.58811 0.47844 0.52053 0.0
C1184 C 0.60859 0.50388 0.50559 0.0
H1185 H 0.55412 0.46219 0.54837 0.0
H1186 H 0.58664 0.45524 0.51939 0.0
S1187 S 0.61933 0.58582 0.50397 0.0
N1188 N 0.59291 0.567 0.52506 0.0
N1189 N 0.62829 0.55936 0.49359 0.0
C1190 C 0.6094 0.5334 0.50733 0.0
C1191 C 0.59037 0.53757 0.52441 0.0
C1192 C 0.08211 0.55647 0.69439 0.0
C1193 C 0.09381 0.54888 0.71399 0.0
C1194 C 0.10258 0.57022 0.67518 0.0
C1195 C 0.13556 0.57749 0.67527 0.0
H1196 H 0.05694 0.55153 0.69387 0.0
H1197 H 0.09274 0.57553 0.66029 0.0
S1198 S 0.17815 0.56266 0.72226 0.0
N1199 N 0.14054 0.54981 0.73222 0.0
N1200 N 0.17889 0.57592 0.69626 0.0
C1201 C 0.14754 0.57018 0.69474 0.0
C1202 C 0.12669 0.55581 0.71408 0.0
C1203 C 0.5917 0.10455 0.88892 0.0
C1204 C 0.57565 0.11155 0.90615 0.0
C1205 C 0.59904 0.12041 0.8679 0.0
C1206 C 0.59057 0.14386 0.86327 0.0
H1207 H 0.5981 0.08618 0.89154 0.0
H1208 H 0.61108 0.11394 0.85505 0.0
S1209 S 0.54967 0.17209 0.90305 0.0
N1210 N 0.55229 0.14407 0.91752 0.0
N1211 N 0.56626 0.17415 0.87788 0.0
C1212 C 0.57465 0.15125 0.88038 0.0
C1213 C 0.56714 0.13502 0.90184 0.0
C1214 C 0.49166 0.58453 0.06219 0.0
C1215 C 0.48194 0.5529 0.06932 0.0
C1216 C 0.4857 0.59062 0.03999 0.0
C1217 C 0.46956 0.56528 0.02402 0.0
H1218 H 0.50408 0.60482 0.07385 0.0
H1219 H 0.49416 0.61551 0.03524 0.0
S1220 S 0.43909 0.47797 0.03414 0.0
N1221 N 0.45621 0.49596 0.05844 0.0
N1222 N 0.44324 0.50714 0.01712 0.0
C1223 C 0.45945 0.53345 0.03098 0.0
C1224 C 0.46595 0.52731 0.05352 0.0
C1225 C 0.95305 0.47855 0.20969 0.0
C1226 C 0.94093 0.45857 0.22912 0.0
C1227 C 0.93804 0.46729 0.18842 0.0
C1228 C 0.91019 0.43575 0.18587 0.0
H1229 H 0.97458 0.50296 0.21091 0.0
H1230 H 0.94794 0.48357 0.17395 0.0
S1231 S 0.86946 0.37367 0.23134 0.0
N1232 N 0.89991 0.40567 0.24441 0.0
N1233 N 0.87164 0.3844 0.20442 0.0
C1234 C 0.898 0.41546 0.20513 0.0
C1235 C 0.91343 0.42686 0.22675 0.0
loop_
_geom_bond_atom_site_label_1
_geom_bond_atom_site_label_2
_geom_bond_distance
_geom_bond_site_symmetry_2
_ccdc_geom_bond_type
H0 O26 0.856 . S
H1 O29 0.854 . S
H2 C37 0.930 . S
H3 C38 0.930 . S
H4 C40 0.930 . S
H5 C41 0.930 . S
H6 C43 0.931 . S
H7 C44 0.930 . S
H8 C46 0.930 . S
H9 C47 0.929 . S
H10 C49 0.930 . S
H11 C50 0.931 . S
H12 C52 0.930 . S
H13 C53 0.929 . S
H14 C55 0.931 . S
H15 C56 0.930 . S
H16 C58 0.930 . S
H17 C59 0.932 . S
H18 C61 0.930 . S
H19 C62 0.929 . S
H20 C64 0.931 . S
H21 C65 0.930 . S
H22 C67 0.929 . S
H23 C68 0.931 . S
H24 C70 0.930 . S
H25 C71 0.929 1_455 S
O26 H0 0.856 . S
O26 C72 1.300 . S
O27 C72 1.209 . S
O28 C73 1.199 . S
O29 H1 0.854 . S
O29 C73 1.297 . S
C30 C31 1.404 . S
C30 C35 1.397 . S
C30 C36 1.492 . S
C31 C30 1.404 . S
C31 C32 1.396 . S
C31 C42 1.492 . S
C32 C31 1.396 . S
C32 C33 1.397 . S
C32 C48 1.509 . S
C33 C32 1.397 . S
C33 C34 1.412 . S
C33 C54 1.485 . S
C34 C33 1.412 . S
C34 C35 1.388 . S
C34 C60 1.490 . S
C35 C30 1.397 . S
C35 C34 1.388 . S
C35 C66 1.519 . S
C36 C30 1.492 . S
C36 C37 1.363 . S
C36 C41 1.390 1_455 S
C37 H2 0.930 . S
C37 C36 1.363 . S
C37 C38 1.372 1_455 S
C38 H3 0.930 . S
C38 C37 1.372 1_655 S
C38 C39 1.383 . S
C39 C38 1.383 . S
C39 C40 1.395 . S
C40 H4 0.930 . S
C40 C39 1.395 . S
C40 C41 1.362 . S
C41 H5 0.930 . S
C41 C36 1.390 1_655 S
C41 C40 1.362 . S
C42 C31 1.492 . S
C42 C43 1.377 . S
C42 C47 1.397 . S
C43 H6 0.931 . S
C43 C42 1.377 . S
C43 C44 1.376 . S
C44 H7 0.930 . S
C44 C43 1.376 . S
C44 C45 1.376 . S
C45 C44 1.376 . S
C45 C46 1.378 . S
C45 C72 1.486 . S
C46 H8 0.930 . S
C46 C45 1.378 . S
C46 C47 1.376 . S
C47 H9 0.929 . S
C47 C42 1.397 . S
C47 C46 1.376 . S
C48 C32 1.509 . S
C48 C49 1.391 . S
C48 C53 1.386 . S
C49 H10 0.930 . S
C49 C48 1.391 . S
C49 C50 1.375 . S
C50 H11 0.931 . S
C50 C49 1.375 . S
C50 C51 1.375 . S
C51 C50 1.375 . S
C51 C52 1.361 . S
C52 H12 0.930 . S
C52 C51 1.361 . S
C52 C53 1.399 . S
C53 H13 0.929 . S
C53 C48 1.386 . S
C53 C52 1.399 . S
C54 C33 1.485 . S
C54 C55 1.394 . S
C54 C59 1.360 . S
C55 H14 0.931 . S
C55 C54 1.394 . S
C55 C56 1.372 . S
C56 H15 0.930 . S
C56 C55 1.372 . S
C56 C57 1.397 . S
C57 C56 1.397 . S
C57 C58 1.390 . S
C57 C73 1.476 . S
C58 H16 0.930 . S
C58 C57 1.390 . S
C58 C59 1.366 . S
C59 H17 0.932 . S
C59 C54 1.360 . S
C59 C58 1.366 . S
C60 C34 1.490 . S
C60 C61 1.380 . S
C60 C65 1.386 . S
C61 H18 0.930 . S
C61 C60 1.380 . S
C61 C62 1.381 . S
C62 H19 0.929 . S
C62 C61 1.381 . S
C62 C63 1.371 . S
C63 C62 1.371 . S
C63 C64 1.380 . S
C64 H20 0.931 . S
C64 C63 1.380 . S
C64 C65 1.387 . S
C65 H21 0.930 . S
C65 C60 1.386 . S
C65 C64 1.387 . S
C66 C35 1.519 . S
C66 C67 1.377 1_455 S
C66 C71 1.361 1_455 S
C67 H22 0.929 . S
C67 C66 1.377 1_655 S
C67 C68 1.386 . S
C68 H23 0.931 . S
C68 C67 1.386 . S
C68 C69 1.363 . S
C69 C68 1.363 . S
C69 C70 1.385 . S
C70 H24 0.930 . S
C70 C69 1.385 . S
C70 C71 1.396 . S
C71 H25 0.929 1_655 S
C71 C66 1.361 1_655 S
C71 C70 1.396 . S
C72 O26 1.300 . S
C72 O27 1.209 . S
C72 C45 1.486 . S
C73 O28 1.199 . S
C73 O29 1.297 . S
C73 C57 1.476 . S
H74 O100 0.856 . S
H75 O103 0.854 . S
H76 C111 0.930 . S
H77 C112 0.930 . S
H78 C114 0.930 . S
H79 C115 0.930 . S
H80 C117 0.931 . S
H81 C118 0.930 . S
H82 C120 0.930 . S
H83 C121 0.929 . S
H84 C123 0.930 . S
H85 C124 0.931 . S
H86 C126 0.930 . S
H87 C127 0.929 . S
H88 C129 0.931 . S
H89 C130 0.930 . S
H90 C132 0.930 . S
H91 C133 0.932 . S
H92 C135 0.930 . S
H93 C136 0.929 . S
H94 C138 0.931 . S
H95 C139 0.930 . S
H96 C141 0.929 . S
H97 C142 0.931 . S
H98 C144 0.930 . S
H99 C145 0.929 1_545 S
O100 H74 0.856 . S
O100 C146 1.300 . S
O101 C146 1.209 . S
O102 C147 1.199 . S
O103 H75 0.854 . S
O103 C147 1.297 . S
C104 C105 1.404 . S
C104 C109 1.397 . S
C104 C110 1.492 . S
C105 C104 1.404 . S
C105 C106 1.396 . S
C105 C116 1.492 . S
C106 C105 1.396 . S
C106 C107 1.397 . S
C106 C122 1.509 . S
C107 C106 1.397 . S
C107 C108 1.412 . S
C107 C128 1.485 . S
C108 C107 1.412 . S
C108 C109 1.388 . S
C108 C134 1.490 . S
C109 C104 1.397 . S
C109 C108 1.388 . S
C109 C140 1.519 . S
C110 C104 1.492 . S
C110 C111 1.363 . S
C110 C115 1.390 1_545 S
C111 H76 0.930 . S
C111 C110 1.363 . S
C111 C112 1.372 1_545 S
C112 H77 0.930 . S
C112 C111 1.372 1_565 S
C112 C113 1.383 . S
C113 C112 1.383 . S
C113 C114 1.395 . S
C114 H78 0.930 . S
C114 C113 1.395 . S
C114 C115 1.362 . S
C115 H79 0.930 . S
C115 C110 1.390 1_565 S
C115 C114 1.362 . S
C116 C105 1.492 . S
C116 C117 1.377 . S
C116 C121 1.397 . S
C117 H80 0.931 . S
C117 C116 1.377 . S
C117 C118 1.376 . S
C118 H81 0.930 . S
C118 C117 1.376 . S
C118 C119 1.376 . S
C119 C118 1.376 . S
C119 C120 1.378 . S
C119 C146 1.486 . S
C120 H82 0.930 . S
C120 C119 1.378 . S
C120 C121 1.376 . S
C121 H83 0.929 . S
C121 C116 1.397 . S
C121 C120 1.376 . S
C122 C106 1.509 . S
C122 C123 1.391 . S
C122 C127 1.386 . S
C123 H84 0.930 . S
C123 C122 1.391 . S
C123 C124 1.375 . S
C124 H85 0.931 . S
C124 C123 1.375 . S
C124 C125 1.375 . S
C125 C124 1.375 . S
C125 C126 1.361 . S
C126 H86 0.930 . S
C126 C125 1.361 . S
C126 C127 1.399 . S
C127 H87 0.929 . S
C127 C122 1.386 . S
C127 C126 1.399 . S
C128 C107 1.485 . S
C128 C129 1.394 . S
C128 C133 1.360 . S
C129 H88 0.931 . S
C129 C128 1.394 . S
C129 C130 1.372 . S
C130 H89 0.930 . S
C130 C129 1.372 . S
C130 C131 1.397 . S
C131 C130 1.397 . S
C131 C132 1.390 . S
C131 C147 1.476 . S
C132 H90 0.930 . S
C132 C131 1.390 . S
C132 C133 1.366 . S
C133 H91 0.932 . S
C133 C128 1.360 . S
C133 C132 1.366 . S
C134 C108 1.490 . S
C134 C135 1.380 . S
C134 C139 1.386 . S
C135 H92 0.930 . S
C135 C134 1.380 . S
C135 C136 1.381 . S
C136 H93 0.929 . S
C136 C135 1.381 . S
C136 C137 1.371 . S
C137 C136 1.371 . S
C137 C138 1.380 . S
C138 H94 0.931 . S
C138 C137 1.380 . S
C138 C139 1.387 . S
C139 H95 0.930 . S
C139 C134 1.386 . S
C139 C138 1.387 . S
C140 C109 1.519 . S
C140 C141 1.377 1_545 S
C140 C145 1.361 1_545 S
C141 H96 0.929 . S
C141 C140 1.377 1_565 S
C141 C142 1.386 . S
C142 H97 0.931 . S
C142 C141 1.386 . S
C142 C143 1.363 . S
C143 C142 1.363 . S
C143 C144 1.385 . S
C144 H98 0.930 . S
C144 C143 1.385 . S
C144 C145 1.396 . S
C145 H99 0.929 1_565 S
C145 C140 1.361 1_565 S
C145 C144 1.396 . S
C146 O100 1.300 . S
C146 O101 1.209 . S
C146 C119 1.486 . S
C147 O102 1.199 . S
C147 O103 1.297 . S
C147 C131 1.476 . S
H148 O174 0.856 . S
H149 O177 0.854 . S
H150 C185 0.930 . S
H151 C186 0.930 . S
H152 C188 0.930 . S
H153 C189 0.930 . S
H154 C191 0.931 . S
H155 C192 0.930 . S
H156 C194 0.930 . S
H157 C195 0.929 . S
H158 C197 0.930 . S
H159 C198 0.931 . S
H160 C200 0.930 . S
H161 C201 0.929 . S
H162 C203 0.931 . S
H163 C204 0.930 . S
H164 C206 0.930 . S
H165 C207 0.932 . S
H166 C209 0.930 . S
H167 C210 0.929 . S
H168 C212 0.931 . S
H169 C213 0.930 . S
H170 C215 0.929 . S
H171 C216 0.931 . S
H172 C218 0.930 . S
H173 C219 0.929 . S
O174 H148 0.856 . S
O174 C220 1.300 . S
O175 C220 1.209 . S
O176 C221 1.199 . S
O177 H149 0.854 . S
O177 C221 1.297 . S
C178 C179 1.404 . S
C178 C183 1.397 . S
C178 C184 1.492 . S
C179 C178 1.404 . S
C179 C180 1.396 . S
C179 C190 1.492 . S
C180 C179 1.396 . S
C180 C181 1.397 . S
C180 C196 1.509 . S
C181 C180 1.397 . S
C181 C182 1.412 . S
C181 C202 1.485 . S
C182 C181 1.412 . S
C182 C183 1.388 . S
C182 C208 1.490 . S
C183 C178 1.397 . S
C183 C182 1.388 . S
C183 C214 1.519 . S
C184 C178 1.492 . S
C184 C185 1.363 . S
C184 C189 1.390 . S
C185 H150 0.930 . S
C185 C184 1.363 . S
C185 C186 1.372 . S
C186 H151 0.930 . S
C186 C185 1.372 . S
C186 C187 1.383 . S
C187 C186 1.383 . S
C187 C188 1.395 . S
C188 H152 0.930 . S
C188 C187 1.395 . S
C188 C189 1.362 . S
C189 H153 0.930 . S
C189 C184 1.390 . S
C189 C188 1.362 . S
C190 C179 1.492 . S
C190 C191 1.377 . S
C190 C195 1.397 . S
C191 H154 0.931 . S
C191 C190 1.377 . S
C191 C192 1.376 . S
C192 H155 0.930 . S
C192 C191 1.376 . S
C192 C193 1.376 . S
C193 C192 1.376 . S
C193 C194 1.378 . S
C193 C220 1.486 . S
C194 H156 0.930 . S
C194 C193 1.378 . S
C194 C195 1.376 . S
C195 H157 0.929 . S
C195 C190 1.397 . S
C195 C194 1.376 . S
C196 C180 1.509 . S
C196 C197 1.391 . S
C196 C201 1.386 . S
C197 H158 0.930 . S
C197 C196 1.391 . S
C197 C198 1.375 . S
C198 H159 0.931 . S
C198 C197 1.375 . S
C198 C199 1.375 . S
C199 C198 1.375 . S
C199 C200 1.361 . S
C200 H160 0.930 . S
C200 C199 1.361 . S
C200 C201 1.399 . S
C201 H161 0.929 . S
C201 C196 1.386 . S
C201 C200 1.399 . S
C202 C181 1.485 . S
C202 C203 1.394 . S
C202 C207 1.360 . S
C203 H162 0.931 . S
C203 C202 1.394 . S
C203 C204 1.372 . S
C204 H163 0.930 . S
C204 C203 1.372 . S
C204 C205 1.397 . S
C205 C204 1.397 . S
C205 C206 1.390 . S
C205 C221 1.476 . S
C206 H164 0.930 . S
C206 C205 1.390 . S
C206 C207 1.366 . S
C207 H165 0.932 . S
C207 C202 1.360 . S
C207 C206 1.366 . S
C208 C182 1.490 . S
C208 C209 1.380 . S
C208 C213 1.386 . S
C209 H166 0.930 . S
C209 C208 1.380 . S
C209 C210 1.381 . S
C210 H167 0.929 . S
C210 C209 1.381 . S
C210 C211 1.371 . S
C211 C210 1.371 . S
C211 C212 1.380 . S
C212 H168 0.931 . S
C212 C211 1.380 . S
C212 C213 1.387 . S
C213 H169 0.930 . S
C213 C208 1.386 . S
C213 C212 1.387 . S
C214 C183 1.519 . S
C214 C215 1.377 . S
C214 C219 1.361 . S
C215 H170 0.929 . S
C215 C214 1.377 . S
C215 C216 1.386 . S
C216 H171 0.931 . S
C216 C215 1.386 . S
C216 C217 1.363 . S
C217 C216 1.363 . S
C217 C218 1.385 . S
C218 H172 0.930 . S
C218 C217 1.385 . S
C218 C219 1.396 . S
C219 H173 0.929 . S
C219 C214 1.361 . S
C219 C218 1.396 . S
C220 O174 1.300 . S
C220 O175 1.209 . S
C220 C193 1.486 . S
C221 O176 1.199 . S
C221 O177 1.297 . S
C221 C205 1.476 . S
H222 O248 0.856 . S
H223 O251 0.854 . S
H224 C259 0.930 1_455 S
H225 C260 0.930 . S
H226 C262 0.930 . S
H227 C263 0.930 . S
H228 C265 0.931 . S
H229 C266 0.930 . S
H230 C268 0.930 . S
H231 C269 0.929 . S
H232 C271 0.930 . S
H233 C272 0.931 . S
H234 C274 0.930 . S
H235 C275 0.929 . S
H236 C277 0.931 . S
H237 C278 0.930 . S
H238 C280 0.930 . S
H239 C281 0.932 . S
H240 C283 0.930 . S
H241 C284 0.929 . S
H242 C286 0.931 . S
H243 C287 0.930 . S
H244 C289 0.929 . S
H245 C290 0.931 . S
H246 C292 0.930 . S
H247 C293 0.953 . S
O248 H222 0.856 . S
O248 C294 1.300 . S
O249 C294 1.209 . S
O250 C295 1.199 . S
O251 H223 0.854 . S
O251 C295 1.297 . S
C252 C253 1.404 . S
C252 C257 1.397 . S
C252 C258 1.492 . S
C253 C252 1.404 . S
C253 C254 1.396 . S
C253 C264 1.492 . S
C254 C253 1.396 . S
C254 C255 1.397 . S
C254 C270 1.509 . S
C255 C254 1.397 . S
C255 C256 1.412 . S
C255 C276 1.485 . S
C256 C255 1.412 . S
C256 C257 1.388 . S
C256 C282 1.490 . S
C257 C252 1.397 . S
C257 C256 1.388 . S
C257 C288 1.519 1_455 S
C258 C252 1.492 . S
C258 C259 1.363 1_455 S
C258 C263 1.390 1_455 S
C259 H224 0.930 1_655 S
C259 C258 1.363 1_655 S
C259 C260 1.372 . S
C260 H225 0.930 . S
C260 C259 1.372 . S
C260 C261 1.383 . S
C261 C260 1.383 . S
C261 C262 1.395 . S
C262 H226 0.930 . S
C262 C261 1.395 . S
C262 C263 1.362 . S
C263 H227 0.930 . S
C263 C258 1.390 1_655 S
C263 C262 1.362 . S
C264 C253 1.492 . S
C264 C265 1.377 . S
C264 C269 1.397 . S
C265 H228 0.931 . S
C265 C264 1.377 . S
C265 C266 1.376 . S
C266 H229 0.930 . S
C266 C265 1.376 . S
C266 C267 1.376 . S
C267 C266 1.376 . S
C267 C268 1.378 . S
C267 C294 1.486 . S
C268 H230 0.930 . S
C268 C267 1.378 . S
C268 C269 1.376 . S
C269 H231 0.929 . S
C269 C264 1.397 . S
C269 C268 1.376 . S
C270 C254 1.509 . S
C270 C271 1.391 . S
C270 C275 1.386 . S
C271 H232 0.930 . S
C271 C270 1.391 . S
C271 C272 1.375 . S
C272 H233 0.931 . S
C272 C271 1.375 . S
C272 C273 1.375 . S
C273 C272 1.375 . S
C273 C274 1.361 . S
C274 H234 0.930 . S
C274 C273 1.361 . S
C274 C275 1.399 . S
C275 H235 0.929 . S
C275 C270 1.386 . S
C275 C274 1.399 . S
C276 C255 1.485 . S
C276 C277 1.394 . S
C276 C281 1.360 . S
C277 H236 0.931 . S
C277 C276 1.394 . S
C277 C278 1.372 . S
C278 H237 0.930 . S
C278 C277 1.372 . S
C278 C279 1.397 . S
C279 C278 1.397 . S
C279 C280 1.390 . S
C279 C295 1.476 . S
C280 H238 0.930 . S
C280 C279 1.390 . S
C280 C281 1.366 . S
C281 H239 0.932 . S
C281 C276 1.360 . S
C281 C280 1.366 . S
C282 C256 1.490 . S
C282 C283 1.380 . S
C282 C287 1.386 . S
C283 H240 0.930 . S
C283 C282 1.380 . S
C283 C284 1.381 . S
C284 H241 0.929 . S
C284 C283 1.381 . S
C284 C285 1.371 . S
C285 C284 1.371 . S
C285 C286 1.380 . S
C286 H242 0.931 . S
C286 C285 1.380 . S
C286 C287 1.387 . S
C287 H243 0.930 . S
C287 C282 1.386 . S
C287 C286 1.387 . S
C288 C257 1.519 1_655 S
C288 C289 1.377 . S
C288 C293 1.361 . S
C289 H244 0.929 . S
C289 C288 1.377 . S
C289 C290 1.386 . S
C290 H245 0.931 . S
C290 C289 1.386 . S
C290 C291 1.363 . S
C291 C290 1.363 . S
C291 C292 1.385 . S
C292 H246 0.930 . S
C292 C291 1.385 . S
C292 C293 1.396 . S
C293 H247 0.953 . S
C293 C288 1.361 . S
C293 C292 1.396 . S
C294 O248 1.300 . S
C294 O249 1.209 . S
C294 C267 1.486 . S
C295 O250 1.199 . S
C295 O251 1.297 . S
C295 C279 1.476 . S
H296 O322 0.856 . S
H297 O325 0.854 . S
H298 C333 0.930 . S
H299 C334 0.930 . S
H300 C336 0.930 . S
H301 C337 0.930 . S
H302 C339 0.931 . S
H303 C340 0.930 . S
H304 C342 0.930 . S
H305 C343 0.929 . S
H306 C345 0.930 . S
H307 C346 0.931 . S
H308 C348 0.930 . S
H309 C349 0.929 . S
H310 C351 0.931 . S
H311 C352 0.930 . S
H312 C354 0.930 . S
H313 C355 0.932 . S
H314 C357 0.930 . S
H315 C358 0.945 . S
H316 C360 0.931 . S
H317 C361 0.930 . S
H318 C363 0.929 1_556 S
H319 C364 0.931 . S
H320 C366 0.930 . S
H321 C367 0.929 . S
O322 H296 0.856 . S
O322 C368 1.300 . S
O323 C368 1.209 . S
O324 C369 1.199 . S
O325 H297 0.854 . S
O325 C369 1.297 . S
C326 C327 1.404 . S
C326 C331 1.397 1_565 S
C326 C332 1.492 1_565 S
C327 C326 1.404 . S
C327 C328 1.396 . S
C327 C338 1.492 . S
C328 C327 1.396 . S
C328 C329 1.409 . S
C328 C344 1.509 . S
C329 C328 1.409 . S
C329 C330 1.408 1_556 S
C329 C350 1.478 1_556 S
C330 C329 1.408 1_554 S
C330 C331 1.385 1_564 S
C330 C356 1.490 . S
C331 C326 1.397 1_545 S
C331 C330 1.385 1_546 S
C331 C362 1.523 1_556 S
C332 C326 1.492 1_545 S
C332 C333 1.363 . S
C332 C337 1.390 . S
C333 H298 0.930 . S
C333 C332 1.363 . S
C333 C334 1.372 . S
C334 H299 0.930 . S
C334 C333 1.372 . S
C334 C335 1.383 . S
C335 C334 1.383 . S
C335 C336 1.395 . S
C336 H300 0.930 . S
C336 C335 1.395 . S
C336 C337 1.362 . S
C337 H301 0.930 . S
C337 C332 1.390 . S
C337 C336 1.362 . S
C338 C327 1.492 . S
C338 C339 1.377 . S
C338 C343 1.397 . S
C339 H302 0.931 . S
C339 C338 1.377 . S
C339 C340 1.376 . S
C340 H303 0.930 . S
C340 C339 1.376 . S
C340 C341 1.376 . S
C341 C340 1.376 . S
C341 C342 1.378 . S
C341 C368 1.486 . S
C342 H304 0.930 . S
C342 C341 1.378 . S
C342 C343 1.376 . S
C343 H305 0.929 . S
C343 C338 1.397 . S
C343 C342 1.376 . S
C344 C328 1.509 . S
C344 C345 1.391 . S
C344 C349 1.386 . S
C345 H306 0.930 . S
C345 C344 1.391 . S
C345 C346 1.375 . S
C346 H307 0.931 . S
C346 C345 1.375 . S
C346 C347 1.375 . S
C347 C346 1.375 . S
C347 C348 1.361 . S
C348 H308 0.930 . S
C348 C347 1.361 . S
C348 C349 1.399 . S
C349 H309 0.929 . S
C349 C344 1.386 . S
C349 C348 1.399 . S
C350 C329 1.478 1_554 S
C350 C351 1.394 . S
C350 C355 1.360 . S
C351 H310 0.931 . S
C351 C350 1.394 . S
C351 C352 1.372 . S
C352 H311 0.930 . S
C352 C351 1.372 . S
C352 C353 1.397 . S
C353 C352 1.397 . S
C353 C354 1.390 . S
C353 C369 1.476 . S
C354 H312 0.930 . S
C354 C353 1.390 . S
C354 C355 1.366 . S
C355 H313 0.932 . S
C355 C350 1.360 . S
C355 C354 1.366 . S
C356 C330 1.490 . S
C356 C357 1.380 . S
C356 C361 1.386 . S
C357 H314 0.930 . S
C357 C356 1.380 . S
C357 C358 1.381 . S
C358 H315 0.945 . S
C358 C357 1.381 . S
C358 C359 1.371 . S
C359 C358 1.371 . S
C359 C360 1.380 . S
C360 H316 0.931 . S
C360 C359 1.380 . S
C360 C361 1.387 . S
C361 H317 0.930 . S
C361 C356 1.386 . S
C361 C360 1.387 . S
C362 C331 1.523 1_554 S
C362 C363 1.377 . S
C362 C367 1.361 . S
C363 H318 0.929 1_554 S
C363 C362 1.377 . S
C363 C364 1.386 . S
C364 H319 0.931 . S
C364 C363 1.386 . S
C364 C365 1.363 . S
C365 C364 1.363 . S
C365 C366 1.385 . S
C366 H320 0.930 . S
C366 C365 1.385 . S
C366 C367 1.396 . S
C367 H321 0.929 . S
C367 C362 1.361 . S
C367 C366 1.396 . S
C368 O322 1.300 . S
C368 O323 1.209 . S
C368 C341 1.486 . S
C369 O324 1.199 . S
C369 O325 1.297 . S
C369 C353 1.476 . S
H370 O396 0.856 . S
H371 O399 0.854 . S
H372 C407 0.930 . S
H373 C408 0.930 . S
H374 C410 0.930 . S
H375 C411 0.930 . S
H376 C413 0.931 . S
H377 C414 0.930 . S
H378 C416 0.930 . S
H379 C417 0.929 . S
H380 C419 0.930 . S
H381 C420 0.931 . S
H382 C422 0.930 . S
H383 C423 0.929 . S
H384 C425 0.931 . S
H385 C426 0.930 . S
H386 C428 0.930 . S
H387 C429 0.932 . S
H388 C431 0.930 . S
H389 C432 0.929 . S
H390 C434 0.931 . S
H391 C435 0.930 . S
H392 C437 0.929 . S
H393 C438 0.931 . S
H394 C440 0.930 . S
H395 C441 0.929 . S
O396 H370 0.856 . S
O396 C442 1.300 . S
O397 C442 1.209 . S
O398 C443 1.199 . S
O399 H371 0.854 . S
O399 C443 1.297 . S
C400 C401 1.404 . S
C400 C405 1.397 . S
C400 C406 1.492 . S
C401 C400 1.404 . S
C401 C402 1.396 . S
C401 C412 1.492 . S
C402 C401 1.396 . S
C402 C403 1.397 . S
C402 C418 1.509 . S
C403 C402 1.397 . S
C403 C404 1.412 . S
C403 C424 1.485 . S
C404 C403 1.412 . S
C404 C405 1.388 . S
C404 C430 1.490 . S
C405 C400 1.397 . S
C405 C404 1.388 . S
C405 C436 1.519 . S
C406 C400 1.492 . S
C406 C407 1.363 . S
C406 C411 1.390 . S
C407 H372 0.930 . S
C407 C406 1.363 . S
C407 C408 1.372 . S
C408 H373 0.930 . S
C408 C407 1.372 . S
C408 C409 1.383 . S
C409 C408 1.383 . S
C409 C410 1.395 . S
C410 H374 0.930 . S
C410 C409 1.395 . S
C410 C411 1.362 . S
C411 H375 0.930 . S
C411 C406 1.390 . S
C411 C410 1.362 . S
C412 C401 1.492 . S
C412 C413 1.377 . S
C412 C417 1.397 . S
C413 H376 0.931 . S
C413 C412 1.377 . S
C413 C414 1.376 . S
C414 H377 0.930 . S
C414 C413 1.376 . S
C414 C415 1.376 . S
C415 C414 1.376 . S
C415 C416 1.378 . S
C415 C442 1.486 . S
C416 H378 0.930 . S
C416 C415 1.378 . S
C416 C417 1.376 . S
C417 H379 0.929 . S
C417 C412 1.397 . S
C417 C416 1.376 . S
C418 C402 1.509 . S
C418 C419 1.391 . S
C418 C423 1.386 . S
C419 H380 0.930 . S
C419 C418 1.391 . S
C419 C420 1.375 . S
C420 H381 0.931 . S
C420 C419 1.375 . S
C420 C421 1.375 . S
C421 C420 1.375 . S
C421 C422 1.361 . S
C422 H382 0.930 . S
C422 C421 1.361 . S
C422 C423 1.399 . S
C423 H383 0.929 . S
C423 C418 1.386 . S
C423 C422 1.399 . S
C424 C403 1.485 . S
C424 C425 1.394 . S
C424 C429 1.360 . S
C425 H384 0.931 . S
C425 C424 1.394 . S
C425 C426 1.372 . S
C426 H385 0.930 . S
C426 C425 1.372 . S
C426 C427 1.397 . S
C427 C426 1.397 . S
C427 C428 1.390 . S
C427 C443 1.476 . S
C428 H386 0.930 . S
C428 C427 1.390 . S
C428 C429 1.366 . S
C429 H387 0.932 . S
C429 C424 1.360 . S
C429 C428 1.366 . S
C430 C404 1.490 . S
C430 C431 1.380 . S
C430 C435 1.386 . S
C431 H388 0.930 . S
C431 C430 1.380 . S
C431 C432 1.381 . S
C432 H389 0.929 . S
C432 C431 1.381 . S
C432 C433 1.371 . S
C433 C432 1.371 . S
C433 C434 1.380 . S
C434 H390 0.931 . S
C434 C433 1.380 . S
C434 C435 1.387 . S
C435 H391 0.930 . S
C435 C430 1.386 . S
C435 C434 1.387 . S
C436 C405 1.519 . S
C436 C437 1.377 . S
C436 C441 1.361 . S
C437 H392 0.929 . S
C437 C436 1.377 . S
C437 C438 1.386 . S
C438 H393 0.931 . S
C438 C437 1.386 . S
C438 C439 1.363 . S
C439 C438 1.363 . S
C439 C440 1.385 . S
C440 H394 0.930 . S
C440 C439 1.385 . S
C440 C441 1.396 . S
C441 H395 0.929 . S
C441 C436 1.361 . S
C441 C440 1.396 . S
C442 O396 1.300 . S
C442 O397 1.209 . S
C442 C415 1.486 . S
C443 O398 1.199 . S
C443 O399 1.297 . S
C443 C427 1.476 . S
Li444 N461 1.990 . S
Li444 O504 1.956 . S
Li444 O505 1.970 . S
Li444 O506 1.961 . S
Li445 N469 1.990 . S
Li445 O504 1.970 . S
Li445 O505 1.956 . S
Li445 O507 1.961 . S
Li446 N491 1.990 . S
Li446 O504 1.961 . S
Li446 O506 1.956 . S
Li446 O507 1.970 . S
Li447 N497 1.990 . S
Li447 O505 1.961 . S
Li447 O506 1.970 . S
Li447 O507 1.956 . S
C448 C450 1.348 . S
C448 C451 1.356 . S
C448 O504 1.325 . S
N449 C452 1.314 . S
N449 C453 1.279 . S
C450 C448 1.348 . S
C450 C452 1.353 . S
C450 H508 0.929 . S
C451 C448 1.356 . S
C451 C453 1.358 . S
C451 H509 0.930 . S
C452 N449 1.314 . S
C452 C450 1.353 . S
C452 H510 0.930 . S
C453 N449 1.279 . S
C453 C451 1.358 . S
C453 H511 0.930 . S
C454 C457 1.348 . S
C454 C458 1.356 . S
C454 O505 1.325 . S
C455 N456 1.279 . S
C455 C458 1.358 . S
C455 H512 0.930 . S
N456 C455 1.279 . S
N456 C459 1.314 . S
C457 C454 1.348 . S
C457 C459 1.353 . S
C457 H513 0.929 . S
C458 C454 1.356 . S
C458 C455 1.358 . S
C458 H514 0.930 . S
C459 N456 1.314 . S
C459 C457 1.353 . S
C459 H515 0.930 . S
C460 N461 1.314 . S
C460 C465 1.353 . S
C460 H466 0.930 . S
N461 Li444 1.990 . S
N461 C460 1.314 . S
N461 C463 1.279 . S
C462 C463 1.358 . S
C462 C464 1.356 . S
C462 H516 0.930 . S
C463 N461 1.279 . S
C463 C462 1.358 . S
C463 H467 0.930 . S
C464 C462 1.356 . S
C464 C465 1.348 . S
C465 C460 1.353 . S
C465 C464 1.348 . S
C465 H517 0.929 . S
H466 C460 0.930 . S
H467 C463 0.930 . S
C468 N469 1.314 . S
C468 C470 1.353 . S
C468 H474 0.930 . S
N469 Li445 1.990 . S
N469 C468 1.314 . S
N469 C472 1.279 . S
C470 C468 1.353 . S
C470 C473 1.348 . S
C470 H518 0.929 . S
C471 C472 1.358 . S
C471 C473 1.356 . S
C471 H519 0.930 . S
C472 N469 1.279 . S
C472 C471 1.358 . S
C472 H475 0.930 . S
C473 C470 1.348 . S
C473 C471 1.356 . S
H474 C468 0.930 . S
H475 C472 0.930 . S
C476 C478 1.348 . S
C476 C479 1.356 . S
C476 O506 1.325 . S
N477 C480 1.314 . S
N477 C481 1.279 . S
C478 C476 1.348 . S
C478 C480 1.353 . S
C478 H520 0.929 . S
C479 C476 1.356 . S
C479 C481 1.358 . S
C479 H521 0.930 . S
C480 N477 1.314 . S
C480 C478 1.353 . S
C480 H522 0.930 . S
C481 N477 1.279 . S
C481 C479 1.358 . S
C481 H523 0.930 . S
C482 C483 1.348 . S
C482 C484 1.356 . S
C482 O507 1.325 . S
C483 C482 1.348 . S
C483 C485 1.353 . S
C483 H524 0.929 . S
C484 C482 1.356 . S
C484 C486 1.358 . S
C484 H525 0.930 . S
C485 C483 1.353 . S
C485 N487 1.314 . S
C485 H526 0.930 . S
C486 C484 1.358 . S
C486 N487 1.279 . S
C486 H527 0.930 . S
N487 C485 1.314 . S
N487 C486 1.279 . S
C488 C490 1.353 . S
C488 N491 1.314 . S
C488 H494 0.930 . S
C489 N491 1.279 . S
C489 C492 1.358 . S
C489 H495 0.930 . S
C490 C488 1.353 . S
C490 C493 1.348 . S
C490 H528 0.929 . S
N491 Li446 1.990 . S
N491 C488 1.314 . S
N491 C489 1.279 . S
C492 C489 1.358 . S
C492 C493 1.356 . S
C492 H529 0.930 . S
C493 C490 1.348 . S
C493 C492 1.356 . S
H494 C488 0.930 . S
H495 C489 0.930 . S
C496 N497 1.314 . S
C496 C498 1.353 . S
C496 H502 0.930 . S
N497 Li447 1.990 . S
N497 C496 1.314 . S
N497 C500 1.279 . S
C498 C496 1.353 . S
C498 C501 1.348 . S
C498 H530 0.929 . S
C499 C500 1.358 . S
C499 C501 1.356 . S
C499 H531 0.930 . S
C500 N497 1.279 . S
C500 C499 1.358 . S
C500 H503 0.930 . S
C501 C498 1.348 . S
C501 C499 1.356 . S
H502 C496 0.930 . S
H503 C500 0.930 . S
O504 Li444 1.956 . S
O504 Li445 1.970 . S
O504 Li446 1.961 . S
O504 C448 1.325 . S
O505 Li444 1.970 . S
O505 Li445 1.956 . S
O505 Li447 1.961 . S
O505 C454 1.325 . S
O506 Li444 1.961 . S
O506 Li446 1.956 . S
O506 Li447 1.970 . S
O506 C476 1.325 . S
O507 Li445 1.961 . S
O507 Li446 1.970 . S
O507 Li447 1.956 . S
O507 C482 1.325 . S
H508 C450 0.929 . S
H509 C451 0.930 . S
H510 C452 0.930 . S
H511 C453 0.930 . S
H512 C455 0.930 . S
H513 C457 0.929 . S
H514 C458 0.930 . S
H515 C459 0.930 . S
H516 C462 0.930 . S
H517 C465 0.929 . S
H518 C470 0.929 . S
H519 C471 0.930 . S
H520 C478 0.929 . S
H521 C479 0.930 . S
H522 C480 0.930 . S
H523 C481 0.930 . S
H524 C483 0.929 . S
H525 C484 0.930 . S
H526 C485 0.930 . S
H527 C486 0.930 . S
H528 C490 0.929 . S
H529 C492 0.930 . S
H530 C498 0.929 . S
H531 C499 0.930 . S
Li532 N549 1.990 . S
Li532 O592 1.956 . S
Li532 O593 1.970 . S
Li532 O594 1.961 . S
Li533 N557 1.990 . S
Li533 O592 1.970 . S
Li533 O593 1.956 . S
Li533 O595 1.961 . S
Li534 N579 1.990 . S
Li534 O592 1.961 . S
Li534 O594 1.956 . S
Li534 O595 1.970 . S
Li535 N585 1.990 . S
Li535 O593 1.961 . S
Li535 O594 1.970 . S
Li535 O595 1.956 . S
C536 C538 1.348 . S
C536 C539 1.356 . S
C536 O592 1.325 . S
N537 C540 1.314 . S
N537 C541 1.279 . S
C538 C536 1.348 . S
C538 C540 1.353 . S
C538 H596 0.929 . S
C539 C536 1.356 . S
C539 C541 1.358 . S
C539 H597 0.930 . S
C540 N537 1.314 . S
C540 C538 1.353 . S
C540 H598 0.930 . S
C541 N537 1.279 . S
C541 C539 1.358 . S
C541 H599 0.930 . S
C542 C545 1.348 . S
C542 C546 1.356 . S
C542 O593 1.325 . S
C543 N544 1.279 . S
C543 C546 1.358 . S
C543 H600 0.930 . S
N544 C543 1.279 . S
N544 C547 1.314 . S
C545 C542 1.348 . S
C545 C547 1.353 . S
C545 H601 0.929 . S
C546 C542 1.356 . S
C546 C543 1.358 . S
C546 H602 0.930 . S
C547 N544 1.314 . S
C547 C545 1.353 . S
C547 H603 0.930 . S
C548 N549 1.314 . S
C548 C553 1.353 . S
C548 H554 0.930 . S
N549 Li532 1.990 . S
N549 C548 1.314 . S
N549 C551 1.279 . S
C550 C551 1.358 . S
C550 C552 1.356 . S
C550 H604 0.930 . S
C551 N549 1.279 . S
C551 C550 1.358 . S
C551 H555 0.930 . S
C552 C550 1.356 . S
C552 C553 1.348 . S
C553 C548 1.353 . S
C553 C552 1.348 . S
C553 H605 0.929 . S
H554 C548 0.930 . S
H555 C551 0.930 . S
C556 N557 1.314 . S
C556 C558 1.353 . S
C556 H562 0.930 . S
N557 Li533 1.990 . S
N557 C556 1.314 . S
N557 C560 1.279 . S
C558 C556 1.353 . S
C558 C561 1.348 . S
C558 H606 0.929 . S
C559 C560 1.358 . S
C559 C561 1.356 . S
C559 H607 0.930 . S
C560 N557 1.279 . S
C560 C559 1.358 . S
C560 H563 0.930 . S
C561 C558 1.348 . S
C561 C559 1.356 . S
H562 C556 0.930 . S
H563 C560 0.930 . S
C564 C566 1.348 . S
C564 C567 1.356 . S
C564 O594 1.325 . S
N565 C568 1.314 . S
N565 C569 1.279 . S
C566 C564 1.348 . S
C566 C568 1.353 . S
C566 H608 0.929 . S
C567 C564 1.356 . S
C567 C569 1.358 . S
C567 H609 0.930 . S
C568 N565 1.314 . S
C568 C566 1.353 . S
C568 H610 0.930 . S
C569 N565 1.279 . S
C569 C567 1.358 . S
C569 H611 0.930 . S
C570 C571 1.348 . S
C570 C572 1.356 . S
C570 O595 1.325 . S
C571 C570 1.348 . S
C571 C573 1.353 . S
C571 H612 0.929 . S
C572 C570 1.356 . S
C572 C574 1.358 . S
C572 H613 0.930 . S
C573 C571 1.353 . S
C573 N575 1.314 . S
C573 H614 0.930 . S
C574 C572 1.358 . S
C574 N575 1.279 . S
C574 H615 0.930 . S
N575 C573 1.314 . S
N575 C574 1.279 . S
C576 C578 1.353 . S
C576 N579 1.314 . S
C576 H582 0.930 . S
C577 N579 1.279 . S
C577 C580 1.358 . S
C577 H583 0.930 . S
C578 C576 1.353 . S
C578 C581 1.348 . S
C578 H616 0.929 . S
N579 Li534 1.990 . S
N579 C576 1.314 . S
N579 C577 1.279 . S
C580 C577 1.358 . S
C580 C581 1.356 . S
C580 H617 0.930 . S
C581 C578 1.348 . S
C581 C580 1.356 . S
H582 C576 0.930 . S
H583 C577 0.930 . S
C584 N585 1.314 . S
C584 C586 1.353 . S
C584 H590 0.930 . S
N585 Li535 1.990 . S
N585 C584 1.314 . S
N585 C588 1.279 . S
C586 C584 1.353 . S
C586 C589 1.348 . S
C586 H618 0.929 . S
C587 C588 1.358 . S
C587 C589 1.356 . S
C587 H619 0.930 . S
C588 N585 1.279 . S
C588 C587 1.358 . S
C588 H591 0.930 . S
C589 C586 1.348 . S
C589 C587 1.356 . S
H590 C584 0.930 . S
H591 C588 0.930 . S
O592 Li532 1.956 . S
O592 Li533 1.970 . S
O592 Li534 1.961 . S
O592 C536 1.325 . S
O593 Li532 1.970 . S
O593 Li533 1.956 . S
O593 Li535 1.961 . S
O593 C542 1.325 . S
O594 Li532 1.961 . S
O594 Li534 1.956 . S
O594 Li535 1.970 . S
O594 C564 1.325 . S
O595 Li533 1.961 . S
O595 Li534 1.970 . S
O595 Li535 1.956 . S
O595 C570 1.325 . S
H596 C538 0.929 . S
H597 C539 0.930 . S
H598 C540 0.930 . S
H599 C541 0.930 . S
H600 C543 0.930 . S
H601 C545 0.929 . S
H602 C546 0.930 . S
H603 C547 0.930 . S
H604 C550 0.930 . S
H605 C553 0.929 . S
H606 C558 0.929 . S
H607 C559 0.930 . S
H608 C566 0.929 . S
H609 C567 0.930 . S
H610 C568 0.930 . S
H611 C569 0.930 . S
H612 C571 0.929 . S
H613 C572 0.930 . S
H614 C573 0.930 . S
H615 C574 0.930 . S
H616 C578 0.929 . S
H617 C580 0.930 . S
H618 C586 0.929 . S
H619 C587 0.930 . S
Li620 N637 1.990 . S
Li620 O680 1.956 . S
Li620 O681 1.970 . S
Li620 O682 1.961 . S
Li621 N645 1.990 . S
Li621 O680 1.970 . S
Li621 O681 1.956 . S
Li621 O683 1.961 . S
Li622 N667 1.990 . S
Li622 O680 1.961 . S
Li622 O682 1.956 . S
Li622 O683 1.970 . S
Li623 N673 1.990 . S
Li623 O681 1.961 . S
Li623 O682 1.970 . S
Li623 O683 1.956 . S
C624 C626 1.348 . S
C624 C627 1.356 . S
C624 O680 1.325 . S
N625 C628 1.314 . S
N625 C629 1.279 . S
C626 C624 1.348 . S
C626 C628 1.353 . S
C626 H684 0.929 . S
C627 C624 1.356 . S
C627 C629 1.358 . S
C627 H685 0.930 . S
C628 N625 1.314 . S
C628 C626 1.353 . S
C628 H686 0.930 . S
C629 N625 1.279 . S
C629 C627 1.358 . S
C629 H687 0.930 . S
C630 C633 1.348 . S
C630 C634 1.356 . S
C630 O681 1.325 . S
C631 N632 1.279 . S
C631 C634 1.358 . S
C631 H688 0.930 . S
N632 C631 1.279 . S
N632 C635 1.314 . S
C633 C630 1.348 . S
C633 C635 1.353 . S
C633 H689 0.929 . S
C634 C630 1.356 . S
C634 C631 1.358 . S
C634 H690 0.930 . S
C635 N632 1.314 . S
C635 C633 1.353 . S
C635 H691 0.930 . S
C636 N637 1.314 . S
C636 C641 1.353 . S
C636 H642 0.930 . S
N637 Li620 1.990 . S
N637 C636 1.314 . S
N637 C639 1.279 . S
C638 C639 1.358 . S
C638 C640 1.356 . S
C638 H692 0.930 . S
C639 N637 1.279 . S
C639 C638 1.358 . S
C639 H643 0.930 . S
C640 C638 1.356 . S
C640 C641 1.348 . S
C641 C636 1.353 . S
C641 C640 1.348 . S
C641 H693 0.929 . S
H642 C636 0.930 . S
H643 C639 0.930 . S
C644 N645 1.314 . S
C644 C646 1.353 . S
C644 H650 0.930 . S
N645 Li621 1.990 . S
N645 C644 1.314 . S
N645 C648 1.279 . S
C646 C644 1.353 . S
C646 C649 1.348 . S
C646 H694 0.929 . S
C647 C648 1.358 . S
C647 C649 1.356 . S
C647 H695 0.930 . S
C648 N645 1.279 . S
C648 C647 1.358 . S
C648 H651 0.930 . S
C649 C646 1.348 . S
C649 C647 1.356 . S
H650 C644 0.930 . S
H651 C648 0.930 . S
C652 C654 1.348 . S
C652 C655 1.356 . S
C652 O682 1.325 . S
N653 C656 1.314 . S
N653 C657 1.279 . S
C654 C652 1.348 . S
C654 C656 1.353 . S
C654 H696 0.929 . S
C655 C652 1.356 . S
C655 C657 1.358 . S
C655 H697 0.930 . S
C656 N653 1.314 . S
C656 C654 1.353 . S
C656 H698 0.930 . S
C657 N653 1.279 . S
C657 C655 1.358 . S
C657 H699 0.930 . S
C658 C659 1.348 . S
C658 C660 1.356 . S
C658 O683 1.325 . S
C659 C658 1.348 . S
C659 C661 1.353 . S
C659 H700 0.929 . S
C660 C658 1.356 . S
C660 C662 1.358 . S
C660 H701 0.930 . S
C661 C659 1.353 . S
C661 N663 1.314 . S
C661 H702 0.930 . S
C662 C660 1.358 . S
C662 N663 1.279 . S
C662 H703 0.930 . S
N663 C661 1.314 . S
N663 C662 1.279 . S
C664 C666 1.353 . S
C664 N667 1.314 . S
C664 H670 0.930 . S
C665 N667 1.279 . S
C665 C668 1.358 . S
C665 H671 0.930 . S
C666 C664 1.353 . S
C666 C669 1.348 . S
C666 H704 0.929 . S
N667 Li622 1.990 . S
N667 C664 1.314 . S
N667 C665 1.279 . S
C668 C665 1.358 . S
C668 C669 1.356 . S
C668 H705 0.930 . S
C669 C666 1.348 . S
C669 C668 1.356 . S
H670 C664 0.930 . S
H671 C665 0.930 . S
C672 N673 1.314 . S
C672 C674 1.353 . S
C672 H678 0.930 . S
N673 Li623 1.990 . S
N673 C672 1.314 . S
N673 C676 1.279 . S
C674 C672 1.353 . S
C674 C677 1.348 . S
C674 H706 0.929 . S
C675 C676 1.358 . S
C675 C677 1.356 . S
C675 H707 0.930 . S
C676 N673 1.279 . S
C676 C675 1.358 . S
C676 H679 0.930 . S
C677 C674 1.348 . S
C677 C675 1.356 . S
H678 C672 0.930 . S
H679 C676 0.930 . S
O680 Li620 1.956 . S
O680 Li621 1.970 . S
O680 Li622 1.961 . S
O680 C624 1.325 . S
O681 Li620 1.970 . S
O681 Li621 1.956 . S
O681 Li623 1.961 . S
O681 C630 1.325 . S
O682 Li620 1.961 . S
O682 Li622 1.956 . S
O682 Li623 1.970 . S
O682 C652 1.325 . S
O683 Li621 1.961 . S
O683 Li622 1.970 . S
O683 Li623 1.956 . S
O683 C658 1.325 . S
H684 C626 0.929 . S
H685 C627 0.930 . S
H686 C628 0.930 . S
H687 C629 0.930 . S
H688 C631 0.930 . S
H689 C633 0.929 . S
H690 C634 0.930 . S
H691 C635 0.930 . S
H692 C638 0.930 . S
H693 C641 0.929 . S
H694 C646 0.929 . S
H695 C647 0.930 . S
H696 C654 0.929 . S
H697 C655 0.930 . S
H698 C656 0.930 . S
H699 C657 0.930 . S
H700 C659 0.929 . S
H701 C660 0.930 . S
H702 C661 0.930 . S
H703 C662 0.930 . S
H704 C666 0.929 . S
H705 C668 0.930 . S
H706 C674 0.929 . S
H707 C675 0.930 . S
Li708 N725 1.990 . S
Li708 O768 1.956 . S
Li708 O769 1.970 . S
Li708 O770 1.961 . S
Li709 N733 1.990 . S
Li709 O768 1.970 . S
Li709 O769 1.956 . S
Li709 O771 1.961 . S
Li710 N755 1.990 . S
Li710 O768 1.961 . S
Li710 O770 1.956 . S
Li710 O771 1.970 . S
Li711 N761 1.990 . S
Li711 O769 1.961 . S
Li711 O770 1.970 . S
Li711 O771 1.956 . S
C712 C714 1.348 . S
C712 C715 1.356 . S
C712 O768 1.325 . S
N713 C716 1.314 . S
N713 C717 1.279 . S
C714 C712 1.348 . S
C714 C716 1.353 . S
C714 H772 0.929 . S
C715 C712 1.356 . S
C715 C717 1.358 . S
C715 H773 0.930 . S
C716 N713 1.314 . S
C716 C714 1.353 . S
C716 H774 0.930 . S
C717 N713 1.279 . S
C717 C715 1.358 . S
C717 H775 0.930 . S
C718 C721 1.348 . S
C718 C722 1.356 . S
C718 O769 1.325 . S
C719 N720 1.279 . S
C719 C722 1.358 . S
C719 H776 0.930 . S
N720 C719 1.279 . S
N720 C723 1.314 . S
C721 C718 1.348 . S
C721 C723 1.353 . S
C721 H777 0.929 . S
C722 C718 1.356 . S
C722 C719 1.358 . S
C722 H778 0.930 . S
C723 N720 1.314 . S
C723 C721 1.353 . S
C723 H779 0.930 . S
C724 N725 1.314 . S
C724 C729 1.353 . S
C724 H730 0.930 . S
N725 Li708 1.990 . S
N725 C724 1.314 . S
N725 C727 1.279 . S
C726 C727 1.393 . S
C726 C728 1.361 . S
C726 H780 0.891 1_556 S
C727 N725 1.279 . S
C727 C726 1.393 . S
C727 H731 0.930 . S
C728 C726 1.361 . S
C728 C729 1.348 . S
C729 C724 1.353 . S
C729 C728 1.348 . S
C729 H781 0.929 . S
H730 C724 0.930 . S
H731 C727 0.930 . S
C732 N733 1.314 . S
C732 C734 1.353 . S
C732 H738 0.930 . S
N733 Li709 1.990 . S
N733 C732 1.314 . S
N733 C736 1.279 . S
C734 C732 1.353 . S
C734 C737 1.348 . S
C734 H782 0.929 . S
C735 C736 1.358 . S
C735 C737 1.356 . S
C735 H783 0.930 . S
C736 N733 1.279 . S
C736 C735 1.358 . S
C736 H739 0.930 . S
C737 C734 1.348 . S
C737 C735 1.356 . S
H738 C732 0.930 . S
H739 C736 0.930 . S
C740 C742 1.348 . S
C740 C743 1.356 . S
C740 O770 1.325 . S
N741 C744 1.314 . S
N741 C745 1.279 . S
C742 C740 1.348 . S
C742 C744 1.353 . S
C742 H784 0.929 . S
C743 C740 1.356 . S
C743 C745 1.358 . S
C743 H785 0.930 . S
C744 N741 1.314 . S
C744 C742 1.353 . S
C744 H786 0.930 . S
C745 N741 1.279 . S
C745 C743 1.358 . S
C745 H787 0.930 . S
C746 C747 1.348 . S
C746 C748 1.356 . S
C746 O771 1.325 . S
C747 C746 1.348 . S
C747 C749 1.353 . S
C747 H788 0.929 . S
C748 C746 1.356 . S
C748 C750 1.358 . S
C748 H789 0.930 . S
C749 C747 1.353 . S
C749 N751 1.314 . S
C749 H790 0.930 . S
C750 C748 1.358 . S
C750 N751 1.279 . S
C750 H791 0.930 . S
N751 C749 1.314 . S
N751 C750 1.279 . S
C752 C754 1.353 . S
C752 N755 1.314 . S
C752 H758 0.930 . S
C753 N755 1.279 . S
C753 C756 1.358 . S
C753 H759 0.930 . S
C754 C752 1.353 . S
C754 C757 1.348 . S
C754 H792 0.929 . S
N755 Li710 1.990 . S
N755 C752 1.314 . S
N755 C753 1.279 . S
C756 C753 1.358 . S
C756 C757 1.356 . S
C756 H793 0.930 . S
C757 C754 1.348 . S
C757 C756 1.356 . S
H758 C752 0.930 . S
H759 C753 0.930 . S
C760 N761 1.314 . S
C760 C762 1.353 . S
C760 H766 0.930 . S
N761 Li711 1.990 . S
N761 C760 1.314 . S
N761 C764 1.279 . S
C762 C760 1.353 . S
C762 C765 1.348 . S
C762 H794 0.929 . S
C763 C764 1.358 . S
C763 C765 1.356 . S
C763 H795 0.930 . S
C764 N761 1.279 . S
C764 C763 1.358 . S
C764 H767 0.930 . S
C765 C762 1.348 . S
C765 C763 1.356 . S
H766 C760 0.930 . S
H767 C764 0.930 . S
O768 Li708 1.956 . S
O768 Li709 1.970 . S
O768 Li710 1.961 . S
O768 C712 1.325 . S
O769 Li708 1.970 . S
O769 Li709 1.956 . S
O769 Li711 1.961 . S
O769 C718 1.325 . S
O770 Li708 1.961 . S
O770 Li710 1.956 . S
O770 Li711 1.970 . S
O770 C740 1.325 . S
O771 Li709 1.961 . S
O771 Li710 1.970 . S
O771 Li711 1.956 . S
O771 C746 1.325 . S
H772 C714 0.929 . S
H773 C715 0.930 . S
H774 C716 0.930 . S
H775 C717 0.930 . S
H776 C719 0.930 . S
H777 C721 0.929 . S
H778 C722 0.930 . S
H779 C723 0.930 . S
H780 C726 0.891 1_554 S
H781 C729 0.929 . S
H782 C734 0.929 . S
H783 C735 0.930 . S
H784 C742 0.929 . S
H785 C743 0.930 . S
H786 C744 0.930 . S
H787 C745 0.930 . S
H788 C747 0.929 . S
H789 C748 0.930 . S
H790 C749 0.930 . S
H791 C750 0.930 . S
H792 C754 0.929 . S
H793 C756 0.930 . S
H794 C762 0.929 . S
H795 C763 0.930 . S
Li796 N813 1.990 . S
Li796 O856 1.956 . S
Li796 O857 1.970 . S
Li796 O858 1.961 . S
Li797 N821 1.990 . S
Li797 O856 1.970 . S
Li797 O857 1.956 . S
Li797 O859 1.961 . S
Li798 N843 1.990 . S
Li798 O856 1.961 . S
Li798 O858 1.956 . S
Li798 O859 1.970 . S
Li799 N849 1.990 . S
Li799 O857 1.961 . S
Li799 O858 1.970 . S
Li799 O859 1.956 . S
C800 C802 1.348 . S
C800 C803 1.356 . S
C800 O856 1.325 . S
N801 C804 1.314 . S
N801 C805 1.279 . S
C802 C800 1.348 . S
C802 C804 1.353 . S
C802 H860 0.929 . S
C803 C800 1.356 . S
C803 C805 1.358 . S
C803 H861 0.930 . S
C804 N801 1.314 . S
C804 C802 1.353 . S
C804 H862 0.930 . S
C805 N801 1.279 . S
C805 C803 1.358 . S
C805 H863 0.930 . S
C806 C809 1.348 . S
C806 C810 1.356 . S
C806 O857 1.325 . S
C807 N808 1.279 . S
C807 C810 1.358 . S
C807 H864 0.930 . S
N808 C807 1.279 . S
N808 C811 1.314 . S
C809 C806 1.348 . S
C809 C811 1.353 . S
C809 H865 0.929 . S
C810 C806 1.356 . S
C810 C807 1.358 . S
C810 H866 0.930 . S
C811 N808 1.314 . S
C811 C809 1.353 . S
C811 H867 0.930 . S
C812 N813 1.314 . S
C812 C817 1.353 . S
C812 H818 0.930 . S
N813 Li796 1.990 . S
N813 C812 1.314 . S
N813 C815 1.279 . S
C814 C815 1.358 . S
C814 C816 1.356 . S
C814 H868 0.930 . S
C815 N813 1.279 . S
C815 C814 1.358 . S
C815 H819 0.930 . S
C816 C814 1.356 . S
C816 C817 1.348 . S
C817 C812 1.353 . S
C817 C816 1.348 . S
C817 H869 0.929 . S
H818 C812 0.930 . S
H819 C815 0.930 . S
C820 N821 1.314 . S
C820 C822 1.353 . S
C820 H826 0.930 . S
N821 Li797 1.990 . S
N821 C820 1.314 . S
N821 C824 1.279 . S
C822 C820 1.353 . S
C822 C825 1.348 . S
C822 H870 0.929 . S
C823 C824 1.358 . S
C823 C825 1.356 . S
C823 H871 0.930 . S
C824 N821 1.279 . S
C824 C823 1.358 . S
C824 H827 0.930 . S
C825 C822 1.348 . S
C825 C823 1.356 . S
H826 C820 0.930 . S
H827 C824 0.930 . S
C828 C830 1.348 . S
C828 C831 1.356 . S
C828 O858 1.325 . S
N829 C832 1.314 1_556 S
N829 C833 1.279 1_556 S
C830 C828 1.348 . S
C830 C832 1.353 . S
C830 H872 0.929 . S
C831 C828 1.356 . S
C831 C833 1.358 . S
C831 H873 0.930 . S
C832 N829 1.314 1_554 S
C832 C830 1.353 . S
C832 H874 0.930 1_554 S
C833 N829 1.279 1_554 S
C833 C831 1.358 . S
C833 H875 0.930 1_554 S
C834 C835 1.348 . S
C834 C836 1.356 . S
C834 O859 1.325 . S
C835 C834 1.348 . S
C835 C837 1.353 . S
C835 H876 0.929 . S
C836 C834 1.356 . S
C836 C838 1.358 . S
C836 H877 0.930 . S
C837 C835 1.353 . S
C837 N839 1.314 . S
C837 H878 0.930 . S
C838 C836 1.358 . S
C838 N839 1.279 . S
C838 H879 0.930 . S
N839 C837 1.314 . S
N839 C838 1.279 . S
C840 C842 1.353 . S
C840 N843 1.314 . S
C840 H846 0.930 . S
C841 N843 1.279 . S
C841 C844 1.358 1_554 S
C841 H847 0.930 . S
C842 C840 1.353 . S
C842 C845 1.348 1_554 S
C842 H880 0.929 . S
N843 Li798 1.990 . S
N843 C840 1.314 . S
N843 C841 1.279 . S
C844 C841 1.358 1_556 S
C844 C845 1.356 . S
C844 H881 0.930 . S
C845 C842 1.348 1_556 S
C845 C844 1.356 . S
H846 C840 0.930 . S
H847 C841 0.930 . S
C848 N849 1.314 . S
C848 C850 1.353 . S
C848 H854 0.930 . S
N849 Li799 1.990 . S
N849 C848 1.314 . S
N849 C852 1.279 . S
C850 C848 1.353 . S
C850 C853 1.348 . S
C850 H882 0.929 . S
C851 C852 1.358 . S
C851 C853 1.356 . S
C851 H883 0.930 . S
C852 N849 1.279 . S
C852 C851 1.358 . S
C852 H855 0.930 . S
C853 C850 1.348 . S
C853 C851 1.356 . S
H854 C848 0.930 . S
H855 C852 0.930 . S
O856 Li796 1.956 . S
O856 Li797 1.970 . S
O856 Li798 1.961 . S
O856 C800 1.325 . S
O857 Li796 1.970 . S
O857 Li797 1.956 . S
O857 Li799 1.961 . S
O857 C806 1.325 . S
O858 Li796 1.961 . S
O858 Li798 1.956 . S
O858 Li799 1.970 . S
O858 C828 1.325 . S
O859 Li797 1.961 . S
O859 Li798 1.970 . S
O859 Li799 1.956 . S
O859 C834 1.325 . S
H860 C802 0.929 . S
H861 C803 0.930 . S
H862 C804 0.930 . S
H863 C805 0.930 . S
H864 C807 0.930 . S
H865 C809 0.929 . S
H866 C810 0.930 . S
H867 C811 0.930 . S
H868 C814 0.930 . S
H869 C817 0.929 . S
H870 C822 0.929 . S
H871 C823 0.930 . S
H872 C830 0.929 . S
H873 C831 0.930 . S
H874 C832 0.930 1_556 S
H875 C833 0.930 1_556 S
H876 C835 0.929 . S
H877 C836 0.930 . S
H878 C837 0.930 . S
H879 C838 0.930 . S
H880 C842 0.929 . S
H881 C844 0.930 . S
H882 C850 0.929 . S
H883 C851 0.930 . S
Li884 N901 1.990 . S
Li884 O944 1.956 . S
Li884 O945 1.970 . S
Li884 O946 1.961 . S
Li885 N909 1.990 . S
Li885 O944 1.970 . S
Li885 O945 1.956 . S
Li885 O947 1.961 . S
Li886 N931 1.990 . S
Li886 O944 1.961 . S
Li886 O946 1.956 . S
Li886 O947 1.970 . S
Li887 N937 1.990 . S
Li887 O945 1.961 . S
Li887 O946 1.970 . S
Li887 O947 1.956 . S
C888 C890 1.348 . S
C888 C891 1.356 . S
C888 O944 1.325 . S
N889 C892 1.314 . S
N889 C893 1.279 . S
C890 C888 1.348 . S
C890 C892 1.353 . S
C890 H948 0.929 . S
C891 C888 1.356 . S
C891 C893 1.358 . S
C891 H949 0.930 . S
C892 N889 1.314 . S
C892 C890 1.353 . S
C892 H950 0.930 . S
C893 N889 1.279 . S
C893 C891 1.358 . S
C893 H951 0.930 . S
C894 C897 1.348 . S
C894 C898 1.356 . S
C894 O945 1.325 . S
C895 N896 1.279 . S
C895 C898 1.358 . S
C895 H952 0.930 . S
N896 C895 1.279 . S
N896 C899 1.314 . S
C897 C894 1.348 . S
C897 C899 1.353 . S
C897 H953 0.929 . S
C898 C894 1.356 . S
C898 C895 1.358 . S
C898 H954 0.930 . S
C899 N896 1.314 . S
C899 C897 1.353 . S
C899 H955 0.930 . S
C900 N901 1.314 . S
C900 C905 1.353 . S
C900 H906 0.930 . S
N901 Li884 1.990 . S
N901 C900 1.314 . S
N901 C903 1.279 . S
C902 C903 1.358 . S
C902 C904 1.356 . S
C902 H956 0.930 . S
C903 N901 1.279 . S
C903 C902 1.358 . S
C903 H907 0.930 . S
C904 C902 1.356 . S
C904 C905 1.348 . S
C905 C900 1.353 . S
C905 C904 1.348 . S
C905 H957 0.929 . S
H906 C900 0.930 . S
H907 C903 0.930 . S
C908 N909 1.314 . S
C908 C910 1.353 . S
C908 H914 0.930 . S
N909 Li885 1.990 . S
N909 C908 1.314 . S
N909 C912 1.279 . S
C910 C908 1.353 . S
C910 C913 1.348 . S
C910 H958 0.929 . S
C911 C912 1.358 . S
C911 C913 1.356 . S
C911 H959 0.930 . S
C912 N909 1.279 . S
C912 C911 1.358 . S
C912 H915 0.930 . S
C913 C910 1.348 . S
C913 C911 1.356 . S
H914 C908 0.930 . S
H915 C912 0.930 . S
C916 C918 1.348 . S
C916 C919 1.356 . S
C916 O946 1.325 . S
N917 C920 1.314 . S
N917 C921 1.279 . S
C918 C916 1.348 . S
C918 C920 1.353 . S
C918 H960 0.929 . S
C919 C916 1.356 . S
C919 C921 1.358 . S
C919 H961 0.930 . S
C920 N917 1.314 . S
C920 C918 1.353 . S
C920 H962 0.930 . S
C921 N917 1.279 . S
C921 C919 1.358 . S
C921 H963 0.930 . S
C922 C923 1.348 . S
C922 C924 1.356 . S
C922 O947 1.325 . S
C923 C922 1.348 . S
C923 C925 1.353 . S
C923 H964 0.929 . S
C924 C922 1.356 . S
C924 C926 1.358 . S
C924 H965 0.930 . S
C925 C923 1.353 . S
C925 N927 1.314 . S
C925 H966 0.930 . S
C926 C924 1.358 . S
C926 N927 1.279 . S
C926 H967 0.930 . S
N927 C925 1.314 . S
N927 C926 1.279 . S
C928 C930 1.353 . S
C928 N931 1.314 . S
C928 H934 0.930 . S
C929 N931 1.279 . S
C929 C932 1.358 . S
C929 H935 0.930 . S
C930 C928 1.353 . S
C930 C933 1.348 . S
C930 H968 0.929 . S
N931 Li886 1.990 . S
N931 C928 1.314 . S
N931 C929 1.279 . S
C932 C929 1.358 . S
C932 C933 1.356 . S
C932 H969 0.930 . S
C933 C930 1.348 . S
C933 C932 1.356 . S
H934 C928 0.930 . S
H935 C929 0.930 . S
C936 N937 1.314 . S
C936 C938 1.353 . S
C936 H942 0.930 . S
N937 Li887 1.990 . S
N937 C936 1.314 . S
N937 C940 1.279 . S
C938 C936 1.353 . S
C938 C941 1.348 . S
C938 H970 0.929 . S
C939 C940 1.358 . S
C939 C941 1.356 . S
C939 H971 0.930 . S
C940 N937 1.279 . S
C940 C939 1.358 . S
C940 H943 0.930 . S
C941 C938 1.348 . S
C941 C939 1.356 . S
H942 C936 0.930 . S
H943 C940 0.930 . S
O944 Li884 1.956 . S
O944 Li885 1.970 . S
O944 Li886 1.961 . S
O944 C888 1.325 . S
O945 Li884 1.970 . S
O945 Li885 1.956 . S
O945 Li887 1.961 . S
O945 C894 1.325 . S
O946 Li884 1.961 . S
O946 Li886 1.956 . S
O946 Li887 1.970 . S
O946 C916 1.325 . S
O947 Li885 1.961 . S
O947 Li886 1.970 . S
O947 Li887 1.956 . S
O947 C922 1.325 . S
H948 C890 0.929 . S
H949 C891 0.930 . S
H950 C892 0.930 . S
H951 C893 0.930 . S
H952 C895 0.930 . S
H953 C897 0.929 . S
H954 C898 0.930 . S
H955 C899 0.930 . S
H956 C902 0.930 . S
H957 C905 0.929 . S
H958 C910 0.929 . S
H959 C911 0.930 . S
H960 C918 0.929 . S
H961 C919 0.930 . S
H962 C920 0.930 . S
H963 C921 0.930 . S
H964 C923 0.929 . S
H965 C924 0.930 . S
H966 C925 0.930 . S
H967 C926 0.930 . S
H968 C930 0.929 . S
H969 C932 0.930 . S
H970 C938 0.929 . S
H971 C939 0.930 . S
C972 C973 1.369 . S
C972 C974 1.419 . S
C972 H976 0.930 . S
C973 C972 1.369 . S
C973 C982 1.429 . S
C974 C972 1.419 . S
C974 C975 1.363 . S
C974 H977 0.929 . S
C975 C974 1.363 . S
C975 C981 1.428 . S
H976 C972 0.930 . S
H977 C974 0.929 . S
S978 N979 1.613 . S
S978 N980 1.610 . S
N979 S978 1.613 . S
N979 C982 1.350 . S
N980 S978 1.610 . S
N980 C981 1.351 . S
C981 C975 1.428 . S
C981 N980 1.351 . S
C981 C982 1.434 . S
C982 C973 1.429 . S
C982 N979 1.350 . S
C982 C981 1.434 . S
C983 C984 1.369 . S
C983 C985 1.419 . S
C983 H987 0.930 . S
C984 C983 1.369 . S
C984 C993 1.429 . S
C985 C983 1.419 . S
C985 C986 1.363 . S
C985 H988 0.929 . S
C986 C985 1.363 . S
C986 C992 1.428 . S
H987 C983 0.930 . S
H988 C985 0.929 . S
S989 N990 1.613 . S
S989 N991 1.610 . S
N990 S989 1.613 . S
N990 C993 1.350 . S
N991 S989 1.610 . S
N991 C992 1.351 . S
C992 C986 1.428 . S
C992 N991 1.351 . S
C992 C993 1.434 . S
C993 C984 1.429 . S
C993 N990 1.350 . S
C993 C992 1.434 . S
C994 C995 1.369 . S
C994 C996 1.419 . S
C994 H998 0.930 . S
C995 C994 1.369 . S
C995 C1004 1.429 . S
C996 C994 1.419 . S
C996 C997 1.363 . S
C996 H999 0.929 . S
C997 C996 1.363 . S
C997 C1003 1.428 . S
H998 C994 0.930 . S
H999 C996 0.929 . S
S1000 N1001 1.613 . S
S1000 N1002 1.610 . S
N1001 S1000 1.613 . S
N1001 C1004 1.350 . S
N1002 S1000 1.610 . S
N1002 C1003 1.351 . S
C1003 C997 1.428 . S
C1003 N1002 1.351 . S
C1003 C1004 1.434 . S
C1004 C995 1.429 . S
C1004 N1001 1.350 . S
C1004 C1003 1.434 . S
C1005 C1006 1.369 . S
C1005 C1007 1.419 . S
C1005 H1009 0.930 . S
C1006 C1005 1.369 . S
C1006 C1015 1.429 . S
C1007 C1005 1.419 . S
C1007 C1008 1.363 . S
C1007 H1010 0.929 . S
C1008 C1007 1.363 . S
C1008 C1014 1.428 . S
H1009 C1005 0.930 . S
H1010 C1007 0.929 . S
S1011 N1012 1.613 . S
S1011 N1013 1.610 . S
N1012 S1011 1.613 . S
N1012 C1015 1.350 . S
N1013 S1011 1.610 . S
N1013 C1014 1.351 . S
C1014 C1008 1.428 . S
C1014 N1013 1.351 . S
C1014 C1015 1.434 . S
C1015 C1006 1.429 . S
C1015 N1012 1.350 . S
C1015 C1014 1.434 . S
C1016 C1017 1.369 . S
C1016 C1018 1.419 . S
C1016 H1020 0.930 . S
C1017 C1016 1.369 . S
C1017 C1026 1.429 . S
C1018 C1016 1.419 . S
C1018 C1019 1.363 . S
C1018 H1021 0.929 . S
C1019 C1018 1.363 . S
C1019 C1025 1.428 . S
H1020 C1016 0.930 . S
H1021 C1018 0.929 . S
S1022 N1023 1.613 . S
S1022 N1024 1.610 . S
N1023 S1022 1.613 . S
N1023 C1026 1.350 . S
N1024 S1022 1.610 . S
N1024 C1025 1.351 . S
C1025 C1019 1.428 . S
C1025 N1024 1.351 . S
C1025 C1026 1.434 . S
C1026 C1017 1.429 . S
C1026 N1023 1.350 . S
C1026 C1025 1.434 . S
C1027 C1028 1.369 . S
C1027 C1029 1.419 . S
C1027 H1031 0.930 . S
C1028 C1027 1.369 . S
C1028 C1037 1.429 . S
C1029 C1027 1.419 . S
C1029 C1030 1.363 . S
C1029 H1032 0.929 . S
C1030 C1029 1.363 . S
C1030 C1036 1.428 . S
H1031 C1027 0.930 . S
H1032 C1029 0.929 . S
S1033 N1034 1.613 . S
S1033 N1035 1.610 . S
N1034 S1033 1.613 . S
N1034 C1037 1.350 . S
N1035 S1033 1.610 . S
N1035 C1036 1.351 . S
C1036 C1030 1.428 . S
C1036 N1035 1.351 . S
C1036 C1037 1.434 . S
C1037 C1028 1.429 . S
C1037 N1034 1.350 . S
C1037 C1036 1.434 . S
C1038 C1039 1.369 . S
C1038 C1040 1.419 . S
C1038 H1042 0.930 . S
C1039 C1038 1.369 . S
C1039 C1048 1.429 . S
C1040 C1038 1.419 . S
C1040 C1041 1.363 . S
C1040 H1043 0.929 . S
C1041 C1040 1.363 . S
C1041 C1047 1.428 . S
H1042 C1038 0.930 . S
H1043 C1040 0.929 . S
S1044 N1045 1.613 . S
S1044 N1046 1.610 . S
N1045 S1044 1.613 . S
N1045 C1048 1.350 . S
N1046 S1044 1.610 . S
N1046 C1047 1.351 . S
C1047 C1041 1.428 . S
C1047 N1046 1.351 . S
C1047 C1048 1.434 . S
C1048 C1039 1.429 . S
C1048 N1045 1.350 . S
C1048 C1047 1.434 . S
C1049 C1050 1.369 . S
C1049 C1051 1.419 . S
C1049 H1053 0.930 . S
C1050 C1049 1.369 . S
C1050 C1059 1.429 . S
C1051 C1049 1.419 . S
C1051 C1052 1.363 . S
C1051 H1054 0.929 . S
C1052 C1051 1.363 . S
C1052 C1058 1.428 . S
H1053 C1049 0.930 . S
H1054 C1051 0.929 . S
S1055 N1056 1.613 . S
S1055 N1057 1.610 . S
N1056 S1055 1.613 . S
N1056 C1059 1.350 . S
N1057 S1055 1.610 . S
N1057 C1058 1.351 . S
C1058 C1052 1.428 . S
C1058 N1057 1.351 . S
C1058 C1059 1.434 . S
C1059 C1050 1.429 . S
C1059 N1056 1.350 . S
C1059 C1058 1.434 . S
C1060 C1061 1.369 . S
C1060 C1062 1.419 . S
C1060 H1064 0.930 . S
C1061 C1060 1.369 . S
C1061 C1070 1.429 . S
C1062 C1060 1.419 . S
C1062 C1063 1.363 . S
C1062 H1065 0.929 . S
C1063 C1062 1.363 . S
C1063 C1069 1.428 . S
H1064 C1060 0.930 . S
H1065 C1062 0.929 . S
S1066 N1067 1.613 . S
S1066 N1068 1.610 . S
N1067 S1066 1.613 . S
N1067 C1070 1.350 . S
N1068 S1066 1.610 . S
N1068 C1069 1.351 . S
C1069 C1063 1.428 . S
C1069 N1068 1.351 . S
C1069 C1070 1.434 . S
C1070 C1061 1.429 . S
C1070 N1067 1.350 . S
C1070 C1069 1.434 . S
C1071 C1072 1.369 . S
C1071 C1073 1.419 . S
C1071 H1075 0.930 . S
C1072 C1071 1.369 . S
C1072 C1081 1.429 . S
C1073 C1071 1.419 . S
C1073 C1074 1.363 . S
C1073 H1076 0.929 . S
C1074 C1073 1.363 . S
C1074 C1080 1.428 . S
H1075 C1071 0.930 . S
H1076 C1073 0.929 . S
S1077 N1078 1.613 . S
S1077 N1079 1.610 . S
N1078 S1077 1.613 . S
N1078 C1081 1.350 . S
N1079 S1077 1.610 . S
N1079 C1080 1.351 . S
C1080 C1074 1.428 . S
C1080 N1079 1.351 . S
C1080 C1081 1.434 . S
C1081 C1072 1.429 . S
C1081 N1078 1.350 . S
C1081 C1080 1.434 . S
C1082 C1083 1.369 . S
C1082 C1084 1.419 . S
C1082 H1086 0.930 . S
C1083 C1082 1.369 . S
C1083 C1092 1.429 . S
C1084 C1082 1.419 . S
C1084 C1085 1.363 . S
C1084 H1087 0.929 . S
C1085 C1084 1.363 . S
C1085 C1091 1.428 . S
H1086 C1082 0.930 . S
H1087 C1084 0.929 . S
S1088 N1089 1.613 . S
S1088 N1090 1.610 . S
N1089 S1088 1.613 . S
N1089 C1092 1.350 . S
N1090 S1088 1.610 . S
N1090 C1091 1.351 . S
C1091 C1085 1.428 . S
C1091 N1090 1.351 . S
C1091 C1092 1.434 . S
C1092 C1083 1.429 . S
C1092 N1089 1.350 . S
C1092 C1091 1.434 . S
C1093 C1094 1.369 . S
C1093 C1095 1.419 . S
C1093 H1097 0.930 . S
C1094 C1093 1.369 . S
C1094 C1103 1.429 . S
C1095 C1093 1.419 . S
C1095 C1096 1.363 . S
C1095 H1098 0.929 . S
C1096 C1095 1.363 . S
C1096 C1102 1.428 . S
H1097 C1093 0.930 . S
H1098 C1095 0.929 . S
S1099 N1100 1.613 . S
S1099 N1101 1.610 . S
N1100 S1099 1.613 . S
N1100 C1103 1.350 . S
N1101 S1099 1.610 . S
N1101 C1102 1.351 . S
C1102 C1096 1.428 . S
C1102 N1101 1.351 . S
C1102 C1103 1.434 . S
C1103 C1094 1.429 . S
C1103 N1100 1.350 . S
C1103 C1102 1.434 . S
C1104 C1105 1.369 . S
C1104 C1106 1.419 . S
C1104 H1108 0.930 . S
C1105 C1104 1.369 . S
C1105 C1114 1.429 . S
C1106 C1104 1.419 . S
C1106 C1107 1.363 . S
C1106 H1109 0.929 . S
C1107 C1106 1.363 . S
C1107 C1113 1.428 . S
H1108 C1104 0.930 . S
H1109 C1106 0.929 . S
S1110 N1111 1.613 . S
S1110 N1112 1.610 . S
N1111 S1110 1.613 . S
N1111 C1114 1.350 . S
N1112 S1110 1.610 . S
N1112 C1113 1.351 . S
C1113 C1107 1.428 . S
C1113 N1112 1.351 . S
C1113 C1114 1.434 . S
C1114 C1105 1.429 . S
C1114 N1111 1.350 . S
C1114 C1113 1.434 . S
C1115 C1116 1.369 . S
C1115 C1117 1.419 . S
C1115 H1119 0.930 . S
C1116 C1115 1.369 . S
C1116 C1125 1.429 . S
C1117 C1115 1.419 . S
C1117 C1118 1.363 . S
C1117 H1120 0.929 . S
C1118 C1117 1.363 . S
C1118 C1124 1.428 . S
H1119 C1115 0.930 . S
H1120 C1117 0.929 . S
S1121 N1122 1.613 . S
S1121 N1123 1.610 . S
N1122 S1121 1.613 . S
N1122 C1125 1.350 . S
N1123 S1121 1.610 . S
N1123 C1124 1.351 . S
C1124 C1118 1.428 . S
C1124 N1123 1.351 . S
C1124 C1125 1.434 . S
C1125 C1116 1.429 . S
C1125 N1122 1.350 . S
C1125 C1124 1.434 . S
C1126 C1127 1.369 . S
C1126 C1128 1.419 . S
C1126 H1130 0.930 . S
C1127 C1126 1.369 . S
C1127 C1136 1.429 . S
C1128 C1126 1.419 . S
C1128 C1129 1.363 . S
C1128 H1131 0.929 . S
C1129 C1128 1.363 . S
C1129 C1135 1.428 . S
H1130 C1126 0.930 . S
H1131 C1128 0.929 . S
S1132 N1133 1.613 . S
S1132 N1134 1.610 . S
N1133 S1132 1.613 . S
N1133 C1136 1.350 . S
N1134 S1132 1.610 . S
N1134 C1135 1.351 . S
C1135 C1129 1.428 . S
C1135 N1134 1.351 . S
C1135 C1136 1.434 . S
C1136 C1127 1.429 . S
C1136 N1133 1.350 . S
C1136 C1135 1.434 . S
C1137 C1138 1.369 . S
C1137 C1139 1.419 . S
C1137 H1141 0.930 . S
C1138 C1137 1.369 . S
C1138 C1147 1.429 . S
C1139 C1137 1.419 . S
C1139 C1140 1.363 . S
C1139 H1142 0.929 . S
C1140 C1139 1.363 . S
C1140 C1146 1.428 . S
H1141 C1137 0.930 . S
H1142 C1139 0.929 . S
S1143 N1144 1.613 . S
S1143 N1145 1.610 . S
N1144 S1143 1.613 . S
N1144 C1147 1.350 . S
N1145 S1143 1.610 . S
N1145 C1146 1.351 . S
C1146 C1140 1.428 . S
C1146 N1145 1.351 . S
C1146 C1147 1.434 . S
C1147 C1138 1.429 . S
C1147 N1144 1.350 . S
C1147 C1146 1.434 . S
C1148 C1149 1.369 . S
C1148 C1150 1.419 . S
C1148 H1152 0.930 . S
C1149 C1148 1.369 . S
C1149 C1158 1.429 . S
C1150 C1148 1.419 . S
C1150 C1151 1.363 . S
C1150 H1153 0.929 . S
C1151 C1150 1.363 . S
C1151 C1157 1.428 . S
H1152 C1148 0.930 . S
H1153 C1150 0.929 . S
S1154 N1155 1.613 . S
S1154 N1156 1.610 . S
N1155 S1154 1.613 . S
N1155 C1158 1.350 . S
N1156 S1154 1.610 . S
N1156 C1157 1.351 . S
C1157 C1151 1.428 . S
C1157 N1156 1.351 . S
C1157 C1158 1.434 . S
C1158 C1149 1.429 . S
C1158 N1155 1.350 . S
C1158 C1157 1.434 . S
C1159 C1160 1.369 . S
C1159 C1161 1.419 . S
C1159 H1163 0.930 . S
C1160 C1159 1.369 . S
C1160 C1169 1.429 . S
C1161 C1159 1.419 . S
C1161 C1162 1.363 . S
C1161 H1164 0.929 . S
C1162 C1161 1.363 . S
C1162 C1168 1.428 . S
H1163 C1159 0.930 . S
H1164 C1161 0.929 . S
S1165 N1166 1.613 . S
S1165 N1167 1.610 . S
N1166 S1165 1.613 . S
N1166 C1169 1.350 . S
N1167 S1165 1.610 . S
N1167 C1168 1.351 . S
C1168 C1162 1.428 . S
C1168 N1167 1.351 . S
C1168 C1169 1.434 . S
C1169 C1160 1.429 . S
C1169 N1166 1.350 . S
C1169 C1168 1.434 . S
C1170 C1171 1.369 . S
C1170 C1172 1.419 . S
C1170 H1174 0.930 . S
C1171 C1170 1.369 . S
C1171 C1180 1.429 . S
C1172 C1170 1.419 . S
C1172 C1173 1.363 . S
C1172 H1175 0.929 . S
C1173 C1172 1.363 . S
C1173 C1179 1.428 . S
H1174 C1170 0.930 . S
H1175 C1172 0.929 . S
S1176 N1177 1.613 . S
S1176 N1178 1.610 . S
N1177 S1176 1.613 . S
N1177 C1180 1.350 . S
N1178 S1176 1.610 . S
N1178 C1179 1.351 . S
C1179 C1173 1.428 . S
C1179 N1178 1.351 . S
C1179 C1180 1.434 . S
C1180 C1171 1.429 . S
C1180 N1177 1.350 . S
C1180 C1179 1.434 . S
C1181 C1182 1.369 . S
C1181 C1183 1.419 . S
C1181 H1185 0.930 . S
C1182 C1181 1.369 . S
C1182 C1191 1.429 . S
C1183 C1181 1.419 . S
C1183 C1184 1.363 . S
C1183 H1186 0.929 . S
C1184 C1183 1.363 . S
C1184 C1190 1.428 . S
H1185 C1181 0.930 . S
H1186 C1183 0.929 . S
S1187 N1188 1.613 . S
S1187 N1189 1.610 . S
N1188 S1187 1.613 . S
N1188 C1191 1.350 . S
N1189 S1187 1.610 . S
N1189 C1190 1.351 . S
C1190 C1184 1.428 . S
C1190 N1189 1.351 . S
C1190 C1191 1.434 . S
C1191 C1182 1.429 . S
C1191 N1188 1.350 . S
C1191 C1190 1.434 . S
C1192 C1193 1.369 . S
C1192 C1194 1.419 . S
C1192 H1196 0.930 . S
C1193 C1192 1.369 . S
C1193 C1202 1.429 . S
C1194 C1192 1.419 . S
C1194 C1195 1.363 . S
C1194 H1197 0.929 . S
C1195 C1194 1.363 . S
C1195 C1201 1.428 . S
H1196 C1192 0.930 . S
H1197 C1194 0.929 . S
S1198 N1199 1.613 . S
S1198 N1200 1.610 . S
N1199 S1198 1.613 . S
N1199 C1202 1.350 . S
N1200 S1198 1.610 . S
N1200 C1201 1.351 . S
C1201 C1195 1.428 . S
C1201 N1200 1.351 . S
C1201 C1202 1.434 . S
C1202 C1193 1.429 . S
C1202 N1199 1.350 . S
C1202 C1201 1.434 . S
C1203 C1204 1.369 . S
C1203 C1205 1.419 . S
C1203 H1207 0.930 . S
C1204 C1203 1.369 . S
C1204 C1213 1.429 . S
C1205 C1203 1.419 . S
C1205 C1206 1.363 . S
C1205 H1208 0.929 . S
C1206 C1205 1.363 . S
C1206 C1212 1.428 . S
H1207 C1203 0.930 . S
H1208 C1205 0.929 . S
S1209 N1210 1.613 . S
S1209 N1211 1.610 . S
N1210 S1209 1.613 . S
N1210 C1213 1.350 . S
N1211 S1209 1.610 . S
N1211 C1212 1.351 . S
C1212 C1206 1.428 . S
C1212 N1211 1.351 . S
C1212 C1213 1.434 . S
C1213 C1204 1.429 . S
C1213 N1210 1.350 . S
C1213 C1212 1.434 . S
C1214 C1215 1.369 . S
C1214 C1216 1.419 . S
C1214 H1218 0.930 . S
C1215 C1214 1.369 . S
C1215 C1224 1.429 . S
C1216 C1214 1.419 . S
C1216 C1217 1.363 . S
C1216 H1219 0.929 . S
C1217 C1216 1.363 . S
C1217 C1223 1.428 . S
H1218 C1214 0.930 . S
H1219 C1216 0.929 . S
S1220 N1221 1.613 . S
S1220 N1222 1.610 . S
N1221 S1220 1.613 . S
N1221 C1224 1.350 . S
N1222 S1220 1.610 . S
N1222 C1223 1.351 . S
C1223 C1217 1.428 . S
C1223 N1222 1.351 . S
C1223 C1224 1.434 . S
C1224 C1215 1.429 . S
C1224 N1221 1.350 . S
C1224 C1223 1.434 . S
C1225 C1226 1.369 . S
C1225 C1227 1.419 . S
C1225 H1229 0.930 . S
C1226 C1225 1.369 . S
C1226 C1235 1.429 . S
C1227 C1225 1.419 . S
C1227 C1228 1.363 . S
C1227 H1230 0.929 . S
C1228 C1227 1.363 . S
C1228 C1234 1.428 . S
H1229 C1225 0.930 . S
H1230 C1227 0.929 . S
S1231 N1232 1.613 . S
S1231 N1233 1.610 . S
N1232 S1231 1.613 . S
N1232 C1235 1.350 . S
N1233 S1231 1.610 . S
N1233 C1234 1.351 . S
C1234 C1228 1.428 . S
C1234 N1233 1.351 . S
C1234 C1235 1.434 . S
C1235 C1226 1.429 . S
C1235 N1232 1.350 . S
C1235 C1234 1.434 . S
C975 C913 1.334 . S
C973 C51 1.299 . S
C984 C125 1.723 . S
C986 C473 1.732 . S
C995 C217 2.569 . S
C997 C561 2.576 . S
C1006 C291 1.924 . S
C1008 C640 1.928 . S
C1019 C737 1.003 . S
C1017 C347 1.008 . S
C1028 C421 1.100 . S
C1030 C816 1.110 . S
C1039 C143 2.577 . S
C1041 C581 2.582 . S
C1050 C199 1.547 . S
C1052 C677 1.529 . S
C1061 C273 0.982 . S
C1063 C757 0.997 . S
C1074 C853 1.660 . S
C1072 C365 1.672 . S
C1085 C933 2.303 . S
C1083 C439 2.345 . S
C1096 C493 2.547 . S
C1094 C69 2.577 . S
C1105 C63 1.454 . S
C1107 C589 1.566 . S
C1116 C137 1.517 . S
C1118 C669 1.583 . S
C1129 C765 1.413 . S
C1127 C187 1.358 . S
C1138 C261 1.424 . S
C1140 C845 1.483 . S
C1151 C941 1.455 . S
C1149 C359 1.300 . S
C1162 C501 1.205 . S
C1160 C433 1.119 . S
C1173 C904 1.750 . S
C1171 C113 1.776 . S
C1182 C211 1.472 . S
C1184 C464 1.510 . S
C1195 C552 1.620 . S
C1193 C285 1.486 . S
C1204 C335 1.324 . S
C1206 C649 1.398 . S
C1215 C409 1.395 . S
C1217 C728 1.469 1_554 S
C1226 C39 1.791 . S
C1228 C825 1.799 . S
