# Generated by pormake.
# Topology zzz, (3,6)-cn, num edge types: 1
# Building blocks:
#     Node 0, Type 0, BuildingBlock: QEWDON_clean_linker_0, # of connection points: 3
#     Node 1, Type 0, BuildingBlock: QEWDON_clean_linker_0, # of connection points: 3
#     Node 2, Type 0, BuildingBlock: QEWDON_clean_linker_0, # of connection points: 3
#     Node 3, Type 0, BuildingBlock: QEWDON_clean_linker_0, # of connection points: 3
#     Node 4, Type 0, BuildingBlock: QEWDON_clean_linker_0, # of connection points: 3
#     Node 5, Type 0, BuildingBlock: QEWDON_clean_linker_0, # of connection points: 3
#     Node 6, Type 0, BuildingBlock: QEWDON_clean_linker_0, # of connection points: 3
#     Node 7, Type 0, BuildingBlock: QEWDON_clean_linker_0, # of connection points: 3
#     Node 8, Type 1, BuildingBlock: KUMBOL_clean_sbu_0, # of connection points: 6
#     Node 9, Type 1, BuildingBlock: KUMBOL_clean_sbu_0, # of connection points: 6
#     Node 10, Type 1, BuildingBlock: KUMBOL_clean_sbu_0, # of connection points: 6
#     Node 11, Type 1, BuildingBlock: KUMBOL_clean_sbu_0, # of connection points: 6
#     Edge 12, Type (0, 1), BuildingBlock: UVAHIK_clean_linker_0, # of connection points: 2
#     Edge 13, Type (0, 1), BuildingBlock: UVAHIK_clean_linker_0, # of connection points: 2
#     Edge 14, Type (0, 1), BuildingBlock: UVAHIK_clean_linker_0, # of connection points: 2
#     Edge 15, Type (0, 1), BuildingBlock: UVAHIK_clean_linker_0, # of connection points: 2
#     Edge 16, Type (0, 1), BuildingBlock: UVAHIK_clean_linker_0, # of connection points: 2
#     Edge 17, Type (0, 1), BuildingBlock: UVAHIK_clean_linker_0, # of connection points: 2
#     Edge 18, Type (0, 1), BuildingBlock: UVAHIK_clean_linker_0, # of connection points: 2
#     Edge 19, Type (0, 1), BuildingBlock: UVAHIK_clean_linker_0, # of connection points: 2
#     Edge 20, Type (0, 1), BuildingBlock: UVAHIK_clean_linker_0, # of connection points: 2
#     Edge 21, Type (0, 1), BuildingBlock: UVAHIK_clean_linker_0, # of connection points: 2
#     Edge 22, Type (0, 1), BuildingBlock: UVAHIK_clean_linker_0, # of connection points: 2
#     Edge 23, Type (0, 1), BuildingBlock: UVAHIK_clean_linker_0, # of connection points: 2
#     Edge 24, Type (0, 1), BuildingBlock: UVAHIK_clean_linker_0, # of connection points: 2
#     Edge 25, Type (0, 1), BuildingBlock: UVAHIK_clean_linker_0, # of connection points: 2
#     Edge 26, Type (0, 1), BuildingBlock: UVAHIK_clean_linker_0, # of connection points: 2
#     Edge 27, Type (0, 1), BuildingBlock: UVAHIK_clean_linker_0, # of connection points: 2
#     Edge 28, Type (0, 1), BuildingBlock: UVAHIK_clean_linker_0, # of connection points: 2
#     Edge 29, Type (0, 1), BuildingBlock: UVAHIK_clean_linker_0, # of connection points: 2
#     Edge 30, Type (0, 1), BuildingBlock: UVAHIK_clean_linker_0, # of connection points: 2
#     Edge 31, Type (0, 1), BuildingBlock: UVAHIK_clean_linker_0, # of connection points: 2
#     Edge 32, Type (0, 1), BuildingBlock: UVAHIK_clean_linker_0, # of connection points: 2
#     Edge 33, Type (0, 1), BuildingBlock: UVAHIK_clean_linker_0, # of connection points: 2
#     Edge 34, Type (0, 1), BuildingBlock: UVAHIK_clean_linker_0, # of connection points: 2
#     Edge 35, Type (0, 1), BuildingBlock: UVAHIK_clean_linker_0, # of connection points: 2
# Relax obj value: 0.092
# Max RMSD: 0.140
# Mean RMSD: 0.071
data_MOF--net-zzz--node1-KUMBOL_clean_sbu_0--node2-QEWDON_clean_linker_0--edge1-UVAHIK_clean_linker_0
_symmetry_space_group_name_H-M    P1
_symmetry_Int_Tables_number       1
_symmetry_cell_setting            triclinic
loop_
_symmetry_equiv_pos_as_xyz
'x, y, z'
_cell_length_a     69.634016
_cell_length_b     69.663672
_cell_length_c     18.280926
_cell_angle_alpha  90.948876
_cell_angle_beta   90.068387
_cell_angle_gamma 89.95491
loop_
_atom_site_label
_atom_site_type_symbol
_atom_site_fract_x
_atom_site_fract_y
_atom_site_fract_z
_atom_type_partial_charge
H0 H 0.75911 0.54612 0.04373 0.0
C1 C 0.7696 0.54394 0.0865 0.0
C2 C 0.78896 0.54739 0.07048 0.0
C3 C 0.76384 0.53838 0.15701 0.0
H4 H 0.81778 0.54841 0.11319 0.0
C5 C 0.8028 0.54587 0.12586 0.0
C6 C 0.79775 0.54029 0.19653 0.0
C7 C 0.77833 0.53606 0.21132 0.0
C8 C 0.74278 0.5359 0.17425 0.0
H9 H 0.77465 0.53125 0.26548 0.0
C10 C 0.72893 0.5313 0.11924 0.0
C11 C 0.70917 0.52991 0.13637 0.0
C12 C 0.73617 0.53907 0.24631 0.0
H13 H 0.74584 0.54339 0.28988 0.0
C14 C 0.71677 0.53732 0.2635 0.0
H15 H 0.73331 0.52848 0.06335 0.0
C16 C 0.70339 0.53279 0.20928 0.0
H17 H 0.68836 0.53199 0.2242 0.0
H18 H 0.71201 0.53984 0.3192 0.0
H19 H 0.98732 0.76866 0.04737 0.0
C20 C 0.99031 0.77907 0.09029 0.0
C21 C 0.98491 0.79816 0.07834 0.0
C22 C 0.99894 0.7736 0.15681 0.0
H23 H 0.98333 0.8268 0.12383 0.0
C24 C 0.98749 0.81205 0.13369 0.0
C25 C 0.99634 0.80752 0.19988 0.0
C26 C 1.00256 0.78842 0.21036 0.0
C27 C 1.00319 0.75255 0.17135 0.0
H28 H 1.00998 0.78538 0.26079 0.0
C29 C 1.004 0.73809 0.11461 0.0
C30 C 1.00624 0.71835 0.13124 0.0
C31 C 1.00531 0.74644 0.24416 0.0
H32 H 1.00405 0.75625 0.2902 0.0
C33 C 1.00851 0.72724 0.26016 0.0
H34 H 1.00253 0.74183 0.0578 0.0
C35 C 1.00895 0.71337 0.20468 0.0
H36 H 1.01128 0.69856 0.21961 0.0
H37 H 1.01026 0.723 0.31649 0.0
H38 H 0.76747 0.98529 0.08279 0.0
C39 C 0.75716 0.98959 0.12411 0.0
C40 C 0.73755 0.98859 0.10637 0.0
C41 C 0.76335 0.99554 0.19448 0.0
H42 H 0.70867 0.99221 0.14746 0.0
C43 C 0.72385 0.9928 0.16057 0.0
C44 C 0.72938 0.99857 0.23106 0.0
C45 C 0.74908 1.00043 0.2474 0.0
C46 C 0.7845 0.99581 0.21307 0.0
H47 H 0.75307 1.00557 0.30145 0.0
C48 C 0.799 0.99778 0.15865 0.0
C49 C 0.81875 0.99645 0.17661 0.0
C50 C 0.79045 0.99307 0.28587 0.0
H51 H 0.78021 0.99079 0.32923 0.0
C52 C 0.80987 0.99263 0.30422 0.0
H53 H 0.79508 0.99999 0.10218 0.0
C54 C 0.82387 0.99427 0.25042 0.0
H55 H 0.83881 0.99377 0.26685 0.0
H56 H 0.81411 0.99065 0.36059 0.0
H57 H 0.55317 0.77904 0.08728 0.0
C58 C 0.55073 0.76861 0.12942 0.0
C59 C 0.55188 0.74913 0.10969 0.0
C60 C 0.5473 0.77444 0.20262 0.0
H61 H 0.55111 0.72009 0.14821 0.0
C62 C 0.55014 0.73518 0.16354 0.0
C63 C 0.54653 0.74034 0.23651 0.0
C64 C 0.54459 0.75993 0.25556 0.0
C65 C 0.54786 0.79545 0.22395 0.0
H66 H 0.54135 0.76366 0.31187 0.0
C67 C 0.54427 0.81016 0.17254 0.0
C68 C 0.54697 0.82974 0.19142 0.0
C69 C 0.55339 0.80106 0.2954 0.0
H70 H 0.55697 0.79061 0.3363 0.0
C71 C 0.55513 0.82038 0.31514 0.0
H72 H 0.53985 0.80655 0.11731 0.0
C73 C 0.55206 0.83459 0.26376 0.0
H74 H 0.55381 0.84946 0.28069 0.0
H75 H 0.55933 0.82437 0.37036 0.0
H76 H 0.27419 0.49358 0.16386 0.0
C77 C 0.26384 0.49615 0.121 0.0
C78 C 0.24437 0.49357 0.13735 0.0
C79 C 0.26982 0.50122 0.05013 0.0
H80 H 0.21551 0.49347 0.09489 0.0
C81 C 0.23058 0.49545 0.08204 0.0
C82 C 0.23581 0.50059 0.0111 0.0
C83 C 0.25538 0.50402 0.99592 0.0
C84 C 0.291 0.50237 0.03225 0.0
H85 H 0.25916 0.5085 0.94146 0.0
C86 C 0.30528 0.50559 0.08711 0.0
C87 C 0.32511 0.50455 0.0702 0.0
C88 C 0.29727 0.49888 0.95992 0.0
H89 H 0.28727 0.49564 0.91618 0.0
C90 C 0.31674 0.4988 0.94254 0.0
H91 H 0.3012 0.50847 0.14325 0.0
C92 C 0.33052 0.50151 0.99691 0.0
H93 H 0.34553 0.50112 0.98146 0.0
H94 H 0.32121 0.49618 0.88656 0.0
H95 H 0.04698 0.27691 0.14899 0.0
C96 C 0.04359 0.26609 0.10802 0.0
C97 C 0.04992 0.24735 0.12047 0.0
C98 C 0.0333 0.27067 0.04404 0.0
H99 H 0.05156 0.21839 0.07852 0.0
C100 C 0.04678 0.23291 0.06777 0.0
C101 C 0.03633 0.23653 1.0041 0.0
C102 C 0.02917 0.25531 0.99329 0.0
C103 C 0.02767 0.29137 0.02964 0.0
H104 H 0.02055 0.25771 0.94512 0.0
C105 C 0.02715 0.30595 0.08595 0.0
C106 C 0.02375 0.3255 0.06932 0.0
C107 C 0.02393 0.2971 0.95736 0.0
H108 H 0.02476 0.28712 0.91163 0.0
C109 C 0.0196 0.3161 0.94152 0.0
H110 H 0.02973 0.30245 0.14243 0.0
C111 C 0.01956 0.33013 0.99651 0.0
H112 H 0.01635 0.34478 0.98172 0.0
H113 H 0.01665 0.32007 0.88561 0.0
H114 H 0.26689 0.05068 0.14949 0.0
C115 C 0.27694 0.04626 0.10744 0.0
C116 C 0.29657 0.04565 0.1252 0.0
C117 C 0.27041 0.04172 0.03607 0.0
H118 H 0.32511 0.0401 0.08335 0.0
C119 C 0.30994 0.04095 0.07031 0.0
C120 C 0.3041 0.03701 0.99854 0.0
C121 C 0.28436 0.0371 0.98164 0.0
C122 C 0.24923 0.04238 0.0185 0.0
H123 H 0.28009 0.03329 0.92639 0.0
C124 C 0.23487 0.03962 0.07286 0.0
C125 C 0.21507 0.04133 0.05609 0.0
C126 C 0.24313 0.04647 0.94691 0.0
H127 H 0.2533 0.04938 0.90389 0.0
C128 C 0.22367 0.04734 0.92948 0.0
H129 H 0.23895 0.03642 0.12841 0.0
C130 C 0.2098 0.04479 0.98319 0.0
H131 H 0.19483 0.04558 0.96735 0.0
H132 H 0.21931 0.0503 0.87394 0.0
H133 H 0.48611 0.26254 0.13383 0.0
C134 C 0.49018 0.27297 0.09352 0.0
C135 C 0.49144 0.29222 0.11572 0.0
C136 C 0.49406 0.26737 0.02045 0.0
H137 H 0.49567 0.32122 0.08255 0.0
C138 C 0.49559 0.3063 0.06456 0.0
C139 C 0.49901 0.30152 0.9909 0.0
C140 C 0.49851 0.28195 0.96942 0.0
C141 C 0.49311 0.24648 0.99781 0.0
H142 H 0.50195 0.27822 0.91329 0.0
C143 C 0.49622 0.23154 0.04864 0.0
C144 C 0.49433 0.21197 0.02773 0.0
C145 C 0.48845 0.24124 0.92519 0.0
H146 H 0.48528 0.25193 0.88468 0.0
C147 C 0.48735 0.22199 0.90355 0.0
H148 H 0.49987 0.235 0.10477 0.0
C149 C 0.49027 0.20751 0.954 0.0
H150 H 0.48932 0.19274 0.93494 0.0
H151 H 0.48394 0.21827 0.84729 0.0
Gd152 Gd 1.00269 0.02426 0.53876 0.0
Gd153 Gd 0.03178 0.01478 0.7012 0.0
C154 C 0.03132 0.0673 0.85821 0.0
C155 C 0.06335 0.0802 0.8426 0.0
C156 C 0.05366 0.05101 0.77701 0.0
C157 C 0.03566 0.05218 0.80817 0.0
C158 C 0.06789 0.06472 0.79569 0.0
C159 C 0.04508 0.08148 0.87385 0.0
C160 C 0.01335 0.06764 0.89186 0.0
C161 C 1.00049 0.05279 0.87769 0.0
N162 N 0.02253 0.03837 0.7911 0.0
C163 C 1.00542 0.03811 0.82821 0.0
H164 H 0.99532 0.02664 0.822 0.0
C165 C 0.07635 0.03234 0.71222 0.0
N166 N 0.05764 0.03586 0.73197 0.0
C167 C 0.09085 0.04559 0.72841 0.0
C168 C 0.08651 0.06211 0.76892 0.0
H169 H 0.08029 0.01919 0.68397 0.0
H170 H 0.04186 0.0933 0.91113 0.0
H171 H 0.0373 1.00223 0.42805 0.0
H172 H 1.00947 0.07902 0.93022 0.0
H173 H 0.98676 0.05254 0.90535 0.0
H174 H 0.07401 0.09098 0.8566 0.0
H175 H 0.95517 0.03136 0.55373 0.0
H176 H 1.01114 0.95613 0.31175 0.0
H177 H 0.03964 0.97561 0.34269 0.0
H178 H 0.94484 0.96088 0.37505 0.0
H179 H 0.10543 0.04289 0.71049 0.0
H180 H 0.0978 0.0723 0.78203 0.0
H181 H 0.97596 0.95065 0.32474 0.0
H182 H 0.92493 0.01481 0.52186 0.0
N183 N 1.00718 0.99886 0.45026 0.0
C184 C 1.00982 0.96813 0.34989 0.0
C185 C 0.0259 0.9791 0.36719 0.0
C186 C 0.99214 0.97303 0.3808 0.0
C187 C 0.9912 0.98875 0.43076 0.0
C188 C 0.02434 0.9945 0.41679 0.0
N189 N 0.97307 1.01012 0.50363 0.0
C190 C 0.97368 0.99441 0.45907 0.0
C191 C 0.93853 1.00875 0.50452 0.0
C192 C 0.93902 0.99183 0.46286 0.0
C193 C 0.95571 0.01796 0.52309 0.0
C194 C 0.95667 0.9847 0.43808 0.0
H195 H 0.92568 0.98478 0.44796 0.0
O196 O 0.98477 0.04129 0.46695 0.0
O197 O 0.01875 0.03773 0.63304 0.0
O198 O 1.00076 1.00644 0.72522 0.0
O199 O 0.98182 0.01742 0.62932 0.0
O200 O 0.99075 0.04686 0.61567 0.0
O201 O 0.01498 0.04731 0.47518 0.0
O202 O 0.05428 0.99973 0.75915 0.0
O203 O 0.01522 1.00137 0.6084 0.0
O204 O 0.03394 0.02724 0.50708 0.0
O205 O 0.05264 0.01974 0.60862 0.0
O206 O 0.04202 0.98997 0.63027 0.0
O207 O 0.02457 0.99515 0.78802 0.0
C208 C 1.00619 0.04993 0.65319 0.0
C209 C 0.95771 0.96861 0.3911 0.0
C210 C 0.97541 0.96282 0.36239 0.0
C211 C 0.99824 0.05378 0.45594 0.0
C212 C 0.99411 0.0739 0.4777 0.0
C213 C 0.97674 0.07893 0.51248 0.0
C214 C 1.00848 0.08787 0.47083 0.0
C215 C 1.0058 0.10655 0.49936 0.0
C216 C 0.97407 0.09741 0.54132 0.0
C217 C 0.98852 0.11114 0.53526 0.0
C218 C 0.98384 1.01005 0.69496 0.0
C219 C 0.02681 0.98803 0.59051 0.0
C220 C 0.04222 0.98921 0.79475 0.0
C221 C 0.04562 0.96838 0.78921 0.0
C222 C 0.06276 0.96092 0.81703 0.0
C223 C 0.03237 0.956 0.75429 0.0
C224 C 0.03585 0.93609 0.74974 0.0
C225 C 0.0666 0.94133 0.81101 0.0
C226 C 0.05325 0.92898 0.77831 0.0
C227 C 0.05072 0.02476 0.53966 0.0
H228 H 0.9654 0.06849 0.51928 0.0
H229 H 0.02196 0.08406 0.44477 0.0
H230 H 0.96076 0.10108 0.56872 0.0
H231 H 0.986 0.12546 0.55713 0.0
H232 H 0.07321 0.97027 0.84329 0.0
H233 H 0.01933 0.96187 0.73129 0.0
H234 H 0.07983 0.93564 0.83306 0.0
H235 H 0.05635 0.91376 0.77815 0.0
Gd236 Gd 0.51446 1.00538 0.54242 0.0
Gd237 Gd 0.52053 0.03892 0.69629 0.0
C238 C 0.4672 0.05784 0.82654 0.0
C239 C 0.46482 0.09152 0.79579 0.0
C240 C 0.4911 0.07197 0.74806 0.0
C241 C 0.48387 0.05607 0.78279 0.0
C242 C 0.48205 0.09002 0.75634 0.0
C243 C 0.4574 0.07544 0.8308 0.0
C244 C 0.46117 0.04205 0.86654 0.0
C245 C 0.47207 0.0253 0.86465 0.0
N246 N 0.49374 0.03924 0.77759 0.0
C247 C 0.48848 0.02422 0.82071 0.0
H248 H 0.49622 1.01094 0.82058 0.0
C249 C 0.51755 0.08614 0.68914 0.0
N250 N 0.5079 0.07015 0.71144 0.0
C251 C 0.50908 0.10429 0.69516 0.0
C252 C 0.49103 0.10619 0.72754 0.0
H253 H 0.5317 0.08471 0.66543 0.0
H254 H 0.44442 0.07692 0.86309 0.0
H255 H 0.539 0.03372 0.4183 0.0
H256 H 0.44843 0.0428 0.90045 0.0
H257 H 0.46777 0.0131 0.89664 0.0
H258 H 0.45752 0.1052 0.8018 0.0
H259 H 0.50355 0.96004 0.58381 0.0
H260 H 0.58477 1.00027 0.33089 0.0
H261 H 0.56679 0.03074 0.33937 0.0
H262 H 0.57452 0.93789 0.42736 0.0
H263 H 0.51654 0.11679 0.67527 0.0
H264 H 0.48455 0.12029 0.7328 0.0
H265 H 0.58774 0.9659 0.36507 0.0
H266 H 0.51752 0.92763 0.56784 0.0
N267 N 0.54064 1.00502 0.45911 0.0
C268 C 0.57235 1.00136 0.36638 0.0
C269 C 0.56222 0.01855 0.37094 0.0
C270 C 0.56603 0.9856 0.40601 0.0
C271 C 0.54984 0.98778 0.45206 0.0
C272 C 0.54621 0.02009 0.41669 0.0
N273 N 0.52641 0.97403 0.52886 0.0
C274 C 0.54256 0.97192 0.48803 0.0
C275 C 0.5248 0.93996 0.54568 0.0
C276 C 0.54214 0.93767 0.50838 0.0
C277 C 0.51694 0.95831 0.55459 0.0
C278 C 0.55104 0.95365 0.47775 0.0
H279 H 0.5482 0.92343 0.50147 0.0
O280 O 0.50306 0.98822 0.45205 0.0
O281 O 0.49931 0.02232 0.6295 0.0
O282 O 0.52068 1.00839 0.73861 0.0
O283 O 0.52724 0.98884 0.63685 0.0
O284 O 0.49154 0.99371 0.6169 0.0
O285 O 0.48752 0.01319 0.48985 0.0
O286 O 0.53482 0.05729 0.77687 0.0
O287 O 0.53546 0.02214 0.60879 0.0
O288 O 0.51391 0.03536 0.49678 0.0
O289 O 0.51159 0.05633 0.59775 0.0
O290 O 0.54461 0.05003 0.62535 0.0
O291 O 0.54395 0.02799 0.7624 0.0
C292 C 0.48763 1.00965 0.65079 0.0
C293 C 0.56767 0.95175 0.43501 0.0
C294 C 0.57517 0.96769 0.39941 0.0
C295 C 0.48664 0.99711 0.45287 0.0
C296 C 0.46933 0.9852 0.46448 0.0
C297 C 0.47073 0.96507 0.46732 0.0
C298 C 0.45144 0.99398 0.47764 0.0
C299 C 0.4352 0.98288 0.49455 0.0
C300 C 0.45477 0.95404 0.48521 0.0
C301 C 0.43714 0.96285 0.49914 0.0
C302 C 0.52601 0.99175 0.70851 0.0
C303 C 0.54783 0.03429 0.58923 0.0
C304 C 0.54847 0.04493 0.78765 0.0
C305 C 0.5683 0.05155 0.77348 0.0
C306 C 0.57274 0.07122 0.77697 0.0
C307 C 0.58267 0.03839 0.7519 0.0
C308 C 0.6013 0.04468 0.73463 0.0
C309 C 0.59106 0.0776 0.75859 0.0
C310 C 0.60526 0.06449 0.73768 0.0
C311 C 0.51129 0.05264 0.52637 0.0
H312 H 0.48421 0.95779 0.45676 0.0
H313 H 0.45014 1.00944 0.47369 0.0
H314 H 0.45607 0.93859 0.48824 0.0
H315 H 0.42496 0.95395 0.51296 0.0
H316 H 0.56199 0.08171 0.79305 0.0
H317 H 0.57933 0.02322 0.74819 0.0
H318 H 0.59433 0.09279 0.76136 0.0
H319 H 0.61952 0.06988 0.72642 0.0
Gd320 Gd 0.49741 0.52722 0.67836 0.0
Gd321 Gd 0.53405 0.51432 0.5407 0.0
C322 C 0.59894 0.51468 0.58075 0.0
C323 C 0.60942 0.54094 0.50458 0.0
C324 C 0.57573 0.53183 0.508 0.0
C325 C 0.57984 0.51775 0.55777 0.0
C326 C 0.5905 0.54336 0.4796 0.0
C327 C 0.61363 0.52662 0.55512 0.0
C328 C 0.60275 0.49943 0.6274 0.0
C329 C 0.5878 0.48735 0.64801 0.0
N330 N 0.56527 0.50651 0.5813 0.0
C331 C 0.56911 0.49096 0.6236 0.0
H332 H 0.55781 0.48153 0.64072 0.0
C333 C 0.55288 0.54599 0.4299 0.0
N334 N 0.55735 0.53368 0.4849 0.0
C335 C 0.567 0.5578 0.40017 0.0
C336 C 0.58587 0.55665 0.42576 0.0
H337 H 0.53828 0.54712 0.41046 0.0
H338 H 0.62835 0.52462 0.57278 0.0
H339 H 0.47383 0.55914 0.57466 0.0
H340 H 0.6172 0.49663 0.64655 0.0
H341 H 0.59063 0.47531 0.68311 0.0
H342 H 0.62094 0.54977 0.48396 0.0
H343 H 0.49294 0.49545 0.81203 0.0
H344 H 0.4146 0.54331 0.56575 0.0
H345 H 0.44108 0.5648 0.52963 0.0
H346 H 0.41068 0.49119 0.73299 0.0
H347 H 0.56331 0.56784 0.35785 0.0
H348 H 0.59679 0.5658 0.40263 0.0
H349 H 0.40342 0.51561 0.6411 0.0
H350 H 0.46784 0.47504 0.86599 0.0
N351 N 0.46634 0.53428 0.63461 0.0
C352 C 0.429 0.54075 0.58591 0.0
C353 C 0.44389 0.55293 0.56556 0.0
C354 C 0.43277 0.52575 0.63381 0.0
C355 C 0.45181 0.52299 0.65806 0.0
C356 C 0.46251 0.54964 0.5914 0.0
N357 N 0.47414 0.50781 0.73395 0.0
C358 C 0.45585 0.50929 0.70943 0.0
C359 C 0.46427 0.48456 0.82178 0.0
C360 C 0.44554 0.48521 0.79451 0.0
C361 C 0.47843 0.49618 0.79125 0.0
C362 C 0.44105 0.49789 0.7384 0.0
H363 H 0.43459 0.47621 0.81826 0.0
O364 O 0.49922 0.53531 0.79311 0.0
O365 O 0.52851 0.52402 0.6544 0.0
O366 O 0.52541 0.48877 0.61033 0.0
O367 O 0.49457 0.49537 0.6535 0.0
O368 O 0.5196 0.51489 0.7554 0.0
O369 O 0.49155 0.55658 0.71276 0.0
O370 O 0.53169 0.50659 0.42559 0.0
O371 O 0.50298 0.51748 0.56486 0.0
O372 O 0.50652 0.55294 0.60979 0.0
O373 O 0.53743 0.54586 0.56864 0.0
O374 O 0.51187 0.52737 0.46513 0.0
O375 O 0.53832 0.48476 0.505 0.0
C376 C 0.53432 0.51714 0.71391 0.0
C377 C 0.42222 0.49994 0.71199 0.0
C378 C 0.41809 0.51384 0.6597 0.0
C379 C 0.49746 0.55355 0.77939 0.0
C380 C 0.51294 0.56617 0.80769 0.0
C381 C 0.5237 0.5607 0.86897 0.0
C382 C 0.51749 0.58343 0.77258 0.0
C383 C 0.5325 0.59525 0.79853 0.0
C384 C 0.53873 0.57216 0.89452 0.0
C385 C 0.54305 0.58932 0.86007 0.0
C386 C 0.50861 0.48316 0.63703 0.0
C387 C 0.49711 0.52464 0.50598 0.0
C388 C 0.53182 0.48828 0.43952 0.0
C389 C 0.51464 0.47724 0.41618 0.0
C390 C 0.50078 0.4855 0.37025 0.0
C391 C 0.51108 0.45901 0.44523 0.0
C392 C 0.49384 0.44921 0.42977 0.0
C393 C 0.4836 0.47597 0.35521 0.0
C394 C 0.48009 0.45798 0.38476 0.0
C395 C 0.5235 0.55827 0.58376 0.0
H396 H 0.52056 0.5475 0.8971 0.0
H397 H 0.50935 0.58763 0.725 0.0
H398 H 0.5469 0.56786 0.94191 0.0
H399 H 0.55432 0.59819 0.88343 0.0
H400 H 0.50298 0.49954 0.34708 0.0
H401 H 0.52163 0.45256 0.48087 0.0
H402 H 0.47295 0.48254 0.32041 0.0
H403 H 0.46683 0.45073 0.37047 0.0
Gd404 Gd 1.01114 0.50292 0.67262 0.0
Gd405 Gd 0.02238 0.53968 0.53746 0.0
C406 C 0.01775 0.60452 0.57797 0.0
C407 C 0.99126 0.61314 0.49832 0.0
C408 C 1.00227 0.58004 0.50331 0.0
C409 C 0.01586 0.58517 0.55494 0.0
C410 C 0.99007 0.59402 0.47313 0.0
C411 C 1.00508 0.61838 0.55069 0.0
C412 C 0.03263 0.60943 0.62619 0.0
C413 C 0.0455 0.59531 0.64837 0.0
N414 N 0.02785 0.5714 0.58001 0.0
C415 C 0.04304 0.57634 0.62388 0.0
H416 H 0.05307 0.56566 0.64207 0.0
C417 C 0.99006 0.55619 0.42255 0.0
N418 N 1.00165 0.56151 0.47987 0.0
C419 C 0.97761 0.56949 0.39106 0.0
C420 C 0.97742 0.58845 0.41712 0.0
H421 H 0.98999 0.54152 0.40256 0.0
H422 H 1.00617 0.63327 0.56838 0.0
H423 H 0.98039 0.47672 0.56922 0.0
H424 H 0.03454 0.62411 0.64536 0.0
H425 H 0.05726 0.59899 0.68469 0.0
H426 H 0.98188 0.62405 0.47634 0.0
H427 H 0.04366 0.5013 0.80717 0.0
H428 H 0.99942 0.41842 0.56505 0.0
H429 H 0.97638 0.44335 0.52662 0.0
H430 H 0.05232 0.41885 0.73295 0.0
H431 H 0.96813 0.5651 0.34693 0.0
H432 H 0.9678 0.59874 0.39255 0.0
H433 H 0.02799 0.40947 0.64132 0.0
H434 H 0.06575 0.47787 0.86246 0.0
N435 N 1.00582 0.47117 0.63023 0.0
C436 C 1.00125 0.43311 0.58418 0.0
C437 C 0.9882 0.44713 0.56252 0.0
C438 C 0.01619 0.43814 0.63197 0.0
C439 C 0.01798 0.45749 0.65495 0.0
C440 C 0.99056 0.46612 0.58696 0.0
N441 N 0.03211 0.48125 0.72988 0.0
C442 C 0.03159 0.46272 0.70637 0.0
C443 C 0.05626 0.47342 0.81841 0.0
C444 C 0.05657 0.45448 0.79224 0.0
C445 C 0.04369 0.48664 0.78713 0.0
C446 C 0.04393 0.44883 0.73635 0.0
H447 H 0.06629 0.44425 0.81666 0.0
O448 O 1.00297 0.5043 0.78693 0.0
O449 O 0.01237 0.53424 0.65002 0.0
O450 O 0.04819 0.53259 0.61036 0.0
O451 O 0.04305 0.50139 0.64948 0.0
O452 O 0.02192 0.52607 0.75136 0.0
O453 O 0.98208 0.49571 0.70452 0.0
O454 O 0.03069 0.53816 0.4233 0.0
O455 O 0.02097 0.50837 0.55985 0.0
O456 O 0.98526 0.50997 0.60008 0.0
O457 O 0.99041 0.54108 0.55978 0.0
O458 O 0.01145 0.51665 0.45859 0.0
O459 O 0.05154 0.54661 0.50603 0.0
C460 C 0.01876 0.54059 0.71046 0.0
C461 C 0.04285 0.4297 0.71113 0.0
C462 C 0.029 0.42436 0.65898 0.0
C463 C 0.98486 0.50153 0.77196 0.0
C464 C 0.97144 0.51613 0.8017 0.0
C465 C 0.97514 0.52468 0.87034 0.0
C466 C 0.95523 0.52199 0.76159 0.0
C467 C 0.94268 0.5361 0.78992 0.0
C468 C 0.96297 0.53884 0.89839 0.0
C469 C 0.94682 0.54446 0.85894 0.0
C470 C 0.05457 0.51612 0.63709 0.0
C471 C 0.01449 0.5021 0.49941 0.0
C472 C 0.04881 0.5407 0.43867 0.0
C473 C 0.06209 0.52585 0.4098 0.0
C474 C 0.05812 0.51674 0.3424 0.0
C475 C 0.07844 0.52027 0.44973 0.0
C476 C 0.09084 0.50588 0.4225 0.0
C477 C 0.07015 0.50231 0.31545 0.0
C478 C 0.08641 0.49697 0.35473 0.0
C479 C 0.9789 0.52636 0.57262 0.0
H480 H 0.98751 0.52044 0.90231 0.0
H481 H 0.95238 0.51556 0.70846 0.0
H482 H 0.96589 0.54531 0.95149 0.0
H483 H 0.93729 0.55492 0.88399 0.0
H484 H 0.04565 0.52073 0.31057 0.0
H485 H 0.0815 0.52714 0.50191 0.0
H486 H 0.06701 0.49541 0.26332 0.0
H487 H 0.09582 0.48627 0.33043 0.0
C488 C 0.18347 0.05221 0.11 0.0
C489 C 0.19971 0.04017 0.11359 0.0
C490 C 0.16844 0.0507 0.16027 0.0
C491 C 0.14699 0.01757 0.29664 0.0
H492 H 0.1175 0.06293 0.34984 0.0
C493 C 0.08546 0.01711 0.51315 0.0
C494 C 0.06846 0.02689 0.49485 0.0
C495 C 0.10202 0.01873 0.46994 0.0
C496 C 0.12548 0.05008 0.33517 0.0
H497 H 0.21282 0.01734 0.17546 0.0
H498 H 0.18685 0.01512 0.26496 0.0
H499 H 0.14567 0.06595 0.27223 0.0
H500 H 0.05565 0.04603 0.41628 0.0
H501 H 0.08455 0.04904 0.34151 0.0
H502 H 0.1268 1.00182 0.36098 0.0
C503 C 0.18556 0.02548 0.22173 0.0
C504 C 0.14169 0.05178 0.29028 0.0
C505 C 0.20064 0.02691 0.17082 0.0
C506 C 0.06848 0.03835 0.4322 0.0
C507 C 0.0851 0.04015 0.38952 0.0
C508 C 0.13087 0.01591 0.34229 0.0
C509 C 0.16913 0.03728 0.21691 0.0
C510 C 0.15257 0.03552 0.26926 0.0
C511 C 0.1021 0.03032 0.40763 0.0
C512 C 0.11975 0.03212 0.36142 0.0
H513 H 0.18228 0.06289 0.06788 0.0
H514 H 0.15605 0.05989 0.15347 0.0
H515 H 0.15473 1.00465 0.28124 0.0
H516 H 0.0859 1.00788 0.56017 0.0
H517 H 0.11483 1.01102 0.48577 0.0
C518 C 0.50914 0.19704 0.14062 0.0
C519 C 0.49596 0.19613 0.0822 0.0
C520 C 0.51065 0.18192 0.19026 0.0
C521 C 0.48464 0.13792 0.25339 0.0
H522 H 0.53435 0.12469 0.33376 0.0
C523 C 0.49868 0.06729 0.41095 0.0
C524 C 0.50924 0.06909 0.47627 0.0
C525 C 0.49687 0.0829 0.36378 0.0
C526 C 0.52033 0.12828 0.31217 0.0
H527 H 0.47361 0.17851 0.03246 0.0
H528 H 0.47688 0.15208 0.11573 0.0
H529 H 0.5316 0.15169 0.25115 0.0
H530 H 0.52709 0.08835 0.54077 0.0
H531 H 0.52387 0.11552 0.45935 0.0
H532 H 0.47353 0.11414 0.3133 0.0
C533 C 0.48587 0.16457 0.12451 0.0
C534 C 0.51871 0.14387 0.26494 0.0
C535 C 0.48423 0.17972 0.07556 0.0
C536 C 0.51831 0.08667 0.49239 0.0
C537 C 0.51673 0.10217 0.44494 0.0
C538 C 0.48632 0.12219 0.29987 0.0
C539 C 0.49909 0.16538 0.18277 0.0
C540 C 0.50083 0.14895 0.23465 0.0
C541 C 0.50592 0.10054 0.38014 0.0
C542 C 0.50418 0.11717 0.32993 0.0
H543 H 0.51855 0.20931 0.14757 0.0
H544 H 0.52083 0.1833 0.23482 0.0
H545 H 0.47052 0.14151 0.23284 0.0
H546 H 0.49166 0.05387 0.39672 0.0
H547 H 0.4886 0.08108 0.31392 0.0
C548 C 0.35632 0.49331 0.12451 0.0
C549 C 0.34041 0.50579 0.12797 0.0
C550 C 0.37149 0.49501 0.17448 0.0
C551 C 0.39485 0.52995 0.3016 0.0
H552 H 0.42341 0.485 0.36109 0.0
C553 C 0.47193 0.53531 0.41846 0.0
C554 C 0.47755 0.52288 0.47426 0.0
C555 C 0.45403 0.53328 0.38424 0.0
C556 C 0.41552 0.49773 0.34593 0.0
H557 H 0.32789 0.52957 0.18907 0.0
H558 H 0.35432 0.53242 0.27738 0.0
H559 H 0.39395 0.48111 0.29035 0.0
H560 H 0.46919 0.49789 0.5354 0.0
H561 H 0.43773 0.49442 0.47644 0.0
H562 H 0.41637 0.54656 0.35774 0.0
C563 C 0.35514 0.52144 0.2349 0.0
C564 C 0.39868 0.49551 0.30438 0.0
C565 C 0.33986 0.51969 0.18469 0.0
C566 C 0.46503 0.50802 0.49396 0.0
C567 C 0.44709 0.50591 0.45943 0.0
C568 C 0.41169 0.53217 0.34322 0.0
C569 C 0.37129 0.50922 0.23007 0.0
C570 C 0.38825 0.51159 0.28038 0.0
C571 C 0.44131 0.51855 0.40403 0.0
C572 C 0.42247 0.51611 0.36494 0.0
H573 H 0.35717 0.48222 0.08242 0.0
H574 H 0.38366 0.48546 0.16803 0.0
H575 H 0.38737 0.54271 0.28404 0.0
H576 H 0.48146 0.54664 0.40115 0.0
H577 H 0.45037 0.54303 0.34085 0.0
C578 C 0.01661 0.3406 0.19494 0.0
C579 C 0.02519 0.34157 0.1253 0.0
C580 C 0.01633 0.3568 0.24252 0.0
C581 C 0.01885 0.41006 0.23412 0.0
H582 H 0.02601 0.40928 0.4444 0.0
C583 C 1.00223 0.47688 0.41316 0.0
C584 C 0.01535 0.4822 0.46828 0.0
C585 C 1.00352 0.459 0.3773 0.0
C586 C 0.02406 0.40975 0.38567 0.0
H587 H 0.04155 0.36008 0.05437 0.0
H588 H 0.04102 0.38792 0.13603 0.0
H589 H 0.02847 0.37927 0.37207 0.0
H590 H 0.04064 0.47305 0.52721 0.0
H591 H 0.04285 0.4415 0.46483 0.0
H592 H 0.01449 0.44034 0.24684 0.0
C593 C 0.03402 0.37491 0.15355 0.0
C594 C 0.0253 0.3925 0.34424 0.0
C595 C 0.03433 0.35884 0.10652 0.0
C596 C 0.03 0.46916 0.48636 0.0
C597 C 0.03127 0.45111 0.45041 0.0
C598 C 0.01743 0.42715 0.27531 0.0
C599 C 0.02462 0.37437 0.22156 0.0
C600 C 0.02284 0.39243 0.26762 0.0
C601 C 0.01815 0.44588 0.39461 0.0
C602 C 0.02001 0.42733 0.35171 0.0
H603 H 1.00942 0.32759 0.21144 0.0
H604 H 1.00897 0.35579 0.29444 0.0
H605 H 0.01661 0.41067 0.17557 0.0
H606 H 0.99092 0.48668 0.39742 0.0
H607 H 0.99302 0.4555 0.33545 0.0
C608 C 0.85029 0.98447 0.12576 0.0
C609 C 0.83426 0.9967 0.11956 0.0
C610 C 0.86553 0.98525 0.07608 0.0
C611 C 0.8882 0.01717 0.93918 0.0
H612 H 0.91674 0.97107 0.88769 0.0
C613 C 0.94924 0.01732 0.72364 0.0
C614 C 0.96609 1.00695 0.73902 0.0
C615 C 0.93281 0.01553 0.76714 0.0
C616 C 0.90906 0.98412 0.90199 0.0
H617 H 0.82169 0.01905 0.0538 0.0
H618 H 0.84811 0.02013 0.96572 0.0
H619 H 0.88842 0.96887 0.96539 0.0
H620 H 0.9787 0.98647 0.81296 0.0
H621 H 0.94996 0.98326 0.88898 0.0
H622 H 0.90882 0.03238 0.87528 0.0
C623 C 0.84903 1.01014 0.01034 0.0
C624 C 0.89275 0.98288 0.94677 0.0
C625 C 0.83372 1.00938 0.06043 0.0
C626 C 0.96597 0.99459 0.79912 0.0
C627 C 0.94944 0.9927 0.84254 0.0
C628 C 0.90444 0.01839 0.89404 0.0
C629 C 0.86528 0.99819 0.01781 0.0
C630 C 0.88213 0.99941 0.96664 0.0
C631 C 0.93266 1.00329 0.82753 0.0
C632 C 0.91518 1.0019 0.87509 0.0
H633 H 0.85115 0.97424 0.16961 0.0
H634 H 0.87776 0.97595 0.08466 0.0
H635 H 0.8807 0.03029 0.95398 0.0
H636 H 0.94883 0.02733 0.67911 0.0
H637 H 0.92018 0.0238 0.75331 0.0
C638 C 0.55903 0.86017 0.13556 0.0
C639 C 0.54541 0.84525 0.13601 0.0
C640 C 0.55732 0.8754 0.08713 0.0
C641 C 0.53369 0.89098 0.91548 0.0
H642 H 0.54579 0.94179 0.99209 0.0
C643 C 0.53755 0.95791 0.72981 0.0
C644 C 0.52961 0.97515 0.75741 0.0
C645 C 0.53969 0.94188 0.77458 0.0
C646 C 0.54221 0.92775 0.96974 0.0
H647 H 0.51953 0.8345 0.08378 0.0
H648 H 0.51647 0.86123 0.99898 0.0
H649 H 0.5484 0.91419 0.07121 0.0
H650 H 0.51889 0.98916 0.8561 0.0
H651 H 0.52237 0.96138 0.93341 0.0
H652 H 0.52714 0.9047 0.81423 0.0
C653 C 0.52858 0.86104 0.03616 0.0
C654 C 0.54394 0.91183 0.01502 0.0
C655 C 0.53031 0.8457 0.08482 0.0
C656 C 0.52467 0.97613 0.83201 0.0
C657 C 0.52684 0.96014 0.87681 0.0
C658 C 0.53199 0.90695 0.87001 0.0
C659 C 0.54193 0.87625 0.03743 0.0
C660 C 0.53976 0.89319 0.98862 0.0
C661 C 0.5342 0.94271 0.84864 0.0
C662 C 0.53622 0.92558 0.89655 0.0
H663 H 0.57112 0.86008 0.17288 0.0
H664 H 0.56817 0.88653 0.08861 0.0
H665 H 0.53048 0.87687 0.89296 0.0
H666 H 0.54228 0.95678 0.67362 0.0
H667 H 0.54588 0.9289 0.75127 0.0
C668 C 0.67966 0.51251 0.09219 0.0
C669 C 0.69415 0.52608 0.07941 0.0
C670 C 0.6638 0.51084 0.0454 0.0
C671 C 0.64361 0.52503 0.86377 0.0
H672 H 0.59532 0.51657 0.96347 0.0
C673 C 0.56759 0.53147 0.72513 0.0
C674 C 0.55413 0.51734 0.74391 0.0
C675 C 0.58557 0.53237 0.76035 0.0
C676 C 0.60867 0.51874 0.93441 0.0
H677 H 0.70367 0.54801 0.00524 0.0
H678 H 0.67578 0.54532 0.92361 0.0
H679 H 0.62491 0.51806 0.03348 0.0
H680 H 0.54877 0.49337 0.81473 0.0
H681 H 0.57993 0.4948 0.87552 0.0
H682 H 0.62698 0.52598 0.7645 0.0
C683 C 0.67678 0.53577 0.96959 0.0
C684 C 0.62576 0.51953 0.97471 0.0
C685 C 0.69282 0.53732 0.01634 0.0
C686 C 0.55893 0.50428 0.79863 0.0
C687 C 0.57677 0.50519 0.83378 0.0
C688 C 0.62639 0.52432 0.82326 0.0
C689 C 0.66175 0.52285 0.98462 0.0
C690 C 0.64356 0.52244 0.94016 0.0
C691 C 0.59027 0.51939 0.81597 0.0
C692 C 0.60871 0.52094 0.85807 0.0
H693 H 0.68036 0.50345 0.13973 0.0
H694 H 0.65292 0.50029 0.05786 0.0
H695 H 0.65698 0.52722 0.83497 0.0
H696 H 0.56406 0.54205 0.68449 0.0
H697 H 0.59553 0.54359 0.74564 0.0
C698 C 0.01517 0.70291 0.00787 0.0
C699 C 1.00509 0.7024 0.07465 0.0
C700 C 0.01583 0.68659 0.96087 0.0
C701 C 0.0119 0.63361 0.97068 0.0
H702 H 1.00766 0.63349 0.75918 0.0
C703 C 1.00301 0.57345 0.72122 0.0
C704 C 0.01754 0.5605 0.7414 0.0
C705 C 1.00149 0.59163 0.756 0.0
C706 C 1.00881 0.63329 0.81826 0.0
H707 H 0.98653 0.68467 0.1406 0.0
H708 H 0.98782 0.65661 0.0601 0.0
H709 H 1.00477 0.6639 0.829 0.0
H710 H 0.04141 0.55627 0.81524 0.0
H711 H 0.03879 0.58765 0.87564 0.0
H712 H 0.01599 0.60321 0.96074 0.0
C713 C 0.99562 0.66935 0.04446 0.0
C714 C 1.00731 0.65075 0.85824 0.0
C715 C 0.99487 0.68554 0.09078 0.0
C716 C 0.03021 0.56599 0.79781 0.0
C717 C 0.02864 0.58399 0.83269 0.0
C718 C 0.01363 0.61632 0.93093 0.0
C719 C 1.00649 0.66938 0.9797 0.0
C720 C 1.00869 0.65112 0.93523 0.0
C721 C 0.0142 0.59707 0.81286 0.0
C722 C 0.01208 0.61582 0.85415 0.0
H723 H 0.02321 0.7156 0.99349 0.0
H724 H 0.02433 0.68719 0.91138 0.0
H725 H 0.01327 0.63326 0.02967 0.0
H726 H 0.99268 0.56943 0.67937 0.0
H727 H 0.99006 0.6012 0.73974 0.0
C728 C 0.04483 0.2425 0.25263 0.0
C729 C 0.05732 0.24184 0.19274 0.0
C730 C 0.04881 0.23182 0.31467 0.0
C731 C 0.07473 0.18666 0.34963 0.0
H732 H 0.04035 0.18893 0.51579 0.0
C733 C 0.02931 0.12331 0.41992 0.0
C734 C 0.02063 0.12146 0.48858 0.0
C735 C 0.04173 0.1385 0.40657 0.0
C736 C 0.05049 0.18798 0.47105 0.0
H737 H 0.08493 0.23192 0.15358 0.0
H738 H 0.09275 0.2144 0.26424 0.0
H739 H 0.05 0.21836 0.45784 0.0
H740 H 0.01897 0.13337 0.59842 0.0
H741 H 0.04122 0.15977 0.57607 0.0
H742 H 0.07566 0.15635 0.36424 0.0
C743 C 0.0793 0.22217 0.26232 0.0
C744 C 0.05577 0.20495 0.43667 0.0
C745 C 0.07501 0.23241 0.1992 0.0
C746 C 0.02539 0.1346 0.54485 0.0
C747 C 0.03809 0.14972 0.53185 0.0
C748 C 0.06999 0.1698 0.38551 0.0
C749 C 0.06558 0.22049 0.31856 0.0
C750 C 0.0665 0.20433 0.37137 0.0
C751 C 0.04602 0.15218 0.46181 0.0
C752 C 0.05643 0.17008 0.44238 0.0
H753 H 0.03105 0.24966 0.24854 0.0
H754 H 0.0377 0.23108 0.35579 0.0
H755 H 0.08334 0.18528 0.30064 0.0
H756 H 0.02571 0.11358 0.37512 0.0
H757 H 0.04701 0.14004 0.35133 0.0
C758 C 0.29357 0.0407 0.26078 0.0
C759 C 0.30336 0.04883 0.20165 0.0
C760 C 0.30226 0.03987 0.32973 0.0
C761 C 0.34926 0.05094 0.42645 0.0
H762 H 0.34298 0.99848 0.48882 0.0
C763 C 0.41367 1.00984 0.53816 0.0
C764 C 0.41601 0.99201 0.50207 0.0
C765 C 0.39592 0.0193 0.53719 0.0
C766 C 0.34494 0.01322 0.47239 0.0
H767 H 0.32864 0.06498 0.17131 0.0
H768 H 0.34429 0.06239 0.28827 0.0
H769 H 0.31801 0.01327 0.41774 0.0
H770 H 0.40137 0.96985 0.43882 0.0
H771 H 0.37094 0.98628 0.43517 0.0
H772 H 0.37732 0.04987 0.47333 0.0
C773 C 0.32986 0.05679 0.28321 0.0
C774 C 0.33037 0.02193 0.43231 0.0
C775 C 0.32101 0.05797 0.21502 0.0
C776 C 0.40004 0.98342 0.46811 0.0
C777 C 0.38243 0.99288 0.46652 0.0
C778 C 0.36408 0.04201 0.46476 0.0
C779 C 0.32109 0.04676 0.34054 0.0
C780 C 0.33295 0.04043 0.40401 0.0
C781 C 0.38022 0.01119 0.49926 0.0
C782 C 0.36262 0.02255 0.48332 0.0
H783 H 0.27981 0.03374 0.25275 0.0
H784 H 0.29468 0.03269 0.37307 0.0
H785 H 0.3514 0.06556 0.40902 0.0
H786 H 0.4257 0.0167 0.56535 0.0
H787 H 0.39471 0.03324 0.56387 0.0
C788 C 0.47026 0.29859 0.22374 0.0
C789 C 0.48867 0.29815 0.19273 0.0
C790 C 0.46708 0.30858 0.28975 0.0
C791 C 0.46396 0.34682 0.3702 0.0
H792 H 0.50368 0.35769 0.51377 0.0
C793 C 0.47233 0.4228 0.47406 0.0
C794 C 0.49078 0.42929 0.45534 0.0
C795 C 0.46876 0.40318 0.48194 0.0
C796 C 0.49226 0.35471 0.47492 0.0
H797 H 0.5184 0.30616 0.20787 0.0
H798 H 0.51304 0.32353 0.32244 0.0
H799 H 0.50314 0.32658 0.45005 0.0
H800 H 0.52036 0.42042 0.43865 0.0
H801 H 0.51421 0.38655 0.45231 0.0
H802 H 0.45401 0.37536 0.39002 0.0
C803 C 0.501 0.31614 0.29722 0.0
C804 C 0.49195 0.33691 0.43845 0.0
C805 C 0.50411 0.30632 0.23126 0.0
C806 C 0.50596 0.416 0.45295 0.0
C807 C 0.50242 0.39645 0.46116 0.0
C808 C 0.46427 0.36458 0.40656 0.0
C809 C 0.48231 0.31819 0.32551 0.0
C810 C 0.47859 0.33331 0.38206 0.0
C811 C 0.4836 0.38972 0.47155 0.0
C812 C 0.47924 0.3692 0.45549 0.0
H813 H 0.45816 0.29241 0.19444 0.0
H814 H 0.45255 0.30981 0.31039 0.0
H815 H 0.45346 0.3446 0.32713 0.0
H816 H 0.46043 0.43276 0.47871 0.0
H817 H 0.45417 0.39847 0.49141 0.0
C818 C 0.22461 0.47525 0.22636 0.0
C819 C 0.23802 0.48981 0.21304 0.0
C820 C 0.21536 0.47433 0.29387 0.0
C821 C 0.19678 0.50896 0.4204 0.0
H822 H 0.17301 0.4641 0.50387 0.0
C823 C 0.12 0.51576 0.49613 0.0
C824 C 0.10924 0.50128 0.46044 0.0
C825 C 0.13928 0.51267 0.5139 0.0
C826 C 0.17951 0.47684 0.48158 0.0
H827 H 0.2536 0.51372 0.26151 0.0
H828 H 0.23713 0.51234 0.37961 0.0
H829 H 0.20334 0.46082 0.43799 0.0
H830 H 0.10934 0.47109 0.42922 0.0
H831 H 0.143 0.46625 0.45338 0.0
H832 H 0.17234 0.52473 0.45571 0.0
C833 C 0.23385 0.5016 0.33793 0.0
C834 C 0.19698 0.47495 0.44433 0.0
C835 C 0.24328 0.50237 0.2705 0.0
C836 C 0.11745 0.48292 0.45279 0.0
C837 C 0.13684 0.48001 0.46847 0.0
C838 C 0.17922 0.5108 0.45635 0.0
C839 C 0.21917 0.48811 0.34908 0.0
C840 C 0.20511 0.4908 0.40935 0.0
C841 C 0.14839 0.49531 0.494 0.0
C842 C 0.16963 0.49451 0.48273 0.0
H843 H 0.22046 0.46528 0.18305 0.0
H844 H 0.204 0.46388 0.30032 0.0
H845 H 0.20265 0.52149 0.39414 0.0
H846 H 0.11418 0.53002 0.50483 0.0
H847 H 0.14743 0.52453 0.53707 0.0
C848 C 0.99039 0.80289 0.94538 0.0
C849 C 0.9781 0.80444 0.00591 0.0
C850 C 0.98706 0.81392 0.88342 0.0
C851 C 0.97912 0.84078 0.75812 0.0
H852 H 0.97108 0.89137 0.84335 0.0
C853 C 0.02567 0.90431 0.6946 0.0
C854 C 0.02067 0.92241 0.72405 0.0
C855 C 0.01243 0.88925 0.69419 0.0
C856 C 0.97281 0.8775 0.81663 0.0
H857 H 0.95143 0.81652 0.04611 0.0
H858 H 0.94512 0.83521 0.9368 0.0
H859 H 0.9617 0.86374 0.91029 0.0
H860 H 0.99651 0.93983 0.76103 0.0
H861 H 0.97326 0.91412 0.75479 0.0
H862 H 0.99136 0.85485 0.66586 0.0
C863 C 0.95768 0.82605 0.93777 0.0
C864 C 0.96737 0.86142 0.85574 0.0
C865 C 0.9612 0.81528 1.00018 0.0
C866 C 1.00121 0.92602 0.73985 0.0
C867 C 0.98782 0.9111 0.73725 0.0
C868 C 0.98449 0.85697 0.71848 0.0
C869 C 0.97128 0.82655 0.88088 0.0
C870 C 0.97149 0.84284 0.82907 0.0
C871 C 0.99372 0.89215 0.7214 0.0
C872 C 0.98251 0.87553 0.74938 0.0
H873 H 1.00355 0.79464 0.94876 0.0
H874 H 0.99791 0.81392 0.84104 0.0
H875 H 0.98207 0.82665 0.73515 0.0
H876 H 0.04028 0.90125 0.6778 0.0
H877 H 0.01758 0.87504 0.67965 0.0
C878 C 0.73993 0.9935 0.97091 0.0
C879 C 0.73111 0.98442 0.03018 0.0
C880 C 0.73127 0.99315 0.90182 0.0
C881 C 0.68778 0.97489 0.79944 0.0
H882 H 0.68367 0.02836 0.74662 0.0
C883 C 0.61816 0.01384 0.76215 0.0
C884 C 0.61707 0.03064 0.72078 0.0
C885 C 0.63482 1.00274 0.76191 0.0
C886 C 0.68492 0.01322 0.75838 0.0
H887 H 0.70768 0.9658 0.06127 0.0
H888 H 0.69217 0.96586 0.94264 0.0
H889 H 0.71036 0.01807 0.82053 0.0
H890 H 0.63172 0.04739 0.63879 0.0
H891 H 0.66121 0.02833 0.64067 0.0
H892 H 0.66113 0.97064 0.74261 0.0
C893 C 0.70582 0.97315 0.94842 0.0
C894 C 0.70035 1.00725 0.80113 0.0
C895 C 0.71456 0.97336 0.01713 0.0
C896 C 0.63234 0.03493 0.67336 0.0
C897 C 0.64916 0.02393 0.67383 0.0
C898 C 0.67222 0.98092 0.7571 0.0
C899 C 0.71352 0.98388 0.89084 0.0
C900 C 0.70127 0.98829 0.82632 0.0
C901 C 0.65089 1.00828 0.72093 0.0
C902 C 0.67002 1.00042 0.74031 0.0
H903 H 0.75277 1.00205 0.97898 0.0
H904 H 0.73784 1.00121 0.85831 0.0
H905 H 0.68837 0.96004 0.81587 0.0
H906 H 0.6068 1.01005 0.79963 0.0
H907 H 0.63569 0.9909 0.79942 0.0
C908 C 0.56808 0.72931 0.01291 0.0
C909 C 0.55409 0.74296 0.03234 0.0
C910 C 0.56748 0.72013 0.94453 0.0
C911 C 0.53019 0.7021 0.83015 0.0
H912 H 0.57266 0.67849 0.72558 0.0
C913 C 0.52098 0.62582 0.7407 0.0
C914 C 0.53621 0.61443 0.76622 0.0
C915 C 0.52372 0.64537 0.72809 0.0
C916 C 0.56057 0.68492 0.75395 0.0
H917 H 0.52955 0.75903 0.99388 0.0
H918 H 0.52822 0.74264 0.87432 0.0
H919 H 0.57769 0.70846 0.79394 0.0
H920 H 0.56699 0.61401 0.78486 0.0
H921 H 0.57141 0.64801 0.76971 0.0
H922 H 0.51352 0.67791 0.7983 0.0
C923 C 0.53973 0.73916 0.91177 0.0
C924 C 0.56346 0.70221 0.79254 0.0
C925 C 0.5405 0.74853 0.97999 0.0
C926 C 0.55469 0.62252 0.76916 0.0
C927 C 0.55731 0.64213 0.75864 0.0
C928 C 0.5274 0.68471 0.79291 0.0
C929 C 0.55269 0.72426 0.89472 0.0
C930 C 0.54855 0.71032 0.83458 0.0
C931 C 0.54157 0.65409 0.74299 0.0
C932 C 0.54289 0.67519 0.75845 0.0
H933 H 0.57877 0.72489 0.05234 0.0
H934 H 0.57756 0.7086 0.93344 0.0
H935 H 0.5184 0.70795 0.8621 0.0
H936 H 0.50656 0.62017 0.73607 0.0
H937 H 0.51141 0.65389 0.71255 0.0
C938 C 0.80839 0.56629 0.98213 0.0
C939 C 0.79521 0.55149 0.9949 0.0
C940 C 0.81771 0.56746 0.91484 0.0
C941 C 0.83678 0.53314 0.78763 0.0
H942 H 0.86077 0.57836 0.70777 0.0
C943 C 0.91376 0.52669 0.71418 0.0
C944 C 0.9244 0.54095 0.75167 0.0
C945 C 0.89453 0.52988 0.69591 0.0
C946 C 0.8542 0.56552 0.72899 0.0
H947 H 0.78002 0.52744 0.94545 0.0
H948 H 0.79655 0.52932 0.82769 0.0
H949 H 0.83022 0.58135 0.77232 0.0
H950 H 0.92419 0.57092 0.78588 0.0
H951 H 0.8906 0.57592 0.76054 0.0
H952 H 0.86134 0.51754 0.75241 0.0
C953 C 0.79964 0.54003 0.8697 0.0
C954 C 0.83661 0.56725 0.76553 0.0
C955 C 0.79017 0.53898 0.93697 0.0
C956 C 0.91615 0.55925 0.76076 0.0
C957 C 0.89682 0.56226 0.74444 0.0
C958 C 0.85444 0.53146 0.75229 0.0
C959 C 0.81418 0.55371 0.85922 0.0
C960 C 0.8284 0.55126 0.79934 0.0
C961 C 0.88536 0.54712 0.71694 0.0
C962 C 0.86409 0.54786 0.72726 0.0
H963 H 0.81235 0.57624 0.02575 0.0
H964 H 0.82893 0.57808 0.90893 0.0
H965 H 0.83087 0.52051 0.81295 0.0
H966 H 0.91962 0.51249 0.70444 0.0
H967 H 0.88643 0.51817 0.67136 0.0
C968 C 0.01407 0.21364 0.93594 0.0
C969 C 0.03278 0.22006 0.95186 0.0
C970 C 1.01103 0.19609 0.89813 0.0
C971 C 0.0349 0.1587 0.77985 0.0
H972 H 0.997 0.12455 0.86133 0.0
C973 C 0.02764 0.07886 0.67701 0.0
C974 C 1.00992 0.06948 0.6851 0.0
C975 C 0.0305 0.09751 0.7061 0.0
C976 C 1.0074 0.13389 0.83624 0.0
H977 H 0.06292 0.21334 0.93802 0.0
H978 H 0.0577 0.18318 0.87085 0.0
H979 H 1.00105 0.15657 0.91342 0.0
H980 H 0.98075 0.07316 0.72315 0.0
H981 H 0.98528 0.10558 0.77077 0.0
H982 H 0.04132 0.13621 0.70264 0.0
C983 C 0.04531 0.19157 0.88754 0.0
C984 C 1.00976 0.1524 0.86674 0.0
C985 C 0.04832 0.20891 0.92614 0.0
C986 C 0.9948 0.07969 0.71847 0.0
C987 C 0.99753 0.09837 0.74651 0.0
C988 C 0.03241 0.14023 0.74879 0.0
C989 C 0.02662 0.18462 0.87433 0.0
C990 C 0.02356 0.16513 0.83918 0.0
C991 C 0.01554 0.10758 0.74244 0.0
C992 C 0.01852 0.12743 0.77603 0.0
H993 H 1.00179 0.22172 0.95576 0.0
H994 H 0.99642 0.19135 0.88846 0.0
H995 H 0.04563 0.16805 0.75672 0.0
H996 H 0.03937 0.07168 0.64895 0.0
H997 H 0.04464 0.10377 0.70124 0.0
C998 C 0.32593 0.04795 0.89852 0.0
C999 C 0.31922 0.03309 0.94274 0.0
C1000 C 0.34286 0.04568 0.85753 0.0
C1001 C 0.37768 1.00939 0.7851 0.0
H1002 H 0.4146 0.05092 0.8003 0.0
C1003 C 0.45778 0.99832 0.71219 0.0
C1004 C 0.46797 0.01331 0.67961 0.0
C1005 C 0.43901 1.00113 0.73767 0.0
C1006 C 0.40439 0.03928 0.79432 0.0
H1007 H 0.32476 1.00416 0.97813 0.0
H1008 H 0.354 0.99991 0.9053 0.0
H1009 H 0.38265 0.05489 0.85343 0.0
H1010 H 0.46598 0.04268 0.64363 0.0
H1011 H 0.4332 0.04779 0.68893 0.0
H1012 H 0.39936 0.99376 0.72604 0.0
C1013 C 0.34618 0.0133 0.90159 0.0
C1014 C 0.38601 0.04155 0.82493 0.0
C1015 C 0.32939 0.01567 0.94317 0.0
C1016 C 0.4587 0.03104 0.67069 0.0
C1017 C 0.4399 0.03393 0.69661 0.0
C1018 C 0.39599 1.00715 0.75406 0.0
C1019 C 0.35344 0.02843 0.85955 0.0
C1020 C 0.37248 0.02654 0.82172 0.0
C1021 C 0.42976 0.019 0.7306 0.0
C1022 C 0.40975 0.02194 0.75924 0.0
H1023 H 0.31857 0.06166 0.89844 0.0
H1024 H 0.3479 0.05758 0.82539 0.0
H1025 H 0.36757 0.99762 0.78048 0.0
H1026 H 0.46445 0.9844 0.71879 0.0
H1027 H 0.43186 0.98933 0.76413 0.0
C1028 C 0.51308 0.33368 0.95977 0.0
C1029 C 0.50245 0.31737 0.93785 0.0
C1030 C 0.51355 0.35008 0.91673 0.0
C1031 C 0.5076 0.37014 0.73498 0.0
H1032 H 0.49176 0.41615 0.84138 0.0
C1033 C 0.52135 0.44931 0.64574 0.0
C1034 C 0.50608 0.46244 0.65461 0.0
C1035 C 0.51959 0.43029 0.66886 0.0
C1036 C 0.49608 0.40343 0.81069 0.0
H1037 H 0.48516 0.30522 0.84992 0.0
H1038 H 0.48657 0.33385 0.77319 0.0
H1039 H 0.49241 0.38536 0.90334 0.0
H1040 H 0.47634 0.46504 0.68835 0.0
H1041 H 0.47368 0.43225 0.73242 0.0
H1042 H 0.51189 0.38853 0.64281 0.0
C1043 C 0.49424 0.33388 0.82478 0.0
C1044 C 0.49658 0.38582 0.84632 0.0
C1045 C 0.49352 0.31745 0.8686 0.0
C1046 C 0.48866 0.45567 0.68333 0.0
C1047 C 0.48705 0.43678 0.70792 0.0
C1048 C 0.50749 0.38793 0.69955 0.0
C1049 C 0.50373 0.35059 0.84967 0.0
C1050 C 0.50248 0.36898 0.80923 0.0
C1051 C 0.50263 0.42398 0.70237 0.0
C1052 C 0.50178 0.40478 0.73725 0.0
H1053 H 0.5206 0.33404 0.01167 0.0
H1054 H 0.5213 0.36259 0.93674 0.0
H1055 H 0.51221 0.35741 0.70502 0.0
H1056 H 0.53489 0.45381 0.62268 0.0
H1057 H 0.53184 0.42077 0.6637 0.0
C1058 C 0.20746 0.48674 0.94363 0.0
C1059 C 0.22043 0.50202 0.95417 0.0
C1060 C 0.19152 0.48856 0.89737 0.0
C1061 C 0.15856 0.52486 0.82441 0.0
H1062 H 0.14055 0.48292 0.7003 0.0
C1063 C 0.08712 0.53094 0.66203 0.0
C1064 C 0.07524 0.5146 0.65894 0.0
C1065 C 0.1061 0.52975 0.6877 0.0
C1066 C 0.1452 0.49473 0.73524 0.0
H1067 H 0.22698 0.53111 0.92296 0.0
H1068 H 0.19891 0.53442 0.84231 0.0
H1069 H 0.17133 0.48023 0.76339 0.0
H1070 H 0.07469 0.4839 0.67631 0.0
H1071 H 0.10731 0.48192 0.72339 0.0
H1072 H 0.1322 0.53911 0.79879 0.0
C1073 C 0.20115 0.52097 0.86992 0.0
C1074 C 0.16296 0.4932 0.77124 0.0
C1075 C 0.21733 0.51904 0.91554 0.0
C1076 C 0.08318 0.4969 0.67941 0.0
C1077 C 0.10211 0.49572 0.70556 0.0
C1078 C 0.14071 0.52632 0.78902 0.0
C1079 C 0.18789 0.50581 0.8609 0.0
C1080 C 0.1698 0.50814 0.81714 0.0
C1081 C 0.11381 0.51219 0.71133 0.0
C1082 C 0.13358 0.51117 0.74463 0.0
H1083 H 0.20942 0.47345 0.97268 0.0
H1084 H 0.18159 0.47664 0.89252 0.0
H1085 H 0.1632 0.53656 0.85991 0.0
H1086 H 0.08171 0.54479 0.64571 0.0
H1087 H 0.11469 0.54269 0.68933 0.0
C1088 C 0.01712 0.82885 0.28147 0.0
C1089 C 0.99885 0.82325 0.25623 0.0
C1090 C 0.01946 0.84565 0.32475 0.0
C1091 C 0.99356 0.89175 0.37418 0.0
H1092 H 0.03544 0.89816 0.51204 0.0
C1093 C 1.00344 0.96136 0.55515 0.0
C1094 C 0.02212 0.96903 0.55575 0.0
C1095 C 0.99985 0.94299 0.52446 0.0
C1096 C 0.02368 0.89665 0.47352 0.0
H1097 H 0.96864 0.83046 0.25986 0.0
H1098 H 0.97246 0.85897 0.33736 0.0
H1099 H 0.03077 0.86724 0.44979 0.0
H1100 H 0.0518 0.96283 0.52938 0.0
H1101 H 0.04564 0.93101 0.47672 0.0
H1102 H 0.98642 0.92115 0.39892 0.0
C1103 C 0.98521 0.85097 0.32201 0.0
C1104 C 0.02103 0.87885 0.43731 0.0
C1105 C 0.98294 0.83439 0.27814 0.0
C1106 C 0.03718 0.95752 0.52839 0.0
C1107 C 0.03366 0.93918 0.49865 0.0
C1108 C 0.99609 0.90945 0.41105 0.0
C1109 C 1.00355 0.85725 0.34468 0.0
C1110 C 1.00603 0.87609 0.38625 0.0
C1111 C 0.01494 0.93165 0.49552 0.0
C1112 C 1.01134 0.91228 0.46055 0.0
H1113 H 0.02971 0.82076 0.26478 0.0
H1114 H 0.03388 0.8499 0.33999 0.0
H1115 H 0.98204 0.89059 0.33458 0.0
H1116 H 0.99163 0.96956 0.57823 0.0
H1117 H 0.98527 0.9376 0.52394 0.0
C1118 C 0.7031 0.98736 0.3135 0.0
C1119 C 0.71405 1.00256 0.28602 0.0
C1120 C 0.68646 0.99096 0.35481 0.0
C1121 C 0.64833 0.0271 0.37579 0.0
H1122 H 0.63358 0.99859 0.5471 0.0
C1123 C 0.57785 0.04509 0.52806 0.0
C1124 C 0.56719 0.03012 0.55853 0.0
C1125 C 0.59637 0.04186 0.50072 0.0
C1126 C 0.63729 1.00654 0.49876 0.0
H1127 H 0.7163 0.03345 0.28057 0.0
H1128 H 0.68714 0.03985 0.35252 0.0
H1129 H 0.66495 0.99295 0.49088 0.0
H1130 H 0.56827 1.00034 0.59002 0.0
H1131 H 0.60028 0.99431 0.53924 0.0
H1132 H 0.62063 0.04022 0.38134 0.0
C1133 C 0.69149 0.0251 0.34264 0.0
C1134 C 0.65539 1.00336 0.46672 0.0
C1135 C 0.70829 0.02148 0.30215 0.0
C1136 C 0.57587 0.01199 0.56432 0.0
C1137 C 0.5944 1.00866 0.53624 0.0
C1138 C 0.6302 0.03013 0.40719 0.0
C1139 C 0.68014 1.00988 0.36842 0.0
C1140 C 0.66119 0.01364 0.40484 0.0
C1141 C 0.60487 0.0235 0.50292 0.0
C1142 C 0.62435 0.01999 0.4695 0.0
H1143 H 0.70705 0.97264 0.30068 0.0
H1144 H 0.67803 0.97889 0.37302 0.0
H1145 H 0.65209 0.035 0.32731 0.0
H1146 H 0.57178 0.05938 0.52498 0.0
H1147 H 0.60404 0.05389 0.47821 0.0
C1148 C 0.52842 0.7213 0.33054 0.0
C1149 C 0.5454 0.72483 0.29154 0.0
C1150 C 0.52661 0.70467 0.37271 0.0
C1151 C 0.5481 0.65573 0.38586 0.0
H1152 H 0.51742 0.65214 0.56187 0.0
C1153 C 0.54501 0.5854 0.54616 0.0
C1154 C 0.52664 0.57885 0.56564 0.0
C1155 C 0.54773 0.60416 0.52193 0.0
C1156 C 0.52599 0.65291 0.51261 0.0
H1157 H 0.57412 0.71444 0.26953 0.0
H1158 H 0.57137 0.68608 0.34482 0.0
H1159 H 0.52151 0.68329 0.50355 0.0
H1160 H 0.49693 0.58757 0.57967 0.0
H1161 H 0.50174 0.62036 0.53786 0.0
H1162 H 0.55259 0.62548 0.39461 0.0
C1163 C 0.55913 0.69561 0.34129 0.0
C1164 C 0.5283 0.67078 0.47895 0.0
C1165 C 0.56083 0.71201 0.29868 0.0
C1166 C 0.51126 0.59198 0.56437 0.0
C1167 C 0.51402 0.61086 0.54069 0.0
C1168 C 0.54592 0.638 0.41968 0.0
C1169 C 0.5418 0.69131 0.37714 0.0
C1170 C 0.53942 0.67246 0.41494 0.0
C1171 C 0.53221 0.61703 0.51722 0.0
C1172 C 0.53483 0.63629 0.48344 0.0
H1173 H 0.51624 0.73087 0.32542 0.0
H1174 H 0.51299 0.7019 0.39902 0.0
H1175 H 0.55632 0.65618 0.3357 0.0
H1176 H 0.55732 0.57592 0.54834 0.0
H1177 H 0.56203 0.60853 0.50591 0.0
C1178 C 0.82602 0.55445 0.2638 0.0
C1179 C 0.81318 0.53905 0.25338 0.0
C1180 C 0.84196 0.55282 0.31015 0.0
C1181 C 0.87512 0.51683 0.38436 0.0
H1182 H 0.89288 0.55915 0.50703 0.0
C1183 C 0.94638 0.51143 0.54815 0.0
C1184 C 0.95825 0.52779 0.55049 0.0
C1185 C 0.92743 0.5125 0.52217 0.0
C1186 C 0.8883 0.54723 0.47251 0.0
H1187 H 0.80689 0.50994 0.28508 0.0
H1188 H 0.83494 0.50696 0.36594 0.0
H1189 H 0.86213 0.56155 0.44359 0.0
H1190 H 0.95877 0.55841 0.53144 0.0
H1191 H 0.92618 0.56018 0.48389 0.0
H1192 H 0.90151 0.50274 0.41086 0.0
C1193 C 0.83259 0.52036 0.33808 0.0
C1194 C 0.87056 0.54859 0.43629 0.0
C1195 C 0.81642 0.5221 0.29232 0.0
C1196 C 0.9503 0.5454 0.52895 0.0
C1197 C 0.9314 0.54645 0.50252 0.0
C1198 C 0.89295 0.51553 0.42002 0.0
C1199 C 0.84573 0.53564 0.34693 0.0
C1200 C 0.86381 0.53351 0.39089 0.0
C1201 C 0.91972 0.52995 0.4975 0.0
C1202 C 0.89999 0.53082 0.4639 0.0
H1203 H 0.82393 0.56771 0.23464 0.0
H1204 H 0.85178 0.56483 0.31487 0.0
H1205 H 0.87056 0.50501 0.34926 0.0
H1206 H 0.9518 0.49765 0.56528 0.0
H1207 H 0.91885 0.49954 0.52112 0.0
loop_
_geom_bond_atom_site_label_1
_geom_bond_atom_site_label_2
_geom_bond_distance
_geom_bond_site_symmetry_2
_ccdc_geom_bond_type
H0 C1 0.949 . S
C1 H0 0.949 . S
C1 C2 1.395 . S
C1 C3 1.391 . S
C2 C1 1.395 . S
C2 C5 1.390 . S
C3 C1 1.391 . S
C3 C7 1.387 . S
C3 C8 1.491 . S
H4 C5 0.950 . S
C5 C2 1.390 . S
C5 H4 0.950 . S
C5 C6 1.378 . S
C6 C5 1.378 . S
C6 C7 1.409 . S
C7 C3 1.387 . S
C7 C6 1.409 . S
C7 H9 0.951 . S
C8 C3 1.491 . S
C8 C10 1.382 . S
C8 C12 1.404 . S
H9 C7 0.951 . S
C10 C8 1.382 . S
C10 C11 1.390 . S
C10 H15 0.949 . S
C11 C10 1.390 . S
C11 C16 1.399 . S
C12 C8 1.404 . S
C12 H13 0.950 . S
C12 C14 1.375 . S
H13 C12 0.950 . S
C14 C12 1.375 . S
C14 C16 1.382 . S
C14 H18 0.950 . S
H15 C10 0.949 . S
C16 C11 1.399 . S
C16 C14 1.382 . S
C16 H17 0.952 . S
H17 C16 0.952 . S
H18 C14 0.950 . S
H19 C20 0.949 . S
C20 H19 0.949 . S
C20 C21 1.395 . S
C20 C22 1.391 . S
C21 C20 1.395 . S
C21 C24 1.390 . S
C22 C20 1.391 . S
C22 C26 1.387 . S
C22 C27 1.491 . S
H23 C24 0.950 . S
C24 C21 1.390 . S
C24 H23 0.950 . S
C24 C25 1.378 . S
C25 C24 1.378 . S
C25 C26 1.409 . S
C26 C22 1.387 . S
C26 C25 1.409 . S
C26 H28 0.951 . S
C27 C22 1.491 . S
C27 C29 1.382 . S
C27 C31 1.404 . S
H28 C26 0.951 . S
C29 C27 1.382 . S
C29 C30 1.390 . S
C29 H34 0.949 . S
C30 C29 1.390 . S
C30 C35 1.399 . S
C31 C27 1.404 . S
C31 H32 0.950 . S
C31 C33 1.375 . S
H32 C31 0.950 . S
C33 C31 1.375 . S
C33 C35 1.382 . S
C33 H37 0.950 . S
H34 C29 0.949 . S
C35 C30 1.399 . S
C35 C33 1.382 . S
C35 H36 0.952 . S
H36 C35 0.952 . S
H37 C33 0.950 . S
H38 C39 0.949 . S
C39 H38 0.949 . S
C39 C40 1.395 . S
C39 C41 1.391 . S
C40 C39 1.395 . S
C40 C43 1.390 . S
C41 C39 1.391 . S
C41 C45 1.387 . S
C41 C46 1.491 . S
H42 C43 0.950 . S
C43 C40 1.390 . S
C43 H42 0.950 . S
C43 C44 1.378 . S
C44 C43 1.378 . S
C44 C45 1.409 . S
C45 C41 1.387 . S
C45 C44 1.409 . S
C45 H47 0.951 . S
C46 C41 1.491 . S
C46 C48 1.382 . S
C46 C50 1.404 . S
H47 C45 0.951 . S
C48 C46 1.382 . S
C48 C49 1.390 . S
C48 H53 0.949 . S
C49 C48 1.390 . S
C49 C54 1.399 . S
C50 C46 1.404 . S
C50 H51 0.950 . S
C50 C52 1.375 . S
H51 C50 0.950 . S
C52 C50 1.375 . S
C52 C54 1.382 . S
C52 H56 0.950 . S
H53 C48 0.949 . S
C54 C49 1.399 . S
C54 C52 1.382 . S
C54 H55 0.952 . S
H55 C54 0.952 . S
H56 C52 0.950 . S
H57 C58 0.949 . S
C58 H57 0.949 . S
C58 C59 1.395 . S
C58 C60 1.391 . S
C59 C58 1.395 . S
C59 C62 1.390 . S
C60 C58 1.391 . S
C60 C64 1.387 . S
C60 C65 1.491 . S
H61 C62 0.950 . S
C62 C59 1.390 . S
C62 H61 0.950 . S
C62 C63 1.378 . S
C63 C62 1.378 . S
C63 C64 1.409 . S
C64 C60 1.387 . S
C64 C63 1.409 . S
C64 H66 0.951 . S
C65 C60 1.491 . S
C65 C67 1.382 . S
C65 C69 1.404 . S
H66 C64 0.951 . S
C67 C65 1.382 . S
C67 C68 1.390 . S
C67 H72 0.949 . S
C68 C67 1.390 . S
C68 C73 1.399 . S
C69 C65 1.404 . S
C69 H70 0.950 . S
C69 C71 1.375 . S
H70 C69 0.950 . S
C71 C69 1.375 . S
C71 C73 1.382 . S
C71 H75 0.950 . S
H72 C67 0.949 . S
C73 C68 1.399 . S
C73 C71 1.382 . S
C73 H74 0.952 . S
H74 C73 0.952 . S
H75 C71 0.950 . S
H76 C77 0.949 . S
C77 H76 0.949 . S
C77 C78 1.395 . S
C77 C79 1.391 1_554 S
C78 C77 1.395 . S
C78 C81 1.390 1_554 S
C79 C77 1.391 1_556 S
C79 C83 1.387 . S
C79 C84 1.491 . S
H80 C81 0.950 . S
C81 C78 1.390 1_556 S
C81 H80 0.950 . S
C81 C82 1.378 . S
C82 C81 1.378 . S
C82 C83 1.409 . S
C83 C79 1.387 . S
C83 C82 1.409 . S
C83 H85 0.951 . S
C84 C79 1.491 . S
C84 C86 1.382 1_556 S
C84 C88 1.404 . S
H85 C83 0.951 . S
C86 C84 1.382 1_554 S
C86 C87 1.390 . S
C86 H91 0.949 . S
C87 C86 1.390 . S
C87 C92 1.399 1_554 S
C88 C84 1.404 . S
C88 H89 0.950 . S
C88 C90 1.375 . S
H89 C88 0.950 . S
C90 C88 1.375 . S
C90 C92 1.382 . S
C90 H94 0.950 . S
H91 C86 0.949 . S
C92 C87 1.399 1_556 S
C92 C90 1.382 . S
C92 H93 0.952 1_556 S
H93 C92 0.952 1_554 S
H94 C90 0.950 . S
H95 C96 0.949 . S
C96 H95 0.949 . S
C96 C97 1.395 . S
C96 C98 1.391 1_554 S
C97 C96 1.395 . S
C97 C100 1.390 1_554 S
C98 C96 1.391 1_556 S
C98 C102 1.387 . S
C98 C103 1.491 . S
H99 C100 0.950 . S
C100 C97 1.390 1_556 S
C100 H99 0.950 . S
C100 C101 1.378 . S
C101 C100 1.378 . S
C101 C102 1.409 . S
C102 C98 1.387 . S
C102 C101 1.409 . S
C102 H104 0.951 . S
C103 C98 1.491 . S
C103 C105 1.382 1_556 S
C103 C107 1.404 . S
H104 C102 0.951 . S
C105 C103 1.382 1_554 S
C105 C106 1.390 . S
C105 H110 0.949 . S
C106 C105 1.390 . S
C106 C111 1.399 1_554 S
C107 C103 1.404 . S
C107 H108 0.950 . S
C107 C109 1.375 . S
H108 C107 0.950 . S
C109 C107 1.375 . S
C109 C111 1.382 . S
C109 H113 0.950 . S
H110 C105 0.949 . S
C111 C106 1.399 1_556 S
C111 C109 1.382 . S
C111 H112 0.952 . S
H112 C111 0.952 . S
H113 C109 0.950 . S
H114 C115 0.949 . S
C115 H114 0.949 . S
C115 C116 1.395 . S
C115 C117 1.391 1_554 S
C116 C115 1.395 . S
C116 C119 1.390 1_554 S
C117 C115 1.391 1_556 S
C117 C121 1.387 . S
C117 C122 1.491 . S
H118 C119 0.950 . S
C119 C116 1.390 1_556 S
C119 H118 0.950 . S
C119 C120 1.378 . S
C120 C119 1.378 . S
C120 C121 1.409 . S
C121 C117 1.387 . S
C121 C120 1.409 . S
C121 H123 0.951 . S
C122 C117 1.491 . S
C122 C124 1.382 1_556 S
C122 C126 1.404 . S
H123 C121 0.951 . S
C124 C122 1.382 1_554 S
C124 C125 1.390 . S
C124 H129 0.949 . S
C125 C124 1.390 . S
C125 C130 1.399 1_554 S
C126 C122 1.404 . S
C126 H127 0.950 . S
C126 C128 1.375 . S
H127 C126 0.950 . S
C128 C126 1.375 . S
C128 C130 1.382 . S
C128 H132 0.950 . S
H129 C124 0.949 . S
C130 C125 1.399 1_556 S
C130 C128 1.382 . S
C130 H131 0.952 . S
H131 C130 0.952 . S
H132 C128 0.950 . S
H133 C134 0.949 . S
C134 H133 0.949 . S
C134 C135 1.395 . S
C134 C136 1.391 1_554 S
C135 C134 1.395 . S
C135 C138 1.390 1_554 S
C136 C134 1.391 1_556 S
C136 C140 1.387 . S
C136 C141 1.491 . S
H137 C138 0.950 . S
C138 C135 1.390 1_556 S
C138 H137 0.950 . S
C138 C139 1.378 . S
C139 C138 1.378 . S
C139 C140 1.409 . S
C140 C136 1.387 . S
C140 C139 1.409 . S
C140 H142 0.951 . S
C141 C136 1.491 . S
C141 C143 1.382 1_556 S
C141 C145 1.404 . S
H142 C140 0.951 . S
C143 C141 1.382 1_554 S
C143 C144 1.390 . S
C143 H148 0.949 . S
C144 C143 1.390 . S
C144 C149 1.389 1_554 S
C145 C141 1.404 . S
C145 H146 0.950 . S
C145 C147 1.375 . S
H146 C145 0.950 . S
C147 C145 1.375 . S
C147 C149 1.394 . S
C147 H151 0.950 . S
H148 C143 0.949 . S
C149 C144 1.389 1_556 S
C149 C147 1.394 . S
C149 H150 0.951 1_556 S
H150 C149 0.951 1_554 S
H151 C147 0.950 . S
Gd152 N183 2.661 . S
Gd152 N189 2.601 . S
Gd152 O196 2.545 . S
Gd152 O197 2.606 1_655 S
Gd152 O199 2.429 . S
Gd152 O200 2.545 1_655 S
Gd152 O201 2.412 1_655 S
Gd152 O203 2.362 1_545 S
Gd152 O204 2.324 1_655 S
Gd152 C211 2.828 . S
Gd153 N162 2.661 1_565 S
Gd153 N166 2.601 1_565 S
Gd153 O197 2.362 1_565 S
Gd153 O198 2.323 1_465 S
Gd153 O202 2.545 . S
Gd153 O203 2.606 1_455 S
Gd153 O205 2.428 . S
Gd153 O206 2.545 . S
Gd153 O207 2.412 . S
Gd153 C220 2.828 . S
C154 C157 1.417 . S
C154 C159 1.431 . S
C154 C160 1.412 . S
C155 C158 1.437 . S
C155 C159 1.317 . S
C155 H174 0.929 . S
C156 C157 1.426 . S
C156 C158 1.413 . S
C156 N166 1.359 . S
C157 C154 1.417 . S
C157 C156 1.426 . S
C157 N162 1.350 . S
C158 C155 1.437 . S
C158 C156 1.413 . S
C158 C168 1.391 . S
C159 C154 1.431 . S
C159 C155 1.317 . S
C159 H170 0.930 . S
C160 C154 1.412 . S
C160 C161 1.374 . S
C160 H172 0.930 . S
C161 C160 1.374 . S
C161 C163 1.404 . S
C161 H173 0.910 1_455 S
N162 Gd153 2.661 1_545 S
N162 C157 1.350 . S
N162 C163 1.307 . S
C163 C161 1.404 . S
C163 N162 1.307 . S
C163 H164 0.930 1_455 S
H164 C163 0.930 1_655 S
C165 N166 1.334 1_565 S
C165 C167 1.394 . S
C165 H169 0.930 . S
N166 Gd153 2.601 1_545 S
N166 C156 1.359 . S
N166 C165 1.334 1_545 S
C167 C165 1.394 . S
C167 C168 1.359 1_565 S
C167 H179 0.930 . S
C168 C158 1.391 . S
C168 C167 1.359 1_545 S
C168 H180 0.929 . S
H169 C165 0.930 . S
H170 C159 0.930 . S
H171 C188 0.930 . S
H172 C160 0.930 . S
H173 C161 0.910 1_655 S
H174 C155 0.929 . S
H175 C193 0.930 . S
H176 C184 0.930 . S
H177 C185 0.930 . S
H178 C209 0.929 . S
H179 C167 0.930 . S
H180 C168 0.929 . S
H181 C210 0.930 . S
H182 C191 0.930 . S
N183 Gd152 2.661 . S
N183 C187 1.350 . S
N183 C188 1.307 1_645 S
C184 H176 0.930 . S
C184 C185 1.355 1_655 S
C184 C186 1.412 . S
C185 H177 0.930 . S
C185 C184 1.355 1_455 S
C185 C188 1.402 . S
C186 C184 1.412 . S
C186 C187 1.417 1_565 S
C186 C210 1.431 . S
C187 N183 1.350 . S
C187 C186 1.417 1_545 S
C187 C190 1.426 . S
C188 H171 0.930 . S
C188 N183 1.307 1_465 S
C188 C185 1.402 . S
N189 Gd152 2.601 . S
N189 C190 1.359 . S
N189 C193 1.334 . S
C190 C187 1.426 . S
C190 N189 1.359 . S
C190 C194 1.413 . S
C191 H182 0.930 . S
C191 C192 1.359 . S
C191 C193 1.394 . S
C192 C191 1.359 . S
C192 C194 1.391 . S
C192 H195 0.929 . S
C193 H175 0.930 . S
C193 N189 1.334 . S
C193 C191 1.394 . S
C194 C190 1.413 . S
C194 C192 1.391 . S
C194 C209 1.437 1_545 S
H195 C192 0.929 . S
O196 Gd152 2.545 . S
O196 C211 1.258 . S
O197 Gd152 2.606 1_455 S
O197 Gd153 2.362 1_545 S
O197 C208 1.284 . S
O198 Gd153 2.323 1_645 S
O198 C218 1.254 . S
O199 Gd152 2.429 . S
O199 C218 1.268 . S
O200 Gd152 2.545 1_455 S
O200 C208 1.250 . S
O201 Gd152 2.412 1_455 S
O201 C211 1.252 1_455 S
O202 Gd153 2.545 . S
O202 C220 1.258 . S
O203 Gd152 2.362 1_565 S
O203 Gd153 2.606 1_655 S
O203 C219 1.284 . S
O204 Gd152 2.324 1_455 S
O204 C227 1.254 . S
O205 Gd153 2.428 . S
O205 C227 1.271 1_565 S
O206 Gd153 2.545 . S
O206 C219 1.250 1_455 S
O207 Gd153 2.412 . S
O207 C220 1.252 . S
C208 O197 1.284 . S
C208 O200 1.250 . S
C209 H178 0.929 . S
C209 C194 1.437 1_565 S
C209 C210 1.317 . S
C210 H181 0.930 . S
C210 C186 1.431 . S
C210 C209 1.317 . S
C211 Gd152 2.828 . S
C211 O196 1.258 . S
C211 O201 1.252 1_655 S
C211 C212 1.497 . S
C212 C211 1.497 . S
C212 C213 1.395 . S
C212 C214 1.380 1_655 S
C213 C212 1.395 . S
C213 C216 1.398 . S
C213 H228 0.930 . S
C214 C212 1.380 1_455 S
C214 C215 1.391 . S
C214 H229 0.930 . S
C215 C214 1.391 . S
C215 C217 1.387 1_455 S
C216 C213 1.398 . S
C216 C217 1.380 . S
C216 H230 0.930 . S
C217 C215 1.387 1_655 S
C217 C216 1.380 . S
C217 H231 0.930 . S
C218 O198 1.254 . S
C218 O199 1.268 . S
C219 O203 1.284 . S
C219 O206 1.250 1_655 S
C220 Gd153 2.828 . S
C220 O202 1.258 . S
C220 O207 1.252 . S
C220 C221 1.497 . S
C221 C220 1.497 . S
C221 C222 1.395 . S
C221 C223 1.380 . S
C222 C221 1.395 . S
C222 C225 1.398 . S
C222 H232 0.930 . S
C223 C221 1.380 . S
C223 C224 1.391 . S
C223 H233 0.930 1_455 S
C224 C223 1.391 . S
C224 C226 1.387 . S
C225 C222 1.398 . S
C225 C226 1.380 . S
C225 H234 0.930 . S
C226 C224 1.387 . S
C226 C225 1.380 . S
C226 H235 0.930 . S
C227 O204 1.254 . S
C227 O205 1.271 1_545 S
H228 C213 0.930 . S
H229 C214 0.930 . S
H230 C216 0.930 . S
H231 C217 0.930 . S
H232 C222 0.930 . S
H233 C223 0.930 1_655 S
H234 C225 0.930 . S
H235 C226 0.930 . S
Gd236 N267 2.661 . S
Gd236 N273 2.601 . S
Gd236 O280 2.545 . S
Gd236 O281 2.606 1_565 S
Gd236 O283 2.429 . S
Gd236 O284 2.545 1_565 S
Gd236 O285 2.412 1_565 S
Gd236 O287 2.362 1_565 S
Gd236 O288 2.324 1_565 S
Gd236 C295 2.828 . S
Gd237 N246 2.661 . S
Gd237 N250 2.601 . S
Gd237 O281 2.362 . S
Gd237 O282 2.324 1_545 S
Gd237 O286 2.545 . S
Gd237 O287 2.606 . S
Gd237 O289 2.429 . S
Gd237 O290 2.545 . S
Gd237 O291 2.412 . S
Gd237 C304 2.828 . S
C238 C241 1.417 . S
C238 C243 1.431 . S
C238 C244 1.412 . S
C239 C242 1.437 . S
C239 C243 1.317 . S
C239 H258 0.929 . S
C240 C241 1.426 . S
C240 C242 1.413 . S
C240 N250 1.359 . S
C241 C238 1.417 . S
C241 C240 1.426 . S
C241 N246 1.350 . S
C242 C239 1.437 . S
C242 C240 1.413 . S
C242 C252 1.391 . S
C243 C238 1.431 . S
C243 C239 1.317 . S
C243 H254 0.930 . S
C244 C238 1.412 . S
C244 C245 1.355 . S
C244 H256 0.930 . S
C245 C244 1.355 . S
C245 C247 1.402 . S
C245 H257 0.930 1_545 S
N246 Gd237 2.661 . S
N246 C241 1.350 . S
N246 C247 1.307 . S
C247 C245 1.402 . S
C247 N246 1.307 . S
C247 H248 0.930 1_545 S
H248 C247 0.930 1_565 S
C249 N250 1.334 . S
C249 C251 1.394 . S
C249 H253 0.930 . S
N250 Gd237 2.601 . S
N250 C240 1.359 . S
N250 C249 1.334 . S
C251 C249 1.394 . S
C251 C252 1.359 . S
C251 H263 0.930 . S
C252 C242 1.391 . S
C252 C251 1.359 . S
C252 H264 0.929 . S
H253 C249 0.930 . S
H254 C243 0.930 . S
H255 C272 0.930 . S
H256 C244 0.930 . S
H257 C245 0.930 1_565 S
H258 C239 0.929 . S
H259 C277 0.930 . S
H260 C268 0.929 1_545 S
H261 C269 0.930 . S
H262 C293 0.929 . S
H263 C251 0.930 . S
H264 C252 0.929 . S
H265 C294 0.930 . S
H266 C275 0.930 . S
N267 Gd236 2.661 . S
N267 C271 1.350 . S
N267 C272 1.307 1_565 S
C268 H260 0.929 1_565 S
C268 C269 1.338 1_565 S
C268 C270 1.429 . S
C269 H261 0.930 . S
C269 C268 1.338 1_545 S
C269 C272 1.402 . S
C270 C268 1.429 . S
C270 C271 1.417 . S
C270 C294 1.431 . S
C271 N267 1.350 . S
C271 C270 1.417 . S
C271 C274 1.426 . S
C272 H255 0.930 . S
C272 N267 1.307 1_545 S
C272 C269 1.402 . S
N273 Gd236 2.601 . S
N273 C274 1.359 . S
N273 C277 1.334 . S
C274 C271 1.426 . S
C274 N273 1.359 . S
C274 C278 1.413 . S
C275 H266 0.930 . S
C275 C276 1.359 . S
C275 C277 1.394 . S
C276 C275 1.359 . S
C276 C278 1.391 . S
C276 H279 0.929 . S
C277 H259 0.930 . S
C277 N273 1.334 . S
C277 C275 1.394 . S
C278 C274 1.413 . S
C278 C276 1.391 . S
C278 C293 1.437 . S
H279 C276 0.929 . S
O280 Gd236 2.545 . S
O280 C295 1.258 . S
O281 Gd236 2.606 1_545 S
O281 Gd237 2.362 . S
O281 C292 1.284 . S
O282 Gd237 2.324 1_565 S
O282 C302 1.254 . S
O283 Gd236 2.429 . S
O283 C302 1.268 . S
O284 Gd236 2.545 1_545 S
O284 C292 1.250 . S
O285 Gd236 2.412 1_545 S
O285 C295 1.252 1_545 S
O286 Gd237 2.545 . S
O286 C304 1.258 . S
O287 Gd236 2.362 1_545 S
O287 Gd237 2.606 . S
O287 C303 1.284 . S
O288 Gd236 2.324 1_545 S
O288 C311 1.254 . S
O289 Gd237 2.429 . S
O289 C311 1.268 . S
O290 Gd237 2.545 . S
O290 C303 1.250 . S
O291 Gd237 2.412 . S
O291 C304 1.252 . S
C292 O281 1.284 . S
C292 O284 1.250 . S
C293 H262 0.929 . S
C293 C278 1.437 . S
C293 C294 1.317 . S
C294 H265 0.930 . S
C294 C270 1.431 . S
C294 C293 1.317 . S
C295 Gd236 2.828 . S
C295 O280 1.258 . S
C295 O285 1.252 1_565 S
C295 C296 1.497 . S
C296 C295 1.497 . S
C296 C297 1.395 . S
C296 C298 1.380 1_565 S
C297 C296 1.395 . S
C297 C300 1.398 . S
C297 H312 0.930 . S
C298 C296 1.380 1_545 S
C298 C299 1.391 . S
C298 H313 0.930 . S
C299 C298 1.391 . S
C299 C301 1.387 1_545 S
C300 C297 1.398 . S
C300 C301 1.380 . S
C300 H314 0.930 . S
C301 C299 1.387 1_565 S
C301 C300 1.380 . S
C301 H315 0.930 . S
C302 O282 1.254 . S
C302 O283 1.268 . S
C303 O287 1.284 . S
C303 O290 1.250 . S
C304 Gd237 2.828 . S
C304 O286 1.258 . S
C304 O291 1.252 . S
C304 C305 1.497 . S
C305 C304 1.497 . S
C305 C306 1.395 . S
C305 C307 1.380 . S
C306 C305 1.395 . S
C306 C309 1.398 . S
C306 H316 0.930 . S
C307 C305 1.380 . S
C307 C308 1.391 . S
C307 H317 0.930 . S
C308 C307 1.391 . S
C308 C310 1.387 . S
C309 C306 1.398 . S
C309 C310 1.380 . S
C309 H318 0.930 . S
C310 C308 1.387 . S
C310 C309 1.380 . S
C310 H319 0.930 . S
C311 O288 1.254 . S
C311 O289 1.268 . S
H312 C297 0.930 . S
H313 C298 0.930 . S
H314 C300 0.930 . S
H315 C301 0.930 . S
H316 C306 0.930 . S
H317 C307 0.930 . S
H318 C309 0.930 . S
H319 C310 0.930 . S
Gd320 N351 2.661 . S
Gd320 N357 2.601 . S
Gd320 O364 2.545 . S
Gd320 O365 2.606 . S
Gd320 O367 2.429 . S
Gd320 O368 2.545 . S
Gd320 O369 2.412 . S
Gd320 O371 2.362 . S
Gd320 O372 2.324 . S
Gd320 C379 2.828 . S
Gd321 N330 2.661 . S
Gd321 N334 2.601 . S
Gd321 O365 2.362 . S
Gd321 O366 2.324 . S
Gd321 O370 2.545 . S
Gd321 O371 2.606 . S
Gd321 O373 2.429 . S
Gd321 O374 2.545 . S
Gd321 O375 2.412 . S
Gd321 C388 2.828 . S
C322 C325 1.417 . S
C322 C327 1.431 . S
C322 C328 1.412 . S
C323 C326 1.437 . S
C323 C327 1.317 . S
C323 H342 0.929 . S
C324 C325 1.426 . S
C324 C326 1.413 . S
C324 N334 1.359 . S
C325 C322 1.417 . S
C325 C324 1.426 . S
C325 N330 1.350 . S
C326 C323 1.437 . S
C326 C324 1.413 . S
C326 C336 1.391 . S
C327 C322 1.431 . S
C327 C323 1.317 . S
C327 H338 0.930 . S
C328 C322 1.412 . S
C328 C329 1.355 . S
C328 H340 0.930 . S
C329 C328 1.355 . S
C329 C331 1.402 . S
C329 H341 0.930 . S
N330 Gd321 2.661 . S
N330 C325 1.350 . S
N330 C331 1.307 . S
C331 C329 1.402 . S
C331 N330 1.307 . S
C331 H332 0.930 . S
H332 C331 0.930 . S
C333 N334 1.334 . S
C333 C335 1.394 . S
C333 H337 0.930 . S
N334 Gd321 2.601 . S
N334 C324 1.359 . S
N334 C333 1.334 . S
C335 C333 1.394 . S
C335 C336 1.359 . S
C335 H347 0.930 . S
C336 C326 1.391 . S
C336 C335 1.359 . S
C336 H348 0.929 . S
H337 C333 0.930 . S
H338 C327 0.930 . S
H339 C356 0.930 . S
H340 C328 0.930 . S
H341 C329 0.930 . S
H342 C323 0.929 . S
H343 C361 0.930 . S
H344 C352 0.930 . S
H345 C353 0.930 . S
H346 C377 0.929 . S
H347 C335 0.930 . S
H348 C336 0.929 . S
H349 C378 0.930 . S
H350 C359 0.930 . S
N351 Gd320 2.661 . S
N351 C355 1.350 . S
N351 C356 1.307 . S
C352 H344 0.930 . S
C352 C353 1.355 . S
C352 C354 1.412 . S
C353 H345 0.930 . S
C353 C352 1.355 . S
C353 C356 1.402 . S
C354 C352 1.412 . S
C354 C355 1.417 . S
C354 C378 1.431 . S
C355 N351 1.350 . S
C355 C354 1.417 . S
C355 C358 1.426 . S
C356 H339 0.930 . S
C356 N351 1.307 . S
C356 C353 1.402 . S
N357 Gd320 2.601 . S
N357 C358 1.359 . S
N357 C361 1.334 . S
C358 C355 1.426 . S
C358 N357 1.359 . S
C358 C362 1.413 . S
C359 H350 0.930 . S
C359 C360 1.359 . S
C359 C361 1.394 . S
C360 C359 1.359 . S
C360 C362 1.391 . S
C360 H363 0.929 . S
C361 H343 0.930 . S
C361 N357 1.334 . S
C361 C359 1.394 . S
C362 C358 1.413 . S
C362 C360 1.391 . S
C362 C377 1.437 . S
H363 C360 0.929 . S
O364 Gd320 2.545 . S
O364 C379 1.258 . S
O365 Gd320 2.606 . S
O365 Gd321 2.362 . S
O365 C376 1.284 . S
O366 Gd321 2.324 . S
O366 C386 1.254 . S
O367 Gd320 2.429 . S
O367 C386 1.268 . S
O368 Gd320 2.545 . S
O368 C376 1.250 . S
O369 Gd320 2.412 . S
O369 C379 1.252 . S
O370 Gd321 2.545 . S
O370 C388 1.258 . S
O371 Gd320 2.362 . S
O371 Gd321 2.606 . S
O371 C387 1.284 . S
O372 Gd320 2.324 . S
O372 C395 1.254 . S
O373 Gd321 2.429 . S
O373 C395 1.268 . S
O374 Gd321 2.545 . S
O374 C387 1.250 . S
O375 Gd321 2.412 . S
O375 C388 1.252 . S
C376 O365 1.284 . S
C376 O368 1.250 . S
C377 H346 0.929 . S
C377 C362 1.437 . S
C377 C378 1.317 . S
C378 H349 0.930 . S
C378 C354 1.431 . S
C378 C377 1.317 . S
C379 Gd320 2.828 . S
C379 O364 1.258 . S
C379 O369 1.252 . S
C379 C380 1.497 . S
C380 C379 1.497 . S
C380 C381 1.395 . S
C380 C382 1.380 . S
C381 C380 1.395 . S
C381 C384 1.398 . S
C381 H396 0.930 . S
C382 C380 1.380 . S
C382 C383 1.391 . S
C382 H397 0.930 . S
C383 C382 1.391 . S
C383 C385 1.387 . S
C384 C381 1.398 . S
C384 C385 1.380 . S
C384 H398 0.930 1_556 S
C385 C383 1.387 . S
C385 C384 1.380 . S
C385 H399 0.930 . S
C386 O366 1.254 . S
C386 O367 1.268 . S
C387 O371 1.284 . S
C387 O374 1.250 . S
C388 Gd321 2.828 . S
C388 O370 1.258 . S
C388 O375 1.252 . S
C388 C389 1.497 . S
C389 C388 1.497 . S
C389 C390 1.395 . S
C389 C391 1.380 . S
C390 C389 1.395 . S
C390 C393 1.398 . S
C390 H400 0.930 . S
C391 C389 1.380 . S
C391 C392 1.391 . S
C391 H401 0.930 . S
C392 C391 1.391 . S
C392 C394 1.387 . S
C393 C390 1.398 . S
C393 C394 1.380 . S
C393 H402 0.930 . S
C394 C392 1.387 . S
C394 C393 1.380 . S
C394 H403 0.930 . S
C395 O372 1.254 . S
C395 O373 1.268 . S
H396 C381 0.930 . S
H397 C382 0.930 . S
H398 C384 0.930 1_554 S
H399 C385 0.930 . S
H400 C390 0.930 . S
H401 C391 0.930 . S
H402 C393 0.930 . S
H403 C394 0.930 . S
Gd404 N435 2.661 . S
Gd404 N441 2.601 . S
Gd404 O448 2.545 . S
Gd404 O449 2.606 1_655 S
Gd404 O451 2.429 1_655 S
Gd404 O452 2.545 . S
Gd404 O453 2.412 . S
Gd404 O455 2.362 1_655 S
Gd404 O456 2.324 . S
Gd404 C463 2.828 . S
Gd405 N414 2.661 . S
Gd405 N418 2.601 . S
Gd405 O449 2.362 . S
Gd405 O450 2.324 . S
Gd405 O454 2.545 . S
Gd405 O455 2.606 . S
Gd405 O457 2.429 1_455 S
Gd405 O458 2.545 . S
Gd405 O459 2.412 . S
Gd405 C472 2.828 . S
C406 C409 1.417 . S
C406 C411 1.431 . S
C406 C412 1.412 . S
C407 C410 1.437 . S
C407 C411 1.317 . S
C407 H426 0.929 . S
C408 C409 1.426 . S
C408 C410 1.413 . S
C408 N418 1.359 . S
C409 C406 1.417 . S
C409 C408 1.426 . S
C409 N414 1.350 . S
C410 C407 1.437 . S
C410 C408 1.413 . S
C410 C420 1.391 . S
C411 C406 1.431 . S
C411 C407 1.317 . S
C411 H422 0.930 . S
C412 C406 1.412 . S
C412 C413 1.355 . S
C412 H424 0.930 . S
C413 C412 1.355 . S
C413 C415 1.402 . S
C413 H425 0.930 . S
N414 Gd405 2.661 . S
N414 C409 1.350 . S
N414 C415 1.307 . S
C415 C413 1.402 . S
C415 N414 1.307 . S
C415 H416 0.930 . S
H416 C415 0.930 . S
C417 N418 1.334 . S
C417 C419 1.394 . S
C417 H421 0.930 1_455 S
N418 Gd405 2.601 . S
N418 C408 1.359 . S
N418 C417 1.334 . S
C419 C417 1.394 . S
C419 C420 1.359 . S
C419 H431 0.930 1_455 S
C420 C410 1.391 . S
C420 C419 1.359 . S
C420 H432 0.929 . S
H421 C417 0.930 1_655 S
H422 C411 0.930 . S
H423 C440 0.930 . S
H424 C412 0.930 . S
H425 C413 0.930 . S
H426 C407 0.929 . S
H427 C445 0.930 . S
H428 C436 0.930 . S
H429 C437 0.930 . S
H430 C461 0.929 . S
H431 C419 0.930 1_655 S
H432 C420 0.929 . S
H433 C462 0.930 . S
H434 C443 0.930 . S
N435 Gd404 2.661 . S
N435 C439 1.350 . S
N435 C440 1.307 . S
C436 H428 0.930 . S
C436 C437 1.355 . S
C436 C438 1.412 . S
C437 H429 0.930 . S
C437 C436 1.355 . S
C437 C440 1.402 . S
C438 C436 1.412 . S
C438 C439 1.417 . S
C438 C462 1.431 . S
C439 N435 1.350 . S
C439 C438 1.417 . S
C439 C442 1.426 . S
C440 H423 0.930 . S
C440 N435 1.307 . S
C440 C437 1.402 . S
N441 Gd404 2.601 . S
N441 C442 1.359 . S
N441 C445 1.334 1_655 S
C442 C439 1.426 . S
C442 N441 1.359 . S
C442 C446 1.413 . S
C443 H434 0.930 . S
C443 C444 1.359 . S
C443 C445 1.394 . S
C444 C443 1.359 . S
C444 C446 1.391 1_455 S
C444 H447 0.929 . S
C445 H427 0.930 . S
C445 N441 1.334 1_455 S
C445 C443 1.394 . S
C446 C442 1.413 . S
C446 C444 1.391 1_655 S
C446 C461 1.437 . S
H447 C444 0.929 . S
O448 Gd404 2.545 . S
O448 C463 1.258 . S
O449 Gd404 2.606 1_455 S
O449 Gd405 2.362 . S
O449 C460 1.284 1_455 S
O450 Gd405 2.324 . S
O450 C470 1.254 . S
O451 Gd404 2.429 1_455 S
O451 C470 1.268 . S
O452 Gd404 2.545 . S
O452 C460 1.250 . S
O453 Gd404 2.412 . S
O453 C463 1.252 . S
O454 Gd405 2.545 . S
O454 C472 1.258 . S
O455 Gd404 2.362 1_455 S
O455 Gd405 2.606 . S
O455 C471 1.284 . S
O456 Gd404 2.324 . S
O456 C479 1.254 . S
O457 Gd405 2.429 1_655 S
O457 C479 1.268 . S
O458 Gd405 2.545 . S
O458 C471 1.250 . S
O459 Gd405 2.412 . S
O459 C472 1.252 . S
C460 O449 1.284 1_655 S
C460 O452 1.250 . S
C461 H430 0.929 . S
C461 C446 1.437 . S
C461 C462 1.317 . S
C462 H433 0.930 . S
C462 C438 1.431 . S
C462 C461 1.317 . S
C463 Gd404 2.828 . S
C463 O448 1.258 . S
C463 O453 1.252 . S
C463 C464 1.497 . S
C464 C463 1.497 . S
C464 C465 1.395 . S
C464 C466 1.380 . S
C465 C464 1.395 . S
C465 C468 1.398 . S
C465 H480 0.930 . S
C466 C464 1.380 . S
C466 C467 1.391 . S
C466 H481 0.930 . S
C467 C466 1.391 . S
C467 C469 1.387 . S
C468 C465 1.398 . S
C468 C469 1.380 . S
C468 H482 0.930 1_556 S
C469 C467 1.387 . S
C469 C468 1.380 . S
C469 H483 0.930 . S
C470 O450 1.254 . S
C470 O451 1.268 . S
C471 O455 1.284 . S
C471 O458 1.250 . S
C472 Gd405 2.828 . S
C472 O454 1.258 . S
C472 O459 1.252 . S
C472 C473 1.497 . S
C473 C472 1.497 . S
C473 C474 1.395 . S
C473 C475 1.380 . S
C474 C473 1.395 . S
C474 C477 1.398 . S
C474 H484 0.930 . S
C475 C473 1.380 . S
C475 C476 1.391 . S
C475 H485 0.930 . S
C476 C475 1.391 . S
C476 C478 1.387 . S
C477 C474 1.398 . S
C477 C478 1.380 . S
C477 H486 0.930 . S
C478 C476 1.387 . S
C478 C477 1.380 . S
C478 H487 0.930 . S
C479 O456 1.254 . S
C479 O457 1.268 . S
H480 C465 0.930 . S
H481 C466 0.930 . S
H482 C468 0.930 1_554 S
H483 C469 0.930 . S
H484 C474 0.930 . S
H485 C475 0.930 . S
H486 C477 0.930 . S
H487 C478 0.930 . S
C488 C489 1.349 . S
C488 C490 1.327 . S
C488 H513 0.950 . S
C489 C488 1.349 . S
C489 C505 1.349 . S
C490 C488 1.327 . S
C490 C509 1.429 . S
C490 H514 0.950 . S
C491 C508 1.574 . S
C491 C510 1.368 . S
C491 H515 0.949 . S
H492 C496 0.949 . S
C493 C494 1.349 . S
C493 C495 1.327 . S
C493 H516 0.950 1_545 S
C494 C493 1.349 . S
C494 C506 1.349 . S
C495 C493 1.327 . S
C495 C511 1.429 . S
C495 H517 0.950 . S
C496 H492 0.949 . S
C496 C504 1.574 . S
C496 C512 1.368 . S
H497 C505 0.950 . S
H498 C503 0.950 . S
H499 C504 0.949 . S
H500 C506 0.950 . S
H501 C507 0.950 . S
H502 C508 0.949 . S
C503 H498 0.950 . S
C503 C505 1.327 . S
C503 C509 1.429 . S
C504 C496 1.574 . S
C504 H499 0.949 . S
C504 C510 1.368 . S
C505 C489 1.349 . S
C505 H497 0.950 . S
C505 C503 1.327 . S
C506 C494 1.349 . S
C506 H500 0.950 . S
C506 C507 1.327 . S
C507 H501 0.950 . S
C507 C506 1.327 . S
C507 C511 1.429 . S
C508 C491 1.574 . S
C508 H502 0.949 . S
C508 C512 1.368 . S
C509 C490 1.429 . S
C509 C503 1.429 . S
C509 C510 1.523 . S
C510 C491 1.368 . S
C510 C504 1.368 . S
C510 C509 1.523 . S
C511 C495 1.429 . S
C511 C507 1.429 . S
C511 C512 1.523 . S
C512 C496 1.368 . S
C512 C508 1.368 . S
C512 C511 1.523 . S
H513 C488 0.950 . S
H514 C490 0.950 . S
H515 C491 0.949 . S
H516 C493 0.950 1_565 S
H517 C495 0.950 . S
C518 C519 1.349 . S
C518 C520 1.327 . S
C518 H543 0.950 . S
C519 C518 1.349 . S
C519 C535 1.349 . S
C520 C518 1.327 . S
C520 C539 1.429 . S
C520 H544 0.950 . S
C521 C538 1.574 . S
C521 C540 1.368 . S
C521 H545 0.949 . S
H522 C526 0.949 . S
C523 C524 1.349 . S
C523 C525 1.327 . S
C523 H546 0.950 . S
C524 C523 1.349 . S
C524 C536 1.349 . S
C525 C523 1.327 . S
C525 C541 1.429 . S
C525 H547 0.950 . S
C526 H522 0.949 . S
C526 C534 1.574 . S
C526 C542 1.368 . S
H527 C535 0.950 . S
H528 C533 0.950 . S
H529 C534 0.949 . S
H530 C536 0.950 . S
H531 C537 0.950 . S
H532 C538 0.949 . S
C533 H528 0.950 . S
C533 C535 1.327 . S
C533 C539 1.429 . S
C534 C526 1.574 . S
C534 H529 0.949 . S
C534 C540 1.368 . S
C535 C519 1.349 . S
C535 H527 0.950 . S
C535 C533 1.327 . S
C536 C524 1.349 . S
C536 H530 0.950 . S
C536 C537 1.327 . S
C537 H531 0.950 . S
C537 C536 1.327 . S
C537 C541 1.429 . S
C538 C521 1.574 . S
C538 H532 0.949 . S
C538 C542 1.368 . S
C539 C520 1.429 . S
C539 C533 1.429 . S
C539 C540 1.523 . S
C540 C521 1.368 . S
C540 C534 1.368 . S
C540 C539 1.523 . S
C541 C525 1.429 . S
C541 C537 1.429 . S
C541 C542 1.523 . S
C542 C526 1.368 . S
C542 C538 1.368 . S
C542 C541 1.523 . S
H543 C518 0.950 . S
H544 C520 0.950 . S
H545 C521 0.949 . S
H546 C523 0.950 . S
H547 C525 0.950 . S
C548 C549 1.349 . S
C548 C550 1.327 . S
C548 H573 0.950 . S
C549 C548 1.349 . S
C549 C565 1.349 . S
C550 C548 1.327 . S
C550 C569 1.429 . S
C550 H574 0.950 . S
C551 C568 1.574 . S
C551 C570 1.368 . S
C551 H575 0.949 . S
H552 C556 0.949 . S
C553 C554 1.349 . S
C553 C555 1.327 . S
C553 H576 0.950 . S
C554 C553 1.349 . S
C554 C566 1.349 . S
C555 C553 1.327 . S
C555 C571 1.429 . S
C555 H577 0.950 . S
C556 H552 0.949 . S
C556 C564 1.574 . S
C556 C572 1.368 . S
H557 C565 0.950 . S
H558 C563 0.950 . S
H559 C564 0.949 . S
H560 C566 0.950 . S
H561 C567 0.950 . S
H562 C568 0.949 . S
C563 H558 0.950 . S
C563 C565 1.327 . S
C563 C569 1.429 . S
C564 C556 1.574 . S
C564 H559 0.949 . S
C564 C570 1.368 . S
C565 C549 1.349 . S
C565 H557 0.950 . S
C565 C563 1.327 . S
C566 C554 1.349 . S
C566 H560 0.950 . S
C566 C567 1.327 . S
C567 H561 0.950 . S
C567 C566 1.327 . S
C567 C571 1.429 . S
C568 C551 1.574 . S
C568 H562 0.949 . S
C568 C572 1.368 . S
C569 C550 1.429 . S
C569 C563 1.429 . S
C569 C570 1.523 . S
C570 C551 1.368 . S
C570 C564 1.368 . S
C570 C569 1.523 . S
C571 C555 1.429 . S
C571 C567 1.429 . S
C571 C572 1.523 . S
C572 C556 1.368 . S
C572 C568 1.368 . S
C572 C571 1.523 . S
H573 C548 0.950 . S
H574 C550 0.950 . S
H575 C551 0.949 . S
H576 C553 0.950 . S
H577 C555 0.950 . S
C578 C579 1.349 . S
C578 C580 1.327 . S
C578 H603 0.950 . S
C579 C578 1.349 . S
C579 C595 1.349 . S
C580 C578 1.327 . S
C580 C599 1.429 . S
C580 H604 0.950 . S
C581 C598 1.574 . S
C581 C600 1.368 . S
C581 H605 0.949 . S
H582 C586 0.949 . S
C583 C584 1.349 . S
C583 C585 1.327 . S
C583 H606 0.950 . S
C584 C583 1.349 . S
C584 C596 1.349 . S
C585 C583 1.327 . S
C585 C601 1.429 . S
C585 H607 0.950 . S
C586 H582 0.949 . S
C586 C594 1.574 . S
C586 C602 1.368 . S
H587 C595 0.950 . S
H588 C593 0.950 . S
H589 C594 0.949 . S
H590 C596 0.950 . S
H591 C597 0.950 . S
H592 C598 0.949 . S
C593 H588 0.950 . S
C593 C595 1.327 . S
C593 C599 1.429 . S
C594 C586 1.574 . S
C594 H589 0.949 . S
C594 C600 1.368 . S
C595 C579 1.349 . S
C595 H587 0.950 . S
C595 C593 1.327 . S
C596 C584 1.349 . S
C596 H590 0.950 . S
C596 C597 1.327 . S
C597 H591 0.950 . S
C597 C596 1.327 . S
C597 C601 1.429 . S
C598 C581 1.574 . S
C598 H592 0.949 . S
C598 C602 1.368 . S
C599 C580 1.429 . S
C599 C593 1.429 . S
C599 C600 1.523 . S
C600 C581 1.368 . S
C600 C594 1.368 . S
C600 C599 1.523 . S
C601 C585 1.429 . S
C601 C597 1.429 . S
C601 C602 1.523 . S
C602 C586 1.368 . S
C602 C598 1.368 . S
C602 C601 1.523 . S
H603 C578 0.950 . S
H604 C580 0.950 . S
H605 C581 0.949 . S
H606 C583 0.950 . S
H607 C585 0.950 . S
C608 C609 1.349 . S
C608 C610 1.327 . S
C608 H633 0.950 . S
C609 C608 1.349 . S
C609 C625 1.349 . S
C610 C608 1.327 . S
C610 C629 1.429 . S
C610 H634 0.950 1_554 S
C611 C628 1.574 . S
C611 C630 1.368 . S
C611 H635 0.954 1_556 S
H612 C616 0.949 . S
C613 C614 1.349 1_545 S
C613 C615 1.327 . S
C613 H636 0.950 . S
C614 C613 1.349 1_565 S
C614 C626 1.349 . S
C615 C613 1.327 . S
C615 C631 1.429 1_545 S
C615 H637 0.950 . S
C616 H612 0.949 . S
C616 C624 1.574 . S
C616 C632 1.368 . S
H617 C625 0.950 . S
H618 C623 0.950 . S
H619 C624 0.949 . S
H620 C626 0.950 . S
H621 C627 0.950 . S
H622 C628 0.949 1_545 S
C623 H618 0.950 . S
C623 C625 1.327 . S
C623 C629 1.429 . S
C624 C616 1.574 . S
C624 H619 0.949 . S
C624 C630 1.368 . S
C625 C609 1.349 . S
C625 H617 0.950 . S
C625 C623 1.327 . S
C626 C614 1.349 . S
C626 H620 0.950 . S
C626 C627 1.327 . S
C627 H621 0.950 . S
C627 C626 1.327 . S
C627 C631 1.429 . S
C628 C611 1.574 . S
C628 H622 0.949 1_565 S
C628 C632 1.368 . S
C629 C610 1.429 . S
C629 C623 1.429 . S
C629 C630 1.523 1_554 S
C630 C611 1.368 . S
C630 C624 1.368 . S
C630 C629 1.523 1_556 S
C631 C615 1.429 1_565 S
C631 C627 1.429 . S
C631 C632 1.523 . S
C632 C616 1.368 . S
C632 C628 1.368 . S
C632 C631 1.523 . S
H633 C608 0.950 . S
H634 C610 0.950 1_556 S
H635 C611 0.954 1_554 S
H636 C613 0.950 . S
H637 C615 0.950 . S
C638 C639 1.349 . S
C638 C640 1.327 . S
C638 H663 0.950 . S
C639 C638 1.349 . S
C639 C655 1.349 . S
C640 C638 1.327 . S
C640 C659 1.429 . S
C640 H664 0.950 . S
C641 C658 1.574 . S
C641 C660 1.368 . S
C641 H665 0.949 . S
H642 C646 0.949 . S
C643 C644 1.349 . S
C643 C645 1.327 . S
C643 H666 0.950 . S
C644 C643 1.349 . S
C644 C656 1.349 . S
C645 C643 1.327 . S
C645 C661 1.429 . S
C645 H667 0.950 . S
C646 H642 0.949 . S
C646 C654 1.574 . S
C646 C662 1.368 . S
H647 C655 0.950 . S
H648 C653 0.950 1_556 S
H649 C654 0.949 . S
H650 C656 0.950 . S
H651 C657 0.950 . S
H652 C658 0.949 . S
C653 H648 0.950 1_554 S
C653 C655 1.327 . S
C653 C659 1.429 . S
C654 C646 1.574 . S
C654 H649 0.949 . S
C654 C660 1.368 . S
C655 C639 1.349 . S
C655 H647 0.950 . S
C655 C653 1.327 . S
C656 C644 1.349 . S
C656 H650 0.950 . S
C656 C657 1.327 . S
C657 H651 0.950 . S
C657 C656 1.327 . S
C657 C661 1.429 . S
C658 C641 1.574 . S
C658 H652 0.949 . S
C658 C662 1.368 . S
C659 C640 1.429 . S
C659 C653 1.429 . S
C659 C660 1.523 1_554 S
C660 C641 1.368 . S
C660 C654 1.368 . S
C660 C659 1.523 1_556 S
C661 C645 1.429 . S
C661 C657 1.429 . S
C661 C662 1.523 . S
C662 C646 1.368 . S
C662 C658 1.368 . S
C662 C661 1.523 . S
H663 C638 0.950 . S
H664 C640 0.950 . S
H665 C641 0.949 . S
H666 C643 0.950 . S
H667 C645 0.950 . S
C668 C669 1.349 . S
C668 C670 1.327 . S
C668 H693 0.950 . S
C669 C668 1.349 . S
C669 C685 1.349 . S
C670 C668 1.327 . S
C670 C689 1.429 . S
C670 H694 0.950 . S
C671 C688 1.574 . S
C671 C690 1.368 . S
C671 H695 0.949 . S
H672 C676 0.949 . S
C673 C674 1.349 . S
C673 C675 1.327 . S
C673 H696 0.950 . S
C674 C673 1.349 . S
C674 C686 1.349 . S
C675 C673 1.327 . S
C675 C691 1.429 . S
C675 H697 0.950 . S
C676 H672 0.949 . S
C676 C684 1.574 . S
C676 C692 1.368 . S
H677 C685 0.950 . S
H678 C683 0.950 . S
H679 C684 0.949 1_554 S
H680 C686 0.950 . S
H681 C687 0.950 . S
H682 C688 0.949 . S
C683 H678 0.950 . S
C683 C685 1.327 1_556 S
C683 C689 1.429 1_556 S
C684 C676 1.574 . S
C684 H679 0.949 1_556 S
C684 C690 1.368 . S
C685 C669 1.349 . S
C685 H677 0.950 . S
C685 C683 1.327 1_554 S
C686 C674 1.349 . S
C686 H680 0.950 . S
C686 C687 1.327 . S
C687 H681 0.950 . S
C687 C686 1.327 . S
C687 C691 1.429 . S
C688 C671 1.574 . S
C688 H682 0.949 . S
C688 C692 1.368 . S
C689 C670 1.429 . S
C689 C683 1.429 1_554 S
C689 C690 1.523 1_554 S
C690 C671 1.368 . S
C690 C684 1.368 . S
C690 C689 1.523 1_556 S
C691 C675 1.429 . S
C691 C687 1.429 . S
C691 C692 1.523 . S
C692 C676 1.368 . S
C692 C688 1.368 . S
C692 C691 1.523 . S
H693 C668 0.950 . S
H694 C670 0.950 . S
H695 C671 0.949 . S
H696 C673 0.950 . S
H697 C675 0.950 . S
C698 C699 1.349 . S
C698 C700 1.327 . S
C698 H723 0.950 . S
C699 C698 1.349 . S
C699 C715 1.349 . S
C700 C698 1.327 . S
C700 C719 1.429 . S
C700 H724 0.950 1_554 S
C701 C718 1.574 . S
C701 C720 1.368 . S
C701 H725 0.949 1_556 S
H702 C706 0.949 . S
C703 C704 1.349 . S
C703 C705 1.327 . S
C703 H726 0.950 . S
C704 C703 1.349 . S
C704 C716 1.327 1_655 S
C705 C703 1.327 . S
C705 C721 1.429 . S
C705 H727 0.950 . S
C706 H702 0.949 . S
C706 C714 1.574 . S
C706 C722 1.368 . S
H707 C715 0.950 . S
H708 C713 0.950 . S
H709 C714 0.949 . S
H710 C716 0.984 . S
H711 C717 0.950 1_455 S
H712 C718 0.949 . S
C713 H708 0.950 . S
C713 C715 1.327 . S
C713 C719 1.429 . S
C714 C706 1.574 . S
C714 H709 0.949 . S
C714 C720 1.368 . S
C715 C699 1.349 . S
C715 H707 0.950 . S
C715 C713 1.327 . S
C716 C704 1.327 1_455 S
C716 H710 0.984 . S
C716 C717 1.318 1_455 S
C717 H711 0.950 1_655 S
C717 C716 1.318 1_655 S
C717 C721 1.429 . S
C718 C701 1.574 . S
C718 H712 0.949 . S
C718 C722 1.368 . S
C719 C700 1.429 . S
C719 C713 1.429 . S
C719 C720 1.523 1_554 S
C720 C701 1.368 . S
C720 C714 1.368 . S
C720 C719 1.523 1_556 S
C721 C705 1.429 . S
C721 C717 1.429 . S
C721 C722 1.523 . S
C722 C706 1.368 . S
C722 C718 1.368 . S
C722 C721 1.523 . S
H723 C698 0.950 . S
H724 C700 0.950 1_556 S
H725 C701 0.949 1_554 S
H726 C703 0.950 . S
H727 C705 0.950 . S
C728 C729 1.349 . S
C728 C730 1.327 . S
C728 H753 0.950 . S
C729 C728 1.349 . S
C729 C745 1.349 . S
C730 C728 1.327 . S
C730 C749 1.429 . S
C730 H754 0.950 . S
C731 C748 1.574 . S
C731 C750 1.368 . S
C731 H755 0.949 . S
H732 C736 0.949 . S
C733 C734 1.349 . S
C733 C735 1.327 . S
C733 H756 0.950 . S
C734 C733 1.349 . S
C734 C746 1.349 . S
C735 C733 1.327 . S
C735 C751 1.429 . S
C735 H757 0.950 . S
C736 H732 0.949 . S
C736 C744 1.574 . S
C736 C752 1.368 . S
H737 C745 0.950 . S
H738 C743 0.950 . S
H739 C744 0.949 . S
H740 C746 0.950 1_655 S
H741 C747 0.950 . S
H742 C748 0.949 . S
C743 H738 0.950 . S
C743 C745 1.327 . S
C743 C749 1.429 . S
C744 C736 1.574 . S
C744 H739 0.949 . S
C744 C750 1.368 . S
C745 C729 1.349 . S
C745 H737 0.950 . S
C745 C743 1.327 . S
C746 C734 1.349 . S
C746 H740 0.950 1_455 S
C746 C747 1.327 . S
C747 H741 0.950 . S
C747 C746 1.327 . S
C747 C751 1.429 . S
C748 C731 1.574 . S
C748 H742 0.949 . S
C748 C752 1.368 . S
C749 C730 1.429 . S
C749 C743 1.429 . S
C749 C750 1.523 . S
C750 C731 1.368 . S
C750 C744 1.368 . S
C750 C749 1.523 . S
C751 C735 1.429 . S
C751 C747 1.429 . S
C751 C752 1.523 . S
C752 C736 1.368 . S
C752 C748 1.368 . S
C752 C751 1.523 . S
H753 C728 0.950 . S
H754 C730 0.950 . S
H755 C731 0.949 . S
H756 C733 0.950 . S
H757 C735 0.950 . S
C758 C759 1.349 . S
C758 C760 1.327 . S
C758 H783 0.950 . S
C759 C758 1.349 . S
C759 C775 1.349 . S
C760 C758 1.327 . S
C760 C779 1.429 . S
C760 H784 0.950 . S
C761 C778 1.574 . S
C761 C780 1.368 . S
C761 H785 0.949 . S
H762 C766 0.949 . S
C763 C764 1.349 . S
C763 C765 1.327 . S
C763 H786 0.950 . S
C764 C763 1.349 . S
C764 C776 1.332 1_545 S
C765 C763 1.327 . S
C765 C781 1.429 . S
C765 H787 0.950 . S
C766 H762 0.949 . S
C766 C774 1.574 . S
C766 C782 1.368 . S
H767 C775 0.950 . S
H768 C773 0.950 . S
H769 C774 0.949 . S
H770 C776 0.975 . S
H771 C777 0.950 1_565 S
H772 C778 0.949 . S
C773 H768 0.950 . S
C773 C775 1.327 . S
C773 C779 1.429 . S
C774 C766 1.574 . S
C774 H769 0.949 . S
C774 C780 1.368 . S
C775 C759 1.349 . S
C775 H767 0.950 . S
C775 C773 1.327 . S
C776 C764 1.332 1_565 S
C776 H770 0.975 . S
C776 C777 1.320 1_565 S
C777 H771 0.950 1_545 S
C777 C776 1.320 1_545 S
C777 C781 1.429 . S
C778 C761 1.574 . S
C778 H772 0.949 . S
C778 C782 1.368 . S
C779 C760 1.429 . S
C779 C773 1.429 . S
C779 C780 1.523 . S
C780 C761 1.368 . S
C780 C774 1.368 . S
C780 C779 1.523 . S
C781 C765 1.429 . S
C781 C777 1.429 . S
C781 C782 1.523 . S
C782 C766 1.368 . S
C782 C778 1.368 . S
C782 C781 1.523 . S
H783 C758 0.950 . S
H784 C760 0.950 . S
H785 C761 0.949 . S
H786 C763 0.950 . S
H787 C765 0.950 . S
C788 C789 1.349 . S
C788 C790 1.327 . S
C788 H813 0.950 . S
C789 C788 1.349 . S
C789 C805 1.349 . S
C790 C788 1.327 . S
C790 C809 1.429 . S
C790 H814 0.950 . S
C791 C808 1.574 . S
C791 C810 1.368 . S
C791 H815 0.949 . S
H792 C796 0.949 . S
C793 C794 1.349 . S
C793 C795 1.327 . S
C793 H816 0.950 . S
C794 C793 1.349 . S
C794 C806 1.349 . S
C795 C793 1.327 . S
C795 C811 1.429 . S
C795 H817 0.950 . S
C796 H792 0.949 . S
C796 C804 1.574 . S
C796 C812 1.368 . S
H797 C805 0.950 1_556 S
H798 C803 0.950 . S
H799 C804 0.949 . S
H800 C806 0.950 . S
H801 C807 0.950 . S
H802 C808 0.949 . S
C803 H798 0.950 . S
C803 C805 1.327 . S
C803 C809 1.429 . S
C804 C796 1.574 . S
C804 H799 0.949 . S
C804 C810 1.368 . S
C805 C789 1.349 . S
C805 H797 0.950 1_554 S
C805 C803 1.327 . S
C806 C794 1.349 . S
C806 H800 0.950 . S
C806 C807 1.327 . S
C807 H801 0.950 . S
C807 C806 1.327 . S
C807 C811 1.429 . S
C808 C791 1.574 . S
C808 H802 0.949 . S
C808 C812 1.368 . S
C809 C790 1.429 . S
C809 C803 1.429 . S
C809 C810 1.523 . S
C810 C791 1.368 . S
C810 C804 1.368 . S
C810 C809 1.523 . S
C811 C795 1.429 . S
C811 C807 1.429 . S
C811 C812 1.523 . S
C812 C796 1.368 . S
C812 C808 1.368 . S
C812 C811 1.523 . S
H813 C788 0.950 . S
H814 C790 0.950 . S
H815 C791 0.949 . S
H816 C793 0.950 . S
H817 C795 0.950 . S
C818 C819 1.349 . S
C818 C820 1.327 . S
C818 H843 0.950 . S
C819 C818 1.349 . S
C819 C835 1.349 . S
C820 C818 1.327 . S
C820 C839 1.429 . S
C820 H844 0.950 . S
C821 C838 1.574 . S
C821 C840 1.368 . S
C821 H845 0.949 . S
H822 C826 0.949 . S
C823 C824 1.349 . S
C823 C825 1.327 . S
C823 H846 0.950 . S
C824 C823 1.349 . S
C824 C836 1.349 . S
C825 C823 1.327 . S
C825 C841 1.429 . S
C825 H847 0.950 . S
C826 H822 0.949 . S
C826 C834 1.574 . S
C826 C842 1.368 . S
H827 C835 0.950 . S
H828 C833 0.950 . S
H829 C834 0.949 . S
H830 C836 0.950 . S
H831 C837 0.950 . S
H832 C838 0.949 . S
C833 H828 0.950 . S
C833 C835 1.327 . S
C833 C839 1.429 . S
C834 C826 1.574 . S
C834 H829 0.949 . S
C834 C840 1.368 . S
C835 C819 1.349 . S
C835 H827 0.950 . S
C835 C833 1.327 . S
C836 C824 1.349 . S
C836 H830 0.950 . S
C836 C837 1.327 . S
C837 H831 0.950 . S
C837 C836 1.327 . S
C837 C841 1.429 . S
C838 C821 1.574 . S
C838 H832 0.949 . S
C838 C842 1.368 . S
C839 C820 1.429 . S
C839 C833 1.429 . S
C839 C840 1.523 . S
C840 C821 1.368 . S
C840 C834 1.368 . S
C840 C839 1.523 . S
C841 C825 1.429 . S
C841 C837 1.429 . S
C841 C842 1.523 . S
C842 C826 1.368 . S
C842 C838 1.368 . S
C842 C841 1.523 . S
H843 C818 0.950 . S
H844 C820 0.950 . S
H845 C821 0.949 . S
H846 C823 0.950 . S
H847 C825 0.950 . S
C848 C849 1.349 . S
C848 C850 1.327 . S
C848 H873 0.950 . S
C849 C848 1.349 . S
C849 C865 1.349 . S
C850 C848 1.327 . S
C850 C869 1.429 . S
C850 H874 0.950 . S
C851 C868 1.574 . S
C851 C870 1.368 1_556 S
C851 H875 0.949 . S
H852 C856 0.949 . S
C853 C854 1.349 1_655 S
C853 C855 1.327 . S
C853 H876 0.950 . S
C854 C853 1.349 1_455 S
C854 C866 1.349 . S
C855 C853 1.327 . S
C855 C871 1.429 . S
C855 H877 0.950 . S
C856 H852 0.949 . S
C856 C864 1.574 . S
C856 C872 1.368 1_554 S
H857 C865 0.950 . S
H858 C863 0.950 1_556 S
H859 C864 0.949 . S
H860 C866 0.950 . S
H861 C867 0.965 1_554 S
H862 C868 0.949 . S
C863 H858 0.950 1_554 S
C863 C865 1.327 . S
C863 C869 1.429 . S
C864 C856 1.574 . S
C864 H859 0.949 . S
C864 C870 1.368 . S
C865 C849 1.349 . S
C865 H857 0.950 . S
C865 C863 1.327 . S
C866 C854 1.349 . S
C866 H860 0.950 . S
C866 C867 1.343 . S
C867 H861 0.965 1_556 S
C867 C866 1.343 . S
C867 C871 1.400 1_455 S
C868 C851 1.574 . S
C868 H862 0.949 . S
C868 C872 1.368 . S
C869 C850 1.429 . S
C869 C863 1.429 . S
C869 C870 1.523 . S
C870 C851 1.368 1_554 S
C870 C864 1.368 . S
C870 C869 1.523 . S
C871 C855 1.429 . S
C871 C867 1.400 1_655 S
C871 C872 1.523 . S
C872 C856 1.368 1_556 S
C872 C868 1.368 . S
C872 C871 1.523 . S
H873 C848 0.950 . S
H874 C850 0.950 . S
H875 C851 0.949 . S
H876 C853 0.950 . S
H877 C855 0.950 . S
C878 C879 1.349 . S
C878 C880 1.327 . S
C878 H903 0.950 . S
C879 C878 1.349 . S
C879 C895 1.349 . S
C880 C878 1.327 . S
C880 C899 1.429 . S
C880 H904 0.950 . S
C881 C898 1.574 1_554 S
C881 C900 1.368 . S
C881 H905 0.949 . S
H882 C886 0.949 . S
C883 C884 1.349 1_565 S
C883 C885 1.327 . S
C883 H906 0.950 . S
C884 C883 1.349 1_545 S
C884 C896 1.349 . S
C885 C883 1.327 . S
C885 C901 1.429 . S
C885 H907 0.950 . S
C886 H882 0.949 . S
C886 C894 1.574 1_546 S
C886 C902 1.368 1_545 S
H887 C895 0.950 . S
H888 C893 0.950 . S
H889 C894 0.949 1_545 S
H890 C896 0.950 . S
H891 C897 0.950 . S
H892 C898 0.949 . S
C893 H888 0.950 . S
C893 C895 1.327 . S
C893 C899 1.429 . S
C894 C886 1.574 1_564 S
C894 H889 0.949 1_565 S
C894 C900 1.368 . S
C895 C879 1.349 . S
C895 H887 0.950 . S
C895 C893 1.327 . S
C896 C884 1.349 . S
C896 H890 0.950 . S
C896 C897 1.327 . S
C897 H891 0.950 . S
C897 C896 1.327 . S
C897 C901 1.429 1_545 S
C898 C881 1.574 1_556 S
C898 H892 0.949 . S
C898 C902 1.368 . S
C899 C880 1.429 . S
C899 C893 1.429 . S
C899 C900 1.523 . S
C900 C881 1.368 . S
C900 C894 1.368 . S
C900 C899 1.523 . S
C901 C885 1.429 . S
C901 C897 1.429 1_565 S
C901 C902 1.523 . S
C902 C886 1.368 1_565 S
C902 C898 1.368 . S
C902 C901 1.523 . S
H903 C878 0.950 . S
H904 C880 0.950 . S
H905 C881 0.949 . S
H906 C883 0.950 . S
H907 C885 0.950 . S
C908 C909 1.349 . S
C908 C910 1.327 . S
C908 H933 0.950 . S
C909 C908 1.349 . S
C909 C925 1.349 . S
C910 C908 1.327 . S
C910 C929 1.429 . S
C910 H934 0.950 . S
C911 C928 1.574 . S
C911 C930 1.368 . S
C911 H935 0.949 . S
H912 C916 0.949 . S
C913 C914 1.349 . S
C913 C915 1.327 . S
C913 H936 0.950 . S
C914 C913 1.349 . S
C914 C926 1.349 . S
C915 C913 1.327 . S
C915 C931 1.429 . S
C915 H937 0.950 . S
C916 H912 0.949 . S
C916 C924 1.574 . S
C916 C932 1.368 . S
H917 C925 0.950 . S
H918 C923 0.950 . S
H919 C924 0.949 . S
H920 C926 0.950 . S
H921 C927 0.950 . S
H922 C928 0.949 . S
C923 H918 0.950 . S
C923 C925 1.327 . S
C923 C929 1.429 . S
C924 C916 1.574 . S
C924 H919 0.949 . S
C924 C930 1.368 1_556 S
C925 C909 1.349 . S
C925 H917 0.950 . S
C925 C923 1.327 . S
C926 C914 1.349 . S
C926 H920 0.950 . S
C926 C927 1.327 . S
C927 H921 0.950 . S
C927 C926 1.327 . S
C927 C931 1.429 . S
C928 C911 1.574 . S
C928 H922 0.949 . S
C928 C932 1.368 1_554 S
C929 C910 1.429 . S
C929 C923 1.429 . S
C929 C930 1.523 . S
C930 C911 1.368 . S
C930 C924 1.368 1_554 S
C930 C929 1.523 . S
C931 C915 1.429 . S
C931 C927 1.429 . S
C931 C932 1.523 . S
C932 C916 1.368 . S
C932 C928 1.368 1_556 S
C932 C931 1.523 . S
H933 C908 0.950 . S
H934 C910 0.950 . S
H935 C911 0.949 . S
H936 C913 0.950 . S
H937 C915 0.950 . S
C938 C939 1.349 . S
C938 C940 1.327 . S
C938 H963 0.950 . S
C939 C938 1.349 . S
C939 C955 1.349 . S
C940 C938 1.327 . S
C940 C959 1.429 . S
C940 H964 0.950 . S
C941 C958 1.574 1_554 S
C941 C960 1.368 . S
C941 H965 0.949 . S
H942 C946 0.949 . S
C943 C944 1.349 . S
C943 C945 1.327 . S
C943 H966 0.950 . S
C944 C943 1.349 . S
C944 C956 1.349 . S
C945 C943 1.327 . S
C945 C961 1.429 . S
C945 H967 0.950 . S
C946 H942 0.949 . S
C946 C954 1.574 1_556 S
C946 C962 1.368 . S
H947 C955 0.950 . S
H948 C953 0.950 . S
H949 C954 0.949 . S
H950 C956 0.950 . S
H951 C957 0.950 . S
H952 C958 0.949 . S
C953 H948 0.950 . S
C953 C955 1.327 . S
C953 C959 1.429 . S
C954 C946 1.574 1_554 S
C954 H949 0.949 . S
C954 C960 1.368 . S
C955 C939 1.349 . S
C955 H947 0.950 . S
C955 C953 1.327 . S
C956 C944 1.349 . S
C956 H950 0.950 . S
C956 C957 1.327 . S
C957 H951 0.950 . S
C957 C956 1.327 . S
C957 C961 1.429 . S
C958 C941 1.574 1_556 S
C958 H952 0.949 . S
C958 C962 1.368 . S
C959 C940 1.429 . S
C959 C953 1.429 . S
C959 C960 1.523 . S
C960 C941 1.368 . S
C960 C954 1.368 . S
C960 C959 1.523 . S
C961 C945 1.429 . S
C961 C957 1.429 . S
C961 C962 1.523 . S
C962 C946 1.368 . S
C962 C958 1.368 . S
C962 C961 1.523 . S
H963 C938 0.950 . S
H964 C940 0.950 . S
H965 C941 0.949 . S
H966 C943 0.950 . S
H967 C945 0.950 . S
C968 C969 1.349 . S
C968 C970 1.327 . S
C968 H993 0.950 . S
C969 C968 1.349 . S
C969 C985 1.349 . S
C970 C968 1.327 . S
C970 C989 1.429 . S
C970 H994 0.950 . S
C971 C988 1.574 . S
C971 C990 1.368 . S
C971 H995 0.949 . S
H972 C976 0.949 . S
C973 C974 1.349 . S
C973 C975 1.327 . S
C973 H996 0.950 . S
C974 C973 1.349 . S
C974 C986 1.349 . S
C975 C973 1.327 . S
C975 C991 1.429 . S
C975 H997 0.950 . S
C976 H972 0.949 . S
C976 C984 1.574 . S
C976 C992 1.368 . S
H977 C985 0.950 . S
H978 C983 0.950 . S
H979 C984 0.949 . S
H980 C986 0.950 . S
H981 C987 0.950 . S
H982 C988 0.949 . S
C983 H978 0.950 . S
C983 C985 1.327 . S
C983 C989 1.429 . S
C984 C976 1.574 . S
C984 H979 0.949 . S
C984 C990 1.368 . S
C985 C969 1.349 . S
C985 H977 0.950 . S
C985 C983 1.327 . S
C986 C974 1.349 . S
C986 H980 0.950 . S
C986 C987 1.327 . S
C987 H981 0.950 . S
C987 C986 1.327 . S
C987 C991 1.429 . S
C988 C971 1.574 . S
C988 H982 0.949 . S
C988 C992 1.368 . S
C989 C970 1.429 . S
C989 C983 1.429 . S
C989 C990 1.523 . S
C990 C971 1.368 . S
C990 C984 1.368 . S
C990 C989 1.523 . S
C991 C975 1.429 . S
C991 C987 1.429 . S
C991 C992 1.523 . S
C992 C976 1.368 . S
C992 C988 1.368 . S
C992 C991 1.523 . S
H993 C968 0.950 . S
H994 C970 0.950 . S
H995 C971 0.949 . S
H996 C973 0.950 . S
H997 C975 0.950 . S
C998 C999 1.349 . S
C998 C1000 1.327 . S
C998 H1023 0.950 . S
C999 C998 1.349 . S
C999 C1015 1.349 . S
C1000 C998 1.327 . S
C1000 C1019 1.429 . S
C1000 H1024 0.950 . S
C1001 C1018 1.574 . S
C1001 C1020 1.368 . S
C1001 H1025 0.949 . S
H1002 C1006 0.949 . S
C1003 C1004 1.349 . S
C1003 C1005 1.327 . S
C1003 H1026 0.950 . S
C1004 C1003 1.349 . S
C1004 C1016 1.349 . S
C1005 C1003 1.327 . S
C1005 C1021 1.429 . S
C1005 H1027 0.950 . S
C1006 H1002 0.949 . S
C1006 C1014 1.574 . S
C1006 C1022 1.368 . S
H1007 C1015 0.950 . S
H1008 C1013 0.950 . S
H1009 C1014 0.949 . S
H1010 C1016 0.950 . S
H1011 C1017 0.950 . S
H1012 C1018 0.949 . S
C1013 H1008 0.950 . S
C1013 C1015 1.327 . S
C1013 C1019 1.429 . S
C1014 C1006 1.574 . S
C1014 H1009 0.949 . S
C1014 C1020 1.368 . S
C1015 C999 1.349 . S
C1015 H1007 0.950 . S
C1015 C1013 1.327 . S
C1016 C1004 1.349 . S
C1016 H1010 0.950 . S
C1016 C1017 1.327 . S
C1017 H1011 0.950 . S
C1017 C1016 1.327 . S
C1017 C1021 1.429 . S
C1018 C1001 1.574 . S
C1018 H1012 0.949 . S
C1018 C1022 1.368 . S
C1019 C1000 1.429 . S
C1019 C1013 1.429 . S
C1019 C1020 1.523 . S
C1020 C1001 1.368 . S
C1020 C1014 1.368 . S
C1020 C1019 1.523 . S
C1021 C1005 1.429 . S
C1021 C1017 1.429 . S
C1021 C1022 1.523 . S
C1022 C1006 1.368 . S
C1022 C1018 1.368 . S
C1022 C1021 1.523 . S
H1023 C998 0.950 . S
H1024 C1000 0.950 . S
H1025 C1001 0.949 . S
H1026 C1003 0.950 . S
H1027 C1005 0.950 . S
C1028 C1029 1.349 . S
C1028 C1030 1.327 . S
C1028 H1053 0.950 . S
C1029 C1028 1.349 . S
C1029 C1045 1.349 . S
C1030 C1028 1.327 . S
C1030 C1049 1.429 . S
C1030 H1054 0.950 . S
C1031 C1048 1.574 . S
C1031 C1050 1.368 . S
C1031 H1055 0.949 . S
H1032 C1036 0.949 . S
C1033 C1034 1.349 . S
C1033 C1035 1.327 . S
C1033 H1056 0.950 . S
C1034 C1033 1.349 . S
C1034 C1046 1.349 . S
C1035 C1033 1.327 . S
C1035 C1051 1.429 . S
C1035 H1057 0.950 . S
C1036 H1032 0.949 . S
C1036 C1044 1.574 . S
C1036 C1052 1.368 . S
H1037 C1045 0.950 . S
H1038 C1043 0.950 . S
H1039 C1044 0.949 . S
H1040 C1046 0.950 . S
H1041 C1047 0.950 . S
H1042 C1048 0.949 . S
C1043 H1038 0.950 . S
C1043 C1045 1.327 . S
C1043 C1049 1.429 . S
C1044 C1036 1.574 . S
C1044 H1039 0.949 . S
C1044 C1050 1.368 . S
C1045 C1029 1.349 . S
C1045 H1037 0.950 . S
C1045 C1043 1.327 . S
C1046 C1034 1.349 . S
C1046 H1040 0.950 . S
C1046 C1047 1.327 . S
C1047 H1041 0.950 . S
C1047 C1046 1.327 . S
C1047 C1051 1.429 . S
C1048 C1031 1.574 . S
C1048 H1042 0.949 . S
C1048 C1052 1.368 . S
C1049 C1030 1.429 . S
C1049 C1043 1.429 . S
C1049 C1050 1.523 . S
C1050 C1031 1.368 . S
C1050 C1044 1.368 . S
C1050 C1049 1.523 . S
C1051 C1035 1.429 . S
C1051 C1047 1.429 . S
C1051 C1052 1.523 . S
C1052 C1036 1.368 . S
C1052 C1048 1.368 . S
C1052 C1051 1.523 . S
H1053 C1028 0.950 . S
H1054 C1030 0.950 . S
H1055 C1031 0.949 . S
H1056 C1033 0.950 . S
H1057 C1035 0.950 . S
C1058 C1059 1.349 . S
C1058 C1060 1.327 . S
C1058 H1083 0.950 . S
C1059 C1058 1.349 . S
C1059 C1075 1.349 . S
C1060 C1058 1.327 . S
C1060 C1079 1.429 . S
C1060 H1084 0.950 . S
C1061 C1078 1.574 . S
C1061 C1080 1.368 . S
C1061 H1085 0.949 . S
H1062 C1066 0.949 . S
C1063 C1064 1.349 . S
C1063 C1065 1.327 . S
C1063 H1086 0.950 . S
C1064 C1063 1.349 . S
C1064 C1076 1.349 . S
C1065 C1063 1.327 . S
C1065 C1081 1.429 . S
C1065 H1087 0.950 . S
C1066 H1062 0.949 . S
C1066 C1074 1.574 . S
C1066 C1082 1.368 . S
H1067 C1075 0.950 . S
H1068 C1073 0.950 . S
H1069 C1074 0.949 . S
H1070 C1076 0.950 . S
H1071 C1077 0.950 . S
H1072 C1078 0.949 . S
C1073 H1068 0.950 . S
C1073 C1075 1.327 . S
C1073 C1079 1.429 . S
C1074 C1066 1.574 . S
C1074 H1069 0.949 . S
C1074 C1080 1.368 . S
C1075 C1059 1.349 . S
C1075 H1067 0.950 . S
C1075 C1073 1.327 . S
C1076 C1064 1.349 . S
C1076 H1070 0.950 . S
C1076 C1077 1.327 . S
C1077 H1071 0.950 . S
C1077 C1076 1.327 . S
C1077 C1081 1.429 . S
C1078 C1061 1.574 . S
C1078 H1072 0.949 . S
C1078 C1082 1.368 . S
C1079 C1060 1.429 . S
C1079 C1073 1.429 . S
C1079 C1080 1.523 . S
C1080 C1061 1.368 . S
C1080 C1074 1.368 . S
C1080 C1079 1.523 . S
C1081 C1065 1.429 . S
C1081 C1077 1.429 . S
C1081 C1082 1.523 . S
C1082 C1066 1.368 . S
C1082 C1078 1.368 . S
C1082 C1081 1.523 . S
H1083 C1058 0.950 . S
H1084 C1060 0.950 . S
H1085 C1061 0.949 . S
H1086 C1063 0.950 . S
H1087 C1065 0.950 . S
C1088 C1089 1.349 . S
C1088 C1090 1.327 . S
C1088 H1113 0.950 . S
C1089 C1088 1.349 . S
C1089 C1105 1.349 . S
C1090 C1088 1.327 . S
C1090 C1109 1.429 . S
C1090 H1114 0.950 . S
C1091 C1108 1.574 . S
C1091 C1110 1.368 . S
C1091 H1115 0.949 . S
H1092 C1096 0.949 . S
C1093 C1094 1.349 . S
C1093 C1095 1.327 . S
C1093 H1116 0.950 . S
C1094 C1093 1.349 . S
C1094 C1106 1.349 . S
C1095 C1093 1.327 . S
C1095 C1111 1.429 . S
C1095 H1117 0.950 . S
C1096 H1092 0.949 . S
C1096 C1104 1.574 . S
C1096 C1112 1.368 . S
H1097 C1105 0.950 . S
H1098 C1103 0.950 . S
H1099 C1104 0.949 . S
H1100 C1106 0.950 . S
H1101 C1107 0.950 . S
H1102 C1108 0.949 . S
C1103 H1098 0.950 . S
C1103 C1105 1.327 . S
C1103 C1109 1.429 . S
C1104 C1096 1.574 . S
C1104 H1099 0.949 . S
C1104 C1110 1.368 . S
C1105 C1089 1.349 . S
C1105 H1097 0.950 . S
C1105 C1103 1.327 . S
C1106 C1094 1.349 . S
C1106 H1100 0.950 . S
C1106 C1107 1.327 . S
C1107 H1101 0.950 . S
C1107 C1106 1.327 . S
C1107 C1111 1.429 . S
C1108 C1091 1.574 . S
C1108 H1102 0.949 . S
C1108 C1112 1.368 . S
C1109 C1090 1.429 . S
C1109 C1103 1.429 . S
C1109 C1110 1.523 . S
C1110 C1091 1.368 . S
C1110 C1104 1.368 . S
C1110 C1109 1.523 . S
C1111 C1095 1.429 . S
C1111 C1107 1.429 . S
C1111 C1112 1.523 . S
C1112 C1096 1.368 . S
C1112 C1108 1.368 . S
C1112 C1111 1.523 . S
H1113 C1088 0.950 . S
H1114 C1090 0.950 . S
H1115 C1091 0.949 . S
H1116 C1093 0.950 . S
H1117 C1095 0.950 . S
C1118 C1119 1.349 . S
C1118 C1120 1.327 . S
C1118 H1143 0.950 . S
C1119 C1118 1.349 . S
C1119 C1135 1.349 . S
C1120 C1118 1.327 . S
C1120 C1139 1.429 . S
C1120 H1144 0.950 . S
C1121 C1138 1.574 . S
C1121 C1140 1.368 . S
C1121 H1145 0.949 . S
H1122 C1126 0.949 . S
C1123 C1124 1.349 1_545 S
C1123 C1125 1.339 . S
C1123 H1146 0.950 . S
C1124 C1123 1.349 1_565 S
C1124 C1136 1.349 . S
C1125 C1123 1.339 . S
C1125 C1141 1.378 1_545 S
C1125 H1147 0.993 . S
C1126 H1122 0.949 . S
C1126 C1134 1.574 . S
C1126 C1142 1.368 . S
H1127 C1135 0.950 . S
H1128 C1133 0.950 . S
H1129 C1134 0.949 . S
H1130 C1136 0.950 . S
H1131 C1137 0.950 . S
H1132 C1138 0.949 1_545 S
C1133 H1128 0.950 . S
C1133 C1135 1.327 . S
C1133 C1139 1.429 . S
C1134 C1126 1.574 . S
C1134 H1129 0.949 . S
C1134 C1140 1.368 . S
C1135 C1119 1.349 . S
C1135 H1127 0.950 . S
C1135 C1133 1.327 . S
C1136 C1124 1.349 . S
C1136 H1130 0.950 . S
C1136 C1137 1.327 . S
C1137 H1131 0.950 . S
C1137 C1136 1.327 . S
C1137 C1141 1.429 . S
C1138 C1121 1.574 . S
C1138 H1132 0.949 1_565 S
C1138 C1142 1.368 . S
C1139 C1120 1.429 . S
C1139 C1133 1.429 . S
C1139 C1140 1.523 . S
C1140 C1121 1.368 . S
C1140 C1134 1.368 . S
C1140 C1139 1.523 . S
C1141 C1125 1.378 1_565 S
C1141 C1137 1.429 . S
C1141 C1142 1.523 . S
C1142 C1126 1.368 . S
C1142 C1138 1.368 . S
C1142 C1141 1.523 . S
H1143 C1118 0.950 . S
H1144 C1120 0.950 . S
H1145 C1121 0.949 . S
H1146 C1123 0.950 . S
H1147 C1125 0.993 . S
C1148 C1149 1.349 . S
C1148 C1150 1.327 . S
C1148 H1173 0.950 . S
C1149 C1148 1.349 . S
C1149 C1165 1.349 . S
C1150 C1148 1.327 . S
C1150 C1169 1.429 . S
C1150 H1174 0.950 . S
C1151 C1168 1.574 . S
C1151 C1170 1.368 . S
C1151 H1175 0.949 . S
H1152 C1156 0.949 . S
C1153 C1154 1.349 . S
C1153 C1155 1.327 . S
C1153 H1176 0.950 . S
C1154 C1153 1.349 . S
C1154 C1166 1.349 . S
C1155 C1153 1.327 . S
C1155 C1171 1.429 . S
C1155 H1177 0.950 . S
C1156 H1152 0.949 . S
C1156 C1164 1.574 . S
C1156 C1172 1.368 . S
H1157 C1165 0.950 . S
H1158 C1163 0.950 . S
H1159 C1164 0.949 . S
H1160 C1166 0.950 . S
H1161 C1167 0.950 . S
H1162 C1168 0.949 . S
C1163 H1158 0.950 . S
C1163 C1165 1.327 . S
C1163 C1169 1.429 . S
C1164 C1156 1.574 . S
C1164 H1159 0.949 . S
C1164 C1170 1.368 . S
C1165 C1149 1.349 . S
C1165 H1157 0.950 . S
C1165 C1163 1.327 . S
C1166 C1154 1.349 . S
C1166 H1160 0.950 . S
C1166 C1167 1.327 . S
C1167 H1161 0.950 . S
C1167 C1166 1.327 . S
C1167 C1171 1.429 . S
C1168 C1151 1.574 . S
C1168 H1162 0.949 . S
C1168 C1172 1.368 . S
C1169 C1150 1.429 . S
C1169 C1163 1.429 . S
C1169 C1170 1.523 . S
C1170 C1151 1.368 . S
C1170 C1164 1.368 . S
C1170 C1169 1.523 . S
C1171 C1155 1.429 . S
C1171 C1167 1.429 . S
C1171 C1172 1.523 . S
C1172 C1156 1.368 . S
C1172 C1168 1.368 . S
C1172 C1171 1.523 . S
H1173 C1148 0.950 . S
H1174 C1150 0.950 . S
H1175 C1151 0.949 . S
H1176 C1153 0.950 . S
H1177 C1155 0.950 . S
C1178 C1179 1.349 . S
C1178 C1180 1.327 . S
C1178 H1203 0.950 . S
C1179 C1178 1.349 . S
C1179 C1195 1.349 . S
C1180 C1178 1.327 . S
C1180 C1199 1.429 . S
C1180 H1204 0.950 . S
C1181 C1198 1.574 . S
C1181 C1200 1.368 . S
C1181 H1205 0.949 . S
H1182 C1186 0.949 . S
C1183 C1184 1.349 . S
C1183 C1185 1.327 . S
C1183 H1206 0.950 . S
C1184 C1183 1.349 . S
C1184 C1196 1.349 . S
C1185 C1183 1.327 . S
C1185 C1201 1.429 . S
C1185 H1207 0.950 . S
C1186 H1182 0.949 . S
C1186 C1194 1.574 . S
C1186 C1202 1.368 . S
H1187 C1195 0.950 . S
H1188 C1193 0.950 . S
H1189 C1194 0.949 . S
H1190 C1196 0.950 . S
H1191 C1197 0.950 . S
H1192 C1198 0.949 . S
C1193 H1188 0.950 . S
C1193 C1195 1.327 . S
C1193 C1199 1.429 . S
C1194 C1186 1.574 . S
C1194 H1189 0.949 . S
C1194 C1200 1.368 . S
C1195 C1179 1.349 . S
C1195 H1187 0.950 . S
C1195 C1193 1.327 . S
C1196 C1184 1.349 . S
C1196 H1190 0.950 . S
C1196 C1197 1.327 . S
C1197 H1191 0.950 . S
C1197 C1196 1.327 . S
C1197 C1201 1.429 . S
C1198 C1181 1.574 . S
C1198 H1192 0.949 . S
C1198 C1202 1.368 . S
C1199 C1180 1.429 . S
C1199 C1193 1.429 . S
C1199 C1200 1.523 . S
C1200 C1181 1.368 . S
C1200 C1194 1.368 . S
C1200 C1199 1.523 . S
C1201 C1185 1.429 . S
C1201 C1197 1.429 . S
C1201 C1202 1.523 . S
C1202 C1186 1.368 . S
C1202 C1198 1.368 . S
C1202 C1201 1.523 . S
H1203 C1178 0.950 . S
H1204 C1180 0.950 . S
H1205 C1181 0.949 . S
H1206 C1183 0.950 . S
H1207 C1185 0.950 . S
C489 C125 1.824 . S
C494 C227 1.880 . S
C524 C311 1.912 . S
C519 C144 1.844 . S
C554 C387 1.930 . S
C549 C87 1.953 . S
C584 C471 1.902 . S
C579 C106 1.934 . S
C614 C218 1.880 1_565 S
C609 C49 1.919 . S
C639 C68 1.949 . S
C644 C302 1.912 . S
C669 C11 2.066 . S
C674 C376 1.930 . S
C699 C30 2.039 . S
C704 C460 1.902 . S
C734 C215 0.584 . S
C729 C97 0.571 . S
C764 C299 0.563 . S
C759 C116 0.543 . S
C794 C392 0.540 . S
C789 C135 0.528 . S
C819 C78 0.554 . S
C824 C476 0.561 . S
C849 C21 0.570 . S
C854 C224 0.585 . S
C884 C308 0.563 . S
C879 C40 0.541 . S
C914 C383 0.540 . S
C909 C59 0.526 . S
C939 C2 0.552 . S
C944 C467 0.560 . S
C969 C101 1.983 . S
C974 C208 2.006 . S
C999 C120 1.947 . S
C1004 C292 1.969 . S
C1034 C386 1.975 . S
C1029 C139 1.849 . S
C1064 C470 2.010 . S
C1059 C82 1.882 . S
C1089 C25 1.988 . S
C1094 C219 2.006 . S
C1124 C303 1.969 1_565 S
C1119 C44 1.951 . S
C1154 C395 1.975 . S
C1149 C63 1.854 . S
C1179 C6 1.887 . S
C1184 C479 2.010 . S
