# Generated by pormake.
# Topology ptr, (4,4)-cn, num edge types: 1
# Building blocks:
#     Node 0, Type 0, BuildingBlock: CEKHIL_clean_sbu_0, # of connection points: 4
#     Node 1, Type 0, BuildingBlock: CEKHIL_clean_sbu_0, # of connection points: 4
#     Node 2, Type 0, BuildingBlock: CEKHIL_clean_sbu_0, # of connection points: 4
#     Node 3, Type 0, BuildingBlock: CEKHIL_clean_sbu_0, # of connection points: 4
#     Node 4, Type 0, BuildingBlock: CEKHIL_clean_sbu_0, # of connection points: 4
#     Node 5, Type 0, BuildingBlock: CEKHIL_clean_sbu_0, # of connection points: 4
#     Node 6, Type 0, BuildingBlock: CEKHIL_clean_sbu_0, # of connection points: 4
#     Node 7, Type 0, BuildingBlock: CEKHIL_clean_sbu_0, # of connection points: 4
#     Node 8, Type 0, BuildingBlock: CEKHIL_clean_sbu_0, # of connection points: 4
#     Node 9, Type 0, BuildingBlock: CEKHIL_clean_sbu_0, # of connection points: 4
#     Node 10, Type 0, BuildingBlock: CEKHIL_clean_sbu_0, # of connection points: 4
#     Node 11, Type 0, BuildingBlock: CEKHIL_clean_sbu_0, # of connection points: 4
#     Node 12, Type 0, BuildingBlock: CEKHIL_clean_sbu_0, # of connection points: 4
#     Node 13, Type 0, BuildingBlock: CEKHIL_clean_sbu_0, # of connection points: 4
#     Node 14, Type 0, BuildingBlock: CEKHIL_clean_sbu_0, # of connection points: 4
#     Node 15, Type 0, BuildingBlock: CEKHIL_clean_sbu_0, # of connection points: 4
#     Node 16, Type 0, BuildingBlock: CEKHIL_clean_sbu_0, # of connection points: 4
#     Node 17, Type 0, BuildingBlock: CEKHIL_clean_sbu_0, # of connection points: 4
#     Node 18, Type 1, BuildingBlock: AZAVOO_clean_linker_0, # of connection points: 4
#     Node 19, Type 1, BuildingBlock: AZAVOO_clean_linker_0, # of connection points: 4
#     Node 20, Type 1, BuildingBlock: AZAVOO_clean_linker_0, # of connection points: 4
#     Node 21, Type 1, BuildingBlock: AZAVOO_clean_linker_0, # of connection points: 4
#     Node 22, Type 1, BuildingBlock: AZAVOO_clean_linker_0, # of connection points: 4
#     Node 23, Type 1, BuildingBlock: AZAVOO_clean_linker_0, # of connection points: 4
#     Node 24, Type 1, BuildingBlock: AZAVOO_clean_linker_0, # of connection points: 4
#     Node 25, Type 1, BuildingBlock: AZAVOO_clean_linker_0, # of connection points: 4
#     Node 26, Type 1, BuildingBlock: AZAVOO_clean_linker_0, # of connection points: 4
#     Node 27, Type 1, BuildingBlock: AZAVOO_clean_linker_0, # of connection points: 4
#     Node 28, Type 1, BuildingBlock: AZAVOO_clean_linker_0, # of connection points: 4
#     Node 29, Type 1, BuildingBlock: AZAVOO_clean_linker_0, # of connection points: 4
#     Node 30, Type 1, BuildingBlock: AZAVOO_clean_linker_0, # of connection points: 4
#     Node 31, Type 1, BuildingBlock: AZAVOO_clean_linker_0, # of connection points: 4
#     Node 32, Type 1, BuildingBlock: AZAVOO_clean_linker_0, # of connection points: 4
#     Node 33, Type 1, BuildingBlock: AZAVOO_clean_linker_0, # of connection points: 4
#     Node 34, Type 1, BuildingBlock: AZAVOO_clean_linker_0, # of connection points: 4
#     Node 35, Type 1, BuildingBlock: AZAVOO_clean_linker_0, # of connection points: 4
#     Edge 36, Type (0, 1), BuildingBlock: MIFKUJ_clean_linker_0, # of connection points: 2
#     Edge 37, Type (0, 1), BuildingBlock: MIFKUJ_clean_linker_0, # of connection points: 2
#     Edge 38, Type (0, 1), BuildingBlock: MIFKUJ_clean_linker_0, # of connection points: 2
#     Edge 39, Type (0, 1), BuildingBlock: MIFKUJ_clean_linker_0, # of connection points: 2
#     Edge 40, Type (0, 1), BuildingBlock: MIFKUJ_clean_linker_0, # of connection points: 2
#     Edge 41, Type (0, 1), BuildingBlock: MIFKUJ_clean_linker_0, # of connection points: 2
#     Edge 42, Type (0, 1), BuildingBlock: MIFKUJ_clean_linker_0, # of connection points: 2
#     Edge 43, Type (0, 1), BuildingBlock: MIFKUJ_clean_linker_0, # of connection points: 2
#     Edge 44, Type (0, 1), BuildingBlock: MIFKUJ_clean_linker_0, # of connection points: 2
#     Edge 45, Type (0, 1), BuildingBlock: MIFKUJ_clean_linker_0, # of connection points: 2
#     Edge 46, Type (0, 1), BuildingBlock: MIFKUJ_clean_linker_0, # of connection points: 2
#     Edge 47, Type (0, 1), BuildingBlock: MIFKUJ_clean_linker_0, # of connection points: 2
#     Edge 48, Type (0, 1), BuildingBlock: MIFKUJ_clean_linker_0, # of connection points: 2
#     Edge 49, Type (0, 1), BuildingBlock: MIFKUJ_clean_linker_0, # of connection points: 2
#     Edge 50, Type (0, 1), BuildingBlock: MIFKUJ_clean_linker_0, # of connection points: 2
#     Edge 51, Type (0, 1), BuildingBlock: MIFKUJ_clean_linker_0, # of connection points: 2
#     Edge 52, Type (0, 1), BuildingBlock: MIFKUJ_clean_linker_0, # of connection points: 2
#     Edge 53, Type (0, 1), BuildingBlock: MIFKUJ_clean_linker_0, # of connection points: 2
#     Edge 54, Type (0, 1), BuildingBlock: MIFKUJ_clean_linker_0, # of connection points: 2
#     Edge 55, Type (0, 1), BuildingBlock: MIFKUJ_clean_linker_0, # of connection points: 2
#     Edge 56, Type (0, 1), BuildingBlock: MIFKUJ_clean_linker_0, # of connection points: 2
#     Edge 57, Type (0, 1), BuildingBlock: MIFKUJ_clean_linker_0, # of connection points: 2
#     Edge 58, Type (0, 1), BuildingBlock: MIFKUJ_clean_linker_0, # of connection points: 2
#     Edge 59, Type (0, 1), BuildingBlock: MIFKUJ_clean_linker_0, # of connection points: 2
#     Edge 60, Type (0, 1), BuildingBlock: MIFKUJ_clean_linker_0, # of connection points: 2
#     Edge 61, Type (0, 1), BuildingBlock: MIFKUJ_clean_linker_0, # of connection points: 2
#     Edge 62, Type (0, 1), BuildingBlock: MIFKUJ_clean_linker_0, # of connection points: 2
#     Edge 63, Type (0, 1), BuildingBlock: MIFKUJ_clean_linker_0, # of connection points: 2
#     Edge 64, Type (0, 1), BuildingBlock: MIFKUJ_clean_linker_0, # of connection points: 2
#     Edge 65, Type (0, 1), BuildingBlock: MIFKUJ_clean_linker_0, # of connection points: 2
#     Edge 66, Type (0, 1), BuildingBlock: MIFKUJ_clean_linker_0, # of connection points: 2
#     Edge 67, Type (0, 1), BuildingBlock: MIFKUJ_clean_linker_0, # of connection points: 2
#     Edge 68, Type (0, 1), BuildingBlock: MIFKUJ_clean_linker_0, # of connection points: 2
#     Edge 69, Type (0, 1), BuildingBlock: MIFKUJ_clean_linker_0, # of connection points: 2
#     Edge 70, Type (0, 1), BuildingBlock: MIFKUJ_clean_linker_0, # of connection points: 2
#     Edge 71, Type (0, 1), BuildingBlock: MIFKUJ_clean_linker_0, # of connection points: 2
#     Edge 72, Type (0, 1), BuildingBlock: MIFKUJ_clean_linker_0, # of connection points: 2
#     Edge 73, Type (0, 1), BuildingBlock: MIFKUJ_clean_linker_0, # of connection points: 2
#     Edge 74, Type (0, 1), BuildingBlock: MIFKUJ_clean_linker_0, # of connection points: 2
#     Edge 75, Type (0, 1), BuildingBlock: MIFKUJ_clean_linker_0, # of connection points: 2
#     Edge 76, Type (0, 1), BuildingBlock: MIFKUJ_clean_linker_0, # of connection points: 2
#     Edge 77, Type (0, 1), BuildingBlock: MIFKUJ_clean_linker_0, # of connection points: 2
#     Edge 78, Type (0, 1), BuildingBlock: MIFKUJ_clean_linker_0, # of connection points: 2
#     Edge 79, Type (0, 1), BuildingBlock: MIFKUJ_clean_linker_0, # of connection points: 2
#     Edge 80, Type (0, 1), BuildingBlock: MIFKUJ_clean_linker_0, # of connection points: 2
#     Edge 81, Type (0, 1), BuildingBlock: MIFKUJ_clean_linker_0, # of connection points: 2
#     Edge 82, Type (0, 1), BuildingBlock: MIFKUJ_clean_linker_0, # of connection points: 2
#     Edge 83, Type (0, 1), BuildingBlock: MIFKUJ_clean_linker_0, # of connection points: 2
#     Edge 84, Type (0, 1), BuildingBlock: MIFKUJ_clean_linker_0, # of connection points: 2
#     Edge 85, Type (0, 1), BuildingBlock: MIFKUJ_clean_linker_0, # of connection points: 2
#     Edge 86, Type (0, 1), BuildingBlock: MIFKUJ_clean_linker_0, # of connection points: 2
#     Edge 87, Type (0, 1), BuildingBlock: MIFKUJ_clean_linker_0, # of connection points: 2
#     Edge 88, Type (0, 1), BuildingBlock: MIFKUJ_clean_linker_0, # of connection points: 2
#     Edge 89, Type (0, 1), BuildingBlock: MIFKUJ_clean_linker_0, # of connection points: 2
#     Edge 90, Type (0, 1), BuildingBlock: MIFKUJ_clean_linker_0, # of connection points: 2
#     Edge 91, Type (0, 1), BuildingBlock: MIFKUJ_clean_linker_0, # of connection points: 2
#     Edge 92, Type (0, 1), BuildingBlock: MIFKUJ_clean_linker_0, # of connection points: 2
#     Edge 93, Type (0, 1), BuildingBlock: MIFKUJ_clean_linker_0, # of connection points: 2
#     Edge 94, Type (0, 1), BuildingBlock: MIFKUJ_clean_linker_0, # of connection points: 2
#     Edge 95, Type (0, 1), BuildingBlock: MIFKUJ_clean_linker_0, # of connection points: 2
#     Edge 96, Type (0, 1), BuildingBlock: MIFKUJ_clean_linker_0, # of connection points: 2
#     Edge 97, Type (0, 1), BuildingBlock: MIFKUJ_clean_linker_0, # of connection points: 2
#     Edge 98, Type (0, 1), BuildingBlock: MIFKUJ_clean_linker_0, # of connection points: 2
#     Edge 99, Type (0, 1), BuildingBlock: MIFKUJ_clean_linker_0, # of connection points: 2
#     Edge 100, Type (0, 1), BuildingBlock: MIFKUJ_clean_linker_0, # of connection points: 2
#     Edge 101, Type (0, 1), BuildingBlock: MIFKUJ_clean_linker_0, # of connection points: 2
#     Edge 102, Type (0, 1), BuildingBlock: MIFKUJ_clean_linker_0, # of connection points: 2
#     Edge 103, Type (0, 1), BuildingBlock: MIFKUJ_clean_linker_0, # of connection points: 2
#     Edge 104, Type (0, 1), BuildingBlock: MIFKUJ_clean_linker_0, # of connection points: 2
#     Edge 105, Type (0, 1), BuildingBlock: MIFKUJ_clean_linker_0, # of connection points: 2
#     Edge 106, Type (0, 1), BuildingBlock: MIFKUJ_clean_linker_0, # of connection points: 2
#     Edge 107, Type (0, 1), BuildingBlock: MIFKUJ_clean_linker_0, # of connection points: 2
# Relax obj value: 0.048
# Max RMSD: 0.178
# Mean RMSD: 0.118
data_MOF--net-ptr--node1-CEKHIL_clean_sbu_0--node2-AZAVOO_clean_linker_0--edge1-MIFKUJ_clean_linker_0
_symmetry_space_group_name_H-M    P1
_symmetry_Int_Tables_number       1
_symmetry_cell_setting            triclinic
loop_
_symmetry_equiv_pos_as_xyz
'x, y, z'
_cell_length_a     102.68291
_cell_length_b     99.941859
_cell_length_c     86.876083
_cell_angle_alpha  93.183449
_cell_angle_beta   91.621659
_cell_angle_gamma 121.18642
loop_
_atom_site_label
_atom_site_type_symbol
_atom_site_fract_x
_atom_site_fract_y
_atom_site_fract_z
_atom_type_partial_charge
Co0 Co 0.00851 0.3502 0.01286 0.0
O1 O 0.01276 0.33968 0.02822 0.0
O2 O 0.02999 0.36239 0.01983 0.0
C3 C 0.99448 0.32884 0.9963 0.0
O4 O 0.00809 0.36398 0.99655 0.0
Co5 Co 0.97476 0.3407 0.00566 0.0
O6 O 0.98356 0.35407 0.9883 0.0
C7 C 0.99147 0.36052 0.034 0.0
C8 C 0.02681 0.35119 0.02879 0.0
C9 C 0.9978 0.36369 0.98741 0.0
O10 O 0.00383 0.36182 0.02935 0.0
O11 O 0.97837 0.35151 0.02687 0.0
O12 O 0.00928 0.33638 0.99653 0.0
O13 O 0.98887 0.33343 0.00701 0.0
Co14 Co 0.64285 0.63367 0.05572 0.0
O15 O 0.65672 0.64424 0.0402 0.0
O16 O 0.6526 0.62222 0.04937 0.0
C17 C 0.65064 0.65529 0.0718 0.0
O18 O 0.62976 0.6199 0.07218 0.0
Co19 Co 0.61835 0.64213 0.06321 0.0
O20 O 0.61481 0.62877 0.08052 0.0
C21 C 0.61485 0.62338 0.03432 0.0
C22 C 0.65992 0.63328 0.04017 0.0
C23 C 0.62003 0.61968 0.08136 0.0
O24 O 0.62571 0.62151 0.03921 0.0
O25 O 0.61126 0.63245 0.04147 0.0
O26 O 0.65808 0.64802 0.07199 0.0
O27 O 0.63977 0.65011 0.06113 0.0
Co28 Co 0.36747 0.99851 0.01755 0.0
O29 O 0.35566 0.00303 0.00369 0.0
O30 O 0.3782 0.02085 0.015 0.0
C31 C 0.3481 0.98306 0.03194 0.0
O32 O 0.38261 0.99811 0.03302 0.0
Co33 Co 0.35999 0.96432 0.01794 0.0
O34 O 0.37529 0.97293 0.03574 0.0
C35 C 0.37659 0.9828 0.99246 0.0
C36 C 0.36653 0.01762 0.0058 0.0
C37 C 0.38406 0.98759 0.03943 0.0
O38 O 0.37759 0.99499 0.99951 0.0
O39 O 0.36904 0.96911 0.99733 0.0
O40 O 0.35549 0.99822 0.03459 0.0
O41 O 0.35164 0.97781 0.01983 0.0
Co42 Co 0.99675 0.65362 0.0458 0.0
O43 O 0.99255 0.66528 0.03182 0.0
O44 O 0.97541 0.64165 0.03839 0.0
C45 C 0.01016 0.6736 0.06403 0.0
O46 O 0.99706 0.63847 0.06038 0.0
Co47 Co 0.03047 0.66317 0.05287 0.0
O48 O 0.02152 0.64685 0.06774 0.0
C49 C 0.01452 0.64552 0.02334 0.0
C50 C 0.97858 0.65355 0.03048 0.0
C51 C 0.00721 0.63737 0.06833 0.0
O52 O 0.002 0.64372 0.02809 0.0
O53 O 0.02742 0.65407 0.03096 0.0
O54 O 0.99534 0.66563 0.06349 0.0
O55 O 0.01619 0.6703 0.05272 0.0
Co56 Co 0.36223 0.36569 0.00049 0.0
O57 O 0.34767 0.35241 0.01444 0.0
O58 O 0.35204 0.37578 0.00919 0.0
C59 C 0.35557 0.34667 0.98141 0.0
O60 O 0.37573 0.38242 0.9863 0.0
Co61 Co 0.38797 0.36025 0.9902 0.0
O62 O 0.39242 0.37678 0.97614 0.0
C63 C 0.39078 0.37551 0.02112 0.0
C64 C 0.34442 0.36329 0.01662 0.0
C65 C 0.38642 0.38518 0.97727 0.0
O66 O 0.37854 0.37565 0.01796 0.0
O67 O 0.396 0.3692 0.01196 0.0
O68 O 0.34779 0.35354 0.98291 0.0
O69 O 0.36621 0.35058 0.9921 0.0
Co70 Co 0.63531 0.00438 0.04152 0.0
O71 O 0.6466 -0.0001 0.0561 0.0
O72 O 0.62444 0.98203 0.04398 0.0
C73 C 0.65512 0.01967 0.0277 0.0
O74 O 0.62076 0.00473 0.02529 0.0
Co75 Co 0.64267 0.03835 0.0404 0.0
O76 O 0.62837 0.02981 0.02174 0.0
C77 C 0.62557 0.02018 0.06581 0.0
C78 C 0.63581 0.98531 0.05367 0.0
C79 C 0.61971 0.01513 0.01816 0.0
O80 O 0.62459 0.00794 0.05891 0.0
O81 O 0.63335 0.03385 0.06092 0.0
O82 O 0.64772 0.00451 0.02509 0.0
O83 O 0.65137 0.02512 0.03951 0.0
Co84 Co 0.67348 0.68989 0.34868 0.0
O85 O 0.67516 0.6797 0.36609 0.0
O86 O 0.69435 0.70092 0.35724 0.0
C87 C 0.65954 0.66791 0.33289 0.0
O88 O 0.67623 0.70329 0.33078 0.0
Co89 Co 0.6419 0.68314 0.33584 0.0
O90 O 0.65344 0.69428 0.31814 0.0
C91 C 0.6563 0.70331 0.3648 0.0
C92 C 0.6896 0.6903 0.36714 0.0
C93 C 0.66792 0.70313 0.3193 0.0
O94 O 0.66865 0.70333 0.36262 0.0
O95 O 0.64401 0.695 0.35612 0.0
O96 O 0.67426 0.67445 0.33457 0.0
O97 O 0.65371 0.67399 0.34172 0.0
Co98 Co 0.3129 0.96861 0.39408 0.0
O99 O 0.32716 0.97778 0.3785 0.0
O100 O 0.32006 0.95483 0.38755 0.0
C101 C 0.32295 0.99062 0.41007 0.0
O102 O 0.29908 0.95581 0.41058 0.0
Co103 Co 0.29118 0.98052 0.40211 0.0
O104 O 0.28649 0.96716 0.41963 0.0
C105 C 0.28542 0.96111 0.37306 0.0
C106 C 0.32835 0.96547 0.37832 0.0
C107 C 0.29025 0.95686 0.42015 0.0
O108 O 0.29553 0.95803 0.37768 0.0
O109 O 0.28296 0.97093 0.3805 0.0
O110 O 0.32884 0.98183 0.41024 0.0
O111 O 0.31214 0.98651 0.39955 0.0
Co112 Co 0.04234 0.3332 0.35119 0.0
O113 O 0.03086 0.3363 0.33545 0.0
O114 O 0.05347 0.35479 0.34612 0.0
C115 C 0.0226 0.31977 0.36591 0.0
O116 O 0.0572 0.33473 0.3683 0.0
Co117 Co 0.03515 0.30001 0.35761 0.0
O118 O 0.04765 0.3109 0.37711 0.0
C119 C 0.05159 0.31443 0.33021 0.0
C120 C 0.0419 0.35088 0.33649 0.0
C121 C 0.0571 0.32566 0.37831 0.0
O122 O 0.05249 0.32734 0.3349 0.0
O123 O 0.04438 0.30184 0.33716 0.0
O124 O 0.02999 0.335 0.36681 0.0
O125 O 0.02653 0.31314 0.35534 0.0
Co126 Co 0.66113 0.97868 0.37626 0.0
O127 O 0.65637 0.98608 0.35825 0.0
O128 O 0.63997 0.96452 0.36907 0.0
C129 C 0.67338 0.00194 0.39045 0.0
O130 O 0.66195 0.96769 0.39503 0.0
Co131 Co 0.69505 0.99168 0.38717 0.0
O132 O 0.686 0.98034 0.40572 0.0
C133 C 0.68114 0.96944 0.35948 0.0
C134 C 0.64267 0.97396 0.35825 0.0
C135 C 0.67187 0.96991 0.40587 0.0
O136 O 0.66783 0.96659 0.36274 0.0
O137 O 0.69351 0.98011 0.3669 0.0
O138 O 0.65857 0.99337 0.38981 0.0
O139 O 0.67999 0.99689 0.3815 0.0
Co140 Co 0.02662 0.70191 0.33664 0.0
O141 O 0.01149 0.68856 0.35007 0.0
O142 O 0.01558 0.71161 0.34399 0.0
C143 C 0.0213 0.68292 0.31798 0.0
O144 O 0.04067 0.7185 0.32265 0.0
Co145 Co 0.05323 0.6968 0.3291 0.0
O146 O 0.05812 0.713 0.31443 0.0
C147 C 0.05354 0.71141 0.35959 0.0
C148 C 0.00776 0.69912 0.35138 0.0
C149 C 0.05187 0.72118 0.31439 0.0
O150 O 0.04213 0.71244 0.35481 0.0
O151 O 0.05876 0.70431 0.35153 0.0
O152 O 0.01312 0.6894 0.31857 0.0
O153 O 0.03133 0.68706 0.32937 0.0
Co154 Co 0.29854 0.33721 0.37433 0.0
O155 O 0.31014 0.33427 0.38998 0.0
O156 O 0.28767 0.31551 0.37932 0.0
C157 C 0.31827 0.35065 0.35965 0.0
O158 O 0.28366 0.33578 0.35731 0.0
Co159 Co 0.30591 0.37045 0.36823 0.0
O160 O 0.29361 0.35969 0.34857 0.0
C161 C 0.28929 0.35584 0.3955 0.0
C162 C 0.29937 0.31961 0.38888 0.0
C163 C 0.28401 0.34497 0.34729 0.0
O164 O 0.28832 0.34293 0.39069 0.0
O165 O 0.29672 0.36852 0.38873 0.0
O166 O 0.31069 0.33542 0.35855 0.0
O167 O 0.31451 0.35731 0.37035 0.0
Co168 Co 0.34346 0.02267 0.67951 0.0
O169 O 0.34682 0.01316 0.69657 0.0
O170 O 0.3643 0.0357 0.68812 0.0
C171 C 0.33113 0.00037 0.66378 0.0
O172 O 0.34444 0.03578 0.66193 0.0
Co173 Co 0.31083 0.01235 0.6667 0.0
O174 O 0.32145 0.02447 0.64905 0.0
C175 C 0.3236 0.03247 0.69597 0.0
C176 C 0.36074 0.02502 0.6978 0.0
C177 C 0.33568 0.0347 0.65042 0.0
O178 O 0.33671 0.03415 0.69384 0.0
O179 O 0.31164 0.02335 0.6871 0.0
O180 O 0.34596 0.00862 0.66494 0.0
O181 O 0.32442 0.0053 0.67274 0.0
Co182 Co 0.9757 0.29916 0.72188 0.0
O183 O 0.98983 0.31095 0.70692 0.0
O184 O 0.98615 0.28868 0.71503 0.0
C185 C 0.9821 0.31958 0.73911 0.0
O186 O 0.96263 0.28415 0.73758 0.0
Co187 Co 0.94973 0.30529 0.72969 0.0
O188 O 0.94666 0.29146 0.74644 0.0
C189 C 0.94797 0.2887 0.69993 0.0
C190 C 0.99339 0.30023 0.70635 0.0
C191 C 0.95256 0.28295 0.74684 0.0
O192 O 0.9591 0.28727 0.70482 0.0
O193 O 0.9435 0.29678 0.70754 0.0
O194 O 0.99034 0.31318 0.73873 0.0
O195 O 0.97144 0.31456 0.72822 0.0
Co196 Co 0.70324 0.66375 0.68457 0.0
O197 O 0.69058 0.66672 0.67025 0.0
O198 O 0.71347 0.68555 0.6799 0.0
C199 C 0.68462 0.64965 0.70027 0.0
O200 O 0.7191 0.66507 0.70031 0.0
Co201 Co 0.6965 0.63018 0.68846 0.0
O202 O 0.71176 0.64061 0.70625 0.0
C203 C 0.71097 0.64572 0.66077 0.0
C204 C 0.70125 0.68141 0.67117 0.0
C205 C 0.7206 0.65546 0.70839 0.0
O206 O 0.71267 0.65861 0.66687 0.0
O207 O 0.70363 0.63269 0.66697 0.0
O208 O 0.69183 0.66488 0.70159 0.0
O209 O 0.68792 0.64347 0.68872 0.0
Co210 Co 0.33254 0.31522 0.70888 0.0
O211 O 0.32971 0.32574 0.6925 0.0
O212 O 0.31179 0.30279 0.69977 0.0
C213 C 0.34447 0.33646 0.72597 0.0
O214 O 0.3313 0.3012 0.72567 0.0
Co215 Co 0.36535 0.32526 0.72107 0.0
O216 O 0.35457 0.31173 0.73781 0.0
C217 C 0.35238 0.30581 0.69155 0.0
C218 C 0.31572 0.31406 0.69072 0.0
C219 C 0.3403 0.30163 0.7366 0.0
O220 O 0.3394 0.30436 0.6939 0.0
O221 O 0.36442 0.31461 0.70043 0.0
O222 O 0.32966 0.32837 0.7242 0.0
O223 O 0.35144 0.33231 0.7165 0.0
Co224 Co 0.69359 0.03517 0.6662 0.0
O225 O 0.68088 0.02511 0.68275 0.0
O226 O 0.68588 0.04785 0.6747 0.0
C227 C 0.6832 0.01343 0.64976 0.0
O228 O 0.70562 0.04889 0.6492 0.0
Co229 Co 0.71574 0.02541 0.65378 0.0
O230 O 0.71606 0.03718 0.636 0.0
C231 C 0.72351 0.04442 0.68366 0.0
C232 C 0.6788 0.03686 0.68401 0.0
C233 C 0.71247 0.04759 0.63755 0.0
O234 O 0.71207 0.04616 0.68122 0.0
O235 O 0.7263 0.03575 0.67463 0.0
O236 O 0.67666 0.02158 0.65109 0.0
O237 O 0.69503 0.01802 0.65906 0.0
Co238 Co 0.96146 0.66808 0.70711 0.0
O239 O 0.97203 0.66344 0.72245 0.0
O240 O 0.9493 0.64618 0.7111 0.0
C241 C 0.98164 0.68133 0.69287 0.0
O242 O 0.94742 0.66842 0.69026 0.0
Co243 Co 0.97103 0.70243 0.70276 0.0
O244 O 0.95758 0.69311 0.68354 0.0
C245 C 0.9536 0.68716 0.72937 0.0
C246 C 0.96055 0.6491 0.72076 0.0
C247 C 0.94773 0.67847 0.68139 0.0
O248 O 0.95169 0.67403 0.72377 0.0
O249 O 0.96187 0.70013 0.7233 0.0
O250 O 0.97348 0.66611 0.69124 0.0
O251 O 0.97818 0.68795 0.70388 0.0
H252 H 0.1785 0.35559 0.05904 0.0
H253 H 0.2435 0.29566 0.17657 0.0
H254 H 0.16739 0.35192 0.14011 0.0
H255 H 0.14901 0.35718 0.12803 0.0
H256 H 0.11302 0.3093 0.13288 0.0
H257 H 0.13184 0.30391 0.14397 0.0
H258 H 0.19247 0.35224 0.12393 0.0
H259 H 0.19045 0.35802 0.09728 0.0
H260 H 0.14989 0.31199 0.08807 0.0
H261 H 0.15217 0.30629 0.1147 0.0
H262 H 0.2145 0.34835 0.14471 0.0
H263 H 0.23504 0.35407 0.12764 0.0
H264 H 0.20501 0.31076 0.09982 0.0
H265 H 0.18452 0.30509 0.11707 0.0
H266 H 0.21012 0.33792 0.17853 0.0
H267 H 0.23058 0.33405 0.18778 0.0
H268 H 0.21165 0.29169 0.15716 0.0
H269 H 0.19113 0.29559 0.14818 0.0
H270 H 0.18226 0.33631 0.19401 0.0
H271 H 0.18894 0.33226 0.21983 0.0
H272 H 0.17874 0.28603 0.20334 0.0
H273 H 0.17184 0.2901 0.1775 0.0
H274 H 0.16108 0.34322 0.17703 0.0
H275 H 0.14422 0.34126 0.19723 0.0
H276 H 0.12337 0.2908 0.19348 0.0
H277 H 0.14072 0.29303 0.17369 0.0
O278 O 0.17912 0.35303 0.06951 0.0
O279 O 0.15827 0.32928 0.0654 0.0
O280 O 0.24479 0.31931 0.18869 0.0
O281 O 0.23558 0.29751 0.17307 0.0
C282 C 0.16276 0.3239 0.14778 0.0
C283 C 0.1737 0.32528 0.1374 0.0
C284 C 0.18569 0.3232 0.1424 0.0
C285 C 0.18642 0.31908 0.15753 0.0
C286 C 0.17521 0.31715 0.16776 0.0
C287 C 0.16343 0.31968 0.16292 0.0
C288 C 0.151 0.32749 0.14276 0.0
C289 C 0.15551 0.3426 0.13864 0.0
C290 C 0.14491 0.34561 0.13184 0.0
C291 C 0.12946 0.33365 0.12931 0.0
C292 C 0.12485 0.31872 0.13429 0.0
C293 C 0.13555 0.31565 0.14085 0.0
C294 C 0.17253 0.32881 0.12121 0.0
C295 C 0.18323 0.34338 0.1161 0.0
C296 C 0.18201 0.34667 0.10089 0.0
C297 C 0.17001 0.33546 0.09053 0.0
C298 C 0.15928 0.32088 0.09573 0.0
C299 C 0.16054 0.3176 0.11093 0.0
C300 C 0.19807 0.32632 0.1321 0.0
C301 C 0.2124 0.34009 0.13495 0.0
C302 C 0.22405 0.34338 0.12515 0.0
C303 C 0.22159 0.33288 0.11238 0.0
C304 C 0.20724 0.319 0.10964 0.0
C305 C 0.19554 0.31577 0.11941 0.0
C306 C 0.19913 0.317 0.16273 0.0
C307 C 0.21041 0.3278 0.17386 0.0
C308 C 0.22209 0.32557 0.1791 0.0
C309 C 0.22274 0.31254 0.17322 0.0
C310 C 0.21148 0.30184 0.16194 0.0
C311 C 0.19978 0.30406 0.15675 0.0
C312 C 0.17655 0.3135 0.18388 0.0
C313 C 0.18098 0.32511 0.19608 0.0
C314 C 0.1848 0.32278 0.21082 0.0
C315 C 0.18441 0.30884 0.21358 0.0
C316 C 0.17925 0.29692 0.20151 0.0
C317 C 0.17525 0.2992 0.1868 0.0
C318 C 0.15211 0.31827 0.17394 0.0
C319 C 0.15274 0.33175 0.18047 0.0
C320 C 0.14304 0.33057 0.19197 0.0
C321 C 0.13245 0.31586 0.19707 0.0
C322 C 0.13156 0.30233 0.19007 0.0
C323 C 0.14136 0.30355 0.17867 0.0
C324 C 0.16873 0.33901 0.07439 0.0
C325 C 0.23505 0.31005 0.17883 0.0
H326 H 0.65906 0.82076 0.07613 0.0
H327 H 0.72084 0.95742 0.19955 0.0
H328 H 0.66638 0.81783 0.15977 0.0
H329 H 0.66185 0.79199 0.15108 0.0
H330 H 0.7103 0.81011 0.15684 0.0
H331 H 0.71464 0.83589 0.16586 0.0
H332 H 0.66436 0.8425 0.14121 0.0
H333 H 0.6578 0.83256 0.114 0.0
H334 H 0.70316 0.84062 0.10993 0.0
H335 H 0.70962 0.8507 0.13712 0.0
H336 H 0.66901 0.87212 0.16429 0.0
H337 H 0.66213 0.88658 0.14738 0.0
H338 H 0.69968 0.89592 0.11958 0.0
H339 H 0.707 0.88195 0.13702 0.0
H340 H 0.67818 0.87923 0.1958 0.0
H341 H 0.68237 0.90481 0.20507 0.0
H342 H 0.72437 0.92769 0.18181 0.0
H343 H 0.72016 0.90201 0.17282 0.0
H344 H 0.67647 0.85202 0.20959 0.0
H345 H 0.67713 0.86339 0.2353 0.0
H346 H 0.72484 0.89837 0.23222 0.0
H347 H 0.72377 0.88718 0.20608 0.0
H348 H 0.67289 0.82364 0.19463 0.0
H349 H 0.67377 0.80587 0.21224 0.0
H350 H 0.72303 0.83469 0.21638 0.0
H351 H 0.72193 0.85268 0.19903 0.0
O352 O 0.66191 0.82479 0.08686 0.0
O353 O 0.68533 0.82903 0.08542 0.0
O354 O 0.69728 0.93481 0.2079 0.0
O355 O 0.71889 0.94715 0.19602 0.0
C356 C 0.69341 0.84431 0.16839 0.0
C357 C 0.69143 0.85333 0.15764 0.0
C358 C 0.69279 0.8677 0.16276 0.0
C359 C 0.6967 0.87327 0.17853 0.0
C360 C 0.69835 0.86405 0.18928 0.0
C361 C 0.69665 0.84956 0.18422 0.0
C362 C 0.69084 0.8287 0.16326 0.0
C363 C 0.67599 0.81618 0.15914 0.0
C364 C 0.67345 0.80147 0.15417 0.0
C365 C 0.68573 0.79903 0.15318 0.0
C366 C 0.70059 0.81157 0.15763 0.0
C367 C 0.70311 0.8263 0.16266 0.0
C368 C 0.68749 0.84741 0.14109 0.0
C369 C 0.67288 0.8422 0.13439 0.0
C370 C 0.66916 0.83648 0.11886 0.0
C371 C 0.67997 0.83581 0.10978 0.0
C372 C 0.69458 0.841 0.11658 0.0
C373 C 0.6983 0.84675 0.1321 0.0
C374 C 0.68864 0.87618 0.15203 0.0
C375 C 0.67588 0.87744 0.15467 0.0
C376 C 0.67192 0.88561 0.145 0.0
C377 C 0.68043 0.89236 0.13228 0.0
C378 C 0.69296 0.89075 0.12933 0.0
C379 C 0.69713 0.88283 0.13925 0.0
C380 C 0.69896 0.88878 0.18379 0.0
C381 C 0.68834 0.88978 0.19282 0.0
C382 C 0.69073 0.90441 0.19804 0.0
C383 C 0.70375 0.91831 0.19422 0.0
C384 C 0.71426 0.91723 0.18499 0.0
C385 C 0.71187 0.90259 0.17982 0.0
C386 C 0.70005 0.86882 0.206 0.0
C387 C 0.68717 0.86186 0.21467 0.0
C388 C 0.6876 0.86839 0.22941 0.0
C389 C 0.70101 0.88195 0.23583 0.0
C390 C 0.71424 0.88815 0.22751 0.0
C391 C 0.71373 0.88169 0.21266 0.0
C392 C 0.69734 0.83938 0.19556 0.0
C393 C 0.68385 0.82614 0.19943 0.0
C394 C 0.6844 0.81595 0.20939 0.0
C395 C 0.69849 0.81875 0.2156 0.0
C396 C 0.712 0.83225 0.21191 0.0
C397 C 0.71142 0.84251 0.20198 0.0
C398 C 0.67596 0.82969 0.09329 0.0
C399 C 0.70639 0.93388 0.19981 0.0
H400 H 0.13982 0.84601 0.06627 0.0
H401 H 0.27299 0.94595 0.1814 0.0
H402 H 0.13383 0.85319 0.14881 0.0
H403 H 0.10969 0.82839 0.14211 0.0
H404 H 0.1293 0.80302 0.16083 0.0
H405 H 0.15323 0.82777 0.16751 0.0
H406 H 0.16176 0.87846 0.12806 0.0
H407 H 0.15227 0.86865 0.10118 0.0
H408 H 0.15448 0.82734 0.10818 0.0
H409 H 0.16413 0.83738 0.13498 0.0
H410 H 0.1948 0.90699 0.14296 0.0
H411 H 0.21405 0.91984 0.12416 0.0
H412 H 0.21582 0.87772 0.11635 0.0
H413 H 0.19657 0.86502 0.13503 0.0
H414 H 0.19736 0.91257 0.18085 0.0
H415 H 0.22296 0.93558 0.18674 0.0
H416 H 0.24255 0.90873 0.16992 0.0
H417 H 0.2169 0.88577 0.16428 0.0
H418 H 0.17213 0.88936 0.20359 0.0
H419 H 0.1831 0.89772 0.23028 0.0
H420 H 0.21485 0.88266 0.22049 0.0
H421 H 0.20333 0.87369 0.19419 0.0
H422 H 0.14087 0.86348 0.18641 0.0
H423 H 0.1241 0.84922 0.20664 0.0
H424 H 0.15171 0.82915 0.21645 0.0
H425 H 0.16868 0.84398 0.19669 0.0
O426 O 0.1436 0.84968 0.07693 0.0
O427 O 0.14487 0.82863 0.08115 0.0
O428 O 0.2521 0.95028 0.18785 0.0
O429 O 0.26274 0.93702 0.17922 0.0
C430 C 0.16015 0.85705 0.16198 0.0
C431 C 0.16932 0.86464 0.14975 0.0
C432 C 0.18412 0.87792 0.15303 0.0
C433 C 0.1897 0.88363 0.16853 0.0
C434 C 0.18054 0.87598 0.18074 0.0
C435 C 0.16569 0.86286 0.17745 0.0
C436 C 0.14523 0.84224 0.15866 0.0
C437 C 0.13281 0.84226 0.15156 0.0
C438 C 0.11908 0.82811 0.14772 0.0
C439 C 0.11758 0.81374 0.15097 0.0
C440 C 0.12998 0.81387 0.15841 0.0
C441 C 0.14368 0.82799 0.16218 0.0
C442 C 0.16354 0.85859 0.13347 0.0
C443 C 0.1602 0.8673 0.12374 0.0
C444 C 0.15477 0.86166 0.10841 0.0
C445 C 0.15258 0.84719 0.10254 0.0
C446 C 0.156 0.83851 0.11234 0.0
C447 C 0.16146 0.84419 0.12766 0.0
C448 C 0.19431 0.88509 0.14034 0.0
C449 C 0.1992 0.90051 0.13699 0.0
C450 C 0.21024 0.90783 0.12634 0.0
C451 C 0.2165 0.89982 0.11882 0.0
C452 C 0.21109 0.88415 0.12177 0.0
C453 C 0.20011 0.87687 0.13246 0.0
C454 C 0.20529 0.89755 0.17205 0.0
C455 C 0.2072 0.9117 0.17847 0.0
C456 C 0.22183 0.92481 0.1818 0.0
C457 C 0.23481 0.92401 0.17876 0.0
C458 C 0.23281 0.90977 0.17237 0.0
C459 C 0.21818 0.89665 0.16909 0.0
C460 C 0.18699 0.88099 0.19697 0.0
C461 C 0.18137 0.88776 0.20731 0.0
C462 C 0.18773 0.89264 0.22249 0.0
C463 C 0.19988 0.89089 0.22754 0.0
C464 C 0.20536 0.88397 0.21711 0.0
C465 C 0.19892 0.87899 0.20201 0.0
C466 C 0.15599 0.85478 0.19018 0.0
C467 C 0.14334 0.85612 0.1931 0.0
C468 C 0.13372 0.84787 0.20456 0.0
C469 C 0.13651 0.838 0.2132 0.0
C470 C 0.14934 0.83686 0.21028 0.0
C471 C 0.15903 0.84524 0.19893 0.0
C472 C 0.14679 0.84122 0.08625 0.0
C473 C 0.25037 0.93792 0.18224 0.0
H474 H 0.30241 0.17078 0.98253 0.0
H475 H 0.32816 0.06723 0.8648 0.0
H476 H 0.28664 0.16203 0.89814 0.0
H477 H 0.28769 0.18684 0.90414 0.0
H478 H 0.33459 0.21225 0.89172 0.0
H479 H 0.33311 0.18745 0.88518 0.0
H480 H 0.28971 0.13719 0.92142 0.0
H481 H 0.29091 0.14752 0.94799 0.0
H482 H 0.33566 0.18746 0.94186 0.0
H483 H 0.33439 0.17688 0.91541 0.0
H484 H 0.29323 0.10815 0.90806 0.0
H485 H 0.30059 0.09492 0.9262 0.0
H486 H 0.34613 0.13593 0.93194 0.0
H487 H 0.33852 0.1491 0.91416 0.0
H488 H 0.28793 0.10241 0.86918 0.0
H489 H 0.28919 0.07908 0.86211 0.0
H490 H 0.33661 0.10407 0.87906 0.0
H491 H 0.33524 0.12737 0.88588 0.0
H492 H 0.28729 0.12713 0.84578 0.0
H493 H 0.28819 0.11698 0.81974 0.0
H494 H 0.33429 0.12839 0.83134 0.0
H495 H 0.33356 0.13935 0.85675 0.0
H496 H 0.28603 0.15741 0.8634 0.0
H497 H 0.28691 0.17504 0.84445 0.0
H498 H 0.33198 0.18558 0.83366 0.0
H499 H 0.33128 0.16864 0.8532 0.0
O500 O 0.30224 0.16682 0.97205 0.0
O501 O 0.32513 0.18721 0.96823 0.0
O502 O 0.30277 0.06374 0.85951 0.0
O503 O 0.32727 0.07618 0.86775 0.0
C504 C 0.30941 0.15811 0.88794 0.0
C505 C 0.31091 0.15023 0.90025 0.0
C506 C 0.31178 0.13672 0.89709 0.0
C507 C 0.3108 0.1309 0.88162 0.0
C508 C 0.30958 0.13898 0.86931 0.0
C509 C 0.30883 0.15257 0.87246 0.0
C510 C 0.3098 0.17302 0.89126 0.0
C511 C 0.29705 0.173 0.8966 0.0
C512 C 0.29772 0.18718 0.90006 0.0
C513 C 0.31122 0.20159 0.89839 0.0
C514 C 0.32389 0.20143 0.89283 0.0
C515 C 0.32315 0.18729 0.88922 0.0
C516 C 0.3119 0.15634 0.91648 0.0
C517 C 0.29978 0.14813 0.92588 0.0
C518 C 0.30049 0.15408 0.94103 0.0
C519 C 0.31336 0.16835 0.94703 0.0
C520 C 0.32556 0.17646 0.93759 0.0
C521 C 0.32485 0.17047 0.92247 0.0
C522 C 0.31534 0.12956 0.90982 0.0
C523 C 0.30468 0.11435 0.91353 0.0
C524 C 0.30897 0.10679 0.92378 0.0
C525 C 0.32402 0.1143 0.93042 0.0
C526 C 0.33442 0.12985 0.92721 0.0
C527 C 0.3301 0.1374 0.91703 0.0
C528 C 0.31145 0.11652 0.87816 0.0
C529 C 0.29855 0.10278 0.87144 0.0
C530 C 0.29931 0.08948 0.8674 0.0
C531 C 0.31302 0.08971 0.87001 0.0
C532 C 0.32588 0.10349 0.8769 0.0
C533 C 0.32511 0.11678 0.8809 0.0
C534 C 0.3103 0.13379 0.85318 0.0
C535 C 0.29764 0.12764 0.84253 0.0
C536 C 0.29815 0.12173 0.82773 0.0
C537 C 0.31129 0.12177 0.82341 0.0
C538 C 0.32406 0.12838 0.83407 0.0
C539 C 0.32361 0.13447 0.84871 0.0
C540 C 0.30859 0.16174 0.85968 0.0
C541 C 0.29603 0.16347 0.85685 0.0
C542 C 0.29653 0.17348 0.84595 0.0
C543 C 0.30957 0.18184 0.83759 0.0
C544 C 0.32188 0.17958 0.84009 0.0
C545 C 0.32143 0.16973 0.8511 0.0
C546 C 0.31399 0.17474 0.96306 0.0
C547 C 0.31398 0.07573 0.86544 0.0
H548 H 0.84155 0.1596 0.99334 0.0
H549 H 0.74527 0.03447 0.86668 0.0
H550 H 0.84477 0.16719 0.91192 0.0
H551 H 0.86742 0.19254 0.9199 0.0
H552 H 0.8959 0.17535 0.90347 0.0
H553 H 0.87301 0.14959 0.89626 0.0
H554 H 0.81939 0.14362 0.92825 0.0
H555 H 0.82542 0.15148 0.95592 0.0
H556 H 0.86064 0.14 0.95506 0.0
H557 H 0.85436 0.132 0.92741 0.0
H558 H 0.7918 0.11799 0.90457 0.0
H559 H 0.77153 0.10468 0.92214 0.0
H560 H 0.79812 0.08886 0.94566 0.0
H561 H 0.81829 0.10186 0.92762 0.0
H562 H 0.79125 0.11238 0.87138 0.0
H563 H 0.76696 0.08883 0.86235 0.0
H564 H 0.78158 0.06016 0.88344 0.0
H565 H 0.80592 0.0838 0.89223 0.0
H566 H 0.81946 0.13936 0.85724 0.0
H567 H 0.81005 0.1318 0.83014 0.0
H568 H 0.81192 0.08971 0.8324 0.0
H569 H 0.82193 0.09773 0.8594 0.0
H570 H 0.84677 0.16613 0.87657 0.0
H571 H 0.86435 0.18315 0.85838 0.0
H572 H 0.87308 0.14665 0.84346 0.0
H573 H 0.85601 0.12998 0.86244 0.0
O574 O 0.83933 0.1564 0.98239 0.0
O575 O 0.85736 0.15041 0.98131 0.0
O576 O 0.74787 0.05924 0.85936 0.0
O577 O 0.75481 0.04398 0.87006 0.0
C578 C 0.84321 0.14132 0.89832 0.0
C579 C 0.83266 0.13227 0.90906 0.0
C580 C 0.8185 0.11885 0.90377 0.0
C581 C 0.81519 0.11409 0.8878 0.0
C582 C 0.82574 0.12313 0.87706 0.0
C583 C 0.83971 0.13678 0.88231 0.0
C584 C 0.85723 0.15648 0.90369 0.0
C585 C 0.8559 0.1688 0.91028 0.0
C586 C 0.86888 0.18339 0.91458 0.0
C587 C 0.88351 0.18607 0.91216 0.0
C588 C 0.88483 0.17365 0.9056 0.0
C589 C 0.87178 0.15896 0.90144 0.0
C590 C 0.83635 0.13711 0.92586 0.0
C591 C 0.82833 0.14271 0.93409 0.0
C592 C 0.83184 0.14725 0.94988 0.0
C593 C 0.8435 0.14634 0.95772 0.0
C594 C 0.85158 0.14082 0.94939 0.0
C595 C 0.84803 0.13625 0.9336 0.0
C596 C 0.80643 0.11072 0.91469 0.0
C597 C 0.79319 0.11149 0.91338 0.0
C598 C 0.78166 0.10393 0.92342 0.0
C599 C 0.78327 0.0957 0.93516 0.0
C600 C 0.79666 0.09518 0.9367 0.0
C601 C 0.80813 0.10254 0.92643 0.0
C602 C 0.8004 0.09978 0.88233 0.0
C603 C 0.78923 0.10099 0.87393 0.0
C604 C 0.77535 0.08753 0.86884 0.0
C605 C 0.77234 0.0726 0.87215 0.0
C606 C 0.78353 0.07146 0.88066 0.0
C607 C 0.79744 0.08494 0.88571 0.0
C608 C 0.82142 0.11911 0.86025 0.0
C609 C 0.81814 0.12868 0.85177 0.0
C610 C 0.8126 0.12425 0.83635 0.0
C611 C 0.8101 0.11008 0.82915 0.0
C612 C 0.81386 0.10076 0.83756 0.0
C613 C 0.81949 0.10526 0.85299 0.0
C614 C 0.85024 0.1469 0.87094 0.0
C615 C 0.8526 0.16187 0.86949 0.0
C616 C 0.86251 0.1715 0.85892 0.0
C617 C 0.87005 0.16623 0.84935 0.0
C618 C 0.86758 0.15113 0.85076 0.0
C619 C 0.85776 0.14155 0.8615 0.0
C620 C 0.84719 0.15116 0.9745 0.0
C621 C 0.75759 0.05825 0.86678 0.0
H622 H 0.86348 0.68845 0.00662 0.0
H623 H 0.74247 0.67569 0.89072 0.0
H624 H 0.87219 0.70378 0.92833 0.0
H625 H 0.89082 0.69817 0.93934 0.0
H626 H 0.8673 0.65258 0.91378 0.0
H627 H 0.84837 0.65814 0.90327 0.0
H628 H 0.84657 0.70392 0.9483 0.0
H629 H 0.85439 0.70171 0.97445 0.0
H630 H 0.84302 0.65437 0.96098 0.0
H631 H 0.83506 0.65668 0.93494 0.0
H632 H 0.81642 0.70355 0.93443 0.0
H633 H 0.79735 0.69812 0.95339 0.0
H634 H 0.78659 0.65014 0.95258 0.0
H635 H 0.80566 0.65571 0.9338 0.0
H636 H 0.81827 0.70992 0.89733 0.0
H637 H 0.79566 0.71155 0.89165 0.0
H638 H 0.76681 0.66267 0.90006 0.0
H639 H 0.7895 0.66116 0.90552 0.0
H640 H 0.84127 0.70935 0.87424 0.0
H641 H 0.83194 0.70954 0.84791 0.0
H642 H 0.79487 0.66168 0.85008 0.0
H643 H 0.80443 0.66153 0.87605 0.0
H644 H 0.87056 0.70778 0.89146 0.0
H645 H 0.88629 0.70836 0.87051 0.0
H646 H 0.84954 0.66276 0.85169 0.0
H647 H 0.83414 0.6621 0.87294 0.0
O648 O 0.86003 0.68896 0.9963 0.0
O649 O 0.85371 0.66457 0.98888 0.0
O650 O 0.76693 0.70043 0.88856 0.0
O651 O 0.75159 0.67537 0.89286 0.0
C652 C 0.84567 0.68315 0.91163 0.0
C653 C 0.83632 0.68222 0.92368 0.0
C654 C 0.82307 0.68277 0.92049 0.0
C655 C 0.8193 0.68458 0.90529 0.0
C656 C 0.82852 0.68529 0.89319 0.0
C657 C 0.84172 0.68459 0.89636 0.0
C658 C 0.85891 0.68135 0.91507 0.0
C659 C 0.87131 0.69276 0.9248 0.0
C660 C 0.88196 0.68952 0.93105 0.0
C661 C 0.88045 0.67483 0.92758 0.0
C662 C 0.86863 0.66389 0.91689 0.0
C663 C 0.85793 0.66712 0.91071 0.0
C664 C 0.84034 0.6805 0.93973 0.0
C665 C 0.84568 0.69305 0.95107 0.0
C666 C 0.85018 0.69177 0.96597 0.0
C667 C 0.8494 0.67788 0.96979 0.0
C668 C 0.84381 0.66524 0.95842 0.0
C669 C 0.83927 0.66653 0.94354 0.0
C670 C 0.81241 0.68002 0.93278 0.0
C671 C 0.81002 0.69193 0.93849 0.0
C672 C 0.79911 0.68878 0.94926 0.0
C673 C 0.79047 0.67369 0.95449 0.0
C674 C 0.79322 0.66194 0.94899 0.0
C675 C 0.80406 0.66508 0.93822 0.0
C676 C 0.80551 0.68546 0.90192 0.0
C677 C 0.80705 0.69958 0.89792 0.0
C678 C 0.79412 0.70048 0.8947 0.0
C679 C 0.77942 0.68724 0.89544 0.0
C680 C 0.77795 0.67309 0.89942 0.0
C681 C 0.79089 0.6722 0.90259 0.0
C682 C 0.8235 0.68543 0.87702 0.0
C683 C 0.83123 0.6989 0.86891 0.0
C684 C 0.82583 0.69901 0.85395 0.0
C685 C 0.81269 0.6856 0.84688 0.0
C686 C 0.80516 0.67211 0.85505 0.0
C687 C 0.81052 0.67203 0.86994 0.0
C688 C 0.85121 0.68494 0.88365 0.0
C689 C 0.86596 0.69792 0.88282 0.0
C690 C 0.87487 0.69827 0.8708 0.0
C691 C 0.86915 0.68562 0.85941 0.0
C692 C 0.85435 0.67261 0.86036 0.0
C693 C 0.84549 0.67226 0.8724 0.0
C694 C 0.85447 0.67667 0.98555 0.0
C695 C 0.76565 0.68814 0.89207 0.0
H696 H 0.82754 0.68291 0.39132 0.0
H697 H 0.91084 0.63534 0.50398 0.0
H698 H 0.82644 0.68271 0.47705 0.0
H699 H 0.80798 0.68856 0.46606 0.0
H700 H 0.77402 0.63896 0.46075 0.0
H701 H 0.79256 0.63329 0.47233 0.0
H702 H 0.84864 0.68238 0.45445 0.0
H703 H 0.84351 0.68711 0.42824 0.0
H704 H 0.80611 0.63893 0.42096 0.0
H705 H 0.81148 0.63434 0.44712 0.0
H706 H 0.87351 0.68075 0.47306 0.0
H707 H 0.89333 0.6866 0.45505 0.0
H708 H 0.86421 0.64117 0.43026 0.0
H709 H 0.84441 0.63537 0.44851 0.0
H710 H 0.87287 0.67299 0.50718 0.0
H711 H 0.89526 0.67167 0.51492 0.0
H712 H 0.87625 0.62739 0.48745 0.0
H713 H 0.85385 0.62877 0.47995 0.0
H714 H 0.84463 0.67141 0.52401 0.0
H715 H 0.85319 0.67086 0.55031 0.0
H716 H 0.84768 0.62561 0.53799 0.0
H717 H 0.83825 0.62588 0.51189 0.0
H718 H 0.82026 0.67446 0.50693 0.0
H719 H 0.80332 0.67268 0.52702 0.0
H720 H 0.78915 0.62411 0.53058 0.0
H721 H 0.80585 0.62585 0.51016 0.0
O722 O 0.82958 0.68071 0.40153 0.0
O723 O 0.81038 0.65588 0.39845 0.0
O724 O 0.91137 0.65893 0.5151 0.0
O725 O 0.90212 0.63616 0.50111 0.0
C726 C 0.82281 0.65428 0.4799 0.0
C727 C 0.83303 0.65534 0.46879 0.0
C728 C 0.84578 0.65433 0.47318 0.0
C729 C 0.84805 0.65166 0.48853 0.0
C730 C 0.8376 0.65015 0.4996 0.0
C731 C 0.82495 0.65149 0.49526 0.0
C732 C 0.81079 0.6576 0.47548 0.0
C733 C 0.8149 0.67315 0.47383 0.0
C734 C 0.80439 0.67644 0.4674 0.0
C735 C 0.78959 0.66421 0.4623 0.0
C736 C 0.78528 0.64865 0.46465 0.0
C737 C 0.79583 0.64537 0.47124 0.0
C738 C 0.83049 0.658 0.45262 0.0
C739 C 0.83947 0.67283 0.4471 0.0
C740 C 0.83645 0.67551 0.43216 0.0
C741 C 0.82437 0.6634 0.42251 0.0
C742 C 0.81549 0.64851 0.42808 0.0
C743 C 0.81855 0.64584 0.443 0.0
C744 C 0.85759 0.65764 0.46208 0.0
C745 C 0.87143 0.67207 0.46373 0.0
C746 C 0.88267 0.67543 0.45339 0.0
C747 C 0.88028 0.66436 0.44122 0.0
C748 C 0.86638 0.64987 0.4396 0.0
C749 C 0.85508 0.64656 0.44993 0.0
C750 C 0.86172 0.65093 0.49309 0.0
C751 C 0.87355 0.66299 0.50291 0.0
C752 C 0.88633 0.66222 0.50728 0.0
C753 C 0.88753 0.6494 0.50181 0.0
C754 C 0.87568 0.63741 0.49188 0.0
C755 C 0.86289 0.63817 0.48755 0.0
C756 C 0.84083 0.64871 0.51602 0.0
C757 C 0.84486 0.66118 0.52711 0.0
C758 C 0.84996 0.66094 0.54208 0.0
C759 C 0.85139 0.64831 0.54621 0.0
C760 C 0.84665 0.63547 0.53525 0.0
C761 C 0.84135 0.63564 0.5203 0.0
C762 C 0.81413 0.65022 0.50692 0.0
C763 C 0.81324 0.66333 0.51178 0.0
C764 C 0.80361 0.66232 0.52329 0.0
C765 C 0.79492 0.64825 0.53032 0.0
C766 C 0.7958 0.63512 0.5254 0.0
C767 C 0.80527 0.63608 0.51373 0.0
C768 C 0.82098 0.66637 0.40677 0.0
C769 C 0.90108 0.64851 0.50644 0.0
H770 H 0.33784 0.16196 0.40375 0.0
H771 H 0.36717 0.28071 0.53878 0.0
H772 H 0.33653 0.15074 0.48469 0.0
H773 H 0.33669 0.12733 0.47526 0.0
H774 H 0.38412 0.1496 0.4914 0.0
H775 H 0.38388 0.17312 0.50073 0.0
H776 H 0.33198 0.17408 0.46907 0.0
H777 H 0.3299 0.16748 0.44121 0.0
H778 H 0.37797 0.18344 0.44285 0.0
H779 H 0.37992 0.19015 0.47069 0.0
H780 H 0.32842 0.19662 0.49216 0.0
H781 H 0.32019 0.21016 0.47551 0.0
H782 H 0.36442 0.23338 0.45647 0.0
H783 H 0.37265 0.21987 0.47344 0.0
H784 H 0.33546 0.20313 0.52693 0.0
H785 H 0.33463 0.22566 0.53816 0.0
H786 H 0.37737 0.257 0.51869 0.0
H787 H 0.37817 0.23436 0.50773 0.0
H788 H 0.33991 0.17878 0.54192 0.0
H789 H 0.33953 0.18859 0.56824 0.0
H790 H 0.38337 0.23036 0.5634 0.0
H791 H 0.3839 0.22012 0.53742 0.0
H792 H 0.33842 0.1524 0.52086 0.0
H793 H 0.33938 0.13447 0.53816 0.0
H794 H 0.38682 0.16879 0.55105 0.0
H795 H 0.38555 0.18685 0.53391 0.0
O796 O 0.33893 0.16471 0.41477 0.0
O797 O 0.36368 0.17302 0.41625 0.0
O798 O 0.34519 0.25498 0.54411 0.0
O799 O 0.36709 0.2716 0.53426 0.0
C800 C 0.35989 0.17767 0.49916 0.0
C801 C 0.3574 0.18666 0.48878 0.0
C802 C 0.35595 0.19928 0.49456 0.0
C803 C 0.35791 0.20348 0.5106 0.0
C804 C 0.36059 0.1946 0.52095 0.0
C805 C 0.36115 0.18143 0.51527 0.0
C806 C 0.36024 0.16366 0.49322 0.0
C807 C 0.347 0.15063 0.48603 0.0
C808 C 0.34711 0.13729 0.48068 0.0
C809 C 0.36045 0.13671 0.48253 0.0
C810 C 0.37367 0.14972 0.48991 0.0
C811 C 0.37358 0.16314 0.49516 0.0
C812 C 0.35612 0.1827 0.47186 0.0
C813 C 0.34207 0.17625 0.46336 0.0
C814 C 0.3409 0.17244 0.44747 0.0
C815 C 0.35377 0.17495 0.4398 0.0
C816 C 0.36784 0.18137 0.44839 0.0
C817 C 0.36899 0.18521 0.46428 0.0
C818 C 0.35112 0.20732 0.48401 0.0
C819 C 0.33631 0.20461 0.48437 0.0
C820 C 0.3316 0.21225 0.47477 0.0
C821 C 0.34164 0.22278 0.46464 0.0
C822 C 0.35648 0.22541 0.46424 0.0
C823 C 0.36117 0.21768 0.47384 0.0
C824 C 0.35693 0.21713 0.51661 0.0
C825 C 0.34463 0.21488 0.52511 0.0
C826 C 0.34417 0.22776 0.53149 0.0
C827 C 0.35597 0.24314 0.52937 0.0
C828 C 0.36812 0.24533 0.52058 0.0
C829 C 0.36859 0.23243 0.51425 0.0
C830 C 0.36192 0.19878 0.53779 0.0
C831 C 0.34967 0.18977 0.54679 0.0
C832 C 0.34939 0.19549 0.56173 0.0
C833 C 0.36132 0.21036 0.56784 0.0
C834 C 0.37407 0.21881 0.55914 0.0
C835 C 0.37438 0.21302 0.54426 0.0
C836 C 0.36192 0.17088 0.52613 0.0
C837 C 0.349 0.15603 0.52744 0.0
C838 C 0.34963 0.14576 0.53725 0.0
C839 C 0.36322 0.15011 0.54591 0.0
C840 C 0.37613 0.16511 0.54466 0.0
C841 C 0.37547 0.17542 0.53486 0.0
C842 C 0.35249 0.17086 0.42291 0.0
C843 C 0.35569 0.25688 0.53636 0.0
H844 H 0.81077 0.18093 0.39042 0.0
H845 H 0.9416 0.27038 0.50738 0.0
H846 H 0.80307 0.18329 0.47142 0.0
H847 H 0.77817 0.15969 0.46382 0.0
H848 H 0.79364 0.13117 0.4836 0.0
H849 H 0.81843 0.15473 0.49103 0.0
H850 H 0.83221 0.20932 0.45368 0.0
H851 H 0.82331 0.20146 0.42643 0.0
H852 H 0.82197 0.15788 0.43082 0.0
H853 H 0.83104 0.16595 0.45801 0.0
H854 H 0.86599 0.23635 0.4719 0.0
H855 H 0.88696 0.25026 0.45533 0.0
H856 H 0.88341 0.20639 0.44035 0.0
H857 H 0.86342 0.19291 0.45804 0.0
H858 H 0.86631 0.23894 0.50842 0.0
H859 H 0.89225 0.26118 0.51479 0.0
H860 H 0.91038 0.23368 0.4958 0.0
H861 H 0.88439 0.21146 0.48973 0.0
H862 H 0.83838 0.21448 0.52874 0.0
H863 H 0.84874 0.22258 0.5556 0.0
H864 H 0.88145 0.20865 0.54637 0.0
H865 H 0.87038 0.19974 0.51994 0.0
H866 H 0.80569 0.18701 0.50744 0.0
H867 H 0.78732 0.1708 0.52582 0.0
H868 H 0.81838 0.15696 0.54211 0.0
H869 H 0.8364 0.17253 0.52323 0.0
O870 O 0.81433 0.18383 0.40121 0.0
O871 O 0.81379 0.16157 0.40409 0.0
O872 O 0.92136 0.27506 0.5156 0.0
O873 O 0.93123 0.26166 0.50529 0.0
C874 C 0.8278 0.18487 0.48605 0.0
C875 C 0.83757 0.19302 0.47438 0.0
C876 C 0.85253 0.20573 0.47847 0.0
C877 C 0.85768 0.21033 0.49424 0.0
C878 C 0.84787 0.20222 0.50591 0.0
C879 C 0.83286 0.1896 0.50183 0.0
C880 C 0.81254 0.1707 0.48176 0.0
C881 C 0.80104 0.17193 0.4741 0.0
C882 C 0.78686 0.15847 0.46979 0.0
C883 C 0.78395 0.14359 0.47317 0.0
C884 C 0.79545 0.14248 0.48105 0.0
C885 C 0.80963 0.1559 0.48524 0.0
C886 C 0.8322 0.18818 0.45783 0.0
C887 C 0.83002 0.19809 0.44872 0.0
C888 C 0.82491 0.19356 0.43316 0.0
C889 C 0.8219 0.17902 0.42644 0.0
C890 C 0.82415 0.16914 0.43563 0.0
C891 C 0.82929 0.1737 0.45117 0.0
C892 C 0.86327 0.21364 0.46631 0.0
C893 C 0.8697 0.22976 0.46495 0.0
C894 C 0.88163 0.23766 0.45533 0.0
C895 C 0.88709 0.22952 0.44656 0.0
C896 C 0.87985 0.21316 0.44722 0.0
C897 C 0.8682 0.20535 0.45713 0.0
C898 C 0.87347 0.22362 0.49856 0.0
C899 C 0.8759 0.23772 0.50575 0.0
C900 C 0.89073 0.25041 0.50933 0.0
C901 C 0.9034 0.24923 0.50574 0.0
C902 C 0.90089 0.23501 0.49868 0.0
C903 C 0.88606 0.2223 0.49518 0.0
C904 C 0.85369 0.20662 0.52238 0.0
C905 C 0.84764 0.21301 0.53263 0.0
C906 C 0.85369 0.21776 0.54792 0.0
C907 C 0.86601 0.21636 0.55318 0.0
C908 C 0.87183 0.20971 0.54286 0.0
C909 C 0.86565 0.20477 0.52767 0.0
C910 C 0.82242 0.18099 0.514 0.0
C911 C 0.80856 0.18051 0.51501 0.0
C912 C 0.7981 0.1713 0.52547 0.0
C913 C 0.80153 0.16274 0.53535 0.0
C914 C 0.8156 0.16361 0.5347 0.0
C915 C 0.82589 0.17253 0.52398 0.0
C916 C 0.81643 0.17423 0.40993 0.0
C917 C 0.91917 0.26278 0.50922 0.0
H918 H 0.99205 0.51048 0.31759 0.0
H919 H 0.02352 0.41745 0.19775 0.0
H920 H 0.97762 0.50773 0.23499 0.0
H921 H 0.97826 0.53211 0.24261 0.0
H922 H 0.02307 0.55894 0.2253 0.0
H923 H 0.02246 0.53462 0.21807 0.0
H924 H 0.98069 0.48138 0.25449 0.0
H925 H 0.98137 0.48969 0.28169 0.0
H926 H 0.02497 0.53186 0.27714 0.0
H927 H 0.02421 0.52333 0.25001 0.0
H928 H 0.98476 0.45324 0.2366 0.0
H929 H 0.99124 0.43844 0.25326 0.0
H930 H 0.03415 0.48087 0.26786 0.0
H931 H 0.02799 0.49525 0.25017 0.0
H932 H 0.98101 0.45016 0.20059 0.0
H933 H 0.98355 0.42768 0.19316 0.0
H934 H 0.03072 0.45414 0.21098 0.0
H935 H 0.02811 0.47665 0.21806 0.0
H936 H 0.97734 0.47139 0.18069 0.0
H937 H 0.97744 0.45848 0.15589 0.0
H938 H 0.02616 0.47906 0.16312 0.0
H939 H 0.0259 0.49175 0.18791 0.0
H940 H 0.97356 0.49956 0.19807 0.0
H941 H 0.97014 0.5147 0.17889 0.0
H942 H 0.01741 0.53523 0.16855 0.0
H943 H 0.0205 0.51962 0.18738 0.0
O944 O 0.99203 0.50741 0.30682 0.0
O945 O 0.01439 0.52893 0.30386 0.0
O946 O 0.99822 0.41347 0.1906 0.0
O947 O 0.02225 0.42622 0.20044 0.0
C948 C 1.00009 0.50492 0.22199 0.0
C949 C 0.00186 0.49666 0.23379 0.0
C950 C 0.00319 0.48353 0.22985 0.0
C951 C 0.00279 0.47872 0.21414 0.0
C952 C 0.00107 0.48704 0.2024 0.0
C953 C 0.99946 0.49995 0.2063 0.0
C954 C 1.00001 0.51947 0.22603 0.0
C955 C 0.98752 0.5189 0.23282 0.0
C956 C 0.98787 0.53279 0.23705 0.0
C957 C 0.00074 0.54741 0.23459 0.0
C958 C 0.01309 0.54785 0.22751 0.0
C959 C 0.01272 0.534 0.22329 0.0
C960 C 0.00236 0.50179 0.25028 0.0
C961 C 0.99038 0.4924 0.25941 0.0
C962 C 0.99079 0.49718 0.27493 0.0
C963 C 0.00321 0.51146 0.28159 0.0
C964 C 0.01522 0.52082 0.27238 0.0
C965 C 0.0148 0.516 0.25687 0.0
C966 C 0.00594 0.47528 0.24207 0.0
C967 C 0.99549 0.45934 0.24351 0.0
C968 C 0.9992 0.45094 0.25318 0.0
C969 C 0.01332 0.4584 0.26188 0.0
C970 C 0.02334 0.47463 0.26109 0.0
C971 C 0.01974 0.48295 0.25117 0.0
C972 C 0.00437 0.46502 0.20986 0.0
C973 C 0.9919 0.45109 0.20281 0.0
C974 C 0.99338 0.43827 0.19861 0.0
C975 C 0.00734 0.43911 0.2015 0.0
C976 C 0.01981 0.45309 0.20861 0.0
C977 C 0.01834 0.46595 0.2127 0.0
C978 C 0.00159 0.48237 0.18607 0.0
C979 C 0.98807 0.47347 0.17665 0.0
C980 C 0.98816 0.46612 0.16253 0.0
C981 C 0.00179 0.4676 0.15771 0.0
C982 C 0.01547 0.47751 0.16668 0.0
C983 C 0.01537 0.48486 0.18075 0.0
C984 C 0.99724 0.50844 0.19402 0.0
C985 C 0.9831 0.50721 0.19151 0.0
C986 C 0.98123 0.51599 0.18065 0.0
C987 C 0.99351 0.52624 0.17218 0.0
C988 C 0.00763 0.52728 0.17465 0.0
C989 C 0.00946 0.51841 0.18544 0.0
C990 C 0.0036 0.51651 0.29808 0.0
C991 C 0.00893 0.42547 0.19715 0.0
H992 H 0.50391 0.49893 0.32895 0.0
H993 H 0.41482 0.36995 0.20126 0.0
H994 H 0.51007 0.50489 0.24896 0.0
H995 H 0.53264 0.52998 0.25794 0.0
H996 H 0.56137 0.51291 0.24195 0.0
H997 H 0.53856 0.48741 0.23384 0.0
H998 H 0.48314 0.48012 0.2637 0.0
H999 H 0.48832 0.48878 0.29125 0.0
H1000 H 0.52527 0.47984 0.29281 0.0
H1001 H 0.51985 0.47103 0.26528 0.0
H1002 H 0.45629 0.4524 0.23969 0.0
H1003 H 0.43566 0.43735 0.25648 0.0
H1004 H 0.46464 0.42572 0.28199 0.0
H1005 H 0.48511 0.44016 0.2646 0.0
H1006 H 0.4579 0.44815 0.20623 0.0
H1007 H 0.4346 0.42391 0.19634 0.0
H1008 H 0.44989 0.39694 0.21981 0.0
H1009 H 0.47328 0.42127 0.22943 0.0
H1010 H 0.48677 0.47566 0.19181 0.0
H1011 H 0.47656 0.4657 0.16507 0.0
H1012 H 0.47852 0.42426 0.17148 0.0
H1013 H 0.48948 0.4346 0.19799 0.0
H1014 H 0.51151 0.50361 0.21394 0.0
H1015 H 0.52943 0.52196 0.19682 0.0
H1016 H 0.54101 0.48768 0.18156 0.0
H1017 H 0.52359 0.46968 0.19954 0.0
O1018 O 0.50198 0.49533 0.31809 0.0
O1019 O 0.52085 0.49054 0.31828 0.0
O1020 O 0.41669 0.39412 0.19301 0.0
O1021 O 0.42394 0.37971 0.20501 0.0
C1022 C 0.50879 0.47915 0.23522 0.0
C1023 C 0.49806 0.46983 0.24572 0.0
C1024 C 0.48433 0.45603 0.24015 0.0
C1025 C 0.48167 0.45118 0.22419 0.0
C1026 C 0.49242 0.4605 0.21368 0.0
C1027 C 0.50584 0.47465 0.21917 0.0
C1028 C 0.52267 0.49427 0.24093 0.0
C1029 C 0.52124 0.50649 0.24763 0.0
C1030 C 0.53418 0.52091 0.25251 0.0
C1031 C 0.54885 0.52354 0.25052 0.0
C1032 C 0.55025 0.51125 0.24378 0.0
C1033 C 0.53725 0.49671 0.23908 0.0
C1034 C 0.50105 0.47484 0.26252 0.0
C1035 C 0.49226 0.47991 0.27004 0.0
C1036 C 0.49529 0.48491 0.28577 0.0
C1037 C 0.50721 0.485 0.29424 0.0
C1038 C 0.516 0.47991 0.28664 0.0
C1039 C 0.51293 0.47488 0.27092 0.0
C1040 C 0.47214 0.44723 0.2508 0.0
C1041 C 0.45815 0.44645 0.24876 0.0
C1042 C 0.44643 0.43793 0.25835 0.0
C1043 C 0.44865 0.4304 0.27039 0.0
C1044 C 0.46275 0.43147 0.27273 0.0
C1045 C 0.47439 0.4397 0.26287 0.0
C1046 C 0.46734 0.43645 0.21844 0.0
C1047 C 0.45624 0.43699 0.20915 0.0
C1048 C 0.44291 0.42313 0.20355 0.0
C1049 C 0.4404 0.40848 0.20726 0.0
C1050 C 0.45148 0.40802 0.21671 0.0
C1051 C 0.46483 0.42189 0.22225 0.0
C1052 C 0.48888 0.45586 0.19685 0.0
C1053 C 0.48555 0.46472 0.18728 0.0
C1054 C 0.47965 0.459 0.17208 0.0
C1055 C 0.47672 0.44422 0.16639 0.0
C1056 C 0.48068 0.43568 0.17571 0.0
C1057 C 0.48694 0.44157 0.19078 0.0
C1058 C 0.51634 0.48536 0.20809 0.0
C1059 C 0.518 0.50011 0.20698 0.0
C1060 C 0.52814 0.51051 0.19704 0.0
C1061 C 0.53665 0.5063 0.18771 0.0
C1062 C 0.53481 0.4914 0.1887 0.0
C1063 C 0.52476 0.48103 0.19885 0.0
C1064 C 0.51047 0.49044 0.31092 0.0
C1065 C 0.42628 0.39371 0.20131 0.0
H1066 H 0.50337 0.98714 0.33603 0.0
H1067 H 0.39423 0.97265 0.20603 0.0
H1068 H 0.522 0.01035 0.261 0.0
H1069 H 0.54177 0.00722 0.27371 0.0
H1070 H 0.52772 0.96565 0.24344 0.0
H1071 H 0.50751 0.96845 0.23113 0.0
H1072 H 0.4929 0.00576 0.27648 0.0
H1073 H 0.49753 0.00195 0.30322 0.0
H1074 H 0.49351 0.95796 0.2879 0.0
H1075 H 0.48866 0.9618 0.26125 0.0
H1076 H 0.46489 0.00545 0.25689 0.0
H1077 H 0.44475 0.99937 0.27466 0.0
H1078 H 0.43768 0.95311 0.27773 0.0
H1079 H 0.45747 0.95905 0.25955 0.0
H1080 H 0.46957 0.01318 0.22246 0.0
H1081 H 0.44632 0.0125 0.21384 0.0
H1082 H 0.42006 0.96256 0.21862 0.0
H1083 H 0.44343 0.96338 0.22704 0.0
H1084 H 0.49732 0.01858 0.20513 0.0
H1085 H 0.49038 0.02259 0.17922 0.0
H1086 H 0.45578 0.97327 0.17252 0.0
H1087 H 0.46294 0.9694 0.19818 0.0
H1088 H 0.52601 0.01656 0.22378 0.0
H1089 H 0.54455 0.02034 0.20475 0.0
H1090 H 0.51124 0.976 0.18027 0.0
H1091 H 0.4931 0.97206 0.19969 0.0
O1092 O 0.50136 0.98833 0.3254 0.0
O1093 O 0.49933 0.96587 0.31691 0.0
O1094 O 0.41764 0.99891 0.20699 0.0
O1095 O 0.40361 0.97325 0.20937 0.0
C1096 C 0.49929 0.98953 0.24001 0.0
C1097 C 0.48809 0.98667 0.25066 0.0
C1098 C 0.4746 0.98622 0.24586 0.0
C1099 C 0.47235 0.98879 0.23045 0.0
C1100 C 0.48345 0.99153 0.21977 0.0
C1101 C 0.49688 0.9918 0.22449 0.0
C1102 C 0.51323 0.98955 0.24523 0.0
C1103 C 0.52335 0.00072 0.25692 0.0
C1104 C 0.53456 0.9989 0.2642 0.0
C1105 C 0.5361 0.98612 0.25961 0.0
C1106 C 0.52673 0.97561 0.24713 0.0
C1107 C 0.51528 0.97724 0.24006 0.0
C1108 C 0.49048 0.98408 0.26694 0.0
C1109 C 0.49292 0.99526 0.27895 0.0
C1110 C 0.49561 0.99308 0.2942 0.0
C1111 C 0.49593 0.97967 0.29769 0.0
C1112 C 0.49336 0.96843 0.28561 0.0
C1113 C 0.49062 0.9706 0.27038 0.0
C1114 C 0.46264 0.98269 0.25692 0.0
C1115 C 0.45892 0.99397 0.26132 0.0
C1116 C 0.44745 0.99049 0.27143 0.0
C1117 C 0.4397 0.97578 0.27753 0.0
C1118 C 0.44357 0.96457 0.27327 0.0
C1119 C 0.45486 0.96796 0.26293 0.0
C1120 C 0.45817 0.98834 0.22537 0.0
C1121 C 0.45878 0.00211 0.22159 0.0
C1122 C 0.44549 0.00168 0.21669 0.0
C1123 C 0.43132 0.98746 0.21555 0.0
C1124 C 0.43077 0.9737 0.21938 0.0
C1125 C 0.44409 0.97413 0.22422 0.0
C1126 C 0.48062 0.99371 0.20349 0.0
C1127 C 0.48844 0.00863 0.19791 0.0
C1128 C 0.48438 0.01091 0.18319 0.0
C1129 C 0.47252 0.99825 0.17382 0.0
C1130 C 0.46511 0.98323 0.17932 0.0
C1131 C 0.46912 0.98099 0.19401 0.0
C1132 C 0.5082 0.99407 0.21308 0.0
C1133 C 0.5228 0.00764 0.21436 0.0
C1134 C 0.53331 0.00982 0.20341 0.0
C1135 C 0.52938 0.99849 0.19095 0.0
C1136 C 0.51474 0.98487 0.18981 0.0
C1137 C 0.5043 0.98266 0.2008 0.0
C1138 C 0.49896 0.97748 0.31388 0.0
C1139 C 0.41715 0.98695 0.21037 0.0
H1140 H 0.51122 0.04532 0.73228 0.0
H1141 H 0.58654 0.98971 0.8547 0.0
H1142 H 0.50638 0.04091 0.81217 0.0
H1143 H 0.48621 0.04354 0.80018 0.0
H1144 H 0.45378 0.99453 0.80557 0.0
H1145 H 0.47445 0.99178 0.81619 0.0
H1146 H 0.53172 0.04346 0.7952 0.0
H1147 H 0.52705 0.04865 0.76905 0.0
H1148 H 0.48967 0.00055 0.76082 0.0
H1149 H 0.49458 0.99549 0.78695 0.0
H1150 H 0.55478 0.04221 0.80965 0.0
H1151 H 0.57445 0.04602 0.79204 0.0
H1152 H 0.5475 0.99694 0.77567 0.0
H1153 H 0.52794 0.99326 0.79343 0.0
H1154 H 0.55859 0.03512 0.83917 0.0
H1155 H 0.57987 0.03257 0.84857 0.0
H1156 H 0.5517 0.98217 0.83938 0.0
H1157 H 0.53057 0.98493 0.82997 0.0
H1158 H 0.5368 0.03102 0.86281 0.0
H1159 H 0.54381 0.02632 0.88814 0.0
H1160 H 0.51337 0.97635 0.8776 0.0
H1161 H 0.50681 0.98126 0.852 0.0
H1162 H 0.50624 0.0333 0.85354 0.0
H1163 H 0.48834 0.02988 0.87317 0.0
H1164 H 0.46322 0.97978 0.86102 0.0
H1165 H 0.48162 0.98336 0.84197 0.0
O1166 O 0.51317 0.0429 0.7424 0.0
O1167 O 0.49444 0.0179 0.73855 0.0
O1168 O 0.59235 0.01704 0.8556 0.0
O1169 O 0.5784 0.99109 0.85088 0.0
C1170 C 0.50477 0.01416 0.81981 0.0
C1171 C 0.51571 0.01621 0.80911 0.0
C1172 C 0.5284 0.01516 0.81377 0.0
C1173 C 0.53001 0.0117 0.82896 0.0
C1174 C 0.519 0.00941 0.83956 0.0
C1175 C 0.50638 0.01061 0.83501 0.0
C1176 C 0.49191 0.01615 0.81501 0.0
C1177 C 0.49488 0.03078 0.81083 0.0
C1178 C 0.48324 0.03227 0.8041 0.0
C1179 C 0.46826 0.01923 0.80175 0.0
C1180 C 0.4652 0.00477 0.80682 0.0
C1181 C 0.47695 0.00321 0.81319 0.0
C1182 C 0.51357 0.01907 0.7929 0.0
C1183 C 0.5227 0.034 0.78764 0.0
C1184 C 0.51993 0.03696 0.77274 0.0
C1185 C 0.50796 0.02503 0.76285 0.0
C1186 C 0.49897 0.01001 0.76813 0.0
C1187 C 0.50177 0.00707 0.78302 0.0
C1188 C 0.53998 0.01749 0.80273 0.0
C1189 C 0.55313 0.03233 0.80218 0.0
C1190 C 0.56428 0.03448 0.79209 0.0
C1191 C 0.56251 0.02178 0.78247 0.0
C1192 C 0.54925 0.00691 0.78305 0.0
C1193 C 0.53805 0.0048 0.79309 0.0
C1194 C 0.54313 0.01021 0.83382 0.0
C1195 C 0.55712 0.02357 0.83907 0.0
C1196 C 0.56921 0.02207 0.84448 0.0
C1197 C 0.56747 0.00716 0.84475 0.0
C1198 C 0.55343 0.99382 0.83934 0.0
C1199 C 0.54136 0.99535 0.83392 0.0
C1200 C 0.52128 0.00649 0.85566 0.0
C1201 C 0.53145 0.01909 0.86612 0.0
C1202 C 0.53538 0.01635 0.88061 0.0
C1203 C 0.52916 0.00093 0.88492 0.0
C1204 C 0.51849 0.98835 0.87457 0.0
C1205 C 0.51461 0.99111 0.86003 0.0
C1206 C 0.49514 0.00858 0.84635 0.0
C1207 C 0.49682 0.02162 0.85515 0.0
C1208 C 0.48652 0.01963 0.86627 0.0
C1209 C 0.47429 0.00454 0.86871 0.0
C1210 C 0.47262 0.99153 0.85967 0.0
C1211 C 0.48302 0.99354 0.84868 0.0
C1212 C 0.50475 0.02832 0.74719 0.0
C1213 C 0.58019 0.00546 0.85074 0.0
H1214 H 0.97661 0.46981 0.74262 0.0
H1215 H 0.01324 0.60426 0.86152 0.0
H1216 H 0.97856 0.4688 0.82495 0.0
H1217 H 0.97794 0.44447 0.81832 0.0
H1218 H 0.02537 0.46684 0.83471 0.0
H1219 H 0.02606 0.49148 0.84046 0.0
H1220 H 0.97371 0.49029 0.80615 0.0
H1221 H 0.97041 0.4803 0.77909 0.0
H1222 H 0.01798 0.49429 0.7804 0.0
H1223 H 0.02116 0.50439 0.80742 0.0
H1224 H 0.97164 0.51534 0.82419 0.0
H1225 H 0.965 0.5293 0.80631 0.0
H1226 H 0.01006 0.55047 0.78925 0.0
H1227 H 0.01663 0.53647 0.80731 0.0
H1228 H 0.97962 0.52631 0.85873 0.0
H1229 H 0.97945 0.55016 0.86636 0.0
H1230 H 0.02282 0.57795 0.84642 0.0
H1231 H 0.02292 0.554 0.83904 0.0
H1232 H 0.98516 0.50696 0.87901 0.0
H1233 H 0.98726 0.52249 0.90281 0.0
H1234 H 0.03296 0.55801 0.89286 0.0
H1235 H 0.03062 0.54253 0.869 0.0
H1236 H 0.98385 0.4743 0.86122 0.0
H1237 H 0.98737 0.45873 0.8796 0.0
H1238 H 0.03381 0.49688 0.89076 0.0
H1239 H 0.03035 0.51207 0.87159 0.0
O1240 O 0.97817 0.47387 0.75332 0.0
O1241 O 0.00268 0.48121 0.75463 0.0
O1242 O 0.99071 0.57982 0.86869 0.0
O1243 O 0.01295 0.59464 0.85852 0.0
C1244 C 0.00258 0.49671 0.83694 0.0
C1245 C 0.99972 0.50425 0.82513 0.0
C1246 C 0.99891 0.51768 0.82898 0.0
C1247 C 0.00173 0.52405 0.84444 0.0
C1248 C 0.00492 0.51673 0.8562 0.0
C1249 C 0.00498 0.50285 0.85254 0.0
C1250 C 0.00238 0.48194 0.83303 0.0
C1251 C 0.98885 0.46848 0.82696 0.0
C1252 C 0.98847 0.45451 0.82342 0.0
C1253 C 0.00158 0.45363 0.8261 0.0
C1254 C 0.01511 0.46713 0.83236 0.0
C1255 C 0.01552 0.48119 0.83573 0.0
C1256 C 0.99769 0.49815 0.80871 0.0
C1257 C 0.98342 0.49128 0.80054 0.0
C1258 C 0.98156 0.48553 0.7851 0.0
C1259 C 0.99394 0.48651 0.77757 0.0
C1260 C 0.00822 0.49336 0.78584 0.0
C1261 C 0.01006 0.49913 0.80127 0.0
C1262 C 0.9946 0.52493 0.817 0.0
C1263 C 0.97999 0.52283 0.81643 0.0
C1264 C 0.97621 0.53075 0.80618 0.0
C1265 C 0.98703 0.54099 0.79641 0.0
C1266 C 0.00155 0.54275 0.79675 0.0
C1267 C 0.00529 0.53472 0.80695 0.0
C1268 C 0.0013 0.53847 0.84839 0.0
C1269 C 0.98906 0.53757 0.85603 0.0
C1270 C 0.98899 0.5512 0.86036 0.0
C1271 C 0.00115 0.56597 0.85704 0.0
C1272 C 0.0133 0.56677 0.84918 0.0
C1273 C 0.01337 0.55313 0.8449 0.0
C1274 C 0.00772 0.52368 0.87232 0.0
C1275 C 0.9958 0.51783 0.88228 0.0
C1276 C 0.99701 0.52675 0.89583 0.0
C1277 C 0.01017 0.5416 0.89953 0.0
C1278 C 0.02256 0.54676 0.89013 0.0
C1279 C 0.02133 0.53786 0.87662 0.0
C1280 C 0.00685 0.49429 0.86502 0.0
C1281 C 0.99476 0.47933 0.8677 0.0
C1282 C 0.99678 0.47049 0.87832 0.0
C1283 C 0.01089 0.47654 0.88674 0.0
C1284 C 0.02287 0.49177 0.88435 0.0
C1285 C 0.02087 0.50055 0.87355 0.0
C1286 C 0.99193 0.48039 0.76116 0.0
C1287 C 0.00123 0.58051 0.86178 0.0
H1288 H 0.47352 0.51171 0.72746 0.0
H1289 H 0.60518 0.60673 0.84228 0.0
H1290 H 0.46574 0.51805 0.80985 0.0
H1291 H 0.44118 0.49378 0.80276 0.0
H1292 H 0.45912 0.46687 0.82137 0.0
H1293 H 0.48349 0.49106 0.82832 0.0
H1294 H 0.49421 0.54295 0.78983 0.0
H1295 H 0.48534 0.53371 0.76273 0.0
H1296 H 0.48681 0.49193 0.7694 0.0
H1297 H 0.49582 0.5014 0.79643 0.0
H1298 H 0.52615 0.57019 0.80472 0.0
H1299 H 0.54646 0.58359 0.78712 0.0
H1300 H 0.55022 0.54245 0.78153 0.0
H1301 H 0.52959 0.52907 0.79863 0.0
H1302 H 0.52994 0.57604 0.84286 0.0
H1303 H 0.55596 0.59848 0.84834 0.0
H1304 H 0.57381 0.5696 0.83277 0.0
H1305 H 0.54777 0.54723 0.82759 0.0
H1306 H 0.50328 0.55271 0.86516 0.0
H1307 H 0.51301 0.55983 0.89231 0.0
H1308 H 0.5434 0.54276 0.88381 0.0
H1309 H 0.53321 0.53519 0.85694 0.0
H1310 H 0.47198 0.52675 0.84846 0.0
H1311 H 0.45538 0.51238 0.86878 0.0
H1312 H 0.4824 0.49135 0.87711 0.0
H1313 H 0.49919 0.50628 0.8573 0.0
O1314 O 0.47706 0.51516 0.7382 0.0
O1315 O 0.47796 0.49386 0.74225 0.0
O1316 O 0.58507 0.61213 0.84924 0.0
O1317 O 0.59478 0.59799 0.84052 0.0
C1318 C 0.4914 0.52076 0.82344 0.0
C1319 C 0.50095 0.52849 0.8115 0.0
C1320 C 0.51585 0.54141 0.81522 0.0
C1321 C 0.52119 0.54665 0.83084 0.0
C1322 C 0.51162 0.53893 0.84275 0.0
C1323 C 0.49669 0.52607 0.83904 0.0
C1324 C 0.47631 0.50628 0.81967 0.0
C1325 C 0.46427 0.5069 0.81246 0.0
C1326 C 0.45031 0.49306 0.80842 0.0
C1327 C 0.44821 0.47844 0.81161 0.0
C1328 C 0.46028 0.47796 0.81904 0.0
C1329 C 0.47421 0.49174 0.82296 0.0
C1330 C 0.49556 0.5228 0.79508 0.0
C1331 C 0.49262 0.53182 0.78539 0.0
C1332 C 0.48754 0.5265 0.76993 0.0
C1333 C 0.48533 0.51206 0.7639 0.0
C1334 C 0.48836 0.50308 0.77368 0.0
C1335 C 0.49347 0.50844 0.78912 0.0
C1336 C 0.52643 0.54869 0.80289 0.0
C1337 C 0.53117 0.56401 0.79938 0.0
C1338 C 0.54287 0.57167 0.78947 0.0
C1339 C 0.55011 0.56416 0.78301 0.0
C1340 C 0.54481 0.54854 0.78609 0.0
C1341 C 0.53303 0.54086 0.79589 0.0
C1342 C 0.53699 0.56006 0.83472 0.0
C1343 C 0.53949 0.57458 0.84073 0.0
C1344 C 0.55436 0.58737 0.84381 0.0
C1345 C 0.56697 0.58585 0.84091 0.0
C1346 C 0.56437 0.5712 0.83507 0.0
C1347 C 0.54951 0.55841 0.83207 0.0
C1348 C 0.51763 0.54354 0.85911 0.0
C1349 C 0.512 0.55048 0.86923 0.0
C1350 C 0.51762 0.5546 0.88468 0.0
C1351 C 0.52897 0.55185 0.89022 0.0
C1352 C 0.5345 0.54482 0.87999 0.0
C1353 C 0.52884 0.54066 0.8646 0.0
C1354 C 0.4868 0.5176 0.85152 0.0
C1355 C 0.47432 0.51911 0.85481 0.0
C1356 C 0.4648 0.5108 0.86633 0.0
C1357 C 0.46754 0.5007 0.87465 0.0
C1358 C 0.4801 0.49925 0.87122 0.0
C1359 C 0.48968 0.50769 0.85984 0.0
C1360 C 0.4799 0.50643 0.74748 0.0
C1361 C 0.58279 0.59947 0.84385 0.0
H1362 H 0.62611 0.82211 0.65298 0.0
H1363 H 0.67407 0.74403 0.53239 0.0
H1364 H 0.62021 0.82726 0.56887 0.0
H1365 H 0.6185 0.85026 0.57659 0.0
H1366 H 0.66636 0.88047 0.56906 0.0
H1367 H 0.66771 0.85751 0.5609 0.0
H1368 H 0.62306 0.79963 0.58859 0.0
H1369 H 0.62028 0.80494 0.61575 0.0
H1370 H 0.66337 0.849 0.61739 0.0
H1371 H 0.66609 0.84346 0.59028 0.0
H1372 H 0.63214 0.7745 0.57166 0.0
H1373 H 0.63989 0.76042 0.58803 0.0
H1374 H 0.67992 0.80449 0.60537 0.0
H1375 H 0.67265 0.81824 0.58804 0.0
H1376 H 0.62946 0.77436 0.53464 0.0
H1377 H 0.63325 0.75285 0.52648 0.0
H1378 H 0.67902 0.77904 0.5482 0.0
H1379 H 0.67515 0.80056 0.55609 0.0
H1380 H 0.62699 0.80093 0.5155 0.0
H1381 H 0.62847 0.79234 0.48905 0.0
H1382 H 0.67468 0.80401 0.50057 0.0
H1383 H 0.67342 0.81368 0.52645 0.0
H1384 H 0.62273 0.82663 0.53371 0.0
H1385 H 0.6235 0.84543 0.51622 0.0
H1386 H 0.67119 0.86273 0.51052 0.0
H1387 H 0.67038 0.84416 0.52824 0.0
O1388 O 0.62746 0.82023 0.64226 0.0
O1389 O 0.64965 0.84278 0.64248 0.0
O1390 O 0.64863 0.73935 0.52455 0.0
O1391 O 0.67228 0.75237 0.53545 0.0
C1392 C 0.64525 0.82699 0.55962 0.0
C1393 C 0.64625 0.81789 0.57094 0.0
C1394 C 0.64879 0.80563 0.56656 0.0
C1395 C 0.64967 0.80209 0.55076 0.0
C1396 C 0.64856 0.81117 0.53943 0.0
C1397 C 0.64647 0.82369 0.54388 0.0
C1398 C 0.64407 0.84078 0.56433 0.0
C1399 C 0.63026 0.83889 0.56884 0.0
C1400 C 0.62934 0.85203 0.57329 0.0
C1401 C 0.64227 0.86725 0.57338 0.0
C1402 C 0.65608 0.86899 0.5688 0.0
C1403 C 0.65694 0.85589 0.56427 0.0
C1404 C 0.64471 0.82121 0.58745 0.0
C1405 C 0.63189 0.81041 0.59485 0.0
C1406 C 0.63033 0.81348 0.61036 0.0
C1407 C 0.64158 0.82742 0.61874 0.0
C1408 C 0.65447 0.83818 0.61127 0.0
C1409 C 0.65602 0.83508 0.59577 0.0
C1410 C 0.65188 0.79738 0.57854 0.0
C1411 C 0.64251 0.7811 0.57911 0.0
C1412 C 0.64692 0.77309 0.5886 0.0
C1413 C 0.66066 0.78128 0.59796 0.0
C1414 C 0.66948 0.79773 0.59807 0.0
C1415 C 0.66521 0.80567 0.58835 0.0
C1416 C 0.652 0.78898 0.54602 0.0
C1417 C 0.6403 0.77543 0.53761 0.0
C1418 C 0.64249 0.76316 0.53298 0.0
C1419 C 0.65644 0.76422 0.53672 0.0
C1420 C 0.66814 0.77783 0.54515 0.0
C1421 C 0.66595 0.79012 0.54972 0.0
C1422 C 0.65003 0.80772 0.52294 0.0
C1423 C 0.63754 0.80197 0.51214 0.0
C1424 C 0.63836 0.79689 0.49708 0.0
C1425 C 0.65162 0.79723 0.49265 0.0
C1426 C 0.66433 0.80371 0.50339 0.0
C1427 C 0.66359 0.80908 0.5183 0.0
C1428 C 0.6465 0.83405 0.53223 0.0
C1429 C 0.6333 0.83442 0.52858 0.0
C1430 C 0.63375 0.84511 0.51856 0.0
C1431 C 0.64744 0.85564 0.51208 0.0
C1432 C 0.66054 0.85495 0.51552 0.0
C1433 C 0.66007 0.84425 0.5255 0.0
C1434 C 0.63987 0.83066 0.6352 0.0
C1435 C 0.65882 0.7512 0.53185 0.0
H1436 H 0.17525 0.82554 0.66874 0.0
H1437 H 0.0752 0.71437 0.53042 0.0
H1438 H 0.18002 0.84075 0.58866 0.0
H1439 H 0.20426 0.86384 0.59844 0.0
H1440 H 0.22832 0.84229 0.57991 0.0
H1441 H 0.20387 0.81914 0.57005 0.0
H1442 H 0.15322 0.81692 0.604 0.0
H1443 H 0.15953 0.82208 0.63189 0.0
H1444 H 0.19069 0.8054 0.62728 0.0
H1445 H 0.18415 0.80013 0.59941 0.0
H1446 H 0.12588 0.79625 0.58154 0.0
H1447 H 0.10509 0.78207 0.59837 0.0
H1448 H 0.12555 0.75592 0.61266 0.0
H1449 H 0.14636 0.7702 0.59562 0.0
H1450 H 0.12367 0.7913 0.54611 0.0
H1451 H 0.09915 0.76965 0.53464 0.0
H1452 H 0.11064 0.73644 0.55021 0.0
H1453 H 0.1352 0.75821 0.56147 0.0
H1454 H 0.15239 0.81656 0.53137 0.0
H1455 H 0.14189 0.80934 0.50451 0.0
H1456 H 0.14192 0.76613 0.50549 0.0
H1457 H 0.153 0.77379 0.53204 0.0
H1458 H 0.18096 0.84208 0.55424 0.0
H1459 H 0.19928 0.86034 0.53731 0.0
H1460 H 0.20479 0.82324 0.51687 0.0
H1461 H 0.18707 0.80527 0.53465 0.0
O1462 O 0.17286 0.82333 0.65769 0.0
O1463 O 0.18878 0.81469 0.65468 0.0
O1464 O 0.07927 0.74069 0.52749 0.0
O1465 O 0.08471 0.72314 0.53508 0.0
C1466 C 0.17536 0.81447 0.57256 0.0
C1467 C 0.16439 0.80498 0.58277 0.0
C1468 C 0.14982 0.79274 0.57683 0.0
C1469 C 0.14646 0.78946 0.56073 0.0
C1470 C 0.15748 0.79883 0.5505 0.0
C1471 C 0.17182 0.81154 0.55641 0.0
C1472 C 0.19019 0.82821 0.57883 0.0
C1473 C 0.19051 0.84094 0.58687 0.0
C1474 C 0.20437 0.85411 0.59244 0.0
C1475 C 0.2182 0.85484 0.59003 0.0
C1476 C 0.21786 0.8421 0.58185 0.0
C1477 C 0.20394 0.82887 0.5763 0.0
C1478 C 0.16813 0.80802 0.59972 0.0
C1479 C 0.16131 0.81426 0.60906 0.0
C1480 C 0.16498 0.81726 0.62498 0.0
C1481 C 0.1756 0.81413 0.63183 0.0
C1482 C 0.18245 0.80792 0.62239 0.0
C1483 C 0.17874 0.8049 0.60648 0.0
C1484 C 0.13756 0.78421 0.58739 0.0
C1485 C 0.12588 0.78749 0.58834 0.0
C1486 C 0.11409 0.77946 0.59802 0.0
C1487 C 0.11375 0.76794 0.60685 0.0
C1488 C 0.12551 0.76468 0.60589 0.0
C1489 C 0.13739 0.77283 0.59626 0.0
C1490 C 0.13122 0.77631 0.55453 0.0
C1491 C 0.12085 0.77934 0.54703 0.0
C1492 C 0.10686 0.76695 0.5405 0.0
C1493 C 0.10296 0.7513 0.54145 0.0
C1494 C 0.1133 0.74834 0.54923 0.0
C1495 C 0.1273 0.76074 0.55573 0.0
C1496 C 0.15345 0.79569 0.53361 0.0
C1497 C 0.15052 0.80575 0.5256 0.0
C1498 C 0.14435 0.80151 0.51034 0.0
C1499 C 0.14094 0.78709 0.50288 0.0
C1500 C 0.14458 0.77741 0.51077 0.0
C1501 C 0.15084 0.78171 0.52598 0.0
C1502 C 0.18277 0.82239 0.54575 0.0
C1503 C 0.18625 0.83795 0.54622 0.0
C1504 C 0.1966 0.84831 0.53638 0.0
C1505 C 0.20346 0.84326 0.52562 0.0
C1506 C 0.19988 0.82759 0.52514 0.0
C1507 C 0.18965 0.81726 0.53516 0.0
C1508 C 0.17951 0.81738 0.64874 0.0
C1509 C 0.08825 0.73811 0.53425 0.0
H1510 H 0.18914 0.34494 0.67471 0.0
H1511 H 0.07729 0.33761 0.55118 0.0
H1512 H 0.20563 0.36591 0.59606 0.0
H1513 H 0.22484 0.36075 0.60652 0.0
H1514 H 0.20161 0.31523 0.58088 0.0
H1515 H 0.18229 0.32042 0.57071 0.0
H1516 H 0.17843 0.36452 0.61584 0.0
H1517 H 0.18389 0.36063 0.64228 0.0
H1518 H 0.17302 0.3138 0.62713 0.0
H1519 H 0.16741 0.31778 0.60079 0.0
H1520 H 0.15019 0.36555 0.60129 0.0
H1521 H 0.12994 0.35956 0.61887 0.0
H1522 H 0.11691 0.31079 0.61499 0.0
H1523 H 0.13731 0.31697 0.59771 0.0
H1524 H 0.15256 0.37356 0.56666 0.0
H1525 H 0.13004 0.37498 0.55978 0.0
H1526 H 0.10162 0.3246 0.56065 0.0
H1527 H 0.12426 0.32336 0.56738 0.0
H1528 H 0.17374 0.37548 0.54496 0.0
H1529 H 0.16393 0.3777 0.51972 0.0
H1530 H 0.13471 0.32717 0.51375 0.0
H1531 H 0.14418 0.3252 0.5391 0.0
H1532 H 0.20399 0.3726 0.55779 0.0
H1533 H 0.21979 0.37451 0.5364 0.0
H1534 H 0.18685 0.32629 0.52041 0.0
H1535 H 0.17105 0.32468 0.54162 0.0
O1536 O 0.18683 0.34619 0.6642 0.0
O1537 O 0.18119 0.32223 0.65581 0.0
O1538 O 0.1015 0.36325 0.55354 0.0
O1539 O 0.08638 0.33739 0.55388 0.0
C1540 C 0.1795 0.3454 0.57877 0.0
C1541 C 0.16956 0.34403 0.59037 0.0
C1542 C 0.15657 0.34492 0.58667 0.0
C1543 C 0.15372 0.34758 0.5715 0.0
C1544 C 0.16359 0.34887 0.55992 0.0
C1545 C 0.17642 0.34768 0.56351 0.0
C1546 C 0.19261 0.34355 0.58263 0.0
C1547 C 0.20492 0.35499 0.59243 0.0
C1548 C 0.21588 0.35202 0.59837 0.0
C1549 C 0.21466 0.33752 0.59461 0.0
C1550 C 0.20273 0.32642 0.58413 0.0
C1551 C 0.1918 0.32943 0.57817 0.0
C1552 C 0.17262 0.34147 0.60641 0.0
C1553 C 0.17719 0.35342 0.61828 0.0
C1554 C 0.18032 0.35117 0.63336 0.0
C1555 C 0.17893 0.33692 0.63681 0.0
C1556 C 0.17424 0.32493 0.62486 0.0
C1557 C 0.17107 0.32718 0.60981 0.0
C1558 C 0.1452 0.34169 0.59829 0.0
C1559 C 0.14304 0.35362 0.60441 0.0
C1560 C 0.13142 0.35015 0.61435 0.0
C1561 C 0.12176 0.33468 0.6183 0.0
C1562 C 0.12425 0.32285 0.61239 0.0
C1563 C 0.13587 0.32634 0.60248 0.0
C1564 C 0.14 0.34837 0.56752 0.0
C1565 C 0.14145 0.36286 0.56533 0.0
C1566 C 0.12858 0.36363 0.56143 0.0
C1567 C 0.11402 0.3499 0.55967 0.0
C1568 C 0.11265 0.3354 0.56191 0.0
C1569 C 0.12554 0.33465 0.56579 0.0
C1570 C 0.15961 0.35019 0.54379 0.0
C1571 C 0.1654 0.36492 0.53803 0.0
C1572 C 0.15981 0.36614 0.52363 0.0
C1573 C 0.14838 0.35262 0.51482 0.0
C1574 C 0.14325 0.33784 0.52038 0.0
C1575 C 0.14875 0.33665 0.53477 0.0
C1576 C 0.1864 0.34853 0.55117 0.0
C1577 C 0.20028 0.36246 0.54968 0.0
C1578 C 0.20929 0.36348 0.53751 0.0
C1579 C 0.20455 0.35056 0.52664 0.0
C1580 C 0.19071 0.33653 0.5284 0.0
C1581 C 0.18172 0.33554 0.54055 0.0
C1582 C 0.18237 0.33461 0.65282 0.0
C1583 C 0.1003 0.35065 0.55552 0.0
H1584 H 0.96812 0.35845 0.05029 0.0
H1585 H 0.96979 0.37658 0.07143 0.0
H1586 H 0.01872 0.40371 0.06976 0.0
H1587 H 0.01723 0.38565 0.04866 0.0
H1588 H 0.9853 0.38595 0.1007 0.0
H1589 H 0.02907 0.44283 0.07439 0.0
H1590 H 0.03743 0.45263 0.04887 0.0
H1591 H 0.99323 0.41822 0.02783 0.0
H1592 H 0.98453 0.40837 0.05325 0.0
H1593 H 0.01584 0.45084 0.15615 0.0
H1594 H 0.01404 0.43284 0.13487 0.0
H1595 H 0.98478 0.44311 0.10797 0.0
H1596 H 0.98676 0.46147 0.12921 0.0
H1597 H 0.00677 0.44182 0.09083 0.0
H1598 H 0.96892 0.41069 0.12571 0.0
H1599 H 0.96018 0.40182 0.1514 0.0
H1600 H 0.99069 0.38462 0.15482 0.0
H1601 H 0.99977 0.3936 0.12923 0.0
C1602 C 0.97926 0.36819 0.05448 0.0
C1603 C 0.99253 0.37065 0.04769 0.0
C1604 C 0.98018 0.37851 0.06659 0.0
C1605 C 0.99435 0.39155 0.072 0.0
C1606 C 0.00766 0.39378 0.06561 0.0
C1607 C 0.00678 0.3834 0.05359 0.0
C1608 C 0.99515 0.40311 0.08397 0.0
C1609 C 0.99 0.39816 0.09856 0.0
C1610 C 0.00112 0.41899 0.08107 0.0
C1611 C 0.00621 0.42478 0.06571 0.0
C1612 C 0.02113 0.43738 0.06432 0.0
C1613 C 0.02592 0.44294 0.04988 0.0
C1614 C 0.01587 0.43603 0.03674 0.0
C1615 C 0.00101 0.42353 0.03801 0.0
C1616 C 0.99615 0.41794 0.05243 0.0
C1617 C 0.00926 0.44952 0.1456 0.0
C1618 C 0.00148 0.45761 0.1443 0.0
C1619 C 0.00813 0.43912 0.13352 0.0
C1620 C 0.99916 0.43655 0.11995 0.0
C1621 C 0.99173 0.44493 0.1184 0.0
C1622 C 0.99281 0.45532 0.13053 0.0
C1623 C 0.99716 0.42471 0.10761 0.0
C1624 C 0.00208 0.42961 0.09296 0.0
C1625 C 0.99088 0.40877 0.11042 0.0
C1626 C 0.9851 0.40291 0.1256 0.0
C1627 C 0.97381 0.40508 0.13197 0.0
C1628 C 0.9688 0.40003 0.14651 0.0
C1629 C 0.9749 0.39269 0.15475 0.0
C1630 C 0.98598 0.39031 0.14843 0.0
C1631 C 0.99105 0.39536 0.13389 0.0
H1632 H 0.97103 0.38882 0.16602 0.0
H1633 H 0.01958 0.44043 0.0256 0.0
H1634 H 0.59563 0.61183 0.09848 0.0
H1635 H 0.58551 0.59283 0.1177 0.0
H1636 H 0.62077 0.58226 0.11068 0.0
H1637 H 0.63087 0.60117 0.0909 0.0
H1638 H 0.594 0.55595 0.11276 0.0
H1639 H 0.62248 0.60401 0.1433 0.0
H1640 H 0.632 0.63173 0.1515 0.0
H1641 H 0.58686 0.61982 0.16225 0.0
H1642 H 0.57699 0.59206 0.15385 0.0
H1643 H 0.5649 0.5118 0.18057 0.0
H1644 H 0.58262 0.53095 0.16357 0.0
H1645 H 0.5506 0.54559 0.1542 0.0
H1646 H 0.53262 0.52617 0.17054 0.0
H1647 H 0.58131 0.57066 0.16317 0.0
H1648 H 0.55328 0.52301 0.12814 0.0
H1649 H 0.54466 0.49549 0.1199 0.0
H1650 H 0.59122 0.50733 0.1189 0.0
H1651 H 0.60011 0.5349 0.12734 0.0
C1652 C 0.60135 0.60558 0.10102 0.0
C1653 C 0.61416 0.60815 0.0932 0.0
C1654 C 0.59556 0.59473 0.1121 0.0
C1655 C 0.60258 0.58636 0.11589 0.0
C1656 C 0.61525 0.58869 0.10801 0.0
C1657 C 0.62101 0.5995 0.09674 0.0
C1658 C 0.59623 0.57498 0.12788 0.0
C1659 C 0.59156 0.55924 0.12394 0.0
C1660 C 0.59307 0.57926 0.14249 0.0
C1661 C 0.59898 0.59593 0.14787 0.0
C1662 C 0.61456 0.6073 0.14734 0.0
C1663 C 0.62002 0.62303 0.15203 0.0
C1664 C 0.61004 0.62754 0.15738 0.0
C1665 C 0.59458 0.61631 0.15811 0.0
C1666 C 0.58904 0.60056 0.15341 0.0
C1667 C 0.56152 0.51892 0.17471 0.0
C1668 C 0.54734 0.51749 0.17703 0.0
C1669 C 0.57172 0.52993 0.1651 0.0
C1670 C 0.56793 0.53972 0.15775 0.0
C1671 C 0.55378 0.53824 0.15993 0.0
C1672 C 0.54355 0.52716 0.16934 0.0
C1673 C 0.57858 0.55164 0.14775 0.0
C1674 C 0.58409 0.56749 0.15214 0.0
C1675 C 0.58272 0.54749 0.1337 0.0
C1676 C 0.57735 0.53095 0.12856 0.0
C1677 C 0.56168 0.51971 0.1263 0.0
C1678 C 0.55674 0.50411 0.12157 0.0
C1679 C 0.56738 0.49965 0.11893 0.0
C1680 C 0.58299 0.5108 0.12098 0.0
C1681 C 0.58798 0.5264 0.12573 0.0
H1682 H 0.56354 0.48758 0.11526 0.0
H1683 H 0.61429 0.63973 0.16098 0.0
H1684 H 0.398 0.97178 0.04677 0.0
H1685 H 0.41602 0.9776 0.0686 0.0
H1686 H 0.41587 0.01974 0.08193 0.0
H1687 H 0.39796 0.01415 0.05964 0.0
H1688 H 0.44461 0.02349 0.0874 0.0
H1689 H 0.39331 0.98775 0.09848 0.0
H1690 H 0.36755 0.9645 0.0934 0.0
H1691 H 0.38583 0.93446 0.09537 0.0
H1692 H 0.41185 0.95763 0.09989 0.0
H1693 H 0.46808 0.02209 0.16682 0.0
H1694 H 0.4561 0.02403 0.14294 0.0
H1695 H 0.45252 0.98164 0.12306 0.0
H1696 H 0.46463 0.97973 0.14675 0.0
H1697 H 0.42525 0.98021 0.1221 0.0
H1698 H 0.47699 0.01673 0.10994 0.0
H1699 H 0.50263 0.04042 0.11466 0.0
H1700 H 0.48301 0.06935 0.11613 0.0
H1701 H 0.45722 0.0458 0.11163 0.0
C1702 C 0.40191 0.9824 0.05422 0.0
C1703 C 0.39635 0.99237 0.05165 0.0
C1704 C 0.41225 0.98573 0.06668 0.0
C1705 C 0.41703 0.99892 0.07708 0.0
C1706 C 0.41226 0.00945 0.07407 0.0
C1707 C 0.40201 0.00623 0.06138 0.0
C1708 C 0.42582 0.00069 0.0917 0.0
C1709 C 0.44032 0.01415 0.09513 0.0
C1710 C 0.42022 0.98846 0.10176 0.0
C1711 C 0.40455 0.97445 0.09941 0.0
C1712 C 0.39186 0.9762 0.09773 0.0
C1713 C 0.3772 0.96302 0.09495 0.0
C1714 C 0.37502 0.94799 0.09411 0.0
C1715 C 0.38753 0.94612 0.09603 0.0
C1716 C 0.40225 0.95928 0.09866 0.0
C1717 C 0.46509 0.0134 0.15722 0.0
C1718 C 0.46718 0.00067 0.15872 0.0
C1719 C 0.45822 0.01452 0.14359 0.0
C1720 C 0.45339 0.00296 0.13124 0.0
C1721 C 0.45608 0.99064 0.13249 0.0
C1722 C 0.46295 0.98953 0.14605 0.0
C1723 C 0.44428 0.00277 0.11757 0.0
C1724 C 0.42958 0.9896 0.11442 0.0
C1725 C 0.44967 0.01533 0.10794 0.0
C1726 C 0.46516 0.02948 0.11062 0.0
C1727 C 0.47813 0.02813 0.11141 0.0
C1728 C 0.49269 0.04153 0.11402 0.0
C1729 C 0.49444 0.05638 0.11574 0.0
C1730 C 0.48164 0.05784 0.11482 0.0
C1731 C 0.46705 0.04447 0.11223 0.0
H1732 H 0.50573 0.06674 0.11775 0.0
H1733 H 0.36366 0.93778 0.09198 0.0
H1734 H 0.38252 0.96177 0.97777 0.0
H1735 H 0.39834 0.96587 0.95599 0.0
H1736 H 0.40607 0.0124 0.95364 0.0
H1737 H 0.39027 0.00847 0.97551 0.0
H1738 H 0.39998 0.99523 0.92429 0.0
H1739 H 0.43279 0.00959 0.97059 0.0
H1740 H 0.44029 0.00544 0.99627 0.0
H1741 H 0.44064 0.96515 0.97692 0.0
H1742 H 0.43291 0.96893 0.95114 0.0
H1743 H 0.46302 0.02337 0.87706 0.0
H1744 H 0.44598 0.02004 0.89747 0.0
H1745 H 0.44343 0.97701 0.90766 0.0
H1746 H 0.46121 0.98077 0.88798 0.0
H1747 H 0.44686 0.99322 0.93325 0.0
H1748 H 0.41384 0.97804 0.88722 0.0
H1749 H 0.40555 0.98112 0.86143 0.0
H1750 H 0.40465 0.02142 0.87973 0.0
H1751 H 0.41314 0.01871 0.9056 0.0
C1752 C 0.38745 0.97284 0.97256 0.0
C1753 C 0.38521 0.98484 0.97849 0.0
C1754 C 0.39652 0.97516 0.96013 0.0
C1755 C 0.40348 0.98948 0.95333 0.0
C1756 C 0.40082 0.00128 0.95878 0.0
C1757 C 0.39184 0.99902 0.97132 0.0
C1758 C 0.41404 0.99232 0.94096 0.0
C1759 C 0.41034 0.995 0.92624 0.0
C1760 C 0.42735 0.99167 0.9435 0.0
C1761 C 0.43213 0.98946 0.95897 0.0
C1762 C 0.43434 0.99977 0.97183 0.0
C1763 C 0.43866 0.9975 0.9864 0.0
C1764 C 0.4409 0.98502 0.98823 0.0
C1765 C 0.43888 0.9748 0.97548 0.0
C1766 C 0.43454 0.97701 0.96089 0.0
C1767 C 0.45897 0.01328 0.88374 0.0
C1768 C 0.4635 0.00233 0.88081 0.0
C1769 C 0.44904 0.01127 0.89529 0.0
C1770 C 0.44321 0.99814 0.90397 0.0
C1771 C 0.44771 0.9872 0.90108 0.0
C1772 C 0.45777 0.98929 0.88967 0.0
C1773 C 0.43277 0.99596 0.91638 0.0
C1774 C 0.43651 0.99345 0.93119 0.0
C1775 C 0.41942 0.99662 0.91385 0.0
C1776 C 0.41429 0.99827 0.89831 0.0
C1777 C 0.41199 0.98763 0.88572 0.0
C1778 C 0.40724 0.9893 0.87109 0.0
C1779 C 0.40462 0.00149 0.86893 0.0
C1780 C 0.40671 0.012 0.88141 0.0
C1781 C 0.41148 0.0104 0.89606 0.0
H1782 H 0.40093 0.00276 0.8576 0.0
H1783 H 0.44424 0.98327 0.99952 0.0
H1784 H 0.02669 0.38482 0.97874 0.0
H1785 H 0.03352 0.40459 0.95999 0.0
H1786 H 0.98594 0.38899 0.95151 0.0
H1787 H 0.97906 0.36916 0.96962 0.0
H1788 H 0.99867 0.39413 0.9254 0.0
H1789 H 0.0119 0.42182 0.97665 0.0
H1790 H 0.02598 0.43063 0.0022 0.0
H1791 H 0.06849 0.45395 0.98056 0.0
H1792 H 0.05465 0.44494 0.95484 0.0
H1793 H 0.99038 0.45621 0.90597 0.0
H1794 H 0.99288 0.43798 0.9215 0.0
H1795 H 0.03893 0.4566 0.90829 0.0
H1796 H 0.03635 0.4745 0.89205 0.0
H1797 H 0.03251 0.45068 0.94231 0.0
H1798 H 0.01775 0.42617 0.89072 0.0
H1799 H 0.0025 0.41816 0.86586 0.0
H1800 H 0.96177 0.38916 0.88882 0.0
H1801 H 0.97671 0.39737 0.9139 0.0
C1802 C 0.0177 0.38556 0.97278 0.0
C1803 C 0.00233 0.37539 0.97575 0.0
C1804 C 0.02162 0.39689 0.9621 0.0
C1805 C 0.01025 0.39837 0.9544 0.0
C1806 C 0.99493 0.38805 0.9572 0.0
C1807 C 0.99102 0.37671 0.96766 0.0
C1808 C 0.01395 0.41087 0.94377 0.0
C1809 C 0.00611 0.40648 0.92912 0.0
C1810 C 0.02398 0.42702 0.94839 0.0
C1811 C 0.03226 0.43254 0.96384 0.0
C1812 C 0.02426 0.42873 0.97734 0.0
C1813 C 0.03219 0.43377 0.99186 0.0
C1814 C 0.04812 0.44284 0.99302 0.0
C1815 C 0.05615 0.4469 0.97965 0.0
C1816 C 0.04827 0.4418 0.9651 0.0
C1817 C 0.00103 0.45643 0.90625 0.0
C1818 C 0.01308 0.46671 0.89755 0.0
C1819 C 0.00248 0.44608 0.91525 0.0
C1820 C 0.01604 0.44591 0.91592 0.0
C1821 C 0.02838 0.45662 0.90791 0.0
C1822 C 0.02689 0.46687 0.8987 0.0
C1823 C 0.01677 0.43384 0.92435 0.0
C1824 C 0.02541 0.43831 0.9385 0.0
C1825 C 0.00736 0.41775 0.91936 0.0
C1826 C 0.99836 0.41249 0.90423 0.0
C1827 C 0.00553 0.4182 0.8905 0.0
C1828 C 0.99693 0.41362 0.87636 0.0
C1829 C 0.98118 0.40315 0.87576 0.0
C1830 C 0.97398 0.39726 0.8893 0.0
C1831 C 0.9825 0.40189 0.90349 0.0
H1832 H 0.97455 0.39959 0.86479 0.0
H1833 H 0.05423 0.44675 0.00427 0.0
H1834 H 0.60914 0.59493 0.02183 0.0
H1835 H 0.59259 0.57959 0.99883 0.0
H1836 H 0.58382 0.61664 0.99121 0.0
H1837 H 0.59968 0.63157 0.01451 0.0
H1838 H 0.55846 0.59003 0.987 0.0
H1839 H 0.60995 0.60936 0.97023 0.0
H1840 H 0.63527 0.61204 0.97148 0.0
H1841 H 0.61401 0.56193 0.96577 0.0
H1842 H 0.5886 0.55894 0.96467 0.0
H1843 H 0.5363 0.57889 0.90738 0.0
H1844 H 0.54855 0.58767 0.93345 0.0
H1845 H 0.54886 0.54484 0.93578 0.0
H1846 H 0.53636 0.53582 0.90975 0.0
H1847 H 0.57651 0.57036 0.94401 0.0
H1848 H 0.52568 0.55068 0.95755 0.0
H1849 H 0.49994 0.54684 0.95609 0.0
H1850 H 0.51905 0.59605 0.96804 0.0
H1851 H 0.54495 0.60023 0.96934 0.0
C1852 C 0.60374 0.5998 0.01517 0.0
C1853 C 0.60571 0.61444 0.01994 0.0
C1854 C 0.5943 0.59105 0.00201 0.0
C1855 C 0.58706 0.59702 0.99315 0.0
C1856 C 0.5892 0.61173 0.99786 0.0
C1857 C 0.59833 0.62029 0.01115 0.0
C1858 C 0.57716 0.58808 0.97902 0.0
C1859 C 0.56248 0.58587 0.97754 0.0
C1860 C 0.5821 0.58203 0.96691 0.0
C1861 C 0.5974 0.58393 0.96753 0.0
C1862 C 0.61069 0.59892 0.96934 0.0
C1863 C 0.62505 0.60049 0.97001 0.0
C1864 C 0.62621 0.58715 0.96876 0.0
C1865 C 0.61306 0.57223 0.96678 0.0
C1866 C 0.5987 0.5706 0.96612 0.0
C1867 C 0.53867 0.57118 0.91354 0.0
C1868 C 0.53539 0.55668 0.90647 0.0
C1869 C 0.54569 0.57623 0.92844 0.0
C1870 C 0.54952 0.56686 0.93657 0.0
C1871 C 0.54601 0.55225 0.92968 0.0
C1872 C 0.53894 0.54716 0.91479 0.0
C1873 C 0.5581 0.57284 0.95183 0.0
C1874 C 0.57247 0.57443 0.95353 0.0
C1875 C 0.55284 0.57823 0.96416 0.0
C1876 C 0.53728 0.57579 0.96343 0.0
C1877 C 0.52441 0.56071 0.95975 0.0
C1878 C 0.50978 0.55846 0.95897 0.0
C1879 C 0.50786 0.57119 0.96195 0.0
C1880 C 0.52056 0.58619 0.96573 0.0
C1881 C 0.53522 0.58851 0.96651 0.0
H1882 H 0.49653 0.56943 0.96134 0.0
H1883 H 0.63728 0.58833 0.96928 0.0
H1884 H 0.03836 0.64659 0.00892 0.0
H1885 H 0.03709 0.62961 0.98694 0.0
H1886 H 0.988 0.60637 0.98349 0.0
H1887 H 0.98913 0.62348 0.00535 0.0
H1888 H 0.02463 0.59885 0.98532 0.0
H1889 H 0.97494 0.59214 0.94579 0.0
H1890 H 0.96345 0.60749 0.93849 0.0
H1891 H 0.00622 0.65034 0.95012 0.0
H1892 H 0.01801 0.63525 0.95731 0.0
H1893 H 1.00022 0.53469 0.92866 0.0
H1894 H 1.0001 0.55256 0.9491 0.0
H1895 H 0.0206 0.59049 0.91934 0.0
H1896 H 0.0203 0.57266 0.89879 0.0
H1897 H 0.99815 0.59068 0.93393 0.0
H1898 H 0.042 0.58718 0.94771 0.0
H1899 H 0.05548 0.57344 0.95374 0.0
H1900 H 0.02796 0.55427 0.99217 0.0
H1901 H 0.01418 0.56774 0.98624 0.0
C1902 C 0.02728 0.63801 0.0034 0.0
C1903 C 0.01384 0.63637 0.00899 0.0
C1904 C 0.02658 0.62827 0.99085 0.0
C1905 C 0.01246 0.61671 0.98359 0.0
C1906 C 0.99904 0.61531 0.98882 0.0
C1907 C 0.99971 0.6251 0.00136 0.0
C1908 C 0.01183 0.60564 0.97108 0.0
C1909 C 0.01882 0.59706 0.97409 0.0
C1910 C 0.0043 0.60335 0.9564 0.0
C1911 C 0.99731 0.61255 0.95223 0.0
C1912 C 0.9819 0.60483 0.94676 0.0
C1913 C 0.97534 0.61349 0.94263 0.0
C1914 C 0.9841 0.62988 0.94384 0.0
C1915 C 0.99944 0.63764 0.94922 0.0
C1916 C 0.00605 0.62905 0.95336 0.0
C1917 C 0.00465 0.54683 0.9265 0.0
C1918 C 0.01047 0.55233 0.91222 0.0
C1919 C 0.00464 0.55703 0.93818 0.0
C1920 C 0.01047 0.57288 0.93577 0.0
C1921 C 0.01608 0.57832 0.92146 0.0
C1922 C 0.01609 0.56816 0.9098 0.0
C1923 C 0.01098 0.58395 0.9482 0.0
C1924 C 0.00388 0.59243 0.9452 0.0
C1925 C 0.01864 0.58638 0.9628 0.0
C1926 C 0.02696 0.57834 0.96644 0.0
C1927 C 0.03875 0.57994 0.95738 0.0
C1928 C 0.04646 0.57222 0.96079 0.0
C1929 C 0.04255 0.56295 0.97331 0.0
C1930 C 0.03096 0.56143 0.98247 0.0
C1931 C 0.02321 0.56912 0.97909 0.0
H1932 H 0.04853 0.55698 0.97593 0.0
H1933 H 0.97901 0.63655 0.94062 0.0
H1934 H 0.37142 0.3986 0.96491 0.0
H1935 H 0.38207 0.42102 0.9488 0.0
H1936 H 0.42612 0.42558 0.95381 0.0
H1937 H 0.41556 0.40309 0.9694 0.0
H1938 H 0.42507 0.45516 0.95813 0.0
H1939 H 0.40771 0.40733 0.92359 0.0
H1940 H 0.38764 0.38107 0.91236 0.0
H1941 H 0.36105 0.4001 0.89644 0.0
H1942 H 0.38089 0.42644 0.9078 0.0
H1943 H 0.47538 0.49362 0.90209 0.0
H1944 H 0.45848 0.47658 0.92059 0.0
H1945 H 0.41954 0.47061 0.89374 0.0
H1946 H 0.43636 0.48675 0.87446 0.0
H1947 H 0.41317 0.44383 0.90146 0.0
H1948 H 0.43253 0.4925 0.93029 0.0
H1949 H 0.45168 0.51905 0.94165 0.0
H1950 H 0.47277 0.49996 0.9689 0.0
H1951 H 0.4539 0.4733 0.95755 0.0
C1952 C 0.38339 0.40448 0.96262 0.0
C1953 C 0.39265 0.39906 0.96826 0.0
C1954 C 0.38943 0.41724 0.95347 0.0
C1955 C 0.40486 0.42491 0.95021 0.0
C1956 C 0.4142 0.41983 0.95628 0.0
C1957 C 0.40812 0.40692 0.96507 0.0
C1958 C 0.41132 0.43764 0.93971 0.0
C1959 C 0.42249 0.4528 0.94574 0.0
C1960 C 0.40747 0.43457 0.92365 0.0
C1961 C 0.39566 0.41878 0.91671 0.0
C1962 C 0.39751 0.40587 0.91782 0.0
C1963 C 0.3862 0.39099 0.91141 0.0
C1964 C 0.37305 0.3889 0.90374 0.0
C1965 C 0.37122 0.40172 0.90242 0.0
C1966 C 0.38249 0.41663 0.90884 0.0
C1967 C 0.46322 0.48863 0.90001 0.0
C1968 C 0.45727 0.49149 0.88667 0.0
C1969 C 0.45355 0.47909 0.9108 0.0
C1970 C 0.43771 0.47251 0.90876 0.0
C1971 C 0.43172 0.47562 0.89564 0.0
C1972 C 0.44139 0.48499 0.88469 0.0
C1973 C 0.42747 0.46146 0.91977 0.0
C1974 C 0.41556 0.44652 0.91386 0.0
C1975 C 0.43046 0.46486 0.93599 0.0
C1976 C 0.4418 0.48087 0.943 0.0
C1977 C 0.4413 0.49396 0.93864 0.0
C1978 C 0.45211 0.50904 0.94509 0.0
C1979 C 0.46344 0.51119 0.95597 0.0
C1980 C 0.46398 0.49827 0.96047 0.0
C1981 C 0.4532 0.48316 0.95405 0.0
H1982 H 0.4718 0.52288 0.96094 0.0
H1983 H 0.3643 0.37737 0.89878 0.0
H1984 H 0.60701 0.03125 0.0077 0.0
H1985 H 0.58826 0.02353 0.986 0.0
H1986 H 0.58707 0.97997 0.97761 0.0
H1987 H 0.60579 0.98753 0.99961 0.0
H1988 H 0.59144 0.99796 0.95082 0.0
H1989 H 0.55756 0.97665 0.99119 0.0
H1990 H 0.54814 0.97693 0.01691 0.0
H1991 H 0.54151 0.01443 0.00584 0.0
H1992 H 0.55114 0.01455 0.98013 0.0
H1993 H 0.53542 0.97798 0.89025 0.0
H1994 H 0.54706 0.97517 0.9138 0.0
H1995 H 0.54778 0.01515 0.93631 0.0
H1996 H 0.53543 0.01754 0.91309 0.0
H1997 H 0.54153 0.99385 0.95625 0.0
H1998 H 0.57883 0.0184 0.9185 0.0
H1999 H 0.58947 0.02004 0.89309 0.0
H2000 H 0.59092 0.97854 0.89956 0.0
H2001 H 0.58004 0.9765 0.92491 0.0
C2002 C 0.60273 0.01999 0.0013 0.0
C2003 C 0.6079 0.01 0.00535 0.0
C2004 C 0.59196 0.01557 0.98895 0.0
C2005 C 0.58624 0.00116 0.98028 0.0
C2006 C 0.59133 0.99112 0.98423 0.0
C2007 C 0.60196 0.99543 0.99681 0.0
C2008 C 0.5754 0.9971 0.96675 0.0
C2009 C 0.58035 0.99665 0.95196 0.0
C2010 C 0.56113 0.9958 0.96834 0.0
C2011 C 0.55518 0.99567 0.98375 0.0
C2012 C 0.55421 0.98504 0.99427 0.0
C2013 C 0.54881 0.98511 0.00885 0.0
C2014 C 0.54425 0.99571 0.01302 0.0
C2015 C 0.54505 0.00623 0.0026 0.0
C2016 C 0.55046 0.00622 0.98801 0.0
C2017 C 0.53768 0.98593 0.90033 0.0
C2018 C 0.53463 0.9981 0.89972 0.0
C2019 C 0.54449 0.9844 0.91374 0.0
C2020 C 0.54858 0.99514 0.92672 0.0
C2021 C 0.54482 0.00678 0.92642 0.0
C2022 C 0.5379 0.00823 0.91307 0.0
C2023 C 0.55768 0.99502 0.94026 0.0
C2024 C 0.55244 0.99477 0.95506 0.0
C2025 C 0.5718 0.9959 0.93869 0.0
C2026 C 0.57845 0.99719 0.92351 0.0
C2027 C 0.58131 0.00956 0.91445 0.0
C2028 C 0.58739 0.01057 0.90007 0.0
C2029 C 0.59083 0.99938 0.8947 0.0
C2030 C 0.58822 0.98718 0.90372 0.0
C2031 C 0.58209 0.98608 0.91809 0.0
H2032 H 0.59558 0.00021 0.88359 0.0
H2033 H 0.54008 0.99575 0.02431 0.0
H2034 H 0.60782 0.99321 0.07998 0.0
H2035 H 0.59249 0.9898 0.10203 0.0
H2036 H 0.60802 0.03912 0.10517 0.0
H2037 H 0.62356 0.04274 0.08321 0.0
H2038 H 0.60765 0.02887 0.1335 0.0
H2039 H 0.57328 0.01273 0.08846 0.0
H2040 H 0.56062 0.99783 0.06352 0.0
H2041 H 0.54235 0.95454 0.08508 0.0
H2042 H 0.55508 0.96919 0.11012 0.0
H2043 H 0.54901 0.02579 0.17813 0.0
H2044 H 0.56645 0.02953 0.15796 0.0
H2045 H 0.55179 0.98047 0.15626 0.0
H2046 H 0.53456 0.97667 0.17667 0.0
H2047 H 0.5519 0.99047 0.12745 0.0
H2048 H 0.58596 0.00707 0.17282 0.0
H2049 H 0.5985 0.02234 0.19764 0.0
H2050 H 0.61713 0.06522 0.17531 0.0
H2051 H 0.60451 0.05021 0.15037 0.0
C2052 C 0.60806 0.00338 0.08537 0.0
C2053 C 0.61686 0.01824 0.0797 0.0
C2054 C 0.59924 0.00138 0.09796 0.0
C2055 C 0.59895 0.01416 0.1051 0.0
C2056 C 0.60805 0.02909 0.0998 0.0
C2057 C 0.6169 0.03112 0.0872 0.0
C2058 C 0.5889 0.01189 0.11788 0.0
C2059 C 0.59543 0.02061 0.13213 0.0
C2060 C 0.573 0.0009 0.11616 0.0
C2061 C 0.56527 0.99205 0.10113 0.0
C2062 C 0.56667 3e-05 0.08786 0.0
C2063 C 0.55946 0.99163 0.07371 0.0
C2064 C 0.55072 0.97524 0.0727 0.0
C2065 C 0.54914 0.96723 0.08587 0.0
C2066 C 0.55634 0.97558 0.10005 0.0
C2067 C 0.54967 0.01584 0.17366 0.0
C2068 C 0.54037 0.00092 0.17903 0.0
C2069 C 0.5596 0.01799 0.16209 0.0
C2070 C 0.56046 0.00529 0.15567 0.0
C2071 C 0.55126 0.99041 0.16103 0.0
C2072 C 0.54137 0.98826 0.17265 0.0
C2073 C 0.57065 0.00743 0.14307 0.0
C2074 C 0.56412 0.99869 0.12884 0.0
C2075 C 0.58653 0.01846 0.14479 0.0
C2076 C 0.59416 0.02752 0.15976 0.0
C2077 C 0.59263 0.01976 0.17322 0.0
C2078 C 0.59977 0.02837 0.18731 0.0
C2079 C 0.60858 0.04474 0.18806 0.0
C2080 C 0.61029 0.05254 0.17471 0.0
C2081 C 0.60315 0.04399 0.1606 0.0
H2082 H 0.6141 0.05138 0.19897 0.0
H2083 H 0.54515 0.96876 0.06174 0.0
H2084 H 0.98196 0.62351 0.08528 0.0
H2085 H 0.97522 0.6026 0.10281 0.0
H2086 H 0.01458 0.60057 0.09053 0.0
H2087 H 0.02161 0.62163 0.07352 0.0
H2088 H 0.98425 0.56983 0.09085 0.0
H2089 H 0.02017 0.61951 0.12076 0.0
H2090 H 0.02815 0.64617 0.13164 0.0
H2091 H 0.987 0.62769 0.15559 0.0
H2092 H 0.97867 0.60092 0.14464 0.0
H2093 H 0.00574 0.53377 0.14406 0.0
H2094 H 0.00387 0.55084 0.12636 0.0
H2095 H 0.97475 0.55741 0.15672 0.0
H2096 H 0.97733 0.54106 0.17499 0.0
H2097 H 0.99461 0.58426 0.14734 0.0
H2098 H 0.9605 0.53423 0.12171 0.0
H2099 H 0.95143 0.50732 0.11077 0.0
H2100 H 0.98651 0.52528 0.0786 0.0
H2101 H 0.99594 0.5523 0.0895 0.0
C2102 C 0.98908 0.61849 0.08629 0.0
C2103 C 0.00235 0.62422 0.07816 0.0
C2104 C 0.98523 0.60661 0.09627 0.0
C2105 C 0.99442 0.6001 0.09789 0.0
C2106 C 0.00735 0.60544 0.08937 0.0
C2107 C 0.01139 0.61752 0.07975 0.0
C2108 C 0.99117 0.58822 0.10896 0.0
C2109 C 0.98648 0.57291 0.10321 0.0
C2110 C 0.99366 0.59221 0.12507 0.0
C2111 C 0.99871 0.60826 0.13172 0.0
C2112 C 0.01275 0.62115 0.12822 0.0
C2113 C 0.01736 0.63628 0.13442 0.0
C2114 C 0.00806 0.63864 0.14425 0.0
C2115 C 0.99417 0.62586 0.14794 0.0
C2116 C 0.9895 0.6107 0.14174 0.0
C2117 C 0.99902 0.53892 0.14706 0.0
C2118 C 0.9917 0.53602 0.16099 0.0
C2119 C 0.99777 0.54851 0.13679 0.0
C2120 C 0.98892 0.5552 0.14004 0.0
C2121 C 0.98154 0.5523 0.1539 0.0
C2122 C 0.98292 0.54281 0.16427 0.0
C2123 C 0.98803 0.56579 0.12926 0.0
C2124 C 0.99199 0.58093 0.13504 0.0
C2125 C 0.98465 0.56154 0.11316 0.0
C2126 C 0.97899 0.5453 0.1065 0.0
C2127 C 0.96635 0.53244 0.11237 0.0
C2128 C 0.96113 0.51717 0.10617 0.0
C2129 C 0.96841 0.51459 0.09401 0.0
C2130 C 0.98089 0.52729 0.08802 0.0
C2131 C 0.98616 0.5426 0.09419 0.0
H2132 H 0.96435 0.50275 0.08923 0.0
H2133 H 0.01164 0.65036 0.14904 0.0
H2134 H 0.37948 0.37482 0.04924 0.0
H2135 H 0.39403 0.38651 0.07408 0.0
H2136 H 0.43607 0.40597 0.05097 0.0
H2137 H 0.42152 0.39326 0.02637 0.0
H2138 H 0.44021 0.396 0.07494 0.0
H2139 H 0.41941 0.42829 0.06585 0.0
H2140 H 0.39925 0.43403 0.0599 0.0
H2141 H 0.3773 0.41306 0.10073 0.0
H2142 H 0.39723 0.40704 0.10683 0.0
H2143 H 0.485 0.45525 0.1381 0.0
H2144 H 0.4702 0.44353 0.11316 0.0
H2145 H 0.43426 0.40607 0.13624 0.0
H2146 H 0.44921 0.41746 0.16107 0.0
H2147 H 0.42747 0.42578 0.11287 0.0
H2148 H 0.44971 0.3933 0.12034 0.0
H2149 H 0.47152 0.38992 0.1256 0.0
H2150 H 0.49292 0.415 0.08629 0.0
H2151 H 0.47132 0.41874 0.08096 0.0
C2152 C 0.39183 0.38164 0.04953 0.0
C2153 C 0.39943 0.38318 0.03597 0.0
C2154 C 0.40016 0.38843 0.0637 0.0
C2155 C 0.4162 0.39742 0.06444 0.0
C2156 C 0.42373 0.39907 0.05078 0.0
C2157 C 0.41543 0.39186 0.03672 0.0
C2158 C 0.4252 0.4047 0.07944 0.0
C2159 C 0.43748 0.40268 0.08308 0.0
C2160 C 0.42166 0.41332 0.09026 0.0
C2161 C 0.40974 0.41709 0.08672 0.0
C2162 C 0.41023 0.42483 0.07352 0.0
C2163 C 0.39885 0.42814 0.07012 0.0
C2164 C 0.38698 0.42388 0.0799 0.0
C2165 C 0.38649 0.41634 0.09314 0.0
C2166 C 0.39784 0.413 0.09659 0.0
C2167 C 0.47399 0.44446 0.13775 0.0
C2168 C 0.46823 0.43711 0.15134 0.0
C2169 C 0.46558 0.43783 0.1236 0.0
C2170 C 0.4512 0.42399 0.12298 0.0
C2171 C 0.44535 0.41676 0.13657 0.0
C2172 C 0.4539 0.42318 0.15065 0.0
C2173 C 0.44226 0.417 0.1081 0.0
C2174 C 0.43008 0.41911 0.10458 0.0
C2175 C 0.44609 0.4088 0.09722 0.0
C2176 C 0.45901 0.40646 0.10037 0.0
C2177 C 0.45915 0.39824 0.11292 0.0
C2178 C 0.47145 0.39622 0.11589 0.0
C2179 C 0.48363 0.40229 0.10631 0.0
C2180 C 0.4835 0.41034 0.09372 0.0
C2181 C 0.47122 0.4124 0.09071 0.0
H2182 H 0.49314 0.40071 0.10863 0.0
H2183 H 0.37818 0.42646 0.07724 0.0
H2184 H 0.63174 0.70338 0.37608 0.0
H2185 H 0.63177 0.7209 0.39674 0.0
H2186 H 0.68079 0.74445 0.40324 0.0
H2187 H 0.68086 0.72667 0.38278 0.0
H2188 H 0.66876 0.7401 0.43025 0.0
H2189 H 0.66355 0.76109 0.3842 0.0
H2190 H 0.65273 0.76064 0.35833 0.0
H2191 H 0.60941 0.7461 0.37679 0.0
H2192 H 0.61991 0.74624 0.40274 0.0
H2193 H 0.67578 0.80643 0.47424 0.0
H2194 H 0.677 0.79179 0.45142 0.0
H2195 H 0.62929 0.75706 0.45309 0.0
H2196 H 0.62808 0.77094 0.47647 0.0
H2197 H 0.64212 0.76894 0.42149 0.0
H2198 H 0.64802 0.74615 0.46738 0.0
H2199 H 0.65998 0.74814 0.4931 0.0
H2200 H 0.70379 0.76805 0.4741 0.0
H2201 H 0.69211 0.76647 0.44831 0.0
C2202 C 0.64256 0.71227 0.38188 0.0
C2203 C 0.65632 0.71367 0.37768 0.0
C2204 C 0.64255 0.72234 0.39365 0.0
C2205 C 0.65631 0.73419 0.40133 0.0
C2206 C 0.67005 0.73544 0.39741 0.0
C2207 C 0.67006 0.72526 0.3857 0.0
C2208 C 0.65628 0.74516 0.41353 0.0
C2209 C 0.66313 0.74657 0.42823 0.0
C2210 C 0.64883 0.75354 0.41097 0.0
C2211 C 0.64249 0.75355 0.3954 0.0
C2212 C 0.65168 0.75769 0.38273 0.0
C2213 C 0.64562 0.75751 0.36805 0.0
C2214 C 0.63038 0.75331 0.36592 0.0
C2215 C 0.6212 0.74934 0.37846 0.0
C2216 C 0.62721 0.74948 0.39316 0.0
C2217 C 0.66552 0.79566 0.46983 0.0
C2218 C 0.65187 0.7898 0.4774 0.0
C2219 C 0.66623 0.78742 0.45669 0.0
C2220 C 0.65325 0.77337 0.45069 0.0
C2221 C 0.63939 0.76796 0.45757 0.0
C2222 C 0.63873 0.776 0.4709 0.0
C2223 C 0.65442 0.76364 0.43806 0.0
C2224 C 0.6478 0.7625 0.42336 0.0
C2225 C 0.66223 0.75567 0.44054 0.0
C2226 C 0.66923 0.75637 0.45597 0.0
C2227 C 0.66023 0.7511 0.46872 0.0
C2228 C 0.66695 0.75213 0.48331 0.0
C2229 C 0.68264 0.75826 0.48524 0.0
C2230 C 0.69164 0.76333 0.47259 0.0
C2231 C 0.68498 0.76237 0.45798 0.0
H2232 H 0.68782 0.75905 0.49655 0.0
H2233 H 0.6257 0.75318 0.35455 0.0
H2234 H 0.29745 0.93497 0.42756 0.0
H2235 H 0.28594 0.91558 0.44662 0.0
H2236 H 0.25658 0.9331 0.45821 0.0
H2237 H 0.2682 0.95268 0.43957 0.0
H2238 H 0.26717 0.92775 0.48353 0.0
H2239 H 0.24439 0.89933 0.4336 0.0
H2240 H 0.24481 0.88962 0.407 0.0
H2241 H 0.26667 0.86609 0.42408 0.0
H2242 H 0.26654 0.87583 0.45079 0.0
H2243 H 0.20138 0.86579 0.51123 0.0
H2244 H 0.21953 0.88489 0.49476 0.0
H2245 H 0.24759 0.86462 0.49844 0.0
H2246 H 0.22976 0.84575 0.51557 0.0
H2247 H 0.24162 0.87089 0.46724 0.0
H2248 H 0.26069 0.8966 0.5178 0.0
H2249 H 0.25892 0.90573 0.54417 0.0
H2250 H 0.24301 0.93408 0.52565 0.0
H2251 H 0.24445 0.92492 0.49915 0.0
C2252 C 0.28858 0.93473 0.43421 0.0
C2253 C 0.28371 0.94535 0.43197 0.0
C2254 C 0.28199 0.92361 0.44507 0.0
C2255 C 0.27028 0.92277 0.45373 0.0
C2256 C 0.26562 0.93354 0.4517 0.0
C2257 C 0.27226 0.94471 0.44097 0.0
C2258 C 0.26254 0.91056 0.46472 0.0
C2259 C 0.26155 0.91532 0.47994 0.0
C2260 C 0.25558 0.89433 0.46019 0.0
C2261 C 0.25563 0.88846 0.44416 0.0
C2262 C 0.24939 0.89219 0.43167 0.0
C2263 C 0.24956 0.88666 0.41658 0.0
C2264 C 0.25581 0.87729 0.41385 0.0
C2265 C 0.26187 0.87338 0.42621 0.0
C2266 C 0.26174 0.87889 0.44132 0.0
C2267 C 0.2115 0.86547 0.50876 0.0
C2268 C 0.21418 0.85432 0.51491 0.0
C2269 C 0.2218 0.87634 0.49925 0.0
C2270 C 0.23493 0.87622 0.49555 0.0
C2271 C 0.2375 0.86487 0.50122 0.0
C2272 C 0.22726 0.85406 0.51093 0.0
C2273 C 0.24591 0.88815 0.4858 0.0
C2274 C 0.24751 0.88333 0.47087 0.0
C2275 C 0.25335 0.90433 0.49055 0.0
C2276 C 0.25258 0.90998 0.50647 0.0
C2277 C 0.2567 0.90469 0.51934 0.0
C2278 C 0.25577 0.90988 0.53432 0.0
C2279 C 0.25083 0.92046 0.53659 0.0
C2280 C 0.24683 0.92589 0.52388 0.0
C2281 C 0.24772 0.92071 0.50887 0.0
H2282 H 0.25013 0.92448 0.54819 0.0
H2283 H 0.25593 0.87302 0.40216 0.0
H2284 H 0.05498 0.31313 0.40578 0.0
H2285 H 0.07355 0.3238 0.42795 0.0
H2286 H 0.10356 0.36397 0.4036 0.0
H2287 H 0.0848 0.35343 0.38124 0.0
H2288 H 0.11728 0.34756 0.41904 0.0
H2289 H 0.08887 0.37217 0.42979 0.0
H2290 H 0.06561 0.37337 0.432 0.0
H2291 H 0.05082 0.34042 0.46672 0.0
H2292 H 0.07388 0.33882 0.46455 0.0
H2293 H 0.16194 0.37218 0.49164 0.0
H2294 H 0.14943 0.37365 0.46785 0.0
H2295 H 0.10594 0.33703 0.48159 0.0
H2296 H 0.11815 0.33602 0.50551 0.0
H2297 H 0.10288 0.35899 0.46996 0.0
H2298 H 0.12734 0.32988 0.45519 0.0
H2299 H 0.1496 0.32686 0.45301 0.0
H2300 H 0.171 0.36675 0.4261 0.0
H2301 H 0.14888 0.37008 0.42825 0.0
C2302 C 0.06551 0.32424 0.40509 0.0
C2303 C 0.06843 0.33243 0.39174 0.0
C2304 C 0.07609 0.33034 0.41779 0.0
C2305 C 0.08987 0.34468 0.4174 0.0
C2306 C 0.09296 0.35289 0.40409 0.0
C2307 C 0.08222 0.34689 0.39139 0.0
C2308 C 0.1009 0.35074 0.43104 0.0
C2309 C 0.11439 0.35049 0.43013 0.0
C2310 C 0.09694 0.35431 0.44549 0.0
C2311 C 0.08309 0.35532 0.44694 0.0
C2312 C 0.08061 0.36509 0.43781 0.0
C2313 C 0.06747 0.36586 0.43907 0.0
C2314 C 0.05674 0.35697 0.44948 0.0
C2315 C 0.05915 0.34731 0.45867 0.0
C2316 C 0.07227 0.34648 0.45744 0.0
C2317 C 0.14969 0.36457 0.48964 0.0
C2318 C 0.14107 0.35383 0.50038 0.0
C2319 C 0.14258 0.36535 0.476 0.0
C2320 C 0.12676 0.35533 0.47285 0.0
C2321 C 0.11815 0.34487 0.48373 0.0
C2322 C 0.1252 0.34415 0.49733 0.0
C2323 C 0.11898 0.35518 0.45812 0.0
C2324 C 0.10606 0.35653 0.45883 0.0
C2325 C 0.12339 0.35246 0.44353 0.0
C2326 C 0.13655 0.35033 0.44202 0.0
C2327 C 0.13683 0.33805 0.44887 0.0
C2328 C 0.1494 0.33628 0.44763 0.0
C2329 C 0.16172 0.34663 0.43945 0.0
C2330 C 0.16146 0.35875 0.43245 0.0
C2331 C 0.1489 0.36058 0.43366 0.0
H2332 H 0.17144 0.34523 0.43851 0.0
H2333 H 0.04657 0.35758 0.45043 0.0
H2334 H 0.05872 0.29264 0.32036 0.0
H2335 H 0.07175 0.29243 0.29729 0.0
H2336 H 0.07483 0.33517 0.2851 0.0
H2337 H 0.0619 0.33557 0.3082 0.0
H2338 H 0.06476 0.31147 0.26009 0.0
H2339 H 0.10523 0.33807 0.30036 0.0
H2340 H 0.11802 0.34089 0.32582 0.0
H2341 H 0.11922 0.29929 0.31383 0.0
H2342 H 0.10623 0.2961 0.28837 0.0
H2343 H 0.11884 0.33291 0.2032 0.0
H2344 H 0.10449 0.33206 0.22542 0.0
H2345 H 0.10937 0.29495 0.24221 0.0
H2346 H 0.12452 0.29639 0.22056 0.0
H2347 H 0.11489 0.31535 0.26497 0.0
H2348 H 0.07499 0.28829 0.22502 0.0
H2349 H 0.06154 0.28426 0.19965 0.0
H2350 H 0.0582 0.32473 0.21084 0.0
H2351 H 0.07182 0.32913 0.23621 0.0
C2352 C 0.06213 0.30198 0.31276 0.0
C2353 C 0.05932 0.31416 0.31616 0.0
C2354 C 0.0696 0.30186 0.29961 0.0
C2355 C 0.0743 0.31382 0.28956 0.0
C2356 C 0.07129 0.32584 0.29274 0.0
C2357 C 0.06397 0.32608 0.30598 0.0
C2358 C 0.08256 0.31391 0.27584 0.0
C2359 C 0.07581 0.31251 0.26111 0.0
C2360 C 0.09674 0.31481 0.27724 0.0
C2361 C 0.10461 0.31676 0.29252 0.0
C2362 C 0.1081 0.32945 0.3032 0.0
C2363 C 0.11541 0.33113 0.31763 0.0
C2364 C 0.11939 0.32025 0.32146 0.0
C2365 C 0.11611 0.30769 0.31086 0.0
C2366 C 0.10878 0.30595 0.29642 0.0
C2367 C 0.11695 0.32463 0.21166 0.0
C2368 C 0.12285 0.31471 0.21004 0.0
C2369 C 0.10856 0.32401 0.22428 0.0
C2370 C 0.10566 0.31329 0.23541 0.0
C2371 C 0.11141 0.30329 0.23375 0.0
C2372 C 0.11993 0.304 0.22124 0.0
C2373 C 0.09712 0.31289 0.24908 0.0
C2374 C 0.10382 0.31426 0.26385 0.0
C2375 C 0.08279 0.31176 0.24769 0.0
C2376 C 0.07456 0.30913 0.23246 0.0
C2377 C 0.07149 0.2964 0.22202 0.0
C2378 C 0.06382 0.29404 0.20765 0.0
C2379 C 0.05906 0.30426 0.20362 0.0
C2380 C 0.06192 0.31683 0.21397 0.0
C2381 C 0.0696 0.31926 0.22836 0.0
H2382 H 0.05312 0.30241 0.19248 0.0
H2383 H 0.12505 0.32157 0.33263 0.0
H2384 H 0.69571 0.73059 0.322 0.0
H2385 H 0.70581 0.7511 0.30387 0.0
H2386 H 0.66665 0.72208 0.27212 0.0
H2387 H 0.65644 0.70161 0.29013 0.0
H2388 H 0.69428 0.73856 0.25744 0.0
H2389 H 0.66574 0.74788 0.29593 0.0
H2390 H 0.66025 0.75213 0.32262 0.0
H2391 H 0.70533 0.79278 0.33056 0.0
H2392 H 0.71115 0.78863 0.30396 0.0
H2393 H 0.681 0.78672 0.21233 0.0
H2394 H 0.68055 0.76823 0.2297 0.0
H2395 H 0.71711 0.8065 0.25878 0.0
H2396 H 0.71706 0.82523 0.24181 0.0
H2397 H 0.69578 0.78729 0.2758 0.0
H2398 H 0.72286 0.78054 0.23568 0.0
H2399 H 0.72816 0.7764 0.2089 0.0
H2400 H 0.68665 0.73135 0.20383 0.0
H2401 H 0.68098 0.7353 0.23051 0.0
C2402 C 0.6894 0.72845 0.31103 0.0
C2403 C 0.67519 0.71455 0.30756 0.0
C2404 C 0.69517 0.7402 0.30072 0.0
C2405 C 0.68689 0.73813 0.28674 0.0
C2406 C 0.6732 0.72389 0.28285 0.0
C2407 C 0.66734 0.71224 0.2932 0.0
C2408 C 0.69166 0.75122 0.27675 0.0
C2409 C 0.69462 0.74923 0.2614 0.0
C2410 C 0.69248 0.76528 0.2821 0.0
C2411 C 0.68895 0.76783 0.29804 0.0
C2412 C 0.67452 0.75764 0.30341 0.0
C2413 C 0.67134 0.76005 0.31851 0.0
C2414 C 0.68245 0.77268 0.32829 0.0
C2415 C 0.69675 0.78297 0.32298 0.0
C2416 C 0.69999 0.78061 0.3079 0.0
C2417 C 0.6889 0.79125 0.22246 0.0
C2418 C 0.69899 0.80748 0.22573 0.0
C2419 C 0.6888 0.78062 0.23228 0.0
C2420 C 0.69897 0.78593 0.24544 0.0
C2421 C 0.70922 0.80212 0.24864 0.0
C2422 C 0.70925 0.8128 0.23886 0.0
C2423 C 0.69814 0.77458 0.25629 0.0
C2424 C 0.69585 0.77684 0.27184 0.0
C2425 C 0.69801 0.7608 0.25111 0.0
C2426 C 0.70146 0.75827 0.23509 0.0
C2427 C 0.71482 0.76979 0.22883 0.0
C2428 C 0.71789 0.76747 0.21367 0.0
C2429 C 0.70774 0.75363 0.20466 0.0
C2430 C 0.69451 0.74206 0.21082 0.0
C2431 C 0.69137 0.74433 0.22598 0.0
H2432 H 0.71013 0.75187 0.19291 0.0
H2433 H 0.67997 0.77452 0.33998 0.0
H2434 H 0.28128 0.9344 0.35759 0.0
H2435 H 0.26563 0.92082 0.3337 0.0
H2436 H 0.25317 0.95586 0.33155 0.0
H2437 H 0.26832 0.96915 0.35568 0.0
H2438 H 0.22916 0.92829 0.32446 0.0
H2439 H 0.28072 0.95535 0.30887 0.0
H2440 H 0.30767 0.96267 0.30962 0.0
H2441 H 0.29384 0.91456 0.29823 0.0
H2442 H 0.26679 0.90692 0.29763 0.0
H2443 H 0.20606 0.91775 0.24443 0.0
H2444 H 0.21917 0.92775 0.27008 0.0
H2445 H 0.22381 0.8874 0.27218 0.0
H2446 H 0.21029 0.87703 0.24671 0.0
H2447 H 0.25105 0.91589 0.27961 0.0
H2448 H 0.19916 0.88955 0.29363 0.0
H2449 H 0.17246 0.88305 0.29242 0.0
H2450 H 0.18737 0.93107 0.30606 0.0
H2451 H 0.21419 0.93791 0.30714 0.0
C2452 C 0.27522 0.93922 0.35202 0.0
C2453 C 0.27608 0.95289 0.35852 0.0
C2454 C 0.26631 0.93147 0.33833 0.0
C2455 C 0.25838 0.93744 0.3307 0.0
C2456 C 0.25916 0.95102 0.33723 0.0
C2457 C 0.26787 0.95863 0.35102 0.0
C2458 C 0.24927 0.92961 0.3159 0.0
C2459 C 0.23401 0.92575 0.31461 0.0
C2460 C 0.25547 0.92595 0.30313 0.0
C2461 C 0.27173 0.93054 0.30337 0.0
C2462 C 0.28343 0.94632 0.30663 0.0
C2463 C 0.29872 0.95052 0.30702 0.0
C2464 C 0.30246 0.93908 0.30402 0.0
C2465 C 0.29092 0.92341 0.30058 0.0
C2466 C 0.27561 0.91913 0.3002 0.0
C2467 C 0.20958 0.91083 0.25045 0.0
C2468 C 0.20713 0.89659 0.24348 0.0
C2469 C 0.21714 0.91661 0.26508 0.0
C2470 C 0.22241 0.90828 0.273 0.0
C2471 C 0.21987 0.89401 0.26619 0.0
C2472 C 0.21221 0.88816 0.25162 0.0
C2473 C 0.23107 0.91478 0.28817 0.0
C2474 C 0.24621 0.91839 0.28951 0.0
C2475 C 0.22482 0.91836 0.30092 0.0
C2476 C 0.2087 0.91427 0.30033 0.0
C2477 C 0.19676 0.89875 0.29625 0.0
C2478 C 0.1816 0.895 0.29561 0.0
C2479 C 0.17823 0.90665 0.29913 0.0
C2480 C 0.19 0.92206 0.30333 0.0
C2481 C 0.20518 0.92588 0.30397 0.0
H2482 H 0.16648 0.90372 0.29863 0.0
H2483 H 0.31431 0.94236 0.30432 0.0
H2484 H 0.70494 0.97795 0.34133 0.0
H2485 H 0.7074 0.96176 0.32081 0.0
H2486 H 0.66292 0.92277 0.32883 0.0
H2487 H 0.66014 0.93906 0.34915 0.0
H2488 H 0.69206 0.91907 0.32742 0.0
H2489 H 0.66009 0.93402 0.30039 0.0
H2490 H 0.65343 0.95315 0.29241 0.0
H2491 H 0.69588 0.97835 0.27092 0.0
H2492 H 0.7029 0.9595 0.27902 0.0
H2493 H 0.68533 0.8695 0.26156 0.0
H2494 H 0.6816 0.8835 0.28319 0.0
H2495 H 0.71254 0.92763 0.26489 0.0
H2496 H 0.71539 0.9137 0.24264 0.0
H2497 H 0.68876 0.92778 0.27213 0.0
H2498 H 0.72151 0.91427 0.29837 0.0
H2499 H 0.73014 0.89686 0.30703 0.0
H2500 H 0.68908 0.87089 0.33057 0.0
H2501 H 0.68011 0.88802 0.32188 0.0
C2502 C 0.69566 0.96595 0.3387 0.0
C2503 C 0.68234 0.95975 0.34681 0.0
C2504 C 0.69709 0.95674 0.327 0.0
C2505 C 0.68535 0.94113 0.32342 0.0
C2506 C 0.67207 0.93482 0.33152 0.0
C2507 C 0.67048 0.94415 0.34301 0.0
C2508 C 0.6871 0.93152 0.31111 0.0
C2509 C 0.69109 0.92071 0.31528 0.0
C2510 C 0.68632 0.93416 0.29542 0.0
C2511 C 0.68209 0.94546 0.29047 0.0
C2512 C 0.66807 0.94374 0.29412 0.0
C2513 C 0.66422 0.95451 0.28954 0.0
C2514 C 0.67424 0.96699 0.28121 0.0
C2515 C 0.68813 0.9687 0.2774 0.0
C2516 C 0.69205 0.95797 0.28197 0.0
C2517 C 0.69135 0.88219 0.26212 0.0
C2518 C 0.70062 0.89043 0.25027 0.0
C2519 C 0.68935 0.8902 0.27463 0.0
C2520 C 0.69686 0.90666 0.27575 0.0
C2521 C 0.7066 0.91493 0.26428 0.0
C2522 C 0.7084 0.90693 0.25164 0.0
C2523 C 0.69388 0.91523 0.28831 0.0
C2524 C 0.68966 0.92595 0.28421 0.0
C2525 C 0.69471 0.91265 0.3041 0.0
C2526 C 0.70007 0.90233 0.30934 0.0
C2527 C 0.71426 0.90477 0.30529 0.0
C2528 C 0.71923 0.89496 0.31022 0.0
C2529 C 0.71014 0.88275 0.31931 0.0
C2530 C 0.6961 0.88034 0.32351 0.0
C2531 C 0.69107 0.8901 0.3186 0.0
H2532 H 0.71401 0.87518 0.32311 0.0
H2533 H 0.67124 0.97532 0.27766 0.0
H2534 H 0.08105 0.73842 0.30624 0.0
H2535 H 0.09182 0.76041 0.28999 0.0
H2536 H 0.04798 0.75617 0.28403 0.0
H2537 H 0.03709 0.73425 0.30075 0.0
H2538 H 0.06689 0.75734 0.2552 0.0
H2539 H 0.06768 0.78473 0.30285 0.0
H2540 H 0.07255 0.79139 0.331 0.0
H2541 H 0.12017 0.80865 0.327 0.0
H2542 H 0.11554 0.80184 0.29884 0.0
H2543 H 0.10526 0.8234 0.21169 0.0
H2544 H 0.08778 0.80626 0.22995 0.0
H2545 H 0.12598 0.81299 0.25874 0.0
H2546 H 0.14355 0.831 0.24114 0.0
H2547 H 0.10537 0.81153 0.27631 0.0
H2548 H 0.10503 0.78081 0.23107 0.0
H2549 H 0.10169 0.77301 0.20312 0.0
H2550 H 0.05495 0.76077 0.20263 0.0
H2551 H 0.05808 0.76871 0.23056 0.0
C2552 C 0.07367 0.74216 0.30151 0.0
C2553 C 0.05822 0.73461 0.30472 0.0
C2554 C 0.07986 0.75474 0.29228 0.0
C2555 C 0.07068 0.75985 0.28589 0.0
C2556 C 0.05521 0.75234 0.28894 0.0
C2557 C 0.04905 0.73991 0.29849 0.0
C2558 C 0.07749 0.7729 0.27578 0.0
C2559 C 0.075 0.76931 0.25975 0.0
C2560 C 0.08835 0.78833 0.28183 0.0
C2561 C 0.09123 0.79265 0.29874 0.0
C2562 C 0.07917 0.78982 0.30799 0.0
C2563 C 0.08189 0.79365 0.32394 0.0
C2564 C 0.09665 0.8004 0.33079 0.0
C2565 C 0.10874 0.8034 0.32168 0.0
C2566 C 0.10607 0.79958 0.30572 0.0
C2567 C 0.10998 0.82157 0.22209 0.0
C2568 C 0.12585 0.82847 0.22482 0.0
C2569 C 0.09994 0.8116 0.23244 0.0
C2570 C 0.10553 0.80805 0.24555 0.0
C2571 C 0.12136 0.81545 0.24865 0.0
C2572 C 0.13141 0.8256 0.23845 0.0
C2573 C 0.09504 0.79597 0.25562 0.0
C2574 C 0.09694 0.79971 0.27167 0.0
C2575 C 0.08381 0.78057 0.24957 0.0
C2576 C 0.08184 0.77553 0.23285 0.0
C2577 C 0.09407 0.77653 0.22498 0.0
C2578 C 0.09221 0.77209 0.20915 0.0
C2579 C 0.07813 0.76645 0.20109 0.0
C2580 C 0.06586 0.76518 0.20888 0.0
C2581 C 0.06766 0.76965 0.22471 0.0
H2582 H 0.07673 0.76304 0.18883 0.0
H2583 H 0.09873 0.80334 0.34315 0.0
H2584 H 0.25524 0.31871 0.3451 0.0
H2585 H 0.23605 0.30939 0.32336 0.0
H2586 H 0.26837 0.34691 0.29738 0.0
H2587 H 0.28721 0.3566 0.31923 0.0
H2588 H 0.24327 0.34579 0.29465 0.0
H2589 H 0.25729 0.30671 0.29012 0.0
H2590 H 0.26116 0.28593 0.29902 0.0
H2591 H 0.21363 0.25793 0.30727 0.0
H2592 H 0.20951 0.27863 0.29859 0.0
H2593 H 0.2043 0.29885 0.21804 0.0
H2594 H 0.21849 0.30116 0.24211 0.0
H2595 H 0.19366 0.31851 0.26687 0.0
H2596 H 0.17951 0.31636 0.24276 0.0
H2597 H 0.21366 0.29105 0.27082 0.0
H2598 H 0.21888 0.34979 0.29098 0.0
H2599 H 0.21736 0.37114 0.27977 0.0
H2600 H 0.23107 0.36103 0.23657 0.0
H2601 H 0.23291 0.33981 0.2476 0.0
C2602 C 0.25824 0.32487 0.33469 0.0
C2603 C 0.27268 0.33845 0.33389 0.0
C2604 C 0.24729 0.31951 0.32224 0.0
C2605 C 0.25074 0.3274 0.30865 0.0
C2606 C 0.26534 0.34069 0.30776 0.0
C2607 C 0.27613 0.34621 0.32025 0.0
C2608 C 0.23912 0.32237 0.29553 0.0
C2609 C 0.23678 0.33378 0.28953 0.0
C2610 C 0.23068 0.30675 0.28868 0.0
C2611 C 0.23313 0.29429 0.29387 0.0
C2612 C 0.24769 0.29617 0.29395 0.0
C2613 C 0.24992 0.2844 0.29893 0.0
C2614 C 0.23766 0.27064 0.30375 0.0
C2615 C 0.22312 0.2686 0.30356 0.0
C2616 C 0.22083 0.28035 0.2986 0.0
C2617 C 0.20156 0.30274 0.22869 0.0
C2618 C 0.19091 0.30758 0.22851 0.0
C2619 C 0.20968 0.30405 0.24244 0.0
C2620 C 0.2073 0.31023 0.25624 0.0
C2621 C 0.19584 0.31394 0.2563 0.0
C2622 C 0.1878 0.31275 0.24253 0.0
C2623 C 0.21797 0.3145 0.27002 0.0
C2624 C 0.22008 0.30298 0.27613 0.0
C2625 C 0.2266 0.33014 0.27671 0.0
C2626 C 0.22584 0.3431 0.27007 0.0
C2627 C 0.22162 0.35217 0.27911 0.0
C2628 C 0.22071 0.36425 0.27279 0.0
C2629 C 0.22406 0.3674 0.25745 0.0
C2630 C 0.22842 0.35854 0.24843 0.0
C2631 C 0.2294 0.34649 0.25471 0.0
H2632 H 0.22331 0.37673 0.25257 0.0
H2633 H 0.23941 0.26154 0.30761 0.0
H2634 H 0.28929 0.38086 0.41017 0.0
H2635 H 0.27594 0.38097 0.43295 0.0
H2636 H 0.25748 0.33133 0.4349 0.0
H2637 H 0.27097 0.33112 0.41231 0.0
H2638 H 0.2464 0.36635 0.4378 0.0
H2639 H 0.25376 0.32249 0.47222 0.0
H2640 H 0.27209 0.31374 0.47547 0.0
H2641 H 0.3083 0.35825 0.46294 0.0
H2642 H 0.29024 0.36734 0.45982 0.0
H2643 H 0.19446 0.33881 0.49664 0.0
H2644 H 0.20969 0.34059 0.4749 0.0
H2645 H 0.25087 0.36731 0.50465 0.0
H2646 H 0.23566 0.36501 0.52662 0.0
H2647 H 0.25224 0.34589 0.48662 0.0
H2648 H 0.23928 0.38487 0.47939 0.0
H2649 H 0.22211 0.3951 0.47658 0.0
H2650 H 0.19981 0.36397 0.43577 0.0
H2651 H 0.2166 0.35328 0.43853 0.0
C2652 C 0.28244 0.36995 0.41545 0.0
C2653 C 0.28127 0.35598 0.40939 0.0
C2654 C 0.27477 0.37004 0.42845 0.0
C2655 C 0.26583 0.3562 0.43571 0.0
C2656 C 0.26452 0.34221 0.42964 0.0
C2657 C 0.27221 0.34211 0.41667 0.0
C2658 C 0.25773 0.35637 0.44954 0.0
C2659 C 0.24768 0.36189 0.44848 0.0
C2660 C 0.25958 0.35077 0.46355 0.0
C2661 C 0.27061 0.34553 0.46565 0.0
C2662 C 0.26565 0.33043 0.47023 0.0
C2663 C 0.27599 0.32541 0.47204 0.0
C2664 C 0.29134 0.33542 0.46937 0.0
C2665 C 0.2964 0.35049 0.46495 0.0
C2666 C 0.28611 0.35557 0.46314 0.0
C2667 C 0.20675 0.34492 0.49861 0.0
C2668 C 0.21384 0.35176 0.51339 0.0
C2669 C 0.21545 0.34608 0.48613 0.0
C2670 C 0.23143 0.35426 0.4881 0.0
C2671 C 0.23855 0.36099 0.50285 0.0
C2672 C 0.22985 0.35979 0.51537 0.0
C2673 C 0.24071 0.35565 0.47481 0.0
C2674 C 0.25097 0.35038 0.47596 0.0
C2675 C 0.23921 0.36171 0.46096 0.0
C2676 C 0.22911 0.36816 0.45926 0.0
C2677 C 0.23062 0.38009 0.4699 0.0
C2678 C 0.22095 0.38597 0.46832 0.0
C2679 C 0.20982 0.38013 0.45605 0.0
C2680 C 0.20838 0.36842 0.44531 0.0
C2681 C 0.21797 0.36245 0.44688 0.0
H2682 H 0.20235 0.38469 0.45484 0.0
H2683 H 0.29933 0.3315 0.47075 0.0
H2684 H 0.64486 0.94197 0.40741 0.0
H2685 H 0.63871 0.92279 0.42651 0.0
H2686 H 0.68188 0.95428 0.45179 0.0
H2687 H 0.6882 0.97339 0.43273 0.0
H2688 H 0.67791 0.92593 0.44612 0.0
H2689 H 0.64786 0.94648 0.46586 0.0
H2690 H 0.62833 0.95377 0.46444 0.0
H2691 H 0.59384 0.90586 0.45087 0.0
H2692 H 0.61322 0.89831 0.452 0.0
H2693 H 0.66977 0.88654 0.51274 0.0
H2694 H 0.67185 0.9059 0.49544 0.0
H2695 H 0.62896 0.87123 0.47151 0.0
H2696 H 0.6268 0.85171 0.48884 0.0
H2697 H 0.63163 0.90009 0.47578 0.0
H2698 H 0.66135 0.87948 0.45602 0.0
H2699 H 0.68068 0.87191 0.45736 0.0
H2700 H 0.71559 0.91977 0.47049 0.0
H2701 H 0.69642 0.9276 0.46946 0.0
C2702 C 0.65294 0.94493 0.41718 0.0
C2703 C 0.66709 0.95917 0.41844 0.0
C2704 C 0.64938 0.93395 0.42811 0.0
C2705 C 0.65985 0.93709 0.44058 0.0
C2706 C 0.67367 0.95157 0.44222 0.0
C2707 C 0.67726 0.9625 0.43129 0.0
C2708 C 0.65702 0.9249 0.45128 0.0
C2709 C 0.66789 0.92046 0.45277 0.0
C2710 C 0.64368 0.91735 0.45954 0.0
C2711 C 0.63202 0.92186 0.45885 0.0
C2712 C 0.63614 0.93752 0.46244 0.0
C2713 C 0.62509 0.9417 0.46172 0.0
C2714 C 0.60986 0.93029 0.45753 0.0
C2715 C 0.60564 0.91468 0.45409 0.0
C2716 C 0.61665 0.91045 0.45478 0.0
C2717 C 0.6608 0.883 0.50376 0.0
C2718 C 0.64823 0.86754 0.50201 0.0
C2719 C 0.66198 0.8941 0.49392 0.0
C2720 C 0.65067 0.88994 0.48205 0.0
C2721 C 0.63782 0.87467 0.48059 0.0
C2722 C 0.63661 0.86354 0.49049 0.0
C2723 C 0.65268 0.90141 0.47081 0.0
C2724 C 0.64164 0.90561 0.46913 0.0
C2725 C 0.66584 0.90875 0.46229 0.0
C2726 C 0.67743 0.9041 0.46279 0.0
C2727 C 0.67313 0.88838 0.4593 0.0
C2728 C 0.68406 0.88404 0.45999 0.0
C2729 C 0.69935 0.89534 0.46404 0.0
C2730 C 0.70374 0.91102 0.46737 0.0
C2731 C 0.69285 0.91542 0.46672 0.0
H2732 H 0.70779 0.89196 0.46457 0.0
H2733 H 0.60132 0.93355 0.45698 0.0
H2734 H 0.04813 0.73008 0.37952 0.0
H2735 H 0.06206 0.74374 0.40422 0.0
H2736 H 0.09072 0.72422 0.39887 0.0
H2737 H 0.07687 0.71044 0.37436 0.0
H2738 H 0.08153 0.72258 0.42793 0.0
H2739 H 0.10325 0.76154 0.3908 0.0
H2740 H 0.10237 0.7775 0.37059 0.0
H2741 H 0.08405 0.79731 0.40197 0.0
H2742 H 0.08462 0.78129 0.42231 0.0
H2743 H 0.14539 0.77123 0.47887 0.0
H2744 H 0.12958 0.75934 0.45476 0.0
H2745 H 0.10197 0.77864 0.46755 0.0
H2746 H 0.11744 0.79021 0.49193 0.0
H2747 H 0.10885 0.78069 0.43583 0.0
H2748 H 0.08847 0.74288 0.47339 0.0
H2749 H 0.08971 0.72727 0.49373 0.0
H2750 H 0.10539 0.70529 0.46161 0.0
H2751 H 0.10451 0.721 0.44113 0.0
C2752 C 0.05735 0.72862 0.38363 0.0
C2753 C 0.06141 0.71921 0.37489 0.0
C2754 C 0.06533 0.73649 0.39772 0.0
C2755 C 0.07752 0.73511 0.40328 0.0
C2756 C 0.08136 0.72545 0.39477 0.0
C2757 C 0.07343 0.71762 0.38072 0.0
C2758 C 0.08648 0.74382 0.41788 0.0
C2759 C 0.0876 0.73528 0.4296 0.0
C2760 C 0.09407 0.76038 0.4202 0.0
C2761 C 0.09381 0.77009 0.40802 0.0
C2762 C 0.09892 0.76921 0.39335 0.0
C2763 C 0.09849 0.77828 0.38188 0.0
C2764 C 0.09311 0.78837 0.38498 0.0
C2765 C 0.08818 0.78946 0.39957 0.0
C2766 C 0.08856 0.7804 0.41108 0.0
C2767 C 0.13598 0.77298 0.47657 0.0
C2768 C 0.13261 0.78156 0.48741 0.0
C2769 C 0.12701 0.76625 0.46276 0.0
C2770 C 0.11454 0.768 0.4595 0.0
C2771 C 0.11158 0.77719 0.46988 0.0
C2772 C 0.12048 0.78385 0.48377 0.0
C2773 C 0.10411 0.75943 0.44567 0.0
C2774 C 0.10268 0.76798 0.43416 0.0
C2775 C 0.0962 0.74287 0.44352 0.0
C2776 C 0.09655 0.73323 0.45576 0.0
C2777 C 0.0923 0.73481 0.47069 0.0
C2778 C 0.09292 0.72593 0.48225 0.0
C2779 C 0.09766 0.71532 0.47898 0.0
C2780 C 0.10174 0.71353 0.46413 0.0
C2781 C 0.10117 0.72242 0.45254 0.0
H2782 H 0.09813 0.70845 0.48794 0.0
H2783 H 0.09279 0.79538 0.37608 0.0
H2784 H 0.29754 0.02978 0.70644 0.0
H2785 H 0.29535 0.04575 0.72724 0.0
H2786 H 0.34431 0.07249 0.73569 0.0
H2787 H 0.34663 0.05633 0.71507 0.0
H2788 H 0.33101 0.06616 0.76216 0.0
H2789 H 0.32559 0.08715 0.71607 0.0
H2790 H 0.31512 0.0865 0.68996 0.0
H2791 H 0.27072 0.06882 0.70702 0.0
H2792 H 0.28088 0.06913 0.7332 0.0
H2793 H 0.33527 0.1312 0.80487 0.0
H2794 H 0.33674 0.11649 0.78228 0.0
H2795 H 0.28935 0.08093 0.78447 0.0
H2796 H 0.28791 0.09503 0.80764 0.0
H2797 H 0.3021 0.09253 0.75253 0.0
H2798 H 0.30842 0.0706 0.79874 0.0
H2799 H 0.32008 0.07304 0.82476 0.0
H2800 H 0.36443 0.09453 0.80676 0.0
H2801 H 0.35304 0.09249 0.78067 0.0
C2802 C 0.30787 0.03904 0.71271 0.0
C2803 C 0.32228 0.04183 0.70899 0.0
C2804 C 0.30659 0.04821 0.72457 0.0
C2805 C 0.31968 0.0605 0.73284 0.0
C2806 C 0.33406 0.06311 0.72941 0.0
C2807 C 0.33536 0.05386 0.7176 0.0
C2808 C 0.31832 0.07057 0.74508 0.0
C2809 C 0.32484 0.07206 0.75997 0.0
C2810 C 0.31012 0.07815 0.74229 0.0
C2811 C 0.30397 0.07802 0.72658 0.0
C2812 C 0.31357 0.08301 0.71424 0.0
C2813 C 0.30769 0.08272 0.69943 0.0
C2814 C 0.29226 0.07759 0.69683 0.0
C2815 C 0.28267 0.07277 0.70905 0.0
C2816 C 0.28848 0.07301 0.72388 0.0
C2817 C 0.32514 0.12024 0.80061 0.0
C2818 C 0.31153 0.11419 0.80828 0.0
C2819 C 0.32598 0.11196 0.78761 0.0
C2820 C 0.31318 0.09764 0.78185 0.0
C2821 C 0.29932 0.09203 0.78878 0.0
C2822 C 0.29852 0.10016 0.80198 0.0
C2823 C 0.31468 0.08793 0.76945 0.0
C2824 C 0.30823 0.08657 0.7546 0.0
C2825 C 0.32307 0.08061 0.7722 0.0
C2826 C 0.3299 0.08156 0.7878 0.0
C2827 C 0.32067 0.07598 0.80036 0.0
C2828 C 0.32723 0.07727 0.81511 0.0
C2829 C 0.34299 0.08398 0.81742 0.0
C2830 C 0.35222 0.08936 0.80496 0.0
C2831 C 0.34572 0.08814 0.79019 0.0
H2832 H 0.34804 0.08497 0.82885 0.0
H2833 H 0.28773 0.07738 0.68535 0.0
H2834 H 0.96321 0.26351 0.7535 0.0
H2835 H 0.95343 0.24328 0.77195 0.0
H2836 H 0.91969 0.25481 0.78394 0.0
H2837 H 0.9295 0.2751 0.76598 0.0
H2838 H 0.93158 0.25073 0.80907 0.0
H2839 H 0.91171 0.22293 0.75805 0.0
H2840 H 0.91413 0.21482 0.73146 0.0
H2841 H 0.93962 0.19519 0.74896 0.0
H2842 H 0.9375 0.20336 0.77566 0.0
H2843 H 0.86612 0.18568 0.83151 0.0
H2844 H 0.88429 0.20472 0.81499 0.0
H2845 H 0.91542 0.18893 0.82423 0.0
H2846 H 0.89752 0.17016 0.84142 0.0
H2847 H 0.91038 0.19488 0.79086 0.0
H2848 H 0.9247 0.21837 0.84267 0.0
H2849 H 0.91929 0.22476 0.86858 0.0
H2850 H 0.90301 0.25246 0.84925 0.0
H2851 H 0.90768 0.24566 0.8231 0.0
C2852 C 0.95375 0.26177 0.76013 0.0
C2853 C 0.94712 0.27092 0.75819 0.0
C2854 C 0.94816 0.25018 0.77064 0.0
C2855 C 0.93575 0.24745 0.77925 0.0
C2856 C 0.92931 0.25674 0.77749 0.0
C2857 C 0.93493 0.26833 0.76713 0.0
C2858 C 0.92898 0.23473 0.78987 0.0
C2859 C 0.927 0.23853 0.80509 0.0
C2860 C 0.92337 0.21883 0.78484 0.0
C2861 C 0.92462 0.21393 0.76881 0.0
C2862 C 0.91793 0.21699 0.75621 0.0
C2863 C 0.91923 0.21237 0.74112 0.0
C2864 C 0.92707 0.20455 0.73852 0.0
C2865 C 0.93359 0.20129 0.751 0.0
C2866 C 0.93234 0.2059 0.7661 0.0
C2867 C 0.87685 0.18627 0.83014 0.0
C2868 C 0.88047 0.17658 0.83803 0.0
C2869 C 0.88714 0.19705 0.82057 0.0
C2870 C 0.90119 0.19826 0.81854 0.0
C2871 C 0.90459 0.1881 0.82568 0.0
C2872 C 0.89434 0.17738 0.83546 0.0
C2873 C 0.91253 0.21094 0.80972 0.0
C2874 C 0.91536 0.20712 0.79493 0.0
C2875 C 0.91882 0.22684 0.81508 0.0
C2876 C 0.91644 0.23139 0.83087 0.0
C2877 C 0.91982 0.22569 0.8439 0.0
C2878 C 0.91688 0.22938 0.85864 0.0
C2879 C 0.91085 0.23905 0.86058 0.0
C2880 C 0.9077 0.24499 0.84774 0.0
C2881 C 0.91045 0.24118 0.83294 0.0
H2882 H 0.90864 0.24194 0.87202 0.0
H2883 H 0.92806 0.20097 0.72683 0.0
H2884 H 0.73231 0.63973 0.72196 0.0
H2885 H 0.75023 0.64856 0.74449 0.0
H2886 H 0.75439 0.69384 0.74632 0.0
H2887 H 0.7365 0.68512 0.72339 0.0
H2888 H 0.7821 0.69607 0.75384 0.0
H2889 H 0.73129 0.66824 0.76963 0.0
H2890 H 0.70445 0.64659 0.7689 0.0
H2891 H 0.71887 0.61449 0.77912 0.0
H2892 H 0.74581 0.6359 0.77966 0.0
H2893 H 0.80969 0.70882 0.83491 0.0
H2894 H 0.79656 0.70726 0.81023 0.0
H2895 H 0.78817 0.66074 0.79907 0.0
H2896 H 0.80145 0.66231 0.82347 0.0
H2897 H 0.76205 0.6622 0.79735 0.0
H2898 H 0.81335 0.69076 0.78017 0.0
H2899 H 0.83994 0.71298 0.78112 0.0
H2900 H 0.82418 0.74468 0.77455 0.0
H2901 H 0.79747 0.72266 0.77378 0.0
C2902 C 0.7371 0.65163 0.72703 0.0
C2903 C 0.73279 0.66164 0.72101 0.0
C2904 C 0.74736 0.65666 0.73992 0.0
C2905 C 0.75339 0.67174 0.74728 0.0
C2906 C 0.7498 0.68212 0.74086 0.0
C2907 C 0.73957 0.67711 0.72779 0.0
C2908 C 0.76258 0.67602 0.76218 0.0
C2909 C 0.77767 0.68884 0.76347 0.0
C2910 C 0.75678 0.66658 0.77474 0.0
C2911 C 0.74058 0.65367 0.77458 0.0
C2912 C 0.72874 0.65655 0.77162 0.0
C2913 C 0.71351 0.64432 0.77125 0.0
C2914 C 0.70996 0.62917 0.77394 0.0
C2915 C 0.72164 0.62623 0.77704 0.0
C2916 C 0.73689 0.63841 0.77739 0.0
C2917 C 0.80535 0.69841 0.82704 0.0
C2918 C 0.80645 0.6856 0.83123 0.0
C2919 C 0.79782 0.69753 0.81297 0.0
C2920 C 0.79133 0.68385 0.80288 0.0
C2921 C 0.793 0.67136 0.80676 0.0
C2922 C 0.80053 0.67224 0.82073 0.0
C2923 C 0.78175 0.68188 0.78884 0.0
C2924 C 0.76648 0.66952 0.78779 0.0
C2925 C 0.78737 0.69187 0.77666 0.0
C2926 C 0.80341 0.70509 0.77711 0.0
C2927 C 0.81555 0.70249 0.77908 0.0
C2928 C 0.83064 0.71505 0.77955 0.0
C2929 C 0.83374 0.73024 0.77794 0.0
C2930 C 0.82176 0.73291 0.77582 0.0
C2931 C 0.80664 0.72039 0.77536 0.0
H2932 H 0.84544 0.73994 0.7783 0.0
H2933 H 0.69816 0.61972 0.77365 0.0
H2934 H 0.7081 0.62073 0.64298 0.0
H2935 H 0.72153 0.62132 0.62007 0.0
H2936 H 0.74386 0.67176 0.62256 0.0
H2937 H 0.73054 0.67135 0.64558 0.0
H2938 H 0.72252 0.63202 0.59152 0.0
H2939 H 0.78084 0.68596 0.61277 0.0
H2940 H 0.79551 0.7002 0.63728 0.0
H2941 H 0.77169 0.65776 0.66029 0.0
H2942 H 0.75705 0.64324 0.63588 0.0
H2943 H 0.7748 0.65837 0.53139 0.0
H2944 H 0.7596 0.65769 0.55297 0.0
H2945 H 0.77854 0.63589 0.57967 0.0
H2946 H 0.79374 0.63654 0.55817 0.0
H2947 H 0.77913 0.66109 0.59601 0.0
H2948 H 0.74384 0.6139 0.56465 0.0
H2949 H 0.72917 0.59833 0.54063 0.0
H2950 H 0.7069 0.62465 0.53871 0.0
H2951 H 0.7216 0.64054 0.56262 0.0
C2952 C 0.7158 0.63198 0.63865 0.0
C2953 C 0.71833 0.64602 0.64624 0.0
C2954 C 0.72341 0.63226 0.62549 0.0
C2955 C 0.73378 0.64658 0.61971 0.0
C2956 C 0.73601 0.66059 0.62694 0.0
C2957 C 0.72835 0.66032 0.64009 0.0
C2958 C 0.74271 0.64682 0.60652 0.0
C2959 C 0.73489 0.63844 0.59247 0.0
C2960 C 0.75885 0.65503 0.60783 0.0
C2961 C 0.76774 0.66357 0.62254 0.0
C2962 C 0.77878 0.67967 0.62305 0.0
C2963 C 0.78708 0.68779 0.63693 0.0
C2964 C 0.7845 0.67991 0.65035 0.0
C2965 C 0.77364 0.66387 0.6499 0.0
C2966 C 0.76532 0.6557 0.63605 0.0
C2967 C 0.7757 0.65344 0.54188 0.0
C2968 C 0.78539 0.64747 0.54312 0.0
C2969 C 0.76699 0.653 0.55414 0.0
C2970 C 0.76794 0.6467 0.56787 0.0
C2971 C 0.77766 0.64079 0.56916 0.0
C2972 C 0.78623 0.64107 0.55685 0.0
C2973 C 0.75894 0.64641 0.58099 0.0
C2974 C 0.76675 0.65479 0.59502 0.0
C2975 C 0.7428 0.63806 0.5797 0.0
C2976 C 0.73394 0.62852 0.56533 0.0
C2977 C 0.73592 0.61647 0.55903 0.0
C2978 C 0.72758 0.60756 0.54545 0.0
C2979 C 0.71714 0.61053 0.53812 0.0
C2980 C 0.715 0.62238 0.54438 0.0
C2981 C 0.72333 0.63133 0.55796 0.0
H2982 H 0.71069 0.60362 0.52761 0.0
H2983 H 0.79093 0.68621 0.66108 0.0
H2984 H 0.36097 0.06426 0.65419 0.0
H2985 H 0.36951 0.08483 0.63619 0.0
H2986 H 0.33332 0.05252 0.60277 0.0
H2987 H 0.32454 0.03196 0.62075 0.0
H2988 H 0.36323 0.07287 0.59043 0.0
H2989 H 0.3265 0.07472 0.62352 0.0
H2990 H 0.31711 0.07674 0.64885 0.0
H2991 H 0.35825 0.12119 0.66057 0.0
H2992 H 0.36798 0.11931 0.63538 0.0
H2993 H 0.34993 0.11828 0.54053 0.0
H2994 H 0.34908 0.09986 0.55828 0.0
H2995 H 0.37746 0.1383 0.59225 0.0
H2996 H 0.37766 0.15678 0.57483 0.0
H2997 H 0.35504 0.11645 0.60557 0.0
H2998 H 0.39063 0.11733 0.57182 0.0
H2999 H 0.40147 0.11607 0.54723 0.0
H3000 H 0.36569 0.06794 0.53761 0.0
H3001 H 0.35426 0.06903 0.56187 0.0
C3002 C 0.35498 0.06146 0.64291 0.0
C3003 C 0.34201 0.04652 0.63892 0.0
C3004 C 0.35986 0.07322 0.63268 0.0
C3005 C 0.35198 0.07017 0.61822 0.0
C3006 C 0.33954 0.05506 0.61388 0.0
C3007 C 0.3345 0.04338 0.62419 0.0
C3008 C 0.35589 0.08298 0.60808 0.0
C3009 C 0.36138 0.08238 0.59362 0.0
C3010 C 0.35395 0.09562 0.61257 0.0
C3011 C 0.34804 0.09678 0.62766 0.0
C3012 C 0.3336 0.08485 0.63156 0.0
C3013 C 0.32821 0.08598 0.64588 0.0
C3014 C 0.3371 0.09906 0.65633 0.0
C3015 C 0.35139 0.11105 0.65247 0.0
C3016 C 0.35684 0.10997 0.63818 0.0
C3017 C 0.35594 0.12284 0.55181 0.0
C3018 C 0.36377 0.13903 0.55629 0.0
C3019 C 0.35563 0.11229 0.56188 0.0
C3020 C 0.36336 0.11768 0.57657 0.0
C3021 C 0.37145 0.13386 0.58097 0.0
C3022 C 0.37166 0.14443 0.57093 0.0
C3023 C 0.36218 0.10632 0.58762 0.0
C3024 C 0.35715 0.10714 0.60232 0.0
C3025 C 0.36479 0.09402 0.58339 0.0
C3026 C 0.37148 0.09332 0.56864 0.0
C3027 C 0.38493 0.10653 0.56437 0.0
C3028 C 0.39117 0.10585 0.55047 0.0
C3029 C 0.38419 0.09196 0.5408 0.0
C3030 C 0.37097 0.07872 0.54503 0.0
C3031 C 0.3646 0.07937 0.55886 0.0
H3032 H 0.38907 0.09144 0.53006 0.0
H3033 H 0.3329 0.09992 0.66741 0.0
H3034 H 0.92939 0.2946 0.6823 0.0
H3035 H 0.91515 0.28082 0.65795 0.0
H3036 H 0.93308 0.25021 0.65929 0.0
H3037 H 0.94786 0.26436 0.68352 0.0
H3038 H 0.93307 0.25817 0.63114 0.0
H3039 H 0.89591 0.23795 0.6686 0.0
H3040 H 0.88156 0.23894 0.69047 0.0
H3041 H 0.86516 0.26302 0.66417 0.0
H3042 H 0.87959 0.26237 0.64221 0.0
H3043 H 0.8776 0.2036 0.57248 0.0
H3044 H 0.8912 0.21465 0.59781 0.0
H3045 H 0.8838 0.25322 0.5957 0.0
H3046 H 0.87077 0.2427 0.57008 0.0
H3047 H 0.87779 0.23899 0.62471 0.0
H3048 H 0.91659 0.25986 0.58768 0.0
H3049 H 0.93052 0.25769 0.56597 0.0
H3050 H 0.94317 0.23044 0.5921 0.0
H3051 H 0.92908 0.23224 0.61388 0.0
C3052 C 0.93032 0.28493 0.67745 0.0
C3053 C 0.93966 0.28049 0.68493 0.0
C3054 C 0.92209 0.277 0.66355 0.0
C3055 C 0.92275 0.26423 0.65696 0.0
C3056 C 0.93232 0.25996 0.66421 0.0
C3057 C 0.94074 0.26805 0.67806 0.0
C3058 C 0.91353 0.25553 0.64243 0.0
C3059 C 0.92094 0.25374 0.62985 0.0
C3060 C 0.8977 0.24987 0.64064 0.0
C3061 C 0.88893 0.25022 0.6538 0.0
C3062 C 0.88933 0.24355 0.66751 0.0
C3063 C 0.88116 0.24404 0.67992 0.0
C3064 C 0.87248 0.25107 0.67872 0.0
C3065 C 0.8719 0.25759 0.66509 0.0
C3066 C 0.88006 0.25715 0.65265 0.0
C3067 C 0.87895 0.2145 0.57731 0.0
C3068 C 0.87316 0.22231 0.56914 0.0
C3069 C 0.88664 0.22072 0.59184 0.0
C3070 C 0.88856 0.23477 0.59853 0.0
C3071 C 0.88237 0.24233 0.5907 0.0
C3072 C 0.87485 0.23623 0.5761 0.0
C3073 C 0.8974 0.24187 0.6135 0.0
C3074 C 0.88991 0.24332 0.62613 0.0
C3075 C 0.91308 0.24702 0.61538 0.0
C3076 C 0.92163 0.24603 0.60234 0.0
C3077 C 0.92222 0.25328 0.58874 0.0
C3078 C 0.93016 0.25214 0.57644 0.0
C3079 C 0.93769 0.24389 0.57764 0.0
C3080 C 0.93731 0.2368 0.59117 0.0
C3081 C 0.92935 0.23788 0.6035 0.0
H3082 H 0.94384 0.24302 0.5681 0.0
H3083 H 0.86617 0.25144 0.68834 0.0
H3084 H 0.32926 0.2843 0.6709 0.0
H3085 H 0.33062 0.26743 0.65037 0.0
H3086 H 0.37878 0.2886 0.66203 0.0
H3087 H 0.37762 0.30564 0.68246 0.0
H3088 H 0.37249 0.28494 0.63103 0.0
H3089 H 0.3537 0.25321 0.67406 0.0
H3090 H 0.3364 0.24086 0.69478 0.0
H3091 H 0.29841 0.21599 0.66115 0.0
H3092 H 0.31548 0.22836 0.64022 0.0
H3093 H 0.3834 0.22851 0.59091 0.0
H3094 H 0.38153 0.24391 0.6127 0.0
H3095 H 0.33397 0.22462 0.59932 0.0
H3096 H 0.33579 0.20949 0.57735 0.0
H3097 H 0.33987 0.22704 0.63129 0.0
H3098 H 0.35838 0.25877 0.58835 0.0
H3099 H 0.37553 0.27081 0.56745 0.0
H3100 H 0.4138 0.29568 0.60076 0.0
H3101 H 0.3969 0.28355 0.62187 0.0
C3102 C 0.34017 0.28546 0.66906 0.0
C3103 C 0.35331 0.29628 0.67843 0.0
C3104 C 0.34091 0.27575 0.65736 0.0
C3105 C 0.35476 0.27662 0.65485 0.0
C3106 C 0.36797 0.28771 0.66383 0.0
C3107 C 0.36726 0.29742 0.67553 0.0
C3108 C 0.35547 0.26584 0.64297 0.0
C3109 C 0.36551 0.27229 0.63121 0.0
C3110 C 0.34611 0.24933 0.64304 0.0
C3111 C 0.33584 0.24183 0.65559 0.0
C3112 C 0.34164 0.2452 0.67109 0.0
C3113 C 0.33188 0.23818 0.68287 0.0
C3114 C 0.31631 0.22769 0.67929 0.0
C3115 C 0.31047 0.22415 0.66391 0.0
C3116 C 0.32019 0.23114 0.65208 0.0
C3117 C 0.37252 0.22746 0.59267 0.0
C3118 C 0.35977 0.21784 0.58234 0.0
C3119 C 0.37147 0.23622 0.60513 0.0
C3120 C 0.35766 0.2355 0.60747 0.0
C3121 C 0.34471 0.22528 0.59771 0.0
C3122 C 0.34577 0.21659 0.5852 0.0
C3123 C 0.35694 0.24617 0.61945 0.0
C3124 C 0.34688 0.2397 0.63118 0.0
C3125 C 0.36624 0.26266 0.61933 0.0
C3126 C 0.3764 0.27013 0.60668 0.0
C3127 C 0.37047 0.26671 0.59122 0.0
C3128 C 0.38014 0.27356 0.57933 0.0
C3129 C 0.39575 0.28398 0.58277 0.0
C3130 C 0.40171 0.28759 0.59811 0.0
C3131 C 0.39209 0.28074 0.61005 0.0
H3132 H 0.40322 0.28927 0.57355 0.0
H3133 H 0.30877 0.22227 0.68843 0.0
H3134 H 0.7248 0.07904 0.64318 0.0
H3135 H 0.73718 0.09908 0.62495 0.0
H3136 H 0.72385 0.0628 0.58793 0.0
H3137 H 0.71249 0.04285 0.60645 0.0
H3138 H 0.75083 0.08231 0.58518 0.0
H3139 H 0.70848 0.08853 0.59228 0.0
H3140 H 0.68992 0.09225 0.60636 0.0
H3141 H 0.7261 0.13693 0.62668 0.0
H3142 H 0.74491 0.1334 0.61289 0.0
H3143 H 0.77236 0.13907 0.52765 0.0
H3144 H 0.75435 0.12004 0.54464 0.0
H3145 H 0.78713 0.14398 0.58352 0.0
H3146 H 0.80536 0.16277 0.5665 0.0
H3147 H 0.74883 0.13077 0.58343 0.0
H3148 H 0.79072 0.11926 0.57805 0.0
H3149 H 0.8073 0.11487 0.56116 0.0
H3150 H 0.76787 0.07848 0.53399 0.0
H3151 H 0.75109 0.08285 0.55063 0.0
C3152 C 0.72431 0.07539 0.63109 0.0
C3153 C 0.71774 0.05945 0.62618 0.0
C3154 C 0.73131 0.08684 0.62062 0.0
C3155 C 0.73136 0.08254 0.60493 0.0
C3156 C 0.72409 0.0665 0.59995 0.0
C3157 C 0.71753 0.05509 0.6105 0.0
C3158 C 0.74011 0.09467 0.59403 0.0
C3159 C 0.75011 0.09273 0.58473 0.0
C3160 C 0.7394 0.10844 0.59332 0.0
C3161 C 0.72812 0.11063 0.60164 0.0
C3162 C 0.71249 0.0991 0.59984 0.0
C3163 C 0.70192 0.10118 0.60775 0.0
C3164 C 0.70683 0.1148 0.61743 0.0
C3165 C 0.72231 0.12639 0.61919 0.0
C3166 C 0.73294 0.12436 0.61131 0.0
C3167 C 0.77559 0.14037 0.53987 0.0
C3168 C 0.7902 0.1523 0.54583 0.0
C3169 C 0.76533 0.12956 0.54952 0.0
C3170 C 0.76945 0.13072 0.56527 0.0
C3171 C 0.78378 0.14301 0.57138 0.0
C3172 C 0.79416 0.15363 0.56168 0.0
C3173 C 0.75941 0.11826 0.57507 0.0
C3174 C 0.74927 0.12019 0.58401 0.0
C3175 C 0.75964 0.1043 0.57522 0.0
C3176 C 0.7697 0.10149 0.56545 0.0
C3177 C 0.78561 0.11042 0.5684 0.0
C3178 C 0.79504 0.10792 0.55889 0.0
C3179 C 0.78865 0.09643 0.54648 0.0
C3180 C 0.77281 0.08739 0.54359 0.0
C3181 C 0.76334 0.08987 0.55305 0.0
H3182 H 0.79596 0.09451 0.53913 0.0
H3183 H 0.69863 0.11639 0.62355 0.0
H3184 H 0.92349 0.64856 0.67333 0.0
H3185 H 0.90403 0.64013 0.65201 0.0
H3186 H 0.92609 0.68758 0.63865 0.0
H3187 H 0.94538 0.69613 0.65986 0.0
H3188 H 0.89581 0.6749 0.63911 0.0
H3189 H 0.93018 0.65936 0.61916 0.0
H3190 H 0.94386 0.6451 0.61938 0.0
H3191 H 0.90122 0.60124 0.61815 0.0
H3192 H 0.88729 0.61528 0.61812 0.0
H3193 H 0.87605 0.67389 0.56149 0.0
H3194 H 0.88872 0.67548 0.58619 0.0
H3195 H 0.85705 0.62621 0.59004 0.0
H3196 H 0.84393 0.62455 0.5653 0.0
H3197 H 0.88758 0.63538 0.59673 0.0
H3198 H 0.8532 0.65108 0.6126 0.0
H3199 H 0.83981 0.6656 0.61168 0.0
H3200 H 0.88245 0.70923 0.6204 0.0
H3201 H 0.89614 0.695 0.62114 0.0
C3202 C 0.92421 0.6572 0.66584 0.0
C3203 C 0.93602 0.67304 0.66835 0.0
C3204 C 0.91309 0.65234 0.65364 0.0
C3205 C 0.91363 0.66323 0.64373 0.0
C3206 C 0.9254 0.679 0.64621 0.0
C3207 C 0.93646 0.68385 0.65835 0.0
C3208 C 0.90205 0.65843 0.63069 0.0
C3209 C 0.89404 0.66629 0.62982 0.0
C3210 C 0.89934 0.6468 0.61884 0.0
C3211 C 0.90771 0.63838 0.61884 0.0
C3212 C 0.92373 0.64669 0.61907 0.0
C3213 C 0.93153 0.63865 0.61913 0.0
C3214 C 0.92342 0.62228 0.61883 0.0
C3215 C 0.90749 0.61392 0.61842 0.0
C3216 C 0.89964 0.62191 0.61838 0.0
C3217 C 0.87153 0.66342 0.56768 0.0
C3218 C 0.85881 0.64913 0.56147 0.0
C3219 C 0.87886 0.66434 0.58178 0.0
C3220 C 0.87371 0.65101 0.59003 0.0
C3221 C 0.86116 0.63664 0.58385 0.0
C3222 C 0.85372 0.63572 0.56971 0.0
C3223 C 0.8818 0.65228 0.60493 0.0
C3224 C 0.88911 0.64375 0.60617 0.0
C3225 C 0.8839 0.66332 0.61714 0.0
C3226 C 0.87571 0.67196 0.61684 0.0
C3227 C 0.85974 0.66378 0.61422 0.0
C3228 C 0.85209 0.67196 0.61374 0.0
C3229 C 0.86027 0.68833 0.61596 0.0
C3230 C 0.87613 0.69655 0.61869 0.0
C3231 C 0.88384 0.68843 0.61916 0.0
H3232 H 0.85433 0.69464 0.61559 0.0
H3233 H 0.92948 0.61608 0.61887 0.0
H3234 H 0.93632 0.66261 0.74679 0.0
H3235 H 0.92264 0.66262 0.76931 0.0
H3236 H 0.93884 0.71165 0.766 0.0
H3237 H 0.95277 0.71186 0.74361 0.0
H3238 H 0.94066 0.70571 0.79544 0.0
H3239 H 0.90258 0.68348 0.75315 0.0
H3240 H 0.88778 0.66517 0.73051 0.0
H3241 H 0.87173 0.62619 0.75851 0.0
H3242 H 0.88661 0.64427 0.7813 0.0
H3243 H 0.88735 0.71041 0.84269 0.0
H3244 H 0.90244 0.71082 0.82125 0.0
H3245 H 0.8871 0.6621 0.82542 0.0
H3246 H 0.87211 0.66163 0.84698 0.0
H3247 H 0.88496 0.66791 0.79568 0.0
H3248 H 0.92291 0.69057 0.83819 0.0
H3249 H 0.9376 0.70918 0.86069 0.0
H3250 H 0.95374 0.74772 0.8321 0.0
H3251 H 0.93897 0.72935 0.80945 0.0
C3252 C 0.93701 0.67342 0.75084 0.0
C3253 C 0.94559 0.68722 0.7433 0.0
C3254 C 0.92914 0.67339 0.7637 0.0
C3255 C 0.92955 0.68708 0.7692 0.0
C3256 C 0.93834 0.70094 0.76192 0.0
C3257 C 0.94627 0.70102 0.74909 0.0
C3258 C 0.92071 0.68693 0.78247 0.0
C3259 C 0.92845 0.69758 0.79542 0.0
C3260 C 0.90483 0.67611 0.78256 0.0
C3261 C 0.89583 0.66522 0.76889 0.0
C3262 C 0.89599 0.671 0.75446 0.0
C3263 C 0.88757 0.66066 0.7416 0.0
C3264 C 0.87885 0.64452 0.74306 0.0
C3265 C 0.8785 0.63869 0.75739 0.0
C3266 C 0.88692 0.64898 0.77029 0.0
C3267 C 0.88734 0.69984 0.83918 0.0
C3268 C 0.87854 0.68599 0.84655 0.0
C3269 C 0.89595 0.70008 0.8269 0.0
C3270 C 0.89598 0.68652 0.82183 0.0
C3271 C 0.8872 0.67269 0.82914 0.0
C3272 C 0.8786 0.67243 0.84142 0.0
C3273 C 0.90492 0.68666 0.80866 0.0
C3274 C 0.89718 0.67602 0.79572 0.0
C3275 C 0.92078 0.69752 0.80856 0.0
C3276 C 0.92971 0.70859 0.82216 0.0
C3277 C 0.92949 0.70302 0.83672 0.0
C3278 C 0.93785 0.71353 0.8495 0.0
C3279 C 0.94657 0.72962 0.84783 0.0
C3280 C 0.94697 0.73525 0.83338 0.0
C3281 C 0.93862 0.7248 0.82056 0.0
H3282 H 0.95303 0.73774 0.85774 0.0
H3283 H 0.87234 0.63654 0.73309 0.0
H3284 H 0.35576 0.29926 0.76134 0.0
H3285 H 0.34708 0.27747 0.7775 0.0
H3286 H 0.30261 0.25392 0.75331 0.0
H3287 H 0.31123 0.2758 0.73684 0.0
H3288 H 0.3026 0.25193 0.78677 0.0
H3289 H 0.32384 0.24174 0.74274 0.0
H3290 H 0.34292 0.2481 0.72343 0.0
H3291 H 0.37659 0.2565 0.75923 0.0
H3292 H 0.35778 0.25047 0.77882 0.0
H3293 H 0.28707 0.17943 0.81752 0.0
H3294 H 0.28918 0.19863 0.79983 0.0
H3295 H 0.33655 0.22928 0.8153 0.0
H3296 H 0.33447 0.2105 0.83327 0.0
H3297 H 0.33172 0.2249 0.78343 0.0
H3298 H 0.31108 0.23738 0.82751 0.0
H3299 H 0.29221 0.23151 0.84697 0.0
H3300 H 0.25726 0.21855 0.81097 0.0
H3301 H 0.2759 0.22413 0.79126 0.0
C3302 C 0.34407 0.28957 0.75947 0.0
C3303 C 0.33426 0.28922 0.7476 0.0
C3304 C 0.33913 0.27711 0.76876 0.0
C3305 C 0.32429 0.26402 0.76644 0.0
C3306 C 0.31414 0.26393 0.75522 0.0
C3307 C 0.3191 0.27643 0.74581 0.0
C3308 C 0.31996 0.25014 0.77516 0.0
C3309 C 0.30872 0.24578 0.78585 0.0
C3310 C 0.32808 0.24227 0.77402 0.0
C3311 C 0.33942 0.24577 0.76227 0.0
C3312 C 0.33535 0.24506 0.74651 0.0
C3313 C 0.34611 0.24859 0.73551 0.0
C3314 C 0.36097 0.25272 0.74009 0.0
C3315 C 0.36508 0.2533 0.7557 0.0
C3316 C 0.35437 0.24982 0.76676 0.0
C3317 C 0.29789 0.19033 0.81728 0.0
C3318 C 0.31064 0.19335 0.82676 0.0
C3319 C 0.29907 0.20126 0.80713 0.0
C3320 C 0.31302 0.21535 0.80627 0.0
C3321 C 0.32571 0.21841 0.81572 0.0
C3322 C 0.32452 0.20759 0.82592 0.0
C3323 C 0.31465 0.22693 0.79536 0.0
C3324 C 0.3254 0.23085 0.78421 0.0
C3325 C 0.30604 0.23432 0.79608 0.0
C3326 C 0.29484 0.23097 0.80791 0.0
C3327 C 0.29934 0.23313 0.82373 0.0
C3328 C 0.28869 0.22989 0.83481 0.0
C3329 C 0.27353 0.22461 0.83021 0.0
C3330 C 0.269 0.2226 0.81452 0.0
C3331 C 0.2796 0.22581 0.80339 0.0
H3332 H 0.2653 0.22212 0.83881 0.0
H3333 H 0.36928 0.25544 0.73155 0.0
H3334 H 0.74954 0.0448 0.69245 0.0
H3335 H 0.76587 0.05729 0.71611 0.0
H3336 H 0.73725 0.07487 0.73051 0.0
H3337 H 0.72091 0.06259 0.70676 0.0
H3338 H 0.7673 0.09693 0.73617 0.0
H3339 H 0.7338 0.04268 0.74521 0.0
H3340 H 0.72145 0.01405 0.73962 0.0
H3341 H 0.76521 0.01816 0.74246 0.0
H3342 H 0.77784 0.04686 0.74785 0.0
H3343 H 0.78632 0.11173 0.8167 0.0
H3344 H 0.77376 0.10216 0.79084 0.0
H3345 H 0.80445 0.0862 0.77977 0.0
H3346 H 0.81725 0.09595 0.80568 0.0
H3347 H 0.77497 0.06394 0.77159 0.0
H3348 H 0.80835 0.11824 0.76437 0.0
H3349 H 0.82042 0.14678 0.77035 0.0
H3350 H 0.77678 0.14262 0.76445 0.0
H3351 H 0.7644 0.11401 0.75865 0.0
C3352 C 0.74671 0.05137 0.70059 0.0
C3353 C 0.73382 0.05258 0.69772 0.0
C3354 C 0.75606 0.05847 0.71414 0.0
C3355 C 0.75266 0.06683 0.72515 0.0
C3356 C 0.74006 0.06845 0.72216 0.0
C3357 C 0.73071 0.06137 0.70859 0.0
C3358 C 0.76201 0.07356 0.73996 0.0
C3359 C 0.76887 0.08971 0.744 0.0
C3360 C 0.76435 0.06418 0.74997 0.0
C3361 C 0.75677 0.04693 0.74677 0.0
C3362 C 0.74079 0.03749 0.74452 0.0
C3363 C 0.73374 0.02125 0.74141 0.0
C3364 C 0.74254 0.0143 0.74064 0.0
C3365 C 0.75841 0.02357 0.74303 0.0
C3366 C 0.76552 0.03982 0.74612 0.0
C3367 C 0.7906 0.10645 0.80869 0.0
C3368 C 0.80286 0.10469 0.81322 0.0
C3369 C 0.78337 0.10095 0.79392 0.0
C3370 C 0.78829 0.09364 0.78333 0.0
C3371 C 0.80051 0.09184 0.78778 0.0
C3372 C 0.80777 0.09736 0.80258 0.0
C3373 C 0.78019 0.0873 0.76787 0.0
C3374 C 0.77354 0.07121 0.76371 0.0
C3375 C 0.77802 0.09673 0.75778 0.0
C3376 C 0.78543 0.11395 0.7612 0.0
C3377 C 0.80131 0.12339 0.76446 0.0
C3378 C 0.80821 0.13959 0.7678 0.0
C3379 C 0.79937 0.14651 0.76781 0.0
C3380 C 0.78361 0.13725 0.76445 0.0
C3381 C 0.77665 0.12104 0.76111 0.0
H3382 H 0.80473 0.15905 0.7704 0.0
H3383 H 0.73706 0.00172 0.73824 0.0
H3384 H 0.0536 0.37635 0.04204 0.0
H3385 H 0.07161 0.3756 0.06068 0.0
H3386 H 0.04427 0.32496 0.05681 0.0
H3387 H 0.02601 0.32575 0.03899 0.0
H3388 H 0.05161 0.33373 0.08501 0.0
H3389 H 0.08009 0.34795 0.03939 0.0
H3390 H 0.09231 0.36401 0.01771 0.0
H3391 H 0.12084 0.40399 0.04967 0.0
H3392 H 0.10865 0.38819 0.07155 0.0
H3393 H 0.10559 0.31322 0.10871 0.0
H3394 H 0.0885 0.31836 0.0936 0.0
H3395 H 0.11177 0.36592 0.11421 0.0
H3396 H 0.12847 0.36073 0.1301 0.0
H3397 H 0.10748 0.36154 0.07993 0.0
H3398 H 0.07962 0.34471 0.12563 0.0
H3399 H 0.06771 0.32688 0.14618 0.0
H3400 H 0.03803 0.28953 0.11217 0.0
H3401 H 0.04993 0.30707 0.09139 0.0
C3402 C 0.05155 0.3651 0.04515 0.0
C3403 C 0.03843 0.35111 0.03912 0.0
C3404 C 0.06186 0.36466 0.05576 0.0
C3405 C 0.0594 0.3502 0.06013 0.0
C3406 C 0.04641 0.33627 0.05379 0.0
C3407 C 0.03599 0.33673 0.04353 0.0
C3408 C 0.07002 0.34934 0.07151 0.0
C3409 C 0.0638 0.33973 0.08376 0.0
C3410 C 0.08602 0.35744 0.07022 0.0
C3411 C 0.09333 0.36695 0.05709 0.0
C3412 C 0.08888 0.3602 0.04179 0.0
C3413 C 0.09582 0.36925 0.02947 0.0
C3414 C 0.10731 0.38502 0.03231 0.0
C3415 C 0.11191 0.39177 0.04749 0.0
C3416 C 0.105 0.38278 0.05985 0.0
C3417 C 0.10691 0.32468 0.11038 0.0
C3418 C 0.11847 0.33654 0.12071 0.0
C3419 C 0.09719 0.32763 0.10159 0.0
C3420 C 0.09893 0.34252 0.10279 0.0
C3421 C 0.11034 0.35438 0.11308 0.0
C3422 C 0.11991 0.35138 0.12209 0.0
C3423 C 0.08893 0.34567 0.09301 0.0
C3424 C 0.09528 0.3557 0.08116 0.0
C3425 C 0.07302 0.33772 0.09445 0.0
C3426 C 0.06576 0.32718 0.10694 0.0
C3427 C 0.07064 0.33266 0.12252 0.0
C3428 C 0.06387 0.32261 0.13422 0.0
C3429 C 0.05214 0.30707 0.13049 0.0
C3430 C 0.04713 0.30156 0.11505 0.0
C3431 C 0.05387 0.31156 0.10331 0.0
H3432 H 0.04692 0.29931 0.13956 0.0
H3433 H 0.11266 0.39201 0.02276 0.0
H3434 H 0.67179 0.66772 0.09651 0.0
H3435 H 0.67946 0.69172 0.11307 0.0
H3436 H 0.64632 0.69768 0.08772 0.0
H3437 H 0.63854 0.67381 0.07131 0.0
H3438 H 0.67628 0.7242 0.09018 0.0
H3439 H 0.63932 0.68563 0.12215 0.0
H3440 H 0.62907 0.6625 0.13732 0.0
H3441 H 0.67021 0.68537 0.16698 0.0
H3442 H 0.68081 0.70853 0.15182 0.0
H3443 H 0.66666 0.78056 0.12852 0.0
H3444 H 0.66263 0.7557 0.1174 0.0
H3445 H 0.69513 0.75805 0.15168 0.0
H3446 H 0.69884 0.78283 0.16333 0.0
H3447 H 0.66995 0.72814 0.14636 0.0
H3448 H 0.70622 0.76737 0.11644 0.0
H3449 H 0.71715 0.79072 0.10158 0.0
H3450 H 0.67883 0.76689 0.06822 0.0
H3451 H 0.66753 0.74347 0.08301 0.0
C3452 C 0.66606 0.67409 0.0946 0.0
C3453 C 0.65463 0.66898 0.08258 0.0
C3454 C 0.67042 0.68774 0.10407 0.0
C3455 C 0.66346 0.69643 0.10155 0.0
C3456 C 0.65184 0.69112 0.08979 0.0
C3457 C 0.6474 0.67748 0.08045 0.0
C3458 C 0.66869 0.71153 0.11051 0.0
C3459 C 0.67483 0.72506 0.10245 0.0
C3460 C 0.66735 0.71268 0.12662 0.0
C3461 C 0.66095 0.69874 0.13572 0.0
C3462 C 0.64625 0.68566 0.1318 0.0
C3463 C 0.64036 0.67256 0.14042 0.0
C3464 C 0.64901 0.67245 0.15307 0.0
C3465 C 0.66354 0.68545 0.15715 0.0
C3466 C 0.6695 0.69857 0.14855 0.0
C3467 C 0.67278 0.7757 0.13389 0.0
C3468 C 0.68308 0.78368 0.14681 0.0
C3469 C 0.67058 0.76156 0.12742 0.0
C3470 C 0.67876 0.75517 0.13358 0.0
C3471 C 0.68878 0.76285 0.14671 0.0
C3472 C 0.69097 0.77705 0.15325 0.0
C3473 C 0.67699 0.74069 0.12587 0.0
C3474 C 0.67161 0.72732 0.13415 0.0
C3475 C 0.67917 0.73967 0.10994 0.0
C3476 C 0.68598 0.75368 0.1009 0.0
C3477 C 0.70007 0.76714 0.10599 0.0
C3478 C 0.70634 0.78039 0.09757 0.0
C3479 C 0.69868 0.7803 0.08398 0.0
C3480 C 0.68475 0.76695 0.07875 0.0
C3481 C 0.67842 0.75367 0.08714 0.0
H3482 H 0.70355 0.79057 0.07748 0.0
H3483 H 0.64443 0.66231 0.15975 0.0
H3484 H 0.34116 0.99099 0.05963 0.0
H3485 H 0.31896 0.97484 0.0741 0.0
H3486 H 0.30417 0.93583 0.04001 0.0
H3487 H 0.32649 0.95198 0.02544 0.0
H3488 H 0.28134 0.94168 0.0464 0.0
H3489 H 0.31651 0.93335 0.07496 0.0
H3490 H 0.34015 0.93997 0.08984 0.0
H3491 H 0.33248 0.96756 0.12389 0.0
H3492 H 0.30877 0.9611 0.10916 0.0
H3493 H 0.2209 0.88859 0.09118 0.0
H3494 H 0.24325 0.90144 0.07589 0.0
H3495 H 0.26339 0.9424 0.10836 0.0
H3496 H 0.24135 0.92946 0.12394 0.0
H3497 H 0.28336 0.93352 0.10201 0.0
H3498 H 0.24838 0.94236 0.0728 0.0
H3499 H 0.22422 0.93472 0.0583 0.0
H3500 H 0.23144 0.90589 0.0254 0.0
H3501 H 0.25556 0.9132 0.03983 0.0
C3502 C 0.33329 0.97891 0.0553 0.0
C3503 C 0.33552 0.97275 0.04138 0.0
C3504 C 0.32064 0.96968 0.06362 0.0
C3505 C 0.30995 0.95412 0.05816 0.0
C3506 C 0.3123 0.94781 0.04442 0.0
C3507 C 0.32507 0.95702 0.03615 0.0
C3508 C 0.29589 0.94489 0.06636 0.0
C3509 C 0.28173 0.93962 0.05849 0.0
C3510 C 0.29647 0.94255 0.08221 0.0
C3511 C 0.31094 0.94685 0.09088 0.0
C3512 C 0.31995 0.94096 0.08554 0.0
C3513 C 0.33333 0.94464 0.09398 0.0
C3514 C 0.33785 0.95422 0.10779 0.0
C3515 C 0.32898 0.96014 0.11319 0.0
C3516 C 0.31554 0.95644 0.10481 0.0
C3517 C 0.23009 0.90035 0.09503 0.0
C3518 C 0.22935 0.90802 0.10876 0.0
C3519 C 0.24279 0.90771 0.08623 0.0
C3520 C 0.25494 0.92291 0.09095 0.0
C3521 C 0.25413 0.93068 0.10451 0.0
C3522 C 0.24145 0.92333 0.11331 0.0
C3523 C 0.26881 0.93052 0.08213 0.0
C3524 C 0.28293 0.93548 0.0899 0.0
C3525 C 0.26818 0.93258 0.0662 0.0
C3526 C 0.25369 0.92819 0.05749 0.0
C3527 C 0.24476 0.93429 0.06255 0.0
C3528 C 0.23108 0.93004 0.05432 0.0
C3529 C 0.22628 0.91979 0.04096 0.0
C3530 C 0.23517 0.91381 0.03577 0.0
C3531 C 0.24884 0.91801 0.04396 0.0
H3532 H 0.21569 0.91652 0.03461 0.0
H3533 H 0.34819 0.95702 0.11435 0.0
H3534 H 0.3469 0.01294 0.98172 0.0
H3535 H 0.34318 0.03232 0.96986 0.0
H3536 H 0.37904 0.06912 0.00073 0.0
H3537 H 0.38294 0.0496 0.01274 0.0
H3538 H 0.35155 0.06974 0.99871 0.0
H3539 H 0.38646 0.06784 0.96488 0.0
H3540 H 0.39669 0.0551 0.94824 0.0
H3541 H 0.35588 0.03366 0.91817 0.0
H3542 H 0.3453 0.04607 0.93475 0.0
H3543 H 0.34381 0.12523 0.95636 0.0
H3544 H 0.35396 0.11143 0.96994 0.0
H3545 H 0.3259 0.06986 0.93924 0.0
H3546 H 0.31632 0.08376 0.92515 0.0
H3547 H 0.35373 0.07523 0.94228 0.0
H3548 H 0.3174 0.07374 0.97726 0.0
H3549 H 0.30594 0.08504 0.99407 0.0
H3550 H 0.3481 0.11156 0.02194 0.0
H3551 H 0.35987 0.10056 0.00517 0.0
C3552 C 0.3541 0.02516 0.98595 0.0
C3553 C 0.36522 0.02976 0.99816 0.0
C3554 C 0.35198 0.03623 0.97911 0.0
C3555 C 0.36089 0.05215 0.98435 0.0
C3556 C 0.37208 0.05687 0.99651 0.0
C3557 C 0.37434 0.04575 0.00329 0.0
C3558 C 0.35795 0.06357 0.9773 0.0
C3559 C 0.35235 0.07127 0.98643 0.0
C3560 C 0.35867 0.06522 0.96123 0.0
C3561 C 0.36505 0.05783 0.95112 0.0
C3562 C 0.37962 0.06032 0.95478 0.0
C3563 C 0.38549 0.05317 0.94535 0.0
C3564 C 0.37693 0.04355 0.93217 0.0
C3565 C 0.3625 0.04111 0.92838 0.0
C3566 C 0.35657 0.04822 0.93778 0.0
C3567 C 0.33983 0.11316 0.95247 0.0
C3568 C 0.32921 0.10561 0.93967 0.0
C3569 C 0.34555 0.10524 0.96035 0.0
C3570 C 0.34063 0.08956 0.95568 0.0
C3571 C 0.32988 0.08195 0.94305 0.0
C3572 C 0.32424 0.08987 0.93513 0.0
C3573 C 0.3469 0.0811 0.96361 0.0
C3574 C 0.35315 0.07396 0.95461 0.0
C3575 C 0.34663 0.07985 0.97977 0.0
C3576 C 0.33957 0.08648 0.98985 0.0
C3577 C 0.32427 0.08208 0.9869 0.0
C3578 C 0.31771 0.08841 0.99643 0.0
C3579 C 0.3263 0.09905 0.00903 0.0
C3580 C 0.34147 0.10335 0.01215 0.0
C3581 C 0.34808 0.09706 0.00264 0.0
H3582 H 0.3212 0.10394 0.0164 0.0
H3583 H 0.38149 0.03802 0.92489 0.0
H3584 H 0.96557 0.31912 0.98562 0.0
H3585 H 0.94858 0.29606 0.96817 0.0
H3586 H 0.98394 0.28505 0.96463 0.0
H3587 H 0.00132 0.30879 0.98135 0.0
H3588 H 0.96911 0.27749 0.93831 0.0
H3589 H 0.95386 0.26686 0.98978 0.0
H3590 H 0.94629 0.27135 0.01534 0.0
H3591 H 0.90675 0.26881 0.994 0.0
H3592 H 0.91419 0.26452 0.96829 0.0
H3593 H 0.91092 0.19264 0.92569 0.0
H3594 H 0.93214 0.21826 0.93629 0.0
H3595 H 0.90817 0.24034 0.92057 0.0
H3596 H 0.88722 0.21498 0.9093 0.0
H3597 H 0.91771 0.24153 0.95617 0.0
H3598 H 0.93549 0.25348 0.904 0.0
H3599 H 0.94417 0.24825 0.87943 0.0
H3600 H 0.97924 0.24531 0.90423 0.0
H3601 H 0.97091 0.25075 0.92896 0.0
C3602 C 0.96975 0.31186 0.98099 0.0
C3603 C 0.98467 0.31558 0.98493 0.0
C3604 C 0.96001 0.29862 0.97109 0.0
C3605 C 0.9648 0.28852 0.96544 0.0
C3606 C 0.97993 0.29259 0.9689 0.0
C3607 C 0.98984 0.30611 0.97848 0.0
C3608 C 0.95384 0.27346 0.95645 0.0
C3609 C 0.95794 0.26959 0.94233 0.0
C3610 C 0.93923 0.26304 0.96164 0.0
C3611 C 0.93466 0.26551 0.9771 0.0
C3612 C 0.9436 0.26736 0.99053 0.0
C3613 C 0.93933 0.26985 0.00505 0.0
C3614 C 0.92607 0.2704 0.00629 0.0
C3615 C 0.91703 0.2684 0.99302 0.0
C3616 C 0.92126 0.26592 0.97847 0.0
C3617 C 0.91034 0.20299 0.92406 0.0
C3618 C 0.89724 0.20171 0.91685 0.0
C3619 C 0.92246 0.2176 0.93015 0.0
C3620 C 0.92163 0.23108 0.92918 0.0
C3621 C 0.90896 0.23 0.92139 0.0
C3622 C 0.89694 0.21547 0.91512 0.0
C3623 C 0.93293 0.24588 0.93805 0.0
C3624 C 0.92889 0.24955 0.95222 0.0
C3625 C 0.94765 0.25586 0.9331 0.0
C3626 C 0.95248 0.25233 0.9183 0.0
C3627 C 0.94496 0.25156 0.90421 0.0
C3628 C 0.94984 0.24861 0.89026 0.0
C3629 C 0.96214 0.24629 0.89027 0.0
C3630 C 0.96968 0.24706 0.90424 0.0
C3631 C 0.96493 0.25015 0.91822 0.0
H3632 H 0.96588 0.24399 0.87946 0.0
H3633 H 0.92278 0.27234 0.01754 0.0
H3634 H 0.67125 0.6504 0.01557 0.0
H3635 H 0.69305 0.65458 0.00147 0.0
H3636 H 0.69811 0.62286 0.02921 0.0
H3637 H 0.67606 0.61855 0.04348 0.0
H3638 H 0.72537 0.65152 0.02741 0.0
H3639 H 0.68702 0.61098 0.99207 0.0
H3640 H 0.66315 0.59671 0.97559 0.0
H3641 H 0.67781 0.63694 0.94962 0.0
H3642 H 0.70191 0.65144 0.96594 0.0
H3643 H 0.78302 0.65578 0.97924 0.0
H3644 H 0.76081 0.64727 0.99457 0.0
H3645 H 0.74763 0.67455 0.96876 0.0
H3646 H 0.76949 0.68267 0.95308 0.0
H3647 H 0.72418 0.64524 0.97024 0.0
H3648 H 0.7626 0.68602 0.00619 0.0
H3649 H 0.7868 0.69977 0.02233 0.0
H3650 H 0.77199 0.65896 0.04739 0.0
H3651 H 0.74777 0.64488 0.03125 0.0
C3652 C 0.67686 0.64413 0.01857 0.0
C3653 C 0.67197 0.63415 0.03064 0.0
C3654 C 0.68929 0.6465 0.01045 0.0
C3655 C 0.69716 0.63899 0.01425 0.0
C3656 C 0.69215 0.62874 0.0261 0.0
C3657 C 0.67953 0.62622 0.03416 0.0
C3658 C 0.71106 0.64265 0.00625 0.0
C3659 C 0.72511 0.64986 0.01493 0.0
C3660 C 0.71074 0.64081 0.98998 0.0
C3661 C 0.69619 0.63232 0.9803 0.0
C3662 C 0.6851 0.61683 0.98293 0.0
C3663 C 0.67153 0.60868 0.97358 0.0
C3664 C 0.66889 0.61594 0.9616 0.0
C3665 C 0.67986 0.63134 0.95891 0.0
C3666 C 0.69351 0.63951 0.96817 0.0
C3667 C 0.77541 0.66 0.97687 0.0
C3668 C 0.77799 0.66986 0.96491 0.0
C3669 C 0.7628 0.65523 0.98573 0.0
C3670 C 0.7526 0.66033 0.98284 0.0
C3671 C 0.75537 0.67049 0.97118 0.0
C3672 C 0.76795 0.67524 0.96232 0.0
C3673 C 0.73856 0.65441 0.99134 0.0
C3674 C 0.72447 0.64678 0.98274 0.0
C3675 C 0.7389 0.65588 0.00768 0.0
C3676 C 0.75345 0.66433 0.01739 0.0
C3677 C 0.76456 0.67992 0.01505 0.0
C3678 C 0.77827 0.68779 0.02422 0.0
C3679 C 0.78095 0.68023 0.03585 0.0
C3680 C 0.76991 0.6648 0.03836 0.0
C3681 C 0.75619 0.65687 0.02921 0.0
H3682 H 0.79157 0.68634 0.04294 0.0
H3683 H 0.65839 0.60962 0.95435 0.0
H3684 H 0.94899 0.62994 0.02219 0.0
H3685 H 0.93054 0.6312 0.00458 0.0
H3686 H 0.96397 0.67944 0.99816 0.0
H3687 H 0.98226 0.67832 0.01561 0.0
H3688 H 0.93627 0.67546 0.00296 0.0
H3689 H 0.95723 0.6504 0.97212 0.0
H3690 H 0.96316 0.62988 0.96585 0.0
H3691 H 0.91535 0.59492 0.96134 0.0
H3692 H 0.90914 0.61519 0.96814 0.0
H3693 H 0.91111 0.69315 0.93571 0.0
H3694 H 0.92626 0.68708 0.95295 0.0
H3695 H 0.88728 0.6407 0.95623 0.0
H3696 H 0.87191 0.64676 0.9393 0.0
H3697 H 0.91512 0.64131 0.95401 0.0
H3698 H 0.89413 0.66648 0.98393 0.0
H3699 H 0.88825 0.68704 0.99039 0.0
H3700 H 0.93609 0.72169 0.99633 0.0
H3701 H 0.94228 0.70137 0.98964 0.0
C3702 C 0.95234 0.6408 0.01705 0.0
C3703 C 0.96708 0.65401 0.02025 0.0
C3704 C 0.94183 0.6415 0.00698 0.0
C3705 C 0.94593 0.6554 2e-05 0.0
C3706 C 0.96055 0.66861 0.00343 0.0
C3707 C 0.97102 0.66792 0.01337 0.0
C3708 C 0.93523 0.65639 0.98899 0.0
C3709 C 0.93172 0.66805 0.99222 0.0
C3710 C 0.929 0.64646 0.97515 0.0
C3711 C 0.93272 0.6343 0.97085 0.0
C3712 C 0.94798 0.63832 0.96995 0.0
C3713 C 0.95139 0.62673 0.96627 0.0
C3714 C 0.93965 0.6111 0.96317 0.0
C3715 C 0.92445 0.60703 0.96376 0.0
C3716 C 0.92097 0.61856 0.96757 0.0
C3717 C 0.90577 0.68163 0.94003 0.0
C3718 C 0.89026 0.6705 0.9362 0.0
C3719 C 0.91445 0.67816 0.94982 0.0
C3720 C 0.90782 0.66351 0.95598 0.0
C3721 C 0.8926 0.65206 0.95156 0.0
C3722 C 0.88387 0.65555 0.94182 0.0
C3723 C 0.9165 0.66061 0.96787 0.0
C3724 C 0.91957 0.6486 0.96482 0.0
C3725 C 0.92234 0.6702 0.98191 0.0
C3726 C 0.91867 0.68242 0.98615 0.0
C3727 C 0.9034 0.6785 0.9865 0.0
C3728 C 0.90001 0.69011 0.99022 0.0
C3729 C 0.91179 0.70566 0.99374 0.0
C3730 C 0.92698 0.70964 0.99359 0.0
C3731 C 0.93044 0.69808 0.98984 0.0
H3732 H 0.90913 0.71463 0.99661 0.0
H3733 H 0.94232 0.60215 0.9603 0.0
H3734 H 0.37252 0.33402 0.97318 0.0
H3735 H 0.36466 0.31093 0.95544 0.0
H3736 H 0.32144 0.30713 0.94513 0.0
H3737 H 0.32948 0.33058 0.96251 0.0
H3738 H 0.34295 0.28286 0.95897 0.0
H3739 H 0.30595 0.28714 0.90979 0.0
H3740 H 0.30542 0.30751 0.89546 0.0
H3741 H 0.3537 0.33818 0.90533 0.0
H3742 H 0.35456 0.31792 0.91951 0.0
H3743 H 0.29895 0.20801 0.92328 0.0
H3744 H 0.30449 0.23363 0.93388 0.0
H3745 H 0.33304 0.25538 0.89647 0.0
H3746 H 0.32668 0.22962 0.88513 0.0
H3747 H 0.31985 0.27126 0.90531 0.0
H3748 H 0.34819 0.25156 0.93012 0.0
H3749 H 0.3511 0.23189 0.94321 0.0
H3750 H 0.32554 0.23449 0.98031 0.0
H3751 H 0.32226 0.25399 0.9673 0.0
C3752 C 0.36145 0.32843 0.96692 0.0
C3753 C 0.35156 0.33401 0.96928 0.0
C3754 C 0.35696 0.31521 0.95682 0.0
C3755 C 0.34245 0.30727 0.94897 0.0
C3756 C 0.33277 0.31318 0.95088 0.0
C3757 C 0.33735 0.32654 0.96086 0.0
C3758 C 0.33703 0.29208 0.93991 0.0
C3759 C 0.33794 0.28038 0.94722 0.0
C3760 C 0.33063 0.28886 0.92453 0.0
C3761 C 0.33027 0.30105 0.91585 0.0
C3762 C 0.31646 0.2982 0.90884 0.0
C3763 C 0.31611 0.30974 0.90076 0.0
C3764 C 0.32951 0.32415 0.89953 0.0
C3765 C 0.34331 0.32704 0.90634 0.0
C3766 C 0.34373 0.31554 0.91442 0.0
C3767 C 0.30597 0.21813 0.91697 0.0
C3768 C 0.31261 0.21675 0.90349 0.0
C3769 C 0.30926 0.23282 0.92315 0.0
C3770 C 0.31953 0.24644 0.9162 0.0
C3771 C 0.32522 0.24503 0.90212 0.0
C3772 C 0.32174 0.2303 0.89577 0.0
C3773 C 0.32564 0.26211 0.92448 0.0
C3774 C 0.32485 0.27382 0.91706 0.0
C3775 C 0.33261 0.26558 0.93964 0.0
C3776 C 0.33487 0.25413 0.94767 0.0
C3777 C 0.34314 0.24789 0.94104 0.0
C3778 C 0.34484 0.23676 0.94843 0.0
C3779 C 0.33848 0.23192 0.96257 0.0
C3780 C 0.33044 0.23824 0.96935 0.0
C3781 C 0.32866 0.24933 0.96198 0.0
H3782 H 0.3398 0.22329 0.96827 0.0
H3783 H 0.32921 0.33306 0.89328 0.0
H3784 H 0.65711 0.01557 0.99705 0.0
H3785 H 0.67957 0.02988 0.98228 0.0
H3786 H 0.70499 0.05968 0.02335 0.0
H3787 H 0.6821 0.04599 0.03788 0.0
H3788 H 0.71424 0.07628 0.00034 0.0
H3789 H 0.70708 0.02651 0.00989 0.0
H3790 H 0.69316 0.99772 0.01039 0.0
H3791 H 0.68627 0.99236 0.96092 0.0
H3792 H 0.69998 0.02112 0.96013 0.0
H3793 H 0.78542 0.09804 0.96672 0.0
H3794 H 0.76435 0.0859 0.98392 0.0
H3795 H 0.7323 0.06325 0.94426 0.0
H3796 H 0.75322 0.07541 0.92709 0.0
H3797 H 0.72836 0.04342 0.96862 0.0
H3798 H 0.73555 0.09467 0.9607 0.0
H3799 H 0.75094 0.12356 0.96168 0.0
H3800 H 0.75993 0.12593 0.01064 0.0
H3801 H 0.74477 0.09702 0.00991 0.0
C3802 C 0.66744 0.02537 0.00282 0.0
C3803 C 0.668 0.02967 0.01856 0.0
C3804 C 0.68031 0.03343 0.99444 0.0
C3805 C 0.69417 0.0455 0.00182 0.0
C3806 C 0.6945 0.05032 0.01742 0.0
C3807 C 0.68144 0.04253 0.02571 0.0
C3808 C 0.70833 0.05265 0.99335 0.0
C3809 C 0.71742 0.06907 0.99362 0.0
C3810 C 0.71259 0.04329 0.98455 0.0
C3811 C 0.70447 0.02597 0.98496 0.0
C3812 C 0.70253 0.01919 0.99912 0.0
C3813 C 0.69468 0.00288 0.99946 0.0
C3814 C 0.68881 0.99322 0.9857 0.0
C3815 C 0.69082 -0.00015 0.97157 0.0
C3816 C 0.69864 0.01616 0.97117 0.0
C3817 C 0.77387 0.09035 0.96174 0.0
C3818 C 0.77087 0.08767 0.94563 0.0
C3819 C 0.76189 0.08351 0.97153 0.0
C3820 C 0.74681 0.07379 0.96531 0.0
C3821 C 0.74387 0.07075 0.94924 0.0
C3822 C 0.75579 0.07773 0.93948 0.0
C3823 C 0.73394 0.06691 0.97543 0.0
C3824 C 0.72516 0.05055 0.97549 0.0
C3825 C 0.7302 0.07632 0.98478 0.0
C3826 C 0.73917 0.09369 0.98522 0.0
C3827 C 0.74091 0.10134 0.97165 0.0
C3828 C 0.74957 0.11772 0.97217 0.0
C3829 C 0.75644 0.12657 0.98621 0.0
C3830 C 0.75462 0.11906 0.99977 0.0
C3831 C 0.74599 0.10268 0.99931 0.0
H3832 H 0.76315 0.13925 0.98658 0.0
H3833 H 0.68273 0.98059 0.98599 0.0
H3834 H 0.64776 0.98791 0.08249 0.0
H3835 H 0.65408 0.97003 0.09381 0.0
H3836 H 0.63435 0.9381 0.05275 0.0
H3837 H 0.62726 0.95577 0.04169 0.0
H3838 H 0.6294 0.92191 0.07702 0.0
H3839 H 0.67334 0.96436 0.05807 0.0
H3840 H 0.6922 0.99194 0.05411 0.0
H3841 H 0.70521 0.00148 0.10272 0.0
H3842 H 0.68626 0.97401 0.10701 0.0
H3843 H 0.6737 0.8877 0.10107 0.0
H3844 H 0.66525 0.90184 0.0852 0.0
H3845 H 0.66965 0.93137 0.1256 0.0
H3846 H 0.67776 0.91712 0.14146 0.0
H3847 H 0.68328 0.94726 0.09761 0.0
H3848 H 0.6364 0.90381 0.11539 0.0
H3849 H 0.61816 0.87567 0.11765 0.0
H3850 H 0.61212 0.86741 0.0682 0.0
H3851 H 0.63051 0.89549 0.06567 0.0
C3852 C 0.64451 0.97693 0.07601 0.0
C3853 C 0.63715 0.97322 0.0612 0.0
C3854 C 0.64824 0.96677 0.08242 0.0
C3855 C 0.64518 0.95298 0.07391 0.0
C3856 C 0.63697 0.94877 0.05946 0.0
C3857 C 0.63289 0.95881 0.05317 0.0
C3858 C 0.65125 0.94351 0.07995 0.0
C3859 C 0.64124 0.92741 0.08126 0.0
C3860 C 0.66676 0.95061 0.08539 0.0
C3861 C 0.6783 0.96714 0.08287 0.0
C3862 C 0.68016 0.97236 0.06793 0.0
C3863 C 0.69087 0.98797 0.06563 0.0
C3864 C 0.69988 0.99846 0.07816 0.0
C3865 C 0.69822 0.99335 0.09302 0.0
C3866 C 0.68751 0.97775 0.09539 0.0
C3867 C 0.67295 0.89729 0.10646 0.0
C3868 C 0.67632 0.90136 0.12243 0.0
C3869 C 0.66808 0.90528 0.09745 0.0
C3870 C 0.6668 0.91757 0.10429 0.0
C3871 C 0.67058 0.9219 0.12015 0.0
C3872 C 0.67516 0.91376 0.12917 0.0
C3873 C 0.66132 0.92591 0.09511 0.0
C3874 C 0.6715 0.94178 0.09315 0.0
C3875 C 0.6461 0.91852 0.08879 0.0
C3876 C 0.63495 0.9017 0.09034 0.0
C3877 C 0.63128 0.89597 0.105 0.0
C3878 C 0.6209 0.88004 0.10633 0.0
C3879 C 0.61402 0.86975 0.09308 0.0
C3880 C 0.61748 0.87539 0.07846 0.0
C3881 C 0.62787 0.89131 0.07707 0.0
H3882 H 0.60599 0.85742 0.09413 0.0
H3883 H 0.70816 0.01055 0.07636 0.0
H3884 H 0.04108 0.69273 0.06672 0.0
H3885 H 0.05644 0.71435 0.08626 0.0
H3886 H 0.01579 0.70406 0.109 0.0
H3887 H 1.00028 0.68253 0.08924 0.0
H3888 H 0.03274 0.73434 0.10601 0.0
H3889 H 0.0415 0.69628 0.12562 0.0
H3890 H 0.04762 0.67544 0.12477 0.0
H3891 H 0.09243 0.70781 0.11085 0.0
H3892 H 0.08652 0.7288 0.11139 0.0
H3893 H 0.10251 0.78723 0.1666 0.0
H3894 H 0.08101 0.76149 0.15663 0.0
H3895 H 0.07974 0.7803 0.11347 0.0
H3896 H 0.1012 0.8059 0.12326 0.0
H3897 H 0.08016 0.74304 0.13279 0.0
H3898 H 0.04418 0.76222 0.09736 0.0
H3899 H 0.03694 0.78219 0.09984 0.0
H3900 H 0.04423 0.7858 0.14918 0.0
H3901 H 0.05129 0.76569 0.14703 0.0
C3902 C 0.03542 0.69497 0.07596 0.0
C3903 C 0.01949 0.68597 0.07645 0.0
C3904 C 0.04422 0.70728 0.08718 0.0
C3905 C 0.03728 0.71072 0.0992 0.0
C3906 C 0.02138 0.70159 0.09984 0.0
C3907 C 0.01255 0.68929 0.08857 0.0
C3908 C 0.04664 0.72444 0.11049 0.0
C3909 C 0.04303 0.73619 0.11199 0.0
C3910 C 0.05982 0.72664 0.11866 0.0
C3911 C 0.06353 0.71411 0.11848 0.0
C3912 C 0.05264 0.69894 0.12229 0.0
C3913 C 0.05607 0.6871 0.12188 0.0
C3914 C 0.0704 0.69029 0.11775 0.0
C3915 C 0.08134 0.70535 0.11406 0.0
C3916 C 0.07796 0.71724 0.11445 0.0
C3917 C 0.09757 0.78588 0.15502 0.0
C3918 C 0.10356 0.7986 0.1457 0.0
C3919 C 0.08527 0.7712 0.14937 0.0
C3920 C 0.0787 0.76901 0.13436 0.0
C3921 C 0.08443 0.78179 0.1252 0.0
C3922 C 0.09669 0.79644 0.13082 0.0
C3923 C 0.0666 0.75321 0.12771 0.0
C3924 C 0.06971 0.74107 0.12707 0.0
C3925 C 0.05279 0.75052 0.12062 0.0
C3926 C 0.04836 0.7625 0.12201 0.0
C3927 C 0.04415 0.7672 0.10875 0.0
C3928 C 0.0401 0.77857 0.11009 0.0
C3929 C 0.04016 0.78529 0.12466 0.0
C3930 C 0.04424 0.78062 0.13791 0.0
C3931 C 0.04829 0.76926 0.13663 0.0
H3932 H 0.03703 0.79409 0.12567 0.0
H3933 H 0.07303 0.6811 0.11742 0.0
H3934 H 0.33568 0.3843 0.02457 0.0
H3935 H 0.31491 0.38015 0.04077 0.0
H3936 H 0.30513 0.3335 0.04769 0.0
H3937 H 0.32573 0.3375 0.03155 0.0
H3938 H 0.27944 0.33393 0.03964 0.0
H3939 H 0.32364 0.36276 0.07574 0.0
H3940 H 0.34888 0.38514 0.08539 0.0
H3941 H 0.33148 0.416 0.0846 0.0
H3942 H 0.30621 0.39386 0.07471 0.0
H3943 H 0.23074 0.3132 0.10116 0.0
H3944 H 0.25162 0.31932 0.0845 0.0
H3945 H 0.26127 0.36672 0.08342 0.0
H3946 H 0.24054 0.3607 0.1003 0.0
H3947 H 0.28686 0.36708 0.08762 0.0
H3948 H 0.24296 0.3392 0.05227 0.0
H3949 H 0.21749 0.31745 0.04238 0.0
H3950 H 0.23394 0.28573 0.04089 0.0
H3951 H 0.25946 0.30724 0.05098 0.0
C3952 C 0.32914 0.37319 0.02961 0.0
C3953 C 0.33233 0.36122 0.02679 0.0
C3954 C 0.31732 0.37086 0.03888 0.0
C3955 C 0.30853 0.35653 0.04546 0.0
C3956 C 0.31176 0.34462 0.04269 0.0
C3957 C 0.32357 0.34696 0.03351 0.0
C3958 C 0.29573 0.35371 0.05498 0.0
C3959 C 0.28107 0.34107 0.05023 0.0
C3960 C 0.29782 0.36335 0.0685 0.0
C3961 C 0.31307 0.37667 0.07432 0.0
C3962 C 0.32523 0.37434 0.07747 0.0
C3963 C 0.33954 0.38698 0.08301 0.0
C3964 C 0.34178 0.40198 0.08558 0.0
C3965 C 0.32973 0.40438 0.08259 0.0
C3966 C 0.31542 0.39179 0.07702 0.0
C3967 C 0.23723 0.32487 0.09725 0.0
C3968 C 0.23401 0.33646 0.10199 0.0
C3969 C 0.24915 0.32837 0.08773 0.0
C3970 C 0.2579 0.34344 0.08254 0.0
C3971 C 0.25469 0.35503 0.08729 0.0
C3972 C 0.24286 0.35158 0.09693 0.0
C3973 C 0.27056 0.34716 0.0724 0.0
C3974 C 0.28518 0.35997 0.077 0.0
C3975 C 0.26842 0.33778 0.05864 0.0
C3976 C 0.25309 0.32481 0.05252 0.0
C3977 C 0.24112 0.32756 0.04994 0.0
C3978 C 0.22667 0.31528 0.04429 0.0
C3979 C 0.22409 0.30021 0.04104 0.0
C3980 C 0.23595 0.2974 0.04342 0.0
C3981 C 0.25041 0.30964 0.04909 0.0
H3982 H 0.2129 0.29072 0.03666 0.0
H3983 H 0.35282 0.41173 0.08994 0.0
H3984 H 0.68222 0.67131 0.39076 0.0
H3985 H 0.69953 0.66838 0.40815 0.0
H3986 H 0.73812 0.70449 0.38655 0.0
H3987 H 0.72082 0.70748 0.36903 0.0
H3988 H 0.73931 0.67777 0.38884 0.0
H3989 H 0.73091 0.71212 0.42211 0.0
H3990 H 0.71557 0.72091 0.43575 0.0
H3991 H 0.69505 0.67919 0.4601 0.0
H3992 H 0.71011 0.67003 0.44644 0.0
H3993 H 0.79688 0.68519 0.4405 0.0
H3994 H 0.77991 0.69073 0.42579 0.0
H3995 H 0.74158 0.65616 0.44895 0.0
H3996 H 0.75869 0.651 0.46431 0.0
H3997 H 0.74022 0.68229 0.4461 0.0
H3998 H 0.74793 0.64756 0.41276 0.0
H3999 H 0.76321 0.6385 0.39944 0.0
H4000 H 0.78448 0.68024 0.37514 0.0
H4001 H 0.76949 0.68968 0.38851 0.0
C4002 C 0.6944 0.67876 0.38981 0.0
C4003 C 0.70017 0.68962 0.37852 0.0
C4004 C 0.70427 0.6771 0.3998 0.0
C4005 C 0.7201 0.68626 0.39868 0.0
C4006 C 0.72592 0.69732 0.38759 0.0
C4007 C 0.71604 0.69906 0.37765 0.0
C4008 C 0.73049 0.68371 0.40856 0.0
C4009 C 0.7397 0.679 0.40136 0.0
C4010 C 0.7306 0.68483 0.42488 0.0
C4011 C 0.72154 0.69032 0.43314 0.0
C4012 C 0.72303 0.70475 0.43027 0.0
C4013 C 0.7144 0.70981 0.43803 0.0
C4014 C 0.70431 0.70059 0.44875 0.0
C4015 C 0.70286 0.68631 0.45177 0.0
C4016 C 0.71145 0.68118 0.44404 0.0
C4017 C 0.78489 0.67894 0.4427 0.0
C4018 C 0.77915 0.66768 0.45364 0.0
C4019 C 0.77517 0.682 0.43414 0.0
C4020 C 0.75945 0.67371 0.43612 0.0
C4021 C 0.75368 0.66266 0.44721 0.0
C4022 C 0.76343 0.65963 0.45587 0.0
C4023 C 0.74909 0.67643 0.42637 0.0
C4024 C 0.73985 0.6811 0.43358 0.0
C4025 C 0.74887 0.67517 0.41004 0.0
C4026 C 0.75768 0.66939 0.40175 0.0
C4027 C 0.75593 0.65485 0.40465 0.0
C4028 C 0.76453 0.64964 0.39708 0.0
C4029 C 0.77484 0.65881 0.38648 0.0
C4030 C 0.77651 0.67317 0.38337 0.0
C4031 C 0.76795 0.67844 0.39093 0.0
H4032 H 0.78151 0.65477 0.38065 0.0
H4033 H 0.69764 0.70453 0.45475 0.0
H4034 H 0.31534 0.01276 0.40846 0.0
H4035 H 0.32639 0.03772 0.424 0.0
H4036 H 0.35475 0.0262 0.45074 0.0
H4037 H 0.34386 0.00108 0.43494 0.0
H4038 H 0.33732 0.04035 0.46745 0.0
H4039 H 0.37374 0.04956 0.42971 0.0
H4040 H 0.38154 0.04755 0.40352 0.0
H4041 H 0.36109 0.0726 0.38686 0.0
H4042 H 0.35295 0.07452 0.41291 0.0
H4043 H 0.37206 0.12113 0.49716 0.0
H4044 H 0.37048 0.09669 0.48765 0.0
H4045 H 0.34703 0.09594 0.4453 0.0
H4046 H 0.34886 0.12038 0.45454 0.0
H4047 H 0.36793 0.0881 0.43971 0.0
H4048 H 0.32825 0.0755 0.47513 0.0
H4049 H 0.31831 0.07657 0.50038 0.0
H4050 H 0.3426 0.05687 0.52065 0.0
H4051 H 0.35314 0.05619 0.49563 0.0
C4052 C 0.32383 0.01543 0.41771 0.0
C4053 C 0.32882 0.00502 0.42044 0.0
C4054 C 0.33012 0.02969 0.42656 0.0
C4055 C 0.34141 0.03376 0.43839 0.0
C4056 C 0.34604 0.02319 0.44161 0.0
C4057 C 0.33986 0.00892 0.43258 0.0
C4058 C 0.34865 0.04946 0.44672 0.0
C4059 C 0.3444 0.05087 0.46164 0.0
C4060 C 0.35762 0.06305 0.43892 0.0
C4061 C 0.36266 0.0621 0.42326 0.0
C4062 C 0.37081 0.05454 0.42044 0.0
C4063 C 0.37531 0.05343 0.40562 0.0
C4064 C 0.3718 0.05992 0.39352 0.0
C4065 C 0.36381 0.06757 0.39624 0.0
C4066 C 0.35927 0.06869 0.41104 0.0
C4067 C 0.36678 0.11583 0.48573 0.0
C4068 C 0.36046 0.12254 0.47662 0.0
C4069 C 0.36582 0.10186 0.48037 0.0
C4070 C 0.35853 0.09446 0.46583 0.0
C4071 C 0.3527 0.10146 0.45655 0.0
C4072 C 0.35362 0.11534 0.4619 0.0
C4073 C 0.35623 0.07905 0.46031 0.0
C4074 C 0.36134 0.07769 0.44584 0.0
C4075 C 0.34792 0.06552 0.46849 0.0
C4076 C 0.3417 0.06606 0.48357 0.0
C4077 C 0.33167 0.07162 0.48502 0.0
C4078 C 0.32594 0.07216 0.4993 0.0
C4079 C 0.32996 0.06694 0.51215 0.0
C4080 C 0.33967 0.0611 0.51073 0.0
C4081 C 0.34554 0.06066 0.49651 0.0
H4082 H 0.32547 0.06732 0.52319 0.0
H4083 H 0.37528 0.05905 0.38206 0.0
H4084 H 0.01032 0.28928 0.3724 0.0
H4085 H 0.98793 0.27373 0.38696 0.0
H4086 H 0.98292 0.31385 0.39467 0.0
H4087 H 0.00578 0.32962 0.3809 0.0
H4088 H 0.97628 0.29953 0.41911 0.0
H4089 H 0.96099 0.28247 0.36554 0.0
H4090 H 0.96218 0.27239 0.33938 0.0
H4091 H 0.95524 0.23009 0.35717 0.0
H4092 H 0.95421 0.24001 0.38348 0.0
H4093 H 0.89598 0.25591 0.43095 0.0
H4094 H 0.91957 0.27106 0.41799 0.0
H4095 H 0.93258 0.23765 0.42796 0.0
H4096 H 0.90961 0.22294 0.44182 0.0
H4097 H 0.93479 0.24801 0.39497 0.0
H4098 H 0.94959 0.26648 0.44912 0.0
H4099 H 0.94665 0.27705 0.47424 0.0
H4100 H 0.95269 0.31778 0.45356 0.0
H4101 H 0.95538 0.30728 0.42824 0.0
C4102 C 0.00449 0.29478 0.37733 0.0
C4103 C 0.00969 0.3106 0.37545 0.0
C4104 C 0.99163 0.28587 0.38555 0.0
C4105 C 0.98346 0.29249 0.39161 0.0
C4106 C 0.98896 0.30844 0.39009 0.0
C4107 C 0.00202 0.31744 0.38219 0.0
C4108 C 0.96903 0.28276 0.39922 0.0
C4109 C 0.96718 0.28835 0.41371 0.0
C4110 C 0.95712 0.26807 0.39231 0.0
C4111 C 0.95768 0.26205 0.37649 0.0
C4112 C 0.95982 0.27106 0.36388 0.0
C4113 C 0.96045 0.26538 0.34903 0.0
C4114 C 0.95883 0.25063 0.34662 0.0
C4115 C 0.95652 0.24152 0.35906 0.0
C4116 C 0.9559 0.24716 0.37394 0.0
C4117 C 0.90389 0.25182 0.43057 0.0
C4118 C 0.9008 0.23815 0.43753 0.0
C4119 C 0.9173 0.26044 0.42304 0.0
C4120 C 0.92774 0.25543 0.42208 0.0
C4121 C 0.92456 0.24161 0.42854 0.0
C4122 C 0.91133 0.23315 0.43635 0.0
C4123 C 0.94219 0.26484 0.41467 0.0
C4124 C 0.94398 0.25919 0.40027 0.0
C4125 C 0.95389 0.27958 0.42149 0.0
C4126 C 0.95251 0.28601 0.43675 0.0
C4127 C 0.95014 0.27761 0.4499 0.0
C4128 C 0.94855 0.2836 0.46418 0.0
C4129 C 0.94944 0.29806 0.46548 0.0
C4130 C 0.95198 0.30657 0.45252 0.0
C4131 C 0.95354 0.30061 0.43821 0.0
H4132 H 0.9482 0.30267 0.47655 0.0
H4133 H 0.95932 0.24625 0.33511 0.0
H4134 H 0.06467 0.38066 0.33145 0.0
H4135 H 0.0621 0.40021 0.31807 0.0
H4136 H 0.01378 0.36709 0.30936 0.0
H4137 H 0.01644 0.34741 0.322 0.0
H4138 H 0.02359 0.38183 0.28532 0.0
H4139 H 0.02989 0.39794 0.33971 0.0
H4140 H 0.04283 0.40574 0.36584 0.0
H4141 H 0.08189 0.44512 0.34868 0.0
H4142 H 0.06924 0.43743 0.3224 0.0
H4143 H 0.99521 0.43279 0.27793 0.0
H4144 H 0.00237 0.41586 0.29009 0.0
H4145 H 0.049 0.44612 0.27914 0.0
H4146 H 0.04189 0.46267 0.26611 0.0
H4147 H 0.04233 0.43447 0.31191 0.0
H4148 H 0.03383 0.41806 0.25721 0.0
H4149 H 0.01891 0.41024 0.23215 0.0
H4150 H 0.98169 0.3708 0.25142 0.0
H4151 H 0.99629 0.37858 0.2767 0.0
C4152 C 0.05354 0.37756 0.32656 0.0
C4153 C 0.04075 0.36255 0.3278 0.0
C4154 C 0.05206 0.38875 0.319 0.0
C4155 C 0.03768 0.38524 0.31292 0.0
C4156 C 0.02499 0.37012 0.31391 0.0
C4157 C 0.02652 0.35887 0.32118 0.0
C4158 C 0.03564 0.39726 0.30576 0.0
C4159 C 0.02763 0.39328 0.29123 0.0
C4160 C 0.04109 0.41236 0.31329 0.0
C4161 C 0.0487 0.417 0.32907 0.0
C4162 C 0.04128 0.40819 0.3415 0.0
C4163 C 0.04855 0.41261 0.35633 0.0
C4164 C 0.06319 0.42589 0.35891 0.0
C4165 C 0.07056 0.43482 0.34666 0.0
C4166 C 0.06335 0.43044 0.3318 0.0
C4167 C 0.00698 0.43585 0.27799 0.0
C4168 C 0.01792 0.44908 0.27088 0.0
C4169 C 0.01106 0.42622 0.28507 0.0
C4170 C 0.02618 0.42977 0.28542 0.0
C4171 C 0.03729 0.44329 0.27902 0.0
C4172 C 0.03318 0.45278 0.27167 0.0
C4173 C 0.03014 0.41883 0.29175 0.0
C4174 C 0.03848 0.42304 0.30604 0.0
C4175 C 0.02479 0.40386 0.28415 0.0
C4176 C 0.0161 0.399 0.26889 0.0
C4177 C 0.02241 0.40781 0.25615 0.0
C4178 C 0.01403 0.40337 0.24189 0.0
C4179 C 0.99935 0.39005 0.2402 0.0
C4180 C 0.99305 0.38113 0.25276 0.0
C4181 C 0.00139 0.38554 0.26705 0.0
H4182 H 0.99287 0.38664 0.22916 0.0
H4183 H 0.0688 0.42929 0.3704 0.0
H4184 H 0.66621 0.64666 0.32048 0.0
H4185 H 0.64919 0.62265 0.30402 0.0
H4186 H 0.61457 0.63493 0.30333 0.0
H4187 H 0.63122 0.6584 0.32042 0.0
H4188 H 0.60213 0.6066 0.30903 0.0
H4189 H 0.63611 0.63642 0.27105 0.0
H4190 H 0.66087 0.65242 0.2598 0.0
H4191 H 0.66909 0.61451 0.26119 0.0
H4192 H 0.64445 0.59835 0.27264 0.0
H4193 H 0.55287 0.55264 0.24834 0.0
H4194 H 0.57389 0.57772 0.25999 0.0
H4195 H 0.59722 0.55489 0.27549 0.0
H4196 H 0.5759 0.52953 0.26449 0.0
H4197 H 0.61581 0.58772 0.26173 0.0
H4198 H 0.58096 0.55872 0.30092 0.0
H4199 H 0.55519 0.54325 0.3103 0.0
H4200 H 0.54799 0.58139 0.3045 0.0
H4201 H 0.57364 0.59697 0.29482 0.0
C4202 C 0.65501 0.64427 0.31666 0.0
C4203 C 0.64997 0.6543 0.32176 0.0
C4204 C 0.64532 0.6306 0.30718 0.0
C4205 C 0.63061 0.627 0.3023 0.0
C4206 C 0.62582 0.63738 0.307 0.0
C4207 C 0.63535 0.65081 0.31674 0.0
C4208 C 0.61975 0.61197 0.29323 0.0
C4209 C 0.60515 0.60266 0.29859 0.0
C4210 C 0.62369 0.60654 0.27975 0.0
C4211 C 0.6385 0.61623 0.27285 0.0
C4212 C 0.64325 0.63154 0.26907 0.0
C4213 C 0.65725 0.64063 0.26264 0.0
C4214 C 0.66657 0.63451 0.25982 0.0
C4215 C 0.66187 0.61925 0.2634 0.0
C4216 C 0.64789 0.61012 0.26985 0.0
C4217 C 0.56245 0.5529 0.25422 0.0
C4218 C 0.56255 0.53901 0.25574 0.0
C4219 C 0.57452 0.56727 0.26069 0.0
C4220 C 0.58701 0.56806 0.26859 0.0
C4221 C 0.58767 0.55445 0.26932 0.0
C4222 C 0.57548 0.53999 0.26302 0.0
C4223 C 0.5984 0.58275 0.27754 0.0
C4224 C 0.61299 0.59184 0.27219 0.0
C4225 C 0.59444 0.58818 0.2909 0.0
C4226 C 0.57915 0.57894 0.297 0.0
C4227 C 0.57383 0.56375 0.30152 0.0
C4228 C 0.55925 0.55497 0.30691 0.0
C4229 C 0.54994 0.56132 0.30796 0.0
C4230 C 0.55521 0.57648 0.30366 0.0
C4231 C 0.56976 0.58529 0.29824 0.0
H4232 H 0.53866 0.5545 0.31213 0.0
H4233 H 0.6774 0.64156 0.25484 0.0
H4234 H 0.33125 0.93989 0.37236 0.0
H4235 H 0.3497 0.93828 0.35612 0.0
H4236 H 0.36793 0.98624 0.34565 0.0
H4237 H 0.34961 0.98792 0.36162 0.0
H4238 H 0.35486 0.94395 0.32388 0.0
H4239 H 0.4067 0.00364 0.34782 0.0
H4240 H 0.41585 0.02078 0.37209 0.0
H4241 H 0.39049 0.98072 0.39805 0.0
H4242 H 0.38137 0.96331 0.37396 0.0
H4243 H 0.41546 0.97964 0.27377 0.0
H4244 H 0.39569 0.97413 0.29185 0.0
H4245 H 0.41701 0.95841 0.32366 0.0
H4246 H 0.43676 0.96378 0.30552 0.0
H4247 H 0.41024 0.98055 0.33703 0.0
H4248 H 0.38577 0.93177 0.30595 0.0
H4249 H 0.37653 0.91471 0.28165 0.0
H4250 H 0.3472 0.93202 0.27043 0.0
H4251 H 0.35644 0.94939 0.29456 0.0
C4252 C 0.33917 0.95005 0.36654 0.0
C4253 C 0.33903 0.96404 0.3683 0.0
C4254 C 0.34964 0.9491 0.35726 0.0
C4255 C 0.36023 0.9622 0.34984 0.0
C4256 C 0.35994 0.97607 0.35142 0.0
C4257 C 0.34943 0.97698 0.36052 0.0
C4258 C 0.3718 0.96165 0.34053 0.0
C4259 C 0.36697 0.95184 0.32679 0.0
C4260 C 0.38758 0.97185 0.34447 0.0
C4261 C 0.39328 0.98219 0.35906 0.0
C4262 C 0.40315 0.99847 0.35871 0.0
C4263 C 0.40832 0.00824 0.37244 0.0
C4264 C 0.40372 0.00185 0.3866 0.0
C4265 C 0.394 0.98566 0.38707 0.0
C4266 C 0.38882 0.97584 0.37338 0.0
C4267 C 0.41588 0.97499 0.28461 0.0
C4268 C 0.4276 0.97214 0.2883 0.0
C4269 C 0.40457 0.97176 0.29486 0.0
C4270 C 0.40487 0.96578 0.30902 0.0
C4271 C 0.41658 0.96296 0.31275 0.0
C4272 C 0.42778 0.96597 0.30239 0.0
C4273 C 0.3933 0.96315 0.32016 0.0
C4274 C 0.39814 0.97246 0.33422 0.0
C4275 C 0.37755 0.95247 0.31651 0.0
C4276 C 0.3719 0.94198 0.30202 0.0
C4277 C 0.37745 0.93205 0.29824 0.0
C4278 C 0.37219 0.9223 0.28451 0.0
C4279 C 0.36131 0.9223 0.27449 0.0
C4280 C 0.35564 0.93204 0.2782 0.0
C4281 C 0.36087 0.94183 0.29191 0.0
H4282 H 0.35725 0.91475 0.26386 0.0
H4283 H 0.40772 0.00943 0.39721 0.0
H4284 H 0.61243 0.96197 0.36215 0.0
H4285 H 0.59364 0.96163 0.3439 0.0
H4286 H 0.62724 0.97966 0.30978 0.0
H4287 H 0.64624 0.98105 0.32843 0.0
H4288 H 0.61474 0.99511 0.30961 0.0
H4289 H 0.5939 0.93991 0.30783 0.0
H4290 H 0.58413 0.91401 0.31787 0.0
H4291 H 0.54808 0.91704 0.33834 0.0
H4292 H 0.55774 0.94306 0.32859 0.0
H4293 H 0.55893 0.98231 0.24916 0.0
H4294 H 0.57658 0.9778 0.2646 0.0
H4295 H 0.55405 0.9781 0.30565 0.0
H4296 H 0.53668 0.98295 0.29036 0.0
H4297 H 0.56063 0.95219 0.30043 0.0
H4298 H 0.58407 0.00903 0.30242 0.0
H4299 H 0.59395 0.03401 0.29038 0.0
H4300 H 0.62564 0.02589 0.26661 0.0
H4301 H 0.61577 0.00073 0.27835 0.0
C4302 C 0.61568 0.96563 0.35067 0.0
C4303 C 0.63074 0.97156 0.34666 0.0
C4304 C 0.60492 0.96535 0.34018 0.0
C4305 C 0.60889 0.97046 0.32531 0.0
C4306 C 0.62384 0.97575 0.32116 0.0
C4307 C 0.63469 0.97647 0.33179 0.0
C4308 C 0.59794 0.97147 0.3145 0.0
C4309 C 0.60301 0.98553 0.30742 0.0
C4310 C 0.58249 0.95916 0.31169 0.0
C4311 C 0.57663 0.9435 0.31759 0.0
C4312 C 0.58395 0.93511 0.31457 0.0
C4313 C 0.57842 0.92039 0.32019 0.0
C4314 C 0.56551 0.9139 0.32877 0.0
C4315 C 0.55808 0.92209 0.33171 0.0
C4316 C 0.56357 0.93681 0.32612 0.0
C4317 C 0.55778 0.98137 0.26147 0.0
C4318 C 0.54661 0.98312 0.26865 0.0
C4319 C 0.5678 0.97879 0.27024 0.0
C4320 C 0.56656 0.97761 0.28623 0.0
C4321 C 0.55514 0.97893 0.29332 0.0
C4322 C 0.54534 0.98182 0.28463 0.0
C4323 C 0.57757 0.97569 0.29574 0.0
C4324 C 0.57246 0.96155 0.30257 0.0
C4325 C 0.59305 0.98775 0.29805 0.0
C4326 C 0.59906 0.00293 0.29111 0.0
C4327 C 0.59304 0.01251 0.29451 0.0
C4328 C 0.59866 0.02671 0.28777 0.0
C4329 C 0.61039 0.03151 0.2777 0.0
C4330 C 0.61654 0.02214 0.27439 0.0
C4331 C 0.61095 0.00792 0.28109 0.0
H4332 H 0.61473 0.04251 0.27249 0.0
H4333 H 0.56125 0.90251 0.33311 0.0
H4334 H 0.99765 0.66788 0.2959 0.0
H4335 H 0.99252 0.64627 0.27699 0.0
H4336 H 0.03426 0.64961 0.29328 0.0
H4337 H 0.03942 0.67108 0.31216 0.0
H4338 H 0.02911 0.64485 0.261 0.0
H4339 H 0.00184 0.62372 0.3072 0.0
H4340 H 0.98342 0.62058 0.32642 0.0
H4341 H 0.94763 0.60272 0.29036 0.0
H4342 H 0.96591 0.60596 0.2709 0.0
H4343 H 0.02483 0.57316 0.2501 0.0
H4344 H 0.0265 0.59747 0.25947 0.0
H4345 H 0.98048 0.57953 0.24089 0.0
H4346 H 0.9787 0.55497 0.23151 0.0
H4347 H 0.9846 0.59253 0.26944 0.0
H4348 H 0.01075 0.60872 0.22378 0.0
H4349 H 0.02897 0.61174 0.2044 0.0
H4350 H 0.06638 0.63897 0.23821 0.0
H4351 H 0.04838 0.63592 0.25787 0.0
C4352 C 0.00582 0.66413 0.29529 0.0
C4353 C 0.01887 0.67104 0.30557 0.0
C4354 C 0.00286 0.6518 0.28451 0.0
C4355 C 0.01297 0.64632 0.28384 0.0
C4356 C 0.02634 0.65371 0.29361 0.0
C4357 C 0.02923 0.66591 0.30445 0.0
C4358 C 0.00923 0.63216 0.27385 0.0
C4359 C 0.01939 0.63339 0.26279 0.0
C4360 C 0.99625 0.61733 0.27589 0.0
C4361 C 0.98526 0.61526 0.28759 0.0
C4362 C 0.99007 0.61924 0.30337 0.0
C4363 C 0.97965 0.61742 0.3143 0.0
C4364 C 0.96437 0.6115 0.30961 0.0
C4365 C 0.95947 0.60734 0.29397 0.0
C4366 C 0.96985 0.60916 0.28299 0.0
C4367 C 0.01513 0.57447 0.2478 0.0
C4368 C 0.00167 0.56222 0.23997 0.0
C4369 C 0.01611 0.58838 0.25313 0.0
C4370 C 0.00372 0.59044 0.25061 0.0
C4371 C 0.99021 0.57821 0.24287 0.0
C4372 C 0.98919 0.5642 0.23758 0.0
C4373 C 0.00479 0.60509 0.25688 0.0
C4374 C 0.99412 0.60399 0.26728 0.0
C4375 C 0.01726 0.62005 0.25414 0.0
C4376 C 0.02818 0.62202 0.24233 0.0
C4377 C 0.02285 0.61527 0.22712 0.0
C4378 C 0.03315 0.617 0.21607 0.0
C4379 C 0.04882 0.62553 0.22008 0.0
C4380 C 0.05423 0.63237 0.23513 0.0
C4381 C 0.04399 0.63067 0.24622 0.0
H4382 H 0.05677 0.62685 0.21151 0.0
H4383 H 0.95633 0.61011 0.31809 0.0
H4384 H 0.32366 0.34083 0.3321 0.0
H4385 H 0.34622 0.35482 0.31739 0.0
H4386 H 0.36511 0.39439 0.35157 0.0
H4387 H 0.34215 0.38069 0.36589 0.0
H4388 H 0.3717 0.40487 0.32493 0.0
H4389 H 0.37637 0.3664 0.35034 0.0
H4390 H 0.36842 0.34006 0.3583 0.0
H4391 H 0.36522 0.32328 0.31094 0.0
H4392 H 0.37294 0.34947 0.30267 0.0
H4393 H 0.44825 0.43617 0.30128 0.0
H4394 H 0.42639 0.42268 0.31736 0.0
H4395 H 0.39923 0.39109 0.27796 0.0
H4396 H 0.4209 0.40483 0.2618 0.0
H4397 H 0.39826 0.37727 0.30856 0.0
H4398 H 0.39288 0.41711 0.28421 0.0
H4399 H 0.4023 0.44427 0.27791 0.0
H4400 H 0.40896 0.45937 0.32625 0.0
H4401 H 0.39981 0.43231 0.33282 0.0
C4402 C 0.33257 0.35257 0.33638 0.0
C4403 C 0.33125 0.35965 0.35017 0.0
C4404 C 0.34552 0.36051 0.32804 0.0
C4405 C 0.35759 0.37549 0.33359 0.0
C4406 C 0.35601 0.38281 0.3471 0.0
C4407 C 0.3429 0.37498 0.35527 0.0
C4408 C 0.37189 0.3834 0.32541 0.0
C4409 C 0.37759 0.39887 0.32157 0.0
C4410 C 0.37963 0.37562 0.32094 0.0
C4411 C 0.37511 0.35987 0.32588 0.0
C4412 C 0.37388 0.35706 0.34161 0.0
C4413 C 0.36942 0.34216 0.34618 0.0
C4414 C 0.36628 0.32999 0.33513 0.0
C4415 C 0.36764 0.33271 0.31949 0.0
C4416 C 0.37207 0.34759 0.31485 0.0
C4417 C 0.43764 0.42623 0.29617 0.0
C4418 C 0.43613 0.42146 0.2804 0.0
C4419 C 0.42522 0.4186 0.3053 0.0
C4420 C 0.41127 0.40595 0.29878 0.0
C4421 C 0.40994 0.40081 0.28315 0.0
C4422 C 0.42225 0.40864 0.27396 0.0
C4423 C 0.3978 0.3985 0.30803 0.0
C4424 C 0.39233 0.38319 0.31206 0.0
C4425 C 0.39047 0.40651 0.31296 0.0
C4426 C 0.39584 0.42273 0.309 0.0
C4427 C 0.3965 0.42625 0.29349 0.0
C4428 C 0.40176 0.44162 0.28987 0.0
C4429 C 0.40627 0.45355 0.30167 0.0
C4430 C 0.40549 0.45012 0.31712 0.0
C4431 C 0.40026 0.43477 0.3208 0.0
H4432 H 0.41033 0.46544 0.29885 0.0
H4433 H 0.36282 0.31846 0.33868 0.0
H4434 H 0.32304 0.32582 0.40877 0.0
H4435 H 0.32811 0.30711 0.42013 0.0
H4436 H 0.2854 0.26875 0.39923 0.0
H4437 H 0.28019 0.28755 0.38762 0.0
H4438 H 0.29256 0.26575 0.43096 0.0
H4439 H 0.31504 0.27577 0.38208 0.0
H4440 H 0.33056 0.2924 0.36201 0.0
H4441 H 0.3704 0.3138 0.39347 0.0
H4442 H 0.35507 0.29748 0.41382 0.0
H4443 H 0.31439 0.211 0.44796 0.0
H4444 H 0.30554 0.22552 0.43364 0.0
H4445 H 0.34874 0.26835 0.44523 0.0
H4446 H 0.35767 0.25389 0.45952 0.0
H4447 H 0.33931 0.26674 0.41585 0.0
H4448 H 0.31735 0.25938 0.46514 0.0
H4449 H 0.30247 0.24404 0.48621 0.0
H4450 H 0.26243 0.21893 0.4551 0.0
H4451 H 0.27714 0.23398 0.43378 0.0
C4452 C 0.31461 0.31342 0.40668 0.0
C4453 C 0.30126 0.30815 0.39718 0.0
C4454 C 0.31756 0.30275 0.41316 0.0
C4455 C 0.30725 0.28658 0.4103 0.0
C4456 C 0.29353 0.28122 0.40148 0.0
C4457 C 0.29057 0.29194 0.39487 0.0
C4458 C 0.31127 0.27548 0.41617 0.0
C4459 C 0.30259 0.26569 0.42745 0.0
C4460 C 0.32457 0.27573 0.4118 0.0
C4461 C 0.33387 0.28547 0.39952 0.0
C4462 C 0.32709 0.28411 0.38476 0.0
C4463 C 0.33586 0.29347 0.37333 0.0
C4464 C 0.35145 0.30417 0.37647 0.0
C4465 C 0.35831 0.30551 0.39105 0.0
C4466 C 0.34959 0.29619 0.40254 0.0
C4467 C 0.322 0.22351 0.44744 0.0
C4468 C 0.33669 0.23133 0.45495 0.0
C4469 C 0.31693 0.23179 0.43925 0.0
C4470 C 0.3264 0.24806 0.43856 0.0
C4471 C 0.34124 0.2558 0.44562 0.0
C4472 C 0.34635 0.24752 0.45374 0.0
C4473 C 0.32074 0.25714 0.43085 0.0
C4474 C 0.32914 0.26659 0.41923 0.0
C4475 C 0.30727 0.25668 0.43501 0.0
C4476 C 0.29839 0.24767 0.44783 0.0
C4477 C 0.3054 0.2505 0.46277 0.0
C4478 C 0.29699 0.24187 0.47476 0.0
C4479 C 0.28152 0.23048 0.47199 0.0
C4480 C 0.27442 0.22773 0.45722 0.0
C4481 C 0.28279 0.23631 0.44518 0.0
H4482 H 0.27503 0.22382 0.48129 0.0
H4483 H 0.35822 0.3114 0.3676 0.0
H4484 H 0.70411 0.02156 0.39301 0.0
H4485 H 0.71915 0.04459 0.41106 0.0
H4486 H 0.67804 0.03721 0.43076 0.0
H4487 H 0.66276 0.01408 0.41242 0.0
H4488 H 0.69739 0.06786 0.42662 0.0
H4489 H 0.7004 0.02807 0.45042 0.0
H4490 H 0.70387 0.00552 0.45174 0.0
H4491 H 0.75035 0.03404 0.44008 0.0
H4492 H 0.74709 0.05669 0.43838 0.0
H4493 H 0.76642 0.11803 0.48925 0.0
H4494 H 0.74358 0.09323 0.47947 0.0
H4495 H 0.74585 0.1117 0.43523 0.0
H4496 H 0.76855 0.13646 0.44495 0.0
H4497 H 0.74144 0.07323 0.45761 0.0
H4498 H 0.71148 0.09529 0.41671 0.0
H4499 H 0.70665 0.11702 0.4166 0.0
H4500 H 0.71153 0.12267 0.46618 0.0
H4501 H 0.71616 0.10083 0.46661 0.0
C4502 C 0.69823 0.02479 0.40118 0.0
C4503 C 0.68226 0.01597 0.40136 0.0
C4504 C 0.70686 0.03794 0.41154 0.0
C4505 C 0.69973 0.04246 0.42242 0.0
C4506 C 0.68375 0.03385 0.42249 0.0
C4507 C 0.67506 0.02065 0.41205 0.0
C4508 C 0.70917 0.05631 0.43351 0.0
C4509 C 0.70695 0.06903 0.43352 0.0
C4510 C 0.72132 0.0576 0.4429 0.0
C4511 C 0.72347 0.04409 0.44422 0.0
C4512 C 0.71135 0.02952 0.44806 0.0
C4513 C 0.71327 0.01672 0.44887 0.0
C4514 C 0.72732 0.01835 0.44599 0.0
C4515 C 0.73948 0.0328 0.44232 0.0
C4516 C 0.7376 0.04563 0.44145 0.0
C4517 C 0.76194 0.11682 0.47749 0.0
C4518 C 0.76928 0.12917 0.46785 0.0
C4519 C 0.74888 0.10268 0.47193 0.0
C4520 C 0.74291 0.10064 0.45667 0.0
C4521 C 0.75002 0.1131 0.44716 0.0
C4522 C 0.76302 0.12726 0.45272 0.0
C4523 C 0.73013 0.08511 0.45015 0.0
C4524 C 0.73172 0.07203 0.45099 0.0
C4525 C 0.71722 0.08341 0.44185 0.0
C4526 C 0.71426 0.09646 0.44168 0.0
C4527 C 0.71143 0.1011 0.4276 0.0
C4528 C 0.70875 0.11345 0.42748 0.0
C4529 C 0.70881 0.12124 0.44137 0.0
C4530 C 0.71153 0.11666 0.45542 0.0
C4531 C 0.7142 0.10431 0.45561 0.0
H4532 H 0.70674 0.13081 0.44125 0.0
H4533 H 0.72879 0.00841 0.44661 0.0
H4534 H 0.98905 0.67339 0.36635 0.0
H4535 H 0.96701 0.66845 0.38048 0.0
H4536 H 0.97497 0.71396 0.37117 0.0
H4537 H 0.99723 0.71907 0.35696 0.0
H4538 H 0.96845 0.70701 0.40167 0.0
H4539 H 0.94714 0.68254 0.3508 0.0
H4540 H 0.94315 0.66538 0.3274 0.0
H4541 H 0.92471 0.62537 0.3542 0.0
H4542 H 0.92879 0.64233 0.37782 0.0
H4543 H 0.89745 0.69149 0.42731 0.0
H4544 H 0.91861 0.69803 0.41093 0.0
H4545 H 0.91182 0.65198 0.41463 0.0
H4546 H 0.89054 0.64533 0.43091 0.0
H4547 H 0.91752 0.66028 0.38582 0.0
H4548 H 0.94004 0.68411 0.43661 0.0
H4549 H 0.94449 0.70071 0.4606 0.0
H4550 H 0.96114 0.74123 0.43472 0.0
H4551 H 0.95657 0.72482 0.41053 0.0
C4552 C 0.98617 0.6824 0.36732 0.0
C4553 C 0.99484 0.6966 0.36047 0.0
C4554 C 0.97353 0.67952 0.37535 0.0
C4555 C 0.96925 0.69075 0.37667 0.0
C4556 C 0.97807 0.70512 0.3702 0.0
C4557 C 0.99075 0.70801 0.36208 0.0
C4558 C 0.95552 0.68735 0.38484 0.0
C4559 C 0.95725 0.69697 0.39807 0.0
C4560 C 0.94101 0.674 0.38032 0.0
C4561 C 0.93839 0.66373 0.3661 0.0
C4562 C 0.94233 0.6701 0.35173 0.0
C4563 C 0.94004 0.6604 0.33842 0.0
C4564 C 0.93371 0.6443 0.33932 0.0
C4565 C 0.92962 0.63785 0.35352 0.0
C4566 C 0.9319 0.6475 0.36687 0.0
C4567 C 0.90048 0.68277 0.42462 0.0
C4568 C 0.89243 0.66794 0.43048 0.0
C4569 C 0.91256 0.68651 0.41527 0.0
C4570 C 0.91696 0.67558 0.41177 0.0
C4571 C 0.90863 0.6606 0.4172 0.0
C4572 C 0.89647 0.6568 0.42647 0.0
C4573 C 0.93045 0.67988 0.40275 0.0
C4574 C 0.92868 0.67041 0.38937 0.0
C4575 C 0.94496 0.6933 0.40721 0.0
C4576 C 0.94781 0.70321 0.42174 0.0
C4577 C 0.94454 0.69654 0.43602 0.0
C4578 C 0.9471 0.70591 0.44965 0.0
C4579 C 0.95305 0.72201 0.44918 0.0
C4580 C 0.9565 0.72876 0.43507 0.0
C4581 C 0.95393 0.71943 0.42139 0.0
H4582 H 0.95503 0.72925 0.45975 0.0
H4583 H 0.93195 0.63682 0.329 0.0
H4584 H 0.35892 0.00106 0.71271 0.0
H4585 H 0.37721 0.00203 0.73185 0.0
H4586 H 0.40596 0.05202 0.72903 0.0
H4587 H 0.38788 0.05092 0.70914 0.0
H4588 H 0.42309 0.04043 0.73049 0.0
H4589 H 0.3832 0.03536 0.76067 0.0
H4590 H 0.35684 0.02456 0.76826 0.0
H4591 H 0.35268 0.98015 0.77405 0.0
H4592 H 0.37895 0.99061 0.76629 0.0
H4593 H 0.46445 0.04462 0.80175 0.0
H4594 H 0.4463 0.04736 0.78545 0.0
H4595 H 0.42594 0.99942 0.76671 0.0
H4596 H 0.44463 0.99679 0.782 0.0
H4597 H 0.40548 0.01302 0.77838 0.0
H4598 H 0.44547 0.01915 0.74453 0.0
H4599 H 0.47252 0.03169 0.73873 0.0
H4600 H 0.47685 0.07687 0.74218 0.0
H4601 H 0.44988 0.0646 0.7483 0.0
C4602 C 0.36911 0.01228 0.71619 0.0
C4603 C 0.37194 0.02594 0.70952 0.0
C4604 C 0.37954 0.01284 0.72724 0.0
C4605 C 0.39282 0.02716 0.73223 0.0
C4606 C 0.39575 0.04084 0.72546 0.0
C4607 C 0.38543 0.04022 0.71412 0.0
C4608 C 0.40376 0.02761 0.74417 0.0
C4609 C 0.41922 0.03467 0.74107 0.0
C4610 C 0.39882 0.02009 0.75804 0.0
C4611 C 0.38302 0.01375 0.76279 0.0
C4612 C 0.37663 0.02326 0.76347 0.0
C4613 C 0.36171 0.0172 0.76781 0.0
C4614 C 0.35308 0.00167 0.77161 0.0
C4615 C 0.35938 0.99218 0.7711 0.0
C4616 C 0.37429 0.99817 0.76675 0.0
C4617 C 0.45624 0.03466 0.79408 0.0
C4618 C 0.45618 0.0205 0.79319 0.0
C4619 C 0.44578 0.03624 0.7849 0.0
C4620 C 0.43486 0.02359 0.77493 0.0
C4621 C 0.43428 0.00927 0.77444 0.0
C4622 C 0.44494 0.00777 0.78332 0.0
C4623 C 0.42448 0.02547 0.7644 0.0
C4624 C 0.40922 0.0189 0.76784 0.0
C4625 C 0.42963 0.03367 0.75103 0.0
C4626 C 0.44573 0.04099 0.74706 0.0
C4627 C 0.45224 0.03178 0.7442 0.0
C4628 C 0.46754 0.03883 0.74083 0.0
C4629 C 0.47642 0.05507 0.74013 0.0
C4630 C 0.46998 0.06429 0.74275 0.0
C4631 C 0.45468 0.0573 0.74617 0.0
H4632 H 0.48827 0.06051 0.73753 0.0
H4633 H 0.34153 0.997 0.77497 0.0
H4634 H 0.96084 0.32513 0.75043 0.0
H4635 H 0.96502 0.34641 0.76898 0.0
H4636 H 0.0132 0.36326 0.77295 0.0
H4637 H 0.00882 0.34122 0.75506 0.0
H4638 H 0.00526 0.36828 0.79965 0.0
H4639 H 0.99765 0.3791 0.74847 0.0
H4640 H 0.98469 0.37396 0.72259 0.0
H4641 H 0.94541 0.37013 0.74299 0.0
H4642 H 0.95806 0.37504 0.76901 0.0
H4643 H 0.02387 0.45026 0.81308 0.0
H4644 H 0.02175 0.42594 0.80262 0.0
H4645 H 0.97614 0.3993 0.81769 0.0
H4646 H 0.97835 0.42342 0.82892 0.0
H4647 H 0.9838 0.39982 0.78217 0.0
H4648 H 0.99354 0.38947 0.83421 0.0
H4649 H 0.00871 0.39627 0.85902 0.0
H4650 H 0.04725 0.40255 0.83506 0.0
H4651 H 0.0323 0.39576 0.81009 0.0
C4652 C 0.97229 0.33326 0.7554 0.0
C4653 C 0.98455 0.3317 0.7512 0.0
C4654 C 0.97469 0.34547 0.76595 0.0
C4655 C 0.9895 0.35674 0.77201 0.0
C4656 C 0.00169 0.35478 0.76836 0.0
C4657 C 0.9992 0.34224 0.75811 0.0
C4658 C 0.99227 0.37095 0.7814 0.0
C4659 C 0.00067 0.37523 0.79574 0.0
C4660 C 0.98635 0.38012 0.77633 0.0
C4661 C 0.97875 0.3773 0.76069 0.0
C4662 C 0.98621 0.37707 0.74744 0.0
C4663 C 0.97893 0.37421 0.73274 0.0
C4664 C 0.96422 0.37168 0.73115 0.0
C4665 C 0.95679 0.37207 0.74424 0.0
C4666 C 0.96402 0.37491 0.75896 0.0
C4667 C 0.01357 0.43922 0.81466 0.0
C4668 C 0.00119 0.43884 0.82166 0.0
C4669 C 0.01238 0.42535 0.80864 0.0
C4670 C 0.9988 0.41093 0.80943 0.0
C4671 C 0.98671 0.41038 0.81703 0.0
C4672 C 0.98796 0.42419 0.82327 0.0
C4673 C 0.99643 0.39683 0.80042 0.0
C4674 C 0.98826 0.39273 0.78606 0.0
C4675 C 0.00287 0.38815 0.8053 0.0
C4676 C 0.01186 0.39228 0.82028 0.0
C4677 C 0.0053 0.39246 0.83422 0.0
C4678 C 0.01384 0.39627 0.84831 0.0
C4679 C 0.02896 0.39996 0.84861 0.0
C4680 C 0.03555 0.39973 0.83482 0.0
C4681 C 0.02703 0.39585 0.82069 0.0
H4682 H 0.03555 0.40292 0.85954 0.0
H4683 H 0.9586 0.36946 0.71976 0.0
H4684 H 0.66552 0.61781 0.6978 0.0
H4685 H 0.64334 0.6024 0.71271 0.0
H4686 H 0.65371 0.64445 0.74019 0.0
H4687 H 0.67593 0.65992 0.7254 0.0
H4688 H 0.64415 0.61895 0.75767 0.0
H4689 H 0.62795 0.63139 0.71063 0.0
H4690 H 0.62569 0.63214 0.68239 0.0
H4691 H 0.60219 0.58183 0.6766 0.0
H4692 H 0.60451 0.5808 0.70481 0.0
H4693 H 0.57328 0.59485 0.78821 0.0
H4694 H 0.59636 0.6087 0.77434 0.0
H4695 H 0.58159 0.56685 0.74426 0.0
H4696 H 0.55796 0.55317 0.75745 0.0
H4697 H 0.59374 0.59132 0.72818 0.0
H4698 H 0.60865 0.57855 0.7753 0.0
H4699 H 0.61058 0.57767 0.80354 0.0
H4700 H 0.63643 0.62802 0.80935 0.0
H4701 H 0.63446 0.62921 0.78115 0.0
C4702 C 0.66319 0.62373 0.70715 0.0
C4703 C 0.67234 0.64008 0.71034 0.0
C4704 C 0.65051 0.61493 0.71563 0.0
C4705 C 0.64679 0.62234 0.7274 0.0
C4706 C 0.65637 0.63853 0.73112 0.0
C4707 C 0.66902 0.64735 0.72263 0.0
C4708 C 0.63241 0.61343 0.73517 0.0
C4709 C 0.63311 0.613 0.75127 0.0
C4710 C 0.61805 0.60543 0.72674 0.0
C4711 C 0.61655 0.60603 0.7098 0.0
C4712 C 0.6224 0.62049 0.70332 0.0
C4713 C 0.6211 0.62097 0.68733 0.0
C4714 C 0.61384 0.60704 0.67771 0.0
C4715 C 0.60783 0.59261 0.68407 0.0
C4716 C 0.60913 0.59207 0.70005 0.0
C4717 C 0.57475 0.58865 0.77844 0.0
C4718 C 0.56374 0.57285 0.77398 0.0
C4719 C 0.58809 0.59654 0.77067 0.0
C4720 C 0.59088 0.58871 0.75849 0.0
C4721 C 0.57975 0.57308 0.75372 0.0
C4722 C 0.5663 0.56524 0.76136 0.0
C4723 C 0.60541 0.59681 0.75074 0.0
C4724 C 0.60476 0.59713 0.73462 0.0
C4725 C 0.6198 0.60464 0.75916 0.0
C4726 C 0.6213 0.60396 0.77611 0.0
C4727 C 0.61468 0.58943 0.7826 0.0
C4728 C 0.61578 0.58888 0.79861 0.0
C4729 C 0.62359 0.60278 0.80824 0.0
C4730 C 0.63037 0.61727 0.80188 0.0
C4731 C 0.62928 0.61789 0.78588 0.0
H4732 H 0.62441 0.60233 0.82062 0.0
H4733 H 0.61284 0.60743 0.66533 0.0
H4734 H 0.72241 0.71208 0.66648 0.0
H4735 H 0.71777 0.73066 0.65366 0.0
H4736 H 0.67004 0.69499 0.64588 0.0
H4737 H 0.6747 0.67639 0.65797 0.0
H4738 H 0.67866 0.70947 0.62149 0.0
H4739 H 0.68494 0.72599 0.67583 0.0
H4740 H 0.69839 0.73501 0.70171 0.0
H4741 H 0.73505 0.77584 0.68359 0.0
H4742 H 0.72189 0.76696 0.65756 0.0
H4743 H 0.6438 0.75424 0.6126 0.0
H4744 H 0.65289 0.73886 0.62481 0.0
H4745 H 0.69916 0.77341 0.61614 0.0
H4746 H 0.69021 0.7885 0.60317 0.0
H4747 H 0.69369 0.76135 0.64761 0.0
H4748 H 0.68518 0.74463 0.59318 0.0
H4749 H 0.66995 0.73544 0.56824 0.0
H4750 H 0.63547 0.69423 0.58791 0.0
H4751 H 0.65038 0.70332 0.61305 0.0
C4752 C 0.71097 0.70824 0.66194 0.0
C4753 C 0.69893 0.69279 0.66322 0.0
C4754 C 0.7083 0.71887 0.6547 0.0
C4755 C 0.6935 0.7143 0.64894 0.0
C4756 C 0.68156 0.69882 0.65014 0.0
C4757 C 0.68425 0.68819 0.65711 0.0
C4758 C 0.69019 0.72547 0.64172 0.0
C4759 C 0.68188 0.72076 0.6273 0.0
C4760 C 0.69461 0.74037 0.64909 0.0
C4761 C 0.70252 0.74572 0.66473 0.0
C4762 C 0.69593 0.73683 0.67735 0.0
C4763 C 0.70348 0.74193 0.69205 0.0
C4764 C 0.71759 0.75596 0.69429 0.0
C4765 C 0.72414 0.76495 0.68184 0.0
C4766 C 0.71663 0.7599 0.66711 0.0
C4767 C 0.6559 0.75857 0.61318 0.0
C4768 C 0.66622 0.77262 0.60678 0.0
C4769 C 0.66108 0.74982 0.62029 0.0
C4770 C 0.67667 0.75502 0.62131 0.0
C4771 C 0.68709 0.76929 0.61553 0.0
C4772 C 0.68191 0.77793 0.60819 0.0
C4773 C 0.68195 0.74511 0.62769 0.0
C4774 C 0.69063 0.7501 0.64184 0.0
C4775 C 0.67769 0.73036 0.62022 0.0
C4776 C 0.66883 0.72473 0.60503 0.0
C4777 C 0.67429 0.73367 0.59222 0.0
C4778 C 0.66573 0.72847 0.57804 0.0
C4779 C 0.65173 0.71428 0.5765 0.0
C4780 C 0.6463 0.70523 0.58912 0.0
C4781 C 0.65481 0.7104 0.60334 0.0
H4782 H 0.64511 0.71027 0.56552 0.0
H4783 H 0.72342 0.75989 0.70567 0.0
H4784 H 0.34093 0.98909 0.64005 0.0
H4785 H 0.32582 0.96373 0.62452 0.0
H4786 H 0.28663 0.95305 0.65009 0.0
H4787 H 0.30133 0.97825 0.66522 0.0
H4788 H 0.29622 0.9291 0.64733 0.0
H4789 H 0.28546 0.96355 0.61826 0.0
H4790 H 0.29338 0.98643 0.60316 0.0
H4791 H 0.31243 0.96861 0.57043 0.0
H4792 H 0.30484 0.94574 0.58552 0.0
H4793 H 0.22437 0.87085 0.61828 0.0
H4794 H 0.24777 0.89478 0.62804 0.0
H4795 H 0.26884 0.89436 0.58589 0.0
H4796 H 0.24507 0.87055 0.57573 0.0
H4797 H 0.27445 0.92311 0.5939 0.0
H4798 H 0.28029 0.88589 0.61935 0.0
H4799 H 0.27292 0.86288 0.63407 0.0
H4800 H 0.26479 0.88531 0.67302 0.0
H4801 H 0.27188 0.90837 0.65847 0.0
C4802 C 0.32906 0.98134 0.64224 0.0
C4803 C 0.32229 0.98561 0.65383 0.0
C4804 C 0.32049 0.96692 0.6334 0.0
C4805 C 0.30519 0.95658 0.63628 0.0
C4806 C 0.29846 0.96089 0.64778 0.0
C4807 C 0.30687 0.97532 0.65636 0.0
C4808 C 0.29593 0.94106 0.62763 0.0
C4809 C 0.29149 0.92771 0.63562 0.0
C4810 C 0.29029 0.93935 0.61217 0.0
C4811 C 0.29481 0.95308 0.60314 0.0
C4812 C 0.29151 0.96461 0.60795 0.0
C4813 C 0.29589 0.97755 0.59937 0.0
C4814 C 0.30346 0.97901 0.58588 0.0
C4815 C 0.30661 0.96749 0.58091 0.0
C4816 C 0.30228 0.95454 0.58948 0.0
C4817 C 0.23395 0.87585 0.61104 0.0
C4818 C 0.23285 0.86885 0.59621 0.0
C4819 C 0.24741 0.88943 0.61672 0.0
C4820 C 0.26016 0.89623 0.6078 0.0
C4821 C 0.25918 0.88924 0.593 0.0
C4822 C 0.24564 0.8756 0.58727 0.0
C4823 C 0.27412 0.91106 0.61387 0.0
C4824 C 0.27949 0.92432 0.60542 0.0
C4825 C 0.28078 0.91267 0.62888 0.0
C4826 C 0.27658 0.89886 0.63777 0.0
C4827 C 0.27684 0.88589 0.63102 0.0
C4828 C 0.27273 0.87283 0.63934 0.0
C4829 C 0.26838 0.87263 0.65446 0.0
C4830 C 0.26817 0.88549 0.66131 0.0
C4831 C 0.27227 0.89858 0.65304 0.0
H4832 H 0.2652 0.86251 0.66088 0.0
H4833 H 0.30684 0.98903 0.57924 0.0
H4834 H 0.0066 0.32023 0.68397 0.0
H4835 H 0.02763 0.32372 0.6688 0.0
H4836 H 0.02881 0.28704 0.69153 0.0
H4837 H 0.00761 0.28341 0.7068 0.0
H4838 H 0.05751 0.31453 0.69091 0.0
H4839 H 0.01535 0.27942 0.65545 0.0
H4840 H 0.99107 0.26976 0.6402 0.0
H4841 H 0.01166 0.31157 0.616 0.0
H4842 H 0.03601 0.32161 0.63127 0.0
H4843 H 0.11152 0.31442 0.64119 0.0
H4844 H 0.08913 0.30675 0.65598 0.0
H4845 H 0.08039 0.3385 0.63246 0.0
H4846 H 0.10235 0.34572 0.61717 0.0
H4847 H 0.0548 0.31107 0.6336 0.0
H4848 H 0.09602 0.34723 0.66997 0.0
H4849 H 0.12034 0.35781 0.68546 0.0
H4850 H 0.10166 0.31512 0.70814 0.0
H4851 H 0.07729 0.30419 0.69262 0.0
C4852 C 0.01124 0.31281 0.68567 0.0
C4853 C 0.00547 0.30154 0.69658 0.0
C4854 C 0.02322 0.31478 0.67695 0.0
C4855 C 0.0297 0.30557 0.67899 0.0
C4856 C 0.02392 0.29423 0.68979 0.0
C4857 C 0.01179 0.29213 0.69844 0.0
C4858 C 0.0429 0.30832 0.67019 0.0
C4859 C 0.05688 0.31349 0.67838 0.0
C4860 C 0.0421 0.30734 0.65386 0.0
C4861 C 0.02748 0.30132 0.6446 0.0
C4862 C 0.01467 0.28662 0.64697 0.0
C4863 C 0.0009 0.28106 0.6383 0.0
C4864 C 0.99982 0.29006 0.62716 0.0
C4865 C 0.01251 0.30462 0.62464 0.0
C4866 C 0.02631 0.31024 0.63329 0.0
C4867 C 0.10479 0.31972 0.63912 0.0
C4868 C 0.10874 0.3307 0.62801 0.0
C4869 C 0.09208 0.31542 0.64768 0.0
C4870 C 0.08315 0.32215 0.64542 0.0
C4871 C 0.08712 0.33318 0.63441 0.0
C4872 C 0.09978 0.33742 0.6258 0.0
C4873 C 0.06951 0.31751 0.65431 0.0
C4874 C 0.05543 0.31199 0.64614 0.0
C4875 C 0.07025 0.31828 0.67066 0.0
C4876 C 0.08489 0.32483 0.68001 0.0
C4877 C 0.09714 0.34004 0.67816 0.0
C4878 C 0.11093 0.34611 0.68696 0.0
C4879 C 0.11256 0.33712 0.69774 0.0
C4880 C 0.10039 0.32206 0.69976 0.0
C4881 C 0.08659 0.31592 0.69098 0.0
H4882 H 0.12324 0.34184 0.70455 0.0
H4883 H 0.98914 0.28574 0.62046 0.0
H4884 H 0.32172 0.3364 0.67097 0.0
H4885 H 0.30373 0.33822 0.65368 0.0
H4886 H 0.26707 0.29419 0.66726 0.0
H4887 H 0.28516 0.29223 0.68476 0.0
H4888 H 0.26616 0.29782 0.63484 0.0
H4889 H 0.27009 0.3257 0.68316 0.0
H4890 H 0.28361 0.34464 0.70577 0.0
H4891 H 0.30423 0.38229 0.67607 0.0
H4892 H 0.291 0.36353 0.65324 0.0
H4893 H 0.20722 0.31011 0.60701 0.0
H4894 H 0.22398 0.30433 0.62195 0.0
H4895 H 0.26236 0.35029 0.61543 0.0
H4896 H 0.24561 0.35616 0.60047 0.0
H4897 H 0.26133 0.34439 0.64492 0.0
H4898 H 0.25801 0.31684 0.59657 0.0
H4899 H 0.24497 0.29811 0.57371 0.0
H4900 H 0.22358 0.26014 0.60296 0.0
H4901 H 0.23634 0.27868 0.62602 0.0
C4902 C 0.30986 0.327 0.67024 0.0
C4903 C 0.30483 0.31422 0.67935 0.0
C4904 C 0.29959 0.32809 0.66034 0.0
C4905 C 0.28406 0.31645 0.65936 0.0
C4906 C 0.27903 0.30331 0.66792 0.0
C4907 C 0.28935 0.30223 0.67792 0.0
C4908 C 0.27313 0.31857 0.64989 0.0
C4909 C 0.26488 0.30784 0.63715 0.0
C4910 C 0.27177 0.33185 0.65277 0.0
C4911 C 0.27965 0.34318 0.66648 0.0
C4912 C 0.2776 0.338 0.68144 0.0
C4913 C 0.28519 0.3487 0.69429 0.0
C4914 C 0.2948 0.36465 0.69235 0.0
C4915 C 0.2968 0.36993 0.67755 0.0
C4916 C 0.28924 0.35927 0.66465 0.0
C4917 C 0.21929 0.31887 0.60848 0.0
C4918 C 0.22511 0.33358 0.60252 0.0
C4919 C 0.22885 0.31556 0.61705 0.0
C4920 C 0.24445 0.32683 0.61972 0.0
C4921 C 0.25035 0.34143 0.61354 0.0
C4922 C 0.24078 0.34477 0.60501 0.0
C4923 C 0.25447 0.32376 0.62965 0.0
C4924 C 0.26253 0.33431 0.64257 0.0
C4925 C 0.25567 0.31035 0.62688 0.0
C4926 C 0.24801 0.29917 0.61303 0.0
C4927 C 0.25043 0.30451 0.59814 0.0
C4928 C 0.2431 0.29393 0.58514 0.0
C4929 C 0.23342 0.27795 0.58689 0.0
C4930 C 0.23107 0.27252 0.60163 0.0
C4931 C 0.23836 0.28306 0.61467 0.0
H4932 H 0.22776 0.26978 0.57681 0.0
H4933 H 0.30067 0.37292 0.70232 0.0
H4934 H 0.65547 0.99738 0.63332 0.0
H4935 H 0.64415 0.97174 0.61856 0.0
H4936 H 0.68571 0.97178 0.62753 0.0
H4937 H 0.69691 0.99709 0.64246 0.0
H4938 H 0.65113 0.95948 0.59337 0.0
H4939 H 0.67744 0.93665 0.63725 0.0
H4940 H 0.68528 0.94087 0.66506 0.0
H4941 H 0.65362 0.9557 0.67445 0.0
H4942 H 0.64543 0.95135 0.64674 0.0
H4943 H 0.65655 0.89621 0.56198 0.0
H4944 H 0.65872 0.92014 0.57336 0.0
H4945 H 0.62821 0.894 0.60801 0.0
H4946 H 0.62683 0.87017 0.59731 0.0
H4947 H 0.65156 0.91779 0.62143 0.0
H4948 H 0.61832 0.91135 0.57905 0.0
H4949 H 0.60838 0.90643 0.55186 0.0
H4950 H 0.64905 0.94808 0.54048 0.0
H4951 H 0.65935 0.95315 0.56755 0.0
C4952 C 0.66223 0.99198 0.63196 0.0
C4953 C 0.67698 0.9991 0.6392 0.0
C4954 C 0.65577 0.97737 0.62352 0.0
C4955 C 0.664 0.96974 0.62223 0.0
C4956 C 0.67906 0.97732 0.62867 0.0
C4957 C 0.68545 0.99181 0.63716 0.0
C4958 C 0.65674 0.95351 0.61498 0.0
C4959 C 0.65111 0.9503 0.59947 0.0
C4960 C 0.65625 0.94142 0.62315 0.0
C4961 C 0.6609 0.94377 0.63989 0.0
C4962 C 0.67208 0.94072 0.64526 0.0
C4963 C 0.6766 0.94315 0.661 0.0
C4964 C 0.66998 0.94858 0.6715 0.0
C4965 C 0.65878 0.95154 0.66629 0.0
C4966 C 0.6542 0.9491 0.65057 0.0
C4967 C 0.65028 0.89552 0.57201 0.0
C4968 C 0.6417 0.88128 0.57885 0.0
C4969 C 0.65132 0.9092 0.57837 0.0
C4970 C 0.64353 0.9089 0.5915 0.0
C4971 C 0.63432 0.89454 0.59787 0.0
C4972 C 0.63344 0.88088 0.59165 0.0
C4973 C 0.64643 0.92379 0.59954 0.0
C4974 C 0.65128 0.9268 0.61528 0.0
C4975 C 0.64582 0.93551 0.59165 0.0
C4976 C 0.63965 0.93258 0.57534 0.0
C4977 C 0.6252 0.91941 0.57073 0.0
C4978 C 0.61949 0.91661 0.55534 0.0
C4979 C 0.62809 0.92693 0.54444 0.0
C4980 C 0.6424 0.9401 0.54893 0.0
C4981 C 0.64817 0.94296 0.56431 0.0
H4982 H 0.62365 0.92473 0.53253 0.0
H4983 H 0.67351 0.95048 0.68368 0.0
H4984 H 0.99954 0.7132 0.69272 0.0
H4985 H 0.02204 0.72802 0.67799 0.0
H4986 H 0.0157 0.68469 0.65712 0.0
H4987 H 0.99323 0.6698 0.67177 0.0
H4988 H 0.0454 0.70552 0.66853 0.0
H4989 H 0.00669 0.70575 0.63637 0.0
H4990 H 0.98563 0.71023 0.63077 0.0
H4991 H 0.01519 0.75931 0.6446 0.0
H4992 H 0.03638 0.75508 0.65052 0.0
H4993 H 0.09718 0.73631 0.60934 0.0
H4994 H 0.07491 0.72176 0.62438 0.0
H4995 H 0.07909 0.76524 0.64164 0.0
H4996 H 0.10125 0.77982 0.6265 0.0
H4997 H 0.05045 0.74439 0.63232 0.0
H4998 H 0.08916 0.74451 0.66455 0.0
H4999 H 0.11028 0.74029 0.67073 0.0
H5000 H 0.08103 0.69103 0.65749 0.0
H5001 H 0.05978 0.695 0.65103 0.0
C5002 C 0.00289 0.70684 0.68491 0.0
C5003 C 0.99466 0.69036 0.68339 0.0
C5004 C 0.01571 0.71531 0.6765 0.0
C5005 C 0.02048 0.70742 0.66646 0.0
C5006 C 0.0122 0.69097 0.66484 0.0
C5007 C 0.99934 0.6825 0.67316 0.0
C5008 C 0.03432 0.71631 0.65788 0.0
C5009 C 0.04646 0.71388 0.66045 0.0
C5010 C 0.03578 0.72748 0.64768 0.0
C5011 C 0.02308 0.73007 0.64404 0.0
C5012 C 0.00867 0.71748 0.63834 0.0
C5013 C 0.99671 0.71998 0.63509 0.0
C5014 C 0.99906 0.73504 0.63737 0.0
C5015 C 0.01338 0.74765 0.64286 0.0
C5016 C 0.02537 0.74521 0.64616 0.0
C5017 C 0.09347 0.74276 0.61652 0.0
C5018 C 0.10093 0.75918 0.61676 0.0
C5019 C 0.08074 0.73445 0.62509 0.0
C5020 C 0.0754 0.74242 0.63422 0.0
C5021 C 0.08298 0.75884 0.63463 0.0
C5022 C 0.09562 0.76715 0.62599 0.0
C5023 C 0.06161 0.73363 0.64296 0.0
C5024 C 0.04945 0.73606 0.64041 0.0
C5025 C 0.06016 0.72251 0.65325 0.0
C5026 C 0.07292 0.72008 0.65716 0.0
C5027 C 0.08726 0.7328 0.66284 0.0
C5028 C 0.09925 0.73045 0.66642 0.0
C5029 C 0.09701 0.71541 0.66447 0.0
C5030 C 0.08276 0.70268 0.65898 0.0
C5031 C 0.07073 0.70497 0.65537 0.0
H5032 H 0.10631 0.71361 0.66725 0.0
H5033 H 0.98979 0.73695 0.63484 0.0
H5034 H 0.93937 0.61746 0.71839 0.0
H5035 H 0.9418 0.59689 0.72989 0.0
H5036 H 0.9853 0.63216 0.7523 0.0
H5037 H 0.983 0.65263 0.74094 0.0
H5038 H 0.98651 0.60837 0.73641 0.0
H5039 H 0.95444 0.61419 0.77273 0.0
H5040 H 0.93145 0.61419 0.78019 0.0
H5041 H 0.90329 0.56608 0.76215 0.0
H5042 H 0.92613 0.56587 0.75438 0.0
H5043 H 0.00484 0.57224 0.79289 0.0
H5044 H 0.99841 0.58839 0.7782 0.0
H5045 H 0.95461 0.54755 0.76336 0.0
H5046 H 0.96095 0.53132 0.77827 0.0
H5047 H 0.95133 0.5713 0.77237 0.0
H5048 H 0.98321 0.56441 0.73821 0.0
H5049 H 0.00596 0.56409 0.73043 0.0
H5050 H 0.03405 0.61352 0.7434 0.0
H5051 H 0.0115 0.61411 0.75147 0.0
C5052 C 0.94935 0.62081 0.72592 0.0
C5053 C 0.96101 0.63665 0.72872 0.0
C5054 C 0.95072 0.60906 0.73247 0.0
C5055 C 0.96376 0.61302 0.7419 0.0
C5056 C 0.9752 0.62885 0.74498 0.0
C5057 C 0.97382 0.64054 0.73852 0.0
C5058 C 0.96594 0.6008 0.74821 0.0
C5059 C 0.97888 0.60032 0.74436 0.0
C5060 C 0.95568 0.58995 0.75811 0.0
C5061 C 0.94197 0.59007 0.76281 0.0
C5062 C 0.94334 0.60366 0.77022 0.0
C5063 C 0.93034 0.60369 0.77453 0.0
C5064 C 0.91591 0.59016 0.7716 0.0
C5065 C 0.91447 0.57656 0.76438 0.0
C5066 C 0.92743 0.57648 0.76003 0.0
C5067 C 0.99394 0.56665 0.78629 0.0
C5068 C 0.98344 0.5505 0.78663 0.0
C5069 C 0.99027 0.57589 0.77791 0.0
C5070 C 0.9761 0.56915 0.7695 0.0
C5071 C 0.96561 0.553 0.76974 0.0
C5072 C 0.96924 0.54375 0.77825 0.0
C5073 C 0.97216 0.57915 0.76092 0.0
C5074 C 0.95887 0.57919 0.76427 0.0
C5075 C 0.98206 0.58955 0.75046 0.0
C5076 C 0.99566 0.58928 0.74554 0.0
C5077 C 0.99425 0.5752 0.7395 0.0
C5078 C 0.00711 0.57497 0.73503 0.0
C5079 C 0.02144 0.58877 0.73645 0.0
C5080 C 0.02294 0.60284 0.74231 0.0
C5081 C 0.01012 0.60313 0.74682 0.0
H5082 H 0.03139 0.58857 0.73298 0.0
H5083 H 0.90586 0.5902 0.77495 0.0
H5084 H 0.37514 0.3565 0.72986 0.0
H5085 H 0.38916 0.37896 0.74881 0.0
H5086 H 0.34699 0.36859 0.76822 0.0
H5087 H 0.33277 0.34622 0.74889 0.0
H5088 H 0.36404 0.39882 0.76517 0.0
H5089 H 0.37212 0.36141 0.78762 0.0
H5090 H 0.37848 0.3408 0.78839 0.0
H5091 H 0.42402 0.3733 0.77635 0.0
H5092 H 0.41788 0.39406 0.77526 0.0
H5093 H 0.43216 0.45245 0.8276 0.0
H5094 H 0.41042 0.42688 0.81771 0.0
H5095 H 0.41046 0.44531 0.77394 0.0
H5096 H 0.43212 0.47082 0.78374 0.0
H5097 H 0.41033 0.40839 0.79518 0.0
H5098 H 0.37563 0.42641 0.75589 0.0
H5099 H 0.36808 0.44617 0.75669 0.0
H5100 H 0.37334 0.45085 0.80626 0.0
H5101 H 0.3807 0.43095 0.80578 0.0
C5102 C 0.36884 0.35892 0.73822 0.0
C5103 C 0.35287 0.3496 0.73793 0.0
C5104 C 0.37688 0.37172 0.74911 0.0
C5105 C 0.36915 0.37531 0.7601 0.0
C5106 C 0.35318 0.36599 0.75988 0.0
C5107 C 0.34509 0.35321 0.74887 0.0
C5108 C 0.37784 0.38922 0.77135 0.0
C5109 C 0.37408 0.40088 0.77185 0.0
C5110 C 0.39067 0.39167 0.78045 0.0
C5111 C 0.39451 0.37929 0.7813 0.0
C5112 C 0.38347 0.36415 0.78506 0.0
C5113 C 0.38704 0.35244 0.78556 0.0
C5114 C 0.40164 0.35574 0.78241 0.0
C5115 C 0.41271 0.37077 0.7788 0.0
C5116 C 0.4092 0.38252 0.77826 0.0
C5117 C 0.4274 0.45107 0.81592 0.0
C5118 C 0.43387 0.46361 0.80641 0.0
C5119 C 0.41497 0.43649 0.81032 0.0
C5120 C 0.40875 0.4342 0.79513 0.0
C5121 C 0.41486 0.44687 0.7858 0.0
C5122 C 0.42725 0.46146 0.79141 0.0
C5123 C 0.39693 0.4183 0.78843 0.0
C5124 C 0.40012 0.40625 0.78876 0.0
C5125 C 0.38341 0.41537 0.78041 0.0
C5126 C 0.37882 0.42724 0.78078 0.0
C5127 C 0.37509 0.43158 0.76697 0.0
C5128 C 0.37086 0.44282 0.76737 0.0
C5129 C 0.37026 0.44978 0.78151 0.0
C5130 C 0.37386 0.44549 0.7953 0.0
C5131 C 0.37808 0.43424 0.79497 0.0
H5132 H 0.36699 0.45849 0.78179 0.0
H5133 H 0.40437 0.34665 0.78279 0.0
H5134 H 0.66404 0.01616 0.70549 0.0
H5135 H 0.64487 0.01507 0.72217 0.0
H5136 H 0.65005 0.05676 0.70403 0.0
H5137 H 0.6695 0.05806 0.68735 0.0
H5138 H 0.64734 0.05689 0.73546 0.0
H5139 H 0.62056 0.02157 0.69065 0.0
H5140 H 0.61434 -0.00012 0.67113 0.0
H5141 H 0.60124 0.96786 0.70663 0.0
H5142 H 0.60759 0.98941 0.72641 0.0
H5143 H 0.57818 0.04569 0.76392 0.0
H5144 H 0.59837 0.04946 0.74714 0.0
H5145 H 0.59437 0.00672 0.76089 0.0
H5146 H 0.57412 0.00284 0.77758 0.0
H5147 H 0.59628 0.00805 0.73061 0.0
H5148 H 0.62384 0.0433 0.7755 0.0
H5149 H 0.63032 0.0649 0.79524 0.0
H5150 H 0.64204 0.09692 0.75988 0.0
H5151 H 0.63543 0.07545 0.7399 0.0
C5152 C 0.66121 0.02518 0.70511 0.0
C5153 C 0.66819 0.03713 0.695 0.0
C5154 C 0.6502 0.02451 0.71462 0.0
C5155 C 0.64584 0.03566 0.71413 0.0
C5156 C 0.65321 0.04799 0.70452 0.0
C5157 C 0.6643 0.0487 0.69499 0.0
C5158 C 0.63323 0.03408 0.72332 0.0
C5159 C 0.6361 0.04632 0.73425 0.0
C5160 C 0.61865 0.02016 0.72192 0.0
C5161 C 0.61467 0.00713 0.71002 0.0
C5162 C 0.61645 0.00992 0.69431 0.0
C5163 C 0.61289 0.99765 0.68319 0.0
C5164 C 0.60743 0.98251 0.68764 0.0
C5165 C 0.60548 0.9796 0.7032 0.0
C5166 C 0.60904 0.99183 0.71437 0.0
C5167 C 0.58167 0.03715 0.76342 0.0
C5168 C 0.57458 0.02398 0.77209 0.0
C5169 C 0.59322 0.03932 0.75384 0.0
C5170 C 0.59802 0.02847 0.7529 0.0
C5171 C 0.59084 0.01523 0.76142 0.0
C5172 C 0.57924 0.01301 0.77092 0.0
C5173 C 0.61042 0.03077 0.74294 0.0
C5174 C 0.60749 0.01866 0.7318 0.0
C5175 C 0.62493 0.0448 0.74419 0.0
C5176 C 0.62899 0.05773 0.7562 0.0
C5177 C 0.62769 0.05492 0.77193 0.0
C5178 C 0.6314 0.06714 0.78316 0.0
C5179 C 0.63655 0.08226 0.77882 0.0
C5180 C 0.63803 0.0852 0.76323 0.0
C5181 C 0.63432 0.07301 0.75194 0.0
H5182 H 0.63941 0.09171 0.78753 0.0
H5183 H 0.60468 0.97302 0.67901 0.0
loop_
_geom_bond_atom_site_label_1
_geom_bond_atom_site_label_2
_geom_bond_distance
_geom_bond_site_symmetry_2
_ccdc_geom_bond_type
Co0 O1 2.216 . S
Co0 O2 2.091 . S
Co0 O4 2.004 . S
Co0 O10 2.021 . S
Co0 O12 2.146 1_455 S
Co0 O13 2.244 1_455 S
O1 Co0 2.216 . S
O1 C8 1.247 . S
O2 Co0 2.091 . S
O2 C8 1.261 . S
C3 O12 1.335 . S
C3 O13 1.272 . S
O4 Co0 2.004 . S
O4 C9 1.259 1_554 S
Co5 O6 2.061 . S
Co5 O11 2.052 . S
Co5 O13 2.135 . S
O6 Co5 2.061 . S
O6 C9 1.235 1_654 S
C7 O10 1.238 1_655 S
C7 O11 1.241 . S
C8 O1 1.247 . S
C8 O2 1.261 . S
C9 O4 1.259 1_556 S
C9 O6 1.235 1_456 S
O10 Co0 2.021 . S
O10 C7 1.238 1_455 S
O11 Co5 2.052 . S
O11 C7 1.241 . S
O12 Co0 2.146 1_655 S
O12 C3 1.335 . S
O13 Co0 2.244 1_655 S
O13 C3 1.272 . S
O13 Co5 2.135 . S
Co14 O15 2.216 . S
Co14 O16 2.091 . S
Co14 O18 2.004 . S
Co14 O24 2.021 . S
Co14 O26 2.137 . S
Co14 O27 2.244 . S
O15 Co14 2.216 . S
O15 C22 1.247 . S
O16 Co14 2.091 . S
O16 C22 1.261 . S
C17 O26 1.247 . S
C17 O27 1.272 . S
O18 Co14 2.004 . S
O18 C23 1.259 . S
Co19 O20 2.061 . S
Co19 O25 2.052 . S
Co19 O27 2.135 . S
O20 Co19 2.061 . S
O20 C23 1.235 . S
C21 O24 1.238 . S
C21 O25 1.241 . S
C22 O15 1.247 . S
C22 O16 1.261 . S
C23 O18 1.259 . S
C23 O20 1.235 . S
O24 Co14 2.021 . S
O24 C21 1.238 . S
O25 Co19 2.052 . S
O25 C21 1.241 . S
O26 Co14 2.137 . S
O26 C17 1.247 . S
O27 Co14 2.244 . S
O27 C17 1.272 . S
O27 Co19 2.135 . S
Co28 O29 2.216 . S
Co28 O30 2.091 . S
Co28 O32 2.004 . S
Co28 O38 2.021 . S
Co28 O40 2.137 . S
Co28 O41 2.244 1_545 S
O29 Co28 2.216 . S
O29 C36 1.247 . S
O30 Co28 2.091 . S
O30 C36 1.261 . S
C31 O40 1.247 1_565 S
C31 O41 1.272 . S
O32 Co28 2.004 . S
O32 C37 1.259 . S
Co33 O34 2.061 . S
Co33 O39 2.052 . S
Co33 O41 2.135 . S
O34 Co33 2.061 . S
O34 C37 1.235 1_565 S
C35 O38 1.238 1_565 S
C35 O39 1.241 . S
C36 O29 1.247 . S
C36 O30 1.261 . S
C37 O32 1.259 . S
C37 O34 1.235 1_545 S
O38 Co28 2.021 . S
O38 C35 1.238 1_545 S
O39 Co33 2.052 . S
O39 C35 1.241 . S
O40 Co28 2.137 . S
O40 C31 1.247 1_545 S
O41 Co28 2.244 1_565 S
O41 C31 1.272 . S
O41 Co33 2.135 . S
Co42 O43 2.216 . S
Co42 O44 2.091 . S
Co42 O46 2.004 . S
Co42 O52 2.021 . S
Co42 O54 2.137 1_655 S
Co42 O55 2.244 1_655 S
O43 Co42 2.216 . S
O43 C50 1.247 . S
O44 Co42 2.091 . S
O44 C50 1.261 . S
C45 O54 1.247 . S
C45 O55 1.272 . S
O46 Co42 2.004 . S
O46 C51 1.297 . S
Co47 O48 2.061 . S
Co47 O53 2.052 . S
Co47 O55 2.135 . S
O48 Co47 2.061 . S
O48 C51 1.195 1_455 S
C49 O52 1.238 1_455 S
C49 O53 1.241 . S
C50 O43 1.247 . S
C50 O44 1.261 . S
C51 O46 1.297 . S
C51 O48 1.195 1_655 S
O52 Co42 2.021 . S
O52 C49 1.238 1_655 S
O53 Co47 2.052 . S
O53 C49 1.241 . S
O54 Co42 2.137 1_455 S
O54 C45 1.247 . S
O55 Co42 2.244 1_455 S
O55 C45 1.272 . S
O55 Co47 2.135 . S
Co56 O57 2.216 . S
Co56 O58 2.091 . S
Co56 O60 2.004 1_554 S
Co56 O66 2.021 . S
Co56 O68 2.137 1_554 S
Co56 O69 2.244 1_554 S
O57 Co56 2.216 . S
O57 C64 1.247 . S
O58 Co56 2.091 . S
O58 C64 1.261 . S
C59 O68 1.247 . S
C59 O69 1.272 . S
O60 Co56 2.004 1_556 S
O60 C65 1.259 . S
Co61 O62 2.061 . S
Co61 O67 2.052 1_556 S
Co61 O69 2.135 . S
O62 Co61 2.061 . S
O62 C65 1.235 . S
C63 O66 1.238 . S
C63 O67 1.241 . S
C64 O57 1.247 . S
C64 O58 1.261 . S
C65 O60 1.259 . S
C65 O62 1.235 . S
O66 Co56 2.021 . S
O66 C63 1.238 . S
O67 Co61 2.052 1_554 S
O67 C63 1.241 . S
O68 Co56 2.137 1_556 S
O68 C59 1.247 . S
O69 Co56 2.244 1_556 S
O69 C59 1.272 . S
O69 Co61 2.135 . S
Co70 O71 2.216 . S
Co70 O72 2.091 . S
Co70 O74 2.004 . S
Co70 O80 2.021 . S
Co70 O82 2.137 1_565 S
Co70 O83 2.244 1_565 S
O71 Co70 2.216 . S
O71 C78 1.247 . S
O72 Co70 2.091 . S
O72 C78 1.261 . S
C73 O82 1.247 . S
C73 O83 1.272 . S
O74 Co70 2.004 . S
O74 C79 1.259 . S
Co75 O76 2.061 . S
Co75 O81 2.052 . S
Co75 O83 2.135 . S
O76 Co75 2.061 . S
O76 C79 1.235 1_545 S
C77 O80 1.238 1_545 S
C77 O81 1.241 . S
C78 O71 1.247 . S
C78 O72 1.261 . S
C79 O74 1.259 . S
C79 O76 1.235 1_565 S
O80 Co70 2.021 . S
O80 C77 1.238 1_565 S
O81 Co75 2.052 . S
O81 C77 1.241 . S
O82 Co70 2.137 1_545 S
O82 C73 1.247 . S
O83 Co70 2.244 1_545 S
O83 C73 1.272 . S
O83 Co75 2.135 . S
Co84 O85 2.216 . S
Co84 O86 2.091 . S
Co84 O88 2.004 . S
Co84 O94 2.021 . S
Co84 O96 2.137 . S
Co84 O97 2.244 . S
O85 Co84 2.216 . S
O85 C92 1.247 . S
O86 Co84 2.091 . S
O86 C92 1.261 . S
C87 O96 1.247 . S
C87 O97 1.272 . S
O88 Co84 2.004 . S
O88 C93 1.259 . S
Co89 O90 2.061 . S
Co89 O95 2.052 . S
Co89 O97 2.135 . S
O90 Co89 2.061 . S
O90 C93 1.235 . S
C91 O94 1.238 . S
C91 O95 1.241 . S
C92 O85 1.247 . S
C92 O86 1.261 . S
C93 O88 1.259 . S
C93 O90 1.235 . S
O94 Co84 2.021 . S
O94 C91 1.238 . S
O95 Co89 2.052 . S
O95 C91 1.241 . S
O96 Co84 2.137 . S
O96 C87 1.247 . S
O97 Co84 2.244 . S
O97 C87 1.272 . S
O97 Co89 2.135 . S
Co98 O99 2.216 . S
Co98 O100 2.091 . S
Co98 O102 2.004 . S
Co98 O108 2.021 . S
Co98 O110 2.137 . S
Co98 O111 2.244 . S
O99 Co98 2.216 . S
O99 C106 1.247 . S
O100 Co98 2.091 . S
O100 C106 1.261 . S
C101 O110 1.247 . S
C101 O111 1.272 . S
O102 Co98 2.004 . S
O102 C107 1.259 . S
Co103 O104 2.061 . S
Co103 O109 2.052 . S
Co103 O111 2.135 . S
O104 Co103 2.061 . S
O104 C107 1.235 . S
C105 O108 1.238 . S
C105 O109 1.241 . S
C106 O99 1.247 . S
C106 O100 1.261 . S
C107 O102 1.259 . S
C107 O104 1.235 . S
O108 Co98 2.021 . S
O108 C105 1.238 . S
O109 Co103 2.052 . S
O109 C105 1.241 . S
O110 Co98 2.137 . S
O110 C101 1.247 . S
O111 Co98 2.244 . S
O111 C101 1.272 . S
O111 Co103 2.135 . S
Co112 O113 2.216 . S
Co112 O114 2.091 . S
Co112 O116 2.004 . S
Co112 O122 2.021 . S
Co112 O124 2.137 . S
Co112 O125 2.244 . S
O113 Co112 2.216 . S
O113 C120 1.247 . S
O114 Co112 2.091 . S
O114 C120 1.261 . S
C115 O124 1.247 . S
C115 O125 1.272 . S
O116 Co112 2.004 . S
O116 C121 1.259 . S
Co117 O118 2.061 . S
Co117 O123 2.052 . S
Co117 O125 2.135 . S
O118 Co117 2.061 . S
O118 C121 1.235 . S
C119 O122 1.238 . S
C119 O123 1.241 . S
C120 O113 1.247 . S
C120 O114 1.261 . S
C121 O116 1.259 . S
C121 O118 1.235 . S
O122 Co112 2.021 . S
O122 C119 1.238 . S
O123 Co117 2.052 . S
O123 C119 1.241 . S
O124 Co112 2.137 . S
O124 C115 1.247 . S
O125 Co112 2.244 . S
O125 C115 1.272 . S
O125 Co117 2.135 . S
Co126 O127 2.216 . S
Co126 O128 2.091 . S
Co126 O130 2.004 . S
Co126 O136 2.021 . S
Co126 O138 2.137 . S
Co126 O139 2.244 . S
O127 Co126 2.216 . S
O127 C134 1.247 . S
O128 Co126 2.091 . S
O128 C134 1.261 . S
C129 O138 1.247 . S
C129 O139 1.272 . S
O130 Co126 2.004 . S
O130 C135 1.259 . S
Co131 O132 2.061 . S
Co131 O137 2.052 . S
Co131 O139 2.135 . S
O132 Co131 2.061 . S
O132 C135 1.235 . S
C133 O136 1.238 . S
C133 O137 1.241 . S
C134 O127 1.247 . S
C134 O128 1.261 . S
C135 O130 1.259 . S
C135 O132 1.235 . S
O136 Co126 2.021 . S
O136 C133 1.238 . S
O137 Co131 2.052 . S
O137 C133 1.241 . S
O138 Co126 2.137 . S
O138 C129 1.247 . S
O139 Co126 2.244 . S
O139 C129 1.272 . S
O139 Co131 2.135 . S
Co140 O141 2.216 . S
Co140 O142 2.091 . S
Co140 O144 2.004 . S
Co140 O150 2.021 . S
Co140 O152 2.137 . S
Co140 O153 2.244 . S
O141 Co140 2.216 . S
O141 C148 1.247 . S
O142 Co140 2.091 . S
O142 C148 1.261 . S
C143 O152 1.247 . S
C143 O153 1.272 . S
O144 Co140 2.004 . S
O144 C149 1.259 . S
Co145 O146 2.061 . S
Co145 O151 2.052 . S
Co145 O153 2.135 . S
O146 Co145 2.061 . S
O146 C149 1.235 . S
C147 O150 1.238 . S
C147 O151 1.241 . S
C148 O141 1.247 . S
C148 O142 1.261 . S
C149 O144 1.259 . S
C149 O146 1.235 . S
O150 Co140 2.021 . S
O150 C147 1.238 . S
O151 Co145 2.052 . S
O151 C147 1.241 . S
O152 Co140 2.137 . S
O152 C143 1.247 . S
O153 Co140 2.244 . S
O153 C143 1.272 . S
O153 Co145 2.135 . S
Co154 O155 2.216 . S
Co154 O156 2.091 . S
Co154 O158 2.004 . S
Co154 O164 2.021 . S
Co154 O166 2.137 . S
Co154 O167 2.244 . S
O155 Co154 2.216 . S
O155 C162 1.247 . S
O156 Co154 2.091 . S
O156 C162 1.261 . S
C157 O166 1.247 . S
C157 O167 1.272 . S
O158 Co154 2.004 . S
O158 C163 1.259 . S
Co159 O160 2.061 . S
Co159 O165 2.052 . S
Co159 O167 2.135 . S
O160 Co159 2.061 . S
O160 C163 1.235 . S
C161 O164 1.238 . S
C161 O165 1.241 . S
C162 O155 1.247 . S
C162 O156 1.261 . S
C163 O158 1.259 . S
C163 O160 1.235 . S
O164 Co154 2.021 . S
O164 C161 1.238 . S
O165 Co159 2.052 . S
O165 C161 1.241 . S
O166 Co154 2.137 . S
O166 C157 1.247 . S
O167 Co154 2.244 . S
O167 C157 1.272 . S
O167 Co159 2.135 . S
Co168 O169 2.216 . S
Co168 O170 2.091 . S
Co168 O172 2.004 . S
Co168 O178 2.021 . S
Co168 O180 2.137 . S
Co168 O181 2.244 . S
O169 Co168 2.216 . S
O169 C176 1.247 . S
O170 Co168 2.091 . S
O170 C176 1.261 . S
C171 O180 1.247 . S
C171 O181 1.272 . S
O172 Co168 2.004 . S
O172 C177 1.259 . S
Co173 O174 2.061 . S
Co173 O179 2.052 . S
Co173 O181 2.135 . S
O174 Co173 2.061 . S
O174 C177 1.235 . S
C175 O178 1.238 . S
C175 O179 1.241 . S
C176 O169 1.247 . S
C176 O170 1.261 . S
C177 O172 1.259 . S
C177 O174 1.235 . S
O178 Co168 2.021 . S
O178 C175 1.238 . S
O179 Co173 2.052 . S
O179 C175 1.241 . S
O180 Co168 2.137 . S
O180 C171 1.247 . S
O181 Co168 2.244 . S
O181 C171 1.272 . S
O181 Co173 2.135 . S
Co182 O183 2.216 . S
Co182 O184 2.091 . S
Co182 O186 2.004 . S
Co182 O192 2.021 . S
Co182 O194 2.137 . S
Co182 O195 2.244 . S
O183 Co182 2.216 . S
O183 C190 1.247 . S
O184 Co182 2.091 . S
O184 C190 1.261 . S
C185 O194 1.247 . S
C185 O195 1.272 . S
O186 Co182 2.004 . S
O186 C191 1.259 . S
Co187 O188 2.061 . S
Co187 O193 2.052 . S
Co187 O195 2.135 . S
O188 Co187 2.061 . S
O188 C191 1.235 . S
C189 O192 1.238 . S
C189 O193 1.241 . S
C190 O183 1.247 . S
C190 O184 1.261 . S
C191 O186 1.259 . S
C191 O188 1.235 . S
O192 Co182 2.021 . S
O192 C189 1.238 . S
O193 Co187 2.052 . S
O193 C189 1.241 . S
O194 Co182 2.137 . S
O194 C185 1.247 . S
O195 Co182 2.244 . S
O195 C185 1.272 . S
O195 Co187 2.135 . S
Co196 O197 2.216 . S
Co196 O198 2.091 . S
Co196 O200 2.004 . S
Co196 O206 2.021 . S
Co196 O208 2.137 . S
Co196 O209 2.244 . S
O197 Co196 2.216 . S
O197 C204 1.247 . S
O198 Co196 2.091 . S
O198 C204 1.261 . S
C199 O208 1.247 . S
C199 O209 1.272 . S
O200 Co196 2.004 . S
O200 C205 1.259 . S
Co201 O202 2.061 . S
Co201 O207 2.052 . S
Co201 O209 2.135 . S
O202 Co201 2.061 . S
O202 C205 1.235 . S
C203 O206 1.238 . S
C203 O207 1.241 . S
C204 O197 1.247 . S
C204 O198 1.261 . S
C205 O200 1.259 . S
C205 O202 1.235 . S
O206 Co196 2.021 . S
O206 C203 1.238 . S
O207 Co201 2.052 . S
O207 C203 1.241 . S
O208 Co196 2.137 . S
O208 C199 1.247 . S
O209 Co196 2.244 . S
O209 C199 1.272 . S
O209 Co201 2.135 . S
Co210 O211 2.216 . S
Co210 O212 2.091 . S
Co210 O214 2.004 . S
Co210 O220 2.021 . S
Co210 O222 2.137 . S
Co210 O223 2.244 . S
O211 Co210 2.216 . S
O211 C218 1.247 . S
O212 Co210 2.091 . S
O212 C218 1.261 . S
C213 O222 1.247 . S
C213 O223 1.272 . S
O214 Co210 2.004 . S
O214 C219 1.259 . S
Co215 O216 2.061 . S
Co215 O221 2.052 . S
Co215 O223 2.135 . S
O216 Co215 2.061 . S
O216 C219 1.235 . S
C217 O220 1.238 . S
C217 O221 1.241 . S
C218 O211 1.247 . S
C218 O212 1.261 . S
C219 O214 1.259 . S
C219 O216 1.235 . S
O220 Co210 2.021 . S
O220 C217 1.238 . S
O221 Co215 2.052 . S
O221 C217 1.241 . S
O222 Co210 2.137 . S
O222 C213 1.247 . S
O223 Co210 2.244 . S
O223 C213 1.272 . S
O223 Co215 2.135 . S
Co224 O225 2.216 . S
Co224 O226 2.091 . S
Co224 O228 2.004 . S
Co224 O234 2.021 . S
Co224 O236 2.137 . S
Co224 O237 2.244 . S
O225 Co224 2.216 . S
O225 C232 1.247 . S
O226 Co224 2.091 . S
O226 C232 1.261 . S
C227 O236 1.247 . S
C227 O237 1.272 . S
O228 Co224 2.004 . S
O228 C233 1.259 . S
Co229 O230 2.061 . S
Co229 O235 2.052 . S
Co229 O237 2.135 . S
O230 Co229 2.061 . S
O230 C233 1.235 . S
C231 O234 1.238 . S
C231 O235 1.241 . S
C232 O225 1.247 . S
C232 O226 1.261 . S
C233 O228 1.259 . S
C233 O230 1.235 . S
O234 Co224 2.021 . S
O234 C231 1.238 . S
O235 Co229 2.052 . S
O235 C231 1.241 . S
O236 Co224 2.137 . S
O236 C227 1.247 . S
O237 Co224 2.244 . S
O237 C227 1.272 . S
O237 Co229 2.135 . S
Co238 O239 2.216 . S
Co238 O240 2.091 . S
Co238 O242 2.004 . S
Co238 O248 2.021 . S
Co238 O250 2.137 . S
Co238 O251 2.244 . S
O239 Co238 2.216 . S
O239 C246 1.247 . S
O240 Co238 2.091 . S
O240 C246 1.261 . S
C241 O250 1.247 . S
C241 O251 1.272 . S
O242 Co238 2.004 . S
O242 C247 1.259 . S
Co243 O244 2.061 . S
Co243 O249 2.052 . S
Co243 O251 2.135 . S
O244 Co243 2.061 . S
O244 C247 1.235 . S
C245 O248 1.238 . S
C245 O249 1.241 . S
C246 O239 1.247 . S
C246 O240 1.261 . S
C247 O242 1.259 . S
C247 O244 1.235 . S
O248 Co238 2.021 . S
O248 C245 1.238 . S
O249 Co243 2.052 . S
O249 C245 1.241 . S
O250 Co238 2.137 . S
O250 C241 1.247 . S
O251 Co238 2.244 . S
O251 C241 1.272 . S
O251 Co243 2.135 . S
H252 O278 0.856 . S
H253 O281 0.854 . S
H254 C289 0.930 . S
H255 C290 0.930 . S
H256 C292 0.930 . S
H257 C293 0.930 . S
H258 C295 0.931 . S
H259 C296 0.930 . S
H260 C298 0.930 . S
H261 C299 0.929 . S
H262 C301 0.930 . S
H263 C302 0.931 . S
H264 C304 0.930 . S
H265 C305 0.929 . S
H266 C307 0.931 . S
H267 C308 0.930 . S
H268 C310 0.930 . S
H269 C311 0.932 . S
H270 C313 0.930 . S
H271 C314 0.929 . S
H272 C316 0.931 . S
H273 C317 0.930 . S
H274 C319 0.929 . S
H275 C320 0.931 . S
H276 C322 0.930 . S
H277 C323 0.929 . S
O278 H252 0.856 . S
O278 C324 1.300 . S
O279 C324 1.209 . S
O280 C325 1.199 . S
O281 H253 0.854 . S
O281 C325 1.297 . S
C282 C283 1.404 . S
C282 C287 1.397 . S
C282 C288 1.492 . S
C283 C282 1.404 . S
C283 C284 1.396 . S
C283 C294 1.492 . S
C284 C283 1.396 . S
C284 C285 1.397 . S
C284 C300 1.509 . S
C285 C284 1.397 . S
C285 C286 1.412 . S
C285 C306 1.485 . S
C286 C285 1.412 . S
C286 C287 1.388 . S
C286 C312 1.490 . S
C287 C282 1.397 . S
C287 C286 1.388 . S
C287 C318 1.519 . S
C288 C282 1.492 . S
C288 C289 1.363 . S
C288 C293 1.390 . S
C289 H254 0.930 . S
C289 C288 1.363 . S
C289 C290 1.372 . S
C290 H255 0.930 . S
C290 C289 1.372 . S
C290 C291 1.383 . S
C291 C290 1.383 . S
C291 C292 1.395 . S
C292 H256 0.930 . S
C292 C291 1.395 . S
C292 C293 1.362 . S
C293 H257 0.930 . S
C293 C288 1.390 . S
C293 C292 1.362 . S
C294 C283 1.492 . S
C294 C295 1.377 . S
C294 C299 1.397 . S
C295 H258 0.931 . S
C295 C294 1.377 . S
C295 C296 1.376 . S
C296 H259 0.930 . S
C296 C295 1.376 . S
C296 C297 1.376 . S
C297 C296 1.376 . S
C297 C298 1.378 . S
C297 C324 1.486 . S
C298 H260 0.930 . S
C298 C297 1.378 . S
C298 C299 1.376 . S
C299 H261 0.929 . S
C299 C294 1.397 . S
C299 C298 1.376 . S
C300 C284 1.509 . S
C300 C301 1.391 . S
C300 C305 1.386 . S
C301 H262 0.930 . S
C301 C300 1.391 . S
C301 C302 1.375 . S
C302 H263 0.931 . S
C302 C301 1.375 . S
C302 C303 1.375 . S
C303 C302 1.375 . S
C303 C304 1.361 . S
C304 H264 0.930 . S
C304 C303 1.361 . S
C304 C305 1.399 . S
C305 H265 0.929 . S
C305 C300 1.386 . S
C305 C304 1.399 . S
C306 C285 1.485 . S
C306 C307 1.394 . S
C306 C311 1.360 . S
C307 H266 0.931 . S
C307 C306 1.394 . S
C307 C308 1.372 . S
C308 H267 0.930 . S
C308 C307 1.372 . S
C308 C309 1.397 . S
C309 C308 1.397 . S
C309 C310 1.390 . S
C309 C325 1.476 . S
C310 H268 0.930 . S
C310 C309 1.390 . S
C310 C311 1.366 . S
C311 H269 0.932 . S
C311 C306 1.360 . S
C311 C310 1.366 . S
C312 C286 1.490 . S
C312 C313 1.380 . S
C312 C317 1.386 . S
C313 H270 0.930 . S
C313 C312 1.380 . S
C313 C314 1.381 . S
C314 H271 0.929 . S
C314 C313 1.381 . S
C314 C315 1.371 . S
C315 C314 1.371 . S
C315 C316 1.380 . S
C316 H272 0.931 . S
C316 C315 1.380 . S
C316 C317 1.387 . S
C317 H273 0.930 . S
C317 C312 1.386 . S
C317 C316 1.387 . S
C318 C287 1.519 . S
C318 C319 1.377 . S
C318 C323 1.361 . S
C319 H274 0.929 . S
C319 C318 1.377 . S
C319 C320 1.386 . S
C320 H275 0.931 . S
C320 C319 1.386 . S
C320 C321 1.363 . S
C321 C320 1.363 . S
C321 C322 1.385 . S
C322 H276 0.930 . S
C322 C321 1.385 . S
C322 C323 1.396 . S
C323 H277 0.929 . S
C323 C318 1.361 . S
C323 C322 1.396 . S
C324 O278 1.300 . S
C324 O279 1.209 . S
C324 C297 1.486 . S
C325 O280 1.199 . S
C325 O281 1.297 . S
C325 C309 1.476 . S
H326 O352 0.856 . S
H327 O355 0.854 . S
H328 C363 0.930 . S
H329 C364 0.930 . S
H330 C366 0.930 . S
H331 C367 0.930 . S
H332 C369 0.931 . S
H333 C370 0.930 . S
H334 C372 0.930 . S
H335 C373 0.929 . S
H336 C375 0.930 . S
H337 C376 0.931 . S
H338 C378 0.930 . S
H339 C379 0.929 . S
H340 C381 0.931 . S
H341 C382 0.930 . S
H342 C384 0.930 . S
H343 C385 0.932 . S
H344 C387 0.930 . S
H345 C388 0.929 . S
H346 C390 0.931 . S
H347 C391 0.930 . S
H348 C393 0.929 . S
H349 C394 0.931 . S
H350 C396 0.930 . S
H351 C397 0.929 . S
O352 H326 0.856 . S
O352 C398 1.300 . S
O353 C398 1.209 . S
O354 C399 1.199 . S
O355 H327 0.854 . S
O355 C399 1.297 . S
C356 C357 1.404 . S
C356 C361 1.397 . S
C356 C362 1.492 . S
C357 C356 1.404 . S
C357 C358 1.396 . S
C357 C368 1.492 . S
C358 C357 1.396 . S
C358 C359 1.397 . S
C358 C374 1.509 . S
C359 C358 1.397 . S
C359 C360 1.412 . S
C359 C380 1.485 . S
C360 C359 1.412 . S
C360 C361 1.388 . S
C360 C386 1.490 . S
C361 C356 1.397 . S
C361 C360 1.388 . S
C361 C392 1.519 . S
C362 C356 1.492 . S
C362 C363 1.363 . S
C362 C367 1.390 . S
C363 H328 0.930 . S
C363 C362 1.363 . S
C363 C364 1.372 . S
C364 H329 0.930 . S
C364 C363 1.372 . S
C364 C365 1.383 . S
C365 C364 1.383 . S
C365 C366 1.395 . S
C366 H330 0.930 . S
C366 C365 1.395 . S
C366 C367 1.362 . S
C367 H331 0.930 . S
C367 C362 1.390 . S
C367 C366 1.362 . S
C368 C357 1.492 . S
C368 C369 1.377 . S
C368 C373 1.397 . S
C369 H332 0.931 . S
C369 C368 1.377 . S
C369 C370 1.376 . S
C370 H333 0.930 . S
C370 C369 1.376 . S
C370 C371 1.376 . S
C371 C370 1.376 . S
C371 C372 1.378 . S
C371 C398 1.486 . S
C372 H334 0.930 . S
C372 C371 1.378 . S
C372 C373 1.376 . S
C373 H335 0.929 . S
C373 C368 1.397 . S
C373 C372 1.376 . S
C374 C358 1.509 . S
C374 C375 1.391 . S
C374 C379 1.386 . S
C375 H336 0.930 . S
C375 C374 1.391 . S
C375 C376 1.375 . S
C376 H337 0.931 . S
C376 C375 1.375 . S
C376 C377 1.375 . S
C377 C376 1.375 . S
C377 C378 1.361 . S
C378 H338 0.930 . S
C378 C377 1.361 . S
C378 C379 1.399 . S
C379 H339 0.929 . S
C379 C374 1.386 . S
C379 C378 1.399 . S
C380 C359 1.485 . S
C380 C381 1.394 . S
C380 C385 1.360 . S
C381 H340 0.931 . S
C381 C380 1.394 . S
C381 C382 1.372 . S
C382 H341 0.930 . S
C382 C381 1.372 . S
C382 C383 1.397 . S
C383 C382 1.397 . S
C383 C384 1.390 . S
C383 C399 1.476 . S
C384 H342 0.930 . S
C384 C383 1.390 . S
C384 C385 1.366 . S
C385 H343 0.932 . S
C385 C380 1.360 . S
C385 C384 1.366 . S
C386 C360 1.490 . S
C386 C387 1.380 . S
C386 C391 1.386 . S
C387 H344 0.930 . S
C387 C386 1.380 . S
C387 C388 1.381 . S
C388 H345 0.929 . S
C388 C387 1.381 . S
C388 C389 1.371 . S
C389 C388 1.371 . S
C389 C390 1.380 . S
C390 H346 0.931 . S
C390 C389 1.380 . S
C390 C391 1.387 . S
C391 H347 0.930 . S
C391 C386 1.386 . S
C391 C390 1.387 . S
C392 C361 1.519 . S
C392 C393 1.377 . S
C392 C397 1.361 . S
C393 H348 0.929 . S
C393 C392 1.377 . S
C393 C394 1.386 . S
C394 H349 0.931 . S
C394 C393 1.386 . S
C394 C395 1.363 . S
C395 C394 1.363 . S
C395 C396 1.385 . S
C396 H350 0.930 . S
C396 C395 1.385 . S
C396 C397 1.396 . S
C397 H351 0.929 . S
C397 C392 1.361 . S
C397 C396 1.396 . S
C398 O352 1.300 . S
C398 O353 1.209 . S
C398 C371 1.486 . S
C399 O354 1.199 . S
C399 O355 1.297 . S
C399 C383 1.476 . S
H400 O426 0.856 . S
H401 O429 0.854 . S
H402 C437 0.930 . S
H403 C438 0.930 . S
H404 C440 0.930 . S
H405 C441 0.930 . S
H406 C443 0.931 . S
H407 C444 0.930 . S
H408 C446 0.930 . S
H409 C447 0.929 . S
H410 C449 0.930 . S
H411 C450 0.931 . S
H412 C452 0.930 . S
H413 C453 0.929 . S
H414 C455 0.931 . S
H415 C456 0.930 . S
H416 C458 0.930 . S
H417 C459 0.932 . S
H418 C461 0.930 . S
H419 C462 0.929 . S
H420 C464 0.931 . S
H421 C465 0.930 . S
H422 C467 0.929 . S
H423 C468 0.931 . S
H424 C470 0.930 . S
H425 C471 0.929 . S
O426 H400 0.856 . S
O426 C472 1.300 . S
O427 C472 1.209 . S
O428 C473 1.199 . S
O429 H401 0.854 . S
O429 C473 1.297 . S
C430 C431 1.404 . S
C430 C435 1.397 . S
C430 C436 1.492 . S
C431 C430 1.404 . S
C431 C432 1.396 . S
C431 C442 1.492 . S
C432 C431 1.396 . S
C432 C433 1.397 . S
C432 C448 1.509 . S
C433 C432 1.397 . S
C433 C434 1.412 . S
C433 C454 1.485 . S
C434 C433 1.412 . S
C434 C435 1.388 . S
C434 C460 1.490 . S
C435 C430 1.397 . S
C435 C434 1.388 . S
C435 C466 1.519 . S
C436 C430 1.492 . S
C436 C437 1.363 . S
C436 C441 1.390 . S
C437 H402 0.930 . S
C437 C436 1.363 . S
C437 C438 1.372 . S
C438 H403 0.930 . S
C438 C437 1.372 . S
C438 C439 1.383 . S
C439 C438 1.383 . S
C439 C440 1.395 . S
C440 H404 0.930 . S
C440 C439 1.395 . S
C440 C441 1.362 . S
C441 H405 0.930 . S
C441 C436 1.390 . S
C441 C440 1.362 . S
C442 C431 1.492 . S
C442 C443 1.377 . S
C442 C447 1.397 . S
C443 H406 0.931 . S
C443 C442 1.377 . S
C443 C444 1.376 . S
C444 H407 0.930 . S
C444 C443 1.376 . S
C444 C445 1.376 . S
C445 C444 1.376 . S
C445 C446 1.378 . S
C445 C472 1.486 . S
C446 H408 0.930 . S
C446 C445 1.378 . S
C446 C447 1.376 . S
C447 H409 0.929 . S
C447 C442 1.397 . S
C447 C446 1.376 . S
C448 C432 1.509 . S
C448 C449 1.391 . S
C448 C453 1.386 . S
C449 H410 0.930 . S
C449 C448 1.391 . S
C449 C450 1.375 . S
C450 H411 0.931 . S
C450 C449 1.375 . S
C450 C451 1.375 . S
C451 C450 1.375 . S
C451 C452 1.361 . S
C452 H412 0.930 . S
C452 C451 1.361 . S
C452 C453 1.399 . S
C453 H413 0.929 . S
C453 C448 1.386 . S
C453 C452 1.399 . S
C454 C433 1.485 . S
C454 C455 1.394 . S
C454 C459 1.360 . S
C455 H414 0.931 . S
C455 C454 1.394 . S
C455 C456 1.372 . S
C456 H415 0.930 . S
C456 C455 1.372 . S
C456 C457 1.397 . S
C457 C456 1.397 . S
C457 C458 1.390 . S
C457 C473 1.476 . S
C458 H416 0.930 . S
C458 C457 1.390 . S
C458 C459 1.366 . S
C459 H417 0.932 . S
C459 C454 1.360 . S
C459 C458 1.366 . S
C460 C434 1.490 . S
C460 C461 1.380 . S
C460 C465 1.386 . S
C461 H418 0.930 . S
C461 C460 1.380 . S
C461 C462 1.381 . S
C462 H419 0.929 . S
C462 C461 1.381 . S
C462 C463 1.371 . S
C463 C462 1.371 . S
C463 C464 1.380 . S
C464 H420 0.931 . S
C464 C463 1.380 . S
C464 C465 1.387 . S
C465 H421 0.930 . S
C465 C460 1.386 . S
C465 C464 1.387 . S
C466 C435 1.519 . S
C466 C467 1.377 . S
C466 C471 1.361 . S
C467 H422 0.929 . S
C467 C466 1.377 . S
C467 C468 1.386 . S
C468 H423 0.931 . S
C468 C467 1.386 . S
C468 C469 1.363 . S
C469 C468 1.363 . S
C469 C470 1.385 . S
C470 H424 0.930 . S
C470 C469 1.385 . S
C470 C471 1.396 . S
C471 H425 0.929 . S
C471 C466 1.361 . S
C471 C470 1.396 . S
C472 O426 1.300 . S
C472 O427 1.209 . S
C472 C445 1.486 . S
C473 O428 1.199 . S
C473 O429 1.297 . S
C473 C457 1.476 . S
H474 O500 0.856 . S
H475 O503 0.854 . S
H476 C511 0.930 . S
H477 C512 0.930 . S
H478 C514 0.930 . S
H479 C515 0.930 . S
H480 C517 0.931 . S
H481 C518 0.930 . S
H482 C520 0.930 . S
H483 C521 0.929 . S
H484 C523 0.930 . S
H485 C524 0.931 . S
H486 C526 0.930 . S
H487 C527 0.929 . S
H488 C529 0.931 . S
H489 C530 0.930 . S
H490 C532 0.930 . S
H491 C533 0.932 . S
H492 C535 0.930 . S
H493 C536 0.929 . S
H494 C538 0.931 . S
H495 C539 0.930 . S
H496 C541 0.929 . S
H497 C542 0.931 . S
H498 C544 0.930 . S
H499 C545 0.929 . S
O500 H474 0.856 . S
O500 C546 1.300 . S
O501 C546 1.209 . S
O502 C547 1.199 . S
O503 H475 0.854 . S
O503 C547 1.297 . S
C504 C505 1.404 . S
C504 C509 1.397 . S
C504 C510 1.492 . S
C505 C504 1.404 . S
C505 C506 1.396 . S
C505 C516 1.492 . S
C506 C505 1.396 . S
C506 C507 1.397 . S
C506 C522 1.509 . S
C507 C506 1.397 . S
C507 C508 1.412 . S
C507 C528 1.485 . S
C508 C507 1.412 . S
C508 C509 1.388 . S
C508 C534 1.490 . S
C509 C504 1.397 . S
C509 C508 1.388 . S
C509 C540 1.519 . S
C510 C504 1.492 . S
C510 C511 1.363 . S
C510 C515 1.390 . S
C511 H476 0.930 . S
C511 C510 1.363 . S
C511 C512 1.372 . S
C512 H477 0.930 . S
C512 C511 1.372 . S
C512 C513 1.383 . S
C513 C512 1.383 . S
C513 C514 1.395 . S
C514 H478 0.930 . S
C514 C513 1.395 . S
C514 C515 1.362 . S
C515 H479 0.930 . S
C515 C510 1.390 . S
C515 C514 1.362 . S
C516 C505 1.492 . S
C516 C517 1.377 . S
C516 C521 1.397 . S
C517 H480 0.931 . S
C517 C516 1.377 . S
C517 C518 1.376 . S
C518 H481 0.930 . S
C518 C517 1.376 . S
C518 C519 1.376 . S
C519 C518 1.376 . S
C519 C520 1.378 . S
C519 C546 1.486 . S
C520 H482 0.930 . S
C520 C519 1.378 . S
C520 C521 1.376 . S
C521 H483 0.929 . S
C521 C516 1.397 . S
C521 C520 1.376 . S
C522 C506 1.509 . S
C522 C523 1.391 . S
C522 C527 1.386 . S
C523 H484 0.930 . S
C523 C522 1.391 . S
C523 C524 1.375 . S
C524 H485 0.931 . S
C524 C523 1.375 . S
C524 C525 1.375 . S
C525 C524 1.375 . S
C525 C526 1.361 . S
C526 H486 0.930 . S
C526 C525 1.361 . S
C526 C527 1.399 . S
C527 H487 0.929 . S
C527 C522 1.386 . S
C527 C526 1.399 . S
C528 C507 1.485 . S
C528 C529 1.394 . S
C528 C533 1.360 . S
C529 H488 0.931 . S
C529 C528 1.394 . S
C529 C530 1.372 . S
C530 H489 0.930 . S
C530 C529 1.372 . S
C530 C531 1.397 . S
C531 C530 1.397 . S
C531 C532 1.390 . S
C531 C547 1.476 . S
C532 H490 0.930 . S
C532 C531 1.390 . S
C532 C533 1.366 . S
C533 H491 0.932 . S
C533 C528 1.360 . S
C533 C532 1.366 . S
C534 C508 1.490 . S
C534 C535 1.380 . S
C534 C539 1.386 . S
C535 H492 0.930 . S
C535 C534 1.380 . S
C535 C536 1.381 . S
C536 H493 0.929 . S
C536 C535 1.381 . S
C536 C537 1.371 . S
C537 C536 1.371 . S
C537 C538 1.380 . S
C538 H494 0.931 . S
C538 C537 1.380 . S
C538 C539 1.387 . S
C539 H495 0.930 . S
C539 C534 1.386 . S
C539 C538 1.387 . S
C540 C509 1.519 . S
C540 C541 1.377 . S
C540 C545 1.361 . S
C541 H496 0.929 . S
C541 C540 1.377 . S
C541 C542 1.386 . S
C542 H497 0.931 . S
C542 C541 1.386 . S
C542 C543 1.363 . S
C543 C542 1.363 . S
C543 C544 1.385 . S
C544 H498 0.930 . S
C544 C543 1.385 . S
C544 C545 1.396 . S
C545 H499 0.929 . S
C545 C540 1.361 . S
C545 C544 1.396 . S
C546 O500 1.300 . S
C546 O501 1.209 . S
C546 C519 1.486 . S
C547 O502 1.199 . S
C547 O503 1.297 . S
C547 C531 1.476 . S
H548 O574 0.856 . S
H549 O577 0.854 . S
H550 C585 0.930 . S
H551 C586 0.930 . S
H552 C588 0.930 . S
H553 C589 0.930 . S
H554 C591 0.931 . S
H555 C592 0.930 . S
H556 C594 0.930 . S
H557 C595 0.929 . S
H558 C597 0.930 . S
H559 C598 0.931 . S
H560 C600 0.930 . S
H561 C601 0.929 . S
H562 C603 0.931 . S
H563 C604 0.930 . S
H564 C606 0.930 . S
H565 C607 0.932 . S
H566 C609 0.930 . S
H567 C610 0.929 . S
H568 C612 0.931 . S
H569 C613 0.930 . S
H570 C615 0.929 . S
H571 C616 0.931 . S
H572 C618 0.930 . S
H573 C619 0.929 . S
O574 H548 0.856 . S
O574 C620 1.300 . S
O575 C620 1.209 . S
O576 C621 1.199 . S
O577 H549 0.854 . S
O577 C621 1.297 . S
C578 C579 1.404 . S
C578 C583 1.397 . S
C578 C584 1.492 . S
C579 C578 1.404 . S
C579 C580 1.396 . S
C579 C590 1.492 . S
C580 C579 1.396 . S
C580 C581 1.397 . S
C580 C596 1.509 . S
C581 C580 1.397 . S
C581 C582 1.412 . S
C581 C602 1.485 . S
C582 C581 1.412 . S
C582 C583 1.388 . S
C582 C608 1.490 . S
C583 C578 1.397 . S
C583 C582 1.388 . S
C583 C614 1.519 . S
C584 C578 1.492 . S
C584 C585 1.363 . S
C584 C589 1.390 . S
C585 H550 0.930 . S
C585 C584 1.363 . S
C585 C586 1.372 . S
C586 H551 0.930 . S
C586 C585 1.372 . S
C586 C587 1.383 . S
C587 C586 1.383 . S
C587 C588 1.395 . S
C588 H552 0.930 . S
C588 C587 1.395 . S
C588 C589 1.362 . S
C589 H553 0.930 . S
C589 C584 1.390 . S
C589 C588 1.362 . S
C590 C579 1.492 . S
C590 C591 1.377 . S
C590 C595 1.397 . S
C591 H554 0.931 . S
C591 C590 1.377 . S
C591 C592 1.376 . S
C592 H555 0.930 . S
C592 C591 1.376 . S
C592 C593 1.376 . S
C593 C592 1.376 . S
C593 C594 1.378 . S
C593 C620 1.486 . S
C594 H556 0.930 . S
C594 C593 1.378 . S
C594 C595 1.376 . S
C595 H557 0.929 . S
C595 C590 1.397 . S
C595 C594 1.376 . S
C596 C580 1.509 . S
C596 C597 1.391 . S
C596 C601 1.386 . S
C597 H558 0.930 . S
C597 C596 1.391 . S
C597 C598 1.375 . S
C598 H559 0.931 . S
C598 C597 1.375 . S
C598 C599 1.375 . S
C599 C598 1.375 . S
C599 C600 1.361 . S
C600 H560 0.930 . S
C600 C599 1.361 . S
C600 C601 1.399 . S
C601 H561 0.929 . S
C601 C596 1.386 . S
C601 C600 1.399 . S
C602 C581 1.485 . S
C602 C603 1.394 . S
C602 C607 1.360 . S
C603 H562 0.931 . S
C603 C602 1.394 . S
C603 C604 1.372 . S
C604 H563 0.930 . S
C604 C603 1.372 . S
C604 C605 1.397 . S
C605 C604 1.397 . S
C605 C606 1.390 . S
C605 C621 1.476 . S
C606 H564 0.930 . S
C606 C605 1.390 . S
C606 C607 1.366 . S
C607 H565 0.932 . S
C607 C602 1.360 . S
C607 C606 1.366 . S
C608 C582 1.490 . S
C608 C609 1.380 . S
C608 C613 1.386 . S
C609 H566 0.930 . S
C609 C608 1.380 . S
C609 C610 1.381 . S
C610 H567 0.929 . S
C610 C609 1.381 . S
C610 C611 1.371 . S
C611 C610 1.371 . S
C611 C612 1.380 . S
C612 H568 0.931 . S
C612 C611 1.380 . S
C612 C613 1.387 . S
C613 H569 0.930 . S
C613 C608 1.386 . S
C613 C612 1.387 . S
C614 C583 1.519 . S
C614 C615 1.377 . S
C614 C619 1.361 . S
C615 H570 0.929 . S
C615 C614 1.377 . S
C615 C616 1.386 . S
C616 H571 0.931 . S
C616 C615 1.386 . S
C616 C617 1.363 . S
C617 C616 1.363 . S
C617 C618 1.385 . S
C618 H572 0.930 . S
C618 C617 1.385 . S
C618 C619 1.396 . S
C619 H573 0.929 . S
C619 C614 1.361 . S
C619 C618 1.396 . S
C620 O574 1.300 . S
C620 O575 1.209 . S
C620 C593 1.486 . S
C621 O576 1.199 . S
C621 O577 1.297 . S
C621 C605 1.476 . S
H622 O648 0.856 1_554 S
H623 O651 0.854 . S
H624 C659 0.930 . S
H625 C660 0.930 . S
H626 C662 0.930 . S
H627 C663 0.930 . S
H628 C665 0.931 . S
H629 C666 0.930 . S
H630 C668 0.930 . S
H631 C669 0.929 . S
H632 C671 0.930 . S
H633 C672 0.931 . S
H634 C674 0.930 . S
H635 C675 0.929 . S
H636 C677 0.931 . S
H637 C678 0.930 . S
H638 C680 0.930 . S
H639 C681 0.932 . S
H640 C683 0.930 . S
H641 C684 0.929 . S
H642 C686 0.931 . S
H643 C687 0.930 . S
H644 C689 0.929 . S
H645 C690 0.931 . S
H646 C692 0.930 . S
H647 C693 0.929 . S
O648 H622 0.856 1_556 S
O648 C694 1.300 . S
O649 C694 1.209 . S
O650 C695 1.199 . S
O651 H623 0.854 . S
O651 C695 1.297 . S
C652 C653 1.404 . S
C652 C657 1.397 . S
C652 C658 1.492 . S
C653 C652 1.404 . S
C653 C654 1.396 . S
C653 C664 1.492 . S
C654 C653 1.396 . S
C654 C655 1.397 . S
C654 C670 1.509 . S
C655 C654 1.397 . S
C655 C656 1.412 . S
C655 C676 1.485 . S
C656 C655 1.412 . S
C656 C657 1.388 . S
C656 C682 1.490 . S
C657 C652 1.397 . S
C657 C656 1.388 . S
C657 C688 1.519 . S
C658 C652 1.492 . S
C658 C659 1.363 . S
C658 C663 1.390 . S
C659 H624 0.930 . S
C659 C658 1.363 . S
C659 C660 1.372 . S
C660 H625 0.930 . S
C660 C659 1.372 . S
C660 C661 1.383 . S
C661 C660 1.383 . S
C661 C662 1.395 . S
C662 H626 0.930 . S
C662 C661 1.395 . S
C662 C663 1.362 . S
C663 H627 0.930 . S
C663 C658 1.390 . S
C663 C662 1.362 . S
C664 C653 1.492 . S
C664 C665 1.377 . S
C664 C669 1.397 . S
C665 H628 0.931 . S
C665 C664 1.377 . S
C665 C666 1.376 . S
C666 H629 0.930 . S
C666 C665 1.376 . S
C666 C667 1.376 . S
C667 C666 1.376 . S
C667 C668 1.378 . S
C667 C694 1.486 . S
C668 H630 0.930 . S
C668 C667 1.378 . S
C668 C669 1.376 . S
C669 H631 0.929 . S
C669 C664 1.397 . S
C669 C668 1.376 . S
C670 C654 1.509 . S
C670 C671 1.391 . S
C670 C675 1.386 . S
C671 H632 0.930 . S
C671 C670 1.391 . S
C671 C672 1.375 . S
C672 H633 0.931 . S
C672 C671 1.375 . S
C672 C673 1.375 . S
C673 C672 1.375 . S
C673 C674 1.361 . S
C674 H634 0.930 . S
C674 C673 1.361 . S
C674 C675 1.399 . S
C675 H635 0.929 . S
C675 C670 1.386 . S
C675 C674 1.399 . S
C676 C655 1.485 . S
C676 C677 1.394 . S
C676 C681 1.360 . S
C677 H636 0.931 . S
C677 C676 1.394 . S
C677 C678 1.372 . S
C678 H637 0.930 . S
C678 C677 1.372 . S
C678 C679 1.397 . S
C679 C678 1.397 . S
C679 C680 1.390 . S
C679 C695 1.476 . S
C680 H638 0.930 . S
C680 C679 1.390 . S
C680 C681 1.366 . S
C681 H639 0.932 . S
C681 C676 1.360 . S
C681 C680 1.366 . S
C682 C656 1.490 . S
C682 C683 1.380 . S
C682 C687 1.386 . S
C683 H640 0.930 . S
C683 C682 1.380 . S
C683 C684 1.381 . S
C684 H641 0.929 . S
C684 C683 1.381 . S
C684 C685 1.371 . S
C685 C684 1.371 . S
C685 C686 1.380 . S
C686 H642 0.931 . S
C686 C685 1.380 . S
C686 C687 1.387 . S
C687 H643 0.930 . S
C687 C682 1.386 . S
C687 C686 1.387 . S
C688 C657 1.519 . S
C688 C689 1.377 . S
C688 C693 1.361 . S
C689 H644 0.929 . S
C689 C688 1.377 . S
C689 C690 1.386 . S
C690 H645 0.931 . S
C690 C689 1.386 . S
C690 C691 1.363 . S
C691 C690 1.363 . S
C691 C692 1.385 . S
C692 H646 0.930 . S
C692 C691 1.385 . S
C692 C693 1.396 . S
C693 H647 0.929 . S
C693 C688 1.361 . S
C693 C692 1.396 . S
C694 O648 1.300 . S
C694 O649 1.209 . S
C694 C667 1.486 . S
C695 O650 1.199 . S
C695 O651 1.297 . S
C695 C679 1.476 . S
H696 O722 0.856 . S
H697 O725 0.854 . S
H698 C733 0.930 . S
H699 C734 0.930 . S
H700 C736 0.930 . S
H701 C737 0.930 . S
H702 C739 0.931 . S
H703 C740 0.930 . S
H704 C742 0.930 . S
H705 C743 0.929 . S
H706 C745 0.930 . S
H707 C746 0.931 . S
H708 C748 0.930 . S
H709 C749 0.929 . S
H710 C751 0.931 . S
H711 C752 0.930 . S
H712 C754 0.930 . S
H713 C755 0.932 . S
H714 C757 0.930 . S
H715 C758 0.929 . S
H716 C760 0.931 . S
H717 C761 0.930 . S
H718 C763 0.929 . S
H719 C764 0.931 . S
H720 C766 0.930 . S
H721 C767 0.929 . S
O722 H696 0.856 . S
O722 C768 1.300 . S
O723 C768 1.209 . S
O724 C769 1.199 . S
O725 H697 0.854 . S
O725 C769 1.297 . S
C726 C727 1.404 . S
C726 C731 1.397 . S
C726 C732 1.492 . S
C727 C726 1.404 . S
C727 C728 1.396 . S
C727 C738 1.492 . S
C728 C727 1.396 . S
C728 C729 1.397 . S
C728 C744 1.509 . S
C729 C728 1.397 . S
C729 C730 1.412 . S
C729 C750 1.485 . S
C730 C729 1.412 . S
C730 C731 1.388 . S
C730 C756 1.490 . S
C731 C726 1.397 . S
C731 C730 1.388 . S
C731 C762 1.519 . S
C732 C726 1.492 . S
C732 C733 1.363 . S
C732 C737 1.390 . S
C733 H698 0.930 . S
C733 C732 1.363 . S
C733 C734 1.372 . S
C734 H699 0.930 . S
C734 C733 1.372 . S
C734 C735 1.383 . S
C735 C734 1.383 . S
C735 C736 1.395 . S
C736 H700 0.930 . S
C736 C735 1.395 . S
C736 C737 1.362 . S
C737 H701 0.930 . S
C737 C732 1.390 . S
C737 C736 1.362 . S
C738 C727 1.492 . S
C738 C739 1.377 . S
C738 C743 1.397 . S
C739 H702 0.931 . S
C739 C738 1.377 . S
C739 C740 1.376 . S
C740 H703 0.930 . S
C740 C739 1.376 . S
C740 C741 1.376 . S
C741 C740 1.376 . S
C741 C742 1.378 . S
C741 C768 1.486 . S
C742 H704 0.930 . S
C742 C741 1.378 . S
C742 C743 1.376 . S
C743 H705 0.929 . S
C743 C738 1.397 . S
C743 C742 1.376 . S
C744 C728 1.509 . S
C744 C745 1.391 . S
C744 C749 1.386 . S
C745 H706 0.930 . S
C745 C744 1.391 . S
C745 C746 1.375 . S
C746 H707 0.931 . S
C746 C745 1.375 . S
C746 C747 1.375 . S
C747 C746 1.375 . S
C747 C748 1.361 . S
C748 H708 0.930 . S
C748 C747 1.361 . S
C748 C749 1.399 . S
C749 H709 0.929 . S
C749 C744 1.386 . S
C749 C748 1.399 . S
C750 C729 1.485 . S
C750 C751 1.394 . S
C750 C755 1.360 . S
C751 H710 0.931 . S
C751 C750 1.394 . S
C751 C752 1.372 . S
C752 H711 0.930 . S
C752 C751 1.372 . S
C752 C753 1.397 . S
C753 C752 1.397 . S
C753 C754 1.390 . S
C753 C769 1.476 . S
C754 H712 0.930 . S
C754 C753 1.390 . S
C754 C755 1.366 . S
C755 H713 0.932 . S
C755 C750 1.360 . S
C755 C754 1.366 . S
C756 C730 1.490 . S
C756 C757 1.380 . S
C756 C761 1.386 . S
C757 H714 0.930 . S
C757 C756 1.380 . S
C757 C758 1.381 . S
C758 H715 0.929 . S
C758 C757 1.381 . S
C758 C759 1.371 . S
C759 C758 1.371 . S
C759 C760 1.380 . S
C760 H716 0.931 . S
C760 C759 1.380 . S
C760 C761 1.387 . S
C761 H717 0.930 . S
C761 C756 1.386 . S
C761 C760 1.387 . S
C762 C731 1.519 . S
C762 C763 1.377 . S
C762 C767 1.361 . S
C763 H718 0.929 . S
C763 C762 1.377 . S
C763 C764 1.386 . S
C764 H719 0.931 . S
C764 C763 1.386 . S
C764 C765 1.363 . S
C765 C764 1.363 . S
C765 C766 1.385 . S
C766 H720 0.930 . S
C766 C765 1.385 . S
C766 C767 1.396 . S
C767 H721 0.929 . S
C767 C762 1.361 . S
C767 C766 1.396 . S
C768 O722 1.300 . S
C768 O723 1.209 . S
C768 C741 1.486 . S
C769 O724 1.199 . S
C769 O725 1.297 . S
C769 C753 1.476 . S
H770 O796 0.856 . S
H771 O799 0.854 . S
H772 C807 0.930 . S
H773 C808 0.930 . S
H774 C810 0.930 . S
H775 C811 0.930 . S
H776 C813 0.931 . S
H777 C814 0.930 . S
H778 C816 0.930 . S
H779 C817 0.929 . S
H780 C819 0.930 . S
H781 C820 0.931 . S
H782 C822 0.930 . S
H783 C823 0.929 . S
H784 C825 0.931 . S
H785 C826 0.930 . S
H786 C828 0.930 . S
H787 C829 0.932 . S
H788 C831 0.930 . S
H789 C832 0.929 . S
H790 C834 0.931 . S
H791 C835 0.930 . S
H792 C837 0.929 . S
H793 C838 0.931 . S
H794 C840 0.930 . S
H795 C841 0.929 . S
O796 H770 0.856 . S
O796 C842 1.300 . S
O797 C842 1.209 . S
O798 C843 1.199 . S
O799 H771 0.854 . S
O799 C843 1.297 . S
C800 C801 1.404 . S
C800 C805 1.397 . S
C800 C806 1.492 . S
C801 C800 1.404 . S
C801 C802 1.396 . S
C801 C812 1.492 . S
C802 C801 1.396 . S
C802 C803 1.397 . S
C802 C818 1.509 . S
C803 C802 1.397 . S
C803 C804 1.412 . S
C803 C824 1.485 . S
C804 C803 1.412 . S
C804 C805 1.388 . S
C804 C830 1.490 . S
C805 C800 1.397 . S
C805 C804 1.388 . S
C805 C836 1.519 . S
C806 C800 1.492 . S
C806 C807 1.363 . S
C806 C811 1.390 . S
C807 H772 0.930 . S
C807 C806 1.363 . S
C807 C808 1.372 . S
C808 H773 0.930 . S
C808 C807 1.372 . S
C808 C809 1.383 . S
C809 C808 1.383 . S
C809 C810 1.395 . S
C810 H774 0.930 . S
C810 C809 1.395 . S
C810 C811 1.362 . S
C811 H775 0.930 . S
C811 C806 1.390 . S
C811 C810 1.362 . S
C812 C801 1.492 . S
C812 C813 1.377 . S
C812 C817 1.397 . S
C813 H776 0.931 . S
C813 C812 1.377 . S
C813 C814 1.376 . S
C814 H777 0.930 . S
C814 C813 1.376 . S
C814 C815 1.376 . S
C815 C814 1.376 . S
C815 C816 1.378 . S
C815 C842 1.486 . S
C816 H778 0.930 . S
C816 C815 1.378 . S
C816 C817 1.376 . S
C817 H779 0.929 . S
C817 C812 1.397 . S
C817 C816 1.376 . S
C818 C802 1.509 . S
C818 C819 1.391 . S
C818 C823 1.386 . S
C819 H780 0.930 . S
C819 C818 1.391 . S
C819 C820 1.375 . S
C820 H781 0.931 . S
C820 C819 1.375 . S
C820 C821 1.375 . S
C821 C820 1.375 . S
C821 C822 1.361 . S
C822 H782 0.930 . S
C822 C821 1.361 . S
C822 C823 1.399 . S
C823 H783 0.929 . S
C823 C818 1.386 . S
C823 C822 1.399 . S
C824 C803 1.485 . S
C824 C825 1.394 . S
C824 C829 1.360 . S
C825 H784 0.931 . S
C825 C824 1.394 . S
C825 C826 1.372 . S
C826 H785 0.930 . S
C826 C825 1.372 . S
C826 C827 1.397 . S
C827 C826 1.397 . S
C827 C828 1.390 . S
C827 C843 1.476 . S
C828 H786 0.930 . S
C828 C827 1.390 . S
C828 C829 1.366 . S
C829 H787 0.932 . S
C829 C824 1.360 . S
C829 C828 1.366 . S
C830 C804 1.490 . S
C830 C831 1.380 . S
C830 C835 1.386 . S
C831 H788 0.930 . S
C831 C830 1.380 . S
C831 C832 1.381 . S
C832 H789 0.929 . S
C832 C831 1.381 . S
C832 C833 1.371 . S
C833 C832 1.371 . S
C833 C834 1.380 . S
C834 H790 0.931 . S
C834 C833 1.380 . S
C834 C835 1.387 . S
C835 H791 0.930 . S
C835 C830 1.386 . S
C835 C834 1.387 . S
C836 C805 1.519 . S
C836 C837 1.377 . S
C836 C841 1.361 . S
C837 H792 0.929 . S
C837 C836 1.377 . S
C837 C838 1.386 . S
C838 H793 0.931 . S
C838 C837 1.386 . S
C838 C839 1.363 . S
C839 C838 1.363 . S
C839 C840 1.385 . S
C840 H794 0.930 . S
C840 C839 1.385 . S
C840 C841 1.396 . S
C841 H795 0.929 . S
C841 C836 1.361 . S
C841 C840 1.396 . S
C842 O796 1.300 . S
C842 O797 1.209 . S
C842 C815 1.486 . S
C843 O798 1.199 . S
C843 O799 1.297 . S
C843 C827 1.476 . S
H844 O870 0.856 . S
H845 O873 0.854 . S
H846 C881 0.930 . S
H847 C882 0.930 . S
H848 C884 0.930 . S
H849 C885 0.930 . S
H850 C887 0.931 . S
H851 C888 0.930 . S
H852 C890 0.930 . S
H853 C891 0.929 . S
H854 C893 0.930 . S
H855 C894 0.931 . S
H856 C896 0.930 . S
H857 C897 0.929 . S
H858 C899 0.931 . S
H859 C900 0.930 . S
H860 C902 0.930 . S
H861 C903 0.932 . S
H862 C905 0.930 . S
H863 C906 0.929 . S
H864 C908 0.931 . S
H865 C909 0.930 . S
H866 C911 0.929 . S
H867 C912 0.931 . S
H868 C914 0.930 . S
H869 C915 0.929 . S
O870 H844 0.856 . S
O870 C916 1.300 . S
O871 C916 1.209 . S
O872 C917 1.199 . S
O873 H845 0.854 . S
O873 C917 1.297 . S
C874 C875 1.404 . S
C874 C879 1.397 . S
C874 C880 1.492 . S
C875 C874 1.404 . S
C875 C876 1.396 . S
C875 C886 1.492 . S
C876 C875 1.396 . S
C876 C877 1.397 . S
C876 C892 1.509 . S
C877 C876 1.397 . S
C877 C878 1.412 . S
C877 C898 1.485 . S
C878 C877 1.412 . S
C878 C879 1.388 . S
C878 C904 1.490 . S
C879 C874 1.397 . S
C879 C878 1.388 . S
C879 C910 1.519 . S
C880 C874 1.492 . S
C880 C881 1.363 . S
C880 C885 1.390 . S
C881 H846 0.930 . S
C881 C880 1.363 . S
C881 C882 1.372 . S
C882 H847 0.930 . S
C882 C881 1.372 . S
C882 C883 1.383 . S
C883 C882 1.383 . S
C883 C884 1.395 . S
C884 H848 0.930 . S
C884 C883 1.395 . S
C884 C885 1.362 . S
C885 H849 0.930 . S
C885 C880 1.390 . S
C885 C884 1.362 . S
C886 C875 1.492 . S
C886 C887 1.377 . S
C886 C891 1.397 . S
C887 H850 0.931 . S
C887 C886 1.377 . S
C887 C888 1.376 . S
C888 H851 0.930 . S
C888 C887 1.376 . S
C888 C889 1.376 . S
C889 C888 1.376 . S
C889 C890 1.378 . S
C889 C916 1.486 . S
C890 H852 0.930 . S
C890 C889 1.378 . S
C890 C891 1.376 . S
C891 H853 0.929 . S
C891 C886 1.397 . S
C891 C890 1.376 . S
C892 C876 1.509 . S
C892 C893 1.391 . S
C892 C897 1.386 . S
C893 H854 0.930 . S
C893 C892 1.391 . S
C893 C894 1.375 . S
C894 H855 0.931 . S
C894 C893 1.375 . S
C894 C895 1.375 . S
C895 C894 1.375 . S
C895 C896 1.361 . S
C896 H856 0.930 . S
C896 C895 1.361 . S
C896 C897 1.399 . S
C897 H857 0.929 . S
C897 C892 1.386 . S
C897 C896 1.399 . S
C898 C877 1.485 . S
C898 C899 1.394 . S
C898 C903 1.360 . S
C899 H858 0.931 . S
C899 C898 1.394 . S
C899 C900 1.372 . S
C900 H859 0.930 . S
C900 C899 1.372 . S
C900 C901 1.397 . S
C901 C900 1.397 . S
C901 C902 1.390 . S
C901 C917 1.476 . S
C902 H860 0.930 . S
C902 C901 1.390 . S
C902 C903 1.366 . S
C903 H861 0.932 . S
C903 C898 1.360 . S
C903 C902 1.366 . S
C904 C878 1.490 . S
C904 C905 1.380 . S
C904 C909 1.386 . S
C905 H862 0.930 . S
C905 C904 1.380 . S
C905 C906 1.381 . S
C906 H863 0.929 . S
C906 C905 1.381 . S
C906 C907 1.371 . S
C907 C906 1.371 . S
C907 C908 1.380 . S
C908 H864 0.931 . S
C908 C907 1.380 . S
C908 C909 1.387 . S
C909 H865 0.930 . S
C909 C904 1.386 . S
C909 C908 1.387 . S
C910 C879 1.519 . S
C910 C911 1.377 . S
C910 C915 1.361 . S
C911 H866 0.929 . S
C911 C910 1.377 . S
C911 C912 1.386 . S
C912 H867 0.931 . S
C912 C911 1.386 . S
C912 C913 1.363 . S
C913 C912 1.363 . S
C913 C914 1.385 . S
C914 H868 0.930 . S
C914 C913 1.385 . S
C914 C915 1.396 . S
C915 H869 0.929 . S
C915 C910 1.361 . S
C915 C914 1.396 . S
C916 O870 1.300 . S
C916 O871 1.209 . S
C916 C889 1.486 . S
C917 O872 1.199 . S
C917 O873 1.297 . S
C917 C901 1.476 . S
H918 O944 0.856 . S
H919 O947 0.854 . S
H920 C955 0.930 . S
H921 C956 0.930 . S
H922 C958 0.930 . S
H923 C959 0.930 . S
H924 C961 0.931 . S
H925 C962 0.902 1_655 S
H926 C964 0.930 . S
H927 C965 0.929 . S
H928 C967 0.930 . S
H929 C968 0.909 1_655 S
H930 C970 0.930 . S
H931 C971 0.929 . S
H932 C973 0.931 . S
H933 C974 0.930 . S
H934 C976 0.930 . S
H935 C977 0.932 . S
H936 C979 0.930 . S
H937 C980 0.929 . S
H938 C982 0.931 . S
H939 C983 0.930 . S
H940 C985 0.929 . S
H941 C986 0.931 . S
H942 C988 0.930 . S
H943 C989 0.929 . S
O944 H918 0.856 . S
O944 C990 1.300 . S
O945 C990 1.209 . S
O946 C991 1.199 1_655 S
O947 H919 0.854 . S
O947 C991 1.297 . S
C948 C949 1.404 . S
C948 C953 1.394 . S
C948 C954 1.492 . S
C949 C948 1.404 . S
C949 C950 1.396 . S
C949 C960 1.492 . S
C950 C949 1.396 . S
C950 C951 1.397 . S
C950 C966 1.509 . S
C951 C950 1.397 . S
C951 C952 1.432 . S
C951 C972 1.485 . S
C952 C951 1.432 . S
C952 C953 1.397 . S
C952 C978 1.491 1_455 S
C953 C948 1.394 . S
C953 C952 1.397 . S
C953 C984 1.487 1_455 S
C954 C948 1.492 . S
C954 C955 1.363 1_455 S
C954 C959 1.390 . S
C955 H920 0.930 . S
C955 C954 1.363 1_655 S
C955 C956 1.372 . S
C956 H921 0.930 . S
C956 C955 1.372 . S
C956 C957 1.383 . S
C957 C956 1.383 . S
C957 C958 1.395 1_655 S
C958 H922 0.930 . S
C958 C957 1.395 1_455 S
C958 C959 1.362 . S
C959 H923 0.930 . S
C959 C954 1.390 . S
C959 C958 1.362 . S
C960 C949 1.492 . S
C960 C961 1.377 1_455 S
C960 C965 1.397 . S
C961 H924 0.931 . S
C961 C960 1.377 1_655 S
C961 C962 1.382 1_655 S
C962 H925 0.902 1_455 S
C962 C961 1.382 1_455 S
C962 C963 1.402 . S
C963 C962 1.402 . S
C963 C964 1.378 . S
C963 C990 1.486 . S
C964 H926 0.930 . S
C964 C963 1.378 . S
C964 C965 1.376 . S
C965 H927 0.929 . S
C965 C960 1.397 . S
C965 C964 1.376 . S
C966 C950 1.509 . S
C966 C967 1.391 1_455 S
C966 C971 1.386 . S
C967 H928 0.930 . S
C967 C966 1.391 1_655 S
C967 C968 1.341 1_655 S
C968 H929 0.909 1_455 S
C968 C967 1.341 1_455 S
C968 C969 1.433 . S
C969 C968 1.433 . S
C969 C970 1.361 . S
C970 H930 0.930 . S
C970 C969 1.361 . S
C970 C971 1.399 . S
C971 H931 0.929 . S
C971 C966 1.386 . S
C971 C970 1.399 . S
C972 C951 1.485 . S
C972 C973 1.394 1_455 S
C972 C977 1.360 . S
C973 H932 0.931 . S
C973 C972 1.394 1_655 S
C973 C974 1.372 . S
C974 H933 0.930 . S
C974 C973 1.372 . S
C974 C975 1.397 1_655 S
C975 C974 1.397 1_455 S
C975 C976 1.390 . S
C975 C991 1.476 . S
C976 H934 0.930 . S
C976 C975 1.390 . S
C976 C977 1.366 . S
C977 H935 0.932 . S
C977 C972 1.360 . S
C977 C976 1.366 . S
C978 C952 1.491 1_655 S
C978 C979 1.380 . S
C978 C983 1.386 1_655 S
C979 H936 0.930 . S
C979 C978 1.380 . S
C979 C980 1.381 . S
C980 H937 0.929 . S
C980 C979 1.381 . S
C980 C981 1.371 . S
C981 C980 1.371 . S
C981 C982 1.380 1_655 S
C982 H938 0.931 . S
C982 C981 1.380 1_455 S
C982 C983 1.387 . S
C983 H939 0.930 . S
C983 C978 1.386 1_455 S
C983 C982 1.387 . S
C984 C953 1.487 1_655 S
C984 C985 1.407 . S
C984 C989 1.342 1_655 S
C985 H940 0.929 . S
C985 C984 1.407 . S
C985 C986 1.386 . S
C986 H941 0.931 . S
C986 C985 1.386 . S
C986 C987 1.381 . S
C987 C986 1.381 . S
C987 C988 1.357 1_655 S
C988 H942 0.930 . S
C988 C987 1.357 1_455 S
C988 C989 1.396 . S
C989 H943 0.929 . S
C989 C984 1.342 1_455 S
C989 C988 1.396 . S
C990 O944 1.300 . S
C990 O945 1.209 . S
C990 C963 1.486 . S
C991 O946 1.199 1_455 S
C991 O947 1.297 . S
C991 C975 1.476 . S
H992 O1018 0.856 . S
H993 O1021 0.854 . S
H994 C1029 0.930 . S
H995 C1030 0.930 . S
H996 C1032 0.930 . S
H997 C1033 0.930 . S
H998 C1035 0.931 . S
H999 C1036 0.930 . S
H1000 C1038 0.930 . S
H1001 C1039 0.929 . S
H1002 C1041 0.930 . S
H1003 C1042 0.931 . S
H1004 C1044 0.930 . S
H1005 C1045 0.929 . S
H1006 C1047 0.931 . S
H1007 C1048 0.930 . S
H1008 C1050 0.930 . S
H1009 C1051 0.932 . S
H1010 C1053 0.930 . S
H1011 C1054 0.929 . S
H1012 C1056 0.931 . S
H1013 C1057 0.930 . S
H1014 C1059 0.929 . S
H1015 C1060 0.931 . S
H1016 C1062 0.930 . S
H1017 C1063 0.929 . S
O1018 H992 0.856 . S
O1018 C1064 1.300 . S
O1019 C1064 1.209 . S
O1020 C1065 1.199 . S
O1021 H993 0.854 . S
O1021 C1065 1.297 . S
C1022 C1023 1.404 . S
C1022 C1027 1.397 . S
C1022 C1028 1.492 . S
C1023 C1022 1.404 . S
C1023 C1024 1.396 . S
C1023 C1034 1.492 . S
C1024 C1023 1.396 . S
C1024 C1025 1.397 . S
C1024 C1040 1.509 . S
C1025 C1024 1.397 . S
C1025 C1026 1.412 . S
C1025 C1046 1.485 . S
C1026 C1025 1.412 . S
C1026 C1027 1.388 . S
C1026 C1052 1.490 . S
C1027 C1022 1.397 . S
C1027 C1026 1.388 . S
C1027 C1058 1.519 . S
C1028 C1022 1.492 . S
C1028 C1029 1.363 . S
C1028 C1033 1.390 . S
C1029 H994 0.930 . S
C1029 C1028 1.363 . S
C1029 C1030 1.372 . S
C1030 H995 0.930 . S
C1030 C1029 1.372 . S
C1030 C1031 1.383 . S
C1031 C1030 1.383 . S
C1031 C1032 1.395 . S
C1032 H996 0.930 . S
C1032 C1031 1.395 . S
C1032 C1033 1.362 . S
C1033 H997 0.930 . S
C1033 C1028 1.390 . S
C1033 C1032 1.362 . S
C1034 C1023 1.492 . S
C1034 C1035 1.377 . S
C1034 C1039 1.397 . S
C1035 H998 0.931 . S
C1035 C1034 1.377 . S
C1035 C1036 1.376 . S
C1036 H999 0.930 . S
C1036 C1035 1.376 . S
C1036 C1037 1.376 . S
C1037 C1036 1.376 . S
C1037 C1038 1.378 . S
C1037 C1064 1.486 . S
C1038 H1000 0.930 . S
C1038 C1037 1.378 . S
C1038 C1039 1.376 . S
C1039 H1001 0.929 . S
C1039 C1034 1.397 . S
C1039 C1038 1.376 . S
C1040 C1024 1.509 . S
C1040 C1041 1.391 . S
C1040 C1045 1.386 . S
C1041 H1002 0.930 . S
C1041 C1040 1.391 . S
C1041 C1042 1.375 . S
C1042 H1003 0.931 . S
C1042 C1041 1.375 . S
C1042 C1043 1.375 . S
C1043 C1042 1.375 . S
C1043 C1044 1.361 . S
C1044 H1004 0.930 . S
C1044 C1043 1.361 . S
C1044 C1045 1.399 . S
C1045 H1005 0.929 . S
C1045 C1040 1.386 . S
C1045 C1044 1.399 . S
C1046 C1025 1.485 . S
C1046 C1047 1.394 . S
C1046 C1051 1.360 . S
C1047 H1006 0.931 . S
C1047 C1046 1.394 . S
C1047 C1048 1.372 . S
C1048 H1007 0.930 . S
C1048 C1047 1.372 . S
C1048 C1049 1.397 . S
C1049 C1048 1.397 . S
C1049 C1050 1.390 . S
C1049 C1065 1.476 . S
C1050 H1008 0.930 . S
C1050 C1049 1.390 . S
C1050 C1051 1.366 . S
C1051 H1009 0.932 . S
C1051 C1046 1.360 . S
C1051 C1050 1.366 . S
C1052 C1026 1.490 . S
C1052 C1053 1.380 . S
C1052 C1057 1.386 . S
C1053 H1010 0.930 . S
C1053 C1052 1.380 . S
C1053 C1054 1.381 . S
C1054 H1011 0.929 . S
C1054 C1053 1.381 . S
C1054 C1055 1.371 . S
C1055 C1054 1.371 . S
C1055 C1056 1.380 . S
C1056 H1012 0.931 . S
C1056 C1055 1.380 . S
C1056 C1057 1.387 . S
C1057 H1013 0.930 . S
C1057 C1052 1.386 . S
C1057 C1056 1.387 . S
C1058 C1027 1.519 . S
C1058 C1059 1.377 . S
C1058 C1063 1.361 . S
C1059 H1014 0.929 . S
C1059 C1058 1.377 . S
C1059 C1060 1.386 . S
C1060 H1015 0.931 . S
C1060 C1059 1.386 . S
C1060 C1061 1.363 . S
C1061 C1060 1.363 . S
C1061 C1062 1.385 . S
C1062 H1016 0.930 . S
C1062 C1061 1.385 . S
C1062 C1063 1.396 . S
C1063 H1017 0.929 . S
C1063 C1058 1.361 . S
C1063 C1062 1.396 . S
C1064 O1018 1.300 . S
C1064 O1019 1.209 . S
C1064 C1037 1.486 . S
C1065 O1020 1.199 . S
C1065 O1021 1.297 . S
C1065 C1049 1.476 . S
H1066 O1092 0.856 . S
H1067 O1095 0.854 . S
H1068 C1103 0.930 . S
H1069 C1104 0.930 . S
H1070 C1106 0.930 . S
H1071 C1107 0.930 . S
H1072 C1109 0.931 . S
H1073 C1110 0.958 . S
H1074 C1112 0.930 . S
H1075 C1113 0.929 . S
H1076 C1115 0.930 . S
H1077 C1116 0.931 . S
H1078 C1118 0.930 . S
H1079 C1119 0.929 . S
H1080 C1121 0.931 . S
H1081 C1122 0.930 . S
H1082 C1124 0.930 . S
H1083 C1125 0.932 . S
H1084 C1127 0.930 . S
H1085 C1128 0.929 . S
H1086 C1130 0.931 . S
H1087 C1131 0.930 . S
H1088 C1133 0.929 . S
H1089 C1134 0.931 . S
H1090 C1136 0.930 . S
H1091 C1137 0.929 . S
O1092 H1066 0.856 . S
O1092 C1138 1.300 . S
O1093 C1138 1.209 . S
O1094 C1139 1.199 1_545 S
O1095 H1067 0.854 . S
O1095 C1139 1.297 . S
C1096 C1097 1.404 . S
C1096 C1101 1.413 . S
C1096 C1102 1.492 . S
C1097 C1096 1.404 . S
C1097 C1098 1.396 . S
C1097 C1108 1.492 . S
C1098 C1097 1.396 . S
C1098 C1099 1.397 . S
C1098 C1114 1.509 . S
C1099 C1098 1.397 . S
C1099 C1100 1.412 . S
C1099 C1120 1.485 . S
C1100 C1099 1.412 . S
C1100 C1101 1.364 . S
C1100 C1126 1.489 1_565 S
C1101 C1096 1.413 . S
C1101 C1100 1.364 . S
C1101 C1132 1.536 . S
C1102 C1096 1.492 . S
C1102 C1103 1.363 1_565 S
C1102 C1107 1.390 . S
C1103 H1068 0.930 . S
C1103 C1102 1.363 1_545 S
C1103 C1104 1.372 . S
C1104 H1069 0.930 . S
C1104 C1103 1.372 . S
C1104 C1105 1.383 . S
C1105 C1104 1.383 . S
C1105 C1106 1.395 1_545 S
C1106 H1070 0.930 . S
C1106 C1105 1.395 1_565 S
C1106 C1107 1.362 . S
C1107 H1071 0.930 . S
C1107 C1102 1.390 . S
C1107 C1106 1.362 . S
C1108 C1097 1.492 . S
C1108 C1109 1.377 1_565 S
C1108 C1113 1.397 . S
C1109 H1072 0.931 . S
C1109 C1108 1.377 1_545 S
C1109 C1110 1.391 . S
C1110 H1073 0.958 . S
C1110 C1109 1.391 . S
C1110 C1111 1.333 1_545 S
C1111 C1110 1.333 1_565 S
C1111 C1112 1.378 . S
C1111 C1138 1.486 . S
C1112 H1074 0.930 . S
C1112 C1111 1.378 . S
C1112 C1113 1.376 . S
C1113 H1075 0.929 . S
C1113 C1108 1.397 . S
C1113 C1112 1.376 . S
C1114 C1098 1.509 . S
C1114 C1115 1.391 1_565 S
C1114 C1119 1.386 . S
C1115 H1076 0.930 . S
C1115 C1114 1.391 1_545 S
C1115 C1116 1.375 . S
C1116 H1077 0.931 . S
C1116 C1115 1.375 . S
C1116 C1117 1.375 1_545 S
C1117 C1116 1.375 1_565 S
C1117 C1118 1.361 . S
C1118 H1078 0.930 . S
C1118 C1117 1.361 . S
C1118 C1119 1.399 . S
C1119 H1079 0.929 . S
C1119 C1114 1.386 . S
C1119 C1118 1.399 . S
C1120 C1099 1.485 . S
C1120 C1121 1.394 1_565 S
C1120 C1125 1.360 . S
C1121 H1080 0.931 . S
C1121 C1120 1.394 1_545 S
C1121 C1122 1.372 . S
C1122 H1081 0.930 . S
C1122 C1121 1.372 . S
C1122 C1123 1.397 1_545 S
C1123 C1122 1.397 1_565 S
C1123 C1124 1.390 . S
C1123 C1139 1.476 . S
C1124 H1082 0.930 . S
C1124 C1123 1.390 . S
C1124 C1125 1.366 . S
C1125 H1083 0.932 . S
C1125 C1120 1.360 . S
C1125 C1124 1.366 . S
C1126 C1100 1.489 1_545 S
C1126 C1127 1.380 . S
C1126 C1131 1.386 1_545 S
C1127 H1084 0.930 . S
C1127 C1126 1.380 . S
C1127 C1128 1.381 . S
C1128 H1085 0.929 . S
C1128 C1127 1.381 . S
C1128 C1129 1.371 . S
C1129 C1128 1.371 . S
C1129 C1130 1.380 1_545 S
C1130 H1086 0.931 . S
C1130 C1129 1.380 1_565 S
C1130 C1131 1.387 . S
C1131 H1087 0.930 . S
C1131 C1126 1.386 1_565 S
C1131 C1130 1.387 . S
C1132 C1101 1.536 . S
C1132 C1133 1.380 1_565 S
C1132 C1137 1.355 . S
C1133 H1088 0.929 . S
C1133 C1132 1.380 1_545 S
C1133 C1134 1.386 . S
C1134 H1089 0.931 . S
C1134 C1133 1.386 . S
C1134 C1135 1.304 1_545 S
C1135 C1134 1.304 1_565 S
C1135 C1136 1.416 . S
C1136 H1090 0.930 . S
C1136 C1135 1.416 . S
C1136 C1137 1.396 . S
C1137 H1091 0.929 . S
C1137 C1132 1.355 . S
C1137 C1136 1.396 . S
C1138 O1092 1.300 . S
C1138 O1093 1.209 . S
C1138 C1111 1.486 . S
C1139 O1094 1.199 1_565 S
C1139 O1095 1.297 . S
C1139 C1123 1.476 . S
H1140 O1166 0.856 . S
H1141 O1169 0.854 . S
H1142 C1177 0.930 . S
H1143 C1178 0.930 . S
H1144 C1180 0.930 . S
H1145 C1181 0.930 . S
H1146 C1183 0.931 . S
H1147 C1184 0.930 . S
H1148 C1186 0.930 . S
H1149 C1187 0.929 . S
H1150 C1189 0.930 . S
H1151 C1190 0.931 . S
H1152 C1192 0.930 . S
H1153 C1193 0.929 . S
H1154 C1195 0.931 . S
H1155 C1196 0.930 . S
H1156 C1198 0.930 . S
H1157 C1199 0.932 . S
H1158 C1201 0.930 . S
H1159 C1202 0.929 . S
H1160 C1204 0.931 . S
H1161 C1205 0.930 . S
H1162 C1207 0.929 . S
H1163 C1208 0.931 . S
H1164 C1210 0.930 . S
H1165 C1211 0.929 . S
O1166 H1140 0.856 . S
O1166 C1212 1.300 . S
O1167 C1212 1.209 1_565 S
O1168 C1213 1.199 1_545 S
O1169 H1141 0.854 . S
O1169 C1213 1.297 . S
C1170 C1171 1.404 . S
C1170 C1175 1.398 1_545 S
C1170 C1176 1.492 . S
C1171 C1170 1.404 . S
C1171 C1172 1.418 . S
C1171 C1182 1.492 . S
C1172 C1171 1.418 . S
C1172 C1173 1.379 1_545 S
C1172 C1188 1.501 . S
C1173 C1172 1.379 1_565 S
C1173 C1174 1.414 . S
C1173 C1194 1.510 . S
C1174 C1173 1.414 . S
C1174 C1175 1.362 . S
C1174 C1200 1.489 . S
C1175 C1170 1.398 1_565 S
C1175 C1174 1.362 . S
C1175 C1206 1.519 . S
C1176 C1170 1.492 . S
C1176 C1177 1.363 . S
C1176 C1181 1.390 1_545 S
C1177 H1142 0.930 . S
C1177 C1176 1.363 . S
C1177 C1178 1.372 . S
C1178 H1143 0.930 . S
C1178 C1177 1.372 . S
C1178 C1179 1.383 . S
C1179 C1178 1.383 . S
C1179 C1180 1.395 1_545 S
C1180 H1144 0.930 . S
C1180 C1179 1.395 1_565 S
C1180 C1181 1.362 . S
C1181 H1145 0.930 . S
C1181 C1176 1.390 1_565 S
C1181 C1180 1.362 . S
C1182 C1171 1.492 . S
C1182 C1183 1.377 . S
C1182 C1187 1.397 1_545 S
C1183 H1146 0.931 . S
C1183 C1182 1.377 . S
C1183 C1184 1.376 . S
C1184 H1147 0.930 . S
C1184 C1183 1.376 . S
C1184 C1185 1.376 . S
C1185 C1184 1.376 . S
C1185 C1186 1.378 1_545 S
C1185 C1212 1.486 . S
C1186 H1148 0.930 . S
C1186 C1185 1.378 1_565 S
C1186 C1187 1.376 . S
C1187 H1149 0.929 . S
C1187 C1182 1.397 1_565 S
C1187 C1186 1.376 . S
C1188 C1172 1.501 . S
C1188 C1189 1.397 . S
C1188 C1193 1.377 1_545 S
C1189 H1150 0.930 . S
C1189 C1188 1.397 . S
C1189 C1190 1.375 . S
C1190 H1151 0.931 . S
C1190 C1189 1.375 . S
C1190 C1191 1.361 1_545 S
C1191 C1190 1.361 1_565 S
C1191 C1192 1.370 . S
C1192 H1152 0.930 . S
C1192 C1191 1.370 . S
C1192 C1193 1.399 . S
C1193 H1153 0.929 . S
C1193 C1188 1.377 1_565 S
C1193 C1192 1.399 . S
C1194 C1173 1.510 . S
C1194 C1195 1.394 1_565 S
C1194 C1199 1.360 . S
C1195 H1154 0.931 . S
C1195 C1194 1.394 1_545 S
C1195 C1196 1.372 . S
C1196 H1155 0.930 . S
C1196 C1195 1.372 . S
C1196 C1197 1.397 1_545 S
C1197 C1196 1.397 1_565 S
C1197 C1198 1.390 . S
C1197 C1213 1.476 . S
C1198 H1156 0.930 . S
C1198 C1197 1.390 . S
C1198 C1199 1.366 . S
C1199 H1157 0.932 . S
C1199 C1194 1.360 . S
C1199 C1198 1.366 . S
C1200 C1174 1.489 . S
C1200 C1201 1.340 1_565 S
C1200 C1205 1.437 . S
C1201 H1158 0.930 . S
C1201 C1200 1.340 1_545 S
C1201 C1202 1.381 . S
C1202 H1159 0.929 . S
C1202 C1201 1.381 . S
C1202 C1203 1.386 . S
C1203 C1202 1.386 . S
C1203 C1204 1.367 1_545 S
C1204 H1160 0.931 . S
C1204 C1203 1.367 1_565 S
C1204 C1205 1.387 . S
C1205 H1161 0.930 . S
C1205 C1200 1.437 . S
C1205 C1204 1.387 . S
C1206 C1175 1.519 . S
C1206 C1207 1.377 1_565 S
C1206 C1211 1.361 . S
C1207 H1162 0.929 . S
C1207 C1206 1.377 1_545 S
C1207 C1208 1.386 . S
C1208 H1163 0.931 . S
C1208 C1207 1.386 . S
C1208 C1209 1.363 1_545 S
C1209 C1208 1.363 1_565 S
C1209 C1210 1.385 . S
C1210 H1164 0.930 . S
C1210 C1209 1.385 . S
C1210 C1211 1.396 . S
C1211 H1165 0.929 . S
C1211 C1206 1.361 . S
C1211 C1210 1.396 . S
C1212 O1166 1.300 . S
C1212 O1167 1.209 1_545 S
C1212 C1185 1.486 . S
C1213 O1168 1.199 1_565 S
C1213 O1169 1.297 . S
C1213 C1197 1.476 . S
H1214 O1240 0.856 . S
H1215 O1243 0.854 . S
H1216 C1251 0.930 . S
H1217 C1252 0.930 . S
H1218 C1254 0.930 . S
H1219 C1255 0.930 . S
H1220 C1257 0.931 . S
H1221 C1258 0.930 . S
H1222 C1260 0.930 . S
H1223 C1261 0.929 . S
H1224 C1263 0.930 . S
H1225 C1264 0.931 . S
H1226 C1266 0.930 . S
H1227 C1267 0.929 . S
H1228 C1269 0.931 . S
H1229 C1270 0.930 . S
H1230 C1272 0.930 . S
H1231 C1273 0.932 . S
H1232 C1275 0.930 . S
H1233 C1276 0.929 . S
H1234 C1278 0.931 . S
H1235 C1279 0.930 . S
H1236 C1281 0.929 . S
H1237 C1282 0.931 . S
H1238 C1284 0.930 . S
H1239 C1285 0.929 . S
O1240 H1214 0.856 . S
O1240 C1286 1.300 . S
O1241 C1286 1.209 1_455 S
O1242 C1287 1.199 1_655 S
O1243 H1215 0.854 . S
O1243 C1287 1.297 . S
C1244 C1245 1.404 . S
C1244 C1249 1.398 . S
C1244 C1250 1.492 . S
C1245 C1244 1.404 . S
C1245 C1246 1.396 . S
C1245 C1256 1.492 . S
C1246 C1245 1.396 . S
C1246 C1247 1.395 . S
C1246 C1262 1.509 . S
C1247 C1246 1.395 . S
C1247 C1248 1.397 1_655 S
C1247 C1268 1.516 1_655 S
C1248 C1247 1.397 1_455 S
C1248 C1249 1.395 1_455 S
C1248 C1274 1.499 . S
C1249 C1244 1.398 . S
C1249 C1248 1.395 1_655 S
C1249 C1280 1.522 1_655 S
C1250 C1244 1.492 . S
C1250 C1251 1.363 . S
C1250 C1255 1.390 1_655 S
C1251 H1216 0.930 . S
C1251 C1250 1.363 . S
C1251 C1252 1.372 . S
C1252 H1217 0.930 . S
C1252 C1251 1.372 . S
C1252 C1253 1.383 . S
C1253 C1252 1.383 . S
C1253 C1254 1.395 1_655 S
C1254 H1218 0.930 . S
C1254 C1253 1.395 1_455 S
C1254 C1255 1.362 . S
C1255 H1219 0.930 . S
C1255 C1250 1.390 1_455 S
C1255 C1254 1.362 . S
C1256 C1245 1.492 . S
C1256 C1257 1.377 . S
C1256 C1261 1.397 1_655 S
C1257 H1220 0.931 . S
C1257 C1256 1.377 . S
C1257 C1258 1.376 . S
C1258 H1221 0.930 . S
C1258 C1257 1.376 . S
C1258 C1259 1.376 . S
C1259 C1258 1.376 . S
C1259 C1260 1.378 1_655 S
C1259 C1286 1.486 . S
C1260 H1222 0.930 . S
C1260 C1259 1.378 1_455 S
C1260 C1261 1.376 . S
C1261 H1223 0.929 . S
C1261 C1256 1.397 1_455 S
C1261 C1260 1.376 . S
C1262 C1246 1.509 . S
C1262 C1263 1.391 . S
C1262 C1267 1.386 1_655 S
C1263 H1224 0.930 . S
C1263 C1262 1.391 . S
C1263 C1264 1.375 . S
C1264 H1225 0.931 . S
C1264 C1263 1.375 . S
C1264 C1265 1.375 . S
C1265 C1264 1.375 . S
C1265 C1266 1.361 1_655 S
C1266 H1226 0.930 . S
C1266 C1265 1.361 1_455 S
C1266 C1267 1.399 . S
C1267 H1227 0.929 . S
C1267 C1262 1.386 1_455 S
C1267 C1266 1.399 . S
C1268 C1247 1.516 1_455 S
C1268 C1269 1.356 1_455 S
C1268 C1273 1.376 . S
C1269 H1228 0.931 . S
C1269 C1268 1.356 1_655 S
C1269 C1270 1.372 . S
C1270 H1229 0.930 . S
C1270 C1269 1.372 . S
C1270 C1271 1.397 1_655 S
C1271 C1270 1.397 1_455 S
C1271 C1272 1.390 . S
C1271 C1287 1.476 . S
C1272 H1230 0.930 . S
C1272 C1271 1.390 . S
C1272 C1273 1.366 . S
C1273 H1231 0.932 . S
C1273 C1268 1.376 . S
C1273 C1272 1.366 . S
C1274 C1248 1.499 . S
C1274 C1275 1.338 1_455 S
C1274 C1279 1.418 . S
C1275 H1232 0.930 . S
C1275 C1274 1.338 1_655 S
C1275 C1276 1.381 . S
C1276 H1233 0.929 . S
C1276 C1275 1.381 . S
C1276 C1277 1.345 1_655 S
C1277 C1276 1.345 1_455 S
C1277 C1278 1.422 . S
C1278 H1234 0.931 . S
C1278 C1277 1.422 . S
C1278 C1279 1.387 . S
C1279 H1235 0.930 . S
C1279 C1274 1.418 . S
C1279 C1278 1.387 . S
C1280 C1249 1.522 1_455 S
C1280 C1281 1.377 1_455 S
C1280 C1285 1.361 . S
C1281 H1236 0.929 . S
C1281 C1280 1.377 1_655 S
C1281 C1282 1.386 . S
C1282 H1237 0.931 . S
C1282 C1281 1.386 . S
C1282 C1283 1.363 1_655 S
C1283 C1282 1.363 1_455 S
C1283 C1284 1.385 . S
C1284 H1238 0.930 . S
C1284 C1283 1.385 . S
C1284 C1285 1.396 . S
C1285 H1239 0.929 . S
C1285 C1280 1.361 . S
C1285 C1284 1.396 . S
C1286 O1240 1.300 . S
C1286 O1241 1.209 1_655 S
C1286 C1259 1.486 . S
C1287 O1242 1.199 1_455 S
C1287 O1243 1.297 . S
C1287 C1271 1.476 . S
H1288 O1314 0.856 . S
H1289 O1317 0.854 . S
H1290 C1325 0.930 . S
H1291 C1326 0.930 . S
H1292 C1328 0.930 . S
H1293 C1329 0.930 . S
H1294 C1331 0.931 . S
H1295 C1332 0.930 . S
H1296 C1334 0.930 . S
H1297 C1335 0.929 . S
H1298 C1337 0.930 . S
H1299 C1338 0.931 . S
H1300 C1340 0.930 . S
H1301 C1341 0.929 . S
H1302 C1343 0.931 . S
H1303 C1344 0.930 . S
H1304 C1346 0.930 . S
H1305 C1347 0.932 . S
H1306 C1349 0.930 . S
H1307 C1350 0.929 . S
H1308 C1352 0.931 . S
H1309 C1353 0.930 . S
H1310 C1355 0.929 . S
H1311 C1356 0.931 . S
H1312 C1358 0.930 . S
H1313 C1359 0.929 . S
O1314 H1288 0.856 . S
O1314 C1360 1.300 . S
O1315 C1360 1.209 . S
O1316 C1361 1.199 . S
O1317 H1289 0.854 . S
O1317 C1361 1.297 . S
C1318 C1319 1.404 . S
C1318 C1323 1.397 . S
C1318 C1324 1.492 . S
C1319 C1318 1.404 . S
C1319 C1320 1.396 . S
C1319 C1330 1.492 . S
C1320 C1319 1.396 . S
C1320 C1321 1.397 . S
C1320 C1336 1.509 . S
C1321 C1320 1.397 . S
C1321 C1322 1.412 . S
C1321 C1342 1.485 . S
C1322 C1321 1.412 . S
C1322 C1323 1.388 . S
C1322 C1348 1.490 . S
C1323 C1318 1.397 . S
C1323 C1322 1.388 . S
C1323 C1354 1.519 . S
C1324 C1318 1.492 . S
C1324 C1325 1.363 . S
C1324 C1329 1.390 . S
C1325 H1290 0.930 . S
C1325 C1324 1.363 . S
C1325 C1326 1.372 . S
C1326 H1291 0.930 . S
C1326 C1325 1.372 . S
C1326 C1327 1.383 . S
C1327 C1326 1.383 . S
C1327 C1328 1.395 . S
C1328 H1292 0.930 . S
C1328 C1327 1.395 . S
C1328 C1329 1.362 . S
C1329 H1293 0.930 . S
C1329 C1324 1.390 . S
C1329 C1328 1.362 . S
C1330 C1319 1.492 . S
C1330 C1331 1.377 . S
C1330 C1335 1.397 . S
C1331 H1294 0.931 . S
C1331 C1330 1.377 . S
C1331 C1332 1.376 . S
C1332 H1295 0.930 . S
C1332 C1331 1.376 . S
C1332 C1333 1.376 . S
C1333 C1332 1.376 . S
C1333 C1334 1.378 . S
C1333 C1360 1.486 . S
C1334 H1296 0.930 . S
C1334 C1333 1.378 . S
C1334 C1335 1.376 . S
C1335 H1297 0.929 . S
C1335 C1330 1.397 . S
C1335 C1334 1.376 . S
C1336 C1320 1.509 . S
C1336 C1337 1.391 . S
C1336 C1341 1.386 . S
C1337 H1298 0.930 . S
C1337 C1336 1.391 . S
C1337 C1338 1.375 . S
C1338 H1299 0.931 . S
C1338 C1337 1.375 . S
C1338 C1339 1.375 . S
C1339 C1338 1.375 . S
C1339 C1340 1.361 . S
C1340 H1300 0.930 . S
C1340 C1339 1.361 . S
C1340 C1341 1.399 . S
C1341 H1301 0.929 . S
C1341 C1336 1.386 . S
C1341 C1340 1.399 . S
C1342 C1321 1.485 . S
C1342 C1343 1.394 . S
C1342 C1347 1.360 . S
C1343 H1302 0.931 . S
C1343 C1342 1.394 . S
C1343 C1344 1.372 . S
C1344 H1303 0.930 . S
C1344 C1343 1.372 . S
C1344 C1345 1.397 . S
C1345 C1344 1.397 . S
C1345 C1346 1.390 . S
C1345 C1361 1.476 . S
C1346 H1304 0.930 . S
C1346 C1345 1.390 . S
C1346 C1347 1.366 . S
C1347 H1305 0.932 . S
C1347 C1342 1.360 . S
C1347 C1346 1.366 . S
C1348 C1322 1.490 . S
C1348 C1349 1.380 . S
C1348 C1353 1.386 . S
C1349 H1306 0.930 . S
C1349 C1348 1.380 . S
C1349 C1350 1.381 . S
C1350 H1307 0.929 . S
C1350 C1349 1.381 . S
C1350 C1351 1.371 . S
C1351 C1350 1.371 . S
C1351 C1352 1.380 . S
C1352 H1308 0.931 . S
C1352 C1351 1.380 . S
C1352 C1353 1.387 . S
C1353 H1309 0.930 . S
C1353 C1348 1.386 . S
C1353 C1352 1.387 . S
C1354 C1323 1.519 . S
C1354 C1355 1.377 . S
C1354 C1359 1.361 . S
C1355 H1310 0.929 . S
C1355 C1354 1.377 . S
C1355 C1356 1.386 . S
C1356 H1311 0.931 . S
C1356 C1355 1.386 . S
C1356 C1357 1.363 . S
C1357 C1356 1.363 . S
C1357 C1358 1.385 . S
C1358 H1312 0.930 . S
C1358 C1357 1.385 . S
C1358 C1359 1.396 . S
C1359 H1313 0.929 . S
C1359 C1354 1.361 . S
C1359 C1358 1.396 . S
C1360 O1314 1.300 . S
C1360 O1315 1.209 . S
C1360 C1333 1.486 . S
C1361 O1316 1.199 . S
C1361 O1317 1.297 . S
C1361 C1345 1.476 . S
H1362 O1388 0.856 . S
H1363 O1391 0.854 . S
H1364 C1399 0.930 . S
H1365 C1400 0.930 . S
H1366 C1402 0.930 . S
H1367 C1403 0.930 . S
H1368 C1405 0.931 . S
H1369 C1406 0.930 . S
H1370 C1408 0.930 . S
H1371 C1409 0.929 . S
H1372 C1411 0.930 . S
H1373 C1412 0.931 . S
H1374 C1414 0.930 . S
H1375 C1415 0.929 . S
H1376 C1417 0.931 . S
H1377 C1418 0.930 . S
H1378 C1420 0.930 . S
H1379 C1421 0.932 . S
H1380 C1423 0.930 . S
H1381 C1424 0.929 . S
H1382 C1426 0.931 . S
H1383 C1427 0.930 . S
H1384 C1429 0.929 . S
H1385 C1430 0.931 . S
H1386 C1432 0.930 . S
H1387 C1433 0.929 . S
O1388 H1362 0.856 . S
O1388 C1434 1.300 . S
O1389 C1434 1.209 . S
O1390 C1435 1.199 . S
O1391 H1363 0.854 . S
O1391 C1435 1.297 . S
C1392 C1393 1.404 . S
C1392 C1397 1.397 . S
C1392 C1398 1.492 . S
C1393 C1392 1.404 . S
C1393 C1394 1.396 . S
C1393 C1404 1.492 . S
C1394 C1393 1.396 . S
C1394 C1395 1.397 . S
C1394 C1410 1.509 . S
C1395 C1394 1.397 . S
C1395 C1396 1.412 . S
C1395 C1416 1.485 . S
C1396 C1395 1.412 . S
C1396 C1397 1.388 . S
C1396 C1422 1.490 . S
C1397 C1392 1.397 . S
C1397 C1396 1.388 . S
C1397 C1428 1.519 . S
C1398 C1392 1.492 . S
C1398 C1399 1.363 . S
C1398 C1403 1.390 . S
C1399 H1364 0.930 . S
C1399 C1398 1.363 . S
C1399 C1400 1.372 . S
C1400 H1365 0.930 . S
C1400 C1399 1.372 . S
C1400 C1401 1.383 . S
C1401 C1400 1.383 . S
C1401 C1402 1.395 . S
C1402 H1366 0.930 . S
C1402 C1401 1.395 . S
C1402 C1403 1.362 . S
C1403 H1367 0.930 . S
C1403 C1398 1.390 . S
C1403 C1402 1.362 . S
C1404 C1393 1.492 . S
C1404 C1405 1.377 . S
C1404 C1409 1.397 . S
C1405 H1368 0.931 . S
C1405 C1404 1.377 . S
C1405 C1406 1.376 . S
C1406 H1369 0.930 . S
C1406 C1405 1.376 . S
C1406 C1407 1.376 . S
C1407 C1406 1.376 . S
C1407 C1408 1.378 . S
C1407 C1434 1.486 . S
C1408 H1370 0.930 . S
C1408 C1407 1.378 . S
C1408 C1409 1.376 . S
C1409 H1371 0.929 . S
C1409 C1404 1.397 . S
C1409 C1408 1.376 . S
C1410 C1394 1.509 . S
C1410 C1411 1.391 . S
C1410 C1415 1.386 . S
C1411 H1372 0.930 . S
C1411 C1410 1.391 . S
C1411 C1412 1.375 . S
C1412 H1373 0.931 . S
C1412 C1411 1.375 . S
C1412 C1413 1.375 . S
C1413 C1412 1.375 . S
C1413 C1414 1.361 . S
C1414 H1374 0.930 . S
C1414 C1413 1.361 . S
C1414 C1415 1.399 . S
C1415 H1375 0.929 . S
C1415 C1410 1.386 . S
C1415 C1414 1.399 . S
C1416 C1395 1.485 . S
C1416 C1417 1.394 . S
C1416 C1421 1.360 . S
C1417 H1376 0.931 . S
C1417 C1416 1.394 . S
C1417 C1418 1.372 . S
C1418 H1377 0.930 . S
C1418 C1417 1.372 . S
C1418 C1419 1.397 . S
C1419 C1418 1.397 . S
C1419 C1420 1.390 . S
C1419 C1435 1.476 . S
C1420 H1378 0.930 . S
C1420 C1419 1.390 . S
C1420 C1421 1.366 . S
C1421 H1379 0.932 . S
C1421 C1416 1.360 . S
C1421 C1420 1.366 . S
C1422 C1396 1.490 . S
C1422 C1423 1.380 . S
C1422 C1427 1.386 . S
C1423 H1380 0.930 . S
C1423 C1422 1.380 . S
C1423 C1424 1.381 . S
C1424 H1381 0.929 . S
C1424 C1423 1.381 . S
C1424 C1425 1.371 . S
C1425 C1424 1.371 . S
C1425 C1426 1.380 . S
C1426 H1382 0.931 . S
C1426 C1425 1.380 . S
C1426 C1427 1.387 . S
C1427 H1383 0.930 . S
C1427 C1422 1.386 . S
C1427 C1426 1.387 . S
C1428 C1397 1.519 . S
C1428 C1429 1.377 . S
C1428 C1433 1.361 . S
C1429 H1384 0.929 . S
C1429 C1428 1.377 . S
C1429 C1430 1.386 . S
C1430 H1385 0.931 . S
C1430 C1429 1.386 . S
C1430 C1431 1.363 . S
C1431 C1430 1.363 . S
C1431 C1432 1.385 . S
C1432 H1386 0.930 . S
C1432 C1431 1.385 . S
C1432 C1433 1.396 . S
C1433 H1387 0.929 . S
C1433 C1428 1.361 . S
C1433 C1432 1.396 . S
C1434 O1388 1.300 . S
C1434 O1389 1.209 . S
C1434 C1407 1.486 . S
C1435 O1390 1.199 . S
C1435 O1391 1.297 . S
C1435 C1419 1.476 . S
H1436 O1462 0.856 . S
H1437 O1465 0.854 . S
H1438 C1473 0.930 . S
H1439 C1474 0.930 . S
H1440 C1476 0.930 . S
H1441 C1477 0.930 . S
H1442 C1479 0.931 . S
H1443 C1480 0.930 . S
H1444 C1482 0.930 . S
H1445 C1483 0.929 . S
H1446 C1485 0.930 . S
H1447 C1486 0.931 . S
H1448 C1488 0.930 . S
H1449 C1489 0.929 . S
H1450 C1491 0.931 . S
H1451 C1492 0.930 . S
H1452 C1494 0.930 . S
H1453 C1495 0.932 . S
H1454 C1497 0.930 . S
H1455 C1498 0.929 . S
H1456 C1500 0.931 . S
H1457 C1501 0.930 . S
H1458 C1503 0.929 . S
H1459 C1504 0.931 . S
H1460 C1506 0.930 . S
H1461 C1507 0.929 . S
O1462 H1436 0.856 . S
O1462 C1508 1.300 . S
O1463 C1508 1.209 . S
O1464 C1509 1.199 . S
O1465 H1437 0.854 . S
O1465 C1509 1.297 . S
C1466 C1467 1.404 . S
C1466 C1471 1.397 . S
C1466 C1472 1.492 . S
C1467 C1466 1.404 . S
C1467 C1468 1.396 . S
C1467 C1478 1.492 . S
C1468 C1467 1.396 . S
C1468 C1469 1.397 . S
C1468 C1484 1.509 . S
C1469 C1468 1.397 . S
C1469 C1470 1.412 . S
C1469 C1490 1.485 . S
C1470 C1469 1.412 . S
C1470 C1471 1.388 . S
C1470 C1496 1.490 . S
C1471 C1466 1.397 . S
C1471 C1470 1.388 . S
C1471 C1502 1.519 . S
C1472 C1466 1.492 . S
C1472 C1473 1.363 . S
C1472 C1477 1.390 . S
C1473 H1438 0.930 . S
C1473 C1472 1.363 . S
C1473 C1474 1.372 . S
C1474 H1439 0.930 . S
C1474 C1473 1.372 . S
C1474 C1475 1.383 . S
C1475 C1474 1.383 . S
C1475 C1476 1.395 . S
C1476 H1440 0.930 . S
C1476 C1475 1.395 . S
C1476 C1477 1.362 . S
C1477 H1441 0.930 . S
C1477 C1472 1.390 . S
C1477 C1476 1.362 . S
C1478 C1467 1.492 . S
C1478 C1479 1.377 . S
C1478 C1483 1.397 . S
C1479 H1442 0.931 . S
C1479 C1478 1.377 . S
C1479 C1480 1.376 . S
C1480 H1443 0.930 . S
C1480 C1479 1.376 . S
C1480 C1481 1.376 . S
C1481 C1480 1.376 . S
C1481 C1482 1.378 . S
C1481 C1508 1.486 . S
C1482 H1444 0.930 . S
C1482 C1481 1.378 . S
C1482 C1483 1.376 . S
C1483 H1445 0.929 . S
C1483 C1478 1.397 . S
C1483 C1482 1.376 . S
C1484 C1468 1.509 . S
C1484 C1485 1.391 . S
C1484 C1489 1.386 . S
C1485 H1446 0.930 . S
C1485 C1484 1.391 . S
C1485 C1486 1.375 . S
C1486 H1447 0.931 . S
C1486 C1485 1.375 . S
C1486 C1487 1.375 . S
C1487 C1486 1.375 . S
C1487 C1488 1.361 . S
C1488 H1448 0.930 . S
C1488 C1487 1.361 . S
C1488 C1489 1.399 . S
C1489 H1449 0.929 . S
C1489 C1484 1.386 . S
C1489 C1488 1.399 . S
C1490 C1469 1.485 . S
C1490 C1491 1.394 . S
C1490 C1495 1.360 . S
C1491 H1450 0.931 . S
C1491 C1490 1.394 . S
C1491 C1492 1.372 . S
C1492 H1451 0.930 . S
C1492 C1491 1.372 . S
C1492 C1493 1.397 . S
C1493 C1492 1.397 . S
C1493 C1494 1.390 . S
C1493 C1509 1.476 . S
C1494 H1452 0.930 . S
C1494 C1493 1.390 . S
C1494 C1495 1.366 . S
C1495 H1453 0.932 . S
C1495 C1490 1.360 . S
C1495 C1494 1.366 . S
C1496 C1470 1.490 . S
C1496 C1497 1.380 . S
C1496 C1501 1.386 . S
C1497 H1454 0.930 . S
C1497 C1496 1.380 . S
C1497 C1498 1.381 . S
C1498 H1455 0.929 . S
C1498 C1497 1.381 . S
C1498 C1499 1.371 . S
C1499 C1498 1.371 . S
C1499 C1500 1.380 . S
C1500 H1456 0.931 . S
C1500 C1499 1.380 . S
C1500 C1501 1.387 . S
C1501 H1457 0.930 . S
C1501 C1496 1.386 . S
C1501 C1500 1.387 . S
C1502 C1471 1.519 . S
C1502 C1503 1.377 . S
C1502 C1507 1.361 . S
C1503 H1458 0.929 . S
C1503 C1502 1.377 . S
C1503 C1504 1.386 . S
C1504 H1459 0.931 . S
C1504 C1503 1.386 . S
C1504 C1505 1.363 . S
C1505 C1504 1.363 . S
C1505 C1506 1.385 . S
C1506 H1460 0.930 . S
C1506 C1505 1.385 . S
C1506 C1507 1.396 . S
C1507 H1461 0.929 . S
C1507 C1502 1.361 . S
C1507 C1506 1.396 . S
C1508 O1462 1.300 . S
C1508 O1463 1.209 . S
C1508 C1481 1.486 . S
C1509 O1464 1.199 . S
C1509 O1465 1.297 . S
C1509 C1493 1.476 . S
H1510 O1536 0.856 . S
H1511 O1539 0.854 . S
H1512 C1547 0.930 . S
H1513 C1548 0.930 . S
H1514 C1550 0.930 . S
H1515 C1551 0.930 . S
H1516 C1553 0.931 . S
H1517 C1554 0.930 . S
H1518 C1556 0.930 . S
H1519 C1557 0.929 . S
H1520 C1559 0.930 . S
H1521 C1560 0.931 . S
H1522 C1562 0.930 . S
H1523 C1563 0.929 . S
H1524 C1565 0.931 . S
H1525 C1566 0.930 . S
H1526 C1568 0.930 . S
H1527 C1569 0.932 . S
H1528 C1571 0.930 . S
H1529 C1572 0.929 . S
H1530 C1574 0.931 . S
H1531 C1575 0.930 . S
H1532 C1577 0.929 . S
H1533 C1578 0.931 . S
H1534 C1580 0.930 . S
H1535 C1581 0.929 . S
O1536 H1510 0.856 . S
O1536 C1582 1.300 . S
O1537 C1582 1.209 . S
O1538 C1583 1.199 . S
O1539 H1511 0.854 . S
O1539 C1583 1.297 . S
C1540 C1541 1.404 . S
C1540 C1545 1.397 . S
C1540 C1546 1.492 . S
C1541 C1540 1.404 . S
C1541 C1542 1.396 . S
C1541 C1552 1.492 . S
C1542 C1541 1.396 . S
C1542 C1543 1.397 . S
C1542 C1558 1.509 . S
C1543 C1542 1.397 . S
C1543 C1544 1.412 . S
C1543 C1564 1.485 . S
C1544 C1543 1.412 . S
C1544 C1545 1.388 . S
C1544 C1570 1.490 . S
C1545 C1540 1.397 . S
C1545 C1544 1.388 . S
C1545 C1576 1.519 . S
C1546 C1540 1.492 . S
C1546 C1547 1.363 . S
C1546 C1551 1.390 . S
C1547 H1512 0.930 . S
C1547 C1546 1.363 . S
C1547 C1548 1.372 . S
C1548 H1513 0.930 . S
C1548 C1547 1.372 . S
C1548 C1549 1.383 . S
C1549 C1548 1.383 . S
C1549 C1550 1.395 . S
C1550 H1514 0.930 . S
C1550 C1549 1.395 . S
C1550 C1551 1.362 . S
C1551 H1515 0.930 . S
C1551 C1546 1.390 . S
C1551 C1550 1.362 . S
C1552 C1541 1.492 . S
C1552 C1553 1.377 . S
C1552 C1557 1.397 . S
C1553 H1516 0.931 . S
C1553 C1552 1.377 . S
C1553 C1554 1.376 . S
C1554 H1517 0.930 . S
C1554 C1553 1.376 . S
C1554 C1555 1.376 . S
C1555 C1554 1.376 . S
C1555 C1556 1.378 . S
C1555 C1582 1.486 . S
C1556 H1518 0.930 . S
C1556 C1555 1.378 . S
C1556 C1557 1.376 . S
C1557 H1519 0.929 . S
C1557 C1552 1.397 . S
C1557 C1556 1.376 . S
C1558 C1542 1.509 . S
C1558 C1559 1.391 . S
C1558 C1563 1.386 . S
C1559 H1520 0.930 . S
C1559 C1558 1.391 . S
C1559 C1560 1.375 . S
C1560 H1521 0.931 . S
C1560 C1559 1.375 . S
C1560 C1561 1.375 . S
C1561 C1560 1.375 . S
C1561 C1562 1.361 . S
C1562 H1522 0.930 . S
C1562 C1561 1.361 . S
C1562 C1563 1.399 . S
C1563 H1523 0.929 . S
C1563 C1558 1.386 . S
C1563 C1562 1.399 . S
C1564 C1543 1.485 . S
C1564 C1565 1.394 . S
C1564 C1569 1.360 . S
C1565 H1524 0.931 . S
C1565 C1564 1.394 . S
C1565 C1566 1.372 . S
C1566 H1525 0.930 . S
C1566 C1565 1.372 . S
C1566 C1567 1.397 . S
C1567 C1566 1.397 . S
C1567 C1568 1.390 . S
C1567 C1583 1.476 . S
C1568 H1526 0.930 . S
C1568 C1567 1.390 . S
C1568 C1569 1.366 . S
C1569 H1527 0.932 . S
C1569 C1564 1.360 . S
C1569 C1568 1.366 . S
C1570 C1544 1.490 . S
C1570 C1571 1.380 . S
C1570 C1575 1.386 . S
C1571 H1528 0.930 . S
C1571 C1570 1.380 . S
C1571 C1572 1.381 . S
C1572 H1529 0.929 . S
C1572 C1571 1.381 . S
C1572 C1573 1.371 . S
C1573 C1572 1.371 . S
C1573 C1574 1.380 . S
C1574 H1530 0.931 . S
C1574 C1573 1.380 . S
C1574 C1575 1.387 . S
C1575 H1531 0.930 . S
C1575 C1570 1.386 . S
C1575 C1574 1.387 . S
C1576 C1545 1.519 . S
C1576 C1577 1.377 . S
C1576 C1581 1.361 . S
C1577 H1532 0.929 . S
C1577 C1576 1.377 . S
C1577 C1578 1.386 . S
C1578 H1533 0.931 . S
C1578 C1577 1.386 . S
C1578 C1579 1.363 . S
C1579 C1578 1.363 . S
C1579 C1580 1.385 . S
C1580 H1534 0.930 . S
C1580 C1579 1.385 . S
C1580 C1581 1.396 . S
C1581 H1535 0.929 . S
C1581 C1576 1.361 . S
C1581 C1580 1.396 . S
C1582 O1536 1.300 . S
C1582 O1537 1.209 . S
C1582 C1555 1.486 . S
C1583 O1538 1.199 . S
C1583 O1539 1.297 . S
C1583 C1567 1.476 . S
H1584 C1602 0.955 . S
H1585 C1604 0.951 . S
H1586 C1606 0.950 . S
H1587 C1607 0.923 . S
H1588 C1609 0.950 . S
H1589 C1612 0.950 . S
H1590 C1613 0.950 . S
H1591 C1615 0.950 . S
H1592 C1616 0.950 . S
H1593 C1617 0.951 . S
H1594 C1619 0.951 . S
H1595 C1621 0.950 . S
H1596 C1622 0.950 . S
H1597 C1624 0.950 . S
H1598 C1627 0.950 . S
H1599 C1628 0.950 . S
H1600 C1630 0.950 . S
H1601 C1631 0.950 . S
C1602 H1584 0.955 . S
C1602 C1603 1.342 1_655 S
C1602 C1604 1.411 . S
C1603 C1602 1.342 1_455 S
C1603 C1607 1.388 1_455 S
C1604 H1585 0.951 . S
C1604 C1602 1.411 . S
C1604 C1605 1.366 . S
C1605 C1604 1.366 . S
C1605 C1606 1.414 . S
C1605 C1608 1.499 . S
C1606 H1586 0.950 . S
C1606 C1605 1.414 . S
C1606 C1607 1.395 . S
C1607 H1587 0.923 . S
C1607 C1603 1.388 1_655 S
C1607 C1606 1.395 . S
C1608 C1605 1.499 . S
C1608 C1609 1.373 . S
C1608 C1610 1.389 1_655 S
C1609 H1588 0.950 . S
C1609 C1608 1.373 . S
C1609 C1625 1.377 . S
C1610 C1608 1.389 1_455 S
C1610 C1611 1.524 . S
C1610 C1624 1.377 . S
C1611 C1610 1.524 . S
C1611 C1612 1.397 . S
C1611 C1616 1.363 . S
C1612 H1589 0.950 . S
C1612 C1611 1.397 . S
C1612 C1613 1.334 . S
C1613 H1590 0.950 . S
C1613 C1612 1.334 . S
C1613 C1614 1.287 . S
C1614 C1613 1.287 . S
C1614 C1615 1.524 . S
C1614 H1633 0.913 . S
C1615 H1591 0.950 . S
C1615 C1614 1.524 . S
C1615 C1616 1.415 . S
C1616 H1592 0.950 . S
C1616 C1611 1.363 . S
C1616 C1615 1.415 . S
C1617 H1593 0.951 . S
C1617 C1618 1.366 . S
C1617 C1619 1.388 . S
C1618 C1617 1.366 . S
C1618 C1622 1.385 . S
C1619 H1594 0.951 . S
C1619 C1617 1.388 . S
C1619 C1620 1.366 . S
C1620 C1619 1.366 . S
C1620 C1621 1.414 . S
C1620 C1623 1.499 . S
C1621 H1595 0.950 . S
C1621 C1620 1.414 . S
C1621 C1622 1.374 . S
C1622 H1596 0.950 . S
C1622 C1618 1.385 . S
C1622 C1621 1.374 . S
C1623 C1620 1.499 . S
C1623 C1624 1.373 1_655 S
C1623 C1625 1.389 . S
C1624 H1597 0.950 . S
C1624 C1610 1.377 . S
C1624 C1623 1.373 1_455 S
C1625 C1609 1.377 . S
C1625 C1623 1.389 . S
C1625 C1626 1.524 . S
C1626 C1625 1.524 . S
C1626 C1627 1.397 . S
C1626 C1631 1.363 . S
C1627 H1598 0.950 . S
C1627 C1626 1.397 . S
C1627 C1628 1.334 . S
C1628 H1599 0.950 . S
C1628 C1627 1.334 . S
C1628 C1629 1.287 . S
C1629 C1628 1.287 . S
C1629 C1630 1.524 . S
C1629 H1632 0.999 . S
C1630 H1600 0.950 . S
C1630 C1629 1.524 . S
C1630 C1631 1.415 . S
C1631 H1601 0.950 . S
C1631 C1626 1.363 . S
C1631 C1630 1.415 . S
H1632 C1629 0.999 . S
H1633 C1614 0.913 . S
H1634 C1652 0.951 . S
H1635 C1654 0.951 . S
H1636 C1656 0.950 . S
H1637 C1657 0.950 . S
H1638 C1659 0.950 . S
H1639 C1662 0.950 . S
H1640 C1663 0.950 . S
H1641 C1665 0.950 . S
H1642 C1666 0.950 . S
H1643 C1667 0.951 . S
H1644 C1669 0.951 . S
H1645 C1671 0.950 . S
H1646 C1672 0.950 . S
H1647 C1674 0.950 . S
H1648 C1677 0.950 . S
H1649 C1678 0.950 . S
H1650 C1680 0.950 . S
H1651 C1681 0.950 . S
C1652 H1634 0.951 . S
C1652 C1653 1.366 . S
C1652 C1654 1.388 . S
C1653 C1652 1.366 . S
C1653 C1657 1.385 . S
C1654 H1635 0.951 . S
C1654 C1652 1.388 . S
C1654 C1655 1.366 . S
C1655 C1654 1.366 . S
C1655 C1656 1.414 . S
C1655 C1658 1.499 . S
C1656 H1636 0.950 . S
C1656 C1655 1.414 . S
C1656 C1657 1.374 . S
C1657 H1637 0.950 . S
C1657 C1653 1.385 . S
C1657 C1656 1.374 . S
C1658 C1655 1.499 . S
C1658 C1659 1.373 . S
C1658 C1660 1.389 . S
C1659 H1638 0.950 . S
C1659 C1658 1.373 . S
C1659 C1675 1.377 . S
C1660 C1658 1.389 . S
C1660 C1661 1.524 . S
C1660 C1674 1.377 . S
C1661 C1660 1.524 . S
C1661 C1662 1.397 . S
C1661 C1666 1.363 . S
C1662 H1639 0.950 . S
C1662 C1661 1.397 . S
C1662 C1663 1.334 . S
C1663 H1640 0.950 . S
C1663 C1662 1.334 . S
C1663 C1664 1.287 . S
C1664 C1663 1.287 . S
C1664 C1665 1.524 . S
C1664 H1683 0.913 . S
C1665 H1641 0.950 . S
C1665 C1664 1.524 . S
C1665 C1666 1.415 . S
C1666 H1642 0.950 . S
C1666 C1661 1.363 . S
C1666 C1665 1.415 . S
C1667 H1643 0.951 . S
C1667 C1668 1.366 . S
C1667 C1669 1.388 . S
C1668 C1667 1.366 . S
C1668 C1672 1.385 . S
C1669 H1644 0.951 . S
C1669 C1667 1.388 . S
C1669 C1670 1.366 . S
C1670 C1669 1.366 . S
C1670 C1671 1.414 . S
C1670 C1673 1.499 . S
C1671 H1645 0.950 . S
C1671 C1670 1.414 . S
C1671 C1672 1.374 . S
C1672 H1646 0.950 . S
C1672 C1668 1.385 . S
C1672 C1671 1.374 . S
C1673 C1670 1.499 . S
C1673 C1674 1.373 . S
C1673 C1675 1.389 . S
C1674 H1647 0.950 . S
C1674 C1660 1.377 . S
C1674 C1673 1.373 . S
C1675 C1659 1.377 . S
C1675 C1673 1.389 . S
C1675 C1676 1.524 . S
C1676 C1675 1.524 . S
C1676 C1677 1.397 . S
C1676 C1681 1.363 . S
C1677 H1648 0.950 . S
C1677 C1676 1.397 . S
C1677 C1678 1.334 . S
C1678 H1649 0.950 . S
C1678 C1677 1.334 . S
C1678 C1679 1.287 . S
C1679 C1678 1.287 . S
C1679 C1680 1.524 . S
C1679 H1682 0.999 . S
C1680 H1650 0.950 . S
C1680 C1679 1.524 . S
C1680 C1681 1.415 . S
C1681 H1651 0.950 . S
C1681 C1676 1.363 . S
C1681 C1680 1.415 . S
H1682 C1679 0.999 . S
H1683 C1664 0.913 . S
H1684 C1702 0.951 1_565 S
H1685 C1704 0.951 1_565 S
H1686 C1706 0.950 . S
H1687 C1707 0.950 . S
H1688 C1709 0.950 . S
H1689 C1712 0.950 . S
H1690 C1713 0.950 . S
H1691 C1715 0.950 . S
H1692 C1716 0.950 . S
H1693 C1717 0.951 . S
H1694 C1719 0.951 . S
H1695 C1721 0.950 1_565 S
H1696 C1722 0.914 1_565 S
H1697 C1724 0.950 . S
H1698 C1727 0.950 . S
H1699 C1728 0.950 . S
H1700 C1730 0.950 . S
H1701 C1731 0.950 . S
C1702 H1684 0.951 1_545 S
C1702 C1703 1.366 . S
C1702 C1704 1.388 . S
C1703 C1702 1.366 . S
C1703 C1707 1.385 . S
C1704 H1685 0.951 1_545 S
C1704 C1702 1.388 . S
C1704 C1705 1.366 . S
C1705 C1704 1.366 . S
C1705 C1706 1.414 . S
C1705 C1708 1.499 . S
C1706 H1686 0.950 . S
C1706 C1705 1.414 . S
C1706 C1707 1.374 . S
C1707 H1687 0.950 . S
C1707 C1703 1.385 . S
C1707 C1706 1.374 . S
C1708 C1705 1.499 . S
C1708 C1709 1.373 . S
C1708 C1710 1.389 1_545 S
C1709 H1688 0.950 . S
C1709 C1708 1.373 . S
C1709 C1725 1.377 . S
C1710 C1708 1.389 1_565 S
C1710 C1711 1.524 . S
C1710 C1724 1.377 . S
C1711 C1710 1.524 . S
C1711 C1712 1.397 . S
C1711 C1716 1.363 . S
C1712 H1689 0.950 . S
C1712 C1711 1.397 . S
C1712 C1713 1.334 . S
C1713 H1690 0.950 . S
C1713 C1712 1.334 . S
C1713 C1714 1.287 . S
C1714 C1713 1.287 . S
C1714 C1715 1.524 . S
C1714 H1733 0.913 . S
C1715 H1691 0.950 . S
C1715 C1714 1.524 . S
C1715 C1716 1.415 . S
C1716 H1692 0.950 . S
C1716 C1711 1.363 . S
C1716 C1715 1.415 . S
C1717 H1693 0.951 . S
C1717 C1718 1.366 . S
C1717 C1719 1.388 . S
C1718 C1717 1.366 . S
C1718 C1722 1.385 . S
C1719 H1694 0.951 . S
C1719 C1717 1.388 . S
C1719 C1720 1.366 . S
C1720 C1719 1.366 . S
C1720 C1721 1.414 . S
C1720 C1723 1.499 . S
C1721 H1695 0.950 1_545 S
C1721 C1720 1.414 . S
C1721 C1722 1.374 . S
C1722 H1696 0.914 1_545 S
C1722 C1718 1.385 . S
C1722 C1721 1.374 . S
C1723 C1720 1.499 . S
C1723 C1724 1.373 1_545 S
C1723 C1725 1.389 . S
C1724 H1697 0.950 . S
C1724 C1710 1.377 . S
C1724 C1723 1.373 1_565 S
C1725 C1709 1.377 . S
C1725 C1723 1.389 . S
C1725 C1726 1.524 . S
C1726 C1725 1.524 . S
C1726 C1727 1.397 . S
C1726 C1731 1.363 . S
C1727 H1698 0.950 . S
C1727 C1726 1.397 . S
C1727 C1728 1.334 . S
C1728 H1699 0.950 . S
C1728 C1727 1.334 . S
C1728 C1729 1.287 . S
C1729 C1728 1.287 . S
C1729 C1730 1.524 . S
C1729 H1732 0.999 . S
C1730 H1700 0.950 . S
C1730 C1729 1.524 . S
C1730 C1731 1.415 . S
C1731 H1701 0.950 . S
C1731 C1726 1.363 . S
C1731 C1730 1.415 . S
H1732 C1729 0.999 . S
H1733 C1714 0.913 . S
H1734 C1752 0.951 . S
H1735 C1754 0.951 . S
H1736 C1756 0.950 . S
H1737 C1757 0.950 . S
H1738 C1759 0.978 . S
H1739 C1762 0.950 1_545 S
H1740 C1763 0.936 1_545 S
H1741 C1765 0.950 . S
H1742 C1766 0.950 . S
H1743 C1767 0.951 . S
H1744 C1769 0.951 . S
H1745 C1771 0.950 . S
H1746 C1772 0.950 . S
H1747 C1774 0.950 . S
H1748 C1777 0.950 . S
H1749 C1778 0.950 . S
H1750 C1780 0.950 . S
H1751 C1781 0.950 . S
C1752 H1734 0.951 . S
C1752 C1753 1.366 . S
C1752 C1754 1.388 . S
C1753 C1752 1.366 . S
C1753 C1757 1.385 1_565 S
C1754 H1735 0.951 . S
C1754 C1752 1.388 . S
C1754 C1755 1.366 . S
C1755 C1754 1.366 . S
C1755 C1756 1.414 1_565 S
C1755 C1758 1.499 . S
C1756 H1736 0.950 . S
C1756 C1755 1.414 1_545 S
C1756 C1757 1.374 . S
C1757 H1737 0.950 . S
C1757 C1753 1.385 1_545 S
C1757 C1756 1.374 . S
C1758 C1755 1.499 . S
C1758 C1759 1.357 1_565 S
C1758 C1760 1.389 . S
C1759 H1738 0.978 . S
C1759 C1758 1.357 1_545 S
C1759 C1775 1.366 1_545 S
C1760 C1758 1.389 . S
C1760 C1761 1.524 . S
C1760 C1774 1.377 . S
C1761 C1760 1.524 . S
C1761 C1762 1.397 . S
C1761 C1766 1.363 . S
C1762 H1739 0.950 1_565 S
C1762 C1761 1.397 . S
C1762 C1763 1.334 . S
C1763 H1740 0.936 1_565 S
C1763 C1762 1.334 . S
C1763 C1764 1.287 . S
C1764 C1763 1.287 . S
C1764 C1765 1.524 . S
C1764 H1783 0.913 . S
C1765 H1741 0.950 . S
C1765 C1764 1.524 . S
C1765 C1766 1.415 . S
C1766 H1742 0.950 . S
C1766 C1761 1.363 . S
C1766 C1765 1.415 . S
C1767 H1743 0.951 . S
C1767 C1768 1.366 1_545 S
C1767 C1769 1.388 . S
C1768 C1767 1.366 1_565 S
C1768 C1772 1.385 . S
C1769 H1744 0.951 . S
C1769 C1767 1.388 . S
C1769 C1770 1.366 1_545 S
C1770 C1769 1.366 1_565 S
C1770 C1771 1.414 . S
C1770 C1773 1.499 . S
C1771 H1745 0.950 . S
C1771 C1770 1.414 . S
C1771 C1772 1.374 . S
C1772 H1746 0.950 . S
C1772 C1768 1.385 . S
C1772 C1771 1.374 . S
C1773 C1770 1.499 . S
C1773 C1774 1.373 . S
C1773 C1775 1.389 . S
C1774 H1747 0.950 . S
C1774 C1760 1.377 . S
C1774 C1773 1.373 . S
C1775 C1759 1.366 1_565 S
C1775 C1773 1.389 . S
C1775 C1776 1.524 1_565 S
C1776 C1775 1.524 1_545 S
C1776 C1777 1.397 1_545 S
C1776 C1781 1.363 . S
C1777 H1748 0.950 . S
C1777 C1776 1.397 1_565 S
C1777 C1778 1.334 . S
C1778 H1749 0.950 . S
C1778 C1777 1.334 . S
C1778 C1779 1.287 1_565 S
C1779 C1778 1.287 1_545 S
C1779 C1780 1.524 . S
C1779 H1782 0.999 . S
C1780 H1750 0.950 . S
C1780 C1779 1.524 . S
C1780 C1781 1.415 . S
C1781 H1751 0.950 . S
C1781 C1776 1.363 . S
C1781 C1780 1.415 . S
H1782 C1779 0.999 . S
H1783 C1764 0.913 . S
H1784 C1802 0.951 . S
H1785 C1804 0.951 . S
H1786 C1806 0.950 1_655 S
H1787 C1807 0.916 1_655 S
H1788 C1809 0.950 . S
H1789 C1812 0.950 . S
H1790 C1813 0.950 . S
H1791 C1815 0.950 . S
H1792 C1816 0.950 . S
H1793 C1817 0.951 1_655 S
H1794 C1819 0.951 1_655 S
H1795 C1821 0.950 . S
H1796 C1822 0.950 . S
H1797 C1824 0.950 . S
H1798 C1827 0.950 . S
H1799 C1828 0.950 . S
H1800 C1830 0.950 . S
H1801 C1831 0.950 . S
C1802 H1784 0.951 . S
C1802 C1803 1.366 . S
C1802 C1804 1.388 . S
C1803 C1802 1.366 . S
C1803 C1807 1.439 . S
C1804 H1785 0.951 . S
C1804 C1802 1.388 . S
C1804 C1805 1.366 . S
C1805 C1804 1.366 . S
C1805 C1806 1.414 . S
C1805 C1808 1.499 . S
C1806 H1786 0.950 1_455 S
C1806 C1805 1.414 . S
C1806 C1807 1.356 . S
C1807 H1787 0.916 1_455 S
C1807 C1803 1.439 . S
C1807 C1806 1.356 . S
C1808 C1805 1.499 . S
C1808 C1809 1.373 1_455 S
C1808 C1810 1.389 . S
C1809 H1788 0.950 . S
C1809 C1808 1.373 1_655 S
C1809 C1825 1.377 . S
C1810 C1808 1.389 . S
C1810 C1811 1.524 . S
C1810 C1824 1.377 . S
C1811 C1810 1.524 . S
C1811 C1812 1.397 . S
C1811 C1816 1.363 . S
C1812 H1789 0.950 . S
C1812 C1811 1.397 . S
C1812 C1813 1.334 . S
C1813 H1790 0.950 . S
C1813 C1812 1.334 . S
C1813 C1814 1.287 . S
C1814 C1813 1.287 . S
C1814 C1815 1.524 . S
C1814 H1833 0.913 . S
C1815 H1791 0.950 . S
C1815 C1814 1.524 . S
C1815 C1816 1.415 . S
C1816 H1792 0.950 . S
C1816 C1811 1.363 . S
C1816 C1815 1.415 . S
C1817 H1793 0.951 1_455 S
C1817 C1818 1.366 . S
C1817 C1819 1.388 . S
C1818 C1817 1.366 . S
C1818 C1822 1.385 . S
C1819 H1794 0.951 1_455 S
C1819 C1817 1.388 . S
C1819 C1820 1.366 . S
C1820 C1819 1.366 . S
C1820 C1821 1.414 . S
C1820 C1823 1.499 . S
C1821 H1795 0.950 . S
C1821 C1820 1.414 . S
C1821 C1822 1.374 . S
C1822 H1796 0.950 . S
C1822 C1818 1.385 . S
C1822 C1821 1.374 . S
C1823 C1820 1.499 . S
C1823 C1824 1.373 . S
C1823 C1825 1.389 1_455 S
C1824 H1797 0.950 . S
C1824 C1810 1.377 . S
C1824 C1823 1.373 . S
C1825 C1809 1.377 . S
C1825 C1823 1.389 1_655 S
C1825 C1826 1.524 . S
C1826 C1825 1.524 . S
C1826 C1827 1.397 . S
C1826 C1831 1.363 . S
C1827 H1798 0.950 . S
C1827 C1826 1.397 . S
C1827 C1828 1.334 . S
C1828 H1799 0.950 . S
C1828 C1827 1.334 . S
C1828 C1829 1.287 . S
C1829 C1828 1.287 . S
C1829 C1830 1.524 . S
C1829 H1832 0.999 . S
C1830 H1800 0.950 . S
C1830 C1829 1.524 . S
C1830 C1831 1.415 . S
C1831 H1801 0.950 . S
C1831 C1826 1.363 . S
C1831 C1830 1.415 . S
H1832 C1829 0.999 . S
H1833 C1814 0.913 . S
H1834 C1852 0.951 . S
H1835 C1854 0.951 . S
H1836 C1856 0.950 . S
H1837 C1857 0.950 . S
H1838 C1859 0.950 . S
H1839 C1862 0.950 . S
H1840 C1863 0.950 . S
H1841 C1865 0.950 . S
H1842 C1866 0.950 . S
H1843 C1867 0.951 . S
H1844 C1869 0.951 . S
H1845 C1871 0.950 . S
H1846 C1872 0.950 . S
H1847 C1874 0.950 . S
H1848 C1877 0.950 . S
H1849 C1878 0.950 . S
H1850 C1880 0.950 . S
H1851 C1881 0.950 . S
C1852 H1834 0.951 . S
C1852 C1853 1.366 . S
C1852 C1854 1.388 1_554 S
C1853 C1852 1.366 . S
C1853 C1857 1.385 . S
C1854 H1835 0.951 . S
C1854 C1852 1.388 1_556 S
C1854 C1855 1.366 . S
C1855 C1854 1.366 . S
C1855 C1856 1.414 . S
C1855 C1858 1.499 . S
C1856 H1836 0.950 . S
C1856 C1855 1.414 . S
C1856 C1857 1.374 1_556 S
C1857 H1837 0.950 . S
C1857 C1853 1.385 . S
C1857 C1856 1.374 1_554 S
C1858 C1855 1.499 . S
C1858 C1859 1.373 . S
C1858 C1860 1.389 . S
C1859 H1838 0.950 . S
C1859 C1858 1.373 . S
C1859 C1875 1.377 . S
C1860 C1858 1.389 . S
C1860 C1861 1.524 . S
C1860 C1874 1.377 . S
C1861 C1860 1.524 . S
C1861 C1862 1.397 . S
C1861 C1866 1.363 . S
C1862 H1839 0.950 . S
C1862 C1861 1.397 . S
C1862 C1863 1.334 . S
C1863 H1840 0.950 . S
C1863 C1862 1.334 . S
C1863 C1864 1.287 . S
C1864 C1863 1.287 . S
C1864 C1865 1.524 . S
C1864 H1883 0.913 . S
C1865 H1841 0.950 . S
C1865 C1864 1.524 . S
C1865 C1866 1.415 . S
C1866 H1842 0.950 . S
C1866 C1861 1.363 . S
C1866 C1865 1.415 . S
C1867 H1843 0.951 . S
C1867 C1868 1.366 . S
C1867 C1869 1.388 . S
C1868 C1867 1.366 . S
C1868 C1872 1.385 . S
C1869 H1844 0.951 . S
C1869 C1867 1.388 . S
C1869 C1870 1.366 . S
C1870 C1869 1.366 . S
C1870 C1871 1.414 . S
C1870 C1873 1.499 . S
C1871 H1845 0.950 . S
C1871 C1870 1.414 . S
C1871 C1872 1.374 . S
C1872 H1846 0.950 . S
C1872 C1868 1.385 . S
C1872 C1871 1.374 . S
C1873 C1870 1.499 . S
C1873 C1874 1.373 . S
C1873 C1875 1.389 . S
C1874 H1847 0.950 . S
C1874 C1860 1.377 . S
C1874 C1873 1.373 . S
C1875 C1859 1.377 . S
C1875 C1873 1.389 . S
C1875 C1876 1.524 . S
C1876 C1875 1.524 . S
C1876 C1877 1.397 . S
C1876 C1881 1.363 . S
C1877 H1848 0.950 . S
C1877 C1876 1.397 . S
C1877 C1878 1.334 . S
C1878 H1849 0.950 . S
C1878 C1877 1.334 . S
C1878 C1879 1.287 . S
C1879 C1878 1.287 . S
C1879 C1880 1.524 . S
C1879 H1882 0.999 . S
C1880 H1850 0.950 . S
C1880 C1879 1.524 . S
C1880 C1881 1.415 . S
C1881 H1851 0.950 . S
C1881 C1876 1.363 . S
C1881 C1880 1.415 . S
H1882 C1879 0.999 . S
H1883 C1864 0.913 . S
H1884 C1902 0.951 . S
H1885 C1904 0.951 . S
H1886 C1906 0.950 1_554 S
H1887 C1907 0.961 . S
H1888 C1909 0.950 . S
H1889 C1912 0.950 . S
H1890 C1913 0.950 . S
H1891 C1915 0.950 . S
H1892 C1916 0.950 . S
H1893 C1917 0.951 . S
H1894 C1919 0.951 . S
H1895 C1921 0.950 . S
H1896 C1922 0.950 . S
H1897 C1924 0.950 . S
H1898 C1927 0.950 . S
H1899 C1928 0.950 . S
H1900 C1930 0.950 . S
H1901 C1931 0.950 . S
C1902 H1884 0.951 . S
C1902 C1903 1.366 1_556 S
C1902 C1904 1.388 . S
C1903 C1902 1.366 1_554 S
C1903 C1907 1.401 1_455 S
C1904 H1885 0.951 . S
C1904 C1902 1.388 . S
C1904 C1905 1.366 . S
C1905 C1904 1.366 . S
C1905 C1906 1.414 1_455 S
C1905 C1908 1.499 . S
C1906 H1886 0.950 1_556 S
C1906 C1905 1.414 1_655 S
C1906 C1907 1.351 1_556 S
C1907 H1887 0.961 . S
C1907 C1903 1.401 1_655 S
C1907 C1906 1.351 1_554 S
C1908 C1905 1.499 . S
C1908 C1909 1.373 . S
C1908 C1910 1.389 1_455 S
C1909 H1888 0.950 . S
C1909 C1908 1.373 . S
C1909 C1925 1.377 . S
C1910 C1908 1.389 1_655 S
C1910 C1911 1.524 . S
C1910 C1924 1.377 . S
C1911 C1910 1.524 . S
C1911 C1912 1.397 . S
C1911 C1916 1.363 . S
C1912 H1889 0.950 . S
C1912 C1911 1.397 . S
C1912 C1913 1.334 . S
C1913 H1890 0.950 . S
C1913 C1912 1.334 . S
C1913 C1914 1.287 . S
C1914 C1913 1.287 . S
C1914 C1915 1.524 . S
C1914 H1933 0.913 . S
C1915 H1891 0.950 . S
C1915 C1914 1.524 . S
C1915 C1916 1.415 . S
C1916 H1892 0.950 . S
C1916 C1911 1.363 . S
C1916 C1915 1.415 . S
C1917 H1893 0.951 . S
C1917 C1918 1.360 1_655 S
C1917 C1919 1.388 . S
C1918 C1917 1.360 1_455 S
C1918 C1922 1.374 . S
C1919 H1894 0.951 . S
C1919 C1917 1.388 . S
C1919 C1920 1.366 1_655 S
C1920 C1919 1.366 1_455 S
C1920 C1921 1.414 . S
C1920 C1923 1.499 . S
C1921 H1895 0.950 . S
C1921 C1920 1.414 . S
C1921 C1922 1.374 . S
C1922 H1896 0.950 . S
C1922 C1918 1.374 . S
C1922 C1921 1.374 . S
C1923 C1920 1.499 . S
C1923 C1924 1.373 1_455 S
C1923 C1925 1.389 . S
C1924 H1897 0.950 . S
C1924 C1910 1.377 . S
C1924 C1923 1.373 1_655 S
C1925 C1909 1.377 . S
C1925 C1923 1.389 . S
C1925 C1926 1.524 . S
C1926 C1925 1.524 . S
C1926 C1927 1.397 . S
C1926 C1931 1.363 . S
C1927 H1898 0.950 . S
C1927 C1926 1.397 . S
C1927 C1928 1.334 . S
C1928 H1899 0.950 . S
C1928 C1927 1.334 . S
C1928 C1929 1.287 . S
C1929 C1928 1.287 . S
C1929 C1930 1.524 . S
C1929 H1932 0.999 . S
C1930 H1900 0.950 . S
C1930 C1929 1.524 . S
C1930 C1931 1.415 . S
C1931 H1901 0.950 . S
C1931 C1926 1.363 . S
C1931 C1930 1.415 . S
H1932 C1929 0.999 . S
H1933 C1914 0.913 . S
H1934 C1952 0.951 . S
H1935 C1954 0.951 . S
H1936 C1956 0.950 . S
H1937 C1957 0.950 . S
H1938 C1959 0.950 . S
H1939 C1962 0.950 . S
H1940 C1963 0.950 . S
H1941 C1965 0.950 . S
H1942 C1966 0.950 . S
H1943 C1967 0.951 . S
H1944 C1969 0.951 . S
H1945 C1971 0.950 . S
H1946 C1972 0.950 . S
H1947 C1974 0.950 . S
H1948 C1977 0.950 . S
H1949 C1978 0.950 . S
H1950 C1980 0.950 . S
H1951 C1981 0.950 . S
C1952 H1934 0.951 . S
C1952 C1953 1.366 . S
C1952 C1954 1.388 . S
C1953 C1952 1.366 . S
C1953 C1957 1.385 . S
C1954 H1935 0.951 . S
C1954 C1952 1.388 . S
C1954 C1955 1.366 . S
C1955 C1954 1.366 . S
C1955 C1956 1.414 . S
C1955 C1958 1.499 . S
C1956 H1936 0.950 . S
C1956 C1955 1.414 . S
C1956 C1957 1.374 . S
C1957 H1937 0.950 . S
C1957 C1953 1.385 . S
C1957 C1956 1.374 . S
C1958 C1955 1.499 . S
C1958 C1959 1.373 . S
C1958 C1960 1.389 . S
C1959 H1938 0.950 . S
C1959 C1958 1.373 . S
C1959 C1975 1.377 . S
C1960 C1958 1.389 . S
C1960 C1961 1.524 . S
C1960 C1974 1.377 . S
C1961 C1960 1.524 . S
C1961 C1962 1.397 . S
C1961 C1966 1.363 . S
C1962 H1939 0.950 . S
C1962 C1961 1.397 . S
C1962 C1963 1.334 . S
C1963 H1940 0.950 . S
C1963 C1962 1.334 . S
C1963 C1964 1.287 . S
C1964 C1963 1.287 . S
C1964 C1965 1.524 . S
C1964 H1983 0.913 . S
C1965 H1941 0.950 . S
C1965 C1964 1.524 . S
C1965 C1966 1.415 . S
C1966 H1942 0.950 . S
C1966 C1961 1.363 . S
C1966 C1965 1.415 . S
C1967 H1943 0.951 . S
C1967 C1968 1.366 . S
C1967 C1969 1.388 . S
C1968 C1967 1.366 . S
C1968 C1972 1.385 . S
C1969 H1944 0.951 . S
C1969 C1967 1.388 . S
C1969 C1970 1.366 . S
C1970 C1969 1.366 . S
C1970 C1971 1.414 . S
C1970 C1973 1.499 . S
C1971 H1945 0.950 . S
C1971 C1970 1.414 . S
C1971 C1972 1.374 . S
C1972 H1946 0.950 . S
C1972 C1968 1.385 . S
C1972 C1971 1.374 . S
C1973 C1970 1.499 . S
C1973 C1974 1.373 . S
C1973 C1975 1.389 . S
C1974 H1947 0.950 . S
C1974 C1960 1.377 . S
C1974 C1973 1.373 . S
C1975 C1959 1.377 . S
C1975 C1973 1.389 . S
C1975 C1976 1.524 . S
C1976 C1975 1.524 . S
C1976 C1977 1.397 . S
C1976 C1981 1.363 . S
C1977 H1948 0.950 . S
C1977 C1976 1.397 . S
C1977 C1978 1.334 . S
C1978 H1949 0.950 . S
C1978 C1977 1.334 . S
C1978 C1979 1.287 . S
C1979 C1978 1.287 . S
C1979 C1980 1.524 . S
C1979 H1982 0.999 . S
C1980 H1950 0.950 . S
C1980 C1979 1.524 . S
C1980 C1981 1.415 . S
C1981 H1951 0.950 . S
C1981 C1976 1.363 . S
C1981 C1980 1.415 . S
H1982 C1979 0.999 . S
H1983 C1964 0.913 . S
H1984 C2002 0.951 . S
H1985 C2004 0.951 . S
H1986 C2006 0.950 . S
H1987 C2007 0.950 . S
H1988 C2009 0.950 . S
H1989 C2012 0.950 . S
H1990 C2013 0.950 . S
H1991 C2015 0.950 1_554 S
H1992 C2016 0.950 . S
H1993 C2017 0.951 . S
H1994 C2019 0.951 . S
H1995 C2021 0.950 . S
H1996 C2022 0.950 . S
H1997 C2024 0.950 . S
H1998 C2027 0.950 . S
H1999 C2028 0.950 . S
H2000 C2030 0.950 . S
H2001 C2031 0.950 1_565 S
C2002 H1984 0.951 . S
C2002 C2003 1.366 1_545 S
C2002 C2004 1.388 1_554 S
C2003 C2002 1.366 1_565 S
C2003 C2007 1.385 1_554 S
C2004 H1985 0.951 . S
C2004 C2002 1.388 1_556 S
C2004 C2005 1.366 1_545 S
C2005 C2004 1.366 1_565 S
C2005 C2006 1.414 . S
C2005 C2008 1.499 . S
C2006 H1986 0.950 . S
C2006 C2005 1.414 . S
C2006 C2007 1.374 . S
C2007 H1987 0.950 . S
C2007 C2003 1.385 1_556 S
C2007 C2006 1.374 . S
C2008 C2005 1.499 . S
C2008 C2009 1.373 1_565 S
C2008 C2010 1.389 . S
C2009 H1988 0.950 . S
C2009 C2008 1.373 1_545 S
C2009 C2025 1.377 . S
C2010 C2008 1.389 . S
C2010 C2011 1.524 . S
C2010 C2024 1.377 . S
C2011 C2010 1.524 . S
C2011 C2012 1.397 . S
C2011 C2016 1.363 . S
C2012 H1989 0.950 . S
C2012 C2011 1.397 . S
C2012 C2013 1.334 . S
C2013 H1990 0.950 . S
C2013 C2012 1.334 . S
C2013 C2014 1.291 . S
C2014 C2013 1.291 . S
C2014 C2015 1.527 . S
C2014 H2033 0.904 1_556 S
C2015 H1991 0.950 1_556 S
C2015 C2014 1.527 . S
C2015 C2016 1.415 . S
C2016 H1992 0.950 . S
C2016 C2011 1.363 . S
C2016 C2015 1.415 . S
C2017 H1993 0.951 . S
C2017 C2018 1.321 1_565 S
C2017 C2019 1.388 . S
C2018 C2017 1.321 1_545 S
C2018 C2022 1.408 . S
C2019 H1994 0.951 . S
C2019 C2017 1.388 . S
C2019 C2020 1.364 . S
C2020 C2019 1.364 . S
C2020 C2021 1.418 1_565 S
C2020 C2023 1.480 . S
C2021 H1995 0.950 . S
C2021 C2020 1.418 1_545 S
C2021 C2022 1.374 . S
C2022 H1996 0.950 . S
C2022 C2018 1.408 . S
C2022 C2021 1.374 . S
C2023 C2020 1.480 . S
C2023 C2024 1.382 . S
C2023 C2025 1.403 1_565 S
C2024 H1997 0.950 . S
C2024 C2010 1.377 . S
C2024 C2023 1.382 . S
C2025 C2009 1.377 . S
C2025 C2023 1.403 1_545 S
C2025 C2026 1.524 . S
C2026 C2025 1.524 . S
C2026 C2027 1.397 . S
C2026 C2031 1.363 . S
C2027 H1998 0.950 . S
C2027 C2026 1.397 . S
C2027 C2028 1.334 . S
C2028 H1999 0.950 . S
C2028 C2027 1.334 . S
C2028 C2029 1.287 . S
C2029 C2028 1.287 . S
C2029 C2030 1.524 . S
C2029 H2032 0.999 . S
C2030 H2000 0.950 . S
C2030 C2029 1.524 . S
C2030 C2031 1.415 . S
C2031 H2001 0.950 1_545 S
C2031 C2026 1.363 . S
C2031 C2030 1.415 . S
H2032 C2029 0.999 . S
H2033 C2014 0.904 1_554 S
H2034 C2052 0.951 . S
H2035 C2054 0.951 . S
H2036 C2056 0.950 . S
H2037 C2057 0.950 . S
H2038 C2059 0.950 . S
H2039 C2062 0.950 . S
H2040 C2063 0.950 . S
H2041 C2065 0.950 . S
H2042 C2066 0.950 . S
H2043 C2067 0.951 . S
H2044 C2069 0.951 . S
H2045 C2071 0.950 . S
H2046 C2072 0.950 . S
H2047 C2074 0.950 . S
H2048 C2077 0.967 . S
H2049 C2078 0.950 1_565 S
H2050 C2080 0.950 . S
H2051 C2081 0.950 . S
C2052 H2034 0.951 . S
C2052 C2053 1.366 1_565 S
C2052 C2054 1.388 . S
C2053 C2052 1.366 1_545 S
C2053 C2057 1.385 . S
C2054 H2035 0.951 . S
C2054 C2052 1.388 . S
C2054 C2055 1.366 1_565 S
C2055 C2054 1.366 1_545 S
C2055 C2056 1.414 . S
C2055 C2058 1.499 . S
C2056 H2036 0.950 . S
C2056 C2055 1.414 . S
C2056 C2057 1.374 . S
C2057 H2037 0.950 . S
C2057 C2053 1.385 . S
C2057 C2056 1.374 . S
C2058 C2055 1.499 . S
C2058 C2059 1.373 . S
C2058 C2060 1.389 1_545 S
C2059 H2038 0.950 . S
C2059 C2058 1.373 . S
C2059 C2075 1.377 . S
C2060 C2058 1.389 1_565 S
C2060 C2061 1.524 . S
C2060 C2074 1.377 . S
C2061 C2060 1.524 . S
C2061 C2062 1.397 1_565 S
C2061 C2066 1.363 . S
C2062 H2039 0.950 . S
C2062 C2061 1.397 1_545 S
C2062 C2063 1.334 . S
C2063 H2040 0.950 . S
C2063 C2062 1.334 . S
C2063 C2064 1.287 1_545 S
C2064 C2063 1.287 1_565 S
C2064 C2065 1.524 . S
C2064 H2083 0.913 . S
C2065 H2041 0.950 . S
C2065 C2064 1.524 . S
C2065 C2066 1.415 . S
C2066 H2042 0.950 . S
C2066 C2061 1.363 . S
C2066 C2065 1.415 . S
C2067 H2043 0.951 . S
C2067 C2068 1.340 1_545 S
C2067 C2069 1.388 . S
C2068 C2067 1.340 1_565 S
C2068 C2072 1.426 . S
C2069 H2044 0.951 . S
C2069 C2067 1.388 . S
C2069 C2070 1.413 . S
C2070 C2069 1.413 . S
C2070 C2071 1.385 1_545 S
C2070 C2073 1.484 . S
C2071 H2045 0.950 . S
C2071 C2070 1.385 1_565 S
C2071 C2072 1.374 . S
C2072 H2046 0.950 . S
C2072 C2068 1.426 . S
C2072 C2071 1.374 . S
C2073 C2070 1.484 . S
C2073 C2074 1.373 1_545 S
C2073 C2075 1.389 . S
C2074 H2047 0.950 . S
C2074 C2060 1.377 . S
C2074 C2073 1.373 1_565 S
C2075 C2059 1.377 . S
C2075 C2073 1.389 . S
C2075 C2076 1.524 . S
C2076 C2075 1.524 . S
C2076 C2077 1.375 1_545 S
C2076 C2081 1.363 . S
C2077 H2048 0.967 . S
C2077 C2076 1.375 1_565 S
C2077 C2078 1.340 1_565 S
C2078 H2049 0.950 1_545 S
C2078 C2077 1.340 1_545 S
C2078 C2079 1.287 . S
C2079 C2078 1.287 . S
C2079 C2080 1.524 . S
C2079 H2082 0.999 . S
C2080 H2050 0.950 . S
C2080 C2079 1.524 . S
C2080 C2081 1.415 . S
C2081 H2051 0.950 . S
C2081 C2076 1.363 . S
C2081 C2080 1.415 . S
H2082 C2079 0.999 . S
H2083 C2064 0.913 . S
H2084 C2102 0.951 . S
H2085 C2104 0.951 . S
H2086 C2106 0.950 . S
H2087 C2107 0.950 . S
H2088 C2109 0.950 . S
H2089 C2112 0.950 . S
H2090 C2113 0.950 . S
H2091 C2115 0.950 . S
H2092 C2116 0.950 . S
H2093 C2117 0.951 . S
H2094 C2119 0.951 . S
H2095 C2121 0.950 . S
H2096 C2122 0.950 . S
H2097 C2124 0.950 . S
H2098 C2127 0.950 . S
H2099 C2128 0.950 . S
H2100 C2130 0.950 . S
H2101 C2131 0.950 . S
C2102 H2084 0.951 . S
C2102 C2103 1.366 . S
C2102 C2104 1.388 . S
C2103 C2102 1.366 . S
C2103 C2107 1.385 1_655 S
C2104 H2085 0.951 . S
C2104 C2102 1.388 . S
C2104 C2105 1.366 . S
C2105 C2104 1.366 . S
C2105 C2106 1.414 1_655 S
C2105 C2108 1.499 . S
C2106 H2086 0.950 . S
C2106 C2105 1.414 1_455 S
C2106 C2107 1.374 . S
C2107 H2087 0.950 . S
C2107 C2103 1.385 1_455 S
C2107 C2106 1.374 . S
C2108 C2105 1.499 . S
C2108 C2109 1.373 . S
C2108 C2110 1.389 1_655 S
C2109 H2088 0.950 . S
C2109 C2108 1.373 . S
C2109 C2125 1.377 . S
C2110 C2108 1.389 1_455 S
C2110 C2111 1.524 . S
C2110 C2124 1.377 . S
C2111 C2110 1.524 . S
C2111 C2112 1.397 . S
C2111 C2116 1.363 . S
C2112 H2089 0.950 . S
C2112 C2111 1.397 . S
C2112 C2113 1.334 . S
C2113 H2090 0.950 . S
C2113 C2112 1.334 . S
C2113 C2114 1.287 . S
C2114 C2113 1.287 . S
C2114 C2115 1.524 . S
C2114 H2133 0.913 . S
C2115 H2091 0.950 . S
C2115 C2114 1.524 . S
C2115 C2116 1.415 . S
C2116 H2092 0.950 . S
C2116 C2111 1.363 . S
C2116 C2115 1.415 . S
C2117 H2093 0.951 . S
C2117 C2118 1.358 1_455 S
C2117 C2119 1.388 . S
C2118 C2117 1.358 1_655 S
C2118 C2122 1.400 . S
C2119 H2094 0.951 . S
C2119 C2117 1.388 . S
C2119 C2120 1.366 1_455 S
C2120 C2119 1.366 1_655 S
C2120 C2121 1.414 . S
C2120 C2123 1.499 . S
C2121 H2095 0.950 . S
C2121 C2120 1.414 . S
C2121 C2122 1.374 . S
C2122 H2096 0.950 . S
C2122 C2118 1.400 . S
C2122 C2121 1.374 . S
C2123 C2120 1.499 . S
C2123 C2124 1.373 1_655 S
C2123 C2125 1.389 . S
C2124 H2097 0.950 . S
C2124 C2110 1.377 . S
C2124 C2123 1.373 1_455 S
C2125 C2109 1.377 . S
C2125 C2123 1.389 . S
C2125 C2126 1.524 . S
C2126 C2125 1.524 . S
C2126 C2127 1.397 . S
C2126 C2131 1.363 . S
C2127 H2098 0.950 . S
C2127 C2126 1.397 . S
C2127 C2128 1.334 . S
C2128 H2099 0.950 . S
C2128 C2127 1.334 . S
C2128 C2129 1.287 . S
C2129 C2128 1.287 . S
C2129 C2130 1.524 . S
C2129 H2132 0.999 . S
C2130 H2100 0.950 . S
C2130 C2129 1.524 . S
C2130 C2131 1.415 . S
C2131 H2101 0.950 . S
C2131 C2126 1.363 . S
C2131 C2130 1.415 . S
H2132 C2129 0.999 . S
H2133 C2114 0.913 . S
H2134 C2152 0.951 . S
H2135 C2154 0.951 . S
H2136 C2156 0.950 . S
H2137 C2157 0.950 . S
H2138 C2159 0.950 . S
H2139 C2162 0.950 . S
H2140 C2163 0.950 . S
H2141 C2165 0.950 . S
H2142 C2166 0.950 . S
H2143 C2167 0.951 . S
H2144 C2169 0.951 . S
H2145 C2171 0.950 . S
H2146 C2172 0.950 . S
H2147 C2174 0.950 . S
H2148 C2177 0.950 . S
H2149 C2178 0.950 . S
H2150 C2180 0.950 . S
H2151 C2181 0.950 . S
C2152 H2134 0.951 . S
C2152 C2153 1.366 . S
C2152 C2154 1.388 . S
C2153 C2152 1.366 . S
C2153 C2157 1.385 . S
C2154 H2135 0.951 . S
C2154 C2152 1.388 . S
C2154 C2155 1.366 . S
C2155 C2154 1.366 . S
C2155 C2156 1.414 . S
C2155 C2158 1.499 . S
C2156 H2136 0.950 . S
C2156 C2155 1.414 . S
C2156 C2157 1.374 . S
C2157 H2137 0.950 . S
C2157 C2153 1.385 . S
C2157 C2156 1.374 . S
C2158 C2155 1.499 . S
C2158 C2159 1.373 . S
C2158 C2160 1.389 . S
C2159 H2138 0.950 . S
C2159 C2158 1.373 . S
C2159 C2175 1.377 . S
C2160 C2158 1.389 . S
C2160 C2161 1.524 . S
C2160 C2174 1.377 . S
C2161 C2160 1.524 . S
C2161 C2162 1.397 . S
C2161 C2166 1.363 . S
C2162 H2139 0.950 . S
C2162 C2161 1.397 . S
C2162 C2163 1.334 . S
C2163 H2140 0.950 . S
C2163 C2162 1.334 . S
C2163 C2164 1.287 . S
C2164 C2163 1.287 . S
C2164 C2165 1.524 . S
C2164 H2183 0.913 . S
C2165 H2141 0.950 . S
C2165 C2164 1.524 . S
C2165 C2166 1.415 . S
C2166 H2142 0.950 . S
C2166 C2161 1.363 . S
C2166 C2165 1.415 . S
C2167 H2143 0.951 . S
C2167 C2168 1.366 . S
C2167 C2169 1.388 . S
C2168 C2167 1.366 . S
C2168 C2172 1.385 . S
C2169 H2144 0.951 . S
C2169 C2167 1.388 . S
C2169 C2170 1.366 . S
C2170 C2169 1.366 . S
C2170 C2171 1.414 . S
C2170 C2173 1.499 . S
C2171 H2145 0.950 . S
C2171 C2170 1.414 . S
C2171 C2172 1.374 . S
C2172 H2146 0.950 . S
C2172 C2168 1.385 . S
C2172 C2171 1.374 . S
C2173 C2170 1.499 . S
C2173 C2174 1.373 . S
C2173 C2175 1.389 . S
C2174 H2147 0.950 . S
C2174 C2160 1.377 . S
C2174 C2173 1.373 . S
C2175 C2159 1.377 . S
C2175 C2173 1.389 . S
C2175 C2176 1.524 . S
C2176 C2175 1.524 . S
C2176 C2177 1.397 . S
C2176 C2181 1.363 . S
C2177 H2148 0.950 . S
C2177 C2176 1.397 . S
C2177 C2178 1.334 . S
C2178 H2149 0.950 . S
C2178 C2177 1.334 . S
C2178 C2179 1.287 . S
C2179 C2178 1.287 . S
C2179 C2180 1.524 . S
C2179 H2182 0.999 . S
C2180 H2150 0.950 . S
C2180 C2179 1.524 . S
C2180 C2181 1.415 . S
C2181 H2151 0.950 . S
C2181 C2176 1.363 . S
C2181 C2180 1.415 . S
H2182 C2179 0.999 . S
H2183 C2164 0.913 . S
H2184 C2202 0.951 . S
H2185 C2204 0.951 . S
H2186 C2206 0.950 . S
H2187 C2207 0.950 . S
H2188 C2209 0.950 . S
H2189 C2212 0.950 . S
H2190 C2213 0.950 . S
H2191 C2215 0.950 . S
H2192 C2216 0.950 . S
H2193 C2217 0.951 . S
H2194 C2219 0.951 . S
H2195 C2221 0.950 . S
H2196 C2222 0.950 . S
H2197 C2224 0.950 . S
H2198 C2227 0.950 . S
H2199 C2228 0.950 . S
H2200 C2230 0.950 . S
H2201 C2231 0.950 . S
C2202 H2184 0.951 . S
C2202 C2203 1.366 . S
C2202 C2204 1.388 . S
C2203 C2202 1.366 . S
C2203 C2207 1.385 . S
C2204 H2185 0.951 . S
C2204 C2202 1.388 . S
C2204 C2205 1.366 . S
C2205 C2204 1.366 . S
C2205 C2206 1.414 . S
C2205 C2208 1.499 . S
C2206 H2186 0.950 . S
C2206 C2205 1.414 . S
C2206 C2207 1.374 . S
C2207 H2187 0.950 . S
C2207 C2203 1.385 . S
C2207 C2206 1.374 . S
C2208 C2205 1.499 . S
C2208 C2209 1.373 . S
C2208 C2210 1.389 . S
C2209 H2188 0.950 . S
C2209 C2208 1.373 . S
C2209 C2225 1.377 . S
C2210 C2208 1.389 . S
C2210 C2211 1.524 . S
C2210 C2224 1.377 . S
C2211 C2210 1.524 . S
C2211 C2212 1.397 . S
C2211 C2216 1.363 . S
C2212 H2189 0.950 . S
C2212 C2211 1.397 . S
C2212 C2213 1.334 . S
C2213 H2190 0.950 . S
C2213 C2212 1.334 . S
C2213 C2214 1.287 . S
C2214 C2213 1.287 . S
C2214 C2215 1.524 . S
C2214 H2233 0.913 . S
C2215 H2191 0.950 . S
C2215 C2214 1.524 . S
C2215 C2216 1.415 . S
C2216 H2192 0.950 . S
C2216 C2211 1.363 . S
C2216 C2215 1.415 . S
C2217 H2193 0.951 . S
C2217 C2218 1.366 . S
C2217 C2219 1.388 . S
C2218 C2217 1.366 . S
C2218 C2222 1.385 . S
C2219 H2194 0.951 . S
C2219 C2217 1.388 . S
C2219 C2220 1.366 . S
C2220 C2219 1.366 . S
C2220 C2221 1.414 . S
C2220 C2223 1.499 . S
C2221 H2195 0.950 . S
C2221 C2220 1.414 . S
C2221 C2222 1.374 . S
C2222 H2196 0.950 . S
C2222 C2218 1.385 . S
C2222 C2221 1.374 . S
C2223 C2220 1.499 . S
C2223 C2224 1.373 . S
C2223 C2225 1.389 . S
C2224 H2197 0.950 . S
C2224 C2210 1.377 . S
C2224 C2223 1.373 . S
C2225 C2209 1.377 . S
C2225 C2223 1.389 . S
C2225 C2226 1.524 . S
C2226 C2225 1.524 . S
C2226 C2227 1.397 . S
C2226 C2231 1.363 . S
C2227 H2198 0.950 . S
C2227 C2226 1.397 . S
C2227 C2228 1.334 . S
C2228 H2199 0.950 . S
C2228 C2227 1.334 . S
C2228 C2229 1.287 . S
C2229 C2228 1.287 . S
C2229 C2230 1.524 . S
C2229 H2232 0.999 . S
C2230 H2200 0.950 . S
C2230 C2229 1.524 . S
C2230 C2231 1.415 . S
C2231 H2201 0.950 . S
C2231 C2226 1.363 . S
C2231 C2230 1.415 . S
H2232 C2229 0.999 . S
H2233 C2214 0.913 . S
H2234 C2252 0.951 . S
H2235 C2254 0.951 . S
H2236 C2256 0.950 . S
H2237 C2257 0.950 . S
H2238 C2259 0.950 . S
H2239 C2262 0.950 . S
H2240 C2263 0.950 . S
H2241 C2265 0.950 . S
H2242 C2266 0.950 . S
H2243 C2267 0.951 . S
H2244 C2269 0.951 . S
H2245 C2271 0.950 . S
H2246 C2272 0.950 . S
H2247 C2274 0.950 . S
H2248 C2277 0.950 . S
H2249 C2278 0.950 . S
H2250 C2280 0.950 . S
H2251 C2281 0.950 . S
C2252 H2234 0.951 . S
C2252 C2253 1.366 . S
C2252 C2254 1.388 . S
C2253 C2252 1.366 . S
C2253 C2257 1.385 . S
C2254 H2235 0.951 . S
C2254 C2252 1.388 . S
C2254 C2255 1.366 . S
C2255 C2254 1.366 . S
C2255 C2256 1.414 . S
C2255 C2258 1.499 . S
C2256 H2236 0.950 . S
C2256 C2255 1.414 . S
C2256 C2257 1.374 . S
C2257 H2237 0.950 . S
C2257 C2253 1.385 . S
C2257 C2256 1.374 . S
C2258 C2255 1.499 . S
C2258 C2259 1.373 . S
C2258 C2260 1.389 . S
C2259 H2238 0.950 . S
C2259 C2258 1.373 . S
C2259 C2275 1.377 . S
C2260 C2258 1.389 . S
C2260 C2261 1.524 . S
C2260 C2274 1.377 . S
C2261 C2260 1.524 . S
C2261 C2262 1.397 . S
C2261 C2266 1.363 . S
C2262 H2239 0.950 . S
C2262 C2261 1.397 . S
C2262 C2263 1.334 . S
C2263 H2240 0.950 . S
C2263 C2262 1.334 . S
C2263 C2264 1.287 . S
C2264 C2263 1.287 . S
C2264 C2265 1.524 . S
C2264 H2283 0.913 . S
C2265 H2241 0.950 . S
C2265 C2264 1.524 . S
C2265 C2266 1.415 . S
C2266 H2242 0.950 . S
C2266 C2261 1.363 . S
C2266 C2265 1.415 . S
C2267 H2243 0.951 . S
C2267 C2268 1.366 . S
C2267 C2269 1.388 . S
C2268 C2267 1.366 . S
C2268 C2272 1.385 . S
C2269 H2244 0.951 . S
C2269 C2267 1.388 . S
C2269 C2270 1.366 . S
C2270 C2269 1.366 . S
C2270 C2271 1.414 . S
C2270 C2273 1.499 . S
C2271 H2245 0.950 . S
C2271 C2270 1.414 . S
C2271 C2272 1.374 . S
C2272 H2246 0.950 . S
C2272 C2268 1.385 . S
C2272 C2271 1.374 . S
C2273 C2270 1.499 . S
C2273 C2274 1.373 . S
C2273 C2275 1.389 . S
C2274 H2247 0.950 . S
C2274 C2260 1.377 . S
C2274 C2273 1.373 . S
C2275 C2259 1.377 . S
C2275 C2273 1.389 . S
C2275 C2276 1.524 . S
C2276 C2275 1.524 . S
C2276 C2277 1.397 . S
C2276 C2281 1.363 . S
C2277 H2248 0.950 . S
C2277 C2276 1.397 . S
C2277 C2278 1.334 . S
C2278 H2249 0.950 . S
C2278 C2277 1.334 . S
C2278 C2279 1.287 . S
C2279 C2278 1.287 . S
C2279 C2280 1.524 . S
C2279 H2282 0.999 . S
C2280 H2250 0.950 . S
C2280 C2279 1.524 . S
C2280 C2281 1.415 . S
C2281 H2251 0.950 . S
C2281 C2276 1.363 . S
C2281 C2280 1.415 . S
H2282 C2279 0.999 . S
H2283 C2264 0.913 . S
H2284 C2302 0.951 . S
H2285 C2304 0.951 . S
H2286 C2306 0.950 . S
H2287 C2307 0.950 . S
H2288 C2309 0.950 . S
H2289 C2312 0.950 . S
H2290 C2313 0.950 . S
H2291 C2315 0.950 . S
H2292 C2316 0.950 . S
H2293 C2317 0.951 . S
H2294 C2319 0.951 . S
H2295 C2321 0.950 . S
H2296 C2322 0.950 . S
H2297 C2324 0.950 . S
H2298 C2327 0.950 . S
H2299 C2328 0.950 . S
H2300 C2330 0.950 . S
H2301 C2331 0.950 . S
C2302 H2284 0.951 . S
C2302 C2303 1.366 . S
C2302 C2304 1.388 . S
C2303 C2302 1.366 . S
C2303 C2307 1.385 . S
C2304 H2285 0.951 . S
C2304 C2302 1.388 . S
C2304 C2305 1.366 . S
C2305 C2304 1.366 . S
C2305 C2306 1.414 . S
C2305 C2308 1.499 . S
C2306 H2286 0.950 . S
C2306 C2305 1.414 . S
C2306 C2307 1.374 . S
C2307 H2287 0.950 . S
C2307 C2303 1.385 . S
C2307 C2306 1.374 . S
C2308 C2305 1.499 . S
C2308 C2309 1.373 . S
C2308 C2310 1.389 . S
C2309 H2288 0.950 . S
C2309 C2308 1.373 . S
C2309 C2325 1.377 . S
C2310 C2308 1.389 . S
C2310 C2311 1.524 . S
C2310 C2324 1.377 . S
C2311 C2310 1.524 . S
C2311 C2312 1.397 . S
C2311 C2316 1.363 . S
C2312 H2289 0.950 . S
C2312 C2311 1.397 . S
C2312 C2313 1.334 . S
C2313 H2290 0.950 . S
C2313 C2312 1.334 . S
C2313 C2314 1.287 . S
C2314 C2313 1.287 . S
C2314 C2315 1.524 . S
C2314 H2333 0.913 . S
C2315 H2291 0.950 . S
C2315 C2314 1.524 . S
C2315 C2316 1.415 . S
C2316 H2292 0.950 . S
C2316 C2311 1.363 . S
C2316 C2315 1.415 . S
C2317 H2293 0.951 . S
C2317 C2318 1.366 . S
C2317 C2319 1.388 . S
C2318 C2317 1.366 . S
C2318 C2322 1.385 . S
C2319 H2294 0.951 . S
C2319 C2317 1.388 . S
C2319 C2320 1.366 . S
C2320 C2319 1.366 . S
C2320 C2321 1.414 . S
C2320 C2323 1.499 . S
C2321 H2295 0.950 . S
C2321 C2320 1.414 . S
C2321 C2322 1.374 . S
C2322 H2296 0.950 . S
C2322 C2318 1.385 . S
C2322 C2321 1.374 . S
C2323 C2320 1.499 . S
C2323 C2324 1.373 . S
C2323 C2325 1.389 . S
C2324 H2297 0.950 . S
C2324 C2310 1.377 . S
C2324 C2323 1.373 . S
C2325 C2309 1.377 . S
C2325 C2323 1.389 . S
C2325 C2326 1.524 . S
C2326 C2325 1.524 . S
C2326 C2327 1.397 . S
C2326 C2331 1.363 . S
C2327 H2298 0.950 . S
C2327 C2326 1.397 . S
C2327 C2328 1.334 . S
C2328 H2299 0.950 . S
C2328 C2327 1.334 . S
C2328 C2329 1.287 . S
C2329 C2328 1.287 . S
C2329 C2330 1.524 . S
C2329 H2332 0.999 . S
C2330 H2300 0.950 . S
C2330 C2329 1.524 . S
C2330 C2331 1.415 . S
C2331 H2301 0.950 . S
C2331 C2326 1.363 . S
C2331 C2330 1.415 . S
H2332 C2329 0.999 . S
H2333 C2314 0.913 . S
H2334 C2352 0.951 . S
H2335 C2354 0.951 . S
H2336 C2356 0.950 . S
H2337 C2357 0.950 . S
H2338 C2359 0.950 . S
H2339 C2362 0.950 . S
H2340 C2363 0.950 . S
H2341 C2365 0.950 . S
H2342 C2366 0.950 . S
H2343 C2367 0.951 . S
H2344 C2369 0.951 . S
H2345 C2371 0.950 . S
H2346 C2372 0.950 . S
H2347 C2374 0.950 . S
H2348 C2377 0.950 . S
H2349 C2378 0.950 . S
H2350 C2380 0.950 . S
H2351 C2381 0.950 . S
C2352 H2334 0.951 . S
C2352 C2353 1.366 . S
C2352 C2354 1.388 . S
C2353 C2352 1.366 . S
C2353 C2357 1.385 . S
C2354 H2335 0.951 . S
C2354 C2352 1.388 . S
C2354 C2355 1.366 . S
C2355 C2354 1.366 . S
C2355 C2356 1.414 . S
C2355 C2358 1.499 . S
C2356 H2336 0.950 . S
C2356 C2355 1.414 . S
C2356 C2357 1.374 . S
C2357 H2337 0.950 . S
C2357 C2353 1.385 . S
C2357 C2356 1.374 . S
C2358 C2355 1.499 . S
C2358 C2359 1.373 . S
C2358 C2360 1.389 . S
C2359 H2338 0.950 . S
C2359 C2358 1.373 . S
C2359 C2375 1.377 . S
C2360 C2358 1.389 . S
C2360 C2361 1.524 . S
C2360 C2374 1.377 . S
C2361 C2360 1.524 . S
C2361 C2362 1.397 . S
C2361 C2366 1.363 . S
C2362 H2339 0.950 . S
C2362 C2361 1.397 . S
C2362 C2363 1.334 . S
C2363 H2340 0.950 . S
C2363 C2362 1.334 . S
C2363 C2364 1.287 . S
C2364 C2363 1.287 . S
C2364 C2365 1.524 . S
C2364 H2383 0.913 . S
C2365 H2341 0.950 . S
C2365 C2364 1.524 . S
C2365 C2366 1.415 . S
C2366 H2342 0.950 . S
C2366 C2361 1.363 . S
C2366 C2365 1.415 . S
C2367 H2343 0.951 . S
C2367 C2368 1.366 . S
C2367 C2369 1.388 . S
C2368 C2367 1.366 . S
C2368 C2372 1.385 . S
C2369 H2344 0.951 . S
C2369 C2367 1.388 . S
C2369 C2370 1.366 . S
C2370 C2369 1.366 . S
C2370 C2371 1.414 . S
C2370 C2373 1.499 . S
C2371 H2345 0.950 . S
C2371 C2370 1.414 . S
C2371 C2372 1.374 . S
C2372 H2346 0.950 . S
C2372 C2368 1.385 . S
C2372 C2371 1.374 . S
C2373 C2370 1.499 . S
C2373 C2374 1.373 . S
C2373 C2375 1.389 . S
C2374 H2347 0.950 . S
C2374 C2360 1.377 . S
C2374 C2373 1.373 . S
C2375 C2359 1.377 . S
C2375 C2373 1.389 . S
C2375 C2376 1.524 . S
C2376 C2375 1.524 . S
C2376 C2377 1.397 . S
C2376 C2381 1.363 . S
C2377 H2348 0.950 . S
C2377 C2376 1.397 . S
C2377 C2378 1.334 . S
C2378 H2349 0.950 . S
C2378 C2377 1.334 . S
C2378 C2379 1.287 . S
C2379 C2378 1.287 . S
C2379 C2380 1.524 . S
C2379 H2382 0.999 . S
C2380 H2350 0.950 . S
C2380 C2379 1.524 . S
C2380 C2381 1.415 . S
C2381 H2351 0.950 . S
C2381 C2376 1.363 . S
C2381 C2380 1.415 . S
H2382 C2379 0.999 . S
H2383 C2364 0.913 . S
H2384 C2402 0.951 . S
H2385 C2404 0.951 . S
H2386 C2406 0.950 . S
H2387 C2407 0.950 . S
H2388 C2409 0.950 . S
H2389 C2412 0.950 . S
H2390 C2413 0.950 . S
H2391 C2415 0.950 . S
H2392 C2416 0.950 . S
H2393 C2417 0.951 . S
H2394 C2419 0.951 . S
H2395 C2421 0.950 . S
H2396 C2422 0.950 . S
H2397 C2424 0.950 . S
H2398 C2427 0.950 . S
H2399 C2428 0.950 . S
H2400 C2430 0.950 . S
H2401 C2431 0.950 . S
C2402 H2384 0.951 . S
C2402 C2403 1.366 . S
C2402 C2404 1.388 . S
C2403 C2402 1.366 . S
C2403 C2407 1.385 . S
C2404 H2385 0.951 . S
C2404 C2402 1.388 . S
C2404 C2405 1.366 . S
C2405 C2404 1.366 . S
C2405 C2406 1.414 . S
C2405 C2408 1.499 . S
C2406 H2386 0.950 . S
C2406 C2405 1.414 . S
C2406 C2407 1.374 . S
C2407 H2387 0.950 . S
C2407 C2403 1.385 . S
C2407 C2406 1.374 . S
C2408 C2405 1.499 . S
C2408 C2409 1.373 . S
C2408 C2410 1.389 . S
C2409 H2388 0.950 . S
C2409 C2408 1.373 . S
C2409 C2425 1.377 . S
C2410 C2408 1.389 . S
C2410 C2411 1.524 . S
C2410 C2424 1.377 . S
C2411 C2410 1.524 . S
C2411 C2412 1.397 . S
C2411 C2416 1.363 . S
C2412 H2389 0.950 . S
C2412 C2411 1.397 . S
C2412 C2413 1.334 . S
C2413 H2390 0.950 . S
C2413 C2412 1.334 . S
C2413 C2414 1.287 . S
C2414 C2413 1.287 . S
C2414 C2415 1.524 . S
C2414 H2433 0.913 . S
C2415 H2391 0.950 . S
C2415 C2414 1.524 . S
C2415 C2416 1.415 . S
C2416 H2392 0.950 . S
C2416 C2411 1.363 . S
C2416 C2415 1.415 . S
C2417 H2393 0.951 . S
C2417 C2418 1.366 . S
C2417 C2419 1.388 . S
C2418 C2417 1.366 . S
C2418 C2422 1.385 . S
C2419 H2394 0.951 . S
C2419 C2417 1.388 . S
C2419 C2420 1.366 . S
C2420 C2419 1.366 . S
C2420 C2421 1.414 . S
C2420 C2423 1.499 . S
C2421 H2395 0.950 . S
C2421 C2420 1.414 . S
C2421 C2422 1.374 . S
C2422 H2396 0.950 . S
C2422 C2418 1.385 . S
C2422 C2421 1.374 . S
C2423 C2420 1.499 . S
C2423 C2424 1.373 . S
C2423 C2425 1.389 . S
C2424 H2397 0.950 . S
C2424 C2410 1.377 . S
C2424 C2423 1.373 . S
C2425 C2409 1.377 . S
C2425 C2423 1.389 . S
C2425 C2426 1.524 . S
C2426 C2425 1.524 . S
C2426 C2427 1.397 . S
C2426 C2431 1.363 . S
C2427 H2398 0.950 . S
C2427 C2426 1.397 . S
C2427 C2428 1.334 . S
C2428 H2399 0.950 . S
C2428 C2427 1.334 . S
C2428 C2429 1.287 . S
C2429 C2428 1.287 . S
C2429 C2430 1.524 . S
C2429 H2432 0.999 . S
C2430 H2400 0.950 . S
C2430 C2429 1.524 . S
C2430 C2431 1.415 . S
C2431 H2401 0.950 . S
C2431 C2426 1.363 . S
C2431 C2430 1.415 . S
H2432 C2429 0.999 . S
H2433 C2414 0.913 . S
H2434 C2452 0.951 . S
H2435 C2454 0.951 . S
H2436 C2456 0.950 . S
H2437 C2457 0.950 . S
H2438 C2459 0.950 . S
H2439 C2462 0.950 . S
H2440 C2463 0.950 . S
H2441 C2465 0.950 . S
H2442 C2466 0.950 . S
H2443 C2467 0.951 . S
H2444 C2469 0.951 . S
H2445 C2471 0.950 . S
H2446 C2472 0.950 . S
H2447 C2474 0.950 . S
H2448 C2477 0.950 . S
H2449 C2478 0.950 . S
H2450 C2480 0.950 . S
H2451 C2481 0.950 . S
C2452 H2434 0.951 . S
C2452 C2453 1.366 . S
C2452 C2454 1.388 . S
C2453 C2452 1.366 . S
C2453 C2457 1.385 . S
C2454 H2435 0.951 . S
C2454 C2452 1.388 . S
C2454 C2455 1.366 . S
C2455 C2454 1.366 . S
C2455 C2456 1.414 . S
C2455 C2458 1.499 . S
C2456 H2436 0.950 . S
C2456 C2455 1.414 . S
C2456 C2457 1.374 . S
C2457 H2437 0.950 . S
C2457 C2453 1.385 . S
C2457 C2456 1.374 . S
C2458 C2455 1.499 . S
C2458 C2459 1.373 . S
C2458 C2460 1.389 . S
C2459 H2438 0.950 . S
C2459 C2458 1.373 . S
C2459 C2475 1.377 . S
C2460 C2458 1.389 . S
C2460 C2461 1.524 . S
C2460 C2474 1.377 . S
C2461 C2460 1.524 . S
C2461 C2462 1.397 . S
C2461 C2466 1.363 . S
C2462 H2439 0.950 . S
C2462 C2461 1.397 . S
C2462 C2463 1.334 . S
C2463 H2440 0.950 . S
C2463 C2462 1.334 . S
C2463 C2464 1.287 . S
C2464 C2463 1.287 . S
C2464 C2465 1.524 . S
C2464 H2483 0.913 . S
C2465 H2441 0.950 . S
C2465 C2464 1.524 . S
C2465 C2466 1.415 . S
C2466 H2442 0.950 . S
C2466 C2461 1.363 . S
C2466 C2465 1.415 . S
C2467 H2443 0.951 . S
C2467 C2468 1.366 . S
C2467 C2469 1.388 . S
C2468 C2467 1.366 . S
C2468 C2472 1.385 . S
C2469 H2444 0.951 . S
C2469 C2467 1.388 . S
C2469 C2470 1.366 . S
C2470 C2469 1.366 . S
C2470 C2471 1.414 . S
C2470 C2473 1.499 . S
C2471 H2445 0.950 . S
C2471 C2470 1.414 . S
C2471 C2472 1.374 . S
C2472 H2446 0.950 . S
C2472 C2468 1.385 . S
C2472 C2471 1.374 . S
C2473 C2470 1.499 . S
C2473 C2474 1.373 . S
C2473 C2475 1.389 . S
C2474 H2447 0.950 . S
C2474 C2460 1.377 . S
C2474 C2473 1.373 . S
C2475 C2459 1.377 . S
C2475 C2473 1.389 . S
C2475 C2476 1.524 . S
C2476 C2475 1.524 . S
C2476 C2477 1.397 . S
C2476 C2481 1.363 . S
C2477 H2448 0.950 . S
C2477 C2476 1.397 . S
C2477 C2478 1.334 . S
C2478 H2449 0.950 . S
C2478 C2477 1.334 . S
C2478 C2479 1.287 . S
C2479 C2478 1.287 . S
C2479 C2480 1.524 . S
C2479 H2482 0.999 . S
C2480 H2450 0.950 . S
C2480 C2479 1.524 . S
C2480 C2481 1.415 . S
C2481 H2451 0.950 . S
C2481 C2476 1.363 . S
C2481 C2480 1.415 . S
H2482 C2479 0.999 . S
H2483 C2464 0.913 . S
H2484 C2502 0.951 . S
H2485 C2504 0.951 . S
H2486 C2506 0.950 . S
H2487 C2507 0.950 . S
H2488 C2509 0.950 . S
H2489 C2512 0.950 . S
H2490 C2513 0.950 . S
H2491 C2515 0.950 . S
H2492 C2516 0.950 . S
H2493 C2517 0.951 . S
H2494 C2519 0.951 . S
H2495 C2521 0.950 . S
H2496 C2522 0.950 . S
H2497 C2524 0.950 . S
H2498 C2527 0.950 . S
H2499 C2528 0.950 . S
H2500 C2530 0.950 . S
H2501 C2531 0.950 . S
C2502 H2484 0.951 . S
C2502 C2503 1.366 . S
C2502 C2504 1.388 . S
C2503 C2502 1.366 . S
C2503 C2507 1.385 . S
C2504 H2485 0.951 . S
C2504 C2502 1.388 . S
C2504 C2505 1.366 . S
C2505 C2504 1.366 . S
C2505 C2506 1.414 . S
C2505 C2508 1.499 . S
C2506 H2486 0.950 . S
C2506 C2505 1.414 . S
C2506 C2507 1.374 . S
C2507 H2487 0.950 . S
C2507 C2503 1.385 . S
C2507 C2506 1.374 . S
C2508 C2505 1.499 . S
C2508 C2509 1.373 . S
C2508 C2510 1.389 . S
C2509 H2488 0.950 . S
C2509 C2508 1.373 . S
C2509 C2525 1.377 . S
C2510 C2508 1.389 . S
C2510 C2511 1.524 . S
C2510 C2524 1.377 . S
C2511 C2510 1.524 . S
C2511 C2512 1.397 . S
C2511 C2516 1.363 . S
C2512 H2489 0.950 . S
C2512 C2511 1.397 . S
C2512 C2513 1.334 . S
C2513 H2490 0.950 . S
C2513 C2512 1.334 . S
C2513 C2514 1.287 . S
C2514 C2513 1.287 . S
C2514 C2515 1.524 . S
C2514 H2533 0.913 . S
C2515 H2491 0.950 . S
C2515 C2514 1.524 . S
C2515 C2516 1.415 . S
C2516 H2492 0.950 . S
C2516 C2511 1.363 . S
C2516 C2515 1.415 . S
C2517 H2493 0.951 . S
C2517 C2518 1.366 . S
C2517 C2519 1.388 . S
C2518 C2517 1.366 . S
C2518 C2522 1.385 . S
C2519 H2494 0.951 . S
C2519 C2517 1.388 . S
C2519 C2520 1.366 . S
C2520 C2519 1.366 . S
C2520 C2521 1.414 . S
C2520 C2523 1.499 . S
C2521 H2495 0.950 . S
C2521 C2520 1.414 . S
C2521 C2522 1.374 . S
C2522 H2496 0.950 . S
C2522 C2518 1.385 . S
C2522 C2521 1.374 . S
C2523 C2520 1.499 . S
C2523 C2524 1.373 . S
C2523 C2525 1.389 . S
C2524 H2497 0.950 . S
C2524 C2510 1.377 . S
C2524 C2523 1.373 . S
C2525 C2509 1.377 . S
C2525 C2523 1.389 . S
C2525 C2526 1.524 . S
C2526 C2525 1.524 . S
C2526 C2527 1.397 . S
C2526 C2531 1.363 . S
C2527 H2498 0.950 . S
C2527 C2526 1.397 . S
C2527 C2528 1.334 . S
C2528 H2499 0.950 . S
C2528 C2527 1.334 . S
C2528 C2529 1.287 . S
C2529 C2528 1.287 . S
C2529 C2530 1.524 . S
C2529 H2532 0.999 . S
C2530 H2500 0.950 . S
C2530 C2529 1.524 . S
C2530 C2531 1.415 . S
C2531 H2501 0.950 . S
C2531 C2526 1.363 . S
C2531 C2530 1.415 . S
H2532 C2529 0.999 . S
H2533 C2514 0.913 . S
H2534 C2552 0.951 . S
H2535 C2554 0.951 . S
H2536 C2556 0.950 . S
H2537 C2557 0.950 . S
H2538 C2559 0.950 . S
H2539 C2562 0.950 . S
H2540 C2563 0.950 . S
H2541 C2565 0.950 . S
H2542 C2566 0.950 . S
H2543 C2567 0.951 . S
H2544 C2569 0.951 . S
H2545 C2571 0.950 . S
H2546 C2572 0.950 . S
H2547 C2574 0.950 . S
H2548 C2577 0.950 . S
H2549 C2578 0.950 . S
H2550 C2580 0.950 . S
H2551 C2581 0.950 . S
C2552 H2534 0.951 . S
C2552 C2553 1.366 . S
C2552 C2554 1.388 . S
C2553 C2552 1.366 . S
C2553 C2557 1.385 . S
C2554 H2535 0.951 . S
C2554 C2552 1.388 . S
C2554 C2555 1.366 . S
C2555 C2554 1.366 . S
C2555 C2556 1.414 . S
C2555 C2558 1.499 . S
C2556 H2536 0.950 . S
C2556 C2555 1.414 . S
C2556 C2557 1.374 . S
C2557 H2537 0.950 . S
C2557 C2553 1.385 . S
C2557 C2556 1.374 . S
C2558 C2555 1.499 . S
C2558 C2559 1.373 . S
C2558 C2560 1.389 . S
C2559 H2538 0.950 . S
C2559 C2558 1.373 . S
C2559 C2575 1.377 . S
C2560 C2558 1.389 . S
C2560 C2561 1.524 . S
C2560 C2574 1.377 . S
C2561 C2560 1.524 . S
C2561 C2562 1.397 . S
C2561 C2566 1.363 . S
C2562 H2539 0.950 . S
C2562 C2561 1.397 . S
C2562 C2563 1.334 . S
C2563 H2540 0.950 . S
C2563 C2562 1.334 . S
C2563 C2564 1.287 . S
C2564 C2563 1.287 . S
C2564 C2565 1.524 . S
C2564 H2583 0.913 . S
C2565 H2541 0.950 . S
C2565 C2564 1.524 . S
C2565 C2566 1.415 . S
C2566 H2542 0.950 . S
C2566 C2561 1.363 . S
C2566 C2565 1.415 . S
C2567 H2543 0.951 . S
C2567 C2568 1.366 . S
C2567 C2569 1.388 . S
C2568 C2567 1.366 . S
C2568 C2572 1.385 . S
C2569 H2544 0.951 . S
C2569 C2567 1.388 . S
C2569 C2570 1.366 . S
C2570 C2569 1.366 . S
C2570 C2571 1.414 . S
C2570 C2573 1.499 . S
C2571 H2545 0.950 . S
C2571 C2570 1.414 . S
C2571 C2572 1.374 . S
C2572 H2546 0.950 . S
C2572 C2568 1.385 . S
C2572 C2571 1.374 . S
C2573 C2570 1.499 . S
C2573 C2574 1.373 . S
C2573 C2575 1.389 . S
C2574 H2547 0.950 . S
C2574 C2560 1.377 . S
C2574 C2573 1.373 . S
C2575 C2559 1.377 . S
C2575 C2573 1.389 . S
C2575 C2576 1.524 . S
C2576 C2575 1.524 . S
C2576 C2577 1.397 . S
C2576 C2581 1.363 . S
C2577 H2548 0.950 . S
C2577 C2576 1.397 . S
C2577 C2578 1.334 . S
C2578 H2549 0.950 . S
C2578 C2577 1.334 . S
C2578 C2579 1.287 . S
C2579 C2578 1.287 . S
C2579 C2580 1.524 . S
C2579 H2582 0.999 . S
C2580 H2550 0.950 . S
C2580 C2579 1.524 . S
C2580 C2581 1.415 . S
C2581 H2551 0.950 . S
C2581 C2576 1.363 . S
C2581 C2580 1.415 . S
H2582 C2579 0.999 . S
H2583 C2564 0.913 . S
H2584 C2602 0.951 . S
H2585 C2604 0.951 . S
H2586 C2606 0.950 . S
H2587 C2607 0.950 . S
H2588 C2609 0.950 . S
H2589 C2612 0.950 . S
H2590 C2613 0.950 . S
H2591 C2615 0.950 . S
H2592 C2616 0.950 . S
H2593 C2617 0.951 . S
H2594 C2619 0.951 . S
H2595 C2621 0.950 . S
H2596 C2622 0.950 . S
H2597 C2624 0.950 . S
H2598 C2627 0.950 . S
H2599 C2628 0.950 . S
H2600 C2630 0.950 . S
H2601 C2631 0.950 . S
C2602 H2584 0.951 . S
C2602 C2603 1.366 . S
C2602 C2604 1.388 . S
C2603 C2602 1.366 . S
C2603 C2607 1.385 . S
C2604 H2585 0.951 . S
C2604 C2602 1.388 . S
C2604 C2605 1.366 . S
C2605 C2604 1.366 . S
C2605 C2606 1.414 . S
C2605 C2608 1.499 . S
C2606 H2586 0.950 . S
C2606 C2605 1.414 . S
C2606 C2607 1.374 . S
C2607 H2587 0.950 . S
C2607 C2603 1.385 . S
C2607 C2606 1.374 . S
C2608 C2605 1.499 . S
C2608 C2609 1.373 . S
C2608 C2610 1.389 . S
C2609 H2588 0.950 . S
C2609 C2608 1.373 . S
C2609 C2625 1.377 . S
C2610 C2608 1.389 . S
C2610 C2611 1.524 . S
C2610 C2624 1.377 . S
C2611 C2610 1.524 . S
C2611 C2612 1.397 . S
C2611 C2616 1.363 . S
C2612 H2589 0.950 . S
C2612 C2611 1.397 . S
C2612 C2613 1.334 . S
C2613 H2590 0.950 . S
C2613 C2612 1.334 . S
C2613 C2614 1.287 . S
C2614 C2613 1.287 . S
C2614 C2615 1.524 . S
C2614 H2633 0.913 . S
C2615 H2591 0.950 . S
C2615 C2614 1.524 . S
C2615 C2616 1.415 . S
C2616 H2592 0.950 . S
C2616 C2611 1.363 . S
C2616 C2615 1.415 . S
C2617 H2593 0.951 . S
C2617 C2618 1.366 . S
C2617 C2619 1.388 . S
C2618 C2617 1.366 . S
C2618 C2622 1.385 . S
C2619 H2594 0.951 . S
C2619 C2617 1.388 . S
C2619 C2620 1.366 . S
C2620 C2619 1.366 . S
C2620 C2621 1.414 . S
C2620 C2623 1.499 . S
C2621 H2595 0.950 . S
C2621 C2620 1.414 . S
C2621 C2622 1.374 . S
C2622 H2596 0.950 . S
C2622 C2618 1.385 . S
C2622 C2621 1.374 . S
C2623 C2620 1.499 . S
C2623 C2624 1.373 . S
C2623 C2625 1.389 . S
C2624 H2597 0.950 . S
C2624 C2610 1.377 . S
C2624 C2623 1.373 . S
C2625 C2609 1.377 . S
C2625 C2623 1.389 . S
C2625 C2626 1.524 . S
C2626 C2625 1.524 . S
C2626 C2627 1.397 . S
C2626 C2631 1.363 . S
C2627 H2598 0.950 . S
C2627 C2626 1.397 . S
C2627 C2628 1.334 . S
C2628 H2599 0.950 . S
C2628 C2627 1.334 . S
C2628 C2629 1.287 . S
C2629 C2628 1.287 . S
C2629 C2630 1.524 . S
C2629 H2632 0.999 . S
C2630 H2600 0.950 . S
C2630 C2629 1.524 . S
C2630 C2631 1.415 . S
C2631 H2601 0.950 . S
C2631 C2626 1.363 . S
C2631 C2630 1.415 . S
H2632 C2629 0.999 . S
H2633 C2614 0.913 . S
H2634 C2652 0.951 . S
H2635 C2654 0.951 . S
H2636 C2656 0.950 . S
H2637 C2657 0.950 . S
H2638 C2659 0.950 . S
H2639 C2662 0.950 . S
H2640 C2663 0.950 . S
H2641 C2665 0.950 . S
H2642 C2666 0.950 . S
H2643 C2667 0.951 . S
H2644 C2669 0.951 . S
H2645 C2671 0.950 . S
H2646 C2672 0.950 . S
H2647 C2674 0.950 . S
H2648 C2677 0.950 . S
H2649 C2678 0.950 . S
H2650 C2680 0.950 . S
H2651 C2681 0.950 . S
C2652 H2634 0.951 . S
C2652 C2653 1.366 . S
C2652 C2654 1.388 . S
C2653 C2652 1.366 . S
C2653 C2657 1.385 . S
C2654 H2635 0.951 . S
C2654 C2652 1.388 . S
C2654 C2655 1.366 . S
C2655 C2654 1.366 . S
C2655 C2656 1.414 . S
C2655 C2658 1.499 . S
C2656 H2636 0.950 . S
C2656 C2655 1.414 . S
C2656 C2657 1.374 . S
C2657 H2637 0.950 . S
C2657 C2653 1.385 . S
C2657 C2656 1.374 . S
C2658 C2655 1.499 . S
C2658 C2659 1.373 . S
C2658 C2660 1.389 . S
C2659 H2638 0.950 . S
C2659 C2658 1.373 . S
C2659 C2675 1.377 . S
C2660 C2658 1.389 . S
C2660 C2661 1.524 . S
C2660 C2674 1.377 . S
C2661 C2660 1.524 . S
C2661 C2662 1.397 . S
C2661 C2666 1.363 . S
C2662 H2639 0.950 . S
C2662 C2661 1.397 . S
C2662 C2663 1.334 . S
C2663 H2640 0.950 . S
C2663 C2662 1.334 . S
C2663 C2664 1.287 . S
C2664 C2663 1.287 . S
C2664 C2665 1.524 . S
C2664 H2683 0.913 . S
C2665 H2641 0.950 . S
C2665 C2664 1.524 . S
C2665 C2666 1.415 . S
C2666 H2642 0.950 . S
C2666 C2661 1.363 . S
C2666 C2665 1.415 . S
C2667 H2643 0.951 . S
C2667 C2668 1.366 . S
C2667 C2669 1.388 . S
C2668 C2667 1.366 . S
C2668 C2672 1.385 . S
C2669 H2644 0.951 . S
C2669 C2667 1.388 . S
C2669 C2670 1.366 . S
C2670 C2669 1.366 . S
C2670 C2671 1.414 . S
C2670 C2673 1.499 . S
C2671 H2645 0.950 . S
C2671 C2670 1.414 . S
C2671 C2672 1.374 . S
C2672 H2646 0.950 . S
C2672 C2668 1.385 . S
C2672 C2671 1.374 . S
C2673 C2670 1.499 . S
C2673 C2674 1.373 . S
C2673 C2675 1.389 . S
C2674 H2647 0.950 . S
C2674 C2660 1.377 . S
C2674 C2673 1.373 . S
C2675 C2659 1.377 . S
C2675 C2673 1.389 . S
C2675 C2676 1.524 . S
C2676 C2675 1.524 . S
C2676 C2677 1.397 . S
C2676 C2681 1.363 . S
C2677 H2648 0.950 . S
C2677 C2676 1.397 . S
C2677 C2678 1.334 . S
C2678 H2649 0.950 . S
C2678 C2677 1.334 . S
C2678 C2679 1.287 . S
C2679 C2678 1.287 . S
C2679 C2680 1.524 . S
C2679 H2682 0.999 . S
C2680 H2650 0.950 . S
C2680 C2679 1.524 . S
C2680 C2681 1.415 . S
C2681 H2651 0.950 . S
C2681 C2676 1.363 . S
C2681 C2680 1.415 . S
H2682 C2679 0.999 . S
H2683 C2664 0.913 . S
H2684 C2702 0.951 . S
H2685 C2704 0.951 . S
H2686 C2706 0.950 . S
H2687 C2707 0.950 . S
H2688 C2709 0.950 . S
H2689 C2712 0.950 . S
H2690 C2713 0.950 . S
H2691 C2715 0.950 . S
H2692 C2716 0.950 . S
H2693 C2717 0.951 . S
H2694 C2719 0.951 . S
H2695 C2721 0.950 . S
H2696 C2722 0.950 . S
H2697 C2724 0.950 . S
H2698 C2727 0.950 . S
H2699 C2728 0.950 . S
H2700 C2730 0.950 . S
H2701 C2731 0.950 . S
C2702 H2684 0.951 . S
C2702 C2703 1.366 . S
C2702 C2704 1.388 . S
C2703 C2702 1.366 . S
C2703 C2707 1.385 . S
C2704 H2685 0.951 . S
C2704 C2702 1.388 . S
C2704 C2705 1.366 . S
C2705 C2704 1.366 . S
C2705 C2706 1.414 . S
C2705 C2708 1.499 . S
C2706 H2686 0.950 . S
C2706 C2705 1.414 . S
C2706 C2707 1.374 . S
C2707 H2687 0.950 . S
C2707 C2703 1.385 . S
C2707 C2706 1.374 . S
C2708 C2705 1.499 . S
C2708 C2709 1.373 . S
C2708 C2710 1.389 . S
C2709 H2688 0.950 . S
C2709 C2708 1.373 . S
C2709 C2725 1.377 . S
C2710 C2708 1.389 . S
C2710 C2711 1.524 . S
C2710 C2724 1.377 . S
C2711 C2710 1.524 . S
C2711 C2712 1.397 . S
C2711 C2716 1.363 . S
C2712 H2689 0.950 . S
C2712 C2711 1.397 . S
C2712 C2713 1.334 . S
C2713 H2690 0.950 . S
C2713 C2712 1.334 . S
C2713 C2714 1.287 . S
C2714 C2713 1.287 . S
C2714 C2715 1.524 . S
C2714 H2733 0.913 . S
C2715 H2691 0.950 . S
C2715 C2714 1.524 . S
C2715 C2716 1.415 . S
C2716 H2692 0.950 . S
C2716 C2711 1.363 . S
C2716 C2715 1.415 . S
C2717 H2693 0.951 . S
C2717 C2718 1.366 . S
C2717 C2719 1.388 . S
C2718 C2717 1.366 . S
C2718 C2722 1.385 . S
C2719 H2694 0.951 . S
C2719 C2717 1.388 . S
C2719 C2720 1.366 . S
C2720 C2719 1.366 . S
C2720 C2721 1.414 . S
C2720 C2723 1.499 . S
C2721 H2695 0.950 . S
C2721 C2720 1.414 . S
C2721 C2722 1.374 . S
C2722 H2696 0.950 . S
C2722 C2718 1.385 . S
C2722 C2721 1.374 . S
C2723 C2720 1.499 . S
C2723 C2724 1.373 . S
C2723 C2725 1.389 . S
C2724 H2697 0.950 . S
C2724 C2710 1.377 . S
C2724 C2723 1.373 . S
C2725 C2709 1.377 . S
C2725 C2723 1.389 . S
C2725 C2726 1.524 . S
C2726 C2725 1.524 . S
C2726 C2727 1.397 . S
C2726 C2731 1.363 . S
C2727 H2698 0.950 . S
C2727 C2726 1.397 . S
C2727 C2728 1.334 . S
C2728 H2699 0.950 . S
C2728 C2727 1.334 . S
C2728 C2729 1.287 . S
C2729 C2728 1.287 . S
C2729 C2730 1.524 . S
C2729 H2732 0.999 . S
C2730 H2700 0.950 . S
C2730 C2729 1.524 . S
C2730 C2731 1.415 . S
C2731 H2701 0.950 . S
C2731 C2726 1.363 . S
C2731 C2730 1.415 . S
H2732 C2729 0.999 . S
H2733 C2714 0.913 . S
H2734 C2752 0.951 . S
H2735 C2754 0.951 . S
H2736 C2756 0.950 . S
H2737 C2757 0.950 . S
H2738 C2759 0.950 . S
H2739 C2762 0.950 . S
H2740 C2763 0.950 . S
H2741 C2765 0.950 . S
H2742 C2766 0.950 . S
H2743 C2767 0.951 . S
H2744 C2769 0.951 . S
H2745 C2771 0.950 . S
H2746 C2772 0.950 . S
H2747 C2774 0.950 . S
H2748 C2777 0.950 . S
H2749 C2778 0.950 . S
H2750 C2780 0.950 . S
H2751 C2781 0.950 . S
C2752 H2734 0.951 . S
C2752 C2753 1.366 . S
C2752 C2754 1.388 . S
C2753 C2752 1.366 . S
C2753 C2757 1.385 . S
C2754 H2735 0.951 . S
C2754 C2752 1.388 . S
C2754 C2755 1.366 . S
C2755 C2754 1.366 . S
C2755 C2756 1.414 . S
C2755 C2758 1.499 . S
C2756 H2736 0.950 . S
C2756 C2755 1.414 . S
C2756 C2757 1.374 . S
C2757 H2737 0.950 . S
C2757 C2753 1.385 . S
C2757 C2756 1.374 . S
C2758 C2755 1.499 . S
C2758 C2759 1.373 . S
C2758 C2760 1.389 . S
C2759 H2738 0.950 . S
C2759 C2758 1.373 . S
C2759 C2775 1.377 . S
C2760 C2758 1.389 . S
C2760 C2761 1.524 . S
C2760 C2774 1.377 . S
C2761 C2760 1.524 . S
C2761 C2762 1.397 . S
C2761 C2766 1.363 . S
C2762 H2739 0.950 . S
C2762 C2761 1.397 . S
C2762 C2763 1.334 . S
C2763 H2740 0.950 . S
C2763 C2762 1.334 . S
C2763 C2764 1.287 . S
C2764 C2763 1.287 . S
C2764 C2765 1.524 . S
C2764 H2783 0.913 . S
C2765 H2741 0.950 . S
C2765 C2764 1.524 . S
C2765 C2766 1.415 . S
C2766 H2742 0.950 . S
C2766 C2761 1.363 . S
C2766 C2765 1.415 . S
C2767 H2743 0.951 . S
C2767 C2768 1.366 . S
C2767 C2769 1.388 . S
C2768 C2767 1.366 . S
C2768 C2772 1.385 . S
C2769 H2744 0.951 . S
C2769 C2767 1.388 . S
C2769 C2770 1.366 . S
C2770 C2769 1.366 . S
C2770 C2771 1.414 . S
C2770 C2773 1.499 . S
C2771 H2745 0.950 . S
C2771 C2770 1.414 . S
C2771 C2772 1.374 . S
C2772 H2746 0.950 . S
C2772 C2768 1.385 . S
C2772 C2771 1.374 . S
C2773 C2770 1.499 . S
C2773 C2774 1.373 . S
C2773 C2775 1.389 . S
C2774 H2747 0.950 . S
C2774 C2760 1.377 . S
C2774 C2773 1.373 . S
C2775 C2759 1.377 . S
C2775 C2773 1.389 . S
C2775 C2776 1.524 . S
C2776 C2775 1.524 . S
C2776 C2777 1.397 . S
C2776 C2781 1.363 . S
C2777 H2748 0.950 . S
C2777 C2776 1.397 . S
C2777 C2778 1.334 . S
C2778 H2749 0.950 . S
C2778 C2777 1.334 . S
C2778 C2779 1.287 . S
C2779 C2778 1.287 . S
C2779 C2780 1.524 . S
C2779 H2782 0.999 . S
C2780 H2750 0.950 . S
C2780 C2779 1.524 . S
C2780 C2781 1.415 . S
C2781 H2751 0.950 . S
C2781 C2776 1.363 . S
C2781 C2780 1.415 . S
H2782 C2779 0.999 . S
H2783 C2764 0.913 . S
H2784 C2802 0.951 . S
H2785 C2804 0.951 . S
H2786 C2806 0.950 . S
H2787 C2807 0.950 . S
H2788 C2809 0.950 . S
H2789 C2812 0.950 . S
H2790 C2813 0.950 . S
H2791 C2815 0.950 . S
H2792 C2816 0.950 . S
H2793 C2817 0.951 . S
H2794 C2819 0.951 . S
H2795 C2821 0.950 . S
H2796 C2822 0.950 . S
H2797 C2824 0.950 . S
H2798 C2827 0.950 . S
H2799 C2828 0.950 . S
H2800 C2830 0.950 . S
H2801 C2831 0.950 . S
C2802 H2784 0.951 . S
C2802 C2803 1.366 . S
C2802 C2804 1.388 . S
C2803 C2802 1.366 . S
C2803 C2807 1.385 . S
C2804 H2785 0.951 . S
C2804 C2802 1.388 . S
C2804 C2805 1.366 . S
C2805 C2804 1.366 . S
C2805 C2806 1.414 . S
C2805 C2808 1.499 . S
C2806 H2786 0.950 . S
C2806 C2805 1.414 . S
C2806 C2807 1.374 . S
C2807 H2787 0.950 . S
C2807 C2803 1.385 . S
C2807 C2806 1.374 . S
C2808 C2805 1.499 . S
C2808 C2809 1.373 . S
C2808 C2810 1.389 . S
C2809 H2788 0.950 . S
C2809 C2808 1.373 . S
C2809 C2825 1.377 . S
C2810 C2808 1.389 . S
C2810 C2811 1.524 . S
C2810 C2824 1.377 . S
C2811 C2810 1.524 . S
C2811 C2812 1.397 . S
C2811 C2816 1.363 . S
C2812 H2789 0.950 . S
C2812 C2811 1.397 . S
C2812 C2813 1.334 . S
C2813 H2790 0.950 . S
C2813 C2812 1.334 . S
C2813 C2814 1.287 . S
C2814 C2813 1.287 . S
C2814 C2815 1.524 . S
C2814 H2833 0.913 . S
C2815 H2791 0.950 . S
C2815 C2814 1.524 . S
C2815 C2816 1.415 . S
C2816 H2792 0.950 . S
C2816 C2811 1.363 . S
C2816 C2815 1.415 . S
C2817 H2793 0.951 . S
C2817 C2818 1.366 . S
C2817 C2819 1.388 . S
C2818 C2817 1.366 . S
C2818 C2822 1.385 . S
C2819 H2794 0.951 . S
C2819 C2817 1.388 . S
C2819 C2820 1.366 . S
C2820 C2819 1.366 . S
C2820 C2821 1.414 . S
C2820 C2823 1.499 . S
C2821 H2795 0.950 . S
C2821 C2820 1.414 . S
C2821 C2822 1.374 . S
C2822 H2796 0.950 . S
C2822 C2818 1.385 . S
C2822 C2821 1.374 . S
C2823 C2820 1.499 . S
C2823 C2824 1.373 . S
C2823 C2825 1.389 . S
C2824 H2797 0.950 . S
C2824 C2810 1.377 . S
C2824 C2823 1.373 . S
C2825 C2809 1.377 . S
C2825 C2823 1.389 . S
C2825 C2826 1.524 . S
C2826 C2825 1.524 . S
C2826 C2827 1.397 . S
C2826 C2831 1.363 . S
C2827 H2798 0.950 . S
C2827 C2826 1.397 . S
C2827 C2828 1.334 . S
C2828 H2799 0.950 . S
C2828 C2827 1.334 . S
C2828 C2829 1.287 . S
C2829 C2828 1.287 . S
C2829 C2830 1.524 . S
C2829 H2832 0.999 . S
C2830 H2800 0.950 . S
C2830 C2829 1.524 . S
C2830 C2831 1.415 . S
C2831 H2801 0.950 . S
C2831 C2826 1.363 . S
C2831 C2830 1.415 . S
H2832 C2829 0.999 . S
H2833 C2814 0.913 . S
H2834 C2852 0.951 . S
H2835 C2854 0.951 . S
H2836 C2856 0.950 . S
H2837 C2857 0.950 . S
H2838 C2859 0.950 . S
H2839 C2862 0.950 . S
H2840 C2863 0.950 . S
H2841 C2865 0.950 . S
H2842 C2866 0.950 . S
H2843 C2867 0.951 . S
H2844 C2869 0.951 . S
H2845 C2871 0.950 . S
H2846 C2872 0.950 . S
H2847 C2874 0.950 . S
H2848 C2877 0.950 . S
H2849 C2878 0.950 . S
H2850 C2880 0.950 . S
H2851 C2881 0.950 . S
C2852 H2834 0.951 . S
C2852 C2853 1.366 . S
C2852 C2854 1.388 . S
C2853 C2852 1.366 . S
C2853 C2857 1.385 . S
C2854 H2835 0.951 . S
C2854 C2852 1.388 . S
C2854 C2855 1.366 . S
C2855 C2854 1.366 . S
C2855 C2856 1.414 . S
C2855 C2858 1.499 . S
C2856 H2836 0.950 . S
C2856 C2855 1.414 . S
C2856 C2857 1.374 . S
C2857 H2837 0.950 . S
C2857 C2853 1.385 . S
C2857 C2856 1.374 . S
C2858 C2855 1.499 . S
C2858 C2859 1.373 . S
C2858 C2860 1.389 . S
C2859 H2838 0.950 . S
C2859 C2858 1.373 . S
C2859 C2875 1.377 . S
C2860 C2858 1.389 . S
C2860 C2861 1.524 . S
C2860 C2874 1.377 . S
C2861 C2860 1.524 . S
C2861 C2862 1.397 . S
C2861 C2866 1.363 . S
C2862 H2839 0.950 . S
C2862 C2861 1.397 . S
C2862 C2863 1.334 . S
C2863 H2840 0.950 . S
C2863 C2862 1.334 . S
C2863 C2864 1.287 . S
C2864 C2863 1.287 . S
C2864 C2865 1.524 . S
C2864 H2883 0.913 . S
C2865 H2841 0.950 . S
C2865 C2864 1.524 . S
C2865 C2866 1.415 . S
C2866 H2842 0.950 . S
C2866 C2861 1.363 . S
C2866 C2865 1.415 . S
C2867 H2843 0.951 . S
C2867 C2868 1.366 . S
C2867 C2869 1.388 . S
C2868 C2867 1.366 . S
C2868 C2872 1.385 . S
C2869 H2844 0.951 . S
C2869 C2867 1.388 . S
C2869 C2870 1.366 . S
C2870 C2869 1.366 . S
C2870 C2871 1.414 . S
C2870 C2873 1.499 . S
C2871 H2845 0.950 . S
C2871 C2870 1.414 . S
C2871 C2872 1.374 . S
C2872 H2846 0.950 . S
C2872 C2868 1.385 . S
C2872 C2871 1.374 . S
C2873 C2870 1.499 . S
C2873 C2874 1.373 . S
C2873 C2875 1.389 . S
C2874 H2847 0.950 . S
C2874 C2860 1.377 . S
C2874 C2873 1.373 . S
C2875 C2859 1.377 . S
C2875 C2873 1.389 . S
C2875 C2876 1.524 . S
C2876 C2875 1.524 . S
C2876 C2877 1.397 . S
C2876 C2881 1.363 . S
C2877 H2848 0.950 . S
C2877 C2876 1.397 . S
C2877 C2878 1.334 . S
C2878 H2849 0.950 . S
C2878 C2877 1.334 . S
C2878 C2879 1.287 . S
C2879 C2878 1.287 . S
C2879 C2880 1.524 . S
C2879 H2882 0.999 . S
C2880 H2850 0.950 . S
C2880 C2879 1.524 . S
C2880 C2881 1.415 . S
C2881 H2851 0.950 . S
C2881 C2876 1.363 . S
C2881 C2880 1.415 . S
H2882 C2879 0.999 . S
H2883 C2864 0.913 . S
H2884 C2902 0.951 . S
H2885 C2904 0.951 . S
H2886 C2906 0.950 . S
H2887 C2907 0.950 . S
H2888 C2909 0.950 . S
H2889 C2912 0.950 . S
H2890 C2913 0.950 . S
H2891 C2915 0.950 . S
H2892 C2916 0.950 . S
H2893 C2917 0.951 . S
H2894 C2919 0.951 . S
H2895 C2921 0.950 . S
H2896 C2922 0.950 . S
H2897 C2924 0.950 . S
H2898 C2927 0.950 . S
H2899 C2928 0.950 . S
H2900 C2930 0.950 . S
H2901 C2931 0.950 . S
C2902 H2884 0.951 . S
C2902 C2903 1.366 . S
C2902 C2904 1.388 . S
C2903 C2902 1.366 . S
C2903 C2907 1.385 . S
C2904 H2885 0.951 . S
C2904 C2902 1.388 . S
C2904 C2905 1.366 . S
C2905 C2904 1.366 . S
C2905 C2906 1.414 . S
C2905 C2908 1.499 . S
C2906 H2886 0.950 . S
C2906 C2905 1.414 . S
C2906 C2907 1.374 . S
C2907 H2887 0.950 . S
C2907 C2903 1.385 . S
C2907 C2906 1.374 . S
C2908 C2905 1.499 . S
C2908 C2909 1.373 . S
C2908 C2910 1.389 . S
C2909 H2888 0.950 . S
C2909 C2908 1.373 . S
C2909 C2925 1.377 . S
C2910 C2908 1.389 . S
C2910 C2911 1.524 . S
C2910 C2924 1.377 . S
C2911 C2910 1.524 . S
C2911 C2912 1.397 . S
C2911 C2916 1.363 . S
C2912 H2889 0.950 . S
C2912 C2911 1.397 . S
C2912 C2913 1.334 . S
C2913 H2890 0.950 . S
C2913 C2912 1.334 . S
C2913 C2914 1.287 . S
C2914 C2913 1.287 . S
C2914 C2915 1.524 . S
C2914 H2933 0.913 . S
C2915 H2891 0.950 . S
C2915 C2914 1.524 . S
C2915 C2916 1.415 . S
C2916 H2892 0.950 . S
C2916 C2911 1.363 . S
C2916 C2915 1.415 . S
C2917 H2893 0.951 . S
C2917 C2918 1.366 . S
C2917 C2919 1.388 . S
C2918 C2917 1.366 . S
C2918 C2922 1.385 . S
C2919 H2894 0.951 . S
C2919 C2917 1.388 . S
C2919 C2920 1.366 . S
C2920 C2919 1.366 . S
C2920 C2921 1.414 . S
C2920 C2923 1.499 . S
C2921 H2895 0.950 . S
C2921 C2920 1.414 . S
C2921 C2922 1.374 . S
C2922 H2896 0.950 . S
C2922 C2918 1.385 . S
C2922 C2921 1.374 . S
C2923 C2920 1.499 . S
C2923 C2924 1.373 . S
C2923 C2925 1.389 . S
C2924 H2897 0.950 . S
C2924 C2910 1.377 . S
C2924 C2923 1.373 . S
C2925 C2909 1.377 . S
C2925 C2923 1.389 . S
C2925 C2926 1.524 . S
C2926 C2925 1.524 . S
C2926 C2927 1.397 . S
C2926 C2931 1.363 . S
C2927 H2898 0.950 . S
C2927 C2926 1.397 . S
C2927 C2928 1.334 . S
C2928 H2899 0.950 . S
C2928 C2927 1.334 . S
C2928 C2929 1.287 . S
C2929 C2928 1.287 . S
C2929 C2930 1.524 . S
C2929 H2932 0.999 . S
C2930 H2900 0.950 . S
C2930 C2929 1.524 . S
C2930 C2931 1.415 . S
C2931 H2901 0.950 . S
C2931 C2926 1.363 . S
C2931 C2930 1.415 . S
H2932 C2929 0.999 . S
H2933 C2914 0.913 . S
H2934 C2952 0.951 . S
H2935 C2954 0.951 . S
H2936 C2956 0.950 . S
H2937 C2957 0.950 . S
H2938 C2959 0.950 . S
H2939 C2962 0.950 . S
H2940 C2963 0.950 . S
H2941 C2965 0.950 . S
H2942 C2966 0.950 . S
H2943 C2967 0.951 . S
H2944 C2969 0.951 . S
H2945 C2971 0.950 . S
H2946 C2972 0.950 . S
H2947 C2974 0.950 . S
H2948 C2977 0.950 . S
H2949 C2978 0.950 . S
H2950 C2980 0.950 . S
H2951 C2981 0.950 . S
C2952 H2934 0.951 . S
C2952 C2953 1.366 . S
C2952 C2954 1.388 . S
C2953 C2952 1.366 . S
C2953 C2957 1.385 . S
C2954 H2935 0.951 . S
C2954 C2952 1.388 . S
C2954 C2955 1.366 . S
C2955 C2954 1.366 . S
C2955 C2956 1.414 . S
C2955 C2958 1.499 . S
C2956 H2936 0.950 . S
C2956 C2955 1.414 . S
C2956 C2957 1.374 . S
C2957 H2937 0.950 . S
C2957 C2953 1.385 . S
C2957 C2956 1.374 . S
C2958 C2955 1.499 . S
C2958 C2959 1.373 . S
C2958 C2960 1.389 . S
C2959 H2938 0.950 . S
C2959 C2958 1.373 . S
C2959 C2975 1.377 . S
C2960 C2958 1.389 . S
C2960 C2961 1.524 . S
C2960 C2974 1.377 . S
C2961 C2960 1.524 . S
C2961 C2962 1.397 . S
C2961 C2966 1.363 . S
C2962 H2939 0.950 . S
C2962 C2961 1.397 . S
C2962 C2963 1.334 . S
C2963 H2940 0.950 . S
C2963 C2962 1.334 . S
C2963 C2964 1.287 . S
C2964 C2963 1.287 . S
C2964 C2965 1.524 . S
C2964 H2983 0.913 . S
C2965 H2941 0.950 . S
C2965 C2964 1.524 . S
C2965 C2966 1.415 . S
C2966 H2942 0.950 . S
C2966 C2961 1.363 . S
C2966 C2965 1.415 . S
C2967 H2943 0.951 . S
C2967 C2968 1.366 . S
C2967 C2969 1.388 . S
C2968 C2967 1.366 . S
C2968 C2972 1.385 . S
C2969 H2944 0.951 . S
C2969 C2967 1.388 . S
C2969 C2970 1.366 . S
C2970 C2969 1.366 . S
C2970 C2971 1.414 . S
C2970 C2973 1.499 . S
C2971 H2945 0.950 . S
C2971 C2970 1.414 . S
C2971 C2972 1.374 . S
C2972 H2946 0.950 . S
C2972 C2968 1.385 . S
C2972 C2971 1.374 . S
C2973 C2970 1.499 . S
C2973 C2974 1.373 . S
C2973 C2975 1.389 . S
C2974 H2947 0.950 . S
C2974 C2960 1.377 . S
C2974 C2973 1.373 . S
C2975 C2959 1.377 . S
C2975 C2973 1.389 . S
C2975 C2976 1.524 . S
C2976 C2975 1.524 . S
C2976 C2977 1.397 . S
C2976 C2981 1.363 . S
C2977 H2948 0.950 . S
C2977 C2976 1.397 . S
C2977 C2978 1.334 . S
C2978 H2949 0.950 . S
C2978 C2977 1.334 . S
C2978 C2979 1.287 . S
C2979 C2978 1.287 . S
C2979 C2980 1.524 . S
C2979 H2982 0.999 . S
C2980 H2950 0.950 . S
C2980 C2979 1.524 . S
C2980 C2981 1.415 . S
C2981 H2951 0.950 . S
C2981 C2976 1.363 . S
C2981 C2980 1.415 . S
H2982 C2979 0.999 . S
H2983 C2964 0.913 . S
H2984 C3002 0.951 . S
H2985 C3004 0.951 . S
H2986 C3006 0.950 . S
H2987 C3007 0.950 . S
H2988 C3009 0.950 . S
H2989 C3012 0.950 . S
H2990 C3013 0.950 . S
H2991 C3015 0.950 . S
H2992 C3016 0.950 . S
H2993 C3017 0.951 . S
H2994 C3019 0.951 . S
H2995 C3021 0.950 . S
H2996 C3022 0.950 . S
H2997 C3024 0.950 . S
H2998 C3027 0.950 . S
H2999 C3028 0.950 . S
H3000 C3030 0.950 . S
H3001 C3031 0.950 . S
C3002 H2984 0.951 . S
C3002 C3003 1.366 . S
C3002 C3004 1.388 . S
C3003 C3002 1.366 . S
C3003 C3007 1.385 . S
C3004 H2985 0.951 . S
C3004 C3002 1.388 . S
C3004 C3005 1.366 . S
C3005 C3004 1.366 . S
C3005 C3006 1.414 . S
C3005 C3008 1.499 . S
C3006 H2986 0.950 . S
C3006 C3005 1.414 . S
C3006 C3007 1.374 . S
C3007 H2987 0.950 . S
C3007 C3003 1.385 . S
C3007 C3006 1.374 . S
C3008 C3005 1.499 . S
C3008 C3009 1.373 . S
C3008 C3010 1.389 . S
C3009 H2988 0.950 . S
C3009 C3008 1.373 . S
C3009 C3025 1.377 . S
C3010 C3008 1.389 . S
C3010 C3011 1.524 . S
C3010 C3024 1.377 . S
C3011 C3010 1.524 . S
C3011 C3012 1.397 . S
C3011 C3016 1.363 . S
C3012 H2989 0.950 . S
C3012 C3011 1.397 . S
C3012 C3013 1.334 . S
C3013 H2990 0.950 . S
C3013 C3012 1.334 . S
C3013 C3014 1.287 . S
C3014 C3013 1.287 . S
C3014 C3015 1.524 . S
C3014 H3033 0.913 . S
C3015 H2991 0.950 . S
C3015 C3014 1.524 . S
C3015 C3016 1.415 . S
C3016 H2992 0.950 . S
C3016 C3011 1.363 . S
C3016 C3015 1.415 . S
C3017 H2993 0.951 . S
C3017 C3018 1.366 . S
C3017 C3019 1.388 . S
C3018 C3017 1.366 . S
C3018 C3022 1.385 . S
C3019 H2994 0.951 . S
C3019 C3017 1.388 . S
C3019 C3020 1.366 . S
C3020 C3019 1.366 . S
C3020 C3021 1.414 . S
C3020 C3023 1.499 . S
C3021 H2995 0.950 . S
C3021 C3020 1.414 . S
C3021 C3022 1.374 . S
C3022 H2996 0.950 . S
C3022 C3018 1.385 . S
C3022 C3021 1.374 . S
C3023 C3020 1.499 . S
C3023 C3024 1.373 . S
C3023 C3025 1.389 . S
C3024 H2997 0.950 . S
C3024 C3010 1.377 . S
C3024 C3023 1.373 . S
C3025 C3009 1.377 . S
C3025 C3023 1.389 . S
C3025 C3026 1.524 . S
C3026 C3025 1.524 . S
C3026 C3027 1.397 . S
C3026 C3031 1.363 . S
C3027 H2998 0.950 . S
C3027 C3026 1.397 . S
C3027 C3028 1.334 . S
C3028 H2999 0.950 . S
C3028 C3027 1.334 . S
C3028 C3029 1.287 . S
C3029 C3028 1.287 . S
C3029 C3030 1.524 . S
C3029 H3032 0.999 . S
C3030 H3000 0.950 . S
C3030 C3029 1.524 . S
C3030 C3031 1.415 . S
C3031 H3001 0.950 . S
C3031 C3026 1.363 . S
C3031 C3030 1.415 . S
H3032 C3029 0.999 . S
H3033 C3014 0.913 . S
H3034 C3052 0.951 . S
H3035 C3054 0.951 . S
H3036 C3056 0.950 . S
H3037 C3057 0.950 . S
H3038 C3059 0.950 . S
H3039 C3062 0.950 . S
H3040 C3063 0.950 . S
H3041 C3065 0.950 . S
H3042 C3066 0.950 . S
H3043 C3067 0.951 . S
H3044 C3069 0.951 . S
H3045 C3071 0.950 . S
H3046 C3072 0.950 . S
H3047 C3074 0.950 . S
H3048 C3077 0.950 . S
H3049 C3078 0.950 . S
H3050 C3080 0.950 . S
H3051 C3081 0.950 . S
C3052 H3034 0.951 . S
C3052 C3053 1.366 . S
C3052 C3054 1.388 . S
C3053 C3052 1.366 . S
C3053 C3057 1.385 . S
C3054 H3035 0.951 . S
C3054 C3052 1.388 . S
C3054 C3055 1.366 . S
C3055 C3054 1.366 . S
C3055 C3056 1.414 . S
C3055 C3058 1.499 . S
C3056 H3036 0.950 . S
C3056 C3055 1.414 . S
C3056 C3057 1.374 . S
C3057 H3037 0.950 . S
C3057 C3053 1.385 . S
C3057 C3056 1.374 . S
C3058 C3055 1.499 . S
C3058 C3059 1.373 . S
C3058 C3060 1.389 . S
C3059 H3038 0.950 . S
C3059 C3058 1.373 . S
C3059 C3075 1.377 . S
C3060 C3058 1.389 . S
C3060 C3061 1.524 . S
C3060 C3074 1.377 . S
C3061 C3060 1.524 . S
C3061 C3062 1.397 . S
C3061 C3066 1.363 . S
C3062 H3039 0.950 . S
C3062 C3061 1.397 . S
C3062 C3063 1.334 . S
C3063 H3040 0.950 . S
C3063 C3062 1.334 . S
C3063 C3064 1.287 . S
C3064 C3063 1.287 . S
C3064 C3065 1.524 . S
C3064 H3083 0.913 . S
C3065 H3041 0.950 . S
C3065 C3064 1.524 . S
C3065 C3066 1.415 . S
C3066 H3042 0.950 . S
C3066 C3061 1.363 . S
C3066 C3065 1.415 . S
C3067 H3043 0.951 . S
C3067 C3068 1.366 . S
C3067 C3069 1.388 . S
C3068 C3067 1.366 . S
C3068 C3072 1.385 . S
C3069 H3044 0.951 . S
C3069 C3067 1.388 . S
C3069 C3070 1.366 . S
C3070 C3069 1.366 . S
C3070 C3071 1.414 . S
C3070 C3073 1.499 . S
C3071 H3045 0.950 . S
C3071 C3070 1.414 . S
C3071 C3072 1.374 . S
C3072 H3046 0.950 . S
C3072 C3068 1.385 . S
C3072 C3071 1.374 . S
C3073 C3070 1.499 . S
C3073 C3074 1.373 . S
C3073 C3075 1.389 . S
C3074 H3047 0.950 . S
C3074 C3060 1.377 . S
C3074 C3073 1.373 . S
C3075 C3059 1.377 . S
C3075 C3073 1.389 . S
C3075 C3076 1.524 . S
C3076 C3075 1.524 . S
C3076 C3077 1.397 . S
C3076 C3081 1.363 . S
C3077 H3048 0.950 . S
C3077 C3076 1.397 . S
C3077 C3078 1.334 . S
C3078 H3049 0.950 . S
C3078 C3077 1.334 . S
C3078 C3079 1.287 . S
C3079 C3078 1.287 . S
C3079 C3080 1.524 . S
C3079 H3082 0.999 . S
C3080 H3050 0.950 . S
C3080 C3079 1.524 . S
C3080 C3081 1.415 . S
C3081 H3051 0.950 . S
C3081 C3076 1.363 . S
C3081 C3080 1.415 . S
H3082 C3079 0.999 . S
H3083 C3064 0.913 . S
H3084 C3102 0.951 . S
H3085 C3104 0.951 . S
H3086 C3106 0.950 . S
H3087 C3107 0.950 . S
H3088 C3109 0.950 . S
H3089 C3112 0.950 . S
H3090 C3113 0.950 . S
H3091 C3115 0.950 . S
H3092 C3116 0.950 . S
H3093 C3117 0.951 . S
H3094 C3119 0.951 . S
H3095 C3121 0.950 . S
H3096 C3122 0.950 . S
H3097 C3124 0.950 . S
H3098 C3127 0.950 . S
H3099 C3128 0.950 . S
H3100 C3130 0.950 . S
H3101 C3131 0.950 . S
C3102 H3084 0.951 . S
C3102 C3103 1.366 . S
C3102 C3104 1.388 . S
C3103 C3102 1.366 . S
C3103 C3107 1.385 . S
C3104 H3085 0.951 . S
C3104 C3102 1.388 . S
C3104 C3105 1.366 . S
C3105 C3104 1.366 . S
C3105 C3106 1.414 . S
C3105 C3108 1.499 . S
C3106 H3086 0.950 . S
C3106 C3105 1.414 . S
C3106 C3107 1.374 . S
C3107 H3087 0.950 . S
C3107 C3103 1.385 . S
C3107 C3106 1.374 . S
C3108 C3105 1.499 . S
C3108 C3109 1.373 . S
C3108 C3110 1.389 . S
C3109 H3088 0.950 . S
C3109 C3108 1.373 . S
C3109 C3125 1.377 . S
C3110 C3108 1.389 . S
C3110 C3111 1.524 . S
C3110 C3124 1.377 . S
C3111 C3110 1.524 . S
C3111 C3112 1.397 . S
C3111 C3116 1.363 . S
C3112 H3089 0.950 . S
C3112 C3111 1.397 . S
C3112 C3113 1.334 . S
C3113 H3090 0.950 . S
C3113 C3112 1.334 . S
C3113 C3114 1.287 . S
C3114 C3113 1.287 . S
C3114 C3115 1.524 . S
C3114 H3133 0.913 . S
C3115 H3091 0.950 . S
C3115 C3114 1.524 . S
C3115 C3116 1.415 . S
C3116 H3092 0.950 . S
C3116 C3111 1.363 . S
C3116 C3115 1.415 . S
C3117 H3093 0.951 . S
C3117 C3118 1.366 . S
C3117 C3119 1.388 . S
C3118 C3117 1.366 . S
C3118 C3122 1.385 . S
C3119 H3094 0.951 . S
C3119 C3117 1.388 . S
C3119 C3120 1.366 . S
C3120 C3119 1.366 . S
C3120 C3121 1.414 . S
C3120 C3123 1.499 . S
C3121 H3095 0.950 . S
C3121 C3120 1.414 . S
C3121 C3122 1.374 . S
C3122 H3096 0.950 . S
C3122 C3118 1.385 . S
C3122 C3121 1.374 . S
C3123 C3120 1.499 . S
C3123 C3124 1.373 . S
C3123 C3125 1.389 . S
C3124 H3097 0.950 . S
C3124 C3110 1.377 . S
C3124 C3123 1.373 . S
C3125 C3109 1.377 . S
C3125 C3123 1.389 . S
C3125 C3126 1.524 . S
C3126 C3125 1.524 . S
C3126 C3127 1.397 . S
C3126 C3131 1.363 . S
C3127 H3098 0.950 . S
C3127 C3126 1.397 . S
C3127 C3128 1.334 . S
C3128 H3099 0.950 . S
C3128 C3127 1.334 . S
C3128 C3129 1.287 . S
C3129 C3128 1.287 . S
C3129 C3130 1.524 . S
C3129 H3132 0.999 . S
C3130 H3100 0.950 . S
C3130 C3129 1.524 . S
C3130 C3131 1.415 . S
C3131 H3101 0.950 . S
C3131 C3126 1.363 . S
C3131 C3130 1.415 . S
H3132 C3129 0.999 . S
H3133 C3114 0.913 . S
H3134 C3152 0.951 . S
H3135 C3154 0.951 . S
H3136 C3156 0.950 . S
H3137 C3157 0.950 . S
H3138 C3159 0.950 . S
H3139 C3162 0.950 . S
H3140 C3163 0.950 . S
H3141 C3165 0.950 . S
H3142 C3166 0.950 . S
H3143 C3167 0.951 . S
H3144 C3169 0.951 . S
H3145 C3171 0.950 . S
H3146 C3172 0.950 . S
H3147 C3174 0.950 . S
H3148 C3177 0.950 . S
H3149 C3178 0.950 . S
H3150 C3180 0.950 . S
H3151 C3181 0.950 . S
C3152 H3134 0.951 . S
C3152 C3153 1.366 . S
C3152 C3154 1.388 . S
C3153 C3152 1.366 . S
C3153 C3157 1.385 . S
C3154 H3135 0.951 . S
C3154 C3152 1.388 . S
C3154 C3155 1.366 . S
C3155 C3154 1.366 . S
C3155 C3156 1.414 . S
C3155 C3158 1.499 . S
C3156 H3136 0.950 . S
C3156 C3155 1.414 . S
C3156 C3157 1.374 . S
C3157 H3137 0.950 . S
C3157 C3153 1.385 . S
C3157 C3156 1.374 . S
C3158 C3155 1.499 . S
C3158 C3159 1.373 . S
C3158 C3160 1.389 . S
C3159 H3138 0.950 . S
C3159 C3158 1.373 . S
C3159 C3175 1.377 . S
C3160 C3158 1.389 . S
C3160 C3161 1.524 . S
C3160 C3174 1.377 . S
C3161 C3160 1.524 . S
C3161 C3162 1.397 . S
C3161 C3166 1.363 . S
C3162 H3139 0.950 . S
C3162 C3161 1.397 . S
C3162 C3163 1.334 . S
C3163 H3140 0.950 . S
C3163 C3162 1.334 . S
C3163 C3164 1.287 . S
C3164 C3163 1.287 . S
C3164 C3165 1.524 . S
C3164 H3183 0.913 . S
C3165 H3141 0.950 . S
C3165 C3164 1.524 . S
C3165 C3166 1.415 . S
C3166 H3142 0.950 . S
C3166 C3161 1.363 . S
C3166 C3165 1.415 . S
C3167 H3143 0.951 . S
C3167 C3168 1.366 . S
C3167 C3169 1.388 . S
C3168 C3167 1.366 . S
C3168 C3172 1.385 . S
C3169 H3144 0.951 . S
C3169 C3167 1.388 . S
C3169 C3170 1.366 . S
C3170 C3169 1.366 . S
C3170 C3171 1.414 . S
C3170 C3173 1.499 . S
C3171 H3145 0.950 . S
C3171 C3170 1.414 . S
C3171 C3172 1.374 . S
C3172 H3146 0.950 . S
C3172 C3168 1.385 . S
C3172 C3171 1.374 . S
C3173 C3170 1.499 . S
C3173 C3174 1.373 . S
C3173 C3175 1.389 . S
C3174 H3147 0.950 . S
C3174 C3160 1.377 . S
C3174 C3173 1.373 . S
C3175 C3159 1.377 . S
C3175 C3173 1.389 . S
C3175 C3176 1.524 . S
C3176 C3175 1.524 . S
C3176 C3177 1.397 . S
C3176 C3181 1.363 . S
C3177 H3148 0.950 . S
C3177 C3176 1.397 . S
C3177 C3178 1.334 . S
C3178 H3149 0.950 . S
C3178 C3177 1.334 . S
C3178 C3179 1.287 . S
C3179 C3178 1.287 . S
C3179 C3180 1.524 . S
C3179 H3182 0.999 . S
C3180 H3150 0.950 . S
C3180 C3179 1.524 . S
C3180 C3181 1.415 . S
C3181 H3151 0.950 . S
C3181 C3176 1.363 . S
C3181 C3180 1.415 . S
H3182 C3179 0.999 . S
H3183 C3164 0.913 . S
H3184 C3202 0.951 . S
H3185 C3204 0.951 . S
H3186 C3206 0.950 . S
H3187 C3207 0.950 . S
H3188 C3209 0.950 . S
H3189 C3212 0.950 . S
H3190 C3213 0.950 . S
H3191 C3215 0.950 . S
H3192 C3216 0.950 . S
H3193 C3217 0.951 . S
H3194 C3219 0.951 . S
H3195 C3221 0.950 . S
H3196 C3222 0.950 . S
H3197 C3224 0.950 . S
H3198 C3227 0.950 . S
H3199 C3228 0.950 . S
H3200 C3230 0.950 . S
H3201 C3231 0.950 . S
C3202 H3184 0.951 . S
C3202 C3203 1.366 . S
C3202 C3204 1.388 . S
C3203 C3202 1.366 . S
C3203 C3207 1.385 . S
C3204 H3185 0.951 . S
C3204 C3202 1.388 . S
C3204 C3205 1.366 . S
C3205 C3204 1.366 . S
C3205 C3206 1.414 . S
C3205 C3208 1.499 . S
C3206 H3186 0.950 . S
C3206 C3205 1.414 . S
C3206 C3207 1.374 . S
C3207 H3187 0.950 . S
C3207 C3203 1.385 . S
C3207 C3206 1.374 . S
C3208 C3205 1.499 . S
C3208 C3209 1.373 . S
C3208 C3210 1.389 . S
C3209 H3188 0.950 . S
C3209 C3208 1.373 . S
C3209 C3225 1.377 . S
C3210 C3208 1.389 . S
C3210 C3211 1.524 . S
C3210 C3224 1.377 . S
C3211 C3210 1.524 . S
C3211 C3212 1.397 . S
C3211 C3216 1.363 . S
C3212 H3189 0.950 . S
C3212 C3211 1.397 . S
C3212 C3213 1.334 . S
C3213 H3190 0.950 . S
C3213 C3212 1.334 . S
C3213 C3214 1.287 . S
C3214 C3213 1.287 . S
C3214 C3215 1.524 . S
C3214 H3233 0.913 . S
C3215 H3191 0.950 . S
C3215 C3214 1.524 . S
C3215 C3216 1.415 . S
C3216 H3192 0.950 . S
C3216 C3211 1.363 . S
C3216 C3215 1.415 . S
C3217 H3193 0.951 . S
C3217 C3218 1.366 . S
C3217 C3219 1.388 . S
C3218 C3217 1.366 . S
C3218 C3222 1.385 . S
C3219 H3194 0.951 . S
C3219 C3217 1.388 . S
C3219 C3220 1.366 . S
C3220 C3219 1.366 . S
C3220 C3221 1.414 . S
C3220 C3223 1.499 . S
C3221 H3195 0.950 . S
C3221 C3220 1.414 . S
C3221 C3222 1.374 . S
C3222 H3196 0.950 . S
C3222 C3218 1.385 . S
C3222 C3221 1.374 . S
C3223 C3220 1.499 . S
C3223 C3224 1.373 . S
C3223 C3225 1.389 . S
C3224 H3197 0.950 . S
C3224 C3210 1.377 . S
C3224 C3223 1.373 . S
C3225 C3209 1.377 . S
C3225 C3223 1.389 . S
C3225 C3226 1.524 . S
C3226 C3225 1.524 . S
C3226 C3227 1.397 . S
C3226 C3231 1.363 . S
C3227 H3198 0.950 . S
C3227 C3226 1.397 . S
C3227 C3228 1.334 . S
C3228 H3199 0.950 . S
C3228 C3227 1.334 . S
C3228 C3229 1.287 . S
C3229 C3228 1.287 . S
C3229 C3230 1.524 . S
C3229 H3232 0.999 . S
C3230 H3200 0.950 . S
C3230 C3229 1.524 . S
C3230 C3231 1.415 . S
C3231 H3201 0.950 . S
C3231 C3226 1.363 . S
C3231 C3230 1.415 . S
H3232 C3229 0.999 . S
H3233 C3214 0.913 . S
H3234 C3252 0.951 . S
H3235 C3254 0.951 . S
H3236 C3256 0.950 . S
H3237 C3257 0.950 . S
H3238 C3259 0.950 . S
H3239 C3262 0.950 . S
H3240 C3263 0.950 . S
H3241 C3265 0.950 . S
H3242 C3266 0.950 . S
H3243 C3267 0.951 . S
H3244 C3269 0.951 . S
H3245 C3271 0.950 . S
H3246 C3272 0.950 . S
H3247 C3274 0.950 . S
H3248 C3277 0.950 . S
H3249 C3278 0.950 . S
H3250 C3280 0.950 . S
H3251 C3281 0.950 . S
C3252 H3234 0.951 . S
C3252 C3253 1.366 . S
C3252 C3254 1.388 . S
C3253 C3252 1.366 . S
C3253 C3257 1.385 . S
C3254 H3235 0.951 . S
C3254 C3252 1.388 . S
C3254 C3255 1.366 . S
C3255 C3254 1.366 . S
C3255 C3256 1.414 . S
C3255 C3258 1.499 . S
C3256 H3236 0.950 . S
C3256 C3255 1.414 . S
C3256 C3257 1.374 . S
C3257 H3237 0.950 . S
C3257 C3253 1.385 . S
C3257 C3256 1.374 . S
C3258 C3255 1.499 . S
C3258 C3259 1.373 . S
C3258 C3260 1.389 . S
C3259 H3238 0.950 . S
C3259 C3258 1.373 . S
C3259 C3275 1.377 . S
C3260 C3258 1.389 . S
C3260 C3261 1.524 . S
C3260 C3274 1.377 . S
C3261 C3260 1.524 . S
C3261 C3262 1.397 . S
C3261 C3266 1.363 . S
C3262 H3239 0.950 . S
C3262 C3261 1.397 . S
C3262 C3263 1.334 . S
C3263 H3240 0.950 . S
C3263 C3262 1.334 . S
C3263 C3264 1.287 . S
C3264 C3263 1.287 . S
C3264 C3265 1.524 . S
C3264 H3283 0.913 . S
C3265 H3241 0.950 . S
C3265 C3264 1.524 . S
C3265 C3266 1.415 . S
C3266 H3242 0.950 . S
C3266 C3261 1.363 . S
C3266 C3265 1.415 . S
C3267 H3243 0.951 . S
C3267 C3268 1.366 . S
C3267 C3269 1.388 . S
C3268 C3267 1.366 . S
C3268 C3272 1.385 . S
C3269 H3244 0.951 . S
C3269 C3267 1.388 . S
C3269 C3270 1.366 . S
C3270 C3269 1.366 . S
C3270 C3271 1.414 . S
C3270 C3273 1.499 . S
C3271 H3245 0.950 . S
C3271 C3270 1.414 . S
C3271 C3272 1.374 . S
C3272 H3246 0.950 . S
C3272 C3268 1.385 . S
C3272 C3271 1.374 . S
C3273 C3270 1.499 . S
C3273 C3274 1.373 . S
C3273 C3275 1.389 . S
C3274 H3247 0.950 . S
C3274 C3260 1.377 . S
C3274 C3273 1.373 . S
C3275 C3259 1.377 . S
C3275 C3273 1.389 . S
C3275 C3276 1.524 . S
C3276 C3275 1.524 . S
C3276 C3277 1.397 . S
C3276 C3281 1.363 . S
C3277 H3248 0.950 . S
C3277 C3276 1.397 . S
C3277 C3278 1.334 . S
C3278 H3249 0.950 . S
C3278 C3277 1.334 . S
C3278 C3279 1.287 . S
C3279 C3278 1.287 . S
C3279 C3280 1.524 . S
C3279 H3282 0.999 . S
C3280 H3250 0.950 . S
C3280 C3279 1.524 . S
C3280 C3281 1.415 . S
C3281 H3251 0.950 . S
C3281 C3276 1.363 . S
C3281 C3280 1.415 . S
H3282 C3279 0.999 . S
H3283 C3264 0.913 . S
H3284 C3302 0.951 . S
H3285 C3304 0.951 . S
H3286 C3306 0.950 . S
H3287 C3307 0.950 . S
H3288 C3309 0.950 . S
H3289 C3312 0.950 . S
H3290 C3313 0.950 . S
H3291 C3315 0.950 . S
H3292 C3316 0.950 . S
H3293 C3317 0.951 . S
H3294 C3319 0.951 . S
H3295 C3321 0.950 . S
H3296 C3322 0.950 . S
H3297 C3324 0.950 . S
H3298 C3327 0.950 . S
H3299 C3328 0.950 . S
H3300 C3330 0.950 . S
H3301 C3331 0.950 . S
C3302 H3284 0.951 . S
C3302 C3303 1.366 . S
C3302 C3304 1.388 . S
C3303 C3302 1.366 . S
C3303 C3307 1.385 . S
C3304 H3285 0.951 . S
C3304 C3302 1.388 . S
C3304 C3305 1.366 . S
C3305 C3304 1.366 . S
C3305 C3306 1.414 . S
C3305 C3308 1.499 . S
C3306 H3286 0.950 . S
C3306 C3305 1.414 . S
C3306 C3307 1.374 . S
C3307 H3287 0.950 . S
C3307 C3303 1.385 . S
C3307 C3306 1.374 . S
C3308 C3305 1.499 . S
C3308 C3309 1.373 . S
C3308 C3310 1.389 . S
C3309 H3288 0.950 . S
C3309 C3308 1.373 . S
C3309 C3325 1.377 . S
C3310 C3308 1.389 . S
C3310 C3311 1.524 . S
C3310 C3324 1.377 . S
C3311 C3310 1.524 . S
C3311 C3312 1.397 . S
C3311 C3316 1.363 . S
C3312 H3289 0.950 . S
C3312 C3311 1.397 . S
C3312 C3313 1.334 . S
C3313 H3290 0.950 . S
C3313 C3312 1.334 . S
C3313 C3314 1.287 . S
C3314 C3313 1.287 . S
C3314 C3315 1.524 . S
C3314 H3333 0.913 . S
C3315 H3291 0.950 . S
C3315 C3314 1.524 . S
C3315 C3316 1.415 . S
C3316 H3292 0.950 . S
C3316 C3311 1.363 . S
C3316 C3315 1.415 . S
C3317 H3293 0.951 . S
C3317 C3318 1.366 . S
C3317 C3319 1.388 . S
C3318 C3317 1.366 . S
C3318 C3322 1.385 . S
C3319 H3294 0.951 . S
C3319 C3317 1.388 . S
C3319 C3320 1.366 . S
C3320 C3319 1.366 . S
C3320 C3321 1.414 . S
C3320 C3323 1.499 . S
C3321 H3295 0.950 . S
C3321 C3320 1.414 . S
C3321 C3322 1.374 . S
C3322 H3296 0.950 . S
C3322 C3318 1.385 . S
C3322 C3321 1.374 . S
C3323 C3320 1.499 . S
C3323 C3324 1.373 . S
C3323 C3325 1.389 . S
C3324 H3297 0.950 . S
C3324 C3310 1.377 . S
C3324 C3323 1.373 . S
C3325 C3309 1.377 . S
C3325 C3323 1.389 . S
C3325 C3326 1.524 . S
C3326 C3325 1.524 . S
C3326 C3327 1.397 . S
C3326 C3331 1.363 . S
C3327 H3298 0.950 . S
C3327 C3326 1.397 . S
C3327 C3328 1.334 . S
C3328 H3299 0.950 . S
C3328 C3327 1.334 . S
C3328 C3329 1.287 . S
C3329 C3328 1.287 . S
C3329 C3330 1.524 . S
C3329 H3332 0.999 . S
C3330 H3300 0.950 . S
C3330 C3329 1.524 . S
C3330 C3331 1.415 . S
C3331 H3301 0.950 . S
C3331 C3326 1.363 . S
C3331 C3330 1.415 . S
H3332 C3329 0.999 . S
H3333 C3314 0.913 . S
H3334 C3352 0.951 . S
H3335 C3354 0.951 . S
H3336 C3356 0.950 . S
H3337 C3357 0.950 . S
H3338 C3359 0.950 . S
H3339 C3362 0.950 . S
H3340 C3363 0.950 . S
H3341 C3365 0.950 . S
H3342 C3366 0.950 . S
H3343 C3367 0.951 . S
H3344 C3369 0.951 . S
H3345 C3371 0.950 . S
H3346 C3372 0.950 . S
H3347 C3374 0.950 . S
H3348 C3377 0.950 . S
H3349 C3378 0.950 . S
H3350 C3380 0.950 . S
H3351 C3381 0.950 . S
C3352 H3334 0.951 . S
C3352 C3353 1.366 . S
C3352 C3354 1.388 . S
C3353 C3352 1.366 . S
C3353 C3357 1.385 . S
C3354 H3335 0.951 . S
C3354 C3352 1.388 . S
C3354 C3355 1.366 . S
C3355 C3354 1.366 . S
C3355 C3356 1.414 . S
C3355 C3358 1.499 . S
C3356 H3336 0.950 . S
C3356 C3355 1.414 . S
C3356 C3357 1.374 . S
C3357 H3337 0.950 . S
C3357 C3353 1.385 . S
C3357 C3356 1.374 . S
C3358 C3355 1.499 . S
C3358 C3359 1.373 . S
C3358 C3360 1.389 . S
C3359 H3338 0.950 . S
C3359 C3358 1.373 . S
C3359 C3375 1.377 . S
C3360 C3358 1.389 . S
C3360 C3361 1.524 . S
C3360 C3374 1.377 . S
C3361 C3360 1.524 . S
C3361 C3362 1.397 . S
C3361 C3366 1.363 . S
C3362 H3339 0.950 . S
C3362 C3361 1.397 . S
C3362 C3363 1.334 . S
C3363 H3340 0.950 . S
C3363 C3362 1.334 . S
C3363 C3364 1.287 . S
C3364 C3363 1.287 . S
C3364 C3365 1.524 . S
C3364 H3383 0.913 . S
C3365 H3341 0.950 . S
C3365 C3364 1.524 . S
C3365 C3366 1.415 . S
C3366 H3342 0.950 . S
C3366 C3361 1.363 . S
C3366 C3365 1.415 . S
C3367 H3343 0.951 . S
C3367 C3368 1.366 . S
C3367 C3369 1.388 . S
C3368 C3367 1.366 . S
C3368 C3372 1.385 . S
C3369 H3344 0.951 . S
C3369 C3367 1.388 . S
C3369 C3370 1.366 . S
C3370 C3369 1.366 . S
C3370 C3371 1.414 . S
C3370 C3373 1.499 . S
C3371 H3345 0.950 . S
C3371 C3370 1.414 . S
C3371 C3372 1.374 . S
C3372 H3346 0.950 . S
C3372 C3368 1.385 . S
C3372 C3371 1.374 . S
C3373 C3370 1.499 . S
C3373 C3374 1.373 . S
C3373 C3375 1.389 . S
C3374 H3347 0.950 . S
C3374 C3360 1.377 . S
C3374 C3373 1.373 . S
C3375 C3359 1.377 . S
C3375 C3373 1.389 . S
C3375 C3376 1.524 . S
C3376 C3375 1.524 . S
C3376 C3377 1.397 . S
C3376 C3381 1.363 . S
C3377 H3348 0.950 . S
C3377 C3376 1.397 . S
C3377 C3378 1.334 . S
C3378 H3349 0.950 . S
C3378 C3377 1.334 . S
C3378 C3379 1.287 . S
C3379 C3378 1.287 . S
C3379 C3380 1.524 . S
C3379 H3382 0.999 . S
C3380 H3350 0.950 . S
C3380 C3379 1.524 . S
C3380 C3381 1.415 . S
C3381 H3351 0.950 . S
C3381 C3376 1.363 . S
C3381 C3380 1.415 . S
H3382 C3379 0.999 . S
H3383 C3364 0.913 . S
H3384 C3402 0.951 . S
H3385 C3404 0.951 . S
H3386 C3406 0.950 . S
H3387 C3407 0.950 . S
H3388 C3409 0.950 . S
H3389 C3412 0.950 . S
H3390 C3413 0.950 . S
H3391 C3415 0.950 . S
H3392 C3416 0.950 . S
H3393 C3417 0.951 . S
H3394 C3419 0.951 . S
H3395 C3421 0.950 . S
H3396 C3422 0.950 . S
H3397 C3424 0.950 . S
H3398 C3427 0.950 . S
H3399 C3428 0.950 . S
H3400 C3430 0.950 . S
H3401 C3431 0.950 . S
C3402 H3384 0.951 . S
C3402 C3403 1.366 . S
C3402 C3404 1.388 . S
C3403 C3402 1.366 . S
C3403 C3407 1.385 . S
C3404 H3385 0.951 . S
C3404 C3402 1.388 . S
C3404 C3405 1.366 . S
C3405 C3404 1.366 . S
C3405 C3406 1.414 . S
C3405 C3408 1.499 . S
C3406 H3386 0.950 . S
C3406 C3405 1.414 . S
C3406 C3407 1.374 . S
C3407 H3387 0.950 . S
C3407 C3403 1.385 . S
C3407 C3406 1.374 . S
C3408 C3405 1.499 . S
C3408 C3409 1.373 . S
C3408 C3410 1.389 . S
C3409 H3388 0.950 . S
C3409 C3408 1.373 . S
C3409 C3425 1.377 . S
C3410 C3408 1.389 . S
C3410 C3411 1.524 . S
C3410 C3424 1.377 . S
C3411 C3410 1.524 . S
C3411 C3412 1.397 . S
C3411 C3416 1.363 . S
C3412 H3389 0.950 . S
C3412 C3411 1.397 . S
C3412 C3413 1.334 . S
C3413 H3390 0.950 . S
C3413 C3412 1.334 . S
C3413 C3414 1.287 . S
C3414 C3413 1.287 . S
C3414 C3415 1.524 . S
C3414 H3433 0.913 . S
C3415 H3391 0.950 . S
C3415 C3414 1.524 . S
C3415 C3416 1.415 . S
C3416 H3392 0.950 . S
C3416 C3411 1.363 . S
C3416 C3415 1.415 . S
C3417 H3393 0.951 . S
C3417 C3418 1.366 . S
C3417 C3419 1.388 . S
C3418 C3417 1.366 . S
C3418 C3422 1.385 . S
C3419 H3394 0.951 . S
C3419 C3417 1.388 . S
C3419 C3420 1.366 . S
C3420 C3419 1.366 . S
C3420 C3421 1.414 . S
C3420 C3423 1.499 . S
C3421 H3395 0.950 . S
C3421 C3420 1.414 . S
C3421 C3422 1.374 . S
C3422 H3396 0.950 . S
C3422 C3418 1.385 . S
C3422 C3421 1.374 . S
C3423 C3420 1.499 . S
C3423 C3424 1.373 . S
C3423 C3425 1.389 . S
C3424 H3397 0.950 . S
C3424 C3410 1.377 . S
C3424 C3423 1.373 . S
C3425 C3409 1.377 . S
C3425 C3423 1.389 . S
C3425 C3426 1.524 . S
C3426 C3425 1.524 . S
C3426 C3427 1.397 . S
C3426 C3431 1.363 . S
C3427 H3398 0.950 . S
C3427 C3426 1.397 . S
C3427 C3428 1.334 . S
C3428 H3399 0.950 . S
C3428 C3427 1.334 . S
C3428 C3429 1.287 . S
C3429 C3428 1.287 . S
C3429 C3430 1.524 . S
C3429 H3432 0.999 . S
C3430 H3400 0.950 . S
C3430 C3429 1.524 . S
C3430 C3431 1.415 . S
C3431 H3401 0.950 . S
C3431 C3426 1.363 . S
C3431 C3430 1.415 . S
H3432 C3429 0.999 . S
H3433 C3414 0.913 . S
H3434 C3452 0.951 . S
H3435 C3454 0.951 . S
H3436 C3456 0.950 . S
H3437 C3457 0.950 . S
H3438 C3459 0.950 . S
H3439 C3462 0.950 . S
H3440 C3463 0.950 . S
H3441 C3465 0.950 . S
H3442 C3466 0.950 . S
H3443 C3467 0.951 . S
H3444 C3469 0.951 . S
H3445 C3471 0.950 . S
H3446 C3472 0.950 . S
H3447 C3474 0.950 . S
H3448 C3477 0.950 . S
H3449 C3478 0.950 . S
H3450 C3480 0.950 . S
H3451 C3481 0.950 . S
C3452 H3434 0.951 . S
C3452 C3453 1.366 . S
C3452 C3454 1.388 . S
C3453 C3452 1.366 . S
C3453 C3457 1.385 . S
C3454 H3435 0.951 . S
C3454 C3452 1.388 . S
C3454 C3455 1.366 . S
C3455 C3454 1.366 . S
C3455 C3456 1.414 . S
C3455 C3458 1.499 . S
C3456 H3436 0.950 . S
C3456 C3455 1.414 . S
C3456 C3457 1.374 . S
C3457 H3437 0.950 . S
C3457 C3453 1.385 . S
C3457 C3456 1.374 . S
C3458 C3455 1.499 . S
C3458 C3459 1.373 . S
C3458 C3460 1.389 . S
C3459 H3438 0.950 . S
C3459 C3458 1.373 . S
C3459 C3475 1.377 . S
C3460 C3458 1.389 . S
C3460 C3461 1.524 . S
C3460 C3474 1.377 . S
C3461 C3460 1.524 . S
C3461 C3462 1.397 . S
C3461 C3466 1.363 . S
C3462 H3439 0.950 . S
C3462 C3461 1.397 . S
C3462 C3463 1.334 . S
C3463 H3440 0.950 . S
C3463 C3462 1.334 . S
C3463 C3464 1.287 . S
C3464 C3463 1.287 . S
C3464 C3465 1.524 . S
C3464 H3483 0.913 . S
C3465 H3441 0.950 . S
C3465 C3464 1.524 . S
C3465 C3466 1.415 . S
C3466 H3442 0.950 . S
C3466 C3461 1.363 . S
C3466 C3465 1.415 . S
C3467 H3443 0.951 . S
C3467 C3468 1.366 . S
C3467 C3469 1.388 . S
C3468 C3467 1.366 . S
C3468 C3472 1.385 . S
C3469 H3444 0.951 . S
C3469 C3467 1.388 . S
C3469 C3470 1.366 . S
C3470 C3469 1.366 . S
C3470 C3471 1.414 . S
C3470 C3473 1.499 . S
C3471 H3445 0.950 . S
C3471 C3470 1.414 . S
C3471 C3472 1.374 . S
C3472 H3446 0.950 . S
C3472 C3468 1.385 . S
C3472 C3471 1.374 . S
C3473 C3470 1.499 . S
C3473 C3474 1.373 . S
C3473 C3475 1.389 . S
C3474 H3447 0.950 . S
C3474 C3460 1.377 . S
C3474 C3473 1.373 . S
C3475 C3459 1.377 . S
C3475 C3473 1.389 . S
C3475 C3476 1.524 . S
C3476 C3475 1.524 . S
C3476 C3477 1.397 . S
C3476 C3481 1.363 . S
C3477 H3448 0.950 . S
C3477 C3476 1.397 . S
C3477 C3478 1.334 . S
C3478 H3449 0.950 . S
C3478 C3477 1.334 . S
C3478 C3479 1.287 . S
C3479 C3478 1.287 . S
C3479 C3480 1.524 . S
C3479 H3482 0.999 . S
C3480 H3450 0.950 . S
C3480 C3479 1.524 . S
C3480 C3481 1.415 . S
C3481 H3451 0.950 . S
C3481 C3476 1.363 . S
C3481 C3480 1.415 . S
H3482 C3479 0.999 . S
H3483 C3464 0.913 . S
H3484 C3502 0.951 . S
H3485 C3504 0.951 . S
H3486 C3506 0.950 . S
H3487 C3507 0.950 . S
H3488 C3509 0.950 . S
H3489 C3512 0.950 . S
H3490 C3513 0.950 . S
H3491 C3515 0.950 . S
H3492 C3516 0.950 . S
H3493 C3517 0.951 . S
H3494 C3519 0.951 . S
H3495 C3521 0.950 . S
H3496 C3522 0.950 . S
H3497 C3524 0.950 . S
H3498 C3527 0.950 . S
H3499 C3528 0.950 . S
H3500 C3530 0.950 . S
H3501 C3531 0.950 . S
C3502 H3484 0.951 . S
C3502 C3503 1.366 . S
C3502 C3504 1.388 . S
C3503 C3502 1.366 . S
C3503 C3507 1.385 . S
C3504 H3485 0.951 . S
C3504 C3502 1.388 . S
C3504 C3505 1.366 . S
C3505 C3504 1.366 . S
C3505 C3506 1.414 . S
C3505 C3508 1.499 . S
C3506 H3486 0.950 . S
C3506 C3505 1.414 . S
C3506 C3507 1.374 . S
C3507 H3487 0.950 . S
C3507 C3503 1.385 . S
C3507 C3506 1.374 . S
C3508 C3505 1.499 . S
C3508 C3509 1.373 . S
C3508 C3510 1.389 . S
C3509 H3488 0.950 . S
C3509 C3508 1.373 . S
C3509 C3525 1.377 . S
C3510 C3508 1.389 . S
C3510 C3511 1.524 . S
C3510 C3524 1.377 . S
C3511 C3510 1.524 . S
C3511 C3512 1.397 . S
C3511 C3516 1.363 . S
C3512 H3489 0.950 . S
C3512 C3511 1.397 . S
C3512 C3513 1.334 . S
C3513 H3490 0.950 . S
C3513 C3512 1.334 . S
C3513 C3514 1.287 . S
C3514 C3513 1.287 . S
C3514 C3515 1.524 . S
C3514 H3533 0.913 . S
C3515 H3491 0.950 . S
C3515 C3514 1.524 . S
C3515 C3516 1.415 . S
C3516 H3492 0.950 . S
C3516 C3511 1.363 . S
C3516 C3515 1.415 . S
C3517 H3493 0.951 . S
C3517 C3518 1.366 . S
C3517 C3519 1.388 . S
C3518 C3517 1.366 . S
C3518 C3522 1.385 . S
C3519 H3494 0.951 . S
C3519 C3517 1.388 . S
C3519 C3520 1.366 . S
C3520 C3519 1.366 . S
C3520 C3521 1.414 . S
C3520 C3523 1.499 . S
C3521 H3495 0.950 . S
C3521 C3520 1.414 . S
C3521 C3522 1.374 . S
C3522 H3496 0.950 . S
C3522 C3518 1.385 . S
C3522 C3521 1.374 . S
C3523 C3520 1.499 . S
C3523 C3524 1.373 . S
C3523 C3525 1.389 . S
C3524 H3497 0.950 . S
C3524 C3510 1.377 . S
C3524 C3523 1.373 . S
C3525 C3509 1.377 . S
C3525 C3523 1.389 . S
C3525 C3526 1.524 . S
C3526 C3525 1.524 . S
C3526 C3527 1.397 . S
C3526 C3531 1.363 . S
C3527 H3498 0.950 . S
C3527 C3526 1.397 . S
C3527 C3528 1.334 . S
C3528 H3499 0.950 . S
C3528 C3527 1.334 . S
C3528 C3529 1.287 . S
C3529 C3528 1.287 . S
C3529 C3530 1.524 . S
C3529 H3532 0.999 . S
C3530 H3500 0.950 . S
C3530 C3529 1.524 . S
C3530 C3531 1.415 . S
C3531 H3501 0.950 . S
C3531 C3526 1.363 . S
C3531 C3530 1.415 . S
H3532 C3529 0.999 . S
H3533 C3514 0.913 . S
H3534 C3552 0.951 . S
H3535 C3554 0.951 . S
H3536 C3556 0.950 . S
H3537 C3557 0.950 . S
H3538 C3559 0.950 . S
H3539 C3562 0.950 . S
H3540 C3563 0.950 . S
H3541 C3565 0.950 . S
H3542 C3566 0.950 . S
H3543 C3567 0.951 . S
H3544 C3569 0.951 . S
H3545 C3571 0.950 . S
H3546 C3572 0.950 . S
H3547 C3574 0.950 . S
H3548 C3577 0.950 . S
H3549 C3578 0.950 . S
H3550 C3580 0.950 . S
H3551 C3581 0.952 . S
C3552 H3534 0.951 . S
C3552 C3553 1.366 1_556 S
C3552 C3554 1.388 . S
C3553 C3552 1.366 1_554 S
C3553 C3557 1.385 . S
C3554 H3535 0.951 . S
C3554 C3552 1.388 . S
C3554 C3555 1.366 . S
C3555 C3554 1.366 . S
C3555 C3556 1.414 . S
C3555 C3558 1.499 . S
C3556 H3536 0.950 . S
C3556 C3555 1.414 . S
C3556 C3557 1.374 1_556 S
C3557 H3537 0.950 . S
C3557 C3553 1.385 . S
C3557 C3556 1.374 1_554 S
C3558 C3555 1.499 . S
C3558 C3559 1.373 . S
C3558 C3560 1.389 . S
C3559 H3538 0.950 . S
C3559 C3558 1.373 . S
C3559 C3575 1.377 . S
C3560 C3558 1.389 . S
C3560 C3561 1.524 . S
C3560 C3574 1.377 . S
C3561 C3560 1.524 . S
C3561 C3562 1.397 . S
C3561 C3566 1.363 . S
C3562 H3539 0.950 . S
C3562 C3561 1.397 . S
C3562 C3563 1.334 . S
C3563 H3540 0.950 . S
C3563 C3562 1.334 . S
C3563 C3564 1.287 . S
C3564 C3563 1.287 . S
C3564 C3565 1.524 . S
C3564 H3583 0.913 . S
C3565 H3541 0.950 . S
C3565 C3564 1.524 . S
C3565 C3566 1.415 . S
C3566 H3542 0.950 . S
C3566 C3561 1.363 . S
C3566 C3565 1.415 . S
C3567 H3543 0.951 . S
C3567 C3568 1.366 . S
C3567 C3569 1.388 . S
C3568 C3567 1.366 . S
C3568 C3572 1.385 . S
C3569 H3544 0.951 . S
C3569 C3567 1.388 . S
C3569 C3570 1.366 . S
C3570 C3569 1.366 . S
C3570 C3571 1.414 . S
C3570 C3573 1.499 . S
C3571 H3545 0.950 . S
C3571 C3570 1.414 . S
C3571 C3572 1.374 . S
C3572 H3546 0.950 . S
C3572 C3568 1.385 . S
C3572 C3571 1.374 . S
C3573 C3570 1.499 . S
C3573 C3574 1.373 . S
C3573 C3575 1.389 . S
C3574 H3547 0.950 . S
C3574 C3560 1.377 . S
C3574 C3573 1.373 . S
C3575 C3559 1.377 . S
C3575 C3573 1.389 . S
C3575 C3576 1.524 . S
C3576 C3575 1.524 . S
C3576 C3577 1.397 . S
C3576 C3581 1.363 1_556 S
C3577 H3548 0.950 . S
C3577 C3576 1.397 . S
C3577 C3578 1.334 1_556 S
C3578 H3549 0.950 . S
C3578 C3577 1.334 1_554 S
C3578 C3579 1.287 . S
C3579 C3578 1.287 . S
C3579 C3580 1.524 . S
C3579 H3582 0.999 . S
C3580 H3550 0.950 . S
C3580 C3579 1.524 . S
C3580 C3581 1.415 . S
C3581 H3551 0.952 . S
C3581 C3576 1.363 1_554 S
C3581 C3580 1.415 . S
H3582 C3579 0.999 . S
H3583 C3564 0.913 . S
H3584 C3602 0.951 . S
H3585 C3604 0.951 . S
H3586 C3606 0.950 . S
H3587 C3607 0.950 1_554 S
H3588 C3609 0.950 . S
H3589 C3612 0.932 1_554 S
H3590 C3613 0.950 . S
H3591 C3615 0.950 . S
H3592 C3616 0.950 . S
H3593 C3617 0.951 . S
H3594 C3619 0.951 . S
H3595 C3621 0.950 . S
H3596 C3622 0.950 . S
H3597 C3624 0.950 . S
H3598 C3627 0.950 . S
H3599 C3628 0.950 . S
H3600 C3630 0.950 . S
H3601 C3631 0.950 . S
C3602 H3584 0.951 . S
C3602 C3603 1.366 . S
C3602 C3604 1.388 . S
C3603 C3602 1.366 . S
C3603 C3607 1.385 . S
C3604 H3585 0.951 . S
C3604 C3602 1.388 . S
C3604 C3605 1.366 . S
C3605 C3604 1.366 . S
C3605 C3606 1.414 . S
C3605 C3608 1.499 . S
C3606 H3586 0.950 . S
C3606 C3605 1.414 . S
C3606 C3607 1.374 . S
C3607 H3587 0.950 1_556 S
C3607 C3603 1.385 . S
C3607 C3606 1.374 . S
C3608 C3605 1.499 . S
C3608 C3609 1.373 . S
C3608 C3610 1.389 . S
C3609 H3588 0.950 . S
C3609 C3608 1.373 . S
C3609 C3625 1.377 . S
C3610 C3608 1.389 . S
C3610 C3611 1.524 . S
C3610 C3624 1.377 . S
C3611 C3610 1.524 . S
C3611 C3612 1.397 . S
C3611 C3616 1.363 . S
C3612 H3589 0.932 1_556 S
C3612 C3611 1.397 . S
C3612 C3613 1.334 1_556 S
C3613 H3590 0.950 . S
C3613 C3612 1.334 1_554 S
C3613 C3614 1.287 . S
C3614 C3613 1.287 . S
C3614 C3615 1.524 1_554 S
C3614 H3633 0.913 . S
C3615 H3591 0.950 . S
C3615 C3614 1.524 1_556 S
C3615 C3616 1.415 . S
C3616 H3592 0.950 . S
C3616 C3611 1.363 . S
C3616 C3615 1.415 . S
C3617 H3593 0.951 . S
C3617 C3618 1.366 . S
C3617 C3619 1.388 . S
C3618 C3617 1.366 . S
C3618 C3622 1.385 . S
C3619 H3594 0.951 . S
C3619 C3617 1.388 . S
C3619 C3620 1.366 . S
C3620 C3619 1.366 . S
C3620 C3621 1.414 . S
C3620 C3623 1.499 . S
C3621 H3595 0.950 . S
C3621 C3620 1.414 . S
C3621 C3622 1.374 . S
C3622 H3596 0.950 . S
C3622 C3618 1.385 . S
C3622 C3621 1.374 . S
C3623 C3620 1.499 . S
C3623 C3624 1.373 . S
C3623 C3625 1.389 . S
C3624 H3597 0.950 . S
C3624 C3610 1.377 . S
C3624 C3623 1.373 . S
C3625 C3609 1.377 . S
C3625 C3623 1.389 . S
C3625 C3626 1.524 . S
C3626 C3625 1.524 . S
C3626 C3627 1.397 . S
C3626 C3631 1.363 . S
C3627 H3598 0.950 . S
C3627 C3626 1.397 . S
C3627 C3628 1.334 . S
C3628 H3599 0.950 . S
C3628 C3627 1.334 . S
C3628 C3629 1.287 . S
C3629 C3628 1.287 . S
C3629 C3630 1.524 . S
C3629 H3632 0.999 . S
C3630 H3600 0.950 . S
C3630 C3629 1.524 . S
C3630 C3631 1.415 . S
C3631 H3601 0.950 . S
C3631 C3626 1.363 . S
C3631 C3630 1.415 . S
H3632 C3629 0.999 . S
H3633 C3614 0.913 . S
H3634 C3652 0.951 . S
H3635 C3654 1.008 . S
H3636 C3656 0.950 . S
H3637 C3657 0.950 . S
H3638 C3659 0.950 . S
H3639 C3662 0.950 . S
H3640 C3663 0.950 . S
H3641 C3665 0.950 . S
H3642 C3666 0.950 . S
H3643 C3667 0.951 . S
H3644 C3669 0.951 . S
H3645 C3671 0.950 . S
H3646 C3672 0.950 . S
H3647 C3674 0.950 . S
H3648 C3677 0.950 . S
H3649 C3678 0.950 . S
H3650 C3680 0.950 . S
H3651 C3681 0.950 . S
C3652 H3634 0.951 . S
C3652 C3653 1.366 . S
C3652 C3654 1.388 . S
C3653 C3652 1.366 . S
C3653 C3657 1.385 . S
C3654 H3635 1.008 . S
C3654 C3652 1.388 . S
C3654 C3655 1.366 . S
C3655 C3654 1.366 . S
C3655 C3656 1.414 . S
C3655 C3658 1.499 . S
C3656 H3636 0.950 . S
C3656 C3655 1.414 . S
C3656 C3657 1.374 . S
C3657 H3637 0.950 . S
C3657 C3653 1.385 . S
C3657 C3656 1.374 . S
C3658 C3655 1.499 . S
C3658 C3659 1.373 . S
C3658 C3660 1.389 1_554 S
C3659 H3638 0.950 . S
C3659 C3658 1.373 . S
C3659 C3675 1.377 . S
C3660 C3658 1.389 1_556 S
C3660 C3661 1.524 . S
C3660 C3674 1.377 . S
C3661 C3660 1.524 . S
C3661 C3662 1.397 . S
C3661 C3666 1.363 . S
C3662 H3639 0.950 . S
C3662 C3661 1.397 . S
C3662 C3663 1.334 . S
C3663 H3640 0.950 . S
C3663 C3662 1.334 . S
C3663 C3664 1.287 . S
C3664 C3663 1.287 . S
C3664 C3665 1.524 . S
C3664 H3683 0.913 . S
C3665 H3641 0.950 . S
C3665 C3664 1.524 . S
C3665 C3666 1.415 . S
C3666 H3642 0.950 . S
C3666 C3661 1.363 . S
C3666 C3665 1.415 . S
C3667 H3643 0.951 . S
C3667 C3668 1.366 . S
C3667 C3669 1.388 . S
C3668 C3667 1.366 . S
C3668 C3672 1.385 . S
C3669 H3644 0.951 . S
C3669 C3667 1.388 . S
C3669 C3670 1.366 . S
C3670 C3669 1.366 . S
C3670 C3671 1.414 . S
C3670 C3673 1.499 . S
C3671 H3645 0.950 . S
C3671 C3670 1.414 . S
C3671 C3672 1.374 . S
C3672 H3646 0.950 . S
C3672 C3668 1.385 . S
C3672 C3671 1.374 . S
C3673 C3670 1.499 . S
C3673 C3674 1.373 . S
C3673 C3675 1.389 1_556 S
C3674 H3647 0.950 . S
C3674 C3660 1.377 . S
C3674 C3673 1.373 . S
C3675 C3659 1.377 . S
C3675 C3673 1.389 1_554 S
C3675 C3676 1.524 . S
C3676 C3675 1.524 . S
C3676 C3677 1.397 . S
C3676 C3681 1.363 . S
C3677 H3648 0.950 . S
C3677 C3676 1.397 . S
C3677 C3678 1.334 . S
C3678 H3649 0.950 . S
C3678 C3677 1.334 . S
C3678 C3679 1.287 . S
C3679 C3678 1.287 . S
C3679 C3680 1.524 . S
C3679 H3682 0.999 . S
C3680 H3650 0.950 . S
C3680 C3679 1.524 . S
C3680 C3681 1.415 . S
C3681 H3651 0.950 . S
C3681 C3676 1.363 . S
C3681 C3680 1.415 . S
H3682 C3679 0.999 . S
H3683 C3664 0.913 . S
H3684 C3702 0.951 . S
H3685 C3704 0.951 . S
H3686 C3706 0.950 . S
H3687 C3707 0.950 . S
H3688 C3709 0.950 . S
H3689 C3712 0.950 . S
H3690 C3713 0.950 . S
H3691 C3715 0.950 . S
H3692 C3716 0.950 . S
H3693 C3717 0.951 . S
H3694 C3719 0.951 . S
H3695 C3721 0.950 . S
H3696 C3722 0.950 . S
H3697 C3724 0.950 . S
H3698 C3727 0.950 . S
H3699 C3728 0.950 . S
H3700 C3730 0.950 . S
H3701 C3731 0.950 . S
C3702 H3684 0.951 . S
C3702 C3703 1.366 . S
C3702 C3704 1.388 1_554 S
C3703 C3702 1.366 . S
C3703 C3707 1.385 . S
C3704 H3685 0.951 . S
C3704 C3702 1.388 1_556 S
C3704 C3705 1.366 . S
C3705 C3704 1.366 . S
C3705 C3706 1.414 . S
C3705 C3708 1.499 . S
C3706 H3686 0.950 . S
C3706 C3705 1.414 . S
C3706 C3707 1.374 1_556 S
C3707 H3687 0.950 . S
C3707 C3703 1.385 . S
C3707 C3706 1.374 1_554 S
C3708 C3705 1.499 . S
C3708 C3709 1.373 . S
C3708 C3710 1.389 . S
C3709 H3688 0.950 . S
C3709 C3708 1.373 . S
C3709 C3725 1.377 . S
C3710 C3708 1.389 . S
C3710 C3711 1.524 . S
C3710 C3724 1.377 . S
C3711 C3710 1.524 . S
C3711 C3712 1.397 . S
C3711 C3716 1.363 . S
C3712 H3689 0.950 . S
C3712 C3711 1.397 . S
C3712 C3713 1.334 . S
C3713 H3690 0.950 . S
C3713 C3712 1.334 . S
C3713 C3714 1.287 . S
C3714 C3713 1.287 . S
C3714 C3715 1.524 . S
C3714 H3733 0.913 . S
C3715 H3691 0.950 . S
C3715 C3714 1.524 . S
C3715 C3716 1.415 . S
C3716 H3692 0.950 . S
C3716 C3711 1.363 . S
C3716 C3715 1.415 . S
C3717 H3693 0.951 . S
C3717 C3718 1.366 . S
C3717 C3719 1.388 . S
C3718 C3717 1.366 . S
C3718 C3722 1.385 . S
C3719 H3694 0.951 . S
C3719 C3717 1.388 . S
C3719 C3720 1.366 . S
C3720 C3719 1.366 . S
C3720 C3721 1.414 . S
C3720 C3723 1.499 . S
C3721 H3695 0.950 . S
C3721 C3720 1.414 . S
C3721 C3722 1.374 . S
C3722 H3696 0.950 . S
C3722 C3718 1.385 . S
C3722 C3721 1.374 . S
C3723 C3720 1.499 . S
C3723 C3724 1.373 . S
C3723 C3725 1.389 . S
C3724 H3697 0.950 . S
C3724 C3710 1.377 . S
C3724 C3723 1.373 . S
C3725 C3709 1.377 . S
C3725 C3723 1.389 . S
C3725 C3726 1.524 . S
C3726 C3725 1.524 . S
C3726 C3727 1.397 . S
C3726 C3731 1.363 . S
C3727 H3698 0.950 . S
C3727 C3726 1.397 . S
C3727 C3728 1.334 . S
C3728 H3699 0.950 . S
C3728 C3727 1.334 . S
C3728 C3729 1.287 . S
C3729 C3728 1.287 . S
C3729 C3730 1.524 . S
C3729 H3732 0.999 1_556 S
C3730 H3700 0.950 . S
C3730 C3729 1.524 . S
C3730 C3731 1.415 . S
C3731 H3701 0.950 . S
C3731 C3726 1.363 . S
C3731 C3730 1.415 . S
H3732 C3729 0.999 1_554 S
H3733 C3714 0.913 . S
H3734 C3752 0.951 . S
H3735 C3754 0.951 . S
H3736 C3756 0.950 . S
H3737 C3757 0.950 . S
H3738 C3759 0.950 . S
H3739 C3762 0.950 . S
H3740 C3763 0.950 . S
H3741 C3765 0.950 . S
H3742 C3766 0.950 . S
H3743 C3767 0.951 . S
H3744 C3769 0.951 . S
H3745 C3771 0.950 . S
H3746 C3772 0.950 . S
H3747 C3774 0.950 . S
H3748 C3777 0.950 . S
H3749 C3778 0.950 . S
H3750 C3780 0.950 . S
H3751 C3781 0.950 . S
C3752 H3734 0.951 . S
C3752 C3753 1.366 . S
C3752 C3754 1.388 . S
C3753 C3752 1.366 . S
C3753 C3757 1.385 . S
C3754 H3735 0.951 . S
C3754 C3752 1.388 . S
C3754 C3755 1.366 . S
C3755 C3754 1.366 . S
C3755 C3756 1.414 . S
C3755 C3758 1.499 . S
C3756 H3736 0.950 . S
C3756 C3755 1.414 . S
C3756 C3757 1.374 . S
C3757 H3737 0.950 . S
C3757 C3753 1.385 . S
C3757 C3756 1.374 . S
C3758 C3755 1.499 . S
C3758 C3759 1.373 . S
C3758 C3760 1.389 . S
C3759 H3738 0.950 . S
C3759 C3758 1.373 . S
C3759 C3775 1.377 . S
C3760 C3758 1.389 . S
C3760 C3761 1.524 . S
C3760 C3774 1.377 . S
C3761 C3760 1.524 . S
C3761 C3762 1.397 . S
C3761 C3766 1.363 . S
C3762 H3739 0.950 . S
C3762 C3761 1.397 . S
C3762 C3763 1.334 . S
C3763 H3740 0.950 . S
C3763 C3762 1.334 . S
C3763 C3764 1.287 . S
C3764 C3763 1.287 . S
C3764 C3765 1.524 . S
C3764 H3783 0.913 . S
C3765 H3741 0.950 . S
C3765 C3764 1.524 . S
C3765 C3766 1.415 . S
C3766 H3742 0.950 . S
C3766 C3761 1.363 . S
C3766 C3765 1.415 . S
C3767 H3743 0.951 . S
C3767 C3768 1.366 . S
C3767 C3769 1.388 . S
C3768 C3767 1.366 . S
C3768 C3772 1.385 . S
C3769 H3744 0.951 . S
C3769 C3767 1.388 . S
C3769 C3770 1.366 . S
C3770 C3769 1.366 . S
C3770 C3771 1.414 . S
C3770 C3773 1.499 . S
C3771 H3745 0.950 . S
C3771 C3770 1.414 . S
C3771 C3772 1.374 . S
C3772 H3746 0.950 . S
C3772 C3768 1.385 . S
C3772 C3771 1.374 . S
C3773 C3770 1.499 . S
C3773 C3774 1.373 . S
C3773 C3775 1.389 . S
C3774 H3747 0.950 . S
C3774 C3760 1.377 . S
C3774 C3773 1.373 . S
C3775 C3759 1.377 . S
C3775 C3773 1.389 . S
C3775 C3776 1.524 . S
C3776 C3775 1.524 . S
C3776 C3777 1.397 . S
C3776 C3781 1.363 . S
C3777 H3748 0.950 . S
C3777 C3776 1.397 . S
C3777 C3778 1.334 . S
C3778 H3749 0.950 . S
C3778 C3777 1.334 . S
C3778 C3779 1.287 . S
C3779 C3778 1.287 . S
C3779 C3780 1.524 . S
C3779 H3782 0.999 . S
C3780 H3750 0.950 . S
C3780 C3779 1.524 . S
C3780 C3781 1.415 . S
C3781 H3751 0.950 . S
C3781 C3776 1.363 . S
C3781 C3780 1.415 . S
H3782 C3779 0.999 . S
H3783 C3764 0.913 . S
H3784 C3802 0.928 1_556 S
H3785 C3804 0.951 . S
H3786 C3806 0.950 . S
H3787 C3807 0.950 . S
H3788 C3809 1.015 . S
H3789 C3812 0.950 . S
H3790 C3813 0.950 1_565 S
H3791 C3815 0.950 . S
H3792 C3816 0.950 . S
H3793 C3817 0.951 . S
H3794 C3819 0.951 . S
H3795 C3821 0.950 . S
H3796 C3822 0.950 . S
H3797 C3824 0.950 . S
H3798 C3827 0.950 . S
H3799 C3828 0.928 1_556 S
H3800 C3830 0.950 . S
H3801 C3831 0.950 . S
C3802 H3784 0.928 1_554 S
C3802 C3803 1.366 . S
C3802 C3804 1.388 1_554 S
C3803 C3802 1.366 . S
C3803 C3807 1.385 . S
C3804 H3785 0.951 . S
C3804 C3802 1.388 1_556 S
C3804 C3805 1.366 1_556 S
C3805 C3804 1.366 1_554 S
C3805 C3806 1.414 . S
C3805 C3808 1.499 1_554 S
C3806 H3786 0.950 . S
C3806 C3805 1.414 . S
C3806 C3807 1.374 . S
C3807 H3787 0.950 . S
C3807 C3803 1.385 . S
C3807 C3806 1.374 . S
C3808 C3805 1.499 1_556 S
C3808 C3809 1.347 1_556 S
C3808 C3810 1.389 . S
C3809 H3788 1.015 . S
C3809 C3808 1.347 1_554 S
C3809 C3825 1.341 1_554 S
C3810 C3808 1.389 . S
C3810 C3811 1.524 . S
C3810 C3824 1.377 . S
C3811 C3810 1.524 . S
C3811 C3812 1.397 . S
C3811 C3816 1.363 . S
C3812 H3789 0.950 . S
C3812 C3811 1.397 . S
C3812 C3813 1.334 . S
C3813 H3790 0.950 1_545 S
C3813 C3812 1.334 . S
C3813 C3814 1.287 . S
C3814 C3813 1.287 . S
C3814 C3815 1.524 . S
C3814 H3833 0.913 1_545 S
C3815 H3791 0.950 . S
C3815 C3814 1.524 . S
C3815 C3816 1.415 . S
C3816 H3792 0.950 . S
C3816 C3811 1.363 . S
C3816 C3815 1.415 . S
C3817 H3793 0.951 . S
C3817 C3818 1.366 . S
C3817 C3819 1.388 . S
C3818 C3817 1.366 . S
C3818 C3822 1.385 . S
C3819 H3794 0.951 . S
C3819 C3817 1.388 . S
C3819 C3820 1.366 . S
C3820 C3819 1.366 . S
C3820 C3821 1.414 . S
C3820 C3823 1.499 . S
C3821 H3795 0.950 . S
C3821 C3820 1.414 . S
C3821 C3822 1.374 . S
C3822 H3796 0.950 . S
C3822 C3818 1.385 . S
C3822 C3821 1.374 . S
C3823 C3820 1.499 . S
C3823 C3824 1.373 . S
C3823 C3825 1.389 . S
C3824 H3797 0.950 . S
C3824 C3810 1.377 . S
C3824 C3823 1.373 . S
C3825 C3809 1.341 1_556 S
C3825 C3823 1.389 . S
C3825 C3826 1.524 1_556 S
C3826 C3825 1.524 1_554 S
C3826 C3827 1.397 1_554 S
C3826 C3831 1.363 . S
C3827 H3798 0.950 . S
C3827 C3826 1.397 1_556 S
C3827 C3828 1.334 1_556 S
C3828 H3799 0.928 1_554 S
C3828 C3827 1.334 1_554 S
C3828 C3829 1.287 . S
C3829 C3828 1.287 . S
C3829 C3830 1.524 . S
C3829 H3832 0.999 . S
C3830 H3800 0.950 . S
C3830 C3829 1.524 . S
C3830 C3831 1.415 . S
C3831 H3801 0.950 . S
C3831 C3826 1.363 . S
C3831 C3830 1.415 . S
H3832 C3829 0.999 . S
H3833 C3814 0.913 1_565 S
H3834 C3852 0.951 . S
H3835 C3854 0.951 . S
H3836 C3856 0.950 . S
H3837 C3857 0.950 . S
H3838 C3859 0.950 . S
H3839 C3862 0.950 . S
H3840 C3863 0.950 . S
H3841 C3865 0.927 1_545 S
H3842 C3866 0.950 . S
H3843 C3867 0.951 . S
H3844 C3869 0.951 . S
H3845 C3871 0.950 . S
H3846 C3872 0.950 . S
H3847 C3874 0.950 . S
H3848 C3877 0.950 . S
H3849 C3878 0.950 . S
H3850 C3880 0.950 . S
H3851 C3881 0.950 . S
C3852 H3834 0.951 . S
C3852 C3853 1.366 . S
C3852 C3854 1.388 . S
C3853 C3852 1.366 . S
C3853 C3857 1.385 . S
C3854 H3835 0.951 . S
C3854 C3852 1.388 . S
C3854 C3855 1.366 . S
C3855 C3854 1.366 . S
C3855 C3856 1.414 . S
C3855 C3858 1.499 . S
C3856 H3836 0.950 . S
C3856 C3855 1.414 . S
C3856 C3857 1.374 . S
C3857 H3837 0.950 . S
C3857 C3853 1.385 . S
C3857 C3856 1.374 . S
C3858 C3855 1.499 . S
C3858 C3859 1.373 . S
C3858 C3860 1.389 . S
C3859 H3838 0.950 . S
C3859 C3858 1.373 . S
C3859 C3875 1.377 . S
C3860 C3858 1.389 . S
C3860 C3861 1.524 . S
C3860 C3874 1.377 . S
C3861 C3860 1.524 . S
C3861 C3862 1.397 . S
C3861 C3866 1.363 . S
C3862 H3839 0.950 . S
C3862 C3861 1.397 . S
C3862 C3863 1.334 1_565 S
C3863 H3840 0.950 . S
C3863 C3862 1.334 1_545 S
C3863 C3864 1.287 . S
C3864 C3863 1.287 . S
C3864 C3865 1.524 1_545 S
C3864 H3883 0.913 . S
C3865 H3841 0.927 1_565 S
C3865 C3864 1.524 1_565 S
C3865 C3866 1.415 . S
C3866 H3842 0.950 . S
C3866 C3861 1.363 . S
C3866 C3865 1.415 . S
C3867 H3843 0.951 . S
C3867 C3868 1.366 . S
C3867 C3869 1.388 . S
C3868 C3867 1.366 . S
C3868 C3872 1.385 . S
C3869 H3844 0.951 . S
C3869 C3867 1.388 . S
C3869 C3870 1.366 . S
C3870 C3869 1.366 . S
C3870 C3871 1.414 . S
C3870 C3873 1.499 . S
C3871 H3845 0.950 . S
C3871 C3870 1.414 . S
C3871 C3872 1.374 . S
C3872 H3846 0.950 . S
C3872 C3868 1.385 . S
C3872 C3871 1.374 . S
C3873 C3870 1.499 . S
C3873 C3874 1.373 . S
C3873 C3875 1.389 . S
C3874 H3847 0.950 . S
C3874 C3860 1.377 . S
C3874 C3873 1.373 . S
C3875 C3859 1.377 . S
C3875 C3873 1.389 . S
C3875 C3876 1.524 . S
C3876 C3875 1.524 . S
C3876 C3877 1.397 . S
C3876 C3881 1.363 . S
C3877 H3848 0.950 . S
C3877 C3876 1.397 . S
C3877 C3878 1.334 . S
C3878 H3849 0.950 . S
C3878 C3877 1.334 . S
C3878 C3879 1.287 . S
C3879 C3878 1.287 . S
C3879 C3880 1.524 . S
C3879 H3882 0.999 . S
C3880 H3850 0.950 . S
C3880 C3879 1.524 . S
C3880 C3881 1.415 . S
C3881 H3851 0.950 . S
C3881 C3876 1.363 . S
C3881 C3880 1.415 . S
H3882 C3879 0.999 . S
H3883 C3864 0.913 . S
H3884 C3902 0.951 . S
H3885 C3904 0.951 . S
H3886 C3906 0.950 . S
H3887 C3907 0.950 . S
H3888 C3909 0.950 . S
H3889 C3912 0.950 . S
H3890 C3913 0.950 . S
H3891 C3915 0.950 . S
H3892 C3916 0.950 . S
H3893 C3917 0.951 . S
H3894 C3919 0.951 . S
H3895 C3921 0.950 . S
H3896 C3922 0.950 . S
H3897 C3924 0.950 . S
H3898 C3927 0.950 . S
H3899 C3928 0.950 . S
H3900 C3930 0.950 . S
H3901 C3931 0.950 . S
C3902 H3884 0.951 . S
C3902 C3903 1.366 . S
C3902 C3904 1.388 . S
C3903 C3902 1.366 . S
C3903 C3907 1.385 . S
C3904 H3885 0.951 . S
C3904 C3902 1.388 . S
C3904 C3905 1.366 . S
C3905 C3904 1.366 . S
C3905 C3906 1.414 . S
C3905 C3908 1.499 . S
C3906 H3886 0.950 . S
C3906 C3905 1.414 . S
C3906 C3907 1.374 . S
C3907 H3887 0.950 . S
C3907 C3903 1.385 . S
C3907 C3906 1.374 . S
C3908 C3905 1.499 . S
C3908 C3909 1.373 . S
C3908 C3910 1.389 . S
C3909 H3888 0.950 . S
C3909 C3908 1.373 . S
C3909 C3925 1.377 . S
C3910 C3908 1.389 . S
C3910 C3911 1.524 . S
C3910 C3924 1.377 . S
C3911 C3910 1.524 . S
C3911 C3912 1.397 . S
C3911 C3916 1.363 . S
C3912 H3889 0.950 . S
C3912 C3911 1.397 . S
C3912 C3913 1.334 . S
C3913 H3890 0.950 . S
C3913 C3912 1.334 . S
C3913 C3914 1.287 . S
C3914 C3913 1.287 . S
C3914 C3915 1.524 . S
C3914 H3933 0.913 . S
C3915 H3891 0.950 . S
C3915 C3914 1.524 . S
C3915 C3916 1.415 . S
C3916 H3892 0.950 . S
C3916 C3911 1.363 . S
C3916 C3915 1.415 . S
C3917 H3893 0.951 . S
C3917 C3918 1.366 . S
C3917 C3919 1.388 . S
C3918 C3917 1.366 . S
C3918 C3922 1.385 . S
C3919 H3894 0.951 . S
C3919 C3917 1.388 . S
C3919 C3920 1.366 . S
C3920 C3919 1.366 . S
C3920 C3921 1.414 . S
C3920 C3923 1.499 . S
C3921 H3895 0.950 . S
C3921 C3920 1.414 . S
C3921 C3922 1.374 . S
C3922 H3896 0.950 . S
C3922 C3918 1.385 . S
C3922 C3921 1.374 . S
C3923 C3920 1.499 . S
C3923 C3924 1.373 . S
C3923 C3925 1.389 . S
C3924 H3897 0.950 . S
C3924 C3910 1.377 . S
C3924 C3923 1.373 . S
C3925 C3909 1.377 . S
C3925 C3923 1.389 . S
C3925 C3926 1.524 . S
C3926 C3925 1.524 . S
C3926 C3927 1.397 . S
C3926 C3931 1.363 . S
C3927 H3898 0.950 . S
C3927 C3926 1.397 . S
C3927 C3928 1.334 . S
C3928 H3899 0.950 . S
C3928 C3927 1.334 . S
C3928 C3929 1.287 . S
C3929 C3928 1.287 . S
C3929 C3930 1.524 . S
C3929 H3932 0.999 . S
C3930 H3900 0.950 . S
C3930 C3929 1.524 . S
C3930 C3931 1.415 . S
C3931 H3901 0.950 . S
C3931 C3926 1.363 . S
C3931 C3930 1.415 . S
H3932 C3929 0.999 . S
H3933 C3914 0.913 . S
H3934 C3952 0.951 . S
H3935 C3954 0.951 . S
H3936 C3956 0.950 . S
H3937 C3957 0.950 . S
H3938 C3959 0.950 . S
H3939 C3962 0.950 . S
H3940 C3963 0.950 . S
H3941 C3965 0.950 . S
H3942 C3966 0.950 . S
H3943 C3967 0.951 . S
H3944 C3969 0.951 . S
H3945 C3971 0.950 . S
H3946 C3972 0.950 . S
H3947 C3974 0.950 . S
H3948 C3977 0.950 . S
H3949 C3978 0.950 . S
H3950 C3980 0.950 . S
H3951 C3981 0.950 . S
C3952 H3934 0.951 . S
C3952 C3953 1.366 . S
C3952 C3954 1.388 . S
C3953 C3952 1.366 . S
C3953 C3957 1.385 . S
C3954 H3935 0.951 . S
C3954 C3952 1.388 . S
C3954 C3955 1.366 . S
C3955 C3954 1.366 . S
C3955 C3956 1.414 . S
C3955 C3958 1.499 . S
C3956 H3936 0.950 . S
C3956 C3955 1.414 . S
C3956 C3957 1.374 . S
C3957 H3937 0.950 . S
C3957 C3953 1.385 . S
C3957 C3956 1.374 . S
C3958 C3955 1.499 . S
C3958 C3959 1.373 . S
C3958 C3960 1.389 . S
C3959 H3938 0.950 . S
C3959 C3958 1.373 . S
C3959 C3975 1.377 . S
C3960 C3958 1.389 . S
C3960 C3961 1.524 . S
C3960 C3974 1.377 . S
C3961 C3960 1.524 . S
C3961 C3962 1.397 . S
C3961 C3966 1.363 . S
C3962 H3939 0.950 . S
C3962 C3961 1.397 . S
C3962 C3963 1.334 . S
C3963 H3940 0.950 . S
C3963 C3962 1.334 . S
C3963 C3964 1.287 . S
C3964 C3963 1.287 . S
C3964 C3965 1.524 . S
C3964 H3983 0.913 . S
C3965 H3941 0.950 . S
C3965 C3964 1.524 . S
C3965 C3966 1.415 . S
C3966 H3942 0.950 . S
C3966 C3961 1.363 . S
C3966 C3965 1.415 . S
C3967 H3943 0.951 . S
C3967 C3968 1.366 . S
C3967 C3969 1.388 . S
C3968 C3967 1.366 . S
C3968 C3972 1.385 . S
C3969 H3944 0.951 . S
C3969 C3967 1.388 . S
C3969 C3970 1.366 . S
C3970 C3969 1.366 . S
C3970 C3971 1.414 . S
C3970 C3973 1.499 . S
C3971 H3945 0.950 . S
C3971 C3970 1.414 . S
C3971 C3972 1.374 . S
C3972 H3946 0.950 . S
C3972 C3968 1.385 . S
C3972 C3971 1.374 . S
C3973 C3970 1.499 . S
C3973 C3974 1.373 . S
C3973 C3975 1.389 . S
C3974 H3947 0.950 . S
C3974 C3960 1.377 . S
C3974 C3973 1.373 . S
C3975 C3959 1.377 . S
C3975 C3973 1.389 . S
C3975 C3976 1.524 . S
C3976 C3975 1.524 . S
C3976 C3977 1.397 . S
C3976 C3981 1.363 . S
C3977 H3948 0.950 . S
C3977 C3976 1.397 . S
C3977 C3978 1.334 . S
C3978 H3949 0.950 . S
C3978 C3977 1.334 . S
C3978 C3979 1.287 . S
C3979 C3978 1.287 . S
C3979 C3980 1.524 . S
C3979 H3982 0.999 . S
C3980 H3950 0.950 . S
C3980 C3979 1.524 . S
C3980 C3981 1.415 . S
C3981 H3951 0.950 . S
C3981 C3976 1.363 . S
C3981 C3980 1.415 . S
H3982 C3979 0.999 . S
H3983 C3964 0.913 . S
H3984 C4002 0.951 . S
H3985 C4004 0.951 . S
H3986 C4006 0.950 . S
H3987 C4007 0.950 . S
H3988 C4009 0.950 . S
H3989 C4012 0.950 . S
H3990 C4013 0.950 . S
H3991 C4015 0.950 . S
H3992 C4016 0.950 . S
H3993 C4017 0.951 . S
H3994 C4019 0.951 . S
H3995 C4021 0.950 . S
H3996 C4022 0.950 . S
H3997 C4024 0.950 . S
H3998 C4027 0.950 . S
H3999 C4028 0.950 . S
H4000 C4030 0.950 . S
H4001 C4031 0.950 . S
C4002 H3984 0.951 . S
C4002 C4003 1.366 . S
C4002 C4004 1.388 . S
C4003 C4002 1.366 . S
C4003 C4007 1.385 . S
C4004 H3985 0.951 . S
C4004 C4002 1.388 . S
C4004 C4005 1.366 . S
C4005 C4004 1.366 . S
C4005 C4006 1.414 . S
C4005 C4008 1.499 . S
C4006 H3986 0.950 . S
C4006 C4005 1.414 . S
C4006 C4007 1.374 . S
C4007 H3987 0.950 . S
C4007 C4003 1.385 . S
C4007 C4006 1.374 . S
C4008 C4005 1.499 . S
C4008 C4009 1.373 . S
C4008 C4010 1.389 . S
C4009 H3988 0.950 . S
C4009 C4008 1.373 . S
C4009 C4025 1.377 . S
C4010 C4008 1.389 . S
C4010 C4011 1.524 . S
C4010 C4024 1.377 . S
C4011 C4010 1.524 . S
C4011 C4012 1.397 . S
C4011 C4016 1.363 . S
C4012 H3989 0.950 . S
C4012 C4011 1.397 . S
C4012 C4013 1.334 . S
C4013 H3990 0.950 . S
C4013 C4012 1.334 . S
C4013 C4014 1.287 . S
C4014 C4013 1.287 . S
C4014 C4015 1.524 . S
C4014 H4033 0.913 . S
C4015 H3991 0.950 . S
C4015 C4014 1.524 . S
C4015 C4016 1.415 . S
C4016 H3992 0.950 . S
C4016 C4011 1.363 . S
C4016 C4015 1.415 . S
C4017 H3993 0.951 . S
C4017 C4018 1.366 . S
C4017 C4019 1.388 . S
C4018 C4017 1.366 . S
C4018 C4022 1.385 . S
C4019 H3994 0.951 . S
C4019 C4017 1.388 . S
C4019 C4020 1.366 . S
C4020 C4019 1.366 . S
C4020 C4021 1.414 . S
C4020 C4023 1.499 . S
C4021 H3995 0.950 . S
C4021 C4020 1.414 . S
C4021 C4022 1.374 . S
C4022 H3996 0.950 . S
C4022 C4018 1.385 . S
C4022 C4021 1.374 . S
C4023 C4020 1.499 . S
C4023 C4024 1.373 . S
C4023 C4025 1.389 . S
C4024 H3997 0.950 . S
C4024 C4010 1.377 . S
C4024 C4023 1.373 . S
C4025 C4009 1.377 . S
C4025 C4023 1.389 . S
C4025 C4026 1.524 . S
C4026 C4025 1.524 . S
C4026 C4027 1.397 . S
C4026 C4031 1.363 . S
C4027 H3998 0.950 . S
C4027 C4026 1.397 . S
C4027 C4028 1.334 . S
C4028 H3999 0.950 . S
C4028 C4027 1.334 . S
C4028 C4029 1.287 . S
C4029 C4028 1.287 . S
C4029 C4030 1.524 . S
C4029 H4032 0.999 . S
C4030 H4000 0.950 . S
C4030 C4029 1.524 . S
C4030 C4031 1.415 . S
C4031 H4001 0.950 . S
C4031 C4026 1.363 . S
C4031 C4030 1.415 . S
H4032 C4029 0.999 . S
H4033 C4014 0.913 . S
H4034 C4052 0.951 . S
H4035 C4054 0.951 . S
H4036 C4056 0.950 . S
H4037 C4057 0.950 1_565 S
H4038 C4059 0.950 . S
H4039 C4062 0.950 . S
H4040 C4063 0.950 . S
H4041 C4065 0.950 . S
H4042 C4066 0.950 . S
H4043 C4067 0.951 . S
H4044 C4069 0.951 . S
H4045 C4071 0.950 . S
H4046 C4072 0.950 . S
H4047 C4074 0.950 . S
H4048 C4077 0.950 . S
H4049 C4078 0.950 . S
H4050 C4080 0.950 . S
H4051 C4081 0.950 . S
C4052 H4034 0.951 . S
C4052 C4053 1.366 . S
C4052 C4054 1.388 . S
C4053 C4052 1.366 . S
C4053 C4057 1.385 . S
C4054 H4035 0.951 . S
C4054 C4052 1.388 . S
C4054 C4055 1.366 . S
C4055 C4054 1.366 . S
C4055 C4056 1.414 . S
C4055 C4058 1.499 . S
C4056 H4036 0.950 . S
C4056 C4055 1.414 . S
C4056 C4057 1.374 . S
C4057 H4037 0.950 1_545 S
C4057 C4053 1.385 . S
C4057 C4056 1.374 . S
C4058 C4055 1.499 . S
C4058 C4059 1.373 . S
C4058 C4060 1.389 . S
C4059 H4038 0.950 . S
C4059 C4058 1.373 . S
C4059 C4075 1.377 . S
C4060 C4058 1.389 . S
C4060 C4061 1.524 . S
C4060 C4074 1.377 . S
C4061 C4060 1.524 . S
C4061 C4062 1.397 . S
C4061 C4066 1.363 . S
C4062 H4039 0.950 . S
C4062 C4061 1.397 . S
C4062 C4063 1.334 . S
C4063 H4040 0.950 . S
C4063 C4062 1.334 . S
C4063 C4064 1.287 . S
C4064 C4063 1.287 . S
C4064 C4065 1.524 . S
C4064 H4083 0.913 . S
C4065 H4041 0.950 . S
C4065 C4064 1.524 . S
C4065 C4066 1.415 . S
C4066 H4042 0.950 . S
C4066 C4061 1.363 . S
C4066 C4065 1.415 . S
C4067 H4043 0.951 . S
C4067 C4068 1.366 . S
C4067 C4069 1.388 . S
C4068 C4067 1.366 . S
C4068 C4072 1.385 . S
C4069 H4044 0.951 . S
C4069 C4067 1.388 . S
C4069 C4070 1.366 . S
C4070 C4069 1.366 . S
C4070 C4071 1.414 . S
C4070 C4073 1.499 . S
C4071 H4045 0.950 . S
C4071 C4070 1.414 . S
C4071 C4072 1.374 . S
C4072 H4046 0.950 . S
C4072 C4068 1.385 . S
C4072 C4071 1.374 . S
C4073 C4070 1.499 . S
C4073 C4074 1.373 . S
C4073 C4075 1.389 . S
C4074 H4047 0.950 . S
C4074 C4060 1.377 . S
C4074 C4073 1.373 . S
C4075 C4059 1.377 . S
C4075 C4073 1.389 . S
C4075 C4076 1.524 . S
C4076 C4075 1.524 . S
C4076 C4077 1.397 . S
C4076 C4081 1.363 . S
C4077 H4048 0.950 . S
C4077 C4076 1.397 . S
C4077 C4078 1.334 . S
C4078 H4049 0.950 . S
C4078 C4077 1.334 . S
C4078 C4079 1.287 . S
C4079 C4078 1.287 . S
C4079 C4080 1.524 . S
C4079 H4082 0.999 . S
C4080 H4050 0.950 . S
C4080 C4079 1.524 . S
C4080 C4081 1.415 . S
C4081 H4051 0.950 . S
C4081 C4076 1.363 . S
C4081 C4080 1.415 . S
H4082 C4079 0.999 . S
H4083 C4064 0.913 . S
H4084 C4102 0.951 . S
H4085 C4104 0.951 . S
H4086 C4106 0.950 . S
H4087 C4107 0.931 . S
H4088 C4109 0.950 . S
H4089 C4112 0.950 . S
H4090 C4113 0.950 . S
H4091 C4115 0.950 . S
H4092 C4116 0.950 . S
H4093 C4117 0.951 . S
H4094 C4119 0.951 . S
H4095 C4121 0.950 . S
H4096 C4122 0.950 . S
H4097 C4124 0.950 . S
H4098 C4127 0.950 . S
H4099 C4128 0.950 . S
H4100 C4130 0.950 . S
H4101 C4131 0.950 . S
C4102 H4084 0.951 . S
C4102 C4103 1.366 . S
C4102 C4104 1.388 1_455 S
C4103 C4102 1.366 . S
C4103 C4107 1.385 1_455 S
C4104 H4085 0.951 . S
C4104 C4102 1.388 1_655 S
C4104 C4105 1.366 . S
C4105 C4104 1.366 . S
C4105 C4106 1.414 . S
C4105 C4108 1.499 . S
C4106 H4086 0.950 . S
C4106 C4105 1.414 . S
C4106 C4107 1.374 . S
C4107 H4087 0.931 . S
C4107 C4103 1.385 1_655 S
C4107 C4106 1.374 . S
C4108 C4105 1.499 . S
C4108 C4109 1.373 . S
C4108 C4110 1.389 . S
C4109 H4088 0.950 . S
C4109 C4108 1.373 . S
C4109 C4125 1.377 . S
C4110 C4108 1.389 . S
C4110 C4111 1.524 . S
C4110 C4124 1.377 . S
C4111 C4110 1.524 . S
C4111 C4112 1.397 . S
C4111 C4116 1.363 . S
C4112 H4089 0.950 . S
C4112 C4111 1.397 . S
C4112 C4113 1.334 . S
C4113 H4090 0.950 . S
C4113 C4112 1.334 . S
C4113 C4114 1.287 . S
C4114 C4113 1.287 . S
C4114 C4115 1.524 . S
C4114 H4133 0.913 . S
C4115 H4091 0.950 . S
C4115 C4114 1.524 . S
C4115 C4116 1.415 . S
C4116 H4092 0.950 . S
C4116 C4111 1.363 . S
C4116 C4115 1.415 . S
C4117 H4093 0.951 . S
C4117 C4118 1.366 . S
C4117 C4119 1.388 . S
C4118 C4117 1.366 . S
C4118 C4122 1.385 . S
C4119 H4094 0.951 . S
C4119 C4117 1.388 . S
C4119 C4120 1.366 . S
C4120 C4119 1.366 . S
C4120 C4121 1.414 . S
C4120 C4123 1.499 . S
C4121 H4095 0.950 . S
C4121 C4120 1.414 . S
C4121 C4122 1.374 . S
C4122 H4096 0.950 . S
C4122 C4118 1.385 . S
C4122 C4121 1.374 . S
C4123 C4120 1.499 . S
C4123 C4124 1.373 . S
C4123 C4125 1.389 . S
C4124 H4097 0.950 . S
C4124 C4110 1.377 . S
C4124 C4123 1.373 . S
C4125 C4109 1.377 . S
C4125 C4123 1.389 . S
C4125 C4126 1.524 . S
C4126 C4125 1.524 . S
C4126 C4127 1.397 . S
C4126 C4131 1.363 . S
C4127 H4098 0.950 . S
C4127 C4126 1.397 . S
C4127 C4128 1.334 . S
C4128 H4099 0.950 . S
C4128 C4127 1.334 . S
C4128 C4129 1.287 . S
C4129 C4128 1.287 . S
C4129 C4130 1.524 . S
C4129 H4132 0.999 . S
C4130 H4100 0.950 . S
C4130 C4129 1.524 . S
C4130 C4131 1.415 . S
C4131 H4101 0.950 . S
C4131 C4126 1.363 . S
C4131 C4130 1.415 . S
H4132 C4129 0.999 . S
H4133 C4114 0.913 . S
H4134 C4152 0.951 . S
H4135 C4154 0.951 . S
H4136 C4156 0.950 . S
H4137 C4157 0.950 . S
H4138 C4159 0.950 . S
H4139 C4162 0.950 . S
H4140 C4163 0.950 . S
H4141 C4165 0.950 . S
H4142 C4166 0.950 . S
H4143 C4167 0.951 1_655 S
H4144 C4169 0.951 . S
H4145 C4171 0.950 . S
H4146 C4172 0.950 . S
H4147 C4174 0.950 . S
H4148 C4177 0.950 1_455 S
H4149 C4178 0.950 . S
H4150 C4180 0.950 . S
H4151 C4181 0.950 . S
C4152 H4134 0.951 . S
C4152 C4153 1.366 . S
C4152 C4154 1.388 . S
C4153 C4152 1.366 . S
C4153 C4157 1.385 . S
C4154 H4135 0.951 . S
C4154 C4152 1.388 . S
C4154 C4155 1.366 . S
C4155 C4154 1.366 . S
C4155 C4156 1.414 . S
C4155 C4158 1.499 . S
C4156 H4136 0.950 . S
C4156 C4155 1.414 . S
C4156 C4157 1.374 . S
C4157 H4137 0.950 . S
C4157 C4153 1.385 . S
C4157 C4156 1.374 . S
C4158 C4155 1.499 . S
C4158 C4159 1.373 . S
C4158 C4160 1.389 . S
C4159 H4138 0.950 . S
C4159 C4158 1.373 . S
C4159 C4175 1.377 . S
C4160 C4158 1.389 . S
C4160 C4161 1.524 . S
C4160 C4174 1.377 . S
C4161 C4160 1.524 . S
C4161 C4162 1.397 . S
C4161 C4166 1.363 . S
C4162 H4139 0.950 . S
C4162 C4161 1.397 . S
C4162 C4163 1.334 . S
C4163 H4140 0.950 . S
C4163 C4162 1.334 . S
C4163 C4164 1.287 . S
C4164 C4163 1.287 . S
C4164 C4165 1.524 . S
C4164 H4183 0.913 . S
C4165 H4141 0.950 . S
C4165 C4164 1.524 . S
C4165 C4166 1.415 . S
C4166 H4142 0.950 . S
C4166 C4161 1.363 . S
C4166 C4165 1.415 . S
C4167 H4143 0.951 1_455 S
C4167 C4168 1.366 . S
C4167 C4169 1.388 . S
C4168 C4167 1.366 . S
C4168 C4172 1.385 . S
C4169 H4144 0.951 . S
C4169 C4167 1.388 . S
C4169 C4170 1.366 . S
C4170 C4169 1.366 . S
C4170 C4171 1.414 . S
C4170 C4173 1.499 . S
C4171 H4145 0.950 . S
C4171 C4170 1.414 . S
C4171 C4172 1.374 . S
C4172 H4146 0.950 . S
C4172 C4168 1.385 . S
C4172 C4171 1.374 . S
C4173 C4170 1.499 . S
C4173 C4174 1.373 . S
C4173 C4175 1.389 . S
C4174 H4147 0.950 . S
C4174 C4160 1.377 . S
C4174 C4173 1.373 . S
C4175 C4159 1.377 . S
C4175 C4173 1.389 . S
C4175 C4176 1.524 1_455 S
C4176 C4175 1.524 1_655 S
C4176 C4177 1.397 . S
C4176 C4181 1.363 . S
C4177 H4148 0.950 1_655 S
C4177 C4176 1.397 . S
C4177 C4178 1.334 . S
C4178 H4149 0.950 . S
C4178 C4177 1.334 . S
C4178 C4179 1.287 . S
C4179 C4178 1.287 . S
C4179 C4180 1.524 . S
C4179 H4182 0.999 . S
C4180 H4150 0.950 . S
C4180 C4179 1.524 . S
C4180 C4181 1.415 . S
C4181 H4151 0.950 . S
C4181 C4176 1.363 . S
C4181 C4180 1.415 . S
H4182 C4179 0.999 . S
H4183 C4164 0.913 . S
H4184 C4202 0.951 . S
H4185 C4204 0.951 . S
H4186 C4206 0.950 . S
H4187 C4207 0.950 . S
H4188 C4209 0.950 . S
H4189 C4212 0.950 . S
H4190 C4213 0.950 . S
H4191 C4215 0.950 . S
H4192 C4216 0.950 . S
H4193 C4217 0.951 . S
H4194 C4219 0.951 . S
H4195 C4221 0.950 . S
H4196 C4222 0.950 . S
H4197 C4224 0.950 . S
H4198 C4227 0.950 . S
H4199 C4228 0.950 . S
H4200 C4230 0.950 . S
H4201 C4231 0.950 . S
C4202 H4184 0.951 . S
C4202 C4203 1.366 . S
C4202 C4204 1.388 . S
C4203 C4202 1.366 . S
C4203 C4207 1.385 . S
C4204 H4185 0.951 . S
C4204 C4202 1.388 . S
C4204 C4205 1.366 . S
C4205 C4204 1.366 . S
C4205 C4206 1.414 . S
C4205 C4208 1.499 . S
C4206 H4186 0.950 . S
C4206 C4205 1.414 . S
C4206 C4207 1.374 . S
C4207 H4187 0.950 . S
C4207 C4203 1.385 . S
C4207 C4206 1.374 . S
C4208 C4205 1.499 . S
C4208 C4209 1.373 . S
C4208 C4210 1.389 . S
C4209 H4188 0.950 . S
C4209 C4208 1.373 . S
C4209 C4225 1.377 . S
C4210 C4208 1.389 . S
C4210 C4211 1.524 . S
C4210 C4224 1.377 . S
C4211 C4210 1.524 . S
C4211 C4212 1.397 . S
C4211 C4216 1.363 . S
C4212 H4189 0.950 . S
C4212 C4211 1.397 . S
C4212 C4213 1.334 . S
C4213 H4190 0.950 . S
C4213 C4212 1.334 . S
C4213 C4214 1.287 . S
C4214 C4213 1.287 . S
C4214 C4215 1.524 . S
C4214 H4233 0.913 . S
C4215 H4191 0.950 . S
C4215 C4214 1.524 . S
C4215 C4216 1.415 . S
C4216 H4192 0.950 . S
C4216 C4211 1.363 . S
C4216 C4215 1.415 . S
C4217 H4193 0.951 . S
C4217 C4218 1.366 . S
C4217 C4219 1.388 . S
C4218 C4217 1.366 . S
C4218 C4222 1.385 . S
C4219 H4194 0.951 . S
C4219 C4217 1.388 . S
C4219 C4220 1.366 . S
C4220 C4219 1.366 . S
C4220 C4221 1.414 . S
C4220 C4223 1.499 . S
C4221 H4195 0.950 . S
C4221 C4220 1.414 . S
C4221 C4222 1.374 . S
C4222 H4196 0.950 . S
C4222 C4218 1.385 . S
C4222 C4221 1.374 . S
C4223 C4220 1.499 . S
C4223 C4224 1.373 . S
C4223 C4225 1.389 . S
C4224 H4197 0.950 . S
C4224 C4210 1.377 . S
C4224 C4223 1.373 . S
C4225 C4209 1.377 . S
C4225 C4223 1.389 . S
C4225 C4226 1.524 . S
C4226 C4225 1.524 . S
C4226 C4227 1.397 . S
C4226 C4231 1.363 . S
C4227 H4198 0.950 . S
C4227 C4226 1.397 . S
C4227 C4228 1.334 . S
C4228 H4199 0.950 . S
C4228 C4227 1.334 . S
C4228 C4229 1.287 . S
C4229 C4228 1.287 . S
C4229 C4230 1.524 . S
C4229 H4232 0.999 . S
C4230 H4200 0.950 . S
C4230 C4229 1.524 . S
C4230 C4231 1.415 . S
C4231 H4201 0.950 . S
C4231 C4226 1.363 . S
C4231 C4230 1.415 . S
H4232 C4229 0.999 . S
H4233 C4214 0.913 . S
H4234 C4252 0.951 . S
H4235 C4254 0.951 . S
H4236 C4256 0.950 . S
H4237 C4257 0.950 . S
H4238 C4259 0.950 . S
H4239 C4262 0.950 . S
H4240 C4263 0.950 . S
H4241 C4265 0.950 . S
H4242 C4266 0.950 . S
H4243 C4267 0.951 . S
H4244 C4269 0.951 . S
H4245 C4271 0.950 . S
H4246 C4272 0.950 . S
H4247 C4274 0.982 . S
H4248 C4277 0.950 . S
H4249 C4278 0.950 . S
H4250 C4280 0.950 . S
H4251 C4281 0.950 . S
C4252 H4234 0.951 . S
C4252 C4253 1.366 . S
C4252 C4254 1.388 . S
C4253 C4252 1.366 . S
C4253 C4257 1.385 . S
C4254 H4235 0.951 . S
C4254 C4252 1.388 . S
C4254 C4255 1.366 . S
C4255 C4254 1.366 . S
C4255 C4256 1.414 . S
C4255 C4258 1.499 . S
C4256 H4236 0.950 . S
C4256 C4255 1.414 . S
C4256 C4257 1.374 . S
C4257 H4237 0.950 . S
C4257 C4253 1.385 . S
C4257 C4256 1.374 . S
C4258 C4255 1.499 . S
C4258 C4259 1.373 . S
C4258 C4260 1.389 . S
C4259 H4238 0.950 . S
C4259 C4258 1.373 . S
C4259 C4275 1.377 . S
C4260 C4258 1.389 . S
C4260 C4261 1.524 1_565 S
C4260 C4274 1.377 . S
C4261 C4260 1.524 1_545 S
C4261 C4262 1.397 . S
C4261 C4266 1.363 . S
C4262 H4239 0.950 . S
C4262 C4261 1.397 . S
C4262 C4263 1.334 . S
C4263 H4240 0.950 . S
C4263 C4262 1.334 . S
C4263 C4264 1.287 . S
C4264 C4263 1.287 . S
C4264 C4265 1.524 . S
C4264 H4283 0.913 . S
C4265 H4241 0.950 . S
C4265 C4264 1.524 . S
C4265 C4266 1.415 . S
C4266 H4242 0.950 . S
C4266 C4261 1.363 . S
C4266 C4265 1.415 . S
C4267 H4243 0.951 . S
C4267 C4268 1.366 . S
C4267 C4269 1.388 . S
C4268 C4267 1.366 . S
C4268 C4272 1.385 . S
C4269 H4244 0.951 . S
C4269 C4267 1.388 . S
C4269 C4270 1.366 . S
C4270 C4269 1.366 . S
C4270 C4271 1.414 . S
C4270 C4273 1.499 . S
C4271 H4245 0.950 . S
C4271 C4270 1.414 . S
C4271 C4272 1.374 . S
C4272 H4246 0.950 . S
C4272 C4268 1.385 . S
C4272 C4271 1.374 . S
C4273 C4270 1.499 . S
C4273 C4274 1.373 . S
C4273 C4275 1.389 . S
C4274 H4247 0.982 . S
C4274 C4260 1.377 . S
C4274 C4273 1.373 . S
C4275 C4259 1.377 . S
C4275 C4273 1.389 . S
C4275 C4276 1.524 . S
C4276 C4275 1.524 . S
C4276 C4277 1.397 . S
C4276 C4281 1.363 . S
C4277 H4248 0.950 . S
C4277 C4276 1.397 . S
C4277 C4278 1.334 . S
C4278 H4249 0.950 . S
C4278 C4277 1.334 . S
C4278 C4279 1.287 . S
C4279 C4278 1.287 . S
C4279 C4280 1.524 . S
C4279 H4282 0.999 . S
C4280 H4250 0.950 . S
C4280 C4279 1.524 . S
C4280 C4281 1.415 . S
C4281 H4251 0.950 . S
C4281 C4276 1.363 . S
C4281 C4280 1.415 . S
H4282 C4279 0.999 . S
H4283 C4264 0.913 . S
H4284 C4302 0.951 . S
H4285 C4304 0.951 . S
H4286 C4306 0.950 . S
H4287 C4307 0.950 . S
H4288 C4309 0.950 . S
H4289 C4312 0.950 . S
H4290 C4313 0.950 . S
H4291 C4315 0.950 . S
H4292 C4316 0.950 . S
H4293 C4317 0.951 . S
H4294 C4319 0.951 . S
H4295 C4321 0.948 1_545 S
H4296 C4322 0.950 . S
H4297 C4324 0.950 . S
H4298 C4327 0.950 . S
H4299 C4328 0.950 . S
H4300 C4330 0.950 . S
H4301 C4331 0.906 1_565 S
C4302 H4284 0.951 . S
C4302 C4303 1.366 . S
C4302 C4304 1.388 . S
C4303 C4302 1.366 . S
C4303 C4307 1.385 . S
C4304 H4285 0.951 . S
C4304 C4302 1.388 . S
C4304 C4305 1.366 . S
C4305 C4304 1.366 . S
C4305 C4306 1.414 . S
C4305 C4308 1.499 . S
C4306 H4286 0.950 . S
C4306 C4305 1.414 . S
C4306 C4307 1.374 . S
C4307 H4287 0.950 . S
C4307 C4303 1.385 . S
C4307 C4306 1.374 . S
C4308 C4305 1.499 . S
C4308 C4309 1.373 . S
C4308 C4310 1.389 . S
C4309 H4288 0.950 . S
C4309 C4308 1.373 . S
C4309 C4325 1.377 . S
C4310 C4308 1.389 . S
C4310 C4311 1.524 . S
C4310 C4324 1.377 . S
C4311 C4310 1.524 . S
C4311 C4312 1.397 . S
C4311 C4316 1.363 . S
C4312 H4289 0.950 . S
C4312 C4311 1.397 . S
C4312 C4313 1.334 . S
C4313 H4290 0.950 . S
C4313 C4312 1.334 . S
C4313 C4314 1.287 . S
C4314 C4313 1.287 . S
C4314 C4315 1.524 . S
C4314 H4333 0.913 . S
C4315 H4291 0.950 . S
C4315 C4314 1.524 . S
C4315 C4316 1.415 . S
C4316 H4292 0.950 . S
C4316 C4311 1.363 . S
C4316 C4315 1.415 . S
C4317 H4293 0.951 . S
C4317 C4318 1.353 1_565 S
C4317 C4319 1.388 . S
C4318 C4317 1.353 1_545 S
C4318 C4322 1.386 . S
C4319 H4294 0.951 . S
C4319 C4317 1.388 . S
C4319 C4320 1.366 . S
C4320 C4319 1.366 . S
C4320 C4321 1.440 . S
C4320 C4323 1.499 . S
C4321 H4295 0.948 1_565 S
C4321 C4320 1.440 . S
C4321 C4322 1.351 1_565 S
C4322 H4296 0.950 . S
C4322 C4318 1.386 . S
C4322 C4321 1.351 1_545 S
C4323 C4320 1.499 . S
C4323 C4324 1.373 . S
C4323 C4325 1.389 . S
C4324 H4297 0.950 . S
C4324 C4310 1.377 . S
C4324 C4323 1.373 . S
C4325 C4309 1.377 . S
C4325 C4323 1.389 . S
C4325 C4326 1.524 1_565 S
C4326 C4325 1.524 1_545 S
C4326 C4327 1.397 . S
C4326 C4331 1.363 . S
C4327 H4298 0.950 . S
C4327 C4326 1.397 . S
C4327 C4328 1.334 . S
C4328 H4299 0.950 . S
C4328 C4327 1.334 . S
C4328 C4329 1.287 . S
C4329 C4328 1.287 . S
C4329 C4330 1.524 . S
C4329 H4332 0.999 . S
C4330 H4300 0.950 . S
C4330 C4329 1.524 . S
C4330 C4331 1.415 . S
C4331 H4301 0.906 1_545 S
C4331 C4326 1.363 . S
C4331 C4330 1.415 . S
H4332 C4329 0.999 . S
H4333 C4314 0.913 . S
H4334 C4352 0.951 . S
H4335 C4354 0.951 . S
H4336 C4356 0.950 . S
H4337 C4357 0.950 . S
H4338 C4359 0.950 . S
H4339 C4362 0.950 . S
H4340 C4363 0.950 . S
H4341 C4365 0.950 . S
H4342 C4366 0.950 . S
H4343 C4367 0.951 . S
H4344 C4369 0.951 . S
H4345 C4371 0.950 . S
H4346 C4372 0.950 . S
H4347 C4374 0.950 . S
H4348 C4377 0.950 . S
H4349 C4378 0.950 . S
H4350 C4380 0.950 . S
H4351 C4381 0.950 . S
C4352 H4334 0.951 . S
C4352 C4353 1.366 . S
C4352 C4354 1.388 . S
C4353 C4352 1.366 . S
C4353 C4357 1.385 . S
C4354 H4335 0.951 . S
C4354 C4352 1.388 . S
C4354 C4355 1.366 . S
C4355 C4354 1.366 . S
C4355 C4356 1.414 . S
C4355 C4358 1.499 . S
C4356 H4336 0.950 . S
C4356 C4355 1.414 . S
C4356 C4357 1.374 . S
C4357 H4337 0.950 . S
C4357 C4353 1.385 . S
C4357 C4356 1.374 . S
C4358 C4355 1.499 . S
C4358 C4359 1.373 . S
C4358 C4360 1.426 . S
C4359 H4338 0.950 . S
C4359 C4358 1.373 . S
C4359 C4375 1.377 . S
C4360 C4358 1.426 . S
C4360 C4361 1.472 1_455 S
C4360 C4374 1.393 1_455 S
C4361 C4360 1.472 1_655 S
C4361 C4362 1.397 . S
C4361 C4366 1.363 . S
C4362 H4339 0.950 . S
C4362 C4361 1.397 . S
C4362 C4363 1.334 . S
C4363 H4340 0.950 . S
C4363 C4362 1.334 . S
C4363 C4364 1.287 . S
C4364 C4363 1.287 . S
C4364 C4365 1.524 . S
C4364 H4383 0.913 . S
C4365 H4341 0.950 . S
C4365 C4364 1.524 . S
C4365 C4366 1.415 . S
C4366 H4342 0.950 . S
C4366 C4361 1.363 . S
C4366 C4365 1.415 . S
C4367 H4343 0.951 . S
C4367 C4368 1.366 1_455 S
C4367 C4369 1.388 . S
C4368 C4367 1.366 1_655 S
C4368 C4372 1.385 . S
C4369 H4344 0.951 . S
C4369 C4367 1.388 . S
C4369 C4370 1.366 . S
C4370 C4369 1.366 . S
C4370 C4371 1.414 1_455 S
C4370 C4373 1.499 . S
C4371 H4345 0.950 . S
C4371 C4370 1.414 1_655 S
C4371 C4372 1.374 . S
C4372 H4346 0.950 . S
C4372 C4368 1.385 . S
C4372 C4371 1.374 . S
C4373 C4370 1.499 . S
C4373 C4374 1.373 1_455 S
C4373 C4375 1.389 . S
C4374 H4347 0.950 . S
C4374 C4360 1.393 1_655 S
C4374 C4373 1.373 1_655 S
C4375 C4359 1.377 . S
C4375 C4373 1.389 . S
C4375 C4376 1.524 . S
C4376 C4375 1.524 . S
C4376 C4377 1.397 . S
C4376 C4381 1.363 . S
C4377 H4348 0.950 . S
C4377 C4376 1.397 . S
C4377 C4378 1.334 . S
C4378 H4349 0.950 . S
C4378 C4377 1.334 . S
C4378 C4379 1.287 . S
C4379 C4378 1.287 . S
C4379 C4380 1.524 . S
C4379 H4382 0.999 . S
C4380 H4350 0.950 . S
C4380 C4379 1.524 . S
C4380 C4381 1.415 . S
C4381 H4351 0.950 . S
C4381 C4376 1.363 . S
C4381 C4380 1.415 . S
H4382 C4379 0.999 . S
H4383 C4364 0.913 . S
H4384 C4402 0.951 . S
H4385 C4404 0.951 . S
H4386 C4406 0.950 . S
H4387 C4407 0.950 . S
H4388 C4409 0.950 . S
H4389 C4412 0.950 . S
H4390 C4413 0.950 . S
H4391 C4415 0.950 . S
H4392 C4416 0.950 . S
H4393 C4417 0.951 . S
H4394 C4419 0.951 . S
H4395 C4421 0.950 . S
H4396 C4422 0.950 . S
H4397 C4424 0.950 . S
H4398 C4427 0.950 . S
H4399 C4428 0.950 . S
H4400 C4430 0.950 . S
H4401 C4431 0.950 . S
C4402 H4384 0.951 . S
C4402 C4403 1.366 . S
C4402 C4404 1.388 . S
C4403 C4402 1.366 . S
C4403 C4407 1.385 . S
C4404 H4385 0.951 . S
C4404 C4402 1.388 . S
C4404 C4405 1.366 . S
C4405 C4404 1.366 . S
C4405 C4406 1.414 . S
C4405 C4408 1.499 . S
C4406 H4386 0.950 . S
C4406 C4405 1.414 . S
C4406 C4407 1.374 . S
C4407 H4387 0.950 . S
C4407 C4403 1.385 . S
C4407 C4406 1.374 . S
C4408 C4405 1.499 . S
C4408 C4409 1.373 . S
C4408 C4410 1.389 . S
C4409 H4388 0.950 . S
C4409 C4408 1.373 . S
C4409 C4425 1.377 . S
C4410 C4408 1.389 . S
C4410 C4411 1.524 . S
C4410 C4424 1.377 . S
C4411 C4410 1.524 . S
C4411 C4412 1.397 . S
C4411 C4416 1.363 . S
C4412 H4389 0.950 . S
C4412 C4411 1.397 . S
C4412 C4413 1.334 . S
C4413 H4390 0.950 . S
C4413 C4412 1.334 . S
C4413 C4414 1.287 . S
C4414 C4413 1.287 . S
C4414 C4415 1.524 . S
C4414 H4433 0.913 . S
C4415 H4391 0.950 . S
C4415 C4414 1.524 . S
C4415 C4416 1.415 . S
C4416 H4392 0.950 . S
C4416 C4411 1.363 . S
C4416 C4415 1.415 . S
C4417 H4393 0.951 . S
C4417 C4418 1.366 . S
C4417 C4419 1.388 . S
C4418 C4417 1.366 . S
C4418 C4422 1.385 . S
C4419 H4394 0.951 . S
C4419 C4417 1.388 . S
C4419 C4420 1.366 . S
C4420 C4419 1.366 . S
C4420 C4421 1.414 . S
C4420 C4423 1.499 . S
C4421 H4395 0.950 . S
C4421 C4420 1.414 . S
C4421 C4422 1.374 . S
C4422 H4396 0.950 . S
C4422 C4418 1.385 . S
C4422 C4421 1.374 . S
C4423 C4420 1.499 . S
C4423 C4424 1.373 . S
C4423 C4425 1.389 . S
C4424 H4397 0.950 . S
C4424 C4410 1.377 . S
C4424 C4423 1.373 . S
C4425 C4409 1.377 . S
C4425 C4423 1.389 . S
C4425 C4426 1.524 . S
C4426 C4425 1.524 . S
C4426 C4427 1.397 . S
C4426 C4431 1.363 . S
C4427 H4398 0.950 . S
C4427 C4426 1.397 . S
C4427 C4428 1.334 . S
C4428 H4399 0.950 . S
C4428 C4427 1.334 . S
C4428 C4429 1.287 . S
C4429 C4428 1.287 . S
C4429 C4430 1.524 . S
C4429 H4432 0.999 . S
C4430 H4400 0.950 . S
C4430 C4429 1.524 . S
C4430 C4431 1.415 . S
C4431 H4401 0.950 . S
C4431 C4426 1.363 . S
C4431 C4430 1.415 . S
H4432 C4429 0.999 . S
H4433 C4414 0.913 . S
H4434 C4452 0.951 . S
H4435 C4454 0.951 . S
H4436 C4456 0.950 . S
H4437 C4457 0.950 . S
H4438 C4459 0.950 . S
H4439 C4462 0.950 . S
H4440 C4463 0.950 . S
H4441 C4465 0.950 . S
H4442 C4466 0.950 . S
H4443 C4467 0.951 . S
H4444 C4469 0.951 . S
H4445 C4471 0.950 . S
H4446 C4472 0.950 . S
H4447 C4474 0.950 . S
H4448 C4477 0.950 . S
H4449 C4478 0.950 . S
H4450 C4480 0.950 . S
H4451 C4481 0.950 . S
C4452 H4434 0.951 . S
C4452 C4453 1.366 . S
C4452 C4454 1.388 . S
C4453 C4452 1.366 . S
C4453 C4457 1.385 . S
C4454 H4435 0.951 . S
C4454 C4452 1.388 . S
C4454 C4455 1.366 . S
C4455 C4454 1.366 . S
C4455 C4456 1.414 . S
C4455 C4458 1.499 . S
C4456 H4436 0.950 . S
C4456 C4455 1.414 . S
C4456 C4457 1.374 . S
C4457 H4437 0.950 . S
C4457 C4453 1.385 . S
C4457 C4456 1.374 . S
C4458 C4455 1.499 . S
C4458 C4459 1.373 . S
C4458 C4460 1.389 . S
C4459 H4438 0.950 . S
C4459 C4458 1.373 . S
C4459 C4475 1.377 . S
C4460 C4458 1.389 . S
C4460 C4461 1.524 . S
C4460 C4474 1.377 . S
C4461 C4460 1.524 . S
C4461 C4462 1.397 . S
C4461 C4466 1.363 . S
C4462 H4439 0.950 . S
C4462 C4461 1.397 . S
C4462 C4463 1.334 . S
C4463 H4440 0.950 . S
C4463 C4462 1.334 . S
C4463 C4464 1.287 . S
C4464 C4463 1.287 . S
C4464 C4465 1.524 . S
C4464 H4483 0.913 . S
C4465 H4441 0.950 . S
C4465 C4464 1.524 . S
C4465 C4466 1.415 . S
C4466 H4442 0.950 . S
C4466 C4461 1.363 . S
C4466 C4465 1.415 . S
C4467 H4443 0.951 . S
C4467 C4468 1.366 . S
C4467 C4469 1.388 . S
C4468 C4467 1.366 . S
C4468 C4472 1.385 . S
C4469 H4444 0.951 . S
C4469 C4467 1.388 . S
C4469 C4470 1.366 . S
C4470 C4469 1.366 . S
C4470 C4471 1.414 . S
C4470 C4473 1.499 . S
C4471 H4445 0.950 . S
C4471 C4470 1.414 . S
C4471 C4472 1.374 . S
C4472 H4446 0.950 . S
C4472 C4468 1.385 . S
C4472 C4471 1.374 . S
C4473 C4470 1.499 . S
C4473 C4474 1.373 . S
C4473 C4475 1.389 . S
C4474 H4447 0.950 . S
C4474 C4460 1.377 . S
C4474 C4473 1.373 . S
C4475 C4459 1.377 . S
C4475 C4473 1.389 . S
C4475 C4476 1.524 . S
C4476 C4475 1.524 . S
C4476 C4477 1.397 . S
C4476 C4481 1.363 . S
C4477 H4448 0.950 . S
C4477 C4476 1.397 . S
C4477 C4478 1.334 . S
C4478 H4449 0.950 . S
C4478 C4477 1.334 . S
C4478 C4479 1.287 . S
C4479 C4478 1.287 . S
C4479 C4480 1.524 . S
C4479 H4482 0.999 . S
C4480 H4450 0.950 . S
C4480 C4479 1.524 . S
C4480 C4481 1.415 . S
C4481 H4451 0.950 . S
C4481 C4476 1.363 . S
C4481 C4480 1.415 . S
H4482 C4479 0.999 . S
H4483 C4464 0.913 . S
H4484 C4502 0.951 . S
H4485 C4504 0.951 . S
H4486 C4506 0.950 . S
H4487 C4507 0.950 . S
H4488 C4509 0.950 . S
H4489 C4512 0.950 . S
H4490 C4513 0.950 . S
H4491 C4515 0.950 . S
H4492 C4516 0.950 . S
H4493 C4517 0.951 . S
H4494 C4519 0.951 . S
H4495 C4521 0.950 . S
H4496 C4522 0.950 . S
H4497 C4524 0.950 . S
H4498 C4527 0.950 . S
H4499 C4528 0.950 . S
H4500 C4530 0.950 . S
H4501 C4531 0.950 . S
C4502 H4484 0.951 . S
C4502 C4503 1.366 . S
C4502 C4504 1.388 . S
C4503 C4502 1.366 . S
C4503 C4507 1.385 . S
C4504 H4485 0.951 . S
C4504 C4502 1.388 . S
C4504 C4505 1.366 . S
C4505 C4504 1.366 . S
C4505 C4506 1.414 . S
C4505 C4508 1.499 . S
C4506 H4486 0.950 . S
C4506 C4505 1.414 . S
C4506 C4507 1.374 . S
C4507 H4487 0.950 . S
C4507 C4503 1.385 . S
C4507 C4506 1.374 . S
C4508 C4505 1.499 . S
C4508 C4509 1.373 . S
C4508 C4510 1.389 . S
C4509 H4488 0.950 . S
C4509 C4508 1.373 . S
C4509 C4525 1.377 . S
C4510 C4508 1.389 . S
C4510 C4511 1.524 . S
C4510 C4524 1.377 . S
C4511 C4510 1.524 . S
C4511 C4512 1.397 . S
C4511 C4516 1.363 . S
C4512 H4489 0.950 . S
C4512 C4511 1.397 . S
C4512 C4513 1.334 . S
C4513 H4490 0.950 . S
C4513 C4512 1.334 . S
C4513 C4514 1.287 . S
C4514 C4513 1.287 . S
C4514 C4515 1.524 . S
C4514 H4533 0.913 . S
C4515 H4491 0.950 . S
C4515 C4514 1.524 . S
C4515 C4516 1.415 . S
C4516 H4492 0.950 . S
C4516 C4511 1.363 . S
C4516 C4515 1.415 . S
C4517 H4493 0.951 . S
C4517 C4518 1.366 . S
C4517 C4519 1.388 . S
C4518 C4517 1.366 . S
C4518 C4522 1.385 . S
C4519 H4494 0.951 . S
C4519 C4517 1.388 . S
C4519 C4520 1.366 . S
C4520 C4519 1.366 . S
C4520 C4521 1.414 . S
C4520 C4523 1.499 . S
C4521 H4495 0.950 . S
C4521 C4520 1.414 . S
C4521 C4522 1.374 . S
C4522 H4496 0.950 . S
C4522 C4518 1.385 . S
C4522 C4521 1.374 . S
C4523 C4520 1.499 . S
C4523 C4524 1.373 . S
C4523 C4525 1.389 . S
C4524 H4497 0.950 . S
C4524 C4510 1.377 . S
C4524 C4523 1.373 . S
C4525 C4509 1.377 . S
C4525 C4523 1.389 . S
C4525 C4526 1.524 . S
C4526 C4525 1.524 . S
C4526 C4527 1.397 . S
C4526 C4531 1.363 . S
C4527 H4498 0.950 . S
C4527 C4526 1.397 . S
C4527 C4528 1.334 . S
C4528 H4499 0.950 . S
C4528 C4527 1.334 . S
C4528 C4529 1.287 . S
C4529 C4528 1.287 . S
C4529 C4530 1.524 . S
C4529 H4532 0.999 . S
C4530 H4500 0.950 . S
C4530 C4529 1.524 . S
C4530 C4531 1.415 . S
C4531 H4501 0.950 . S
C4531 C4526 1.363 . S
C4531 C4530 1.415 . S
H4532 C4529 0.999 . S
H4533 C4514 0.913 . S
H4534 C4552 0.951 . S
H4535 C4554 0.951 . S
H4536 C4556 0.950 . S
H4537 C4557 0.950 . S
H4538 C4559 0.950 . S
H4539 C4562 0.950 . S
H4540 C4563 0.950 . S
H4541 C4565 0.950 . S
H4542 C4566 0.950 . S
H4543 C4567 0.951 . S
H4544 C4569 0.951 . S
H4545 C4571 0.950 . S
H4546 C4572 0.950 . S
H4547 C4574 0.950 . S
H4548 C4577 0.950 . S
H4549 C4578 0.950 . S
H4550 C4580 0.950 . S
H4551 C4581 0.950 . S
C4552 H4534 0.951 . S
C4552 C4553 1.366 . S
C4552 C4554 1.388 . S
C4553 C4552 1.366 . S
C4553 C4557 1.385 . S
C4554 H4535 0.951 . S
C4554 C4552 1.388 . S
C4554 C4555 1.366 . S
C4555 C4554 1.366 . S
C4555 C4556 1.414 . S
C4555 C4558 1.499 . S
C4556 H4536 0.950 . S
C4556 C4555 1.414 . S
C4556 C4557 1.374 . S
C4557 H4537 0.950 . S
C4557 C4553 1.385 . S
C4557 C4556 1.374 . S
C4558 C4555 1.499 . S
C4558 C4559 1.373 . S
C4558 C4560 1.389 . S
C4559 H4538 0.950 . S
C4559 C4558 1.373 . S
C4559 C4575 1.377 . S
C4560 C4558 1.389 . S
C4560 C4561 1.524 . S
C4560 C4574 1.377 . S
C4561 C4560 1.524 . S
C4561 C4562 1.397 . S
C4561 C4566 1.363 . S
C4562 H4539 0.950 . S
C4562 C4561 1.397 . S
C4562 C4563 1.334 . S
C4563 H4540 0.950 . S
C4563 C4562 1.334 . S
C4563 C4564 1.287 . S
C4564 C4563 1.287 . S
C4564 C4565 1.524 . S
C4564 H4583 0.913 . S
C4565 H4541 0.950 . S
C4565 C4564 1.524 . S
C4565 C4566 1.415 . S
C4566 H4542 0.950 . S
C4566 C4561 1.363 . S
C4566 C4565 1.415 . S
C4567 H4543 0.951 . S
C4567 C4568 1.366 . S
C4567 C4569 1.388 . S
C4568 C4567 1.366 . S
C4568 C4572 1.385 . S
C4569 H4544 0.951 . S
C4569 C4567 1.388 . S
C4569 C4570 1.366 . S
C4570 C4569 1.366 . S
C4570 C4571 1.414 . S
C4570 C4573 1.499 . S
C4571 H4545 0.950 . S
C4571 C4570 1.414 . S
C4571 C4572 1.374 . S
C4572 H4546 0.950 . S
C4572 C4568 1.385 . S
C4572 C4571 1.374 . S
C4573 C4570 1.499 . S
C4573 C4574 1.373 . S
C4573 C4575 1.389 . S
C4574 H4547 0.950 . S
C4574 C4560 1.377 . S
C4574 C4573 1.373 . S
C4575 C4559 1.377 . S
C4575 C4573 1.389 . S
C4575 C4576 1.524 . S
C4576 C4575 1.524 . S
C4576 C4577 1.397 . S
C4576 C4581 1.363 . S
C4577 H4548 0.950 . S
C4577 C4576 1.397 . S
C4577 C4578 1.334 . S
C4578 H4549 0.950 . S
C4578 C4577 1.334 . S
C4578 C4579 1.287 . S
C4579 C4578 1.287 . S
C4579 C4580 1.524 . S
C4579 H4582 0.999 . S
C4580 H4550 0.950 . S
C4580 C4579 1.524 . S
C4580 C4581 1.415 . S
C4581 H4551 0.950 . S
C4581 C4576 1.363 . S
C4581 C4580 1.415 . S
H4582 C4579 0.999 . S
H4583 C4564 0.913 . S
H4584 C4602 0.951 . S
H4585 C4604 0.951 . S
H4586 C4606 0.950 . S
H4587 C4607 0.950 . S
H4588 C4609 0.950 . S
H4589 C4612 0.950 1_545 S
H4590 C4613 0.950 . S
H4591 C4615 0.950 . S
H4592 C4616 0.950 . S
H4593 C4617 0.951 . S
H4594 C4619 0.951 . S
H4595 C4621 0.950 1_565 S
H4596 C4622 0.883 1_565 S
H4597 C4624 0.950 1_565 S
H4598 C4627 0.950 . S
H4599 C4628 0.950 . S
H4600 C4630 0.950 . S
H4601 C4631 0.950 . S
C4602 H4584 0.951 . S
C4602 C4603 1.366 . S
C4602 C4604 1.388 . S
C4603 C4602 1.366 . S
C4603 C4607 1.385 . S
C4604 H4585 0.951 . S
C4604 C4602 1.388 . S
C4604 C4605 1.366 . S
C4605 C4604 1.366 . S
C4605 C4606 1.414 . S
C4605 C4608 1.499 . S
C4606 H4586 0.950 . S
C4606 C4605 1.414 . S
C4606 C4607 1.374 . S
C4607 H4587 0.950 . S
C4607 C4603 1.385 . S
C4607 C4606 1.374 . S
C4608 C4605 1.499 . S
C4608 C4609 1.373 . S
C4608 C4610 1.389 . S
C4609 H4588 0.950 . S
C4609 C4608 1.373 . S
C4609 C4625 1.377 . S
C4610 C4608 1.389 . S
C4610 C4611 1.524 1_545 S
C4610 C4624 1.377 . S
C4611 C4610 1.524 1_565 S
C4611 C4612 1.397 . S
C4611 C4616 1.363 . S
C4612 H4589 0.950 1_565 S
C4612 C4611 1.397 . S
C4612 C4613 1.334 . S
C4613 H4590 0.950 . S
C4613 C4612 1.334 . S
C4613 C4614 1.287 . S
C4614 C4613 1.287 . S
C4614 C4615 1.524 . S
C4614 H4633 0.913 . S
C4615 H4591 0.950 . S
C4615 C4614 1.524 . S
C4615 C4616 1.415 . S
C4616 H4592 0.950 . S
C4616 C4611 1.363 . S
C4616 C4615 1.415 . S
C4617 H4593 0.951 . S
C4617 C4618 1.366 . S
C4617 C4619 1.388 . S
C4618 C4617 1.366 . S
C4618 C4622 1.415 . S
C4619 H4594 0.951 . S
C4619 C4617 1.388 . S
C4619 C4620 1.366 . S
C4620 C4619 1.366 . S
C4620 C4621 1.414 . S
C4620 C4623 1.499 . S
C4621 H4595 0.950 1_545 S
C4621 C4620 1.414 . S
C4621 C4622 1.413 . S
C4622 H4596 0.883 1_545 S
C4622 C4618 1.415 . S
C4622 C4621 1.413 . S
C4623 C4620 1.499 . S
C4623 C4624 1.373 . S
C4623 C4625 1.389 . S
C4624 H4597 0.950 1_545 S
C4624 C4610 1.377 . S
C4624 C4623 1.373 . S
C4625 C4609 1.377 . S
C4625 C4623 1.389 . S
C4625 C4626 1.524 . S
C4626 C4625 1.524 . S
C4626 C4627 1.397 . S
C4626 C4631 1.363 . S
C4627 H4598 0.950 . S
C4627 C4626 1.397 . S
C4627 C4628 1.334 . S
C4628 H4599 0.950 . S
C4628 C4627 1.334 . S
C4628 C4629 1.287 . S
C4629 C4628 1.287 . S
C4629 C4630 1.524 . S
C4629 H4632 0.999 . S
C4630 H4600 0.950 . S
C4630 C4629 1.524 . S
C4630 C4631 1.415 . S
C4631 H4601 0.950 . S
C4631 C4626 1.363 . S
C4631 C4630 1.415 . S
H4632 C4629 0.999 . S
H4633 C4614 0.913 . S
H4634 C4652 0.951 . S
H4635 C4654 0.951 . S
H4636 C4656 0.982 . S
H4637 C4657 0.950 . S
H4638 C4659 0.950 1_455 S
H4639 C4662 0.950 . S
H4640 C4663 0.950 . S
H4641 C4665 0.950 . S
H4642 C4666 0.950 . S
H4643 C4667 0.951 . S
H4644 C4669 0.927 1_455 S
H4645 C4671 0.950 . S
H4646 C4672 0.950 . S
H4647 C4674 0.950 . S
H4648 C4677 0.950 1_655 S
H4649 C4678 0.950 . S
H4650 C4680 0.950 . S
H4651 C4681 0.950 . S
C4652 H4634 0.951 . S
C4652 C4653 1.366 . S
C4652 C4654 1.388 . S
C4653 C4652 1.366 . S
C4653 C4657 1.385 . S
C4654 H4635 0.951 . S
C4654 C4652 1.388 . S
C4654 C4655 1.366 . S
C4655 C4654 1.366 . S
C4655 C4656 1.414 . S
C4655 C4658 1.499 . S
C4656 H4636 0.982 . S
C4656 C4655 1.414 . S
C4656 C4657 1.374 . S
C4657 H4637 0.950 . S
C4657 C4653 1.385 . S
C4657 C4656 1.374 . S
C4658 C4655 1.499 . S
C4658 C4659 1.373 . S
C4658 C4660 1.389 . S
C4659 H4638 0.950 1_655 S
C4659 C4658 1.373 . S
C4659 C4675 1.377 . S
C4660 C4658 1.389 . S
C4660 C4661 1.524 . S
C4660 C4674 1.377 . S
C4661 C4660 1.524 . S
C4661 C4662 1.397 . S
C4661 C4666 1.363 . S
C4662 H4639 0.950 . S
C4662 C4661 1.397 . S
C4662 C4663 1.334 . S
C4663 H4640 0.950 . S
C4663 C4662 1.334 . S
C4663 C4664 1.287 . S
C4664 C4663 1.287 . S
C4664 C4665 1.524 . S
C4664 H4683 0.913 . S
C4665 H4641 0.950 . S
C4665 C4664 1.524 . S
C4665 C4666 1.415 . S
C4666 H4642 0.950 . S
C4666 C4661 1.363 . S
C4666 C4665 1.415 . S
C4667 H4643 0.951 . S
C4667 C4668 1.366 1_455 S
C4667 C4669 1.399 1_455 S
C4668 C4667 1.366 1_655 S
C4668 C4672 1.385 . S
C4669 H4644 0.927 1_655 S
C4669 C4667 1.399 1_655 S
C4669 C4670 1.378 . S
C4670 C4669 1.378 . S
C4670 C4671 1.414 . S
C4670 C4673 1.499 . S
C4671 H4645 0.950 . S
C4671 C4670 1.414 . S
C4671 C4672 1.374 . S
C4672 H4646 0.950 . S
C4672 C4668 1.385 . S
C4672 C4671 1.374 . S
C4673 C4670 1.499 . S
C4673 C4674 1.373 . S
C4673 C4675 1.389 . S
C4674 H4647 0.950 . S
C4674 C4660 1.377 . S
C4674 C4673 1.373 . S
C4675 C4659 1.377 . S
C4675 C4673 1.389 . S
C4675 C4676 1.524 1_655 S
C4676 C4675 1.524 1_455 S
C4676 C4677 1.397 . S
C4676 C4681 1.363 . S
C4677 H4648 0.950 1_455 S
C4677 C4676 1.397 . S
C4677 C4678 1.334 . S
C4678 H4649 0.950 . S
C4678 C4677 1.334 . S
C4678 C4679 1.287 . S
C4679 C4678 1.287 . S
C4679 C4680 1.524 . S
C4679 H4682 0.999 . S
C4680 H4650 0.950 . S
C4680 C4679 1.524 . S
C4680 C4681 1.415 . S
C4681 H4651 0.950 . S
C4681 C4676 1.363 . S
C4681 C4680 1.415 . S
H4682 C4679 0.999 . S
H4683 C4664 0.913 . S
H4684 C4702 0.951 . S
H4685 C4704 0.951 . S
H4686 C4706 0.950 . S
H4687 C4707 0.950 . S
H4688 C4709 0.950 . S
H4689 C4712 0.950 . S
H4690 C4713 0.950 . S
H4691 C4715 0.950 . S
H4692 C4716 0.950 . S
H4693 C4717 0.951 . S
H4694 C4719 0.951 . S
H4695 C4721 0.950 . S
H4696 C4722 0.950 . S
H4697 C4724 0.950 . S
H4698 C4727 0.950 . S
H4699 C4728 0.950 . S
H4700 C4730 0.950 . S
H4701 C4731 0.950 . S
C4702 H4684 0.951 . S
C4702 C4703 1.366 . S
C4702 C4704 1.388 . S
C4703 C4702 1.366 . S
C4703 C4707 1.385 . S
C4704 H4685 0.951 . S
C4704 C4702 1.388 . S
C4704 C4705 1.366 . S
C4705 C4704 1.366 . S
C4705 C4706 1.414 . S
C4705 C4708 1.499 . S
C4706 H4686 0.950 . S
C4706 C4705 1.414 . S
C4706 C4707 1.374 . S
C4707 H4687 0.950 . S
C4707 C4703 1.385 . S
C4707 C4706 1.374 . S
C4708 C4705 1.499 . S
C4708 C4709 1.373 . S
C4708 C4710 1.389 . S
C4709 H4688 0.950 . S
C4709 C4708 1.373 . S
C4709 C4725 1.377 . S
C4710 C4708 1.389 . S
C4710 C4711 1.524 . S
C4710 C4724 1.377 . S
C4711 C4710 1.524 . S
C4711 C4712 1.397 . S
C4711 C4716 1.363 . S
C4712 H4689 0.950 . S
C4712 C4711 1.397 . S
C4712 C4713 1.334 . S
C4713 H4690 0.950 . S
C4713 C4712 1.334 . S
C4713 C4714 1.287 . S
C4714 C4713 1.287 . S
C4714 C4715 1.524 . S
C4714 H4733 0.913 . S
C4715 H4691 0.950 . S
C4715 C4714 1.524 . S
C4715 C4716 1.415 . S
C4716 H4692 0.950 . S
C4716 C4711 1.363 . S
C4716 C4715 1.415 . S
C4717 H4693 0.951 . S
C4717 C4718 1.366 . S
C4717 C4719 1.388 . S
C4718 C4717 1.366 . S
C4718 C4722 1.385 . S
C4719 H4694 0.951 . S
C4719 C4717 1.388 . S
C4719 C4720 1.366 . S
C4720 C4719 1.366 . S
C4720 C4721 1.414 . S
C4720 C4723 1.499 . S
C4721 H4695 0.950 . S
C4721 C4720 1.414 . S
C4721 C4722 1.374 . S
C4722 H4696 0.950 . S
C4722 C4718 1.385 . S
C4722 C4721 1.374 . S
C4723 C4720 1.499 . S
C4723 C4724 1.373 . S
C4723 C4725 1.389 . S
C4724 H4697 0.950 . S
C4724 C4710 1.377 . S
C4724 C4723 1.373 . S
C4725 C4709 1.377 . S
C4725 C4723 1.389 . S
C4725 C4726 1.524 . S
C4726 C4725 1.524 . S
C4726 C4727 1.397 . S
C4726 C4731 1.363 . S
C4727 H4698 0.950 . S
C4727 C4726 1.397 . S
C4727 C4728 1.334 . S
C4728 H4699 0.950 . S
C4728 C4727 1.334 . S
C4728 C4729 1.287 . S
C4729 C4728 1.287 . S
C4729 C4730 1.524 . S
C4729 H4732 0.999 . S
C4730 H4700 0.950 . S
C4730 C4729 1.524 . S
C4730 C4731 1.415 . S
C4731 H4701 0.950 . S
C4731 C4726 1.363 . S
C4731 C4730 1.415 . S
H4732 C4729 0.999 . S
H4733 C4714 0.913 . S
H4734 C4752 0.951 . S
H4735 C4754 0.951 . S
H4736 C4756 0.950 . S
H4737 C4757 0.950 . S
H4738 C4759 0.950 . S
H4739 C4762 0.950 . S
H4740 C4763 0.950 . S
H4741 C4765 0.950 . S
H4742 C4766 0.950 . S
H4743 C4767 0.951 . S
H4744 C4769 0.951 . S
H4745 C4771 0.950 . S
H4746 C4772 0.950 . S
H4747 C4774 0.950 . S
H4748 C4777 0.950 . S
H4749 C4778 0.950 . S
H4750 C4780 0.950 . S
H4751 C4781 0.950 . S
C4752 H4734 0.951 . S
C4752 C4753 1.366 . S
C4752 C4754 1.388 . S
C4753 C4752 1.366 . S
C4753 C4757 1.385 . S
C4754 H4735 0.951 . S
C4754 C4752 1.388 . S
C4754 C4755 1.366 . S
C4755 C4754 1.366 . S
C4755 C4756 1.414 . S
C4755 C4758 1.499 . S
C4756 H4736 0.950 . S
C4756 C4755 1.414 . S
C4756 C4757 1.374 . S
C4757 H4737 0.950 . S
C4757 C4753 1.385 . S
C4757 C4756 1.374 . S
C4758 C4755 1.499 . S
C4758 C4759 1.373 . S
C4758 C4760 1.389 . S
C4759 H4738 0.950 . S
C4759 C4758 1.373 . S
C4759 C4775 1.377 . S
C4760 C4758 1.389 . S
C4760 C4761 1.524 . S
C4760 C4774 1.377 . S
C4761 C4760 1.524 . S
C4761 C4762 1.397 . S
C4761 C4766 1.363 . S
C4762 H4739 0.950 . S
C4762 C4761 1.397 . S
C4762 C4763 1.334 . S
C4763 H4740 0.950 . S
C4763 C4762 1.334 . S
C4763 C4764 1.287 . S
C4764 C4763 1.287 . S
C4764 C4765 1.524 . S
C4764 H4783 0.913 . S
C4765 H4741 0.950 . S
C4765 C4764 1.524 . S
C4765 C4766 1.415 . S
C4766 H4742 0.950 . S
C4766 C4761 1.363 . S
C4766 C4765 1.415 . S
C4767 H4743 0.951 . S
C4767 C4768 1.366 . S
C4767 C4769 1.388 . S
C4768 C4767 1.366 . S
C4768 C4772 1.385 . S
C4769 H4744 0.951 . S
C4769 C4767 1.388 . S
C4769 C4770 1.366 . S
C4770 C4769 1.366 . S
C4770 C4771 1.414 . S
C4770 C4773 1.499 . S
C4771 H4745 0.950 . S
C4771 C4770 1.414 . S
C4771 C4772 1.374 . S
C4772 H4746 0.950 . S
C4772 C4768 1.385 . S
C4772 C4771 1.374 . S
C4773 C4770 1.499 . S
C4773 C4774 1.373 . S
C4773 C4775 1.389 . S
C4774 H4747 0.950 . S
C4774 C4760 1.377 . S
C4774 C4773 1.373 . S
C4775 C4759 1.377 . S
C4775 C4773 1.389 . S
C4775 C4776 1.524 . S
C4776 C4775 1.524 . S
C4776 C4777 1.397 . S
C4776 C4781 1.363 . S
C4777 H4748 0.950 . S
C4777 C4776 1.397 . S
C4777 C4778 1.334 . S
C4778 H4749 0.950 . S
C4778 C4777 1.334 . S
C4778 C4779 1.287 . S
C4779 C4778 1.287 . S
C4779 C4780 1.524 . S
C4779 H4782 0.999 . S
C4780 H4750 0.950 . S
C4780 C4779 1.524 . S
C4780 C4781 1.415 . S
C4781 H4751 0.950 . S
C4781 C4776 1.363 . S
C4781 C4780 1.415 . S
H4782 C4779 0.999 . S
H4783 C4764 0.913 . S
H4784 C4802 0.951 . S
H4785 C4804 0.951 . S
H4786 C4806 0.950 . S
H4787 C4807 0.950 . S
H4788 C4809 0.950 . S
H4789 C4812 0.950 . S
H4790 C4813 0.950 . S
H4791 C4815 0.950 . S
H4792 C4816 0.950 . S
H4793 C4817 0.951 . S
H4794 C4819 0.951 . S
H4795 C4821 0.950 . S
H4796 C4822 0.950 . S
H4797 C4824 0.950 . S
H4798 C4827 0.950 . S
H4799 C4828 0.950 . S
H4800 C4830 0.950 . S
H4801 C4831 0.950 . S
C4802 H4784 0.951 . S
C4802 C4803 1.366 . S
C4802 C4804 1.388 . S
C4803 C4802 1.366 . S
C4803 C4807 1.385 . S
C4804 H4785 0.951 . S
C4804 C4802 1.388 . S
C4804 C4805 1.366 . S
C4805 C4804 1.366 . S
C4805 C4806 1.414 . S
C4805 C4808 1.499 . S
C4806 H4786 0.950 . S
C4806 C4805 1.414 . S
C4806 C4807 1.374 . S
C4807 H4787 0.950 . S
C4807 C4803 1.385 . S
C4807 C4806 1.374 . S
C4808 C4805 1.499 . S
C4808 C4809 1.373 . S
C4808 C4810 1.389 . S
C4809 H4788 0.950 . S
C4809 C4808 1.373 . S
C4809 C4825 1.377 . S
C4810 C4808 1.389 . S
C4810 C4811 1.524 . S
C4810 C4824 1.377 . S
C4811 C4810 1.524 . S
C4811 C4812 1.397 . S
C4811 C4816 1.363 . S
C4812 H4789 0.950 . S
C4812 C4811 1.397 . S
C4812 C4813 1.334 . S
C4813 H4790 0.950 . S
C4813 C4812 1.334 . S
C4813 C4814 1.287 . S
C4814 C4813 1.287 . S
C4814 C4815 1.524 . S
C4814 H4833 0.913 . S
C4815 H4791 0.950 . S
C4815 C4814 1.524 . S
C4815 C4816 1.415 . S
C4816 H4792 0.950 . S
C4816 C4811 1.363 . S
C4816 C4815 1.415 . S
C4817 H4793 0.951 . S
C4817 C4818 1.366 . S
C4817 C4819 1.388 . S
C4818 C4817 1.366 . S
C4818 C4822 1.385 . S
C4819 H4794 0.951 . S
C4819 C4817 1.388 . S
C4819 C4820 1.366 . S
C4820 C4819 1.366 . S
C4820 C4821 1.414 . S
C4820 C4823 1.499 . S
C4821 H4795 0.950 . S
C4821 C4820 1.414 . S
C4821 C4822 1.374 . S
C4822 H4796 0.950 . S
C4822 C4818 1.385 . S
C4822 C4821 1.374 . S
C4823 C4820 1.499 . S
C4823 C4824 1.373 . S
C4823 C4825 1.389 . S
C4824 H4797 0.950 . S
C4824 C4810 1.377 . S
C4824 C4823 1.373 . S
C4825 C4809 1.377 . S
C4825 C4823 1.389 . S
C4825 C4826 1.524 . S
C4826 C4825 1.524 . S
C4826 C4827 1.397 . S
C4826 C4831 1.363 . S
C4827 H4798 0.950 . S
C4827 C4826 1.397 . S
C4827 C4828 1.334 . S
C4828 H4799 0.950 . S
C4828 C4827 1.334 . S
C4828 C4829 1.287 . S
C4829 C4828 1.287 . S
C4829 C4830 1.524 . S
C4829 H4832 0.999 . S
C4830 H4800 0.950 . S
C4830 C4829 1.524 . S
C4830 C4831 1.415 . S
C4831 H4801 0.950 . S
C4831 C4826 1.363 . S
C4831 C4830 1.415 . S
H4832 C4829 0.999 . S
H4833 C4814 0.913 . S
H4834 C4852 0.951 . S
H4835 C4854 0.951 . S
H4836 C4856 0.950 . S
H4837 C4857 0.950 . S
H4838 C4859 0.950 . S
H4839 C4862 0.950 . S
H4840 C4863 0.950 . S
H4841 C4865 0.950 . S
H4842 C4866 0.950 . S
H4843 C4867 0.951 . S
H4844 C4869 0.951 . S
H4845 C4871 0.950 . S
H4846 C4872 0.950 . S
H4847 C4874 0.950 . S
H4848 C4877 0.950 . S
H4849 C4878 0.950 . S
H4850 C4880 0.950 . S
H4851 C4881 0.950 . S
C4852 H4834 0.951 . S
C4852 C4853 1.366 . S
C4852 C4854 1.388 . S
C4853 C4852 1.366 . S
C4853 C4857 1.385 . S
C4854 H4835 0.951 . S
C4854 C4852 1.388 . S
C4854 C4855 1.366 . S
C4855 C4854 1.366 . S
C4855 C4856 1.414 . S
C4855 C4858 1.499 . S
C4856 H4836 0.950 . S
C4856 C4855 1.414 . S
C4856 C4857 1.374 . S
C4857 H4837 0.950 . S
C4857 C4853 1.385 . S
C4857 C4856 1.374 . S
C4858 C4855 1.499 . S
C4858 C4859 1.373 . S
C4858 C4860 1.389 . S
C4859 H4838 0.950 . S
C4859 C4858 1.373 . S
C4859 C4875 1.377 . S
C4860 C4858 1.389 . S
C4860 C4861 1.524 . S
C4860 C4874 1.377 . S
C4861 C4860 1.524 . S
C4861 C4862 1.397 . S
C4861 C4866 1.363 . S
C4862 H4839 0.950 . S
C4862 C4861 1.397 . S
C4862 C4863 1.334 . S
C4863 H4840 0.950 . S
C4863 C4862 1.334 . S
C4863 C4864 1.287 . S
C4864 C4863 1.287 . S
C4864 C4865 1.524 . S
C4864 H4883 0.913 . S
C4865 H4841 0.950 . S
C4865 C4864 1.524 . S
C4865 C4866 1.415 . S
C4866 H4842 0.950 . S
C4866 C4861 1.363 . S
C4866 C4865 1.415 . S
C4867 H4843 0.951 . S
C4867 C4868 1.366 . S
C4867 C4869 1.388 . S
C4868 C4867 1.366 . S
C4868 C4872 1.385 . S
C4869 H4844 0.951 . S
C4869 C4867 1.388 . S
C4869 C4870 1.366 . S
C4870 C4869 1.366 . S
C4870 C4871 1.414 . S
C4870 C4873 1.499 . S
C4871 H4845 0.950 . S
C4871 C4870 1.414 . S
C4871 C4872 1.374 . S
C4872 H4846 0.950 . S
C4872 C4868 1.385 . S
C4872 C4871 1.374 . S
C4873 C4870 1.499 . S
C4873 C4874 1.373 . S
C4873 C4875 1.389 . S
C4874 H4847 0.950 . S
C4874 C4860 1.377 . S
C4874 C4873 1.373 . S
C4875 C4859 1.377 . S
C4875 C4873 1.389 . S
C4875 C4876 1.524 . S
C4876 C4875 1.524 . S
C4876 C4877 1.397 . S
C4876 C4881 1.363 . S
C4877 H4848 0.950 . S
C4877 C4876 1.397 . S
C4877 C4878 1.334 . S
C4878 H4849 0.950 . S
C4878 C4877 1.334 . S
C4878 C4879 1.287 . S
C4879 C4878 1.287 . S
C4879 C4880 1.524 . S
C4879 H4882 0.999 . S
C4880 H4850 0.950 . S
C4880 C4879 1.524 . S
C4880 C4881 1.415 . S
C4881 H4851 0.950 . S
C4881 C4876 1.363 . S
C4881 C4880 1.415 . S
H4882 C4879 0.999 . S
H4883 C4864 0.913 . S
H4884 C4902 0.951 . S
H4885 C4904 0.951 . S
H4886 C4906 0.950 . S
H4887 C4907 0.950 . S
H4888 C4909 0.950 . S
H4889 C4912 0.950 . S
H4890 C4913 0.950 . S
H4891 C4915 0.950 . S
H4892 C4916 0.950 . S
H4893 C4917 0.951 . S
H4894 C4919 0.951 . S
H4895 C4921 0.950 . S
H4896 C4922 0.950 . S
H4897 C4924 0.950 . S
H4898 C4927 0.950 . S
H4899 C4928 0.950 . S
H4900 C4930 0.950 . S
H4901 C4931 0.950 . S
C4902 H4884 0.951 . S
C4902 C4903 1.366 . S
C4902 C4904 1.388 . S
C4903 C4902 1.366 . S
C4903 C4907 1.385 . S
C4904 H4885 0.951 . S
C4904 C4902 1.388 . S
C4904 C4905 1.366 . S
C4905 C4904 1.366 . S
C4905 C4906 1.414 . S
C4905 C4908 1.499 . S
C4906 H4886 0.950 . S
C4906 C4905 1.414 . S
C4906 C4907 1.374 . S
C4907 H4887 0.950 . S
C4907 C4903 1.385 . S
C4907 C4906 1.374 . S
C4908 C4905 1.499 . S
C4908 C4909 1.373 . S
C4908 C4910 1.389 . S
C4909 H4888 0.950 . S
C4909 C4908 1.373 . S
C4909 C4925 1.377 . S
C4910 C4908 1.389 . S
C4910 C4911 1.524 . S
C4910 C4924 1.377 . S
C4911 C4910 1.524 . S
C4911 C4912 1.397 . S
C4911 C4916 1.363 . S
C4912 H4889 0.950 . S
C4912 C4911 1.397 . S
C4912 C4913 1.334 . S
C4913 H4890 0.950 . S
C4913 C4912 1.334 . S
C4913 C4914 1.287 . S
C4914 C4913 1.287 . S
C4914 C4915 1.524 . S
C4914 H4933 0.913 . S
C4915 H4891 0.950 . S
C4915 C4914 1.524 . S
C4915 C4916 1.415 . S
C4916 H4892 0.950 . S
C4916 C4911 1.363 . S
C4916 C4915 1.415 . S
C4917 H4893 0.951 . S
C4917 C4918 1.366 . S
C4917 C4919 1.388 . S
C4918 C4917 1.366 . S
C4918 C4922 1.385 . S
C4919 H4894 0.951 . S
C4919 C4917 1.388 . S
C4919 C4920 1.366 . S
C4920 C4919 1.366 . S
C4920 C4921 1.414 . S
C4920 C4923 1.499 . S
C4921 H4895 0.950 . S
C4921 C4920 1.414 . S
C4921 C4922 1.374 . S
C4922 H4896 0.950 . S
C4922 C4918 1.385 . S
C4922 C4921 1.374 . S
C4923 C4920 1.499 . S
C4923 C4924 1.373 . S
C4923 C4925 1.389 . S
C4924 H4897 0.950 . S
C4924 C4910 1.377 . S
C4924 C4923 1.373 . S
C4925 C4909 1.377 . S
C4925 C4923 1.389 . S
C4925 C4926 1.524 . S
C4926 C4925 1.524 . S
C4926 C4927 1.397 . S
C4926 C4931 1.363 . S
C4927 H4898 0.950 . S
C4927 C4926 1.397 . S
C4927 C4928 1.334 . S
C4928 H4899 0.950 . S
C4928 C4927 1.334 . S
C4928 C4929 1.287 . S
C4929 C4928 1.287 . S
C4929 C4930 1.524 . S
C4929 H4932 0.999 . S
C4930 H4900 0.950 . S
C4930 C4929 1.524 . S
C4930 C4931 1.415 . S
C4931 H4901 0.950 . S
C4931 C4926 1.363 . S
C4931 C4930 1.415 . S
H4932 C4929 0.999 . S
H4933 C4914 0.913 . S
H4934 C4952 0.951 . S
H4935 C4954 0.951 . S
H4936 C4956 0.950 . S
H4937 C4957 0.950 1_545 S
H4938 C4959 0.950 . S
H4939 C4962 0.950 . S
H4940 C4963 0.950 . S
H4941 C4965 0.950 . S
H4942 C4966 0.950 . S
H4943 C4967 0.951 . S
H4944 C4969 0.951 . S
H4945 C4971 0.950 . S
H4946 C4972 0.950 . S
H4947 C4974 0.950 . S
H4948 C4977 0.950 . S
H4949 C4978 0.950 . S
H4950 C4980 0.950 . S
H4951 C4981 0.950 . S
C4952 H4934 0.951 . S
C4952 C4953 1.366 . S
C4952 C4954 1.388 . S
C4953 C4952 1.366 . S
C4953 C4957 1.385 . S
C4954 H4935 0.951 . S
C4954 C4952 1.388 . S
C4954 C4955 1.366 . S
C4955 C4954 1.366 . S
C4955 C4956 1.414 . S
C4955 C4958 1.499 . S
C4956 H4936 0.950 . S
C4956 C4955 1.414 . S
C4956 C4957 1.374 . S
C4957 H4937 0.950 1_565 S
C4957 C4953 1.385 . S
C4957 C4956 1.374 . S
C4958 C4955 1.499 . S
C4958 C4959 1.373 . S
C4958 C4960 1.389 . S
C4959 H4938 0.950 . S
C4959 C4958 1.373 . S
C4959 C4975 1.377 . S
C4960 C4958 1.389 . S
C4960 C4961 1.524 . S
C4960 C4974 1.377 . S
C4961 C4960 1.524 . S
C4961 C4962 1.397 . S
C4961 C4966 1.363 . S
C4962 H4939 0.950 . S
C4962 C4961 1.397 . S
C4962 C4963 1.334 . S
C4963 H4940 0.950 . S
C4963 C4962 1.334 . S
C4963 C4964 1.287 . S
C4964 C4963 1.287 . S
C4964 C4965 1.524 . S
C4964 H4983 0.913 . S
C4965 H4941 0.950 . S
C4965 C4964 1.524 . S
C4965 C4966 1.415 . S
C4966 H4942 0.950 . S
C4966 C4961 1.363 . S
C4966 C4965 1.415 . S
C4967 H4943 0.951 . S
C4967 C4968 1.366 . S
C4967 C4969 1.388 . S
C4968 C4967 1.366 . S
C4968 C4972 1.385 . S
C4969 H4944 0.951 . S
C4969 C4967 1.388 . S
C4969 C4970 1.366 . S
C4970 C4969 1.366 . S
C4970 C4971 1.414 . S
C4970 C4973 1.499 . S
C4971 H4945 0.950 . S
C4971 C4970 1.414 . S
C4971 C4972 1.374 . S
C4972 H4946 0.950 . S
C4972 C4968 1.385 . S
C4972 C4971 1.374 . S
C4973 C4970 1.499 . S
C4973 C4974 1.373 . S
C4973 C4975 1.389 . S
C4974 H4947 0.950 . S
C4974 C4960 1.377 . S
C4974 C4973 1.373 . S
C4975 C4959 1.377 . S
C4975 C4973 1.389 . S
C4975 C4976 1.524 . S
C4976 C4975 1.524 . S
C4976 C4977 1.397 . S
C4976 C4981 1.363 . S
C4977 H4948 0.950 . S
C4977 C4976 1.397 . S
C4977 C4978 1.334 . S
C4978 H4949 0.950 . S
C4978 C4977 1.334 . S
C4978 C4979 1.287 . S
C4979 C4978 1.287 . S
C4979 C4980 1.524 . S
C4979 H4982 0.999 . S
C4980 H4950 0.950 . S
C4980 C4979 1.524 . S
C4980 C4981 1.415 . S
C4981 H4951 0.950 . S
C4981 C4976 1.363 . S
C4981 C4980 1.415 . S
H4982 C4979 0.999 . S
H4983 C4964 0.913 . S
H4984 C5002 0.951 . S
H4985 C5004 0.951 . S
H4986 C5006 0.950 . S
H4987 C5007 0.949 1_655 S
H4988 C5009 0.950 . S
H4989 C5012 0.950 . S
H4990 C5013 0.950 1_655 S
H4991 C5015 0.950 . S
H4992 C5016 0.950 . S
H4993 C5017 0.951 . S
H4994 C5019 0.951 . S
H4995 C5021 0.950 . S
H4996 C5022 0.950 . S
H4997 C5024 0.950 . S
H4998 C5027 0.950 . S
H4999 C5028 0.950 . S
H5000 C5030 0.950 . S
H5001 C5031 0.950 . S
C5002 H4984 0.951 . S
C5002 C5003 1.366 1_455 S
C5002 C5004 1.388 . S
C5003 C5002 1.366 1_655 S
C5003 C5007 1.376 1_655 S
C5004 H4985 0.951 . S
C5004 C5002 1.388 . S
C5004 C5005 1.366 . S
C5005 C5004 1.366 . S
C5005 C5006 1.414 . S
C5005 C5008 1.499 . S
C5006 H4986 0.950 . S
C5006 C5005 1.414 . S
C5006 C5007 1.383 . S
C5007 H4987 0.949 1_455 S
C5007 C5003 1.376 1_455 S
C5007 C5006 1.383 . S
C5008 C5005 1.499 . S
C5008 C5009 1.373 . S
C5008 C5010 1.389 . S
C5009 H4988 0.950 . S
C5009 C5008 1.373 . S
C5009 C5025 1.377 . S
C5010 C5008 1.389 . S
C5010 C5011 1.524 . S
C5010 C5024 1.377 . S
C5011 C5010 1.524 . S
C5011 C5012 1.397 . S
C5011 C5016 1.363 . S
C5012 H4989 0.950 . S
C5012 C5011 1.397 . S
C5012 C5013 1.334 . S
C5013 H4990 0.950 1_455 S
C5013 C5012 1.334 . S
C5013 C5014 1.287 . S
C5014 C5013 1.287 . S
C5014 C5015 1.524 . S
C5014 H5033 0.913 . S
C5015 H4991 0.950 . S
C5015 C5014 1.524 . S
C5015 C5016 1.415 . S
C5016 H4992 0.950 . S
C5016 C5011 1.363 . S
C5016 C5015 1.415 . S
C5017 H4993 0.951 . S
C5017 C5018 1.366 . S
C5017 C5019 1.388 . S
C5018 C5017 1.366 . S
C5018 C5022 1.385 . S
C5019 H4994 0.951 . S
C5019 C5017 1.388 . S
C5019 C5020 1.366 . S
C5020 C5019 1.366 . S
C5020 C5021 1.414 . S
C5020 C5023 1.499 . S
C5021 H4995 0.950 . S
C5021 C5020 1.414 . S
C5021 C5022 1.374 . S
C5022 H4996 0.950 . S
C5022 C5018 1.385 . S
C5022 C5021 1.374 . S
C5023 C5020 1.499 . S
C5023 C5024 1.373 . S
C5023 C5025 1.389 . S
C5024 H4997 0.950 . S
C5024 C5010 1.377 . S
C5024 C5023 1.373 . S
C5025 C5009 1.377 . S
C5025 C5023 1.389 . S
C5025 C5026 1.524 . S
C5026 C5025 1.524 . S
C5026 C5027 1.397 . S
C5026 C5031 1.363 . S
C5027 H4998 0.950 . S
C5027 C5026 1.397 . S
C5027 C5028 1.334 . S
C5028 H4999 0.950 . S
C5028 C5027 1.334 . S
C5028 C5029 1.287 . S
C5029 C5028 1.287 . S
C5029 C5030 1.524 . S
C5029 H5032 0.999 . S
C5030 H5000 0.950 . S
C5030 C5029 1.524 . S
C5030 C5031 1.415 . S
C5031 H5001 0.950 . S
C5031 C5026 1.363 . S
C5031 C5030 1.415 . S
H5032 C5029 0.999 . S
H5033 C5014 0.913 . S
H5034 C5052 0.951 . S
H5035 C5054 0.951 . S
H5036 C5056 0.950 . S
H5037 C5057 0.950 . S
H5038 C5059 0.950 . S
H5039 C5062 0.950 . S
H5040 C5063 0.950 . S
H5041 C5065 0.950 . S
H5042 C5066 0.950 . S
H5043 C5067 0.951 . S
H5044 C5069 0.951 . S
H5045 C5071 0.950 . S
H5046 C5072 0.950 . S
H5047 C5074 0.950 . S
H5048 C5077 0.950 . S
H5049 C5078 0.950 . S
H5050 C5080 0.950 . S
H5051 C5081 0.950 . S
C5052 H5034 0.951 . S
C5052 C5053 1.366 . S
C5052 C5054 1.388 . S
C5053 C5052 1.366 . S
C5053 C5057 1.385 . S
C5054 H5035 0.951 . S
C5054 C5052 1.388 . S
C5054 C5055 1.366 . S
C5055 C5054 1.366 . S
C5055 C5056 1.414 . S
C5055 C5058 1.499 . S
C5056 H5036 0.950 . S
C5056 C5055 1.414 . S
C5056 C5057 1.374 . S
C5057 H5037 0.950 . S
C5057 C5053 1.385 . S
C5057 C5056 1.374 . S
C5058 C5055 1.499 . S
C5058 C5059 1.373 . S
C5058 C5060 1.389 . S
C5059 H5038 0.950 . S
C5059 C5058 1.373 . S
C5059 C5075 1.377 . S
C5060 C5058 1.389 . S
C5060 C5061 1.524 . S
C5060 C5074 1.377 . S
C5061 C5060 1.524 . S
C5061 C5062 1.397 . S
C5061 C5066 1.363 . S
C5062 H5039 0.950 . S
C5062 C5061 1.397 . S
C5062 C5063 1.334 . S
C5063 H5040 0.950 . S
C5063 C5062 1.334 . S
C5063 C5064 1.287 . S
C5064 C5063 1.287 . S
C5064 C5065 1.524 . S
C5064 H5083 0.913 . S
C5065 H5041 0.950 . S
C5065 C5064 1.524 . S
C5065 C5066 1.415 . S
C5066 H5042 0.950 . S
C5066 C5061 1.363 . S
C5066 C5065 1.415 . S
C5067 H5043 0.951 . S
C5067 C5068 1.366 1_455 S
C5067 C5069 1.406 . S
C5068 C5067 1.366 1_655 S
C5068 C5072 1.385 . S
C5069 H5044 0.951 . S
C5069 C5067 1.406 . S
C5069 C5070 1.347 1_455 S
C5070 C5069 1.347 1_655 S
C5070 C5071 1.414 . S
C5070 C5073 1.499 . S
C5071 H5045 0.950 . S
C5071 C5070 1.414 . S
C5071 C5072 1.374 . S
C5072 H5046 0.950 . S
C5072 C5068 1.385 . S
C5072 C5071 1.374 . S
C5073 C5070 1.499 . S
C5073 C5074 1.373 . S
C5073 C5075 1.389 . S
C5074 H5047 0.950 . S
C5074 C5060 1.377 . S
C5074 C5073 1.373 . S
C5075 C5059 1.377 . S
C5075 C5073 1.389 . S
C5075 C5076 1.524 1_655 S
C5076 C5075 1.524 1_455 S
C5076 C5077 1.397 . S
C5076 C5081 1.363 . S
C5077 H5048 0.950 . S
C5077 C5076 1.397 . S
C5077 C5078 1.334 . S
C5078 H5049 0.950 . S
C5078 C5077 1.334 . S
C5078 C5079 1.287 . S
C5079 C5078 1.287 . S
C5079 C5080 1.524 . S
C5079 H5082 0.999 . S
C5080 H5050 0.950 . S
C5080 C5079 1.524 . S
C5080 C5081 1.415 . S
C5081 H5051 0.950 . S
C5081 C5076 1.363 . S
C5081 C5080 1.415 . S
H5082 C5079 0.999 . S
H5083 C5064 0.913 . S
H5084 C5102 0.951 . S
H5085 C5104 0.951 . S
H5086 C5106 0.950 . S
H5087 C5107 0.950 . S
H5088 C5109 0.950 . S
H5089 C5112 0.950 . S
H5090 C5113 0.950 . S
H5091 C5115 0.950 . S
H5092 C5116 0.950 . S
H5093 C5117 0.951 . S
H5094 C5119 0.951 . S
H5095 C5121 0.950 . S
H5096 C5122 0.950 . S
H5097 C5124 0.950 . S
H5098 C5127 0.950 . S
H5099 C5128 0.950 . S
H5100 C5130 0.950 . S
H5101 C5131 0.950 . S
C5102 H5084 0.951 . S
C5102 C5103 1.366 . S
C5102 C5104 1.388 . S
C5103 C5102 1.366 . S
C5103 C5107 1.385 . S
C5104 H5085 0.951 . S
C5104 C5102 1.388 . S
C5104 C5105 1.366 . S
C5105 C5104 1.366 . S
C5105 C5106 1.414 . S
C5105 C5108 1.499 . S
C5106 H5086 0.950 . S
C5106 C5105 1.414 . S
C5106 C5107 1.374 . S
C5107 H5087 0.950 . S
C5107 C5103 1.385 . S
C5107 C5106 1.374 . S
C5108 C5105 1.499 . S
C5108 C5109 1.373 . S
C5108 C5110 1.389 . S
C5109 H5088 0.950 . S
C5109 C5108 1.373 . S
C5109 C5125 1.377 . S
C5110 C5108 1.389 . S
C5110 C5111 1.524 . S
C5110 C5124 1.377 . S
C5111 C5110 1.524 . S
C5111 C5112 1.397 . S
C5111 C5116 1.363 . S
C5112 H5089 0.950 . S
C5112 C5111 1.397 . S
C5112 C5113 1.334 . S
C5113 H5090 0.950 . S
C5113 C5112 1.334 . S
C5113 C5114 1.287 . S
C5114 C5113 1.287 . S
C5114 C5115 1.524 . S
C5114 H5133 0.913 . S
C5115 H5091 0.950 . S
C5115 C5114 1.524 . S
C5115 C5116 1.415 . S
C5116 H5092 0.950 . S
C5116 C5111 1.363 . S
C5116 C5115 1.415 . S
C5117 H5093 0.951 . S
C5117 C5118 1.366 . S
C5117 C5119 1.388 . S
C5118 C5117 1.366 . S
C5118 C5122 1.385 . S
C5119 H5094 0.951 . S
C5119 C5117 1.388 . S
C5119 C5120 1.366 . S
C5120 C5119 1.366 . S
C5120 C5121 1.414 . S
C5120 C5123 1.499 . S
C5121 H5095 0.950 . S
C5121 C5120 1.414 . S
C5121 C5122 1.374 . S
C5122 H5096 0.950 . S
C5122 C5118 1.385 . S
C5122 C5121 1.374 . S
C5123 C5120 1.499 . S
C5123 C5124 1.373 . S
C5123 C5125 1.389 . S
C5124 H5097 0.950 . S
C5124 C5110 1.377 . S
C5124 C5123 1.373 . S
C5125 C5109 1.377 . S
C5125 C5123 1.389 . S
C5125 C5126 1.524 . S
C5126 C5125 1.524 . S
C5126 C5127 1.397 . S
C5126 C5131 1.363 . S
C5127 H5098 0.950 . S
C5127 C5126 1.397 . S
C5127 C5128 1.334 . S
C5128 H5099 0.950 . S
C5128 C5127 1.334 . S
C5128 C5129 1.287 . S
C5129 C5128 1.287 . S
C5129 C5130 1.524 . S
C5129 H5132 0.999 . S
C5130 H5100 0.950 . S
C5130 C5129 1.524 . S
C5130 C5131 1.415 . S
C5131 H5101 0.950 . S
C5131 C5126 1.363 . S
C5131 C5130 1.415 . S
H5132 C5129 0.999 . S
H5133 C5114 0.913 . S
H5134 C5152 0.951 . S
H5135 C5154 0.951 . S
H5136 C5156 0.950 . S
H5137 C5157 0.950 . S
H5138 C5159 0.950 . S
H5139 C5162 0.950 . S
H5140 C5163 0.950 . S
H5141 C5165 0.950 . S
H5142 C5166 0.950 . S
H5143 C5167 0.951 . S
H5144 C5169 0.951 . S
H5145 C5171 0.950 . S
H5146 C5172 0.950 . S
H5147 C5174 0.950 1_565 S
H5148 C5177 0.950 . S
H5149 C5178 0.950 . S
H5150 C5180 0.950 . S
H5151 C5181 0.950 . S
C5152 H5134 0.951 . S
C5152 C5153 1.366 . S
C5152 C5154 1.388 . S
C5153 C5152 1.366 . S
C5153 C5157 1.385 . S
C5154 H5135 0.951 . S
C5154 C5152 1.388 . S
C5154 C5155 1.366 . S
C5155 C5154 1.366 . S
C5155 C5156 1.414 . S
C5155 C5158 1.499 . S
C5156 H5136 0.950 . S
C5156 C5155 1.414 . S
C5156 C5157 1.374 . S
C5157 H5137 0.950 . S
C5157 C5153 1.385 . S
C5157 C5156 1.374 . S
C5158 C5155 1.499 . S
C5158 C5159 1.373 . S
C5158 C5160 1.389 . S
C5159 H5138 0.950 . S
C5159 C5158 1.373 . S
C5159 C5175 1.377 . S
C5160 C5158 1.389 . S
C5160 C5161 1.524 1_545 S
C5160 C5174 1.377 . S
C5161 C5160 1.524 1_565 S
C5161 C5162 1.397 . S
C5161 C5166 1.363 . S
C5162 H5139 0.950 . S
C5162 C5161 1.397 . S
C5162 C5163 1.334 . S
C5163 H5140 0.950 . S
C5163 C5162 1.334 . S
C5163 C5164 1.287 . S
C5164 C5163 1.287 . S
C5164 C5165 1.524 . S
C5164 H5183 0.913 . S
C5165 H5141 0.950 . S
C5165 C5164 1.524 . S
C5165 C5166 1.415 . S
C5166 H5142 0.950 . S
C5166 C5161 1.363 . S
C5166 C5165 1.415 . S
C5167 H5143 0.951 . S
C5167 C5168 1.366 . S
C5167 C5169 1.388 . S
C5168 C5167 1.366 . S
C5168 C5172 1.385 1_545 S
C5169 H5144 0.951 . S
C5169 C5167 1.388 . S
C5169 C5170 1.366 . S
C5170 C5169 1.366 . S
C5170 C5171 1.414 1_545 S
C5170 C5173 1.499 . S
C5171 H5145 0.950 . S
C5171 C5170 1.414 1_565 S
C5171 C5172 1.374 . S
C5172 H5146 0.950 . S
C5172 C5168 1.385 1_565 S
C5172 C5171 1.374 . S
C5173 C5170 1.499 . S
C5173 C5174 1.373 . S
C5173 C5175 1.389 . S
C5174 H5147 0.950 1_545 S
C5174 C5160 1.377 . S
C5174 C5173 1.373 . S
C5175 C5159 1.377 . S
C5175 C5173 1.389 . S
C5175 C5176 1.524 . S
C5176 C5175 1.524 . S
C5176 C5177 1.397 . S
C5176 C5181 1.363 . S
C5177 H5148 0.950 . S
C5177 C5176 1.397 . S
C5177 C5178 1.334 . S
C5178 H5149 0.950 . S
C5178 C5177 1.334 . S
C5178 C5179 1.287 . S
C5179 C5178 1.287 . S
C5179 C5180 1.524 . S
C5179 H5182 0.999 . S
C5180 H5150 0.950 . S
C5180 C5179 1.524 . S
C5180 C5181 1.415 . S
C5181 H5151 0.950 . S
C5181 C5176 1.363 . S
C5181 C5180 1.415 . S
H5182 C5179 0.999 . S
H5183 C5164 0.913 . S
C1603 C7 1.063 1_455 S
C1618 C981 1.044 . S
C1653 C23 1.603 . S
C1668 C1061 1.574 . S
C1718 C1129 1.281 . S
C1703 C37 1.293 . S
C1753 C35 1.742 1_556 S
C1768 C1209 1.729 . S
C1803 C9 1.497 . S
C1818 C1283 1.512 . S
C1853 C21 1.628 . S
C1868 C1351 1.585 . S
C1903 C49 0.985 . S
C1918 C1277 0.965 . S
C1968 C1357 1.475 . S
C1953 C65 1.460 . S
C2018 C1203 1.283 . S
C2003 C79 1.261 . S
C2053 C77 1.691 . S
C2068 C1135 1.690 . S
C2118 C987 1.495 . S
C2103 C51 1.456 . S
C2153 C63 1.466 . S
C2168 C1055 1.466 . S
C2203 C91 1.381 . S
C2218 C1425 1.336 . S
C2253 C107 1.642 . S
C2268 C1505 1.601 . S
C2318 C1573 1.491 . S
C2303 C121 1.563 . S
C2353 C119 1.970 . S
C2368 C321 1.929 . S
C2403 C93 1.792 . S
C2418 C395 1.745 . S
C2453 C105 1.659 . S
C2468 C463 1.612 . S
C2503 C133 1.052 . S
C2518 C389 1.049 . S
C2553 C149 1.515 . S
C2568 C469 1.528 . S
C2618 C315 1.413 . S
C2603 C163 1.416 . S
C2668 C1579 1.962 . S
C2653 C161 1.959 . S
C2718 C1431 1.586 . S
C2703 C135 1.585 . S
C2768 C1499 1.526 . S
C2753 C147 1.519 . S
C2803 C175 1.247 . S
C2818 C537 1.205 . S
C2853 C191 1.660 . S
C2868 C617 1.623 . S
C2903 C205 1.604 . S
C2918 C685 1.536 . S
C2953 C203 2.095 . S
C2968 C765 2.054 . S
C3018 C839 1.707 . S
C3003 C177 1.760 . S
C3068 C907 1.653 . S
C3053 C189 1.692 . S
C3118 C833 1.203 . S
C3103 C217 1.204 . S
C3168 C913 1.501 . S
C3153 C233 1.494 . S
C3203 C247 1.355 . S
C3218 C759 1.346 . S
C3268 C691 1.820 . S
C3253 C245 1.820 . S
C3303 C219 1.634 . S
C3318 C543 1.640 . S
C3368 C611 1.492 . S
C3353 C231 1.491 . S
C3418 C291 1.998 . S
C3403 C8 2.038 . S
C3453 C17 1.445 . S
C3468 C365 1.436 . S
C3518 C451 1.533 . S
C3503 C31 1.524 . S
C3568 C525 1.213 . S
C3553 C36 1.228 . S
C3618 C587 1.649 . S
C3603 C3 1.657 1_556 S
C3668 C673 1.519 . S
C3653 C22 1.531 . S
C3703 C50 2.202 . S
C3718 C661 2.118 . S
C3753 C59 1.618 . S
C3768 C513 1.559 . S
C3803 C73 1.707 . S
C3818 C599 1.687 . S
C3853 C78 1.468 . S
C3868 C377 1.425 . S
C3918 C439 1.759 . S
C3903 C45 1.819 . S
C3953 C64 1.736 . S
C3968 C303 1.687 . S
C4018 C735 1.948 . S
C4003 C92 1.984 . S
C4053 C101 1.651 1_545 S
C4068 C809 1.637 . S
C4103 C115 1.617 . S
C4118 C895 1.612 . S
C4168 C969 0.970 . S
C4153 C120 0.971 . S
C4203 C87 1.583 . S
C4218 C1031 1.572 . S
C4253 C106 1.359 . S
C4268 C1117 1.357 . S
C4303 C134 1.851 . S
C4318 C1105 1.803 . S
C4353 C143 1.361 . S
C4368 C957 1.338 . S
C4418 C1043 1.644 . S
C4403 C157 1.670 . S
C4453 C162 1.429 . S
C4468 C821 1.378 . S
C4503 C129 1.885 1_545 S
C4518 C883 1.819 . S
C4568 C747 1.822 . S
C4553 C148 1.874 1_655 S
C4618 C1179 1.786 . S
C4603 C176 1.817 . S
C4653 C185 1.282 . S
C4668 C1253 1.273 . S
C4703 C199 1.491 . S
C4718 C1339 1.491 . S
C4768 C1413 1.179 . S
C4753 C204 1.194 . S
C4818 C1475 1.715 . S
C4803 C171 1.727 1_565 S
C4853 C190 1.675 1_455 S
C4868 C1561 1.661 . S
C4903 C218 2.145 . S
C4918 C1549 2.056 . S
C4953 C227 1.814 1_565 S
C4968 C1401 1.747 . S
C5018 C1487 1.755 . S
C5003 C241 1.791 . S
C5068 C1265 1.026 . S
C5053 C246 1.037 . S
C5118 C1327 1.694 . S
C5103 C213 1.753 . S
C5153 C232 1.441 . S
C5168 C1191 1.432 1_545 S
