# Generated by pormake.
# Topology tsx, (6,3)-cn, num edge types: 1
# Building blocks:
#     Node 0, Type 0, BuildingBlock: LEVNOQ01_clean_sbu_1, # of connection points: 6
#     Node 1, Type 0, BuildingBlock: LEVNOQ01_clean_sbu_1, # of connection points: 6
#     Node 2, Type 1, BuildingBlock: BELTOD_clean_linker_0, # of connection points: 3
#     Node 3, Type 1, BuildingBlock: BELTOD_clean_linker_0, # of connection points: 3
#     Node 4, Type 1, BuildingBlock: BELTOD_clean_linker_0, # of connection points: 3
#     Node 5, Type 1, BuildingBlock: BELTOD_clean_linker_0, # of connection points: 3
#     Edge 6, Type (0, 1), BuildingBlock: FUNLAD_clean_linker_0, # of connection points: 2
#     Edge 7, Type (0, 1), BuildingBlock: FUNLAD_clean_linker_0, # of connection points: 2
#     Edge 8, Type (0, 1), BuildingBlock: FUNLAD_clean_linker_0, # of connection points: 2
#     Edge 9, Type (0, 1), BuildingBlock: FUNLAD_clean_linker_0, # of connection points: 2
#     Edge 10, Type (0, 1), BuildingBlock: FUNLAD_clean_linker_0, # of connection points: 2
#     Edge 11, Type (0, 1), BuildingBlock: FUNLAD_clean_linker_0, # of connection points: 2
#     Edge 12, Type (0, 1), BuildingBlock: FUNLAD_clean_linker_0, # of connection points: 2
#     Edge 13, Type (0, 1), BuildingBlock: FUNLAD_clean_linker_0, # of connection points: 2
#     Edge 14, Type (0, 1), BuildingBlock: FUNLAD_clean_linker_0, # of connection points: 2
#     Edge 15, Type (0, 1), BuildingBlock: FUNLAD_clean_linker_0, # of connection points: 2
#     Edge 16, Type (0, 1), BuildingBlock: FUNLAD_clean_linker_0, # of connection points: 2
#     Edge 17, Type (0, 1), BuildingBlock: FUNLAD_clean_linker_0, # of connection points: 2
# Relax obj value: 0.118
# Max RMSD: 0.151
# Mean RMSD: 0.110
data_MOF--net-tsx--node1-LEVNOQ01_clean_sbu_1--node2-BELTOD_clean_linker_0--edge1-FUNLAD_clean_linker_0
_symmetry_space_group_name_H-M    P1
_symmetry_Int_Tables_number       1
_symmetry_cell_setting            triclinic
loop_
_symmetry_equiv_pos_as_xyz
'x, y, z'
_cell_length_a     24.069099
_cell_length_b     29.297399
_cell_length_c     47.347512
_cell_angle_alpha  98.161979
_cell_angle_beta   90.033375
_cell_angle_gamma 91.078435
loop_
_atom_site_label
_atom_site_type_symbol
_atom_site_fract_x
_atom_site_fract_y
_atom_site_fract_z
_atom_type_partial_charge
O0 O 0.12307 0.03326 0.06115 0.0
Mg1 Mg 0.14186 0.03412 0.01765 0.0
O2 O 0.03256 0.0282 0.05289 0.0
Mg3 Mg 0.02138 0.02518 0.00314 0.0
O4 O 0.09416 0.0788 -0.00079 0.0
O5 O 0.18576 0.08893 0.00754 0.0
O6 O 0.01029 0.02136 0.95338 0.0
O7 O 0.96943 0.09375 0.0122 0.0
Mg8 Mg 0.8961 0.01236 0.98651 0.0
O9 O 0.94799 0.97384 0.00727 0.0
O10 O 0.92075 0.00932 0.94344 0.0
O11 O 0.87941 0.07728 0.00941 0.0
O12 O 0.8582 0.95562 -0.00092 0.0
C13 C 0.1219 0.94298 0.9883 0.0
C14 C 0.0737 0.03071 0.07022 0.0
C15 C 0.13964 0.10355 -0.00143 0.0
C16 C 0.9704 0.01459 0.93529 0.0
C17 C 0.91886 0.10628 0.01508 0.0
C18 C 0.90574 0.94614 0.00915 0.0
O19 O 0.16101 0.97238 0.99278 0.0
O20 O 0.07171 0.95525 0.99321 0.0
O21 O 0.60706 0.52348 0.56066 0.0
Mg22 Mg 0.62415 0.53049 0.51758 0.0
O23 O 0.51654 0.52485 0.55346 0.0
Mg24 Mg 0.50934 0.52191 0.50354 0.0
O25 O 0.57925 0.57962 0.50138 0.0
O26 O 0.67037 0.58642 0.51222 0.0
O27 O 0.50444 0.51757 0.45319 0.0
O28 O 0.45175 0.58776 0.51157 0.0
Mg29 Mg 0.38834 0.5004 0.48078 0.0
O30 O 0.43826 0.46803 0.50627 0.0
O31 O 0.41973 0.49382 0.43894 0.0
O32 O 0.36493 0.56588 0.50044 0.0
O33 O 0.35165 0.44387 0.49421 0.0
C34 C 0.61215 0.44243 0.48749 0.0
C35 C 0.5579 0.52345 0.57027 0.0
C36 C 0.62595 0.60323 0.50285 0.0
C37 C 0.46923 0.50482 0.43321 0.0
C38 C 0.4 0.59685 0.51026 0.0
C39 C 0.39753 0.43857 0.50733 0.0
O40 O 0.64949 0.47338 0.48975 0.0
O41 O 0.56243 0.45305 0.49481 0.0
P42 P 0.09916 0.06978 0.43166 0.0
H43 H 0.05661 0.13904 0.47665 0.0
H44 H 0.96419 0.17096 0.48499 0.0
H45 H 0.89603 0.06335 0.42193 0.0
H46 H 0.98893 0.03183 0.41354 0.0
H47 H 0.20034 0.02035 0.41753 0.0
H48 H 0.25011 0.96257 0.43921 0.0
H49 H 0.12063 0.96178 0.50233 0.0
H50 H 0.07061 0.01991 0.48021 0.0
H51 H 0.09811 0.13022 0.38795 0.0
H52 H 0.09043 0.98388 0.39086 0.0
O53 O 0.13977 0.11647 0.44035 0.0
H54 H 0.08989 0.11613 0.33601 0.0
H55 H 0.08151 0.96936 0.33878 0.0
C56 C 0.02984 0.08378 0.44397 0.0
C57 C 0.02161 0.1216 0.46513 0.0
C58 C 0.96854 0.13972 0.46998 0.0
C59 C 0.92279 0.12022 0.45372 0.0
C60 C 0.93058 0.07972 0.43439 0.0
C61 C 0.98366 0.06153 0.42966 0.0
C62 C 0.1313 0.02374 0.44687 0.0
C63 C 0.18233 0.00744 0.43589 0.0
C64 C 0.21116 0.9748 0.4486 0.0
C65 C 0.18986 0.95787 0.47284 0.0
C66 C 0.13822 0.97401 0.48371 0.0
C67 C 0.10944 0.00709 0.471 0.0
C68 C 0.09642 0.05809 0.39319 0.0
C69 C 0.09515 0.09498 0.37735 0.0
C70 C 0.08975 0.08687 0.34765 0.0
C71 C 0.08505 0.04158 0.33316 0.0
C72 C 0.08585 0.00462 0.3492 0.0
C73 C 0.09107 0.01284 0.37898 0.0
P74 P 0.07947 0.96437 0.57685 0.0
H75 H 0.04839 0.91183 0.5222 0.0
H76 H 0.9589 0.88716 0.50058 0.0
H77 H 0.87501 0.96958 0.57013 0.0
H78 H 0.96523 -0.00574 0.59165 0.0
H79 H 0.1944 0.96961 0.55739 0.0
H80 H 0.25128 0.03254 0.54357 0.0
H81 H 0.10906 0.12117 0.55284 0.0
H82 H 0.05205 0.05764 0.56665 0.0
H83 H 0.01781 0.91783 0.6176 0.0
H84 H 0.12394 0.03869 0.62038 0.0
O85 O 0.11481 0.91548 0.57085 0.0
H86 H 0.0089 0.932 0.66951 0.0
H87 H 0.11452 0.05345 0.67219 0.0
C88 C 0.01344 0.9539 0.55885 0.0
C89 C 0.0108 0.9253 0.53254 0.0
C90 C 0.95944 0.91143 0.5201 0.0
C91 C 0.90959 0.92597 0.53378 0.0
C92 C 0.91257 0.95714 0.55929 0.0
C93 C 0.96414 0.97128 0.57161 0.0
C94 C 0.11893 0.00898 0.56295 0.0
C95 C 0.17514 0.00233 0.55606 0.0
C96 C 0.20765 0.03833 0.54806 0.0
C97 C 0.18477 0.08192 0.54732 0.0
C98 C 0.12798 0.0881 0.55353 0.0
C99 C 0.0953 0.05183 0.56124 0.0
C100 C 0.07074 0.97751 0.615 0.0
C101 C 0.03861 0.94776 0.62935 0.0
C102 C 0.03344 0.95599 0.65904 0.0
C103 C 0.06084 -0.00601 0.67505 0.0
C104 C 0.09324 0.02369 0.66056 0.0
C105 C 0.09823 0.01546 0.63081 0.0
P106 P 0.58411 0.56097 0.93141 0.0
H107 H 0.53234 0.57123 0.98783 0.0
H108 H 0.4434 0.60359 0.00492 0.0
H109 H 0.39435 0.61088 0.91783 0.0
H110 H 0.48154 0.57756 0.9011 0.0
H111 H 0.69293 0.5583 0.95844 0.0
H112 H 0.73941 0.50041 0.9816 0.0
H113 H 0.59535 0.40996 0.96577 0.0
H114 H 0.54796 0.46936 0.94382 0.0
H115 H 0.60181 0.61789 0.88645 0.0
H116 H 0.56604 0.47456 0.89158 0.0
O117 O 0.6192 0.61062 0.94034 0.0
H118 H 0.5944 0.6027 0.83464 0.0
H119 H 0.5581 0.45906 0.83944 0.0
C120 C 0.51372 0.5717 0.94319 0.0
C121 C 0.50153 0.57832 0.97242 0.0
C122 C 0.4508 0.59722 0.98216 0.0
C123 C 0.41171 0.61041 0.9628 0.0
C124 C 0.42281 0.6007 0.93342 0.0
C125 C 0.47328 0.58174 0.92375 0.0
C126 C 0.61701 0.51805 0.94924 0.0
C127 C 0.67105 0.52619 0.96013 0.0
C128 C 0.69786 0.49282 0.97324 0.0
C129 C 0.67153 0.45017 0.97535 0.0
C130 C 0.61684 0.44249 0.9648 0.0
C131 C 0.5898 0.47622 0.95196 0.0
C132 C 0.5858 0.54718 0.89296 0.0
C133 C 0.59324 0.58291 0.87642 0.0
C134 C 0.58822 0.5743 0.84673 0.0
C135 C 0.57533 0.5297 0.83283 0.0
C136 C 0.56856 0.49372 0.84944 0.0
C137 C 0.57328 0.5025 0.87927 0.0
P138 P 0.58145 0.47056 0.0762 0.0
H139 H 0.54939 0.43534 0.01792 0.0
H140 H 0.46071 0.40842 -0.0037 0.0
H141 H 0.37679 0.46239 0.07438 0.0
H142 H 0.46627 0.48746 0.0961 0.0
H143 H 0.70047 0.48691 0.07665 0.0
H144 H 0.75942 0.54814 0.0622 0.0
H145 H 0.61399 0.6137 0.03408 0.0
H146 H 0.55523 0.55161 0.04828 0.0
H147 H 0.558 0.40955 0.11817 0.0
H148 H 0.58798 0.55514 0.11849 0.0
O149 O 0.61504 0.42107 0.06841 0.0
H150 H 0.54931 0.42196 0.17003 0.0
H151 H 0.57853 0.56808 0.17058 0.0
C152 C 0.51465 0.46223 0.05878 0.0
C153 C 0.5118 0.4419 0.03021 0.0
C154 C 0.46074 0.42688 0.0178 0.0
C155 C 0.41127 0.43237 0.03373 0.0
C156 C 0.41404 0.4564 0.06169 0.0
C157 C 0.4653 0.47106 0.07413 0.0
C158 C 0.62363 0.51466 0.06342 0.0
C159 C 0.68132 0.51426 0.06714 0.0
C160 C 0.71494 0.54949 0.05905 0.0
C161 C 0.69145 0.58612 0.04724 0.0
C162 C 0.63349 0.58586 0.04295 0.0
C163 C 0.59979 0.5505 0.05115 0.0
C164 C 0.57451 0.48125 0.11452 0.0
C165 C 0.56276 0.44424 0.12945 0.0
C166 C 0.5574 0.45148 0.15913 0.0
C167 C 0.56333 0.49605 0.17456 0.0
C168 C 0.57455 0.53325 0.15943 0.0
C169 C 0.57976 0.52592 0.12963 0.0
C170 C 0.18414 0.16457 0.97483 0.0
C171 C 0.13987 0.15062 0.99107 0.0
C172 C 0.19789 0.21124 0.9757 0.0
C173 C 0.16781 0.24509 0.99316 0.0
C174 C 0.12025 0.23115 0.00725 0.0
C175 C 0.10618 0.18424 0.00611 0.0
C176 C 0.1911 0.29268 0.00151 0.0
C177 C 0.23185 0.31133 0.98697 0.0
C178 C 0.26964 0.34956 -8e-05 0.0
C179 C 0.28006 0.35766 0.02949 0.0
C180 C 0.32399 0.38669 0.04054 0.0
C181 C 0.35876 0.40849 0.0224 0.0
H182 H 0.2955 0.36764 0.95911 0.0
C183 C 0.34609 0.40267 0.99306 0.0
C184 C 0.30233 0.3733 0.98197 0.0
H185 H 0.37124 0.41948 0.97846 0.0
H186 H 0.21111 0.13914 0.96337 0.0
H187 H 0.23525 0.21989 0.9648 0.0
H188 H 0.09641 0.25631 0.02095 0.0
H189 H 0.07264 0.17426 0.01933 0.0
H190 H 0.17799 0.31088 0.02194 0.0
H191 H 0.24132 0.29574 0.96536 0.0
H192 H 0.25707 0.33924 0.04409 0.0
H193 H 0.33279 0.38947 0.06315 0.0
C194 C 0.19119 0.88379 0.97083 0.0
C195 C 0.13692 0.89397 0.98039 0.0
C196 C 0.21062 0.839 0.96838 0.0
C197 C 0.17636 0.80299 0.97537 0.0
C198 C 0.12065 0.81209 0.98268 0.0
C199 C 0.10105 0.85745 0.98537 0.0
C200 C 0.2 0.75656 0.97566 0.0
C201 C 0.25039 0.75252 0.98747 0.0
C202 C 0.28401 0.71001 0.98458 0.0
C203 C 0.33234 0.71069 0.00129 0.0
C204 C 0.37184 0.67637 -0.00444 0.0
C205 C 0.36409 0.64028 0.97288 0.0
H206 H 0.2375 0.67027 0.94981 0.0
C207 C 0.31361 0.63753 0.95757 0.0
C208 C 0.274 0.6721 0.96328 0.0
H209 H 0.30585 0.60982 0.94024 0.0
H210 H 0.21967 0.91084 0.96625 0.0
H211 H 0.25317 0.83272 0.96168 0.0
H212 H 0.09322 0.78464 0.98768 0.0
H213 H 0.05896 0.86418 0.99267 0.0
H214 H 0.1763 0.72644 0.96609 0.0
H215 H 0.27001 0.78349 -0.00104 0.0
H216 H 0.34124 0.73942 0.01785 0.0
H217 H 0.41024 0.68015 0.00766 0.0
C218 C 0.91784 0.86188 0.00051 0.0
C219 C 0.91065 0.90199 0.02006 0.0
C220 C 0.90304 0.81869 0.00785 0.0
C221 C 0.88043 0.81509 0.03487 0.0
C222 C 0.87828 0.85489 0.05524 0.0
C223 C 0.89257 0.89815 0.04777 0.0
C224 C 0.85496 0.77132 0.04174 0.0
C225 C 0.82742 0.74134 0.02203 0.0
C226 C 0.79418 0.70082 0.02879 0.0
C227 C 0.75194 0.68227 0.00978 0.0
C228 C 0.71864 0.64508 0.01563 0.0
C229 C 0.72721 0.6252 0.04056 0.0
H230 H 0.83628 0.69268 0.06837 0.0
C231 C 0.77017 0.64317 0.05932 0.0
C232 C 0.80336 0.68039 0.0535 0.0
H233 H 0.77771 0.62889 0.07882 0.0
H234 H 0.93094 0.86426 0.97886 0.0
H235 H 0.90697 0.78852 0.99194 0.0
H236 H 0.86162 0.85301 0.07631 0.0
H237 H 0.88565 0.92881 0.06296 0.0
H238 H 0.85322 0.76678 0.06407 0.0
H239 H 0.82511 0.74883 0.00023 0.0
H240 H 0.74416 0.69698 0.99044 0.0
H241 H 0.68645 0.6317 0.00053 0.0
C242 C 0.85312 0.16794 0.03389 0.0
C243 C 0.90448 0.15558 0.02126 0.0
C244 C 0.83286 0.21236 0.0341 0.0
C245 C 0.86307 0.24531 0.02109 0.0
C246 C 0.91649 0.23401 0.01056 0.0
C247 C 0.93704 0.18955 0.01061 0.0
C248 C 0.83913 0.29045 0.01661 0.0
C249 C 0.78384 0.29755 0.01559 0.0
C250 C 0.75808 0.33966 0.00729 0.0
C251 C 0.70177 0.34758 0.0137 0.0
C252 C 0.67403 0.38389 0.00395 0.0
C253 C 0.70183 0.41327 0.98738 0.0
H254 H 0.82921 0.3642 0.98499 0.0
C255 C 0.75856 0.40595 0.98142 0.0
C256 C 0.78635 0.3696 0.99118 0.0
H257 H 0.78115 0.42725 0.96824 0.0
H258 H 0.82746 0.14261 0.04265 0.0
H259 H 0.79286 0.22006 0.04382 0.0
H260 H 0.94117 0.25883 0.0008 0.0
H261 H 0.97654 0.18093 0.0005 0.0
H262 H 0.86809 0.31728 0.01209 0.0
H263 H 0.75503 0.27053 0.01993 0.0
H264 H 0.67874 0.32508 0.02596 0.0
H265 H 0.63062 0.3886 0.00923 0.0
C266 C 0.67603 0.66352 0.4809 0.0
C267 C 0.62963 0.6507 0.49606 0.0
C268 C 0.69113 0.70987 0.48165 0.0
C269 C 0.66031 0.7446 0.49791 0.0
C270 C 0.61123 0.73179 0.51119 0.0
C271 C 0.59569 0.68514 0.51008 0.0
C272 C 0.68394 0.7922 0.50561 0.0
C273 C 0.72436 0.80986 0.49037 0.0
C274 C 0.76343 0.84802 0.50213 0.0
C275 C 0.79957 0.86661 0.48324 0.0
C276 C 0.84502 0.89462 0.49349 0.0
C277 C 0.85558 0.90459 0.52294 0.0
H278 H 0.74581 0.84676 0.54713 0.0
C279 C 0.81718 0.88883 0.54193 0.0
C280 C 0.77173 0.86078 0.53169 0.0
H281 H 0.82429 0.89539 0.56474 0.0
H282 H 0.70314 0.63746 0.4702 0.0
H283 H 0.72978 0.71764 0.47155 0.0
H284 H 0.58686 0.75767 0.52401 0.0
H285 H 0.56024 0.67599 0.52236 0.0
H286 H 0.67121 0.81112 0.52588 0.0
H287 H 0.73287 0.79297 0.46893 0.0
H288 H 0.79437 0.85749 0.46039 0.0
H289 H 0.87328 0.90681 0.47828 0.0
C290 C 0.67613 0.38441 0.46257 0.0
C291 C 0.62894 0.39397 0.47966 0.0
C292 C 0.69943 0.34074 0.45922 0.0
C293 C 0.6763 0.30548 0.47308 0.0
C294 C 0.62775 0.31445 0.48928 0.0
C295 C 0.60376 0.35819 0.49225 0.0
C296 C 0.70609 0.26146 0.47354 0.0
C297 C 0.73874 0.24316 0.45188 0.0
C298 C 0.77888 0.20561 0.45367 0.0
C299 C 0.7989 0.18112 0.4282 0.0
C300 C 0.8434 0.15124 0.42846 0.0
C301 C 0.86955 0.14547 0.45426 0.0
H302 H 0.78959 0.21691 0.49975 0.0
C303 C 0.84795 0.16834 0.47993 0.0
C304 C 0.80302 0.19805 0.47968 0.0
H305 H 0.86704 0.16451 0.50016 0.0
H306 H 0.69657 0.41138 0.45272 0.0
H307 H 0.73754 0.33572 0.44715 0.0
H308 H 0.60935 0.28804 0.50037 0.0
H309 H 0.56768 0.36475 0.50579 0.0
H310 H 0.70252 0.24492 0.4926 0.0
H311 H 0.73769 0.2575 0.43194 0.0
H312 H 0.78151 0.18655 0.40784 0.0
H313 H 0.85938 0.1348 0.40824 0.0
C314 C 0.41971 0.35642 0.50685 0.0
C315 C 0.40183 0.39807 0.52211 0.0
C316 C 0.40472 0.31437 0.51584 0.0
C317 C 0.37127 0.31357 0.54019 0.0
C318 C 0.35851 0.35556 0.55693 0.0
C319 C 0.37303 0.39748 0.54777 0.0
C320 C 0.34452 0.27048 0.54739 0.0
C321 C 0.32974 0.23464 0.52746 0.0
C322 C 0.29326 0.19555 0.53348 0.0
C323 C 0.29594 0.15306 0.5156 0.0
C324 C 0.26052 0.11622 0.51988 0.0
C325 C 0.22094 0.12137 0.54186 0.0
H326 H 0.24828 0.23341 0.56889 0.0
C327 C 0.21749 0.16413 0.5594 0.0
C328 C 0.25317 0.20081 0.55529 0.0
H329 H 0.18762 0.1691 0.57662 0.0
H330 H 0.44135 0.35618 0.48676 0.0
H331 H 0.4171 0.28273 0.50296 0.0
H332 H 0.33337 0.356 0.57594 0.0
H333 H 0.35796 0.42926 0.55955 0.0
H334 H 0.33155 0.27046 0.56935 0.0
H335 H 0.34274 0.23441 0.50549 0.0
H336 H 0.32568 0.14828 0.49831 0.0
H337 H 0.26376 0.0838 0.50583 0.0
C338 C 0.41178 0.68332 0.51457 0.0
C339 C 0.37928 0.64429 0.51828 0.0
C340 C 0.38773 0.72707 0.51709 0.0
C341 C 0.3307 0.73248 0.52353 0.0
C342 C 0.29971 0.69382 0.52925 0.0
C343 C 0.32346 0.65034 0.52646 0.0
C344 C 0.30059 0.77656 0.52311 0.0
C345 C 0.31844 0.81094 0.50901 0.0
C346 C 0.28379 0.85088 0.50405 0.0
C347 C 0.31054 0.89019 0.49626 0.0
C348 C 0.27993 0.92587 0.4876 0.0
C349 C 0.22156 0.92296 0.48605 0.0
H350 H 0.20262 0.81906 0.50923 0.0
C351 C 0.19446 0.88474 0.49521 0.0
C352 C 0.22515 0.849 0.504 0.0
H353 H 0.1496 0.88122 0.49417 0.0
H354 H 0.45492 0.67974 0.50828 0.0
H355 H 0.41376 0.75611 0.51341 0.0
H356 H 0.25604 0.69678 0.53462 0.0
H357 H 0.29738 0.62102 0.52976 0.0
H358 H 0.25992 0.77895 0.53304 0.0
H359 H 0.35933 0.80918 0.49934 0.0
H360 H 0.35551 0.89282 0.49616 0.0
H361 H 0.30221 0.95531 0.48139 0.0
C362 C 0.11115 0.03025 0.11952 0.0
C363 C 0.06495 0.0304 0.10129 0.0
C364 C 0.10422 0.03032 0.14878 0.0
C365 C 0.05077 0.03029 0.16076 0.0
C366 C 0.00448 0.03089 0.14267 0.0
C367 C 0.01141 0.0306 0.1132 0.0
C368 C 0.04261 0.03229 0.19214 0.0
C369 C 0.07975 0.01541 0.20921 0.0
C370 C 0.07613 0.02053 0.24095 0.0
C371 C 0.10833 -0.00819 0.25554 0.0
C372 C 0.11014 -0.00215 0.28538 0.0
C373 C 0.08016 0.03317 0.30144 0.0
H374 H 0.02074 0.07892 0.24674 0.0
C375 C 0.04714 0.06149 0.28688 0.0
C376 C 0.04515 0.05533 0.25701 0.0
H377 H 0.02311 0.08877 0.29859 0.0
H378 H 0.15309 0.03041 0.11124 0.0
H379 H 0.14107 0.03154 0.16199 0.0
H380 H 0.96282 0.03145 0.15134 0.0
H381 H 0.97492 0.03089 0.09983 0.0
H382 H 0.00461 0.04744 0.20115 0.0
H383 H 0.11486 -0.00359 0.19952 0.0
H384 H 0.13304 0.96498 0.2438 0.0
H385 H 0.13651 0.97576 0.29584 0.0
C386 C 0.03336 0.02276 0.89342 0.0
C387 C 0.98115 0.01144 0.90416 0.0
C388 C 0.04218 0.01915 0.86385 0.0
C389 C -0.0011 0.00388 0.84451 0.0
C390 C 0.94715 -0.00769 0.85538 0.0
C391 C 0.93825 -0.00372 0.8847 0.0
C392 C 0.0054 -0.00211 0.81292 0.0
C393 C 0.04432 0.01947 0.79884 0.0
C394 C 0.04731 0.01374 0.76704 0.0
C395 C 0.09823 0.0215 0.75387 0.0
C396 C 0.10264 0.0156 0.72408 0.0
C397 C 0.05603 0.00208 0.70673 0.0
H398 H 0.95965 -0.00262 0.75873 0.0
C399 C 0.00473 -0.00434 0.7199 0.0
C400 C 0.00028 0.00165 0.74963 0.0
H401 H 0.9677 -0.01357 0.7072 0.0
H402 H 0.06737 0.03434 0.90782 0.0
H403 H 0.08307 0.02745 0.85637 0.0
H404 H 0.91311 0.98023 0.84109 0.0
H405 H 0.89754 -0.01306 0.89205 0.0
H406 H 0.97528 0.97504 0.80074 0.0
H407 H 0.07541 0.04167 0.81074 0.0
H408 H 0.13499 0.03137 0.76667 0.0
H409 H 0.14287 0.02067 0.71465 0.0
C410 C 0.59574 0.51601 0.61869 0.0
C411 C 0.5497 0.52183 0.60128 0.0
C412 C 0.58947 0.51547 0.64797 0.0
C413 C 0.53683 0.52058 0.66077 0.0
C414 C 0.49072 0.52651 0.64346 0.0
C415 C 0.49696 0.52677 0.61399 0.0
C416 C 0.52967 0.52292 0.69227 0.0
C417 C 0.56458 0.50267 0.70889 0.0
C418 C 0.56214 0.50833 0.74071 0.0
C419 C 0.58938 0.47635 0.75512 0.0
C420 C 0.59239 0.4825 0.78497 0.0
C421 C 0.56882 0.52122 0.80118 0.0
H422 H 0.51707 0.5726 0.74684 0.0
C423 C 0.54069 0.55284 0.7868 0.0
C424 C 0.53739 0.54655 0.75697 0.0
H425 H 0.52159 0.58282 0.79864 0.0
H426 H 0.63712 0.5123 0.60977 0.0
H427 H 0.62639 0.51236 0.66055 0.0
H428 H 0.44974 0.53105 0.65276 0.0
H429 H 0.46063 0.53146 0.60128 0.0
H430 H 0.4942 0.54151 0.70182 0.0
H431 H 0.59671 0.48049 0.69881 0.0
H432 H 0.60927 0.44679 0.74322 0.0
H433 H 0.61478 0.45771 0.79531 0.0
C434 C 0.53008 0.52628 0.3933 0.0
C435 C 0.48558 0.50056 0.40273 0.0
C436 C 0.54259 0.52267 0.36403 0.0
C437 C 0.51128 0.49265 0.34386 0.0
C438 C 0.46808 0.46618 0.35358 0.0
C439 C 0.45504 0.47038 0.38248 0.0
C440 C 0.52192 0.48675 0.31258 0.0
C441 C 0.54441 0.51938 0.2984 0.0
C442 C 0.54832 0.51344 0.26657 0.0
C443 C 0.58872 0.53864 0.25352 0.0
C444 C 0.59337 0.53354 0.22371 0.0
C445 C 0.55741 0.50329 0.20624 0.0
H446 H 0.47772 0.46591 0.25793 0.0
C447 C 0.51594 0.47919 0.2193 0.0
C448 C 0.51123 0.48432 0.24899 0.0
H449 H 0.48652 0.45661 0.20653 0.0
H450 H 0.55451 0.54967 0.40842 0.0
H451 H 0.57702 0.54288 0.3574 0.0
H452 H 0.44355 0.44251 0.33864 0.0
H453 H 0.42093 0.4496 0.38897 0.0
H454 H 0.50758 0.45434 0.30057 0.0
H455 H 0.55994 0.55156 0.31022 0.0
H456 H 0.61733 0.56183 0.26643 0.0
H457 H 0.62588 0.55258 0.21437 0.0
loop_
_geom_bond_atom_site_label_1
_geom_bond_atom_site_label_2
_geom_bond_distance
_geom_bond_site_symmetry_2
_ccdc_geom_bond_type
O0 Mg1 1.990 . S
O0 C14 1.253 . S
Mg1 O0 1.990 . S
Mg1 O4 2.180 . S
Mg1 O5 2.117 . S
Mg1 O19 2.030 1_545 S
O2 Mg3 2.072 . S
O2 C14 1.260 . S
Mg3 O2 2.072 . S
Mg3 O4 2.099 . S
Mg3 O6 2.079 1_554 S
Mg3 O7 2.072 . S
Mg3 O9 2.099 1_444 S
Mg3 O20 2.079 1_544 S
O4 Mg1 2.180 . S
O4 Mg3 2.099 . S
O4 C15 1.279 . S
O5 Mg1 2.117 . S
O5 C15 1.250 . S
O6 Mg3 2.079 1_556 S
O6 C16 1.264 . S
O7 Mg3 2.072 . S
O7 C17 1.260 1_455 S
Mg8 O9 2.180 1_545 S
Mg8 O10 2.030 . S
Mg8 O11 1.990 . S
Mg8 O12 2.127 1_545 S
O9 Mg3 2.099 1_666 S
O9 Mg8 2.180 1_565 S
O9 C18 1.279 1_556 S
O10 Mg8 2.030 . S
O10 C16 1.248 1_655 S
O11 Mg8 1.990 . S
O11 C17 1.253 1_556 S
O12 Mg8 2.127 1_565 S
O12 C18 1.247 1_556 S
C13 O19 1.248 . S
C13 O20 1.263 1_554 S
C14 O0 1.253 . S
C14 O2 1.260 . S
C15 O4 1.279 . S
C15 O5 1.250 . S
C16 O6 1.264 . S
C16 O10 1.248 1_455 S
C17 O7 1.260 1_655 S
C17 O11 1.253 1_554 S
C18 O9 1.279 1_554 S
C18 O12 1.247 1_554 S
O19 Mg1 2.030 1_565 S
O19 C13 1.248 . S
O20 Mg3 2.079 1_566 S
O20 C13 1.263 1_556 S
O21 Mg22 1.990 . S
O21 C35 1.253 . S
Mg22 O21 1.990 . S
Mg22 O25 2.180 . S
Mg22 O26 2.117 . S
Mg22 O40 2.030 . S
O23 Mg24 2.072 . S
O23 C35 1.260 . S
Mg24 O23 2.072 . S
Mg24 O25 2.099 . S
Mg24 O27 2.079 . S
Mg24 O28 2.072 . S
Mg24 O30 2.099 . S
Mg24 O41 2.079 . S
O25 Mg22 2.180 . S
O25 Mg24 2.099 . S
O25 C36 1.279 . S
O26 Mg22 2.117 . S
O26 C36 1.250 . S
O27 Mg24 2.079 . S
O27 C37 1.264 . S
O28 Mg24 2.072 . S
O28 C38 1.260 . S
Mg29 O30 2.180 . S
Mg29 O31 2.030 . S
Mg29 O32 1.990 . S
Mg29 O33 2.117 . S
O30 Mg24 2.099 . S
O30 Mg29 2.180 . S
O30 C39 1.279 . S
O31 Mg29 2.030 . S
O31 C37 1.248 . S
O32 Mg29 1.990 . S
O32 C38 1.253 . S
O33 Mg29 2.117 . S
O33 C39 1.250 . S
C34 O40 1.248 . S
C34 O41 1.264 . S
C35 O21 1.253 . S
C35 O23 1.260 . S
C36 O25 1.279 . S
C36 O26 1.250 . S
C37 O27 1.264 . S
C37 O31 1.248 . S
C38 O28 1.260 . S
C38 O32 1.253 . S
C39 O30 1.279 . S
C39 O33 1.250 . S
O40 Mg22 2.030 . S
O40 C34 1.248 . S
O41 Mg24 2.079 . S
O41 C34 1.264 . S
P42 O53 1.490 . S
P42 C56 1.812 . S
P42 C62 1.803 1_545 S
P42 C68 1.819 . S
H43 C57 0.941 . S
H44 C58 0.941 . S
H45 C60 0.940 . S
H46 C61 0.940 . S
H47 C63 0.939 . S
H48 C64 0.942 . S
H49 C66 0.940 . S
H50 C67 0.939 . S
H51 C69 0.941 . S
H52 C73 0.939 . S
O53 P42 1.490 . S
H54 C70 0.939 . S
H55 C72 0.940 . S
C56 P42 1.812 . S
C56 C57 1.389 . S
C56 C61 1.391 1_455 S
C57 H43 0.941 . S
C57 C56 1.389 . S
C57 C58 1.411 . S
C58 H44 0.941 . S
C58 C57 1.411 . S
C58 C59 1.362 1_455 S
C59 C58 1.362 1_655 S
C59 C60 1.378 . S
C60 H45 0.940 . S
C60 C59 1.378 . S
C60 C61 1.396 . S
C61 H46 0.940 . S
C61 C56 1.391 1_655 S
C61 C60 1.396 . S
C62 P42 1.803 1_565 S
C62 C63 1.378 . S
C62 C67 1.400 . S
C63 H47 0.939 . S
C63 C62 1.378 . S
C63 C64 1.361 . S
C64 H48 0.942 . S
C64 C63 1.361 . S
C64 C65 1.369 . S
C65 C64 1.369 . S
C65 C66 1.404 . S
C66 H49 0.940 . S
C66 C65 1.404 . S
C66 C67 1.389 . S
C67 H50 0.939 . S
C67 C62 1.400 . S
C67 C66 1.389 . S
C68 P42 1.819 . S
C68 C69 1.391 . S
C68 C73 1.391 1_545 S
C69 H51 0.941 . S
C69 C68 1.391 . S
C69 C70 1.396 . S
C70 H54 0.939 . S
C70 C69 1.396 . S
C70 C71 1.397 . S
C71 C70 1.397 . S
C71 C72 1.385 1_545 S
C72 H55 0.940 . S
C72 C71 1.385 1_565 S
C72 C73 1.388 . S
C73 H52 0.939 . S
C73 C68 1.391 1_565 S
C73 C72 1.388 . S
P74 O85 1.490 1_545 S
P74 C88 1.805 1_455 S
P74 C94 1.803 . S
P74 C100 1.819 . S
H75 C89 0.941 . S
H76 C90 0.939 . S
H77 C92 0.941 . S
H78 C93 0.940 . S
H79 C95 0.939 . S
H80 C96 0.942 . S
H81 C98 0.940 . S
H82 C99 0.955 . S
H83 C101 0.941 1_565 S
H84 C105 0.939 . S
O85 P74 1.490 1_565 S
H86 C102 0.939 . S
H87 C104 0.940 . S
C88 P74 1.805 1_655 S
C88 C89 1.388 1_645 S
C88 C93 1.398 . S
C89 H75 0.941 . S
C89 C88 1.388 1_465 S
C89 C90 1.397 1_455 S
C90 H76 0.939 . S
C90 C89 1.397 1_655 S
C90 C91 1.378 . S
C91 C90 1.378 . S
C91 C92 1.376 1_565 S
C92 H77 0.941 . S
C92 C91 1.376 1_545 S
C92 C93 1.397 . S
C93 H78 0.940 . S
C93 C88 1.398 . S
C93 C92 1.397 . S
C94 P74 1.803 . S
C94 C95 1.378 . S
C94 C99 1.400 . S
C95 H79 0.939 . S
C95 C94 1.378 . S
C95 C96 1.361 . S
C96 H80 0.942 . S
C96 C95 1.361 . S
C96 C97 1.369 . S
C97 C96 1.369 . S
C97 C98 1.404 . S
C98 H81 0.940 . S
C98 C97 1.404 . S
C98 C99 1.389 . S
C99 H82 0.955 . S
C99 C94 1.400 . S
C99 C98 1.389 . S
C100 P74 1.819 . S
C100 C101 1.391 . S
C100 C105 1.391 . S
C101 H83 0.941 1_545 S
C101 C100 1.391 . S
C101 C102 1.396 . S
C102 H86 0.939 . S
C102 C101 1.396 . S
C102 C103 1.397 . S
C103 C102 1.397 . S
C103 C104 1.385 . S
C104 H87 0.940 . S
C104 C103 1.385 . S
C104 C105 1.388 . S
C105 H84 0.939 . S
C105 C100 1.391 . S
C105 C104 1.388 . S
P106 O117 1.490 . S
P106 C120 1.812 . S
P106 C126 1.803 . S
P106 C132 1.819 . S
H107 C121 0.941 . S
H108 C122 0.939 . S
H109 C124 0.940 . S
H110 C125 0.940 . S
H111 C127 0.939 . S
H112 C128 0.942 . S
H113 C130 0.940 . S
H114 C131 0.939 . S
H115 C133 0.941 . S
H116 C137 0.939 . S
O117 P106 1.490 . S
H118 C134 0.939 . S
H119 C136 0.940 . S
C120 P106 1.812 . S
C120 C121 1.389 . S
C120 C125 1.391 . S
C121 H107 0.941 . S
C121 C120 1.389 . S
C121 C122 1.397 . S
C122 H108 0.939 . S
C122 C121 1.397 . S
C122 C123 1.378 . S
C123 C122 1.378 . S
C123 C124 1.378 . S
C124 H109 0.940 . S
C124 C123 1.378 . S
C124 C125 1.396 . S
C125 H110 0.940 . S
C125 C120 1.391 . S
C125 C124 1.396 . S
C126 P106 1.803 . S
C126 C127 1.378 . S
C126 C131 1.400 . S
C127 H111 0.939 . S
C127 C126 1.378 . S
C127 C128 1.361 . S
C128 H112 0.942 . S
C128 C127 1.361 . S
C128 C129 1.369 . S
C129 C128 1.369 . S
C129 C130 1.404 . S
C130 H113 0.940 . S
C130 C129 1.404 . S
C130 C131 1.389 . S
C131 H114 0.939 . S
C131 C126 1.400 . S
C131 C130 1.389 . S
C132 P106 1.819 . S
C132 C133 1.391 . S
C132 C137 1.391 . S
C133 H115 0.941 . S
C133 C132 1.391 . S
C133 C134 1.396 . S
C134 H118 0.939 . S
C134 C133 1.396 . S
C134 C135 1.397 . S
C135 C134 1.397 . S
C135 C136 1.385 . S
C136 H119 0.940 . S
C136 C135 1.385 . S
C136 C137 1.388 . S
C137 H116 0.939 . S
C137 C132 1.391 . S
C137 C136 1.388 . S
P138 O149 1.490 . S
P138 C152 1.812 . S
P138 C158 1.803 . S
P138 C164 1.819 . S
H139 C153 0.941 . S
H140 C154 0.939 . S
H141 C156 0.940 . S
H142 C157 0.940 . S
H143 C159 0.939 . S
H144 C160 0.942 . S
H145 C162 0.940 . S
H146 C163 0.939 . S
H147 C165 0.941 . S
H148 C169 0.939 . S
O149 P138 1.490 . S
H150 C166 0.939 . S
H151 C168 0.940 . S
C152 P138 1.812 . S
C152 C153 1.389 . S
C152 C157 1.391 . S
C153 H139 0.941 . S
C153 C152 1.389 . S
C153 C154 1.397 . S
C154 H140 0.939 . S
C154 C153 1.397 . S
C154 C155 1.378 . S
C155 C154 1.378 . S
C155 C156 1.378 . S
C156 H141 0.940 . S
C156 C155 1.378 . S
C156 C157 1.396 . S
C157 H142 0.940 . S
C157 C152 1.391 . S
C157 C156 1.396 . S
C158 P138 1.803 . S
C158 C159 1.378 . S
C158 C163 1.400 . S
C159 H143 0.939 . S
C159 C158 1.378 . S
C159 C160 1.361 . S
C160 H144 0.942 . S
C160 C159 1.361 . S
C160 C161 1.369 . S
C161 C160 1.369 . S
C161 C162 1.404 . S
C162 H145 0.940 . S
C162 C161 1.404 . S
C162 C163 1.389 . S
C163 H146 0.939 . S
C163 C158 1.400 . S
C163 C162 1.389 . S
C164 P138 1.819 . S
C164 C165 1.391 . S
C164 C169 1.391 . S
C165 H147 0.941 . S
C165 C164 1.391 . S
C165 C166 1.396 . S
C166 H150 0.939 . S
C166 C165 1.396 . S
C166 C167 1.397 . S
C167 C166 1.397 . S
C167 C168 1.385 . S
C168 H151 0.940 . S
C168 C167 1.385 . S
C168 C169 1.388 . S
C169 H148 0.939 . S
C169 C164 1.391 . S
C169 C168 1.388 . S
C170 C171 1.386 . S
C170 C172 1.383 . S
C170 H186 0.951 . S
C171 C170 1.386 . S
C171 C175 1.383 1_554 S
C172 C170 1.383 . S
C172 C173 1.402 . S
C172 H187 0.951 . S
C173 C172 1.402 . S
C173 C174 1.375 1_554 S
C173 C176 1.481 . S
C174 C173 1.375 1_556 S
C174 C175 1.367 . S
C174 H188 0.951 . S
C175 C171 1.383 1_556 S
C175 C174 1.367 . S
C175 H189 0.950 . S
C176 C173 1.481 . S
C176 C177 1.297 . S
C176 H190 0.950 . S
C177 C176 1.297 . S
C177 C178 1.479 . S
C177 H191 0.950 . S
C178 C177 1.479 . S
C178 C179 1.375 . S
C178 C184 1.404 . S
C179 C178 1.375 . S
C179 C180 1.369 . S
C179 H192 0.950 . S
C180 C179 1.369 . S
C180 C181 1.392 . S
C180 H193 0.951 . S
C181 C180 1.392 . S
C181 C183 1.384 . S
H182 C184 0.949 1_556 S
C183 C181 1.384 . S
C183 C184 1.385 . S
C183 H185 0.950 . S
C184 C178 1.404 . S
C184 H182 0.949 1_554 S
C184 C183 1.385 . S
H185 C183 0.950 . S
H186 C170 0.951 . S
H187 C172 0.951 . S
H188 C174 0.951 . S
H189 C175 0.950 . S
H190 C176 0.950 . S
H191 C177 0.950 . S
H192 C179 0.950 . S
H193 C180 0.951 . S
C194 C195 1.386 . S
C194 C196 1.380 . S
C194 H210 0.951 1_554 S
C195 C194 1.386 . S
C195 C199 1.383 . S
C196 C194 1.380 . S
C196 C197 1.415 . S
C196 H211 0.942 1_554 S
C197 C196 1.415 . S
C197 C198 1.375 . S
C197 C200 1.481 . S
C198 C197 1.375 . S
C198 C199 1.367 . S
C198 H212 0.951 . S
C199 C195 1.383 . S
C199 C198 1.367 . S
C199 H213 0.950 . S
C200 C197 1.481 . S
C200 C201 1.297 . S
C200 H214 0.950 . S
C201 C200 1.297 . S
C201 C202 1.479 1_554 S
C201 H215 0.950 . S
C202 C201 1.479 1_556 S
C202 C203 1.375 . S
C202 C208 1.404 1_556 S
C203 C202 1.375 . S
C203 C204 1.369 . S
C203 H216 0.950 . S
C204 C203 1.369 . S
C204 C205 1.392 . S
C204 H217 0.951 . S
C205 C204 1.392 . S
C205 C207 1.384 . S
H206 C208 0.949 . S
C207 C205 1.384 . S
C207 C208 1.385 1_556 S
C207 H209 0.963 . S
C208 C202 1.404 1_554 S
C208 H206 0.949 . S
C208 C207 1.385 1_554 S
H209 C207 0.963 . S
H210 C194 0.951 1_556 S
H211 C196 0.942 1_556 S
H212 C198 0.951 . S
H213 C199 0.950 . S
H214 C200 0.950 . S
H215 C201 0.950 . S
H216 C203 0.950 . S
H217 C204 0.951 . S
C218 C219 1.386 1_556 S
C218 C220 1.383 1_556 S
C218 H234 0.951 . S
C219 C218 1.386 1_554 S
C219 C223 1.383 . S
C220 C218 1.383 1_554 S
C220 C221 1.402 . S
C220 H235 0.951 1_554 S
C221 C220 1.402 . S
C221 C222 1.375 . S
C221 C224 1.481 . S
C222 C221 1.375 . S
C222 C223 1.367 . S
C222 H236 0.951 . S
C223 C219 1.383 . S
C223 C222 1.367 . S
C223 H237 0.950 . S
C224 C221 1.481 . S
C224 C225 1.297 . S
C224 H238 0.950 . S
C225 C224 1.297 . S
C225 C226 1.479 . S
C225 H239 0.950 . S
C226 C225 1.479 . S
C226 C227 1.375 . S
C226 C232 1.404 . S
C227 C226 1.375 . S
C227 C228 1.369 . S
C227 H240 0.950 1_554 S
C228 C227 1.369 . S
C228 C229 1.392 . S
C228 H241 0.951 . S
C229 C228 1.392 . S
C229 C231 1.384 . S
H230 C232 0.949 . S
C231 C229 1.384 . S
C231 C232 1.385 . S
C231 H233 0.950 . S
C232 C226 1.404 . S
C232 H230 0.949 . S
C232 C231 1.385 . S
H233 C231 0.950 . S
H234 C218 0.951 . S
H235 C220 0.951 1_556 S
H236 C222 0.951 . S
H237 C223 0.950 . S
H238 C224 0.950 . S
H239 C225 0.950 . S
H240 C227 0.950 1_556 S
H241 C228 0.951 . S
C242 C243 1.386 . S
C242 C244 1.383 . S
C242 H258 0.951 . S
C243 C242 1.386 . S
C243 C247 1.383 1_554 S
C244 C242 1.383 . S
C244 C245 1.402 1_554 S
C244 H259 0.951 . S
C245 C244 1.402 1_556 S
C245 C246 1.375 . S
C245 C248 1.481 . S
C246 C245 1.375 . S
C246 C247 1.367 . S
C246 H260 0.951 . S
C247 C243 1.383 1_556 S
C247 C246 1.367 . S
C247 H261 0.950 . S
C248 C245 1.481 . S
C248 C249 1.297 . S
C248 H262 0.950 . S
C249 C248 1.297 . S
C249 C250 1.479 . S
C249 H263 0.950 1_556 S
C250 C249 1.479 . S
C250 C251 1.375 1_556 S
C250 C256 1.404 . S
C251 C250 1.375 1_554 S
C251 C252 1.377 . S
C251 H264 0.950 . S
C252 C251 1.377 . S
C252 C253 1.364 1_554 S
C252 H265 0.971 . S
C253 C252 1.364 1_556 S
C253 C255 1.384 . S
H254 C256 0.949 . S
C255 C253 1.384 . S
C255 C256 1.385 . S
C255 H257 0.950 . S
C256 C250 1.404 . S
C256 H254 0.949 . S
C256 C255 1.385 . S
H257 C255 0.950 . S
H258 C242 0.951 . S
H259 C244 0.951 . S
H260 C246 0.951 . S
H261 C247 0.950 . S
H262 C248 0.950 . S
H263 C249 0.950 1_554 S
H264 C251 0.950 . S
H265 C252 0.971 . S
C266 C267 1.386 . S
C266 C268 1.383 . S
C266 H282 0.951 . S
C267 C266 1.386 . S
C267 C271 1.383 . S
C268 C266 1.383 . S
C268 C269 1.402 . S
C268 H283 0.951 . S
C269 C268 1.402 . S
C269 C270 1.375 . S
C269 C272 1.481 . S
C270 C269 1.375 . S
C270 C271 1.367 . S
C270 H284 0.951 . S
C271 C267 1.383 . S
C271 C270 1.367 . S
C271 H285 0.950 . S
C272 C269 1.481 . S
C272 C273 1.297 . S
C272 H286 0.950 . S
C273 C272 1.297 . S
C273 C274 1.479 . S
C273 H287 0.950 . S
C274 C273 1.479 . S
C274 C275 1.375 . S
C274 C280 1.404 . S
C275 C274 1.375 . S
C275 C276 1.369 . S
C275 H288 0.950 . S
C276 C275 1.369 . S
C276 C277 1.392 . S
C276 H289 0.951 . S
C277 C276 1.392 . S
C277 C279 1.384 . S
H278 C280 0.949 . S
C279 C277 1.384 . S
C279 C280 1.385 . S
C279 H281 0.950 . S
C280 C274 1.404 . S
C280 H278 0.949 . S
C280 C279 1.385 . S
H281 C279 0.950 . S
H282 C266 0.951 . S
H283 C268 0.951 . S
H284 C270 0.951 . S
H285 C271 0.950 . S
H286 C272 0.950 . S
H287 C273 0.950 . S
H288 C275 0.950 . S
H289 C276 0.951 . S
C290 C291 1.386 . S
C290 C292 1.383 . S
C290 H306 0.951 . S
C291 C290 1.386 . S
C291 C295 1.383 . S
C292 C290 1.383 . S
C292 C293 1.402 . S
C292 H307 0.951 . S
C293 C292 1.402 . S
C293 C294 1.375 . S
C293 C296 1.481 . S
C294 C293 1.375 . S
C294 C295 1.367 . S
C294 H308 0.951 . S
C295 C291 1.383 . S
C295 C294 1.367 . S
C295 H309 0.950 . S
C296 C293 1.481 . S
C296 C297 1.297 . S
C296 H310 0.950 . S
C297 C296 1.297 . S
C297 C298 1.479 . S
C297 H311 0.950 . S
C298 C297 1.479 . S
C298 C299 1.375 . S
C298 C304 1.404 . S
C299 C298 1.375 . S
C299 C300 1.369 . S
C299 H312 0.950 . S
C300 C299 1.369 . S
C300 C301 1.392 . S
C300 H313 0.951 . S
C301 C300 1.392 . S
C301 C303 1.384 . S
H302 C304 0.949 . S
C303 C301 1.384 . S
C303 C304 1.385 . S
C303 H305 0.950 . S
C304 C298 1.404 . S
C304 H302 0.949 . S
C304 C303 1.385 . S
H305 C303 0.950 . S
H306 C290 0.951 . S
H307 C292 0.951 . S
H308 C294 0.951 . S
H309 C295 0.950 . S
H310 C296 0.950 . S
H311 C297 0.950 . S
H312 C299 0.950 . S
H313 C300 0.951 . S
C314 C315 1.386 . S
C314 C316 1.383 . S
C314 H330 0.951 . S
C315 C314 1.386 . S
C315 C319 1.383 . S
C316 C314 1.383 . S
C316 C317 1.402 . S
C316 H331 0.951 . S
C317 C316 1.402 . S
C317 C318 1.375 . S
C317 C320 1.481 . S
C318 C317 1.375 . S
C318 C319 1.367 . S
C318 H332 0.951 . S
C319 C315 1.383 . S
C319 C318 1.367 . S
C319 H333 0.950 . S
C320 C317 1.481 . S
C320 C321 1.297 . S
C320 H334 0.950 . S
C321 C320 1.297 . S
C321 C322 1.479 . S
C321 H335 0.950 . S
C322 C321 1.479 . S
C322 C323 1.375 . S
C322 C328 1.404 . S
C323 C322 1.375 . S
C323 C324 1.369 . S
C323 H336 0.950 . S
C324 C323 1.369 . S
C324 C325 1.392 . S
C324 H337 0.951 . S
C325 C324 1.392 . S
C325 C327 1.384 . S
H326 C328 0.949 . S
C327 C325 1.384 . S
C327 C328 1.385 . S
C327 H329 0.950 . S
C328 C322 1.404 . S
C328 H326 0.949 . S
C328 C327 1.385 . S
H329 C327 0.950 . S
H330 C314 0.951 . S
H331 C316 0.951 . S
H332 C318 0.951 . S
H333 C319 0.950 . S
H334 C320 0.950 . S
H335 C321 0.950 . S
H336 C323 0.950 . S
H337 C324 0.951 . S
C338 C339 1.386 . S
C338 C340 1.383 . S
C338 H354 0.951 . S
C339 C338 1.386 . S
C339 C343 1.383 . S
C340 C338 1.383 . S
C340 C341 1.402 . S
C340 H355 0.951 . S
C341 C340 1.402 . S
C341 C342 1.375 . S
C341 C344 1.481 . S
C342 C341 1.375 . S
C342 C343 1.367 . S
C342 H356 0.951 . S
C343 C339 1.383 . S
C343 C342 1.367 . S
C343 H357 0.950 . S
C344 C341 1.481 . S
C344 C345 1.297 . S
C344 H358 0.950 . S
C345 C344 1.297 . S
C345 C346 1.479 . S
C345 H359 0.950 . S
C346 C345 1.479 . S
C346 C347 1.375 . S
C346 C352 1.404 . S
C347 C346 1.375 . S
C347 C348 1.369 . S
C347 H360 0.950 . S
C348 C347 1.369 . S
C348 C349 1.392 . S
C348 H361 0.951 . S
C349 C348 1.392 . S
C349 C351 1.384 . S
H350 C352 0.949 . S
C351 C349 1.384 . S
C351 C352 1.385 . S
C351 H353 0.950 . S
C352 C346 1.404 . S
C352 H350 0.949 . S
C352 C351 1.385 . S
H353 C351 0.950 . S
H354 C338 0.951 . S
H355 C340 0.951 . S
H356 C342 0.951 . S
H357 C343 0.950 . S
H358 C344 0.950 . S
H359 C345 0.950 . S
H360 C347 0.950 . S
H361 C348 0.951 . S
C362 C363 1.386 . S
C362 C364 1.383 . S
C362 H378 0.951 . S
C363 C362 1.386 . S
C363 C367 1.383 1_455 S
C364 C362 1.383 . S
C364 C365 1.402 . S
C364 H379 0.951 . S
C365 C364 1.402 . S
C365 C366 1.375 1_455 S
C365 C368 1.481 . S
C366 C365 1.375 1_655 S
C366 C367 1.367 . S
C366 H380 0.951 . S
C367 C363 1.383 1_655 S
C367 C366 1.367 . S
C367 H381 0.950 . S
C368 C365 1.481 . S
C368 C369 1.297 . S
C368 H382 0.950 1_455 S
C369 C368 1.297 . S
C369 C370 1.479 . S
C369 H383 0.950 . S
C370 C369 1.479 . S
C370 C371 1.375 . S
C370 C376 1.404 . S
C371 C370 1.375 . S
C371 C372 1.369 . S
C371 H384 0.950 . S
C372 C371 1.369 . S
C372 C373 1.392 . S
C372 H385 0.950 1_545 S
C373 C372 1.392 . S
C373 C375 1.384 . S
H374 C376 0.949 1_655 S
C375 C373 1.384 . S
C375 C376 1.385 . S
C375 H377 0.950 1_455 S
C376 C370 1.404 . S
C376 H374 0.949 1_455 S
C376 C375 1.385 . S
H377 C375 0.950 1_655 S
H378 C362 0.951 . S
H379 C364 0.951 . S
H380 C366 0.951 . S
H381 C367 0.950 . S
H382 C368 0.950 1_655 S
H383 C369 0.950 . S
H384 C371 0.950 . S
H385 C372 0.950 1_565 S
C386 C387 1.386 . S
C386 C388 1.383 . S
C386 H402 0.951 . S
C387 C386 1.386 . S
C387 C391 1.383 . S
C388 C386 1.383 . S
C388 C389 1.402 . S
C388 H403 0.951 . S
C389 C388 1.402 . S
C389 C390 1.370 1_455 S
C389 C392 1.481 . S
C390 C389 1.370 1_655 S
C390 C391 1.366 1_655 S
C390 H404 0.957 1_545 S
C391 C387 1.383 . S
C391 C390 1.366 1_455 S
C391 H405 0.950 1_445 S
C392 C389 1.481 . S
C392 C393 1.297 . S
C392 H406 0.950 1_455 S
C393 C392 1.297 . S
C393 C394 1.479 . S
C393 H407 0.950 . S
C394 C393 1.479 . S
C394 C395 1.375 . S
C394 C400 1.404 . S
C395 C394 1.375 . S
C395 C396 1.369 . S
C395 H408 0.950 . S
C396 C395 1.369 . S
C396 C397 1.392 . S
C396 H409 0.951 . S
C397 C396 1.392 . S
C397 C399 1.384 1_455 S
H398 C400 0.951 1_655 S
C399 C397 1.384 1_655 S
C399 C400 1.385 1_655 S
C399 H401 0.950 . S
C400 C394 1.404 . S
C400 H398 0.951 1_455 S
C400 C399 1.385 1_455 S
H401 C399 0.950 . S
H402 C386 0.951 . S
H403 C388 0.951 . S
H404 C390 0.957 1_565 S
H405 C391 0.950 1_665 S
H406 C392 0.950 1_655 S
H407 C393 0.950 . S
H408 C395 0.950 . S
H409 C396 0.951 . S
C410 C411 1.386 . S
C410 C412 1.383 . S
C410 H426 0.951 . S
C411 C410 1.386 . S
C411 C415 1.383 . S
C412 C410 1.383 . S
C412 C413 1.402 . S
C412 H427 0.951 . S
C413 C412 1.402 . S
C413 C414 1.375 . S
C413 C416 1.481 . S
C414 C413 1.375 . S
C414 C415 1.367 . S
C414 H428 0.951 . S
C415 C411 1.383 . S
C415 C414 1.367 . S
C415 H429 0.950 . S
C416 C413 1.481 . S
C416 C417 1.297 . S
C416 H430 0.950 . S
C417 C416 1.297 . S
C417 C418 1.479 . S
C417 H431 0.950 . S
C418 C417 1.479 . S
C418 C419 1.375 . S
C418 C424 1.404 . S
C419 C418 1.375 . S
C419 C420 1.369 . S
C419 H432 0.950 . S
C420 C419 1.369 . S
C420 C421 1.392 . S
C420 H433 0.951 . S
C421 C420 1.392 . S
C421 C423 1.384 . S
H422 C424 0.949 . S
C423 C421 1.384 . S
C423 C424 1.385 . S
C423 H425 0.950 . S
C424 C418 1.404 . S
C424 H422 0.949 . S
C424 C423 1.385 . S
H425 C423 0.950 . S
H426 C410 0.951 . S
H427 C412 0.951 . S
H428 C414 0.951 . S
H429 C415 0.950 . S
H430 C416 0.950 . S
H431 C417 0.950 . S
H432 C419 0.950 . S
H433 C420 0.951 . S
C434 C435 1.386 . S
C434 C436 1.383 . S
C434 H450 0.951 . S
C435 C434 1.386 . S
C435 C439 1.383 . S
C436 C434 1.383 . S
C436 C437 1.402 . S
C436 H451 0.951 . S
C437 C436 1.402 . S
C437 C438 1.375 . S
C437 C440 1.481 . S
C438 C437 1.375 . S
C438 C439 1.367 . S
C438 H452 0.951 . S
C439 C435 1.383 . S
C439 C438 1.367 . S
C439 H453 0.950 . S
C440 C437 1.481 . S
C440 C441 1.297 . S
C440 H454 0.950 . S
C441 C440 1.297 . S
C441 C442 1.479 . S
C441 H455 0.950 . S
C442 C441 1.479 . S
C442 C443 1.375 . S
C442 C448 1.404 . S
C443 C442 1.375 . S
C443 C444 1.369 . S
C443 H456 0.950 . S
C444 C443 1.369 . S
C444 C445 1.392 . S
C444 H457 0.951 . S
C445 C444 1.392 . S
C445 C447 1.384 . S
H446 C448 0.949 . S
C447 C445 1.384 . S
C447 C448 1.385 . S
C447 H449 0.950 . S
C448 C442 1.404 . S
C448 H446 0.949 . S
C448 C447 1.385 . S
H449 C447 0.950 . S
H450 C434 0.951 . S
H451 C436 0.951 . S
H452 C438 0.951 . S
H453 C439 0.950 . S
H454 C440 0.950 . S
H455 C441 0.950 . S
H456 C443 0.950 . S
H457 C444 0.951 . S
C181 C155 1.336 . S
C171 C15 1.282 . S
C195 C13 1.449 . S
C205 C123 1.426 . S
C219 C18 1.322 . S
C229 C161 1.355 . S
C243 C17 1.301 . S
C253 C129 1.269 . S
C267 C36 1.214 . S
C277 C91 1.404 . S
C291 C34 1.435 . S
C301 C59 1.392 . S
C325 C97 1.342 . S
C315 C39 1.291 . S
C349 C65 1.272 . S
C339 C38 1.265 . S
C363 C14 1.512 . S
C373 C71 1.483 . S
C387 C16 1.362 . S
C397 C103 1.307 . S
C421 C135 1.473 . S
C411 C35 1.488 . S
C435 C37 1.367 . S
C445 C167 1.308 . S
