# Generated by pormake.
# Topology tbo, (3,4)-cn, num edge types: 1
# Building blocks:
#     Node 0, Type 0, BuildingBlock: OLANEW_clean_sbu_2, # of connection points: 3
#     Node 1, Type 0, BuildingBlock: OLANEW_clean_sbu_2, # of connection points: 3
#     Node 2, Type 0, BuildingBlock: OLANEW_clean_sbu_2, # of connection points: 3
#     Node 3, Type 0, BuildingBlock: OLANEW_clean_sbu_2, # of connection points: 3
#     Node 4, Type 0, BuildingBlock: OLANEW_clean_sbu_2, # of connection points: 3
#     Node 5, Type 0, BuildingBlock: OLANEW_clean_sbu_2, # of connection points: 3
#     Node 6, Type 0, BuildingBlock: OLANEW_clean_sbu_2, # of connection points: 3
#     Node 7, Type 0, BuildingBlock: OLANEW_clean_sbu_2, # of connection points: 3
#     Node 8, Type 0, BuildingBlock: OLANEW_clean_sbu_2, # of connection points: 3
#     Node 9, Type 0, BuildingBlock: OLANEW_clean_sbu_2, # of connection points: 3
#     Node 10, Type 0, BuildingBlock: OLANEW_clean_sbu_2, # of connection points: 3
#     Node 11, Type 0, BuildingBlock: OLANEW_clean_sbu_2, # of connection points: 3
#     Node 12, Type 0, BuildingBlock: OLANEW_clean_sbu_2, # of connection points: 3
#     Node 13, Type 0, BuildingBlock: OLANEW_clean_sbu_2, # of connection points: 3
#     Node 14, Type 0, BuildingBlock: OLANEW_clean_sbu_2, # of connection points: 3
#     Node 15, Type 0, BuildingBlock: OLANEW_clean_sbu_2, # of connection points: 3
#     Node 16, Type 0, BuildingBlock: OLANEW_clean_sbu_2, # of connection points: 3
#     Node 17, Type 0, BuildingBlock: OLANEW_clean_sbu_2, # of connection points: 3
#     Node 18, Type 0, BuildingBlock: OLANEW_clean_sbu_2, # of connection points: 3
#     Node 19, Type 0, BuildingBlock: OLANEW_clean_sbu_2, # of connection points: 3
#     Node 20, Type 0, BuildingBlock: OLANEW_clean_sbu_2, # of connection points: 3
#     Node 21, Type 0, BuildingBlock: OLANEW_clean_sbu_2, # of connection points: 3
#     Node 22, Type 0, BuildingBlock: OLANEW_clean_sbu_2, # of connection points: 3
#     Node 23, Type 0, BuildingBlock: OLANEW_clean_sbu_2, # of connection points: 3
#     Node 24, Type 0, BuildingBlock: OLANEW_clean_sbu_2, # of connection points: 3
#     Node 25, Type 0, BuildingBlock: OLANEW_clean_sbu_2, # of connection points: 3
#     Node 26, Type 0, BuildingBlock: OLANEW_clean_sbu_2, # of connection points: 3
#     Node 27, Type 0, BuildingBlock: OLANEW_clean_sbu_2, # of connection points: 3
#     Node 28, Type 0, BuildingBlock: OLANEW_clean_sbu_2, # of connection points: 3
#     Node 29, Type 0, BuildingBlock: OLANEW_clean_sbu_2, # of connection points: 3
#     Node 30, Type 0, BuildingBlock: OLANEW_clean_sbu_2, # of connection points: 3
#     Node 31, Type 0, BuildingBlock: OLANEW_clean_sbu_2, # of connection points: 3
#     Node 32, Type 1, BuildingBlock: MIFKUJ_clean_linker_1, # of connection points: 4
#     Node 33, Type 1, BuildingBlock: MIFKUJ_clean_linker_1, # of connection points: 4
#     Node 34, Type 1, BuildingBlock: MIFKUJ_clean_linker_1, # of connection points: 4
#     Node 35, Type 1, BuildingBlock: MIFKUJ_clean_linker_1, # of connection points: 4
#     Node 36, Type 1, BuildingBlock: MIFKUJ_clean_linker_1, # of connection points: 4
#     Node 37, Type 1, BuildingBlock: MIFKUJ_clean_linker_1, # of connection points: 4
#     Node 38, Type 1, BuildingBlock: MIFKUJ_clean_linker_1, # of connection points: 4
#     Node 39, Type 1, BuildingBlock: MIFKUJ_clean_linker_1, # of connection points: 4
#     Node 40, Type 1, BuildingBlock: MIFKUJ_clean_linker_1, # of connection points: 4
#     Node 41, Type 1, BuildingBlock: MIFKUJ_clean_linker_1, # of connection points: 4
#     Node 42, Type 1, BuildingBlock: MIFKUJ_clean_linker_1, # of connection points: 4
#     Node 43, Type 1, BuildingBlock: MIFKUJ_clean_linker_1, # of connection points: 4
#     Node 44, Type 1, BuildingBlock: MIFKUJ_clean_linker_1, # of connection points: 4
#     Node 45, Type 1, BuildingBlock: MIFKUJ_clean_linker_1, # of connection points: 4
#     Node 46, Type 1, BuildingBlock: MIFKUJ_clean_linker_1, # of connection points: 4
#     Node 47, Type 1, BuildingBlock: MIFKUJ_clean_linker_1, # of connection points: 4
#     Node 48, Type 1, BuildingBlock: MIFKUJ_clean_linker_1, # of connection points: 4
#     Node 49, Type 1, BuildingBlock: MIFKUJ_clean_linker_1, # of connection points: 4
#     Node 50, Type 1, BuildingBlock: MIFKUJ_clean_linker_1, # of connection points: 4
#     Node 51, Type 1, BuildingBlock: MIFKUJ_clean_linker_1, # of connection points: 4
#     Node 52, Type 1, BuildingBlock: MIFKUJ_clean_linker_1, # of connection points: 4
#     Node 53, Type 1, BuildingBlock: MIFKUJ_clean_linker_1, # of connection points: 4
#     Node 54, Type 1, BuildingBlock: MIFKUJ_clean_linker_1, # of connection points: 4
#     Node 55, Type 1, BuildingBlock: MIFKUJ_clean_linker_1, # of connection points: 4
#     Edge 56, Type (0, 1), BuildingBlock: CIFDUS_clean_linker_0, # of connection points: 2
#     Edge 57, Type (0, 1), BuildingBlock: CIFDUS_clean_linker_0, # of connection points: 2
#     Edge 58, Type (0, 1), BuildingBlock: CIFDUS_clean_linker_0, # of connection points: 2
#     Edge 59, Type (0, 1), BuildingBlock: CIFDUS_clean_linker_0, # of connection points: 2
#     Edge 60, Type (0, 1), BuildingBlock: CIFDUS_clean_linker_0, # of connection points: 2
#     Edge 61, Type (0, 1), BuildingBlock: CIFDUS_clean_linker_0, # of connection points: 2
#     Edge 62, Type (0, 1), BuildingBlock: CIFDUS_clean_linker_0, # of connection points: 2
#     Edge 63, Type (0, 1), BuildingBlock: CIFDUS_clean_linker_0, # of connection points: 2
#     Edge 64, Type (0, 1), BuildingBlock: CIFDUS_clean_linker_0, # of connection points: 2
#     Edge 65, Type (0, 1), BuildingBlock: CIFDUS_clean_linker_0, # of connection points: 2
#     Edge 66, Type (0, 1), BuildingBlock: CIFDUS_clean_linker_0, # of connection points: 2
#     Edge 67, Type (0, 1), BuildingBlock: CIFDUS_clean_linker_0, # of connection points: 2
#     Edge 68, Type (0, 1), BuildingBlock: CIFDUS_clean_linker_0, # of connection points: 2
#     Edge 69, Type (0, 1), BuildingBlock: CIFDUS_clean_linker_0, # of connection points: 2
#     Edge 70, Type (0, 1), BuildingBlock: CIFDUS_clean_linker_0, # of connection points: 2
#     Edge 71, Type (0, 1), BuildingBlock: CIFDUS_clean_linker_0, # of connection points: 2
#     Edge 72, Type (0, 1), BuildingBlock: CIFDUS_clean_linker_0, # of connection points: 2
#     Edge 73, Type (0, 1), BuildingBlock: CIFDUS_clean_linker_0, # of connection points: 2
#     Edge 74, Type (0, 1), BuildingBlock: CIFDUS_clean_linker_0, # of connection points: 2
#     Edge 75, Type (0, 1), BuildingBlock: CIFDUS_clean_linker_0, # of connection points: 2
#     Edge 76, Type (0, 1), BuildingBlock: CIFDUS_clean_linker_0, # of connection points: 2
#     Edge 77, Type (0, 1), BuildingBlock: CIFDUS_clean_linker_0, # of connection points: 2
#     Edge 78, Type (0, 1), BuildingBlock: CIFDUS_clean_linker_0, # of connection points: 2
#     Edge 79, Type (0, 1), BuildingBlock: CIFDUS_clean_linker_0, # of connection points: 2
#     Edge 80, Type (0, 1), BuildingBlock: CIFDUS_clean_linker_0, # of connection points: 2
#     Edge 81, Type (0, 1), BuildingBlock: CIFDUS_clean_linker_0, # of connection points: 2
#     Edge 82, Type (0, 1), BuildingBlock: CIFDUS_clean_linker_0, # of connection points: 2
#     Edge 83, Type (0, 1), BuildingBlock: CIFDUS_clean_linker_0, # of connection points: 2
#     Edge 84, Type (0, 1), BuildingBlock: CIFDUS_clean_linker_0, # of connection points: 2
#     Edge 85, Type (0, 1), BuildingBlock: CIFDUS_clean_linker_0, # of connection points: 2
#     Edge 86, Type (0, 1), BuildingBlock: CIFDUS_clean_linker_0, # of connection points: 2
#     Edge 87, Type (0, 1), BuildingBlock: CIFDUS_clean_linker_0, # of connection points: 2
#     Edge 88, Type (0, 1), BuildingBlock: CIFDUS_clean_linker_0, # of connection points: 2
#     Edge 89, Type (0, 1), BuildingBlock: CIFDUS_clean_linker_0, # of connection points: 2
#     Edge 90, Type (0, 1), BuildingBlock: CIFDUS_clean_linker_0, # of connection points: 2
#     Edge 91, Type (0, 1), BuildingBlock: CIFDUS_clean_linker_0, # of connection points: 2
#     Edge 92, Type (0, 1), BuildingBlock: CIFDUS_clean_linker_0, # of connection points: 2
#     Edge 93, Type (0, 1), BuildingBlock: CIFDUS_clean_linker_0, # of connection points: 2
#     Edge 94, Type (0, 1), BuildingBlock: CIFDUS_clean_linker_0, # of connection points: 2
#     Edge 95, Type (0, 1), BuildingBlock: CIFDUS_clean_linker_0, # of connection points: 2
#     Edge 96, Type (0, 1), BuildingBlock: CIFDUS_clean_linker_0, # of connection points: 2
#     Edge 97, Type (0, 1), BuildingBlock: CIFDUS_clean_linker_0, # of connection points: 2
#     Edge 98, Type (0, 1), BuildingBlock: CIFDUS_clean_linker_0, # of connection points: 2
#     Edge 99, Type (0, 1), BuildingBlock: CIFDUS_clean_linker_0, # of connection points: 2
#     Edge 100, Type (0, 1), BuildingBlock: CIFDUS_clean_linker_0, # of connection points: 2
#     Edge 101, Type (0, 1), BuildingBlock: CIFDUS_clean_linker_0, # of connection points: 2
#     Edge 102, Type (0, 1), BuildingBlock: CIFDUS_clean_linker_0, # of connection points: 2
#     Edge 103, Type (0, 1), BuildingBlock: CIFDUS_clean_linker_0, # of connection points: 2
#     Edge 104, Type (0, 1), BuildingBlock: CIFDUS_clean_linker_0, # of connection points: 2
#     Edge 105, Type (0, 1), BuildingBlock: CIFDUS_clean_linker_0, # of connection points: 2
#     Edge 106, Type (0, 1), BuildingBlock: CIFDUS_clean_linker_0, # of connection points: 2
#     Edge 107, Type (0, 1), BuildingBlock: CIFDUS_clean_linker_0, # of connection points: 2
#     Edge 108, Type (0, 1), BuildingBlock: CIFDUS_clean_linker_0, # of connection points: 2
#     Edge 109, Type (0, 1), BuildingBlock: CIFDUS_clean_linker_0, # of connection points: 2
#     Edge 110, Type (0, 1), BuildingBlock: CIFDUS_clean_linker_0, # of connection points: 2
#     Edge 111, Type (0, 1), BuildingBlock: CIFDUS_clean_linker_0, # of connection points: 2
#     Edge 112, Type (0, 1), BuildingBlock: CIFDUS_clean_linker_0, # of connection points: 2
#     Edge 113, Type (0, 1), BuildingBlock: CIFDUS_clean_linker_0, # of connection points: 2
#     Edge 114, Type (0, 1), BuildingBlock: CIFDUS_clean_linker_0, # of connection points: 2
#     Edge 115, Type (0, 1), BuildingBlock: CIFDUS_clean_linker_0, # of connection points: 2
#     Edge 116, Type (0, 1), BuildingBlock: CIFDUS_clean_linker_0, # of connection points: 2
#     Edge 117, Type (0, 1), BuildingBlock: CIFDUS_clean_linker_0, # of connection points: 2
#     Edge 118, Type (0, 1), BuildingBlock: CIFDUS_clean_linker_0, # of connection points: 2
#     Edge 119, Type (0, 1), BuildingBlock: CIFDUS_clean_linker_0, # of connection points: 2
#     Edge 120, Type (0, 1), BuildingBlock: CIFDUS_clean_linker_0, # of connection points: 2
#     Edge 121, Type (0, 1), BuildingBlock: CIFDUS_clean_linker_0, # of connection points: 2
#     Edge 122, Type (0, 1), BuildingBlock: CIFDUS_clean_linker_0, # of connection points: 2
#     Edge 123, Type (0, 1), BuildingBlock: CIFDUS_clean_linker_0, # of connection points: 2
#     Edge 124, Type (0, 1), BuildingBlock: CIFDUS_clean_linker_0, # of connection points: 2
#     Edge 125, Type (0, 1), BuildingBlock: CIFDUS_clean_linker_0, # of connection points: 2
#     Edge 126, Type (0, 1), BuildingBlock: CIFDUS_clean_linker_0, # of connection points: 2
#     Edge 127, Type (0, 1), BuildingBlock: CIFDUS_clean_linker_0, # of connection points: 2
#     Edge 128, Type (0, 1), BuildingBlock: CIFDUS_clean_linker_0, # of connection points: 2
#     Edge 129, Type (0, 1), BuildingBlock: CIFDUS_clean_linker_0, # of connection points: 2
#     Edge 130, Type (0, 1), BuildingBlock: CIFDUS_clean_linker_0, # of connection points: 2
#     Edge 131, Type (0, 1), BuildingBlock: CIFDUS_clean_linker_0, # of connection points: 2
#     Edge 132, Type (0, 1), BuildingBlock: CIFDUS_clean_linker_0, # of connection points: 2
#     Edge 133, Type (0, 1), BuildingBlock: CIFDUS_clean_linker_0, # of connection points: 2
#     Edge 134, Type (0, 1), BuildingBlock: CIFDUS_clean_linker_0, # of connection points: 2
#     Edge 135, Type (0, 1), BuildingBlock: CIFDUS_clean_linker_0, # of connection points: 2
#     Edge 136, Type (0, 1), BuildingBlock: CIFDUS_clean_linker_0, # of connection points: 2
#     Edge 137, Type (0, 1), BuildingBlock: CIFDUS_clean_linker_0, # of connection points: 2
#     Edge 138, Type (0, 1), BuildingBlock: CIFDUS_clean_linker_0, # of connection points: 2
#     Edge 139, Type (0, 1), BuildingBlock: CIFDUS_clean_linker_0, # of connection points: 2
#     Edge 140, Type (0, 1), BuildingBlock: CIFDUS_clean_linker_0, # of connection points: 2
#     Edge 141, Type (0, 1), BuildingBlock: CIFDUS_clean_linker_0, # of connection points: 2
#     Edge 142, Type (0, 1), BuildingBlock: CIFDUS_clean_linker_0, # of connection points: 2
#     Edge 143, Type (0, 1), BuildingBlock: CIFDUS_clean_linker_0, # of connection points: 2
#     Edge 144, Type (0, 1), BuildingBlock: CIFDUS_clean_linker_0, # of connection points: 2
#     Edge 145, Type (0, 1), BuildingBlock: CIFDUS_clean_linker_0, # of connection points: 2
#     Edge 146, Type (0, 1), BuildingBlock: CIFDUS_clean_linker_0, # of connection points: 2
#     Edge 147, Type (0, 1), BuildingBlock: CIFDUS_clean_linker_0, # of connection points: 2
#     Edge 148, Type (0, 1), BuildingBlock: CIFDUS_clean_linker_0, # of connection points: 2
#     Edge 149, Type (0, 1), BuildingBlock: CIFDUS_clean_linker_0, # of connection points: 2
#     Edge 150, Type (0, 1), BuildingBlock: CIFDUS_clean_linker_0, # of connection points: 2
#     Edge 151, Type (0, 1), BuildingBlock: CIFDUS_clean_linker_0, # of connection points: 2
# Relax obj value: 0.022
# Max RMSD: 0.132
# Mean RMSD: 0.094
data_MOF--net-tbo--node1-OLANEW_clean_sbu_2--node2-MIFKUJ_clean_linker_1--edge1-CIFDUS_clean_linker_0
_symmetry_space_group_name_H-M    P1
_symmetry_Int_Tables_number       1
_symmetry_cell_setting            triclinic
loop_
_symmetry_equiv_pos_as_xyz
'x, y, z'
_cell_length_a     80.901049
_cell_length_b     82.797181
_cell_length_c     80.101377
_cell_angle_alpha  97.442437
_cell_angle_beta   87.274875
_cell_angle_gamma 98.818042
loop_
_atom_site_label
_atom_site_type_symbol
_atom_site_fract_x
_atom_site_fract_y
_atom_site_fract_z
_atom_type_partial_charge
O0 O 0.21628 0.17466 0.17608 0.0
Cd1 Cd 0.20245 0.16198 0.20015 0.0
O2 O 0.19966 0.19364 0.17793 0.0
Cd3 Cd 0.18245 0.18723 0.19871 0.0
O4 O 0.15977 0.19473 0.21146 0.0
C5 C 0.14625 0.19164 0.20338 0.0
O6 O 0.14622 0.18299 0.18842 0.0
C7 C 0.21192 0.18722 0.17084 0.0
C8 C 0.21715 0.13574 0.20879 0.0
O9 O 0.20535 0.13328 0.19821 0.0
O10 O 0.22215 0.15061 0.21514 0.0
O11 O 0.86648 0.22213 0.18117 0.0
Cd12 Cd 0.84026 0.20689 0.16979 0.0
O13 O 0.86541 0.2061 0.20117 0.0
Cd14 Cd 0.84234 0.18971 0.19442 0.0
O15 O 0.82703 0.16729 0.20109 0.0
C16 C 0.83326 0.16131 0.21276 0.0
O17 O 0.84747 0.16896 0.21908 0.0
C18 C 0.87277 0.21818 0.19404 0.0
C19 C 0.83217 0.21683 0.13958 0.0
O20 O 0.82729 0.22379 0.15381 0.0
O21 O 0.84099 0.20523 0.13965 0.0
O22 O 0.88547 0.84756 0.16445 0.0
Cd23 Cd 0.89782 0.86852 0.18643 0.0
O24 O 0.86229 0.84158 0.17936 0.0
Cd25 Cd 0.86845 0.86156 0.19963 0.0
O26 O 0.86212 0.88345 0.21525 0.0
C27 C 0.84761 0.88663 0.21282 0.0
O28 O 0.83822 0.87671 0.2017 0.0
C29 C 0.87122 0.83891 0.16609 0.0
C30 C 0.9237 0.85682 0.20061 0.0
O31 O 0.90862 0.85407 0.2064 0.0
O32 O 0.92659 0.86541 0.1883 0.0
O33 O 0.24167 0.8475 0.21099 0.0
Cd34 Cd 0.23206 0.81776 0.2073 0.0
O35 O 0.2474 0.84747 0.23755 0.0
Cd36 Cd 0.23373 0.82276 0.23843 0.0
O37 O 0.21001 0.80686 0.24188 0.0
C38 C 0.19786 0.8091 0.2334 0.0
O39 O 0.20054 0.81999 0.22263 0.0
C40 C 0.24767 0.85511 0.22472 0.0
C41 C 0.23551 0.80366 0.17406 0.0
O42 O 0.24771 0.8058 0.18414 0.0
O43 O 0.22164 0.8082 0.17971 0.0
O44 O 0.21799 0.88805 0.87306 0.0
Cd45 Cd 0.19963 0.86769 0.88758 0.0
O46 O 0.20084 0.88498 0.85201 0.0
Cd47 Cd 0.18304 0.86436 0.85927 0.0
O48 O 0.1606 0.84821 0.85005 0.0
C49 C 0.15413 0.85346 0.83804 0.0
O50 O 0.16117 0.86748 0.83305 0.0
C51 C 0.21407 0.89226 0.85924 0.0
C52 C 0.21686 0.84991 0.9063 0.0
O53 O 0.21115 0.84353 0.8919 0.0
O54 O 0.21456 0.86466 0.91176 0.0
O55 O 0.23174 0.21166 0.86063 0.0
Cd56 Cd 0.22009 0.2038 0.83271 0.0
O57 O 0.20971 0.19942 0.87366 0.0
Cd58 Cd 0.19405 0.19597 0.85164 0.0
O59 O 0.17364 0.19863 0.83578 0.0
C60 C 0.17619 0.20629 0.82292 0.0
O61 O 0.19161 0.2121 0.81858 0.0
C62 C 0.22459 0.20709 0.87407 0.0
C63 C 0.22573 0.17175 0.82153 0.0
O64 O 0.23691 0.18415 0.81953 0.0
O65 O 0.21165 0.1745 0.82843 0.0
O66 O 0.83863 0.27705 0.8394 0.0
Cd67 Cd 0.84642 0.27707 0.80961 0.0
O68 O 0.83411 0.25009 0.83578 0.0
Cd69 Cd 0.82877 0.22508 0.84278 0.0
O70 O 0.82528 0.19824 0.84154 0.0
C71 C 0.81413 0.18995 0.83194 0.0
O72 O 0.80488 0.19786 0.82376 0.0
C73 C 0.83439 0.26355 0.8455 0.0
C74 C 0.88009 0.27378 0.80433 0.0
O75 O 0.8755 0.288 0.80793 0.0
O76 O 0.86871 0.26111 0.80307 0.0
O77 O 0.88043 0.85863 0.83231 0.0
Cd78 Cd 0.85862 0.87118 0.84942 0.0
O79 O 0.87513 0.83603 0.84467 0.0
Cd80 Cd 0.8557 0.84253 0.86309 0.0
O81 O 0.84256 0.83513 0.88605 0.0
C82 C 0.84903 0.82446 0.8926 0.0
O83 O 0.86255 0.81937 0.88536 0.0
C84 C 0.88342 0.84425 0.83387 0.0
C85 C 0.84633 0.89621 0.83552 0.0
O86 O 0.859 0.89948 0.84507 0.0
O87 O 0.83968 0.88111 0.83232 0.0
O88 O 0.22118 0.67763 0.68451 0.0
Cd89 Cd 0.20546 0.66636 0.70837 0.0
O90 O 0.20828 0.69941 0.68604 0.0
Cd91 Cd 0.19038 0.69451 0.70678 0.0
O92 O 0.16792 0.70056 0.72115 0.0
C93 C 0.15473 0.70001 0.71294 0.0
O94 O 0.15504 0.69497 0.69669 0.0
C95 C 0.2192 0.69098 0.6791 0.0
C96 C 0.22217 0.64452 0.72274 0.0
O97 O 0.21265 0.63951 0.71019 0.0
O98 O 0.22385 0.65986 0.72846 0.0
O99 O 0.85803 0.70311 0.69086 0.0
Cd100 Cd 0.82917 0.6926 0.68287 0.0
O101 O 0.87045 0.68675 0.67221 0.0
Cd102 Cd 0.84663 0.67072 0.66832 0.0
O103 O 0.82951 0.65217 0.68003 0.0
C104 C 0.83352 0.65078 0.69488 0.0
O105 O 0.84666 0.6605 0.70134 0.0
C106 C 0.87137 0.6989 0.68374 0.0
C107 C 0.82266 0.70073 0.65133 0.0
O108 O 0.82386 0.71157 0.66432 0.0
O109 O 0.8244 0.68595 0.65314 0.0
O110 O 0.87715 0.33578 0.6886 0.0
Cd111 Cd 0.88906 0.35256 0.71372 0.0
O112 O 0.85244 0.34374 0.6932 0.0
Cd113 Cd 0.85824 0.3612 0.71569 0.0
O114 O 0.84941 0.3825 0.7303 0.0
C115 C 0.83437 0.3837 0.72737 0.0
O116 O 0.82602 0.37221 0.71679 0.0
C117 C 0.86213 0.33514 0.6843 0.0
C118 C 0.9176 0.34078 0.72232 0.0
O119 O 0.90323 0.3359 0.72888 0.0
O120 O 0.91849 0.35139 0.71188 0.0
O121 O 0.26022 0.35322 0.71699 0.0
Cd122 Cd 0.24582 0.32498 0.71055 0.0
O123 O 0.25513 0.35317 0.74422 0.0
Cd124 Cd 0.24088 0.32848 0.74202 0.0
O125 O 0.21793 0.31114 0.74387 0.0
C126 C 0.20574 0.31317 0.73533 0.0
O127 O 0.20803 0.32471 0.72527 0.0
C128 C 0.26141 0.3606 0.73193 0.0
C129 C 0.24576 0.31444 0.67607 0.0
O130 O 0.23469 0.32285 0.68306 0.0
O131 O 0.25686 0.31099 0.68539 0.0
O132 O 0.26564 0.36053 0.32847 0.0
Cd133 Cd 0.27111 0.33308 0.33239 0.0
O134 O 0.23916 0.35394 0.33539 0.0
Cd135 Cd 0.21275 0.35698 0.33626 0.0
O136 O 0.18607 0.35284 0.33118 0.0
C137 C 0.18154 0.34216 0.31875 0.0
O138 O 0.193 0.33474 0.31002 0.0
C139 C 0.251 0.36438 0.33052 0.0
C140 C 0.27069 0.32737 0.36592 0.0
O141 O 0.28417 0.33365 0.35866 0.0
O142 O 0.25733 0.32401 0.35737 0.0
O143 O 0.19525 0.68144 0.38612 0.0
Cd144 Cd 0.17662 0.67186 0.36254 0.0
O145 O 0.18765 0.70607 0.39023 0.0
Cd146 Cd 0.17014 0.70159 0.36974 0.0
O147 O 0.15037 0.7052 0.3537 0.0
C148 C 0.13567 0.70497 0.36007 0.0
O149 O 0.13288 0.70176 0.37568 0.0
C150 C 0.19639 0.69576 0.39432 0.0
C151 C 0.18394 0.64191 0.34609 0.0
O152 O 0.19059 0.65558 0.34105 0.0
O153 O 0.17367 0.64243 0.35877 0.0
O154 O 0.82441 0.77436 0.34533 0.0
Cd155 Cd 0.83362 0.78171 0.31752 0.0
O156 O 0.8222 0.74818 0.33574 0.0
Cd157 Cd 0.8158 0.72152 0.33543 0.0
O158 O 0.80986 0.69549 0.32568 0.0
C159 C 0.8132 0.68393 0.33335 0.0
O160 O 0.82025 0.68757 0.34807 0.0
C161 C 0.82102 0.7594 0.348 0.0
C162 C 0.86677 0.77706 0.31073 0.0
O163 O 0.86313 0.7905 0.31885 0.0
O164 O 0.8547 0.76581 0.30572 0.0
O165 O 0.88153 0.361 0.33274 0.0
Cd166 Cd 0.85737 0.37064 0.34836 0.0
O167 O 0.88155 0.34042 0.34766 0.0
Cd168 Cd 0.86081 0.34435 0.36552 0.0
O169 O 0.84666 0.33728 0.38813 0.0
C170 C 0.85136 0.34421 0.40258 0.0
O171 O 0.86397 0.35632 0.40356 0.0
C172 C 0.88776 0.34851 0.33581 0.0
C173 C 0.84822 0.39848 0.33683 0.0
O174 O 0.85887 0.39988 0.34847 0.0
O175 O 0.84196 0.38391 0.33056 0.0
O176 O 0.72308 0.18223 0.68081 0.0
Cd177 Cd 0.70759 0.17137 0.705 0.0
O178 O 0.70515 0.19908 0.67767 0.0
Cd179 Cd 0.68724 0.19377 0.69827 0.0
O180 O 0.66463 0.19989 0.71224 0.0
C181 C 0.65197 0.20039 0.70359 0.0
O182 O 0.65292 0.19633 0.6872 0.0
C183 C 0.71848 0.19316 0.67301 0.0
C184 C 0.72304 0.14775 0.71791 0.0
O185 O 0.71203 0.14352 0.70655 0.0
O186 O 0.7268 0.16313 0.7231 0.0
O187 O 0.34749 0.21098 0.69383 0.0
Cd188 Cd 0.3217 0.1956 0.68171 0.0
O189 O 0.36367 0.19807 0.67558 0.0
Cd190 Cd 0.34324 0.17839 0.66834 0.0
O191 O 0.32978 0.15529 0.67546 0.0
C192 C 0.32536 0.15553 0.69092 0.0
O193 O 0.32817 0.16955 0.70085 0.0
C194 C 0.36199 0.2094 0.68759 0.0
C195 C 0.31453 0.20858 0.65287 0.0
O196 O 0.3091 0.21413 0.66746 0.0
O197 O 0.32317 0.19673 0.6519 0.0
O198 O 0.36736 0.82452 0.68616 0.0
Cd199 Cd 0.37664 0.83381 0.71479 0.0
O200 O 0.36322 0.84877 0.68023 0.0
Cd201 Cd 0.36804 0.86215 0.70519 0.0
O202 O 0.35806 0.88202 0.72114 0.0
C203 C 0.34283 0.88267 0.71846 0.0
O204 O 0.33485 0.87127 0.70753 0.0
C205 C 0.3632 0.83347 0.6758 0.0
C206 C 0.40458 0.8195 0.72027 0.0
O207 O 0.38978 0.81146 0.7211 0.0
O208 O 0.40624 0.83445 0.71711 0.0
O209 O 0.75911 0.84893 0.72197 0.0
Cd210 Cd 0.75138 0.81897 0.71716 0.0
O211 O 0.74696 0.85058 0.74715 0.0
Cd212 Cd 0.73547 0.82482 0.74488 0.0
O213 O 0.71398 0.80562 0.74641 0.0
C214 C 0.70261 0.80432 0.7357 0.0
O215 O 0.70491 0.81369 0.72349 0.0
C216 C 0.75558 0.8575 0.73565 0.0
C217 C 0.75074 0.80728 0.68295 0.0
O218 O 0.76443 0.80998 0.69096 0.0
O219 O 0.73725 0.81004 0.69114 0.0
O220 O 0.7158 0.8704 0.357 0.0
Cd221 Cd 0.69933 0.84574 0.36639 0.0
O222 O 0.69298 0.87769 0.34824 0.0
Cd223 Cd 0.67546 0.85678 0.35517 0.0
O224 O 0.65251 0.83937 0.3515 0.0
C225 C 0.65197 0.82851 0.33871 0.0
O226 O 0.66555 0.82754 0.3292 0.0
C227 C 0.70872 0.88042 0.35009 0.0
C228 C 0.71251 0.83509 0.39381 0.0
O229 O 0.71651 0.82962 0.37868 0.0
O230 O 0.70242 0.84575 0.39594 0.0
O231 O 0.70762 0.19402 0.38145 0.0
Cd232 Cd 0.69025 0.18293 0.35731 0.0
O233 O 0.68638 0.19915 0.39845 0.0
Cd234 Cd 0.66793 0.19269 0.37882 0.0
O235 O 0.64817 0.19568 0.36241 0.0
C236 C 0.65155 0.20661 0.3525 0.0
O237 O 0.6668 0.21477 0.35205 0.0
C238 C 0.702 0.19902 0.39598 0.0
C239 C 0.70356 0.15619 0.34015 0.0
O240 O 0.70769 0.17067 0.33583 0.0
O241 O 0.69284 0.15433 0.35231 0.0
O242 O 0.33186 0.27201 0.34011 0.0
Cd243 Cd 0.33989 0.27327 0.31047 0.0
O244 O 0.33368 0.24587 0.33431 0.0
Cd245 Cd 0.33197 0.21962 0.33656 0.0
O246 O 0.33182 0.19326 0.32934 0.0
C247 C 0.32182 0.18241 0.33607 0.0
O248 O 0.31145 0.18711 0.34822 0.0
C249 C 0.33073 0.2579 0.34505 0.0
C250 C 0.37344 0.26958 0.30475 0.0
O251 O 0.36896 0.28391 0.3073 0.0
O252 O 0.36205 0.25699 0.30478 0.0
O253 O 0.37644 0.85003 0.3322 0.0
Cd254 Cd 0.35445 0.86393 0.34746 0.0
O255 O 0.36999 0.82904 0.34684 0.0
Cd256 Cd 0.35108 0.83735 0.36491 0.0
O257 O 0.33953 0.82831 0.38786 0.0
C258 C 0.34218 0.81383 0.38941 0.0
O259 O 0.35081 0.80615 0.37742 0.0
C260 C 0.37868 0.83583 0.33529 0.0
C261 C 0.34898 0.89311 0.3358 0.0
O262 O 0.35903 0.89339 0.34777 0.0
O263 O 0.34179 0.87904 0.32911 0.0
O264 O 0.7138 0.67585 0.17231 0.0
Cd265 Cd 0.69911 0.66254 0.19557 0.0
O266 O 0.69327 0.68979 0.16905 0.0
Cd267 Cd 0.67562 0.68298 0.18937 0.0
O268 O 0.65258 0.69067 0.20113 0.0
C269 C 0.6499 0.70451 0.19742 0.0
O270 O 0.66094 0.71248 0.18769 0.0
C271 C 0.70758 0.68588 0.16456 0.0
C272 C 0.7175 0.64152 0.20913 0.0
O273 O 0.70831 0.63637 0.19635 0.0
O274 O 0.71813 0.65664 0.2154 0.0
O275 O 0.34917 0.7013 0.19116 0.0
Cd276 Cd 0.32086 0.68845 0.18346 0.0
O277 O 0.3612 0.68342 0.17393 0.0
Cd278 Cd 0.33773 0.66649 0.17207 0.0
O279 O 0.32176 0.64827 0.18534 0.0
C280 C 0.3264 0.6476 0.20015 0.0
O281 O 0.33957 0.65779 0.20587 0.0
C282 C 0.36236 0.69662 0.18414 0.0
C283 C 0.31242 0.69974 0.15409 0.0
O284 O 0.30947 0.70734 0.16865 0.0
O285 O 0.31914 0.68661 0.15341 0.0
O286 O 0.36863 0.32661 0.18414 0.0
Cd287 Cd 0.37921 0.34556 0.20856 0.0
O288 O 0.35586 0.34518 0.17486 0.0
Cd289 Cd 0.36321 0.36521 0.19473 0.0
O290 O 0.35966 0.38923 0.2078 0.0
C291 C 0.35018 0.3901 0.22088 0.0
O292 O 0.34381 0.37645 0.22703 0.0
C293 C 0.35957 0.33068 0.17331 0.0
C294 C 0.40629 0.3347 0.22156 0.0
O295 O 0.39127 0.32986 0.22654 0.0
O296 O 0.4085 0.34485 0.21057 0.0
O297 O 0.75088 0.35176 0.21311 0.0
Cd298 Cd 0.73652 0.3235 0.2069 0.0
O299 O 0.75893 0.34869 0.23821 0.0
Cd300 Cd 0.74218 0.32535 0.23761 0.0
O301 O 0.71612 0.31359 0.23787 0.0
C302 C 0.70584 0.32203 0.23294 0.0
O303 O 0.71165 0.33638 0.22795 0.0
C304 C 0.75894 0.35754 0.22636 0.0
C305 C 0.74081 0.3111 0.17321 0.0
O306 O 0.72891 0.31938 0.17801 0.0
O307 O 0.75067 0.30865 0.18438 0.0
O308 O 0.71696 0.36495 0.83616 0.0
Cd309 Cd 0.7004 0.33868 0.84128 0.0
O310 O 0.70101 0.37986 0.85268 0.0
Cd311 Cd 0.68217 0.35872 0.85652 0.0
O312 O 0.65882 0.3421 0.85132 0.0
C313 C 0.65733 0.33406 0.83671 0.0
O314 O 0.67007 0.33553 0.82593 0.0
C315 C 0.71384 0.37895 0.84299 0.0
C316 C 0.71235 0.32502 0.86749 0.0
O317 O 0.7175 0.32157 0.85225 0.0
O318 O 0.70159 0.33499 0.87031 0.0
O319 O 0.71652 0.70773 0.86965 0.0
Cd320 Cd 0.70033 0.69841 0.84425 0.0
O321 O 0.70038 0.6908 0.88467 0.0
Cd322 Cd 0.68099 0.68596 0.86595 0.0
O323 O 0.66062 0.69039 0.85108 0.0
C324 C 0.64643 0.69133 0.85835 0.0
O325 O 0.6444 0.68879 0.87422 0.0
C326 C 0.71347 0.70127 0.88326 0.0
C327 C 0.71039 0.66911 0.829 0.0
O328 O 0.71703 0.683 0.82448 0.0
O329 O 0.69873 0.66906 0.84039 0.0
O330 O 0.3314 0.77904 0.84423 0.0
Cd331 Cd 0.34525 0.78495 0.81755 0.0
O332 O 0.33517 0.75325 0.83893 0.0
Cd333 Cd 0.33311 0.72709 0.84185 0.0
O334 O 0.33328 0.70054 0.83674 0.0
C335 C 0.3205 0.69024 0.8398 0.0
O336 O 0.30706 0.69572 0.84674 0.0
C337 C 0.3297 0.76472 0.84876 0.0
C338 C 0.37885 0.78096 0.81707 0.0
O339 O 0.3741 0.79465 0.82315 0.0
O340 O 0.36768 0.76915 0.8112 0.0
O341 O 0.38541 0.36066 0.83854 0.0
Cd342 Cd 0.36822 0.3753 0.85964 0.0
O343 O 0.37996 0.337 0.84904 0.0
Cd344 Cd 0.36271 0.34289 0.87 0.0
O345 O 0.35098 0.33221 0.8921 0.0
C346 C 0.35543 0.31847 0.89392 0.0
O347 O 0.36612 0.31245 0.88285 0.0
C348 C 0.3875 0.34569 0.83821 0.0
C349 C 0.35347 0.39997 0.8478 0.0
O350 O 0.36896 0.4024 0.8515 0.0
O351 O 0.34497 0.38584 0.84944 0.0
H352 H 0.24998 0.23535 0.00843 0.0
H353 H 0.23632 0.22647 0.98156 0.0
H354 H 0.28393 0.2183 0.95781 0.0
H355 H 0.29756 0.22734 0.98476 0.0
H356 H 0.26722 0.22048 0.02799 0.0
H357 H 0.2778 0.26727 0.99731 0.0
H358 H 0.28753 0.28254 0.97365 0.0
H359 H 0.33785 0.27315 0.97978 0.0
H360 H 0.32793 0.25746 0.00309 0.0
H361 H 0.32929 0.25609 0.05704 0.0
H362 H 0.33976 0.27251 0.08312 0.0
H363 H 0.2892 0.2794 0.09875 0.0
H364 H 0.27888 0.26332 0.07258 0.0
H365 H 0.31309 0.26788 0.03311 0.0
H366 H 0.30076 0.224 0.0681 0.0
H367 H 0.28898 0.21189 0.0932 0.0
H368 H 0.23954 0.21857 0.07992 0.0
H369 H 0.25141 0.23109 0.05523 0.0
C370 C 0.2748 0.23212 0.99857 0.0
C371 C 0.25745 0.2315 0.99746 0.0
C372 C 0.24965 0.22638 0.9821 0.0
C373 C 0.25905 0.22171 0.96754 0.0
C374 C 0.27639 0.22206 0.96875 0.0
C375 C 0.28419 0.22717 0.98414 0.0
C376 C 0.28302 0.23834 0.01478 0.0
C377 C 0.27722 0.23087 0.02915 0.0
C378 C 0.29623 0.25174 0.01619 0.0
C379 C 0.3021 0.261 0.0018 0.0
C380 C 0.29089 0.26835 0.99343 0.0
C381 C 0.29651 0.27722 0.98002 0.0
C382 C 0.31346 0.27903 0.97479 0.0
C383 C 0.32467 0.27178 0.98333 0.0
C384 C 0.31905 0.26291 0.99672 0.0
C385 C 0.30331 0.2584 0.06293 0.0
C386 C 0.32047 0.26097 0.0662 0.0
C387 C 0.32641 0.27026 0.08113 0.0
C388 C 0.31529 0.27728 0.09292 0.0
C389 C 0.29807 0.27427 0.08982 0.0
C390 C 0.29215 0.26495 0.07495 0.0
C391 C 0.29717 0.25014 0.04639 0.0
C392 C 0.30334 0.25725 0.03192 0.0
C393 C 0.28406 0.23663 0.04498 0.0
C394 C 0.27699 0.22861 0.05985 0.0
C395 C 0.2874 0.22292 0.07065 0.0
C396 C 0.28063 0.21587 0.08491 0.0
C397 C 0.26334 0.21437 0.08862 0.0
C398 C 0.25295 0.21979 0.07758 0.0
C399 C 0.2597 0.22681 0.06336 0.0
H400 H 0.77957 0.23841 0.97098 0.0
H401 H 0.79132 0.23377 0.94231 0.0
H402 H 0.79837 0.28624 0.93976 0.0
H403 H 0.78743 0.29078 0.96856 0.0
H404 H 0.79254 0.25577 8e-05 0.0
H405 H 0.74771 0.25906 0.96315 0.0
H406 H 0.73562 0.26975 0.94013 0.0
H407 H 0.7437 0.31868 0.96746 0.0
H408 H 0.75594 0.30801 0.9903 0.0
H409 H 0.75815 0.30541 0.03737 0.0
H410 H 0.74983 0.31329 0.0667 0.0
H411 H 0.74382 0.26235 0.07556 0.0
H412 H 0.7516 0.25441 0.04605 0.0
H413 H 0.74437 0.28668 0.0111 0.0
H414 H 0.79215 0.28672 0.04442 0.0
H415 H 0.8036 0.27921 0.06955 0.0
H416 H 0.79149 0.22771 0.05032 0.0
H417 H 0.78005 0.23535 0.02516 0.0
C418 C 0.78242 0.26491 0.97182 0.0
C419 C 0.78383 0.2489 0.96427 0.0
C420 C 0.79041 0.24626 0.94783 0.0
C421 C 0.79574 0.25962 0.93868 0.0
C422 C 0.7946 0.27567 0.94647 0.0
C423 C 0.78816 0.27828 0.9629 0.0
C424 C 0.77467 0.26771 0.98892 0.0
C425 C 0.78184 0.26229 0.00243 0.0
C426 C 0.76097 0.2766 0.99208 0.0
C427 C 0.75289 0.28276 0.97839 0.0
C428 C 0.74694 0.2721 0.96415 0.0
C429 C 0.74005 0.27821 0.951 0.0
C430 C 0.73876 0.29506 0.95199 0.0
C431 C 0.74437 0.30562 0.96642 0.0
C432 C 0.75138 0.29954 0.97948 0.0
C433 C 0.75575 0.27935 0.03956 0.0
C434 C 0.75474 0.29589 0.04553 0.0
C435 C 0.75002 0.30039 0.06228 0.0
C436 C 0.74634 0.28843 0.07339 0.0
C437 C 0.74682 0.27182 0.06729 0.0
C438 C 0.75127 0.26729 0.05046 0.0
C439 C 0.76232 0.27492 0.02221 0.0
C440 C 0.75495 0.28001 0.00868 0.0
C441 C 0.77607 0.26611 0.01906 0.0
C442 C 0.78505 0.26158 0.03306 0.0
C443 C 0.79212 0.27382 0.04555 0.0
C444 C 0.79857 0.26951 0.05994 0.0
C445 C 0.79825 0.25286 0.06201 0.0
C446 C 0.79198 0.24064 0.04904 0.0
C447 C 0.78546 0.24497 0.03467 0.0
H448 H 0.79448 0.78502 0.06249 0.0
H449 H 0.80569 0.79948 0.08916 0.0
H450 H 0.83282 0.7594 0.09402 0.0
H451 H 0.82114 0.74469 0.06747 0.0
H452 H 0.81512 0.77328 0.033 0.0
H453 H 0.77228 0.75555 0.07299 0.0
H454 H 0.75996 0.74333 0.09767 0.0
H455 H 0.77577 0.69698 0.07749 0.0
H456 H 0.7887 0.70954 0.05305 0.0
H457 H 0.78306 0.70905 0.00046 0.0
H458 H 0.76819 0.69782 0.97455 0.0
H459 H 0.75711 0.74626 0.96924 0.0
H460 H 0.77161 0.75735 0.99521 0.0
H461 H 0.77276 0.72292 0.02958 0.0
H462 H 0.81314 0.74004 0.98787 0.0
H463 H 0.82435 0.75231 0.9628 0.0
H464 H 0.81343 0.79975 0.98599 0.0
H465 H 0.80163 0.78725 0.0108 0.0
C466 C 0.80698 0.76382 0.06312 0.0
C467 C 0.80276 0.77932 0.06936 0.0
C468 C 0.80908 0.7875 0.08457 0.0
C469 C 0.82004 0.78047 0.09356 0.0
C470 C 0.82438 0.765 0.08725 0.0
C471 C 0.81774 0.75663 0.07218 0.0
C472 C 0.80031 0.75541 0.04692 0.0
C473 C 0.80579 0.76231 0.03219 0.0
C474 C 0.78854 0.74085 0.04597 0.0
C475 C 0.78164 0.73354 0.06128 0.0
C476 C 0.77342 0.74286 0.07402 0.0
C477 C 0.76618 0.73578 0.08804 0.0
C478 C 0.76682 0.71914 0.08953 0.0
C479 C 0.77522 0.70986 0.07682 0.0
C480 C 0.78251 0.71699 0.0628 0.0
C481 C 0.77869 0.73409 0.99965 0.0
C482 C 0.77742 0.71724 0.99371 0.0
C483 C 0.76893 0.71084 0.97893 0.0
C484 C 0.76163 0.72121 0.96983 0.0
C485 C 0.76289 0.73805 0.97582 0.0
C486 C 0.7712 0.74439 0.99065 0.0
C487 C 0.78736 0.74091 0.01551 0.0
C488 C 0.7823 0.73371 0.03023 0.0
C489 C 0.79959 0.75519 0.01644 0.0
C490 C 0.80642 0.76268 0.00119 0.0
C491 C 0.81298 0.75304 0.98749 0.0
C492 C 0.81954 0.76012 0.97322 0.0
C493 C 0.81982 0.77703 0.97239 0.0
C494 C 0.81322 0.78666 0.98613 0.0
C495 C 0.80663 0.77956 0.00039 0.0
H496 H 0.28302 0.7237 0.97113 0.0
H497 H 0.2938 0.72194 0.94182 0.0
H498 H 0.30883 0.77467 0.9478 0.0
H499 H 0.29835 0.77633 0.97694 0.0
H500 H 0.2963 0.73485 0.00201 0.0
H501 H 0.25677 0.74975 0.96707 0.0
H502 H 0.24643 0.76439 0.94628 0.0
H503 H 0.25449 0.80949 0.98074 0.0
H504 H 0.2666 0.79517 0.00054 0.0
H505 H 0.28132 0.78733 0.04513 0.0
H506 H 0.27678 0.79545 0.07532 0.0
H507 H 0.2472 0.74806 0.07957 0.0
H508 H 0.25212 0.73979 0.0493 0.0
H509 H 0.25602 0.77409 0.0186 0.0
H510 H 0.30346 0.76079 0.04723 0.0
H511 H 0.31134 0.74844 0.07126 0.0
H512 H 0.28459 0.70138 0.05073 0.0
H513 H 0.27659 0.7139 0.02675 0.0
C514 C 0.28956 0.75019 0.97608 0.0
C515 C 0.28884 0.73482 0.96616 0.0
C516 C 0.29497 0.73384 0.94945 0.0
C517 C 0.30186 0.74821 0.9425 0.0
C518 C 0.30324 0.76344 0.95273 0.0
C519 C 0.29729 0.7644 0.96939 0.0
C520 C 0.28171 0.75168 0.99322 0.0
C521 C 0.28727 0.74321 0.0055 0.0
C522 C 0.26988 0.76261 0.99785 0.0
C523 C 0.2628 0.77134 0.98534 0.0
C524 C 0.25669 0.76288 0.96999 0.0
C525 C 0.25046 0.77127 0.95817 0.0
C526 C 0.2496 0.78825 0.96166 0.0
C527 C 0.25532 0.79656 0.97726 0.0
C528 C 0.262 0.78827 0.98882 0.0
C529 C 0.26701 0.76301 0.04505 0.0
C530 C 0.27373 0.77875 0.05253 0.0
C531 C 0.27125 0.78332 0.06974 0.0
C532 C 0.26172 0.77232 0.07966 0.0
C533 C 0.25457 0.75672 0.07209 0.0
C534 C 0.25733 0.75202 0.05489 0.0
C535 C 0.27118 0.7579 0.02717 0.0
C536 C 0.26485 0.76558 0.01484 0.0
C537 C 0.28226 0.74637 0.02246 0.0
C538 C 0.28929 0.73828 0.03535 0.0
C539 C 0.29946 0.74777 0.04782 0.0
C540 C 0.30387 0.74073 0.06156 0.0
C541 C 0.29838 0.724 0.06297 0.0
C542 C 0.28903 0.71429 0.04995 0.0
C543 C 0.28448 0.7214 0.03624 0.0
H544 H 0.04787 0.26385 0.22555 0.0
H545 H 0.07077 0.24793 0.21742 0.0
H546 H 0.07942 0.24623 0.26995 0.0
H547 H 0.05661 0.2621 0.27795 0.0
H548 H 0.01882 0.2576 0.2428 0.0
H549 H 0.06661 0.29806 0.24831 0.0
H550 H 0.0955 0.30802 0.2562 0.0
H551 H 0.08089 0.30696 0.30869 0.0
H552 H 0.0519 0.297 0.30068 0.0
H553 H 0.00261 0.29525 0.30354 0.0
H554 H 0.97835 0.30581 0.31759 0.0
H555 H 0.96104 0.31384 0.26956 0.0
H556 H 0.98576 0.30369 0.25554 0.0
H557 H 0.0285 0.30781 0.28435 0.0
H558 H 0.9798 0.26502 0.27633 0.0
H559 H 0.95212 0.253 0.26605 0.0
H560 H 0.96971 0.25885 0.21505 0.0
H561 H 0.99713 0.27159 0.22555 0.0
C562 C 0.05068 0.26439 0.25235 0.0
C563 C 0.05466 0.25996 0.23529 0.0
C564 C 0.06771 0.25083 0.23068 0.0
C565 C 0.077 0.24589 0.24305 0.0
C566 C 0.07274 0.25008 0.26011 0.0
C567 C 0.05968 0.25915 0.2647 0.0
C568 C 0.03716 0.27448 0.25741 0.0
C569 C 0.02097 0.26876 0.25162 0.0
C570 C 0.03998 0.28909 0.26886 0.0
C571 C 0.05715 0.29658 0.27389 0.0
C572 C 0.06961 0.30003 0.26152 0.0
C573 C 0.08613 0.30566 0.26604 0.0
C574 C 0.09051 0.30809 0.28305 0.0
C575 C 0.07788 0.30529 0.29549 0.0
C576 C 0.06133 0.2996 0.29094 0.0
C577 C 0.99592 0.29848 0.27847 0.0
C578 C 0.99374 0.29951 0.29603 0.0
C579 C 0.97977 0.3054 0.30404 0.0
C580 C 0.96764 0.31043 0.29466 0.0
C581 C 0.97018 0.31008 0.27713 0.0
C582 C 0.98422 0.30418 0.2691 0.0
C583 C 0.00999 0.29063 0.27014 0.0
C584 C 0.02635 0.29681 0.27531 0.0
C585 C 0.00734 0.27664 0.25783 0.0
C586 C 0.99046 0.26941 0.25173 0.0
C587 C 0.97761 0.26394 0.26297 0.0
C588 C 0.96184 0.25691 0.25704 0.0
C589 C 0.95867 0.25496 0.23971 0.0
C590 C 0.97161 0.26042 0.22849 0.0
C591 C 0.98735 0.26755 0.23445 0.0
H592 H 0.78252 0.04194 0.24345 0.0
H593 H 0.79451 0.06768 0.23273 0.0
H594 H 0.80649 0.08968 0.28346 0.0
H595 H 0.79508 0.06375 0.29399 0.0
H596 H 0.79681 0.02157 0.25864 0.0
H597 H 0.75282 0.05327 0.27223 0.0
H598 H 0.7383 0.07617 0.28401 0.0
H599 H 0.75142 0.0695 0.33406 0.0
H600 H 0.76607 0.04671 0.32222 0.0
H601 H 0.77124 0.99662 0.32011 0.0
H602 H 0.75785 0.9712 0.33077 0.0
H603 H 0.74023 0.95211 0.28096 0.0
H604 H 0.75345 0.97759 0.27044 0.0
H605 H 0.75459 0.01816 0.30551 0.0
H606 H 0.79868 0.98506 0.2897 0.0
H607 H 0.80933 0.96025 0.2763 0.0
H608 H 0.79258 0.96881 0.22821 0.0
H609 H 0.78163 0.99333 0.24172 0.0
C610 C 0.78782 0.05094 0.26953 0.0
C611 C 0.78775 0.05231 0.25225 0.0
C612 C 0.79446 0.06708 0.24616 0.0
C613 C 0.80144 0.08073 0.25725 0.0
C614 C 0.80137 0.07934 0.27457 0.0
C615 C 0.7947 0.06457 0.28063 0.0
C616 C 0.78113 0.03512 0.2759 0.0
C617 C 0.78745 0.02082 0.26878 0.0
C618 C 0.76906 0.03414 0.28927 0.0
C619 C 0.76071 0.04839 0.29633 0.0
C620 C 0.75279 0.0569 0.28572 0.0
C621 C 0.74447 0.06996 0.29246 0.0
C622 C 0.74371 0.07461 0.30996 0.0
C623 C 0.75163 0.06607 0.32055 0.0
C624 C 0.76005 0.05309 0.31379 0.0
C625 C 0.76338 0.98893 0.29449 0.0
C626 C 0.76461 0.98688 0.31148 0.0
C627 C 0.75707 0.97234 0.31752 0.0
C628 C 0.74799 0.95972 0.30669 0.0
C629 C 0.74705 0.9617 0.28961 0.0
C630 C 0.75468 0.97618 0.28356 0.0
C631 C 0.77038 0.00475 0.28836 0.0
C632 C 0.76407 0.01901 0.29549 0.0
C633 C 0.7822 0.00564 0.27481 0.0
C634 C 0.78922 0.99094 0.26672 0.0
C635 C 0.79726 0.98154 0.27628 0.0
C636 C 0.80345 0.96745 0.2686 0.0
C637 C 0.80172 0.96254 0.25122 0.0
C638 C 0.79389 0.97214 0.24166 0.0
C639 C 0.78775 0.98623 0.24933 0.0
H640 H 0.06079 0.74387 0.26438 0.0
H641 H 0.08038 0.72979 0.27736 0.0
H642 H 0.07003 0.75651 0.32578 0.0
H643 H 0.05053 0.77057 0.31275 0.0
H644 H 0.02253 0.76121 0.29693 0.0
H645 H 0.0606 0.76937 0.2337 0.0
H646 H 0.08977 0.77399 0.2235 0.0
H647 H 0.10526 0.79294 0.27406 0.0
H648 H 0.07617 0.78849 0.28413 0.0
H649 H 0.02394 0.81565 0.25824 0.0
H650 H 0.00303 0.82937 0.24677 0.0
H651 H 0.96976 0.78308 0.23973 0.0
H652 H 0.99069 0.76946 0.25111 0.0
H653 H 0.0411 0.79049 0.24743 0.0
H654 H 0.00197 0.80336 0.29082 0.0
H655 H 0.9733 0.80508 0.30078 0.0
H656 H 0.96266 0.7519 0.2959 0.0
H657 H 0.99127 0.75031 0.2851 0.0
C658 C 0.05431 0.75838 0.28757 0.0
C659 C 0.06277 0.74671 0.27779 0.0
C660 C 0.07396 0.73869 0.28521 0.0
C661 C 0.07676 0.74207 0.30258 0.0
C662 C 0.06798 0.75349 0.3124 0.0
C663 C 0.05686 0.76155 0.30497 0.0
C664 C 0.04305 0.76753 0.27962 0.0
C665 C 0.02661 0.76754 0.28608 0.0
C666 C 0.04849 0.77627 0.26579 0.0
C667 C 0.06621 0.77842 0.2597 0.0
C668 C 0.0703 0.77447 0.24258 0.0
C669 C 0.08695 0.77711 0.23678 0.0
C670 C 0.0998 0.78373 0.248 0.0
C671 C 0.09568 0.78753 0.26516 0.0
C672 C 0.07904 0.78501 0.27093 0.0
C673 C 0.00878 0.79159 0.25571 0.0
C674 C 0.01225 0.80843 0.25396 0.0
C675 C 0.00029 0.81625 0.24744 0.0
C676 C 0.98469 0.80733 0.24256 0.0
C677 C 0.98154 0.79033 0.2437 0.0
C678 C 0.99351 0.78252 0.25012 0.0
C679 C 0.02056 0.78367 0.26441 0.0
C680 C 0.03706 0.78398 0.25817 0.0
C681 C 0.01544 0.77582 0.27888 0.0
C682 C 0.99866 0.77671 0.28694 0.0
C683 C 0.99347 0.79207 0.29194 0.0
C684 C 0.97709 0.79302 0.29779 0.0
C685 C 0.96561 0.77862 0.29905 0.0
C686 C 0.97109 0.76323 0.29479 0.0
C687 C 0.98748 0.76229 0.2888 0.0
H688 H 0.25203 0.03365 0.26051 0.0
H689 H 0.24054 0.05582 0.24968 0.0
H690 H 0.29054 0.08207 0.24422 0.0
H691 H 0.30194 0.05988 0.25494 0.0
H692 H 0.27197 0.01232 0.24949 0.0
H693 H 0.2718 0.05427 0.2945 0.0
H694 H 0.27588 0.08241 0.30873 0.0
H695 H 0.32945 0.08422 0.30216 0.0
H696 H 0.32522 0.05618 0.28732 0.0
H697 H 0.31764 0.98612 0.26075 0.0
H698 H 0.32758 0.96233 0.26987 0.0
H699 H 0.31007 0.97642 0.32065 0.0
H700 H 0.2997 1.00004 0.31135 0.0
H701 H 0.31151 0.02718 0.29657 0.0
H702 H 0.29151 0.98585 0.23523 0.0
H703 H 0.28528 0.95583 0.228 0.0
H704 H 0.26314 0.95165 0.27773 0.0
H705 H 0.26965 0.98141 0.28488 0.0
C706 C 0.27784 0.04516 0.25876 0.0
C707 C 0.26053 0.04408 0.25679 0.0
C708 C 0.25398 0.05677 0.25059 0.0
C709 C 0.26462 0.07079 0.24623 0.0
C710 C 0.28198 0.0716 0.24776 0.0
C711 C 0.28851 0.05889 0.25386 0.0
C712 C 0.28479 0.03226 0.26641 0.0
C713 C 0.28069 0.01566 0.25968 0.0
C714 C 0.29551 0.03636 0.28033 0.0
C715 C 0.29819 0.05322 0.28961 0.0
C716 C 0.28442 0.06076 0.29603 0.0
C717 C 0.28678 0.07679 0.30434 0.0
C718 C 0.30299 0.08558 0.30658 0.0
C719 C 0.31679 0.07786 0.30045 0.0
C720 C 0.31441 0.06181 0.29209 0.0
C721 C 0.30766 0.99472 0.2853 0.0
C722 C 0.31599 0.98415 0.27387 0.0
C723 C 0.32165 0.97055 0.27908 0.0
C724 C 0.31942 0.96742 0.29593 0.0
C725 C 0.31199 0.97856 0.3076 0.0
C726 C 0.3061 0.99208 0.30231 0.0
C727 C 0.29933 0.00753 0.27909 0.0
C728 C 0.30301 0.02401 0.28619 0.0
C729 C 0.28746 0.00327 0.26622 0.0
C730 C 0.28114 0.98576 0.26061 0.0
C731 C 0.285 0.97844 0.2444 0.0
C732 C 0.28149 0.96131 0.24032 0.0
C733 C 0.274 0.95134 0.25241 0.0
C734 C 0.26929 0.95892 0.26828 0.0
C735 C 0.27283 0.97594 0.27233 0.0
H736 H 0.03605 0.77262 0.8077 0.0
H737 H 0.06174 0.78544 0.82197 0.0
H738 H 0.08408 0.79808 0.77441 0.0
H739 H 0.05822 0.78574 0.76033 0.0
H740 H 0.01571 0.78761 0.79189 0.0
H741 H 0.04688 0.74272 0.77658 0.0
H742 H 0.07042 0.72898 0.76524 0.0
H743 H 0.06538 0.7455 0.71695 0.0
H744 H 0.04167 0.75891 0.7283 0.0
H745 H 0.99158 0.7615 0.72526 0.0
H746 H 0.96493 0.75155 0.71138 0.0
H747 H 0.94236 0.7386 0.75872 0.0
H748 H 0.969 0.74827 0.77244 0.0
H749 H 0.01177 0.74621 0.74106 0.0
H750 H 0.97953 0.79097 0.7574 0.0
H751 H 0.95482 0.80263 0.76938 0.0
H752 H 0.96222 0.78585 0.81697 0.0
H753 H 0.98657 0.77393 0.80486 0.0
C754 C 0.04523 0.77816 0.78294 0.0
C755 C 0.04654 0.77806 0.80034 0.0
C756 C 0.06126 0.78527 0.80846 0.0
C757 C 0.07491 0.79282 0.79932 0.0
C758 C 0.07371 0.79253 0.78182 0.0
C759 C 0.059 0.78533 0.77373 0.0
C760 C 0.02915 0.77177 0.77461 0.0
C761 C 0.0148 0.77839 0.78091 0.0
C762 C 0.02806 0.76002 0.76006 0.0
C763 C 0.04256 0.75192 0.75331 0.0
C764 C 0.05092 0.74345 0.76358 0.0
C765 C 0.06442 0.73563 0.75708 0.0
C766 C 0.06981 0.73609 0.74016 0.0
C767 C 0.06141 0.74464 0.72995 0.0
C768 C 0.04789 0.75239 0.73643 0.0
C769 C 0.98222 0.75589 0.74995 0.0
C770 C 0.9809 0.75646 0.73262 0.0
C771 C 0.9657 0.75077 0.72471 0.0
C772 C 0.95155 0.74445 0.73401 0.0
C773 C 0.95297 0.7437 0.75131 0.0
C774 C 0.96819 0.74923 0.75916 0.0
C775 C 0.99832 0.76204 0.75836 0.0
C776 C 0.01269 0.75544 0.75203 0.0
C777 C 0.99942 0.77376 0.77295 0.0
C778 C 0.98479 0.78141 0.78019 0.0
C779 C 0.97577 0.78977 0.7704 0.0
C780 C 0.96174 0.79653 0.77728 0.0
C781 C 0.95649 0.79505 0.79408 0.0
C782 C 0.96577 0.78696 0.80391 0.0
C783 C 0.97978 0.78026 0.79705 0.0
H784 H 0.27937 0.04196 0.74008 0.0
H785 H 0.28505 0.06677 0.72583 0.0
H786 H 0.31315 0.09221 0.76852 0.0
H787 H 0.30711 0.06748 0.78273 0.0
H788 H 0.3034 0.02364 0.75589 0.0
H789 H 0.25285 0.05208 0.77104 0.0
H790 H 0.24431 0.07935 0.77863 0.0
H791 H 0.27735 0.08844 0.82069 0.0
H792 H 0.28565 0.06107 0.81318 0.0
H793 H 0.27521 0.00598 0.8217 0.0
H794 H 0.26152 0.98151 0.83387 0.0
H795 H 0.25103 0.95665 0.78381 0.0
H796 H 0.26388 0.98128 0.77185 0.0
H797 H 0.26276 0.02584 0.80432 0.0
H798 H 0.3073 0.99415 0.79421 0.0
H799 H 0.32024 0.96938 0.7856 0.0
H800 H 0.30407 0.96828 0.73479 0.0
H801 H 0.29099 0.99292 0.74349 0.0
C802 C 0.29279 0.05297 0.76243 0.0
C803 C 0.28691 0.05286 0.74623 0.0
C804 C 0.29018 0.06703 0.73813 0.0
C805 C 0.29945 0.08153 0.74609 0.0
C806 C 0.30569 0.08138 0.76217 0.0
C807 C 0.30239 0.06723 0.77025 0.0
C808 C 0.28787 0.03856 0.77166 0.0
C809 C 0.29445 0.024 0.7664 0.0
C810 C 0.27669 0.03932 0.78572 0.0
C811 C 0.26978 0.05461 0.79164 0.0
C812 C 0.25793 0.05983 0.78211 0.0
C813 C 0.25311 0.07537 0.78643 0.0
C814 C 0.26026 0.08597 0.80018 0.0
C815 C 0.27176 0.08051 0.80997 0.0
C816 C 0.27638 0.06488 0.8058 0.0
C817 C 0.27073 0.99543 0.79585 0.0
C818 C 0.26997 0.99523 0.81337 0.0
C819 C 0.26228 0.98118 0.8203 0.0
C820 C 0.25515 0.96713 0.80981 0.0
C821 C 0.2562 0.96732 0.79227 0.0
C822 C 0.26376 0.98135 0.78538 0.0
C823 C 0.27803 0.01054 0.78838 0.0
C824 C 0.27186 0.02534 0.79394 0.0
C825 C 0.28992 0.01006 0.77482 0.0
C826 C 0.29809 0.99529 0.76951 0.0
C827 C 0.30651 0.98853 0.78123 0.0
C828 C 0.31399 0.97447 0.77629 0.0
C829 C 0.31309 0.96688 0.75955 0.0
C830 C 0.30478 0.97376 0.74782 0.0
C831 C 0.29742 0.9879 0.75273 0.0
H832 H 0.01773 0.273 0.73321 0.0
H833 H 0.99457 0.28707 0.72695 0.0
H834 H 0.98801 0.30326 0.77999 0.0
H835 H 0.01139 0.28962 0.78609 0.0
H836 H 0.04866 0.28356 0.751 0.0
H837 H 0.99879 0.24169 0.75434 0.0
H838 H 0.96873 0.23966 0.76109 0.0
H839 H 0.97952 0.26122 0.81212 0.0
H840 H 0.00964 0.26288 0.80541 0.0
H841 H 0.05911 0.24936 0.80651 0.0
H842 H 0.08105 0.23628 0.81681 0.0
H843 H 0.0976 0.22256 0.76557 0.0
H844 H 0.07546 0.23554 0.75529 0.0
H845 H 0.03273 0.2389 0.78718 0.0
H846 H 0.08445 0.27646 0.78356 0.0
H847 H 0.11335 0.28539 0.77459 0.0
H848 H 0.09906 0.27499 0.72255 0.0
H849 H 0.07016 0.26603 0.73162 0.0
C850 C 0.01608 0.28007 0.76012 0.0
C851 C 0.01149 0.27984 0.74342 0.0
C852 C 0.99826 0.28783 0.73989 0.0
C853 C 0.98939 0.29606 0.75303 0.0
C854 C 0.99445 0.29678 0.76966 0.0
C855 C 0.0078 0.28902 0.77315 0.0
C856 C 0.02857 0.26994 0.76423 0.0
C857 C 0.04522 0.27362 0.75867 0.0
C858 C 0.02403 0.25708 0.7743 0.0
C859 C 0.00634 0.25237 0.77941 0.0
C860 C 0.99465 0.24542 0.76713 0.0
C861 C 0.97754 0.24432 0.77097 0.0
C862 C 0.97192 0.25039 0.78707 0.0
C863 C 0.98363 0.25652 0.79961 0.0
C864 C 0.00076 0.25732 0.79585 0.0
C865 C 0.06575 0.2436 0.78014 0.0
C866 C 0.0673 0.24333 0.79747 0.0
C867 C 0.07984 0.23584 0.80335 0.0
C868 C 0.09108 0.22845 0.792 0.0
C869 C 0.08925 0.22834 0.77461 0.0
C870 C 0.07661 0.23574 0.76874 0.0
C871 C 0.05313 0.25261 0.77416 0.0
C872 C 0.03632 0.24867 0.77933 0.0
C873 C 0.05761 0.2652 0.76362 0.0
C874 C 0.0752 0.27042 0.75824 0.0
C875 C 0.08759 0.27592 0.77022 0.0
C876 C 0.1041 0.28098 0.76507 0.0
C877 C 0.10849 0.28082 0.74786 0.0
C878 C 0.09603 0.27536 0.7359 0.0
C879 C 0.07954 0.27023 0.74106 0.0
H880 H 0.74617 0.03463 0.76549 0.0
H881 H 0.73321 0.05464 0.75257 0.0
H882 H 0.78197 0.08282 0.7452 0.0
H883 H 0.79486 0.0627 0.75793 0.0
H884 H 0.76804 0.01436 0.75549 0.0
H885 H 0.76504 0.05869 0.79836 0.0
H886 H 0.76755 0.08821 0.80774 0.0
H887 H 0.82116 0.09273 0.79977 0.0
H888 H 0.81855 0.06309 0.79024 0.0
H889 H 0.82781 0.01208 0.78978 0.0
H890 H 0.84071 0.99112 0.80126 0.0
H891 H 0.79171 0.96702 0.81515 0.0
H892 H 0.77893 0.98804 0.80378 0.0
H893 H 0.80557 0.03437 0.80351 0.0
H894 H 0.8048 0.98592 0.76038 0.0
H895 H 0.79804 0.95589 0.75427 0.0
H896 H 0.74609 0.9591 0.76721 0.0
H897 H 0.75296 0.98901 0.77359 0.0
C898 C 0.77147 0.04724 0.76287 0.0
C899 C 0.75409 0.04501 0.76091 0.0
C900 C 0.7467 0.05647 0.75354 0.0
C901 C 0.75656 0.07038 0.74798 0.0
C902 C 0.774 0.07238 0.74961 0.0
C903 C 0.78139 0.06087 0.75686 0.0
C904 C 0.77922 0.03566 0.7717 0.0
C905 C 0.77617 0.01875 0.76601 0.0
C906 C 0.78967 0.04131 0.78562 0.0
C907 C 0.79159 0.05876 0.79333 0.0
C908 C 0.77735 0.06602 0.79873 0.0
C909 C 0.77879 0.08288 0.80403 0.0
C910 C 0.79453 0.09281 0.80428 0.0
C911 C 0.80888 0.08537 0.79976 0.0
C912 C 0.80741 0.06846 0.79433 0.0
C913 C 0.80241 0.0015 0.79572 0.0
C914 C 0.81988 0.00241 0.79553 0.0
C915 C 0.82723 0.99041 0.80207 0.0
C916 C 0.81722 0.97729 0.80894 0.0
C917 C 0.79975 0.97678 0.80966 0.0
C918 C 0.79243 0.98883 0.80324 0.0
C919 C 0.79457 0.01313 0.7871 0.0
C920 C 0.79759 0.03004 0.79285 0.0
C921 C 0.78365 0.00743 0.77358 0.0
C922 C 0.7794 0.98964 0.76759 0.0
C923 C 0.79193 0.98014 0.7617 0.0
C924 C 0.78805 0.96302 0.75816 0.0
C925 C 0.77157 0.95516 0.76045 0.0
C926 C 0.75894 0.96481 0.76559 0.0
C927 C 0.76281 0.98189 0.76907 0.0
H928 H 0.32176 0.75864 0.50294 0.0
H929 H 0.33068 0.7725 0.47809 0.0
H930 H 0.2833 0.79075 0.47954 0.0
H931 H 0.27468 0.77726 0.50459 0.0
H932 H 0.31304 0.77152 0.53481 0.0
H933 H 0.28663 0.73248 0.49068 0.0
H934 H 0.26997 0.72467 0.46538 0.0
H935 H 0.22743 0.74195 0.49272 0.0
H936 H 0.24423 0.75005 0.51785 0.0
H937 H 0.2495 0.74953 0.56491 0.0
H938 H 0.23738 0.74087 0.59135 0.0
H939 H 0.28306 0.72278 0.60052 0.0
H940 H 0.29493 0.73094 0.57362 0.0
H941 H 0.25962 0.73324 0.53694 0.0
H942 H 0.28547 0.77732 0.57714 0.0
H943 H 0.30128 0.78978 0.60207 0.0
H944 H 0.34309 0.76542 0.58296 0.0
H945 H 0.32719 0.753 0.55792 0.0
C946 C 0.29748 0.76673 0.50548 0.0
C947 C 0.31333 0.76565 0.4979 0.0
C948 C 0.31835 0.77349 0.48365 0.0
C949 C 0.30766 0.78267 0.4768 0.0
C950 C 0.29188 0.78388 0.48457 0.0
C951 C 0.28686 0.77603 0.49879 0.0
C952 C 0.29209 0.75845 0.52062 0.0
C953 C 0.30157 0.76284 0.53516 0.0
C954 C 0.27694 0.74742 0.52121 0.0
C955 C 0.26669 0.74195 0.5061 0.0
C956 C 0.27372 0.7346 0.4912 0.0
C957 C 0.26416 0.73004 0.4768 0.0
C958 C 0.24742 0.73277 0.47706 0.0
C959 C 0.24036 0.73989 0.49209 0.0
C960 C 0.24989 0.74439 0.50648 0.0
C961 C 0.27318 0.74102 0.56731 0.0
C962 C 0.25689 0.74359 0.57254 0.0
C963 C 0.25003 0.73878 0.58777 0.0
C964 C 0.25931 0.73127 0.59816 0.0
C965 C 0.27555 0.72846 0.59279 0.0
C966 C 0.28241 0.73327 0.57749 0.0
C967 C 0.28038 0.7466 0.55124 0.0
C968 C 0.27129 0.74164 0.5365 0.0
C969 C 0.29577 0.75725 0.55049 0.0
C970 C 0.30516 0.76419 0.5658 0.0
C971 C 0.298 0.77459 0.57838 0.0
C972 C 0.30706 0.78176 0.59253 0.0
C973 C 0.3234 0.77858 0.59436 0.0
C974 C 0.33048 0.76798 0.58186 0.0
C975 C 0.32147 0.76096 0.56758 0.0
H976 H 0.781 0.73377 0.47392 0.0
H977 H 0.78738 0.73394 0.4436 0.0
H978 H 0.80922 0.78515 0.45298 0.0
H979 H 0.80265 0.78492 0.483 0.0
H980 H 0.80171 0.74716 0.50724 0.0
H981 H 0.75395 0.75337 0.47533 0.0
H982 H 0.74354 0.76478 0.4519 0.0
H983 H 0.75948 0.814 0.47635 0.0
H984 H 0.77007 0.80248 0.49969 0.0
H985 H 0.77818 0.79875 0.54804 0.0
H986 H 0.77489 0.80727 0.57832 0.0
H987 H 0.75622 0.75701 0.58597 0.0
H988 H 0.75984 0.74841 0.5556 0.0
H989 H 0.75644 0.78126 0.52247 0.0
H990 H 0.80398 0.77623 0.55376 0.0
H991 H 0.81455 0.7665 0.57781 0.0
H992 H 0.80285 0.71625 0.55396 0.0
H993 H 0.79048 0.72619 0.53076 0.0
C994 C 0.7913 0.75936 0.4806 0.0
C995 C 0.7876 0.74485 0.46943 0.0
C996 C 0.79118 0.745 0.45215 0.0
C997 C 0.79848 0.75966 0.44592 0.0
C998 C 0.80325 0.77378 0.45737 0.0
C999 C 0.79969 0.77362 0.47453 0.0
C1000 C 0.78411 0.76068 0.49795 0.0
C1001 C 0.79153 0.75422 0.51058 0.0
C1002 C 0.77106 0.77018 0.50225 0.0
C1003 C 0.76293 0.77709 0.48915 0.0
C1004 C 0.75516 0.76662 0.47566 0.0
C1005 C 0.74928 0.77315 0.46226 0.0
C1006 C 0.75085 0.79028 0.46222 0.0
C1007 C 0.75803 0.80075 0.47608 0.0
C1008 C 0.76403 0.7942 0.48943 0.0
C1009 C 0.76932 0.77295 0.54964 0.0
C1010 C 0.77305 0.78961 0.55618 0.0
C1011 C 0.7713 0.79445 0.57343 0.0
C1012 C 0.76541 0.78275 0.58435 0.0
C1013 C 0.76073 0.76622 0.57771 0.0
C1014 C 0.76277 0.76132 0.56045 0.0
C1015 C 0.77397 0.76774 0.53189 0.0
C1016 C 0.76621 0.77369 0.51916 0.0
C1017 C 0.78676 0.75783 0.52759 0.0
C1018 C 0.79583 0.75192 0.54076 0.0
C1019 C 0.80349 0.7631 0.55381 0.0
C1020 C 0.80986 0.75746 0.56749 0.0
C1021 C 0.80945 0.74047 0.56812 0.0
C1022 C 0.80293 0.72937 0.55431 0.0
C1023 C 0.79607 0.73504 0.54085 0.0
H1024 H 0.79931 0.30181 0.56486 0.0
H1025 H 0.80996 0.31505 0.59207 0.0
H1026 H 0.82488 0.26933 0.60184 0.0
H1027 H 0.81437 0.25613 0.57439 0.0
H1028 H 0.81325 0.28731 0.53709 0.0
H1029 H 0.77161 0.27279 0.57813 0.0
H1030 H 0.75777 0.26197 0.60291 0.0
H1031 H 0.76801 0.21327 0.58326 0.0
H1032 H 0.78253 0.22438 0.55872 0.0
H1033 H 0.77989 0.22555 0.50325 0.0
H1034 H 0.76194 0.21513 0.47916 0.0
H1035 H 0.7464 0.26296 0.4808 0.0
H1036 H 0.76427 0.27327 0.50485 0.0
H1037 H 0.76869 0.23879 0.53533 0.0
H1038 H 0.80687 0.25577 0.49091 0.0
H1039 H 0.81524 0.26884 0.46554 0.0
H1040 H 0.80608 0.3157 0.49191 0.0
H1041 H 0.79772 0.30255 0.51726 0.0
C1042 C 0.80597 0.27798 0.56765 0.0
C1043 C 0.80505 0.29468 0.57276 0.0
C1044 C 0.81099 0.30218 0.58837 0.0
C1045 C 0.8181 0.29317 0.59912 0.0
C1046 C 0.8195 0.27657 0.59378 0.0
C1047 C 0.81344 0.26902 0.57817 0.0
C1048 C 0.79843 0.26988 0.55162 0.0
C1049 C 0.8035 0.2767 0.5367 0.0
C1050 C 0.78582 0.25595 0.55112 0.0
C1051 C 0.77834 0.24945 0.56666 0.0
C1052 C 0.77123 0.25986 0.57931 0.0
C1053 C 0.76312 0.2536 0.59339 0.0
C1054 C 0.76168 0.23672 0.59503 0.0
C1055 C 0.76905 0.22635 0.58248 0.0
C1056 C 0.77725 0.23265 0.5684 0.0
C1057 C 0.77348 0.25019 0.50571 0.0
C1058 C 0.7727 0.23379 0.49831 0.0
C1059 C 0.76254 0.2279 0.48454 0.0
C1060 C 0.75278 0.23825 0.47818 0.0
C1061 C 0.7537 0.2547 0.48555 0.0
C1062 C 0.76398 0.26062 0.49918 0.0
C1063 C 0.78344 0.25627 0.52087 0.0
C1064 C 0.77877 0.2491 0.53565 0.0
C1065 C 0.79608 0.27015 0.52132 0.0
C1066 C 0.80154 0.27814 0.50598 0.0
C1067 C 0.80655 0.26884 0.4912 0.0
C1068 C 0.8113 0.27632 0.47669 0.0
C1069 C 0.81126 0.29331 0.47667 0.0
C1070 C 0.80642 0.30263 0.49155 0.0
C1071 C 0.80162 0.29512 0.50605 0.0
H1072 H 0.28345 0.23738 0.46966 0.0
H1073 H 0.29194 0.23737 0.43977 0.0
H1074 H 0.31231 0.28894 0.44954 0.0
H1075 H 0.30401 0.2888 0.47925 0.0
H1076 H 0.30157 0.24925 0.50297 0.0
H1077 H 0.25345 0.25839 0.4718 0.0
H1078 H 0.24744 0.27015 0.44666 0.0
H1079 H 0.27031 0.31819 0.46898 0.0
H1080 H 0.27628 0.3063 0.49416 0.0
H1081 H 0.27238 0.29905 0.54533 0.0
H1082 H 0.26586 0.30512 0.5754 0.0
H1083 H 0.25373 0.25306 0.57914 0.0
H1084 H 0.25971 0.24702 0.5489 0.0
H1085 H 0.25662 0.28385 0.51774 0.0
H1086 H 0.30277 0.27512 0.55027 0.0
H1087 H 0.31162 0.26298 0.57401 0.0
H1088 H 0.29495 0.21431 0.5486 0.0
H1089 H 0.28597 0.22656 0.52493 0.0
C1090 C 0.29303 0.2631 0.47658 0.0
C1091 C 0.29014 0.24853 0.46539 0.0
C1092 C 0.29492 0.24857 0.44835 0.0
C1093 C 0.30255 0.26322 0.44232 0.0
C1094 C 0.30619 0.27755 0.45378 0.0
C1095 C 0.30158 0.27745 0.47076 0.0
C1096 C 0.28527 0.26414 0.49373 0.0
C1097 C 0.29156 0.25654 0.50619 0.0
C1098 C 0.27233 0.27378 0.49791 0.0
C1099 C 0.26527 0.28151 0.48478 0.0
C1100 C 0.25667 0.27154 0.47148 0.0
C1101 C 0.25327 0.27827 0.45714 0.0
C1102 C 0.25852 0.29505 0.45586 0.0
C1103 C 0.26625 0.30519 0.46963 0.0
C1104 C 0.26949 0.29847 0.48406 0.0
C1105 C 0.2668 0.27258 0.5449 0.0
C1106 C 0.26793 0.28895 0.55252 0.0
C1107 C 0.26425 0.2924 0.5697 0.0
C1108 C 0.25946 0.27955 0.5796 0.0
C1109 C 0.2576 0.26318 0.57183 0.0
C1110 C 0.26102 0.25974 0.55457 0.0
C1111 C 0.27296 0.26904 0.52724 0.0
C1112 C 0.2664 0.27627 0.51459 0.0
C1113 C 0.2857 0.25906 0.52297 0.0
C1114 C 0.29347 0.25173 0.53599 0.0
C1115 C 0.3012 0.26184 0.54974 0.0
C1116 C 0.30617 0.25489 0.56331 0.0
C1117 C 0.30376 0.23771 0.56324 0.0
C1118 C 0.297 0.22759 0.54898 0.0
C1119 C 0.29189 0.23456 0.53545 0.0
H1120 H 0.76251 0.55533 0.82431 0.0
H1121 H 0.74809 0.5791 0.83277 0.0
H1122 H 0.73726 0.58073 0.78079 0.0
H1123 H 0.75134 0.55665 0.77238 0.0
H1124 H 0.75247 0.5255 0.81013 0.0
H1125 H 0.7914 0.57137 0.79442 0.0
H1126 H 0.8019 0.59543 0.78022 0.0
H1127 H 0.79397 0.56569 0.73197 0.0
H1128 H 0.78264 0.54194 0.74627 0.0
H1129 H 0.78492 0.49523 0.752 0.0
H1130 H 0.79812 0.4707 0.7433 0.0
H1131 H 0.81323 0.47113 0.79439 0.0
H1132 H 0.80018 0.49588 0.803 0.0
H1133 H 0.79752 0.52609 0.7659 0.0
H1134 H 0.7579 0.48104 0.78046 0.0
H1135 H 0.7475 0.45625 0.79353 0.0
H1136 H 0.75662 0.4836 0.84274 0.0
H1137 H 0.76733 0.50839 0.82956 0.0
C1138 C 0.75822 0.55431 0.79769 0.0
C1139 C 0.75692 0.5607 0.81473 0.0
C1140 C 0.74867 0.57427 0.81956 0.0
C1141 C 0.74162 0.58177 0.80742 0.0
C1142 C 0.74277 0.57529 0.79037 0.0
C1143 C 0.75084 0.56158 0.78557 0.0
C1144 C 0.76719 0.53999 0.79269 0.0
C1145 C 0.7625 0.52575 0.80065 0.0
C1146 C 0.77997 0.54011 0.77996 0.0
C1147 C 0.78607 0.55487 0.77142 0.0
C1148 C 0.79165 0.57011 0.78079 0.0
C1149 C 0.79783 0.58382 0.77263 0.0
C1150 C 0.79881 0.58252 0.75492 0.0
C1151 C 0.79315 0.56723 0.7456 0.0
C1152 C 0.78684 0.55358 0.75376 0.0
C1153 C 0.79146 0.49728 0.77816 0.0
C1154 C 0.79118 0.49011 0.7613 0.0
C1155 C 0.79861 0.47604 0.75639 0.0
C1156 C 0.80658 0.46894 0.76821 0.0
C1157 C 0.80722 0.47638 0.78501 0.0
C1158 C 0.7997 0.49043 0.78995 0.0
C1159 C 0.78281 0.51174 0.78337 0.0
C1160 C 0.78754 0.52594 0.77545 0.0
C1161 C 0.77001 0.51157 0.79604 0.0
C1162 C 0.76365 0.49653 0.80402 0.0
C1163 C 0.75792 0.48167 0.79405 0.0
C1164 C 0.75198 0.4675 0.80153 0.0
C1165 C 0.75138 0.46797 0.81915 0.0
C1166 C 0.7569 0.4829 0.82913 0.0
C1167 C 0.763 0.49705 0.82163 0.0
H1168 H 0.31215 0.56914 0.77585 0.0
H1169 H 0.31499 0.59805 0.78809 0.0
H1170 H 0.29287 0.58325 0.83495 0.0
H1171 H 0.28976 0.55437 0.82251 0.0
H1172 H 0.31189 0.53408 0.80878 0.0
H1173 H 0.28968 0.54324 0.74314 0.0
H1174 H 0.27596 0.56266 0.73016 0.0
H1175 H 0.25287 0.57768 0.77823 0.0
H1176 H 0.26631 0.55799 0.79109 0.0
H1177 H 0.26201 0.48997 0.77361 0.0
H1178 H 0.25615 0.46011 0.76595 0.0
H1179 H 0.30859 0.45879 0.75425 0.0
H1180 H 0.31449 0.48879 0.7621 0.0
H1181 H 0.27762 0.51702 0.75795 0.0
H1182 H 0.28614 0.48489 0.80151 0.0
H1183 H 0.29889 0.46337 0.81133 0.0
H1184 H 0.34698 0.49471 0.81162 0.0
H1185 H 0.33435 0.51525 0.7996 0.0
C1186 C 0.30061 0.55964 0.79823 0.0
C1187 C 0.308 0.57214 0.78879 0.0
C1188 C 0.3097 0.58863 0.79583 0.0
C1189 C 0.30408 0.59293 0.81247 0.0
C1190 C 0.29712 0.58033 0.82204 0.0
C1191 C 0.29548 0.56384 0.815 0.0
C1192 C 0.2975 0.54225 0.7904 0.0
C1193 C 0.30449 0.53034 0.79761 0.0
C1194 C 0.28763 0.53742 0.77594 0.0
C1195 C 0.27924 0.54928 0.76816 0.0
C1196 C 0.28161 0.55066 0.75088 0.0
C1197 C 0.27376 0.56175 0.74347 0.0
C1198 C 0.26341 0.57176 0.7532 0.0
C1199 C 0.26098 0.57032 0.77047 0.0
C1200 C 0.26868 0.55908 0.77783 0.0
C1201 C 0.28869 0.49152 0.76856 0.0
C1202 C 0.2722 0.48332 0.76903 0.0
C1203 C 0.26888 0.46629 0.76479 0.0
C1204 C 0.28196 0.45722 0.75972 0.0
C1205 C 0.29833 0.46556 0.75812 0.0
C1206 C 0.30168 0.48263 0.76259 0.0
C1207 C 0.29231 0.50894 0.77609 0.0
C1208 C 0.28527 0.52082 0.76894 0.0
C1209 C 0.30194 0.51368 0.79075 0.0
C1210 C 0.30935 0.50148 0.79911 0.0
C1211 C 0.29951 0.48699 0.80332 0.0
C1212 C 0.30685 0.47474 0.80935 0.0
C1213 C 0.32417 0.47699 0.81219 0.0
C1214 C 0.33376 0.49209 0.80908 0.0
C1215 C 0.32648 0.50407 0.80245 0.0
H1216 H 0.26331 0.52997 0.23268 0.0
H1217 H 0.27196 0.55436 0.21848 0.0
H1218 H 0.27884 0.58417 0.26681 0.0
H1219 H 0.27078 0.5595 0.28093 0.0
H1220 H 0.28272 0.51723 0.25331 0.0
H1221 H 0.2311 0.54236 0.25942 0.0
H1222 H 0.21706 0.56612 0.26967 0.0
H1223 H 0.22937 0.56183 0.32065 0.0
H1224 H 0.24361 0.53837 0.31035 0.0
H1225 H 0.25222 0.48988 0.31214 0.0
H1226 H 0.25003 0.46214 0.32064 0.0
H1227 H 0.24378 0.44107 0.26871 0.0
H1228 H 0.24587 0.46866 0.26035 0.0
H1229 H 0.23435 0.50831 0.29332 0.0
H1230 H 0.28548 0.48745 0.29145 0.0
H1231 H 0.3028 0.46551 0.2856 0.0
H1232 H 0.29588 0.46432 0.23228 0.0
H1233 H 0.27836 0.48613 0.23822 0.0
C1234 C 0.26632 0.54292 0.25785 0.0
C1235 C 0.26662 0.54178 0.24021 0.0
C1236 C 0.27141 0.55577 0.23212 0.0
C1237 C 0.27604 0.57125 0.2415 0.0
C1238 C 0.27549 0.57242 0.25921 0.0
C1239 C 0.27076 0.55836 0.26731 0.0
C1240 C 0.26208 0.52773 0.2661 0.0
C1241 C 0.27202 0.51524 0.26188 0.0
C1242 C 0.24866 0.52547 0.27803 0.0
C1243 C 0.23864 0.53875 0.2841 0.0
C1244 C 0.23076 0.54654 0.2728 0.0
C1245 C 0.22274 0.56009 0.27866 0.0
C1246 C 0.22219 0.56585 0.29594 0.0
C1247 C 0.22946 0.55757 0.30728 0.0
C1248 C 0.23761 0.54417 0.3014 0.0
C1249 C 0.24945 0.48129 0.2856 0.0
C1250 C 0.24984 0.47925 0.30269 0.0
C1251 C 0.24863 0.46342 0.30751 0.0
C1252 C 0.24702 0.44951 0.29527 0.0
C1253 C 0.24529 0.4516 0.27836 0.0
C1254 C 0.2464 0.46734 0.27358 0.0
C1255 C 0.25455 0.49769 0.27987 0.0
C1256 C 0.24497 0.51035 0.28466 0.0
C1257 C 0.26871 0.50048 0.26899 0.0
C1258 C 0.28042 0.48824 0.26527 0.0
C1259 C 0.28769 0.48245 0.27849 0.0
C1260 C 0.29758 0.46994 0.27515 0.0
C1261 C 0.30063 0.46316 0.2585 0.0
C1262 C 0.29388 0.46942 0.24524 0.0
C1263 C 0.28385 0.48186 0.2486 0.0
H1264 H 0.76281 0.55467 0.27577 0.0
H1265 H 0.74991 0.57488 0.26317 0.0
H1266 H 0.77513 0.56193 0.2157 0.0
H1267 H 0.78831 0.54198 0.22844 0.0
H1268 H 0.77583 0.51524 0.24057 0.0
H1269 H 0.78534 0.54863 0.3087 0.0
H1270 H 0.79037 0.5768 0.32305 0.0
H1271 H 0.81342 0.59365 0.2774 0.0
H1272 H 0.80851 0.56546 0.26316 0.0
H1273 H 0.8271 0.506 0.28477 0.0
H1274 H 0.83587 0.48255 0.29592 0.0
H1275 H 0.78457 0.4584 0.29595 0.0
H1276 H 0.77594 0.48182 0.28478 0.0
H1277 H 0.80478 0.52782 0.29502 0.0
H1278 H 0.81171 0.48528 0.2501 0.0
H1279 H 0.80691 0.45618 0.23839 0.0
H1280 H 0.75418 0.45851 0.23558 0.0
H1281 H 0.75889 0.48742 0.24786 0.0
C1282 C 0.77672 0.54689 0.25313 0.0
C1283 C 0.76582 0.55636 0.26273 0.0
C1284 C 0.75841 0.5679 0.25551 0.0
C1285 C 0.76151 0.57 0.23845 0.0
C1286 C 0.77239 0.56049 0.22884 0.0
C1287 C 0.77994 0.54909 0.23612 0.0
C1288 C 0.78428 0.53427 0.26063 0.0
C1289 C 0.78224 0.51806 0.25242 0.0
C1290 C 0.79287 0.53791 0.27601 0.0
C1291 C 0.79637 0.55495 0.2848 0.0
C1292 C 0.79159 0.55837 0.30182 0.0
C1293 C 0.79448 0.57446 0.31001 0.0
C1294 C 0.80219 0.58744 0.30132 0.0
C1295 C 0.8072 0.58394 0.28435 0.0
C1296 C 0.80441 0.56784 0.2762 0.0
C1297 C 0.80091 0.49557 0.28376 0.0
C1298 C 0.81773 0.49575 0.28743 0.0
C1299 C 0.82271 0.48234 0.29379 0.0
C1300 C 0.81094 0.46851 0.29665 0.0
C1301 C 0.794 0.46869 0.29358 0.0
C1302 C 0.78903 0.48211 0.2873 0.0
C1303 C 0.79587 0.50885 0.27518 0.0
C1304 C 0.79846 0.52512 0.28312 0.0
C1305 C 0.78807 0.50536 0.25939 0.0
C1306 C 0.7856 0.48845 0.25016 0.0
C1307 C 0.79911 0.47954 0.24694 0.0
C1308 C 0.79639 0.46295 0.24023 0.0
C1309 C 0.78017 0.45513 0.23619 0.0
C1310 C 0.76682 0.4643 0.2385 0.0
C1311 C 0.7695 0.48081 0.24549 0.0
H1312 H 0.54079 0.2625 0.71919 0.0
H1313 H 0.56428 0.24888 0.70751 0.0
H1314 H 0.56706 0.22887 0.75439 0.0
H1315 H 0.5438 0.24283 0.76606 0.0
H1316 H 0.51004 0.25028 0.73109 0.0
H1317 H 0.55645 0.28814 0.75146 0.0
H1318 H 0.58366 0.29704 0.76413 0.0
H1319 H 0.5637 0.27986 0.81078 0.0
H1320 H 0.53632 0.27113 0.79799 0.0
H1321 H 0.48584 0.27335 0.7966 0.0
H1322 H 0.46184 0.28465 0.81041 0.0
H1323 H 0.45418 0.30627 0.76562 0.0
H1324 H 0.47857 0.29519 0.75195 0.0
H1325 H 0.5151 0.28827 0.78445 0.0
H1326 H 0.46709 0.25116 0.76192 0.0
H1327 H 0.44126 0.24163 0.74662 0.0
H1328 H 0.46552 0.25869 0.70158 0.0
H1329 H 0.49128 0.26841 0.71699 0.0
C1330 C 0.54063 0.25379 0.74352 0.0
C1331 C 0.54645 0.25514 0.72691 0.0
C1332 C 0.55985 0.24728 0.72025 0.0
C1333 C 0.5676 0.23776 0.73 0.0
C1334 C 0.5616 0.23632 0.7466 0.0
C1335 C 0.54826 0.24425 0.75328 0.0
C1336 C 0.52654 0.2623 0.75069 0.0
C1337 C 0.51118 0.2588 0.74261 0.0
C1338 C 0.52803 0.27328 0.76578 0.0
C1339 C 0.54442 0.27883 0.77373 0.0
C1340 C 0.55796 0.28619 0.76439 0.0
C1341 C 0.57354 0.2912 0.77163 0.0
C1342 C 0.57591 0.28901 0.78843 0.0
C1343 C 0.56226 0.28181 0.79785 0.0
C1344 C 0.54663 0.2768 0.79057 0.0
C1345 C 0.48393 0.2833 0.7732 0.0
C1346 C 0.47905 0.28058 0.78977 0.0
C1347 C 0.46523 0.28693 0.79759 0.0
C1348 C 0.456 0.29622 0.78905 0.0
C1349 C 0.46107 0.2992 0.77254 0.0
C1350 C 0.47492 0.29279 0.76468 0.0
C1351 C 0.49842 0.27608 0.76497 0.0
C1352 C 0.51391 0.27982 0.77287 0.0
C1353 C 0.49709 0.26554 0.74953 0.0
C1354 C 0.48108 0.26065 0.74065 0.0
C1355 C 0.46676 0.25316 0.74885 0.0
C1356 C 0.45201 0.24772 0.74009 0.0
C1357 C 0.45139 0.24944 0.72291 0.0
C1358 C 0.46568 0.2571 0.71477 0.0
C1359 C 0.48038 0.26266 0.72357 0.0
H1360 H 0.56832 0.72885 0.76478 0.0
H1361 H 0.58868 0.71556 0.77755 0.0
H1362 H 0.57926 0.74318 0.82573 0.0
H1363 H 0.5589 0.75641 0.81289 0.0
H1364 H 0.53052 0.74618 0.79811 0.0
H1365 H 0.56738 0.75324 0.73361 0.0
H1366 H 0.59645 0.75915 0.72335 0.0
H1367 H 0.61114 0.78058 0.77352 0.0
H1368 H 0.58222 0.77477 0.78362 0.0
H1369 H 0.52988 0.79715 0.75396 0.0
H1370 H 0.5084 0.80998 0.74268 0.0
H1371 H 0.47317 0.76534 0.74558 0.0
H1372 H 0.49522 0.75213 0.75478 0.0
H1373 H 0.54643 0.77321 0.74664 0.0
H1374 H 0.50768 0.78677 0.79036 0.0
H1375 H 0.47858 0.78761 0.79913 0.0
H1376 H 0.47046 0.73458 0.79778 0.0
H1377 H 0.49943 0.73382 0.78791 0.0
C1378 C 0.56218 0.74373 0.78785 0.0
C1379 C 0.57067 0.73207 0.77809 0.0
C1380 C 0.58232 0.7245 0.78539 0.0
C1381 C 0.58561 0.72835 0.80264 0.0
C1382 C 0.57685 0.7398 0.81245 0.0
C1383 C 0.56523 0.7474 0.80513 0.0
C1384 C 0.55031 0.75225 0.77996 0.0
C1385 C 0.53402 0.75207 0.78686 0.0
C1386 C 0.55499 0.76047 0.76562 0.0
C1387 C 0.57265 0.76337 0.75942 0.0
C1388 C 0.5769 0.75914 0.74238 0.0
C1389 C 0.59349 0.76252 0.73654 0.0
C1390 C 0.60611 0.77021 0.74765 0.0
C1391 C 0.60179 0.77432 0.76471 0.0
C1392 C 0.58524 0.77103 0.7705 0.0
C1393 C 0.51409 0.77379 0.75564 0.0
C1394 C 0.51764 0.79 0.75169 0.0
C1395 C 0.50518 0.79744 0.74552 0.0
C1396 C 0.48876 0.78895 0.74351 0.0
C1397 C 0.48556 0.77239 0.74669 0.0
C1398 C 0.49817 0.76482 0.75228 0.0
C1399 C 0.52652 0.76666 0.76445 0.0
C1400 C 0.54293 0.7672 0.75781 0.0
C1401 C 0.52223 0.75957 0.77958 0.0
C1402 C 0.5056 0.76021 0.78809 0.0
C1403 C 0.49966 0.77534 0.79211 0.0
C1404 C 0.48301 0.77579 0.79728 0.0
C1405 C 0.47204 0.76113 0.79897 0.0
C1406 C 0.47843 0.74608 0.79621 0.0
C1407 C 0.49505 0.74562 0.79079 0.0
H1408 H 0.5356 0.75343 0.22022 0.0
H1409 H 0.55936 0.73935 0.21021 0.0
H1410 H 0.56197 0.72374 0.25932 0.0
H1411 H 0.53796 0.73748 0.2691 0.0
H1412 H 0.50413 0.74319 0.23371 0.0
H1413 H 0.55393 0.78023 0.25119 0.0
H1414 H 0.58099 0.78816 0.26449 0.0
H1415 H 0.55816 0.77579 0.31199 0.0
H1416 H 0.53103 0.7681 0.29858 0.0
H1417 H 0.48329 0.77742 0.29656 0.0
H1418 H 0.46094 0.79266 0.30817 0.0
H1419 H 0.45454 0.80686 0.25911 0.0
H1420 H 0.47727 0.79186 0.24761 0.0
H1421 H 0.51291 0.7869 0.28241 0.0
H1422 H 0.46317 0.75113 0.26627 0.0
H1423 H 0.43582 0.74223 0.25379 0.0
H1424 H 0.45767 0.74993 0.20466 0.0
H1425 H 0.48508 0.7591 0.21728 0.0
C1426 C 0.53514 0.74666 0.24545 0.0
C1427 C 0.54116 0.74679 0.22875 0.0
C1428 C 0.55483 0.73886 0.2231 0.0
C1429 C 0.56266 0.73056 0.23402 0.0
C1430 C 0.55618 0.72994 0.25057 0.0
C1431 C 0.54253 0.73789 0.25621 0.0
C1432 C 0.52168 0.75637 0.25187 0.0
C1433 C 0.50609 0.75292 0.24419 0.0
C1434 C 0.52411 0.76876 0.26581 0.0
C1435 C 0.54052 0.7735 0.27389 0.0
C1436 C 0.55479 0.77912 0.26444 0.0
C1437 C 0.57027 0.78356 0.27205 0.0
C1438 C 0.57175 0.78252 0.28929 0.0
C1439 C 0.5574 0.77688 0.29873 0.0
C1440 C 0.54191 0.77247 0.2911 0.0
C1441 C 0.48186 0.78335 0.27119 0.0
C1442 C 0.47715 0.78389 0.28831 0.0
C1443 C 0.46429 0.7925 0.2949 0.0
C1444 C 0.45587 0.80084 0.28452 0.0
C1445 C 0.46083 0.80061 0.26743 0.0
C1446 C 0.47371 0.79193 0.26082 0.0
C1447 C 0.49526 0.77376 0.26428 0.0
C1448 C 0.51089 0.77723 0.27187 0.0
C1449 C 0.49276 0.76129 0.25036 0.0
C1450 C 0.47614 0.75603 0.24275 0.0
C1451 C 0.46205 0.75117 0.25285 0.0
C1452 C 0.44642 0.74609 0.24571 0.0
C1453 C 0.4446 0.7455 0.22827 0.0
C1454 C 0.45873 0.7502 0.21813 0.0
C1455 C 0.47437 0.75544 0.22531 0.0
H1456 H 0.55373 0.23566 0.28044 0.0
H1457 H 0.57541 0.22419 0.29351 0.0
H1458 H 0.59983 0.27351 0.30989 0.0
H1459 H 0.57827 0.28481 0.29671 0.0
H1460 H 0.53139 0.25868 0.2936 0.0
H1461 H 0.57827 0.25504 0.25318 0.0
H1462 H 0.60826 0.26033 0.2462 0.0
H1463 H 0.60738 0.31265 0.25781 0.0
H1464 H 0.57749 0.30729 0.26472 0.0
H1465 H 0.52951 0.31575 0.26187 0.0
H1466 H 0.50736 0.329 0.25183 0.0
H1467 H 0.47978 0.28113 0.23527 0.0
H1468 H 0.50207 0.26801 0.24492 0.0
H1469 H 0.55025 0.29245 0.24732 0.0
H1470 H 0.51065 0.2979 0.29474 0.0
H1471 H 0.48108 0.29911 0.30142 0.0
H1472 H 0.46866 0.249 0.27761 0.0
H1473 H 0.49844 0.24776 0.27161 0.0
C1474 C 0.56454 0.26105 0.28746 0.0
C1475 C 0.56367 0.24395 0.28703 0.0
C1476 C 0.57606 0.23744 0.29449 0.0
C1477 C 0.58945 0.24795 0.30255 0.0
C1478 C 0.58989 0.26509 0.30346 0.0
C1479 C 0.57753 0.27156 0.29604 0.0
C1480 C 0.55244 0.26798 0.27819 0.0
C1481 C 0.53548 0.26574 0.28326 0.0
C1482 C 0.55785 0.2777 0.26508 0.0
C1483 C 0.57569 0.28078 0.25957 0.0
C1484 C 0.58456 0.26764 0.25416 0.0
C1485 C 0.60169 0.27067 0.25023 0.0
C1486 C 0.6102 0.2869 0.25147 0.0
C1487 C 0.60116 0.30002 0.2565 0.0
C1488 C 0.58407 0.29698 0.26047 0.0
C1489 C 0.51729 0.29092 0.25431 0.0
C1490 C 0.51886 0.30816 0.25574 0.0
C1491 C 0.50619 0.31569 0.25008 0.0
C1492 C 0.49178 0.30606 0.24302 0.0
C1493 C 0.49063 0.28882 0.24095 0.0
C1494 C 0.50335 0.28133 0.24639 0.0
C1495 C 0.5293 0.28292 0.26256 0.0
C1496 C 0.54618 0.28505 0.2574 0.0
C1497 C 0.52396 0.27341 0.2758 0.0
C1498 C 0.50665 0.27273 0.28274 0.0
C1499 C 0.50156 0.28703 0.29141 0.0
C1500 C 0.48463 0.28777 0.29497 0.0
C1501 C 0.47243 0.27426 0.28977 0.0
C1502 C 0.47769 0.2596 0.28191 0.0
C1503 C 0.4947 0.25883 0.2785 0.0
H1504 H 0.23727 0.17613 0.15064 0.0
H1505 H 0.20641 0.21483 0.15823 0.0
H1506 H 0.21984 0.22668 0.13393 0.0
H1507 H 0.23988 0.22601 0.11022 0.0
H1508 H 0.27062 0.18737 0.10182 0.0
H1509 H 0.25792 0.17576 0.12684 0.0
C1510 C 0.23353 0.18718 0.14701 0.0
C1511 C 0.22077 0.19449 0.15628 0.0
C1512 C 0.2413 0.194 0.13287 0.0
C1513 C 0.21612 0.20885 0.15136 0.0
C1514 C 0.2238 0.21568 0.13743 0.0
C1515 C 0.24372 0.21496 0.11377 0.0
C1516 C 0.25608 0.2075 0.10408 0.0
C1517 C 0.23629 0.20831 0.12803 0.0
C1518 C 0.26119 0.19342 0.10911 0.0
C1519 C 0.25386 0.18672 0.12337 0.0
H1520 H 0.814 0.24103 0.13557 0.0
H1521 H 0.84002 0.20396 0.10753 0.0
H1522 H 0.832 0.21193 0.08109 0.0
H1523 H 0.81742 0.2293 0.06589 0.0
H1524 H 0.79116 0.2661 0.09404 0.0
H1525 H 0.7996 0.25846 0.12043 0.0
C1526 C 0.81795 0.2347 0.12368 0.0
C1527 C 0.82758 0.2219 0.12356 0.0
C1528 C 0.8133 0.23933 0.10852 0.0
C1529 C 0.8326 0.21386 0.10802 0.0
C1530 C 0.82801 0.2184 0.09288 0.0
C1531 C 0.81349 0.23559 0.07781 0.0
C1532 C 0.80374 0.24829 0.07798 0.0
C1533 C 0.81831 0.23107 0.09297 0.0
C1534 C 0.79889 0.25645 0.09353 0.0
C1535 C 0.80362 0.25202 0.10865 0.0
H1536 H 0.83892 0.82506 0.16158 0.0
H1537 H 0.88855 0.82481 0.13935 0.0
H1538 H 0.87716 0.80543 0.11554 0.0
H1539 H 0.85281 0.78989 0.1002 0.0
H1540 H 0.80317 0.79185 0.12161 0.0
H1541 H 0.81481 0.80915 0.14669 0.0
C1542 C 0.84728 0.82064 0.15162 0.0
C1543 C 0.86455 0.82637 0.15223 0.0
C1544 C 0.84061 0.80984 0.13781 0.0
C1545 C 0.87519 0.82064 0.13914 0.0
C1546 C 0.86869 0.80955 0.12553 0.0
C1547 C 0.84463 0.79395 0.11051 0.0
C1548 C 0.82722 0.78964 0.10922 0.0
C1549 C 0.8514 0.80426 0.12462 0.0
C1550 C 0.81663 0.7951 0.12244 0.0
C1551 C 0.82327 0.80497 0.13672 0.0
H1552 H 0.26448 0.79912 0.15686 0.0
H1553 H 0.21094 0.79197 0.15148 0.0
H1554 H 0.21425 0.78059 0.122 0.0
H1555 H 0.2325 0.7736 0.0974 0.0
H1556 H 0.28602 0.78226 0.10251 0.0
H1557 H 0.28263 0.79202 0.13248 0.0
C1558 C 0.25353 0.79499 0.14927 0.0
C1559 C 0.23749 0.79639 0.15635 0.0
C1560 C 0.25554 0.78874 0.13228 0.0
C1561 C 0.22343 0.79108 0.14631 0.0
C1562 C 0.22531 0.78455 0.12946 0.0
C1563 C 0.24336 0.77749 0.10518 0.0
C1564 C 0.25946 0.77724 0.09791 0.0
C1565 C 0.2413 0.78344 0.12227 0.0
C1566 C 0.27351 0.78245 0.10794 0.0
C1567 C 0.27157 0.78801 0.12502 0.0
H1568 H 0.21075 0.81707 0.90808 0.0
H1569 H 0.24215 0.86172 0.92774 0.0
H1570 H 0.25593 0.84633 0.94564 0.0
H1571 H 0.25857 0.82042 0.95608 0.0
H1572 H 0.22452 0.77642 0.93919 0.0
H1573 H 0.21268 0.79121 0.91948 0.0
C1574 C 0.22071 0.82337 0.91621 0.0
C1575 C 0.22553 0.84045 0.91657 0.0
C1576 C 0.22815 0.81455 0.9269 0.0
C1577 C 0.23824 0.84856 0.92731 0.0
C1578 C 0.24612 0.83977 0.93752 0.0
C1579 C 0.24838 0.81403 0.94834 0.0
C1580 C 0.24255 0.79722 0.94928 0.0
C1581 C 0.24104 0.8228 0.93755 0.0
C1582 C 0.22961 0.78921 0.93865 0.0
C1583 C 0.22265 0.79772 0.92744 0.0
H1584 H 0.21385 0.19735 0.9044 0.0
H1585 H 0.25544 0.22521 0.87993 0.0
H1586 H 0.26989 0.23184 0.90656 0.0
H1587 H 0.27039 0.23038 0.93694 0.0
H1588 H 0.22902 0.20215 0.96128 0.0
H1589 H 0.21476 0.19515 0.93456 0.0
C1590 C 0.22609 0.20485 0.90486 0.0
C1591 C 0.2335 0.21081 0.89017 0.0
C1592 C 0.23435 0.20862 0.92021 0.0
C1593 C 0.24941 0.22046 0.89102 0.0
C1594 C 0.25769 0.22428 0.90626 0.0
C1595 C 0.25836 0.22251 0.93636 0.0
C1596 C 0.25078 0.21684 0.95111 0.0
C1597 C 0.25025 0.21848 0.92094 0.0
C1598 C 0.23505 0.20687 0.95017 0.0
C1599 C 0.22691 0.20279 0.93488 0.0
H1600 H 0.81121 0.24229 0.86079 0.0
H1601 H 0.84765 0.28593 0.87082 0.0
H1602 H 0.83965 0.28797 0.90071 0.0
H1603 H 0.8217 0.27799 0.92375 0.0
H1604 H 0.78412 0.23522 0.91368 0.0
H1605 H 0.79357 0.23185 0.88419 0.0
C1606 C 0.81764 0.25201 0.86959 0.0
C1607 C 0.83013 0.26383 0.86366 0.0
C1608 C 0.81278 0.25326 0.88674 0.0
C1609 C 0.83799 0.27669 0.87511 0.0
C1610 C 0.83344 0.27786 0.89219 0.0
C1611 C 0.81549 0.26798 0.91511 0.0
C1612 C 0.80215 0.25694 0.92096 0.0
C1613 C 0.82071 0.26634 0.8981 0.0
C1614 C 0.79453 0.24381 0.90961 0.0
C1615 C 0.79984 0.24195 0.89269 0.0
H1616 H 0.86044 0.80193 0.90904 0.0
H1617 H 0.82058 0.83131 0.91042 0.0
H1618 H 0.80804 0.81929 0.93525 0.0
H1619 H 0.80822 0.80007 0.95632 0.0
H1620 H 0.84848 0.77114 0.95486 0.0
H1621 H 0.8609 0.78323 0.93016 0.0
C1622 C 0.84902 0.80576 0.91475 0.0
C1623 C 0.84147 0.81751 0.90784 0.0
C1624 C 0.84188 0.79879 0.92897 0.0
C1625 C 0.82667 0.8223 0.91546 0.0
C1626 C 0.81948 0.81541 0.92966 0.0
C1627 C 0.81979 0.79652 0.95068 0.0
C1628 C 0.82734 0.78463 0.95741 0.0
C1629 C 0.82696 0.80362 0.9365 0.0
C1630 C 0.84223 0.78004 0.9498 0.0
C1631 C 0.84941 0.78703 0.93573 0.0
H1632 H 0.14391 0.21484 0.23051 0.0
H1633 H 0.115 0.18545 0.19045 0.0
H1634 H 0.09097 0.19936 0.19936 0.0
H1635 H 0.07841 0.22052 0.21792 0.0
H1636 H 0.10761 0.25049 0.25741 0.0
H1637 H 0.13117 0.23561 0.24942 0.0
C1638 C 0.13231 0.21136 0.22382 0.0
C1639 C 0.1313 0.19913 0.2098 0.0
C1640 C 0.11858 0.21956 0.22887 0.0
C1641 C 0.11617 0.19484 0.20125 0.0
C1642 C 0.10241 0.20281 0.20631 0.0
C1643 C 0.08996 0.22386 0.22471 0.0
C1644 C 0.09122 0.23662 0.23823 0.0
C1645 C 0.10354 0.21534 0.21996 0.0
C1646 C 0.10621 0.2406 0.24707 0.0
C1647 C 0.11973 0.23215 0.24246 0.0
H1648 H 0.84407 0.14606 0.23716 0.0
H1649 H 0.80369 0.14232 0.20287 0.0
H1650 H 0.79018 0.1171 0.21371 0.0
H1651 H 0.78988 0.09616 0.23302 0.0
H1652 H 0.83071 0.09997 0.2668 0.0
H1653 H 0.84388 0.12527 0.25618 0.0
C1654 C 0.8323 0.13976 0.23203 0.0
C1655 C 0.82491 0.14607 0.21922 0.0
C1656 C 0.82464 0.12532 0.23829 0.0
C1657 C 0.80966 0.13772 0.21274 0.0
C1658 C 0.80192 0.12331 0.21893 0.0
C1659 C 0.80172 0.10247 0.23797 0.0
C1660 C 0.80926 0.0962 0.25074 0.0
C1661 C 0.80932 0.11698 0.23169 0.0
C1662 C 0.82449 0.10465 0.25717 0.0
C1663 C 0.8321 0.11907 0.25102 0.0
H1664 H 0.9207 0.8356 0.2241 0.0
H1665 H 0.95714 0.86208 0.19254 0.0
H1666 H 0.97931 0.8494 0.20301 0.0
H1667 H 0.98819 0.83009 0.22046 0.0
H1668 H 0.95161 0.80349 0.25176 0.0
H1669 H 0.92963 0.81682 0.24194 0.0
C1670 C 0.9335 0.83868 0.21958 0.0
C1671 C 0.93724 0.84976 0.20755 0.0
C1672 C 0.94615 0.83123 0.2255 0.0
C1673 C 0.9539 0.85357 0.20178 0.0
C1674 C 0.96659 0.84631 0.20774 0.0
C1675 C 0.97543 0.82733 0.22523 0.0
C1676 C 0.97151 0.81575 0.23673 0.0
C1677 C 0.96284 0.83503 0.21951 0.0
C1678 C 0.95489 0.81217 0.24268 0.0
C1679 C 0.94234 0.81985 0.23716 0.0
H1680 H 0.26306 0.87421 0.25132 0.0
H1681 H 0.24592 0.87636 0.20154 0.0
H1682 H 0.25333 0.90632 0.20533 0.0
H1683 H 0.2628 0.93209 0.22364 0.0
H1684 H 0.28004 0.92957 0.27329 0.0
H1685 H 0.27436 0.89961 0.2687 0.0
C1686 C 0.26105 0.88119 0.24122 0.0
C1687 C 0.2538 0.87303 0.22623 0.0
C1688 C 0.2652 0.8984 0.24353 0.0
C1689 C 0.25145 0.8823 0.21324 0.0
C1690 C 0.25562 0.89946 0.21542 0.0
C1691 C 0.26551 0.92497 0.23336 0.0
C1692 C 0.27158 0.93309 0.24889 0.0
C1693 C 0.26223 0.90767 0.23063 0.0
C1694 C 0.27499 0.92366 0.26137 0.0
C1695 C 0.27184 0.90651 0.25873 0.0
H1696 H 0.13746 0.82325 0.84368 0.0
H1697 H 0.13729 0.86245 0.813 0.0
H1698 H 0.11304 0.84708 0.79831 0.0
H1699 H 0.09174 0.82273 0.79421 0.0
H1700 H 0.09168 0.78321 0.82442 0.0
H1701 H 0.11605 0.79855 0.83935 0.0
C1702 C 0.1321 0.82843 0.8338 0.0
C1703 C 0.13921 0.84399 0.82947 0.0
C1704 C 0.1181 0.81948 0.82531 0.0
C1705 C 0.13211 0.85051 0.81661 0.0
C1706 C 0.11822 0.84172 0.80817 0.0
C1707 C 0.09719 0.81736 0.80391 0.0
C1708 C 0.08998 0.80181 0.80813 0.0
C1709 C 0.11115 0.82621 0.81238 0.0
C1710 C 0.09695 0.7952 0.821 0.0
C1711 C 0.11091 0.80394 0.8295 0.0
H1712 H 0.2561 0.16187 0.81562 0.0
H1713 H 0.20325 0.14347 0.81683 0.0
H1714 H 0.20922 0.11525 0.80985 0.0
H1715 H 0.22959 0.09574 0.80405 0.0
H1716 H 0.28239 0.11424 0.80428 0.0
H1717 H 0.27635 0.1425 0.81012 0.0
C1718 C 0.24588 0.1517 0.81424 0.0
C1719 C 0.22926 0.15475 0.81665 0.0
C1720 C 0.24941 0.13553 0.8106 0.0
C1721 C 0.21616 0.14143 0.81503 0.0
C1722 C 0.21956 0.1253 0.81105 0.0
C1723 C 0.23972 0.106 0.80533 0.0
C1724 C 0.25639 0.10299 0.80381 0.0
C1725 C 0.23614 0.12219 0.80891 0.0
C1726 C 0.26946 0.11631 0.80561 0.0
C1727 C 0.26602 0.13245 0.80886 0.0
H1728 H 0.89343 0.24577 0.79415 0.0
H1729 H 0.90703 0.29796 0.80908 0.0
H1730 H 0.93663 0.29514 0.80561 0.0
H1731 H 0.95869 0.27788 0.7983 0.0
H1732 H 0.94524 0.22598 0.78227 0.0
H1733 H 0.91549 0.22859 0.78632 0.0
C1734 C 0.90286 0.25652 0.79667 0.0
C1735 C 0.89801 0.27204 0.80193 0.0
C1736 C 0.91987 0.25484 0.79456 0.0
C1737 C 0.9104 0.28587 0.80503 0.0
C1738 C 0.92734 0.28427 0.80309 0.0
C1739 C 0.9492 0.26714 0.7959 0.0
C1740 C 0.95402 0.25173 0.79025 0.0
C1741 C 0.93221 0.26882 0.79792 0.0
C1742 C 0.94172 0.23793 0.78674 0.0
C1743 C 0.92476 0.23944 0.78903 0.0
H1744 H 0.8575 0.92924 0.84023 0.0
H1745 H 0.81924 0.89307 0.81563 0.0
H1746 H 0.80697 0.91489 0.80525 0.0
H1747 H 0.80687 0.94425 0.80336 0.0
H1748 H 0.84498 0.98047 0.82802 0.0
H1749 H 0.8576 0.95862 0.83803 0.0
C1750 C 0.84651 0.92611 0.83256 0.0
C1751 C 0.83931 0.90951 0.82876 0.0
C1752 C 0.83947 0.93874 0.82663 0.0
C1753 C 0.82506 0.90572 0.81877 0.0
C1754 C 0.818 0.9182 0.81284 0.0
C1755 C 0.81786 0.94737 0.81105 0.0
C1756 C 0.82491 0.96398 0.815 0.0
C1757 C 0.82504 0.93475 0.81677 0.0
C1758 C 0.83936 0.96779 0.82469 0.0
C1759 C 0.84655 0.9553 0.83048 0.0
H1760 H 0.24265 0.13716 0.23023 0.0
H1761 H 0.20822 0.10286 0.19858 0.0
H1762 H 0.21982 0.07981 0.20728 0.0
H1763 H 0.23965 0.06931 0.22404 0.0
H1764 H 0.27394 0.10367 0.25574 0.0
H1765 H 0.2626 0.12671 0.24674 0.0
C1766 C 0.23769 0.12465 0.22519 0.0
C1767 C 0.22455 0.12179 0.21378 0.0
C1768 C 0.24442 0.11143 0.23024 0.0
C1769 C 0.21832 0.10546 0.20738 0.0
C1770 C 0.22494 0.09225 0.21236 0.0
C1771 C 0.24457 0.08184 0.22905 0.0
C1772 C 0.25766 0.08473 0.24053 0.0
C1773 C 0.23795 0.09507 0.22384 0.0
C1774 C 0.26403 0.10108 0.24673 0.0
C1775 C 0.25748 0.11427 0.24166 0.0
H1776 H 0.20709 0.9057 0.83182 0.0
H1777 H 0.2441 0.90996 0.86986 0.0
H1778 H 0.26027 0.93339 0.8578 0.0
H1779 H 0.26362 0.95288 0.83657 0.0
H1780 H 0.22574 0.94876 0.79941 0.0
H1781 H 0.21031 0.92492 0.81095 0.0
C1782 C 0.21873 0.91166 0.83748 0.0
C1783 C 0.22435 0.90605 0.85174 0.0
C1784 C 0.22783 0.92516 0.83062 0.0
C1785 C 0.23946 0.91402 0.85889 0.0
C1786 C 0.2487 0.92743 0.85201 0.0
C1787 C 0.25194 0.94683 0.83108 0.0
C1788 C 0.24593 0.95257 0.81706 0.0
C1789 C 0.24295 0.93317 0.83793 0.0
C1790 C 0.23084 0.94445 0.80999 0.0
C1791 C 0.22192 0.93087 0.81665 0.0
H1792 H 0.14304 0.19855 0.83058 0.0
H1793 H 0.17719 0.22252 0.79517 0.0
H1794 H 0.15373 0.23065 0.78185 0.0
H1795 H 0.12371 0.23247 0.7814 0.0
H1796 H 0.08971 0.20888 0.81711 0.0
H1797 H 0.11296 0.19915 0.82921 0.0
C1798 C 0.14537 0.20543 0.81985 0.0
C1799 C 0.16188 0.20999 0.81396 0.0
C1800 C 0.13186 0.21024 0.81238 0.0
C1801 C 0.16463 0.21889 0.80003 0.0
C1802 C 0.15122 0.22357 0.7924 0.0
C1803 C 0.12136 0.22497 0.79165 0.0
C1804 C 0.10502 0.22145 0.79839 0.0
C1805 C 0.13481 0.21952 0.79863 0.0
C1806 C 0.10221 0.21192 0.81184 0.0
C1807 C 0.11548 0.20631 0.81872 0.0
H1808 H 0.7912 0.16909 0.81283 0.0
H1809 H 0.83277 0.16981 0.84491 0.0
H1810 H 0.83033 0.13983 0.83932 0.0
H1811 H 0.81667 0.11338 0.82485 0.0
H1812 H 0.77523 0.11293 0.79272 0.0
H1813 H 0.77729 0.1428 0.79888 0.0
C1814 C 0.79971 0.16271 0.81866 0.0
C1815 C 0.81218 0.17172 0.82923 0.0
C1816 C 0.79826 0.14549 0.81538 0.0
C1817 C 0.82305 0.1632 0.83671 0.0
C1818 C 0.82169 0.14605 0.8335 0.0
C1819 C 0.80814 0.11985 0.81918 0.0
C1820 C 0.79579 0.11095 0.8084 0.0
C1821 C 0.80941 0.13707 0.82275 0.0
C1822 C 0.7847 0.11947 0.80125 0.0
C1823 C 0.78593 0.13657 0.80469 0.0
H1824 H 0.89144 0.81361 0.83355 0.0
H1825 H 0.9061 0.85877 0.81155 0.0
H1826 H 0.92963 0.84728 0.79665 0.0
H1827 H 0.9469 0.82483 0.7911 0.0
H1828 H 0.93183 0.77996 0.81348 0.0
H1829 H 0.90766 0.79101 0.82708 0.0
C1830 C 0.8997 0.82098 0.82544 0.0
C1831 C 0.89702 0.83709 0.82378 0.0
C1832 C 0.91323 0.81438 0.81707 0.0
C1833 C 0.90785 0.84634 0.81311 0.0
C1834 C 0.92134 0.83979 0.80461 0.0
C1835 C 0.9382 0.81742 0.7988 0.0
C1836 C 0.94128 0.80165 0.80141 0.0
C1837 C 0.92427 0.82388 0.80666 0.0
C1838 C 0.92995 0.79224 0.81151 0.0
C1839 C 0.91606 0.79851 0.81923 0.0
H1840 H 0.81771 0.89657 0.20942 0.0
H1841 H 0.86355 0.90974 0.23671 0.0
H1842 H 0.85326 0.93424 0.25127 0.0
H1843 H 0.83143 0.95223 0.25576 0.0
H1844 H 0.7857 0.93879 0.22833 0.0
H1845 H 0.79585 0.91412 0.21421 0.0
C1846 C 0.82547 0.90476 0.21858 0.0
C1847 C 0.84139 0.90132 0.22195 0.0
C1848 C 0.81953 0.91882 0.22682 0.0
C1849 C 0.85125 0.91209 0.23386 0.0
C1850 C 0.84538 0.92611 0.24219 0.0
C1851 C 0.82364 0.94381 0.24681 0.0
C1852 C 0.80787 0.94737 0.24304 0.0
C1853 C 0.82956 0.92963 0.23872 0.0
C1854 C 0.79799 0.93645 0.23127 0.0
C1855 C 0.80374 0.9223 0.22325 0.0
H1856 H 0.16992 0.81041 0.21649 0.0
H1857 H 0.18704 0.78988 0.25827 0.0
H1858 H 0.15817 0.77932 0.26588 0.0
H1859 H 0.12795 0.77759 0.26181 0.0
H1860 H 0.111 0.79857 0.22029 0.0
H1861 H 0.13993 0.80709 0.21132 0.0
C1862 C 0.16737 0.8035 0.22718 0.0
C1863 C 0.18062 0.8011 0.23689 0.0
C1864 C 0.15076 0.79758 0.23157 0.0
C1865 C 0.17709 0.79198 0.25061 0.0
C1866 C 0.16057 0.78598 0.25501 0.0
C1867 C 0.13062 0.78399 0.25078 0.0
C1868 C 0.11736 0.78753 0.24179 0.0
C1869 C 0.1473 0.789 0.24578 0.0
C1870 C 0.12097 0.79558 0.22735 0.0
C1871 C 0.13752 0.80056 0.22228 0.0
H1872 H 0.88984 0.21131 0.21991 0.0
H1873 H 0.89168 0.24563 0.18337 0.0
H1874 H 0.91824 0.26028 0.19453 0.0
H1875 H 0.941 0.26317 0.21459 0.0
H1876 H 0.93922 0.22805 0.25033 0.0
H1877 H 0.91238 0.21408 0.23968 0.0
C1878 C 0.89598 0.22202 0.21436 0.0
C1879 C 0.88875 0.22734 0.2008 0.0
C1880 C 0.91123 0.2303 0.22075 0.0
C1881 C 0.89696 0.24124 0.1938 0.0
C1882 C 0.91215 0.24962 0.20018 0.0
C1883 C 0.9348 0.25239 0.21997 0.0
C1884 C 0.94214 0.24673 0.2333 0.0
C1885 C 0.91943 0.24422 0.21361 0.0
C1886 C 0.93377 0.23288 0.24027 0.0
C1887 C 0.91847 0.22478 0.2341 0.0
H1888 H 0.22015 0.72011 0.6667 0.0
H1889 H 0.24049 0.6744 0.65807 0.0
H1890 H 0.25524 0.68306 0.63261 0.0
H1891 H 0.26117 0.70309 0.612 0.0
H1892 H 0.24094 0.74885 0.62119 0.0
H1893 H 0.22724 0.74059 0.64715 0.0
C1894 C 0.22785 0.71203 0.65932 0.0
C1895 C 0.2291 0.69657 0.66427 0.0
C1896 C 0.23623 0.71705 0.6447 0.0
C1897 C 0.23927 0.68636 0.65457 0.0
C1898 C 0.24769 0.69129 0.63997 0.0
C1899 C 0.25395 0.71135 0.6198 0.0
C1900 C 0.25195 0.7265 0.61451 0.0
C1901 C 0.24611 0.70654 0.63481 0.0
C1902 C 0.24242 0.73698 0.62474 0.0
C1903 C 0.23465 0.73231 0.63965 0.0
H1904 H 0.83596 0.72824 0.63786 0.0
H1905 H 0.8018 0.68302 0.62777 0.0
H1906 H 0.79479 0.69116 0.60094 0.0
H1907 H 0.79734 0.71182 0.58128 0.0
H1908 H 0.8343 0.75547 0.58977 0.0
H1909 H 0.84104 0.74734 0.61642 0.0
C1910 C 0.82703 0.72018 0.62971 0.0
C1911 C 0.81922 0.70519 0.63477 0.0
C1912 C 0.82347 0.72471 0.61413 0.0
C1913 C 0.80791 0.69465 0.62407 0.0
C1914 C 0.80389 0.69932 0.60878 0.0
C1915 C 0.80718 0.71943 0.58865 0.0
C1916 C 0.815 0.73447 0.58346 0.0
C1917 C 0.8115 0.7144 0.60375 0.0
C1918 C 0.82757 0.74413 0.59354 0.0
C1919 C 0.83159 0.73942 0.60878 0.0
H1920 H 0.83191 0.33362 0.67047 0.0
H1921 H 0.87859 0.31412 0.6626 0.0
H1922 H 0.86881 0.29881 0.63583 0.0
H1923 H 0.84739 0.29195 0.61405 0.0
H1924 H 0.80112 0.31209 0.62203 0.0
H1925 H 0.81041 0.32623 0.64936 0.0
C1926 C 0.83995 0.32595 0.66299 0.0
C1927 C 0.85598 0.32507 0.66855 0.0
C1928 C 0.83436 0.31738 0.64756 0.0
C1929 C 0.8662 0.31506 0.65862 0.0
C1930 C 0.86063 0.30632 0.64329 0.0
C1931 C 0.83931 0.29931 0.62187 0.0
C1932 C 0.82365 0.30107 0.616 0.0
C1933 C 0.84479 0.30752 0.63755 0.0
C1934 C 0.81333 0.31075 0.62618 0.0
C1935 C 0.8186 0.31878 0.64183 0.0
H1936 H 0.26188 0.29065 0.65892 0.0
H1937 H 0.22978 0.32623 0.65207 0.0
H1938 H 0.2308 0.31828 0.62163 0.0
H1939 H 0.24152 0.30179 0.59685 0.0
H1940 H 0.27291 0.26566 0.60374 0.0
H1941 H 0.27132 0.27309 0.63427 0.0
C1942 C 0.25509 0.29664 0.65076 0.0
C1943 C 0.24588 0.3091 0.65772 0.0
C1944 C 0.25557 0.29187 0.63328 0.0
C1945 C 0.23698 0.31661 0.64702 0.0
C1946 C 0.23758 0.31209 0.62961 0.0
C1947 C 0.24796 0.29554 0.60508 0.0
C1948 C 0.25736 0.28325 0.5981 0.0
C1949 C 0.24693 0.29984 0.62259 0.0
C1950 C 0.26549 0.27508 0.60886 0.0
C1951 C 0.26467 0.27939 0.62629 0.0
H1952 H 0.24474 0.31229 0.38386 0.0
H1953 H 0.29673 0.33388 0.38743 0.0
H1954 H 0.29717 0.32664 0.41596 0.0
H1955 H 0.28316 0.31322 0.43946 0.0
H1956 H 0.23152 0.29078 0.43566 0.0
H1957 H 0.23053 0.2994 0.40766 0.0
C1958 C 0.25614 0.31553 0.39092 0.0
C1959 C 0.27067 0.32363 0.3835 0.0
C1960 C 0.25636 0.31119 0.40727 0.0
C1961 C 0.28536 0.32765 0.39281 0.0
C1962 C 0.28563 0.32352 0.40914 0.0
C1963 C 0.27161 0.31049 0.43261 0.0
C1964 C 0.2574 0.3015 0.43962 0.0
C1965 C 0.27125 0.3152 0.41645 0.0
C1966 C 0.24262 0.29768 0.43047 0.0
C1967 C 0.24206 0.30259 0.41449 0.0
H1968 H 0.19974 0.72433 0.41555 0.0
H1969 H 0.21801 0.67756 0.4059 0.0
H1970 H 0.23569 0.68503 0.43043 0.0
H1971 H 0.24541 0.7046 0.45507 0.0
H1972 H 0.22688 0.7512 0.4646 0.0
H1973 H 0.20974 0.74396 0.4397 0.0
C1974 C 0.20762 0.71576 0.41874 0.0
C1975 C 0.20751 0.7004 0.40888 0.0
C1976 C 0.21765 0.72007 0.4329 0.0
C1977 C 0.21781 0.68947 0.41327 0.0
C1978 C 0.22793 0.69372 0.4273 0.0
C1979 C 0.23773 0.71322 0.45159 0.0
C1980 C 0.23736 0.72839 0.46169 0.0
C1981 C 0.22788 0.70896 0.43726 0.0
C1982 C 0.2272 0.73936 0.45716 0.0
C1983 C 0.21747 0.73526 0.44288 0.0
H1984 H 0.80516 0.77792 0.37177 0.0
H1985 H 0.82609 0.73261 0.36301 0.0
H1986 H 0.81988 0.72798 0.39235 0.0
H1987 H 0.81038 0.73804 0.42115 0.0
H1988 H 0.79001 0.78373 0.4295 0.0
H1989 H 0.79424 0.78705 0.39976 0.0
C1990 C 0.80823 0.76695 0.37624 0.0
C1991 C 0.8159 0.75554 0.36518 0.0
C1992 C 0.80492 0.76456 0.39315 0.0
C1993 C 0.81979 0.74137 0.37113 0.0
C1994 C 0.81643 0.73883 0.38799 0.0
C1995 C 0.80673 0.74861 0.41638 0.0
C1996 C 0.80018 0.76077 0.42756 0.0
C1997 C 0.80924 0.75049 0.39918 0.0
C1998 C 0.79546 0.7744 0.42123 0.0
C1999 C 0.79778 0.77628 0.4042 0.0
H2000 H 0.82902 0.3163 0.40486 0.0
H2001 H 0.85723 0.35726 0.43521 0.0
H2002 H 0.8469 0.34542 0.46077 0.0
H2003 H 0.83103 0.32276 0.47446 0.0
H2004 H 0.80302 0.28168 0.44414 0.0
H2005 H 0.81226 0.29416 0.41863 0.0
C2006 C 0.8328 0.32273 0.41706 0.0
C2007 C 0.84393 0.33764 0.41807 0.0
C2008 C 0.82699 0.31574 0.43173 0.0
C2009 C 0.84872 0.34575 0.43402 0.0
C2010 C 0.84284 0.33897 0.44867 0.0
C2011 C 0.82677 0.31663 0.46229 0.0
C2012 C 0.8164 0.30126 0.46124 0.0
C2013 C 0.83214 0.32387 0.44767 0.0
C2014 C 0.8112 0.2934 0.44532 0.0
C2015 C 0.8164 0.30057 0.43072 0.0
H2016 H 0.12469 0.69947 0.69894 0.0
H2017 H 0.15105 0.7148 0.74527 0.0
H2018 H 0.127 0.72697 0.75791 0.0
H2019 H 0.09901 0.73444 0.75531 0.0
H2020 H 0.07261 0.71854 0.70906 0.0
H2021 H 0.09627 0.70564 0.69685 0.0
C2022 C 0.12517 0.70539 0.71184 0.0
C2023 C 0.13971 0.70627 0.72109 0.0
C2024 C 0.11135 0.71242 0.719 0.0
C2025 C 0.14004 0.71393 0.73783 0.0
C2026 C 0.1263 0.72094 0.74506 0.0
C2027 C 0.09832 0.72797 0.74264 0.0
C2028 C 0.08405 0.72763 0.73309 0.0
C2029 C 0.11195 0.72042 0.7357 0.0
C2030 C 0.08353 0.71932 0.71661 0.0
C2031 C 0.09702 0.71182 0.70963 0.0
H2032 H 0.8413 0.64326 0.72518 0.0
H2033 H 0.80499 0.62944 0.68614 0.0
H2034 H 0.79058 0.60756 0.70166 0.0
H2035 H 0.7888 0.59193 0.72598 0.0
H2036 H 0.82609 0.60518 0.76417 0.0
H2037 H 0.83939 0.62793 0.74945 0.0
C2038 C 0.83019 0.63553 0.72007 0.0
C2039 C 0.82427 0.63797 0.70449 0.0
C2040 C 0.8221 0.6229 0.72894 0.0
C2041 C 0.80985 0.62781 0.69808 0.0
C2042 C 0.80161 0.61529 0.70695 0.0
C2043 C 0.79989 0.59973 0.73104 0.0
C2044 C 0.80639 0.5968 0.7462 0.0
C2045 C 0.80772 0.61263 0.72232 0.0
C2046 C 0.82062 0.60725 0.7527 0.0
C2047 C 0.82834 0.6202 0.74421 0.0
H2048 H 0.92046 0.32124 0.74652 0.0
H2049 H 0.94861 0.34525 0.70715 0.0
H2050 H 0.97325 0.33348 0.7131 0.0
H2051 H 0.98678 0.3161 0.7293 0.0
H2052 H 0.95881 0.29253 0.76897 0.0
H2053 H 0.93416 0.30443 0.76317 0.0
C2054 C 0.93199 0.32392 0.73925 0.0
C2055 C 0.93266 0.33407 0.72637 0.0
C2056 C 0.94615 0.31718 0.7428 0.0
C2057 C 0.94774 0.33749 0.71715 0.0
C2058 C 0.96184 0.33074 0.72052 0.0
C2059 C 0.97525 0.31355 0.7366 0.0
C2060 C 0.97458 0.30347 0.74951 0.0
C2061 C 0.96117 0.32051 0.73325 0.0
C2062 C 0.95965 0.30039 0.75905 0.0
C2063 C 0.94554 0.30713 0.7557 0.0
H2064 H 0.25866 0.38136 0.76057 0.0
H2065 H 0.27991 0.37961 0.71004 0.0
H2066 H 0.28919 0.40938 0.7145 0.0
H2067 H 0.28963 0.43625 0.73231 0.0
H2068 H 0.26675 0.43762 0.78209 0.0
H2069 H 0.25974 0.40764 0.7784 0.0
C2070 C 0.26551 0.38741 0.75057 0.0
C2071 C 0.26858 0.37825 0.735 0.0
C2072 C 0.27037 0.40451 0.75306 0.0
C2073 C 0.27735 0.38637 0.72215 0.0
C2074 C 0.28263 0.4034 0.72467 0.0
C2075 C 0.28323 0.42989 0.74233 0.0
C2076 C 0.27857 0.43903 0.75738 0.0
C2077 C 0.27895 0.41265 0.73999 0.0
C2078 C 0.27024 0.43078 0.77032 0.0
C2079 C 0.26629 0.41367 0.76824 0.0
H2080 H 0.16847 0.31994 0.29312 0.0
H2081 H 0.15454 0.35476 0.33429 0.0
H2082 H 0.12513 0.34732 0.32691 0.0
H2083 H 0.10336 0.33088 0.30868 0.0
H2084 H 0.1176 0.29592 0.26782 0.0
H2085 H 0.14692 0.30359 0.27509 0.0
C2086 C 0.15903 0.32594 0.3005 0.0
C2087 C 0.16373 0.33788 0.31425 0.0
C2088 C 0.14219 0.32161 0.2962 0.0
C2089 C 0.15129 0.34552 0.32364 0.0
C2090 C 0.13446 0.34127 0.31943 0.0
C2091 C 0.11288 0.32488 0.30145 0.0
C2092 C 0.1083 0.31291 0.28767 0.0
C2093 C 0.12976 0.3293 0.30575 0.0
C2094 C 0.12081 0.30536 0.27831 0.0
C2095 C 0.13757 0.30967 0.28252 0.0
H2096 H 0.20204 0.63647 0.31694 0.0
H2097 H 0.1759 0.61167 0.35686 0.0
H2098 H 0.18476 0.58576 0.34441 0.0
H2099 H 0.201 0.57041 0.32291 0.0
H2100 H 0.22709 0.59514 0.28299 0.0
H2101 H 0.21698 0.62075 0.29457 0.0
C2102 C 0.19821 0.62538 0.32288 0.0
C2103 C 0.18843 0.62604 0.33788 0.0
C2104 C 0.20332 0.6105 0.31564 0.0
C2105 C 0.18346 0.61152 0.34532 0.0
C2106 C 0.18854 0.5967 0.33823 0.0
C2107 C 0.20442 0.58141 0.31674 0.0
C2108 C 0.21483 0.58092 0.30218 0.0
C2109 C 0.19864 0.59609 0.32352 0.0
C2110 C 0.21898 0.59518 0.29415 0.0
C2111 C 0.2133 0.60985 0.30082 0.0
H2112 H 0.89446 0.7953 0.32501 0.0
H2113 H 0.8786 0.75333 0.28851 0.0
H2114 H 0.90775 0.74983 0.28203 0.0
H2115 H 0.93772 0.75932 0.28599 0.0
H2116 H 0.95352 0.80058 0.32337 0.0
H2117 H 0.92439 0.8038 0.33012 0.0
C2118 C 0.89738 0.78538 0.31564 0.0
C2119 C 0.88439 0.77467 0.30717 0.0
C2120 C 0.91415 0.78334 0.31209 0.0
C2121 C 0.88837 0.76176 0.2952 0.0
C2122 C 0.90503 0.75976 0.29147 0.0
C2123 C 0.93482 0.76884 0.29583 0.0
C2124 C 0.94784 0.77974 0.30408 0.0
C2125 C 0.91802 0.77053 0.29978 0.0
C2126 C 0.94378 0.79218 0.3166 0.0
C2127 C 0.92712 0.79399 0.32054 0.0
H2128 H 0.82585 0.3994 0.31271 0.0
H2129 H 0.85927 0.43082 0.34776 0.0
H2130 H 0.85079 0.45517 0.33843 0.0
H2131 H 0.83359 0.46761 0.32058 0.0
H2132 H 0.80043 0.43617 0.28532 0.0
H2133 H 0.80897 0.41182 0.2946 0.0
C2134 C 0.83131 0.41157 0.31831 0.0
C2135 C 0.84319 0.41324 0.33094 0.0
C2136 C 0.82635 0.42555 0.3129 0.0
C2137 C 0.85011 0.42913 0.33803 0.0
C2138 C 0.84525 0.44309 0.3327 0.0
C2139 C 0.82833 0.45544 0.31484 0.0
C2140 C 0.81632 0.45375 0.30234 0.0
C2141 C 0.83336 0.44145 0.32017 0.0
C2142 C 0.80949 0.43785 0.29516 0.0
C2143 C 0.81445 0.4239 0.30038 0.0
H2144 H 0.22439 0.61252 0.71104 0.0
H2145 H 0.23949 0.65049 0.75191 0.0
H2146 H 0.25342 0.63136 0.76498 0.0
H2147 H 0.26133 0.60378 0.76486 0.0
H2148 H 0.24667 0.56601 0.72373 0.0
H2149 H 0.23267 0.58513 0.71067 0.0
C2150 C 0.23072 0.61662 0.72281 0.0
C2151 C 0.23083 0.63292 0.73049 0.0
C2152 C 0.23882 0.60558 0.73021 0.0
C2153 C 0.2392 0.63803 0.7457 0.0
C2154 C 0.24716 0.62709 0.75321 0.0
C2155 C 0.25498 0.59973 0.75309 0.0
C2156 C 0.25501 0.58349 0.7453 0.0
C2157 C 0.24703 0.61083 0.7456 0.0
C2158 C 0.24695 0.57849 0.72991 0.0
C2159 C 0.23888 0.58939 0.72248 0.0
H2160 H 0.2658 0.38036 0.30531 0.0
H2161 H 0.22929 0.38429 0.34603 0.0
H2162 H 0.22462 0.41106 0.33874 0.0
H2163 H 0.23136 0.4336 0.32085 0.0
H2164 H 0.26727 0.42876 0.27963 0.0
H2165 H 0.2718 0.40216 0.28703 0.0
C2166 C 0.25682 0.38709 0.31258 0.0
C2167 C 0.24782 0.38037 0.3261 0.0
C2168 C 0.25413 0.40232 0.30822 0.0
C2169 C 0.23615 0.38912 0.33537 0.0
C2170 C 0.23357 0.40446 0.33128 0.0
C2171 C 0.24014 0.42666 0.31353 0.0
C2172 C 0.24897 0.4331 0.29972 0.0
C2173 C 0.24252 0.41121 0.31773 0.0
C2174 C 0.26024 0.42398 0.29023 0.0
C2175 C 0.26288 0.4088 0.29449 0.0
H2176 H 0.13794 0.71436 0.3286 0.0
H2177 H 0.10326 0.70651 0.37047 0.0
H2178 H 0.08177 0.71662 0.35603 0.0
H2179 H 0.07321 0.7289 0.33214 0.0
H2180 H 0.10804 0.73736 0.29058 0.0
H2181 H 0.129 0.7256 0.30419 0.0
C2182 C 0.12564 0.71474 0.33452 0.0
C2183 C 0.12227 0.70978 0.35065 0.0
C2184 C 0.11336 0.7207 0.32622 0.0
C2185 C 0.10624 0.7103 0.3581 0.0
C2186 C 0.09393 0.71611 0.34987 0.0
C2187 C 0.0854 0.72819 0.32609 0.0
C2188 C 0.08909 0.73406 0.31042 0.0
C2189 C 0.09744 0.72157 0.33405 0.0
C2190 C 0.10484 0.7328 0.30258 0.0
C2191 C 0.11686 0.72616 0.3104 0.0
H2192 H 0.81826 0.65624 0.34627 0.0
H2193 H 0.80027 0.67271 0.30242 0.0
H2194 H 0.79525 0.6444 0.28877 0.0
H2195 H 0.79618 0.61499 0.28908 0.0
H2196 H 0.81414 0.59835 0.33278 0.0
H2197 H 0.8188 0.62667 0.34674 0.0
C2198 C 0.81321 0.65364 0.33375 0.0
C2199 C 0.80971 0.66662 0.32539 0.0
C2200 C 0.81033 0.6373 0.32593 0.0
C2201 C 0.80311 0.66299 0.30917 0.0
C2202 C 0.80024 0.64679 0.30132 0.0
C2203 C 0.80123 0.61759 0.30161 0.0
C2204 C 0.80489 0.60461 0.30985 0.0
C2205 C 0.80388 0.63387 0.30954 0.0
C2206 C 0.81112 0.60812 0.32622 0.0
C2207 C 0.81385 0.62431 0.33417 0.0
H2208 H 0.90299 0.32212 0.33889 0.0
H2209 H 0.90564 0.3633 0.31037 0.0
H2210 H 0.93036 0.35499 0.29479 0.0
H2211 H 0.95175 0.33635 0.28986 0.0
H2212 H 0.94849 0.29525 0.31857 0.0
H2213 H 0.92356 0.30332 0.33354 0.0
C2214 C 0.90891 0.32931 0.32925 0.0
C2215 C 0.90245 0.34336 0.32588 0.0
C2216 C 0.9231 0.32452 0.32042 0.0
C2217 C 0.91033 0.35244 0.31327 0.0
C2218 C 0.92449 0.34771 0.30436 0.0
C2219 C 0.94548 0.3291 0.29929 0.0
C2220 C 0.95211 0.31531 0.30321 0.0
C2221 C 0.93105 0.3338 0.30789 0.0
C2222 C 0.94388 0.3061 0.31554 0.0
C2223 C 0.92955 0.31064 0.32405 0.0
H2224 H 0.84809 0.41008 0.74906 0.0
H2225 H 0.80305 0.38983 0.72219 0.0
H2226 H 0.79044 0.41415 0.73281 0.0
H2227 H 0.79238 0.44151 0.74896 0.0
H2228 H 0.8372 0.46211 0.77586 0.0
H2229 H 0.84963 0.43725 0.76618 0.0
C2230 C 0.83549 0.41095 0.74561 0.0
C2231 C 0.8266 0.39817 0.73476 0.0
C2232 C 0.82827 0.42504 0.75174 0.0
C2233 C 0.81024 0.39949 0.73046 0.0
C2234 C 0.80299 0.41341 0.73651 0.0
C2235 C 0.80491 0.44058 0.75263 0.0
C2236 C 0.81392 0.45366 0.76296 0.0
C2237 C 0.81195 0.42633 0.747 0.0
C2238 C 0.82999 0.45216 0.76794 0.0
C2239 C 0.83712 0.43799 0.76235 0.0
H2240 H 0.17713 0.31604 0.72031 0.0
H2241 H 0.19623 0.28998 0.75674 0.0
H2242 H 0.16785 0.27709 0.7633 0.0
H2243 H 0.13746 0.27439 0.75977 0.0
H2244 H 0.11849 0.30104 0.72381 0.0
H2245 H 0.14699 0.31238 0.71586 0.0
C2246 C 0.17513 0.30744 0.72959 0.0
C2247 C 0.18879 0.30409 0.7381 0.0
C2248 C 0.15878 0.30021 0.73342 0.0
C2249 C 0.18594 0.29284 0.75003 0.0
C2250 C 0.16971 0.28549 0.75383 0.0
C2251 C 0.13959 0.2827 0.75021 0.0
C2252 C 0.12588 0.28692 0.74245 0.0
C2253 C 0.15601 0.28931 0.74581 0.0
C2254 C 0.12883 0.29748 0.72988 0.0
C2255 C 0.14512 0.30404 0.72539 0.0
H2256 H 0.87735 0.722 0.71088 0.0
H2257 H 0.90248 0.69474 0.67037 0.0
H2258 H 0.9296 0.70715 0.68187 0.0
H2259 H 0.94609 0.72451 0.70441 0.0
H2260 H 0.9207 0.75102 0.74524 0.0
H2261 H 0.89373 0.74005 0.73266 0.0
C2262 C 0.88874 0.71887 0.70444 0.0
C2263 C 0.88785 0.70741 0.6898 0.0
C2264 C 0.90425 0.72581 0.71127 0.0
C2265 C 0.90278 0.70349 0.68168 0.0
C2266 C 0.9183 0.71056 0.68827 0.0
C2267 C 0.93465 0.72804 0.71042 0.0
C2268 C 0.93536 0.73848 0.72576 0.0
C2269 C 0.91917 0.72155 0.70319 0.0
C2270 C 0.92044 0.74282 0.73353 0.0
C2271 C 0.90504 0.73661 0.72631 0.0
H2272 H 0.71152 0.21581 0.65382 0.0
H2273 H 0.74822 0.18434 0.65963 0.0
H2274 H 0.76484 0.19496 0.636 0.0
H2275 H 0.76908 0.21355 0.61387 0.0
H2276 H 0.73185 0.24451 0.60824 0.0
H2277 H 0.71544 0.23383 0.63176 0.0
C2278 C 0.72314 0.21122 0.64996 0.0
C2279 C 0.72859 0.19929 0.65854 0.0
C2280 C 0.73262 0.21738 0.63643 0.0
C2281 C 0.7437 0.19352 0.65327 0.0
C2282 C 0.75323 0.1996 0.63976 0.0
C2283 C 0.75732 0.21786 0.61773 0.0
C2284 C 0.75181 0.22994 0.60936 0.0
C2285 C 0.74782 0.21156 0.63126 0.0
C2286 C 0.73659 0.23548 0.61463 0.0
C2287 C 0.72711 0.2293 0.62801 0.0
H2288 H 0.32322 0.19866 0.62033 0.0
H2289 H 0.29815 0.23478 0.65122 0.0
H2290 H 0.2929 0.24707 0.62625 0.0
H2291 H 0.29534 0.24754 0.59568 0.0
H2292 H 0.32011 0.21136 0.56466 0.0
H2293 H 0.32551 0.19905 0.58967 0.0
C2294 C 0.3166 0.20922 0.62161 0.0
C2295 C 0.31111 0.21579 0.63764 0.0
C2296 C 0.31359 0.21622 0.60719 0.0
C2297 C 0.30251 0.22945 0.63905 0.0
C2298 C 0.29952 0.23652 0.62478 0.0
C2299 C 0.30208 0.23707 0.59442 0.0
C2300 C 0.30742 0.23043 0.57838 0.0
C2301 C 0.30504 0.23003 0.60881 0.0
C2302 C 0.31582 0.21664 0.57689 0.0
C2303 C 0.31894 0.20963 0.59117 0.0
H2304 H 0.3625 0.8016 0.66161 0.0
H2305 H 0.3499 0.84843 0.6523 0.0
H2306 H 0.33705 0.83562 0.62601 0.0
H2307 H 0.32791 0.8109 0.60646 0.0
H2308 H 0.34052 0.76408 0.61539 0.0
H2309 H 0.35496 0.77712 0.64099 0.0
C2310 C 0.35707 0.80904 0.65377 0.0
C2311 C 0.35705 0.82593 0.65903 0.0
C2312 C 0.34963 0.80159 0.63865 0.0
C2313 C 0.35007 0.8354 0.64862 0.0
C2314 C 0.34265 0.82808 0.63359 0.0
C2315 C 0.33384 0.80358 0.61404 0.0
C2316 C 0.33303 0.78657 0.60922 0.0
C2317 C 0.3421 0.81115 0.62864 0.0
C2318 C 0.34102 0.77722 0.6189 0.0
C2319 C 0.3492 0.78466 0.63354 0.0
H2320 H 0.77719 0.80869 0.6609 0.0
H2321 H 0.72394 0.79272 0.66412 0.0
H2322 H 0.7238 0.78307 0.63392 0.0
H2323 H 0.73888 0.77954 0.60641 0.0
H2324 H 0.79178 0.79707 0.60321 0.0
H2325 H 0.79205 0.80571 0.63359 0.0
C2326 C 0.76556 0.80303 0.65501 0.0
C2327 C 0.75062 0.80136 0.66473 0.0
C2328 C 0.76553 0.79782 0.63764 0.0
C2329 C 0.73561 0.79418 0.65689 0.0
C2330 C 0.73553 0.78864 0.63963 0.0
C2331 C 0.75043 0.78521 0.61246 0.0
C2332 C 0.76528 0.78771 0.60273 0.0
C2333 C 0.75041 0.79044 0.62987 0.0
C2334 C 0.78019 0.79516 0.61054 0.0
C2335 C 0.78036 0.80005 0.62787 0.0
H2336 H 0.73169 0.81077 0.39324 0.0
H2337 H 0.70789 0.8457 0.42719 0.0
H2338 H 0.7179 0.83513 0.45132 0.0
H2339 H 0.73284 0.81552 0.46281 0.0
H2340 H 0.75642 0.78047 0.42886 0.0
H2341 H 0.74698 0.79147 0.40471 0.0
C2342 C 0.72875 0.81613 0.40591 0.0
C2343 C 0.71905 0.829 0.40839 0.0
C2344 C 0.73443 0.80991 0.41974 0.0
C2345 C 0.71531 0.83576 0.42491 0.0
C2346 C 0.72103 0.82972 0.43873 0.0
C2347 C 0.73602 0.81039 0.45012 0.0
C2348 C 0.74526 0.79717 0.44763 0.0
C2349 C 0.73052 0.81675 0.43629 0.0
C2350 C 0.74913 0.79051 0.43111 0.0
C2351 C 0.74381 0.79684 0.41729 0.0
H2352 H 0.69524 0.21626 0.42604 0.0
H2353 H 0.73488 0.19517 0.39722 0.0
H2354 H 0.75405 0.20518 0.42024 0.0
H2355 H 0.75961 0.22023 0.44851 0.0
H2356 H 0.72008 0.24191 0.47679 0.0
H2357 H 0.70081 0.23143 0.45398 0.0
C2358 C 0.70805 0.21379 0.4248 0.0
C2359 C 0.71359 0.20494 0.40995 0.0
C2360 C 0.71904 0.21975 0.43796 0.0
C2361 C 0.73029 0.20198 0.40851 0.0
C2362 C 0.74126 0.20768 0.42167 0.0
C2363 C 0.74675 0.22256 0.44967 0.0
C2364 C 0.74125 0.23182 0.46426 0.0
C2365 C 0.73578 0.21661 0.43644 0.0
C2366 C 0.72462 0.23494 0.46558 0.0
C2367 C 0.71359 0.2289 0.45259 0.0
H2368 H 0.31395 0.2777 0.36691 0.0
H2369 H 0.33738 0.23391 0.36341 0.0
H2370 H 0.32982 0.2311 0.39284 0.0
H2371 H 0.31755 0.24179 0.42006 0.0
H2372 H 0.29522 0.28623 0.42367 0.0
H2373 H 0.30153 0.28822 0.39385 0.0
C2374 C 0.31736 0.26749 0.37256 0.0
C2375 C 0.32589 0.25581 0.3628 0.0
C2376 C 0.31332 0.26618 0.38961 0.0
C2377 C 0.33029 0.24273 0.37037 0.0
C2378 C 0.32616 0.24124 0.38731 0.0
C2379 C 0.31397 0.25181 0.41425 0.0
C2380 C 0.30604 0.26391 0.42406 0.0
C2381 C 0.31775 0.25294 0.39708 0.0
C2382 C 0.30156 0.27692 0.41642 0.0
C2383 C 0.3051 0.27802 0.39936 0.0
H2384 H 0.32555 0.82652 0.41743 0.0
H2385 H 0.3456 0.78292 0.39539 0.0
H2386 H 0.33673 0.76954 0.42033 0.0
H2387 H 0.3234 0.77011 0.44844 0.0
H2388 H 0.30356 0.81363 0.47087 0.0
H2389 H 0.31206 0.82703 0.44571 0.0
C2390 C 0.32793 0.81408 0.41807 0.0
C2391 C 0.33625 0.80577 0.40453 0.0
C2392 C 0.32282 0.8064 0.43252 0.0
C2393 C 0.33924 0.78965 0.4056 0.0
C2394 C 0.33418 0.78195 0.41988 0.0
C2395 C 0.32107 0.78259 0.4479 0.0
C2396 C 0.3129 0.79085 0.46154 0.0
C2397 C 0.32603 0.79023 0.43344 0.0
C2398 C 0.3097 0.80691 0.46048 0.0
C2399 C 0.31462 0.81462 0.44613 0.0
H2400 H 0.62289 0.20182 0.68863 0.0
H2401 H 0.64729 0.21346 0.73638 0.0
H2402 H 0.62326 0.22579 0.74882 0.0
H2403 H 0.59589 0.23438 0.74577 0.0
H2404 H 0.57134 0.2221 0.69811 0.0
H2405 H 0.59502 0.20916 0.68597 0.0
C2406 C 0.62294 0.20697 0.70179 0.0
C2407 C 0.63693 0.20677 0.71152 0.0
C2408 C 0.60913 0.21409 0.70885 0.0
C2409 C 0.63671 0.21344 0.72858 0.0
C2410 C 0.62299 0.22054 0.7357 0.0
C2411 C 0.59559 0.22868 0.73279 0.0
C2412 C 0.58185 0.22936 0.72286 0.0
C2413 C 0.6092 0.22108 0.7259 0.0
C2414 C 0.58185 0.22208 0.70598 0.0
C2415 C 0.59535 0.21455 0.69904 0.0
H2416 H 0.31408 0.15245 0.72294 0.0
H2417 H 0.32245 0.1239 0.67508 0.0
H2418 H 0.31461 0.09844 0.68781 0.0
H2419 H 0.30717 0.08438 0.71295 0.0
H2420 H 0.2984 0.11308 0.76063 0.0
H2421 H 0.30486 0.1384 0.74756 0.0
C2422 C 0.31408 0.14067 0.71524 0.0
C2423 C 0.31897 0.1401 0.69811 0.0
C2424 C 0.30969 0.1261 0.72265 0.0
C2425 C 0.31876 0.12471 0.68831 0.0
C2426 C 0.31434 0.11013 0.69559 0.0
C2427 C 0.30643 0.09615 0.72044 0.0
C2428 C 0.30251 0.09681 0.7378 0.0
C2429 C 0.31004 0.11069 0.71281 0.0
C2430 C 0.30176 0.11221 0.74733 0.0
C2431 C 0.30533 0.1267 0.73984 0.0
H2432 H 0.43412 0.83404 0.73376 0.0
H2433 H 0.40785 0.78725 0.71225 0.0
H2434 H 0.43213 0.77395 0.71615 0.0
H2435 H 0.46053 0.7756 0.72591 0.0
H2436 H 0.48529 0.8217 0.75115 0.0
H2437 H 0.46219 0.83535 0.74494 0.0
C2438 C 0.43378 0.82095 0.72989 0.0
C2439 C 0.4193 0.81162 0.72269 0.0
C2440 C 0.44758 0.81329 0.73266 0.0
C2441 C 0.41887 0.79465 0.7179 0.0
C2442 C 0.43275 0.78706 0.72007 0.0
C2443 C 0.46089 0.78857 0.73035 0.0
C2444 C 0.47487 0.79747 0.73899 0.0
C2445 C 0.44713 0.79624 0.72756 0.0
C2446 C 0.47504 0.81445 0.74411 0.0
C2447 C 0.46168 0.8223 0.74077 0.0
H2448 H 0.74726 0.87928 0.76181 0.0
H2449 H 0.77579 0.87639 0.71485 0.0
H2450 H 0.78359 0.90633 0.71852 0.0
H2451 H 0.78164 0.93347 0.73477 0.0
H2452 H 0.75274 0.93598 0.78147 0.0
H2453 H 0.74567 0.90605 0.77811 0.0
C2454 C 0.75526 0.88515 0.75238 0.0
C2455 C 0.76091 0.87557 0.73807 0.0
C2456 C 0.75954 0.90234 0.75447 0.0
C2457 C 0.77122 0.88345 0.72599 0.0
C2458 C 0.77569 0.90058 0.72807 0.0
C2459 C 0.77389 0.92742 0.74424 0.0
C2460 C 0.76761 0.93693 0.75827 0.0
C2461 C 0.76983 0.91016 0.74221 0.0
C2462 C 0.75749 0.92896 0.77041 0.0
C2463 C 0.75352 0.91184 0.76856 0.0
H2464 H 0.64633 0.80595 0.311 0.0
H2465 H 0.62114 0.82956 0.35401 0.0
H2466 H 0.59408 0.81647 0.34299 0.0
H2467 H 0.57757 0.80044 0.31994 0.0
H2468 H 0.60272 0.77683 0.27694 0.0
H2469 H 0.62982 0.78797 0.28912 0.0
C2470 C 0.63494 0.80809 0.31808 0.0
C2471 C 0.63578 0.81886 0.33322 0.0
C2472 C 0.61941 0.80071 0.31158 0.0
C2473 C 0.62088 0.8214 0.34227 0.0
C2474 C 0.60538 0.81396 0.33596 0.0
C2475 C 0.58896 0.79745 0.31337 0.0
C2476 C 0.58811 0.78795 0.29747 0.0
C2477 C 0.60449 0.8039 0.32044 0.0
C2478 C 0.60302 0.78438 0.28905 0.0
C2479 C 0.61852 0.79067 0.29605 0.0
H2480 H 0.701 0.12559 0.34968 0.0
H2481 H 0.72405 0.15535 0.31202 0.0
H2482 H 0.73819 0.13261 0.29911 0.0
H2483 H 0.74473 0.10455 0.29908 0.0
H2484 H 0.72202 0.07505 0.33706 0.0
H2485 H 0.70714 0.09747 0.34938 0.0
C2486 C 0.70902 0.12707 0.33858 0.0
C2487 C 0.71145 0.14214 0.33182 0.0
C2488 C 0.71728 0.11404 0.33136 0.0
C2489 C 0.72198 0.14389 0.31749 0.0
C2490 C 0.73009 0.13089 0.31011 0.0
C2491 C 0.7364 0.10299 0.30996 0.0
C2492 C 0.73451 0.08819 0.31718 0.0
C2493 C 0.72793 0.11596 0.31701 0.0
C2494 C 0.72385 0.08641 0.33141 0.0
C2495 C 0.71527 0.09919 0.3384 0.0
H2496 H 0.39911 0.29247 0.29622 0.0
H2497 H 0.38776 0.24225 0.30727 0.0
H2498 H 0.41736 0.23926 0.30375 0.0
H2499 H 0.44654 0.25113 0.29819 0.0
H2500 H 0.45751 0.30086 0.28548 0.0
H2501 H 0.42804 0.30384 0.28918 0.0
C2502 C 0.40312 0.28087 0.29786 0.0
C2503 C 0.39128 0.26764 0.30209 0.0
C2504 C 0.42011 0.27917 0.29564 0.0
C2505 C 0.39663 0.25263 0.30399 0.0
C2506 C 0.41356 0.25091 0.30202 0.0
C2507 C 0.44248 0.26257 0.29608 0.0
C2508 C 0.45433 0.27581 0.29181 0.0
C2509 C 0.42542 0.26413 0.29791 0.0
C2510 C 0.44879 0.29059 0.28923 0.0
C2511 C 0.43189 0.29228 0.2912 0.0
H2512 H 0.33193 0.89646 0.30825 0.0
H2513 H 0.35796 0.92461 0.35085 0.0
H2514 H 0.35107 0.95004 0.34241 0.0
H2515 H 0.33726 0.96435 0.32309 0.0
H2516 H 0.31192 0.93619 0.28015 0.0
H2517 H 0.31894 0.91077 0.28852 0.0
C2518 C 0.33614 0.90816 0.31568 0.0
C2519 C 0.3454 0.90859 0.3302 0.0
C2520 C 0.33223 0.92277 0.31069 0.0
C2521 C 0.35083 0.92389 0.3396 0.0
C2522 C 0.34686 0.93846 0.33481 0.0
C2523 C 0.33327 0.95262 0.31562 0.0
C2524 C 0.32409 0.95214 0.30104 0.0
C2525 C 0.33749 0.93805 0.32042 0.0
C2526 C 0.31913 0.93689 0.29135 0.0
C2527 C 0.32308 0.92235 0.29616 0.0
H2528 H 0.71618 0.11434 0.71104 0.0
H2529 H 0.74802 0.15311 0.74065 0.0
H2530 H 0.76123 0.13267 0.75242 0.0
H2531 H 0.76359 0.10376 0.75454 0.0
H2532 H 0.73172 0.06499 0.72506 0.0
H2533 H 0.71858 0.08544 0.71314 0.0
C2534 C 0.72603 0.11833 0.72004 0.0
C2535 C 0.7311 0.13526 0.72491 0.0
C2536 C 0.73354 0.1065 0.72684 0.0
C2537 C 0.74385 0.14018 0.73665 0.0
C2538 C 0.75143 0.12849 0.7434 0.0
C2539 C 0.75388 0.09979 0.74539 0.0
C2540 C 0.74867 0.08287 0.74067 0.0
C2541 C 0.74638 0.11162 0.73859 0.0
C2542 C 0.73585 0.07793 0.72902 0.0
C2543 C 0.72839 0.08962 0.72214 0.0
H2544 H 0.69822 0.89988 0.32943 0.0
H2545 H 0.74149 0.89359 0.35605 0.0
H2546 H 0.75756 0.91766 0.34499 0.0
H2547 H 0.7592 0.94051 0.32762 0.0
H2548 H 0.7158 0.946 0.30076 0.0
H2549 H 0.69992 0.9221 0.31198 0.0
C2550 C 0.71115 0.90377 0.3329 0.0
C2551 C 0.71861 0.895 0.34364 0.0
C2552 C 0.72031 0.91743 0.32637 0.0
C2553 C 0.73544 0.90014 0.34782 0.0
C2554 C 0.74463 0.9139 0.34151 0.0
C2555 C 0.74625 0.93646 0.3243 0.0
C2556 C 0.73869 0.94495 0.31335 0.0
C2557 C 0.73718 0.92264 0.33076 0.0
C2558 C 0.72196 0.93953 0.30899 0.0
C2559 C 0.71284 0.92593 0.31547 0.0
H2560 H 0.65465 0.23011 0.3314 0.0
H2561 H 0.61836 0.19351 0.35201 0.0
H2562 H 0.596 0.20267 0.33788 0.0
H2563 H 0.58657 0.2221 0.32094 0.0
H2564 H 0.623 0.25857 0.30033 0.0
H2565 H 0.64546 0.24852 0.31335 0.0
C2566 C 0.64188 0.22404 0.33272 0.0
C2567 C 0.6382 0.2112 0.34283 0.0
C2568 C 0.62907 0.22945 0.3247 0.0
C2569 C 0.62156 0.20345 0.34434 0.0
C2570 C 0.60875 0.2087 0.33629 0.0
C2571 C 0.59945 0.22771 0.31913 0.0
C2572 C 0.60307 0.24118 0.30982 0.0
C2573 C 0.61233 0.22184 0.32662 0.0
C2574 C 0.61982 0.2484 0.30771 0.0
C2575 C 0.63269 0.2426 0.31506 0.0
H2576 H 0.30179 0.15615 0.34717 0.0
H2577 H 0.34046 0.16897 0.31008 0.0
H2578 H 0.33844 0.14015 0.29813 0.0
H2579 H 0.32483 0.1115 0.29731 0.0
H2580 H 0.2864 0.09852 0.33452 0.0
H2581 H 0.28911 0.12723 0.34718 0.0
C2582 C 0.30985 0.15264 0.33653 0.0
C2583 C 0.3212 0.16475 0.32951 0.0
C2584 C 0.30859 0.13602 0.32964 0.0
C2585 C 0.33157 0.15995 0.31574 0.0
C2586 C 0.33042 0.14345 0.30886 0.0
C2587 C 0.31723 0.11489 0.30835 0.0
C2588 C 0.30539 0.10287 0.31489 0.0
C2589 C 0.31887 0.13141 0.3156 0.0
C2590 C 0.29545 0.10756 0.32906 0.0
C2591 C 0.29704 0.12396 0.33636 0.0
H2592 H 0.40223 0.84693 0.31186 0.0
H2593 H 0.38421 0.80469 0.33773 0.0
H2594 H 0.40599 0.79018 0.32394 0.0
H2595 H 0.43061 0.78951 0.30528 0.0
H2596 H 0.44941 0.83142 0.27944 0.0
H2597 H 0.42677 0.84586 0.29223 0.0
C2598 C 0.40302 0.83452 0.3144 0.0
C2599 C 0.3916 0.82701 0.32594 0.0
C2600 C 0.41573 0.82614 0.30643 0.0
C2601 C 0.39283 0.81089 0.32903 0.0
C2602 C 0.40531 0.80252 0.32113 0.0
C2603 C 0.42983 0.80185 0.30252 0.0
C2604 C 0.44177 0.80944 0.29157 0.0
C2605 C 0.41692 0.81007 0.30998 0.0
C2606 C 0.44033 0.82528 0.28779 0.0
C2607 C 0.42744 0.83357 0.29517 0.0
H2608 H 0.35608 0.90926 0.7401 0.0
H2609 H 0.31089 0.88758 0.71414 0.0
H2610 H 0.29764 0.91148 0.72491 0.0
H2611 H 0.29915 0.93899 0.74075 0.0
H2612 H 0.34415 0.96094 0.7667 0.0
H2613 H 0.35713 0.93643 0.75705 0.0
C2614 C 0.34329 0.90971 0.73691 0.0
C2615 C 0.33455 0.89667 0.72623 0.0
C2616 C 0.33572 0.92356 0.7431 0.0
C2617 C 0.31796 0.89745 0.72226 0.0
C2618 C 0.31036 0.91113 0.7284 0.0
C2619 C 0.31182 0.93842 0.74423 0.0
C2620 C 0.32073 0.95178 0.75429 0.0
C2621 C 0.31918 0.92434 0.73862 0.0
C2622 C 0.33702 0.95076 0.75901 0.0
C2623 C 0.34447 0.93679 0.75344 0.0
H2624 H 0.67493 0.80134 0.71691 0.0
H2625 H 0.69313 0.78497 0.76071 0.0
H2626 H 0.66498 0.77168 0.76743 0.0
H2627 H 0.63483 0.76684 0.7623 0.0
H2628 H 0.61653 0.78409 0.71912 0.0
H2629 H 0.64511 0.79463 0.71057 0.0
C2630 C 0.6728 0.79469 0.72781 0.0
C2631 C 0.6861 0.79434 0.73839 0.0
C2632 C 0.65653 0.78728 0.73176 0.0
C2633 C 0.68311 0.78556 0.7524 0.0
C2634 C 0.667 0.77798 0.75629 0.0
C2635 C 0.63712 0.77286 0.75099 0.0
C2636 C 0.62356 0.77482 0.74145 0.0
C2637 C 0.65356 0.77914 0.74631 0.0
C2638 C 0.62674 0.78233 0.72663 0.0
C2639 C 0.64308 0.78847 0.7218 0.0
H2640 H 0.39429 0.21049 0.6762 0.0
H2641 H 0.36341 0.23163 0.71608 0.0
H2642 H 0.38835 0.24652 0.73016 0.0
H2643 H 0.41902 0.25219 0.73205 0.0
H2644 H 0.44976 0.23082 0.69224 0.0
H2645 H 0.42478 0.21751 0.67717 0.0
C2646 C 0.39298 0.21846 0.6879 0.0
C2647 C 0.37699 0.21981 0.69513 0.0
C2648 C 0.40737 0.22691 0.69599 0.0
C2649 C 0.37555 0.23031 0.71024 0.0
C2650 C 0.38982 0.2388 0.71834 0.0
C2651 C 0.42021 0.24464 0.72006 0.0
C2652 C 0.43619 0.24242 0.71331 0.0
C2653 C 0.4058 0.23695 0.71149 0.0
C2654 C 0.4376 0.23282 0.69764 0.0
C2655 C 0.42332 0.22513 0.68906 0.0
H2656 H 0.73856 0.68109 0.15108 0.0
H2657 H 0.69727 0.70734 0.1457 0.0
H2658 H 0.7119 0.71976 0.12226 0.0
H2659 H 0.73615 0.72316 0.10308 0.0
H2660 H 0.77783 0.6975 0.10818 0.0
H2661 H 0.76322 0.68472 0.13173 0.0
C2662 C 0.73277 0.68952 0.14478 0.0
C2663 C 0.71681 0.69324 0.15023 0.0
C2664 C 0.74128 0.69671 0.13119 0.0
C2665 C 0.70952 0.70421 0.14186 0.0
C2666 C 0.71787 0.71136 0.12841 0.0
C2667 C 0.74215 0.71493 0.10946 0.0
C2668 C 0.75811 0.71139 0.10392 0.0
C2669 C 0.73374 0.70772 0.12299 0.0
C2670 C 0.7655 0.70036 0.1121 0.0
C2671 C 0.75718 0.69311 0.12562 0.0
H2672 H 0.31578 0.68571 0.12163 0.0
H2673 H 0.30033 0.72831 0.15163 0.0
H2674 H 0.29472 0.7395 0.12611 0.0
H2675 H 0.29438 0.73736 0.09531 0.0
H2676 H 0.30955 0.6948 0.06515 0.0
H2677 H 0.31498 0.68335 0.09071 0.0
C2678 C 0.31116 0.69743 0.12259 0.0
C2679 C 0.30853 0.70617 0.13854 0.0
C2680 C 0.30792 0.7038 0.10784 0.0
C2681 C 0.30247 0.72131 0.13954 0.0
C2682 C 0.29927 0.72775 0.12494 0.0
C2683 C 0.29902 0.72564 0.09435 0.0
C2684 C 0.30171 0.717 0.07839 0.0
C2685 C 0.30203 0.71915 0.10905 0.0
C2686 C 0.30735 0.70166 0.07731 0.0
C2687 C 0.3105 0.69514 0.09191 0.0
H2688 H 0.33583 0.33394 0.15181 0.0
H2689 H 0.3685 0.30026 0.16271 0.0
H2690 H 0.35763 0.28063 0.13882 0.0
H2691 H 0.33885 0.27316 0.11468 0.0
H2692 H 0.30617 0.30706 0.10439 0.0
H2693 H 0.31696 0.32641 0.12832 0.0
C2694 C 0.34063 0.32232 0.14898 0.0
C2695 C 0.35303 0.31862 0.15899 0.0
C2696 C 0.33426 0.31109 0.13537 0.0
C2697 C 0.35896 0.30343 0.1552 0.0
C2698 C 0.35276 0.2922 0.14154 0.0
C2699 C 0.33415 0.28481 0.11769 0.0
C2700 C 0.32169 0.28865 0.10783 0.0
C2701 C 0.34042 0.29593 0.13151 0.0
C2702 C 0.31558 0.30371 0.11193 0.0
C2703 C 0.32182 0.31484 0.12555 0.0
H2704 H 0.72523 0.31825 0.14636 0.0
H2705 H 0.7619 0.28973 0.15975 0.0
H2706 H 0.76628 0.27963 0.13008 0.0
H2707 H 0.76026 0.2795 0.10025 0.0
H2708 H 0.72433 0.30876 0.08684 0.0
H2709 H 0.71909 0.318 0.11662 0.0
C2710 C 0.73413 0.30977 0.14281 0.0
C2711 C 0.74321 0.30475 0.15526 0.0
C2712 C 0.73673 0.30417 0.12572 0.0
C2713 C 0.75477 0.29382 0.15042 0.0
C2714 C 0.75727 0.28803 0.13346 0.0
C2715 C 0.75114 0.28775 0.1039 0.0
C2716 C 0.74263 0.29341 0.09143 0.0
C2717 C 0.74839 0.29318 0.121 0.0
C2718 C 0.73107 0.30432 0.09625 0.0
C2719 C 0.72806 0.30957 0.11325 0.0
H2720 H 0.7046 0.33084 0.90092 0.0
H2721 H 0.73421 0.30269 0.86532 0.0
H2722 H 0.74464 0.29064 0.88825 0.0
H2723 H 0.74574 0.28844 0.91849 0.0
H2724 H 0.71626 0.3167 0.95403 0.0
H2725 H 0.70547 0.32842 0.93105 0.0
C2726 C 0.71332 0.32205 0.89816 0.0
C2727 C 0.71861 0.31769 0.88142 0.0
C2728 C 0.71932 0.31521 0.9114 0.0
C2729 C 0.72993 0.30629 0.87809 0.0
C2730 C 0.73591 0.29938 0.89119 0.0
C2731 C 0.73681 0.29703 0.92117 0.0
C2732 C 0.7318 0.30169 0.93793 0.0
C2733 C 0.73071 0.30376 0.9079 0.0
C2734 C 0.72043 0.31304 0.94125 0.0
C2735 C 0.71421 0.3197 0.92811 0.0
H2736 H 0.71322 0.68697 0.91199 0.0
H2737 H 0.73918 0.72694 0.88676 0.0
H2738 H 0.75677 0.73626 0.91109 0.0
H2739 H 0.76405 0.7337 0.93997 0.0
H2740 H 0.73824 0.6937 0.96513 0.0
H2741 H 0.72145 0.68362 0.94029 0.0
C2742 C 0.72276 0.69769 0.91178 0.0
C2743 C 0.72478 0.70631 0.89761 0.0
C2744 C 0.73287 0.70296 0.92579 0.0
C2745 C 0.73732 0.72008 0.89749 0.0
C2746 C 0.74738 0.72545 0.91142 0.0
C2747 C 0.75474 0.72278 0.93999 0.0
C2748 C 0.7523 0.7145 0.95437 0.0
C2749 C 0.74513 0.71709 0.9257 0.0
C2750 C 0.74041 0.70021 0.95415 0.0
C2751 C 0.73075 0.6945 0.94001 0.0
H2752 H 0.33478 0.74205 0.86934 0.0
H2753 H 0.30671 0.78169 0.86556 0.0
H2754 H 0.29499 0.77947 0.8939 0.0
H2755 H 0.29382 0.76736 0.92025 0.0
H2756 H 0.3216 0.72768 0.92444 0.0
H2757 H 0.33193 0.72843 0.89521 0.0
C2758 C 0.32572 0.74985 0.8745 0.0
C2759 C 0.3215 0.7619 0.86525 0.0
C2760 C 0.31905 0.74856 0.8909 0.0
C2761 C 0.31019 0.77233 0.87242 0.0
C2762 C 0.30348 0.77108 0.88863 0.0
C2763 C 0.30213 0.75887 0.91474 0.0
C2764 C 0.30713 0.74763 0.92449 0.0
C2765 C 0.30804 0.75944 0.89807 0.0
C2766 C 0.3176 0.73645 0.91714 0.0
C2767 C 0.32356 0.73693 0.90048 0.0
H2768 H 0.33287 0.3268 0.91893 0.0
H2769 H 0.36333 0.2893 0.90085 0.0
H2770 H 0.35299 0.27388 0.92404 0.0
H2771 H 0.33533 0.27086 0.94943 0.0
H2772 H 0.30502 0.30827 0.96797 0.0
H2773 H 0.31508 0.32373 0.94455 0.0
C2774 C 0.33724 0.31526 0.92007 0.0
C2775 C 0.34889 0.30927 0.90814 0.0
C2776 C 0.33123 0.30637 0.9335 0.0
C2777 C 0.35439 0.29426 0.90981 0.0
C2778 C 0.34848 0.28539 0.9231 0.0
C2779 C 0.33104 0.28247 0.94845 0.0
C2780 C 0.31947 0.2884 0.96048 0.0
C2781 C 0.33694 0.29133 0.93502 0.0
C2782 C 0.31379 0.30332 0.9588 0.0
C2783 C 0.31961 0.31223 0.94546 0.0
H2784 H 0.62344 0.69078 0.21613 0.0
H2785 H 0.64181 0.73408 0.19209 0.0
H2786 H 0.61654 0.74576 0.20112 0.0
H2787 H 0.58927 0.74387 0.21585 0.0
H2788 H 0.57044 0.7007 0.23978 0.0
H2789 H 0.59586 0.68889 0.23094 0.0
C2790 C 0.62193 0.70278 0.2129 0.0
C2791 C 0.63454 0.7115 0.20342 0.0
C2792 C 0.60727 0.70948 0.21812 0.0
C2793 C 0.63234 0.72705 0.19934 0.0
C2794 C 0.61787 0.73376 0.2045 0.0
C2795 C 0.59063 0.73179 0.21896 0.0
C2796 C 0.57792 0.72316 0.22838 0.0
C2797 C 0.60524 0.72508 0.21383 0.0
C2798 C 0.58007 0.70766 0.23263 0.0
C2799 C 0.59458 0.70087 0.22753 0.0
H2800 H 0.29796 0.6258 0.19315 0.0
H2801 H 0.33584 0.64113 0.23049 0.0
H2802 H 0.32311 0.61948 0.24694 0.0
H2803 H 0.30227 0.59522 0.24998 0.0
H2804 H 0.26396 0.58003 0.2131 0.0
H2805 H 0.27588 0.60252 0.19721 0.0
C2806 C 0.30337 0.62446 0.20493 0.0
C2807 C 0.31791 0.63502 0.21048 0.0
C2808 C 0.29598 0.61194 0.21439 0.0
C2809 C 0.32469 0.63316 0.22585 0.0
C2810 C 0.31743 0.62076 0.23529 0.0
C2811 C 0.29631 0.59699 0.23865 0.0
C2812 C 0.28229 0.58586 0.23272 0.0
C2813 C 0.30319 0.60996 0.22959 0.0
C2814 C 0.27492 0.58825 0.21783 0.0
C2815 C 0.28169 0.60115 0.20876 0.0
H2816 H 0.43941 0.34426 0.21511 0.0
H2817 H 0.40534 0.31089 0.24235 0.0
H2818 H 0.42885 0.29936 0.25166 0.0
H2819 H 0.45899 0.2981 0.25126 0.0
H2820 H 0.49313 0.3316 0.22438 0.0
H2821 H 0.46967 0.34383 0.21577 0.0
C2822 C 0.43712 0.3345 0.22312 0.0
C2823 C 0.42063 0.32837 0.22792 0.0
C2824 C 0.45069 0.32792 0.22843 0.0
C2825 C 0.4179 0.31581 0.23842 0.0
C2826 C 0.43133 0.30918 0.24373 0.0
C2827 C 0.46125 0.30805 0.24347 0.0
C2828 C 0.47769 0.31386 0.23829 0.0
C2829 C 0.44775 0.31502 0.23865 0.0
C2830 C 0.48055 0.32696 0.2285 0.0
C2831 C 0.46715 0.3339 0.22355 0.0
H2832 H 0.75426 0.38158 0.20783 0.0
H2833 H 0.78095 0.37285 0.25041 0.0
H2834 H 0.79113 0.40232 0.25629 0.0
H2835 H 0.79043 0.43076 0.25076 0.0
H2836 H 0.76234 0.43948 0.20922 0.0
H2837 H 0.75471 0.40978 0.20147 0.0
C2838 C 0.76251 0.38607 0.21825 0.0
C2839 C 0.7668 0.37502 0.22869 0.0
C2840 C 0.76793 0.40305 0.22182 0.0
C2841 C 0.77741 0.38109 0.24221 0.0
C2842 C 0.78321 0.39795 0.2456 0.0
C2843 C 0.78288 0.42611 0.23984 0.0
C2844 C 0.77694 0.43722 0.23054 0.0
C2845 C 0.77826 0.40906 0.2357 0.0
C2846 C 0.76696 0.43111 0.21659 0.0
C2847 C 0.76262 0.41417 0.21216 0.0
H2848 H 0.65098 0.314 0.80748 0.0
H2849 H 0.62704 0.33305 0.8536 0.0
H2850 H 0.59974 0.31992 0.84312 0.0
H2851 H 0.58253 0.30491 0.81993 0.0
H2852 H 0.60666 0.28565 0.774 0.0
H2853 H 0.63402 0.29711 0.78532 0.0
C2854 C 0.63981 0.31518 0.81532 0.0
C2855 C 0.64104 0.32464 0.83122 0.0
C2856 C 0.62417 0.3077 0.80918 0.0
C2857 C 0.62645 0.32589 0.84127 0.0
C2858 C 0.61082 0.31842 0.83527 0.0
C2859 C 0.59377 0.30296 0.81251 0.0
C2860 C 0.59251 0.29461 0.79605 0.0
C2861 C 0.6095 0.30956 0.81911 0.0
C2862 C 0.60724 0.29233 0.78657 0.0
C2863 C 0.62291 0.29881 0.79306 0.0
H2864 H 0.70321 0.63926 0.84034 0.0
H2865 H 0.73159 0.66433 0.80181 0.0
H2866 H 0.74309 0.63922 0.79117 0.0
H2867 H 0.74612 0.61049 0.79368 0.0
H2868 H 0.71853 0.58587 0.83289 0.0
H2869 H 0.70572 0.61047 0.84244 0.0
C2870 C 0.7118 0.6392 0.82951 0.0
C2871 C 0.71653 0.65365 0.82188 0.0
C2872 C 0.71859 0.62483 0.82366 0.0
C2873 C 0.72777 0.65339 0.80794 0.0
C2874 C 0.73436 0.63904 0.80185 0.0
C2875 C 0.73715 0.61049 0.80418 0.0
C2876 C 0.73327 0.59643 0.81259 0.0
C2877 C 0.73001 0.62474 0.80973 0.0
C2878 C 0.72181 0.59662 0.82633 0.0
C2879 C 0.71445 0.61065 0.83175 0.0
H2880 H 0.39326 0.75576 0.80035 0.0
H2881 H 0.40462 0.80176 0.83261 0.0
H2882 H 0.43431 0.79904 0.83091 0.0
H2883 H 0.45711 0.7841 0.81951 0.0
H2884 H 0.44582 0.73911 0.78559 0.0
H2885 H 0.41605 0.74072 0.78913 0.0
C2886 C 0.40222 0.76514 0.80709 0.0
C2887 C 0.39673 0.77896 0.81654 0.0
C2888 C 0.41929 0.76364 0.80587 0.0
C2889 C 0.40851 0.79104 0.82516 0.0
C2890 C 0.4255 0.78948 0.82423 0.0
C2891 C 0.44817 0.77467 0.81281 0.0
C2892 C 0.45382 0.7615 0.8023 0.0
C2893 C 0.43105 0.77593 0.81446 0.0
C2894 C 0.44193 0.74925 0.79401 0.0
C2895 C 0.42486 0.75024 0.79587 0.0
H2896 H 0.36806 0.42453 0.83018 0.0
H2897 H 0.32108 0.40504 0.85289 0.0
H2898 H 0.30809 0.42753 0.8447 0.0
H2899 H 0.31028 0.45292 0.83163 0.0
H2900 H 0.35637 0.47028 0.80557 0.0
H2901 H 0.36957 0.4488 0.81504 0.0
C2902 C 0.35498 0.42523 0.83331 0.0
C2903 C 0.34555 0.41323 0.84221 0.0
C2904 C 0.34747 0.43794 0.82815 0.0
C2905 C 0.32856 0.41412 0.846 0.0
C2906 C 0.32116 0.42701 0.84137 0.0
C2907 C 0.32311 0.45195 0.82766 0.0
C2908 C 0.33221 0.46358 0.81796 0.0
C2909 C 0.3305 0.439 0.83245 0.0
C2910 C 0.34902 0.46202 0.81343 0.0
C2911 C 0.3566 0.44953 0.81866 0.0
H2912 H 0.72178 0.61025 0.19644 0.0
H2913 H 0.73426 0.64751 0.23864 0.0
H2914 H 0.74897 0.62876 0.25142 0.0
H2915 H 0.75805 0.6016 0.25079 0.0
H2916 H 0.74593 0.56457 0.20836 0.0
H2917 H 0.73145 0.58343 0.19546 0.0
C2918 C 0.72773 0.61429 0.20843 0.0
C2919 C 0.72685 0.63026 0.21659 0.0
C2920 C 0.73627 0.60347 0.21567 0.0
C2921 C 0.73474 0.6353 0.23206 0.0
C2922 C 0.74314 0.62457 0.23941 0.0
C2923 C 0.75218 0.59766 0.23875 0.0
C2924 C 0.75305 0.5817 0.23056 0.0
C2925 C 0.74392 0.6086 0.23136 0.0
C2926 C 0.74558 0.57684 0.21485 0.0
C2927 C 0.73723 0.58759 0.2075 0.0
H2928 H 0.71096 0.41058 0.85561 0.0
H2929 H 0.74002 0.38169 0.82013 0.0
H2930 H 0.75486 0.4068 0.81029 0.0
H2931 H 0.75821 0.43682 0.81035 0.0
H2932 H 0.72891 0.46563 0.84553 0.0
H2933 H 0.71568 0.44069 0.85702 0.0
C2934 C 0.72065 0.40975 0.84584 0.0
C2935 C 0.72423 0.39423 0.83852 0.0
C2936 C 0.72905 0.42423 0.84012 0.0
C2937 C 0.73694 0.39345 0.82596 0.0
C2938 C 0.74541 0.4078 0.82027 0.0
C2939 C 0.74895 0.43761 0.82056 0.0
C2940 C 0.74443 0.45301 0.827 0.0
C2941 C 0.74132 0.42323 0.82701 0.0
C2942 C 0.73265 0.45392 0.84042 0.0
C2943 C 0.72502 0.43967 0.84693 0.0
H2944 H 0.64763 0.70047 0.82681 0.0
H2945 H 0.61466 0.69405 0.87021 0.0
H2946 H 0.5928 0.70445 0.8566 0.0
H2947 H 0.58334 0.71624 0.83279 0.0
H2948 H 0.61653 0.72332 0.78971 0.0
H2949 H 0.63791 0.7116 0.8027 0.0
C2950 C 0.63563 0.70123 0.83325 0.0
C2951 C 0.63283 0.69654 0.84954 0.0
C2952 C 0.62314 0.70736 0.82542 0.0
C2953 C 0.61719 0.69762 0.85769 0.0
C2954 C 0.60467 0.70359 0.84993 0.0
C2955 C 0.59528 0.71528 0.82628 0.0
C2956 C 0.59834 0.72069 0.81033 0.0
C2957 C 0.60758 0.70868 0.83389 0.0
C2958 C 0.61378 0.7191 0.80193 0.0
C2959 C 0.62605 0.71249 0.80939 0.0
H2960 H 0.29541 0.66511 0.84439 0.0
H2961 H 0.34556 0.67521 0.82345 0.0
H2962 H 0.34504 0.64602 0.81354 0.0
H2963 H 0.33011 0.61768 0.8101 0.0
H2964 H 0.27991 0.60761 0.83078 0.0
H2965 H 0.28078 0.63668 0.84166 0.0
C2966 C 0.30627 0.66094 0.83773 0.0
C2967 C 0.32046 0.67239 0.83462 0.0
C2968 C 0.30589 0.64411 0.83201 0.0
C2969 C 0.33444 0.66671 0.82601 0.0
C2970 C 0.33416 0.65 0.8203 0.0
C2971 C 0.31935 0.62187 0.81695 0.0
C2972 C 0.30496 0.6105 0.8196 0.0
C2973 C 0.3199 0.63862 0.82309 0.0
C2974 C 0.29121 0.61608 0.82872 0.0
C2975 C 0.29166 0.63271 0.83485 0.0
H2976 H 0.39346 0.31403 0.83355 0.0
H2977 H 0.40906 0.36117 0.81569 0.0
H2978 H 0.43106 0.34976 0.79806 0.0
H2979 H 0.44719 0.32687 0.78937 0.0
H2980 H 0.43138 0.27998 0.80766 0.0
H2981 H 0.40821 0.2909 0.82355 0.0
C2982 C 0.40156 0.32183 0.82571 0.0
C2983 C 0.39966 0.33849 0.82609 0.0
C2984 C 0.41428 0.31527 0.81579 0.0
C2985 C 0.41024 0.34832 0.81571 0.0
C2986 C 0.42287 0.34181 0.80566 0.0
C2987 C 0.43852 0.31898 0.79664 0.0
C2988 C 0.44115 0.30268 0.79749 0.0
C2989 C 0.42521 0.32538 0.80583 0.0
C2990 C 0.42985 0.29266 0.80705 0.0
C2991 C 0.41655 0.29886 0.81608 0.0
H2992 H 0.32989 0.39616 0.24832 0.0
H2993 H 0.35752 0.41957 0.20826 0.0
H2994 H 0.34527 0.44459 0.21695 0.0
H2995 H 0.32514 0.45911 0.23459 0.0
H2996 H 0.29754 0.43573 0.2746 0.0
H2997 H 0.31143 0.41148 0.26734 0.0
C2998 C 0.33338 0.40679 0.24159 0.0
C2999 C 0.34447 0.4059 0.22755 0.0
C3000 C 0.3262 0.42112 0.24656 0.0
C3001 C 0.34895 0.41986 0.21907 0.0
C3002 C 0.34191 0.43417 0.22398 0.0
C3003 C 0.32221 0.44871 0.24172 0.0
C3004 C 0.31018 0.44912 0.25496 0.0
C3005 C 0.33024 0.43481 0.23747 0.0
C3006 C 0.30674 0.43571 0.26433 0.0
C3007 C 0.31464 0.42181 0.26016 0.0
H3008 H 0.6892 0.29551 0.24683 0.0
H3009 H 0.68142 0.33605 0.22067 0.0
H3010 H 0.65123 0.3282 0.22332 0.0
H3011 H 0.62701 0.31064 0.23406 0.0
H3012 H 0.6345 0.27066 0.26111 0.0
H3013 H 0.66478 0.27729 0.25684 0.0
C3014 C 0.68089 0.30255 0.2416 0.0
C3015 C 0.68758 0.31641 0.23366 0.0
C3016 C 0.66348 0.29807 0.24331 0.0
C3017 C 0.67663 0.32539 0.22694 0.0
C3018 C 0.65934 0.32092 0.22844 0.0
C3019 C 0.63527 0.3034 0.23907 0.0
C3020 C 0.62851 0.29024 0.24796 0.0
C3021 C 0.65264 0.30744 0.23681 0.0
C3022 C 0.63937 0.28077 0.25408 0.0
C3023 C 0.65669 0.28463 0.25175 0.0
H3024 H 0.36937 0.72224 0.20884 0.0
H3025 H 0.39287 0.69139 0.1701 0.0
H3026 H 0.42045 0.70464 0.17965 0.0
H3027 H 0.43784 0.72354 0.2003 0.0
H3028 H 0.41428 0.75378 0.23948 0.0
H3029 H 0.38675 0.74215 0.22848 0.0
C3030 C 0.38051 0.71852 0.20235 0.0
C3031 C 0.37902 0.70577 0.18882 0.0
C3032 C 0.39632 0.72598 0.20808 0.0
C3033 C 0.39362 0.70111 0.18059 0.0
C3034 C 0.40941 0.70866 0.18606 0.0
C3035 C 0.42669 0.72777 0.20625 0.0
C3036 C 0.42807 0.73943 0.22072 0.0
C3037 C 0.4109 0.7209 0.19998 0.0
C3038 C 0.41351 0.74465 0.22845 0.0
C3039 C 0.39778 0.73806 0.22214 0.0
loop_
_geom_bond_atom_site_label_1
_geom_bond_atom_site_label_2
_geom_bond_distance
_geom_bond_site_symmetry_2
_ccdc_geom_bond_type
O0 Cd1 2.300 . S
O0 C7 1.275 . S
Cd1 O0 2.300 . S
Cd1 O9 2.381 . S
Cd1 O10 2.378 . S
O2 Cd3 2.385 . S
O2 C7 1.255 . S
Cd3 O2 2.385 . S
Cd3 O4 2.317 . S
O4 Cd3 2.317 . S
O4 C5 1.232 . S
C5 O4 1.232 . S
C5 O6 1.218 . S
O6 C5 1.218 . S
C7 O0 1.275 . S
C7 O2 1.255 . S
C8 O9 1.258 . S
C8 O10 1.256 . S
O9 Cd1 2.381 . S
O9 C8 1.258 . S
O10 Cd1 2.378 . S
O10 C8 1.256 . S
O11 Cd12 2.300 . S
O11 C18 1.275 . S
Cd12 O11 2.300 . S
Cd12 O20 2.381 . S
Cd12 O21 2.378 . S
O13 Cd14 2.385 . S
O13 C18 1.255 . S
Cd14 O13 2.385 . S
Cd14 O15 2.317 . S
O15 Cd14 2.317 . S
O15 C16 1.232 . S
C16 O15 1.232 . S
C16 O17 1.218 . S
O17 C16 1.218 . S
C18 O11 1.275 . S
C18 O13 1.255 . S
C19 O20 1.258 . S
C19 O21 1.256 . S
O20 Cd12 2.381 . S
O20 C19 1.258 . S
O21 Cd12 2.378 . S
O21 C19 1.256 . S
O22 Cd23 2.300 . S
O22 C29 1.275 . S
Cd23 O22 2.300 . S
Cd23 O31 2.381 . S
Cd23 O32 2.378 . S
O24 Cd25 2.385 . S
O24 C29 1.255 . S
Cd25 O24 2.385 . S
Cd25 O26 2.317 . S
O26 Cd25 2.317 . S
O26 C27 1.232 . S
C27 O26 1.232 . S
C27 O28 1.218 . S
O28 C27 1.218 . S
C29 O22 1.275 . S
C29 O24 1.255 . S
C30 O31 1.258 . S
C30 O32 1.256 . S
O31 Cd23 2.381 . S
O31 C30 1.258 . S
O32 Cd23 2.378 . S
O32 C30 1.256 . S
O33 Cd34 2.300 . S
O33 C40 1.275 . S
Cd34 O33 2.300 . S
Cd34 O42 2.381 . S
Cd34 O43 2.378 . S
O35 Cd36 2.385 . S
O35 C40 1.255 . S
Cd36 O35 2.385 . S
Cd36 O37 2.317 . S
O37 Cd36 2.317 . S
O37 C38 1.232 . S
C38 O37 1.232 . S
C38 O39 1.218 . S
O39 C38 1.218 . S
C40 O33 1.275 . S
C40 O35 1.255 . S
C41 O42 1.258 . S
C41 O43 1.256 . S
O42 Cd34 2.381 . S
O42 C41 1.258 . S
O43 Cd34 2.378 . S
O43 C41 1.256 . S
O44 Cd45 2.300 . S
O44 C51 1.275 . S
Cd45 O44 2.300 . S
Cd45 O53 2.381 . S
Cd45 O54 2.378 . S
O46 Cd47 2.385 . S
O46 C51 1.255 . S
Cd47 O46 2.385 . S
Cd47 O48 2.317 . S
O48 Cd47 2.317 . S
O48 C49 1.232 . S
C49 O48 1.232 . S
C49 O50 1.218 . S
O50 C49 1.218 . S
C51 O44 1.275 . S
C51 O46 1.255 . S
C52 O53 1.258 . S
C52 O54 1.256 . S
O53 Cd45 2.381 . S
O53 C52 1.258 . S
O54 Cd45 2.378 . S
O54 C52 1.256 . S
O55 Cd56 2.300 . S
O55 C62 1.275 . S
Cd56 O55 2.300 . S
Cd56 O64 2.381 . S
Cd56 O65 2.378 . S
O57 Cd58 2.385 . S
O57 C62 1.255 . S
Cd58 O57 2.385 . S
Cd58 O59 2.317 . S
O59 Cd58 2.317 . S
O59 C60 1.232 . S
C60 O59 1.232 . S
C60 O61 1.218 . S
O61 C60 1.218 . S
C62 O55 1.275 . S
C62 O57 1.255 . S
C63 O64 1.258 . S
C63 O65 1.256 . S
O64 Cd56 2.381 . S
O64 C63 1.258 . S
O65 Cd56 2.378 . S
O65 C63 1.256 . S
O66 Cd67 2.300 . S
O66 C73 1.275 . S
Cd67 O66 2.300 . S
Cd67 O75 2.381 . S
Cd67 O76 2.378 . S
O68 Cd69 2.385 . S
O68 C73 1.255 . S
Cd69 O68 2.385 . S
Cd69 O70 2.317 . S
O70 Cd69 2.317 . S
O70 C71 1.232 . S
C71 O70 1.232 . S
C71 O72 1.218 . S
O72 C71 1.218 . S
C73 O66 1.275 . S
C73 O68 1.255 . S
C74 O75 1.258 . S
C74 O76 1.256 . S
O75 Cd67 2.381 . S
O75 C74 1.258 . S
O76 Cd67 2.378 . S
O76 C74 1.256 . S
O77 Cd78 2.300 . S
O77 C84 1.275 . S
Cd78 O77 2.300 . S
Cd78 O86 2.381 . S
Cd78 O87 2.378 . S
O79 Cd80 2.385 . S
O79 C84 1.255 . S
Cd80 O79 2.385 . S
Cd80 O81 2.317 . S
O81 Cd80 2.317 . S
O81 C82 1.232 . S
C82 O81 1.232 . S
C82 O83 1.218 . S
O83 C82 1.218 . S
C84 O77 1.275 . S
C84 O79 1.255 . S
C85 O86 1.258 . S
C85 O87 1.256 . S
O86 Cd78 2.381 . S
O86 C85 1.258 . S
O87 Cd78 2.378 . S
O87 C85 1.256 . S
O88 Cd89 2.300 . S
O88 C95 1.275 . S
Cd89 O88 2.300 . S
Cd89 O97 2.381 . S
Cd89 O98 2.378 . S
O90 Cd91 2.385 . S
O90 C95 1.255 . S
Cd91 O90 2.385 . S
Cd91 O92 2.317 . S
O92 Cd91 2.317 . S
O92 C93 1.232 . S
C93 O92 1.232 . S
C93 O94 1.218 . S
O94 C93 1.218 . S
C95 O88 1.275 . S
C95 O90 1.255 . S
C96 O97 1.258 . S
C96 O98 1.256 . S
O97 Cd89 2.381 . S
O97 C96 1.258 . S
O98 Cd89 2.378 . S
O98 C96 1.256 . S
O99 Cd100 2.300 . S
O99 C106 1.275 . S
Cd100 O99 2.300 . S
Cd100 O108 2.381 . S
Cd100 O109 2.378 . S
O101 Cd102 2.385 . S
O101 C106 1.255 . S
Cd102 O101 2.385 . S
Cd102 O103 2.317 . S
O103 Cd102 2.317 . S
O103 C104 1.232 . S
C104 O103 1.232 . S
C104 O105 1.218 . S
O105 C104 1.218 . S
C106 O99 1.275 . S
C106 O101 1.255 . S
C107 O108 1.258 . S
C107 O109 1.256 . S
O108 Cd100 2.381 . S
O108 C107 1.258 . S
O109 Cd100 2.378 . S
O109 C107 1.256 . S
O110 Cd111 2.300 . S
O110 C117 1.275 . S
Cd111 O110 2.300 . S
Cd111 O119 2.381 . S
Cd111 O120 2.378 . S
O112 Cd113 2.385 . S
O112 C117 1.255 . S
Cd113 O112 2.385 . S
Cd113 O114 2.317 . S
O114 Cd113 2.317 . S
O114 C115 1.232 . S
C115 O114 1.232 . S
C115 O116 1.218 . S
O116 C115 1.218 . S
C117 O110 1.275 . S
C117 O112 1.255 . S
C118 O119 1.258 . S
C118 O120 1.256 . S
O119 Cd111 2.381 . S
O119 C118 1.258 . S
O120 Cd111 2.378 . S
O120 C118 1.256 . S
O121 Cd122 2.300 . S
O121 C128 1.275 . S
Cd122 O121 2.300 . S
Cd122 O130 2.381 . S
Cd122 O131 2.378 . S
O123 Cd124 2.385 . S
O123 C128 1.255 . S
Cd124 O123 2.385 . S
Cd124 O125 2.317 . S
O125 Cd124 2.317 . S
O125 C126 1.232 . S
C126 O125 1.232 . S
C126 O127 1.218 . S
O127 C126 1.218 . S
C128 O121 1.275 . S
C128 O123 1.255 . S
C129 O130 1.258 . S
C129 O131 1.256 . S
O130 Cd122 2.381 . S
O130 C129 1.258 . S
O131 Cd122 2.378 . S
O131 C129 1.256 . S
O132 Cd133 2.300 . S
O132 C139 1.275 . S
Cd133 O132 2.300 . S
Cd133 O141 2.381 . S
Cd133 O142 2.378 . S
O134 Cd135 2.385 . S
O134 C139 1.255 . S
Cd135 O134 2.385 . S
Cd135 O136 2.317 . S
O136 Cd135 2.317 . S
O136 C137 1.232 . S
C137 O136 1.232 . S
C137 O138 1.218 . S
O138 C137 1.218 . S
C139 O132 1.275 . S
C139 O134 1.255 . S
C140 O141 1.258 . S
C140 O142 1.256 . S
O141 Cd133 2.381 . S
O141 C140 1.258 . S
O142 Cd133 2.378 . S
O142 C140 1.256 . S
O143 Cd144 2.300 . S
O143 C150 1.275 . S
Cd144 O143 2.300 . S
Cd144 O152 2.381 . S
Cd144 O153 2.378 . S
O145 Cd146 2.385 . S
O145 C150 1.255 . S
Cd146 O145 2.385 . S
Cd146 O147 2.317 . S
O147 Cd146 2.317 . S
O147 C148 1.232 . S
C148 O147 1.232 . S
C148 O149 1.218 . S
O149 C148 1.218 . S
C150 O143 1.275 . S
C150 O145 1.255 . S
C151 O152 1.258 . S
C151 O153 1.256 . S
O152 Cd144 2.381 . S
O152 C151 1.258 . S
O153 Cd144 2.378 . S
O153 C151 1.256 . S
O154 Cd155 2.300 . S
O154 C161 1.275 . S
Cd155 O154 2.300 . S
Cd155 O163 2.381 . S
Cd155 O164 2.378 . S
O156 Cd157 2.385 . S
O156 C161 1.255 . S
Cd157 O156 2.385 . S
Cd157 O158 2.317 . S
O158 Cd157 2.317 . S
O158 C159 1.232 . S
C159 O158 1.232 . S
C159 O160 1.218 . S
O160 C159 1.218 . S
C161 O154 1.275 . S
C161 O156 1.255 . S
C162 O163 1.258 . S
C162 O164 1.256 . S
O163 Cd155 2.381 . S
O163 C162 1.258 . S
O164 Cd155 2.378 . S
O164 C162 1.256 . S
O165 Cd166 2.300 . S
O165 C172 1.275 . S
Cd166 O165 2.300 . S
Cd166 O174 2.381 . S
Cd166 O175 2.378 . S
O167 Cd168 2.385 . S
O167 C172 1.255 . S
Cd168 O167 2.385 . S
Cd168 O169 2.317 . S
O169 Cd168 2.317 . S
O169 C170 1.232 . S
C170 O169 1.232 . S
C170 O171 1.218 . S
O171 C170 1.218 . S
C172 O165 1.275 . S
C172 O167 1.255 . S
C173 O174 1.258 . S
C173 O175 1.256 . S
O174 Cd166 2.381 . S
O174 C173 1.258 . S
O175 Cd166 2.378 . S
O175 C173 1.256 . S
O176 Cd177 2.300 . S
O176 C183 1.275 . S
Cd177 O176 2.300 . S
Cd177 O185 2.381 . S
Cd177 O186 2.378 . S
O178 Cd179 2.385 . S
O178 C183 1.255 . S
Cd179 O178 2.385 . S
Cd179 O180 2.317 . S
O180 Cd179 2.317 . S
O180 C181 1.232 . S
C181 O180 1.232 . S
C181 O182 1.218 . S
O182 C181 1.218 . S
C183 O176 1.275 . S
C183 O178 1.255 . S
C184 O185 1.258 . S
C184 O186 1.256 . S
O185 Cd177 2.381 . S
O185 C184 1.258 . S
O186 Cd177 2.378 . S
O186 C184 1.256 . S
O187 Cd188 2.300 . S
O187 C194 1.275 . S
Cd188 O187 2.300 . S
Cd188 O196 2.381 . S
Cd188 O197 2.378 . S
O189 Cd190 2.385 . S
O189 C194 1.255 . S
Cd190 O189 2.385 . S
Cd190 O191 2.317 . S
O191 Cd190 2.317 . S
O191 C192 1.232 . S
C192 O191 1.232 . S
C192 O193 1.218 . S
O193 C192 1.218 . S
C194 O187 1.275 . S
C194 O189 1.255 . S
C195 O196 1.258 . S
C195 O197 1.256 . S
O196 Cd188 2.381 . S
O196 C195 1.258 . S
O197 Cd188 2.378 . S
O197 C195 1.256 . S
O198 Cd199 2.300 . S
O198 C205 1.275 . S
Cd199 O198 2.300 . S
Cd199 O207 2.381 . S
Cd199 O208 2.378 . S
O200 Cd201 2.385 . S
O200 C205 1.255 . S
Cd201 O200 2.385 . S
Cd201 O202 2.317 . S
O202 Cd201 2.317 . S
O202 C203 1.232 . S
C203 O202 1.232 . S
C203 O204 1.218 . S
O204 C203 1.218 . S
C205 O198 1.275 . S
C205 O200 1.255 . S
C206 O207 1.258 . S
C206 O208 1.256 . S
O207 Cd199 2.381 . S
O207 C206 1.258 . S
O208 Cd199 2.378 . S
O208 C206 1.256 . S
O209 Cd210 2.300 . S
O209 C216 1.275 . S
Cd210 O209 2.300 . S
Cd210 O218 2.381 . S
Cd210 O219 2.378 . S
O211 Cd212 2.385 . S
O211 C216 1.255 . S
Cd212 O211 2.385 . S
Cd212 O213 2.317 . S
O213 Cd212 2.317 . S
O213 C214 1.232 . S
C214 O213 1.232 . S
C214 O215 1.218 . S
O215 C214 1.218 . S
C216 O209 1.275 . S
C216 O211 1.255 . S
C217 O218 1.258 . S
C217 O219 1.256 . S
O218 Cd210 2.381 . S
O218 C217 1.258 . S
O219 Cd210 2.378 . S
O219 C217 1.256 . S
O220 Cd221 2.300 . S
O220 C227 1.275 . S
Cd221 O220 2.300 . S
Cd221 O229 2.381 . S
Cd221 O230 2.378 . S
O222 Cd223 2.385 . S
O222 C227 1.255 . S
Cd223 O222 2.385 . S
Cd223 O224 2.317 . S
O224 Cd223 2.317 . S
O224 C225 1.232 . S
C225 O224 1.232 . S
C225 O226 1.218 . S
O226 C225 1.218 . S
C227 O220 1.275 . S
C227 O222 1.255 . S
C228 O229 1.258 . S
C228 O230 1.256 . S
O229 Cd221 2.381 . S
O229 C228 1.258 . S
O230 Cd221 2.378 . S
O230 C228 1.256 . S
O231 Cd232 2.300 . S
O231 C238 1.275 . S
Cd232 O231 2.300 . S
Cd232 O240 2.381 . S
Cd232 O241 2.378 . S
O233 Cd234 2.385 . S
O233 C238 1.255 . S
Cd234 O233 2.385 . S
Cd234 O235 2.317 . S
O235 Cd234 2.317 . S
O235 C236 1.232 . S
C236 O235 1.232 . S
C236 O237 1.218 . S
O237 C236 1.218 . S
C238 O231 1.275 . S
C238 O233 1.255 . S
C239 O240 1.258 . S
C239 O241 1.256 . S
O240 Cd232 2.381 . S
O240 C239 1.258 . S
O241 Cd232 2.378 . S
O241 C239 1.256 . S
O242 Cd243 2.300 . S
O242 C249 1.275 . S
Cd243 O242 2.300 . S
Cd243 O251 2.381 . S
Cd243 O252 2.378 . S
O244 Cd245 2.385 . S
O244 C249 1.255 . S
Cd245 O244 2.385 . S
Cd245 O246 2.317 . S
O246 Cd245 2.317 . S
O246 C247 1.232 . S
C247 O246 1.232 . S
C247 O248 1.218 . S
O248 C247 1.218 . S
C249 O242 1.275 . S
C249 O244 1.255 . S
C250 O251 1.258 . S
C250 O252 1.256 . S
O251 Cd243 2.381 . S
O251 C250 1.258 . S
O252 Cd243 2.378 . S
O252 C250 1.256 . S
O253 Cd254 2.300 . S
O253 C260 1.275 . S
Cd254 O253 2.300 . S
Cd254 O262 2.381 . S
Cd254 O263 2.378 . S
O255 Cd256 2.385 . S
O255 C260 1.255 . S
Cd256 O255 2.385 . S
Cd256 O257 2.317 . S
O257 Cd256 2.317 . S
O257 C258 1.232 . S
C258 O257 1.232 . S
C258 O259 1.218 . S
O259 C258 1.218 . S
C260 O253 1.275 . S
C260 O255 1.255 . S
C261 O262 1.258 . S
C261 O263 1.256 . S
O262 Cd254 2.381 . S
O262 C261 1.258 . S
O263 Cd254 2.378 . S
O263 C261 1.256 . S
O264 Cd265 2.300 . S
O264 C271 1.275 . S
Cd265 O264 2.300 . S
Cd265 O273 2.381 . S
Cd265 O274 2.378 . S
O266 Cd267 2.385 . S
O266 C271 1.255 . S
Cd267 O266 2.385 . S
Cd267 O268 2.317 . S
O268 Cd267 2.317 . S
O268 C269 1.232 . S
C269 O268 1.232 . S
C269 O270 1.218 . S
O270 C269 1.218 . S
C271 O264 1.275 . S
C271 O266 1.255 . S
C272 O273 1.258 . S
C272 O274 1.256 . S
O273 Cd265 2.381 . S
O273 C272 1.258 . S
O274 Cd265 2.378 . S
O274 C272 1.256 . S
O275 Cd276 2.300 . S
O275 C282 1.275 . S
Cd276 O275 2.300 . S
Cd276 O284 2.381 . S
Cd276 O285 2.378 . S
O277 Cd278 2.385 . S
O277 C282 1.255 . S
Cd278 O277 2.385 . S
Cd278 O279 2.317 . S
O279 Cd278 2.317 . S
O279 C280 1.232 . S
C280 O279 1.232 . S
C280 O281 1.218 . S
O281 C280 1.218 . S
C282 O275 1.275 . S
C282 O277 1.255 . S
C283 O284 1.258 . S
C283 O285 1.256 . S
O284 Cd276 2.381 . S
O284 C283 1.258 . S
O285 Cd276 2.378 . S
O285 C283 1.256 . S
O286 Cd287 2.300 . S
O286 C293 1.275 . S
Cd287 O286 2.300 . S
Cd287 O295 2.381 . S
Cd287 O296 2.378 . S
O288 Cd289 2.385 . S
O288 C293 1.255 . S
Cd289 O288 2.385 . S
Cd289 O290 2.317 . S
O290 Cd289 2.317 . S
O290 C291 1.232 . S
C291 O290 1.232 . S
C291 O292 1.218 . S
O292 C291 1.218 . S
C293 O286 1.275 . S
C293 O288 1.255 . S
C294 O295 1.258 . S
C294 O296 1.256 . S
O295 Cd287 2.381 . S
O295 C294 1.258 . S
O296 Cd287 2.378 . S
O296 C294 1.256 . S
O297 Cd298 2.300 . S
O297 C304 1.275 . S
Cd298 O297 2.300 . S
Cd298 O306 2.381 . S
Cd298 O307 2.378 . S
O299 Cd300 2.385 . S
O299 C304 1.255 . S
Cd300 O299 2.385 . S
Cd300 O301 2.317 . S
O301 Cd300 2.317 . S
O301 C302 1.232 . S
C302 O301 1.232 . S
C302 O303 1.218 . S
O303 C302 1.218 . S
C304 O297 1.275 . S
C304 O299 1.255 . S
C305 O306 1.258 . S
C305 O307 1.256 . S
O306 Cd298 2.381 . S
O306 C305 1.258 . S
O307 Cd298 2.378 . S
O307 C305 1.256 . S
O308 Cd309 2.300 . S
O308 C315 1.275 . S
Cd309 O308 2.300 . S
Cd309 O317 2.381 . S
Cd309 O318 2.378 . S
O310 Cd311 2.385 . S
O310 C315 1.255 . S
Cd311 O310 2.385 . S
Cd311 O312 2.317 . S
O312 Cd311 2.317 . S
O312 C313 1.232 . S
C313 O312 1.232 . S
C313 O314 1.218 . S
O314 C313 1.218 . S
C315 O308 1.275 . S
C315 O310 1.255 . S
C316 O317 1.258 . S
C316 O318 1.256 . S
O317 Cd309 2.381 . S
O317 C316 1.258 . S
O318 Cd309 2.378 . S
O318 C316 1.256 . S
O319 Cd320 2.300 . S
O319 C326 1.275 . S
Cd320 O319 2.300 . S
Cd320 O328 2.381 . S
Cd320 O329 2.378 . S
O321 Cd322 2.385 . S
O321 C326 1.255 . S
Cd322 O321 2.385 . S
Cd322 O323 2.317 . S
O323 Cd322 2.317 . S
O323 C324 1.232 . S
C324 O323 1.232 . S
C324 O325 1.218 . S
O325 C324 1.218 . S
C326 O319 1.275 . S
C326 O321 1.255 . S
C327 O328 1.258 . S
C327 O329 1.256 . S
O328 Cd320 2.381 . S
O328 C327 1.258 . S
O329 Cd320 2.378 . S
O329 C327 1.256 . S
O330 Cd331 2.300 . S
O330 C337 1.275 . S
Cd331 O330 2.300 . S
Cd331 O339 2.381 . S
Cd331 O340 2.378 . S
O332 Cd333 2.385 . S
O332 C337 1.255 . S
Cd333 O332 2.385 . S
Cd333 O334 2.317 . S
O334 Cd333 2.317 . S
O334 C335 1.232 . S
C335 O334 1.232 . S
C335 O336 1.218 . S
O336 C335 1.218 . S
C337 O330 1.275 . S
C337 O332 1.255 . S
C338 O339 1.258 . S
C338 O340 1.256 . S
O339 Cd331 2.381 . S
O339 C338 1.258 . S
O340 Cd331 2.378 . S
O340 C338 1.256 . S
O341 Cd342 2.300 . S
O341 C348 1.275 . S
Cd342 O341 2.300 . S
Cd342 O350 2.381 . S
Cd342 O351 2.378 . S
O343 Cd344 2.385 . S
O343 C348 1.255 . S
Cd344 O343 2.385 . S
Cd344 O345 2.317 . S
O345 Cd344 2.317 . S
O345 C346 1.232 . S
C346 O345 1.232 . S
C346 O347 1.218 . S
O347 C346 1.218 . S
C348 O341 1.275 . S
C348 O343 1.255 . S
C349 O350 1.258 . S
C349 O351 1.256 . S
O350 Cd342 2.381 . S
O350 C349 1.258 . S
O351 Cd342 2.378 . S
O351 C349 1.256 . S
H352 C371 0.949 . S
H353 C372 0.950 . S
H354 C374 0.950 . S
H355 C375 0.950 . S
H356 C377 0.950 . S
H357 C380 0.949 1_554 S
H358 C381 0.950 . S
H359 C383 0.951 . S
H360 C384 0.949 . S
H361 C386 0.949 . S
H362 C387 0.950 . S
H363 C389 0.950 . S
H364 C390 0.950 . S
H365 C392 0.950 . S
H366 C395 0.950 . S
H367 C396 0.950 . S
H368 C398 0.951 . S
H369 C399 0.949 . S
C370 C371 1.376 . S
C370 C375 1.386 1_554 S
C370 C376 1.483 . S
C371 H352 0.949 . S
C371 C370 1.376 . S
C371 C372 1.397 1_554 S
C372 H353 0.950 . S
C372 C371 1.397 1_556 S
C372 C373 1.391 . S
C373 C372 1.391 . S
C373 C374 1.405 . S
C374 H354 0.950 . S
C374 C373 1.405 . S
C374 C375 1.367 . S
C375 H355 0.950 . S
C375 C370 1.386 1_556 S
C375 C374 1.367 . S
C376 C370 1.483 . S
C376 C377 1.382 . S
C376 C378 1.403 . S
C377 H356 0.950 . S
C377 C376 1.382 . S
C377 C393 1.411 . S
C378 C376 1.403 . S
C378 C379 1.489 . S
C378 C392 1.411 . S
C379 C378 1.489 . S
C379 C380 1.383 1_554 S
C379 C384 1.382 . S
C380 H357 0.949 1_556 S
C380 C379 1.383 1_556 S
C380 C381 1.395 . S
C381 H358 0.950 . S
C381 C380 1.395 . S
C381 C382 1.288 . S
C382 C381 1.288 . S
C382 C383 1.392 . S
C383 H359 0.951 . S
C383 C382 1.392 . S
C383 C384 1.392 1_556 S
C384 H360 0.949 . S
C384 C379 1.382 . S
C384 C383 1.392 1_554 S
C385 C386 1.376 . S
C385 C390 1.386 . S
C385 C391 1.483 . S
C386 H361 0.949 . S
C386 C385 1.376 . S
C386 C387 1.397 . S
C387 H362 0.950 . S
C387 C386 1.397 . S
C387 C388 1.391 . S
C388 C387 1.391 . S
C388 C389 1.405 . S
C389 H363 0.950 . S
C389 C388 1.405 . S
C389 C390 1.367 . S
C390 H364 0.950 . S
C390 C385 1.386 . S
C390 C389 1.367 . S
C391 C385 1.483 . S
C391 C392 1.382 . S
C391 C393 1.403 . S
C392 H365 0.950 . S
C392 C378 1.411 . S
C392 C391 1.382 . S
C393 C377 1.411 . S
C393 C391 1.403 . S
C393 C394 1.489 . S
C394 C393 1.489 . S
C394 C395 1.383 . S
C394 C399 1.382 . S
C395 H366 0.950 . S
C395 C394 1.383 . S
C395 C396 1.395 . S
C396 H367 0.950 . S
C396 C395 1.395 . S
C396 C397 1.288 . S
C397 C396 1.288 . S
C397 C398 1.392 . S
C398 H368 0.951 . S
C398 C397 1.392 . S
C398 C399 1.392 . S
C399 H369 0.949 . S
C399 C394 1.382 . S
C399 C398 1.392 . S
H400 C419 0.949 . S
H401 C420 0.950 . S
H402 C422 0.950 . S
H403 C423 0.950 . S
H404 C425 0.950 . S
H405 C428 0.950 . S
H406 C429 0.950 . S
H407 C431 0.951 . S
H408 C432 0.949 . S
H409 C434 0.949 . S
H410 C435 0.950 . S
H411 C437 0.950 . S
H412 C438 0.950 . S
H413 C440 0.950 . S
H414 C443 0.950 . S
H415 C444 0.950 . S
H416 C446 0.951 . S
H417 C447 0.949 . S
C418 C419 1.376 . S
C418 C423 1.386 . S
C418 C424 1.483 . S
C419 H400 0.949 . S
C419 C418 1.376 . S
C419 C420 1.397 . S
C420 H401 0.950 . S
C420 C419 1.397 . S
C420 C421 1.391 . S
C421 C420 1.391 . S
C421 C422 1.405 . S
C422 H402 0.950 . S
C422 C421 1.405 . S
C422 C423 1.367 . S
C423 H403 0.950 . S
C423 C418 1.386 . S
C423 C422 1.367 . S
C424 C418 1.483 . S
C424 C425 1.382 . S
C424 C426 1.403 . S
C425 H404 0.950 . S
C425 C424 1.382 . S
C425 C441 1.411 1_556 S
C426 C424 1.403 . S
C426 C427 1.489 . S
C426 C440 1.411 1_556 S
C427 C426 1.489 . S
C427 C428 1.383 . S
C427 C432 1.382 . S
C428 H405 0.950 . S
C428 C427 1.383 . S
C428 C429 1.395 . S
C429 H406 0.950 . S
C429 C428 1.395 . S
C429 C430 1.288 . S
C430 C429 1.288 . S
C430 C431 1.392 . S
C431 H407 0.951 . S
C431 C430 1.392 . S
C431 C432 1.392 . S
C432 H408 0.949 . S
C432 C427 1.382 . S
C432 C431 1.392 . S
C433 C434 1.376 . S
C433 C438 1.386 . S
C433 C439 1.483 . S
C434 H409 0.949 . S
C434 C433 1.376 . S
C434 C435 1.397 . S
C435 H410 0.950 . S
C435 C434 1.397 . S
C435 C436 1.391 . S
C436 C435 1.391 . S
C436 C437 1.405 . S
C437 H411 0.950 . S
C437 C436 1.405 . S
C437 C438 1.367 . S
C438 H412 0.950 . S
C438 C433 1.386 . S
C438 C437 1.367 . S
C439 C433 1.483 . S
C439 C440 1.382 . S
C439 C441 1.403 . S
C440 H413 0.950 . S
C440 C426 1.411 1_554 S
C440 C439 1.382 . S
C441 C425 1.411 1_554 S
C441 C439 1.403 . S
C441 C442 1.489 . S
C442 C441 1.489 . S
C442 C443 1.383 . S
C442 C447 1.382 . S
C443 H414 0.950 . S
C443 C442 1.383 . S
C443 C444 1.395 . S
C444 H415 0.950 . S
C444 C443 1.395 . S
C444 C445 1.288 . S
C445 C444 1.288 . S
C445 C446 1.392 . S
C446 H416 0.951 . S
C446 C445 1.392 . S
C446 C447 1.392 . S
C447 H417 0.949 . S
C447 C442 1.382 . S
C447 C446 1.392 . S
H448 C467 0.949 . S
H449 C468 0.950 . S
H450 C470 0.950 . S
H451 C471 0.950 . S
H452 C473 0.950 . S
H453 C476 0.950 . S
H454 C477 0.950 . S
H455 C479 0.951 . S
H456 C480 0.949 . S
H457 C482 0.934 1_554 S
H458 C483 0.950 . S
H459 C485 0.950 . S
H460 C486 0.950 1_554 S
H461 C488 0.950 . S
H462 C491 0.950 . S
H463 C492 0.950 . S
H464 C494 0.951 . S
H465 C495 0.949 . S
C466 C467 1.376 . S
C466 C471 1.386 . S
C466 C472 1.483 . S
C467 H448 0.949 . S
C467 C466 1.376 . S
C467 C468 1.397 . S
C468 H449 0.950 . S
C468 C467 1.397 . S
C468 C469 1.391 . S
C469 C468 1.391 . S
C469 C470 1.405 . S
C470 H450 0.950 . S
C470 C469 1.405 . S
C470 C471 1.367 . S
C471 H451 0.950 . S
C471 C466 1.386 . S
C471 C470 1.367 . S
C472 C466 1.483 . S
C472 C473 1.382 . S
C472 C474 1.403 . S
C473 H452 0.950 . S
C473 C472 1.382 . S
C473 C489 1.411 . S
C474 C472 1.403 . S
C474 C475 1.489 . S
C474 C488 1.411 . S
C475 C474 1.489 . S
C475 C476 1.383 . S
C475 C480 1.382 . S
C476 H453 0.950 . S
C476 C475 1.383 . S
C476 C477 1.395 . S
C477 H454 0.950 . S
C477 C476 1.395 . S
C477 C478 1.288 . S
C478 C477 1.288 . S
C478 C479 1.392 . S
C479 H455 0.951 . S
C479 C478 1.392 . S
C479 C480 1.392 . S
C480 H456 0.949 . S
C480 C475 1.382 . S
C480 C479 1.392 . S
C481 C482 1.370 1_554 S
C481 C486 1.386 1_554 S
C481 C487 1.483 . S
C482 H457 0.934 1_556 S
C482 C481 1.370 1_556 S
C482 C483 1.418 . S
C483 H458 0.950 . S
C483 C482 1.418 . S
C483 C484 1.391 . S
C484 C483 1.391 . S
C484 C485 1.405 . S
C485 H459 0.950 . S
C485 C484 1.405 . S
C485 C486 1.367 . S
C486 H460 0.950 1_556 S
C486 C481 1.386 1_556 S
C486 C485 1.367 . S
C487 C481 1.483 . S
C487 C488 1.382 . S
C487 C489 1.403 . S
C488 H461 0.950 . S
C488 C474 1.411 . S
C488 C487 1.382 . S
C489 C473 1.411 . S
C489 C487 1.403 . S
C489 C490 1.489 . S
C490 C489 1.489 . S
C490 C491 1.383 1_554 S
C490 C495 1.382 . S
C491 H462 0.950 . S
C491 C490 1.383 1_556 S
C491 C492 1.395 . S
C492 H463 0.950 . S
C492 C491 1.395 . S
C492 C493 1.288 . S
C493 C492 1.288 . S
C493 C494 1.392 . S
C494 H464 0.951 . S
C494 C493 1.392 . S
C494 C495 1.392 1_556 S
C495 H465 0.949 . S
C495 C490 1.382 . S
C495 C494 1.392 1_554 S
H496 C515 0.949 . S
H497 C516 0.950 . S
H498 C518 0.950 . S
H499 C519 0.950 . S
H500 C521 0.950 . S
H501 C524 0.950 . S
H502 C525 0.950 . S
H503 C527 0.951 . S
H504 C528 0.949 . S
H505 C530 0.949 . S
H506 C531 0.950 . S
H507 C533 0.950 . S
H508 C534 0.950 . S
H509 C536 0.950 . S
H510 C539 0.950 . S
H511 C540 0.950 . S
H512 C542 0.951 . S
H513 C543 0.949 . S
C514 C515 1.376 . S
C514 C519 1.386 . S
C514 C520 1.483 . S
C515 H496 0.949 . S
C515 C514 1.376 . S
C515 C516 1.397 . S
C516 H497 0.950 . S
C516 C515 1.397 . S
C516 C517 1.391 . S
C517 C516 1.391 . S
C517 C518 1.405 . S
C518 H498 0.950 . S
C518 C517 1.405 . S
C518 C519 1.367 . S
C519 H499 0.950 . S
C519 C514 1.386 . S
C519 C518 1.367 . S
C520 C514 1.483 . S
C520 C521 1.382 . S
C520 C522 1.403 . S
C521 H500 0.950 . S
C521 C520 1.382 . S
C521 C537 1.411 1_556 S
C522 C520 1.403 . S
C522 C523 1.489 . S
C522 C536 1.411 1_556 S
C523 C522 1.489 . S
C523 C524 1.383 . S
C523 C528 1.382 . S
C524 H501 0.950 . S
C524 C523 1.383 . S
C524 C525 1.395 . S
C525 H502 0.950 . S
C525 C524 1.395 . S
C525 C526 1.288 . S
C526 C525 1.288 . S
C526 C527 1.392 . S
C527 H503 0.951 . S
C527 C526 1.392 . S
C527 C528 1.392 . S
C528 H504 0.949 . S
C528 C523 1.382 . S
C528 C527 1.392 . S
C529 C530 1.376 . S
C529 C534 1.386 . S
C529 C535 1.483 . S
C530 H505 0.949 . S
C530 C529 1.376 . S
C530 C531 1.397 . S
C531 H506 0.950 . S
C531 C530 1.397 . S
C531 C532 1.391 . S
C532 C531 1.391 . S
C532 C533 1.405 . S
C533 H507 0.950 . S
C533 C532 1.405 . S
C533 C534 1.367 . S
C534 H508 0.950 . S
C534 C529 1.386 . S
C534 C533 1.367 . S
C535 C529 1.483 . S
C535 C536 1.382 . S
C535 C537 1.403 . S
C536 H509 0.950 . S
C536 C522 1.411 1_554 S
C536 C535 1.382 . S
C537 C521 1.411 1_554 S
C537 C535 1.403 . S
C537 C538 1.489 . S
C538 C537 1.489 . S
C538 C539 1.383 . S
C538 C543 1.382 . S
C539 H510 0.950 . S
C539 C538 1.383 . S
C539 C540 1.395 . S
C540 H511 0.950 . S
C540 C539 1.395 . S
C540 C541 1.288 . S
C541 C540 1.288 . S
C541 C542 1.392 . S
C542 H512 0.951 . S
C542 C541 1.392 . S
C542 C543 1.392 . S
C543 H513 0.949 . S
C543 C538 1.382 . S
C543 C542 1.392 . S
H544 C563 0.949 . S
H545 C564 0.950 . S
H546 C566 0.950 . S
H547 C567 0.950 . S
H548 C569 0.950 . S
H549 C572 0.950 . S
H550 C573 0.950 . S
H551 C575 0.951 . S
H552 C576 0.949 . S
H553 C578 0.949 . S
H554 C579 0.950 . S
H555 C581 0.950 . S
H556 C582 0.950 . S
H557 C584 0.950 . S
H558 C587 0.950 . S
H559 C588 0.950 . S
H560 C590 0.951 . S
H561 C591 0.949 . S
C562 C563 1.376 . S
C562 C567 1.386 . S
C562 C568 1.483 . S
C563 H544 0.949 . S
C563 C562 1.376 . S
C563 C564 1.397 . S
C564 H545 0.950 . S
C564 C563 1.397 . S
C564 C565 1.391 . S
C565 C564 1.391 . S
C565 C566 1.405 . S
C566 H546 0.950 . S
C566 C565 1.405 . S
C566 C567 1.367 . S
C567 H547 0.950 . S
C567 C562 1.386 . S
C567 C566 1.367 . S
C568 C562 1.483 . S
C568 C569 1.382 . S
C568 C570 1.403 . S
C569 H548 0.950 . S
C569 C568 1.382 . S
C569 C585 1.411 1_455 S
C570 C568 1.403 . S
C570 C571 1.489 . S
C570 C584 1.411 . S
C571 C570 1.489 . S
C571 C572 1.383 . S
C571 C576 1.382 . S
C572 H549 0.950 . S
C572 C571 1.383 . S
C572 C573 1.395 . S
C573 H550 0.950 . S
C573 C572 1.395 . S
C573 C574 1.288 . S
C574 C573 1.288 . S
C574 C575 1.392 . S
C575 H551 0.951 . S
C575 C574 1.392 . S
C575 C576 1.392 . S
C576 H552 0.949 . S
C576 C571 1.382 . S
C576 C575 1.392 . S
C577 C578 1.376 . S
C577 C582 1.386 . S
C577 C583 1.483 . S
C578 H553 0.949 . S
C578 C577 1.376 . S
C578 C579 1.397 . S
C579 H554 0.950 . S
C579 C578 1.397 . S
C579 C580 1.391 . S
C580 C579 1.391 . S
C580 C581 1.405 . S
C581 H555 0.950 . S
C581 C580 1.405 . S
C581 C582 1.367 . S
C582 H556 0.950 . S
C582 C577 1.386 . S
C582 C581 1.367 . S
C583 C577 1.483 . S
C583 C584 1.382 1_655 S
C583 C585 1.403 . S
C584 H557 0.950 . S
C584 C570 1.411 . S
C584 C583 1.382 1_455 S
C585 C569 1.411 1_655 S
C585 C583 1.403 . S
C585 C586 1.489 . S
C586 C585 1.489 . S
C586 C587 1.383 . S
C586 C591 1.382 . S
C587 H558 0.950 . S
C587 C586 1.383 . S
C587 C588 1.395 . S
C588 H559 0.950 . S
C588 C587 1.395 . S
C588 C589 1.288 . S
C589 C588 1.288 . S
C589 C590 1.392 . S
C590 H560 0.951 . S
C590 C589 1.392 . S
C590 C591 1.392 . S
C591 H561 0.949 . S
C591 C586 1.382 . S
C591 C590 1.392 . S
H592 C611 0.949 . S
H593 C612 0.950 . S
H594 C614 0.950 . S
H595 C615 0.950 . S
H596 C617 0.950 . S
H597 C620 0.950 . S
H598 C621 0.950 . S
H599 C623 0.951 . S
H600 C624 0.949 . S
H601 C626 0.949 . S
H602 C627 0.950 . S
H603 C629 0.950 . S
H604 C630 0.950 . S
H605 C632 0.950 . S
H606 C635 0.950 . S
H607 C636 0.950 . S
H608 C638 0.951 . S
H609 C639 0.949 . S
C610 C611 1.376 . S
C610 C615 1.386 . S
C610 C616 1.483 . S
C611 H592 0.949 . S
C611 C610 1.376 . S
C611 C612 1.397 . S
C612 H593 0.950 . S
C612 C611 1.397 . S
C612 C613 1.391 . S
C613 C612 1.391 . S
C613 C614 1.405 . S
C614 H594 0.950 . S
C614 C613 1.405 . S
C614 C615 1.367 . S
C615 H595 0.950 . S
C615 C610 1.386 . S
C615 C614 1.367 . S
C616 C610 1.483 . S
C616 C617 1.382 . S
C616 C618 1.403 . S
C617 H596 0.950 . S
C617 C616 1.382 . S
C617 C633 1.411 1_545 S
C618 C616 1.403 . S
C618 C619 1.489 . S
C618 C632 1.411 . S
C619 C618 1.489 . S
C619 C620 1.383 . S
C619 C624 1.382 . S
C620 H597 0.950 . S
C620 C619 1.383 . S
C620 C621 1.395 . S
C621 H598 0.950 . S
C621 C620 1.395 . S
C621 C622 1.288 . S
C622 C621 1.288 . S
C622 C623 1.392 . S
C623 H599 0.951 . S
C623 C622 1.392 . S
C623 C624 1.392 . S
C624 H600 0.949 . S
C624 C619 1.382 . S
C624 C623 1.392 . S
C625 C626 1.376 . S
C625 C630 1.386 . S
C625 C631 1.483 . S
C626 H601 0.949 . S
C626 C625 1.376 . S
C626 C627 1.397 . S
C627 H602 0.950 . S
C627 C626 1.397 . S
C627 C628 1.391 . S
C628 C627 1.391 . S
C628 C629 1.405 . S
C629 H603 0.950 . S
C629 C628 1.405 . S
C629 C630 1.367 . S
C630 H604 0.950 . S
C630 C625 1.386 . S
C630 C629 1.367 . S
C631 C625 1.483 . S
C631 C632 1.382 1_565 S
C631 C633 1.403 . S
C632 H605 0.950 . S
C632 C618 1.411 . S
C632 C631 1.382 1_545 S
C633 C617 1.411 1_565 S
C633 C631 1.403 . S
C633 C634 1.489 . S
C634 C633 1.489 . S
C634 C635 1.383 . S
C634 C639 1.382 . S
C635 H606 0.950 . S
C635 C634 1.383 . S
C635 C636 1.395 . S
C636 H607 0.950 . S
C636 C635 1.395 . S
C636 C637 1.288 . S
C637 C636 1.288 . S
C637 C638 1.392 . S
C638 H608 0.951 . S
C638 C637 1.392 . S
C638 C639 1.392 . S
C639 H609 0.949 . S
C639 C634 1.382 . S
C639 C638 1.392 . S
H640 C659 0.949 . S
H641 C660 0.950 . S
H642 C662 0.950 . S
H643 C663 0.950 . S
H644 C665 0.950 . S
H645 C668 0.950 . S
H646 C669 0.950 . S
H647 C671 0.951 . S
H648 C672 0.949 . S
H649 C674 0.949 . S
H650 C675 0.950 . S
H651 C677 0.935 1_655 S
H652 C678 0.950 . S
H653 C680 0.950 . S
H654 C683 0.950 . S
H655 C684 0.950 . S
H656 C686 0.956 . S
H657 C687 0.949 . S
C658 C659 1.376 . S
C658 C663 1.386 . S
C658 C664 1.483 . S
C659 H640 0.949 . S
C659 C658 1.376 . S
C659 C660 1.397 . S
C660 H641 0.950 . S
C660 C659 1.397 . S
C660 C661 1.391 . S
C661 C660 1.391 . S
C661 C662 1.405 . S
C662 H642 0.950 . S
C662 C661 1.405 . S
C662 C663 1.367 . S
C663 H643 0.950 . S
C663 C658 1.386 . S
C663 C662 1.367 . S
C664 C658 1.483 . S
C664 C665 1.382 . S
C664 C666 1.403 . S
C665 H644 0.950 . S
C665 C664 1.382 . S
C665 C681 1.411 . S
C666 C664 1.403 . S
C666 C667 1.489 . S
C666 C680 1.411 . S
C667 C666 1.489 . S
C667 C668 1.383 . S
C667 C672 1.382 . S
C668 H645 0.950 . S
C668 C667 1.383 . S
C668 C669 1.395 . S
C669 H646 0.950 . S
C669 C668 1.395 . S
C669 C670 1.288 . S
C670 C669 1.288 . S
C670 C671 1.392 . S
C671 H647 0.951 . S
C671 C670 1.392 . S
C671 C672 1.392 . S
C672 H648 0.949 . S
C672 C667 1.382 . S
C672 C671 1.392 . S
C673 C674 1.376 . S
C673 C678 1.386 . S
C673 C679 1.483 . S
C674 H649 0.949 . S
C674 C673 1.376 . S
C674 C675 1.397 . S
C675 H650 0.950 . S
C675 C674 1.397 . S
C675 C676 1.391 . S
C676 C675 1.391 . S
C676 C677 1.405 . S
C677 H651 0.935 1_455 S
C677 C676 1.405 . S
C677 C678 1.367 . S
C678 H652 0.950 . S
C678 C673 1.386 . S
C678 C677 1.367 . S
C679 C673 1.483 . S
C679 C680 1.382 . S
C679 C681 1.403 . S
C680 H653 0.950 . S
C680 C666 1.411 . S
C680 C679 1.382 . S
C681 C665 1.411 . S
C681 C679 1.403 . S
C681 C682 1.489 . S
C682 C681 1.489 . S
C682 C683 1.383 . S
C682 C687 1.382 . S
C683 H654 0.950 . S
C683 C682 1.383 . S
C683 C684 1.395 1_455 S
C684 H655 0.950 . S
C684 C683 1.395 1_655 S
C684 C685 1.288 . S
C685 C684 1.288 . S
C685 C686 1.392 1_655 S
C686 H656 0.956 . S
C686 C685 1.392 1_455 S
C686 C687 1.392 . S
C687 H657 0.949 . S
C687 C682 1.382 . S
C687 C686 1.392 . S
H688 C707 0.949 . S
H689 C708 0.950 . S
H690 C710 0.950 . S
H691 C711 0.950 . S
H692 C713 0.950 . S
H693 C716 0.950 . S
H694 C717 0.950 . S
H695 C719 0.951 . S
H696 C720 0.949 . S
H697 C722 0.949 . S
H698 C723 0.950 . S
H699 C725 0.950 . S
H700 C726 0.950 . S
H701 C728 0.950 . S
H702 C731 0.950 . S
H703 C732 0.950 . S
H704 C734 0.951 . S
H705 C735 0.949 . S
C706 C707 1.376 . S
C706 C711 1.386 . S
C706 C712 1.483 . S
C707 H688 0.949 . S
C707 C706 1.376 . S
C707 C708 1.397 . S
C708 H689 0.950 . S
C708 C707 1.397 . S
C708 C709 1.391 . S
C709 C708 1.391 . S
C709 C710 1.405 . S
C710 H690 0.950 . S
C710 C709 1.405 . S
C710 C711 1.367 . S
C711 H691 0.950 . S
C711 C706 1.386 . S
C711 C710 1.367 . S
C712 C706 1.483 . S
C712 C713 1.382 . S
C712 C714 1.403 . S
C713 H692 0.950 . S
C713 C712 1.382 . S
C713 C729 1.471 . S
C714 C712 1.403 . S
C714 C715 1.489 . S
C714 C728 1.411 . S
C715 C714 1.489 . S
C715 C716 1.383 . S
C715 C720 1.382 . S
C716 H693 0.950 . S
C716 C715 1.383 . S
C716 C717 1.395 . S
C717 H694 0.950 . S
C717 C716 1.395 . S
C717 C718 1.288 . S
C718 C717 1.288 . S
C718 C719 1.392 . S
C719 H695 0.951 . S
C719 C718 1.392 . S
C719 C720 1.392 . S
C720 H696 0.949 . S
C720 C715 1.382 . S
C720 C719 1.392 . S
C721 C722 1.376 . S
C721 C726 1.386 . S
C721 C727 1.483 1_565 S
C722 H697 0.949 . S
C722 C721 1.376 . S
C722 C723 1.397 . S
C723 H698 0.950 . S
C723 C722 1.397 . S
C723 C724 1.391 . S
C724 C723 1.391 . S
C724 C725 1.405 . S
C725 H699 0.950 . S
C725 C724 1.405 . S
C725 C726 1.367 . S
C726 H700 0.950 . S
C726 C721 1.386 . S
C726 C725 1.367 . S
C727 C721 1.483 1_545 S
C727 C728 1.382 . S
C727 C729 1.406 . S
C728 H701 0.950 . S
C728 C714 1.411 . S
C728 C727 1.382 . S
C729 C713 1.471 . S
C729 C727 1.406 . S
C729 C730 1.431 1_545 S
C730 C729 1.431 1_565 S
C730 C731 1.383 . S
C730 C735 1.382 . S
C731 H702 0.950 . S
C731 C730 1.383 . S
C731 C732 1.395 . S
C732 H703 0.950 . S
C732 C731 1.395 . S
C732 C733 1.288 . S
C733 C732 1.288 . S
C733 C734 1.392 . S
C734 H704 0.951 . S
C734 C733 1.392 . S
C734 C735 1.392 . S
C735 H705 0.949 . S
C735 C730 1.382 . S
C735 C734 1.392 . S
H736 C755 0.949 . S
H737 C756 0.950 . S
H738 C758 0.950 . S
H739 C759 0.950 . S
H740 C761 0.950 . S
H741 C764 0.950 . S
H742 C765 0.950 . S
H743 C767 0.951 . S
H744 C768 0.949 . S
H745 C770 0.949 . S
H746 C771 0.950 . S
H747 C773 0.950 . S
H748 C774 0.950 . S
H749 C776 0.950 . S
H750 C779 0.950 . S
H751 C780 0.950 . S
H752 C782 0.951 . S
H753 C783 0.949 . S
C754 C755 1.376 . S
C754 C759 1.386 . S
C754 C760 1.483 . S
C755 H736 0.949 . S
C755 C754 1.376 . S
C755 C756 1.397 . S
C756 H737 0.950 . S
C756 C755 1.397 . S
C756 C757 1.391 . S
C757 C756 1.391 . S
C757 C758 1.405 . S
C758 H738 0.950 . S
C758 C757 1.405 . S
C758 C759 1.367 . S
C759 H739 0.950 . S
C759 C754 1.386 . S
C759 C758 1.367 . S
C760 C754 1.483 . S
C760 C761 1.382 . S
C760 C762 1.403 . S
C761 H740 0.950 . S
C761 C760 1.382 . S
C761 C777 1.411 1_455 S
C762 C760 1.403 . S
C762 C763 1.489 . S
C762 C776 1.411 . S
C763 C762 1.489 . S
C763 C764 1.383 . S
C763 C768 1.382 . S
C764 H741 0.950 . S
C764 C763 1.383 . S
C764 C765 1.395 . S
C765 H742 0.950 . S
C765 C764 1.395 . S
C765 C766 1.288 . S
C766 C765 1.288 . S
C766 C767 1.392 . S
C767 H743 0.951 . S
C767 C766 1.392 . S
C767 C768 1.392 . S
C768 H744 0.949 . S
C768 C763 1.382 . S
C768 C767 1.392 . S
C769 C770 1.376 . S
C769 C774 1.386 . S
C769 C775 1.483 . S
C770 H745 0.949 . S
C770 C769 1.376 . S
C770 C771 1.397 . S
C771 H746 0.950 . S
C771 C770 1.397 . S
C771 C772 1.391 . S
C772 C771 1.391 . S
C772 C773 1.405 . S
C773 H747 0.950 . S
C773 C772 1.405 . S
C773 C774 1.367 . S
C774 H748 0.950 . S
C774 C769 1.386 . S
C774 C773 1.367 . S
C775 C769 1.483 . S
C775 C776 1.382 1_655 S
C775 C777 1.403 . S
C776 H749 0.950 . S
C776 C762 1.411 . S
C776 C775 1.382 1_455 S
C777 C761 1.411 1_655 S
C777 C775 1.403 . S
C777 C778 1.489 . S
C778 C777 1.489 . S
C778 C779 1.383 . S
C778 C783 1.382 . S
C779 H750 0.950 . S
C779 C778 1.383 . S
C779 C780 1.395 . S
C780 H751 0.950 . S
C780 C779 1.395 . S
C780 C781 1.288 . S
C781 C780 1.288 . S
C781 C782 1.392 . S
C782 H752 0.951 . S
C782 C781 1.392 . S
C782 C783 1.392 . S
C783 H753 0.949 . S
C783 C778 1.382 . S
C783 C782 1.392 . S
H784 C803 0.949 . S
H785 C804 0.950 . S
H786 C806 0.950 . S
H787 C807 0.950 . S
H788 C809 0.950 . S
H789 C812 0.950 . S
H790 C813 0.950 . S
H791 C815 0.951 . S
H792 C816 0.949 . S
H793 C818 0.949 . S
H794 C819 0.950 . S
H795 C821 0.950 . S
H796 C822 0.950 . S
H797 C824 0.950 . S
H798 C827 0.950 . S
H799 C828 0.950 . S
H800 C830 0.951 . S
H801 C831 0.949 . S
C802 C803 1.376 . S
C802 C807 1.386 . S
C802 C808 1.483 . S
C803 H784 0.949 . S
C803 C802 1.376 . S
C803 C804 1.397 . S
C804 H785 0.950 . S
C804 C803 1.397 . S
C804 C805 1.391 . S
C805 C804 1.391 . S
C805 C806 1.405 . S
C806 H786 0.950 . S
C806 C805 1.405 . S
C806 C807 1.367 . S
C807 H787 0.950 . S
C807 C802 1.386 . S
C807 C806 1.367 . S
C808 C802 1.483 . S
C808 C809 1.382 . S
C808 C810 1.403 . S
C809 H788 0.950 . S
C809 C808 1.382 . S
C809 C825 1.411 1_545 S
C810 C808 1.403 . S
C810 C811 1.489 . S
C810 C824 1.411 . S
C811 C810 1.489 . S
C811 C812 1.383 . S
C811 C816 1.382 . S
C812 H789 0.950 . S
C812 C811 1.383 . S
C812 C813 1.395 . S
C813 H790 0.950 . S
C813 C812 1.395 . S
C813 C814 1.288 . S
C814 C813 1.288 . S
C814 C815 1.392 . S
C815 H791 0.951 . S
C815 C814 1.392 . S
C815 C816 1.392 . S
C816 H792 0.949 . S
C816 C811 1.382 . S
C816 C815 1.392 . S
C817 C818 1.376 . S
C817 C822 1.386 . S
C817 C823 1.483 . S
C818 H793 0.949 . S
C818 C817 1.376 . S
C818 C819 1.397 . S
C819 H794 0.950 . S
C819 C818 1.397 . S
C819 C820 1.391 . S
C820 C819 1.391 . S
C820 C821 1.405 . S
C821 H795 0.950 . S
C821 C820 1.405 . S
C821 C822 1.367 . S
C822 H796 0.950 . S
C822 C817 1.386 . S
C822 C821 1.367 . S
C823 C817 1.483 . S
C823 C824 1.382 1_565 S
C823 C825 1.403 . S
C824 H797 0.950 . S
C824 C810 1.411 . S
C824 C823 1.382 1_545 S
C825 C809 1.411 1_565 S
C825 C823 1.403 . S
C825 C826 1.489 . S
C826 C825 1.489 . S
C826 C827 1.383 . S
C826 C831 1.382 . S
C827 H798 0.950 . S
C827 C826 1.383 . S
C827 C828 1.395 . S
C828 H799 0.950 . S
C828 C827 1.395 . S
C828 C829 1.288 . S
C829 C828 1.288 . S
C829 C830 1.392 . S
C830 H800 0.951 . S
C830 C829 1.392 . S
C830 C831 1.392 . S
C831 H801 0.949 . S
C831 C826 1.382 . S
C831 C830 1.392 . S
H832 C851 0.949 . S
H833 C852 0.950 . S
H834 C854 0.950 . S
H835 C855 0.950 . S
H836 C857 0.950 . S
H837 C860 0.950 . S
H838 C861 0.950 . S
H839 C863 0.951 . S
H840 C864 0.949 . S
H841 C866 0.949 . S
H842 C867 0.950 . S
H843 C869 0.950 . S
H844 C870 0.950 . S
H845 C872 0.950 . S
H846 C875 0.950 . S
H847 C876 0.950 . S
H848 C878 0.951 . S
H849 C879 0.949 . S
C850 C851 1.376 . S
C850 C855 1.386 . S
C850 C856 1.483 . S
C851 H832 0.949 . S
C851 C850 1.376 . S
C851 C852 1.397 . S
C852 H833 0.950 . S
C852 C851 1.397 . S
C852 C853 1.391 . S
C853 C852 1.391 . S
C853 C854 1.405 . S
C854 H834 0.950 . S
C854 C853 1.405 . S
C854 C855 1.367 . S
C855 H835 0.950 . S
C855 C850 1.386 . S
C855 C854 1.367 . S
C856 C850 1.483 . S
C856 C857 1.382 . S
C856 C858 1.403 . S
C857 H836 0.950 . S
C857 C856 1.382 . S
C857 C873 1.411 . S
C858 C856 1.403 . S
C858 C859 1.489 . S
C858 C872 1.411 . S
C859 C858 1.489 . S
C859 C860 1.383 . S
C859 C864 1.382 . S
C860 H837 0.950 . S
C860 C859 1.383 . S
C860 C861 1.395 1_455 S
C861 H838 0.950 . S
C861 C860 1.395 1_655 S
C861 C862 1.288 . S
C862 C861 1.288 . S
C862 C863 1.392 1_655 S
C863 H839 0.951 . S
C863 C862 1.392 1_455 S
C863 C864 1.392 . S
C864 H840 0.949 . S
C864 C859 1.382 . S
C864 C863 1.392 . S
C865 C866 1.376 . S
C865 C870 1.386 . S
C865 C871 1.483 . S
C866 H841 0.949 . S
C866 C865 1.376 . S
C866 C867 1.397 . S
C867 H842 0.950 . S
C867 C866 1.397 . S
C867 C868 1.391 . S
C868 C867 1.391 . S
C868 C869 1.405 . S
C869 H843 0.950 . S
C869 C868 1.405 . S
C869 C870 1.367 . S
C870 H844 0.950 . S
C870 C865 1.386 . S
C870 C869 1.367 . S
C871 C865 1.483 . S
C871 C872 1.382 . S
C871 C873 1.403 . S
C872 H845 0.950 . S
C872 C858 1.411 . S
C872 C871 1.382 . S
C873 C857 1.411 . S
C873 C871 1.403 . S
C873 C874 1.489 . S
C874 C873 1.489 . S
C874 C875 1.383 . S
C874 C879 1.382 . S
C875 H846 0.950 . S
C875 C874 1.383 . S
C875 C876 1.395 . S
C876 H847 0.950 . S
C876 C875 1.395 . S
C876 C877 1.288 . S
C877 C876 1.288 . S
C877 C878 1.392 . S
C878 H848 0.951 . S
C878 C877 1.392 . S
C878 C879 1.392 . S
C879 H849 0.949 . S
C879 C874 1.382 . S
C879 C878 1.392 . S
H880 C899 0.949 . S
H881 C900 0.950 . S
H882 C902 0.950 . S
H883 C903 0.950 . S
H884 C905 0.950 . S
H885 C908 0.950 . S
H886 C909 0.950 . S
H887 C911 0.951 . S
H888 C912 0.949 . S
H889 C914 0.949 . S
H890 C915 0.950 . S
H891 C917 0.950 . S
H892 C918 0.950 . S
H893 C920 0.950 . S
H894 C923 0.950 . S
H895 C924 0.950 . S
H896 C926 0.951 . S
H897 C927 0.949 . S
C898 C899 1.376 . S
C898 C903 1.386 . S
C898 C904 1.483 . S
C899 H880 0.949 . S
C899 C898 1.376 . S
C899 C900 1.397 . S
C900 H881 0.950 . S
C900 C899 1.397 . S
C900 C901 1.391 . S
C901 C900 1.391 . S
C901 C902 1.405 . S
C902 H882 0.950 . S
C902 C901 1.405 . S
C902 C903 1.367 . S
C903 H883 0.950 . S
C903 C898 1.386 . S
C903 C902 1.367 . S
C904 C898 1.483 . S
C904 C905 1.382 . S
C904 C906 1.403 . S
C905 H884 0.950 . S
C905 C904 1.382 . S
C905 C921 1.476 . S
C906 C904 1.403 . S
C906 C907 1.489 . S
C906 C920 1.411 . S
C907 C906 1.489 . S
C907 C908 1.383 . S
C907 C912 1.382 . S
C908 H885 0.950 . S
C908 C907 1.383 . S
C908 C909 1.395 . S
C909 H886 0.950 . S
C909 C908 1.395 . S
C909 C910 1.288 . S
C910 C909 1.288 . S
C910 C911 1.392 . S
C911 H887 0.951 . S
C911 C910 1.392 . S
C911 C912 1.392 . S
C912 H888 0.949 . S
C912 C907 1.382 . S
C912 C911 1.392 . S
C913 C914 1.376 . S
C913 C918 1.386 . S
C913 C919 1.483 1_565 S
C914 H889 0.949 . S
C914 C913 1.376 . S
C914 C915 1.397 . S
C915 H890 0.950 . S
C915 C914 1.397 . S
C915 C916 1.391 . S
C916 C915 1.391 . S
C916 C917 1.405 . S
C917 H891 0.950 . S
C917 C916 1.405 . S
C917 C918 1.367 . S
C918 H892 0.950 . S
C918 C913 1.386 . S
C918 C917 1.367 . S
C919 C913 1.483 1_545 S
C919 C920 1.382 . S
C919 C921 1.406 . S
C920 H893 0.950 . S
C920 C906 1.411 . S
C920 C919 1.382 . S
C921 C905 1.476 . S
C921 C919 1.406 . S
C921 C922 1.427 1_545 S
C922 C921 1.427 1_565 S
C922 C923 1.383 . S
C922 C927 1.382 . S
C923 H894 0.950 . S
C923 C922 1.383 . S
C923 C924 1.395 . S
C924 H895 0.950 . S
C924 C923 1.395 . S
C924 C925 1.288 . S
C925 C924 1.288 . S
C925 C926 1.392 . S
C926 H896 0.951 . S
C926 C925 1.392 . S
C926 C927 1.392 . S
C927 H897 0.949 . S
C927 C922 1.382 . S
C927 C926 1.392 . S
H928 C947 0.949 . S
H929 C948 0.950 . S
H930 C950 0.950 . S
H931 C951 0.950 . S
H932 C953 0.950 . S
H933 C956 0.950 . S
H934 C957 0.950 . S
H935 C959 0.951 . S
H936 C960 0.949 . S
H937 C962 0.949 . S
H938 C963 0.950 . S
H939 C965 0.950 . S
H940 C966 0.950 . S
H941 C968 0.950 . S
H942 C971 0.950 . S
H943 C972 0.950 . S
H944 C974 0.951 . S
H945 C975 0.949 . S
C946 C947 1.376 . S
C946 C951 1.386 . S
C946 C952 1.483 . S
C947 H928 0.949 . S
C947 C946 1.376 . S
C947 C948 1.397 . S
C948 H929 0.950 . S
C948 C947 1.397 . S
C948 C949 1.391 . S
C949 C948 1.391 . S
C949 C950 1.405 . S
C950 H930 0.950 . S
C950 C949 1.405 . S
C950 C951 1.367 . S
C951 H931 0.950 . S
C951 C946 1.386 . S
C951 C950 1.367 . S
C952 C946 1.483 . S
C952 C953 1.382 . S
C952 C954 1.403 . S
C953 H932 0.950 . S
C953 C952 1.382 . S
C953 C969 1.411 . S
C954 C952 1.403 . S
C954 C955 1.489 . S
C954 C968 1.411 . S
C955 C954 1.489 . S
C955 C956 1.383 . S
C955 C960 1.382 . S
C956 H933 0.950 . S
C956 C955 1.383 . S
C956 C957 1.395 . S
C957 H934 0.950 . S
C957 C956 1.395 . S
C957 C958 1.288 . S
C958 C957 1.288 . S
C958 C959 1.392 . S
C959 H935 0.951 . S
C959 C958 1.392 . S
C959 C960 1.392 . S
C960 H936 0.949 . S
C960 C955 1.382 . S
C960 C959 1.392 . S
C961 C962 1.376 . S
C961 C966 1.386 . S
C961 C967 1.483 . S
C962 H937 0.949 . S
C962 C961 1.376 . S
C962 C963 1.397 . S
C963 H938 0.950 . S
C963 C962 1.397 . S
C963 C964 1.391 . S
C964 C963 1.391 . S
C964 C965 1.405 . S
C965 H939 0.950 . S
C965 C964 1.405 . S
C965 C966 1.367 . S
C966 H940 0.950 . S
C966 C961 1.386 . S
C966 C965 1.367 . S
C967 C961 1.483 . S
C967 C968 1.382 . S
C967 C969 1.403 . S
C968 H941 0.950 . S
C968 C954 1.411 . S
C968 C967 1.382 . S
C969 C953 1.411 . S
C969 C967 1.403 . S
C969 C970 1.489 . S
C970 C969 1.489 . S
C970 C971 1.383 . S
C970 C975 1.382 . S
C971 H942 0.950 . S
C971 C970 1.383 . S
C971 C972 1.395 . S
C972 H943 0.950 . S
C972 C971 1.395 . S
C972 C973 1.288 . S
C973 C972 1.288 . S
C973 C974 1.392 . S
C974 H944 0.951 . S
C974 C973 1.392 . S
C974 C975 1.392 . S
C975 H945 0.949 . S
C975 C970 1.382 . S
C975 C974 1.392 . S
H976 C995 0.949 . S
H977 C996 0.950 . S
H978 C998 0.950 . S
H979 C999 0.950 . S
H980 C1001 0.950 . S
H981 C1004 0.950 . S
H982 C1005 0.950 . S
H983 C1007 0.951 . S
H984 C1008 0.949 . S
H985 C1010 0.949 . S
H986 C1011 0.950 . S
H987 C1013 0.950 . S
H988 C1014 0.950 . S
H989 C1016 0.950 . S
H990 C1019 0.950 . S
H991 C1020 0.950 . S
H992 C1022 0.951 . S
H993 C1023 0.949 . S
C994 C995 1.376 . S
C994 C999 1.386 . S
C994 C1000 1.483 . S
C995 H976 0.949 . S
C995 C994 1.376 . S
C995 C996 1.397 . S
C996 H977 0.950 . S
C996 C995 1.397 . S
C996 C997 1.391 . S
C997 C996 1.391 . S
C997 C998 1.405 . S
C998 H978 0.950 . S
C998 C997 1.405 . S
C998 C999 1.367 . S
C999 H979 0.950 . S
C999 C994 1.386 . S
C999 C998 1.367 . S
C1000 C994 1.483 . S
C1000 C1001 1.382 . S
C1000 C1002 1.403 . S
C1001 H980 0.950 . S
C1001 C1000 1.382 . S
C1001 C1017 1.411 . S
C1002 C1000 1.403 . S
C1002 C1003 1.489 . S
C1002 C1016 1.411 . S
C1003 C1002 1.489 . S
C1003 C1004 1.383 . S
C1003 C1008 1.382 . S
C1004 H981 0.950 . S
C1004 C1003 1.383 . S
C1004 C1005 1.395 . S
C1005 H982 0.950 . S
C1005 C1004 1.395 . S
C1005 C1006 1.288 . S
C1006 C1005 1.288 . S
C1006 C1007 1.392 . S
C1007 H983 0.951 . S
C1007 C1006 1.392 . S
C1007 C1008 1.392 . S
C1008 H984 0.949 . S
C1008 C1003 1.382 . S
C1008 C1007 1.392 . S
C1009 C1010 1.376 . S
C1009 C1014 1.386 . S
C1009 C1015 1.483 . S
C1010 H985 0.949 . S
C1010 C1009 1.376 . S
C1010 C1011 1.397 . S
C1011 H986 0.950 . S
C1011 C1010 1.397 . S
C1011 C1012 1.391 . S
C1012 C1011 1.391 . S
C1012 C1013 1.405 . S
C1013 H987 0.950 . S
C1013 C1012 1.405 . S
C1013 C1014 1.367 . S
C1014 H988 0.950 . S
C1014 C1009 1.386 . S
C1014 C1013 1.367 . S
C1015 C1009 1.483 . S
C1015 C1016 1.382 . S
C1015 C1017 1.403 . S
C1016 H989 0.950 . S
C1016 C1002 1.411 . S
C1016 C1015 1.382 . S
C1017 C1001 1.411 . S
C1017 C1015 1.403 . S
C1017 C1018 1.489 . S
C1018 C1017 1.489 . S
C1018 C1019 1.383 . S
C1018 C1023 1.382 . S
C1019 H990 0.950 . S
C1019 C1018 1.383 . S
C1019 C1020 1.395 . S
C1020 H991 0.950 . S
C1020 C1019 1.395 . S
C1020 C1021 1.288 . S
C1021 C1020 1.288 . S
C1021 C1022 1.392 . S
C1022 H992 0.951 . S
C1022 C1021 1.392 . S
C1022 C1023 1.392 . S
C1023 H993 0.949 . S
C1023 C1018 1.382 . S
C1023 C1022 1.392 . S
H1024 C1043 0.949 . S
H1025 C1044 0.950 . S
H1026 C1046 0.950 . S
H1027 C1047 0.950 . S
H1028 C1049 0.950 . S
H1029 C1052 0.950 . S
H1030 C1053 0.950 . S
H1031 C1055 0.951 . S
H1032 C1056 0.949 . S
H1033 C1058 0.949 . S
H1034 C1059 0.950 . S
H1035 C1061 0.950 . S
H1036 C1062 0.950 . S
H1037 C1064 0.950 . S
H1038 C1067 0.950 . S
H1039 C1068 0.950 . S
H1040 C1070 0.951 . S
H1041 C1071 0.949 . S
C1042 C1043 1.376 . S
C1042 C1047 1.386 . S
C1042 C1048 1.483 . S
C1043 H1024 0.949 . S
C1043 C1042 1.376 . S
C1043 C1044 1.397 . S
C1044 H1025 0.950 . S
C1044 C1043 1.397 . S
C1044 C1045 1.391 . S
C1045 C1044 1.391 . S
C1045 C1046 1.405 . S
C1046 H1026 0.950 . S
C1046 C1045 1.405 . S
C1046 C1047 1.367 . S
C1047 H1027 0.950 . S
C1047 C1042 1.386 . S
C1047 C1046 1.367 . S
C1048 C1042 1.483 . S
C1048 C1049 1.382 . S
C1048 C1050 1.403 . S
C1049 H1028 0.950 . S
C1049 C1048 1.382 . S
C1049 C1065 1.411 . S
C1050 C1048 1.403 . S
C1050 C1051 1.489 . S
C1050 C1064 1.411 . S
C1051 C1050 1.489 . S
C1051 C1052 1.383 . S
C1051 C1056 1.382 . S
C1052 H1029 0.950 . S
C1052 C1051 1.383 . S
C1052 C1053 1.395 . S
C1053 H1030 0.950 . S
C1053 C1052 1.395 . S
C1053 C1054 1.288 . S
C1054 C1053 1.288 . S
C1054 C1055 1.392 . S
C1055 H1031 0.951 . S
C1055 C1054 1.392 . S
C1055 C1056 1.392 . S
C1056 H1032 0.949 . S
C1056 C1051 1.382 . S
C1056 C1055 1.392 . S
C1057 C1058 1.376 . S
C1057 C1062 1.386 . S
C1057 C1063 1.483 . S
C1058 H1033 0.949 . S
C1058 C1057 1.376 . S
C1058 C1059 1.397 . S
C1059 H1034 0.950 . S
C1059 C1058 1.397 . S
C1059 C1060 1.391 . S
C1060 C1059 1.391 . S
C1060 C1061 1.405 . S
C1061 H1035 0.950 . S
C1061 C1060 1.405 . S
C1061 C1062 1.367 . S
C1062 H1036 0.950 . S
C1062 C1057 1.386 . S
C1062 C1061 1.367 . S
C1063 C1057 1.483 . S
C1063 C1064 1.382 . S
C1063 C1065 1.403 . S
C1064 H1037 0.950 . S
C1064 C1050 1.411 . S
C1064 C1063 1.382 . S
C1065 C1049 1.411 . S
C1065 C1063 1.403 . S
C1065 C1066 1.489 . S
C1066 C1065 1.489 . S
C1066 C1067 1.383 . S
C1066 C1071 1.382 . S
C1067 H1038 0.950 . S
C1067 C1066 1.383 . S
C1067 C1068 1.395 . S
C1068 H1039 0.950 . S
C1068 C1067 1.395 . S
C1068 C1069 1.288 . S
C1069 C1068 1.288 . S
C1069 C1070 1.392 . S
C1070 H1040 0.951 . S
C1070 C1069 1.392 . S
C1070 C1071 1.392 . S
C1071 H1041 0.949 . S
C1071 C1066 1.382 . S
C1071 C1070 1.392 . S
H1072 C1091 0.949 . S
H1073 C1092 0.950 . S
H1074 C1094 0.950 . S
H1075 C1095 0.950 . S
H1076 C1097 0.950 . S
H1077 C1100 0.950 . S
H1078 C1101 0.950 . S
H1079 C1103 0.951 . S
H1080 C1104 0.949 . S
H1081 C1106 0.949 . S
H1082 C1107 0.950 . S
H1083 C1109 0.950 . S
H1084 C1110 0.950 . S
H1085 C1112 0.950 . S
H1086 C1115 0.950 . S
H1087 C1116 0.950 . S
H1088 C1118 0.951 . S
H1089 C1119 0.949 . S
C1090 C1091 1.376 . S
C1090 C1095 1.386 . S
C1090 C1096 1.483 . S
C1091 H1072 0.949 . S
C1091 C1090 1.376 . S
C1091 C1092 1.397 . S
C1092 H1073 0.950 . S
C1092 C1091 1.397 . S
C1092 C1093 1.391 . S
C1093 C1092 1.391 . S
C1093 C1094 1.405 . S
C1094 H1074 0.950 . S
C1094 C1093 1.405 . S
C1094 C1095 1.367 . S
C1095 H1075 0.950 . S
C1095 C1090 1.386 . S
C1095 C1094 1.367 . S
C1096 C1090 1.483 . S
C1096 C1097 1.382 . S
C1096 C1098 1.403 . S
C1097 H1076 0.950 . S
C1097 C1096 1.382 . S
C1097 C1113 1.411 . S
C1098 C1096 1.403 . S
C1098 C1099 1.489 . S
C1098 C1112 1.411 . S
C1099 C1098 1.489 . S
C1099 C1100 1.383 . S
C1099 C1104 1.382 . S
C1100 H1077 0.950 . S
C1100 C1099 1.383 . S
C1100 C1101 1.395 . S
C1101 H1078 0.950 . S
C1101 C1100 1.395 . S
C1101 C1102 1.288 . S
C1102 C1101 1.288 . S
C1102 C1103 1.392 . S
C1103 H1079 0.951 . S
C1103 C1102 1.392 . S
C1103 C1104 1.392 . S
C1104 H1080 0.949 . S
C1104 C1099 1.382 . S
C1104 C1103 1.392 . S
C1105 C1106 1.376 . S
C1105 C1110 1.386 . S
C1105 C1111 1.483 . S
C1106 H1081 0.949 . S
C1106 C1105 1.376 . S
C1106 C1107 1.397 . S
C1107 H1082 0.950 . S
C1107 C1106 1.397 . S
C1107 C1108 1.391 . S
C1108 C1107 1.391 . S
C1108 C1109 1.405 . S
C1109 H1083 0.950 . S
C1109 C1108 1.405 . S
C1109 C1110 1.367 . S
C1110 H1084 0.950 . S
C1110 C1105 1.386 . S
C1110 C1109 1.367 . S
C1111 C1105 1.483 . S
C1111 C1112 1.382 . S
C1111 C1113 1.403 . S
C1112 H1085 0.950 . S
C1112 C1098 1.411 . S
C1112 C1111 1.382 . S
C1113 C1097 1.411 . S
C1113 C1111 1.403 . S
C1113 C1114 1.489 . S
C1114 C1113 1.489 . S
C1114 C1115 1.383 . S
C1114 C1119 1.382 . S
C1115 H1086 0.950 . S
C1115 C1114 1.383 . S
C1115 C1116 1.395 . S
C1116 H1087 0.950 . S
C1116 C1115 1.395 . S
C1116 C1117 1.288 . S
C1117 C1116 1.288 . S
C1117 C1118 1.392 . S
C1118 H1088 0.951 . S
C1118 C1117 1.392 . S
C1118 C1119 1.392 . S
C1119 H1089 0.949 . S
C1119 C1114 1.382 . S
C1119 C1118 1.392 . S
H1120 C1139 0.949 . S
H1121 C1140 0.950 . S
H1122 C1142 0.950 . S
H1123 C1143 0.950 . S
H1124 C1145 0.950 . S
H1125 C1148 0.950 . S
H1126 C1149 0.950 . S
H1127 C1151 0.951 . S
H1128 C1152 0.949 . S
H1129 C1154 0.949 . S
H1130 C1155 0.950 . S
H1131 C1157 0.950 . S
H1132 C1158 0.950 . S
H1133 C1160 0.950 . S
H1134 C1163 0.950 . S
H1135 C1164 0.950 . S
H1136 C1166 0.951 . S
H1137 C1167 0.949 . S
C1138 C1139 1.376 . S
C1138 C1143 1.386 . S
C1138 C1144 1.483 . S
C1139 H1120 0.949 . S
C1139 C1138 1.376 . S
C1139 C1140 1.397 . S
C1140 H1121 0.950 . S
C1140 C1139 1.397 . S
C1140 C1141 1.391 . S
C1141 C1140 1.391 . S
C1141 C1142 1.405 . S
C1142 H1122 0.950 . S
C1142 C1141 1.405 . S
C1142 C1143 1.367 . S
C1143 H1123 0.950 . S
C1143 C1138 1.386 . S
C1143 C1142 1.367 . S
C1144 C1138 1.483 . S
C1144 C1145 1.382 . S
C1144 C1146 1.403 . S
C1145 H1124 0.950 . S
C1145 C1144 1.382 . S
C1145 C1161 1.411 . S
C1146 C1144 1.403 . S
C1146 C1147 1.489 . S
C1146 C1160 1.411 . S
C1147 C1146 1.489 . S
C1147 C1148 1.383 . S
C1147 C1152 1.382 . S
C1148 H1125 0.950 . S
C1148 C1147 1.383 . S
C1148 C1149 1.395 . S
C1149 H1126 0.950 . S
C1149 C1148 1.395 . S
C1149 C1150 1.288 . S
C1150 C1149 1.288 . S
C1150 C1151 1.392 . S
C1151 H1127 0.951 . S
C1151 C1150 1.392 . S
C1151 C1152 1.392 . S
C1152 H1128 0.949 . S
C1152 C1147 1.382 . S
C1152 C1151 1.392 . S
C1153 C1154 1.376 . S
C1153 C1158 1.386 . S
C1153 C1159 1.483 . S
C1154 H1129 0.949 . S
C1154 C1153 1.376 . S
C1154 C1155 1.397 . S
C1155 H1130 0.950 . S
C1155 C1154 1.397 . S
C1155 C1156 1.391 . S
C1156 C1155 1.391 . S
C1156 C1157 1.405 . S
C1157 H1131 0.950 . S
C1157 C1156 1.405 . S
C1157 C1158 1.367 . S
C1158 H1132 0.950 . S
C1158 C1153 1.386 . S
C1158 C1157 1.367 . S
C1159 C1153 1.483 . S
C1159 C1160 1.382 . S
C1159 C1161 1.403 . S
C1160 H1133 0.950 . S
C1160 C1146 1.411 . S
C1160 C1159 1.382 . S
C1161 C1145 1.411 . S
C1161 C1159 1.403 . S
C1161 C1162 1.489 . S
C1162 C1161 1.489 . S
C1162 C1163 1.383 . S
C1162 C1167 1.382 . S
C1163 H1134 0.950 . S
C1163 C1162 1.383 . S
C1163 C1164 1.395 . S
C1164 H1135 0.950 . S
C1164 C1163 1.395 . S
C1164 C1165 1.288 . S
C1165 C1164 1.288 . S
C1165 C1166 1.392 . S
C1166 H1136 0.951 . S
C1166 C1165 1.392 . S
C1166 C1167 1.392 . S
C1167 H1137 0.949 . S
C1167 C1162 1.382 . S
C1167 C1166 1.392 . S
H1168 C1187 0.949 . S
H1169 C1188 0.950 . S
H1170 C1190 0.950 . S
H1171 C1191 0.950 . S
H1172 C1193 0.950 . S
H1173 C1196 0.950 . S
H1174 C1197 0.950 . S
H1175 C1199 0.951 . S
H1176 C1200 0.949 . S
H1177 C1202 0.949 . S
H1178 C1203 0.950 . S
H1179 C1205 0.950 . S
H1180 C1206 0.950 . S
H1181 C1208 0.950 . S
H1182 C1211 0.950 . S
H1183 C1212 0.950 . S
H1184 C1214 0.951 . S
H1185 C1215 0.949 . S
C1186 C1187 1.376 . S
C1186 C1191 1.386 . S
C1186 C1192 1.483 . S
C1187 H1168 0.949 . S
C1187 C1186 1.376 . S
C1187 C1188 1.397 . S
C1188 H1169 0.950 . S
C1188 C1187 1.397 . S
C1188 C1189 1.391 . S
C1189 C1188 1.391 . S
C1189 C1190 1.405 . S
C1190 H1170 0.950 . S
C1190 C1189 1.405 . S
C1190 C1191 1.367 . S
C1191 H1171 0.950 . S
C1191 C1186 1.386 . S
C1191 C1190 1.367 . S
C1192 C1186 1.483 . S
C1192 C1193 1.382 . S
C1192 C1194 1.403 . S
C1193 H1172 0.950 . S
C1193 C1192 1.382 . S
C1193 C1209 1.411 . S
C1194 C1192 1.403 . S
C1194 C1195 1.489 . S
C1194 C1208 1.411 . S
C1195 C1194 1.489 . S
C1195 C1196 1.383 . S
C1195 C1200 1.382 . S
C1196 H1173 0.950 . S
C1196 C1195 1.383 . S
C1196 C1197 1.395 . S
C1197 H1174 0.950 . S
C1197 C1196 1.395 . S
C1197 C1198 1.288 . S
C1198 C1197 1.288 . S
C1198 C1199 1.392 . S
C1199 H1175 0.951 . S
C1199 C1198 1.392 . S
C1199 C1200 1.392 . S
C1200 H1176 0.949 . S
C1200 C1195 1.382 . S
C1200 C1199 1.392 . S
C1201 C1202 1.376 . S
C1201 C1206 1.386 . S
C1201 C1207 1.483 . S
C1202 H1177 0.949 . S
C1202 C1201 1.376 . S
C1202 C1203 1.397 . S
C1203 H1178 0.950 . S
C1203 C1202 1.397 . S
C1203 C1204 1.391 . S
C1204 C1203 1.391 . S
C1204 C1205 1.405 . S
C1205 H1179 0.950 . S
C1205 C1204 1.405 . S
C1205 C1206 1.367 . S
C1206 H1180 0.950 . S
C1206 C1201 1.386 . S
C1206 C1205 1.367 . S
C1207 C1201 1.483 . S
C1207 C1208 1.382 . S
C1207 C1209 1.403 . S
C1208 H1181 0.950 . S
C1208 C1194 1.411 . S
C1208 C1207 1.382 . S
C1209 C1193 1.411 . S
C1209 C1207 1.403 . S
C1209 C1210 1.489 . S
C1210 C1209 1.489 . S
C1210 C1211 1.383 . S
C1210 C1215 1.382 . S
C1211 H1182 0.950 . S
C1211 C1210 1.383 . S
C1211 C1212 1.395 . S
C1212 H1183 0.950 . S
C1212 C1211 1.395 . S
C1212 C1213 1.288 . S
C1213 C1212 1.288 . S
C1213 C1214 1.392 . S
C1214 H1184 0.951 . S
C1214 C1213 1.392 . S
C1214 C1215 1.392 . S
C1215 H1185 0.949 . S
C1215 C1210 1.382 . S
C1215 C1214 1.392 . S
H1216 C1235 0.949 . S
H1217 C1236 0.950 . S
H1218 C1238 0.950 . S
H1219 C1239 0.950 . S
H1220 C1241 0.950 . S
H1221 C1244 0.950 . S
H1222 C1245 0.950 . S
H1223 C1247 0.951 . S
H1224 C1248 0.949 . S
H1225 C1250 0.949 . S
H1226 C1251 0.950 . S
H1227 C1253 0.950 . S
H1228 C1254 0.950 . S
H1229 C1256 0.950 . S
H1230 C1259 0.950 . S
H1231 C1260 0.950 . S
H1232 C1262 0.951 . S
H1233 C1263 0.949 . S
C1234 C1235 1.376 . S
C1234 C1239 1.386 . S
C1234 C1240 1.483 . S
C1235 H1216 0.949 . S
C1235 C1234 1.376 . S
C1235 C1236 1.397 . S
C1236 H1217 0.950 . S
C1236 C1235 1.397 . S
C1236 C1237 1.391 . S
C1237 C1236 1.391 . S
C1237 C1238 1.405 . S
C1238 H1218 0.950 . S
C1238 C1237 1.405 . S
C1238 C1239 1.367 . S
C1239 H1219 0.950 . S
C1239 C1234 1.386 . S
C1239 C1238 1.367 . S
C1240 C1234 1.483 . S
C1240 C1241 1.382 . S
C1240 C1242 1.403 . S
C1241 H1220 0.950 . S
C1241 C1240 1.382 . S
C1241 C1257 1.411 . S
C1242 C1240 1.403 . S
C1242 C1243 1.489 . S
C1242 C1256 1.411 . S
C1243 C1242 1.489 . S
C1243 C1244 1.383 . S
C1243 C1248 1.382 . S
C1244 H1221 0.950 . S
C1244 C1243 1.383 . S
C1244 C1245 1.395 . S
C1245 H1222 0.950 . S
C1245 C1244 1.395 . S
C1245 C1246 1.288 . S
C1246 C1245 1.288 . S
C1246 C1247 1.392 . S
C1247 H1223 0.951 . S
C1247 C1246 1.392 . S
C1247 C1248 1.392 . S
C1248 H1224 0.949 . S
C1248 C1243 1.382 . S
C1248 C1247 1.392 . S
C1249 C1250 1.376 . S
C1249 C1254 1.386 . S
C1249 C1255 1.483 . S
C1250 H1225 0.949 . S
C1250 C1249 1.376 . S
C1250 C1251 1.397 . S
C1251 H1226 0.950 . S
C1251 C1250 1.397 . S
C1251 C1252 1.391 . S
C1252 C1251 1.391 . S
C1252 C1253 1.405 . S
C1253 H1227 0.950 . S
C1253 C1252 1.405 . S
C1253 C1254 1.367 . S
C1254 H1228 0.950 . S
C1254 C1249 1.386 . S
C1254 C1253 1.367 . S
C1255 C1249 1.483 . S
C1255 C1256 1.382 . S
C1255 C1257 1.403 . S
C1256 H1229 0.950 . S
C1256 C1242 1.411 . S
C1256 C1255 1.382 . S
C1257 C1241 1.411 . S
C1257 C1255 1.403 . S
C1257 C1258 1.489 . S
C1258 C1257 1.489 . S
C1258 C1259 1.383 . S
C1258 C1263 1.382 . S
C1259 H1230 0.950 . S
C1259 C1258 1.383 . S
C1259 C1260 1.395 . S
C1260 H1231 0.950 . S
C1260 C1259 1.395 . S
C1260 C1261 1.288 . S
C1261 C1260 1.288 . S
C1261 C1262 1.392 . S
C1262 H1232 0.951 . S
C1262 C1261 1.392 . S
C1262 C1263 1.392 . S
C1263 H1233 0.949 . S
C1263 C1258 1.382 . S
C1263 C1262 1.392 . S
H1264 C1283 0.949 . S
H1265 C1284 0.950 . S
H1266 C1286 0.950 . S
H1267 C1287 0.950 . S
H1268 C1289 0.950 . S
H1269 C1292 0.950 . S
H1270 C1293 0.950 . S
H1271 C1295 0.951 . S
H1272 C1296 0.949 . S
H1273 C1298 0.949 . S
H1274 C1299 0.950 . S
H1275 C1301 0.950 . S
H1276 C1302 0.950 . S
H1277 C1304 0.950 . S
H1278 C1307 0.950 . S
H1279 C1308 0.950 . S
H1280 C1310 0.951 . S
H1281 C1311 0.949 . S
C1282 C1283 1.376 . S
C1282 C1287 1.386 . S
C1282 C1288 1.483 . S
C1283 H1264 0.949 . S
C1283 C1282 1.376 . S
C1283 C1284 1.397 . S
C1284 H1265 0.950 . S
C1284 C1283 1.397 . S
C1284 C1285 1.391 . S
C1285 C1284 1.391 . S
C1285 C1286 1.405 . S
C1286 H1266 0.950 . S
C1286 C1285 1.405 . S
C1286 C1287 1.367 . S
C1287 H1267 0.950 . S
C1287 C1282 1.386 . S
C1287 C1286 1.367 . S
C1288 C1282 1.483 . S
C1288 C1289 1.382 . S
C1288 C1290 1.403 . S
C1289 H1268 0.950 . S
C1289 C1288 1.382 . S
C1289 C1305 1.411 . S
C1290 C1288 1.403 . S
C1290 C1291 1.489 . S
C1290 C1304 1.411 . S
C1291 C1290 1.489 . S
C1291 C1292 1.383 . S
C1291 C1296 1.382 . S
C1292 H1269 0.950 . S
C1292 C1291 1.383 . S
C1292 C1293 1.395 . S
C1293 H1270 0.950 . S
C1293 C1292 1.395 . S
C1293 C1294 1.288 . S
C1294 C1293 1.288 . S
C1294 C1295 1.392 . S
C1295 H1271 0.951 . S
C1295 C1294 1.392 . S
C1295 C1296 1.392 . S
C1296 H1272 0.949 . S
C1296 C1291 1.382 . S
C1296 C1295 1.392 . S
C1297 C1298 1.376 . S
C1297 C1302 1.386 . S
C1297 C1303 1.483 . S
C1298 H1273 0.949 . S
C1298 C1297 1.376 . S
C1298 C1299 1.397 . S
C1299 H1274 0.950 . S
C1299 C1298 1.397 . S
C1299 C1300 1.391 . S
C1300 C1299 1.391 . S
C1300 C1301 1.405 . S
C1301 H1275 0.950 . S
C1301 C1300 1.405 . S
C1301 C1302 1.367 . S
C1302 H1276 0.950 . S
C1302 C1297 1.386 . S
C1302 C1301 1.367 . S
C1303 C1297 1.483 . S
C1303 C1304 1.382 . S
C1303 C1305 1.403 . S
C1304 H1277 0.950 . S
C1304 C1290 1.411 . S
C1304 C1303 1.382 . S
C1305 C1289 1.411 . S
C1305 C1303 1.403 . S
C1305 C1306 1.489 . S
C1306 C1305 1.489 . S
C1306 C1307 1.383 . S
C1306 C1311 1.382 . S
C1307 H1278 0.950 . S
C1307 C1306 1.383 . S
C1307 C1308 1.395 . S
C1308 H1279 0.950 . S
C1308 C1307 1.395 . S
C1308 C1309 1.288 . S
C1309 C1308 1.288 . S
C1309 C1310 1.392 . S
C1310 H1280 0.951 . S
C1310 C1309 1.392 . S
C1310 C1311 1.392 . S
C1311 H1281 0.949 . S
C1311 C1306 1.382 . S
C1311 C1310 1.392 . S
H1312 C1331 0.949 . S
H1313 C1332 0.950 . S
H1314 C1334 0.950 . S
H1315 C1335 0.950 . S
H1316 C1337 0.950 . S
H1317 C1340 0.950 . S
H1318 C1341 0.950 . S
H1319 C1343 0.951 . S
H1320 C1344 0.949 . S
H1321 C1346 0.949 . S
H1322 C1347 0.950 . S
H1323 C1349 0.950 . S
H1324 C1350 0.950 . S
H1325 C1352 0.950 . S
H1326 C1355 0.950 . S
H1327 C1356 0.950 . S
H1328 C1358 0.951 . S
H1329 C1359 0.949 . S
C1330 C1331 1.376 . S
C1330 C1335 1.386 . S
C1330 C1336 1.483 . S
C1331 H1312 0.949 . S
C1331 C1330 1.376 . S
C1331 C1332 1.397 . S
C1332 H1313 0.950 . S
C1332 C1331 1.397 . S
C1332 C1333 1.391 . S
C1333 C1332 1.391 . S
C1333 C1334 1.405 . S
C1334 H1314 0.950 . S
C1334 C1333 1.405 . S
C1334 C1335 1.367 . S
C1335 H1315 0.950 . S
C1335 C1330 1.386 . S
C1335 C1334 1.367 . S
C1336 C1330 1.483 . S
C1336 C1337 1.382 . S
C1336 C1338 1.403 . S
C1337 H1316 0.950 . S
C1337 C1336 1.382 . S
C1337 C1353 1.411 . S
C1338 C1336 1.403 . S
C1338 C1339 1.489 . S
C1338 C1352 1.411 . S
C1339 C1338 1.489 . S
C1339 C1340 1.383 . S
C1339 C1344 1.382 . S
C1340 H1317 0.950 . S
C1340 C1339 1.383 . S
C1340 C1341 1.395 . S
C1341 H1318 0.950 . S
C1341 C1340 1.395 . S
C1341 C1342 1.288 . S
C1342 C1341 1.288 . S
C1342 C1343 1.392 . S
C1343 H1319 0.951 . S
C1343 C1342 1.392 . S
C1343 C1344 1.392 . S
C1344 H1320 0.949 . S
C1344 C1339 1.382 . S
C1344 C1343 1.392 . S
C1345 C1346 1.376 . S
C1345 C1350 1.386 . S
C1345 C1351 1.483 . S
C1346 H1321 0.949 . S
C1346 C1345 1.376 . S
C1346 C1347 1.397 . S
C1347 H1322 0.950 . S
C1347 C1346 1.397 . S
C1347 C1348 1.391 . S
C1348 C1347 1.391 . S
C1348 C1349 1.405 . S
C1349 H1323 0.950 . S
C1349 C1348 1.405 . S
C1349 C1350 1.367 . S
C1350 H1324 0.950 . S
C1350 C1345 1.386 . S
C1350 C1349 1.367 . S
C1351 C1345 1.483 . S
C1351 C1352 1.382 . S
C1351 C1353 1.403 . S
C1352 H1325 0.950 . S
C1352 C1338 1.411 . S
C1352 C1351 1.382 . S
C1353 C1337 1.411 . S
C1353 C1351 1.403 . S
C1353 C1354 1.489 . S
C1354 C1353 1.489 . S
C1354 C1355 1.383 . S
C1354 C1359 1.382 . S
C1355 H1326 0.950 . S
C1355 C1354 1.383 . S
C1355 C1356 1.395 . S
C1356 H1327 0.950 . S
C1356 C1355 1.395 . S
C1356 C1357 1.288 . S
C1357 C1356 1.288 . S
C1357 C1358 1.392 . S
C1358 H1328 0.951 . S
C1358 C1357 1.392 . S
C1358 C1359 1.392 . S
C1359 H1329 0.949 . S
C1359 C1354 1.382 . S
C1359 C1358 1.392 . S
H1360 C1379 0.949 . S
H1361 C1380 0.950 . S
H1362 C1382 0.950 . S
H1363 C1383 0.950 . S
H1364 C1385 0.950 . S
H1365 C1388 0.950 . S
H1366 C1389 0.950 . S
H1367 C1391 0.951 . S
H1368 C1392 0.949 . S
H1369 C1394 0.949 . S
H1370 C1395 0.950 . S
H1371 C1397 0.950 . S
H1372 C1398 0.950 . S
H1373 C1400 0.950 . S
H1374 C1403 0.950 . S
H1375 C1404 0.950 . S
H1376 C1406 0.951 . S
H1377 C1407 0.949 . S
C1378 C1379 1.376 . S
C1378 C1383 1.386 . S
C1378 C1384 1.483 . S
C1379 H1360 0.949 . S
C1379 C1378 1.376 . S
C1379 C1380 1.397 . S
C1380 H1361 0.950 . S
C1380 C1379 1.397 . S
C1380 C1381 1.391 . S
C1381 C1380 1.391 . S
C1381 C1382 1.405 . S
C1382 H1362 0.950 . S
C1382 C1381 1.405 . S
C1382 C1383 1.367 . S
C1383 H1363 0.950 . S
C1383 C1378 1.386 . S
C1383 C1382 1.367 . S
C1384 C1378 1.483 . S
C1384 C1385 1.382 . S
C1384 C1386 1.403 . S
C1385 H1364 0.950 . S
C1385 C1384 1.382 . S
C1385 C1401 1.411 . S
C1386 C1384 1.403 . S
C1386 C1387 1.489 . S
C1386 C1400 1.411 . S
C1387 C1386 1.489 . S
C1387 C1388 1.383 . S
C1387 C1392 1.382 . S
C1388 H1365 0.950 . S
C1388 C1387 1.383 . S
C1388 C1389 1.395 . S
C1389 H1366 0.950 . S
C1389 C1388 1.395 . S
C1389 C1390 1.288 . S
C1390 C1389 1.288 . S
C1390 C1391 1.392 . S
C1391 H1367 0.951 . S
C1391 C1390 1.392 . S
C1391 C1392 1.392 . S
C1392 H1368 0.949 . S
C1392 C1387 1.382 . S
C1392 C1391 1.392 . S
C1393 C1394 1.376 . S
C1393 C1398 1.386 . S
C1393 C1399 1.483 . S
C1394 H1369 0.949 . S
C1394 C1393 1.376 . S
C1394 C1395 1.397 . S
C1395 H1370 0.950 . S
C1395 C1394 1.397 . S
C1395 C1396 1.391 . S
C1396 C1395 1.391 . S
C1396 C1397 1.405 . S
C1397 H1371 0.950 . S
C1397 C1396 1.405 . S
C1397 C1398 1.367 . S
C1398 H1372 0.950 . S
C1398 C1393 1.386 . S
C1398 C1397 1.367 . S
C1399 C1393 1.483 . S
C1399 C1400 1.382 . S
C1399 C1401 1.403 . S
C1400 H1373 0.950 . S
C1400 C1386 1.411 . S
C1400 C1399 1.382 . S
C1401 C1385 1.411 . S
C1401 C1399 1.403 . S
C1401 C1402 1.489 . S
C1402 C1401 1.489 . S
C1402 C1403 1.383 . S
C1402 C1407 1.382 . S
C1403 H1374 0.950 . S
C1403 C1402 1.383 . S
C1403 C1404 1.395 . S
C1404 H1375 0.950 . S
C1404 C1403 1.395 . S
C1404 C1405 1.288 . S
C1405 C1404 1.288 . S
C1405 C1406 1.392 . S
C1406 H1376 0.951 . S
C1406 C1405 1.392 . S
C1406 C1407 1.392 . S
C1407 H1377 0.949 . S
C1407 C1402 1.382 . S
C1407 C1406 1.392 . S
H1408 C1427 0.949 . S
H1409 C1428 0.950 . S
H1410 C1430 0.950 . S
H1411 C1431 0.950 . S
H1412 C1433 0.950 . S
H1413 C1436 0.950 . S
H1414 C1437 0.950 . S
H1415 C1439 0.951 . S
H1416 C1440 0.949 . S
H1417 C1442 0.949 . S
H1418 C1443 0.950 . S
H1419 C1445 0.950 . S
H1420 C1446 0.950 . S
H1421 C1448 0.950 . S
H1422 C1451 0.950 . S
H1423 C1452 0.950 . S
H1424 C1454 0.951 . S
H1425 C1455 0.949 . S
C1426 C1427 1.376 . S
C1426 C1431 1.386 . S
C1426 C1432 1.483 . S
C1427 H1408 0.949 . S
C1427 C1426 1.376 . S
C1427 C1428 1.397 . S
C1428 H1409 0.950 . S
C1428 C1427 1.397 . S
C1428 C1429 1.391 . S
C1429 C1428 1.391 . S
C1429 C1430 1.405 . S
C1430 H1410 0.950 . S
C1430 C1429 1.405 . S
C1430 C1431 1.367 . S
C1431 H1411 0.950 . S
C1431 C1426 1.386 . S
C1431 C1430 1.367 . S
C1432 C1426 1.483 . S
C1432 C1433 1.382 . S
C1432 C1434 1.403 . S
C1433 H1412 0.950 . S
C1433 C1432 1.382 . S
C1433 C1449 1.411 . S
C1434 C1432 1.403 . S
C1434 C1435 1.489 . S
C1434 C1448 1.411 . S
C1435 C1434 1.489 . S
C1435 C1436 1.383 . S
C1435 C1440 1.382 . S
C1436 H1413 0.950 . S
C1436 C1435 1.383 . S
C1436 C1437 1.395 . S
C1437 H1414 0.950 . S
C1437 C1436 1.395 . S
C1437 C1438 1.288 . S
C1438 C1437 1.288 . S
C1438 C1439 1.392 . S
C1439 H1415 0.951 . S
C1439 C1438 1.392 . S
C1439 C1440 1.392 . S
C1440 H1416 0.949 . S
C1440 C1435 1.382 . S
C1440 C1439 1.392 . S
C1441 C1442 1.376 . S
C1441 C1446 1.386 . S
C1441 C1447 1.483 . S
C1442 H1417 0.949 . S
C1442 C1441 1.376 . S
C1442 C1443 1.397 . S
C1443 H1418 0.950 . S
C1443 C1442 1.397 . S
C1443 C1444 1.391 . S
C1444 C1443 1.391 . S
C1444 C1445 1.405 . S
C1445 H1419 0.950 . S
C1445 C1444 1.405 . S
C1445 C1446 1.367 . S
C1446 H1420 0.950 . S
C1446 C1441 1.386 . S
C1446 C1445 1.367 . S
C1447 C1441 1.483 . S
C1447 C1448 1.382 . S
C1447 C1449 1.403 . S
C1448 H1421 0.950 . S
C1448 C1434 1.411 . S
C1448 C1447 1.382 . S
C1449 C1433 1.411 . S
C1449 C1447 1.403 . S
C1449 C1450 1.489 . S
C1450 C1449 1.489 . S
C1450 C1451 1.383 . S
C1450 C1455 1.382 . S
C1451 H1422 0.950 . S
C1451 C1450 1.383 . S
C1451 C1452 1.395 . S
C1452 H1423 0.950 . S
C1452 C1451 1.395 . S
C1452 C1453 1.288 . S
C1453 C1452 1.288 . S
C1453 C1454 1.392 . S
C1454 H1424 0.951 . S
C1454 C1453 1.392 . S
C1454 C1455 1.392 . S
C1455 H1425 0.949 . S
C1455 C1450 1.382 . S
C1455 C1454 1.392 . S
H1456 C1475 0.949 . S
H1457 C1476 0.950 . S
H1458 C1478 0.950 . S
H1459 C1479 0.950 . S
H1460 C1481 0.950 . S
H1461 C1484 0.950 . S
H1462 C1485 0.950 . S
H1463 C1487 0.951 . S
H1464 C1488 0.949 . S
H1465 C1490 0.949 . S
H1466 C1491 0.950 . S
H1467 C1493 0.950 . S
H1468 C1494 0.950 . S
H1469 C1496 0.950 . S
H1470 C1499 0.950 . S
H1471 C1500 0.950 . S
H1472 C1502 0.951 . S
H1473 C1503 0.949 . S
C1474 C1475 1.376 . S
C1474 C1479 1.386 . S
C1474 C1480 1.483 . S
C1475 H1456 0.949 . S
C1475 C1474 1.376 . S
C1475 C1476 1.397 . S
C1476 H1457 0.950 . S
C1476 C1475 1.397 . S
C1476 C1477 1.391 . S
C1477 C1476 1.391 . S
C1477 C1478 1.405 . S
C1478 H1458 0.950 . S
C1478 C1477 1.405 . S
C1478 C1479 1.367 . S
C1479 H1459 0.950 . S
C1479 C1474 1.386 . S
C1479 C1478 1.367 . S
C1480 C1474 1.483 . S
C1480 C1481 1.382 . S
C1480 C1482 1.403 . S
C1481 H1460 0.950 . S
C1481 C1480 1.382 . S
C1481 C1497 1.411 . S
C1482 C1480 1.403 . S
C1482 C1483 1.489 . S
C1482 C1496 1.411 . S
C1483 C1482 1.489 . S
C1483 C1484 1.383 . S
C1483 C1488 1.382 . S
C1484 H1461 0.950 . S
C1484 C1483 1.383 . S
C1484 C1485 1.395 . S
C1485 H1462 0.950 . S
C1485 C1484 1.395 . S
C1485 C1486 1.288 . S
C1486 C1485 1.288 . S
C1486 C1487 1.392 . S
C1487 H1463 0.951 . S
C1487 C1486 1.392 . S
C1487 C1488 1.392 . S
C1488 H1464 0.949 . S
C1488 C1483 1.382 . S
C1488 C1487 1.392 . S
C1489 C1490 1.376 . S
C1489 C1494 1.386 . S
C1489 C1495 1.483 . S
C1490 H1465 0.949 . S
C1490 C1489 1.376 . S
C1490 C1491 1.397 . S
C1491 H1466 0.950 . S
C1491 C1490 1.397 . S
C1491 C1492 1.391 . S
C1492 C1491 1.391 . S
C1492 C1493 1.405 . S
C1493 H1467 0.950 . S
C1493 C1492 1.405 . S
C1493 C1494 1.367 . S
C1494 H1468 0.950 . S
C1494 C1489 1.386 . S
C1494 C1493 1.367 . S
C1495 C1489 1.483 . S
C1495 C1496 1.382 . S
C1495 C1497 1.403 . S
C1496 H1469 0.950 . S
C1496 C1482 1.411 . S
C1496 C1495 1.382 . S
C1497 C1481 1.411 . S
C1497 C1495 1.403 . S
C1497 C1498 1.489 . S
C1498 C1497 1.489 . S
C1498 C1499 1.383 . S
C1498 C1503 1.382 . S
C1499 H1470 0.950 . S
C1499 C1498 1.383 . S
C1499 C1500 1.395 . S
C1500 H1471 0.950 . S
C1500 C1499 1.395 . S
C1500 C1501 1.288 . S
C1501 C1500 1.288 . S
C1501 C1502 1.392 . S
C1502 H1472 0.951 . S
C1502 C1501 1.392 . S
C1502 C1503 1.392 . S
C1503 H1473 0.949 . S
C1503 C1498 1.382 . S
C1503 C1502 1.392 . S
H1504 C1510 0.930 . S
H1505 C1513 0.930 . S
H1506 C1514 0.930 . S
H1507 C1515 0.930 . S
H1508 C1518 0.930 . S
H1509 C1519 0.930 . S
C1510 H1504 0.930 . S
C1510 C1511 1.355 . S
C1510 C1512 1.415 . S
C1511 C1510 1.355 . S
C1511 C1513 1.419 . S
C1512 C1510 1.415 . S
C1512 C1517 1.425 . S
C1512 C1519 1.409 . S
C1513 H1505 0.930 . S
C1513 C1511 1.419 . S
C1513 C1514 1.362 . S
C1514 H1506 0.930 . S
C1514 C1513 1.362 . S
C1514 C1517 1.409 . S
C1515 H1507 0.930 . S
C1515 C1516 1.355 . S
C1515 C1517 1.415 . S
C1516 C1515 1.355 . S
C1516 C1518 1.419 . S
C1517 C1512 1.425 . S
C1517 C1514 1.409 . S
C1517 C1515 1.415 . S
C1518 H1508 0.930 . S
C1518 C1516 1.419 . S
C1518 C1519 1.362 . S
C1519 H1509 0.930 . S
C1519 C1512 1.409 . S
C1519 C1518 1.362 . S
H1520 C1526 0.930 . S
H1521 C1529 0.930 . S
H1522 C1530 0.930 . S
H1523 C1531 0.930 . S
H1524 C1534 0.930 . S
H1525 C1535 0.930 . S
C1526 H1520 0.930 . S
C1526 C1527 1.355 . S
C1526 C1528 1.415 . S
C1527 C1526 1.355 . S
C1527 C1529 1.419 . S
C1528 C1526 1.415 . S
C1528 C1533 1.425 . S
C1528 C1535 1.409 . S
C1529 H1521 0.930 . S
C1529 C1527 1.419 . S
C1529 C1530 1.362 . S
C1530 H1522 0.930 . S
C1530 C1529 1.362 . S
C1530 C1533 1.409 . S
C1531 H1523 0.930 . S
C1531 C1532 1.355 . S
C1531 C1533 1.415 . S
C1532 C1531 1.355 . S
C1532 C1534 1.419 . S
C1533 C1528 1.425 . S
C1533 C1530 1.409 . S
C1533 C1531 1.415 . S
C1534 H1524 0.930 . S
C1534 C1532 1.419 . S
C1534 C1535 1.362 . S
C1535 H1525 0.930 . S
C1535 C1528 1.409 . S
C1535 C1534 1.362 . S
H1536 C1542 0.930 . S
H1537 C1545 0.930 . S
H1538 C1546 0.930 . S
H1539 C1547 0.930 . S
H1540 C1550 0.930 . S
H1541 C1551 0.930 . S
C1542 H1536 0.930 . S
C1542 C1543 1.355 . S
C1542 C1544 1.415 . S
C1543 C1542 1.355 . S
C1543 C1545 1.419 . S
C1544 C1542 1.415 . S
C1544 C1549 1.425 . S
C1544 C1551 1.409 . S
C1545 H1537 0.930 . S
C1545 C1543 1.419 . S
C1545 C1546 1.362 . S
C1546 H1538 0.930 . S
C1546 C1545 1.362 . S
C1546 C1549 1.409 . S
C1547 H1539 0.930 . S
C1547 C1548 1.355 . S
C1547 C1549 1.415 . S
C1548 C1547 1.355 . S
C1548 C1550 1.419 . S
C1549 C1544 1.425 . S
C1549 C1546 1.409 . S
C1549 C1547 1.415 . S
C1550 H1540 0.930 . S
C1550 C1548 1.419 . S
C1550 C1551 1.362 . S
C1551 H1541 0.930 . S
C1551 C1544 1.409 . S
C1551 C1550 1.362 . S
H1552 C1558 0.930 . S
H1553 C1561 0.930 . S
H1554 C1562 0.930 . S
H1555 C1563 0.930 . S
H1556 C1566 0.930 . S
H1557 C1567 0.930 . S
C1558 H1552 0.930 . S
C1558 C1559 1.355 . S
C1558 C1560 1.415 . S
C1559 C1558 1.355 . S
C1559 C1561 1.419 . S
C1560 C1558 1.415 . S
C1560 C1565 1.425 . S
C1560 C1567 1.409 . S
C1561 H1553 0.930 . S
C1561 C1559 1.419 . S
C1561 C1562 1.362 . S
C1562 H1554 0.930 . S
C1562 C1561 1.362 . S
C1562 C1565 1.409 . S
C1563 H1555 0.930 . S
C1563 C1564 1.355 . S
C1563 C1565 1.415 . S
C1564 C1563 1.355 . S
C1564 C1566 1.419 . S
C1565 C1560 1.425 . S
C1565 C1562 1.409 . S
C1565 C1563 1.415 . S
C1566 H1556 0.930 . S
C1566 C1564 1.419 . S
C1566 C1567 1.362 . S
C1567 H1557 0.930 . S
C1567 C1560 1.409 . S
C1567 C1566 1.362 . S
H1568 C1574 0.930 . S
H1569 C1577 0.930 . S
H1570 C1578 0.930 . S
H1571 C1579 0.930 . S
H1572 C1582 0.930 . S
H1573 C1583 0.930 . S
C1574 H1568 0.930 . S
C1574 C1575 1.355 . S
C1574 C1576 1.415 . S
C1575 C1574 1.355 . S
C1575 C1577 1.419 . S
C1576 C1574 1.415 . S
C1576 C1581 1.425 . S
C1576 C1583 1.409 . S
C1577 H1569 0.930 . S
C1577 C1575 1.419 . S
C1577 C1578 1.362 . S
C1578 H1570 0.930 . S
C1578 C1577 1.362 . S
C1578 C1581 1.409 . S
C1579 H1571 0.930 . S
C1579 C1580 1.355 . S
C1579 C1581 1.415 . S
C1580 C1579 1.355 . S
C1580 C1582 1.419 . S
C1581 C1576 1.425 . S
C1581 C1578 1.409 . S
C1581 C1579 1.415 . S
C1582 H1572 0.930 . S
C1582 C1580 1.419 . S
C1582 C1583 1.362 . S
C1583 H1573 0.930 . S
C1583 C1576 1.409 . S
C1583 C1582 1.362 . S
H1584 C1590 0.930 . S
H1585 C1593 0.930 . S
H1586 C1594 0.930 . S
H1587 C1595 0.930 . S
H1588 C1598 0.930 . S
H1589 C1599 0.930 . S
C1590 H1584 0.930 . S
C1590 C1591 1.355 . S
C1590 C1592 1.415 . S
C1591 C1590 1.355 . S
C1591 C1593 1.419 . S
C1592 C1590 1.415 . S
C1592 C1597 1.425 . S
C1592 C1599 1.409 . S
C1593 H1585 0.930 . S
C1593 C1591 1.419 . S
C1593 C1594 1.362 . S
C1594 H1586 0.930 . S
C1594 C1593 1.362 . S
C1594 C1597 1.409 . S
C1595 H1587 0.930 . S
C1595 C1596 1.355 . S
C1595 C1597 1.415 . S
C1596 C1595 1.355 . S
C1596 C1598 1.419 . S
C1597 C1592 1.425 . S
C1597 C1594 1.409 . S
C1597 C1595 1.415 . S
C1598 H1588 0.930 . S
C1598 C1596 1.419 . S
C1598 C1599 1.362 . S
C1599 H1589 0.930 . S
C1599 C1592 1.409 . S
C1599 C1598 1.362 . S
H1600 C1606 0.930 . S
H1601 C1609 0.930 . S
H1602 C1610 0.930 . S
H1603 C1611 0.930 . S
H1604 C1614 0.930 . S
H1605 C1615 0.930 . S
C1606 H1600 0.930 . S
C1606 C1607 1.355 . S
C1606 C1608 1.415 . S
C1607 C1606 1.355 . S
C1607 C1609 1.419 . S
C1608 C1606 1.415 . S
C1608 C1613 1.425 . S
C1608 C1615 1.409 . S
C1609 H1601 0.930 . S
C1609 C1607 1.419 . S
C1609 C1610 1.362 . S
C1610 H1602 0.930 . S
C1610 C1609 1.362 . S
C1610 C1613 1.409 . S
C1611 H1603 0.930 . S
C1611 C1612 1.355 . S
C1611 C1613 1.415 . S
C1612 C1611 1.355 . S
C1612 C1614 1.419 . S
C1613 C1608 1.425 . S
C1613 C1610 1.409 . S
C1613 C1611 1.415 . S
C1614 H1604 0.930 . S
C1614 C1612 1.419 . S
C1614 C1615 1.362 . S
C1615 H1605 0.930 . S
C1615 C1608 1.409 . S
C1615 C1614 1.362 . S
H1616 C1622 0.930 . S
H1617 C1625 0.930 . S
H1618 C1626 0.930 . S
H1619 C1627 0.930 . S
H1620 C1630 0.930 . S
H1621 C1631 0.930 . S
C1622 H1616 0.930 . S
C1622 C1623 1.355 . S
C1622 C1624 1.415 . S
C1623 C1622 1.355 . S
C1623 C1625 1.419 . S
C1624 C1622 1.415 . S
C1624 C1629 1.425 . S
C1624 C1631 1.409 . S
C1625 H1617 0.930 . S
C1625 C1623 1.419 . S
C1625 C1626 1.362 . S
C1626 H1618 0.930 . S
C1626 C1625 1.362 . S
C1626 C1629 1.409 . S
C1627 H1619 0.930 . S
C1627 C1628 1.355 . S
C1627 C1629 1.415 . S
C1628 C1627 1.355 . S
C1628 C1630 1.419 . S
C1629 C1624 1.425 . S
C1629 C1626 1.409 . S
C1629 C1627 1.415 . S
C1630 H1620 0.930 . S
C1630 C1628 1.419 . S
C1630 C1631 1.362 . S
C1631 H1621 0.930 . S
C1631 C1624 1.409 . S
C1631 C1630 1.362 . S
H1632 C1638 0.930 . S
H1633 C1641 0.930 . S
H1634 C1642 0.930 . S
H1635 C1643 0.930 . S
H1636 C1646 0.930 . S
H1637 C1647 0.930 . S
C1638 H1632 0.930 . S
C1638 C1639 1.355 . S
C1638 C1640 1.415 . S
C1639 C1638 1.355 . S
C1639 C1641 1.419 . S
C1640 C1638 1.415 . S
C1640 C1645 1.425 . S
C1640 C1647 1.409 . S
C1641 H1633 0.930 . S
C1641 C1639 1.419 . S
C1641 C1642 1.362 . S
C1642 H1634 0.930 . S
C1642 C1641 1.362 . S
C1642 C1645 1.409 . S
C1643 H1635 0.930 . S
C1643 C1644 1.355 . S
C1643 C1645 1.415 . S
C1644 C1643 1.355 . S
C1644 C1646 1.419 . S
C1645 C1640 1.425 . S
C1645 C1642 1.409 . S
C1645 C1643 1.415 . S
C1646 H1636 0.930 . S
C1646 C1644 1.419 . S
C1646 C1647 1.362 . S
C1647 H1637 0.930 . S
C1647 C1640 1.409 . S
C1647 C1646 1.362 . S
H1648 C1654 0.930 . S
H1649 C1657 0.930 . S
H1650 C1658 0.930 . S
H1651 C1659 0.930 . S
H1652 C1662 0.930 . S
H1653 C1663 0.930 . S
C1654 H1648 0.930 . S
C1654 C1655 1.355 . S
C1654 C1656 1.415 . S
C1655 C1654 1.355 . S
C1655 C1657 1.419 . S
C1656 C1654 1.415 . S
C1656 C1661 1.425 . S
C1656 C1663 1.409 . S
C1657 H1649 0.930 . S
C1657 C1655 1.419 . S
C1657 C1658 1.362 . S
C1658 H1650 0.930 . S
C1658 C1657 1.362 . S
C1658 C1661 1.409 . S
C1659 H1651 0.930 . S
C1659 C1660 1.355 . S
C1659 C1661 1.415 . S
C1660 C1659 1.355 . S
C1660 C1662 1.419 . S
C1661 C1656 1.425 . S
C1661 C1658 1.409 . S
C1661 C1659 1.415 . S
C1662 H1652 0.930 . S
C1662 C1660 1.419 . S
C1662 C1663 1.362 . S
C1663 H1653 0.930 . S
C1663 C1656 1.409 . S
C1663 C1662 1.362 . S
H1664 C1670 0.930 . S
H1665 C1673 0.930 . S
H1666 C1674 0.930 . S
H1667 C1675 0.930 . S
H1668 C1678 0.930 . S
H1669 C1679 0.930 . S
C1670 H1664 0.930 . S
C1670 C1671 1.355 . S
C1670 C1672 1.415 . S
C1671 C1670 1.355 . S
C1671 C1673 1.419 . S
C1672 C1670 1.415 . S
C1672 C1677 1.425 . S
C1672 C1679 1.409 . S
C1673 H1665 0.930 . S
C1673 C1671 1.419 . S
C1673 C1674 1.362 . S
C1674 H1666 0.930 . S
C1674 C1673 1.362 . S
C1674 C1677 1.409 . S
C1675 H1667 0.930 . S
C1675 C1676 1.355 . S
C1675 C1677 1.415 . S
C1676 C1675 1.355 . S
C1676 C1678 1.419 . S
C1677 C1672 1.425 . S
C1677 C1674 1.409 . S
C1677 C1675 1.415 . S
C1678 H1668 0.930 . S
C1678 C1676 1.419 . S
C1678 C1679 1.362 . S
C1679 H1669 0.930 . S
C1679 C1672 1.409 . S
C1679 C1678 1.362 . S
H1680 C1686 0.930 . S
H1681 C1689 0.930 . S
H1682 C1690 0.930 . S
H1683 C1691 0.930 . S
H1684 C1694 0.930 . S
H1685 C1695 0.930 . S
C1686 H1680 0.930 . S
C1686 C1687 1.355 . S
C1686 C1688 1.415 . S
C1687 C1686 1.355 . S
C1687 C1689 1.419 . S
C1688 C1686 1.415 . S
C1688 C1693 1.425 . S
C1688 C1695 1.409 . S
C1689 H1681 0.930 . S
C1689 C1687 1.419 . S
C1689 C1690 1.362 . S
C1690 H1682 0.930 . S
C1690 C1689 1.362 . S
C1690 C1693 1.409 . S
C1691 H1683 0.930 . S
C1691 C1692 1.355 . S
C1691 C1693 1.415 . S
C1692 C1691 1.355 . S
C1692 C1694 1.419 . S
C1693 C1688 1.425 . S
C1693 C1690 1.409 . S
C1693 C1691 1.415 . S
C1694 H1684 0.930 . S
C1694 C1692 1.419 . S
C1694 C1695 1.362 . S
C1695 H1685 0.930 . S
C1695 C1688 1.409 . S
C1695 C1694 1.362 . S
H1696 C1702 0.930 . S
H1697 C1705 0.930 . S
H1698 C1706 0.930 . S
H1699 C1707 0.930 . S
H1700 C1710 0.930 . S
H1701 C1711 0.930 . S
C1702 H1696 0.930 . S
C1702 C1703 1.355 . S
C1702 C1704 1.415 . S
C1703 C1702 1.355 . S
C1703 C1705 1.419 . S
C1704 C1702 1.415 . S
C1704 C1709 1.425 . S
C1704 C1711 1.409 . S
C1705 H1697 0.930 . S
C1705 C1703 1.419 . S
C1705 C1706 1.362 . S
C1706 H1698 0.930 . S
C1706 C1705 1.362 . S
C1706 C1709 1.409 . S
C1707 H1699 0.930 . S
C1707 C1708 1.355 . S
C1707 C1709 1.415 . S
C1708 C1707 1.355 . S
C1708 C1710 1.419 . S
C1709 C1704 1.425 . S
C1709 C1706 1.409 . S
C1709 C1707 1.415 . S
C1710 H1700 0.930 . S
C1710 C1708 1.419 . S
C1710 C1711 1.362 . S
C1711 H1701 0.930 . S
C1711 C1704 1.409 . S
C1711 C1710 1.362 . S
H1712 C1718 0.930 . S
H1713 C1721 0.930 . S
H1714 C1722 0.930 . S
H1715 C1723 0.930 . S
H1716 C1726 0.930 . S
H1717 C1727 0.930 . S
C1718 H1712 0.930 . S
C1718 C1719 1.355 . S
C1718 C1720 1.415 . S
C1719 C1718 1.355 . S
C1719 C1721 1.419 . S
C1720 C1718 1.415 . S
C1720 C1725 1.425 . S
C1720 C1727 1.409 . S
C1721 H1713 0.930 . S
C1721 C1719 1.419 . S
C1721 C1722 1.362 . S
C1722 H1714 0.930 . S
C1722 C1721 1.362 . S
C1722 C1725 1.409 . S
C1723 H1715 0.930 . S
C1723 C1724 1.355 . S
C1723 C1725 1.415 . S
C1724 C1723 1.355 . S
C1724 C1726 1.419 . S
C1725 C1720 1.425 . S
C1725 C1722 1.409 . S
C1725 C1723 1.415 . S
C1726 H1716 0.930 . S
C1726 C1724 1.419 . S
C1726 C1727 1.362 . S
C1727 H1717 0.930 . S
C1727 C1720 1.409 . S
C1727 C1726 1.362 . S
H1728 C1734 0.930 . S
H1729 C1737 0.930 . S
H1730 C1738 0.930 . S
H1731 C1739 0.930 . S
H1732 C1742 0.930 . S
H1733 C1743 0.930 . S
C1734 H1728 0.930 . S
C1734 C1735 1.355 . S
C1734 C1736 1.415 . S
C1735 C1734 1.355 . S
C1735 C1737 1.419 . S
C1736 C1734 1.415 . S
C1736 C1741 1.425 . S
C1736 C1743 1.409 . S
C1737 H1729 0.930 . S
C1737 C1735 1.419 . S
C1737 C1738 1.362 . S
C1738 H1730 0.930 . S
C1738 C1737 1.362 . S
C1738 C1741 1.409 . S
C1739 H1731 0.930 . S
C1739 C1740 1.355 . S
C1739 C1741 1.415 . S
C1740 C1739 1.355 . S
C1740 C1742 1.419 . S
C1741 C1736 1.425 . S
C1741 C1738 1.409 . S
C1741 C1739 1.415 . S
C1742 H1732 0.930 . S
C1742 C1740 1.419 . S
C1742 C1743 1.362 . S
C1743 H1733 0.930 . S
C1743 C1736 1.409 . S
C1743 C1742 1.362 . S
H1744 C1750 0.930 . S
H1745 C1753 0.930 . S
H1746 C1754 0.930 . S
H1747 C1755 0.930 . S
H1748 C1758 0.930 . S
H1749 C1759 0.930 . S
C1750 H1744 0.930 . S
C1750 C1751 1.355 . S
C1750 C1752 1.415 . S
C1751 C1750 1.355 . S
C1751 C1753 1.419 . S
C1752 C1750 1.415 . S
C1752 C1757 1.425 . S
C1752 C1759 1.409 . S
C1753 H1745 0.930 . S
C1753 C1751 1.419 . S
C1753 C1754 1.362 . S
C1754 H1746 0.930 . S
C1754 C1753 1.362 . S
C1754 C1757 1.409 . S
C1755 H1747 0.930 . S
C1755 C1756 1.355 . S
C1755 C1757 1.415 . S
C1756 C1755 1.355 . S
C1756 C1758 1.419 . S
C1757 C1752 1.425 . S
C1757 C1754 1.409 . S
C1757 C1755 1.415 . S
C1758 H1748 0.930 . S
C1758 C1756 1.419 . S
C1758 C1759 1.362 . S
C1759 H1749 0.930 . S
C1759 C1752 1.409 . S
C1759 C1758 1.362 . S
H1760 C1766 0.930 . S
H1761 C1769 0.930 . S
H1762 C1770 0.930 . S
H1763 C1771 0.930 . S
H1764 C1774 0.930 . S
H1765 C1775 0.930 . S
C1766 H1760 0.930 . S
C1766 C1767 1.355 . S
C1766 C1768 1.415 . S
C1767 C1766 1.355 . S
C1767 C1769 1.419 . S
C1768 C1766 1.415 . S
C1768 C1773 1.425 . S
C1768 C1775 1.409 . S
C1769 H1761 0.930 . S
C1769 C1767 1.419 . S
C1769 C1770 1.362 . S
C1770 H1762 0.930 . S
C1770 C1769 1.362 . S
C1770 C1773 1.409 . S
C1771 H1763 0.930 . S
C1771 C1772 1.355 . S
C1771 C1773 1.415 . S
C1772 C1771 1.355 . S
C1772 C1774 1.419 . S
C1773 C1768 1.425 . S
C1773 C1770 1.409 . S
C1773 C1771 1.415 . S
C1774 H1764 0.930 . S
C1774 C1772 1.419 . S
C1774 C1775 1.362 . S
C1775 H1765 0.930 . S
C1775 C1768 1.409 . S
C1775 C1774 1.362 . S
H1776 C1782 0.930 . S
H1777 C1785 0.930 . S
H1778 C1786 0.930 . S
H1779 C1787 0.930 . S
H1780 C1790 0.930 . S
H1781 C1791 0.930 . S
C1782 H1776 0.930 . S
C1782 C1783 1.355 . S
C1782 C1784 1.415 . S
C1783 C1782 1.355 . S
C1783 C1785 1.419 . S
C1784 C1782 1.415 . S
C1784 C1789 1.425 . S
C1784 C1791 1.409 . S
C1785 H1777 0.930 . S
C1785 C1783 1.419 . S
C1785 C1786 1.362 . S
C1786 H1778 0.930 . S
C1786 C1785 1.362 . S
C1786 C1789 1.409 . S
C1787 H1779 0.930 . S
C1787 C1788 1.355 . S
C1787 C1789 1.415 . S
C1788 C1787 1.355 . S
C1788 C1790 1.419 . S
C1789 C1784 1.425 . S
C1789 C1786 1.409 . S
C1789 C1787 1.415 . S
C1790 H1780 0.930 . S
C1790 C1788 1.419 . S
C1790 C1791 1.362 . S
C1791 H1781 0.930 . S
C1791 C1784 1.409 . S
C1791 C1790 1.362 . S
H1792 C1798 0.930 . S
H1793 C1801 0.930 . S
H1794 C1802 0.930 . S
H1795 C1803 0.930 . S
H1796 C1806 0.930 . S
H1797 C1807 0.930 . S
C1798 H1792 0.930 . S
C1798 C1799 1.355 . S
C1798 C1800 1.415 . S
C1799 C1798 1.355 . S
C1799 C1801 1.419 . S
C1800 C1798 1.415 . S
C1800 C1805 1.425 . S
C1800 C1807 1.409 . S
C1801 H1793 0.930 . S
C1801 C1799 1.419 . S
C1801 C1802 1.362 . S
C1802 H1794 0.930 . S
C1802 C1801 1.362 . S
C1802 C1805 1.409 . S
C1803 H1795 0.930 . S
C1803 C1804 1.355 . S
C1803 C1805 1.415 . S
C1804 C1803 1.355 . S
C1804 C1806 1.419 . S
C1805 C1800 1.425 . S
C1805 C1802 1.409 . S
C1805 C1803 1.415 . S
C1806 H1796 0.930 . S
C1806 C1804 1.419 . S
C1806 C1807 1.362 . S
C1807 H1797 0.930 . S
C1807 C1800 1.409 . S
C1807 C1806 1.362 . S
H1808 C1814 0.930 . S
H1809 C1817 0.930 . S
H1810 C1818 0.930 . S
H1811 C1819 0.930 . S
H1812 C1822 0.930 . S
H1813 C1823 0.930 . S
C1814 H1808 0.930 . S
C1814 C1815 1.355 . S
C1814 C1816 1.415 . S
C1815 C1814 1.355 . S
C1815 C1817 1.419 . S
C1816 C1814 1.415 . S
C1816 C1821 1.425 . S
C1816 C1823 1.409 . S
C1817 H1809 0.930 . S
C1817 C1815 1.419 . S
C1817 C1818 1.362 . S
C1818 H1810 0.930 . S
C1818 C1817 1.362 . S
C1818 C1821 1.409 . S
C1819 H1811 0.930 . S
C1819 C1820 1.355 . S
C1819 C1821 1.415 . S
C1820 C1819 1.355 . S
C1820 C1822 1.419 . S
C1821 C1816 1.425 . S
C1821 C1818 1.409 . S
C1821 C1819 1.415 . S
C1822 H1812 0.930 . S
C1822 C1820 1.419 . S
C1822 C1823 1.362 . S
C1823 H1813 0.930 . S
C1823 C1816 1.409 . S
C1823 C1822 1.362 . S
H1824 C1830 0.930 . S
H1825 C1833 0.930 . S
H1826 C1834 0.930 . S
H1827 C1835 0.930 . S
H1828 C1838 0.930 . S
H1829 C1839 0.930 . S
C1830 H1824 0.930 . S
C1830 C1831 1.355 . S
C1830 C1832 1.415 . S
C1831 C1830 1.355 . S
C1831 C1833 1.419 . S
C1832 C1830 1.415 . S
C1832 C1837 1.425 . S
C1832 C1839 1.409 . S
C1833 H1825 0.930 . S
C1833 C1831 1.419 . S
C1833 C1834 1.362 . S
C1834 H1826 0.930 . S
C1834 C1833 1.362 . S
C1834 C1837 1.409 . S
C1835 H1827 0.930 . S
C1835 C1836 1.355 . S
C1835 C1837 1.415 . S
C1836 C1835 1.355 . S
C1836 C1838 1.419 . S
C1837 C1832 1.425 . S
C1837 C1834 1.409 . S
C1837 C1835 1.415 . S
C1838 H1828 0.930 . S
C1838 C1836 1.419 . S
C1838 C1839 1.362 . S
C1839 H1829 0.930 . S
C1839 C1832 1.409 . S
C1839 C1838 1.362 . S
H1840 C1846 0.930 . S
H1841 C1849 0.930 . S
H1842 C1850 0.930 . S
H1843 C1851 0.930 . S
H1844 C1854 0.930 . S
H1845 C1855 0.930 . S
C1846 H1840 0.930 . S
C1846 C1847 1.355 . S
C1846 C1848 1.415 . S
C1847 C1846 1.355 . S
C1847 C1849 1.419 . S
C1848 C1846 1.415 . S
C1848 C1853 1.425 . S
C1848 C1855 1.409 . S
C1849 H1841 0.930 . S
C1849 C1847 1.419 . S
C1849 C1850 1.362 . S
C1850 H1842 0.930 . S
C1850 C1849 1.362 . S
C1850 C1853 1.409 . S
C1851 H1843 0.930 . S
C1851 C1852 1.355 . S
C1851 C1853 1.415 . S
C1852 C1851 1.355 . S
C1852 C1854 1.419 . S
C1853 C1848 1.425 . S
C1853 C1850 1.409 . S
C1853 C1851 1.415 . S
C1854 H1844 0.930 . S
C1854 C1852 1.419 . S
C1854 C1855 1.362 . S
C1855 H1845 0.930 . S
C1855 C1848 1.409 . S
C1855 C1854 1.362 . S
H1856 C1862 0.930 . S
H1857 C1865 0.930 . S
H1858 C1866 0.930 . S
H1859 C1867 0.930 . S
H1860 C1870 0.930 . S
H1861 C1871 0.930 . S
C1862 H1856 0.930 . S
C1862 C1863 1.355 . S
C1862 C1864 1.415 . S
C1863 C1862 1.355 . S
C1863 C1865 1.419 . S
C1864 C1862 1.415 . S
C1864 C1869 1.425 . S
C1864 C1871 1.409 . S
C1865 H1857 0.930 . S
C1865 C1863 1.419 . S
C1865 C1866 1.362 . S
C1866 H1858 0.930 . S
C1866 C1865 1.362 . S
C1866 C1869 1.409 . S
C1867 H1859 0.930 . S
C1867 C1868 1.355 . S
C1867 C1869 1.415 . S
C1868 C1867 1.355 . S
C1868 C1870 1.419 . S
C1869 C1864 1.425 . S
C1869 C1866 1.409 . S
C1869 C1867 1.415 . S
C1870 H1860 0.930 . S
C1870 C1868 1.419 . S
C1870 C1871 1.362 . S
C1871 H1861 0.930 . S
C1871 C1864 1.409 . S
C1871 C1870 1.362 . S
H1872 C1878 0.930 . S
H1873 C1881 0.930 . S
H1874 C1882 0.930 . S
H1875 C1883 0.930 . S
H1876 C1886 0.930 . S
H1877 C1887 0.930 . S
C1878 H1872 0.930 . S
C1878 C1879 1.355 . S
C1878 C1880 1.415 . S
C1879 C1878 1.355 . S
C1879 C1881 1.419 . S
C1880 C1878 1.415 . S
C1880 C1885 1.425 . S
C1880 C1887 1.409 . S
C1881 H1873 0.930 . S
C1881 C1879 1.419 . S
C1881 C1882 1.362 . S
C1882 H1874 0.930 . S
C1882 C1881 1.362 . S
C1882 C1885 1.409 . S
C1883 H1875 0.930 . S
C1883 C1884 1.355 . S
C1883 C1885 1.415 . S
C1884 C1883 1.355 . S
C1884 C1886 1.419 . S
C1885 C1880 1.425 . S
C1885 C1882 1.409 . S
C1885 C1883 1.415 . S
C1886 H1876 0.930 . S
C1886 C1884 1.419 . S
C1886 C1887 1.362 . S
C1887 H1877 0.930 . S
C1887 C1880 1.409 . S
C1887 C1886 1.362 . S
H1888 C1894 0.930 . S
H1889 C1897 0.930 . S
H1890 C1898 0.930 . S
H1891 C1899 0.930 . S
H1892 C1902 0.930 . S
H1893 C1903 0.930 . S
C1894 H1888 0.930 . S
C1894 C1895 1.355 . S
C1894 C1896 1.415 . S
C1895 C1894 1.355 . S
C1895 C1897 1.419 . S
C1896 C1894 1.415 . S
C1896 C1901 1.425 . S
C1896 C1903 1.409 . S
C1897 H1889 0.930 . S
C1897 C1895 1.419 . S
C1897 C1898 1.362 . S
C1898 H1890 0.930 . S
C1898 C1897 1.362 . S
C1898 C1901 1.409 . S
C1899 H1891 0.930 . S
C1899 C1900 1.355 . S
C1899 C1901 1.415 . S
C1900 C1899 1.355 . S
C1900 C1902 1.419 . S
C1901 C1896 1.425 . S
C1901 C1898 1.409 . S
C1901 C1899 1.415 . S
C1902 H1892 0.930 . S
C1902 C1900 1.419 . S
C1902 C1903 1.362 . S
C1903 H1893 0.930 . S
C1903 C1896 1.409 . S
C1903 C1902 1.362 . S
H1904 C1910 0.930 . S
H1905 C1913 0.930 . S
H1906 C1914 0.930 . S
H1907 C1915 0.930 . S
H1908 C1918 0.930 . S
H1909 C1919 0.930 . S
C1910 H1904 0.930 . S
C1910 C1911 1.355 . S
C1910 C1912 1.415 . S
C1911 C1910 1.355 . S
C1911 C1913 1.419 . S
C1912 C1910 1.415 . S
C1912 C1917 1.425 . S
C1912 C1919 1.409 . S
C1913 H1905 0.930 . S
C1913 C1911 1.419 . S
C1913 C1914 1.362 . S
C1914 H1906 0.930 . S
C1914 C1913 1.362 . S
C1914 C1917 1.409 . S
C1915 H1907 0.930 . S
C1915 C1916 1.355 . S
C1915 C1917 1.415 . S
C1916 C1915 1.355 . S
C1916 C1918 1.419 . S
C1917 C1912 1.425 . S
C1917 C1914 1.409 . S
C1917 C1915 1.415 . S
C1918 H1908 0.930 . S
C1918 C1916 1.419 . S
C1918 C1919 1.362 . S
C1919 H1909 0.930 . S
C1919 C1912 1.409 . S
C1919 C1918 1.362 . S
H1920 C1926 0.930 . S
H1921 C1929 0.930 . S
H1922 C1930 0.930 . S
H1923 C1931 0.930 . S
H1924 C1934 0.930 . S
H1925 C1935 0.930 . S
C1926 H1920 0.930 . S
C1926 C1927 1.355 . S
C1926 C1928 1.415 . S
C1927 C1926 1.355 . S
C1927 C1929 1.419 . S
C1928 C1926 1.415 . S
C1928 C1933 1.425 . S
C1928 C1935 1.409 . S
C1929 H1921 0.930 . S
C1929 C1927 1.419 . S
C1929 C1930 1.362 . S
C1930 H1922 0.930 . S
C1930 C1929 1.362 . S
C1930 C1933 1.409 . S
C1931 H1923 0.930 . S
C1931 C1932 1.355 . S
C1931 C1933 1.415 . S
C1932 C1931 1.355 . S
C1932 C1934 1.419 . S
C1933 C1928 1.425 . S
C1933 C1930 1.409 . S
C1933 C1931 1.415 . S
C1934 H1924 0.930 . S
C1934 C1932 1.419 . S
C1934 C1935 1.362 . S
C1935 H1925 0.930 . S
C1935 C1928 1.409 . S
C1935 C1934 1.362 . S
H1936 C1942 0.930 . S
H1937 C1945 0.930 . S
H1938 C1946 0.930 . S
H1939 C1947 0.930 . S
H1940 C1950 0.930 . S
H1941 C1951 0.930 . S
C1942 H1936 0.930 . S
C1942 C1943 1.355 . S
C1942 C1944 1.415 . S
C1943 C1942 1.355 . S
C1943 C1945 1.419 . S
C1944 C1942 1.415 . S
C1944 C1949 1.425 . S
C1944 C1951 1.409 . S
C1945 H1937 0.930 . S
C1945 C1943 1.419 . S
C1945 C1946 1.362 . S
C1946 H1938 0.930 . S
C1946 C1945 1.362 . S
C1946 C1949 1.409 . S
C1947 H1939 0.930 . S
C1947 C1948 1.355 . S
C1947 C1949 1.415 . S
C1948 C1947 1.355 . S
C1948 C1950 1.419 . S
C1949 C1944 1.425 . S
C1949 C1946 1.409 . S
C1949 C1947 1.415 . S
C1950 H1940 0.930 . S
C1950 C1948 1.419 . S
C1950 C1951 1.362 . S
C1951 H1941 0.930 . S
C1951 C1944 1.409 . S
C1951 C1950 1.362 . S
H1952 C1958 0.930 . S
H1953 C1961 0.930 . S
H1954 C1962 0.930 . S
H1955 C1963 0.930 . S
H1956 C1966 0.930 . S
H1957 C1967 0.930 . S
C1958 H1952 0.930 . S
C1958 C1959 1.355 . S
C1958 C1960 1.415 . S
C1959 C1958 1.355 . S
C1959 C1961 1.419 . S
C1960 C1958 1.415 . S
C1960 C1965 1.425 . S
C1960 C1967 1.409 . S
C1961 H1953 0.930 . S
C1961 C1959 1.419 . S
C1961 C1962 1.362 . S
C1962 H1954 0.930 . S
C1962 C1961 1.362 . S
C1962 C1965 1.409 . S
C1963 H1955 0.930 . S
C1963 C1964 1.355 . S
C1963 C1965 1.415 . S
C1964 C1963 1.355 . S
C1964 C1966 1.419 . S
C1965 C1960 1.425 . S
C1965 C1962 1.409 . S
C1965 C1963 1.415 . S
C1966 H1956 0.930 . S
C1966 C1964 1.419 . S
C1966 C1967 1.362 . S
C1967 H1957 0.930 . S
C1967 C1960 1.409 . S
C1967 C1966 1.362 . S
H1968 C1974 0.930 . S
H1969 C1977 0.930 . S
H1970 C1978 0.930 . S
H1971 C1979 0.930 . S
H1972 C1982 0.930 . S
H1973 C1983 0.930 . S
C1974 H1968 0.930 . S
C1974 C1975 1.355 . S
C1974 C1976 1.415 . S
C1975 C1974 1.355 . S
C1975 C1977 1.419 . S
C1976 C1974 1.415 . S
C1976 C1981 1.425 . S
C1976 C1983 1.409 . S
C1977 H1969 0.930 . S
C1977 C1975 1.419 . S
C1977 C1978 1.362 . S
C1978 H1970 0.930 . S
C1978 C1977 1.362 . S
C1978 C1981 1.409 . S
C1979 H1971 0.930 . S
C1979 C1980 1.355 . S
C1979 C1981 1.415 . S
C1980 C1979 1.355 . S
C1980 C1982 1.419 . S
C1981 C1976 1.425 . S
C1981 C1978 1.409 . S
C1981 C1979 1.415 . S
C1982 H1972 0.930 . S
C1982 C1980 1.419 . S
C1982 C1983 1.362 . S
C1983 H1973 0.930 . S
C1983 C1976 1.409 . S
C1983 C1982 1.362 . S
H1984 C1990 0.930 . S
H1985 C1993 0.930 . S
H1986 C1994 0.930 . S
H1987 C1995 0.930 . S
H1988 C1998 0.930 . S
H1989 C1999 0.930 . S
C1990 H1984 0.930 . S
C1990 C1991 1.355 . S
C1990 C1992 1.415 . S
C1991 C1990 1.355 . S
C1991 C1993 1.419 . S
C1992 C1990 1.415 . S
C1992 C1997 1.425 . S
C1992 C1999 1.409 . S
C1993 H1985 0.930 . S
C1993 C1991 1.419 . S
C1993 C1994 1.362 . S
C1994 H1986 0.930 . S
C1994 C1993 1.362 . S
C1994 C1997 1.409 . S
C1995 H1987 0.930 . S
C1995 C1996 1.355 . S
C1995 C1997 1.415 . S
C1996 C1995 1.355 . S
C1996 C1998 1.419 . S
C1997 C1992 1.425 . S
C1997 C1994 1.409 . S
C1997 C1995 1.415 . S
C1998 H1988 0.930 . S
C1998 C1996 1.419 . S
C1998 C1999 1.362 . S
C1999 H1989 0.930 . S
C1999 C1992 1.409 . S
C1999 C1998 1.362 . S
H2000 C2006 0.930 . S
H2001 C2009 0.930 . S
H2002 C2010 0.930 . S
H2003 C2011 0.930 . S
H2004 C2014 0.930 . S
H2005 C2015 0.930 . S
C2006 H2000 0.930 . S
C2006 C2007 1.355 . S
C2006 C2008 1.415 . S
C2007 C2006 1.355 . S
C2007 C2009 1.419 . S
C2008 C2006 1.415 . S
C2008 C2013 1.425 . S
C2008 C2015 1.409 . S
C2009 H2001 0.930 . S
C2009 C2007 1.419 . S
C2009 C2010 1.362 . S
C2010 H2002 0.930 . S
C2010 C2009 1.362 . S
C2010 C2013 1.409 . S
C2011 H2003 0.930 . S
C2011 C2012 1.355 . S
C2011 C2013 1.415 . S
C2012 C2011 1.355 . S
C2012 C2014 1.419 . S
C2013 C2008 1.425 . S
C2013 C2010 1.409 . S
C2013 C2011 1.415 . S
C2014 H2004 0.930 . S
C2014 C2012 1.419 . S
C2014 C2015 1.362 . S
C2015 H2005 0.930 . S
C2015 C2008 1.409 . S
C2015 C2014 1.362 . S
H2016 C2022 0.930 . S
H2017 C2025 0.930 . S
H2018 C2026 0.930 . S
H2019 C2027 0.930 . S
H2020 C2030 0.930 . S
H2021 C2031 0.930 . S
C2022 H2016 0.930 . S
C2022 C2023 1.355 . S
C2022 C2024 1.415 . S
C2023 C2022 1.355 . S
C2023 C2025 1.419 . S
C2024 C2022 1.415 . S
C2024 C2029 1.425 . S
C2024 C2031 1.409 . S
C2025 H2017 0.930 . S
C2025 C2023 1.419 . S
C2025 C2026 1.362 . S
C2026 H2018 0.930 . S
C2026 C2025 1.362 . S
C2026 C2029 1.409 . S
C2027 H2019 0.930 . S
C2027 C2028 1.355 . S
C2027 C2029 1.415 . S
C2028 C2027 1.355 . S
C2028 C2030 1.419 . S
C2029 C2024 1.425 . S
C2029 C2026 1.409 . S
C2029 C2027 1.415 . S
C2030 H2020 0.930 . S
C2030 C2028 1.419 . S
C2030 C2031 1.362 . S
C2031 H2021 0.930 . S
C2031 C2024 1.409 . S
C2031 C2030 1.362 . S
H2032 C2038 0.930 . S
H2033 C2041 0.930 . S
H2034 C2042 0.930 . S
H2035 C2043 0.930 . S
H2036 C2046 0.930 . S
H2037 C2047 0.930 . S
C2038 H2032 0.930 . S
C2038 C2039 1.355 . S
C2038 C2040 1.415 . S
C2039 C2038 1.355 . S
C2039 C2041 1.419 . S
C2040 C2038 1.415 . S
C2040 C2045 1.425 . S
C2040 C2047 1.409 . S
C2041 H2033 0.930 . S
C2041 C2039 1.419 . S
C2041 C2042 1.362 . S
C2042 H2034 0.930 . S
C2042 C2041 1.362 . S
C2042 C2045 1.409 . S
C2043 H2035 0.930 . S
C2043 C2044 1.355 . S
C2043 C2045 1.415 . S
C2044 C2043 1.355 . S
C2044 C2046 1.419 . S
C2045 C2040 1.425 . S
C2045 C2042 1.409 . S
C2045 C2043 1.415 . S
C2046 H2036 0.930 . S
C2046 C2044 1.419 . S
C2046 C2047 1.362 . S
C2047 H2037 0.930 . S
C2047 C2040 1.409 . S
C2047 C2046 1.362 . S
H2048 C2054 0.930 . S
H2049 C2057 0.930 . S
H2050 C2058 0.930 . S
H2051 C2059 0.930 . S
H2052 C2062 0.930 . S
H2053 C2063 0.930 . S
C2054 H2048 0.930 . S
C2054 C2055 1.355 . S
C2054 C2056 1.415 . S
C2055 C2054 1.355 . S
C2055 C2057 1.419 . S
C2056 C2054 1.415 . S
C2056 C2061 1.425 . S
C2056 C2063 1.409 . S
C2057 H2049 0.930 . S
C2057 C2055 1.419 . S
C2057 C2058 1.362 . S
C2058 H2050 0.930 . S
C2058 C2057 1.362 . S
C2058 C2061 1.409 . S
C2059 H2051 0.930 . S
C2059 C2060 1.355 . S
C2059 C2061 1.415 . S
C2060 C2059 1.355 . S
C2060 C2062 1.419 . S
C2061 C2056 1.425 . S
C2061 C2058 1.409 . S
C2061 C2059 1.415 . S
C2062 H2052 0.930 . S
C2062 C2060 1.419 . S
C2062 C2063 1.362 . S
C2063 H2053 0.930 . S
C2063 C2056 1.409 . S
C2063 C2062 1.362 . S
H2064 C2070 0.930 . S
H2065 C2073 0.930 . S
H2066 C2074 0.930 . S
H2067 C2075 0.930 . S
H2068 C2078 0.930 . S
H2069 C2079 0.930 . S
C2070 H2064 0.930 . S
C2070 C2071 1.355 . S
C2070 C2072 1.415 . S
C2071 C2070 1.355 . S
C2071 C2073 1.419 . S
C2072 C2070 1.415 . S
C2072 C2077 1.425 . S
C2072 C2079 1.409 . S
C2073 H2065 0.930 . S
C2073 C2071 1.419 . S
C2073 C2074 1.362 . S
C2074 H2066 0.930 . S
C2074 C2073 1.362 . S
C2074 C2077 1.409 . S
C2075 H2067 0.930 . S
C2075 C2076 1.355 . S
C2075 C2077 1.415 . S
C2076 C2075 1.355 . S
C2076 C2078 1.419 . S
C2077 C2072 1.425 . S
C2077 C2074 1.409 . S
C2077 C2075 1.415 . S
C2078 H2068 0.930 . S
C2078 C2076 1.419 . S
C2078 C2079 1.362 . S
C2079 H2069 0.930 . S
C2079 C2072 1.409 . S
C2079 C2078 1.362 . S
H2080 C2086 0.930 . S
H2081 C2089 0.930 . S
H2082 C2090 0.930 . S
H2083 C2091 0.930 . S
H2084 C2094 0.930 . S
H2085 C2095 0.930 . S
C2086 H2080 0.930 . S
C2086 C2087 1.355 . S
C2086 C2088 1.415 . S
C2087 C2086 1.355 . S
C2087 C2089 1.419 . S
C2088 C2086 1.415 . S
C2088 C2093 1.425 . S
C2088 C2095 1.409 . S
C2089 H2081 0.930 . S
C2089 C2087 1.419 . S
C2089 C2090 1.362 . S
C2090 H2082 0.930 . S
C2090 C2089 1.362 . S
C2090 C2093 1.409 . S
C2091 H2083 0.930 . S
C2091 C2092 1.355 . S
C2091 C2093 1.415 . S
C2092 C2091 1.355 . S
C2092 C2094 1.419 . S
C2093 C2088 1.425 . S
C2093 C2090 1.409 . S
C2093 C2091 1.415 . S
C2094 H2084 0.930 . S
C2094 C2092 1.419 . S
C2094 C2095 1.362 . S
C2095 H2085 0.930 . S
C2095 C2088 1.409 . S
C2095 C2094 1.362 . S
H2096 C2102 0.930 . S
H2097 C2105 0.930 . S
H2098 C2106 0.930 . S
H2099 C2107 0.930 . S
H2100 C2110 0.930 . S
H2101 C2111 0.930 . S
C2102 H2096 0.930 . S
C2102 C2103 1.355 . S
C2102 C2104 1.415 . S
C2103 C2102 1.355 . S
C2103 C2105 1.419 . S
C2104 C2102 1.415 . S
C2104 C2109 1.425 . S
C2104 C2111 1.409 . S
C2105 H2097 0.930 . S
C2105 C2103 1.419 . S
C2105 C2106 1.362 . S
C2106 H2098 0.930 . S
C2106 C2105 1.362 . S
C2106 C2109 1.409 . S
C2107 H2099 0.930 . S
C2107 C2108 1.355 . S
C2107 C2109 1.415 . S
C2108 C2107 1.355 . S
C2108 C2110 1.419 . S
C2109 C2104 1.425 . S
C2109 C2106 1.409 . S
C2109 C2107 1.415 . S
C2110 H2100 0.930 . S
C2110 C2108 1.419 . S
C2110 C2111 1.362 . S
C2111 H2101 0.930 . S
C2111 C2104 1.409 . S
C2111 C2110 1.362 . S
H2112 C2118 0.930 . S
H2113 C2121 0.930 . S
H2114 C2122 0.930 . S
H2115 C2123 0.930 . S
H2116 C2126 0.930 . S
H2117 C2127 0.930 . S
C2118 H2112 0.930 . S
C2118 C2119 1.355 . S
C2118 C2120 1.415 . S
C2119 C2118 1.355 . S
C2119 C2121 1.419 . S
C2120 C2118 1.415 . S
C2120 C2125 1.425 . S
C2120 C2127 1.409 . S
C2121 H2113 0.930 . S
C2121 C2119 1.419 . S
C2121 C2122 1.362 . S
C2122 H2114 0.930 . S
C2122 C2121 1.362 . S
C2122 C2125 1.409 . S
C2123 H2115 0.930 . S
C2123 C2124 1.355 . S
C2123 C2125 1.415 . S
C2124 C2123 1.355 . S
C2124 C2126 1.419 . S
C2125 C2120 1.425 . S
C2125 C2122 1.409 . S
C2125 C2123 1.415 . S
C2126 H2116 0.930 . S
C2126 C2124 1.419 . S
C2126 C2127 1.362 . S
C2127 H2117 0.930 . S
C2127 C2120 1.409 . S
C2127 C2126 1.362 . S
H2128 C2134 0.930 . S
H2129 C2137 0.930 . S
H2130 C2138 0.930 . S
H2131 C2139 0.930 . S
H2132 C2142 0.930 . S
H2133 C2143 0.930 . S
C2134 H2128 0.930 . S
C2134 C2135 1.355 . S
C2134 C2136 1.415 . S
C2135 C2134 1.355 . S
C2135 C2137 1.419 . S
C2136 C2134 1.415 . S
C2136 C2141 1.425 . S
C2136 C2143 1.409 . S
C2137 H2129 0.930 . S
C2137 C2135 1.419 . S
C2137 C2138 1.362 . S
C2138 H2130 0.930 . S
C2138 C2137 1.362 . S
C2138 C2141 1.409 . S
C2139 H2131 0.930 . S
C2139 C2140 1.355 . S
C2139 C2141 1.415 . S
C2140 C2139 1.355 . S
C2140 C2142 1.419 . S
C2141 C2136 1.425 . S
C2141 C2138 1.409 . S
C2141 C2139 1.415 . S
C2142 H2132 0.930 . S
C2142 C2140 1.419 . S
C2142 C2143 1.362 . S
C2143 H2133 0.930 . S
C2143 C2136 1.409 . S
C2143 C2142 1.362 . S
H2144 C2150 0.930 . S
H2145 C2153 0.930 . S
H2146 C2154 0.930 . S
H2147 C2155 0.930 . S
H2148 C2158 0.930 . S
H2149 C2159 0.930 . S
C2150 H2144 0.930 . S
C2150 C2151 1.355 . S
C2150 C2152 1.415 . S
C2151 C2150 1.355 . S
C2151 C2153 1.419 . S
C2152 C2150 1.415 . S
C2152 C2157 1.425 . S
C2152 C2159 1.409 . S
C2153 H2145 0.930 . S
C2153 C2151 1.419 . S
C2153 C2154 1.362 . S
C2154 H2146 0.930 . S
C2154 C2153 1.362 . S
C2154 C2157 1.409 . S
C2155 H2147 0.930 . S
C2155 C2156 1.355 . S
C2155 C2157 1.415 . S
C2156 C2155 1.355 . S
C2156 C2158 1.419 . S
C2157 C2152 1.425 . S
C2157 C2154 1.409 . S
C2157 C2155 1.415 . S
C2158 H2148 0.930 . S
C2158 C2156 1.419 . S
C2158 C2159 1.362 . S
C2159 H2149 0.930 . S
C2159 C2152 1.409 . S
C2159 C2158 1.362 . S
H2160 C2166 0.930 . S
H2161 C2169 0.930 . S
H2162 C2170 0.930 . S
H2163 C2171 0.930 . S
H2164 C2174 0.930 . S
H2165 C2175 0.930 . S
C2166 H2160 0.930 . S
C2166 C2167 1.355 . S
C2166 C2168 1.415 . S
C2167 C2166 1.355 . S
C2167 C2169 1.419 . S
C2168 C2166 1.415 . S
C2168 C2173 1.425 . S
C2168 C2175 1.409 . S
C2169 H2161 0.930 . S
C2169 C2167 1.419 . S
C2169 C2170 1.362 . S
C2170 H2162 0.930 . S
C2170 C2169 1.362 . S
C2170 C2173 1.409 . S
C2171 H2163 0.930 . S
C2171 C2172 1.355 . S
C2171 C2173 1.415 . S
C2172 C2171 1.355 . S
C2172 C2174 1.419 . S
C2173 C2168 1.425 . S
C2173 C2170 1.409 . S
C2173 C2171 1.415 . S
C2174 H2164 0.930 . S
C2174 C2172 1.419 . S
C2174 C2175 1.362 . S
C2175 H2165 0.930 . S
C2175 C2168 1.409 . S
C2175 C2174 1.362 . S
H2176 C2182 0.930 . S
H2177 C2185 0.930 . S
H2178 C2186 0.930 . S
H2179 C2187 0.930 . S
H2180 C2190 0.930 . S
H2181 C2191 0.930 . S
C2182 H2176 0.930 . S
C2182 C2183 1.355 . S
C2182 C2184 1.415 . S
C2183 C2182 1.355 . S
C2183 C2185 1.419 . S
C2184 C2182 1.415 . S
C2184 C2189 1.425 . S
C2184 C2191 1.409 . S
C2185 H2177 0.930 . S
C2185 C2183 1.419 . S
C2185 C2186 1.362 . S
C2186 H2178 0.930 . S
C2186 C2185 1.362 . S
C2186 C2189 1.409 . S
C2187 H2179 0.930 . S
C2187 C2188 1.355 . S
C2187 C2189 1.415 . S
C2188 C2187 1.355 . S
C2188 C2190 1.419 . S
C2189 C2184 1.425 . S
C2189 C2186 1.409 . S
C2189 C2187 1.415 . S
C2190 H2180 0.930 . S
C2190 C2188 1.419 . S
C2190 C2191 1.362 . S
C2191 H2181 0.930 . S
C2191 C2184 1.409 . S
C2191 C2190 1.362 . S
H2192 C2198 0.930 . S
H2193 C2201 0.930 . S
H2194 C2202 0.930 . S
H2195 C2203 0.930 . S
H2196 C2206 0.930 . S
H2197 C2207 0.930 . S
C2198 H2192 0.930 . S
C2198 C2199 1.355 . S
C2198 C2200 1.415 . S
C2199 C2198 1.355 . S
C2199 C2201 1.419 . S
C2200 C2198 1.415 . S
C2200 C2205 1.425 . S
C2200 C2207 1.409 . S
C2201 H2193 0.930 . S
C2201 C2199 1.419 . S
C2201 C2202 1.362 . S
C2202 H2194 0.930 . S
C2202 C2201 1.362 . S
C2202 C2205 1.409 . S
C2203 H2195 0.930 . S
C2203 C2204 1.355 . S
C2203 C2205 1.415 . S
C2204 C2203 1.355 . S
C2204 C2206 1.419 . S
C2205 C2200 1.425 . S
C2205 C2202 1.409 . S
C2205 C2203 1.415 . S
C2206 H2196 0.930 . S
C2206 C2204 1.419 . S
C2206 C2207 1.362 . S
C2207 H2197 0.930 . S
C2207 C2200 1.409 . S
C2207 C2206 1.362 . S
H2208 C2214 0.930 . S
H2209 C2217 0.930 . S
H2210 C2218 0.930 . S
H2211 C2219 0.930 . S
H2212 C2222 0.930 . S
H2213 C2223 0.930 . S
C2214 H2208 0.930 . S
C2214 C2215 1.355 . S
C2214 C2216 1.415 . S
C2215 C2214 1.355 . S
C2215 C2217 1.419 . S
C2216 C2214 1.415 . S
C2216 C2221 1.425 . S
C2216 C2223 1.409 . S
C2217 H2209 0.930 . S
C2217 C2215 1.419 . S
C2217 C2218 1.362 . S
C2218 H2210 0.930 . S
C2218 C2217 1.362 . S
C2218 C2221 1.409 . S
C2219 H2211 0.930 . S
C2219 C2220 1.355 . S
C2219 C2221 1.415 . S
C2220 C2219 1.355 . S
C2220 C2222 1.419 . S
C2221 C2216 1.425 . S
C2221 C2218 1.409 . S
C2221 C2219 1.415 . S
C2222 H2212 0.930 . S
C2222 C2220 1.419 . S
C2222 C2223 1.362 . S
C2223 H2213 0.930 . S
C2223 C2216 1.409 . S
C2223 C2222 1.362 . S
H2224 C2230 0.930 . S
H2225 C2233 0.930 . S
H2226 C2234 0.930 . S
H2227 C2235 0.930 . S
H2228 C2238 0.930 . S
H2229 C2239 0.930 . S
C2230 H2224 0.930 . S
C2230 C2231 1.355 . S
C2230 C2232 1.415 . S
C2231 C2230 1.355 . S
C2231 C2233 1.419 . S
C2232 C2230 1.415 . S
C2232 C2237 1.425 . S
C2232 C2239 1.409 . S
C2233 H2225 0.930 . S
C2233 C2231 1.419 . S
C2233 C2234 1.362 . S
C2234 H2226 0.930 . S
C2234 C2233 1.362 . S
C2234 C2237 1.409 . S
C2235 H2227 0.930 . S
C2235 C2236 1.355 . S
C2235 C2237 1.415 . S
C2236 C2235 1.355 . S
C2236 C2238 1.419 . S
C2237 C2232 1.425 . S
C2237 C2234 1.409 . S
C2237 C2235 1.415 . S
C2238 H2228 0.930 . S
C2238 C2236 1.419 . S
C2238 C2239 1.362 . S
C2239 H2229 0.930 . S
C2239 C2232 1.409 . S
C2239 C2238 1.362 . S
H2240 C2246 0.930 . S
H2241 C2249 0.930 . S
H2242 C2250 0.930 . S
H2243 C2251 0.930 . S
H2244 C2254 0.930 . S
H2245 C2255 0.930 . S
C2246 H2240 0.930 . S
C2246 C2247 1.355 . S
C2246 C2248 1.415 . S
C2247 C2246 1.355 . S
C2247 C2249 1.419 . S
C2248 C2246 1.415 . S
C2248 C2253 1.425 . S
C2248 C2255 1.409 . S
C2249 H2241 0.930 . S
C2249 C2247 1.419 . S
C2249 C2250 1.362 . S
C2250 H2242 0.930 . S
C2250 C2249 1.362 . S
C2250 C2253 1.409 . S
C2251 H2243 0.930 . S
C2251 C2252 1.355 . S
C2251 C2253 1.415 . S
C2252 C2251 1.355 . S
C2252 C2254 1.419 . S
C2253 C2248 1.425 . S
C2253 C2250 1.409 . S
C2253 C2251 1.415 . S
C2254 H2244 0.930 . S
C2254 C2252 1.419 . S
C2254 C2255 1.362 . S
C2255 H2245 0.930 . S
C2255 C2248 1.409 . S
C2255 C2254 1.362 . S
H2256 C2262 0.930 . S
H2257 C2265 0.930 . S
H2258 C2266 0.930 . S
H2259 C2267 0.930 . S
H2260 C2270 0.930 . S
H2261 C2271 0.930 . S
C2262 H2256 0.930 . S
C2262 C2263 1.355 . S
C2262 C2264 1.415 . S
C2263 C2262 1.355 . S
C2263 C2265 1.419 . S
C2264 C2262 1.415 . S
C2264 C2269 1.425 . S
C2264 C2271 1.409 . S
C2265 H2257 0.930 . S
C2265 C2263 1.419 . S
C2265 C2266 1.362 . S
C2266 H2258 0.930 . S
C2266 C2265 1.362 . S
C2266 C2269 1.409 . S
C2267 H2259 0.930 . S
C2267 C2268 1.355 . S
C2267 C2269 1.415 . S
C2268 C2267 1.355 . S
C2268 C2270 1.419 . S
C2269 C2264 1.425 . S
C2269 C2266 1.409 . S
C2269 C2267 1.415 . S
C2270 H2260 0.930 . S
C2270 C2268 1.419 . S
C2270 C2271 1.362 . S
C2271 H2261 0.930 . S
C2271 C2264 1.409 . S
C2271 C2270 1.362 . S
H2272 C2278 0.930 . S
H2273 C2281 0.930 . S
H2274 C2282 0.930 . S
H2275 C2283 0.930 . S
H2276 C2286 0.930 . S
H2277 C2287 0.930 . S
C2278 H2272 0.930 . S
C2278 C2279 1.355 . S
C2278 C2280 1.415 . S
C2279 C2278 1.355 . S
C2279 C2281 1.419 . S
C2280 C2278 1.415 . S
C2280 C2285 1.425 . S
C2280 C2287 1.409 . S
C2281 H2273 0.930 . S
C2281 C2279 1.419 . S
C2281 C2282 1.362 . S
C2282 H2274 0.930 . S
C2282 C2281 1.362 . S
C2282 C2285 1.409 . S
C2283 H2275 0.930 . S
C2283 C2284 1.355 . S
C2283 C2285 1.415 . S
C2284 C2283 1.355 . S
C2284 C2286 1.419 . S
C2285 C2280 1.425 . S
C2285 C2282 1.409 . S
C2285 C2283 1.415 . S
C2286 H2276 0.930 . S
C2286 C2284 1.419 . S
C2286 C2287 1.362 . S
C2287 H2277 0.930 . S
C2287 C2280 1.409 . S
C2287 C2286 1.362 . S
H2288 C2294 0.930 . S
H2289 C2297 0.930 . S
H2290 C2298 0.930 . S
H2291 C2299 0.930 . S
H2292 C2302 0.930 . S
H2293 C2303 0.930 . S
C2294 H2288 0.930 . S
C2294 C2295 1.355 . S
C2294 C2296 1.415 . S
C2295 C2294 1.355 . S
C2295 C2297 1.419 . S
C2296 C2294 1.415 . S
C2296 C2301 1.425 . S
C2296 C2303 1.409 . S
C2297 H2289 0.930 . S
C2297 C2295 1.419 . S
C2297 C2298 1.362 . S
C2298 H2290 0.930 . S
C2298 C2297 1.362 . S
C2298 C2301 1.409 . S
C2299 H2291 0.930 . S
C2299 C2300 1.355 . S
C2299 C2301 1.415 . S
C2300 C2299 1.355 . S
C2300 C2302 1.419 . S
C2301 C2296 1.425 . S
C2301 C2298 1.409 . S
C2301 C2299 1.415 . S
C2302 H2292 0.930 . S
C2302 C2300 1.419 . S
C2302 C2303 1.362 . S
C2303 H2293 0.930 . S
C2303 C2296 1.409 . S
C2303 C2302 1.362 . S
H2304 C2310 0.930 . S
H2305 C2313 0.930 . S
H2306 C2314 0.930 . S
H2307 C2315 0.930 . S
H2308 C2318 0.930 . S
H2309 C2319 0.930 . S
C2310 H2304 0.930 . S
C2310 C2311 1.355 . S
C2310 C2312 1.415 . S
C2311 C2310 1.355 . S
C2311 C2313 1.419 . S
C2312 C2310 1.415 . S
C2312 C2317 1.425 . S
C2312 C2319 1.409 . S
C2313 H2305 0.930 . S
C2313 C2311 1.419 . S
C2313 C2314 1.362 . S
C2314 H2306 0.930 . S
C2314 C2313 1.362 . S
C2314 C2317 1.409 . S
C2315 H2307 0.930 . S
C2315 C2316 1.355 . S
C2315 C2317 1.415 . S
C2316 C2315 1.355 . S
C2316 C2318 1.419 . S
C2317 C2312 1.425 . S
C2317 C2314 1.409 . S
C2317 C2315 1.415 . S
C2318 H2308 0.930 . S
C2318 C2316 1.419 . S
C2318 C2319 1.362 . S
C2319 H2309 0.930 . S
C2319 C2312 1.409 . S
C2319 C2318 1.362 . S
H2320 C2326 0.930 . S
H2321 C2329 0.930 . S
H2322 C2330 0.930 . S
H2323 C2331 0.930 . S
H2324 C2334 0.930 . S
H2325 C2335 0.930 . S
C2326 H2320 0.930 . S
C2326 C2327 1.355 . S
C2326 C2328 1.415 . S
C2327 C2326 1.355 . S
C2327 C2329 1.419 . S
C2328 C2326 1.415 . S
C2328 C2333 1.425 . S
C2328 C2335 1.409 . S
C2329 H2321 0.930 . S
C2329 C2327 1.419 . S
C2329 C2330 1.362 . S
C2330 H2322 0.930 . S
C2330 C2329 1.362 . S
C2330 C2333 1.409 . S
C2331 H2323 0.930 . S
C2331 C2332 1.355 . S
C2331 C2333 1.415 . S
C2332 C2331 1.355 . S
C2332 C2334 1.419 . S
C2333 C2328 1.425 . S
C2333 C2330 1.409 . S
C2333 C2331 1.415 . S
C2334 H2324 0.930 . S
C2334 C2332 1.419 . S
C2334 C2335 1.362 . S
C2335 H2325 0.930 . S
C2335 C2328 1.409 . S
C2335 C2334 1.362 . S
H2336 C2342 0.930 . S
H2337 C2345 0.930 . S
H2338 C2346 0.930 . S
H2339 C2347 0.930 . S
H2340 C2350 0.930 . S
H2341 C2351 0.930 . S
C2342 H2336 0.930 . S
C2342 C2343 1.355 . S
C2342 C2344 1.415 . S
C2343 C2342 1.355 . S
C2343 C2345 1.419 . S
C2344 C2342 1.415 . S
C2344 C2349 1.425 . S
C2344 C2351 1.409 . S
C2345 H2337 0.930 . S
C2345 C2343 1.419 . S
C2345 C2346 1.362 . S
C2346 H2338 0.930 . S
C2346 C2345 1.362 . S
C2346 C2349 1.409 . S
C2347 H2339 0.930 . S
C2347 C2348 1.355 . S
C2347 C2349 1.415 . S
C2348 C2347 1.355 . S
C2348 C2350 1.419 . S
C2349 C2344 1.425 . S
C2349 C2346 1.409 . S
C2349 C2347 1.415 . S
C2350 H2340 0.930 . S
C2350 C2348 1.419 . S
C2350 C2351 1.362 . S
C2351 H2341 0.930 . S
C2351 C2344 1.409 . S
C2351 C2350 1.362 . S
H2352 C2358 0.930 . S
H2353 C2361 0.930 . S
H2354 C2362 0.930 . S
H2355 C2363 0.930 . S
H2356 C2366 0.930 . S
H2357 C2367 0.930 . S
C2358 H2352 0.930 . S
C2358 C2359 1.355 . S
C2358 C2360 1.415 . S
C2359 C2358 1.355 . S
C2359 C2361 1.419 . S
C2360 C2358 1.415 . S
C2360 C2365 1.425 . S
C2360 C2367 1.409 . S
C2361 H2353 0.930 . S
C2361 C2359 1.419 . S
C2361 C2362 1.362 . S
C2362 H2354 0.930 . S
C2362 C2361 1.362 . S
C2362 C2365 1.409 . S
C2363 H2355 0.930 . S
C2363 C2364 1.355 . S
C2363 C2365 1.415 . S
C2364 C2363 1.355 . S
C2364 C2366 1.419 . S
C2365 C2360 1.425 . S
C2365 C2362 1.409 . S
C2365 C2363 1.415 . S
C2366 H2356 0.930 . S
C2366 C2364 1.419 . S
C2366 C2367 1.362 . S
C2367 H2357 0.930 . S
C2367 C2360 1.409 . S
C2367 C2366 1.362 . S
H2368 C2374 0.930 . S
H2369 C2377 0.930 . S
H2370 C2378 0.930 . S
H2371 C2379 0.930 . S
H2372 C2382 0.930 . S
H2373 C2383 0.930 . S
C2374 H2368 0.930 . S
C2374 C2375 1.355 . S
C2374 C2376 1.415 . S
C2375 C2374 1.355 . S
C2375 C2377 1.419 . S
C2376 C2374 1.415 . S
C2376 C2381 1.425 . S
C2376 C2383 1.409 . S
C2377 H2369 0.930 . S
C2377 C2375 1.419 . S
C2377 C2378 1.362 . S
C2378 H2370 0.930 . S
C2378 C2377 1.362 . S
C2378 C2381 1.409 . S
C2379 H2371 0.930 . S
C2379 C2380 1.355 . S
C2379 C2381 1.415 . S
C2380 C2379 1.355 . S
C2380 C2382 1.419 . S
C2381 C2376 1.425 . S
C2381 C2378 1.409 . S
C2381 C2379 1.415 . S
C2382 H2372 0.930 . S
C2382 C2380 1.419 . S
C2382 C2383 1.362 . S
C2383 H2373 0.930 . S
C2383 C2376 1.409 . S
C2383 C2382 1.362 . S
H2384 C2390 0.930 . S
H2385 C2393 0.930 . S
H2386 C2394 0.930 . S
H2387 C2395 0.930 . S
H2388 C2398 0.930 . S
H2389 C2399 0.930 . S
C2390 H2384 0.930 . S
C2390 C2391 1.355 . S
C2390 C2392 1.415 . S
C2391 C2390 1.355 . S
C2391 C2393 1.419 . S
C2392 C2390 1.415 . S
C2392 C2397 1.425 . S
C2392 C2399 1.409 . S
C2393 H2385 0.930 . S
C2393 C2391 1.419 . S
C2393 C2394 1.362 . S
C2394 H2386 0.930 . S
C2394 C2393 1.362 . S
C2394 C2397 1.409 . S
C2395 H2387 0.930 . S
C2395 C2396 1.355 . S
C2395 C2397 1.415 . S
C2396 C2395 1.355 . S
C2396 C2398 1.419 . S
C2397 C2392 1.425 . S
C2397 C2394 1.409 . S
C2397 C2395 1.415 . S
C2398 H2388 0.930 . S
C2398 C2396 1.419 . S
C2398 C2399 1.362 . S
C2399 H2389 0.930 . S
C2399 C2392 1.409 . S
C2399 C2398 1.362 . S
H2400 C2406 0.930 . S
H2401 C2409 0.930 . S
H2402 C2410 0.930 . S
H2403 C2411 0.930 . S
H2404 C2414 0.930 . S
H2405 C2415 0.930 . S
C2406 H2400 0.930 . S
C2406 C2407 1.355 . S
C2406 C2408 1.415 . S
C2407 C2406 1.355 . S
C2407 C2409 1.419 . S
C2408 C2406 1.415 . S
C2408 C2413 1.425 . S
C2408 C2415 1.409 . S
C2409 H2401 0.930 . S
C2409 C2407 1.419 . S
C2409 C2410 1.362 . S
C2410 H2402 0.930 . S
C2410 C2409 1.362 . S
C2410 C2413 1.409 . S
C2411 H2403 0.930 . S
C2411 C2412 1.355 . S
C2411 C2413 1.415 . S
C2412 C2411 1.355 . S
C2412 C2414 1.419 . S
C2413 C2408 1.425 . S
C2413 C2410 1.409 . S
C2413 C2411 1.415 . S
C2414 H2404 0.930 . S
C2414 C2412 1.419 . S
C2414 C2415 1.362 . S
C2415 H2405 0.930 . S
C2415 C2408 1.409 . S
C2415 C2414 1.362 . S
H2416 C2422 0.930 . S
H2417 C2425 0.930 . S
H2418 C2426 0.930 . S
H2419 C2427 0.930 . S
H2420 C2430 0.930 . S
H2421 C2431 0.930 . S
C2422 H2416 0.930 . S
C2422 C2423 1.355 . S
C2422 C2424 1.415 . S
C2423 C2422 1.355 . S
C2423 C2425 1.419 . S
C2424 C2422 1.415 . S
C2424 C2429 1.425 . S
C2424 C2431 1.409 . S
C2425 H2417 0.930 . S
C2425 C2423 1.419 . S
C2425 C2426 1.362 . S
C2426 H2418 0.930 . S
C2426 C2425 1.362 . S
C2426 C2429 1.409 . S
C2427 H2419 0.930 . S
C2427 C2428 1.355 . S
C2427 C2429 1.415 . S
C2428 C2427 1.355 . S
C2428 C2430 1.419 . S
C2429 C2424 1.425 . S
C2429 C2426 1.409 . S
C2429 C2427 1.415 . S
C2430 H2420 0.930 . S
C2430 C2428 1.419 . S
C2430 C2431 1.362 . S
C2431 H2421 0.930 . S
C2431 C2424 1.409 . S
C2431 C2430 1.362 . S
H2432 C2438 0.930 . S
H2433 C2441 0.930 . S
H2434 C2442 0.930 . S
H2435 C2443 0.930 . S
H2436 C2446 0.930 . S
H2437 C2447 0.930 . S
C2438 H2432 0.930 . S
C2438 C2439 1.355 . S
C2438 C2440 1.415 . S
C2439 C2438 1.355 . S
C2439 C2441 1.419 . S
C2440 C2438 1.415 . S
C2440 C2445 1.425 . S
C2440 C2447 1.409 . S
C2441 H2433 0.930 . S
C2441 C2439 1.419 . S
C2441 C2442 1.362 . S
C2442 H2434 0.930 . S
C2442 C2441 1.362 . S
C2442 C2445 1.409 . S
C2443 H2435 0.930 . S
C2443 C2444 1.355 . S
C2443 C2445 1.415 . S
C2444 C2443 1.355 . S
C2444 C2446 1.419 . S
C2445 C2440 1.425 . S
C2445 C2442 1.409 . S
C2445 C2443 1.415 . S
C2446 H2436 0.930 . S
C2446 C2444 1.419 . S
C2446 C2447 1.362 . S
C2447 H2437 0.930 . S
C2447 C2440 1.409 . S
C2447 C2446 1.362 . S
H2448 C2454 0.930 . S
H2449 C2457 0.930 . S
H2450 C2458 0.930 . S
H2451 C2459 0.930 . S
H2452 C2462 0.930 . S
H2453 C2463 0.930 . S
C2454 H2448 0.930 . S
C2454 C2455 1.355 . S
C2454 C2456 1.415 . S
C2455 C2454 1.355 . S
C2455 C2457 1.419 . S
C2456 C2454 1.415 . S
C2456 C2461 1.425 . S
C2456 C2463 1.409 . S
C2457 H2449 0.930 . S
C2457 C2455 1.419 . S
C2457 C2458 1.362 . S
C2458 H2450 0.930 . S
C2458 C2457 1.362 . S
C2458 C2461 1.409 . S
C2459 H2451 0.930 . S
C2459 C2460 1.355 . S
C2459 C2461 1.415 . S
C2460 C2459 1.355 . S
C2460 C2462 1.419 . S
C2461 C2456 1.425 . S
C2461 C2458 1.409 . S
C2461 C2459 1.415 . S
C2462 H2452 0.930 . S
C2462 C2460 1.419 . S
C2462 C2463 1.362 . S
C2463 H2453 0.930 . S
C2463 C2456 1.409 . S
C2463 C2462 1.362 . S
H2464 C2470 0.930 . S
H2465 C2473 0.930 . S
H2466 C2474 0.930 . S
H2467 C2475 0.930 . S
H2468 C2478 0.930 . S
H2469 C2479 0.930 . S
C2470 H2464 0.930 . S
C2470 C2471 1.355 . S
C2470 C2472 1.415 . S
C2471 C2470 1.355 . S
C2471 C2473 1.419 . S
C2472 C2470 1.415 . S
C2472 C2477 1.425 . S
C2472 C2479 1.409 . S
C2473 H2465 0.930 . S
C2473 C2471 1.419 . S
C2473 C2474 1.362 . S
C2474 H2466 0.930 . S
C2474 C2473 1.362 . S
C2474 C2477 1.409 . S
C2475 H2467 0.930 . S
C2475 C2476 1.355 . S
C2475 C2477 1.415 . S
C2476 C2475 1.355 . S
C2476 C2478 1.419 . S
C2477 C2472 1.425 . S
C2477 C2474 1.409 . S
C2477 C2475 1.415 . S
C2478 H2468 0.930 . S
C2478 C2476 1.419 . S
C2478 C2479 1.362 . S
C2479 H2469 0.930 . S
C2479 C2472 1.409 . S
C2479 C2478 1.362 . S
H2480 C2486 0.930 . S
H2481 C2489 0.930 . S
H2482 C2490 0.930 . S
H2483 C2491 0.930 . S
H2484 C2494 0.930 . S
H2485 C2495 0.930 . S
C2486 H2480 0.930 . S
C2486 C2487 1.355 . S
C2486 C2488 1.415 . S
C2487 C2486 1.355 . S
C2487 C2489 1.419 . S
C2488 C2486 1.415 . S
C2488 C2493 1.425 . S
C2488 C2495 1.409 . S
C2489 H2481 0.930 . S
C2489 C2487 1.419 . S
C2489 C2490 1.362 . S
C2490 H2482 0.930 . S
C2490 C2489 1.362 . S
C2490 C2493 1.409 . S
C2491 H2483 0.930 . S
C2491 C2492 1.355 . S
C2491 C2493 1.415 . S
C2492 C2491 1.355 . S
C2492 C2494 1.419 . S
C2493 C2488 1.425 . S
C2493 C2490 1.409 . S
C2493 C2491 1.415 . S
C2494 H2484 0.930 . S
C2494 C2492 1.419 . S
C2494 C2495 1.362 . S
C2495 H2485 0.930 . S
C2495 C2488 1.409 . S
C2495 C2494 1.362 . S
H2496 C2502 0.930 . S
H2497 C2505 0.930 . S
H2498 C2506 0.930 . S
H2499 C2507 0.930 . S
H2500 C2510 0.930 . S
H2501 C2511 0.930 . S
C2502 H2496 0.930 . S
C2502 C2503 1.355 . S
C2502 C2504 1.415 . S
C2503 C2502 1.355 . S
C2503 C2505 1.419 . S
C2504 C2502 1.415 . S
C2504 C2509 1.425 . S
C2504 C2511 1.409 . S
C2505 H2497 0.930 . S
C2505 C2503 1.419 . S
C2505 C2506 1.362 . S
C2506 H2498 0.930 . S
C2506 C2505 1.362 . S
C2506 C2509 1.409 . S
C2507 H2499 0.930 . S
C2507 C2508 1.355 . S
C2507 C2509 1.415 . S
C2508 C2507 1.355 . S
C2508 C2510 1.419 . S
C2509 C2504 1.425 . S
C2509 C2506 1.409 . S
C2509 C2507 1.415 . S
C2510 H2500 0.930 . S
C2510 C2508 1.419 . S
C2510 C2511 1.362 . S
C2511 H2501 0.930 . S
C2511 C2504 1.409 . S
C2511 C2510 1.362 . S
H2512 C2518 0.930 . S
H2513 C2521 0.930 . S
H2514 C2522 0.930 . S
H2515 C2523 0.930 . S
H2516 C2526 0.930 . S
H2517 C2527 0.930 . S
C2518 H2512 0.930 . S
C2518 C2519 1.355 . S
C2518 C2520 1.415 . S
C2519 C2518 1.355 . S
C2519 C2521 1.419 . S
C2520 C2518 1.415 . S
C2520 C2525 1.425 . S
C2520 C2527 1.409 . S
C2521 H2513 0.930 . S
C2521 C2519 1.419 . S
C2521 C2522 1.362 . S
C2522 H2514 0.930 . S
C2522 C2521 1.362 . S
C2522 C2525 1.409 . S
C2523 H2515 0.930 . S
C2523 C2524 1.355 . S
C2523 C2525 1.415 . S
C2524 C2523 1.355 . S
C2524 C2526 1.419 . S
C2525 C2520 1.425 . S
C2525 C2522 1.409 . S
C2525 C2523 1.415 . S
C2526 H2516 0.930 . S
C2526 C2524 1.419 . S
C2526 C2527 1.362 . S
C2527 H2517 0.930 . S
C2527 C2520 1.409 . S
C2527 C2526 1.362 . S
H2528 C2534 0.930 . S
H2529 C2537 0.930 . S
H2530 C2538 0.930 . S
H2531 C2539 0.930 . S
H2532 C2542 0.930 . S
H2533 C2543 0.930 . S
C2534 H2528 0.930 . S
C2534 C2535 1.355 . S
C2534 C2536 1.415 . S
C2535 C2534 1.355 . S
C2535 C2537 1.419 . S
C2536 C2534 1.415 . S
C2536 C2541 1.425 . S
C2536 C2543 1.409 . S
C2537 H2529 0.930 . S
C2537 C2535 1.419 . S
C2537 C2538 1.362 . S
C2538 H2530 0.930 . S
C2538 C2537 1.362 . S
C2538 C2541 1.409 . S
C2539 H2531 0.930 . S
C2539 C2540 1.355 . S
C2539 C2541 1.415 . S
C2540 C2539 1.355 . S
C2540 C2542 1.419 . S
C2541 C2536 1.425 . S
C2541 C2538 1.409 . S
C2541 C2539 1.415 . S
C2542 H2532 0.930 . S
C2542 C2540 1.419 . S
C2542 C2543 1.362 . S
C2543 H2533 0.930 . S
C2543 C2536 1.409 . S
C2543 C2542 1.362 . S
H2544 C2550 0.930 . S
H2545 C2553 0.930 . S
H2546 C2554 0.930 . S
H2547 C2555 0.930 . S
H2548 C2558 0.930 . S
H2549 C2559 0.930 . S
C2550 H2544 0.930 . S
C2550 C2551 1.355 . S
C2550 C2552 1.415 . S
C2551 C2550 1.355 . S
C2551 C2553 1.419 . S
C2552 C2550 1.415 . S
C2552 C2557 1.425 . S
C2552 C2559 1.409 . S
C2553 H2545 0.930 . S
C2553 C2551 1.419 . S
C2553 C2554 1.362 . S
C2554 H2546 0.930 . S
C2554 C2553 1.362 . S
C2554 C2557 1.409 . S
C2555 H2547 0.930 . S
C2555 C2556 1.355 . S
C2555 C2557 1.415 . S
C2556 C2555 1.355 . S
C2556 C2558 1.419 . S
C2557 C2552 1.425 . S
C2557 C2554 1.409 . S
C2557 C2555 1.415 . S
C2558 H2548 0.930 . S
C2558 C2556 1.419 . S
C2558 C2559 1.362 . S
C2559 H2549 0.930 . S
C2559 C2552 1.409 . S
C2559 C2558 1.362 . S
H2560 C2566 0.930 . S
H2561 C2569 0.930 . S
H2562 C2570 0.930 . S
H2563 C2571 0.930 . S
H2564 C2574 0.930 . S
H2565 C2575 0.930 . S
C2566 H2560 0.930 . S
C2566 C2567 1.355 . S
C2566 C2568 1.415 . S
C2567 C2566 1.355 . S
C2567 C2569 1.419 . S
C2568 C2566 1.415 . S
C2568 C2573 1.425 . S
C2568 C2575 1.409 . S
C2569 H2561 0.930 . S
C2569 C2567 1.419 . S
C2569 C2570 1.362 . S
C2570 H2562 0.930 . S
C2570 C2569 1.362 . S
C2570 C2573 1.409 . S
C2571 H2563 0.930 . S
C2571 C2572 1.355 . S
C2571 C2573 1.415 . S
C2572 C2571 1.355 . S
C2572 C2574 1.419 . S
C2573 C2568 1.425 . S
C2573 C2570 1.409 . S
C2573 C2571 1.415 . S
C2574 H2564 0.930 . S
C2574 C2572 1.419 . S
C2574 C2575 1.362 . S
C2575 H2565 0.930 . S
C2575 C2568 1.409 . S
C2575 C2574 1.362 . S
H2576 C2582 0.930 . S
H2577 C2585 0.930 . S
H2578 C2586 0.930 . S
H2579 C2587 0.930 . S
H2580 C2590 0.930 . S
H2581 C2591 0.930 . S
C2582 H2576 0.930 . S
C2582 C2583 1.355 . S
C2582 C2584 1.415 . S
C2583 C2582 1.355 . S
C2583 C2585 1.419 . S
C2584 C2582 1.415 . S
C2584 C2589 1.425 . S
C2584 C2591 1.409 . S
C2585 H2577 0.930 . S
C2585 C2583 1.419 . S
C2585 C2586 1.362 . S
C2586 H2578 0.930 . S
C2586 C2585 1.362 . S
C2586 C2589 1.409 . S
C2587 H2579 0.930 . S
C2587 C2588 1.355 . S
C2587 C2589 1.415 . S
C2588 C2587 1.355 . S
C2588 C2590 1.419 . S
C2589 C2584 1.425 . S
C2589 C2586 1.409 . S
C2589 C2587 1.415 . S
C2590 H2580 0.930 . S
C2590 C2588 1.419 . S
C2590 C2591 1.362 . S
C2591 H2581 0.930 . S
C2591 C2584 1.409 . S
C2591 C2590 1.362 . S
H2592 C2598 0.930 . S
H2593 C2601 0.930 . S
H2594 C2602 0.930 . S
H2595 C2603 0.930 . S
H2596 C2606 0.930 . S
H2597 C2607 0.930 . S
C2598 H2592 0.930 . S
C2598 C2599 1.355 . S
C2598 C2600 1.415 . S
C2599 C2598 1.355 . S
C2599 C2601 1.419 . S
C2600 C2598 1.415 . S
C2600 C2605 1.425 . S
C2600 C2607 1.409 . S
C2601 H2593 0.930 . S
C2601 C2599 1.419 . S
C2601 C2602 1.362 . S
C2602 H2594 0.930 . S
C2602 C2601 1.362 . S
C2602 C2605 1.409 . S
C2603 H2595 0.930 . S
C2603 C2604 1.355 . S
C2603 C2605 1.415 . S
C2604 C2603 1.355 . S
C2604 C2606 1.419 . S
C2605 C2600 1.425 . S
C2605 C2602 1.409 . S
C2605 C2603 1.415 . S
C2606 H2596 0.930 . S
C2606 C2604 1.419 . S
C2606 C2607 1.362 . S
C2607 H2597 0.930 . S
C2607 C2600 1.409 . S
C2607 C2606 1.362 . S
H2608 C2614 0.930 . S
H2609 C2617 0.930 . S
H2610 C2618 0.930 . S
H2611 C2619 0.930 . S
H2612 C2622 0.930 . S
H2613 C2623 0.930 . S
C2614 H2608 0.930 . S
C2614 C2615 1.355 . S
C2614 C2616 1.415 . S
C2615 C2614 1.355 . S
C2615 C2617 1.419 . S
C2616 C2614 1.415 . S
C2616 C2621 1.425 . S
C2616 C2623 1.409 . S
C2617 H2609 0.930 . S
C2617 C2615 1.419 . S
C2617 C2618 1.362 . S
C2618 H2610 0.930 . S
C2618 C2617 1.362 . S
C2618 C2621 1.409 . S
C2619 H2611 0.930 . S
C2619 C2620 1.355 . S
C2619 C2621 1.415 . S
C2620 C2619 1.355 . S
C2620 C2622 1.419 . S
C2621 C2616 1.425 . S
C2621 C2618 1.409 . S
C2621 C2619 1.415 . S
C2622 H2612 0.930 . S
C2622 C2620 1.419 . S
C2622 C2623 1.362 . S
C2623 H2613 0.930 . S
C2623 C2616 1.409 . S
C2623 C2622 1.362 . S
H2624 C2630 0.930 . S
H2625 C2633 0.930 . S
H2626 C2634 0.930 . S
H2627 C2635 0.930 . S
H2628 C2638 0.930 . S
H2629 C2639 0.930 . S
C2630 H2624 0.930 . S
C2630 C2631 1.355 . S
C2630 C2632 1.415 . S
C2631 C2630 1.355 . S
C2631 C2633 1.419 . S
C2632 C2630 1.415 . S
C2632 C2637 1.425 . S
C2632 C2639 1.409 . S
C2633 H2625 0.930 . S
C2633 C2631 1.419 . S
C2633 C2634 1.362 . S
C2634 H2626 0.930 . S
C2634 C2633 1.362 . S
C2634 C2637 1.409 . S
C2635 H2627 0.930 . S
C2635 C2636 1.355 . S
C2635 C2637 1.415 . S
C2636 C2635 1.355 . S
C2636 C2638 1.419 . S
C2637 C2632 1.425 . S
C2637 C2634 1.409 . S
C2637 C2635 1.415 . S
C2638 H2628 0.930 . S
C2638 C2636 1.419 . S
C2638 C2639 1.362 . S
C2639 H2629 0.930 . S
C2639 C2632 1.409 . S
C2639 C2638 1.362 . S
H2640 C2646 0.930 . S
H2641 C2649 0.930 . S
H2642 C2650 0.930 . S
H2643 C2651 0.930 . S
H2644 C2654 0.930 . S
H2645 C2655 0.930 . S
C2646 H2640 0.930 . S
C2646 C2647 1.355 . S
C2646 C2648 1.415 . S
C2647 C2646 1.355 . S
C2647 C2649 1.419 . S
C2648 C2646 1.415 . S
C2648 C2653 1.425 . S
C2648 C2655 1.409 . S
C2649 H2641 0.930 . S
C2649 C2647 1.419 . S
C2649 C2650 1.362 . S
C2650 H2642 0.930 . S
C2650 C2649 1.362 . S
C2650 C2653 1.409 . S
C2651 H2643 0.930 . S
C2651 C2652 1.355 . S
C2651 C2653 1.415 . S
C2652 C2651 1.355 . S
C2652 C2654 1.419 . S
C2653 C2648 1.425 . S
C2653 C2650 1.409 . S
C2653 C2651 1.415 . S
C2654 H2644 0.930 . S
C2654 C2652 1.419 . S
C2654 C2655 1.362 . S
C2655 H2645 0.930 . S
C2655 C2648 1.409 . S
C2655 C2654 1.362 . S
H2656 C2662 0.930 . S
H2657 C2665 0.930 . S
H2658 C2666 0.930 . S
H2659 C2667 0.930 . S
H2660 C2670 0.930 . S
H2661 C2671 0.930 . S
C2662 H2656 0.930 . S
C2662 C2663 1.355 . S
C2662 C2664 1.415 . S
C2663 C2662 1.355 . S
C2663 C2665 1.419 . S
C2664 C2662 1.415 . S
C2664 C2669 1.425 . S
C2664 C2671 1.409 . S
C2665 H2657 0.930 . S
C2665 C2663 1.419 . S
C2665 C2666 1.362 . S
C2666 H2658 0.930 . S
C2666 C2665 1.362 . S
C2666 C2669 1.409 . S
C2667 H2659 0.930 . S
C2667 C2668 1.355 . S
C2667 C2669 1.415 . S
C2668 C2667 1.355 . S
C2668 C2670 1.419 . S
C2669 C2664 1.425 . S
C2669 C2666 1.409 . S
C2669 C2667 1.415 . S
C2670 H2660 0.930 . S
C2670 C2668 1.419 . S
C2670 C2671 1.362 . S
C2671 H2661 0.930 . S
C2671 C2664 1.409 . S
C2671 C2670 1.362 . S
H2672 C2678 0.930 . S
H2673 C2681 0.930 . S
H2674 C2682 0.930 . S
H2675 C2683 0.930 . S
H2676 C2686 0.930 . S
H2677 C2687 0.930 . S
C2678 H2672 0.930 . S
C2678 C2679 1.355 . S
C2678 C2680 1.415 . S
C2679 C2678 1.355 . S
C2679 C2681 1.419 . S
C2680 C2678 1.415 . S
C2680 C2685 1.425 . S
C2680 C2687 1.409 . S
C2681 H2673 0.930 . S
C2681 C2679 1.419 . S
C2681 C2682 1.362 . S
C2682 H2674 0.930 . S
C2682 C2681 1.362 . S
C2682 C2685 1.409 . S
C2683 H2675 0.930 . S
C2683 C2684 1.355 . S
C2683 C2685 1.415 . S
C2684 C2683 1.355 . S
C2684 C2686 1.419 . S
C2685 C2680 1.425 . S
C2685 C2682 1.409 . S
C2685 C2683 1.415 . S
C2686 H2676 0.930 . S
C2686 C2684 1.419 . S
C2686 C2687 1.362 . S
C2687 H2677 0.930 . S
C2687 C2680 1.409 . S
C2687 C2686 1.362 . S
H2688 C2694 0.930 . S
H2689 C2697 0.930 . S
H2690 C2698 0.930 . S
H2691 C2699 0.930 . S
H2692 C2702 0.930 . S
H2693 C2703 0.930 . S
C2694 H2688 0.930 . S
C2694 C2695 1.355 . S
C2694 C2696 1.415 . S
C2695 C2694 1.355 . S
C2695 C2697 1.419 . S
C2696 C2694 1.415 . S
C2696 C2701 1.425 . S
C2696 C2703 1.409 . S
C2697 H2689 0.930 . S
C2697 C2695 1.419 . S
C2697 C2698 1.362 . S
C2698 H2690 0.930 . S
C2698 C2697 1.362 . S
C2698 C2701 1.409 . S
C2699 H2691 0.930 . S
C2699 C2700 1.355 . S
C2699 C2701 1.415 . S
C2700 C2699 1.355 . S
C2700 C2702 1.419 . S
C2701 C2696 1.425 . S
C2701 C2698 1.409 . S
C2701 C2699 1.415 . S
C2702 H2692 0.930 . S
C2702 C2700 1.419 . S
C2702 C2703 1.362 . S
C2703 H2693 0.930 . S
C2703 C2696 1.409 . S
C2703 C2702 1.362 . S
H2704 C2710 0.930 . S
H2705 C2713 0.930 . S
H2706 C2714 0.930 . S
H2707 C2715 0.930 . S
H2708 C2718 0.930 . S
H2709 C2719 0.930 . S
C2710 H2704 0.930 . S
C2710 C2711 1.355 . S
C2710 C2712 1.415 . S
C2711 C2710 1.355 . S
C2711 C2713 1.419 . S
C2712 C2710 1.415 . S
C2712 C2717 1.425 . S
C2712 C2719 1.409 . S
C2713 H2705 0.930 . S
C2713 C2711 1.419 . S
C2713 C2714 1.362 . S
C2714 H2706 0.930 . S
C2714 C2713 1.362 . S
C2714 C2717 1.409 . S
C2715 H2707 0.930 . S
C2715 C2716 1.355 . S
C2715 C2717 1.415 . S
C2716 C2715 1.355 . S
C2716 C2718 1.419 . S
C2717 C2712 1.425 . S
C2717 C2714 1.409 . S
C2717 C2715 1.415 . S
C2718 H2708 0.930 . S
C2718 C2716 1.419 . S
C2718 C2719 1.362 . S
C2719 H2709 0.930 . S
C2719 C2712 1.409 . S
C2719 C2718 1.362 . S
H2720 C2726 0.930 . S
H2721 C2729 0.930 . S
H2722 C2730 0.930 . S
H2723 C2731 0.930 . S
H2724 C2734 0.930 . S
H2725 C2735 0.930 . S
C2726 H2720 0.930 . S
C2726 C2727 1.355 . S
C2726 C2728 1.415 . S
C2727 C2726 1.355 . S
C2727 C2729 1.419 . S
C2728 C2726 1.415 . S
C2728 C2733 1.425 . S
C2728 C2735 1.409 . S
C2729 H2721 0.930 . S
C2729 C2727 1.419 . S
C2729 C2730 1.362 . S
C2730 H2722 0.930 . S
C2730 C2729 1.362 . S
C2730 C2733 1.409 . S
C2731 H2723 0.930 . S
C2731 C2732 1.355 . S
C2731 C2733 1.415 . S
C2732 C2731 1.355 . S
C2732 C2734 1.419 . S
C2733 C2728 1.425 . S
C2733 C2730 1.409 . S
C2733 C2731 1.415 . S
C2734 H2724 0.930 . S
C2734 C2732 1.419 . S
C2734 C2735 1.362 . S
C2735 H2725 0.930 . S
C2735 C2728 1.409 . S
C2735 C2734 1.362 . S
H2736 C2742 0.930 . S
H2737 C2745 0.930 . S
H2738 C2746 0.930 . S
H2739 C2747 0.930 . S
H2740 C2750 0.930 . S
H2741 C2751 0.930 . S
C2742 H2736 0.930 . S
C2742 C2743 1.355 . S
C2742 C2744 1.415 . S
C2743 C2742 1.355 . S
C2743 C2745 1.419 . S
C2744 C2742 1.415 . S
C2744 C2749 1.425 . S
C2744 C2751 1.409 . S
C2745 H2737 0.930 . S
C2745 C2743 1.419 . S
C2745 C2746 1.362 . S
C2746 H2738 0.930 . S
C2746 C2745 1.362 . S
C2746 C2749 1.409 . S
C2747 H2739 0.930 . S
C2747 C2748 1.355 . S
C2747 C2749 1.415 . S
C2748 C2747 1.355 . S
C2748 C2750 1.419 . S
C2749 C2744 1.425 . S
C2749 C2746 1.409 . S
C2749 C2747 1.415 . S
C2750 H2740 0.930 . S
C2750 C2748 1.419 . S
C2750 C2751 1.362 . S
C2751 H2741 0.930 . S
C2751 C2744 1.409 . S
C2751 C2750 1.362 . S
H2752 C2758 0.930 . S
H2753 C2761 0.930 . S
H2754 C2762 0.930 . S
H2755 C2763 0.930 . S
H2756 C2766 0.930 . S
H2757 C2767 0.930 . S
C2758 H2752 0.930 . S
C2758 C2759 1.355 . S
C2758 C2760 1.415 . S
C2759 C2758 1.355 . S
C2759 C2761 1.419 . S
C2760 C2758 1.415 . S
C2760 C2765 1.425 . S
C2760 C2767 1.409 . S
C2761 H2753 0.930 . S
C2761 C2759 1.419 . S
C2761 C2762 1.362 . S
C2762 H2754 0.930 . S
C2762 C2761 1.362 . S
C2762 C2765 1.409 . S
C2763 H2755 0.930 . S
C2763 C2764 1.355 . S
C2763 C2765 1.415 . S
C2764 C2763 1.355 . S
C2764 C2766 1.419 . S
C2765 C2760 1.425 . S
C2765 C2762 1.409 . S
C2765 C2763 1.415 . S
C2766 H2756 0.930 . S
C2766 C2764 1.419 . S
C2766 C2767 1.362 . S
C2767 H2757 0.930 . S
C2767 C2760 1.409 . S
C2767 C2766 1.362 . S
H2768 C2774 0.930 . S
H2769 C2777 0.930 . S
H2770 C2778 0.930 . S
H2771 C2779 0.930 . S
H2772 C2782 0.930 . S
H2773 C2783 0.930 . S
C2774 H2768 0.930 . S
C2774 C2775 1.355 . S
C2774 C2776 1.415 . S
C2775 C2774 1.355 . S
C2775 C2777 1.419 . S
C2776 C2774 1.415 . S
C2776 C2781 1.425 . S
C2776 C2783 1.409 . S
C2777 H2769 0.930 . S
C2777 C2775 1.419 . S
C2777 C2778 1.362 . S
C2778 H2770 0.930 . S
C2778 C2777 1.362 . S
C2778 C2781 1.409 . S
C2779 H2771 0.930 . S
C2779 C2780 1.355 . S
C2779 C2781 1.415 . S
C2780 C2779 1.355 . S
C2780 C2782 1.419 . S
C2781 C2776 1.425 . S
C2781 C2778 1.409 . S
C2781 C2779 1.415 . S
C2782 H2772 0.930 . S
C2782 C2780 1.419 . S
C2782 C2783 1.362 . S
C2783 H2773 0.930 . S
C2783 C2776 1.409 . S
C2783 C2782 1.362 . S
H2784 C2790 0.930 . S
H2785 C2793 0.930 . S
H2786 C2794 0.930 . S
H2787 C2795 0.930 . S
H2788 C2798 0.930 . S
H2789 C2799 0.930 . S
C2790 H2784 0.930 . S
C2790 C2791 1.355 . S
C2790 C2792 1.415 . S
C2791 C2790 1.355 . S
C2791 C2793 1.419 . S
C2792 C2790 1.415 . S
C2792 C2797 1.425 . S
C2792 C2799 1.409 . S
C2793 H2785 0.930 . S
C2793 C2791 1.419 . S
C2793 C2794 1.362 . S
C2794 H2786 0.930 . S
C2794 C2793 1.362 . S
C2794 C2797 1.409 . S
C2795 H2787 0.930 . S
C2795 C2796 1.355 . S
C2795 C2797 1.415 . S
C2796 C2795 1.355 . S
C2796 C2798 1.419 . S
C2797 C2792 1.425 . S
C2797 C2794 1.409 . S
C2797 C2795 1.415 . S
C2798 H2788 0.930 . S
C2798 C2796 1.419 . S
C2798 C2799 1.362 . S
C2799 H2789 0.930 . S
C2799 C2792 1.409 . S
C2799 C2798 1.362 . S
H2800 C2806 0.930 . S
H2801 C2809 0.930 . S
H2802 C2810 0.930 . S
H2803 C2811 0.930 . S
H2804 C2814 0.930 . S
H2805 C2815 0.930 . S
C2806 H2800 0.930 . S
C2806 C2807 1.355 . S
C2806 C2808 1.415 . S
C2807 C2806 1.355 . S
C2807 C2809 1.419 . S
C2808 C2806 1.415 . S
C2808 C2813 1.425 . S
C2808 C2815 1.409 . S
C2809 H2801 0.930 . S
C2809 C2807 1.419 . S
C2809 C2810 1.362 . S
C2810 H2802 0.930 . S
C2810 C2809 1.362 . S
C2810 C2813 1.409 . S
C2811 H2803 0.930 . S
C2811 C2812 1.355 . S
C2811 C2813 1.415 . S
C2812 C2811 1.355 . S
C2812 C2814 1.419 . S
C2813 C2808 1.425 . S
C2813 C2810 1.409 . S
C2813 C2811 1.415 . S
C2814 H2804 0.930 . S
C2814 C2812 1.419 . S
C2814 C2815 1.362 . S
C2815 H2805 0.930 . S
C2815 C2808 1.409 . S
C2815 C2814 1.362 . S
H2816 C2822 0.930 . S
H2817 C2825 0.930 . S
H2818 C2826 0.930 . S
H2819 C2827 0.930 . S
H2820 C2830 0.930 . S
H2821 C2831 0.930 . S
C2822 H2816 0.930 . S
C2822 C2823 1.355 . S
C2822 C2824 1.415 . S
C2823 C2822 1.355 . S
C2823 C2825 1.419 . S
C2824 C2822 1.415 . S
C2824 C2829 1.425 . S
C2824 C2831 1.409 . S
C2825 H2817 0.930 . S
C2825 C2823 1.419 . S
C2825 C2826 1.362 . S
C2826 H2818 0.930 . S
C2826 C2825 1.362 . S
C2826 C2829 1.409 . S
C2827 H2819 0.930 . S
C2827 C2828 1.355 . S
C2827 C2829 1.415 . S
C2828 C2827 1.355 . S
C2828 C2830 1.419 . S
C2829 C2824 1.425 . S
C2829 C2826 1.409 . S
C2829 C2827 1.415 . S
C2830 H2820 0.930 . S
C2830 C2828 1.419 . S
C2830 C2831 1.362 . S
C2831 H2821 0.930 . S
C2831 C2824 1.409 . S
C2831 C2830 1.362 . S
H2832 C2838 0.930 . S
H2833 C2841 0.930 . S
H2834 C2842 0.930 . S
H2835 C2843 0.930 . S
H2836 C2846 0.930 . S
H2837 C2847 0.930 . S
C2838 H2832 0.930 . S
C2838 C2839 1.355 . S
C2838 C2840 1.415 . S
C2839 C2838 1.355 . S
C2839 C2841 1.419 . S
C2840 C2838 1.415 . S
C2840 C2845 1.425 . S
C2840 C2847 1.409 . S
C2841 H2833 0.930 . S
C2841 C2839 1.419 . S
C2841 C2842 1.362 . S
C2842 H2834 0.930 . S
C2842 C2841 1.362 . S
C2842 C2845 1.409 . S
C2843 H2835 0.930 . S
C2843 C2844 1.355 . S
C2843 C2845 1.415 . S
C2844 C2843 1.355 . S
C2844 C2846 1.419 . S
C2845 C2840 1.425 . S
C2845 C2842 1.409 . S
C2845 C2843 1.415 . S
C2846 H2836 0.930 . S
C2846 C2844 1.419 . S
C2846 C2847 1.362 . S
C2847 H2837 0.930 . S
C2847 C2840 1.409 . S
C2847 C2846 1.362 . S
H2848 C2854 0.930 . S
H2849 C2857 0.930 . S
H2850 C2858 0.930 . S
H2851 C2859 0.930 . S
H2852 C2862 0.930 . S
H2853 C2863 0.930 . S
C2854 H2848 0.930 . S
C2854 C2855 1.355 . S
C2854 C2856 1.415 . S
C2855 C2854 1.355 . S
C2855 C2857 1.419 . S
C2856 C2854 1.415 . S
C2856 C2861 1.425 . S
C2856 C2863 1.409 . S
C2857 H2849 0.930 . S
C2857 C2855 1.419 . S
C2857 C2858 1.362 . S
C2858 H2850 0.930 . S
C2858 C2857 1.362 . S
C2858 C2861 1.409 . S
C2859 H2851 0.930 . S
C2859 C2860 1.355 . S
C2859 C2861 1.415 . S
C2860 C2859 1.355 . S
C2860 C2862 1.419 . S
C2861 C2856 1.425 . S
C2861 C2858 1.409 . S
C2861 C2859 1.415 . S
C2862 H2852 0.930 . S
C2862 C2860 1.419 . S
C2862 C2863 1.362 . S
C2863 H2853 0.930 . S
C2863 C2856 1.409 . S
C2863 C2862 1.362 . S
H2864 C2870 0.930 . S
H2865 C2873 0.930 . S
H2866 C2874 0.930 . S
H2867 C2875 0.930 . S
H2868 C2878 0.930 . S
H2869 C2879 0.930 . S
C2870 H2864 0.930 . S
C2870 C2871 1.355 . S
C2870 C2872 1.415 . S
C2871 C2870 1.355 . S
C2871 C2873 1.419 . S
C2872 C2870 1.415 . S
C2872 C2877 1.425 . S
C2872 C2879 1.409 . S
C2873 H2865 0.930 . S
C2873 C2871 1.419 . S
C2873 C2874 1.362 . S
C2874 H2866 0.930 . S
C2874 C2873 1.362 . S
C2874 C2877 1.409 . S
C2875 H2867 0.930 . S
C2875 C2876 1.355 . S
C2875 C2877 1.415 . S
C2876 C2875 1.355 . S
C2876 C2878 1.419 . S
C2877 C2872 1.425 . S
C2877 C2874 1.409 . S
C2877 C2875 1.415 . S
C2878 H2868 0.930 . S
C2878 C2876 1.419 . S
C2878 C2879 1.362 . S
C2879 H2869 0.930 . S
C2879 C2872 1.409 . S
C2879 C2878 1.362 . S
H2880 C2886 0.930 . S
H2881 C2889 0.930 . S
H2882 C2890 0.930 . S
H2883 C2891 0.930 . S
H2884 C2894 0.930 . S
H2885 C2895 0.930 . S
C2886 H2880 0.930 . S
C2886 C2887 1.355 . S
C2886 C2888 1.415 . S
C2887 C2886 1.355 . S
C2887 C2889 1.419 . S
C2888 C2886 1.415 . S
C2888 C2893 1.425 . S
C2888 C2895 1.409 . S
C2889 H2881 0.930 . S
C2889 C2887 1.419 . S
C2889 C2890 1.362 . S
C2890 H2882 0.930 . S
C2890 C2889 1.362 . S
C2890 C2893 1.409 . S
C2891 H2883 0.930 . S
C2891 C2892 1.355 . S
C2891 C2893 1.415 . S
C2892 C2891 1.355 . S
C2892 C2894 1.419 . S
C2893 C2888 1.425 . S
C2893 C2890 1.409 . S
C2893 C2891 1.415 . S
C2894 H2884 0.930 . S
C2894 C2892 1.419 . S
C2894 C2895 1.362 . S
C2895 H2885 0.930 . S
C2895 C2888 1.409 . S
C2895 C2894 1.362 . S
H2896 C2902 0.930 . S
H2897 C2905 0.930 . S
H2898 C2906 0.930 . S
H2899 C2907 0.930 . S
H2900 C2910 0.930 . S
H2901 C2911 0.930 . S
C2902 H2896 0.930 . S
C2902 C2903 1.355 . S
C2902 C2904 1.415 . S
C2903 C2902 1.355 . S
C2903 C2905 1.419 . S
C2904 C2902 1.415 . S
C2904 C2909 1.425 . S
C2904 C2911 1.409 . S
C2905 H2897 0.930 . S
C2905 C2903 1.419 . S
C2905 C2906 1.362 . S
C2906 H2898 0.930 . S
C2906 C2905 1.362 . S
C2906 C2909 1.409 . S
C2907 H2899 0.930 . S
C2907 C2908 1.355 . S
C2907 C2909 1.415 . S
C2908 C2907 1.355 . S
C2908 C2910 1.419 . S
C2909 C2904 1.425 . S
C2909 C2906 1.409 . S
C2909 C2907 1.415 . S
C2910 H2900 0.930 . S
C2910 C2908 1.419 . S
C2910 C2911 1.362 . S
C2911 H2901 0.930 . S
C2911 C2904 1.409 . S
C2911 C2910 1.362 . S
H2912 C2918 0.930 . S
H2913 C2921 0.930 . S
H2914 C2922 0.930 . S
H2915 C2923 0.930 . S
H2916 C2926 0.930 . S
H2917 C2927 0.930 . S
C2918 H2912 0.930 . S
C2918 C2919 1.355 . S
C2918 C2920 1.415 . S
C2919 C2918 1.355 . S
C2919 C2921 1.419 . S
C2920 C2918 1.415 . S
C2920 C2925 1.425 . S
C2920 C2927 1.409 . S
C2921 H2913 0.930 . S
C2921 C2919 1.419 . S
C2921 C2922 1.362 . S
C2922 H2914 0.930 . S
C2922 C2921 1.362 . S
C2922 C2925 1.409 . S
C2923 H2915 0.930 . S
C2923 C2924 1.355 . S
C2923 C2925 1.415 . S
C2924 C2923 1.355 . S
C2924 C2926 1.419 . S
C2925 C2920 1.425 . S
C2925 C2922 1.409 . S
C2925 C2923 1.415 . S
C2926 H2916 0.930 . S
C2926 C2924 1.419 . S
C2926 C2927 1.362 . S
C2927 H2917 0.930 . S
C2927 C2920 1.409 . S
C2927 C2926 1.362 . S
H2928 C2934 0.930 . S
H2929 C2937 0.930 . S
H2930 C2938 0.930 . S
H2931 C2939 0.930 . S
H2932 C2942 0.930 . S
H2933 C2943 0.930 . S
C2934 H2928 0.930 . S
C2934 C2935 1.355 . S
C2934 C2936 1.415 . S
C2935 C2934 1.355 . S
C2935 C2937 1.419 . S
C2936 C2934 1.415 . S
C2936 C2941 1.425 . S
C2936 C2943 1.409 . S
C2937 H2929 0.930 . S
C2937 C2935 1.419 . S
C2937 C2938 1.362 . S
C2938 H2930 0.930 . S
C2938 C2937 1.362 . S
C2938 C2941 1.409 . S
C2939 H2931 0.930 . S
C2939 C2940 1.355 . S
C2939 C2941 1.415 . S
C2940 C2939 1.355 . S
C2940 C2942 1.419 . S
C2941 C2936 1.425 . S
C2941 C2938 1.409 . S
C2941 C2939 1.415 . S
C2942 H2932 0.930 . S
C2942 C2940 1.419 . S
C2942 C2943 1.362 . S
C2943 H2933 0.930 . S
C2943 C2936 1.409 . S
C2943 C2942 1.362 . S
H2944 C2950 0.930 . S
H2945 C2953 0.930 . S
H2946 C2954 0.930 . S
H2947 C2955 0.930 . S
H2948 C2958 0.930 . S
H2949 C2959 0.930 . S
C2950 H2944 0.930 . S
C2950 C2951 1.355 . S
C2950 C2952 1.415 . S
C2951 C2950 1.355 . S
C2951 C2953 1.419 . S
C2952 C2950 1.415 . S
C2952 C2957 1.425 . S
C2952 C2959 1.409 . S
C2953 H2945 0.930 . S
C2953 C2951 1.419 . S
C2953 C2954 1.362 . S
C2954 H2946 0.930 . S
C2954 C2953 1.362 . S
C2954 C2957 1.409 . S
C2955 H2947 0.930 . S
C2955 C2956 1.355 . S
C2955 C2957 1.415 . S
C2956 C2955 1.355 . S
C2956 C2958 1.419 . S
C2957 C2952 1.425 . S
C2957 C2954 1.409 . S
C2957 C2955 1.415 . S
C2958 H2948 0.930 . S
C2958 C2956 1.419 . S
C2958 C2959 1.362 . S
C2959 H2949 0.930 . S
C2959 C2952 1.409 . S
C2959 C2958 1.362 . S
H2960 C2966 0.930 . S
H2961 C2969 0.930 . S
H2962 C2970 0.930 . S
H2963 C2971 0.930 . S
H2964 C2974 0.930 . S
H2965 C2975 0.930 . S
C2966 H2960 0.930 . S
C2966 C2967 1.355 . S
C2966 C2968 1.415 . S
C2967 C2966 1.355 . S
C2967 C2969 1.419 . S
C2968 C2966 1.415 . S
C2968 C2973 1.425 . S
C2968 C2975 1.409 . S
C2969 H2961 0.930 . S
C2969 C2967 1.419 . S
C2969 C2970 1.362 . S
C2970 H2962 0.930 . S
C2970 C2969 1.362 . S
C2970 C2973 1.409 . S
C2971 H2963 0.930 . S
C2971 C2972 1.355 . S
C2971 C2973 1.415 . S
C2972 C2971 1.355 . S
C2972 C2974 1.419 . S
C2973 C2968 1.425 . S
C2973 C2970 1.409 . S
C2973 C2971 1.415 . S
C2974 H2964 0.930 . S
C2974 C2972 1.419 . S
C2974 C2975 1.362 . S
C2975 H2965 0.930 . S
C2975 C2968 1.409 . S
C2975 C2974 1.362 . S
H2976 C2982 0.930 . S
H2977 C2985 0.930 . S
H2978 C2986 0.930 . S
H2979 C2987 0.930 . S
H2980 C2990 0.930 . S
H2981 C2991 0.930 . S
C2982 H2976 0.930 . S
C2982 C2983 1.355 . S
C2982 C2984 1.415 . S
C2983 C2982 1.355 . S
C2983 C2985 1.419 . S
C2984 C2982 1.415 . S
C2984 C2989 1.425 . S
C2984 C2991 1.409 . S
C2985 H2977 0.930 . S
C2985 C2983 1.419 . S
C2985 C2986 1.362 . S
C2986 H2978 0.930 . S
C2986 C2985 1.362 . S
C2986 C2989 1.409 . S
C2987 H2979 0.930 . S
C2987 C2988 1.355 . S
C2987 C2989 1.415 . S
C2988 C2987 1.355 . S
C2988 C2990 1.419 . S
C2989 C2984 1.425 . S
C2989 C2986 1.409 . S
C2989 C2987 1.415 . S
C2990 H2980 0.930 . S
C2990 C2988 1.419 . S
C2990 C2991 1.362 . S
C2991 H2981 0.930 . S
C2991 C2984 1.409 . S
C2991 C2990 1.362 . S
H2992 C2998 0.930 . S
H2993 C3001 0.930 . S
H2994 C3002 0.930 . S
H2995 C3003 0.930 . S
H2996 C3006 0.930 . S
H2997 C3007 0.930 . S
C2998 H2992 0.930 . S
C2998 C2999 1.355 . S
C2998 C3000 1.415 . S
C2999 C2998 1.355 . S
C2999 C3001 1.419 . S
C3000 C2998 1.415 . S
C3000 C3005 1.425 . S
C3000 C3007 1.409 . S
C3001 H2993 0.930 . S
C3001 C2999 1.419 . S
C3001 C3002 1.362 . S
C3002 H2994 0.930 . S
C3002 C3001 1.362 . S
C3002 C3005 1.409 . S
C3003 H2995 0.930 . S
C3003 C3004 1.355 . S
C3003 C3005 1.415 . S
C3004 C3003 1.355 . S
C3004 C3006 1.419 . S
C3005 C3000 1.425 . S
C3005 C3002 1.409 . S
C3005 C3003 1.415 . S
C3006 H2996 0.930 . S
C3006 C3004 1.419 . S
C3006 C3007 1.362 . S
C3007 H2997 0.930 . S
C3007 C3000 1.409 . S
C3007 C3006 1.362 . S
H3008 C3014 0.930 . S
H3009 C3017 0.930 . S
H3010 C3018 0.930 . S
H3011 C3019 0.930 . S
H3012 C3022 0.930 . S
H3013 C3023 0.930 . S
C3014 H3008 0.930 . S
C3014 C3015 1.355 . S
C3014 C3016 1.415 . S
C3015 C3014 1.355 . S
C3015 C3017 1.419 . S
C3016 C3014 1.415 . S
C3016 C3021 1.425 . S
C3016 C3023 1.409 . S
C3017 H3009 0.930 . S
C3017 C3015 1.419 . S
C3017 C3018 1.362 . S
C3018 H3010 0.930 . S
C3018 C3017 1.362 . S
C3018 C3021 1.409 . S
C3019 H3011 0.930 . S
C3019 C3020 1.355 . S
C3019 C3021 1.415 . S
C3020 C3019 1.355 . S
C3020 C3022 1.419 . S
C3021 C3016 1.425 . S
C3021 C3018 1.409 . S
C3021 C3019 1.415 . S
C3022 H3012 0.930 . S
C3022 C3020 1.419 . S
C3022 C3023 1.362 . S
C3023 H3013 0.930 . S
C3023 C3016 1.409 . S
C3023 C3022 1.362 . S
H3024 C3030 0.930 . S
H3025 C3033 0.930 . S
H3026 C3034 0.930 . S
H3027 C3035 0.930 . S
H3028 C3038 0.930 . S
H3029 C3039 0.930 . S
C3030 H3024 0.930 . S
C3030 C3031 1.355 . S
C3030 C3032 1.415 . S
C3031 C3030 1.355 . S
C3031 C3033 1.419 . S
C3032 C3030 1.415 . S
C3032 C3037 1.425 . S
C3032 C3039 1.409 . S
C3033 H3025 0.930 . S
C3033 C3031 1.419 . S
C3033 C3034 1.362 . S
C3034 H3026 0.930 . S
C3034 C3033 1.362 . S
C3034 C3037 1.409 . S
C3035 H3027 0.930 . S
C3035 C3036 1.355 . S
C3035 C3037 1.415 . S
C3036 C3035 1.355 . S
C3036 C3038 1.419 . S
C3037 C3032 1.425 . S
C3037 C3034 1.409 . S
C3037 C3035 1.415 . S
C3038 H3028 0.930 . S
C3038 C3036 1.419 . S
C3038 C3039 1.362 . S
C3039 H3029 0.930 . S
C3039 C3032 1.409 . S
C3039 C3038 1.362 . S
C1516 C397 1.981 . S
C1511 C7 1.905 . S
C1532 C445 1.339 . S
C1527 C19 1.323 . S
C1543 C29 1.784 . S
C1548 C469 1.830 . S
C1564 C532 1.212 . S
C1559 C41 1.244 . S
C1575 C52 1.407 . S
C1580 C526 1.424 . S
C1591 C62 1.607 . S
C1596 C373 1.644 . S
C1607 C73 1.153 . S
C1612 C421 1.228 . S
C1628 C493 1.792 . S
C1623 C82 1.582 . S
C1644 C565 1.824 . S
C1639 C5 1.657 . S
C1655 C16 1.396 . S
C1660 C613 1.588 . S
C1671 C30 1.776 . S
C1676 C676 1.775 1_655 S
C1692 C733 1.281 . S
C1687 C40 1.312 . S
C1703 C49 1.203 . S
C1708 C757 1.401 . S
C1724 C814 1.460 . S
C1719 C63 1.513 . S
C1735 C74 1.213 . S
C1740 C862 1.268 . S
C1756 C916 1.588 . S
C1751 C85 1.573 . S
C1767 C8 1.636 . S
C1772 C709 1.623 . S
C1783 C51 1.542 . S
C1788 C820 1.612 . S
C1804 C868 1.827 . S
C1799 C60 1.674 . S
C1815 C71 1.008 . S
C1820 C910 1.340 . S
C1836 C781 2.044 . S
C1831 C84 1.984 . S
C1852 C637 1.550 . S
C1847 C27 1.309 . S
C1863 C38 1.206 . S
C1868 C670 1.390 . S
C1884 C589 1.647 . S
C1879 C18 1.597 . S
C1900 C964 1.992 . S
C1895 C95 1.911 . S
C1911 C107 1.331 . S
C1916 C1021 1.345 . S
C1927 C117 1.786 . S
C1932 C1045 1.830 . S
C1948 C1108 1.242 . S
C1943 C129 1.261 . S
C1959 C140 1.406 . S
C1964 C1102 1.424 . S
C1975 C150 1.544 . S
C1980 C958 1.626 . S
C1991 C161 1.094 . S
C1996 C997 1.209 . S
C2007 C170 1.611 . S
C2012 C1069 1.789 . S
C2028 C766 1.837 . S
C2023 C93 1.552 . S
C2039 C104 1.373 . S
C2044 C1150 1.592 . S
C2060 C853 1.725 1_655 S
C2055 C118 1.758 . S
C2071 C128 1.305 . S
C2076 C1204 1.276 . S
C2087 C137 1.164 . S
C2092 C574 1.407 . S
C2108 C1246 1.489 . S
C2103 C151 1.503 . S
C2119 C162 1.285 . S
C2124 C685 1.296 . S
C2140 C1300 1.580 . S
C2135 C173 1.596 . S
C2151 C96 1.622 . S
C2156 C1198 1.637 . S
C2172 C1252 1.607 . S
C2167 C139 1.522 . S
C2183 C148 1.591 . S
C2188 C661 1.791 . S
C2204 C1294 1.381 . S
C2199 C159 1.103 . S
C2215 C172 1.960 . S
C2220 C580 2.048 . S
C2231 C115 1.327 . S
C2236 C1156 1.523 . S
C2247 C126 1.199 . S
C2252 C877 1.331 . S
C2263 C106 1.573 . S
C2268 C772 1.668 . S
C2279 C183 1.864 . S
C2284 C1054 1.990 . S
C2300 C1117 1.331 . S
C2295 C195 1.344 . S
C2311 C205 1.808 . S
C2316 C973 1.795 . S
C2327 C217 1.243 . S
C2332 C1012 1.212 . S
C2343 C228 1.416 . S
C2348 C1006 1.408 . S
C2359 C238 1.569 . S
C2364 C1060 1.643 . S
C2380 C1093 1.215 . S
C2375 C249 1.094 . S
C2391 C258 1.585 . S
C2396 C949 1.784 . S
C2412 C1333 1.835 . S
C2407 C181 1.555 . S
C2423 C192 1.317 . S
C2428 C805 1.577 . S
C2444 C1396 1.789 . S
C2439 C206 1.790 . S
C2455 C216 1.304 . S
C2460 C925 1.301 . S
C2471 C225 1.155 . S
C2476 C1438 1.397 . S
C2487 C239 1.539 . S
C2492 C622 1.505 . S
C2508 C1501 1.267 . S
C2503 C250 1.240 . S
C2519 C261 1.593 . S
C2524 C724 1.581 . S
C2540 C901 1.631 . S
C2535 C184 1.606 . S
C2556 C628 1.611 . S
C2551 C227 1.543 . S
C2567 C236 1.574 . S
C2572 C1477 1.813 . S
C2583 C247 1.073 . S
C2588 C718 1.375 . S
C2604 C1444 2.046 . S
C2599 C260 1.929 . S
C2620 C829 1.535 . S
C2615 C203 1.387 . S
C2636 C1390 1.390 . S
C2631 C214 1.210 . S
C2652 C1357 1.645 . S
C2647 C194 1.614 . S
C2663 C271 1.919 . S
C2668 C478 1.993 . S
C2679 C283 1.332 . S
C2684 C541 1.317 . S
C2700 C388 1.827 . S
C2695 C293 1.798 . S
C2716 C436 1.227 . S
C2711 C305 1.249 . S
C2732 C430 1.409 . S
C2727 C316 1.422 . S
C2748 C484 1.639 . S
C2743 C326 1.612 . S
C2764 C517 1.216 . S
C2759 C337 1.190 . S
C2775 C346 1.591 . S
C2780 C382 1.790 . S
C2791 C269 1.606 . S
C2796 C1429 1.827 . S
C2812 C1237 1.580 . S
C2807 C280 1.353 . S
C2828 C1492 1.789 . S
C2823 C294 1.797 . S
C2844 C1309 1.318 . S
C2839 C304 1.310 . S
C2855 C313 1.157 . S
C2860 C1342 1.396 . S
C2876 C1141 1.526 . S
C2871 C327 1.540 . S
C2892 C1405 1.196 . S
C2887 C338 1.227 . S
C2903 C349 1.580 . S
C2908 C1213 1.576 . S
C2924 C1285 1.630 . S
C2919 C272 1.631 . S
C2940 C1165 1.608 . S
C2935 C315 1.556 . S
C2956 C1381 1.791 . S
C2951 C324 1.608 . S
C2967 C335 1.019 . S
C2972 C1189 1.340 . S
C2983 C348 1.984 . S
C2988 C1348 2.058 . S
C2999 C291 1.280 . S
C3004 C1261 1.545 . S
C3015 C302 1.287 . S
C3020 C1486 1.399 . S
C3036 C1453 1.670 . S
C3031 C282 1.571 . S
