# Generated by pormake.
# Topology zzz, (3,6)-cn, num edge types: 1
# Building blocks:
#     Node 0, Type 0, BuildingBlock: QEWDON_clean_linker_0, # of connection points: 3
#     Node 1, Type 0, BuildingBlock: QEWDON_clean_linker_0, # of connection points: 3
#     Node 2, Type 0, BuildingBlock: QEWDON_clean_linker_0, # of connection points: 3
#     Node 3, Type 0, BuildingBlock: QEWDON_clean_linker_0, # of connection points: 3
#     Node 4, Type 0, BuildingBlock: QEWDON_clean_linker_0, # of connection points: 3
#     Node 5, Type 0, BuildingBlock: QEWDON_clean_linker_0, # of connection points: 3
#     Node 6, Type 0, BuildingBlock: QEWDON_clean_linker_0, # of connection points: 3
#     Node 7, Type 0, BuildingBlock: QEWDON_clean_linker_0, # of connection points: 3
#     Node 8, Type 1, BuildingBlock: BETDAH_clean_sbu_0, # of connection points: 6
#     Node 9, Type 1, BuildingBlock: BETDAH_clean_sbu_0, # of connection points: 6
#     Node 10, Type 1, BuildingBlock: BETDAH_clean_sbu_0, # of connection points: 6
#     Node 11, Type 1, BuildingBlock: BETDAH_clean_sbu_0, # of connection points: 6
#     Edge 12, Type (0, 1), None
#     Edge 13, Type (0, 1), None
#     Edge 14, Type (0, 1), None
#     Edge 15, Type (0, 1), None
#     Edge 16, Type (0, 1), None
#     Edge 17, Type (0, 1), None
#     Edge 18, Type (0, 1), None
#     Edge 19, Type (0, 1), None
#     Edge 20, Type (0, 1), None
#     Edge 21, Type (0, 1), None
#     Edge 22, Type (0, 1), None
#     Edge 23, Type (0, 1), None
#     Edge 24, Type (0, 1), None
#     Edge 25, Type (0, 1), None
#     Edge 26, Type (0, 1), None
#     Edge 27, Type (0, 1), None
#     Edge 28, Type (0, 1), None
#     Edge 29, Type (0, 1), None
#     Edge 30, Type (0, 1), None
#     Edge 31, Type (0, 1), None
#     Edge 32, Type (0, 1), None
#     Edge 33, Type (0, 1), None
#     Edge 34, Type (0, 1), None
#     Edge 35, Type (0, 1), None
# Relax obj value: 0.446
# Max RMSD: 0.224
# Mean RMSD: 0.112
data_MOF--net-zzz--node1-BETDAH_clean_sbu_0--node2-QEWDON_clean_linker_0--edge1-none
_symmetry_space_group_name_H-M    P1
_symmetry_Int_Tables_number       1
_symmetry_cell_setting            triclinic
loop_
_symmetry_equiv_pos_as_xyz
'x, y, z'
_cell_length_a     27.016448
_cell_length_b     26.984559
_cell_length_c     7.8622221
_cell_angle_alpha  89.405342
_cell_angle_beta   89.750035
_cell_angle_gamma 90.136567
loop_
_atom_site_label
_atom_site_type_symbol
_atom_site_fract_x
_atom_site_fract_y
_atom_site_fract_z
_atom_type_partial_charge
H0 H 0.7113 0.49514 0.5715 0.0
C1 C 0.74902 0.49753 0.61645 0.0
C2 C 0.78677 0.47383 0.52443 0.0
C3 C 0.761 0.5253 0.76369 0.0
H4 H 0.8649 0.45895 0.51284 0.0
C5 C 0.83563 0.47838 0.57845 0.0
C6 C 0.84871 0.51213 0.6999 0.0
C7 C 0.81173 0.53382 0.79947 0.0
C8 C 0.72144 0.54617 0.87709 0.0
H9 H 0.823 0.55671 0.90436 0.0
C10 C 0.67447 0.52329 0.89097 0.0
C11 C 0.63676 0.54399 -0.00742 0.0
C12 C 0.73016 0.58922 -0.02677 0.0
H13 H 0.76468 0.60939 -0.03593 0.0
C14 C 0.69375 0.60811 0.08085 0.0
H15 H 0.66647 0.49038 0.81839 0.0
C16 C 0.64718 0.58601 0.08949 0.0
H17 H 0.61863 0.60282 0.16693 0.0
H18 H 0.70116 0.64114 0.15352 0.0
H19 H 0.051 0.71902 0.56463 0.0
C20 C 0.05065 0.75583 0.6182 0.0
C21 C 0.07743 0.79373 0.53531 0.0
C22 C 0.02223 0.76647 0.76614 0.0
H23 H 0.09613 0.87128 0.53867 0.0
C24 C 0.07495 0.84176 0.59839 0.0
C25 C 0.03982 0.85446 0.71704 0.0
C26 C 1.01562 0.81693 0.81026 0.0
C27 C 0.99845 0.72553 0.8689 0.0
H28 H 0.99197 0.82747 0.915 0.0
C29 C 1.01917 0.67759 0.87122 0.0
C30 C 0.99591 0.63798 -0.04092 0.0
C31 C 0.95488 0.73345 -0.03566 0.0
H32 H 0.93662 0.76904 -0.03527 0.0
C33 C 0.93301 0.6948 0.05792 0.0
H34 H 0.05296 0.67057 0.8012 0.0
C35 C 0.953 0.64719 0.05401 0.0
H36 H 0.93423 0.61729 0.12127 0.0
H37 H 0.89946 0.70149 0.12981 0.0
H38 H 0.8264 0.03984 0.55207 0.0
C39 C 0.78962 0.03685 0.60665 0.0
C40 C 0.74973 0.05918 0.52157 0.0
C41 C 0.7811 1.00975 0.76004 0.0
H42 H 0.67159 0.07195 0.52182 0.0
C43 C 0.70209 0.05458 0.58858 0.0
C44 C 0.69215 0.02395 0.72679 0.0
C45 C 0.73156 1.00178 0.81363 0.0
C46 C 0.82315 0.98993 0.8643 0.0
H47 H 0.72328 0.97972 0.92577 0.0
C48 C 0.86912 1.01477 0.86738 0.0
C49 C 0.90925 0.99565 -0.03834 0.0
C50 C 0.81773 0.94633 -0.03666 0.0
H51 H 0.78374 0.92508 -0.03745 0.0
C52 C 0.85672 0.92856 0.06266 0.0
H53 H 0.87422 0.04838 0.79287 0.0
C54 C 0.90237 0.95276 0.06099 0.0
H55 H 0.9328 0.93715 0.13304 0.0
H56 H 0.85194 0.89499 0.1376 0.0
H57 H 0.50507 0.83194 0.55907 0.0
C58 C 0.50967 0.79452 0.60729 0.0
C59 C 0.48979 0.75462 0.51569 0.0
C60 C 0.53641 0.78504 0.75966 0.0
H61 H 0.47973 0.67594 0.50709 0.0
C62 C 0.49577 0.70638 0.57709 0.0
C63 C 0.52545 0.69607 0.71561 0.0
C64 C 0.54603 0.73518 0.80622 0.0
C65 C 0.55388 0.82591 0.87279 0.0
H66 H 0.56766 0.72618 0.91754 0.0
C67 C 0.52742 0.8708 0.8863 0.0
C68 C 0.54417 0.90877 -0.00575 0.0
C69 C 0.59677 0.81974 -0.02714 0.0
H70 H 0.6196 0.78703 -0.03689 0.0
C71 C 0.6117 0.85617 0.0862 0.0
H72 H 0.49491 0.87701 0.80898 0.0
C73 C 0.58579 0.90051 0.0965 0.0
H74 H 0.59959 0.9294 0.17865 0.0
H75 H 0.64455 0.85064 0.16239 0.0
H76 H 0.25586 0.6027 0.0072 0.0
C77 C 0.22848 0.57374 -0.00982 0.0
C78 C 0.19074 0.56737 0.10982 0.0
C79 C 0.22945 0.54401 0.8447 0.0
H80 H 0.12601 0.52623 0.18188 0.0
C81 C 0.15531 0.53004 0.08817 0.0
C82 C 0.15029 0.50642 0.9331 0.0
C83 C 0.18897 0.51192 0.81182 0.0
C84 C 0.27031 0.55159 0.72108 0.0
H85 H 0.18641 0.49368 0.69006 0.0
C86 C 0.31345 0.52279 0.73215 0.0
C87 C 0.35604 0.53586 0.63653 0.0
C88 C 0.27026 0.59345 0.61398 0.0
H89 H 0.23964 0.61922 0.6168 0.0
C90 C 0.30975 0.60264 0.50321 0.0
H91 H 0.31543 0.49369 0.82802 0.0
C92 C 0.35251 0.57391 0.51364 0.0
H93 H 0.38433 0.58465 0.43745 0.0
H94 H 0.30837 0.634 0.41658 0.0
H95 H 0.93472 0.25904 0.01308 0.0
C96 C 0.96506 0.23334 -0.00469 0.0
C97 C 0.97382 0.19668 0.11729 0.0
C98 C 0.99397 0.23524 0.84643 0.0
H99 H 1.01906 0.13521 0.19115 0.0
C100 C 1.01304 0.16352 0.09488 0.0
C101 C 0.03545 0.15835 0.93653 0.0
C102 C 0.02761 0.19615 0.81269 0.0
C103 C 0.98331 0.27532 0.72174 0.0
H104 H 0.0451 0.19376 0.68882 0.0
C105 C 1.01117 0.3194 0.72253 0.0
C106 C 0.99361 0.36267 0.63906 0.0
C107 C 0.93864 0.27433 0.63188 0.0
H108 H 0.91461 0.24218 0.63983 0.0
C109 C 0.92371 0.31517 0.53539 0.0
H110 H 0.04341 0.3214 0.80382 0.0
C111 C 0.95074 0.35931 0.53947 0.0
H112 H 0.93577 0.39185 0.47729 0.0
H113 H 0.88918 0.3134 0.46722 0.0
H114 H 0.29128 0.93097 0.05325 0.0
C115 C 0.31583 0.96238 0.03378 0.0
C116 C 0.35388 0.97122 0.14955 0.0
C117 C 0.31075 0.99328 0.88941 0.0
H118 H 0.416 1.01687 0.21242 0.0
C119 C 0.38586 1.01153 0.12377 0.0
C120 C 0.38663 0.03731 -0.03023 0.0
C121 C 0.34738 0.02963 0.85429 0.0
C122 C 0.27052 0.98287 0.76702 0.0
H123 H 0.3472 0.04908 0.73302 0.0
C124 C 0.22816 1.01305 0.75976 0.0
C125 C 0.18608 0.99829 0.66561 0.0
C126 C 0.27137 0.93879 0.67437 0.0
H127 H 0.30265 0.91387 0.68396 0.0
C128 C 0.23188 0.92626 0.56956 0.0
H129 H 0.2264 0.04536 0.8403 0.0
C130 C 0.18936 0.95559 0.56552 0.0
H131 H 0.15771 0.94284 0.4946 0.0
H132 H 0.23335 0.89221 0.49865 0.0
H133 H 0.6084 0.29422 0.04463 0.0
C134 C 0.57767 0.31949 0.02707 0.0
C135 C 0.57006 0.35785 0.1425 0.0
C136 C 0.5462 0.31497 0.88575 0.0
H137 H 0.52652 0.42134 0.20637 0.0
C138 C 0.53068 0.39081 0.11878 0.0
C139 C 0.50418 0.39164 -0.03226 0.0
C140 C 0.51052 0.35211 0.85325 0.0
C141 C 0.55468 0.27466 0.7627 0.0
H142 H 0.49054 0.3521 0.73401 0.0
C143 C 0.52359 0.23284 0.76122 0.0
C144 C 0.53499 0.19191 0.65737 0.0
C145 C 0.59668 0.27574 0.65741 0.0
H146 H 0.6227 0.30624 0.66387 0.0
C147 C 0.60495 0.238 0.54071 0.0
H148 H 0.49343 0.23041 0.85237 0.0
C149 C 0.57429 0.19628 0.54005 0.0
H150 H 0.58398 0.16574 0.45809 0.0
H151 H 0.63664 0.24001 0.45627 0.0
Ho152 Ho 0.07244 0.99309 -0.04368 0.0
Ho153 Ho 1.02109 1.02015 0.66049 0.0
C154 C 0.03128 0.90755 0.74074 0.0
C155 C 0.11904 0.93612 0.16534 0.0
C156 C 0.11242 0.88277 0.20416 0.0
C157 C 0.06602 0.85945 0.18927 0.0
C158 C 0.05945 0.81069 0.24746 0.0
C159 C 0.09523 0.79091 0.35785 0.0
C160 C 0.14437 0.80714 0.33241 0.0
C161 C 0.15286 0.85395 0.25747 0.0
C162 C 0.13659 1.01904 0.70755 0.0
C163 C 0.05338 0.10756 0.89449 0.0
C164 C 0.9683 0.04142 0.40021 0.0
C165 C 0.93965 0.08759 0.38444 0.0
C166 C 0.90807 0.096 0.24681 0.0
C167 C 0.90398 0.1441 0.17969 0.0
C168 C 0.9359 0.1811 0.24147 0.0
C169 C 0.95347 0.17555 0.40769 0.0
C170 C 0.95491 0.12836 0.48062 0.0
C171 C 0.95971 1.01543 0.93449 0.0
O172 O 0.02984 0.92482 0.89397 0.0
O173 O 0.03541 0.93935 0.61342 0.0
O174 O 0.13399 0.94495 0.01061 0.0
O175 O 0.08438 0.96705 0.21547 0.0
O176 O 0.13319 0.04075 0.85272 0.0
O177 O 0.09809 0.99263 0.6877 0.0
O178 O 0.0531 0.09403 0.73376 0.0
O179 O 0.0549 0.07273 0.01638 0.0
O180 O 0.95318 1.01046 0.51775 0.0
O181 O 1.01645 0.04808 0.40277 0.0
O182 O 0.9655 0.05393 0.83854 0.0
O183 O 0.99328 0.98533 0.8976 0.0
H184 H 0.03375 0.87978 0.14974 0.0
H185 H 0.02194 0.79631 0.25182 0.0
H186 H 0.17419 0.78969 0.40222 0.0
H187 H 0.18982 0.86943 0.2567 0.0
H188 H 0.89153 0.06548 0.18068 0.0
H189 H 0.88675 0.1486 0.05628 0.0
H190 H 0.97857 0.20287 0.4578 0.0
H191 H 0.97657 0.12301 0.59399 0.0
Ho192 Ho 0.55042 0.07255 0.91945 0.0
Ho193 Ho 0.52334 0.02372 0.70713 0.0
C194 C 0.64047 1.01572 0.77988 0.0
C195 C 0.61364 0.11437 0.12337 0.0
C196 C 0.66541 0.10499 0.1724 0.0
C197 C 0.68632 0.05784 0.1543 0.0
C198 C 0.73196 0.04681 0.22885 0.0
C199 C 0.75174 0.07994 0.34752 0.0
C200 C 0.73752 0.13002 0.33391 0.0
C201 C 0.69345 0.14232 0.24955 0.0
C202 C 0.51661 0.14189 0.70607 0.0
C203 C 0.43542 0.05755 0.91488 0.0
C204 C 0.50827 0.9666 0.45093 0.0
C205 C 0.46183 0.93801 0.43199 0.0
C206 C 0.45492 0.90579 0.29608 0.0
C207 C 0.40818 0.90282 0.21985 0.0
C208 C 0.37019 0.93437 0.27674 0.0
C209 C 0.37359 0.95243 0.44262 0.0
C210 C 0.41973 0.95408 0.5209 0.0
C211 C 0.52594 0.95992 -0.02553 0.0
O212 O 0.60432 0.0431 0.72124 0.0
O213 O 0.60518 0.04413 0.71466 0.0
O214 O 0.60712 0.12774 -0.03343 0.0
O215 O 0.58069 0.08181 0.17284 0.0
O216 O 0.50082 0.13598 0.86068 0.0
O217 O 0.54103 0.10399 0.66102 0.0
O218 O 0.44764 0.05379 0.75549 0.0
O219 O 0.47271 0.06032 0.02281 0.0
O220 O 0.53655 0.95394 0.57664 0.0
O221 O 0.50246 1.01451 0.4434 0.0
O222 O 0.48674 0.96913 0.88672 0.0
O223 O 0.55808 0.99187 0.93909 0.0
H224 H 0.66525 0.02821 0.09838 0.0
H225 H 0.74363 1.0084 0.23079 0.0
H226 H 0.75382 0.1572 0.41739 0.0
H227 H 0.67893 0.17955 0.25957 0.0
H228 H 0.48598 0.88736 0.23929 0.0
H229 H 0.4055 0.88537 0.09669 0.0
H230 H 0.34515 0.97673 0.49053 0.0
H231 H 0.42342 0.97558 0.63451 0.0
Ho232 Ho 0.47352 0.55615 0.91306 0.0
Ho233 Ho 0.5233 0.52737 0.70226 0.0
C234 C 0.53339 0.64432 0.76802 0.0
C235 C 0.43198 0.62078 0.11353 0.0
C236 C 0.44209 0.6723 0.1648 0.0
C237 C 0.4894 0.69292 0.14484 0.0
C238 C 0.50117 0.73814 0.22079 0.0
C239 C 0.46865 0.75759 0.34314 0.0
C240 C 0.41847 0.74361 0.33307 0.0
C241 C 0.40541 0.70017 0.24682 0.0
C242 C 0.40552 0.52103 0.6989 0.0
C243 C 0.48515 0.44064 0.9117 0.0
C244 C 0.58192 0.51124 0.44828 0.0
C245 C 0.60857 0.46381 0.42879 0.0
C246 C 0.58985 0.42223 0.51638 0.0
C247 C 0.58824 0.3767 0.43501 0.0
C248 C 0.60691 0.3729 0.26926 0.0
C249 C 0.64067 0.40947 0.21279 0.0
C250 C 0.64057 0.45586 0.29167 0.0
C251 C 0.5848 0.52831 -0.02763 0.0
O252 O 0.50532 0.60856 0.71172 0.0
O253 O 0.5044 0.60939 0.70542 0.0
O254 O 0.42023 0.61488 -0.04445 0.0
O255 O 0.46305 0.58692 0.16513 0.0
O256 O 0.40916 0.50758 0.85685 0.0
O257 O 0.4437 0.54553 0.65409 0.0
O258 O 0.49054 0.45259 0.75207 0.0
O259 O 0.4827 0.47809 0.01871 0.0
O260 O 0.59468 0.53829 0.576 0.0
O261 O 0.53394 0.50727 0.43836 0.0
O262 O 0.57449 0.48919 0.88644 0.0
O263 O 0.55447 0.56164 0.93426 0.0
H264 H 0.51855 0.67175 0.08624 0.0
H265 H 0.53972 0.7494 0.22068 0.0
H266 H 0.39172 0.75958 0.41956 0.0
H267 H 0.36806 0.68593 0.2587 0.0
H268 H 0.56834 0.42659 0.63062 0.0
H269 H 0.56133 0.35 0.48094 0.0
H270 H 0.65819 0.40643 0.0891 0.0
H271 H 0.66108 0.48619 0.23623 0.0
Ho272 Ho 0.98389 0.47456 -0.05705 0.0
Ho273 Ho 1.0142 0.52752 0.65199 0.0
C274 C 0.90172 0.5207 0.72439 0.0
C275 C 0.92377 0.42712 0.14241 0.0
C276 C 0.87092 0.43475 0.18537 0.0
C277 C 0.84841 0.48141 0.16729 0.0
C278 C 0.80071 0.48938 0.23181 0.0
C279 C 0.78163 0.45478 0.3499 0.0
C280 C 0.79665 0.4052 0.32992 0.0
C281 C 0.84205 0.39529 0.24899 0.0
C282 C 1.01149 0.41199 0.69443 0.0
C283 C 0.09927 0.48993 0.88855 0.0
C284 C 0.03763 0.58219 0.39555 0.0
C285 C 0.08514 0.60871 0.38119 0.0
C286 C 0.09537 0.64 0.24263 0.0
C287 C 0.14317 0.64035 0.1728 0.0
C288 C 0.17774 0.60551 0.23394 0.0
C289 C 0.17131 0.58729 0.39985 0.0
C290 C 0.12493 0.59013 0.47612 0.0
C291 C 1.01212 0.58648 0.92968 0.0
O292 O 0.91894 0.52172 0.87802 0.0
O293 O 0.93354 0.5156 0.59906 0.0
O294 O 0.93138 0.41541 -0.01561 0.0
O295 O 0.95638 0.45941 0.1987 0.0
O296 O 0.03073 0.41339 0.84429 0.0
O297 O 0.98527 0.45061 0.6732 0.0
O298 O 0.08635 0.49222 0.72706 0.0
O299 O 0.06405 0.4885 0.00864 0.0
O300 O 1.0079 0.59748 0.5148 0.0
O301 O 0.04179 0.53372 0.39456 0.0
O302 O 0.05045 0.57939 0.83551 0.0
O303 O 0.98015 0.55486 0.88944 0.0
H304 H 0.86893 0.51294 0.1208 0.0
H305 H 0.7874 0.52724 0.23346 0.0
H306 H 0.77959 0.37618 0.40635 0.0
H307 H 0.85654 0.35802 0.25034 0.0
H308 H 0.06594 0.65909 0.1778 0.0
H309 H 0.14841 0.65756 0.04885 0.0
H310 H 0.196 0.55905 0.44769 0.0
H311 H 0.11835 0.5685 0.58994 0.0
loop_
_geom_bond_atom_site_label_1
_geom_bond_atom_site_label_2
_geom_bond_distance
_geom_bond_site_symmetry_2
_ccdc_geom_bond_type
H0 C1 0.949 . S
C1 H0 0.949 . S
C1 C2 1.395 . S
C1 C3 1.391 . S
C2 C1 1.395 . S
C2 C5 1.390 . S
C3 C1 1.391 . S
C3 C7 1.387 . S
C3 C8 1.491 . S
H4 C5 0.950 . S
C5 C2 1.390 . S
C5 H4 0.950 . S
C5 C6 1.378 . S
C6 C5 1.378 . S
C6 C7 1.409 . S
C7 C3 1.387 . S
C7 C6 1.409 . S
C7 H9 0.951 1_556 S
C8 C3 1.491 . S
C8 C10 1.382 . S
C8 C12 1.404 . S
H9 C7 0.951 1_554 S
C10 C8 1.382 . S
C10 C11 1.390 . S
C10 H15 0.949 . S
C11 C10 1.390 . S
C11 C16 1.399 . S
C12 C8 1.404 . S
C12 H13 0.950 . S
C12 C14 1.375 . S
H13 C12 0.950 . S
C14 C12 1.375 . S
C14 C16 1.382 . S
C14 H18 0.950 . S
H15 C10 0.949 . S
C16 C11 1.399 . S
C16 C14 1.382 . S
C16 H17 0.952 . S
H17 C16 0.952 . S
H18 C14 0.950 . S
H19 C20 0.949 . S
C20 H19 0.949 . S
C20 C21 1.395 . S
C20 C22 1.391 . S
C21 C20 1.395 . S
C21 C24 1.390 1_655 S
C22 C20 1.391 . S
C22 C26 1.387 . S
C22 C27 1.491 . S
H23 C24 0.950 . S
C24 C21 1.390 1_455 S
C24 H23 0.950 . S
C24 C25 1.377 1_455 S
C25 C24 1.377 1_655 S
C25 C26 1.413 . S
C26 C22 1.387 . S
C26 C25 1.413 . S
C26 H28 0.951 1_556 S
C27 C22 1.491 . S
C27 C29 1.382 . S
C27 C31 1.404 . S
H28 C26 0.951 1_554 S
C29 C27 1.382 . S
C29 C30 1.390 . S
C29 H34 0.949 1_655 S
C30 C29 1.390 . S
C30 C35 1.399 . S
C31 C27 1.404 . S
C31 H32 0.950 . S
C31 C33 1.375 . S
H32 C31 0.950 . S
C33 C31 1.375 . S
C33 C35 1.382 . S
C33 H37 0.950 . S
H34 C29 0.949 1_455 S
C35 C30 1.399 . S
C35 C33 1.382 . S
C35 H36 0.952 . S
H36 C35 0.952 . S
H37 C33 0.950 . S
H38 C39 0.949 . S
C39 H38 0.949 . S
C39 C40 1.395 . S
C39 C41 1.391 . S
C40 C39 1.395 . S
C40 C43 1.390 1_565 S
C41 C39 1.391 . S
C41 C45 1.387 . S
C41 C46 1.491 . S
H42 C43 0.950 . S
C43 C40 1.390 1_545 S
C43 H42 0.950 . S
C43 C44 1.377 1_545 S
C44 C43 1.377 1_565 S
C44 C45 1.413 . S
C45 C41 1.387 . S
C45 C44 1.413 . S
C45 H47 0.951 1_556 S
C46 C41 1.491 . S
C46 C48 1.382 . S
C46 C50 1.404 . S
H47 C45 0.951 1_554 S
C48 C46 1.382 . S
C48 C49 1.390 . S
C48 H53 0.949 1_565 S
C49 C48 1.390 . S
C49 C54 1.399 . S
C50 C46 1.404 . S
C50 H51 0.950 . S
C50 C52 1.375 . S
H51 C50 0.950 . S
C52 C50 1.375 . S
C52 C54 1.382 . S
C52 H56 0.950 . S
H53 C48 0.949 1_545 S
C54 C49 1.399 . S
C54 C52 1.382 . S
C54 H55 0.952 . S
H55 C54 0.952 . S
H56 C52 0.950 . S
H57 C58 0.949 . S
C58 H57 0.949 . S
C58 C59 1.395 . S
C58 C60 1.391 . S
C59 C58 1.395 . S
C59 C62 1.390 . S
C60 C58 1.391 . S
C60 C64 1.387 . S
C60 C65 1.491 . S
H61 C62 0.950 . S
C62 C59 1.390 . S
C62 H61 0.950 . S
C62 C63 1.378 . S
C63 C62 1.378 . S
C63 C64 1.409 . S
C64 C60 1.387 . S
C64 C63 1.409 . S
C64 H66 0.951 1_556 S
C65 C60 1.491 . S
C65 C67 1.382 . S
C65 C69 1.404 . S
H66 C64 0.951 1_554 S
C67 C65 1.382 . S
C67 C68 1.390 . S
C67 H72 0.949 . S
C68 C67 1.390 . S
C68 C73 1.399 . S
C69 C65 1.404 . S
C69 H70 0.950 . S
C69 C71 1.375 . S
H70 C69 0.950 . S
C71 C69 1.375 . S
C71 C73 1.382 . S
C71 H75 0.950 . S
H72 C67 0.949 . S
C73 C68 1.399 . S
C73 C71 1.382 . S
C73 H74 0.952 . S
H74 C73 0.952 . S
H75 C71 0.950 . S
H76 C77 0.949 . S
C77 H76 0.949 . S
C77 C78 1.395 . S
C77 C79 1.391 1_554 S
C78 C77 1.395 . S
C78 C81 1.390 1_554 S
C79 C77 1.391 1_556 S
C79 C83 1.387 . S
C79 C84 1.491 . S
H80 C81 0.950 . S
C81 C78 1.390 1_556 S
C81 H80 0.950 . S
C81 C82 1.378 . S
C82 C81 1.378 . S
C82 C83 1.409 . S
C83 C79 1.387 . S
C83 C82 1.409 . S
C83 H85 0.951 . S
C84 C79 1.491 . S
C84 C86 1.382 1_556 S
C84 C88 1.404 . S
H85 C83 0.951 . S
C86 C84 1.382 1_554 S
C86 C87 1.390 . S
C86 H91 0.949 . S
C87 C86 1.390 . S
C87 C92 1.399 1_554 S
C88 C84 1.404 . S
C88 H89 0.950 . S
C88 C90 1.375 . S
H89 C88 0.950 . S
C90 C88 1.375 . S
C90 C92 1.382 . S
C90 H94 0.950 . S
H91 C86 0.949 . S
C92 C87 1.399 1_556 S
C92 C90 1.382 . S
C92 H93 0.952 . S
H93 C92 0.952 . S
H94 C90 0.950 . S
H95 C96 0.949 . S
C96 H95 0.949 . S
C96 C97 1.395 . S
C96 C98 1.391 1_554 S
C97 C96 1.395 . S
C97 C100 1.390 1_654 S
C98 C96 1.391 1_556 S
C98 C102 1.387 . S
C98 C103 1.491 . S
H99 C100 0.950 . S
C100 C97 1.390 1_456 S
C100 H99 0.950 . S
C100 C101 1.377 1_455 S
C101 C100 1.377 1_655 S
C101 C102 1.412 . S
C102 C98 1.387 . S
C102 C101 1.412 . S
C102 H104 0.951 . S
C103 C98 1.491 . S
C103 C105 1.382 1_556 S
C103 C107 1.404 . S
H104 C102 0.951 . S
C105 C103 1.382 1_554 S
C105 C106 1.390 . S
C105 H110 0.949 1_655 S
C106 C105 1.390 . S
C106 C111 1.399 . S
C107 C103 1.404 . S
C107 H108 0.950 . S
C107 C109 1.375 . S
H108 C107 0.950 . S
C109 C107 1.375 . S
C109 C111 1.382 1_556 S
C109 H113 0.950 . S
H110 C105 0.949 1_455 S
C111 C106 1.399 . S
C111 C109 1.382 1_554 S
C111 H112 0.952 . S
H112 C111 0.952 . S
H113 C109 0.950 . S
H114 C115 0.949 . S
C115 H114 0.949 . S
C115 C116 1.395 . S
C115 C117 1.391 1_554 S
C116 C115 1.395 . S
C116 C119 1.390 1_564 S
C117 C115 1.391 1_556 S
C117 C121 1.387 . S
C117 C122 1.491 . S
H118 C119 0.950 . S
C119 C116 1.390 1_546 S
C119 H118 0.950 . S
C119 C120 1.377 1_545 S
C120 C119 1.377 1_565 S
C120 C121 1.412 . S
C121 C117 1.387 . S
C121 C120 1.412 . S
C121 H123 0.951 . S
C122 C117 1.491 . S
C122 C124 1.382 1_556 S
C122 C126 1.404 . S
H123 C121 0.951 . S
C124 C122 1.382 1_554 S
C124 C125 1.390 . S
C124 H129 0.949 1_565 S
C125 C124 1.390 . S
C125 C130 1.399 . S
C126 C122 1.404 . S
C126 H127 0.950 . S
C126 C128 1.375 . S
H127 C126 0.950 . S
C128 C126 1.375 . S
C128 C130 1.382 1_556 S
C128 H132 0.950 . S
H129 C124 0.949 1_545 S
C130 C125 1.399 . S
C130 C128 1.382 1_554 S
C130 H131 0.952 . S
H131 C130 0.952 . S
H132 C128 0.950 . S
H133 C134 0.949 . S
C134 H133 0.949 . S
C134 C135 1.395 . S
C134 C136 1.391 1_554 S
C135 C134 1.395 . S
C135 C138 1.390 1_554 S
C136 C134 1.391 1_556 S
C136 C140 1.387 . S
C136 C141 1.491 . S
H137 C138 0.950 . S
C138 C135 1.390 1_556 S
C138 H137 0.950 . S
C138 C139 1.378 . S
C139 C138 1.378 . S
C139 C140 1.409 . S
C140 C136 1.387 . S
C140 C139 1.409 . S
C140 H142 0.951 . S
C141 C136 1.491 . S
C141 C143 1.382 1_556 S
C141 C145 1.404 . S
H142 C140 0.951 . S
C143 C141 1.382 1_554 S
C143 C144 1.390 . S
C143 H148 0.949 . S
C144 C143 1.390 . S
C144 C149 1.399 1_554 S
C145 C141 1.404 . S
C145 H146 0.950 . S
C145 C147 1.375 . S
H146 C145 0.950 . S
C147 C145 1.375 . S
C147 C149 1.382 . S
C147 H151 0.950 . S
H148 C143 0.949 . S
C149 C144 1.399 1_556 S
C149 C147 1.382 . S
C149 H150 0.952 1_556 S
H150 C149 0.952 1_554 S
H151 C147 0.950 . S
Ho152 C155 2.811 . S
Ho152 O172 2.322 1_554 S
Ho152 O174 2.378 . S
Ho152 O175 2.524 . S
Ho152 O176 2.381 1_554 S
Ho152 O177 2.669 1_564 S
Ho152 O179 2.346 1_565 S
Ho152 O183 2.305 1_455 S
Ho153 C164 2.811 . S
Ho153 O173 2.346 1_545 S
Ho153 O177 2.305 1_655 S
Ho153 O178 2.322 . S
Ho153 O180 2.378 . S
Ho153 O181 2.524 . S
Ho153 O182 2.381 . S
Ho153 O183 2.669 1_546 S
C154 O172 1.259 1_655 S
C154 O173 1.268 . S
C155 Ho152 2.811 . S
C155 C156 1.488 . S
C155 O174 1.215 . S
C155 O175 1.289 . S
C156 C155 1.488 . S
C156 C157 1.348 . S
C156 C161 1.413 . S
C157 C156 1.348 . S
C157 C158 1.442 . S
C157 H184 0.930 1_455 S
C158 C157 1.442 . S
C158 C159 1.381 . S
C158 H185 0.931 . S
C159 C158 1.381 . S
C159 C160 1.321 . S
C160 C159 1.321 . S
C160 C161 1.403 . S
C160 H186 0.934 . S
C161 C156 1.413 . S
C161 C160 1.403 . S
C161 H187 0.930 . S
C162 O176 1.275 . S
C162 O177 1.256 1_565 S
C163 O178 1.259 1_455 S
C163 O179 1.268 1_556 S
C164 Ho153 2.811 . S
C164 C165 1.488 . S
C164 O180 1.215 . S
C164 O181 1.289 . S
C165 C164 1.488 . S
C165 C166 1.348 . S
C165 C170 1.413 . S
C166 C165 1.348 . S
C166 C167 1.442 . S
C166 H188 0.930 1_655 S
C167 C166 1.442 . S
C167 C168 1.381 . S
C167 H189 0.931 . S
C168 C167 1.381 . S
C168 C169 1.321 . S
C169 C168 1.321 . S
C169 C170 1.403 . S
C169 H190 0.934 . S
C170 C165 1.413 . S
C170 C169 1.403 . S
C170 H191 0.930 . S
C171 O182 1.275 1_554 S
C171 O183 1.256 1_545 S
O172 Ho152 2.322 1_556 S
O172 C154 1.259 1_455 S
O173 Ho153 2.346 1_565 S
O173 C154 1.268 . S
O174 Ho152 2.378 . S
O174 C155 1.215 . S
O175 Ho152 2.524 . S
O175 C155 1.289 . S
O176 Ho152 2.381 1_556 S
O176 C162 1.275 . S
O177 Ho152 2.669 1_546 S
O177 Ho153 2.305 1_455 S
O177 C162 1.256 1_545 S
O178 Ho153 2.322 . S
O178 C163 1.259 1_655 S
O179 Ho152 2.346 1_545 S
O179 C163 1.268 1_554 S
O180 Ho153 2.378 . S
O180 C164 1.215 . S
O181 Ho153 2.524 . S
O181 C164 1.289 . S
O182 Ho153 2.381 . S
O182 C171 1.275 1_556 S
O183 Ho152 2.305 1_655 S
O183 Ho153 2.669 1_564 S
O183 C171 1.256 1_565 S
H184 C157 0.930 1_655 S
H185 C158 0.931 . S
H186 C160 0.934 . S
H187 C161 0.930 . S
H188 C166 0.930 1_455 S
H189 C167 0.931 . S
H190 C169 0.934 . S
H191 C170 0.930 . S
Ho192 C195 2.811 . S
Ho192 O212 2.322 1_554 S
Ho192 O214 2.378 . S
Ho192 O215 2.524 . S
Ho192 O216 2.381 1_554 S
Ho192 O217 2.669 1_554 S
Ho192 O219 2.346 . S
Ho192 O223 2.305 1_545 S
Ho193 C204 2.811 . S
Ho193 O213 2.346 . S
Ho193 O217 2.305 1_565 S
Ho193 O218 2.322 . S
Ho193 O220 2.378 . S
Ho193 O221 2.524 . S
Ho193 O222 2.381 . S
Ho193 O223 2.669 1_556 S
C194 O212 1.259 1_565 S
C194 O213 1.268 . S
C195 Ho192 2.811 . S
C195 C196 1.488 . S
C195 O214 1.215 . S
C195 O215 1.289 . S
C196 C195 1.488 . S
C196 C197 1.348 . S
C196 C201 1.413 . S
C197 C196 1.348 . S
C197 C198 1.442 . S
C197 H224 0.930 1_545 S
C198 C197 1.442 . S
C198 C199 1.381 . S
C198 H225 0.931 . S
C199 C198 1.381 . S
C199 C200 1.321 . S
C200 C199 1.321 . S
C200 C201 1.403 . S
C200 H226 0.934 . S
C201 C196 1.413 . S
C201 C200 1.403 . S
C201 H227 0.930 . S
C202 O216 1.275 . S
C202 O217 1.256 . S
C203 O218 1.259 1_545 S
C203 O219 1.268 1_556 S
C204 Ho193 2.811 . S
C204 C205 1.488 . S
C204 O220 1.215 . S
C204 O221 1.289 . S
C205 C204 1.488 . S
C205 C206 1.348 . S
C205 C210 1.413 . S
C206 C205 1.348 . S
C206 C207 1.442 . S
C206 H228 0.930 1_565 S
C207 C206 1.442 . S
C207 C208 1.381 . S
C207 H229 0.931 . S
C208 C207 1.381 . S
C208 C209 1.321 . S
C209 C208 1.321 . S
C209 C210 1.403 . S
C209 H230 0.934 . S
C210 C205 1.413 . S
C210 C209 1.403 . S
C210 H231 0.930 . S
C211 O222 1.275 1_554 S
C211 O223 1.256 . S
O212 Ho192 2.322 1_556 S
O212 C194 1.259 1_545 S
O213 Ho193 2.346 . S
O213 C194 1.268 . S
O214 Ho192 2.378 . S
O214 C195 1.215 . S
O215 Ho192 2.524 . S
O215 C195 1.289 . S
O216 Ho192 2.381 1_556 S
O216 C202 1.275 . S
O217 Ho192 2.669 1_556 S
O217 Ho193 2.305 1_545 S
O217 C202 1.256 . S
O218 Ho193 2.322 . S
O218 C203 1.259 1_565 S
O219 Ho192 2.346 . S
O219 C203 1.268 1_554 S
O220 Ho193 2.378 . S
O220 C204 1.215 . S
O221 Ho193 2.524 . S
O221 C204 1.289 . S
O222 Ho193 2.381 . S
O222 C211 1.275 1_556 S
O223 Ho192 2.305 1_565 S
O223 Ho193 2.669 1_554 S
O223 C211 1.256 . S
H224 C197 0.930 1_565 S
H225 C198 0.931 . S
H226 C200 0.934 . S
H227 C201 0.930 . S
H228 C206 0.930 1_545 S
H229 C207 0.931 . S
H230 C209 0.934 . S
H231 C210 0.930 . S
Ho232 C235 2.811 . S
Ho232 O252 2.322 1_554 S
Ho232 O254 2.378 . S
Ho232 O255 2.524 . S
Ho232 O256 2.381 1_554 S
Ho232 O257 2.669 1_554 S
Ho232 O259 2.346 . S
Ho232 O263 2.305 . S
Ho233 C244 2.811 . S
Ho233 O253 2.346 . S
Ho233 O257 2.305 . S
Ho233 O258 2.322 . S
Ho233 O260 2.378 . S
Ho233 O261 2.524 . S
Ho233 O262 2.381 . S
Ho233 O263 2.669 1_556 S
C234 O252 1.259 . S
C234 O253 1.268 . S
C235 Ho232 2.811 . S
C235 C236 1.488 . S
C235 O254 1.215 . S
C235 O255 1.289 . S
C236 C235 1.488 . S
C236 C237 1.348 . S
C236 C241 1.413 . S
C237 C236 1.348 . S
C237 C238 1.442 . S
C237 H264 0.930 . S
C238 C237 1.442 . S
C238 C239 1.381 . S
C238 H265 0.931 . S
C239 C238 1.381 . S
C239 C240 1.321 . S
C240 C239 1.321 . S
C240 C241 1.403 . S
C240 H266 0.934 . S
C241 C236 1.413 . S
C241 C240 1.403 . S
C241 H267 0.930 . S
C242 O256 1.275 . S
C242 O257 1.256 . S
C243 O258 1.259 . S
C243 O259 1.268 1_556 S
C244 Ho233 2.811 . S
C244 C245 1.488 . S
C244 O260 1.215 . S
C244 O261 1.289 . S
C245 C244 1.488 . S
C245 C246 1.348 . S
C245 C250 1.413 . S
C246 C245 1.348 . S
C246 C247 1.442 . S
C246 H268 0.930 . S
C247 C246 1.442 . S
C247 C248 1.381 . S
C247 H269 0.931 . S
C248 C247 1.381 . S
C248 C249 1.321 . S
C249 C248 1.321 . S
C249 C250 1.403 . S
C249 H270 0.934 . S
C250 C245 1.413 . S
C250 C249 1.403 . S
C250 H271 0.930 . S
C251 O262 1.275 1_554 S
C251 O263 1.256 . S
O252 Ho232 2.322 1_556 S
O252 C234 1.259 . S
O253 Ho233 2.346 . S
O253 C234 1.268 . S
O254 Ho232 2.378 . S
O254 C235 1.215 . S
O255 Ho232 2.524 . S
O255 C235 1.289 . S
O256 Ho232 2.381 1_556 S
O256 C242 1.275 . S
O257 Ho232 2.669 1_556 S
O257 Ho233 2.305 . S
O257 C242 1.256 . S
O258 Ho233 2.322 . S
O258 C243 1.259 . S
O259 Ho232 2.346 . S
O259 C243 1.268 1_554 S
O260 Ho233 2.378 . S
O260 C244 1.215 . S
O261 Ho233 2.524 . S
O261 C244 1.289 . S
O262 Ho233 2.381 . S
O262 C251 1.275 1_556 S
O263 Ho232 2.305 . S
O263 Ho233 2.669 1_554 S
O263 C251 1.256 . S
H264 C237 0.930 . S
H265 C238 0.931 . S
H266 C240 0.934 . S
H267 C241 0.930 . S
H268 C246 0.930 . S
H269 C247 0.931 . S
H270 C249 0.934 . S
H271 C250 0.930 . S
Ho272 C275 2.811 . S
Ho272 O292 2.322 1_554 S
Ho272 O294 2.378 . S
Ho272 O295 2.524 . S
Ho272 O296 2.381 1_554 S
Ho272 O297 2.669 1_654 S
Ho272 O299 2.346 1_655 S
Ho272 O303 2.305 . S
Ho273 C284 2.811 . S
Ho273 O293 2.346 1_455 S
Ho273 O297 2.305 . S
Ho273 O298 2.322 . S
Ho273 O300 2.378 . S
Ho273 O301 2.524 . S
Ho273 O302 2.381 . S
Ho273 O303 2.669 1_456 S
C274 O292 1.259 . S
C274 O293 1.268 . S
C275 Ho272 2.811 . S
C275 C276 1.488 . S
C275 O294 1.215 . S
C275 O295 1.289 . S
C276 C275 1.488 . S
C276 C277 1.348 . S
C276 C281 1.413 . S
C277 C276 1.348 . S
C277 C278 1.442 . S
C277 H304 0.930 . S
C278 C277 1.442 . S
C278 C279 1.381 . S
C278 H305 0.931 . S
C279 C278 1.381 . S
C279 C280 1.321 . S
C280 C279 1.321 . S
C280 C281 1.403 . S
C280 H306 0.934 . S
C281 C276 1.413 . S
C281 C280 1.403 . S
C281 H307 0.930 . S
C282 O296 1.279 . S
C282 O297 1.254 1_655 S
C283 O298 1.259 . S
C283 O299 1.268 1_556 S
C284 Ho273 2.811 . S
C284 C285 1.488 . S
C284 O300 1.215 . S
C284 O301 1.289 . S
C285 C284 1.488 . S
C285 C286 1.348 . S
C285 C290 1.413 . S
C286 C285 1.348 . S
C286 C287 1.442 . S
C286 H308 0.930 . S
C287 C286 1.442 . S
C287 C288 1.381 . S
C287 H309 0.931 . S
C288 C287 1.381 . S
C288 C289 1.321 . S
C289 C288 1.321 . S
C289 C290 1.403 . S
C289 H310 0.934 . S
C290 C285 1.413 . S
C290 C289 1.403 . S
C290 H311 0.930 . S
C291 O302 1.281 1_554 S
C291 O303 1.253 1_455 S
O292 Ho272 2.322 1_556 S
O292 C274 1.259 . S
O293 Ho273 2.346 1_655 S
O293 C274 1.268 . S
O294 Ho272 2.378 . S
O294 C275 1.215 . S
O295 Ho272 2.524 . S
O295 C275 1.289 . S
O296 Ho272 2.381 1_556 S
O296 C282 1.279 . S
O297 Ho272 2.669 1_456 S
O297 Ho273 2.305 . S
O297 C282 1.254 1_455 S
O298 Ho273 2.322 . S
O298 C283 1.259 . S
O299 Ho272 2.346 1_455 S
O299 C283 1.268 1_554 S
O300 Ho273 2.378 . S
O300 C284 1.215 . S
O301 Ho273 2.524 . S
O301 C284 1.289 . S
O302 Ho273 2.381 . S
O302 C291 1.281 1_556 S
O303 Ho272 2.305 . S
O303 Ho273 2.669 1_654 S
O303 C291 1.253 1_655 S
H304 C277 0.930 . S
H305 C278 0.931 . S
H306 C280 0.934 . S
H307 C281 0.930 . S
H308 C286 0.930 . S
H309 C287 0.931 . S
H310 C289 0.934 . S
H311 C290 0.930 . S
C125 C162 2.964 1_554 S
C202 C144 3.012 1_556 S
C242 C87 3.027 1_556 S
C282 C106 2.965 1_556 S
C171 C49 2.988 1_544 S
C68 C211 2.935 1_556 S
C11 C251 2.931 1_556 S
C30 C291 2.966 1_656 S
C168 C97 2.213 . S
C208 C116 2.100 . S
C248 C135 1.971 . S
C78 C288 2.070 . S
C21 C159 2.223 1_655 S
C199 C40 2.111 1_545 S
C239 C59 1.983 . S
C2 C279 2.081 . S
C101 C163 3.962 1_655 S
C120 C203 3.899 1_565 S
C243 C139 3.909 . S
C283 C82 3.969 . S
C25 C154 3.966 . S
C194 C44 3.898 . S
C234 C63 3.900 . S
C6 C274 3.966 . S
