# Generated by pormake.
# Topology zzz, (3,6)-cn, num edge types: 1
# Building blocks:
#     Node 0, Type 0, BuildingBlock: BELTOD_clean_linker_0, # of connection points: 3
#     Node 1, Type 0, BuildingBlock: BELTOD_clean_linker_0, # of connection points: 3
#     Node 2, Type 0, BuildingBlock: BELTOD_clean_linker_0, # of connection points: 3
#     Node 3, Type 0, BuildingBlock: BELTOD_clean_linker_0, # of connection points: 3
#     Node 4, Type 0, BuildingBlock: BELTOD_clean_linker_0, # of connection points: 3
#     Node 5, Type 0, BuildingBlock: BELTOD_clean_linker_0, # of connection points: 3
#     Node 6, Type 0, BuildingBlock: BELTOD_clean_linker_0, # of connection points: 3
#     Node 7, Type 0, BuildingBlock: BELTOD_clean_linker_0, # of connection points: 3
#     Node 8, Type 1, BuildingBlock: FUNLAD_clean_sbu_0, # of connection points: 6
#     Node 9, Type 1, BuildingBlock: FUNLAD_clean_sbu_0, # of connection points: 6
#     Node 10, Type 1, BuildingBlock: FUNLAD_clean_sbu_0, # of connection points: 6
#     Node 11, Type 1, BuildingBlock: FUNLAD_clean_sbu_0, # of connection points: 6
#     Edge 12, Type (0, 1), BuildingBlock: KIFKEQ_clean_linker_1, # of connection points: 2
#     Edge 13, Type (0, 1), BuildingBlock: KIFKEQ_clean_linker_1, # of connection points: 2
#     Edge 14, Type (0, 1), BuildingBlock: KIFKEQ_clean_linker_1, # of connection points: 2
#     Edge 15, Type (0, 1), BuildingBlock: KIFKEQ_clean_linker_1, # of connection points: 2
#     Edge 16, Type (0, 1), BuildingBlock: KIFKEQ_clean_linker_1, # of connection points: 2
#     Edge 17, Type (0, 1), BuildingBlock: KIFKEQ_clean_linker_1, # of connection points: 2
#     Edge 18, Type (0, 1), BuildingBlock: KIFKEQ_clean_linker_1, # of connection points: 2
#     Edge 19, Type (0, 1), BuildingBlock: KIFKEQ_clean_linker_1, # of connection points: 2
#     Edge 20, Type (0, 1), BuildingBlock: KIFKEQ_clean_linker_1, # of connection points: 2
#     Edge 21, Type (0, 1), BuildingBlock: KIFKEQ_clean_linker_1, # of connection points: 2
#     Edge 22, Type (0, 1), BuildingBlock: KIFKEQ_clean_linker_1, # of connection points: 2
#     Edge 23, Type (0, 1), BuildingBlock: KIFKEQ_clean_linker_1, # of connection points: 2
#     Edge 24, Type (0, 1), BuildingBlock: KIFKEQ_clean_linker_1, # of connection points: 2
#     Edge 25, Type (0, 1), BuildingBlock: KIFKEQ_clean_linker_1, # of connection points: 2
#     Edge 26, Type (0, 1), BuildingBlock: KIFKEQ_clean_linker_1, # of connection points: 2
#     Edge 27, Type (0, 1), BuildingBlock: KIFKEQ_clean_linker_1, # of connection points: 2
#     Edge 28, Type (0, 1), BuildingBlock: KIFKEQ_clean_linker_1, # of connection points: 2
#     Edge 29, Type (0, 1), BuildingBlock: KIFKEQ_clean_linker_1, # of connection points: 2
#     Edge 30, Type (0, 1), BuildingBlock: KIFKEQ_clean_linker_1, # of connection points: 2
#     Edge 31, Type (0, 1), BuildingBlock: KIFKEQ_clean_linker_1, # of connection points: 2
#     Edge 32, Type (0, 1), BuildingBlock: KIFKEQ_clean_linker_1, # of connection points: 2
#     Edge 33, Type (0, 1), BuildingBlock: KIFKEQ_clean_linker_1, # of connection points: 2
#     Edge 34, Type (0, 1), BuildingBlock: KIFKEQ_clean_linker_1, # of connection points: 2
#     Edge 35, Type (0, 1), BuildingBlock: KIFKEQ_clean_linker_1, # of connection points: 2
# Relax obj value: 0.252
# Max RMSD: 0.215
# Mean RMSD: 0.181
data_MOF--net-zzz--node1-FUNLAD_clean_sbu_0--node2-BELTOD_clean_linker_0--edge1-KIFKEQ_clean_linker_1
_symmetry_space_group_name_H-M    P1
_symmetry_Int_Tables_number       1
_symmetry_cell_setting            triclinic
loop_
_symmetry_equiv_pos_as_xyz
'x, y, z'
_cell_length_a     55.253718
_cell_length_b     59.970712
_cell_length_c     21.29812
_cell_angle_alpha  86.638503
_cell_angle_beta   86.948098
_cell_angle_gamma 92.117841
loop_
_atom_site_label
_atom_site_type_symbol
_atom_site_fract_x
_atom_site_fract_y
_atom_site_fract_z
_atom_type_partial_charge
P0 P 0.79508 0.38882 0.24201 0.0
H1 H 0.80261 0.38493 0.37752 0.0
H2 H 0.82394 0.40943 0.44559 0.0
H3 H 0.83165 0.46069 0.29366 0.0
H4 H 0.81099 0.43573 0.22531 0.0
H5 H 0.76864 0.36824 0.14513 0.0
H6 H 0.73746 0.38177 0.0766 0.0
H7 H 0.73301 0.44152 0.17984 0.0
H8 H 0.76384 0.42779 0.24857 0.0
H9 H 0.84228 0.36896 0.25108 0.0
H10 H 0.80445 0.40686 0.11121 0.0
O11 O 0.78911 0.36376 0.27897 0.0
H12 H 0.87898 0.37129 0.1801 0.0
H13 H 0.84042 0.40858 0.04042 0.0
C14 C 0.80511 0.40857 0.29651 0.0
C15 C 0.80835 0.40164 0.35934 0.0
C16 C 0.82048 0.41575 0.39837 0.0
C17 C 0.82966 0.43701 0.37501 0.0
C18 C 0.8251 0.44433 0.31293 0.0
C19 C 0.8131 0.43016 0.27395 0.0
C20 C 0.76882 0.39713 0.20128 0.0
C21 C 0.7606 0.38406 0.15368 0.0
C22 C 0.74299 0.3919 0.1142 0.0
C23 C 0.73307 0.41285 0.12227 0.0
C24 C 0.74032 0.4253 0.17247 0.0
C25 C 0.75809 0.41751 0.21165 0.0
C26 C 0.82038 0.38713 0.1859 0.0
C27 C 0.84163 0.37715 0.20454 0.0
C28 C 0.86255 0.37857 0.16422 0.0
C29 C 0.86238 0.38982 0.1045 0.0
C30 C 0.84089 0.39931 0.08554 0.0
C31 C 0.82021 0.39825 0.12616 0.0
P32 P 0.98016 0.76685 0.17207 0.0
H33 H 0.9802 0.77497 0.30581 0.0
H34 H 0.96019 0.80292 0.36577 0.0
H35 H 0.9149 0.81785 0.21066 0.0
H36 H 0.93523 0.78965 0.15052 0.0
H37 H 0.99481 0.74814 0.05425 0.0
H38 H 0.97989 0.7163 0.99988 0.0
H39 H 0.92315 0.703 0.14611 0.0
H40 H 0.93792 0.73564 0.20008 0.0
H41 H 0.02088 0.79909 0.17753 0.0
H42 H 0.96518 0.78447 0.04986 0.0
O43 O 0.00246 0.75626 0.21288 0.0
H44 H 0.03534 0.83147 0.10788 0.0
H45 H 0.97981 0.81631 0.97988 0.0
C46 C 0.95926 0.78031 0.22363 0.0
C47 C 0.9653 0.78356 0.28554 0.0
C48 C 0.95374 0.79958 0.31997 0.0
C49 C 0.93612 0.81283 0.2927 0.0
C50 C 0.92859 0.80808 0.23267 0.0
C51 C 0.94007 0.79187 0.19843 0.0
C52 C 0.96698 0.74469 0.13008 0.0
C53 C 0.97869 0.73886 0.07378 0.0
C54 C 0.97013 0.72064 0.04264 0.0
C55 C 0.95011 0.70742 0.06822 0.0
C56 C 0.93845 0.71311 0.12509 0.0
C57 C 0.94683 0.73172 0.15578 0.0
C58 C 0.99255 0.78892 0.11767 0.0
C59 C 0.01215 0.80253 0.13386 0.0
C60 C 0.02029 0.82105 0.09437 0.0
C61 C 0.00891 0.82613 0.03812 0.0
C62 C 0.98927 0.81245 0.02219 0.0
C63 C 0.98095 0.7942 0.06209 0.0
P64 P 0.75421 0.05336 0.16535 0.0
H65 H 0.75985 0.05433 0.30124 0.0
H66 H 0.73384 0.03861 0.39038 0.0
H67 H 0.69423 0.99877 0.26434 0.0
H68 H 0.7211 0.01369 0.17639 0.0
H69 H 0.78601 0.07662 0.06991 0.0
H70 H 0.82029 0.06554 0.0036 0.0
H71 H 0.81535 -0.00029 0.09827 0.0
H72 H 0.78063 0.01103 0.16496 0.0
H73 H 0.70888 0.07649 0.17252 0.0
H74 H 0.74569 0.03446 0.04373 0.0
O75 O 0.76043 0.0787 0.1903 0.0
H76 H 0.673 0.07513 0.11012 0.0
H77 H 0.71042 0.03371 0.98013 0.0
C78 C 0.74207 0.0356 0.23192 0.0
C79 C 0.74615 0.04159 0.29317 0.0
C80 C 0.73099 0.03277 0.34409 0.0
C81 C 0.7113 0.01797 0.3345 0.0
C82 C 0.70905 0.01017 0.27389 0.0
C83 C 0.72444 0.01879 0.22319 0.0
C84 C 0.78103 0.04476 0.12286 0.0
C85 C 0.79245 0.05986 0.07696 0.0
C86 C 0.81189 0.05343 0.0386 0.0
C87 C 0.82042 0.0317 0.04531 0.0
C88 C 0.80922 0.0166 0.09222 0.0
C89 C 0.78945 0.02304 0.1304 0.0
C90 C 0.73007 0.0559 0.11228 0.0
C91 C 0.70949 0.06754 0.12978 0.0
C92 C 0.68901 0.06676 0.09404 0.0
C93 C 0.68879 0.05421 0.04032 0.0
C94 C 0.70985 0.04326 0.02175 0.0
C95 C 0.73021 0.04392 0.05773 0.0
P96 P 0.5174 0.71253 0.22757 0.0
H97 H 0.51656 0.70968 0.36499 0.0
H98 H 0.5387 0.68659 0.43746 0.0
H99 H 0.58794 0.6702 0.28375 0.0
H100 H 0.56491 0.69292 0.21081 0.0
H101 H 0.4983 0.75713 0.22647 0.0
H102 H 0.50815 0.7912 0.16139 0.0
H103 H 0.56834 0.75945 0.07015 0.0
H104 H 0.55818 0.72501 0.13589 0.0
H105 H 0.50735 0.66508 0.25331 0.0
H106 H 0.51499 0.71096 0.08904 0.0
O107 O 0.49102 0.71615 0.26687 0.0
H108 H 0.50266 0.63386 0.18605 0.0
H109 H 0.51139 0.67974 0.02134 0.0
C110 C 0.53887 0.70276 0.28242 0.0
C111 C 0.53255 0.70172 0.34705 0.0
C112 C 0.54544 0.68852 0.3887 0.0
C113 C 0.56496 0.67616 0.36642 0.0
C114 C 0.57273 0.67914 0.30235 0.0
C115 C 0.55974 0.69233 0.26065 0.0
C116 C 0.52736 0.73846 0.18563 0.0
C117 C 0.51384 0.75749 0.19321 0.0
C118 C 0.5196 0.77707 0.1561 0.0
C119 C 0.53902 0.77803 0.11048 0.0
C120 C 0.55316 0.75915 0.10455 0.0
C121 C 0.54748 0.73954 0.14232 0.0
C122 C 0.51226 0.69026 0.17622 0.0
C123 C 0.50816 0.66842 0.20269 0.0
C124 C 0.50561 0.65057 0.16415 0.0
C125 C 0.50706 0.65424 0.09824 0.0
C126 C 0.51014 0.67631 0.07192 0.0
C127 C 0.51253 0.69421 0.11067 0.0
P128 P 0.21707 0.4953 0.21981 0.0
H129 H 0.21613 0.469 0.10872 0.0
H130 H 0.19683 0.47674 0.01013 0.0
H131 H 0.19272 0.54624 0.05119 0.0
H132 H 0.212 0.5383 0.15032 0.0
H133 H 0.24086 0.47011 0.31651 0.0
H134 H 0.27845 0.47611 0.36814 0.0
H135 H 0.29536 0.53537 0.24601 0.0
H136 H 0.25707 0.52926 0.19434 0.0
H137 H 0.16497 0.49504 0.21752 0.0
H138 H 0.2205 0.5308 0.31067 0.0
O139 O 0.20836 0.46836 0.23192 0.0
H140 H 0.13393 0.51601 0.27077 0.0
H141 H 0.18942 0.55213 0.36392 0.0
C142 C 0.21489 0.50296 0.1375 0.0
C143 C 0.21206 0.48609 0.09536 0.0
C144 C 0.20101 0.49057 0.03875 0.0
C145 C 0.19265 0.51199 0.02376 0.0
C146 C 0.19853 0.52947 0.06221 0.0
C147 C 0.20973 0.52498 0.11865 0.0
C148 C 0.24651 0.49892 0.25054 0.0
C149 C 0.25284 0.48415 0.29974 0.0
C150 C 0.27441 0.48759 0.32929 0.0
C151 C 0.29006 0.50607 0.3107 0.0
C152 C 0.28366 0.52097 0.2613 0.0
C153 C 0.26196 0.51741 0.23138 0.0
C154 C 0.19493 0.51104 0.26106 0.0
C155 C 0.17046 0.50746 0.24945 0.0
C156 C 0.15277 0.51973 0.2792 0.0
C157 C 0.15923 0.5359 0.3212 0.0
C158 C 0.1839 0.53974 0.33195 0.0
C159 C 0.20166 0.52747 0.30176 0.0
P160 P 0.14958 0.22342 0.29241 0.0
H161 H 0.17682 0.20807 0.18175 0.0
H162 H 0.16325 0.1846 0.0991 0.0
H163 H 0.08875 0.19496 0.15798 0.0
H164 H 0.10229 0.21792 0.24087 0.0
H165 H 0.16499 0.25186 0.3893 0.0
H166 H 0.15051 0.28714 0.42596 0.0
H167 H 0.102 0.29125 0.27359 0.0
H168 H 0.11676 0.2562 0.23667 0.0
H169 H 0.15097 0.17528 0.30596 0.0
H170 H 0.11124 0.2268 0.39371 0.0
O171 O 0.17934 0.22069 0.2982 0.0
H172 H 0.12299 0.14696 0.35753 0.0
H173 H 0.08412 0.19849 0.44932 0.0
C174 C 0.14058 0.21499 0.21709 0.0
C175 C 0.15759 0.20611 0.17514 0.0
C176 C 0.14983 0.19262 0.12803 0.0
C177 C 0.12497 0.18772 0.12296 0.0
C178 C 0.10803 0.1983 0.16137 0.0
C179 C 0.11577 0.21176 0.20813 0.0
C180 C 0.14197 0.25136 0.31036 0.0
C181 C 0.15165 0.26063 0.36292 0.0
C182 C 0.14336 0.28078 0.38383 0.0
C183 C 0.12502 0.29185 0.35283 0.0
C184 C 0.11595 0.28291 0.29881 0.0
C185 C 0.12442 0.26284 0.27763 0.0
C186 C 0.1334 0.20314 0.34624 0.0
C187 C 0.13676 0.18043 0.33838 0.0
C188 C 0.12064 0.1642 0.36811 0.0
C189 C 0.10101 0.17032 0.40752 0.0
C190 C 0.09861 0.19311 0.4182 0.0
C191 C 0.11446 0.20939 0.38722 0.0
P192 P 0.28664 0.02941 0.24836 0.0
H193 H 0.29667 0.05699 0.13143 0.0
H194 H 0.32191 0.04973 0.03854 0.0
H195 H 0.31964 0.97941 0.09658 0.0
H196 H 0.29443 0.98693 0.19041 0.0
H197 H 0.26972 0.02982 0.37796 0.0
H198 H 0.23098 0.02086 0.43456 0.0
H199 H 0.2009 0.00064 0.26246 0.0
H200 H 0.24028 0.01012 0.20532 0.0
H201 H 0.33676 0.04444 0.25744 0.0
H202 H 0.29052 0.98798 0.32794 0.0
O203 O 0.28864 0.05714 0.25192 0.0
H204 H 0.37119 0.02758 0.30666 0.0
H205 H 0.32491 0.97112 0.37806 0.0
C206 C 0.29373 0.02253 0.16829 0.0
C207 C 0.30065 0.03985 0.12304 0.0
C208 C 0.31525 0.03566 0.06968 0.0
C209 C 0.32332 0.01405 0.06071 0.0
C210 C 0.31418 0.99634 0.10274 0.0
C211 C 0.29942 0.00055 0.15598 0.0
C212 C 0.25801 0.0202 0.28777 0.0
C213 C 0.25493 0.02311 0.35243 0.0
C214 C 0.23271 0.01788 0.38489 0.0
C215 C 0.21281 0.00972 0.35342 0.0
C216 C 0.21586 0.00689 0.28817 0.0
C217 C 0.23835 0.01213 0.25551 0.0
C218 C 0.31096 0.01784 0.29089 0.0
C219 C 0.33395 0.02859 0.28441 0.0
C220 C 0.35365 0.01879 0.31179 0.0
C221 C 0.35069 0.99802 0.34603 0.0
C222 C 0.32761 0.98723 0.35238 0.0
C223 C 0.30794 0.99695 0.32423 0.0
P224 P 0.42183 0.3027 0.26986 0.0
H225 H 0.39381 0.31964 0.16524 0.0
H226 H 0.40661 0.34251 0.06982 0.0
H227 H 0.48143 0.32956 0.10285 0.0
H228 H 0.46859 0.30767 0.1995 0.0
H229 H 0.4023 0.27321 0.37394 0.0
H230 H 0.41399 0.23685 0.41716 0.0
H231 H 0.46703 0.23335 0.26191 0.0
H232 H 0.45509 0.26969 0.21856 0.0
H233 H 0.4203 0.35038 0.28302 0.0
H234 H 0.46278 0.29616 0.35228 0.0
O235 O 0.39243 0.30678 0.28499 0.0
H236 H 0.44706 0.37707 0.33114 0.0
H237 H 0.48945 0.32279 0.40086 0.0
C238 C 0.43022 0.31174 0.18931 0.0
C239 C 0.41291 0.32108 0.15086 0.0
C240 C 0.42027 0.33418 0.09616 0.0
C241 C 0.44507 0.33817 0.07933 0.0
C242 C 0.4622 0.32714 0.11514 0.0
C243 C 0.45485 0.31423 0.16991 0.0
C244 C 0.42763 0.27411 0.29275 0.0
C245 C 0.41602 0.26437 0.34829 0.0
C246 C 0.42274 0.24359 0.37301 0.0
C247 C 0.44148 0.23227 0.343 0.0
C248 C 0.45268 0.2418 0.28635 0.0
C249 C 0.44578 0.26256 0.26136 0.0
C250 C 0.43924 0.32128 0.31495 0.0
C251 C 0.4351 0.34419 0.30958 0.0
C252 C 0.45057 0.35942 0.33637 0.0
C253 C 0.47044 0.35198 0.36923 0.0
C254 C 0.47421 0.32895 0.37599 0.0
C255 C 0.45886 0.31371 0.34847 0.0
C256 C 0.02087 0.96782 0.76369 0.0
N257 N 0.98544 0.97728 0.59558 0.0
C258 C 0.99787 0.95975 0.57466 0.0
C259 C 0.98727 0.94502 0.53503 0.0
C260 C 0.96344 0.94801 0.51768 0.0
C261 C 0.95082 0.96604 0.5402 0.0
C262 C 0.96235 0.98075 0.5789 0.0
Zn263 Zn 0.00235 0.9971 0.65651 0.0
C264 C 0.96905 0.00951 0.76216 0.0
N265 N 0.03895 0.03516 0.78787 0.0
C266 C 0.06122 0.03117 0.80948 0.0
C267 C 0.02687 0.05357 0.80351 0.0
C268 C 0.03713 0.06893 0.84177 0.0
C269 C 0.06008 0.06539 0.8648 0.0
C270 C 0.07221 0.04619 0.84827 0.0
Zn271 Zn 0.02252 0.01515 0.72705 0.0
O272 O 0.0089 0.96806 0.71427 0.0
C273 C 0.056 0.0029 0.62209 0.0
O274 O 0.02975 0.98606 0.78169 0.0
H275 H 0.00931 0.05661 0.78541 0.0
H276 H 0.01596 0.95691 0.5895 0.0
H277 H 0.07055 0.01647 0.79619 0.0
O278 O 0.03622 0.99443 0.60454 0.0
O279 O 0.05585 0.01281 0.67329 0.0
H280 H 0.95275 0.99474 0.5962 0.0
O281 O 0.01529 0.04403 0.67111 0.0
O282 O 0.99665 0.02633 0.59916 0.0
O283 O 0.98914 0.01706 0.78021 0.0
O284 O 0.96871 0.00039 0.70973 0.0
C285 C 0.00493 0.04446 0.61934 0.0
H286 H 0.99741 0.93106 0.5193 0.0
H287 H 0.93237 0.96878 0.52769 0.0
H288 H 0.0273 0.08369 0.85214 0.0
H289 H 0.08988 0.04275 0.86538 0.0
C290 C 0.4897 0.98798 0.60638 0.0
N291 N 0.50966 0.05387 0.63843 0.0
C292 C 0.51225 0.05626 0.57447 0.0
C293 C 0.50682 0.07627 0.54265 0.0
C294 C 0.4987 0.09414 0.57682 0.0
C295 C 0.49681 0.09143 0.64298 0.0
C296 C 0.50238 0.07104 0.67298 0.0
Zn297 Zn 0.51481 0.02302 0.68046 0.0
C298 C 0.47473 0.00798 0.77324 0.0
N299 N 0.52396 0.95684 0.75764 0.0
C300 C 0.53017 0.93871 0.72566 0.0
C301 C 0.52084 0.95548 0.82155 0.0
C302 C 0.52381 0.93543 0.85586 0.0
C303 C 0.52992 0.91632 0.82446 0.0
C304 C 0.53331 0.91813 0.7584 0.0
Zn305 Zn 0.51916 0.98764 0.71448 0.0
O306 O 0.49434 0.00865 0.61179 0.0
C307 C 0.55901 0.00281 0.6211 0.0
O308 O 0.49792 0.97363 0.64523 0.0
H309 H 0.51606 0.97006 0.8463 0.0
H310 H 0.51793 0.04239 0.54779 0.0
H311 H 0.53263 0.94019 0.67483 0.0
O312 O 0.54691 0.02041 0.62301 0.0
O313 O 0.55161 0.98548 0.6552 0.0
H314 H 0.50043 0.06877 0.72378 0.0
O315 O 0.54023 0.00225 0.78308 0.0
O316 O 0.53575 0.03703 0.74922 0.0
O317 O 0.48673 0.99031 0.77228 0.0
O318 O 0.48245 0.02513 0.73902 0.0
C319 C 0.54466 0.02302 0.78768 0.0
H320 H 0.50821 0.07742 0.49165 0.0
H321 H 0.49093 0.10485 0.67128 0.0
H322 H 0.52154 0.93499 0.90675 0.0
H323 H 0.53793 0.90377 0.73233 0.0
C324 C 0.53345 0.47407 0.60799 0.0
N325 N 0.47488 0.51367 0.64655 0.0
C326 C 0.4766 0.51955 0.58372 0.0
C327 C 0.4558 0.52272 0.55065 0.0
C328 C 0.43289 0.51967 0.58228 0.0
C329 C 0.43159 0.51423 0.64754 0.0
C330 C 0.45295 0.51135 0.67899 0.0
Zn331 Zn 0.5063 0.50626 0.6883 0.0
C332 C 0.50267 0.46664 0.77451 0.0
N333 N 0.5744 0.49068 0.76041 0.0
C334 C 0.59537 0.48624 0.72781 0.0
C335 C 0.57269 0.489 0.82451 0.0
C336 C 0.59242 0.48279 0.8584 0.0
C337 C 0.61418 0.47786 0.82632 0.0
C338 C 0.6156 0.47958 0.76012 0.0
Zn339 Zn 0.54317 0.4984 0.71778 0.0
O340 O 0.51482 0.48567 0.6143 0.0
C341 C 0.54709 0.5382 0.63343 0.0
O342 O 0.54989 0.47536 0.64729 0.0
H343 H 0.55576 0.492 0.84978 0.0
H344 H 0.49415 0.52105 0.55856 0.0
H345 H 0.59629 0.48752 0.67687 0.0
O346 O 0.52428 0.53423 0.63845 0.0
O347 O 0.56111 0.52475 0.6603 0.0
H348 H 0.452 0.50667 0.7289 0.0
O349 O 0.53542 0.52175 0.78771 0.0
O350 O 0.49798 0.52672 0.76206 0.0
O351 O 0.52507 0.4722 0.7742 0.0
O352 O 0.48895 0.47818 0.74055 0.0
C353 C 0.51526 0.53094 0.79707 0.0
H354 H 0.45765 0.52652 0.50024 0.0
H355 H 0.41425 0.51186 0.67373 0.0
H356 H 0.59043 0.4812 0.90937 0.0
H357 H 0.63213 0.47584 0.73383 0.0
C358 C 0.02514 0.52224 0.60974 0.0
N359 N 0.0273 0.45277 0.63649 0.0
C360 C 0.02661 0.45305 0.57269 0.0
C361 C 0.03733 0.43631 0.53937 0.0
C362 C 0.04874 0.41893 0.57193 0.0
C363 C 0.04895 0.41897 0.63793 0.0
C364 C 0.03816 0.43616 0.66937 0.0
Zn365 Zn 0.01236 0.47832 0.68251 0.0
C366 C 0.04596 0.4983 0.76888 0.0
N367 N 0.98198 0.53359 0.77178 0.0
C368 C 0.97274 0.55153 0.74068 0.0
C369 C 0.98251 0.53223 0.83566 0.0
C370 C 0.97375 0.54936 0.87079 0.0
C371 C 0.96484 0.5685 0.84013 0.0
C372 C 0.96414 0.56932 0.77406 0.0
Zn373 Zn 0.99656 0.50804 0.72472 0.0
O374 O 0.02758 0.50125 0.61166 0.0
C375 C 0.96365 0.48817 0.63578 0.0
O376 O 0.01263 0.53088 0.65307 0.0
H377 H 0.99008 0.51795 0.85965 0.0
H378 H 0.01791 0.46641 0.54739 0.0
H379 H 0.97248 0.55227 0.68986 0.0
O380 O 0.98115 0.47508 0.63197 0.0
O381 O 0.96464 0.50414 0.67256 0.0
H382 H 0.03852 0.43628 0.72007 0.0
O383 O 0.98109 0.48473 0.79601 0.0
O384 O 0.9966 0.45558 0.75387 0.0
O385 O 0.02866 0.51156 0.77472 0.0
O386 O 0.04388 0.4821 0.73343 0.0
C387 C 0.98382 0.46377 0.79746 0.0
H388 H 0.037 0.43722 0.4885 0.0
H389 H 0.05719 0.40575 0.66518 0.0
H390 H 0.97422 0.54765 0.92159 0.0
H391 H 0.95772 0.5838 0.74815 0.0
H392 H 0.16722 0.01923 0.3159 0.0
H393 H 0.20434 0.99008 0.47226 0.0
H394 H 0.12899 0.01584 0.37979 0.0
H395 H 0.16632 0.98707 0.53609 0.0
H396 H 0.10218 0.01485 0.65112 0.0
H397 H 0.13934 0.01438 0.58411 0.0
H398 H 0.09861 0.98833 0.43524 0.0
H399 H 0.06133 0.98882 0.50223 0.0
C400 C 0.16719 0.01175 0.36343 0.0
C401 C 0.18896 0.00519 0.38908 0.0
C402 C 0.14529 0.00988 0.40013 0.0
C403 C 0.14469 0.00148 0.46334 0.0
C404 C 0.16625 0.99406 0.48803 0.0
C405 C 0.18805 0.99579 0.45135 0.0
C406 C 0.10113 0.00892 0.60423 0.0
C407 C 0.07876 0.00185 0.58216 0.0
C408 C 0.12246 0.00854 0.5659 0.0
C409 C 0.12195 0.00127 0.50433 0.0
C410 C 0.09959 0.99418 0.48223 0.0
C411 C 0.07826 0.99434 0.52082 0.0
H412 H 0.41427 0.19646 0.39679 0.0
H413 H 0.48832 0.22101 0.35803 0.0
H414 H 0.42854 0.16323 0.45269 0.0
H415 H 0.50265 0.18801 0.41479 0.0
H416 H 0.52033 0.11587 0.47032 0.0
H417 H 0.50637 0.14841 0.41097 0.0
H418 H 0.44686 0.15283 0.54923 0.0
H419 H 0.46007 0.11959 0.60673 0.0
C420 C 0.4336 0.19474 0.40032 0.0
C421 C 0.45017 0.21132 0.37302 0.0
C422 C 0.4418 0.17577 0.43261 0.0
C423 C 0.46675 0.17301 0.43871 0.0
C424 C 0.48333 0.18943 0.41036 0.0
C425 C 0.47513 0.20835 0.37775 0.0
C426 C 0.50416 0.12369 0.48784 0.0
C427 C 0.49128 0.11503 0.54322 0.0
C428 C 0.4963 0.14251 0.45414 0.0
C429 C 0.47541 0.1532 0.47511 0.0
C430 C 0.4628 0.1448 0.53113 0.0
C431 C 0.4706 0.12593 0.5647 0.0
H432 H 0.32203 0.47508 0.34818 0.0
H433 H 0.30849 0.54551 0.35132 0.0
H434 H 0.35581 0.48006 0.4155 0.0
H435 H 0.34267 0.55053 0.41848 0.0
H436 H 0.42227 0.5499 0.48706 0.0
H437 H 0.38813 0.54789 0.41874 0.0
H438 H 0.35936 0.48885 0.52738 0.0
H439 H 0.39364 0.49053 0.59458 0.0
C440 C 0.32631 0.49165 0.36318 0.0
C441 C 0.3124 0.50985 0.34503 0.0
C442 C 0.34561 0.49448 0.40187 0.0
C443 C 0.3516 0.51561 0.42314 0.0
C444 C 0.33845 0.53405 0.40276 0.0
C445 C 0.31898 0.53119 0.36411 0.0
C446 C 0.40855 0.53658 0.49649 0.0
C447 C 0.4107 0.52031 0.546 0.0
C448 C 0.38896 0.53552 0.45764 0.0
C449 C 0.37127 0.51806 0.46727 0.0
C450 C 0.37295 0.5023 0.51823 0.0
C451 C 0.39241 0.50343 0.55723 0.0
H452 H 0.14862 0.32832 0.39614 0.0
H453 H 0.07708 0.30001 0.37073 0.0
H454 H 0.13061 0.35992 0.44583 0.0
H455 H 0.05903 0.33115 0.42167 0.0
H456 H 0.03291 0.39893 0.46826 0.0
H457 H 0.05213 0.36994 0.4106 0.0
H458 H 0.10932 0.36819 0.54139 0.0
H459 H 0.09093 0.39821 0.59665 0.0
C460 C 0.12904 0.32888 0.40126 0.0
C461 C 0.11425 0.31176 0.37942 0.0
C462 C 0.1187 0.3469 0.42997 0.0
C463 C 0.09334 0.34808 0.43803 0.0
C464 C 0.0786 0.33104 0.41534 0.0
C465 C 0.08894 0.31316 0.38616 0.0
C466 C 0.04979 0.39263 0.4842 0.0
C467 C 0.06034 0.40096 0.5372 0.0
C468 C 0.06066 0.37576 0.45156 0.0
C469 C 0.08226 0.36663 0.47137 0.0
C470 C 0.09286 0.375 0.52425 0.0
C471 C 0.08209 0.392 0.55661 0.0
H472 H 0.86088 0.00941 0.07715 0.0
H473 H 0.82633 0.03937 0.9177 0.0
H474 H 0.89619 0.0019 0.00825 0.0
H475 H 0.86163 0.03218 0.84915 0.0
H476 H 0.92198 0.99929 0.73491 0.0
H477 H 0.88527 0.00199 0.80324 0.0
H478 H 0.92876 0.02567 0.9501 0.0
H479 H 0.96529 0.02296 0.88236 0.0
C480 C 0.86071 0.01413 0.0273 0.0
C481 C 0.84092 0.02514 0.00296 0.0
C482 C 0.88099 0.01001 0.98793 0.0
C483 C 0.8818 0.01659 0.92325 0.0
C484 C 0.86157 0.02678 0.89859 0.0
C485 C 0.84143 0.03108 0.93799 0.0
C486 C 0.92369 0.00503 0.78181 0.0
C487 C 0.94659 0.01098 0.80299 0.0
C488 C 0.90266 0.00662 0.8209 0.0
C489 C 0.90409 0.01396 0.88224 0.0
C490 C 0.92702 0.01965 0.90351 0.0
C491 C 0.94797 0.01827 0.86436 0.0
H492 H 0.53856 0.82166 0.14013 0.0
H493 H 0.54846 0.7801 0.98255 0.0
H494 H 0.5383 0.85463 0.06765 0.0
H495 H 0.54842 0.81327 0.90984 0.0
H496 H 0.56439 0.88484 0.80792 0.0
H497 H 0.57001 0.85106 0.87549 0.0
H498 H 0.50698 0.86585 0.99202 0.0
H499 H 0.5011 0.89906 0.92459 0.0
C500 C 0.54093 0.8196 0.09001 0.0
C501 C 0.54316 0.79825 0.06704 0.0
C502 C 0.54076 0.83846 0.04854 0.0
C503 C 0.5429 0.83643 0.98311 0.0
C504 C 0.54676 0.81531 0.96007 0.0
C505 C 0.54685 0.79635 0.00171 0.0
C506 C 0.55158 0.88067 0.84749 0.0
C507 C 0.53251 0.89482 0.86143 0.0
C508 C 0.55486 0.86142 0.88623 0.0
C509 C 0.53922 0.85611 0.93969 0.0
C510 C 0.51972 0.86984 0.95214 0.0
C511 C 0.51635 0.88888 0.91343 0.0
H512 H 0.73714 0.41297 0.99392 0.0
H513 H 0.69101 0.43402 0.14767 0.0
H514 H 0.71035 0.42972 0.91854 0.0
H515 H 0.66398 0.45044 0.07255 0.0
H516 H 0.63285 0.49664 0.92735 0.0
H517 H 0.66264 0.4813 0.99651 0.0
H518 H 0.67061 0.42546 0.87859 0.0
H519 H 0.64114 0.44124 0.80857 0.0
C520 C 0.72108 0.42093 0.01158 0.0
C521 C 0.71615 0.42218 0.07671 0.0
C522 C 0.70575 0.43055 0.96839 0.0
C523 C 0.68508 0.44157 0.98939 0.0
C524 C 0.68002 0.44253 0.05464 0.0
C525 C 0.69543 0.43303 0.09777 0.0
C526 C 0.6412 0.48121 0.91595 0.0
C527 C 0.63463 0.47005 0.86288 0.0
C528 C 0.65811 0.47232 0.95577 0.0
C529 C 0.66872 0.45194 0.94376 0.0
C530 C 0.66291 0.44126 0.88907 0.0
C531 C 0.64607 0.45028 0.84888 0.0
H532 H 0.94302 0.66551 0.12424 0.0
H533 H 0.94291 0.70239 0.94399 0.0
H534 H 0.94115 0.6304 0.07155 0.0
H535 H 0.94122 0.6673 0.89126 0.0
H536 H 0.92801 0.59744 0.81918 0.0
H537 H 0.91812 0.63027 0.87718 0.0
H538 H 0.97507 0.61575 0.00264 0.0
H539 H 0.98562 0.58375 0.94404 0.0
C540 C 0.94183 0.66609 0.07356 0.0
C541 C 0.94335 0.68662 0.03807 0.0
C542 C 0.94096 0.64603 0.0434 0.0
C543 C 0.94136 0.64616 0.97731 0.0
C544 C 0.94082 0.66669 0.94224 0.0
C545 C 0.94192 0.68675 0.97235 0.0
C546 C 0.93848 0.60128 0.859 0.0
C547 C 0.9576 0.58781 0.87686 0.0
C548 C 0.93266 0.61997 0.89242 0.0
C549 C 0.94563 0.62537 0.94482 0.0
C550 C 0.96436 0.61169 0.96337 0.0
C551 C 0.97038 0.59327 0.92965 0.0
H552 H 0.10833 0.12675 0.447 0.0
H553 H 0.05179 0.17451 0.43006 0.0
H554 H 0.07809 0.09809 0.4862 0.0
H555 H 0.02191 0.14586 0.47381 0.0
H556 H 0.0038 0.08721 0.65473 0.0
H557 H 0.0229 0.1199 0.59495 0.0
H558 H 0.03446 0.08048 0.43388 0.0
H559 H 0.01468 0.04791 0.49282 0.0
C560 C 0.08952 0.1312 0.45103 0.0
C561 C 0.08265 0.15307 0.43481 0.0
C562 C 0.07224 0.11474 0.47367 0.0
C563 C 0.04776 0.11982 0.48196 0.0
C564 C 0.04073 0.14162 0.4672 0.0
C565 C 0.05795 0.15804 0.44305 0.0
C566 C 0.00932 0.08585 0.60555 0.0
C567 C 0.00781 0.06509 0.57829 0.0
C568 C 0.02028 0.1045 0.57154 0.0
C569 C 0.03026 0.10248 0.51034 0.0
C570 C 0.02681 0.08231 0.48111 0.0
C571 C 0.01533 0.06378 0.51464 0.0
H572 H 0.35241 0.98052 0.46681 0.0
H573 H 0.39618 0.99342 0.29359 0.0
H574 H 0.38854 0.97075 0.52174 0.0
H575 H 0.43231 0.98326 0.34811 0.0
H576 H 0.48521 0.00974 0.49353 0.0
H577 H 0.45265 0.00512 0.42307 0.0
H578 H 0.42399 0.94749 0.53859 0.0
H579 H 0.45695 0.95235 0.61013 0.0
C580 C 0.36967 0.9806 0.44014 0.0
C581 C 0.37163 0.98816 0.37635 0.0
C582 C 0.39036 0.97488 0.47148 0.0
C583 C 0.41334 0.97652 0.43942 0.0
C584 C 0.41491 0.98224 0.37432 0.0
C585 C 0.39428 0.98811 0.34317 0.0
C586 C 0.47234 0.99572 0.50302 0.0
C587 C 0.4734 0.98154 0.55749 0.0
C588 C 0.45373 0.99294 0.46233 0.0
C589 C 0.43561 0.97601 0.47541 0.0
C590 C 0.43761 0.9608 0.52765 0.0
C591 C 0.45652 0.96346 0.56825 0.0
H592 H 0.48739 0.35062 0.48753 0.0
H593 H 0.49111 0.39023 0.31115 0.0
H594 H 0.51032 0.38007 0.53561 0.0
H595 H 0.51451 0.41949 0.35856 0.0
H596 H 0.51057 0.47618 0.4989 0.0
H597 H 0.50171 0.44555 0.43342 0.0
H598 H 0.54742 0.40313 0.54284 0.0
H599 H 0.556 0.43408 0.60967 0.0
C600 C 0.49364 0.36541 0.4587 0.0
C601 C 0.48709 0.36837 0.39605 0.0
C602 C 0.50693 0.38223 0.48605 0.0
C603 C 0.51406 0.40225 0.45107 0.0
C604 C 0.5089 0.40446 0.38712 0.0
C605 C 0.49546 0.38775 0.36 0.0
C606 C 0.51928 0.4605 0.50797 0.0
C607 C 0.53376 0.45742 0.55973 0.0
C608 C 0.51431 0.44292 0.47014 0.0
C609 C 0.52364 0.42177 0.48327 0.0
C610 C 0.5397 0.41916 0.53211 0.0
C611 C 0.54483 0.43691 0.56992 0.0
H612 H 0.11743 0.55307 0.27871 0.0
H613 H 0.15716 0.54308 0.4467 0.0
H614 H 0.08126 0.56086 0.34343 0.0
H615 H 0.12123 0.55107 0.51099 0.0
H616 H 0.02802 0.51491 0.48626 0.0
H617 H 0.05948 0.52971 0.40947 0.0
H618 H 0.086 0.57426 0.54497 0.0
H619 H 0.05387 0.55947 0.62197 0.0
C620 C 0.11863 0.55317 0.3293 0.0
C621 C 0.13992 0.54685 0.35778 0.0
C622 C 0.09799 0.55778 0.36623 0.0
C623 C 0.09832 0.55621 0.43223 0.0
C624 C 0.12043 0.55255 0.46021 0.0
C625 C 0.14105 0.54788 0.42329 0.0
C626 C 0.03992 0.52856 0.49858 0.0
C627 C 0.03874 0.53603 0.55972 0.0
C628 C 0.05789 0.53716 0.45457 0.0
C629 C 0.07535 0.55304 0.47141 0.0
C630 C 0.0728 0.56199 0.5309 0.0
C631 C 0.05439 0.55365 0.57473 0.0
H632 H 0.01815 0.82907 0.911 0.0
H633 H 0.01601 0.86867 0.07383 0.0
H634 H 0.02551 0.86295 0.84245 0.0
H635 H 0.02258 0.90268 0.0055 0.0
H636 H 0.04705 0.96038 0.8682 0.0
H637 H 0.04887 0.92554 0.9329 0.0
H638 H 0.00124 0.89276 0.80921 0.0
H639 H 1.00011 0.92714 0.74384 0.0
C640 C 0.01942 0.84507 0.93202 0.0
C641 C 0.01637 0.84633 0.99753 0.0
C642 C 0.02352 0.86447 0.89286 0.0
C643 C 0.0243 0.88559 0.91836 0.0
C644 C 0.02234 0.88671 0.98424 0.0
C645 C 0.01852 0.86725 0.02345 0.0
C646 C 0.0372 0.94564 0.85457 0.0
C647 C 0.02336 0.94654 0.80104 0.0
C648 C 0.03814 0.92571 0.89179 0.0
C649 C 0.02518 0.90633 0.87637 0.0
C650 C 0.01181 0.90721 0.82199 0.0
C651 C 0.01099 0.92702 0.78468 0.0
H652 H 0.65544 0.08548 0.01012 0.0
H653 H 0.6709 0.01584 0.99461 0.0
H654 H 0.6178 0.07963 0.95664 0.0
H655 H 0.63421 0.0103 0.93903 0.0
H656 H 0.55814 0.99924 0.89169 0.0
H657 H 0.59106 0.00839 0.95826 0.0
H658 H 0.60398 0.07187 0.85271 0.0
H659 H 0.57038 0.06296 0.78715 0.0
C660 C 0.65083 0.06897 0.99527 0.0
C661 C 0.66624 0.05116 0.00633 0.0
C662 C 0.62939 0.06566 0.96424 0.0
C663 C 0.62291 0.04447 0.94396 0.0
C664 C 0.63839 0.02675 0.955 0.0
C665 C 0.65969 0.03002 0.98596 0.0
C666 C 0.56774 0.01531 0.88333 0.0
C667 C 0.56189 0.03027 0.83375 0.0
C668 C 0.58672 0.0205 0.92121 0.0
C669 C 0.60049 0.04065 0.90991 0.0
C670 C 0.59369 0.05623 0.86275 0.0
C671 C 0.57448 0.05111 0.82511 0.0
H672 H 0.4845 0.65099 0.98722 0.0
H673 H 0.52818 0.61405 0.11633 0.0
H674 H 0.48555 0.62022 0.91734 0.0
H675 H 0.52812 0.5829 0.04828 0.0
H676 H 0.54972 0.54573 0.87344 0.0
H677 H 0.54639 0.57475 0.94805 0.0
H678 H 0.47123 0.58206 0.90694 0.0
H679 H 0.47476 0.55337 0.8307 0.0
C680 C 0.4942 0.63627 0.00088 0.0
C681 C 0.50633 0.63504 0.05728 0.0
C682 C 0.49454 0.61851 0.96123 0.0
C683 C 0.50696 0.5991 0.97718 0.0
C684 C 0.51864 0.59771 0.0342 0.0
C685 C 0.5184 0.61548 0.07364 0.0
C686 C 0.53242 0.5534 0.88056 0.0
C687 C 0.51253 0.5473 0.84595 0.0
C688 C 0.53047 0.56997 0.92366 0.0
C689 C 0.50854 0.58076 0.93343 0.0
C690 C 0.48847 0.5743 0.89983 0.0
C691 C 0.49045 0.55775 0.85648 0.0
H692 H 0.90622 0.4058 0.13865 0.0
H693 H 0.86894 0.38373 0.97895 0.0
H694 H 0.94052 0.41989 0.06828 0.0
H695 H 0.90313 0.39789 0.90857 0.0
H696 H 0.97346 0.41874 0.79828 0.0
H697 H 0.94823 0.39585 0.87743 0.0
H698 H 0.9405 0.45318 0.9894 0.0
H699 H 0.96542 0.47598 0.91068 0.0
C700 C 0.9057 0.40336 0.08874 0.0
C701 C 0.8849 0.39386 0.06405 0.0
C702 C 0.92522 0.41155 0.0485 0.0
C703 C 0.92436 0.41015 0.98301 0.0
C704 C 0.90435 0.39907 0.95888 0.0
C705 C 0.88474 0.39111 0.99903 0.0
C706 C 0.96669 0.42631 0.84035 0.0
C707 C 0.97119 0.44918 0.84808 0.0
C708 C 0.95224 0.41324 0.88545 0.0
C709 C 0.94245 0.42275 0.93948 0.0
C710 C 0.94804 0.44533 0.94861 0.0
C711 C 0.96213 0.45843 0.90324 0.0
H712 H 0.09406 0.15299 0.16124 0.0
H713 H 0.13798 0.18062 0.9996 0.0
H714 H 0.08024 0.1223 0.10103 0.0
H715 H 0.12353 0.15002 0.93793 0.0
H716 H 0.10747 0.08122 0.86211 0.0
H717 H 0.12456 0.11009 0.92524 0.0
H718 H 0.05403 0.11658 0.01884 0.0
H719 H 0.03744 0.08712 0.95875 0.0
C720 C 0.10046 0.15264 0.11234 0.0
C721 C 0.11671 0.16939 0.08463 0.0
C722 C 0.09256 0.13503 0.07779 0.0
C723 C 0.10051 0.13381 0.01435 0.0
C724 C 0.11719 0.15037 0.98684 0.0
C725 C 0.12533 0.16795 0.02185 0.0
C726 C 0.09577 0.08857 0.89702 0.0
C727 C 0.07107 0.08193 0.90523 0.0
C728 C 0.10547 0.10532 0.93254 0.0
C729 C 0.09067 0.11571 0.97701 0.0
C730 C 0.06607 0.10878 0.98566 0.0
C731 C 0.05646 0.09204 0.95057 0.0
H732 H 0.36285 0.98864 0.07577 0.0
H733 H 0.33025 0.0326 0.93933 0.0
H734 H 0.39847 0.98671 0.0047 0.0
H735 H 0.36598 0.03051 0.86752 0.0
H736 H 0.4454 0.04327 0.7917 0.0
H737 H 0.40787 0.04347 0.85752 0.0
H738 H 0.41413 0.97319 0.90846 0.0
H739 H 0.45189 0.97316 0.84427 0.0
C740 C 0.36299 0.99746 0.02989 0.0
C741 C 0.34356 0.01071 0.0133 0.0
C742 C 0.38354 0.99641 0.98904 0.0
C743 C 0.38526 0.00853 0.93026 0.0
C744 C 0.36552 0.02127 0.91283 0.0
C745 C 0.34495 0.02238 0.95386 0.0
C746 C 0.43877 0.02787 0.81701 0.0
C747 C 0.45178 0.00825 0.81291 0.0
C748 C 0.41711 0.02793 0.85439 0.0
C749 C 0.40787 0.00834 0.88848 0.0
C750 C 0.42081 0.98868 0.88376 0.0
C751 C 0.44248 0.98865 0.84664 0.0
H752 H 0.48125 0.36972 0.08578 0.0
H753 H 0.42663 0.34739 0.96318 0.0
H754 H 0.49406 0.39983 0.00908 0.0
H755 H 0.43963 0.37789 0.8855 0.0
H756 H 0.45521 0.45169 0.80026 0.0
H757 H 0.44059 0.41959 0.87058 0.0
H758 H 0.51464 0.40437 0.90595 0.0
H759 H 0.52909 0.43636 0.83772 0.0
C760 C 0.47227 0.37096 0.0418 0.0
C761 C 0.4532 0.35587 0.03015 0.0
C762 C 0.47957 0.38832 0.99784 0.0
C763 C 0.46804 0.39113 0.94086 0.0
C764 C 0.44877 0.37622 0.92916 0.0
C765 C 0.44141 0.35873 0.97346 0.0
C766 C 0.46829 0.44141 0.82301 0.0
C767 C 0.49328 0.44676 0.81407 0.0
C768 C 0.45994 0.42297 0.86291 0.0
C769 C 0.47646 0.4096 0.89439 0.0
C770 C 0.50141 0.4146 0.88354 0.0
C771 C 0.5097 0.43295 0.84417 0.0
H772 H 0.15024 0.53309 0.03723 0.0
H773 H 0.19242 0.49627 0.90505 0.0
H774 H 0.11607 0.53153 0.97077 0.0
H775 H 0.15821 0.49517 0.83692 0.0
H776 H 0.08273 0.46961 0.78479 0.0
H777 H 0.11987 0.47585 0.83891 0.0
H778 H 0.09827 0.54254 0.87676 0.0
H779 H 0.06066 0.53589 0.82499 0.0
C780 C 0.15251 0.52533 0.99274 0.0
C781 C 0.17408 0.51482 0.97637 0.0
C782 C 0.13282 0.52438 0.95451 0.0
C783 C 0.13421 0.51303 0.89859 0.0
C784 C 0.15629 0.50363 0.88035 0.0
C785 C 0.17598 0.50441 0.91902 0.0
C786 C 0.08592 0.4856 0.80473 0.0
C787 C 0.06864 0.50216 0.80123 0.0
C788 C 0.10737 0.48929 0.83519 0.0
C789 C 0.11218 0.50974 0.86225 0.0
C790 C 0.09505 0.52646 0.85746 0.0
C791 C 0.07347 0.52266 0.82768 0.0
H792 H 0.93307 0.85427 0.23456 0.0
H793 H 0.92463 0.81886 0.41747 0.0
H794 H 0.93238 0.88975 0.28444 0.0
H795 H 0.92454 0.85448 0.46744 0.0
H796 H 0.92112 0.9233 0.54239 0.0
H797 H 0.90626 0.89194 0.48382 0.0
H798 H 0.96594 0.90476 0.34541 0.0
H799 H 0.98062 0.93578 0.40381 0.0
C800 C 0.9302 0.85401 0.2853 0.0
C801 C 0.9292 0.83371 0.32213 0.0
C802 C 0.93005 0.87438 0.31387 0.0
C803 C 0.92883 0.87489 0.37981 0.0
C804 C 0.92547 0.85464 0.41649 0.0
C805 C 0.92571 0.83423 0.3879 0.0
C806 C 0.9306 0.91967 0.49856 0.0
C807 C 0.95203 0.93179 0.47754 0.0
C808 C 0.92221 0.9017 0.46533 0.0
C809 C 0.93493 0.8959 0.41007 0.0
C810 C 0.95554 0.90897 0.38732 0.0
C811 C 0.96407 0.92663 0.4209 0.0
H812 H 0.68334 0.97901 0.36237 0.0
H813 H 0.69355 0.04657 0.41945 0.0
H814 H 0.64701 0.97399 0.4334 0.0
H815 H 0.65826 0.04113 0.49189 0.0
H816 H 0.57766 0.03687 0.54087 0.0
H817 H 0.6153 0.03866 0.47665 0.0
H818 H 0.63021 0.97156 0.54453 0.0
H819 H 0.59192 0.96958 0.60887 0.0
C820 C 0.67811 0.99268 0.39057 0.0
C821 C 0.69146 0.01325 0.38461 0.0
C822 C 0.65738 0.98971 0.43172 0.0
C823 C 0.64949 0.00727 0.46769 0.0
C824 C 0.66352 0.02738 0.46402 0.0
C825 C 0.6841 0.03037 0.42301 0.0
C826 C 0.58886 0.02242 0.54233 0.0
C827 C 0.58176 0.00311 0.58046 0.0
C828 C 0.61061 0.02353 0.50569 0.0
C829 C 0.62602 0.00539 0.50606 0.0
C830 C 0.61875 0.98582 0.5431 0.0
C831 C 0.59685 0.98471 0.58007 0.0
H832 H 0.57705 0.63435 0.33353 0.0
H833 H 0.57273 0.67574 0.49301 0.0
H834 H 0.58049 0.60148 0.40448 0.0
H835 H 0.57523 0.6425 0.56393 0.0
H836 H 0.52542 0.57769 0.62973 0.0
H837 H 0.53878 0.61224 0.57042 0.0
H838 H 0.60307 0.58084 0.50059 0.0
H839 H 0.5899 0.546 0.56225 0.0
C840 C 0.57779 0.63665 0.38344 0.0
C841 C 0.57407 0.65771 0.40757 0.0
C842 C 0.57972 0.61772 0.4241 0.0
C843 C 0.57775 0.61947 0.48953 0.0
C844 C 0.57655 0.64074 0.51353 0.0
C845 C 0.57494 0.65972 0.47291 0.0
C846 C 0.54257 0.5782 0.60238 0.0
C847 C 0.55656 0.55918 0.60005 0.0
C848 C 0.55033 0.59804 0.56901 0.0
C849 C 0.57204 0.59922 0.53147 0.0
C850 C 0.58635 0.58032 0.52969 0.0
C851 C 0.57883 0.56049 0.56469 0.0
H852 H 0.82622 0.44352 0.50208 0.0
H853 H 0.87151 0.45985 0.33265 0.0
H854 H 0.85755 0.45978 0.56468 0.0
H855 H 0.9022 0.47655 0.39479 0.0
H856 H 0.96267 0.46424 0.53209 0.0
H857 H 0.92855 0.45622 0.46892 0.0
H858 H 0.88287 0.49551 0.58647 0.0
H859 H 0.91749 0.50374 0.6506 0.0
C860 C 0.84261 0.45093 0.47811 0.0
C861 C 0.84642 0.45019 0.41239 0.0
C862 C 0.86042 0.46043 0.51388 0.0
C863 C 0.88239 0.46921 0.48459 0.0
C864 C 0.88553 0.46969 0.41866 0.0
C865 C 0.86779 0.46029 0.38299 0.0
C866 C 0.94543 0.47132 0.54452 0.0
C867 C 0.94275 0.48457 0.59651 0.0
C868 C 0.92591 0.46686 0.5079 0.0
C869 C 0.9031 0.47536 0.52249 0.0
C870 C 0.9003 0.48875 0.57428 0.0
C871 C 0.92007 0.49351 0.6107 0.0
loop_
_geom_bond_atom_site_label_1
_geom_bond_atom_site_label_2
_geom_bond_distance
_geom_bond_site_symmetry_2
_ccdc_geom_bond_type
P0 O11 1.490 . S
P0 C14 1.812 . S
P0 C20 1.803 . S
P0 C26 1.819 . S
H1 C15 0.941 . S
H2 C16 0.939 . S
H3 C18 0.940 . S
H4 C19 0.940 . S
H5 C21 0.939 . S
H6 C22 0.942 . S
H7 C24 0.940 . S
H8 C25 0.939 . S
H9 C27 0.941 . S
H10 C31 0.939 . S
O11 P0 1.490 . S
H12 C28 0.939 . S
H13 C30 0.940 1_556 S
C14 P0 1.812 . S
C14 C15 1.389 . S
C14 C19 1.391 . S
C15 H1 0.941 . S
C15 C14 1.389 . S
C15 C16 1.397 . S
C16 H2 0.939 . S
C16 C15 1.397 . S
C16 C17 1.378 . S
C17 C16 1.378 . S
C17 C18 1.378 . S
C18 H3 0.940 . S
C18 C17 1.378 . S
C18 C19 1.396 . S
C19 H4 0.940 . S
C19 C14 1.391 . S
C19 C18 1.396 . S
C20 P0 1.803 . S
C20 C21 1.378 . S
C20 C25 1.400 . S
C21 H5 0.939 . S
C21 C20 1.378 . S
C21 C22 1.361 . S
C22 H6 0.942 . S
C22 C21 1.361 . S
C22 C23 1.369 . S
C23 C22 1.369 . S
C23 C24 1.404 . S
C24 H7 0.940 . S
C24 C23 1.404 . S
C24 C25 1.389 . S
C25 H8 0.939 . S
C25 C20 1.400 . S
C25 C24 1.389 . S
C26 P0 1.819 . S
C26 C27 1.391 . S
C26 C31 1.391 . S
C27 H9 0.941 . S
C27 C26 1.391 . S
C27 C28 1.396 . S
C28 H12 0.939 . S
C28 C27 1.396 . S
C28 C29 1.397 . S
C29 C28 1.397 . S
C29 C30 1.385 . S
C30 H13 0.940 1_554 S
C30 C29 1.385 . S
C30 C31 1.388 . S
C31 H10 0.939 . S
C31 C26 1.391 . S
C31 C30 1.388 . S
P32 O43 1.489 . S
P32 C46 1.803 1_556 S
P32 C52 1.806 . S
P32 C58 1.825 . S
H33 C47 0.941 . S
H34 C48 0.939 . S
H35 C50 0.940 . S
H36 C51 0.940 . S
H37 C53 0.939 . S
H38 C54 0.942 . S
H39 C56 0.940 1_554 S
H40 C57 0.939 . S
H41 C59 0.941 . S
H42 C63 0.939 . S
O43 P32 1.489 . S
H44 C60 0.939 . S
H45 C62 0.940 . S
C46 P32 1.803 1_554 S
C46 C47 1.389 . S
C46 C51 1.391 . S
C47 H33 0.941 . S
C47 C46 1.389 . S
C47 C48 1.397 . S
C48 H34 0.939 . S
C48 C47 1.397 . S
C48 C49 1.378 . S
C49 C48 1.378 . S
C49 C50 1.378 . S
C50 H35 0.940 . S
C50 C49 1.378 . S
C50 C51 1.396 . S
C51 H36 0.940 . S
C51 C46 1.391 . S
C51 C50 1.396 . S
C52 P32 1.806 . S
C52 C53 1.378 . S
C52 C57 1.400 1_556 S
C53 H37 0.939 . S
C53 C52 1.378 . S
C53 C54 1.361 . S
C54 H38 0.942 . S
C54 C53 1.361 . S
C54 C55 1.369 . S
C55 C54 1.369 . S
C55 C56 1.404 . S
C56 H39 0.940 1_556 S
C56 C55 1.404 . S
C56 C57 1.389 1_556 S
C57 H40 0.939 . S
C57 C52 1.400 1_554 S
C57 C56 1.389 1_554 S
C58 P32 1.825 . S
C58 C59 1.391 . S
C58 C63 1.391 . S
C59 H41 0.941 . S
C59 C58 1.391 . S
C59 C60 1.396 . S
C60 H44 0.939 . S
C60 C59 1.396 . S
C60 C61 1.397 . S
C61 C60 1.397 . S
C61 C62 1.385 . S
C62 H45 0.940 . S
C62 C61 1.385 . S
C62 C63 1.388 . S
C63 H42 0.939 . S
C63 C58 1.391 . S
C63 C62 1.388 . S
P64 O75 1.490 . S
P64 C78 1.812 . S
P64 C84 1.803 . S
P64 C90 1.819 . S
H65 C79 0.941 . S
H66 C80 0.939 . S
H67 C82 0.940 . S
H68 C83 0.951 . S
H69 C85 0.939 . S
H70 C86 0.942 1_556 S
H71 C88 0.940 . S
H72 C89 0.957 . S
H73 C91 0.941 . S
H74 C95 0.928 1_565 S
O75 P64 1.490 . S
H76 C92 0.939 . S
H77 C94 0.940 . S
C78 P64 1.812 . S
C78 C79 1.389 . S
C78 C83 1.375 1_545 S
C79 H65 0.941 . S
C79 C78 1.389 . S
C79 C80 1.397 . S
C80 H66 0.939 . S
C80 C79 1.397 . S
C80 C81 1.378 . S
C81 C80 1.378 . S
C81 C82 1.378 1_545 S
C82 H67 0.940 . S
C82 C81 1.378 1_565 S
C82 C83 1.401 . S
C83 H68 0.951 . S
C83 C78 1.375 1_565 S
C83 C82 1.401 . S
C84 P64 1.803 . S
C84 C85 1.378 . S
C84 C89 1.369 1_545 S
C85 H69 0.939 . S
C85 C84 1.378 . S
C85 C86 1.361 . S
C86 H70 0.942 1_554 S
C86 C85 1.361 . S
C86 C87 1.369 . S
C87 C86 1.369 . S
C87 C88 1.404 1_545 S
C88 H71 0.940 . S
C88 C87 1.404 1_565 S
C88 C89 1.404 . S
C89 H72 0.957 . S
C89 C84 1.369 1_565 S
C89 C88 1.404 . S
C90 P64 1.819 . S
C90 C91 1.391 . S
C90 C95 1.391 1_554 S
C91 H73 0.941 . S
C91 C90 1.391 . S
C91 C92 1.396 1_554 S
C92 H76 0.939 . S
C92 C91 1.396 1_556 S
C92 C93 1.397 . S
C93 C92 1.397 . S
C93 C94 1.385 1_545 S
C94 H77 0.940 . S
C94 C93 1.385 1_565 S
C94 C95 1.388 1_565 S
C95 H74 0.928 1_545 S
C95 C90 1.391 1_556 S
C95 C94 1.388 1_545 S
P96 O107 1.490 . S
P96 C110 1.812 . S
P96 C116 1.803 . S
P96 C122 1.819 . S
H97 C111 0.941 . S
H98 C112 0.939 . S
H99 C114 0.940 . S
H100 C115 0.940 . S
H101 C117 0.939 . S
H102 C118 0.942 . S
H103 C120 0.940 . S
H104 C121 0.939 . S
H105 C123 0.941 . S
H106 C127 0.939 . S
O107 P96 1.490 . S
H108 C124 0.939 . S
H109 C126 0.940 . S
C110 P96 1.812 . S
C110 C111 1.389 . S
C110 C115 1.391 . S
C111 H97 0.941 . S
C111 C110 1.389 . S
C111 C112 1.397 . S
C112 H98 0.939 . S
C112 C111 1.397 . S
C112 C113 1.378 . S
C113 C112 1.378 . S
C113 C114 1.378 . S
C114 H99 0.940 . S
C114 C113 1.378 . S
C114 C115 1.396 . S
C115 H100 0.940 . S
C115 C110 1.391 . S
C115 C114 1.396 . S
C116 P96 1.803 . S
C116 C117 1.378 . S
C116 C121 1.400 . S
C117 H101 0.939 . S
C117 C116 1.378 . S
C117 C118 1.361 . S
C118 H102 0.942 . S
C118 C117 1.361 . S
C118 C119 1.369 . S
C119 C118 1.369 . S
C119 C120 1.404 . S
C120 H103 0.940 . S
C120 C119 1.404 . S
C120 C121 1.389 . S
C121 H104 0.939 . S
C121 C116 1.400 . S
C121 C120 1.389 . S
C122 P96 1.819 . S
C122 C123 1.391 . S
C122 C127 1.391 1_554 S
C123 H105 0.941 . S
C123 C122 1.391 . S
C123 C124 1.396 . S
C124 H108 0.939 . S
C124 C123 1.396 . S
C124 C125 1.397 1_554 S
C125 C124 1.397 1_556 S
C125 C126 1.385 . S
C126 H109 0.940 . S
C126 C125 1.385 . S
C126 C127 1.388 . S
C127 H106 0.939 . S
C127 C122 1.391 1_556 S
C127 C126 1.388 . S
P128 O139 1.490 . S
P128 C142 1.812 . S
P128 C148 1.803 . S
P128 C154 1.819 . S
H129 C143 0.941 . S
H130 C144 0.939 . S
H131 C146 0.940 . S
H132 C147 0.940 . S
H133 C149 0.939 . S
H134 C150 0.942 . S
H135 C152 0.940 . S
H136 C153 0.939 . S
H137 C155 0.941 . S
H138 C159 0.939 . S
O139 P128 1.490 . S
H140 C156 0.939 . S
H141 C158 0.940 . S
C142 P128 1.812 . S
C142 C143 1.389 . S
C142 C147 1.391 . S
C143 H129 0.941 . S
C143 C142 1.389 . S
C143 C144 1.397 . S
C144 H130 0.939 . S
C144 C143 1.397 . S
C144 C145 1.378 . S
C145 C144 1.378 . S
C145 C146 1.378 . S
C146 H131 0.940 . S
C146 C145 1.378 . S
C146 C147 1.396 . S
C147 H132 0.940 . S
C147 C142 1.391 . S
C147 C146 1.396 . S
C148 P128 1.803 . S
C148 C149 1.378 . S
C148 C153 1.400 . S
C149 H133 0.939 . S
C149 C148 1.378 . S
C149 C150 1.361 . S
C150 H134 0.942 . S
C150 C149 1.361 . S
C150 C151 1.369 . S
C151 C150 1.369 . S
C151 C152 1.404 . S
C152 H135 0.940 . S
C152 C151 1.404 . S
C152 C153 1.389 . S
C153 H136 0.939 . S
C153 C148 1.400 . S
C153 C152 1.389 . S
C154 P128 1.819 . S
C154 C155 1.391 . S
C154 C159 1.391 . S
C155 H137 0.941 . S
C155 C154 1.391 . S
C155 C156 1.396 . S
C156 H140 0.939 . S
C156 C155 1.396 . S
C156 C157 1.397 . S
C157 C156 1.397 . S
C157 C158 1.385 . S
C158 H141 0.940 . S
C158 C157 1.385 . S
C158 C159 1.388 . S
C159 H138 0.939 . S
C159 C154 1.391 . S
C159 C158 1.388 . S
P160 O171 1.490 . S
P160 C174 1.812 . S
P160 C180 1.803 . S
P160 C186 1.819 . S
H161 C175 0.941 . S
H162 C176 0.939 . S
H163 C178 0.940 . S
H164 C179 0.940 . S
H165 C181 0.939 . S
H166 C182 0.942 . S
H167 C184 0.940 . S
H168 C185 0.939 . S
H169 C187 0.941 . S
H170 C191 0.939 . S
O171 P160 1.490 . S
H172 C188 0.939 . S
H173 C190 0.940 . S
C174 P160 1.812 . S
C174 C175 1.389 . S
C174 C179 1.391 . S
C175 H161 0.941 . S
C175 C174 1.389 . S
C175 C176 1.397 . S
C176 H162 0.939 . S
C176 C175 1.397 . S
C176 C177 1.378 . S
C177 C176 1.378 . S
C177 C178 1.378 . S
C178 H163 0.940 . S
C178 C177 1.378 . S
C178 C179 1.396 . S
C179 H164 0.940 . S
C179 C174 1.391 . S
C179 C178 1.396 . S
C180 P160 1.803 . S
C180 C181 1.378 . S
C180 C185 1.400 . S
C181 H165 0.939 . S
C181 C180 1.378 . S
C181 C182 1.361 . S
C182 H166 0.942 . S
C182 C181 1.361 . S
C182 C183 1.369 . S
C183 C182 1.369 . S
C183 C184 1.404 . S
C184 H167 0.940 . S
C184 C183 1.404 . S
C184 C185 1.389 . S
C185 H168 0.939 . S
C185 C180 1.400 . S
C185 C184 1.389 . S
C186 P160 1.819 . S
C186 C187 1.391 . S
C186 C191 1.391 . S
C187 H169 0.941 . S
C187 C186 1.391 . S
C187 C188 1.396 . S
C188 H172 0.939 . S
C188 C187 1.396 . S
C188 C189 1.397 . S
C189 C188 1.397 . S
C189 C190 1.385 . S
C190 H173 0.940 . S
C190 C189 1.385 . S
C190 C191 1.388 . S
C191 H170 0.939 . S
C191 C186 1.391 . S
C191 C190 1.388 . S
P192 O203 1.490 . S
P192 C206 1.812 . S
P192 C212 1.803 . S
P192 C218 1.819 . S
H193 C207 0.941 . S
H194 C208 0.939 . S
H195 C210 0.940 . S
H196 C211 0.943 . S
H197 C213 0.939 . S
H198 C214 0.942 . S
H199 C216 0.940 . S
H200 C217 0.953 . S
H201 C219 0.941 . S
H202 C223 0.934 1_565 S
O203 P192 1.490 . S
H204 C220 0.939 . S
H205 C222 0.940 . S
C206 P192 1.812 . S
C206 C207 1.389 . S
C206 C211 1.386 1_545 S
C207 H193 0.941 . S
C207 C206 1.389 . S
C207 C208 1.397 . S
C208 H194 0.939 . S
C208 C207 1.397 . S
C208 C209 1.378 . S
C209 C208 1.378 . S
C209 C210 1.378 1_545 S
C210 H195 0.940 . S
C210 C209 1.378 1_565 S
C210 C211 1.399 . S
C211 H196 0.943 . S
C211 C206 1.386 1_565 S
C211 C210 1.399 . S
C212 P192 1.803 . S
C212 C213 1.378 . S
C212 C217 1.379 1_545 S
C213 H197 0.939 . S
C213 C212 1.378 . S
C213 C214 1.361 . S
C214 H198 0.942 . S
C214 C213 1.361 . S
C214 C215 1.369 . S
C215 C214 1.369 . S
C215 C216 1.404 1_545 S
C216 H199 0.940 . S
C216 C215 1.404 1_565 S
C216 C217 1.396 . S
C217 H200 0.953 . S
C217 C212 1.379 1_565 S
C217 C216 1.396 . S
C218 P192 1.819 . S
C218 C219 1.391 . S
C218 C223 1.391 . S
C219 H201 0.941 . S
C219 C218 1.391 . S
C219 C220 1.396 . S
C220 H204 0.939 . S
C220 C219 1.396 . S
C220 C221 1.397 . S
C221 C220 1.397 . S
C221 C222 1.385 1_545 S
C222 H205 0.940 . S
C222 C221 1.385 1_565 S
C222 C223 1.388 1_565 S
C223 H202 0.934 1_545 S
C223 C218 1.391 . S
C223 C222 1.388 1_545 S
P224 O235 1.490 . S
P224 C238 1.812 . S
P224 C244 1.803 . S
P224 C250 1.819 . S
H225 C239 0.941 . S
H226 C240 0.939 . S
H227 C242 0.940 . S
H228 C243 0.940 . S
H229 C245 0.939 . S
H230 C246 0.942 . S
H231 C248 0.940 . S
H232 C249 0.939 . S
H233 C251 0.941 . S
H234 C255 0.939 . S
O235 P224 1.490 . S
H236 C252 0.939 . S
H237 C254 0.940 . S
C238 P224 1.812 . S
C238 C239 1.389 . S
C238 C243 1.391 . S
C239 H225 0.941 . S
C239 C238 1.389 . S
C239 C240 1.397 . S
C240 H226 0.939 . S
C240 C239 1.397 . S
C240 C241 1.378 . S
C241 C240 1.378 . S
C241 C242 1.378 . S
C242 H227 0.940 . S
C242 C241 1.378 . S
C242 C243 1.396 . S
C243 H228 0.940 . S
C243 C238 1.391 . S
C243 C242 1.396 . S
C244 P224 1.803 . S
C244 C245 1.378 . S
C244 C249 1.400 . S
C245 H229 0.939 . S
C245 C244 1.378 . S
C245 C246 1.361 . S
C246 H230 0.942 . S
C246 C245 1.361 . S
C246 C247 1.369 . S
C247 C246 1.369 . S
C247 C248 1.404 . S
C248 H231 0.940 . S
C248 C247 1.404 . S
C248 C249 1.389 . S
C249 H232 0.939 . S
C249 C244 1.400 . S
C249 C248 1.389 . S
C250 P224 1.819 . S
C250 C251 1.391 . S
C250 C255 1.391 . S
C251 H233 0.941 . S
C251 C250 1.391 . S
C251 C252 1.396 . S
C252 H236 0.939 . S
C252 C251 1.396 . S
C252 C253 1.397 . S
C253 C252 1.397 . S
C253 C254 1.385 . S
C254 H237 0.940 . S
C254 C253 1.385 . S
C254 C255 1.388 . S
C255 H234 0.939 . S
C255 C250 1.391 . S
C255 C254 1.388 . S
C256 O272 1.251 . S
C256 O274 1.254 . S
N257 C258 1.333 . S
N257 C262 1.307 . S
N257 Zn263 2.020 1_655 S
C258 N257 1.333 . S
C258 C259 1.379 . S
C258 H276 0.952 1_655 S
C259 C258 1.379 . S
C259 C260 1.390 . S
C259 H286 0.949 . S
C260 C259 1.390 . S
C260 C261 1.357 . S
C261 C260 1.357 . S
C261 C262 1.370 . S
C261 H287 0.950 . S
C262 N257 1.307 . S
C262 C261 1.370 . S
C262 H280 0.947 . S
Zn263 N257 2.020 1_455 S
Zn263 O272 2.039 . S
Zn263 O278 2.034 . S
Zn263 O282 2.025 1_565 S
Zn263 O284 2.041 1_455 S
C264 O283 1.246 . S
C264 O284 1.225 1_545 S
N265 C266 1.307 . S
N265 C267 1.333 . S
N265 Zn271 2.020 . S
C266 N265 1.307 . S
C266 C270 1.370 . S
C266 H277 0.958 . S
C267 N265 1.333 . S
C267 C268 1.379 . S
C267 H275 0.952 . S
C268 C267 1.379 . S
C268 C269 1.390 . S
C268 H288 0.949 . S
C269 C268 1.390 . S
C269 C270 1.357 . S
C270 C266 1.370 . S
C270 C269 1.357 . S
C270 H289 0.950 . S
Zn271 N265 2.020 . S
Zn271 O274 2.025 1_545 S
Zn271 O279 2.024 . S
Zn271 O281 2.039 . S
Zn271 O283 2.034 1_455 S
O272 C256 1.251 . S
O272 Zn263 2.039 . S
C273 O278 1.246 . S
C273 O279 1.249 1_565 S
O274 C256 1.254 . S
O274 Zn271 2.025 1_565 S
H275 C267 0.952 . S
H276 C258 0.952 1_455 S
H277 C266 0.958 . S
O278 Zn263 2.034 . S
O278 C273 1.246 . S
O279 Zn271 2.024 . S
O279 C273 1.249 1_545 S
H280 C262 0.947 . S
O281 Zn271 2.039 . S
O281 C285 1.251 . S
O282 Zn263 2.025 1_545 S
O282 C285 1.254 . S
O283 C264 1.246 . S
O283 Zn271 2.034 1_655 S
O284 Zn263 2.041 1_655 S
O284 C264 1.225 1_565 S
C285 O281 1.251 . S
C285 O282 1.254 . S
H286 C259 0.949 . S
H287 C261 0.950 . S
H288 C268 0.949 . S
H289 C270 0.950 . S
C290 O306 1.251 1_565 S
C290 O308 1.254 . S
N291 C292 1.333 . S
N291 C296 1.307 . S
N291 Zn297 2.020 . S
C292 N291 1.333 . S
C292 C293 1.379 . S
C292 H310 0.952 . S
C293 C292 1.379 . S
C293 C294 1.390 . S
C293 H320 0.949 . S
C294 C293 1.390 . S
C294 C295 1.357 . S
C295 C294 1.357 . S
C295 C296 1.370 . S
C295 H321 0.950 . S
C296 N291 1.307 . S
C296 C295 1.370 . S
C296 H314 0.948 . S
Zn297 N291 2.020 . S
Zn297 O306 2.039 . S
Zn297 O312 2.034 . S
Zn297 O316 2.025 . S
Zn297 O318 2.024 . S
C298 O317 1.246 1_545 S
C298 O318 1.249 . S
N299 C300 1.307 . S
N299 C301 1.333 . S
N299 Zn305 2.020 . S
C300 N299 1.307 . S
C300 C304 1.370 . S
C300 H311 0.948 . S
C301 N299 1.333 . S
C301 C302 1.379 . S
C301 H309 0.952 . S
C302 C301 1.379 . S
C302 C303 1.390 . S
C302 H322 0.949 . S
C303 C302 1.390 . S
C303 C304 1.357 . S
C304 C300 1.370 . S
C304 C303 1.357 . S
C304 H323 0.950 . S
Zn305 N299 2.020 . S
Zn305 O308 2.025 . S
Zn305 O313 2.024 . S
Zn305 O315 2.039 . S
Zn305 O317 2.034 . S
O306 C290 1.251 1_545 S
O306 Zn297 2.039 . S
C307 O312 1.246 1_565 S
C307 O313 1.249 . S
O308 C290 1.254 . S
O308 Zn305 2.025 . S
H309 C301 0.952 . S
H310 C292 0.952 . S
H311 C300 0.948 . S
O312 Zn297 2.034 . S
O312 C307 1.246 1_545 S
O313 Zn305 2.024 . S
O313 C307 1.249 . S
H314 C296 0.948 . S
O315 Zn305 2.039 . S
O315 C319 1.251 1_565 S
O316 Zn297 2.025 . S
O316 C319 1.254 . S
O317 C298 1.246 1_565 S
O317 Zn305 2.034 . S
O318 Zn297 2.024 . S
O318 C298 1.249 . S
C319 O315 1.251 1_545 S
C319 O316 1.254 . S
H320 C293 0.949 . S
H321 C295 0.950 . S
H322 C302 0.949 . S
H323 C304 0.950 . S
C324 O340 1.251 . S
C324 O342 1.254 . S
N325 C326 1.333 . S
N325 C330 1.307 . S
N325 Zn331 2.020 . S
C326 N325 1.333 . S
C326 C327 1.379 . S
C326 H344 0.952 . S
C327 C326 1.379 . S
C327 C328 1.390 . S
C327 H354 0.949 . S
C328 C327 1.390 . S
C328 C329 1.357 . S
C329 C328 1.357 . S
C329 C330 1.370 . S
C329 H355 0.950 . S
C330 N325 1.307 . S
C330 C329 1.370 . S
C330 H348 0.948 . S
Zn331 N325 2.020 . S
Zn331 O340 2.039 . S
Zn331 O346 2.034 . S
Zn331 O350 2.025 . S
Zn331 O352 2.024 . S
C332 O351 1.246 . S
C332 O352 1.249 . S
N333 C334 1.307 . S
N333 C335 1.333 . S
N333 Zn339 2.020 . S
C334 N333 1.307 . S
C334 C338 1.370 . S
C334 H345 0.948 . S
C335 N333 1.333 . S
C335 C336 1.379 . S
C335 H343 0.952 . S
C336 C335 1.379 . S
C336 C337 1.390 . S
C336 H356 0.949 . S
C337 C336 1.390 . S
C337 C338 1.357 . S
C338 C334 1.370 . S
C338 C337 1.357 . S
C338 H357 0.950 . S
Zn339 N333 2.020 . S
Zn339 O342 2.025 . S
Zn339 O347 2.024 . S
Zn339 O349 2.039 . S
Zn339 O351 2.034 . S
O340 C324 1.251 . S
O340 Zn331 2.039 . S
C341 O346 1.246 . S
C341 O347 1.249 . S
O342 C324 1.254 . S
O342 Zn339 2.025 . S
H343 C335 0.952 . S
H344 C326 0.952 . S
H345 C334 0.948 . S
O346 Zn331 2.034 . S
O346 C341 1.246 . S
O347 Zn339 2.024 . S
O347 C341 1.249 . S
H348 C330 0.948 . S
O349 Zn339 2.039 . S
O349 C353 1.251 . S
O350 Zn331 2.025 . S
O350 C353 1.254 . S
O351 C332 1.246 . S
O351 Zn339 2.034 . S
O352 Zn331 2.024 . S
O352 C332 1.249 . S
C353 O349 1.251 . S
C353 O350 1.254 . S
H354 C327 0.949 . S
H355 C329 0.950 . S
H356 C336 0.949 . S
H357 C338 0.950 . S
C358 O374 1.251 . S
C358 O376 1.254 . S
N359 C360 1.333 . S
N359 C364 1.307 . S
N359 Zn365 2.020 . S
C360 N359 1.333 . S
C360 C361 1.379 . S
C360 H378 0.952 . S
C361 C360 1.379 . S
C361 C362 1.390 . S
C361 H388 0.949 . S
C362 C361 1.390 . S
C362 C363 1.357 . S
C363 C362 1.357 . S
C363 C364 1.370 . S
C363 H389 0.950 . S
C364 N359 1.307 . S
C364 C363 1.370 . S
C364 H382 0.948 . S
Zn365 N359 2.020 . S
Zn365 O374 2.039 . S
Zn365 O380 2.034 1_455 S
Zn365 O384 2.025 1_455 S
Zn365 O386 2.024 . S
C366 O385 1.246 . S
C366 O386 1.249 . S
N367 C368 1.307 . S
N367 C369 1.333 1_455 S
N367 Zn373 2.020 . S
C368 N367 1.307 . S
C368 C372 1.370 1_455 S
C368 H379 0.948 . S
C369 N367 1.333 1_655 S
C369 C370 1.379 . S
C369 H377 0.952 . S
C370 C369 1.379 . S
C370 C371 1.390 . S
C370 H390 0.949 . S
C371 C370 1.390 . S
C371 C372 1.357 . S
C372 C368 1.370 1_655 S
C372 C371 1.357 . S
C372 H391 0.950 . S
Zn373 N367 2.020 . S
Zn373 O376 2.025 . S
Zn373 O381 2.024 1_455 S
Zn373 O383 2.039 1_455 S
Zn373 O385 2.034 . S
O374 C358 1.251 . S
O374 Zn365 2.039 . S
C375 O380 1.246 . S
C375 O381 1.249 . S
O376 C358 1.254 . S
O376 Zn373 2.025 . S
H377 C369 0.952 . S
H378 C360 0.952 . S
H379 C368 0.948 . S
O380 Zn365 2.034 1_655 S
O380 C375 1.246 . S
O381 Zn373 2.024 1_655 S
O381 C375 1.249 . S
H382 C364 0.948 . S
O383 Zn373 2.039 1_655 S
O383 C387 1.251 . S
O384 Zn365 2.025 1_655 S
O384 C387 1.254 . S
O385 C366 1.246 . S
O385 Zn373 2.034 . S
O386 Zn365 2.024 . S
O386 C366 1.249 . S
C387 O383 1.251 . S
C387 O384 1.254 . S
H388 C361 0.949 . S
H389 C363 0.950 . S
H390 C370 0.949 . S
H391 C372 0.950 . S
H392 C400 0.950 . S
H393 C405 0.946 1_545 S
H394 C402 0.950 . S
H395 C404 0.950 . S
H396 C406 0.950 . S
H397 C408 0.950 . S
H398 C410 0.950 . S
H399 C411 0.950 . S
C400 H392 0.950 . S
C400 C401 1.386 . S
C400 C402 1.391 . S
C401 C400 1.386 . S
C401 C405 1.398 . S
C402 H394 0.950 . S
C402 C400 1.391 . S
C402 C403 1.400 . S
C403 C402 1.400 . S
C403 C404 1.398 . S
C403 C409 1.491 . S
C404 H395 0.950 . S
C404 C403 1.398 . S
C404 C405 1.391 . S
C405 H393 0.946 1_565 S
C405 C401 1.398 . S
C405 C404 1.391 . S
C406 H396 0.950 . S
C406 C407 1.386 . S
C406 C408 1.391 . S
C407 C406 1.386 . S
C407 C411 1.393 . S
C408 H397 0.950 . S
C408 C406 1.391 . S
C408 C409 1.400 . S
C409 C403 1.491 . S
C409 C408 1.400 . S
C409 C410 1.398 . S
C410 H398 0.950 . S
C410 C409 1.398 . S
C410 C411 1.391 . S
C411 H399 0.950 . S
C411 C407 1.393 . S
C411 C410 1.391 . S
H412 C420 0.950 . S
H413 C425 0.950 . S
H414 C422 0.950 . S
H415 C424 0.950 . S
H416 C426 0.950 . S
H417 C428 0.950 . S
H418 C430 0.950 . S
H419 C431 0.950 . S
C420 H412 0.950 . S
C420 C421 1.386 . S
C420 C422 1.391 . S
C421 C420 1.386 . S
C421 C425 1.393 . S
C422 H414 0.950 . S
C422 C420 1.391 . S
C422 C423 1.400 . S
C423 C422 1.400 . S
C423 C424 1.398 . S
C423 C429 1.491 . S
C424 H415 0.950 . S
C424 C423 1.398 . S
C424 C425 1.391 . S
C425 H413 0.950 . S
C425 C421 1.393 . S
C425 C424 1.391 . S
C426 H416 0.950 . S
C426 C427 1.386 . S
C426 C428 1.391 . S
C427 C426 1.386 . S
C427 C431 1.393 . S
C428 H417 0.950 . S
C428 C426 1.391 . S
C428 C429 1.400 . S
C429 C423 1.491 . S
C429 C428 1.400 . S
C429 C430 1.398 . S
C430 H418 0.950 . S
C430 C429 1.398 . S
C430 C431 1.391 . S
C431 H419 0.950 . S
C431 C427 1.393 . S
C431 C430 1.391 . S
H432 C440 0.950 . S
H433 C445 0.950 . S
H434 C442 0.950 . S
H435 C444 0.950 . S
H436 C446 0.950 . S
H437 C448 0.950 . S
H438 C450 0.950 . S
H439 C451 0.950 . S
C440 H432 0.950 . S
C440 C441 1.386 . S
C440 C442 1.391 . S
C441 C440 1.386 . S
C441 C445 1.393 . S
C442 H434 0.950 . S
C442 C440 1.391 . S
C442 C443 1.400 . S
C443 C442 1.400 . S
C443 C444 1.398 . S
C443 C449 1.491 . S
C444 H435 0.950 . S
C444 C443 1.398 . S
C444 C445 1.391 . S
C445 H433 0.950 . S
C445 C441 1.393 . S
C445 C444 1.391 . S
C446 H436 0.950 . S
C446 C447 1.386 . S
C446 C448 1.391 . S
C447 C446 1.386 . S
C447 C451 1.393 . S
C448 H437 0.950 . S
C448 C446 1.391 . S
C448 C449 1.400 . S
C449 C443 1.491 . S
C449 C448 1.400 . S
C449 C450 1.398 . S
C450 H438 0.950 . S
C450 C449 1.398 . S
C450 C451 1.391 . S
C451 H439 0.950 . S
C451 C447 1.393 . S
C451 C450 1.391 . S
H452 C460 0.950 . S
H453 C465 0.950 . S
H454 C462 0.950 . S
H455 C464 0.950 . S
H456 C466 0.950 . S
H457 C468 0.950 . S
H458 C470 0.950 . S
H459 C471 0.950 . S
C460 H452 0.950 . S
C460 C461 1.386 . S
C460 C462 1.391 . S
C461 C460 1.386 . S
C461 C465 1.393 . S
C462 H454 0.950 . S
C462 C460 1.391 . S
C462 C463 1.400 . S
C463 C462 1.400 . S
C463 C464 1.398 . S
C463 C469 1.491 . S
C464 H455 0.950 . S
C464 C463 1.398 . S
C464 C465 1.391 . S
C465 H453 0.950 . S
C465 C461 1.393 . S
C465 C464 1.391 . S
C466 H456 0.950 . S
C466 C467 1.386 . S
C466 C468 1.391 . S
C467 C466 1.386 . S
C467 C471 1.393 . S
C468 H457 0.950 . S
C468 C466 1.391 . S
C468 C469 1.400 . S
C469 C463 1.491 . S
C469 C468 1.400 . S
C469 C470 1.398 . S
C470 H458 0.950 . S
C470 C469 1.398 . S
C470 C471 1.391 . S
C471 H459 0.950 . S
C471 C467 1.393 . S
C471 C470 1.391 . S
H472 C480 0.950 1_565 S
H473 C485 0.950 . S
H474 C482 0.950 . S
H475 C484 0.950 . S
H476 C486 0.950 . S
H477 C488 0.950 . S
H478 C490 0.950 . S
H479 C491 0.950 . S
C480 H472 0.950 1_545 S
C480 C481 1.386 1_554 S
C480 C482 1.391 1_554 S
C481 C480 1.386 1_556 S
C481 C485 1.393 . S
C482 H474 0.950 . S
C482 C480 1.391 1_556 S
C482 C483 1.400 . S
C483 C482 1.400 . S
C483 C484 1.398 . S
C483 C489 1.491 . S
C484 H475 0.950 . S
C484 C483 1.398 . S
C484 C485 1.391 . S
C485 H473 0.950 . S
C485 C481 1.393 . S
C485 C484 1.391 . S
C486 H476 0.950 . S
C486 C487 1.386 . S
C486 C488 1.391 . S
C487 C486 1.386 . S
C487 C491 1.393 . S
C488 H477 0.950 . S
C488 C486 1.391 . S
C488 C489 1.400 . S
C489 C483 1.491 . S
C489 C488 1.400 . S
C489 C490 1.398 . S
C490 H478 0.950 . S
C490 C489 1.398 . S
C490 C491 1.391 . S
C491 H479 0.950 . S
C491 C487 1.393 . S
C491 C490 1.391 . S
H492 C500 0.950 . S
H493 C505 0.950 . S
H494 C502 0.950 1_554 S
H495 C504 0.950 . S
H496 C506 0.950 . S
H497 C508 0.950 . S
H498 C510 0.950 . S
H499 C511 0.950 . S
C500 H492 0.950 . S
C500 C501 1.386 . S
C500 C502 1.391 1_554 S
C501 C500 1.386 . S
C501 C505 1.393 1_554 S
C502 H494 0.950 1_556 S
C502 C500 1.391 1_556 S
C502 C503 1.400 . S
C503 C502 1.400 . S
C503 C504 1.398 . S
C503 C509 1.491 . S
C504 H495 0.950 . S
C504 C503 1.398 . S
C504 C505 1.391 . S
C505 H493 0.950 . S
C505 C501 1.393 1_556 S
C505 C504 1.391 . S
C506 H496 0.950 . S
C506 C507 1.386 . S
C506 C508 1.391 . S
C507 C506 1.386 . S
C507 C511 1.393 . S
C508 H497 0.950 . S
C508 C506 1.391 . S
C508 C509 1.400 . S
C509 C503 1.491 . S
C509 C508 1.400 . S
C509 C510 1.398 . S
C510 H498 0.950 . S
C510 C509 1.398 . S
C510 C511 1.391 . S
C511 H499 0.950 . S
C511 C507 1.393 . S
C511 C510 1.391 . S
H512 C520 0.950 . S
H513 C525 0.950 . S
H514 C522 0.950 . S
H515 C524 0.950 . S
H516 C526 0.950 . S
H517 C528 0.950 . S
H518 C530 0.950 . S
H519 C531 0.950 . S
C520 H512 0.950 . S
C520 C521 1.386 . S
C520 C522 1.391 1_554 S
C521 C520 1.386 . S
C521 C525 1.393 . S
C522 H514 0.950 . S
C522 C520 1.391 1_556 S
C522 C523 1.400 . S
C523 C522 1.400 . S
C523 C524 1.398 1_556 S
C523 C529 1.491 . S
C524 H515 0.950 . S
C524 C523 1.398 1_554 S
C524 C525 1.391 . S
C525 H513 0.950 . S
C525 C521 1.393 . S
C525 C524 1.391 . S
C526 H516 0.950 . S
C526 C527 1.386 . S
C526 C528 1.391 . S
C527 C526 1.386 . S
C527 C531 1.393 . S
C528 H517 0.950 . S
C528 C526 1.391 . S
C528 C529 1.400 . S
C529 C523 1.491 . S
C529 C528 1.400 . S
C529 C530 1.398 . S
C530 H518 0.950 . S
C530 C529 1.398 . S
C530 C531 1.391 . S
C531 H519 0.950 . S
C531 C527 1.393 . S
C531 C530 1.391 . S
H532 C540 0.950 1_554 S
H533 C545 0.950 . S
H534 C542 0.950 . S
H535 C544 0.950 . S
H536 C546 0.950 . S
H537 C548 0.950 . S
H538 C550 0.950 . S
H539 C551 0.950 . S
C540 H532 0.950 1_556 S
C540 C541 1.386 . S
C540 C542 1.391 . S
C541 C540 1.386 . S
C541 C545 1.393 . S
C542 H534 0.950 . S
C542 C540 1.391 . S
C542 C543 1.400 . S
C543 C542 1.400 . S
C543 C544 1.398 . S
C543 C549 1.491 . S
C544 H535 0.950 . S
C544 C543 1.398 . S
C544 C545 1.391 . S
C545 H533 0.950 . S
C545 C541 1.393 . S
C545 C544 1.391 . S
C546 H536 0.950 . S
C546 C547 1.386 . S
C546 C548 1.391 . S
C547 C546 1.386 . S
C547 C551 1.393 . S
C548 H537 0.950 . S
C548 C546 1.391 . S
C548 C549 1.400 . S
C549 C543 1.491 . S
C549 C548 1.400 . S
C549 C550 1.398 . S
C550 H538 0.950 . S
C550 C549 1.398 . S
C550 C551 1.391 . S
C551 H539 0.950 . S
C551 C547 1.393 . S
C551 C550 1.391 . S
H552 C560 0.950 . S
H553 C565 0.950 . S
H554 C562 0.950 . S
H555 C564 0.950 . S
H556 C566 0.950 1_655 S
H557 C568 0.950 . S
H558 C570 0.950 . S
H559 C571 0.950 . S
C560 H552 0.950 . S
C560 C561 1.386 . S
C560 C562 1.391 . S
C561 C560 1.386 . S
C561 C565 1.393 . S
C562 H554 0.950 . S
C562 C560 1.391 . S
C562 C563 1.400 . S
C563 C562 1.400 . S
C563 C564 1.398 . S
C563 C569 1.491 . S
C564 H555 0.950 . S
C564 C563 1.398 . S
C564 C565 1.391 . S
C565 H553 0.950 . S
C565 C561 1.393 . S
C565 C564 1.391 . S
C566 H556 0.950 1_455 S
C566 C567 1.386 . S
C566 C568 1.391 . S
C567 C566 1.386 . S
C567 C571 1.393 . S
C568 H557 0.950 . S
C568 C566 1.391 . S
C568 C569 1.400 . S
C569 C563 1.491 . S
C569 C568 1.400 . S
C569 C570 1.398 . S
C570 H558 0.950 . S
C570 C569 1.398 . S
C570 C571 1.391 . S
C571 H559 0.950 . S
C571 C567 1.393 . S
C571 C570 1.391 . S
H572 C580 0.950 . S
H573 C585 0.950 . S
H574 C582 0.950 . S
H575 C584 0.950 . S
H576 C586 0.957 . S
H577 C588 0.950 . S
H578 C590 0.950 . S
H579 C591 0.950 . S
C580 H572 0.950 . S
C580 C581 1.390 . S
C580 C582 1.391 . S
C581 C580 1.390 . S
C581 C585 1.390 1_565 S
C582 H574 0.950 . S
C582 C580 1.391 . S
C582 C583 1.400 . S
C583 C582 1.400 . S
C583 C584 1.398 1_565 S
C583 C589 1.491 . S
C584 H575 0.950 . S
C584 C583 1.398 1_545 S
C584 C585 1.391 . S
C585 H573 0.950 . S
C585 C581 1.390 1_545 S
C585 C584 1.391 . S
C586 H576 0.957 . S
C586 C587 1.377 1_545 S
C586 C588 1.394 . S
C587 C586 1.377 1_565 S
C587 C591 1.393 . S
C588 H577 0.950 . S
C588 C586 1.394 . S
C588 C589 1.400 1_545 S
C589 C583 1.491 . S
C589 C588 1.400 1_565 S
C589 C590 1.398 . S
C590 H578 0.950 . S
C590 C589 1.398 . S
C590 C591 1.391 . S
C591 H579 0.950 . S
C591 C587 1.393 . S
C591 C590 1.391 . S
H592 C600 0.950 . S
H593 C605 0.950 . S
H594 C602 0.950 . S
H595 C604 0.950 . S
H596 C606 0.950 . S
H597 C608 0.950 . S
H598 C610 0.950 . S
H599 C611 0.950 . S
C600 H592 0.950 . S
C600 C601 1.386 . S
C600 C602 1.391 . S
C601 C600 1.386 . S
C601 C605 1.393 . S
C602 H594 0.950 . S
C602 C600 1.391 . S
C602 C603 1.400 . S
C603 C602 1.400 . S
C603 C604 1.398 . S
C603 C609 1.491 . S
C604 H595 0.950 . S
C604 C603 1.398 . S
C604 C605 1.391 . S
C605 H593 0.950 . S
C605 C601 1.393 . S
C605 C604 1.391 . S
C606 H596 0.950 . S
C606 C607 1.386 . S
C606 C608 1.391 . S
C607 C606 1.386 . S
C607 C611 1.393 . S
C608 H597 0.950 . S
C608 C606 1.391 . S
C608 C609 1.400 . S
C609 C603 1.491 . S
C609 C608 1.400 . S
C609 C610 1.398 . S
C610 H598 0.950 . S
C610 C609 1.398 . S
C610 C611 1.391 . S
C611 H599 0.950 . S
C611 C607 1.393 . S
C611 C610 1.391 . S
H612 C620 0.950 . S
H613 C625 0.950 . S
H614 C622 0.950 . S
H615 C624 0.950 . S
H616 C626 0.950 . S
H617 C628 0.950 . S
H618 C630 0.950 . S
H619 C631 0.950 . S
C620 H612 0.950 . S
C620 C621 1.386 . S
C620 C622 1.391 . S
C621 C620 1.386 . S
C621 C625 1.393 . S
C622 H614 0.950 . S
C622 C620 1.391 . S
C622 C623 1.400 . S
C623 C622 1.400 . S
C623 C624 1.398 . S
C623 C629 1.491 . S
C624 H615 0.950 . S
C624 C623 1.398 . S
C624 C625 1.391 . S
C625 H613 0.950 . S
C625 C621 1.393 . S
C625 C624 1.391 . S
C626 H616 0.950 . S
C626 C627 1.386 . S
C626 C628 1.391 . S
C627 C626 1.386 . S
C627 C631 1.393 . S
C628 H617 0.950 . S
C628 C626 1.391 . S
C628 C629 1.400 . S
C629 C623 1.491 . S
C629 C628 1.400 . S
C629 C630 1.398 . S
C630 H618 0.950 . S
C630 C629 1.398 . S
C630 C631 1.391 . S
C631 H619 0.950 . S
C631 C627 1.393 . S
C631 C630 1.391 . S
H632 C640 0.950 . S
H633 C645 0.950 . S
H634 C642 0.950 . S
H635 C644 0.950 . S
H636 C646 0.943 1_455 S
H637 C648 0.950 . S
H638 C650 0.950 . S
H639 C651 0.950 . S
C640 H632 0.950 . S
C640 C641 1.386 . S
C640 C642 1.391 . S
C641 C640 1.386 . S
C641 C645 1.393 . S
C642 H634 0.950 . S
C642 C640 1.391 . S
C642 C643 1.400 . S
C643 C642 1.400 . S
C643 C644 1.398 . S
C643 C649 1.491 . S
C644 H635 0.950 . S
C644 C643 1.398 . S
C644 C645 1.391 . S
C645 H633 0.950 . S
C645 C641 1.393 . S
C645 C644 1.391 . S
C646 H636 0.943 1_655 S
C646 C647 1.386 1_655 S
C646 C648 1.391 . S
C647 C646 1.386 1_455 S
C647 C651 1.393 . S
C648 H637 0.950 . S
C648 C646 1.391 . S
C648 C649 1.400 . S
C649 C643 1.491 . S
C649 C648 1.400 . S
C649 C650 1.398 . S
C650 H638 0.950 . S
C650 C649 1.398 . S
C650 C651 1.391 1_655 S
C651 H639 0.950 . S
C651 C647 1.393 . S
C651 C650 1.391 1_455 S
H652 C660 0.950 . S
H653 C665 0.950 1_554 S
H654 C662 0.950 . S
H655 C664 0.950 . S
H656 C666 0.950 . S
H657 C668 0.950 . S
H658 C670 0.950 . S
H659 C671 0.950 . S
C660 H652 0.950 . S
C660 C661 1.386 1_545 S
C660 C662 1.391 . S
C661 C660 1.386 1_565 S
C661 C665 1.393 . S
C662 H654 0.950 . S
C662 C660 1.391 . S
C662 C663 1.400 . S
C663 C662 1.400 . S
C663 C664 1.398 1_545 S
C663 C669 1.491 . S
C664 H655 0.950 . S
C664 C663 1.398 1_565 S
C664 C665 1.391 . S
C665 H653 0.950 1_556 S
C665 C661 1.393 . S
C665 C664 1.391 . S
C666 H656 0.950 . S
C666 C667 1.386 . S
C666 C668 1.391 . S
C667 C666 1.386 . S
C667 C671 1.393 . S
C668 H657 0.950 . S
C668 C666 1.391 . S
C668 C669 1.400 . S
C669 C663 1.491 . S
C669 C668 1.400 . S
C669 C670 1.398 . S
C670 H658 0.950 . S
C670 C669 1.398 . S
C670 C671 1.391 . S
C671 H659 0.950 . S
C671 C667 1.393 . S
C671 C670 1.391 . S
H672 C680 0.950 . S
H673 C685 0.950 . S
H674 C682 0.950 . S
H675 C684 0.950 . S
H676 C686 0.950 . S
H677 C688 0.950 . S
H678 C690 0.950 . S
H679 C691 0.950 . S
C680 H672 0.950 . S
C680 C681 1.386 . S
C680 C682 1.391 . S
C681 C680 1.386 . S
C681 C685 1.393 . S
C682 H674 0.950 . S
C682 C680 1.391 . S
C682 C683 1.400 . S
C683 C682 1.400 . S
C683 C684 1.398 . S
C683 C689 1.491 . S
C684 H675 0.950 . S
C684 C683 1.398 . S
C684 C685 1.391 . S
C685 H673 0.950 . S
C685 C681 1.393 . S
C685 C684 1.391 . S
C686 H676 0.950 . S
C686 C687 1.386 . S
C686 C688 1.391 . S
C687 C686 1.386 . S
C687 C691 1.393 . S
C688 H677 0.950 . S
C688 C686 1.391 . S
C688 C689 1.400 . S
C689 C683 1.491 . S
C689 C688 1.400 . S
C689 C690 1.398 . S
C690 H678 0.950 . S
C690 C689 1.398 . S
C690 C691 1.391 . S
C691 H679 0.950 . S
C691 C687 1.393 . S
C691 C690 1.391 . S
H692 C700 0.950 . S
H693 C705 0.950 1_554 S
H694 C702 0.950 . S
H695 C704 0.950 . S
H696 C706 0.950 . S
H697 C708 0.950 . S
H698 C710 0.950 . S
H699 C711 0.950 . S
C700 H692 0.950 . S
C700 C701 1.386 . S
C700 C702 1.391 . S
C701 C700 1.386 . S
C701 C705 1.393 . S
C702 H694 0.950 . S
C702 C700 1.391 . S
C702 C703 1.400 . S
C703 C702 1.400 . S
C703 C704 1.398 . S
C703 C709 1.491 . S
C704 H695 0.950 . S
C704 C703 1.398 . S
C704 C705 1.391 . S
C705 H693 0.950 1_556 S
C705 C701 1.393 . S
C705 C704 1.391 . S
C706 H696 0.950 . S
C706 C707 1.386 . S
C706 C708 1.391 . S
C707 C706 1.386 . S
C707 C711 1.393 . S
C708 H697 0.950 . S
C708 C706 1.391 . S
C708 C709 1.400 . S
C709 C703 1.491 . S
C709 C708 1.400 . S
C709 C710 1.398 . S
C710 H698 0.950 . S
C710 C709 1.398 . S
C710 C711 1.391 . S
C711 H699 0.950 . S
C711 C707 1.393 . S
C711 C710 1.391 . S
H712 C720 0.950 . S
H713 C725 0.950 . S
H714 C722 0.950 . S
H715 C724 0.950 . S
H716 C726 0.950 . S
H717 C728 0.950 . S
H718 C730 0.950 . S
H719 C731 0.950 . S
C720 H712 0.950 . S
C720 C721 1.386 . S
C720 C722 1.391 . S
C721 C720 1.386 . S
C721 C725 1.393 . S
C722 H714 0.950 . S
C722 C720 1.391 . S
C722 C723 1.400 . S
C723 C722 1.400 . S
C723 C724 1.398 . S
C723 C729 1.491 . S
C724 H715 0.950 . S
C724 C723 1.398 . S
C724 C725 1.391 . S
C725 H713 0.950 . S
C725 C721 1.393 . S
C725 C724 1.391 . S
C726 H716 0.950 . S
C726 C727 1.386 . S
C726 C728 1.391 . S
C727 C726 1.386 . S
C727 C731 1.393 1_556 S
C728 H717 0.950 . S
C728 C726 1.391 . S
C728 C729 1.400 1_556 S
C729 C723 1.491 . S
C729 C728 1.400 1_554 S
C729 C730 1.398 . S
C730 H718 0.950 . S
C730 C729 1.398 . S
C730 C731 1.391 . S
C731 H719 0.950 . S
C731 C727 1.393 1_554 S
C731 C730 1.391 . S
H732 C740 0.950 . S
H733 C745 0.950 1_556 S
H734 C742 0.950 . S
H735 C744 0.950 . S
H736 C746 0.950 . S
H737 C748 0.950 . S
H738 C750 0.950 1_554 S
H739 C751 0.950 . S
C740 H732 0.950 . S
C740 C741 1.385 . S
C740 C742 1.391 . S
C741 C740 1.385 . S
C741 C745 1.393 1_565 S
C742 H734 0.950 . S
C742 C740 1.391 . S
C742 C743 1.400 1_564 S
C743 C742 1.400 1_546 S
C743 C744 1.398 . S
C743 C749 1.491 . S
C744 H735 0.950 . S
C744 C743 1.398 . S
C744 C745 1.391 1_556 S
C745 H733 0.950 1_554 S
C745 C741 1.393 1_545 S
C745 C744 1.391 1_554 S
C746 H736 0.950 . S
C746 C747 1.386 . S
C746 C748 1.391 . S
C747 C746 1.386 . S
C747 C751 1.393 1_545 S
C748 H737 0.950 . S
C748 C746 1.391 . S
C748 C749 1.400 . S
C749 C743 1.491 . S
C749 C748 1.400 . S
C749 C750 1.398 1_545 S
C750 H738 0.950 1_556 S
C750 C749 1.398 1_565 S
C750 C751 1.391 . S
C751 H739 0.950 . S
C751 C747 1.393 1_565 S
C751 C750 1.391 . S
H752 C760 0.950 . S
H753 C765 0.947 1_556 S
H754 C762 0.950 . S
H755 C764 0.950 . S
H756 C766 0.950 . S
H757 C768 0.950 . S
H758 C770 0.950 1_554 S
H759 C771 0.950 . S
C760 H752 0.950 . S
C760 C761 1.386 . S
C760 C762 1.391 . S
C761 C760 1.386 . S
C761 C765 1.399 . S
C762 H754 0.950 . S
C762 C760 1.391 . S
C762 C763 1.400 1_554 S
C763 C762 1.400 1_556 S
C763 C764 1.398 . S
C763 C769 1.491 . S
C764 H755 0.950 . S
C764 C763 1.398 . S
C764 C765 1.387 1_556 S
C765 H753 0.947 1_554 S
C765 C761 1.399 . S
C765 C764 1.387 1_554 S
C766 H756 0.950 . S
C766 C767 1.386 . S
C766 C768 1.391 . S
C767 C766 1.386 . S
C767 C771 1.393 . S
C768 H757 0.950 . S
C768 C766 1.391 . S
C768 C769 1.400 . S
C769 C763 1.491 . S
C769 C768 1.400 . S
C769 C770 1.398 . S
C770 H758 0.950 1_556 S
C770 C769 1.398 . S
C770 C771 1.391 . S
C771 H759 0.950 . S
C771 C767 1.393 . S
C771 C770 1.391 . S
H772 C780 0.950 . S
H773 C785 0.950 . S
H774 C782 0.950 . S
H775 C784 0.950 . S
H776 C786 0.950 . S
H777 C788 0.950 . S
H778 C790 0.950 . S
H779 C791 0.950 . S
C780 H772 0.950 . S
C780 C781 1.386 . S
C780 C782 1.391 . S
C781 C780 1.386 . S
C781 C785 1.393 1_554 S
C782 H774 0.950 . S
C782 C780 1.391 . S
C782 C783 1.400 1_554 S
C783 C782 1.400 1_556 S
C783 C784 1.398 . S
C783 C789 1.491 . S
C784 H775 0.950 . S
C784 C783 1.398 . S
C784 C785 1.391 . S
C785 H773 0.950 . S
C785 C781 1.393 1_556 S
C785 C784 1.391 . S
C786 H776 0.950 . S
C786 C787 1.386 . S
C786 C788 1.391 . S
C787 C786 1.386 . S
C787 C791 1.393 . S
C788 H777 0.950 . S
C788 C786 1.391 . S
C788 C789 1.400 . S
C789 C783 1.491 . S
C789 C788 1.400 . S
C789 C790 1.398 . S
C790 H778 0.950 . S
C790 C789 1.398 . S
C790 C791 1.391 . S
C791 H779 0.950 . S
C791 C787 1.393 . S
C791 C790 1.391 . S
H792 C800 0.950 . S
H793 C805 0.950 . S
H794 C802 0.950 . S
H795 C804 0.950 . S
H796 C806 0.950 . S
H797 C808 0.950 . S
H798 C810 0.950 . S
H799 C811 0.950 . S
C800 H792 0.950 . S
C800 C801 1.386 . S
C800 C802 1.391 . S
C801 C800 1.386 . S
C801 C805 1.393 . S
C802 H794 0.950 . S
C802 C800 1.391 . S
C802 C803 1.400 . S
C803 C802 1.400 . S
C803 C804 1.398 . S
C803 C809 1.491 . S
C804 H795 0.950 . S
C804 C803 1.398 . S
C804 C805 1.391 . S
C805 H793 0.950 . S
C805 C801 1.393 . S
C805 C804 1.391 . S
C806 H796 0.950 . S
C806 C807 1.386 . S
C806 C808 1.391 . S
C807 C806 1.386 . S
C807 C811 1.393 . S
C808 H797 0.950 . S
C808 C806 1.391 . S
C808 C809 1.400 . S
C809 C803 1.491 . S
C809 C808 1.400 . S
C809 C810 1.398 . S
C810 H798 0.950 . S
C810 C809 1.398 . S
C810 C811 1.391 . S
C811 H799 0.950 . S
C811 C807 1.393 . S
C811 C810 1.391 . S
H812 C820 0.950 . S
H813 C825 0.950 . S
H814 C822 0.950 . S
H815 C824 0.950 . S
H816 C826 0.950 . S
H817 C828 0.950 . S
H818 C830 0.950 . S
H819 C831 0.950 . S
C820 H812 0.950 . S
C820 C821 1.411 . S
C820 C822 1.391 . S
C821 C820 1.411 . S
C821 C825 1.366 1_565 S
C822 H814 0.950 . S
C822 C820 1.391 . S
C822 C823 1.400 . S
C823 C822 1.400 . S
C823 C824 1.398 1_565 S
C823 C829 1.491 . S
C824 H815 0.950 . S
C824 C823 1.398 1_545 S
C824 C825 1.391 . S
C825 H813 0.950 . S
C825 C821 1.366 1_545 S
C825 C824 1.391 . S
C826 H816 0.950 . S
C826 C827 1.386 1_545 S
C826 C828 1.391 . S
C827 C826 1.386 1_565 S
C827 C831 1.393 . S
C828 H817 0.950 . S
C828 C826 1.391 . S
C828 C829 1.400 1_545 S
C829 C823 1.491 . S
C829 C828 1.400 1_565 S
C829 C830 1.398 . S
C830 H818 0.950 . S
C830 C829 1.398 . S
C830 C831 1.391 . S
C831 H819 0.950 . S
C831 C827 1.393 . S
C831 C830 1.391 . S
H832 C840 0.950 . S
H833 C845 0.950 . S
H834 C842 0.950 . S
H835 C844 0.950 . S
H836 C846 0.950 . S
H837 C848 0.950 . S
H838 C850 0.950 . S
H839 C851 0.950 . S
C840 H832 0.950 . S
C840 C841 1.386 . S
C840 C842 1.391 . S
C841 C840 1.386 . S
C841 C845 1.393 . S
C842 H834 0.950 . S
C842 C840 1.391 . S
C842 C843 1.400 . S
C843 C842 1.400 . S
C843 C844 1.398 . S
C843 C849 1.491 . S
C844 H835 0.950 . S
C844 C843 1.398 . S
C844 C845 1.391 . S
C845 H833 0.950 . S
C845 C841 1.393 . S
C845 C844 1.391 . S
C846 H836 0.950 . S
C846 C847 1.386 . S
C846 C848 1.391 . S
C847 C846 1.386 . S
C847 C851 1.393 . S
C848 H837 0.950 . S
C848 C846 1.391 . S
C848 C849 1.400 . S
C849 C843 1.491 . S
C849 C848 1.400 . S
C849 C850 1.398 . S
C850 H838 0.950 . S
C850 C849 1.398 . S
C850 C851 1.391 . S
C851 H839 0.950 . S
C851 C847 1.393 . S
C851 C850 1.391 . S
H852 C860 0.950 . S
H853 C865 0.950 . S
H854 C862 0.950 . S
H855 C864 0.950 . S
H856 C866 0.950 . S
H857 C868 0.950 . S
H858 C870 0.950 . S
H859 C871 0.950 . S
C860 H852 0.950 . S
C860 C861 1.386 . S
C860 C862 1.391 . S
C861 C860 1.386 . S
C861 C865 1.393 . S
C862 H854 0.950 . S
C862 C860 1.391 . S
C862 C863 1.400 . S
C863 C862 1.400 . S
C863 C864 1.398 . S
C863 C869 1.491 . S
C864 H855 0.950 . S
C864 C863 1.398 . S
C864 C865 1.391 . S
C865 H853 0.950 . S
C865 C861 1.393 . S
C865 C864 1.391 . S
C866 H856 0.950 . S
C866 C867 1.386 . S
C866 C868 1.391 . S
C867 C866 1.386 . S
C867 C871 1.393 . S
C868 H857 0.950 . S
C868 C866 1.391 . S
C868 C869 1.400 . S
C869 C863 1.491 . S
C869 C868 1.400 . S
C869 C870 1.398 . S
C870 H858 0.950 . S
C870 C869 1.398 . S
C870 C871 1.391 . S
C871 H859 0.950 . S
C871 C867 1.393 . S
C871 C870 1.391 . S
C401 C215 1.828 1_565 S
C407 C273 1.847 . S
C427 C294 1.650 . S
C421 C247 1.651 . S
C447 C328 1.475 . S
C441 C151 1.417 . S
C467 C362 1.640 . S
C461 C183 1.644 . S
C487 C264 1.852 . S
C481 C87 1.812 1_556 S
C501 C119 1.570 . S
C507 C303 1.657 . S
C521 C23 1.464 . S
C527 C337 1.474 . S
C541 C55 1.548 . S
C547 C371 1.636 . S
C567 C285 0.542 . S
C561 C189 0.534 . S
C587 C290 0.518 . S
C581 C221 0.555 1_565 S
C607 C324 0.608 . S
C601 C253 0.618 . S
C621 C157 0.454 . S
C627 C358 0.160 . S
C641 C61 0.771 . S
C647 C256 0.567 . S
C667 C319 0.552 . S
C661 C93 0.593 1_565 S
C687 C353 0.635 . S
C681 C125 0.693 . S
C701 C29 0.177 1_556 S
C707 C387 0.162 . S
C721 C177 1.551 . S
C727 C269 1.576 . S
C741 C209 1.902 1_565 S
C747 C298 1.982 . S
C767 C332 1.722 . S
C761 C241 1.681 . S
C787 C366 1.760 . S
C781 C145 1.638 . S
C801 C49 1.460 . S
C807 C260 1.575 . S
C827 C307 1.982 . S
C821 C81 1.906 1_565 S
C847 C341 1.719 . S
C841 C113 1.620 . S
C861 C17 1.709 . S
C867 C375 1.760 . S
