# Generated by pormake.
# Topology tsx, (6,3)-cn, num edge types: 1
# Building blocks:
#     Node 0, Type 0, BuildingBlock: FUNLAD_clean_sbu_0, # of connection points: 6
#     Node 1, Type 0, BuildingBlock: FUNLAD_clean_sbu_0, # of connection points: 6
#     Node 2, Type 1, BuildingBlock: CUQRIR_clean_linker_1, # of connection points: 3
#     Node 3, Type 1, BuildingBlock: CUQRIR_clean_linker_1, # of connection points: 3
#     Node 4, Type 1, BuildingBlock: CUQRIR_clean_linker_1, # of connection points: 3
#     Node 5, Type 1, BuildingBlock: CUQRIR_clean_linker_1, # of connection points: 3
#     Edge 6, Type (0, 1), BuildingBlock: EZIPEK_clean_linker_0, # of connection points: 2
#     Edge 7, Type (0, 1), BuildingBlock: EZIPEK_clean_linker_0, # of connection points: 2
#     Edge 8, Type (0, 1), BuildingBlock: EZIPEK_clean_linker_0, # of connection points: 2
#     Edge 9, Type (0, 1), BuildingBlock: EZIPEK_clean_linker_0, # of connection points: 2
#     Edge 10, Type (0, 1), BuildingBlock: EZIPEK_clean_linker_0, # of connection points: 2
#     Edge 11, Type (0, 1), BuildingBlock: EZIPEK_clean_linker_0, # of connection points: 2
#     Edge 12, Type (0, 1), BuildingBlock: EZIPEK_clean_linker_0, # of connection points: 2
#     Edge 13, Type (0, 1), BuildingBlock: EZIPEK_clean_linker_0, # of connection points: 2
#     Edge 14, Type (0, 1), BuildingBlock: EZIPEK_clean_linker_0, # of connection points: 2
#     Edge 15, Type (0, 1), BuildingBlock: EZIPEK_clean_linker_0, # of connection points: 2
#     Edge 16, Type (0, 1), BuildingBlock: EZIPEK_clean_linker_0, # of connection points: 2
#     Edge 17, Type (0, 1), BuildingBlock: EZIPEK_clean_linker_0, # of connection points: 2
# Relax obj value: 0.164
# Max RMSD: 0.164
# Mean RMSD: 0.145
data_MOF--net-tsx--node1-FUNLAD_clean_sbu_0--node2-CUQRIR_clean_linker_1--edge1-EZIPEK_clean_linker_0
_symmetry_space_group_name_H-M    P1
_symmetry_Int_Tables_number       1
_symmetry_cell_setting            triclinic
loop_
_symmetry_equiv_pos_as_xyz
'x, y, z'
_cell_length_a     12.327405
_cell_length_b     13.144715
_cell_length_c     30.097944
_cell_angle_alpha  78.26474
_cell_angle_beta   90.853607
_cell_angle_gamma 89.705354
loop_
_atom_site_label
_atom_site_type_symbol
_atom_site_fract_x
_atom_site_fract_y
_atom_site_fract_z
_atom_type_partial_charge
C0 C 0.8808 0.91737 -0.01017 0.0
N1 N 0.03575 1.00289 0.09146 0.0
C2 C 1.00054 0.07745 0.11324 0.0
C3 C 0.99297 0.05643 0.16005 0.0
C4 C 0.02547 0.95897 0.18499 0.0
C5 C 0.06103 0.88248 0.16221 0.0
C6 C 0.06417 0.90599 0.11478 0.0
Zn7 Zn 0.0435 0.04229 0.02285 0.0
C8 C 0.2003 0.92021 -0.02282 0.0
N9 N 0.0496 0.12262 0.87993 0.0
C10 C 0.03235 0.04604 0.8564 0.0
C11 C 0.07743 0.22032 0.85844 0.0
C12 C 0.08946 0.24376 0.81135 0.0
C13 C 0.07228 0.16571 0.7866 0.0
C14 C 0.0431 0.06614 0.80948 0.0
Zn15 Zn 0.04029 0.0848 0.94889 0.0
O16 O 0.92147 0.94727 0.02306 0.0
C17 C 0.8907 0.22291 -0.02363 0.0
O18 O 0.9143 0.957 0.94974 0.0
H19 H 0.09142 0.27988 0.87778 0.0
H20 H 0.98073 0.15447 0.0946 0.0
H21 H 0.01229 0.96859 0.87414 0.0
O22 O 0.92421 0.17951 0.01648 0.0
O23 O 0.9225 0.18792 0.94321 0.0
H24 H 0.09102 0.84747 0.09677 0.0
O25 O 0.16419 0.20746 0.96016 0.0
O26 O 0.16369 0.13296 0.03207 0.0
O27 O 0.15949 0.98627 0.94561 0.0
O28 O 0.16592 0.91476 0.01772 0.0
C29 C 0.19917 0.20211 0.00115 0.0
H30 H 0.96682 0.11751 0.17695 0.0
H31 H 0.08811 0.80706 0.18082 0.0
H32 H 0.11165 0.32145 0.79448 0.0
H33 H 0.03006 1.00418 0.79115 0.0
C34 C 0.34386 0.42681 0.48487 0.0
N35 N 0.48771 0.50296 0.59365 0.0
C36 C 0.46724 0.57743 0.61782 0.0
C37 C 0.47728 0.5544 0.66484 0.0
C38 C 0.5098 0.45434 0.68698 0.0
C39 C 0.52557 0.3773 0.66175 0.0
C40 C 0.51309 0.40344 0.61457 0.0
Zn41 Zn 0.49858 0.54726 0.52532 0.0
C42 C 0.66377 0.42422 0.48251 0.0
N43 N 0.52996 0.63652 0.38227 0.0
C44 C 0.50975 0.56084 0.35851 0.0
C45 C 0.56416 0.73242 0.36108 0.0
C46 C 0.57985 0.75457 0.31406 0.0
C47 C 0.55838 0.67747 0.2891 0.0
C48 C 0.52285 0.57999 0.31176 0.0
Zn49 Zn 0.51311 0.59648 0.45121 0.0
O50 O 0.38089 0.44634 0.52111 0.0
C51 C 0.3521 0.73147 0.47827 0.0
O52 O 0.38132 0.47621 0.44692 0.0
H53 H 0.58036 0.79133 0.38063 0.0
H54 H 0.44871 0.65611 0.60051 0.0
H55 H 0.48532 0.48448 0.3759 0.0
O56 O 0.37244 0.67917 0.51869 0.0
O57 O 0.40053 0.70752 0.4455 0.0
H58 H 0.52825 0.3453 0.59463 0.0
O59 O 0.64241 0.71013 0.466 0.0
O60 O 0.61525 0.64322 0.53762 0.0
O61 O 0.62724 0.48984 0.44957 0.0
O62 O 0.62656 0.42397 0.52216 0.0
C63 C 0.66453 0.7065 0.50827 0.0
H64 H 0.46516 0.61546 0.6837 0.0
H65 H 0.55113 0.29957 0.67811 0.0
H66 H 0.60839 0.83036 0.29743 0.0
H67 H 0.50692 0.51858 0.29342 0.0
C68 C 0.03569 0.1387 0.40604 0.0
N69 N 0.06584 0.05826 0.38704 0.0
N70 N 0.93225 0.16923 0.39465 0.0
C71 C 0.11501 0.20425 0.42541 0.0
C72 C 0.90413 0.11237 0.36369 0.0
N73 N 0.98501 0.04497 0.35894 0.0
C74 C 0.80021 0.12757 0.33631 0.0
H75 H 0.07426 0.24876 0.4477 0.0
H76 H 0.15125 0.2609 0.39726 0.0
H77 H 0.18134 0.15599 0.4435 0.0
H78 H 0.81529 0.12406 0.3004 0.0
H79 H 0.76145 0.20314 0.33785 0.0
H80 H 0.74334 0.0644 0.35027 0.0
C81 C 0.02102 1.02797 0.55333 0.0
N82 N 0.07672 0.09689 0.57235 0.0
N83 N 0.96207 0.96293 0.58383 0.0
C84 C 0.01272 1.03332 0.50418 0.0
C85 C 0.9841 0.99336 0.6232 0.0
N86 N 0.05265 0.07578 0.61632 0.0
C87 C 0.9336 0.9465 0.66773 0.0
H88 H 0.09511 1.0243 0.49166 0.0
H89 H 0.97858 0.11058 0.48973 0.0
H90 H 0.95867 0.97379 0.49526 0.0
H91 H 0.90772 0.86557 0.66813 0.0
H92 H 0.86105 0.99302 0.67264 0.0
H93 H 0.99151 0.94763 0.69622 0.0
C94 C 0.59305 0.64261 0.90539 0.0
N95 N 0.61916 0.56047 0.88666 0.0
N96 N 0.49418 0.68215 0.89075 0.0
C97 C 0.67179 0.69645 0.93123 0.0
C98 C 0.46557 0.62806 0.85888 0.0
N99 N 0.53971 0.55271 0.85697 0.0
C100 C 0.36606 0.65154 0.82889 0.0
H101 H 0.72083 0.7513 0.90677 0.0
H102 H 0.72832 0.64125 0.95276 0.0
H103 H 0.628 0.74312 0.95168 0.0
H104 H 0.33467 0.73085 0.82884 0.0
H105 H 0.30184 0.59482 0.84171 0.0
H106 H 0.38436 0.6448 0.79361 0.0
C107 C 0.52716 0.54124 0.05327 0.0
N108 N 0.57751 0.60917 0.07453 0.0
N109 N 0.45811 0.48068 0.0807 0.0
C110 C 0.53897 0.53907 0.00479 0.0
C111 C 0.46748 0.51302 0.12035 0.0
N112 N 0.53977 0.59188 0.11669 0.0
C113 C 0.40459 0.46922 0.16213 0.0
H114 H 0.48594 0.48139 -0.00621 0.0
H115 H 0.62429 0.52177 -0.00181 0.0
H116 H 0.51467 0.61673 -0.01353 0.0
H117 H 0.37248 0.39123 0.16068 0.0
H118 H 0.33535 0.52196 0.16457 0.0
H119 H 0.45652 0.46428 0.19295 0.0
C120 C 0.21984 0.36823 0.02939 0.0
C121 C 0.26943 0.27881 0.01785 0.0
C122 C 0.4322 0.30923 0.06208 0.0
C123 C 0.38746 0.40513 0.06725 0.0
N124 N 0.24444 0.53227 0.05312 0.0
N125 N 0.40786 0.14548 0.03831 0.0
C126 C 0.28278 0.43617 0.05023 0.0
C127 C 0.37204 0.24409 0.03838 0.0
N128 N 0.10999 0.38193 0.02561 0.0
N129 N 0.53442 0.28295 0.07888 0.0
H130 H 0.36546 0.0941 0.02263 0.0
H131 H 0.47514 0.1107 0.05664 0.0
H132 H 0.5772 0.3278 0.09803 0.0
H133 H 0.57847 0.21936 0.07317 0.0
H134 H 0.06834 0.44033 0.03719 0.0
H135 H 0.05867 0.32647 0.01697 0.0
H136 H 0.17318 0.5644 0.03707 0.0
H137 H 0.28778 0.58284 0.06919 0.0
C138 C 0.37761 0.90118 0.93983 0.0
C139 C 0.28388 0.85256 0.96219 0.0
C140 C 0.33058 0.69218 0.93697 0.0
C141 C 0.42252 0.74077 0.91412 0.0
N142 N 0.52053 0.89596 0.8851 0.0
N143 N 0.14872 0.72189 0.95933 0.0
C144 C 0.44269 0.84672 0.91331 0.0
C145 C 0.25413 0.75295 0.955 0.0
N146 N 0.40099 1.00154 0.94211 0.0
N147 N 0.31503 0.588 0.941 0.0
H148 H 0.08685 0.77232 0.96405 0.0
H149 H 0.12042 0.65382 0.95065 0.0
H150 H 0.37081 0.53919 0.93005 0.0
H151 H 0.25122 0.54841 0.95887 0.0
H152 H 0.47119 0.03987 0.92966 0.0
H153 H 0.35095 0.04677 0.95788 0.0
H154 H 0.5654 0.85776 0.86422 0.0
H155 H 0.5356 0.97526 0.87945 0.0
C156 C 0.68956 0.86323 0.00848 0.0
C157 C 0.79898 0.83377 0.00265 0.0
C158 C 0.76058 0.65728 0.04518 0.0
C159 C 0.65369 0.68748 0.05341 0.0
N160 N 0.50991 0.81346 0.03826 0.0
N161 N 0.94432 0.71356 0.03335 0.0
C162 C 0.6168 0.7898 0.03433 0.0
C163 C 0.83608 0.73352 0.02562 0.0
N164 N 0.65672 0.96248 -0.00991 0.0
N165 N 0.79016 0.55479 0.05495 0.0
H166 H 1.00311 0.77033 0.02533 0.0
H167 H 0.97441 0.64499 0.05357 0.0
H168 H 0.73741 0.49567 0.06901 0.0
H169 H 0.86348 0.52794 0.04462 0.0
H170 H 0.58363 0.99495 -0.00287 0.0
H171 H 0.7053 1.01431 0.96823 0.0
H172 H 0.47529 0.88647 0.02701 0.0
H173 H 0.45361 0.75722 0.0518 0.0
C174 C 0.7087 0.30816 0.964 0.0
C175 C 0.82294 0.31908 0.96378 0.0
C176 C 0.80337 0.48849 0.91024 0.0
C177 C 0.68978 0.47547 0.90896 0.0
N178 N 0.53283 0.3798 0.93342 0.0
N179 N 0.9797 0.41041 0.92822 0.0
C180 C 0.64263 0.38566 0.93545 0.0
C181 C 0.87033 0.40768 0.93514 0.0
N182 N 0.66515 0.22037 -0.0105 0.0
N183 N 0.84778 0.57878 0.88757 0.0
H184 H 0.03259 0.35272 0.94437 0.0
H185 H 0.01765 0.46466 0.90337 0.0
H186 H 0.80241 0.63605 0.86629 0.0
H187 H 0.92743 0.6006 0.89254 0.0
H188 H 0.5849 0.19817 -0.01233 0.0
H189 H 0.71151 0.16716 0.01271 0.0
H190 H 0.48597 0.32058 0.95176 0.0
H191 H 0.48597 0.32058 0.95176 0.0
C192 C 0.70075 0.86062 0.5441 0.0
C193 C 0.74242 0.77454 0.52707 0.0
C194 C 0.91856 0.79629 0.5639 0.0
C195 C 0.88213 0.89111 0.57301 0.0
N196 N 0.73974 1.01422 0.57519 0.0
N197 N 0.87574 0.63601 0.53893 0.0
C198 C 0.77303 0.92303 0.56448 0.0
C199 C 0.84761 0.73484 0.54226 0.0
N200 N 0.59125 0.87813 0.54368 0.0
N201 N 0.02309 0.7692 0.57625 0.0
H202 H 0.94699 0.59831 0.55205 0.0
H203 H 0.82261 0.58692 0.52648 0.0
H204 H 0.06232 0.70221 0.57128 0.0
H205 H 0.06232 0.70221 0.57128 0.0
H206 H 0.55425 0.93459 0.5581 0.0
H207 H 0.53517 0.82858 0.53324 0.0
H208 H 0.66189 0.04493 0.56935 0.0
H209 H 0.79184 0.06171 0.58927 0.0
C210 C 0.7217 0.24498 0.47348 0.0
C211 C 0.74684 0.35143 0.47036 0.0
C212 C 0.88315 0.3389 0.41227 0.0
C213 C 0.86371 0.23162 0.41773 0.0
N214 N 0.76869 0.07894 0.45453 0.0
N215 N 0.86288 0.49647 0.44109 0.0
C216 C 0.7838 0.18367 0.44861 0.0
C217 C 0.83189 0.39676 0.44128 0.0
N218 N 0.63532 0.20382 0.49859 0.0
N219 N 0.9469 0.38627 0.37748 0.0
H220 H 0.82442 0.54295 0.46028 0.0
H221 H 0.93157 0.53041 0.42479 0.0
H222 H 0.98222 0.34536 0.35502 0.0
H223 H 0.9565 0.46637 0.36819 0.0
H224 H 0.60204 0.13197 0.49736 0.0
H225 H 0.59329 0.24362 0.51963 0.0
H226 H 0.71443 1.03731 0.47709 0.0
H227 H 0.81439 1.0313 0.43815 0.0
C228 C 0.15741 0.36329 0.50626 0.0
C229 C 0.26204 0.34197 0.49129 0.0
C230 C 0.24378 0.15873 0.5298 0.0
C231 C 0.14174 0.18145 0.54733 0.0
N232 N 0.98743 0.29582 0.54 0.0
N233 N 0.38997 0.21632 0.47711 0.0
C234 C 0.09474 0.28166 0.5324 0.0
C235 C 0.30119 0.23856 0.5 0.0
N236 N 0.11764 0.46204 0.4941 0.0
N237 N 0.28456 0.05986 0.54095 0.0
H238 H 0.43024 0.27382 0.45433 0.0
H239 H 0.41614 0.1412 0.47677 0.0
H240 H 0.24085 0.99823 0.55947 0.0
H241 H 0.36283 0.03927 0.53352 0.0
H242 H 0.04767 0.48821 0.50723 0.0
H243 H 0.1571 0.51781 0.47024 0.0
H244 H 0.94544 0.36547 0.52929 0.0
H245 H 0.93751 0.23406 0.55373 0.0
C246 C 0.16339 0.8048 0.4619 0.0
C247 C 0.27628 0.82267 0.46525 0.0
C248 C 0.25273 0.99164 0.41149 0.0
C249 C 0.13941 0.9753 0.40956 0.0
N250 N 0.98537 0.87328 0.43276 0.0
N251 N 0.42907 0.93544 0.44476 0.0
C252 C 0.09506 0.88231 0.43459 0.0
C253 C 0.32058 0.91751 0.4407 0.0
N254 N 0.12311 0.71154 0.48323 0.0
N255 N 0.29583 0.07629 0.38366 0.0
H256 H 0.48255 0.88002 0.46261 0.0
H257 H 0.46634 1.00606 0.43234 0.0
H258 H 0.24778 0.13184 0.36277 0.0
H259 H 0.37836 0.08956 0.37912 0.0
H260 H 0.04624 0.68472 0.47724 0.0
H261 H 0.16935 0.65893 0.50669 0.0
H262 H 0.94068 0.81255 0.45129 0.0
H263 H 0.94068 0.81255 0.45129 0.0
C264 C 0.94856 0.9027 0.26275 0.0
C265 C 0.03482 0.94673 0.23473 0.0
C266 C 0.08401 0.05431 0.28783 0.0
C267 C 1.00295 1.00727 0.31794 0.0
N268 N 0.86486 0.8774 0.33671 0.0
N269 N 0.20127 0.04361 0.22624 0.0
C270 C 0.93809 0.92722 0.30651 0.0
C271 C 0.11041 1.01187 0.25041 0.0
N272 N 0.87269 0.84424 0.24623 0.0
N273 N 0.12865 0.14721 0.29061 0.0
H274 H 0.22299 1.01393 0.19793 0.0
H275 H 0.25691 0.09432 0.23647 0.0
H276 H 0.10286 0.1932 0.31293 0.0
H277 H 0.10286 0.1932 0.31293 0.0
H278 H 0.79983 0.82246 0.26234 0.0
H279 H 0.88067 0.8223 0.215 0.0
H280 H 0.82316 0.81137 0.33228 0.0
H281 H 0.8499 0.89974 0.36734 0.0
C282 C 0.17837 0.13826 0.72037 0.0
C283 C 0.08717 0.18373 0.73689 0.0
C284 C 0.99306 0.19488 0.66405 0.0
C285 C 0.07791 0.13666 0.64992 0.0
N286 N 0.25744 0.06113 0.66346 0.0
N287 N 0.9212 0.28224 0.72165 0.0
C288 C 0.17333 0.11407 0.67686 0.0
C289 C 0.99925 0.22253 0.70741 0.0
N290 N 0.26851 0.1127 0.74733 0.0
N291 N 0.90276 0.2119 0.63696 0.0
H292 H 0.92381 0.30099 0.75368 0.0
H293 H 0.85892 0.32015 0.701 0.0
H294 H 0.83102 0.24611 0.64482 0.0
H295 H 0.83102 0.24611 0.64482 0.0
H296 H 0.33663 0.07722 0.73667 0.0
H297 H 0.27562 0.13031 0.77954 0.0
H298 H 0.25827 1.03726 0.63252 0.0
H299 H 0.25827 1.03726 0.63252 0.0
C300 C 0.45703 0.40311 0.76825 0.0
C301 C 0.53764 0.43729 0.73584 0.0
C302 C 0.62859 0.53197 0.78652 0.0
C303 C 0.54808 0.50009 0.8195 0.0
N304 N 0.39259 0.39474 0.8447 0.0
N305 N 0.71864 0.49904 0.71997 0.0
C306 C 0.46573 0.43003 0.81166 0.0
C307 C 0.6312 0.48727 0.74777 0.0
N308 N 0.36893 0.35171 0.75616 0.0
N309 N 0.69204 0.61562 0.78863 0.0
H310 H 0.72002 0.46885 0.69045 0.0
H311 H 0.79234 0.52884 0.72875 0.0
H312 H 0.67861 0.66306 0.8118 0.0
H313 H 0.74646 0.64697 0.76343 0.0
H314 H 0.30091 0.33408 0.77615 0.0
H315 H 0.36316 0.32881 0.72499 0.0
H316 H 0.33743 0.33578 0.84324 0.0
H317 H 0.38946 0.42281 0.87457 0.0
C318 C 0.66429 0.63981 0.22463 0.0
C319 C 0.57629 0.69318 0.23951 0.0
C320 C 0.48858 0.71316 0.16475 0.0
C321 C 0.56719 0.64572 0.15259 0.0
N322 N 0.72701 0.53975 0.17069 0.0
N323 N 0.41697 0.80106 0.2224 0.0
C324 C 0.65655 0.61046 0.18184 0.0
C325 C 0.49287 0.73821 0.20871 0.0
N326 N 0.75325 0.61449 0.25239 0.0
N327 N 0.40558 0.74318 0.13454 0.0
H328 H 0.41922 0.81902 0.25458 0.0
H329 H 0.35506 0.84004 0.2019 0.0
H330 H 0.33906 0.78839 0.13963 0.0
H331 H 0.33906 0.78839 0.13963 0.0
H332 H 0.82452 0.58336 0.24243 0.0
H333 H 0.75905 0.63369 0.28434 0.0
H334 H 0.78765 0.50162 0.19231 0.0
H335 H 0.71937 0.51349 0.14051 0.0
loop_
_geom_bond_atom_site_label_1
_geom_bond_atom_site_label_2
_geom_bond_distance
_geom_bond_site_symmetry_2
_ccdc_geom_bond_type
C0 O16 1.251 . S
C0 O18 1.254 1_554 S
N1 C2 1.333 1_445 S
N1 C6 1.307 . S
N1 Zn7 2.020 . S
C2 N1 1.333 1_665 S
C2 C3 1.379 . S
C2 H20 0.952 . S
C3 C2 1.379 . S
C3 C4 1.390 1_655 S
C3 H30 0.949 . S
C4 C3 1.390 1_455 S
C4 C5 1.357 1_565 S
C5 C4 1.357 1_545 S
C5 C6 1.370 . S
C5 H31 0.950 . S
C6 N1 1.307 . S
C6 C5 1.370 . S
C6 H24 0.948 . S
Zn7 N1 2.020 . S
Zn7 O16 2.039 1_445 S
Zn7 O22 2.034 1_455 S
Zn7 O26 2.025 . S
Zn7 O28 2.024 1_545 S
C8 O27 1.246 1_554 S
C8 O28 1.249 . S
N9 C10 1.307 1_455 S
N9 C11 1.333 . S
N9 Zn15 2.020 . S
C10 N9 1.307 1_655 S
C10 C14 1.370 . S
C10 H21 0.948 . S
C11 N9 1.333 . S
C11 C12 1.379 . S
C11 H19 0.952 . S
C12 C11 1.379 . S
C12 C13 1.390 . S
C12 H32 0.949 . S
C13 C12 1.390 . S
C13 C14 1.357 1_455 S
C14 C10 1.370 . S
C14 C13 1.357 1_655 S
C14 H33 0.950 . S
Zn15 N9 2.020 . S
Zn15 O18 2.025 1_445 S
Zn15 O23 2.024 1_455 S
Zn15 O25 2.039 . S
Zn15 O27 2.034 1_545 S
O16 C0 1.251 . S
O16 Zn7 2.039 1_665 S
C17 O22 1.246 . S
C17 O23 1.249 1_554 S
O18 C0 1.254 1_556 S
O18 Zn15 2.025 1_665 S
H19 C11 0.952 . S
H20 C2 0.952 . S
H21 C10 0.948 . S
O22 Zn7 2.034 1_655 S
O22 C17 1.246 . S
O23 Zn15 2.024 1_655 S
O23 C17 1.249 1_556 S
H24 C6 0.948 . S
O25 Zn15 2.039 . S
O25 C29 1.251 1_556 S
O26 Zn7 2.025 . S
O26 C29 1.254 . S
O27 C8 1.246 1_556 S
O27 Zn15 2.034 1_565 S
O28 Zn7 2.024 1_565 S
O28 C8 1.249 . S
C29 O25 1.251 1_554 S
C29 O26 1.254 . S
H30 C3 0.949 . S
H31 C5 0.950 . S
H32 C12 0.949 . S
H33 C14 0.950 . S
C34 O50 1.251 . S
C34 O52 1.254 . S
N35 C36 1.333 . S
N35 C40 1.307 . S
N35 Zn41 2.020 . S
C36 N35 1.333 . S
C36 C37 1.379 . S
C36 H54 0.952 . S
C37 C36 1.379 . S
C37 C38 1.390 . S
C37 H64 0.949 . S
C38 C37 1.390 . S
C38 C39 1.357 . S
C39 C38 1.357 . S
C39 C40 1.370 . S
C39 H65 0.950 . S
C40 N35 1.307 . S
C40 C39 1.370 . S
C40 H58 0.948 . S
Zn41 N35 2.020 . S
Zn41 O50 2.039 . S
Zn41 O56 2.034 . S
Zn41 O60 2.025 . S
Zn41 O62 2.024 . S
C42 O61 1.246 . S
C42 O62 1.249 . S
N43 C44 1.307 . S
N43 C45 1.333 . S
N43 Zn49 2.020 . S
C44 N43 1.307 . S
C44 C48 1.370 . S
C44 H55 0.948 . S
C45 N43 1.333 . S
C45 C46 1.379 . S
C45 H53 0.952 . S
C46 C45 1.379 . S
C46 C47 1.390 . S
C46 H66 0.949 . S
C47 C46 1.390 . S
C47 C48 1.357 . S
C48 C44 1.370 . S
C48 C47 1.357 . S
C48 H67 0.950 . S
Zn49 N43 2.020 . S
Zn49 O52 2.025 . S
Zn49 O57 2.024 . S
Zn49 O59 2.039 . S
Zn49 O61 2.034 . S
O50 C34 1.251 . S
O50 Zn41 2.039 . S
C51 O56 1.246 . S
C51 O57 1.249 . S
O52 C34 1.254 . S
O52 Zn49 2.025 . S
H53 C45 0.952 . S
H54 C36 0.952 . S
H55 C44 0.948 . S
O56 Zn41 2.034 . S
O56 C51 1.246 . S
O57 Zn49 2.024 . S
O57 C51 1.249 . S
H58 C40 0.948 . S
O59 Zn49 2.039 . S
O59 C63 1.251 . S
O60 Zn41 2.025 . S
O60 C63 1.254 . S
O61 C42 1.246 . S
O61 Zn49 2.034 . S
O62 Zn41 2.024 . S
O62 C42 1.249 . S
C63 O59 1.251 . S
C63 O60 1.254 . S
H64 C37 0.949 . S
H65 C39 0.950 . S
H66 C46 0.949 . S
H67 C48 0.950 . S
C68 N69 1.317 1_545 S
C68 N70 1.348 1_455 S
C68 C71 1.485 1_545 S
N69 C68 1.317 1_565 S
N69 N73 1.370 . S
N70 C68 1.348 1_655 S
N70 C72 1.346 . S
C71 C68 1.485 1_565 S
C71 H75 0.960 1_455 S
C71 H76 0.961 1_565 S
C71 H77 0.960 . S
C72 N70 1.346 . S
C72 N73 1.307 1_645 S
C72 C74 1.486 . S
N73 N69 1.370 . S
N73 C72 1.307 1_465 S
C74 C72 1.486 . S
C74 H78 0.960 . S
C74 H79 0.960 . S
C74 H80 0.959 . S
H75 C71 0.960 1_655 S
H76 C71 0.961 1_545 S
H77 C71 0.960 . S
H78 C74 0.960 . S
H79 C74 0.960 . S
H80 C74 0.959 . S
C81 N82 1.317 . S
C81 N83 1.348 1_445 S
C81 C84 1.485 . S
N82 C81 1.317 . S
N82 N86 1.370 . S
N83 C81 1.348 1_665 S
N83 C85 1.346 . S
C84 C81 1.485 . S
C84 H88 0.960 1_455 S
C84 H89 0.961 . S
C84 H90 0.960 . S
C85 N83 1.346 . S
C85 N86 1.307 1_665 S
C85 C87 1.486 . S
N86 N82 1.370 . S
N86 C85 1.307 1_445 S
C87 C85 1.486 . S
C87 H91 0.960 . S
C87 H92 0.960 . S
C87 H93 0.959 . S
H88 C84 0.960 1_655 S
H89 C84 0.961 . S
H90 C84 0.960 . S
H91 C87 0.960 . S
H92 C87 0.960 . S
H93 C87 0.959 . S
C94 N95 1.317 1_554 S
C94 N96 1.348 1_554 S
C94 C97 1.485 . S
N95 C94 1.317 1_556 S
N95 N99 1.370 . S
N96 C94 1.348 1_556 S
N96 C98 1.346 . S
C97 C94 1.485 . S
C97 H101 0.960 . S
C97 H102 0.961 . S
C97 H103 0.960 . S
C98 N96 1.346 . S
C98 N99 1.307 . S
C98 C100 1.486 . S
N99 N95 1.370 . S
N99 C98 1.307 . S
C100 C98 1.486 . S
C100 H104 0.960 . S
C100 H105 0.960 . S
C100 H106 0.959 . S
H101 C97 0.960 . S
H102 C97 0.961 . S
H103 C97 0.960 . S
H104 C100 0.960 . S
H105 C100 0.960 . S
H106 C100 0.959 . S
C107 N108 1.317 . S
C107 N109 1.348 . S
C107 C110 1.485 1_554 S
N108 C107 1.317 . S
N108 N112 1.370 . S
N109 C107 1.348 . S
N109 C111 1.346 . S
C110 C107 1.485 1_556 S
C110 H114 0.960 . S
C110 H115 0.961 . S
C110 H116 0.960 . S
C111 N109 1.346 . S
C111 N112 1.307 . S
C111 C113 1.486 . S
N112 N108 1.370 . S
N112 C111 1.307 . S
C113 C111 1.486 . S
C113 H117 0.960 . S
C113 H118 0.960 . S
C113 H119 0.959 . S
H114 C110 0.960 . S
H115 C110 0.961 . S
H116 C110 0.960 . S
H117 C113 0.960 . S
H118 C113 0.960 . S
H119 C113 0.959 . S
C120 C121 1.363 . S
C120 C126 1.379 . S
C120 N128 1.356 . S
C121 C120 1.363 . S
C121 C127 1.363 1_554 S
C122 C123 1.363 1_556 S
C122 C127 1.379 . S
C122 N129 1.356 . S
C123 C122 1.363 1_554 S
C123 C126 1.363 . S
N124 C126 1.356 . S
N124 H136 0.984 . S
N124 H137 0.985 . S
N125 C127 1.356 . S
N125 H130 0.984 . S
N125 H131 0.985 . S
C126 C120 1.379 . S
C126 C123 1.363 . S
C126 N124 1.356 . S
C127 C121 1.363 1_556 S
C127 C122 1.379 . S
C127 N125 1.356 . S
N128 C120 1.356 . S
N128 H134 0.984 . S
N128 H135 0.984 . S
N129 C122 1.356 . S
N129 H132 0.984 . S
N129 H133 0.985 . S
H130 N125 0.984 . S
H131 N125 0.985 . S
H132 N129 0.984 . S
H133 N129 0.985 . S
H134 N128 0.984 . S
H135 N128 0.984 . S
H136 N124 0.984 . S
H137 N124 0.985 . S
C138 C139 1.363 . S
C138 C144 1.379 . S
C138 N146 1.356 . S
C139 C138 1.363 . S
C139 C145 1.363 1_554 S
C140 C141 1.363 1_556 S
C140 C145 1.379 . S
C140 N147 1.356 . S
C141 C140 1.363 1_554 S
C141 C144 1.363 . S
N142 C144 1.356 . S
N142 H154 0.984 . S
N142 H155 0.985 . S
N143 C145 1.356 . S
N143 H148 0.984 . S
N143 H149 0.985 . S
C144 C138 1.379 . S
C144 C141 1.363 . S
C144 N142 1.356 . S
C145 C139 1.363 1_556 S
C145 C140 1.379 . S
C145 N143 1.356 . S
N146 C138 1.356 . S
N146 H152 0.984 . S
N146 H153 0.984 . S
N147 C140 1.356 . S
N147 H150 0.984 . S
N147 H151 0.985 . S
H148 N143 0.984 . S
H149 N143 0.985 . S
H150 N147 0.984 . S
H151 N147 0.985 . S
H152 N146 0.984 . S
H153 N146 0.984 . S
H154 N142 0.984 . S
H155 N142 0.985 . S
C156 C157 1.363 1_556 S
C156 C162 1.379 . S
C156 N164 1.356 . S
C157 C156 1.363 1_554 S
C157 C163 1.363 . S
C158 C159 1.363 . S
C158 C163 1.379 . S
C158 N165 1.356 . S
C159 C158 1.363 . S
C159 C162 1.363 1_554 S
N160 C162 1.356 . S
N160 H172 0.984 . S
N160 H173 0.985 . S
N161 C163 1.356 . S
N161 H166 0.984 . S
N161 H167 0.985 . S
C162 C156 1.379 . S
C162 C159 1.363 1_556 S
C162 N160 1.356 . S
C163 C157 1.363 . S
C163 C158 1.379 . S
C163 N161 1.356 . S
N164 C156 1.356 . S
N164 H170 0.984 . S
N164 H171 0.984 . S
N165 C158 1.356 . S
N165 H168 0.984 . S
N165 H169 0.985 . S
H166 N161 0.984 . S
H167 N161 0.985 . S
H168 N165 0.984 . S
H169 N165 0.985 . S
H170 N164 0.984 . S
H171 N164 0.984 . S
H172 N160 0.984 . S
H173 N160 0.985 . S
C174 C175 1.363 . S
C174 C180 1.379 . S
C174 N182 1.356 . S
C175 C174 1.363 . S
C175 C181 1.363 1_554 S
C176 C177 1.363 . S
C176 C181 1.379 . S
C176 N183 1.356 . S
C177 C176 1.363 . S
C177 C180 1.363 1_556 S
N178 C180 1.356 . S
N178 H190 0.984 . S
N178 H191 0.985 . S
N179 C181 1.356 . S
N179 H184 0.984 . S
N179 H185 0.985 . S
C180 C174 1.379 . S
C180 C177 1.363 1_554 S
C180 N178 1.356 . S
C181 C175 1.363 1_556 S
C181 C176 1.379 . S
C181 N179 1.356 . S
N182 C174 1.356 . S
N182 H188 0.984 . S
N182 H189 0.984 . S
N183 C176 1.356 . S
N183 H186 0.984 . S
N183 H187 0.985 . S
H184 N179 0.984 . S
H185 N179 0.985 . S
H186 N183 0.984 . S
H187 N183 0.985 . S
H188 N182 0.984 . S
H189 N182 0.984 . S
H190 N178 0.984 . S
H191 N178 0.985 . S
C192 C193 1.363 . S
C192 C198 1.379 . S
C192 N200 1.356 . S
C193 C192 1.363 . S
C193 C199 1.363 . S
C194 C195 1.363 . S
C194 C199 1.379 . S
C194 N201 1.356 1_655 S
C195 C194 1.363 . S
C195 C198 1.363 . S
N196 C198 1.356 1_545 S
N196 H208 0.984 . S
N196 H209 0.985 . S
N197 C199 1.356 . S
N197 H202 0.984 . S
N197 H203 0.985 . S
C198 C192 1.379 . S
C198 C195 1.363 . S
C198 N196 1.356 1_565 S
C199 C193 1.363 . S
C199 C194 1.379 . S
C199 N197 1.356 . S
N200 C192 1.356 . S
N200 H206 0.984 . S
N200 H207 0.984 . S
N201 C194 1.356 1_455 S
N201 H204 0.984 . S
N201 H205 0.985 . S
H202 N197 0.984 . S
H203 N197 0.985 . S
H204 N201 0.984 . S
H205 N201 0.985 . S
H206 N200 0.984 . S
H207 N200 0.984 . S
H208 N196 0.984 . S
H209 N196 0.985 . S
C210 C211 1.363 . S
C210 C216 1.379 . S
C210 N218 1.356 . S
C211 C210 1.363 . S
C211 C217 1.363 . S
C212 C213 1.363 . S
C212 C217 1.379 . S
C212 N219 1.356 . S
C213 C212 1.363 . S
C213 C216 1.363 . S
N214 C216 1.356 . S
N214 H226 0.984 1_655 S
N214 H227 0.985 . S
N215 C217 1.356 . S
N215 H220 0.984 . S
N215 H221 0.985 . S
C216 C210 1.379 . S
C216 C213 1.363 . S
C216 N214 1.356 . S
C217 C211 1.363 . S
C217 C212 1.379 . S
C217 N215 1.356 . S
N218 C210 1.356 . S
N218 H224 0.984 . S
N218 H225 0.984 . S
N219 C212 1.356 . S
N219 H222 0.984 . S
N219 H223 0.985 . S
H220 N215 0.984 . S
H221 N215 0.985 . S
H222 N219 0.984 . S
H223 N219 0.985 . S
H224 N218 0.984 . S
H225 N218 0.984 . S
H226 N214 0.984 1_455 S
H227 N214 0.985 . S
C228 C229 1.363 . S
C228 C234 1.379 . S
C228 N236 1.356 . S
C229 C228 1.363 . S
C229 C235 1.363 . S
C230 C231 1.363 . S
C230 C235 1.379 . S
C230 N237 1.356 . S
C231 C230 1.363 . S
C231 C234 1.363 . S
N232 C234 1.356 . S
N232 H244 0.984 . S
N232 H245 0.985 . S
N233 C235 1.356 . S
N233 H238 0.984 . S
N233 H239 0.985 . S
C234 C228 1.379 . S
C234 C231 1.363 . S
C234 N232 1.356 . S
C235 C229 1.363 . S
C235 C230 1.379 . S
C235 N233 1.356 . S
N236 C228 1.356 . S
N236 H242 0.984 . S
N236 H243 0.984 . S
N237 C230 1.356 . S
N237 H240 0.984 . S
N237 H241 0.985 . S
H238 N233 0.984 . S
H239 N233 0.985 . S
H240 N237 0.984 . S
H241 N237 0.985 . S
H242 N236 0.984 . S
H243 N236 0.984 . S
H244 N232 0.984 . S
H245 N232 0.985 . S
C246 C247 1.363 . S
C246 C252 1.379 . S
C246 N254 1.356 . S
C247 C246 1.363 . S
C247 C253 1.363 . S
C248 C249 1.363 . S
C248 C253 1.379 . S
C248 N255 1.356 . S
C249 C248 1.363 . S
C249 C252 1.363 . S
N250 C252 1.356 . S
N250 H262 0.984 . S
N250 H263 0.985 . S
N251 C253 1.356 . S
N251 H256 0.984 . S
N251 H257 0.985 . S
C252 C246 1.379 . S
C252 C249 1.363 . S
C252 N250 1.356 . S
C253 C247 1.363 . S
C253 C248 1.379 . S
C253 N251 1.356 . S
N254 C246 1.356 . S
N254 H260 0.984 . S
N254 H261 0.984 . S
N255 C248 1.356 . S
N255 H258 0.983 1_565 S
N255 H259 0.985 . S
H256 N251 0.984 . S
H257 N251 0.985 . S
H258 N255 0.983 1_545 S
H259 N255 0.985 . S
H260 N254 0.984 . S
H261 N254 0.984 . S
H262 N250 0.984 . S
H263 N250 0.985 . S
C264 C265 1.363 1_655 S
C264 C270 1.379 . S
C264 N272 1.356 . S
C265 C264 1.363 1_455 S
C265 C271 1.363 1_565 S
C266 C267 1.363 1_545 S
C266 C271 1.379 . S
C266 N273 1.356 . S
C267 C266 1.363 1_565 S
C267 C270 1.363 1_455 S
N268 C270 1.356 . S
N268 H280 0.984 . S
N268 H281 0.985 . S
N269 C271 1.356 . S
N269 H274 0.984 . S
N269 H275 0.985 . S
C270 C264 1.379 . S
C270 C267 1.363 1_655 S
C270 N268 1.356 . S
C271 C265 1.363 1_545 S
C271 C266 1.379 . S
C271 N269 1.356 . S
N272 C264 1.356 . S
N272 H278 0.984 . S
N272 H279 0.984 . S
N273 C266 1.356 . S
N273 H276 0.984 . S
N273 H277 0.985 . S
H274 N269 0.984 . S
H275 N269 0.985 . S
H276 N273 0.984 . S
H277 N273 0.985 . S
H278 N272 0.984 . S
H279 N272 0.984 . S
H280 N268 0.984 . S
H281 N268 0.985 . S
C282 C283 1.363 . S
C282 C288 1.379 . S
C282 N290 1.356 1_545 S
C283 C282 1.363 . S
C283 C289 1.363 1_455 S
C284 C285 1.363 1_655 S
C284 C289 1.379 . S
C284 N291 1.356 . S
C285 C284 1.363 1_455 S
C285 C288 1.363 . S
N286 C288 1.356 1_565 S
N286 H298 0.984 . S
N286 H299 0.985 . S
N287 C289 1.356 . S
N287 H292 0.984 . S
N287 H293 0.985 . S
C288 C282 1.379 . S
C288 C285 1.363 . S
C288 N286 1.356 1_545 S
C289 C283 1.363 1_655 S
C289 C284 1.379 . S
C289 N287 1.356 . S
N290 C282 1.356 1_565 S
N290 H296 0.984 . S
N290 H297 0.984 . S
N291 C284 1.356 . S
N291 H294 0.984 . S
N291 H295 0.985 . S
H292 N287 0.984 . S
H293 N287 0.985 . S
H294 N291 0.984 . S
H295 N291 0.985 . S
H296 N290 0.984 . S
H297 N290 0.984 . S
H298 N286 0.984 . S
H299 N286 0.985 . S
C300 C301 1.363 . S
C300 C306 1.379 . S
C300 N308 1.356 . S
C301 C300 1.363 . S
C301 C307 1.363 . S
C302 C303 1.363 . S
C302 C307 1.379 . S
C302 N309 1.356 . S
C303 C302 1.363 . S
C303 C306 1.363 . S
N304 C306 1.356 . S
N304 H316 0.984 . S
N304 H317 0.985 . S
N305 C307 1.356 . S
N305 H310 0.984 . S
N305 H311 0.985 . S
C306 C300 1.379 . S
C306 C303 1.363 . S
C306 N304 1.356 . S
C307 C301 1.363 . S
C307 C302 1.379 . S
C307 N305 1.356 . S
N308 C300 1.356 . S
N308 H314 0.984 . S
N308 H315 0.984 . S
N309 C302 1.356 . S
N309 H312 0.984 . S
N309 H313 0.985 . S
H310 N305 0.984 . S
H311 N305 0.985 . S
H312 N309 0.984 . S
H313 N309 0.985 . S
H314 N308 0.984 . S
H315 N308 0.984 . S
H316 N304 0.984 . S
H317 N304 0.985 . S
C318 C319 1.363 . S
C318 C324 1.379 . S
C318 N326 1.356 . S
C319 C318 1.363 . S
C319 C325 1.363 . S
C320 C321 1.363 . S
C320 C325 1.379 . S
C320 N327 1.356 . S
C321 C320 1.363 . S
C321 C324 1.363 . S
N322 C324 1.356 . S
N322 H334 0.984 . S
N322 H335 0.985 . S
N323 C325 1.356 . S
N323 H328 0.984 . S
N323 H329 0.985 . S
C324 C318 1.379 . S
C324 C321 1.363 . S
C324 N322 1.356 . S
C325 C319 1.363 . S
C325 C320 1.379 . S
C325 N323 1.356 . S
N326 C318 1.356 . S
N326 H332 0.984 . S
N326 H333 0.984 . S
N327 C320 1.356 . S
N327 H330 0.984 . S
N327 H331 0.985 . S
H328 N323 0.984 . S
H329 N323 0.985 . S
H330 N327 0.984 . S
H331 N327 0.985 . S
H332 N326 0.984 . S
H333 N326 0.984 . S
H334 N322 0.984 . S
H335 N322 0.985 . S
C123 N109 1.417 . S
C121 C29 1.437 . S
C139 C8 1.453 . S
C141 N96 1.428 1_554 S
C157 C0 1.513 . S
C159 N108 1.508 . S
C175 C17 1.505 . S
C177 N95 1.508 . S
C193 C63 1.437 . S
C195 N83 1.417 . S
C211 C42 1.453 . S
C213 N70 1.428 . S
C231 N82 1.508 . S
C229 C34 1.513 . S
C249 N69 1.507 . S
C247 C51 1.505 . S
C265 C4 1.521 . S
C267 N73 1.516 . S
C283 C13 1.530 . S
C285 N86 1.528 . S
C303 N99 1.516 . S
C301 C38 1.521 . S
C319 C47 1.530 . S
C321 N112 1.528 . S
