# Generated by pormake.
# Topology llk, (3,12)-cn, num edge types: 1
# Building blocks:
#     Node 0, Type 0, BuildingBlock: BETDAH_clean_linker_0, # of connection points: 3
#     Node 1, Type 0, BuildingBlock: BETDAH_clean_linker_0, # of connection points: 3
#     Node 2, Type 0, BuildingBlock: BETDAH_clean_linker_0, # of connection points: 3
#     Node 3, Type 0, BuildingBlock: BETDAH_clean_linker_0, # of connection points: 3
#     Node 4, Type 0, BuildingBlock: BETDAH_clean_linker_0, # of connection points: 3
#     Node 5, Type 0, BuildingBlock: BETDAH_clean_linker_0, # of connection points: 3
#     Node 6, Type 0, BuildingBlock: BETDAH_clean_linker_0, # of connection points: 3
#     Node 7, Type 0, BuildingBlock: BETDAH_clean_linker_0, # of connection points: 3
#     Node 8, Type 0, BuildingBlock: BETDAH_clean_linker_0, # of connection points: 3
#     Node 9, Type 0, BuildingBlock: BETDAH_clean_linker_0, # of connection points: 3
#     Node 10, Type 0, BuildingBlock: BETDAH_clean_linker_0, # of connection points: 3
#     Node 11, Type 0, BuildingBlock: BETDAH_clean_linker_0, # of connection points: 3
#     Node 12, Type 0, BuildingBlock: BETDAH_clean_linker_0, # of connection points: 3
#     Node 13, Type 0, BuildingBlock: BETDAH_clean_linker_0, # of connection points: 3
#     Node 14, Type 0, BuildingBlock: BETDAH_clean_linker_0, # of connection points: 3
#     Node 15, Type 0, BuildingBlock: BETDAH_clean_linker_0, # of connection points: 3
#     Node 16, Type 0, BuildingBlock: BETDAH_clean_linker_0, # of connection points: 3
#     Node 17, Type 0, BuildingBlock: BETDAH_clean_linker_0, # of connection points: 3
#     Node 18, Type 0, BuildingBlock: BETDAH_clean_linker_0, # of connection points: 3
#     Node 19, Type 0, BuildingBlock: BETDAH_clean_linker_0, # of connection points: 3
#     Node 20, Type 0, BuildingBlock: BETDAH_clean_linker_0, # of connection points: 3
#     Node 21, Type 0, BuildingBlock: BETDAH_clean_linker_0, # of connection points: 3
#     Node 22, Type 0, BuildingBlock: BETDAH_clean_linker_0, # of connection points: 3
#     Node 23, Type 0, BuildingBlock: BETDAH_clean_linker_0, # of connection points: 3
#     Node 24, Type 1, BuildingBlock: QEWDON_clean_sbu_0, # of connection points: 12
#     Node 25, Type 1, BuildingBlock: QEWDON_clean_sbu_0, # of connection points: 12
#     Node 26, Type 1, BuildingBlock: QEWDON_clean_sbu_0, # of connection points: 12
#     Node 27, Type 1, BuildingBlock: QEWDON_clean_sbu_0, # of connection points: 12
#     Node 28, Type 1, BuildingBlock: QEWDON_clean_sbu_0, # of connection points: 12
#     Node 29, Type 1, BuildingBlock: QEWDON_clean_sbu_0, # of connection points: 12
#     Edge 30, Type (0, 1), BuildingBlock: OJICUG_clean_linker_0, # of connection points: 2
#     Edge 31, Type (0, 1), BuildingBlock: OJICUG_clean_linker_0, # of connection points: 2
#     Edge 32, Type (0, 1), BuildingBlock: OJICUG_clean_linker_0, # of connection points: 2
#     Edge 33, Type (0, 1), BuildingBlock: OJICUG_clean_linker_0, # of connection points: 2
#     Edge 34, Type (0, 1), BuildingBlock: OJICUG_clean_linker_0, # of connection points: 2
#     Edge 35, Type (0, 1), BuildingBlock: OJICUG_clean_linker_0, # of connection points: 2
#     Edge 36, Type (0, 1), BuildingBlock: OJICUG_clean_linker_0, # of connection points: 2
#     Edge 37, Type (0, 1), BuildingBlock: OJICUG_clean_linker_0, # of connection points: 2
#     Edge 38, Type (0, 1), BuildingBlock: OJICUG_clean_linker_0, # of connection points: 2
#     Edge 39, Type (0, 1), BuildingBlock: OJICUG_clean_linker_0, # of connection points: 2
#     Edge 40, Type (0, 1), BuildingBlock: OJICUG_clean_linker_0, # of connection points: 2
#     Edge 41, Type (0, 1), BuildingBlock: OJICUG_clean_linker_0, # of connection points: 2
#     Edge 42, Type (0, 1), BuildingBlock: OJICUG_clean_linker_0, # of connection points: 2
#     Edge 43, Type (0, 1), BuildingBlock: OJICUG_clean_linker_0, # of connection points: 2
#     Edge 44, Type (0, 1), BuildingBlock: OJICUG_clean_linker_0, # of connection points: 2
#     Edge 45, Type (0, 1), BuildingBlock: OJICUG_clean_linker_0, # of connection points: 2
#     Edge 46, Type (0, 1), BuildingBlock: OJICUG_clean_linker_0, # of connection points: 2
#     Edge 47, Type (0, 1), BuildingBlock: OJICUG_clean_linker_0, # of connection points: 2
#     Edge 48, Type (0, 1), BuildingBlock: OJICUG_clean_linker_0, # of connection points: 2
#     Edge 49, Type (0, 1), BuildingBlock: OJICUG_clean_linker_0, # of connection points: 2
#     Edge 50, Type (0, 1), BuildingBlock: OJICUG_clean_linker_0, # of connection points: 2
#     Edge 51, Type (0, 1), BuildingBlock: OJICUG_clean_linker_0, # of connection points: 2
#     Edge 52, Type (0, 1), BuildingBlock: OJICUG_clean_linker_0, # of connection points: 2
#     Edge 53, Type (0, 1), BuildingBlock: OJICUG_clean_linker_0, # of connection points: 2
#     Edge 54, Type (0, 1), BuildingBlock: OJICUG_clean_linker_0, # of connection points: 2
#     Edge 55, Type (0, 1), BuildingBlock: OJICUG_clean_linker_0, # of connection points: 2
#     Edge 56, Type (0, 1), BuildingBlock: OJICUG_clean_linker_0, # of connection points: 2
#     Edge 57, Type (0, 1), BuildingBlock: OJICUG_clean_linker_0, # of connection points: 2
#     Edge 58, Type (0, 1), BuildingBlock: OJICUG_clean_linker_0, # of connection points: 2
#     Edge 59, Type (0, 1), BuildingBlock: OJICUG_clean_linker_0, # of connection points: 2
#     Edge 60, Type (0, 1), BuildingBlock: OJICUG_clean_linker_0, # of connection points: 2
#     Edge 61, Type (0, 1), BuildingBlock: OJICUG_clean_linker_0, # of connection points: 2
#     Edge 62, Type (0, 1), BuildingBlock: OJICUG_clean_linker_0, # of connection points: 2
#     Edge 63, Type (0, 1), BuildingBlock: OJICUG_clean_linker_0, # of connection points: 2
#     Edge 64, Type (0, 1), BuildingBlock: OJICUG_clean_linker_0, # of connection points: 2
#     Edge 65, Type (0, 1), BuildingBlock: OJICUG_clean_linker_0, # of connection points: 2
#     Edge 66, Type (0, 1), BuildingBlock: OJICUG_clean_linker_0, # of connection points: 2
#     Edge 67, Type (0, 1), BuildingBlock: OJICUG_clean_linker_0, # of connection points: 2
#     Edge 68, Type (0, 1), BuildingBlock: OJICUG_clean_linker_0, # of connection points: 2
#     Edge 69, Type (0, 1), BuildingBlock: OJICUG_clean_linker_0, # of connection points: 2
#     Edge 70, Type (0, 1), BuildingBlock: OJICUG_clean_linker_0, # of connection points: 2
#     Edge 71, Type (0, 1), BuildingBlock: OJICUG_clean_linker_0, # of connection points: 2
#     Edge 72, Type (0, 1), BuildingBlock: OJICUG_clean_linker_0, # of connection points: 2
#     Edge 73, Type (0, 1), BuildingBlock: OJICUG_clean_linker_0, # of connection points: 2
#     Edge 74, Type (0, 1), BuildingBlock: OJICUG_clean_linker_0, # of connection points: 2
#     Edge 75, Type (0, 1), BuildingBlock: OJICUG_clean_linker_0, # of connection points: 2
#     Edge 76, Type (0, 1), BuildingBlock: OJICUG_clean_linker_0, # of connection points: 2
#     Edge 77, Type (0, 1), BuildingBlock: OJICUG_clean_linker_0, # of connection points: 2
#     Edge 78, Type (0, 1), BuildingBlock: OJICUG_clean_linker_0, # of connection points: 2
#     Edge 79, Type (0, 1), BuildingBlock: OJICUG_clean_linker_0, # of connection points: 2
#     Edge 80, Type (0, 1), BuildingBlock: OJICUG_clean_linker_0, # of connection points: 2
#     Edge 81, Type (0, 1), BuildingBlock: OJICUG_clean_linker_0, # of connection points: 2
#     Edge 82, Type (0, 1), BuildingBlock: OJICUG_clean_linker_0, # of connection points: 2
#     Edge 83, Type (0, 1), BuildingBlock: OJICUG_clean_linker_0, # of connection points: 2
#     Edge 84, Type (0, 1), BuildingBlock: OJICUG_clean_linker_0, # of connection points: 2
#     Edge 85, Type (0, 1), BuildingBlock: OJICUG_clean_linker_0, # of connection points: 2
#     Edge 86, Type (0, 1), BuildingBlock: OJICUG_clean_linker_0, # of connection points: 2
#     Edge 87, Type (0, 1), BuildingBlock: OJICUG_clean_linker_0, # of connection points: 2
#     Edge 88, Type (0, 1), BuildingBlock: OJICUG_clean_linker_0, # of connection points: 2
#     Edge 89, Type (0, 1), BuildingBlock: OJICUG_clean_linker_0, # of connection points: 2
#     Edge 90, Type (0, 1), BuildingBlock: OJICUG_clean_linker_0, # of connection points: 2
#     Edge 91, Type (0, 1), BuildingBlock: OJICUG_clean_linker_0, # of connection points: 2
#     Edge 92, Type (0, 1), BuildingBlock: OJICUG_clean_linker_0, # of connection points: 2
#     Edge 93, Type (0, 1), BuildingBlock: OJICUG_clean_linker_0, # of connection points: 2
#     Edge 94, Type (0, 1), BuildingBlock: OJICUG_clean_linker_0, # of connection points: 2
#     Edge 95, Type (0, 1), BuildingBlock: OJICUG_clean_linker_0, # of connection points: 2
#     Edge 96, Type (0, 1), BuildingBlock: OJICUG_clean_linker_0, # of connection points: 2
#     Edge 97, Type (0, 1), BuildingBlock: OJICUG_clean_linker_0, # of connection points: 2
#     Edge 98, Type (0, 1), BuildingBlock: OJICUG_clean_linker_0, # of connection points: 2
#     Edge 99, Type (0, 1), BuildingBlock: OJICUG_clean_linker_0, # of connection points: 2
#     Edge 100, Type (0, 1), BuildingBlock: OJICUG_clean_linker_0, # of connection points: 2
#     Edge 101, Type (0, 1), BuildingBlock: OJICUG_clean_linker_0, # of connection points: 2
# Relax obj value: 0.096
# Max RMSD: 0.166
# Mean RMSD: 0.132
data_MOF--net-llk--node1-QEWDON_clean_sbu_0--node2-BETDAH_clean_linker_0--edge1-OJICUG_clean_linker_0
_symmetry_space_group_name_H-M    P1
_symmetry_Int_Tables_number       1
_symmetry_cell_setting            triclinic
loop_
_symmetry_equiv_pos_as_xyz
'x, y, z'
_cell_length_a     35.965284
_cell_length_b     35.856906
_cell_length_c     36.330135
_cell_angle_alpha  90.323562
_cell_angle_beta   89.875568
_cell_angle_gamma 89.516262
loop_
_atom_site_label
_atom_site_type_symbol
_atom_site_fract_x
_atom_site_fract_y
_atom_site_fract_z
_atom_type_partial_charge
H0 H 0.04152 0.26741 0.3791 0.0
H1 H 0.05909 0.33275 0.28211 0.0
H2 H 0.04968 0.21374 0.27288 0.0
C3 C 0.04655 0.26884 0.34971 0.0
C4 C 0.04582 0.23603 0.3283 0.0
C5 C 0.05139 0.30381 0.33321 0.0
C6 C 0.05627 0.30574 0.29492 0.0
C7 C 0.05547 0.27336 0.27298 0.0
C8 C 0.05079 0.23862 0.28989 0.0
N9 N 0.05726 0.27524 0.23385 0.0
C10 C 0.05287 0.30848 0.21455 0.0
H11 H 0.62338 0.07442 0.20556 0.0
H12 H 0.71865 0.10305 0.26903 0.0
H13 H 0.73111 0.0839 0.15305 0.0
C14 C 0.65278 0.08057 0.20636 0.0
C15 C 0.67479 0.07811 0.17423 0.0
C16 C 0.66901 0.08814 0.24046 0.0
C17 C 0.70665 0.09691 0.24237 0.0
C18 C 0.72903 0.09597 0.21076 0.0
C19 C 0.71303 0.08668 0.17678 0.0
N20 N 0.76809 0.10105 0.2134 0.0
C21 C 0.78644 0.09655 0.24679 0.0
H22 H 0.01907 0.67213 0.27087 0.0
H23 H 0.03947 0.77626 0.32602 0.0
H24 H 0.03674 0.77104 0.20745 0.0
C25 C 0.02485 0.70174 0.26967 0.0
C26 C 0.02668 0.71914 0.2354 0.0
C27 C 0.02993 0.72178 0.30244 0.0
C28 C 0.036 0.76038 0.30081 0.0
C29 C 0.03895 0.77805 0.26632 0.0
C30 C 0.03498 0.75719 0.23383 0.0
N31 N 0.04591 0.81673 0.26336 0.0
C32 C 0.03198 0.84278 0.28827 0.0
H33 H 0.21337 0.99543 0.33166 0.0
H34 H 0.29409 0.95476 0.25343 0.0
H35 H 0.17757 0.95492 0.22612 0.0
C36 C 0.22019 0.98452 0.30453 0.0
C37 C 0.19151 0.97712 0.2796 0.0
C38 C 0.25716 0.97588 0.29568 0.0
C39 C 0.26548 0.96113 0.26063 0.0
C40 C 0.23685 0.95397 0.2352 0.0
C41 C 0.19978 0.96114 0.24525 0.0
N42 N 0.24454 0.93924 0.19962 0.0
C43 C 0.27825 0.94462 0.18172 0.0
H44 H 0.97247 0.75872 0.64512 0.0
H45 H -0.0177 0.69362 0.74314 0.0
H46 H 0.97388 0.81323 0.75101 0.0
C47 C 0.97237 0.75746 0.67493 0.0
C48 C 0.97164 0.79055 0.69571 0.0
C49 C 0.97623 0.7226 0.69179 0.0
C50 C 0.97812 0.72051 0.73029 0.0
C51 C 0.97749 0.75338 0.75174 0.0
C52 C 0.97397 0.78811 0.73431 0.0
N53 N -0.0174 0.75276 0.79054 0.0
C54 C -0.01555 0.72032 0.81132 0.0
H55 H 0.27603 0.04252 0.69105 0.0
H56 H 0.31423 1.0036 0.79537 0.0
H57 H 0.19957 0.98898 0.76464 0.0
C58 C 0.2699 0.03089 0.71787 0.0
C59 C 0.23411 0.0178 0.72516 0.0
C60 C 0.2988 0.02516 0.74303 0.0
C61 C 0.29135 0.00809 0.77662 0.0
C62 C 0.25547 0.99509 0.78487 0.0
C63 C 0.227 0.9998 0.75885 0.0
N64 N 0.24821 0.97578 0.81824 0.0
C65 C 0.27516 0.97293 0.84551 0.0
H66 H -0.00251 0.36923 0.74509 0.0
H67 H 0.96394 0.27761 0.67692 0.0
H68 H 0.9611 0.26705 0.7949 0.0
C69 C -0.01228 0.34079 0.74268 0.0
C70 C -0.01889 0.31981 0.77447 0.0
C71 C -0.01847 0.32576 0.70762 0.0
C72 C 0.96875 0.28915 0.70411 0.0
C73 C 0.96082 0.26811 0.73575 0.0
C74 C 0.96676 0.28365 0.77073 0.0
N75 N 0.94695 0.2313 0.73311 0.0
C76 C 0.95508 0.20842 0.7032 0.0
H77 H 0.79576 0.0799 0.69115 0.0
H78 H 0.70467 0.10787 0.76285 0.0
H79 H 0.81744 0.11172 0.80326 0.0
C80 C 0.78554 0.08877 0.71798 0.0
C81 C 0.81082 0.09525 0.74642 0.0
C82 C 0.74742 0.09341 0.72355 0.0
C83 C 0.73432 0.10469 0.75831 0.0
C84 C 0.7595 0.11117 0.78735 0.0
C85 C 0.79794 0.10704 0.78106 0.0
N86 N 0.74659 0.12044 0.82323 0.0
C87 C 0.71353 0.1062 0.83696 0.0
H88 H 0.33914 0.28138 0.05433 0.0
H89 H 0.23208 0.33421 0.04358 0.0
H90 H 0.24414 0.21568 0.02598 0.0
C91 C 0.30938 0.27947 0.04998 0.0
C92 C 0.29415 0.24496 0.04091 0.0
C93 C 0.2873 0.31182 0.05066 0.0
C94 C 0.24913 0.30918 0.04304 0.0
C95 C 0.23324 0.27434 0.03452 0.0
C96 C 0.25603 0.24239 0.03332 0.0
N97 N 0.19483 0.27073 0.0262 0.0
C98 C 0.17157 0.30113 0.01965 0.0
H99 H 0.29841 0.7756 0.98036 0.0
H100 H 0.20434 0.7267 0.03354 0.0
H101 H 0.20961 0.84608 0.0206 0.0
C102 C 0.27117 0.77881 0.99295 0.0
C103 C 0.25607 0.81461 -0.00173 0.0
C104 C 0.25292 0.74721 0.00603 0.0
C105 C 0.21836 0.75125 0.02343 0.0
C106 C 0.20214 0.78695 0.02795 0.0
C107 C 0.22165 0.81858 0.01636 0.0
N108 N 0.16601 0.79137 0.04329 0.0
C109 C 0.13949 0.76384 0.03856 0.0
H110 H 0.80478 0.36448 0.02632 0.0
H111 H 0.74346 0.26497 0.00185 0.0
H112 H 0.86269 0.26 0.01259 0.0
C113 C 0.80404 0.33467 0.02112 0.0
C114 C 0.83736 0.31416 0.02048 0.0
C115 C 0.77 0.31718 0.01442 0.0
C116 C 0.76971 0.27859 0.00704 0.0
C117 C 0.80318 0.25776 0.00641 0.0
C118 C 0.83687 0.27582 0.01316 0.0
N119 N 0.80395 0.21882 -0.00111 0.0
C120 C 0.77215 0.19715 -0.00261 0.0
H121 H 0.77582 0.65334 0.98045 0.0
H122 H 0.72384 0.75604 0.94885 0.0
H123 H 0.84309 0.74439 0.94251 0.0
C124 C 0.77816 0.6815 0.97001 0.0
C125 C 0.81336 0.69591 0.96151 0.0
C126 C 0.74594 0.7032 0.96548 0.0
C127 C 0.74896 0.73956 0.9522 0.0
C128 C 0.78394 0.75476 0.94396 0.0
C129 C 0.81609 0.73277 0.9487 0.0
N130 N 0.78722 0.79212 0.93146 0.0
C131 C 0.757 0.81662 0.93163 0.0
H132 H 0.48646 0.76485 0.81007 0.0
H133 H 0.54425 0.81533 0.72046 0.0
H134 H 0.53344 0.69552 0.72442 0.0
C135 C 0.50096 0.76191 0.78398 0.0
C136 C 0.50786 0.72625 0.76931 0.0
C137 C 0.51416 0.79387 0.76655 0.0
C138 C 0.53414 0.79035 0.73362 0.0
C139 C 0.54073 0.75482 0.71788 0.0
C140 C 0.52798 0.72287 0.73619 0.0
N141 N 0.56003 0.75053 0.68386 0.0
C142 C 0.57161 0.7808 0.66311 0.0
H143 H 0.18845 0.52822 0.71624 0.0
H144 H 0.26187 0.56782 0.80024 0.0
H145 H 0.3014 0.55493 0.68856 0.0
C146 C 0.21591 0.5372 0.72469 0.0
C147 C 0.2443 0.53973 0.69845 0.0
C148 C 0.22191 0.5478 0.76119 0.0
C149 C 0.25727 0.56001 0.77183 0.0
C150 C 0.28644 0.56196 0.74586 0.0
C151 C 0.27944 0.55268 0.70889 0.0
N152 N 0.32286 0.57291 0.75626 0.0
C153 C 0.33499 0.57215 0.79259 0.0
H154 H 0.46652 0.139 0.76896 0.0
H155 H 0.44038 0.24031 0.82691 0.0
H156 H 0.4388 0.23927 0.70904 0.0
C157 C 0.45718 0.16776 0.7682 0.0
C158 C 0.45276 0.18607 0.73408 0.0
C159 C 0.45252 0.18713 0.80174 0.0
C160 C 0.44368 0.22525 0.80117 0.0
C161 C 0.43959 0.24418 0.76775 0.0
C162 C 0.44278 0.22428 0.73453 0.0
N163 N 0.43414 0.2835 0.76692 0.0
C164 C 0.44523 0.30684 0.79562 0.0
H165 H 0.69993 0.46818 0.87935 0.0
H166 H 0.78375 0.4842 0.79734 0.0
H167 H 0.66815 0.48702 0.76661 0.0
C168 C 0.70724 0.47137 0.85056 0.0
C169 C 0.67929 0.47585 0.82398 0.0
C170 C 0.74464 0.47442 0.84088 0.0
C171 C 0.75462 0.48104 0.80425 0.0
C172 C 0.72705 0.48527 0.77717 0.0
C173 C 0.68946 0.48259 0.78722 0.0
N174 N 0.73612 0.49414 0.74017 0.0
C175 C 0.77224 0.49973 0.72763 0.0
H176 H 0.47444 0.28195 0.15093 0.0
H177 H 0.48259 0.21358 0.24752 0.0
H178 H 0.48524 0.33316 0.25747 0.0
C179 C 0.47525 0.27943 0.18064 0.0
C180 C 0.47812 0.31188 0.2022 0.0
C181 C 0.47729 0.24382 0.19657 0.0
C182 C 0.48081 0.24089 0.23505 0.0
C183 C 0.4834 0.27318 0.25717 0.0
C184 C 0.48225 0.30841 0.24051 0.0
N185 N 0.48898 0.27134 0.29591 0.0
C186 C 0.48669 0.23887 0.31664 0.0
H187 H 0.73047 0.50376 0.16197 0.0
H188 H 0.77743 0.51692 0.26947 0.0
H189 H 0.65915 0.50333 0.25742 0.0
C190 C 0.7268 0.50471 0.19159 0.0
C191 C 0.69098 0.50189 0.20678 0.0
C192 C 0.75792 0.51016 0.21412 0.0
C193 C 0.75327 0.51229 0.25236 0.0
C194 C 0.71756 0.51004 0.2682 0.0
C195 C 0.68663 0.50477 0.24525 0.0
N196 N 0.71192 0.51411 0.30684 0.0
C197 C 0.74111 0.51906 0.33145 0.0
H198 H 0.54634 0.88874 0.23428 0.0
H199 H 0.55842 0.78945 0.16893 0.0
H200 H 0.57308 0.78444 0.28648 0.0
C201 C 0.55345 0.85934 0.23225 0.0
C202 C 0.56094 0.83913 0.26439 0.0
C203 C 0.55191 0.84147 0.19794 0.0
C204 C 0.55924 0.80307 0.1956 0.0
C205 C 0.56716 0.78224 0.22737 0.0
C206 C 0.56792 0.80047 0.26178 0.0
N207 N 0.57305 0.74294 0.22537 0.0
C208 C 0.56258 0.72174 0.19484 0.0
H209 H 0.28599 0.61153 0.13745 0.0
H210 H 0.22186 0.63986 0.23332 0.0
H211 H 0.34128 0.63719 0.23944 0.0
C212 C 0.28474 0.62126 0.16576 0.0
C213 C 0.31777 0.62536 0.18596 0.0
C214 C 0.25011 0.62571 0.183 0.0
C215 C 0.24872 0.63627 0.22012 0.0
C216 C 0.28148 0.64051 0.24066 0.0
C217 C 0.31599 0.63536 0.22337 0.0
N218 N 0.27994 0.64639 0.27929 0.0
C219 C 0.24948 0.63448 0.29951 0.0
H220 H 0.86445 0.77459 0.50882 0.0
H221 H 0.76173 0.8351 0.49805 0.0
H222 H 0.76327 0.71553 0.48604 0.0
C223 C 0.83488 0.77483 0.50303 0.0
C224 C 0.81651 0.74113 0.49635 0.0
C225 C 0.81512 0.80868 0.50391 0.0
C226 C 0.77677 0.80885 0.49704 0.0
C227 C 0.75778 0.77528 0.49058 0.0
C228 C 0.77785 0.74151 0.49037 0.0
N229 N 0.71853 0.77464 0.48549 0.0
C230 C 0.69633 0.80661 0.48734 0.0
H231 H 0.84305 0.26805 0.48043 0.0
H232 H 0.73871 0.21604 0.50478 0.0
H233 H 0.75021 0.33451 0.51782 0.0
C234 C 0.81393 0.27036 0.48789 0.0
C235 C 0.79918 0.30531 0.4979 0.0
C236 C 0.79252 0.23797 0.49079 0.0
C237 C 0.75507 0.24107 0.5018 0.0
C238 C 0.73961 0.27614 0.51102 0.0
C239 C 0.76179 0.30793 0.50895 0.0
N240 N 0.70282 0.28023 0.5249 0.0
C241 C 0.67709 0.25157 0.52572 0.0
H242 H 0.23435 0.88149 0.54217 0.0
H243 H 0.16459 0.78803 0.56587 0.0
H244 H 0.28329 0.77851 0.57925 0.0
C245 C 0.23141 0.85282 0.55099 0.0
C246 C 0.26325 0.83188 0.55978 0.0
C247 C 0.19579 0.83741 0.55342 0.0
C248 C 0.19205 0.80007 0.56409 0.0
C249 C 0.22364 0.77877 0.57371 0.0
C250 C 0.25903 0.79504 0.5721 0.0
N251 N 0.22056 0.74102 0.58498 0.0
C252 C 0.19134 0.71834 0.57407 0.0
H253 H 0.25017 0.13933 0.49736 0.0
H254 H 0.19484 0.24617 0.49466 0.0
H255 H 0.31337 0.23906 0.48031 0.0
C256 C 0.25134 0.16937 0.49459 0.0
C257 C 0.28579 0.18644 0.48853 0.0
C258 C 0.21839 0.19061 0.49693 0.0
C259 C 0.22013 0.22962 0.49298 0.0
C260 C 0.25447 0.24712 0.48698 0.0
C261 C 0.28701 0.22541 0.48497 0.0
N262 N 0.25758 0.28637 0.48281 0.0
C263 C 0.22782 0.31138 0.48117 0.0
Zn264 Zn 0.90513 0.99666 0.4153 0.0
Zn265 Zn 0.91457 0.08359 0.43654 0.0
O266 O 0.93975 0.0339 0.43788 0.0
H267 H 0.95989 0.02726 0.45415 0.0
C268 C 0.88548 0.94577 0.54876 0.0
O269 O 0.87998 0.9765 0.52995 0.0
Zn270 Zn 0.06977 0.06615 0.56154 0.0
Zn271 Zn 0.0541 0.9796 0.58492 0.0
O272 O 0.03042 0.02644 0.56527 0.0
H273 H 0.00586 0.02719 0.55469 0.0
Zn274 Zn 0.93185 0.99682 0.58962 0.0
O275 O 0.93423 0.03385 0.54762 0.0
Zn276 Zn 0.93949 0.08342 0.57122 0.0
H277 H 0.93933 0.02801 0.5221 0.0
Zn278 Zn 0.03748 0.9703 0.44276 0.0
O279 O 0.03351 0.02075 0.46822 0.0
H280 H 0.01988 0.02514 0.49075 0.0
Zn281 Zn 0.04402 0.05986 0.43095 0.0
C282 C 0.08228 0.93732 0.50037 0.0
O283 O 0.08375 0.97271 0.50979 0.0
O284 O 0.8666 0.02378 0.38337 0.0
O285 O 0.86737 0.08207 0.40512 0.0
O286 O 0.10341 0.99218 0.60823 0.0
O287 O 0.11629 0.05028 0.59136 0.0
O288 O 0.92085 0.02118 0.64043 0.0
O289 O 0.92557 0.08091 0.6252 0.0
C290 C -0.01844 0.11397 0.4065 0.0
O291 O 0.05863 0.97498 0.39026 0.0
O292 O 0.06427 0.03639 0.38397 0.0
O293 O 0.02501 0.94285 0.61785 0.0
C294 C 0.8545 0.05731 0.38316 0.0
O295 O 0.93163 0.95096 0.3918 0.0
C296 C 0.01397 0.11673 0.58754 0.0
O297 O 0.90674 0.94661 0.57666 0.0
C298 C 0.12437 0.02051 0.60913 0.0
O299 O 0.06262 0.92799 0.47286 0.0
C300 C 0.89388 0.11841 0.51294 0.0
O301 O 0.94685 0.11974 0.40917 0.0
O302 O -0.00469 0.08605 0.42313 0.0
C303 C 0.91935 0.05571 0.64905 0.0
O304 O 0.04898 0.11181 0.5866 0.0
O305 O -0.00624 0.09647 0.56703 0.0
C306 C 0.09086 0.09798 0.48415 0.0
O307 O 0.90265 0.11818 0.54687 0.0
O308 O 0.91186 0.09763 0.49065 0.0
C309 C 0.0685 1.00321 0.37157 0.0
O310 O 0.08201 0.0956 0.45037 0.0
O311 O 0.07535 0.0761 0.50688 0.0
C312 C 0.00065 0.91987 0.60705 0.0
O313 O -0.00952 0.91988 0.57233 0.0
C314 C 0.95845 0.95842 0.37034 0.0
O315 O 0.96705 0.99351 0.36486 0.0
Zn316 Zn 0.43725 0.05675 0.05648 0.0
Zn317 Zn 0.43973 0.07179 0.96809 0.0
O318 O 0.4479 0.03252 0.00651 0.0
H319 H 0.45874 0.0081 0.00245 0.0
C320 C 0.51136 0.13167 0.08765 0.0
O321 O 0.49572 0.13353 0.05505 0.0
Zn322 Zn 0.56099 0.94877 0.91362 0.0
Zn323 Zn 0.57621 0.95319 -0.00035 0.0
O324 O 0.54087 0.97116 0.96017 0.0
H325 H 0.52127 0.98964 0.96238 0.0
Zn326 Zn 0.56957 0.08939 0.04679 0.0
O327 O 0.54337 0.06383 0.00442 0.0
Zn328 Zn 0.57223 0.07722 0.95891 0.0
H329 H 0.52631 0.04331 0.00678 0.0
Zn330 Zn 0.44623 0.93535 0.00953 0.0
O331 O 0.47724 0.92712 0.96328 0.0
H332 H 0.46658 0.92973 0.98756 0.0
Zn333 Zn 0.43977 0.94109 0.92619 0.0
C334 C 0.49556 0.92425 0.07385 0.0
O335 O 0.51067 0.95563 0.06316 0.0
O336 O 0.40989 0.10691 0.05084 0.0
O337 O 0.41066 0.11532 0.99017 0.0
O338 O 0.61673 0.91698 0.98153 0.0
O339 O 0.60126 0.90901 0.92284 0.0
O340 O 0.61815 0.11451 0.03158 0.0
O341 O 0.62191 0.10194 0.97163 0.0
C342 C 0.40657 0.01678 0.92001 0.0
O343 O 0.39074 0.9236 0.00103 0.0
O344 O 0.38996 0.91811 0.9401 0.0
O345 O 0.59036 0.98679 0.04364 0.0
C346 C 0.40065 0.12546 0.02247 0.0
O347 O 0.41244 0.02534 0.09756 0.0
C348 C 0.59496 0.02056 0.89857 0.0
O349 O 0.5415 0.11331 0.09119 0.0
C350 C 0.62218 0.90161 0.9503 0.0
O351 O 0.46804 0.9113 0.05627 0.0
C352 C 0.50598 0.10962 0.92848 0.0
O353 O 0.4058 0.0508 0.92977 0.0
O354 O 0.43461 0.99683 0.9285 0.0
C355 C 0.63542 0.11615 0.00101 0.0
O356 O 0.58956 0.98788 0.88601 0.0
O357 O 0.57776 0.03045 0.92778 0.0
C358 C 0.49026 0.91564 0.86552 0.0
O359 O 0.54117 0.11214 0.92855 0.0
O360 O 0.4908 0.08696 0.95061 0.0
C361 C 0.37387 0.91531 0.97134 0.0
O362 O 0.45717 0.92049 0.87735 0.0
O363 O 0.51774 0.9282 0.88376 0.0
C364 C 0.61721 0.00949 0.04126 0.0
O365 O 0.63448 0.01323 0.0096 0.0
C366 C 0.39683 0.99452 0.09035 0.0
O367 O 0.39956 0.98071 0.0569 0.0
Zn368 Zn 0.94508 0.45392 0.95585 0.0
Zn369 Zn 0.93299 0.54183 0.95116 0.0
O370 O 0.97302 0.50287 0.94888 0.0
H371 H -0.001 0.5066 0.95433 0.0
C372 C 0.95262 0.41557 0.05591 0.0
O373 O 0.96457 0.43917 0.03114 0.0
Zn374 Zn 0.05389 0.58996 0.05584 0.0
Zn375 Zn 0.05381 0.5194 0.10677 0.0
O376 O 0.03793 0.53691 0.05593 0.0
H377 H 0.03767 0.52134 0.03414 0.0
Zn378 Zn 0.9633 0.47963 0.10554 0.0
O379 O 0.96916 0.51733 0.06369 0.0
Zn380 Zn 0.94887 0.56389 0.08612 0.0
H381 H 0.96922 0.51136 0.03773 0.0
Zn382 Zn 0.07045 0.49402 0.92859 0.0
O383 O 0.07014 0.53842 0.96385 0.0
H384 H 0.08691 0.54041 0.98449 0.0
Zn385 Zn 0.05734 0.5786 0.92755 0.0
C386 C 0.0943 0.43587 0.98197 0.0
O387 O 0.09085 0.46312 0.00608 0.0
O388 O 0.88909 0.4579 0.94417 0.0
O389 O 0.88381 0.51911 0.93782 0.0
O390 O 0.0987 0.54907 0.12549 0.0
O391 O 0.10322 0.59346 0.08317 0.0
O392 O 0.92187 0.49541 0.14228 0.0
O393 O 0.90521 0.54989 0.1183 0.0
C394 C 0.97445 0.59301 0.90608 0.0
O395 O 0.09699 0.50844 0.88067 0.0
O396 O 0.08854 0.56997 0.88147 0.0
O397 O 0.05226 0.463 0.12155 0.0
C398 C 0.86989 0.48665 0.93618 0.0
O399 O 0.9647 0.40749 0.9282 0.0
C400 C 0.00502 0.61835 0.1137 0.0
O401 O 0.95299 0.42514 0.08961 0.0
C402 C 0.1157 0.57668 0.11154 0.0
O403 O 0.08625 0.44195 0.94847 0.0
C404 C 0.92313 0.59477 0.01585 0.0
O405 O 0.942 0.58213 0.91421 0.0
O406 O 0.00175 0.57643 0.92131 0.0
C407 C 0.89955 0.52311 0.14054 0.0
O408 O 0.01767 0.62493 0.0817 0.0
O409 O -0.01572 0.59044 0.11984 0.0
C410 C 0.06953 0.63284 0.98347 0.0
O411 O 0.92859 0.60117 0.04978 0.0
O412 O 0.93338 0.5634 0.00258 0.0
C413 C 0.10254 0.54052 0.86693 0.0
O414 O 0.07034 0.62846 0.94879 0.0
O415 O 0.05963 0.60515 0.00284 0.0
C416 C 0.03508 0.45389 0.15075 0.0
O417 O 0.01714 0.47993 0.16939 0.0
C418 C -0.0088 0.40882 0.90519 0.0
O419 O 0.0105 0.43964 0.9025 0.0
Zn420 Zn 0.40778 0.50755 0.00561 0.0
Zn421 Zn 0.45131 0.47767 0.07316 0.0
O422 O 0.46033 0.50225 0.02475 0.0
H423 H 0.48048 0.5188 0.01892 0.0
C424 C 0.5071 0.4001 0.909 0.0
O425 O 0.50052 0.43619 0.90924 0.0
Zn426 Zn 0.55854 0.58649 0.04693 0.0
Zn427 Zn 0.54773 0.58238 0.96135 0.0
O428 O 0.54573 0.55012 0.00722 0.0
H429 H 0.54565 0.52323 0.00776 0.0
Zn430 Zn 0.55982 0.41831 0.9706 0.0
O431 O 0.53511 0.44285 0.01482 0.0
Zn432 Zn 0.57342 0.44918 0.05506 0.0
H433 H 0.50859 0.44655 0.01701 0.0
Zn434 Zn 0.42569 0.60338 0.94811 0.0
O435 O 0.4626 0.6007 0.99082 0.0
H436 H 0.48923 0.60226 0.98814 0.0
Zn437 Zn 0.43404 0.60868 0.03791 0.0
C438 C 0.4669 0.61596 0.87556 0.0
O439 O 0.48636 0.58562 0.88225 0.0
O440 O 0.37356 0.46618 0.02466 0.0
O441 O 0.40912 0.44093 0.06819 0.0
O442 O 0.58706 0.62349 0.96765 0.0
O443 O 0.59819 0.62106 0.02778 0.0
O444 O 0.612 0.39938 0.98384 0.0
O445 O 0.62238 0.4224 0.04008 0.0
C446 C 0.42715 0.55042 0.09977 0.0
O447 O 0.37496 0.62437 0.96497 0.0
O448 O 0.38154 0.62794 0.02571 0.0
O449 O 0.55618 0.55434 0.91219 0.0
C450 C 0.37938 0.44132 0.04898 0.0
O451 O 0.40025 0.52513 0.95176 0.0
C452 C 0.58571 0.52519 0.0928 0.0
O453 O 0.52983 0.38651 0.93227 0.0
C454 C 0.6056 0.63355 -0.00419 0.0
O455 O 0.44226 0.62685 0.89845 0.0
C456 C 0.51869 0.43081 0.10802 0.0
O457 O 0.43384 0.51692 0.10936 0.0
O458 O 0.43496 0.56 0.06685 0.0
C459 C 0.63285 0.40328 0.01191 0.0
O460 O 0.57945 0.5601 0.09115 0.0
O461 O 0.57686 0.50479 0.06541 0.0
C462 C 0.49517 0.64048 0.0759 0.0
O463 O 0.55284 0.42527 0.10054 0.0
O464 O 0.50027 0.4529 0.08745 0.0
C465 C 0.36218 0.63281 -0.00332 0.0
O466 O 0.46075 0.64616 0.07019 0.0
O467 O 0.51073 0.61417 0.05779 0.0
C468 C 0.5568 0.519 0.90972 0.0
O469 O 0.54717 0.49922 0.93847 0.0
C470 C 0.36966 0.54058 0.94297 0.0
O471 O 0.34392 0.54529 0.96834 0.0
Zn472 Zn 0.95877 0.50359 0.41565 0.0
Zn473 Zn 0.9353 0.57999 0.45385 0.0
O474 O 0.97287 0.53845 0.4566 0.0
H475 H -0.01178 0.53251 0.47759 0.0
C476 C 0.88854 0.43384 0.53036 0.0
O477 O 0.87368 0.4673 0.52752 0.0
Zn478 Zn 0.07781 0.55955 0.5598 0.0
Zn479 Zn 0.08274 0.46962 0.55649 0.0
O480 O 0.04787 0.51436 0.54993 0.0
H481 H 0.02341 0.51402 0.53898 0.0
Zn482 Zn 0.93826 0.47668 0.57477 0.0
O483 O 0.93702 0.52369 0.5443 0.0
Zn484 Zn 0.94032 0.56392 0.58245 0.0
H485 H 0.92568 0.52495 0.52027 0.0
Zn486 Zn 0.10058 0.50072 0.41773 0.0
O487 O 0.07319 0.53291 0.4555 0.0
H488 H 0.05871 0.52344 0.47576 0.0
Zn489 Zn 0.06836 0.58392 0.43281 0.0
C490 C 0.13492 0.44045 0.46247 0.0
O491 O 0.13312 0.46603 0.48847 0.0
O492 O 0.90458 0.50984 0.39977 0.0
O493 O 0.88712 0.56232 0.42827 0.0
O494 O 0.13533 0.48372 0.57551 0.0
O495 O 0.12892 0.54537 0.57806 0.0
O496 O 0.91199 0.48531 0.62431 0.0
O497 O 0.91247 0.54713 0.62873 0.0
C498 C -0.00739 0.62237 0.41789 0.0
O499 O 0.1306 0.53257 0.38161 0.0
O500 O 0.102 0.58754 0.38766 0.0
O501 O 0.05869 0.42371 0.58119 0.0
C502 C 0.87983 0.53428 0.40755 0.0
O503 O -0.01677 0.45138 0.40989 0.0
C504 C 0.01757 0.59561 0.60269 0.0
O505 O 0.91851 0.42987 0.54845 0.0
C506 C 0.14838 0.51592 0.58265 0.0
O507 O 0.12213 0.44805 0.43076 0.0
C508 C 0.90947 0.61486 0.52916 0.0
O509 O 0.95793 0.62234 0.42493 0.0
O510 O 0.01276 0.59579 0.43001 0.0
C511 C 0.90287 0.51529 0.64107 0.0
O512 O 0.05228 0.59354 0.59611 0.0
O513 O -0.004 0.57192 0.58795 0.0
C514 C 0.09434 0.61728 0.49963 0.0
O515 O 0.91268 0.60934 0.56354 0.0
O516 O 0.92719 0.59337 0.50731 0.0
C517 C 0.12668 0.56666 0.37257 0.0
O518 O 0.0905 0.62286 0.46549 0.0
O519 O 0.08194 0.58682 0.5123 0.0
C520 C 0.02777 0.42908 0.59744 0.0
O521 O 0.01243 0.46242 0.59644 0.0
C522 C 0.01531 0.44712 0.39568 0.0
O523 O 0.03409 0.47675 0.38594 0.0
Zn524 Zn 0.452 0.96639 0.42537 0.0
Zn525 Zn 0.42472 0.05158 0.44075 0.0
O526 O 0.47054 0.01939 0.43211 0.0
H527 H 0.49394 0.02721 0.42175 0.0
C528 C 0.39635 0.92011 0.55565 0.0
O529 O 0.3977 0.94741 0.53171 0.0
Zn530 Zn 0.57505 0.08481 0.56695 0.0
Zn531 Zn 0.59754 0.99763 0.57308 0.0
O532 O 0.55428 0.03306 0.56484 0.0
H533 H 0.53093 0.02597 0.5539 0.0
Zn534 Zn 0.45124 0.96702 0.5939 0.0
O535 O 0.45665 0.00649 0.55359 0.0
Zn536 Zn 0.44783 0.05562 0.57886 0.0
H537 H 0.46544 1.00258 0.5287 0.0
Zn538 Zn 0.59373 0.01639 0.44985 0.0
O539 O 0.54919 0.04465 0.47052 0.0
H540 H 0.53025 0.03465 0.48647 0.0
Zn541 Zn 0.54365 0.08994 0.43827 0.0
C542 C 0.62815 0.95164 0.4863 0.0
O543 O 0.64223 0.97814 0.50699 0.0
O544 O 0.39936 0.96855 0.40386 0.0
O545 O 0.38004 0.02637 0.41675 0.0
O546 O 0.63905 0.02389 0.60176 0.0
O547 O 0.6254 0.08382 0.59214 0.0
O548 O 0.43551 0.98962 0.64406 0.0
O549 O 0.42349 0.04795 0.62735 0.0
C550 C 0.46338 0.11386 0.4124 0.0
O551 O 0.60905 0.03489 0.39887 0.0
O552 O 0.57022 0.08256 0.38968 0.0
O553 O 0.58536 0.94283 0.5872 0.0
C554 C 0.37474 0.99425 0.40228 0.0
O555 O 0.48572 0.92619 0.39942 0.0
C556 C 0.50977 0.10839 0.60543 0.0
O557 O 0.4181 0.92082 0.58314 0.0
C558 C 0.64595 0.05844 0.6062 0.0
O559 O 0.60525 0.96048 0.46115 0.0
C560 C 0.40682 0.08654 0.51525 0.0
O561 O 0.43075 0.10092 0.41485 0.0
O562 O 0.48898 0.09611 0.42902 0.0
C563 C 0.42246 0.02202 0.65107 0.0
O564 O 0.54353 0.11684 0.60048 0.0
O565 O 0.49654 0.08184 0.58621 0.0
C566 C 0.57787 0.13311 0.49618 0.0
O567 O 0.41385 0.08842 0.54948 0.0
O568 O 0.42171 0.06065 0.49594 0.0
C569 C 0.59609 0.06073 0.37855 0.0
O570 O 0.56687 0.13436 0.46299 0.0
O571 O 0.57131 0.10392 0.51473 0.0
C572 C 0.61036 0.92167 0.60061 0.0
O573 O 0.64417 0.93465 0.6047 0.0
C574 C 0.51728 0.93286 0.38513 0.0
O575 O 0.53136 0.96638 0.3887 0.0
C576 C 0.17785 0.14031 0.52354 0.0
C577 C 0.18212 0.17136 0.50027 0.0
H578 H 0.14477 0.0927 0.53723 0.0
C579 C 0.15288 0.18118 0.47669 0.0
H580 H 0.19977 0.13237 0.5424 0.0
C581 C 0.12163 0.15867 0.47396 0.0
C582 C 0.11866 0.126 0.49493 0.0
H583 H 0.15526 0.20473 0.45831 0.0
H584 H 0.10078 0.16573 0.45369 0.0
C585 C 0.14622 0.11785 0.52099 0.0
C586 C 0.80775 0.17734 0.52003 0.0
C587 C 0.81185 0.20127 0.48991 0.0
H588 H 0.83088 0.13219 0.55066 0.0
C589 C 0.83966 0.19329 0.46352 0.0
H590 H 0.78692 0.18284 0.541 0.0
C591 C 0.86497 0.16391 0.46906 0.0
C592 C 0.86298 0.14271 0.5013 0.0
H593 H 0.84327 0.21124 0.43993 0.0
H594 H 0.88766 0.15976 0.44977 0.0
C595 C 0.83321 0.14855 0.52577 0.0
C596 C 0.85552 0.84482 0.5468 0.0
C597 C 0.83394 0.84358 0.51467 0.0
H598 H 0.88757 0.87841 0.58348 0.0
C599 C 0.82921 0.87614 0.49388 0.0
H600 H 0.85899 0.82022 0.56368 0.0
C601 C 0.84607 0.90933 0.5049 0.0
C602 C 0.8676 0.91065 0.53715 0.0
H603 H 0.81265 0.87584 0.46901 0.0
H604 H 0.84215 0.93394 0.48814 0.0
C605 C 0.87191 0.87811 0.5581 0.0
C606 C 0.13601 0.84805 0.51928 0.0
C607 C 0.163 0.86082 0.54412 0.0
H608 H 0.08899 0.8623 0.48591 0.0
C609 C 0.16046 0.89757 0.55756 0.0
H610 H 0.13737 0.81985 0.50847 0.0
C611 C 0.13302 0.92183 0.54463 0.0
C612 C 0.10741 0.90989 0.51802 0.0
H613 H 0.18056 0.90797 0.5772 0.0
H614 H 0.13302 0.95042 0.55431 0.0
C615 C 0.10846 0.87242 0.50628 0.0
C616 C 0.50839 0.18345 0.17872 0.0
C617 C 0.48064 0.21044 0.17217 0.0
H618 H 0.53964 0.13715 0.15732 0.0
C619 C 0.45968 0.20791 0.13959 0.0
H620 H 0.52528 0.18469 0.20333 0.0
C621 C 0.46823 0.18086 0.11293 0.0
C622 C 0.49781 0.15565 0.11834 0.0
H623 H 0.43773 0.22793 0.13396 0.0
H624 H 0.45289 0.18098 0.08732 0.0
C625 C 0.51684 0.15633 0.15212 0.0
C626 C 0.82559 0.49363 0.20874 0.0
C627 C 0.79506 0.51528 0.19735 0.0
H628 H 0.88277 0.47904 0.1996 0.0
C629 C 0.79988 0.54143 0.16917 0.0
H630 H 0.82251 0.47335 0.2305 0.0
C631 C 0.83435 0.54515 0.1519 0.0
C632 C 0.86458 0.52236 0.16207 0.0
H633 H 0.77684 0.55879 0.16027 0.0
H634 H 0.83689 0.56499 0.12968 0.0
C635 C 0.85999 0.49691 0.19104 0.0
C636 C 0.55272 0.89807 0.15748 0.0
C637 C 0.53913 0.86229 0.16518 0.0
H638 H 0.5497 0.9458 0.12233 0.0
C639 C 0.51156 0.84707 0.14247 0.0
H640 H 0.57406 0.91038 0.17455 0.0
C641 C 0.49753 0.8673 0.1129 0.0
C642 C 0.51087 0.90317 0.10523 0.0
H643 H 0.50014 0.81982 0.14809 0.0
H644 H 0.47605 0.85478 0.09615 0.0
C645 C 0.53883 0.91828 0.12762 0.0
C646 C 0.19168 0.58917 0.18188 0.0
C647 C 0.21563 0.61411 0.16419 0.0
H648 H 0.14171 0.55777 0.17912 0.0
C649 C 0.20679 0.62667 0.12871 0.0
H650 H 0.19816 0.57857 0.20901 0.0
C651 C 0.17409 0.61486 0.11148 0.0
C652 C 0.15021 0.58975 0.12925 0.0
H653 H 0.22494 0.64584 0.11452 0.0
H654 H 0.1677 0.62511 0.0842 0.0
C655 C 0.15946 0.57704 0.16459 0.0
C656 C 0.47191 0.84181 0.79381 0.0
C657 C 0.50811 0.83046 0.78446 0.0
H658 H 0.43782 0.87848 0.82595 0.0
C659 C 0.53841 0.85119 0.79731 0.0
H660 H 0.44816 0.82623 0.78404 0.0
C661 C 0.53266 0.88092 0.82188 0.0
C662 C 0.49647 0.89044 0.8336 0.0
H663 H 0.56659 0.84272 0.79047 0.0
H664 H 0.55662 0.89492 0.8333 0.0
C665 C 0.4661 0.87172 0.81787 0.0
C666 C 0.18095 0.57794 0.80877 0.0
C667 C 0.19069 0.54643 0.78768 0.0
H668 H 0.14439 0.60119 0.84962 0.0
C669 C 0.16946 0.51391 0.79079 0.0
H670 H 0.19663 0.60348 0.80639 0.0
C671 C 0.1397 0.5125 0.81545 0.0
C672 C 0.13022 0.5438 0.83705 0.0
H673 H 0.17638 0.4893 0.77466 0.0
H674 H 0.12454 0.48667 0.81809 0.0
C675 C 0.15074 0.57676 0.83302 0.0
C676 C 0.48447 0.1867 0.86275 0.0
C677 C 0.46109 0.1688 0.83737 0.0
H678 H 0.51633 0.18193 0.91215 0.0
C679 C 0.44811 0.13284 0.84546 0.0
H680 H 0.49534 0.21418 0.85717 0.0
C681 C 0.45979 0.11453 0.8775 0.0
C682 C 0.48494 0.13179 0.90155 0.0
H683 H 0.42993 0.11847 0.82644 0.0
H684 H 0.45143 0.08598 0.88196 0.0
C685 C 0.49642 0.16831 0.89432 0.0
C686 C 0.78256 0.51102 0.88449 0.0
C687 C 0.773 0.47625 0.86978 0.0
H688 H 0.82029 0.54152 0.9182 0.0
C689 C 0.79194 0.44408 0.88118 0.0
H690 H 0.76785 0.53605 0.87608 0.0
C691 C 0.82188 0.44699 0.90548 0.0
C692 C 0.83331 0.48221 0.91833 0.0
H693 H 0.78454 0.41701 0.87015 0.0
H694 H 0.83736 0.42196 0.9124 0.0
C695 C 0.81242 0.51401 0.90867 0.0
C696 C 0.70276 0.6706 0.00853 0.0
C697 C 0.70896 0.688 0.97458 0.0
H698 H 0.66468 0.64066 0.04238 0.0
C699 C 0.67975 0.6905 0.94911 0.0
H700 H 0.72474 0.66883 0.0288 0.0
C701 C 0.64543 0.67434 0.95675 0.0
C702 C 0.63952 0.6558 0.99022 0.0
H703 H 0.68387 0.70383 0.92274 0.0
H704 H 0.62386 0.67549 0.93601 0.0
C705 C 0.66825 0.6549 0.01642 0.0
C706 C 0.28399 0.69723 0.96921 0.0
C707 C 0.2722 0.71079 0.0036 0.0
H708 H 0.32096 0.66079 0.93997 0.0
C709 C 0.28508 0.69345 0.03573 0.0
H710 H 0.27429 0.71027 0.94412 0.0
C711 C 0.31239 0.66548 0.03353 0.0
C712 C 0.32691 0.65435 -0.00087 0.0
H713 H 0.27638 0.70363 0.06255 0.0
H714 H 0.32384 0.65445 0.05881 0.0
C715 C 0.3108 0.66896 0.96695 0.0
C716 C 0.29866 0.37713 0.03024 0.0
C717 C 0.30566 0.34831 0.05533 0.0
H718 H 0.31654 0.42922 0.00851 0.0
C719 C 0.33425 0.35254 0.08132 0.0
H720 H 0.277 0.37451 0.00974 0.0
C721 C 0.35728 0.38362 0.08035 0.0
C722 C 0.35203 0.41115 0.05346 0.0
H723 H 0.33988 0.33094 0.10132 0.0
H724 H 0.38002 0.38528 0.09976 0.0
C725 C 0.32161 0.4083 0.02934 0.0
C726 C 0.72731 0.36595 0.04191 0.0
C727 C 0.73506 0.33955 0.01404 0.0
H728 H 0.68894 0.40685 0.0633 0.0
C729 C 0.7096 0.33519 0.9852 0.0
H730 H 0.74646 0.36981 0.06456 0.0
C731 C 0.67701 0.35656 0.98425 0.0
C732 C 0.66881 0.38263 0.01234 0.0
H733 H 0.71506 0.31549 0.96308 0.0
H734 H 0.658 0.35218 0.96158 0.0
C735 C 0.6944 0.38714 0.04119 0.0
C736 C 0.96473 0.65621 0.67145 0.0
C737 C -0.01532 0.68965 0.66853 0.0
H738 H 0.95901 0.59972 0.65195 0.0
C739 C 0.01385 0.69197 0.64302 0.0
H740 H 0.94212 0.6539 0.69102 0.0
C741 C 0.02338 0.66151 0.62117 0.0
C742 C 0.00386 0.62793 0.62403 0.0
H743 H 0.02991 0.71728 0.64049 0.0
H744 H 0.04647 0.66419 0.60215 0.0
C745 C 0.97407 0.62552 0.64895 0.0
C746 C 0.34752 0.06191 0.7111 0.0
C747 C 0.33748 0.02997 0.73066 0.0
H748 H 0.38383 0.08493 0.67093 0.0
C749 C 0.3618 0.99911 0.73125 0.0
H750 H 0.32944 0.08624 0.71085 0.0
C751 C 0.39276 0.99808 0.70817 0.0
C752 C 0.39964 0.02793 0.68435 0.0
H753 H 0.35475 0.97416 0.74635 0.0
H754 H 0.40893 0.97251 0.70639 0.0
C755 C 0.37864 0.06102 0.68824 0.0
C756 C 0.97123 0.38401 0.67221 0.0
C757 C -0.01127 0.34905 0.67513 0.0
H758 H 0.96946 0.4365 0.64488 0.0
C759 C 0.01625 0.33873 0.64954 0.0
H760 H 0.9498 0.39239 0.69166 0.0
C761 C 0.02793 0.36416 0.62292 0.0
C762 C 0.01194 0.40007 0.6214 0.0
H763 H 0.03015 0.31189 0.65149 0.0
H764 H 0.05046 0.35623 0.60457 0.0
C765 C -0.01747 0.40919 0.64543 0.0
C766 C 0.69557 0.11162 0.68131 0.0
C767 C 0.72184 0.08511 0.69292 0.0
H768 H 0.6517 0.12447 0.64363 0.0
C769 C 0.7249 0.05094 0.67401 0.0
H770 H 0.69314 0.13834 0.6952 0.0
C771 C 0.70137 0.04292 0.64462 0.0
C772 C 0.6746 0.06913 0.63324 0.0
H773 H 0.74511 0.03011 0.68246 0.0
H774 H 0.70364 0.01589 0.63129 0.0
C775 C 0.67235 0.10384 0.65147 0.0
C776 C 0.06952 0.36964 0.34838 0.0
C777 C 0.04652 0.33882 0.35477 0.0
H778 H 0.07805 0.42809 0.35679 0.0
C779 C 0.01596 0.34305 0.37862 0.0
H780 H 0.09355 0.36706 0.33049 0.0
C781 C 0.00705 0.37792 0.39366 0.0
C782 C 0.02852 0.40932 0.38516 0.0
H783 H -0.00247 0.31993 0.38389 0.0
H784 H -0.01773 0.38055 0.41051 0.0
C785 C 0.06067 0.40455 0.36352 0.0
C786 C 0.61511 0.0989 0.28329 0.0
C787 C 0.64873 0.08071 0.27481 0.0
H788 H 0.57192 0.10707 0.32337 0.0
C789 C 0.66372 0.05475 0.29952 0.0
H790 H 0.60308 0.11885 0.26437 0.0
C791 C 0.64599 0.04765 0.3327 0.0
C792 C 0.61298 0.06665 0.34207 0.0
H793 H 0.68938 0.03997 0.29316 0.0
H794 H 0.65867 0.0278 0.35131 0.0
C795 C 0.59745 0.09214 0.31693 0.0
C796 C 0.00202 0.71232 0.36504 0.0
C797 C 0.02738 0.70121 0.33756 0.0
H798 H 0.97115 0.69568 0.41284 0.0
C799 C 0.04507 0.66624 0.34033 0.0
H800 H -0.01231 0.73895 0.36329 0.0
C801 C 0.03479 0.64137 0.36769 0.0
C802 C 0.00801 0.6514 0.39392 0.0
H803 H 0.06458 0.65686 0.31939 0.0
H804 H 0.04499 0.61307 0.36608 0.0
C805 C -0.00767 0.68748 0.39307 0.0
C806 C 0.28818 0.01293 0.34568 0.0
C807 C 0.28649 0.98041 0.32392 0.0
H808 H 0.31708 0.04275 0.38796 0.0
C809 C 0.31212 0.95148 0.33028 0.0
H810 H 0.26864 0.03565 0.34142 0.0
C811 C 0.33946 0.95527 0.35719 0.0
C812 C 0.34208 0.98828 0.37819 0.0
H813 H 0.31096 0.9258 0.31449 0.0
H814 H 0.35922 0.93262 0.36073 0.0
C815 C 0.31578 0.01689 0.37247 0.0
C816 C 0.00688 0.17847 0.32948 0.0
C817 C 0.03486 0.2002 0.34567 0.0
H818 H 0.9683 0.13385 0.33635 0.0
C819 C 0.04863 0.18978 0.38046 0.0
H820 H -0.0048 0.18596 0.30305 0.0
C821 C 0.03324 0.15961 0.39942 0.0
C822 C 0.00384 0.13952 0.38398 0.0
H823 H 0.07017 0.20596 0.39368 0.0
H824 H 0.04231 0.15373 0.42715 0.0
C825 C -0.00864 0.14869 0.34858 0.0
C826 C 0.79928 0.05099 0.2952 0.0
C827 C 0.80076 0.0878 0.28277 0.0
H828 H 0.81417 0.01253 0.33753 0.0
C829 C 0.81529 0.11562 0.30567 0.0
H830 H 0.78739 0.02932 0.27807 0.0
C831 C 0.83019 0.10624 0.34005 0.0
C832 C 0.83085 0.06885 0.35178 0.0
H833 H 0.816 0.14435 0.29663 0.0
H834 H 0.84298 0.12793 0.35645 0.0
C835 C 0.81423 0.04154 0.32937 0.0
C836 C -0.00901 0.86239 0.33932 0.0
C837 C 0.01545 0.87152 0.31079 0.0
H838 H 0.95359 0.88298 0.38084 0.0
C839 C 0.02193 0.90893 0.30245 0.0
H840 H -0.01446 0.83348 0.34581 0.0
C841 C 0.00388 0.9372 0.32232 0.0
C842 C 0.97877 0.92837 0.35062 0.0
H843 H 0.04059 0.91633 0.28023 0.0
H844 H 0.00913 0.96592 0.31503 0.0
C845 C 0.9727 0.89066 0.35914 0.0
C846 C 0.13174 0.95399 0.30406 0.0
C847 C 0.15302 0.98398 0.29173 0.0
H848 H 0.08776 0.93657 0.33936 0.0
C849 C 0.14127 0.02057 0.29947 0.0
H850 H 0.1407 0.92555 0.29865 0.0
C851 C 0.11062 0.02707 0.32234 0.0
C852 C 0.0919 0.99697 0.33848 0.0
H853 H 0.15761 0.04403 0.29032 0.0
H854 H 0.1039 0.05558 0.33 0.0
C855 C 0.10146 0.96041 0.32743 0.0
C856 C -0.00328 0.85549 0.68921 0.0
C857 C 0.97329 0.82708 0.67631 0.0
H858 H 0.02328 0.90726 0.67776 0.0
C859 C 0.95533 0.83202 0.64223 0.0
H860 H 0.01139 0.85267 0.71505 0.0
C861 C 0.96312 0.86288 0.62025 0.0
C862 C -0.0118 0.89009 0.63226 0.0
H863 H 0.93643 0.81118 0.6317 0.0
H864 H 0.95074 0.86454 0.5932 0.0
C865 C 0.00387 0.88673 0.66755 0.0
C866 C 0.18732 0.98654 0.68526 0.0
C867 C 0.20597 0.01911 0.69543 0.0
H868 H 0.14842 0.96104 0.64914 0.0
C869 C 0.19991 0.05187 0.675 0.0
H870 H 0.19226 0.96066 0.69979 0.0
C871 C 0.17468 0.05225 0.64565 0.0
C872 C 0.15536 0.01974 0.636 0.0
H873 H 0.21435 0.07731 0.68208 0.0
H874 H 0.16962 0.07815 0.63122 0.0
C875 C 0.16257 0.98675 0.6558 0.0
C876 C 0.00249 0.1662 0.67862 0.0
C877 C 0.96874 0.18509 0.67384 0.0
H878 H 0.04323 0.12974 0.65479 0.0
C879 C 0.94952 0.18196 0.64046 0.0
H880 H 0.01773 0.16862 0.70423 0.0
C881 C 0.96394 0.15945 0.61209 0.0
C882 C -0.00213 0.14043 0.61685 0.0
H883 H 0.92349 0.19679 0.63637 0.0
H884 H 0.94901 0.15745 0.58636 0.0
C885 C 0.01706 0.14418 0.65031 0.0
C886 C 0.86973 0.11541 0.71888 0.0
C887 C 0.85022 0.08798 0.73805 0.0
H888 H 0.90784 0.1265 0.67537 0.0
C889 C 0.86186 0.05062 0.73511 0.0
H890 H 0.86091 0.14435 0.7205 0.0
C891 C 0.88841 0.04017 0.70878 0.0
C892 C 0.90346 0.06706 0.68513 0.0
H893 H 0.84684 0.029 0.74944 0.0
H894 H 0.89382 0.01073 0.70429 0.0
C895 C 0.8963 0.10502 0.6926 0.0
C896 C 0.33154 0.98567 0.17161 0.0
C897 C 0.31161 0.95377 0.16184 0.0
H898 H 0.37474 0.02344 0.15686 0.0
C899 C 0.32232 0.93294 0.13081 0.0
H900 H 0.32353 1.00204 0.19556 0.0
C901 C 0.35173 0.94496 0.10867 0.0
C902 C 0.37046 0.97823 0.11708 0.0
H903 H 0.30718 0.90814 0.12295 0.0
H904 H 0.35891 0.92895 0.0843 0.0
C905 C 0.36083 0.9978 0.14946 0.0
C906 C 0.0236 0.3707 0.21371 0.0
C907 C 0.047 0.34414 0.19704 0.0
H908 H 0.00121 0.42612 0.21201 0.0
C909 C 0.06519 0.35287 0.16407 0.0
H910 H 0.00924 0.36436 0.23916 0.0
C911 C 0.06058 0.38822 0.14831 0.0
C912 C 0.0378 0.41539 0.16545 0.0
H913 H 0.08334 0.33259 0.15079 0.0
H914 H 0.07544 0.39449 0.12316 0.0
C915 C 0.01902 0.406 0.1981 0.0
C916 C 0.67336 0.07169 0.10474 0.0
C917 C 0.65873 0.06252 0.13951 0.0
H918 H 0.67282 0.06112 0.04667 0.0
C919 C 0.6297 0.03636 0.14105 0.0
H920 H 0.69533 0.09192 0.10204 0.0
C921 C 0.61553 0.02032 0.10909 0.0
C922 C 0.63076 0.02883 0.07463 0.0
H923 H 0.61837 0.02706 0.16698 0.0
H924 H 0.59334 1.00027 0.11162 0.0
C925 C 0.66005 0.05443 0.07279 0.0
C926 C -0.0107 0.67173 0.20202 0.0
C927 C 0.01905 0.69687 0.20191 0.0
H928 H 0.96182 0.62715 0.17457 0.0
C929 C 0.0427 0.69806 0.17114 0.0
H930 H 0.97009 0.67082 0.22501 0.0
C931 C 0.03775 0.67307 0.14184 0.0
C932 C 0.0092 0.64652 0.14308 0.0
H933 H 0.06586 0.71716 0.17041 0.0
H934 H 0.05698 0.67368 0.1189 0.0
C935 C -0.0154 0.64667 0.17312 0.0
C936 C 0.30523 1.00272 0.89817 0.0
C937 C 0.30709 0.97728 0.86895 0.0
H938 H 0.33565 0.03494 0.93735 0.0
C939 C 0.34163 0.96214 0.85829 0.0
H940 H 0.27887 0.01515 0.90631 0.0
C941 C 0.3743 0.97374 0.87573 0.0
C942 C 0.37265 1.00067 0.90386 0.0
H943 H 0.34356 0.94308 0.83509 0.0
H944 H 0.40081 0.96332 0.86588 0.0
C945 C 0.33774 0.01433 0.9155 0.0
C946 C 0.96191 0.33265 0.83977 0.0
C947 C -0.01217 0.33685 0.81118 0.0
H948 H 0.94312 0.35161 0.89247 0.0
C949 C 0.01843 0.36045 0.81674 0.0
H950 H 0.93804 0.31474 0.83643 0.0
C951 C 0.02111 0.38206 0.84869 0.0
C952 C -0.00654 0.38016 0.87589 0.0
H953 H 0.03951 0.36345 0.79564 0.0
H954 H 0.04381 0.40158 0.85119 0.0
C955 C 0.96481 0.35394 0.8719 0.0
C956 C 0.65402 0.10391 0.87144 0.0
C957 C 0.68163 0.08623 0.85021 0.0
H958 H 0.60418 0.09719 0.90294 0.0
C959 C 0.67919 0.04804 0.84286 0.0
H960 H 0.65535 0.13358 0.877 0.0
C961 C 0.65017 0.02732 0.85765 0.0
C962 C 0.62307 0.04436 0.88037 0.0
H963 H 0.70023 0.034 0.82632 0.0
H964 H 0.64975 0.99759 0.85222 0.0
C965 C 0.62491 0.08305 0.88648 0.0
C966 C 0.94845 0.6736 0.84422 0.0
C967 C -0.01692 0.68765 0.83423 0.0
H968 H 0.9187 0.63298 0.87468 0.0
C969 C 0.01561 0.6705 0.84745 0.0
H970 H 0.92306 0.68659 0.83434 0.0
C971 C 0.01333 0.63946 0.87077 0.0
C972 C 0.97847 0.6254 0.88112 0.0
H973 H 0.04266 0.68119 0.83998 0.0
H974 H 0.0387 0.6267 0.88067 0.0
C975 C 0.94612 0.64287 0.86739 0.0
C976 C 0.13599 0.33864 0.97543 0.0
C977 C 0.1493 0.33352 0.01122 0.0
H978 H 0.10768 0.37496 0.93811 0.0
C979 C 0.14263 0.36094 0.03809 0.0
H980 H 0.14101 0.31766 0.95436 0.0
C981 C 0.12357 0.39379 0.02896 0.0
C982 C 0.11111 0.39967 0.99272 0.0
H983 H 0.15285 0.35733 0.0659 0.0
H984 H 0.11946 0.41491 0.05004 0.0
C985 C 0.11696 0.37142 0.96622 0.0
C986 C 0.10576 0.70538 0.05096 0.0
C987 C 0.11647 0.73352 0.02665 0.0
H988 H 0.08091 0.65177 0.05648 0.0
C989 C 0.10857 0.73009 0.98917 0.0
H990 H 0.11187 0.70764 0.08008 0.0
C991 C 0.09171 0.69798 0.97566 0.0
C992 C 0.08248 0.66858 -0.00055 0.0
H993 H 0.11686 0.75158 0.97002 0.0
H994 H 0.08714 0.69573 0.94627 0.0
C995 C 0.08843 0.67325 0.03742 0.0
C996 C 0.34181 0.20152 0.06642 0.0
C997 C 0.31941 0.21264 0.03681 0.0
H998 H 0.38507 0.16506 0.08514 0.0
C999 C 0.32441 0.19573 0.00226 0.0
H1000 H 0.33863 0.21465 0.09319 0.0
C1001 C 0.35177 0.16826 -0.00274 0.0
C1002 C 0.37413 0.15684 0.02694 0.0
H1003 H 0.30783 0.20448 0.97894 0.0
H1004 H 0.35497 0.15555 0.9703 0.0
C1005 C 0.36861 0.17353 0.06165 0.0
C1006 C 0.88877 0.33289 0.06217 0.0
C1007 C 0.87248 0.33362 0.02717 0.0
H1008 H 0.92788 0.35824 0.09876 0.0
C1009 C 0.88669 0.35728 0.00016 0.0
H1010 H 0.87788 0.31484 0.08336 0.0
C1011 C 0.91537 0.38174 0.00872 0.0
C1012 C 0.92979 0.38342 0.0446 0.0
H1013 H 0.87421 0.35828 0.97305 0.0
H1014 H 0.92416 0.4012 0.98799 0.0
C1015 C 0.91725 0.35771 0.07089 0.0
C1016 C 0.70012 0.84507 0.90544 0.0
C1017 C 0.72325 0.83823 0.93569 0.0
H1018 H 0.64949 0.87027 0.88627 0.0
C1019 C 0.71234 0.85038 0.97075 0.0
H1020 H 0.70797 0.83528 0.87823 0.0
C1021 C 0.67893 0.86994 0.97555 0.0
C1022 C 0.65571 0.87765 0.9453 0.0
H1023 H 0.72965 0.84473 0.99449 0.0
H1024 H 0.67158 0.87941 0.00301 0.0
C1025 C 0.66657 0.86473 0.91017 0.0
C1026 C 0.87524 0.68528 0.99141 0.0
C1027 C 0.84685 0.6725 0.9682 0.0
H1028 H 0.9223 0.67034 0.0245 0.0
C1029 C 0.84797 0.63533 0.95578 0.0
H1030 H 0.87494 0.71375 0.00155 0.0
C1031 C 0.87514 0.61063 0.9687 0.0
C1032 C 0.90164 0.62248 0.99436 0.0
H1033 H 0.82644 0.6248 0.93777 0.0
H1034 H 0.87328 0.58168 0.96109 0.0
C1035 C 0.90227 0.6604 0.00458 0.0
C1036 C 0.29634 0.84781 0.953 0.0
C1037 C 0.27858 0.84723 0.98752 0.0
H1038 H 0.34017 0.87061 0.92037 0.0
C1039 C 0.28771 0.87439 0.01386 0.0
H1040 H 0.28947 0.82736 0.93208 0.0
C1041 C 0.31686 0.89902 0.00724 0.0
C1042 C 0.33726 0.89698 0.97418 0.0
H1043 H 0.27445 0.8746 0.04066 0.0
H1044 H 0.3249 0.9181 0.02892 0.0
C1045 C 0.3253 0.87264 0.94628 0.0
C1046 C 0.72528 0.15846 0.96607 0.0
C1047 C 0.73857 0.17566 -0.00191 0.0
H1048 H 0.68216 0.1256 0.9419 0.0
C1049 C 0.71875 0.17252 0.03105 0.0
H1050 H 0.74044 0.16064 0.94037 0.0
C1051 C 0.68555 0.15271 0.03201 0.0
C1052 C 0.67154 0.13573 -0.0001 0.0
H1053 H 0.72877 0.18568 0.05602 0.0
H1054 H 0.6707 0.15108 0.05791 0.0
C1055 C 0.69198 0.13853 0.96697 0.0
C1056 C 0.45946 0.69355 0.80618 0.0
C1057 C 0.49514 0.69327 0.79033 0.0
H1058 H 0.42259 0.66926 0.84531 0.0
C1059 C 0.51987 0.66407 0.79908 0.0
H1060 H 0.43958 0.71534 0.79948 0.0
C1061 C 0.51004 0.63738 0.8254 0.0
C1062 C 0.47542 0.63967 0.84343 0.0
H1063 H 0.54759 0.66323 0.78738 0.0
H1064 H 0.53031 0.61633 0.83311 0.0
C1065 C 0.44977 0.66719 0.8325 0.0
C1066 C 0.3214 0.57934 0.85868 0.0
C1067 C 0.34575 0.56805 0.83056 0.0
H1068 H 0.30996 0.57962 0.91652 0.0
C1069 C 0.3792 0.55001 0.83946 0.0
H1070 H 0.29553 0.59356 0.85229 0.0
C1071 C 0.38763 0.5421 0.87619 0.0
C1072 C 0.36249 0.55185 0.90446 0.0
H1073 H 0.39832 0.54112 0.81798 0.0
H1074 H 0.4133 0.52739 0.88228 0.0
C1075 C 0.32966 0.57128 0.89538 0.0
C1076 C 0.44992 0.36799 0.82694 0.0
C1077 C 0.45923 0.33001 0.82509 0.0
H1078 H 0.45765 0.42004 0.85507 0.0
C1079 C 0.4834 0.31481 0.85132 0.0
H1080 H 0.43135 0.38021 0.8068 0.0
C1081 C 0.49846 0.33741 0.87897 0.0
C1082 C 0.4897 0.37573 0.88076 0.0
H1083 H 0.49107 0.28554 0.85018 0.0
H1084 H 0.51738 0.32493 0.89861 0.0
C1085 C 0.46501 0.3907 0.85455 0.0
C1086 C 0.62611 0.45577 0.86345 0.0
C1087 C 0.64029 0.47992 0.8366 0.0
H1088 H 0.5873 0.44889 0.90748 0.0
C1089 C 0.62032 0.51254 0.82806 0.0
H1090 H 0.64076 0.43017 0.87016 0.0
C1091 C 0.58979 0.52337 0.84948 0.0
C1092 C 0.57882 0.5017 0.8797 0.0
H1093 H 0.63054 0.53164 0.80745 0.0
H1094 H 0.57705 0.55036 0.84451 0.0
C1095 C 0.59542 0.46649 0.88476 0.0
C1096 C 0.45957 0.35831 0.15357 0.0
C1097 C 0.48228 0.34852 0.18363 0.0
H1098 H 0.45292 0.3932 0.10612 0.0
C1099 C 0.51281 0.37112 0.19216 0.0
H1100 H 0.43575 0.34146 0.14643 0.0
C1101 C 0.52255 0.40052 0.16909 0.0
C1102 C 0.50166 0.40835 0.13739 0.0
H1103 H 0.53102 0.36421 0.21487 0.0
H1104 H 0.54796 0.41556 0.17466 0.0
C1105 C 0.46908 0.38818 0.13072 0.0
C1106 C 0.65927 0.47787 0.14968 0.0
C1107 C 0.65831 0.50017 0.18175 0.0
H1108 H 0.63609 0.46771 0.09623 0.0
C1109 C 0.62833 0.52497 0.18693 0.0
H1110 H 0.68181 0.45813 0.14514 0.0
C1111 C 0.60217 0.53023 0.15904 0.0
C1112 C 0.60524 0.51061 0.12552 0.0
H1113 H 0.62676 0.54262 0.21118 0.0
H1114 H 0.5811 0.55173 0.16266 0.0
C1115 C 0.63283 0.48295 0.12183 0.0
C1116 C 0.56726 0.67363 0.14537 0.0
C1117 C 0.54745 0.70235 0.16331 0.0
H1118 H 0.56658 0.63173 0.10287 0.0
C1119 C 0.51192 0.71212 0.15093 0.0
H1120 H 0.5949 0.66586 0.15451 0.0
C1121 C 0.49574 0.69272 0.12172 0.0
C1122 C 0.51482 0.66312 0.1041 0.0
H1123 H 0.49633 0.7344 0.16428 0.0
H1124 H 0.46783 0.70053 0.11346 0.0
C1125 C 0.55109 0.6542 0.11584 0.0
C1126 C 0.37156 0.58138 0.18289 0.0
C1127 C 0.35306 0.61288 0.16902 0.0
H1128 H 0.41009 0.53702 0.17184 0.0
C1129 C 0.36444 0.62777 0.13535 0.0
H1130 H 0.36313 0.56933 0.20886 0.0
C1131 C 0.39158 0.60949 0.11432 0.0
C1132 C 0.40713 0.57555 0.12595 0.0
H1133 H 0.35074 0.6523 0.12432 0.0
H1134 H 0.39832 0.62079 0.08806 0.0
C1135 C 0.39832 0.5628 0.1615 0.0
C1136 C 0.83167 0.47391 0.70512 0.0
C1137 C 0.80879 0.5049 0.71213 0.0
H1138 H 0.88045 0.45306 0.67795 0.0
C1139 C 0.82014 0.54034 0.70088 0.0
H1140 H 0.82335 0.44635 0.71384 0.0
C1141 C 0.85295 0.54442 0.68048 0.0
C1142 C 0.87459 0.51294 0.67078 0.0
H1143 H 0.80275 0.56461 0.70624 0.0
H1144 H 0.85987 0.5718 0.67021 0.0
C1145 C 0.86437 0.47787 0.68469 0.0
C1146 C 0.55474 0.83658 0.62754 0.0
C1147 C 0.58203 0.81444 0.6443 0.0
H1148 H 0.5423 0.88793 0.6002 0.0
C1149 C 0.61893 0.82652 0.64509 0.0
H1150 H 0.52602 0.82767 0.62695 0.0
C1151 C 0.62837 0.86096 0.62992 0.0
C1152 C 0.60094 0.88389 0.61391 0.0
H1153 H 0.64029 0.80976 0.65817 0.0
H1154 H 0.657 0.86995 0.63149 0.0
C1155 C 0.5641 0.87103 0.61235 0.0
C1156 C 0.22469 0.56074 0.63691 0.0
C1157 C 0.23459 0.53118 0.66004 0.0
H1158 H 0.18944 0.57886 0.59312 0.0
C1159 C 0.22334 0.49486 0.65107 0.0
H1160 H 0.23282 0.589 0.64362 0.0
C1161 C 0.19836 0.48892 0.62229 0.0
C1162 C 0.18399 0.5194 0.60261 0.0
H1163 H 0.23051 0.47177 0.66889 0.0
H1164 H 0.1873 0.46119 0.61833 0.0
C1165 C 0.19949 0.5549 0.60831 0.0
C1166 C 0.47805 0.18601 0.6689 0.0
C1167 C 0.46219 0.16637 0.69853 0.0
H1168 H 0.50442 0.18302 0.61592 0.0
C1169 C 0.45863 0.12736 0.69484 0.0
H1170 H 0.48252 0.21576 0.67056 0.0
C1171 C 0.47245 0.10858 0.66365 0.0
C1172 C 0.48856 0.12828 0.63458 0.0
H1173 H 0.44649 0.11094 0.71661 0.0
H1174 H 0.4731 0.07848 0.66359 0.0
C1175 C 0.49092 0.16721 0.63741 0.0
C1176 C 0.80003 0.49303 0.35344 0.0
C1177 C 0.77416 0.52232 0.3536 0.0
H1178 H 0.85342 0.47368 0.37064 0.0
C1179 C 0.78191 0.55518 0.37315 0.0
H1180 H 0.79452 0.46754 0.33831 0.0
C1181 C 0.81582 0.55895 0.39182 0.0
C1182 C 0.84244 0.52994 0.39084 0.0
H1183 H 0.76217 0.57818 0.37332 0.0
H1184 H 0.82157 0.58486 0.40609 0.0
C1185 C 0.83379 0.49674 0.37188 0.0
C1186 C 0.53052 0.84624 0.32607 0.0
C1187 C 0.55684 0.85857 0.30037 0.0
H1188 H 0.4973 0.86014 0.37328 0.0
C1189 C 0.57408 0.89314 0.3062 0.0
H1190 H 0.5166 0.81986 0.32206 0.0
C1191 C 0.56316 0.91621 0.33552 0.0
C1192 C 0.53438 0.90538 0.35933 0.0
H1193 H 0.59452 0.90324 0.28678 0.0
H1194 H 0.57563 0.9435 0.33803 0.0
C1195 C 0.51928 0.8695 0.35521 0.0
C1196 C 0.21545 0.57887 0.31828 0.0
C1197 C 0.21732 0.61773 0.31597 0.0
H1198 H 0.18473 0.53197 0.33723 0.0
C1199 C 0.1875 0.63974 0.32846 0.0
H1200 H 0.23805 0.56151 0.308 0.0
C1201 C 0.15667 0.62296 0.34487 0.0
C1202 C 0.1554 0.58393 0.349 0.0
H1203 H 0.18833 0.66983 0.32616 0.0
H1204 H 0.13458 0.64069 0.35556 0.0
C1205 C 0.18476 0.56205 0.33466 0.0
C1206 C 0.51206 0.19027 0.3583 0.0
C1207 C 0.48179 0.2069 0.34015 0.0
H1208 H 0.53016 0.14776 0.39584 0.0
C1209 C 0.44599 0.19333 0.34611 0.0
H1210 H 0.53996 0.20065 0.35415 0.0
C1211 C 0.44033 0.16343 0.36987 0.0
C1212 C 0.47042 0.14637 0.38822 0.0
H1213 H 0.42227 0.20599 0.33253 0.0
H1214 H 0.41218 0.15367 0.37376 0.0
C1215 C 0.50643 0.16016 0.3822 0.0
C1216 C 0.6489 0.85016 0.46321 0.0
C1217 C 0.67614 0.84152 0.48937 0.0
H1218 H 0.61176 0.8918 0.44199 0.0
C1219 C 0.68556 0.86801 0.51616 0.0
H1220 H 0.64136 0.82997 0.44227 0.0
C1221 C 0.66894 0.90341 0.51598 0.0
C1222 C 0.64246 0.91282 0.48906 0.0
H1223 H 0.70658 0.86174 0.5366 0.0
H1224 H 0.6777 0.92373 0.53627 0.0
C1225 C 0.63203 0.88551 0.46313 0.0
C1226 C 0.61655 0.22971 0.50435 0.0
C1227 C 0.64942 0.22289 0.52376 0.0
H1228 H 0.56733 0.20623 0.48111 0.0
C1229 C 0.65631 0.18746 0.5385 0.0
H1230 H 0.6109 0.25697 0.49279 0.0
C1231 C 0.63122 0.15846 0.53216 0.0
C1232 C 0.5992 0.1647 0.51092 0.0
H1233 H 0.68182 0.18178 0.55336 0.0
H1234 H 0.6383 0.13069 0.54136 0.0
C1235 C 0.59165 0.20079 0.49786 0.0
C1236 C 0.82661 0.67968 0.52643 0.0
C1237 C 0.83747 0.70562 0.49985 0.0
H1238 H 0.84141 0.63071 0.55664 0.0
C1239 C 0.87078 0.69952 0.48021 0.0
H1240 H 0.80132 0.68398 0.54222 0.0
C1241 C 0.89348 0.66859 0.48801 0.0
C1242 C 0.88358 0.64399 0.51619 0.0
H1243 H 0.87978 0.71934 0.4597 0.0
H1244 H 0.91967 0.66518 0.4736 0.0
C1245 C 0.84965 0.64941 0.53481 0.0
C1246 C 0.30854 0.87156 0.52547 0.0
C1247 C 0.30042 0.8494 0.55625 0.0
H1248 H 0.34533 0.91086 0.50092 0.0
C1249 C 0.32659 0.84707 0.5848 0.0
H1250 H 0.28927 0.87332 0.50266 0.0
C1251 C 0.35897 0.8685 0.58372 0.0
C1252 C 0.36577 0.89265 0.55405 0.0
H1253 H 0.3211 0.83028 0.60887 0.0
H1254 H 0.37774 0.86747 0.60698 0.0
C1255 C 0.34078 0.89296 0.5244 0.0
C1256 C 0.1813 0.3464 0.44515 0.0
C1257 C 0.20052 0.34096 0.47821 0.0
H1258 H 0.14497 0.38204 0.41428 0.0
C1259 C 0.19594 0.36667 0.50707 0.0
H1260 H 0.1847 0.32686 0.4225 0.0
C1261 C 0.17336 0.3983 0.50249 0.0
C1262 C 0.15519 0.40481 0.46882 0.0
H1263 H 0.21079 0.36297 0.53273 0.0
H1264 H 0.1712 0.41824 0.52492 0.0
C1265 C 0.15871 0.37803 0.44049 0.0
C1266 C 0.32201 0.12851 0.47066 0.0
C1267 C 0.3205 0.16357 0.48837 0.0
H1268 H 0.35146 0.07645 0.46462 0.0
C1269 C 0.35114 0.17506 0.50929 0.0
H1270 H 0.29902 0.11912 0.45388 0.0
C1271 C 0.38105 0.15082 0.5151 0.0
C1272 C 0.38119 0.11469 0.49988 0.0
H1273 H 0.35087 0.20177 0.52338 0.0
H1274 H 0.40307 0.15951 0.53349 0.0
C1275 C 0.35225 0.10427 0.47626 0.0
C1276 C 0.85918 0.33377 0.51798 0.0
C1277 C 0.82398 0.33798 0.50163 0.0
H1278 H 0.90734 0.36064 0.53945 0.0
C1279 C 0.81176 0.37384 0.49171 0.0
H1280 H 0.86925 0.30662 0.52653 0.0
C1281 C 0.83357 0.40498 0.49948 0.0
C1282 C 0.86797 0.40082 0.51738 0.0
H1283 H 0.78498 0.3779 0.47869 0.0
H1284 H 0.82289 0.43238 0.49252 0.0
C1285 C 0.88098 0.36482 0.52564 0.0
C1286 C 0.14949 0.70346 0.52323 0.0
C1287 C 0.16302 0.69502 0.55824 0.0
H1288 H 0.11678 0.68576 0.47763 0.0
C1289 C 0.15104 0.66263 0.576 0.0
H1290 H 0.15837 0.72846 0.50918 0.0
C1291 C 0.12685 0.63802 0.55803 0.0
C1292 C 0.1149 0.64522 0.52192 0.0
H1293 H 0.16121 0.65579 0.60321 0.0
H1294 H 0.11871 0.61297 0.57194 0.0
C1295 C 0.12568 0.67887 0.50525 0.0
loop_
_geom_bond_atom_site_label_1
_geom_bond_atom_site_label_2
_geom_bond_distance
_geom_bond_site_symmetry_2
_ccdc_geom_bond_type
H0 C3 0.929 . S
H1 C6 0.929 . S
H2 C8 0.930 . S
C3 H0 0.929 . S
C3 C4 1.398 . S
C3 C5 1.396 . S
C4 C3 1.398 . S
C4 C8 1.407 . S
C5 C3 1.396 . S
C5 C6 1.394 . S
C6 H1 0.929 . S
C6 C5 1.394 . S
C6 C7 1.382 . S
C7 C6 1.382 . S
C7 C8 1.392 . S
C7 N9 1.420 . S
C8 H2 0.930 . S
C8 C4 1.407 . S
C8 C7 1.392 . S
N9 C7 1.420 . S
N9 C10 1.244 . S
C10 N9 1.244 . S
H11 C14 0.929 . S
H12 C17 0.929 . S
H13 C19 0.930 . S
C14 H11 0.929 . S
C14 C15 1.398 . S
C14 C16 1.396 . S
C15 C14 1.398 . S
C15 C19 1.407 . S
C16 C14 1.396 . S
C16 C17 1.394 . S
C17 H12 0.929 . S
C17 C16 1.394 . S
C17 C18 1.382 . S
C18 C17 1.382 . S
C18 C19 1.392 . S
C18 N20 1.420 . S
C19 H13 0.930 . S
C19 C15 1.407 . S
C19 C18 1.392 . S
N20 C18 1.420 . S
N20 C21 1.244 . S
C21 N20 1.244 . S
H22 C25 0.929 . S
H23 C28 0.929 . S
H24 C30 0.930 . S
C25 H22 0.929 . S
C25 C26 1.398 . S
C25 C27 1.396 . S
C26 C25 1.398 . S
C26 C30 1.407 . S
C27 C25 1.396 . S
C27 C28 1.394 . S
C28 H23 0.929 . S
C28 C27 1.394 . S
C28 C29 1.382 . S
C29 C28 1.382 . S
C29 C30 1.392 . S
C29 N31 1.420 . S
C30 H24 0.930 . S
C30 C26 1.407 . S
C30 C29 1.392 . S
N31 C29 1.420 . S
N31 C32 1.244 . S
C32 N31 1.244 . S
H33 C36 0.929 . S
H34 C39 0.929 . S
H35 C41 0.930 . S
C36 H33 0.929 . S
C36 C37 1.399 . S
C36 C38 1.399 . S
C37 C36 1.399 . S
C37 C41 1.405 1_545 S
C38 C36 1.399 . S
C38 C39 1.390 1_545 S
C39 H34 0.929 . S
C39 C38 1.390 1_565 S
C39 C40 1.382 . S
C40 C39 1.382 . S
C40 C41 1.392 . S
C40 N42 1.420 . S
C41 H35 0.930 . S
C41 C37 1.405 1_565 S
C41 C40 1.392 . S
N42 C40 1.420 . S
N42 C43 1.244 1_565 S
C43 N42 1.244 1_545 S
H44 C47 0.934 . S
H45 C50 0.929 . S
H46 C52 0.930 . S
C47 H44 0.934 . S
C47 C48 1.395 1_655 S
C47 C49 1.394 1_655 S
C48 C47 1.395 1_455 S
C48 C52 1.407 . S
C49 C47 1.394 1_455 S
C49 C50 1.394 . S
C50 H45 0.929 . S
C50 C49 1.394 . S
C50 C51 1.382 . S
C51 C50 1.382 . S
C51 C52 1.392 . S
C51 N53 1.420 . S
C52 H46 0.930 . S
C52 C48 1.407 . S
C52 C51 1.392 . S
N53 C51 1.420 . S
N53 C54 1.244 1_455 S
C54 N53 1.244 1_655 S
H55 C58 0.929 1_565 S
H56 C61 0.929 . S
H57 C63 0.930 . S
C58 H55 0.929 1_545 S
C58 C59 1.398 . S
C58 C60 1.396 . S
C59 C58 1.398 . S
C59 C63 1.407 . S
C60 C58 1.396 . S
C60 C61 1.394 . S
C61 H56 0.929 . S
C61 C60 1.394 . S
C61 C62 1.382 . S
C62 C61 1.382 . S
C62 C63 1.392 . S
C62 N64 1.420 . S
C63 H57 0.930 . S
C63 C59 1.407 . S
C63 C62 1.392 . S
N64 C62 1.420 . S
N64 C65 1.244 . S
C65 N64 1.244 . S
H66 C69 0.929 . S
H67 C72 0.929 . S
H68 C74 0.930 . S
C69 H66 0.929 . S
C69 C70 1.398 . S
C69 C71 1.396 . S
C70 C69 1.398 . S
C70 C74 1.407 . S
C71 C69 1.396 . S
C71 C72 1.394 . S
C72 H67 0.929 . S
C72 C71 1.394 . S
C72 C73 1.382 . S
C73 C72 1.382 . S
C73 C74 1.392 . S
C73 N75 1.420 . S
C74 H68 0.930 . S
C74 C70 1.407 . S
C74 C73 1.392 . S
N75 C73 1.420 . S
N75 C76 1.244 . S
C76 N75 1.244 . S
H77 C80 0.929 . S
H78 C83 0.929 . S
H79 C85 0.930 . S
C80 H77 0.929 . S
C80 C81 1.398 . S
C80 C82 1.396 . S
C81 C80 1.398 . S
C81 C85 1.407 . S
C82 C80 1.396 . S
C82 C83 1.394 . S
C83 H78 0.929 . S
C83 C82 1.394 . S
C83 C84 1.382 . S
C84 C83 1.382 . S
C84 C85 1.392 . S
C84 N86 1.420 . S
C85 H79 0.930 . S
C85 C81 1.407 . S
C85 C84 1.392 . S
N86 C84 1.420 . S
N86 C87 1.244 . S
C87 N86 1.244 . S
H88 C91 0.929 . S
H89 C94 0.929 . S
H90 C96 0.930 . S
C91 H88 0.929 . S
C91 C92 1.398 . S
C91 C93 1.396 . S
C92 C91 1.398 . S
C92 C96 1.407 . S
C93 C91 1.396 . S
C93 C94 1.394 . S
C94 H89 0.929 . S
C94 C93 1.394 . S
C94 C95 1.382 . S
C95 C94 1.382 . S
C95 C96 1.392 . S
C95 N97 1.420 . S
C96 H90 0.930 . S
C96 C92 1.407 . S
C96 C95 1.392 . S
N97 C95 1.420 . S
N97 C98 1.244 . S
C98 N97 1.244 . S
H99 C102 0.929 . S
H100 C105 0.929 . S
H101 C107 0.930 . S
C102 H99 0.929 . S
C102 C103 1.398 . S
C102 C104 1.396 . S
C103 C102 1.398 . S
C103 C107 1.407 . S
C104 C102 1.396 . S
C104 C105 1.394 . S
C105 H100 0.929 . S
C105 C104 1.394 . S
C105 C106 1.382 . S
C106 C105 1.382 . S
C106 C107 1.392 . S
C106 N108 1.420 . S
C107 H101 0.930 . S
C107 C103 1.407 . S
C107 C106 1.392 . S
N108 C106 1.420 . S
N108 C109 1.244 . S
C109 N108 1.244 . S
H110 C113 0.929 . S
H111 C116 0.929 . S
H112 C118 0.930 . S
C113 H110 0.929 . S
C113 C114 1.396 1_554 S
C113 C115 1.397 . S
C114 C113 1.396 1_556 S
C114 C118 1.411 . S
C115 C113 1.397 . S
C115 C116 1.392 1_554 S
C116 H111 0.929 . S
C116 C115 1.392 1_556 S
C116 C117 1.382 . S
C117 C116 1.382 . S
C117 C118 1.392 . S
C117 N119 1.420 . S
C118 H112 0.930 . S
C118 C114 1.411 . S
C118 C117 1.392 . S
N119 C117 1.420 . S
N119 C120 1.244 1_556 S
C120 N119 1.244 1_554 S
H121 C124 0.932 . S
H122 C127 0.929 . S
H123 C129 0.930 . S
C124 H121 0.932 . S
C124 C125 1.397 1_556 S
C124 C126 1.394 1_556 S
C125 C124 1.397 1_554 S
C125 C129 1.407 . S
C126 C124 1.394 1_554 S
C126 C127 1.394 . S
C127 H122 0.929 . S
C127 C126 1.394 . S
C127 C128 1.382 . S
C128 C127 1.382 . S
C128 C129 1.392 . S
C128 N130 1.420 . S
C129 H123 0.930 . S
C129 C125 1.407 . S
C129 C128 1.392 . S
N130 C128 1.420 . S
N130 C131 1.244 . S
C131 N130 1.244 . S
H132 C135 0.929 . S
H133 C138 0.929 . S
H134 C140 0.930 . S
C135 H132 0.929 . S
C135 C136 1.398 . S
C135 C137 1.396 . S
C136 C135 1.398 . S
C136 C140 1.407 . S
C137 C135 1.396 . S
C137 C138 1.394 . S
C138 H133 0.929 . S
C138 C137 1.394 . S
C138 C139 1.382 . S
C139 C138 1.382 . S
C139 C140 1.392 . S
C139 N141 1.420 . S
C140 H134 0.930 . S
C140 C136 1.407 . S
C140 C139 1.392 . S
N141 C139 1.420 . S
N141 C142 1.244 . S
C142 N141 1.244 . S
H143 C146 0.929 . S
H144 C149 0.929 . S
H145 C151 0.930 . S
C146 H143 0.929 . S
C146 C147 1.398 . S
C146 C148 1.396 . S
C147 C146 1.398 . S
C147 C151 1.407 . S
C148 C146 1.396 . S
C148 C149 1.394 . S
C149 H144 0.929 . S
C149 C148 1.394 . S
C149 C150 1.382 . S
C150 C149 1.382 . S
C150 C151 1.392 . S
C150 N152 1.420 . S
C151 H145 0.930 . S
C151 C147 1.407 . S
C151 C150 1.392 . S
N152 C150 1.420 . S
N152 C153 1.244 . S
C153 N152 1.244 . S
H154 C157 0.929 . S
H155 C160 0.929 . S
H156 C162 0.930 . S
C157 H154 0.929 . S
C157 C158 1.398 . S
C157 C159 1.396 . S
C158 C157 1.398 . S
C158 C162 1.407 . S
C159 C157 1.396 . S
C159 C160 1.394 . S
C160 H155 0.929 . S
C160 C159 1.394 . S
C160 C161 1.382 . S
C161 C160 1.382 . S
C161 C162 1.392 . S
C161 N163 1.420 . S
C162 H156 0.930 . S
C162 C158 1.407 . S
C162 C161 1.392 . S
N163 C161 1.420 . S
N163 C164 1.244 . S
C164 N163 1.244 . S
H165 C168 0.929 . S
H166 C171 0.929 . S
H167 C173 0.930 . S
C168 H165 0.929 . S
C168 C169 1.398 . S
C168 C170 1.396 . S
C169 C168 1.398 . S
C169 C173 1.407 . S
C170 C168 1.396 . S
C170 C171 1.394 . S
C171 H166 0.929 . S
C171 C170 1.394 . S
C171 C172 1.382 . S
C172 C171 1.382 . S
C172 C173 1.392 . S
C172 N174 1.420 . S
C173 H167 0.930 . S
C173 C169 1.407 . S
C173 C172 1.392 . S
N174 C172 1.420 . S
N174 C175 1.244 . S
C175 N174 1.244 . S
H176 C179 0.929 . S
H177 C182 0.929 . S
H178 C184 0.930 . S
C179 H176 0.929 . S
C179 C180 1.398 . S
C179 C181 1.396 . S
C180 C179 1.398 . S
C180 C184 1.407 . S
C181 C179 1.396 . S
C181 C182 1.394 . S
C182 H177 0.929 . S
C182 C181 1.394 . S
C182 C183 1.382 . S
C183 C182 1.382 . S
C183 C184 1.392 . S
C183 N185 1.420 . S
C184 H178 0.930 . S
C184 C180 1.407 . S
C184 C183 1.392 . S
N185 C183 1.420 . S
N185 C186 1.244 . S
C186 N185 1.244 . S
H187 C190 0.929 . S
H188 C193 0.929 . S
H189 C195 0.930 . S
C190 H187 0.929 . S
C190 C191 1.398 . S
C190 C192 1.396 . S
C191 C190 1.398 . S
C191 C195 1.407 . S
C192 C190 1.396 . S
C192 C193 1.394 . S
C193 H188 0.929 . S
C193 C192 1.394 . S
C193 C194 1.382 . S
C194 C193 1.382 . S
C194 C195 1.392 . S
C194 N196 1.420 . S
C195 H189 0.930 . S
C195 C191 1.407 . S
C195 C194 1.392 . S
N196 C194 1.420 . S
N196 C197 1.244 . S
C197 N196 1.244 . S
H198 C201 0.929 . S
H199 C204 0.929 . S
H200 C206 0.930 . S
C201 H198 0.929 . S
C201 C202 1.398 . S
C201 C203 1.396 . S
C202 C201 1.398 . S
C202 C206 1.407 . S
C203 C201 1.396 . S
C203 C204 1.394 . S
C204 H199 0.929 . S
C204 C203 1.394 . S
C204 C205 1.382 . S
C205 C204 1.382 . S
C205 C206 1.392 . S
C205 N207 1.420 . S
C206 H200 0.930 . S
C206 C202 1.407 . S
C206 C205 1.392 . S
N207 C205 1.420 . S
N207 C208 1.244 . S
C208 N207 1.244 . S
H209 C212 0.929 . S
H210 C215 0.929 . S
H211 C217 0.930 . S
C212 H209 0.929 . S
C212 C213 1.398 . S
C212 C214 1.396 . S
C213 C212 1.398 . S
C213 C217 1.407 . S
C214 C212 1.396 . S
C214 C215 1.394 . S
C215 H210 0.929 . S
C215 C214 1.394 . S
C215 C216 1.382 . S
C216 C215 1.382 . S
C216 C217 1.392 . S
C216 N218 1.420 . S
C217 H211 0.930 . S
C217 C213 1.407 . S
C217 C216 1.392 . S
N218 C216 1.420 . S
N218 C219 1.244 . S
C219 N218 1.244 . S
H220 C223 0.929 . S
H221 C226 0.929 . S
H222 C228 0.930 . S
C223 H220 0.929 . S
C223 C224 1.398 . S
C223 C225 1.396 . S
C224 C223 1.398 . S
C224 C228 1.407 . S
C225 C223 1.396 . S
C225 C226 1.394 . S
C226 H221 0.929 . S
C226 C225 1.394 . S
C226 C227 1.382 . S
C227 C226 1.382 . S
C227 C228 1.392 . S
C227 N229 1.420 . S
C228 H222 0.930 . S
C228 C224 1.407 . S
C228 C227 1.392 . S
N229 C227 1.420 . S
N229 C230 1.244 . S
C230 N229 1.244 . S
H231 C234 0.929 . S
H232 C237 0.929 . S
H233 C239 0.930 . S
C234 H231 0.929 . S
C234 C235 1.398 . S
C234 C236 1.396 . S
C235 C234 1.398 . S
C235 C239 1.407 . S
C236 C234 1.396 . S
C236 C237 1.394 . S
C237 H232 0.929 . S
C237 C236 1.394 . S
C237 C238 1.382 . S
C238 C237 1.382 . S
C238 C239 1.392 . S
C238 N240 1.420 . S
C239 H233 0.930 . S
C239 C235 1.407 . S
C239 C238 1.392 . S
N240 C238 1.420 . S
N240 C241 1.244 . S
C241 N240 1.244 . S
H242 C245 0.929 . S
H243 C248 0.929 . S
H244 C250 0.930 . S
C245 H242 0.929 . S
C245 C246 1.398 . S
C245 C247 1.396 . S
C246 C245 1.398 . S
C246 C250 1.407 . S
C247 C245 1.396 . S
C247 C248 1.394 . S
C248 H243 0.929 . S
C248 C247 1.394 . S
C248 C249 1.382 . S
C249 C248 1.382 . S
C249 C250 1.392 . S
C249 N251 1.420 . S
C250 H244 0.930 . S
C250 C246 1.407 . S
C250 C249 1.392 . S
N251 C249 1.420 . S
N251 C252 1.244 . S
C252 N251 1.244 . S
H253 C256 0.929 . S
H254 C259 0.929 . S
H255 C261 0.930 . S
C256 H253 0.929 . S
C256 C257 1.398 . S
C256 C258 1.396 . S
C257 C256 1.398 . S
C257 C261 1.407 . S
C258 C256 1.396 . S
C258 C259 1.394 . S
C259 H254 0.929 . S
C259 C258 1.394 . S
C259 C260 1.382 . S
C260 C259 1.382 . S
C260 C261 1.392 . S
C260 N262 1.420 . S
C261 H255 0.930 . S
C261 C257 1.407 . S
C261 C260 1.392 . S
N262 C260 1.420 . S
N262 C263 1.244 . S
C263 N262 1.244 . S
Zn264 O266 1.933 1_665 S
Zn264 O284 1.985 . S
Zn264 O295 1.962 . S
Zn265 O266 1.911 1_655 S
Zn265 O285 1.970 . S
Zn265 O301 1.938 1_655 S
Zn265 O308 1.981 . S
O266 Zn264 1.933 1_445 S
O266 Zn265 1.911 1_455 S
O266 H267 0.841 . S
H267 O266 0.841 . S
C268 O269 1.246 . S
C268 O297 1.276 . S
O269 C268 1.246 . S
Zn270 O272 1.911 . S
Zn270 O287 1.970 . S
Zn270 O304 1.945 . S
Zn270 O311 1.981 . S
Zn271 O272 1.933 1_565 S
Zn271 O286 1.985 . S
Zn271 O293 1.955 . S
O272 Zn270 1.911 . S
O272 Zn271 1.933 1_545 S
O272 H273 0.841 . S
H273 O272 0.841 . S
Zn274 O275 1.933 1_565 S
Zn274 O288 1.985 . S
Zn274 O297 1.955 . S
O275 Zn274 1.933 1_545 S
O275 Zn276 1.911 . S
O275 H277 0.841 . S
Zn276 O275 1.911 . S
Zn276 O289 1.970 . S
Zn276 O305 1.981 1_655 S
Zn276 O307 1.945 . S
H277 O275 0.841 . S
Zn278 O279 1.933 1_565 S
Zn278 O291 1.985 . S
Zn278 O299 1.955 . S
O279 Zn278 1.933 1_545 S
O279 H280 0.841 . S
O279 Zn281 1.911 . S
H280 O279 0.841 . S
Zn281 O279 1.911 . S
Zn281 O292 1.970 . S
Zn281 O302 1.981 . S
Zn281 O310 1.945 . S
C282 O283 1.246 . S
C282 O299 1.276 . S
O283 C282 1.246 . S
O284 Zn264 1.985 . S
O284 C294 1.245 1_565 S
O285 Zn265 1.970 . S
O285 C294 1.263 . S
O286 Zn271 1.985 . S
O286 C298 1.245 1_565 S
O287 Zn270 1.970 . S
O287 C298 1.263 . S
O288 Zn274 1.985 . S
O288 C303 1.245 1_565 S
O289 Zn276 1.970 . S
O289 C303 1.263 . S
C290 O301 1.280 . S
C290 O302 1.245 . S
O291 Zn278 1.985 . S
O291 C309 1.245 1_565 S
O292 Zn281 1.970 . S
O292 C309 1.263 . S
O293 Zn271 1.955 . S
O293 C312 1.276 . S
C294 O284 1.245 1_545 S
C294 O285 1.263 . S
O295 Zn264 1.962 . S
O295 C314 1.251 1_655 S
C296 O304 1.262 . S
C296 O305 1.245 . S
O297 C268 1.276 . S
O297 Zn274 1.955 . S
C298 O286 1.245 1_545 S
C298 O287 1.263 . S
O299 Zn278 1.955 . S
O299 C282 1.276 . S
C300 O307 1.262 . S
C300 O308 1.245 . S
O301 Zn265 1.938 1_455 S
O301 C290 1.280 . S
O302 Zn281 1.981 . S
O302 C290 1.245 . S
C303 O288 1.245 1_545 S
C303 O289 1.263 . S
O304 Zn270 1.945 . S
O304 C296 1.262 . S
O305 Zn276 1.981 1_455 S
O305 C296 1.245 . S
C306 O310 1.262 . S
C306 O311 1.245 . S
O307 Zn276 1.945 . S
O307 C300 1.262 . S
O308 Zn265 1.981 . S
O308 C300 1.245 . S
C309 O291 1.245 1_545 S
C309 O292 1.263 . S
O310 Zn281 1.945 . S
O310 C306 1.262 . S
O311 Zn270 1.981 . S
O311 C306 1.245 . S
C312 O293 1.276 . S
C312 O313 1.246 . S
O313 C312 1.246 . S
C314 O295 1.251 1_455 S
C314 O315 1.246 . S
O315 C314 1.246 . S
Zn316 O318 1.933 . S
Zn316 O336 1.985 . S
Zn316 O347 1.955 . S
Zn317 O318 1.911 1_556 S
Zn317 O337 1.970 . S
Zn317 O353 1.945 . S
Zn317 O360 1.981 . S
O318 Zn316 1.933 . S
O318 Zn317 1.911 1_554 S
O318 H319 0.841 . S
H319 O318 0.841 . S
C320 O321 1.246 . S
C320 O349 1.276 . S
O321 C320 1.246 . S
Zn322 O324 1.911 1_556 S
Zn322 O339 1.970 . S
Zn322 O356 1.945 . S
Zn322 O363 1.981 . S
Zn323 O324 1.933 . S
Zn323 O338 1.985 . S
Zn323 O345 1.955 . S
O324 Zn322 1.911 1_554 S
O324 Zn323 1.933 . S
O324 H325 0.841 1_565 S
H325 O324 0.841 1_545 S
Zn326 O327 1.933 . S
Zn326 O340 1.985 . S
Zn326 O349 1.955 . S
O327 Zn326 1.933 . S
O327 Zn328 1.911 1_554 S
O327 H329 0.841 . S
Zn328 O327 1.911 1_556 S
Zn328 O341 1.970 . S
Zn328 O357 1.981 . S
Zn328 O359 1.945 . S
H329 O327 0.841 . S
Zn330 O331 1.933 . S
Zn330 O343 1.985 . S
Zn330 O351 1.955 . S
O331 Zn330 1.933 . S
O331 H332 0.841 . S
O331 Zn333 1.911 1_554 S
H332 O331 0.841 . S
Zn333 O331 1.911 1_556 S
Zn333 O344 1.970 . S
Zn333 O354 1.981 . S
Zn333 O362 1.945 . S
C334 O335 1.246 . S
C334 O351 1.276 . S
O335 C334 1.246 . S
O336 Zn316 1.985 . S
O336 C346 1.245 . S
O337 Zn317 1.970 . S
O337 C346 1.263 1_556 S
O338 Zn323 1.985 . S
O338 C350 1.245 . S
O339 Zn322 1.970 . S
O339 C350 1.263 1_556 S
O340 Zn326 1.985 . S
O340 C355 1.245 . S
O341 Zn328 1.970 . S
O341 C355 1.263 1_556 S
C342 O353 1.262 . S
C342 O354 1.245 1_545 S
O343 Zn330 1.985 . S
O343 C361 1.245 . S
O344 Zn333 1.970 . S
O344 C361 1.263 1_556 S
O345 Zn323 1.955 . S
O345 C364 1.276 1_565 S
C346 O336 1.245 . S
C346 O337 1.263 1_554 S
O347 Zn316 1.955 . S
O347 C366 1.276 . S
C348 O356 1.262 1_545 S
C348 O357 1.245 . S
O349 C320 1.276 . S
O349 Zn326 1.955 . S
C350 O338 1.245 . S
C350 O339 1.263 1_554 S
O351 Zn330 1.955 . S
O351 C334 1.276 . S
C352 O359 1.262 . S
C352 O360 1.245 . S
O353 Zn317 1.945 . S
O353 C342 1.262 . S
O354 Zn333 1.981 . S
O354 C342 1.245 1_565 S
C355 O340 1.245 . S
C355 O341 1.263 1_554 S
O356 Zn322 1.945 . S
O356 C348 1.262 1_565 S
O357 Zn328 1.981 . S
O357 C348 1.245 . S
C358 O362 1.262 . S
C358 O363 1.245 . S
O359 Zn328 1.945 . S
O359 C352 1.262 . S
O360 Zn317 1.981 . S
O360 C352 1.245 . S
C361 O343 1.245 . S
C361 O344 1.263 1_554 S
O362 Zn333 1.945 . S
O362 C358 1.262 . S
O363 Zn322 1.981 . S
O363 C358 1.245 . S
C364 O345 1.276 1_545 S
C364 O365 1.246 . S
O365 C364 1.246 . S
C366 O347 1.276 . S
C366 O367 1.246 1_545 S
O367 C366 1.246 1_565 S
Zn368 O370 1.933 . S
Zn368 O388 1.985 . S
Zn368 O399 1.955 . S
Zn369 O370 1.911 . S
Zn369 O389 1.970 . S
Zn369 O405 1.945 . S
Zn369 O412 1.981 . S
O370 Zn368 1.933 . S
O370 Zn369 1.911 . S
O370 H371 0.843 1_655 S
H371 O370 0.843 1_455 S
C372 O373 1.246 1_554 S
C372 O401 1.276 . S
O373 C372 1.246 1_556 S
Zn374 O376 1.911 . S
Zn374 O391 1.970 . S
Zn374 O408 1.945 . S
Zn374 O415 1.981 . S
Zn375 O376 1.933 . S
Zn375 O390 1.985 . S
Zn375 O397 1.955 . S
O376 Zn374 1.911 . S
O376 Zn375 1.933 . S
O376 H377 0.841 . S
H377 O376 0.841 . S
Zn378 O379 1.933 . S
Zn378 O392 1.985 . S
Zn378 O401 1.955 . S
O379 Zn378 1.933 . S
O379 Zn380 1.911 . S
O379 H381 0.841 . S
Zn380 O379 1.911 . S
Zn380 O393 1.970 . S
Zn380 O409 1.981 . S
Zn380 O411 1.945 . S
H381 O379 0.841 . S
Zn382 O383 1.933 . S
Zn382 O395 1.985 . S
Zn382 O403 1.955 . S
O383 Zn382 1.933 . S
O383 H384 0.841 . S
O383 Zn385 1.911 . S
H384 O383 0.841 . S
Zn385 O383 1.911 . S
Zn385 O396 1.970 . S
Zn385 O406 1.981 . S
Zn385 O414 1.945 . S
C386 O387 1.246 . S
C386 O403 1.276 1_554 S
O387 C386 1.246 . S
O388 Zn368 1.985 . S
O388 C398 1.245 . S
O389 Zn369 1.970 . S
O389 C398 1.263 . S
O390 Zn375 1.985 . S
O390 C402 1.245 . S
O391 Zn374 1.970 . S
O391 C402 1.263 . S
O392 Zn378 1.985 . S
O392 C407 1.245 . S
O393 Zn380 1.970 . S
O393 C407 1.263 . S
C394 O405 1.262 1_455 S
C394 O406 1.245 . S
O395 Zn382 1.985 . S
O395 C413 1.245 . S
O396 Zn385 1.970 . S
O396 C413 1.263 . S
O397 Zn375 1.955 . S
O397 C416 1.276 . S
C398 O388 1.245 . S
C398 O389 1.263 . S
O399 Zn368 1.955 . S
O399 C418 1.276 1_655 S
C400 O408 1.262 . S
C400 O409 1.245 1_455 S
O401 C372 1.276 . S
O401 Zn378 1.955 . S
C402 O390 1.245 . S
C402 O391 1.263 . S
O403 Zn382 1.955 . S
O403 C386 1.276 1_556 S
C404 O411 1.262 . S
C404 O412 1.245 1_554 S
O405 Zn369 1.945 . S
O405 C394 1.262 1_655 S
O406 Zn385 1.981 . S
O406 C394 1.245 . S
C407 O392 1.245 . S
C407 O393 1.263 . S
O408 Zn374 1.945 . S
O408 C400 1.262 . S
O409 Zn380 1.981 . S
O409 C400 1.245 1_655 S
C410 O414 1.262 1_554 S
C410 O415 1.245 . S
O411 Zn380 1.945 . S
O411 C404 1.262 . S
O412 Zn369 1.981 . S
O412 C404 1.245 1_556 S
C413 O395 1.245 . S
C413 O396 1.263 . S
O414 Zn385 1.945 . S
O414 C410 1.262 1_556 S
O415 Zn374 1.981 . S
O415 C410 1.245 . S
C416 O397 1.276 . S
C416 O417 1.246 1_455 S
O417 C416 1.246 1_655 S
C418 O399 1.276 1_455 S
C418 O419 1.246 . S
O419 C418 1.246 . S
Zn420 O422 1.933 1_556 S
Zn420 O440 1.985 . S
Zn420 O451 1.955 . S
Zn421 O422 1.911 . S
Zn421 O441 1.970 . S
Zn421 O457 1.945 . S
Zn421 O464 1.981 . S
O422 Zn420 1.933 1_554 S
O422 Zn421 1.911 . S
O422 H423 0.841 . S
H423 O422 0.841 . S
C424 O425 1.246 . S
C424 O453 1.276 . S
O425 C424 1.246 . S
Zn426 O428 1.911 . S
Zn426 O443 1.970 . S
Zn426 O460 1.945 . S
Zn426 O467 1.981 . S
Zn427 O428 1.933 1_556 S
Zn427 O442 1.985 . S
Zn427 O449 1.955 . S
O428 Zn426 1.911 . S
O428 Zn427 1.933 1_554 S
O428 H429 0.841 . S
H429 O428 0.841 . S
Zn430 O431 1.933 1_556 S
Zn430 O444 1.985 . S
Zn430 O453 1.955 . S
O431 Zn430 1.933 1_554 S
O431 Zn432 1.911 . S
O431 H433 0.841 . S
Zn432 O431 1.911 . S
Zn432 O445 1.970 . S
Zn432 O461 1.981 . S
Zn432 O463 1.945 . S
H433 O431 0.841 . S
Zn434 O435 1.933 1_556 S
Zn434 O447 1.985 . S
Zn434 O455 1.955 . S
O435 Zn434 1.933 1_554 S
O435 H436 0.841 . S
O435 Zn437 1.911 . S
H436 O435 0.841 . S
Zn437 O435 1.911 . S
Zn437 O448 1.970 . S
Zn437 O458 1.981 . S
Zn437 O466 1.945 . S
C438 O439 1.246 . S
C438 O455 1.276 . S
O439 C438 1.246 . S
O440 Zn420 1.985 . S
O440 C450 1.245 1_556 S
O441 Zn421 1.970 . S
O441 C450 1.263 . S
O442 Zn427 1.985 . S
O442 C454 1.245 1_556 S
O443 Zn426 1.970 . S
O443 C454 1.263 . S
O444 Zn430 1.985 . S
O444 C459 1.245 1_556 S
O445 Zn432 1.970 . S
O445 C459 1.263 . S
C446 O457 1.262 . S
C446 O458 1.245 . S
O447 Zn434 1.985 . S
O447 C465 1.245 1_556 S
O448 Zn437 1.970 . S
O448 C465 1.263 . S
O449 Zn427 1.955 . S
O449 C468 1.276 . S
C450 O440 1.245 1_554 S
C450 O441 1.263 . S
O451 Zn420 1.955 . S
O451 C470 1.276 . S
C452 O460 1.262 . S
C452 O461 1.245 . S
O453 C424 1.276 . S
O453 Zn430 1.955 . S
C454 O442 1.245 1_554 S
C454 O443 1.263 . S
O455 Zn434 1.955 . S
O455 C438 1.276 . S
C456 O463 1.262 . S
C456 O464 1.245 . S
O457 Zn421 1.945 . S
O457 C446 1.262 . S
O458 Zn437 1.981 . S
O458 C446 1.245 . S
C459 O444 1.245 1_554 S
C459 O445 1.263 . S
O460 Zn426 1.945 . S
O460 C452 1.262 . S
O461 Zn432 1.981 . S
O461 C452 1.245 . S
C462 O466 1.262 . S
C462 O467 1.245 . S
O463 Zn432 1.945 . S
O463 C456 1.262 . S
O464 Zn421 1.981 . S
O464 C456 1.245 . S
C465 O447 1.245 1_554 S
C465 O448 1.263 . S
O466 Zn437 1.945 . S
O466 C462 1.262 . S
O467 Zn426 1.981 . S
O467 C462 1.245 . S
C468 O449 1.276 . S
C468 O469 1.246 . S
O469 C468 1.246 . S
C470 O451 1.276 . S
C470 O471 1.246 . S
O471 C470 1.246 . S
Zn472 O474 1.933 . S
Zn472 O492 1.985 . S
Zn472 O503 1.955 . S
Zn473 O474 1.911 . S
Zn473 O493 1.970 . S
Zn473 O509 1.945 . S
Zn473 O516 1.981 . S
O474 Zn472 1.933 . S
O474 Zn473 1.911 . S
O474 H475 0.841 1_655 S
H475 O474 0.841 1_455 S
C476 O477 1.246 . S
C476 O505 1.276 . S
O477 C476 1.246 . S
Zn478 O480 1.911 . S
Zn478 O495 1.970 . S
Zn478 O512 1.945 . S
Zn478 O519 1.981 . S
Zn479 O480 1.933 . S
Zn479 O494 1.985 . S
Zn479 O501 1.955 . S
O480 Zn478 1.911 . S
O480 Zn479 1.933 . S
O480 H481 0.841 . S
H481 O480 0.841 . S
Zn482 O483 1.933 . S
Zn482 O496 1.985 . S
Zn482 O505 1.955 . S
O483 Zn482 1.933 . S
O483 Zn484 1.911 . S
O483 H485 0.841 . S
Zn484 O483 1.911 . S
Zn484 O497 1.970 . S
Zn484 O513 1.989 . S
Zn484 O515 1.945 . S
H485 O483 0.841 . S
Zn486 O487 1.933 . S
Zn486 O499 1.985 . S
Zn486 O507 1.955 . S
O487 Zn486 1.933 . S
O487 H488 0.841 . S
O487 Zn489 1.911 . S
H488 O487 0.841 . S
Zn489 O487 1.911 . S
Zn489 O500 1.970 . S
Zn489 O510 1.981 . S
Zn489 O518 1.945 . S
C490 O491 1.246 . S
C490 O507 1.276 . S
O491 C490 1.246 . S
O492 Zn472 1.985 . S
O492 C502 1.245 . S
O493 Zn473 1.970 . S
O493 C502 1.263 . S
O494 Zn479 1.985 . S
O494 C506 1.245 . S
O495 Zn478 1.970 . S
O495 C506 1.263 . S
O496 Zn482 1.985 . S
O496 C511 1.245 . S
O497 Zn484 1.970 . S
O497 C511 1.263 . S
C498 O509 1.262 1_455 S
C498 O510 1.245 . S
O499 Zn486 1.985 . S
O499 C517 1.245 . S
O500 Zn489 1.970 . S
O500 C517 1.263 . S
O501 Zn479 1.955 . S
O501 C520 1.276 . S
C502 O492 1.245 . S
C502 O493 1.263 . S
O503 Zn472 1.955 . S
O503 C522 1.276 1_655 S
C504 O512 1.262 . S
C504 O513 1.239 1_455 S
O505 C476 1.276 . S
O505 Zn482 1.955 . S
C506 O494 1.245 . S
C506 O495 1.263 . S
O507 Zn486 1.955 . S
O507 C490 1.276 . S
C508 O515 1.262 . S
C508 O516 1.245 . S
O509 Zn473 1.945 . S
O509 C498 1.262 1_655 S
O510 Zn489 1.981 . S
O510 C498 1.245 . S
C511 O496 1.245 . S
C511 O497 1.263 . S
O512 Zn478 1.945 . S
O512 C504 1.262 . S
O513 Zn484 1.989 . S
O513 C504 1.239 1_655 S
C514 O518 1.262 . S
C514 O519 1.245 . S
O515 Zn484 1.945 . S
O515 C508 1.262 . S
O516 Zn473 1.981 . S
O516 C508 1.245 . S
C517 O499 1.245 . S
C517 O500 1.263 . S
O518 Zn489 1.945 . S
O518 C514 1.262 . S
O519 Zn478 1.981 . S
O519 C514 1.245 . S
C520 O501 1.276 . S
C520 O521 1.256 . S
O521 C520 1.256 . S
C522 O503 1.276 1_455 S
C522 O523 1.246 . S
O523 C522 1.246 . S
Zn524 O526 1.933 1_565 S
Zn524 O544 1.985 . S
Zn524 O555 1.955 . S
Zn525 O526 1.911 . S
Zn525 O545 1.970 . S
Zn525 O561 1.945 . S
Zn525 O568 1.981 . S
O526 Zn524 1.933 1_545 S
O526 Zn525 1.911 . S
O526 H527 0.841 . S
H527 O526 0.841 . S
C528 O529 1.246 . S
C528 O557 1.276 . S
O529 C528 1.246 . S
Zn530 O532 1.911 . S
Zn530 O547 1.970 . S
Zn530 O564 1.945 . S
Zn530 O571 1.981 . S
Zn531 O532 1.933 1_565 S
Zn531 O546 1.985 . S
Zn531 O553 1.955 . S
O532 Zn530 1.911 . S
O532 Zn531 1.933 1_545 S
O532 H533 0.841 . S
H533 O532 0.841 . S
Zn534 O535 1.933 1_565 S
Zn534 O548 1.985 . S
Zn534 O557 1.955 . S
O535 Zn534 1.933 1_545 S
O535 Zn536 1.911 . S
O535 H537 0.841 . S
Zn536 O535 1.911 . S
Zn536 O549 1.970 . S
Zn536 O565 1.981 . S
Zn536 O567 1.945 . S
H537 O535 0.841 . S
Zn538 O539 1.933 1_565 S
Zn538 O551 1.985 . S
Zn538 O559 1.955 . S
O539 Zn538 1.933 1_545 S
O539 H540 0.841 . S
O539 Zn541 1.911 . S
H540 O539 0.841 . S
Zn541 O539 1.911 . S
Zn541 O552 1.970 . S
Zn541 O562 1.981 . S
Zn541 O570 1.945 . S
C542 O543 1.246 . S
C542 O559 1.276 . S
O543 C542 1.246 . S
O544 Zn524 1.985 . S
O544 C554 1.245 1_565 S
O545 Zn525 1.970 . S
O545 C554 1.263 . S
O546 Zn531 1.985 . S
O546 C558 1.245 1_565 S
O547 Zn530 1.970 . S
O547 C558 1.263 . S
O548 Zn534 1.985 . S
O548 C563 1.245 1_565 S
O549 Zn536 1.970 . S
O549 C563 1.263 . S
C550 O561 1.262 . S
C550 O562 1.245 . S
O551 Zn538 1.985 . S
O551 C569 1.245 1_565 S
O552 Zn541 1.970 . S
O552 C569 1.263 . S
O553 Zn531 1.955 . S
O553 C572 1.276 . S
C554 O544 1.245 1_545 S
C554 O545 1.263 . S
O555 Zn524 1.955 . S
O555 C574 1.276 . S
C556 O564 1.262 . S
C556 O565 1.245 . S
O557 C528 1.276 . S
O557 Zn534 1.955 . S
C558 O546 1.245 1_545 S
C558 O547 1.263 . S
O559 Zn538 1.955 . S
O559 C542 1.276 . S
C560 O567 1.262 . S
C560 O568 1.245 . S
O561 Zn525 1.945 . S
O561 C550 1.262 . S
O562 Zn541 1.981 . S
O562 C550 1.245 . S
C563 O548 1.245 1_545 S
C563 O549 1.263 . S
O564 Zn530 1.945 . S
O564 C556 1.262 . S
O565 Zn536 1.981 . S
O565 C556 1.245 . S
C566 O570 1.262 . S
C566 O571 1.245 . S
O567 Zn536 1.945 . S
O567 C560 1.262 . S
O568 Zn525 1.981 . S
O568 C560 1.245 . S
C569 O551 1.245 1_545 S
C569 O552 1.263 . S
O570 Zn541 1.945 . S
O570 C566 1.262 . S
O571 Zn530 1.981 . S
O571 C566 1.245 . S
C572 O553 1.276 . S
C572 O573 1.246 . S
O573 C572 1.246 . S
C574 O555 1.276 . S
C574 O575 1.246 . S
O575 C574 1.246 . S
C576 C577 1.387 . S
C576 H580 0.950 . S
C576 C585 1.390 . S
C577 C576 1.387 . S
C577 C579 1.387 . S
H578 C585 0.950 . S
C579 C577 1.387 . S
C579 C581 1.390 . S
C579 H583 0.950 . S
H580 C576 0.950 . S
C581 C579 1.390 . S
C581 C582 1.387 . S
C581 H584 0.950 . S
C582 C581 1.387 . S
C582 C585 1.387 . S
H583 C579 0.950 . S
H584 C581 0.950 . S
C585 C576 1.390 . S
C585 H578 0.950 . S
C585 C582 1.387 . S
C586 C587 1.387 . S
C586 H590 0.950 . S
C586 C595 1.390 . S
C587 C586 1.387 . S
C587 C589 1.387 . S
H588 C595 0.950 . S
C589 C587 1.387 . S
C589 C591 1.390 . S
C589 H593 0.950 . S
H590 C586 0.950 . S
C591 C589 1.390 . S
C591 C592 1.387 . S
C591 H594 0.950 . S
C592 C591 1.387 . S
C592 C595 1.387 . S
H593 C589 0.950 . S
H594 C591 0.950 . S
C595 C586 1.390 . S
C595 H588 0.950 . S
C595 C592 1.387 . S
C596 C597 1.387 . S
C596 H600 0.950 . S
C596 C605 1.390 . S
C597 C596 1.387 . S
C597 C599 1.387 . S
H598 C605 0.950 . S
C599 C597 1.387 . S
C599 C601 1.390 . S
C599 H603 0.950 . S
H600 C596 0.950 . S
C601 C599 1.390 . S
C601 C602 1.387 . S
C601 H604 0.950 . S
C602 C601 1.387 . S
C602 C605 1.387 . S
H603 C599 0.950 . S
H604 C601 0.950 . S
C605 C596 1.390 . S
C605 H598 0.950 . S
C605 C602 1.387 . S
C606 C607 1.387 . S
C606 H610 0.950 . S
C606 C615 1.390 . S
C607 C606 1.387 . S
C607 C609 1.387 . S
H608 C615 0.950 . S
C609 C607 1.387 . S
C609 C611 1.390 . S
C609 H613 0.950 . S
H610 C606 0.950 . S
C611 C609 1.390 . S
C611 C612 1.387 . S
C611 H614 0.950 . S
C612 C611 1.387 . S
C612 C615 1.387 . S
H613 C609 0.950 . S
H614 C611 0.950 . S
C615 C606 1.390 . S
C615 H608 0.950 . S
C615 C612 1.387 . S
C616 C617 1.387 . S
C616 H620 0.950 . S
C616 C625 1.390 . S
C617 C616 1.387 . S
C617 C619 1.387 . S
H618 C625 0.950 . S
C619 C617 1.387 . S
C619 C621 1.390 . S
C619 H623 0.950 . S
H620 C616 0.950 . S
C621 C619 1.390 . S
C621 C622 1.387 . S
C621 H624 0.950 . S
C622 C621 1.387 . S
C622 C625 1.387 . S
H623 C619 0.950 . S
H624 C621 0.950 . S
C625 C616 1.390 . S
C625 H618 0.950 . S
C625 C622 1.387 . S
C626 C627 1.387 . S
C626 H630 0.950 . S
C626 C635 1.390 . S
C627 C626 1.387 . S
C627 C629 1.387 . S
H628 C635 0.950 . S
C629 C627 1.387 . S
C629 C631 1.390 . S
C629 H633 0.950 . S
H630 C626 0.950 . S
C631 C629 1.390 . S
C631 C632 1.387 . S
C631 H634 0.950 . S
C632 C631 1.387 . S
C632 C635 1.387 . S
H633 C629 0.950 . S
H634 C631 0.950 . S
C635 C626 1.390 . S
C635 H628 0.950 . S
C635 C632 1.387 . S
C636 C637 1.387 . S
C636 H640 0.950 . S
C636 C645 1.390 . S
C637 C636 1.387 . S
C637 C639 1.387 . S
H638 C645 0.950 . S
C639 C637 1.387 . S
C639 C641 1.390 . S
C639 H643 0.950 . S
H640 C636 0.950 . S
C641 C639 1.390 . S
C641 C642 1.387 . S
C641 H644 0.950 . S
C642 C641 1.387 . S
C642 C645 1.387 . S
H643 C639 0.950 . S
H644 C641 0.950 . S
C645 C636 1.390 . S
C645 H638 0.950 . S
C645 C642 1.387 . S
C646 C647 1.387 . S
C646 H650 0.950 . S
C646 C655 1.390 . S
C647 C646 1.387 . S
C647 C649 1.387 . S
H648 C655 0.950 . S
C649 C647 1.387 . S
C649 C651 1.390 . S
C649 H653 0.950 . S
H650 C646 0.950 . S
C651 C649 1.390 . S
C651 C652 1.387 . S
C651 H654 0.950 . S
C652 C651 1.387 . S
C652 C655 1.387 . S
H653 C649 0.950 . S
H654 C651 0.950 . S
C655 C646 1.390 . S
C655 H648 0.950 . S
C655 C652 1.387 . S
C656 C657 1.387 . S
C656 H660 0.950 . S
C656 C665 1.390 . S
C657 C656 1.387 . S
C657 C659 1.387 . S
H658 C665 0.950 . S
C659 C657 1.387 . S
C659 C661 1.390 . S
C659 H663 0.950 . S
H660 C656 0.950 . S
C661 C659 1.390 . S
C661 C662 1.387 . S
C661 H664 0.950 . S
C662 C661 1.387 . S
C662 C665 1.387 . S
H663 C659 0.950 . S
H664 C661 0.950 . S
C665 C656 1.390 . S
C665 H658 0.950 . S
C665 C662 1.387 . S
C666 C667 1.387 . S
C666 H670 0.950 . S
C666 C675 1.390 . S
C667 C666 1.387 . S
C667 C669 1.387 . S
H668 C675 0.950 . S
C669 C667 1.387 . S
C669 C671 1.390 . S
C669 H673 0.950 . S
H670 C666 0.950 . S
C671 C669 1.390 . S
C671 C672 1.387 . S
C671 H674 0.950 . S
C672 C671 1.387 . S
C672 C675 1.387 . S
H673 C669 0.950 . S
H674 C671 0.950 . S
C675 C666 1.390 . S
C675 H668 0.950 . S
C675 C672 1.387 . S
C676 C677 1.387 . S
C676 H680 0.950 . S
C676 C685 1.390 . S
C677 C676 1.387 . S
C677 C679 1.387 . S
H678 C685 0.950 . S
C679 C677 1.387 . S
C679 C681 1.390 . S
C679 H683 0.950 . S
H680 C676 0.950 . S
C681 C679 1.390 . S
C681 C682 1.387 . S
C681 H684 0.950 . S
C682 C681 1.387 . S
C682 C685 1.387 . S
H683 C679 0.950 . S
H684 C681 0.950 . S
C685 C676 1.390 . S
C685 H678 0.950 . S
C685 C682 1.387 . S
C686 C687 1.387 . S
C686 H690 0.950 . S
C686 C695 1.390 . S
C687 C686 1.387 . S
C687 C689 1.387 . S
H688 C695 0.950 . S
C689 C687 1.387 . S
C689 C691 1.390 . S
C689 H693 0.950 . S
H690 C686 0.950 . S
C691 C689 1.390 . S
C691 C692 1.387 . S
C691 H694 0.950 . S
C692 C691 1.387 . S
C692 C695 1.387 . S
H693 C689 0.950 . S
H694 C691 0.950 . S
C695 C686 1.390 . S
C695 H688 0.950 . S
C695 C692 1.387 . S
C696 C697 1.387 . S
C696 H700 0.950 . S
C696 C705 1.390 . S
C697 C696 1.387 . S
C697 C699 1.387 1_554 S
H698 C705 0.950 . S
C699 C697 1.387 1_556 S
C699 C701 1.390 . S
C699 H703 0.950 . S
H700 C696 0.950 . S
C701 C699 1.390 . S
C701 C702 1.387 1_556 S
C701 H704 0.950 . S
C702 C701 1.387 1_554 S
C702 C705 1.387 . S
H703 C699 0.950 . S
H704 C701 0.950 . S
C705 C696 1.390 . S
C705 H698 0.950 . S
C705 C702 1.387 . S
C706 C707 1.387 1_556 S
C706 H710 0.950 . S
C706 C715 1.390 . S
C707 C706 1.387 1_554 S
C707 C709 1.387 . S
H708 C715 0.950 . S
C709 C707 1.387 . S
C709 C711 1.390 . S
C709 H713 0.950 . S
H710 C706 0.950 . S
C711 C709 1.390 . S
C711 C712 1.387 . S
C711 H714 0.950 . S
C712 C711 1.387 . S
C712 C715 1.387 1_554 S
H713 C709 0.950 . S
H714 C711 0.950 . S
C715 C706 1.390 . S
C715 H708 0.950 . S
C715 C712 1.387 1_556 S
C716 C717 1.387 1_556 S
C716 H720 0.950 . S
C716 C725 1.390 . S
C717 C716 1.387 1_554 S
C717 C719 1.387 . S
H718 C725 0.950 . S
C719 C717 1.387 . S
C719 C721 1.390 . S
C719 H723 0.950 . S
H720 C716 0.950 . S
C721 C719 1.390 . S
C721 C722 1.387 . S
C721 H724 0.950 . S
C722 C721 1.387 . S
C722 C725 1.387 1_554 S
H723 C719 0.950 . S
H724 C721 0.950 . S
C725 C716 1.390 . S
C725 H718 0.950 . S
C725 C722 1.387 1_556 S
C726 C727 1.387 . S
C726 H730 0.950 . S
C726 C735 1.390 . S
C727 C726 1.387 . S
C727 C729 1.387 1_554 S
H728 C735 0.950 . S
C729 C727 1.387 1_556 S
C729 C731 1.390 . S
C729 H733 0.950 . S
H730 C726 0.950 . S
C731 C729 1.390 . S
C731 C732 1.387 1_556 S
C731 H734 0.950 . S
C732 C731 1.387 1_554 S
C732 C735 1.387 . S
H733 C729 0.950 . S
H734 C731 0.950 . S
C735 C726 1.390 . S
C735 H728 0.950 . S
C735 C732 1.387 . S
C736 C737 1.387 1_655 S
C736 H740 0.950 . S
C736 C745 1.390 . S
C737 C736 1.387 1_455 S
C737 C739 1.387 . S
H738 C745 0.950 . S
C739 C737 1.387 . S
C739 C741 1.390 . S
C739 H743 0.950 . S
H740 C736 0.950 . S
C741 C739 1.390 . S
C741 C742 1.387 . S
C741 H744 0.950 . S
C742 C741 1.387 . S
C742 C745 1.387 1_455 S
H743 C739 0.950 . S
H744 C741 0.950 . S
C745 C736 1.390 . S
C745 H738 0.950 . S
C745 C742 1.387 1_655 S
C746 C747 1.387 . S
C746 H750 0.950 . S
C746 C755 1.390 . S
C747 C746 1.387 . S
C747 C749 1.387 1_545 S
H748 C755 0.950 . S
C749 C747 1.387 1_565 S
C749 C751 1.390 . S
C749 H753 0.950 . S
H750 C746 0.950 . S
C751 C749 1.390 . S
C751 C752 1.387 1_565 S
C751 H754 0.950 . S
C752 C751 1.387 1_545 S
C752 C755 1.387 . S
H753 C749 0.950 . S
H754 C751 0.950 . S
C755 C746 1.390 . S
C755 H748 0.950 . S
C755 C752 1.387 . S
C756 C757 1.387 1_655 S
C756 H760 0.950 . S
C756 C765 1.390 . S
C757 C756 1.387 1_455 S
C757 C759 1.387 . S
H758 C765 0.950 . S
C759 C757 1.387 . S
C759 C761 1.390 . S
C759 H763 0.950 . S
H760 C756 0.950 . S
C761 C759 1.390 . S
C761 C762 1.387 . S
C761 H764 0.950 . S
C762 C761 1.387 . S
C762 C765 1.387 1_455 S
H763 C759 0.950 . S
H764 C761 0.950 . S
C765 C756 1.390 . S
C765 H758 0.950 . S
C765 C762 1.387 1_655 S
C766 C767 1.387 . S
C766 H770 0.950 . S
C766 C775 1.390 . S
C767 C766 1.387 . S
C767 C769 1.366 1_545 S
H768 C775 0.950 . S
C769 C767 1.366 1_565 S
C769 C771 1.393 . S
C769 H773 0.969 . S
H770 C766 0.950 . S
C771 C769 1.393 . S
C771 C772 1.387 1_565 S
C771 H774 0.950 . S
C772 C771 1.387 1_545 S
C772 C775 1.387 . S
H773 C769 0.969 . S
H774 C771 0.950 . S
C775 C766 1.390 . S
C775 H768 0.950 . S
C775 C772 1.387 . S
C776 C777 1.387 . S
C776 H780 0.950 . S
C776 C785 1.390 . S
C777 C776 1.387 . S
C777 C779 1.387 . S
H778 C785 0.950 . S
C779 C777 1.387 . S
C779 C781 1.390 . S
C779 H783 0.950 1_455 S
H780 C776 0.950 . S
C781 C779 1.390 . S
C781 C782 1.387 . S
C781 H784 0.950 1_455 S
C782 C781 1.387 . S
C782 C785 1.387 . S
H783 C779 0.950 1_655 S
H784 C781 0.950 1_655 S
C785 C776 1.390 . S
C785 H778 0.950 . S
C785 C782 1.387 . S
C786 C787 1.387 . S
C786 H790 0.950 . S
C786 C795 1.390 . S
C787 C786 1.387 . S
C787 C789 1.387 . S
H788 C795 0.950 . S
C789 C787 1.387 . S
C789 C791 1.390 . S
C789 H793 0.950 1_545 S
H790 C786 0.950 . S
C791 C789 1.390 . S
C791 C792 1.387 . S
C791 H794 0.950 1_545 S
C792 C791 1.387 . S
C792 C795 1.387 . S
H793 C789 0.950 1_565 S
H794 C791 0.950 1_565 S
C795 C786 1.390 . S
C795 H788 0.950 . S
C795 C792 1.387 . S
C796 C797 1.387 1_655 S
C796 H800 0.950 . S
C796 C805 1.390 . S
C797 C796 1.387 1_455 S
C797 C799 1.387 . S
H798 C805 0.950 . S
C799 C797 1.387 . S
C799 C801 1.390 . S
C799 H803 0.950 . S
H800 C796 0.950 . S
C801 C799 1.390 . S
C801 C802 1.387 . S
C801 H804 0.950 . S
C802 C801 1.387 . S
C802 C805 1.387 1_455 S
H803 C799 0.950 . S
H804 C801 0.950 . S
C805 C796 1.390 . S
C805 H798 0.950 . S
C805 C802 1.387 1_655 S
C806 C807 1.387 . S
C806 H810 0.950 . S
C806 C815 1.390 . S
C807 C806 1.387 . S
C807 C809 1.387 1_545 S
H808 C815 0.950 . S
C809 C807 1.387 1_565 S
C809 C811 1.390 . S
C809 H813 0.950 . S
H810 C806 0.950 . S
C811 C809 1.390 . S
C811 C812 1.387 1_565 S
C811 H814 0.950 . S
C812 C811 1.387 1_545 S
C812 C815 1.387 . S
H813 C809 0.950 . S
H814 C811 0.950 . S
C815 C806 1.390 . S
C815 H808 0.950 . S
C815 C812 1.387 . S
C816 C817 1.387 . S
C816 H820 0.950 1_455 S
C816 C825 1.390 . S
C817 C816 1.387 . S
C817 C819 1.387 . S
H818 C825 0.950 1_655 S
C819 C817 1.387 . S
C819 C821 1.390 . S
C819 H823 0.950 . S
H820 C816 0.950 1_655 S
C821 C819 1.390 . S
C821 C822 1.387 . S
C821 H824 0.950 . S
C822 C821 1.387 . S
C822 C825 1.387 . S
H823 C819 0.950 . S
H824 C821 0.950 . S
C825 C816 1.390 . S
C825 H818 0.950 1_455 S
C825 C822 1.387 . S
C826 C827 1.399 . S
C826 H830 0.940 1_545 S
C826 C835 1.389 1_545 S
C827 C826 1.399 . S
C827 C829 1.387 . S
H828 C835 0.950 . S
C829 C827 1.387 . S
C829 C831 1.390 . S
C829 H833 0.950 . S
H830 C826 0.940 1_565 S
C831 C829 1.390 . S
C831 C832 1.387 . S
C831 H834 0.950 . S
C832 C831 1.387 . S
C832 C835 1.387 1_545 S
H833 C829 0.950 . S
H834 C831 0.950 . S
C835 C826 1.389 1_565 S
C835 H828 0.950 . S
C835 C832 1.387 1_565 S
C836 C837 1.387 . S
C836 H840 0.950 1_455 S
C836 C845 1.390 . S
C837 C836 1.387 . S
C837 C839 1.387 . S
H838 C845 0.950 . S
C839 C837 1.387 . S
C839 C841 1.390 . S
C839 H843 0.950 . S
H840 C836 0.950 1_655 S
C841 C839 1.390 . S
C841 C842 1.387 . S
C841 H844 0.950 . S
C842 C841 1.387 . S
C842 C845 1.387 . S
H843 C839 0.950 . S
H844 C841 0.950 . S
C845 C836 1.390 . S
C845 H838 0.950 . S
C845 C842 1.387 . S
C846 C847 1.387 1_565 S
C846 H850 0.950 . S
C846 C855 1.390 . S
C847 C846 1.387 1_545 S
C847 C849 1.387 . S
H848 C855 0.950 . S
C849 C847 1.387 . S
C849 C851 1.390 . S
C849 H853 0.950 . S
H850 C846 0.950 . S
C851 C849 1.390 . S
C851 C852 1.387 . S
C851 H854 0.950 . S
C852 C851 1.387 . S
C852 C855 1.387 1_545 S
H853 C849 0.950 . S
H854 C851 0.950 . S
C855 C846 1.390 . S
C855 H848 0.950 . S
C855 C852 1.387 1_565 S
C856 C857 1.387 . S
C856 H860 0.950 . S
C856 C865 1.390 . S
C857 C856 1.387 . S
C857 C859 1.387 1_455 S
H858 C865 0.950 . S
C859 C857 1.387 1_655 S
C859 C861 1.390 . S
C859 H863 0.950 . S
H860 C856 0.950 . S
C861 C859 1.390 . S
C861 C862 1.387 1_655 S
C861 H864 0.950 . S
C862 C861 1.387 1_455 S
C862 C865 1.387 . S
H863 C859 0.950 . S
H864 C861 0.950 . S
C865 C856 1.390 . S
C865 H858 0.950 . S
C865 C862 1.387 . S
C866 C867 1.387 1_565 S
C866 H870 0.950 . S
C866 C875 1.390 . S
C867 C866 1.387 1_545 S
C867 C869 1.387 . S
H868 C875 0.950 . S
C869 C867 1.387 . S
C869 C871 1.390 . S
C869 H873 0.950 . S
H870 C866 0.950 . S
C871 C869 1.390 . S
C871 C872 1.387 . S
C871 H874 0.950 . S
C872 C871 1.387 . S
C872 C875 1.387 1_545 S
H873 C869 0.950 . S
H874 C871 0.950 . S
C875 C866 1.390 . S
C875 H868 0.950 . S
C875 C872 1.387 1_565 S
C876 C877 1.387 . S
C876 H880 0.950 . S
C876 C885 1.390 . S
C877 C876 1.387 . S
C877 C879 1.387 1_455 S
H878 C885 0.950 . S
C879 C877 1.387 1_655 S
C879 C881 1.390 . S
C879 H883 0.950 . S
H880 C876 0.950 . S
C881 C879 1.390 . S
C881 C882 1.387 1_655 S
C881 H884 0.950 . S
C882 C881 1.387 1_455 S
C882 C885 1.387 . S
H883 C879 0.950 . S
H884 C881 0.950 . S
C885 C876 1.390 . S
C885 H878 0.950 . S
C885 C882 1.387 . S
C886 C887 1.387 . S
C886 H890 0.950 . S
C886 C895 1.390 . S
C887 C886 1.387 . S
C887 C889 1.389 . S
H888 C895 0.950 . S
C889 C887 1.389 . S
C889 C891 1.390 1_545 S
C889 H893 0.948 1_545 S
H890 C886 0.950 . S
C891 C889 1.390 1_565 S
C891 C892 1.387 1_565 S
C891 H894 0.950 . S
C892 C891 1.387 1_545 S
C892 C895 1.387 . S
H893 C889 0.948 1_565 S
H894 C891 0.950 . S
C895 C886 1.390 . S
C895 H888 0.950 . S
C895 C892 1.387 . S
C896 C897 1.387 . S
C896 H900 0.950 . S
C896 C905 1.390 . S
C897 C896 1.387 . S
C897 C899 1.387 1_545 S
H898 C905 0.950 . S
C899 C897 1.387 1_565 S
C899 C901 1.390 . S
C899 H903 0.950 . S
H900 C896 0.950 . S
C901 C899 1.390 . S
C901 C902 1.387 1_565 S
C901 H904 0.950 . S
C902 C901 1.387 1_545 S
C902 C905 1.387 . S
H903 C899 0.950 . S
H904 C901 0.950 . S
C905 C896 1.390 . S
C905 H898 0.950 . S
C905 C902 1.387 . S
C906 C907 1.387 1_655 S
C906 H910 0.950 . S
C906 C915 1.390 . S
C907 C906 1.387 1_455 S
C907 C909 1.387 . S
H908 C915 0.950 . S
C909 C907 1.387 . S
C909 C911 1.390 . S
C909 H913 0.950 . S
H910 C906 0.950 . S
C911 C909 1.390 . S
C911 C912 1.387 . S
C911 H914 0.950 . S
C912 C911 1.387 . S
C912 C915 1.387 1_455 S
H913 C909 0.950 . S
H914 C911 0.950 . S
C915 C906 1.390 . S
C915 H908 0.950 . S
C915 C912 1.387 1_655 S
C916 C917 1.387 . S
C916 H920 0.950 . S
C916 C925 1.390 . S
C917 C916 1.387 . S
C917 C919 1.387 . S
H918 C925 0.950 . S
C919 C917 1.387 . S
C919 C921 1.390 . S
C919 H923 0.950 1_545 S
H920 C916 0.950 . S
C921 C919 1.390 . S
C921 C922 1.387 . S
C921 H924 0.950 1_545 S
C922 C921 1.387 . S
C922 C925 1.387 . S
H923 C919 0.950 1_565 S
H924 C921 0.950 1_565 S
C925 C916 1.390 . S
C925 H918 0.950 . S
C925 C922 1.387 . S
C926 C927 1.387 1_655 S
C926 H930 0.950 . S
C926 C935 1.390 . S
C927 C926 1.387 1_455 S
C927 C929 1.387 . S
H928 C935 0.950 . S
C929 C927 1.387 . S
C929 C931 1.390 . S
C929 H933 0.950 . S
H930 C926 0.950 . S
C931 C929 1.390 . S
C931 C932 1.387 . S
C931 H934 0.950 . S
C932 C931 1.387 . S
C932 C935 1.387 1_455 S
H933 C929 0.950 . S
H934 C931 0.950 . S
C935 C926 1.390 . S
C935 H928 0.950 . S
C935 C932 1.387 1_655 S
C936 C937 1.387 . S
C936 H940 0.950 . S
C936 C945 1.390 . S
C937 C936 1.387 . S
C937 C939 1.387 1_545 S
H938 C945 0.950 . S
C939 C937 1.387 1_565 S
C939 C941 1.390 . S
C939 H943 0.950 . S
H940 C936 0.950 . S
C941 C939 1.390 . S
C941 C942 1.387 1_565 S
C941 H944 0.950 . S
C942 C941 1.387 1_545 S
C942 C945 1.387 . S
H943 C939 0.950 . S
H944 C941 0.950 . S
C945 C936 1.390 . S
C945 H938 0.950 . S
C945 C942 1.387 . S
C946 C947 1.387 1_655 S
C946 H950 0.950 . S
C946 C955 1.390 . S
C947 C946 1.387 1_455 S
C947 C949 1.387 . S
H948 C955 0.950 . S
C949 C947 1.387 . S
C949 C951 1.390 . S
C949 H953 0.950 . S
H950 C946 0.950 . S
C951 C949 1.390 . S
C951 C952 1.387 . S
C951 H954 0.950 . S
C952 C951 1.387 . S
C952 C955 1.387 1_455 S
H953 C949 0.950 . S
H954 C951 0.950 . S
C955 C946 1.390 . S
C955 H948 0.950 . S
C955 C952 1.387 1_655 S
C956 C957 1.387 . S
C956 H960 0.950 . S
C956 C965 1.390 . S
C957 C956 1.387 . S
C957 C959 1.387 . S
H958 C965 0.950 . S
C959 C957 1.387 . S
C959 C961 1.390 1_545 S
C959 H963 0.950 1_545 S
H960 C956 0.950 . S
C961 C959 1.390 1_565 S
C961 C962 1.379 1_565 S
C961 H964 0.959 . S
C962 C961 1.379 1_545 S
C962 C965 1.387 . S
H963 C959 0.950 1_565 S
H964 C961 0.959 . S
C965 C956 1.390 . S
C965 H958 0.950 . S
C965 C962 1.387 . S
C966 C967 1.388 1_655 S
C966 H970 0.950 . S
C966 C975 1.390 . S
C967 C966 1.388 1_455 S
C967 C969 1.387 . S
H968 C975 0.950 . S
C969 C967 1.387 . S
C969 C971 1.390 . S
C969 H973 0.950 . S
H970 C966 0.950 . S
C971 C969 1.390 . S
C971 C972 1.387 . S
C971 H974 0.950 . S
C972 C971 1.387 . S
C972 C975 1.387 1_455 S
H973 C969 0.950 . S
H974 C971 0.950 . S
C975 C966 1.390 . S
C975 H968 0.950 . S
C975 C972 1.387 1_655 S
C976 C977 1.387 1_556 S
C976 H980 0.950 . S
C976 C985 1.390 . S
C977 C976 1.387 1_554 S
C977 C979 1.387 . S
H978 C985 0.950 . S
C979 C977 1.387 . S
C979 C981 1.390 . S
C979 H983 0.950 . S
H980 C976 0.950 . S
C981 C979 1.390 . S
C981 C982 1.387 . S
C981 H984 0.950 . S
C982 C981 1.387 . S
C982 C985 1.387 1_554 S
H983 C979 0.950 . S
H984 C981 0.950 . S
C985 C976 1.390 . S
C985 H978 0.950 . S
C985 C982 1.387 1_556 S
C986 C987 1.387 . S
C986 H990 0.950 . S
C986 C995 1.390 . S
C987 C986 1.387 . S
C987 C989 1.387 1_554 S
H988 C995 0.950 . S
C989 C987 1.387 1_556 S
C989 C991 1.390 . S
C989 H993 0.950 . S
H990 C986 0.950 . S
C991 C989 1.390 . S
C991 C992 1.387 1_556 S
C991 H994 0.950 . S
C992 C991 1.387 1_554 S
C992 C995 1.387 . S
H993 C989 0.950 . S
H994 C991 0.950 . S
C995 C986 1.390 . S
C995 H988 0.950 . S
C995 C992 1.387 . S
C996 C997 1.387 . S
C996 H1000 0.950 . S
C996 C1005 1.390 . S
C997 C996 1.387 . S
C997 C999 1.387 1_554 S
H998 C1005 0.950 . S
C999 C997 1.387 1_556 S
C999 C1001 1.390 . S
C999 H1003 0.950 . S
H1000 C996 0.950 . S
C1001 C999 1.390 . S
C1001 C1002 1.387 1_556 S
C1001 H1004 0.950 . S
C1002 C1001 1.387 1_554 S
C1002 C1005 1.387 . S
H1003 C999 0.950 . S
H1004 C1001 0.950 . S
C1005 C996 1.390 . S
C1005 H998 0.950 . S
C1005 C1002 1.387 . S
C1006 C1007 1.387 1_554 S
C1006 H1010 0.950 . S
C1006 C1015 1.390 . S
C1007 C1006 1.387 1_556 S
C1007 C1009 1.387 . S
H1008 C1015 0.950 . S
C1009 C1007 1.387 . S
C1009 C1011 1.390 . S
C1009 H1013 0.950 . S
H1010 C1006 0.950 . S
C1011 C1009 1.390 . S
C1011 C1012 1.387 . S
C1011 H1014 0.950 . S
C1012 C1011 1.387 . S
C1012 C1015 1.387 1_556 S
H1013 C1009 0.950 . S
H1014 C1011 0.950 . S
C1015 C1006 1.390 . S
C1015 H1008 0.950 . S
C1015 C1012 1.387 1_554 S
C1016 C1017 1.387 1_556 S
C1016 H1020 0.950 . S
C1016 C1025 1.390 . S
C1017 C1016 1.387 1_554 S
C1017 C1019 1.387 . S
H1018 C1025 0.950 . S
C1019 C1017 1.387 . S
C1019 C1021 1.390 . S
C1019 H1023 0.950 . S
H1020 C1016 0.950 . S
C1021 C1019 1.390 . S
C1021 C1022 1.387 . S
C1021 H1024 0.950 . S
C1022 C1021 1.387 . S
C1022 C1025 1.387 1_554 S
H1023 C1019 0.950 . S
H1024 C1021 0.950 . S
C1025 C1016 1.390 . S
C1025 H1018 0.950 . S
C1025 C1022 1.387 1_556 S
C1026 C1027 1.413 . S
C1026 H1030 0.950 . S
C1026 C1035 1.390 . S
C1027 C1026 1.413 . S
C1027 C1029 1.361 1_554 S
H1028 C1035 0.950 . S
C1029 C1027 1.361 1_556 S
C1029 C1031 1.390 . S
C1029 H1033 0.950 . S
H1030 C1026 0.950 . S
C1031 C1029 1.390 . S
C1031 C1032 1.387 . S
C1031 H1034 0.950 . S
C1032 C1031 1.387 . S
C1032 C1035 1.387 1_556 S
H1033 C1029 0.950 . S
H1034 C1031 0.950 . S
C1035 C1026 1.390 . S
C1035 H1028 0.950 . S
C1035 C1032 1.387 1_554 S
C1036 C1037 1.387 1_556 S
C1036 H1040 0.950 . S
C1036 C1045 1.390 . S
C1037 C1036 1.387 1_554 S
C1037 C1039 1.387 . S
H1038 C1045 0.950 . S
C1039 C1037 1.387 . S
C1039 C1041 1.390 . S
C1039 H1043 0.950 . S
H1040 C1036 0.950 . S
C1041 C1039 1.390 . S
C1041 C1042 1.387 . S
C1041 H1044 0.950 . S
C1042 C1041 1.387 . S
C1042 C1045 1.387 1_554 S
H1043 C1039 0.950 . S
H1044 C1041 0.950 . S
C1045 C1036 1.390 . S
C1045 H1038 0.950 . S
C1045 C1042 1.387 1_556 S
C1046 C1047 1.387 1_556 S
C1046 H1050 0.950 . S
C1046 C1055 1.390 . S
C1047 C1046 1.387 1_554 S
C1047 C1049 1.387 . S
H1048 C1055 0.950 . S
C1049 C1047 1.387 . S
C1049 C1051 1.390 . S
C1049 H1053 0.950 . S
H1050 C1046 0.950 . S
C1051 C1049 1.390 . S
C1051 C1052 1.387 . S
C1051 H1054 0.950 . S
C1052 C1051 1.387 . S
C1052 C1055 1.387 1_554 S
H1053 C1049 0.950 . S
H1054 C1051 0.950 . S
C1055 C1046 1.390 . S
C1055 H1048 0.950 . S
C1055 C1052 1.387 1_556 S
C1056 C1057 1.387 . S
C1056 H1060 0.950 . S
C1056 C1065 1.390 . S
C1057 C1056 1.387 . S
C1057 C1059 1.387 . S
H1058 C1065 0.950 . S
C1059 C1057 1.387 . S
C1059 C1061 1.390 . S
C1059 H1063 0.950 . S
H1060 C1056 0.950 . S
C1061 C1059 1.390 . S
C1061 C1062 1.387 . S
C1061 H1064 0.950 . S
C1062 C1061 1.387 . S
C1062 C1065 1.387 . S
H1063 C1059 0.950 . S
H1064 C1061 0.950 . S
C1065 C1056 1.390 . S
C1065 H1058 0.950 . S
C1065 C1062 1.387 . S
C1066 C1067 1.387 . S
C1066 H1070 0.950 . S
C1066 C1075 1.390 . S
C1067 C1066 1.387 . S
C1067 C1069 1.387 . S
H1068 C1075 0.950 . S
C1069 C1067 1.387 . S
C1069 C1071 1.390 . S
C1069 H1073 0.950 . S
H1070 C1066 0.950 . S
C1071 C1069 1.390 . S
C1071 C1072 1.387 . S
C1071 H1074 0.950 . S
C1072 C1071 1.387 . S
C1072 C1075 1.387 . S
H1073 C1069 0.950 . S
H1074 C1071 0.950 . S
C1075 C1066 1.390 . S
C1075 H1068 0.950 . S
C1075 C1072 1.387 . S
C1076 C1077 1.387 . S
C1076 H1080 0.950 . S
C1076 C1085 1.390 . S
C1077 C1076 1.387 . S
C1077 C1079 1.387 . S
H1078 C1085 0.950 . S
C1079 C1077 1.387 . S
C1079 C1081 1.390 . S
C1079 H1083 0.950 . S
H1080 C1076 0.950 . S
C1081 C1079 1.390 . S
C1081 C1082 1.387 . S
C1081 H1084 0.950 . S
C1082 C1081 1.387 . S
C1082 C1085 1.387 . S
H1083 C1079 0.950 . S
H1084 C1081 0.950 . S
C1085 C1076 1.390 . S
C1085 H1078 0.950 . S
C1085 C1082 1.387 . S
C1086 C1087 1.387 . S
C1086 H1090 0.950 . S
C1086 C1095 1.390 . S
C1087 C1086 1.387 . S
C1087 C1089 1.387 . S
H1088 C1095 0.950 . S
C1089 C1087 1.387 . S
C1089 C1091 1.390 . S
C1089 H1093 0.950 . S
H1090 C1086 0.950 . S
C1091 C1089 1.390 . S
C1091 C1092 1.387 . S
C1091 H1094 0.950 . S
C1092 C1091 1.387 . S
C1092 C1095 1.387 . S
H1093 C1089 0.950 . S
H1094 C1091 0.950 . S
C1095 C1086 1.390 . S
C1095 H1088 0.950 . S
C1095 C1092 1.387 . S
C1096 C1097 1.387 . S
C1096 H1100 0.950 . S
C1096 C1105 1.390 . S
C1097 C1096 1.387 . S
C1097 C1099 1.387 . S
H1098 C1105 0.950 . S
C1099 C1097 1.387 . S
C1099 C1101 1.390 . S
C1099 H1103 0.950 . S
H1100 C1096 0.950 . S
C1101 C1099 1.390 . S
C1101 C1102 1.387 . S
C1101 H1104 0.950 . S
C1102 C1101 1.387 . S
C1102 C1105 1.387 . S
H1103 C1099 0.950 . S
H1104 C1101 0.950 . S
C1105 C1096 1.390 . S
C1105 H1098 0.950 . S
C1105 C1102 1.387 . S
C1106 C1107 1.387 . S
C1106 H1110 0.950 . S
C1106 C1115 1.390 . S
C1107 C1106 1.387 . S
C1107 C1109 1.387 . S
H1108 C1115 0.950 . S
C1109 C1107 1.387 . S
C1109 C1111 1.390 . S
C1109 H1113 0.950 . S
H1110 C1106 0.950 . S
C1111 C1109 1.390 . S
C1111 C1112 1.387 . S
C1111 H1114 0.950 . S
C1112 C1111 1.387 . S
C1112 C1115 1.387 . S
H1113 C1109 0.950 . S
H1114 C1111 0.950 . S
C1115 C1106 1.390 . S
C1115 H1108 0.950 . S
C1115 C1112 1.387 . S
C1116 C1117 1.387 . S
C1116 H1120 0.950 . S
C1116 C1125 1.390 . S
C1117 C1116 1.387 . S
C1117 C1119 1.387 . S
H1118 C1125 0.950 . S
C1119 C1117 1.387 . S
C1119 C1121 1.390 . S
C1119 H1123 0.950 . S
H1120 C1116 0.950 . S
C1121 C1119 1.390 . S
C1121 C1122 1.387 . S
C1121 H1124 0.950 . S
C1122 C1121 1.387 . S
C1122 C1125 1.387 . S
H1123 C1119 0.950 . S
H1124 C1121 0.950 . S
C1125 C1116 1.390 . S
C1125 H1118 0.950 . S
C1125 C1122 1.387 . S
C1126 C1127 1.387 . S
C1126 H1130 0.950 . S
C1126 C1135 1.390 . S
C1127 C1126 1.387 . S
C1127 C1129 1.387 . S
H1128 C1135 0.950 . S
C1129 C1127 1.387 . S
C1129 C1131 1.390 . S
C1129 H1133 0.950 . S
H1130 C1126 0.950 . S
C1131 C1129 1.390 . S
C1131 C1132 1.387 . S
C1131 H1134 0.950 . S
C1132 C1131 1.387 . S
C1132 C1135 1.387 . S
H1133 C1129 0.950 . S
H1134 C1131 0.950 . S
C1135 C1126 1.390 . S
C1135 H1128 0.950 . S
C1135 C1132 1.387 . S
C1136 C1137 1.387 . S
C1136 H1140 0.950 . S
C1136 C1145 1.390 . S
C1137 C1136 1.387 . S
C1137 C1139 1.387 . S
H1138 C1145 0.950 . S
C1139 C1137 1.387 . S
C1139 C1141 1.390 . S
C1139 H1143 0.950 . S
H1140 C1136 0.950 . S
C1141 C1139 1.390 . S
C1141 C1142 1.387 . S
C1141 H1144 0.950 . S
C1142 C1141 1.387 . S
C1142 C1145 1.387 . S
H1143 C1139 0.950 . S
H1144 C1141 0.950 . S
C1145 C1136 1.390 . S
C1145 H1138 0.950 . S
C1145 C1142 1.387 . S
C1146 C1147 1.387 . S
C1146 H1150 0.950 . S
C1146 C1155 1.390 . S
C1147 C1146 1.387 . S
C1147 C1149 1.387 . S
H1148 C1155 0.950 . S
C1149 C1147 1.387 . S
C1149 C1151 1.390 . S
C1149 H1153 0.950 . S
H1150 C1146 0.950 . S
C1151 C1149 1.390 . S
C1151 C1152 1.387 . S
C1151 H1154 0.950 . S
C1152 C1151 1.387 . S
C1152 C1155 1.387 . S
H1153 C1149 0.950 . S
H1154 C1151 0.950 . S
C1155 C1146 1.390 . S
C1155 H1148 0.950 . S
C1155 C1152 1.387 . S
C1156 C1157 1.387 . S
C1156 H1160 0.950 . S
C1156 C1165 1.390 . S
C1157 C1156 1.387 . S
C1157 C1159 1.387 . S
H1158 C1165 0.950 . S
C1159 C1157 1.387 . S
C1159 C1161 1.390 . S
C1159 H1163 0.950 . S
H1160 C1156 0.950 . S
C1161 C1159 1.390 . S
C1161 C1162 1.387 . S
C1161 H1164 0.950 . S
C1162 C1161 1.387 . S
C1162 C1165 1.387 . S
H1163 C1159 0.950 . S
H1164 C1161 0.950 . S
C1165 C1156 1.390 . S
C1165 H1158 0.950 . S
C1165 C1162 1.387 . S
C1166 C1167 1.387 . S
C1166 H1170 0.950 . S
C1166 C1175 1.390 . S
C1167 C1166 1.387 . S
C1167 C1169 1.387 . S
H1168 C1175 0.950 . S
C1169 C1167 1.387 . S
C1169 C1171 1.390 . S
C1169 H1173 0.950 . S
H1170 C1166 0.950 . S
C1171 C1169 1.390 . S
C1171 C1172 1.387 . S
C1171 H1174 0.950 . S
C1172 C1171 1.387 . S
C1172 C1175 1.387 . S
H1173 C1169 0.950 . S
H1174 C1171 0.950 . S
C1175 C1166 1.390 . S
C1175 H1168 0.950 . S
C1175 C1172 1.387 . S
C1176 C1177 1.387 . S
C1176 H1180 0.950 . S
C1176 C1185 1.390 . S
C1177 C1176 1.387 . S
C1177 C1179 1.387 . S
H1178 C1185 0.950 . S
C1179 C1177 1.387 . S
C1179 C1181 1.390 . S
C1179 H1183 0.950 . S
H1180 C1176 0.950 . S
C1181 C1179 1.390 . S
C1181 C1182 1.387 . S
C1181 H1184 0.950 . S
C1182 C1181 1.387 . S
C1182 C1185 1.387 . S
H1183 C1179 0.950 . S
H1184 C1181 0.950 . S
C1185 C1176 1.390 . S
C1185 H1178 0.950 . S
C1185 C1182 1.387 . S
C1186 C1187 1.387 . S
C1186 H1190 0.950 . S
C1186 C1195 1.390 . S
C1187 C1186 1.387 . S
C1187 C1189 1.387 . S
H1188 C1195 0.950 . S
C1189 C1187 1.387 . S
C1189 C1191 1.390 . S
C1189 H1193 0.950 . S
H1190 C1186 0.950 . S
C1191 C1189 1.390 . S
C1191 C1192 1.387 . S
C1191 H1194 0.950 . S
C1192 C1191 1.387 . S
C1192 C1195 1.387 . S
H1193 C1189 0.950 . S
H1194 C1191 0.950 . S
C1195 C1186 1.390 . S
C1195 H1188 0.950 . S
C1195 C1192 1.387 . S
C1196 C1197 1.387 . S
C1196 H1200 0.950 . S
C1196 C1205 1.390 . S
C1197 C1196 1.387 . S
C1197 C1199 1.387 . S
H1198 C1205 0.950 . S
C1199 C1197 1.387 . S
C1199 C1201 1.390 . S
C1199 H1203 0.950 . S
H1200 C1196 0.950 . S
C1201 C1199 1.390 . S
C1201 C1202 1.387 . S
C1201 H1204 0.950 . S
C1202 C1201 1.387 . S
C1202 C1205 1.387 . S
H1203 C1199 0.950 . S
H1204 C1201 0.950 . S
C1205 C1196 1.390 . S
C1205 H1198 0.950 . S
C1205 C1202 1.387 . S
C1206 C1207 1.387 . S
C1206 H1210 0.950 . S
C1206 C1215 1.390 . S
C1207 C1206 1.387 . S
C1207 C1209 1.387 . S
H1208 C1215 0.950 . S
C1209 C1207 1.387 . S
C1209 C1211 1.390 . S
C1209 H1213 0.950 . S
H1210 C1206 0.950 . S
C1211 C1209 1.390 . S
C1211 C1212 1.387 . S
C1211 H1214 0.950 . S
C1212 C1211 1.387 . S
C1212 C1215 1.387 . S
H1213 C1209 0.950 . S
H1214 C1211 0.950 . S
C1215 C1206 1.390 . S
C1215 H1208 0.950 . S
C1215 C1212 1.387 . S
C1216 C1217 1.387 . S
C1216 H1220 0.950 . S
C1216 C1225 1.390 . S
C1217 C1216 1.387 . S
C1217 C1219 1.387 . S
H1218 C1225 0.950 . S
C1219 C1217 1.387 . S
C1219 C1221 1.390 . S
C1219 H1223 0.950 . S
H1220 C1216 0.950 . S
C1221 C1219 1.390 . S
C1221 C1222 1.387 . S
C1221 H1224 0.950 . S
C1222 C1221 1.387 . S
C1222 C1225 1.387 . S
H1223 C1219 0.950 . S
H1224 C1221 0.950 . S
C1225 C1216 1.390 . S
C1225 H1218 0.950 . S
C1225 C1222 1.387 . S
C1226 C1227 1.387 . S
C1226 H1230 0.950 . S
C1226 C1235 1.390 . S
C1227 C1226 1.387 . S
C1227 C1229 1.387 . S
H1228 C1235 0.950 . S
C1229 C1227 1.387 . S
C1229 C1231 1.390 . S
C1229 H1233 0.950 . S
H1230 C1226 0.950 . S
C1231 C1229 1.390 . S
C1231 C1232 1.387 . S
C1231 H1234 0.950 . S
C1232 C1231 1.387 . S
C1232 C1235 1.387 . S
H1233 C1229 0.950 . S
H1234 C1231 0.950 . S
C1235 C1226 1.390 . S
C1235 H1228 0.950 . S
C1235 C1232 1.387 . S
C1236 C1237 1.387 . S
C1236 H1240 0.950 . S
C1236 C1245 1.390 . S
C1237 C1236 1.387 . S
C1237 C1239 1.387 . S
H1238 C1245 0.950 . S
C1239 C1237 1.387 . S
C1239 C1241 1.390 . S
C1239 H1243 0.950 . S
H1240 C1236 0.950 . S
C1241 C1239 1.390 . S
C1241 C1242 1.387 . S
C1241 H1244 0.950 . S
C1242 C1241 1.387 . S
C1242 C1245 1.387 . S
H1243 C1239 0.950 . S
H1244 C1241 0.950 . S
C1245 C1236 1.390 . S
C1245 H1238 0.950 . S
C1245 C1242 1.387 . S
C1246 C1247 1.387 . S
C1246 H1250 0.950 . S
C1246 C1255 1.390 . S
C1247 C1246 1.387 . S
C1247 C1249 1.387 . S
H1248 C1255 0.950 . S
C1249 C1247 1.387 . S
C1249 C1251 1.390 . S
C1249 H1253 0.950 . S
H1250 C1246 0.950 . S
C1251 C1249 1.390 . S
C1251 C1252 1.387 . S
C1251 H1254 0.950 . S
C1252 C1251 1.387 . S
C1252 C1255 1.387 . S
H1253 C1249 0.950 . S
H1254 C1251 0.950 . S
C1255 C1246 1.390 . S
C1255 H1248 0.950 . S
C1255 C1252 1.387 . S
C1256 C1257 1.387 . S
C1256 H1260 0.950 . S
C1256 C1265 1.390 . S
C1257 C1256 1.387 . S
C1257 C1259 1.387 . S
H1258 C1265 0.950 . S
C1259 C1257 1.387 . S
C1259 C1261 1.390 . S
C1259 H1263 0.950 . S
H1260 C1256 0.950 . S
C1261 C1259 1.390 . S
C1261 C1262 1.387 . S
C1261 H1264 0.950 . S
C1262 C1261 1.387 . S
C1262 C1265 1.387 . S
H1263 C1259 0.950 . S
H1264 C1261 0.950 . S
C1265 C1256 1.390 . S
C1265 H1258 0.950 . S
C1265 C1262 1.387 . S
C1266 C1267 1.387 . S
C1266 H1270 0.950 . S
C1266 C1275 1.390 . S
C1267 C1266 1.387 . S
C1267 C1269 1.387 . S
H1268 C1275 0.950 . S
C1269 C1267 1.387 . S
C1269 C1271 1.390 . S
C1269 H1273 0.950 . S
H1270 C1266 0.950 . S
C1271 C1269 1.390 . S
C1271 C1272 1.387 . S
C1271 H1274 0.950 . S
C1272 C1271 1.387 . S
C1272 C1275 1.387 . S
H1273 C1269 0.950 . S
H1274 C1271 0.950 . S
C1275 C1266 1.390 . S
C1275 H1268 0.950 . S
C1275 C1272 1.387 . S
C1276 C1277 1.387 . S
C1276 H1280 0.950 . S
C1276 C1285 1.390 . S
C1277 C1276 1.387 . S
C1277 C1279 1.387 . S
H1278 C1285 0.950 . S
C1279 C1277 1.387 . S
C1279 C1281 1.390 . S
C1279 H1283 0.950 . S
H1280 C1276 0.950 . S
C1281 C1279 1.390 . S
C1281 C1282 1.387 . S
C1281 H1284 0.950 . S
C1282 C1281 1.387 . S
C1282 C1285 1.387 . S
H1283 C1279 0.950 . S
H1284 C1281 0.950 . S
C1285 C1276 1.390 . S
C1285 H1278 0.950 . S
C1285 C1282 1.387 . S
C1286 C1287 1.387 . S
C1286 H1290 0.950 . S
C1286 C1295 1.390 . S
C1287 C1286 1.387 . S
C1287 C1289 1.387 . S
H1288 C1295 0.950 . S
C1289 C1287 1.387 . S
C1289 C1291 1.390 . S
C1289 H1293 0.950 . S
H1290 C1286 0.950 . S
C1291 C1289 1.390 . S
C1291 C1292 1.387 . S
C1291 H1294 0.950 . S
C1292 C1291 1.387 . S
C1292 C1295 1.387 . S
H1293 C1289 0.950 . S
H1294 C1291 0.950 . S
C1295 C1286 1.390 . S
C1295 H1288 0.950 . S
C1295 C1292 1.387 . S
C582 C306 1.331 . S
C577 C258 1.392 . S
C587 C236 1.669 . S
C592 C300 1.590 . S
C602 C268 1.684 . S
C597 C225 1.779 . S
C607 C247 1.561 . S
C612 C282 1.438 . S
C622 C320 1.827 . S
C617 C181 1.984 . S
C632 C407 1.398 . S
C627 C192 1.456 . S
C637 C203 1.967 . S
C642 C334 1.887 . S
C652 C402 1.384 . S
C647 C214 1.400 . S
C657 C137 2.066 . S
C662 C358 1.936 . S
C672 C413 1.596 . S
C667 C148 1.642 . S
C677 C159 1.991 . S
C682 C352 1.929 . S
C687 C170 1.142 . S
C692 C398 1.125 . S
C702 C454 1.147 . S
C697 C126 1.179 . S
C707 C104 1.678 . S
C712 C465 1.633 . S
C717 C93 1.457 . S
C722 C450 1.431 . S
C732 C459 1.451 . S
C727 C115 1.473 . S
C737 C49 1.613 . S
C742 C504 1.562 . S
C747 C60 0.905 . S
C752 C563 0.896 . S
C757 C71 1.755 . S
C762 C520 1.598 . S
C767 C82 1.391 . S
C772 C558 1.363 . S
C782 C522 1.712 . S
C777 C5 1.813 . S
C792 C569 1.005 . S
C787 C16 1.015 . S
C797 C27 1.705 . S
C802 C498 1.575 . S
C812 C554 1.063 . S
C807 C38 1.096 . S
C822 C290 1.611 . S
C817 C4 1.664 . S
C827 C21 1.252 . S
C832 C294 1.316 . S
C837 C32 1.528 . S
C842 C314 1.509 . S
C847 C37 1.067 . S
C852 C309 1.090 . S
C857 C48 1.705 . S
C862 C312 1.666 . S
C872 C298 1.313 . S
C867 C59 1.291 . S
C877 C76 1.448 . S
C882 C296 1.472 . S
C892 C303 1.309 . S
C887 C81 1.316 . S
C902 C366 1.422 . S
C897 C43 1.406 . S
C907 C10 1.755 . S
C912 C416 1.738 . S
C922 C364 1.399 . S
C917 C15 1.441 . S
C932 C400 1.801 . S
C927 C26 1.931 . S
C937 C65 1.166 . S
C942 C342 1.179 . S
C952 C418 1.765 . S
C947 C70 1.853 . S
C962 C348 1.454 . S
C957 C87 1.428 . S
C972 C394 1.621 . S
C967 C54 1.572 1_455 S
C982 C386 1.480 . S
C977 C98 1.395 . S
C987 C109 1.275 . S
C992 C410 1.389 . S
C1002 C346 1.346 . S
C997 C92 1.323 . S
C1012 C372 1.355 1_556 S
C1007 C114 1.326 . S
C1017 C131 1.066 . S
C1022 C350 1.133 . S
C1027 C125 1.379 . S
C1032 C404 1.405 1_556 S
C1042 C361 1.518 . S
C1037 C103 1.485 . S
C1052 C355 1.395 . S
C1047 C120 1.235 . S
C1062 C438 1.844 . S
C1057 C136 1.914 . S
C1072 C470 1.523 . S
C1067 C153 1.424 . S
C1077 C164 1.670 . S
C1082 C424 1.770 . S
C1092 C468 1.212 . S
C1087 C169 1.215 . S
C1102 C456 1.838 . S
C1097 C180 1.856 . S
C1107 C191 1.389 . S
C1112 C452 1.444 . S
C1117 C208 1.657 . S
C1122 C462 1.773 . S
C1132 C446 1.403 . S
C1127 C213 1.463 . S
C1142 C511 1.366 . S
C1137 C175 1.273 . S
C1147 C142 1.581 . S
C1152 C572 1.631 . S
C1162 C506 1.318 . S
C1157 C147 1.280 . S
C1172 C556 1.689 . S
C1167 C158 1.716 . S
C1182 C502 1.161 . S
C1177 C197 1.066 . S
C1187 C202 1.633 . S
C1192 C574 1.625 . S
C1202 C517 1.378 . S
C1197 C219 1.298 . S
C1212 C550 1.482 . S
C1207 C186 1.373 . S
C1222 C542 1.598 . S
C1217 C230 1.562 . S
C1227 C241 1.630 . S
C1232 C566 1.622 . S
C1242 C508 1.554 . S
C1237 C224 1.587 . S
C1247 C246 1.717 . S
C1252 C528 1.626 . S
C1262 C490 1.357 . S
C1257 C263 1.357 . S
C1272 C560 1.510 . S
C1267 C257 1.536 . S
C1282 C476 1.564 . S
C1277 C235 1.620 . S
C1287 C252 1.314 . S
C1292 C514 1.323 . S
