# Generated by pormake.
# Topology anh, (6,3)-cn, num edge types: 1
# Building blocks:
#     Node 0, Type 0, BuildingBlock: PAMTUU_clean_sbu_0, # of connection points: 6
#     Node 1, Type 0, BuildingBlock: PAMTUU_clean_sbu_0, # of connection points: 6
#     Node 2, Type 0, BuildingBlock: PAMTUU_clean_sbu_0, # of connection points: 6
#     Node 3, Type 1, BuildingBlock: MIDCAF_clean_linker_0, # of connection points: 3
#     Node 4, Type 1, BuildingBlock: MIDCAF_clean_linker_0, # of connection points: 3
#     Node 5, Type 1, BuildingBlock: MIDCAF_clean_linker_0, # of connection points: 3
#     Node 6, Type 1, BuildingBlock: MIDCAF_clean_linker_0, # of connection points: 3
#     Node 7, Type 1, BuildingBlock: MIDCAF_clean_linker_0, # of connection points: 3
#     Node 8, Type 1, BuildingBlock: MIDCAF_clean_linker_0, # of connection points: 3
#     Edge 9, Type (0, 1), BuildingBlock: XUDNAN_clean_linker_2, # of connection points: 2
#     Edge 10, Type (0, 1), BuildingBlock: XUDNAN_clean_linker_2, # of connection points: 2
#     Edge 11, Type (0, 1), BuildingBlock: XUDNAN_clean_linker_2, # of connection points: 2
#     Edge 12, Type (0, 1), BuildingBlock: XUDNAN_clean_linker_2, # of connection points: 2
#     Edge 13, Type (0, 1), BuildingBlock: XUDNAN_clean_linker_2, # of connection points: 2
#     Edge 14, Type (0, 1), BuildingBlock: XUDNAN_clean_linker_2, # of connection points: 2
#     Edge 15, Type (0, 1), BuildingBlock: XUDNAN_clean_linker_2, # of connection points: 2
#     Edge 16, Type (0, 1), BuildingBlock: XUDNAN_clean_linker_2, # of connection points: 2
#     Edge 17, Type (0, 1), BuildingBlock: XUDNAN_clean_linker_2, # of connection points: 2
#     Edge 18, Type (0, 1), BuildingBlock: XUDNAN_clean_linker_2, # of connection points: 2
#     Edge 19, Type (0, 1), BuildingBlock: XUDNAN_clean_linker_2, # of connection points: 2
#     Edge 20, Type (0, 1), BuildingBlock: XUDNAN_clean_linker_2, # of connection points: 2
#     Edge 21, Type (0, 1), BuildingBlock: XUDNAN_clean_linker_2, # of connection points: 2
#     Edge 22, Type (0, 1), BuildingBlock: XUDNAN_clean_linker_2, # of connection points: 2
#     Edge 23, Type (0, 1), BuildingBlock: XUDNAN_clean_linker_2, # of connection points: 2
#     Edge 24, Type (0, 1), BuildingBlock: XUDNAN_clean_linker_2, # of connection points: 2
#     Edge 25, Type (0, 1), BuildingBlock: XUDNAN_clean_linker_2, # of connection points: 2
#     Edge 26, Type (0, 1), BuildingBlock: XUDNAN_clean_linker_2, # of connection points: 2
# Relax obj value: 0.239
# Max RMSD: 0.189
# Mean RMSD: 0.156
data_MOF--net-anh--node1-PAMTUU_clean_sbu_0--node2-MIDCAF_clean_linker_0--edge1-XUDNAN_clean_linker_2
_symmetry_space_group_name_H-M    P1
_symmetry_Int_Tables_number       1
_symmetry_cell_setting            triclinic
loop_
_symmetry_equiv_pos_as_xyz
'x, y, z'
_cell_length_a     35.504889
_cell_length_b     35.541888
_cell_length_c     66.187063
_cell_angle_alpha  93.125906
_cell_angle_beta   90.264567
_cell_angle_gamma 120.04275
loop_
_atom_site_label
_atom_site_type_symbol
_atom_site_fract_x
_atom_site_fract_y
_atom_site_fract_z
_atom_type_partial_charge
Tb0 Tb 0.12956 0.66259 0.1654 0.0
Tb1 Tb 0.1903 0.61937 0.15985 0.0
C2 C 0.14649 0.6343 0.12216 0.0
C3 C 1.02558 0.64986 0.16414 0.0
C4 C 0.95243 0.5667 0.15505 0.0
C5 C 0.97671 0.59243 0.13943 0.0
C6 C 1.01276 0.63367 0.1439 0.0
C7 C 0.99831 0.62609 0.1796 0.0
C8 C 0.96217 0.58474 0.1751 0.0
C9 C 1.07175 0.68241 0.16928 0.0
O10 O 1.08996 0.59386 0.17172 0.0
O11 O 0.12364 0.56682 0.15143 0.0
O12 O 0.17077 0.61501 0.19129 0.0
O13 O 0.16598 0.67632 0.19361 0.0
O14 O 0.24423 0.61875 0.14743 0.0
O15 O 0.20229 0.56946 0.16718 0.0
O16 O 0.23554 0.68863 0.16883 0.0
O17 O 0.19339 0.71732 0.15906 0.0
O18 O 0.11802 0.63577 0.13424 0.0
O19 O 0.18102 0.63434 0.12935 0.0
C20 C 1.08919 0.56101 0.16131 0.0
O21 O 1.08831 0.67316 0.18455 0.0
O22 O 1.09814 0.69458 0.15421 0.0
C23 C 0.1679 0.64522 0.20232 0.0
C24 C 0.27711 0.58994 0.16828 0.0
C25 C 0.3503 0.5887 0.18429 0.0
C26 C 0.30831 0.55976 0.19067 0.0
C27 C 0.27207 0.56023 0.18267 0.0
C28 C 0.3193 0.62051 0.16279 0.0
C29 C 0.35549 0.61996 0.17074 0.0
C30 C 0.23853 0.58599 0.15757 0.0
C31 C 0.23168 0.72228 0.16419 0.0
H32 H 0.969 0.57989 0.12376 0.0
H33 H 1.0326 0.65109 0.13154 0.0
H34 H 1.00726 0.6376 0.19534 0.0
H35 H 0.94371 0.5658 0.18745 0.0
H36 H 0.3033 0.53551 0.2012 0.0
H37 H 0.23998 0.53616 0.18716 0.0
H38 H 0.32435 0.64364 0.15164 0.0
H39 H 0.38724 0.64226 0.16523 0.0
Tb40 Tb 0.60669 1.05675 0.48451 0.0
Tb41 Tb 0.70913 0.11401 0.49866 0.0
C42 C 0.67747 0.09935 0.45278 0.0
C43 C 0.49497 0.96537 0.48434 0.0
C44 C 0.43372 0.88379 0.49787 0.0
C45 C 0.44619 0.88773 0.47761 0.0
C46 C 0.4764 0.9282 0.4709 0.0
C47 C 0.48353 0.96116 0.50478 0.0
C48 C 0.45305 0.92074 0.51145 0.0
C49 C 0.52658 1.00801 0.47699 0.0
O50 O 0.6323 1.01258 0.47956 0.0
O51 O 0.69304 1.04589 0.50079 0.0
O52 O 0.67096 0.11013 0.52476 0.0
O53 O 0.61337 1.04349 0.51544 0.0
O54 O 0.7738 0.1574 0.49183 0.0
O55 O 0.75803 0.13127 0.52121 0.0
O56 O 0.69125 0.16455 0.4954 0.0
O57 O 0.61658 0.12192 0.49179 0.0
O58 O 0.63861 0.09074 0.45813 0.0
O59 O 0.70601 0.10036 0.46589 0.0
C60 C 0.66317 1.01124 0.49002 0.0
O61 O 0.54278 1.04101 0.4904 0.0
O62 O 0.55632 1.00858 0.46529 0.0
C63 C 0.63701 0.07375 0.5295 0.0
C64 C 0.80964 0.20573 0.51954 0.0
C65 C 0.84149 0.29573 0.5246 0.0
C66 C 0.86812 0.27986 0.51683 0.0
C67 C 0.85214 0.23506 0.51419 0.0
C68 C 0.78517 0.22153 0.52966 0.0
C69 C 0.80113 0.26623 0.53231 0.0
C70 C 0.78762 0.16094 0.51048 0.0
C71 C 0.65219 0.16041 0.49422 0.0
H72 H 0.43106 0.8599 0.46672 0.0
H73 H 0.48475 0.93057 0.45511 0.0
H74 H 0.49752 0.98911 0.51561 0.0
H75 H 0.44379 0.91852 0.5271 0.0
H76 H 0.89979 0.30192 0.51114 0.0
H77 H 0.87145 0.22343 0.50635 0.0
H78 H 0.75212 0.19942 0.53384 0.0
H79 H 0.77988 0.27717 0.53849 0.0
Tb80 Tb 0.62375 0.55284 0.82296 0.0
Tb81 Tb 0.66321 0.65595 0.83546 0.0
C82 C 0.65545 0.62091 0.79034 0.0
C83 C 0.62397 0.45253 0.82039 0.0
C84 C 0.68732 0.42788 0.82494 0.0
C85 C 0.65633 0.40983 0.80867 0.0
C86 C 0.62506 0.42225 0.80637 0.0
C87 C 0.65292 0.46838 0.83737 0.0
C88 C 0.68407 0.45587 0.83971 0.0
C89 C 0.59937 0.474 0.81535 0.0
O90 O 0.69414 0.579 0.82287 0.0
O91 O 0.7188 0.64603 0.83976 0.0
O92 O 0.62797 0.61884 0.86067 0.0
O93 O 0.64362 0.56493 0.8548 0.0
O94 O 0.67421 0.7178 0.82918 0.0
O95 O 0.69732 0.70731 0.85744 0.0
O96 O 0.59462 0.63279 0.82776 0.0
O97 O 0.56584 0.55854 0.82813 0.0
O98 O 0.62358 0.58318 0.79534 0.0
O99 O 0.68044 0.65117 0.80429 0.0
C100 C 0.72555 0.61499 0.83205 0.0
O101 O 0.58562 0.48798 0.83066 0.0
O102 O 0.61798 0.50338 0.80218 0.0
C103 C 0.63257 0.58731 0.86721 0.0
C104 C 0.66882 0.75414 0.85854 0.0
C105 C 0.6225 0.79248 0.87526 0.0
C106 C 0.66538 0.81861 0.86906 0.0
C107 C 0.68837 0.79951 0.86071 0.0
C108 C 0.62703 0.72798 0.86582 0.0
C109 C 0.60406 0.74707 0.87417 0.0
C110 C 0.69044 0.73401 0.84741 0.0
C111 C 0.56097 0.59299 0.82792 0.0
H112 H 0.65697 0.38696 0.79737 0.0
H113 H 0.60326 0.40998 0.7931 0.0
H114 H 0.6531 0.4923 0.84829 0.0
H115 H 0.70683 0.46984 0.85256 0.0
H116 H 0.6801 0.85371 0.86944 0.0
H117 H 0.72058 0.82007 0.85514 0.0
H118 H 0.61156 0.69278 0.86433 0.0
H119 H 0.57134 0.72644 0.87907 0.0
C120 C 0.51577 1.03967 0.19786 0.0
C121 C 0.5122 1.00249 0.1872 0.0
C122 C 0.55109 1.00277 0.18255 0.0
C123 C 0.5921 1.03891 0.18861 0.0
H124 H 0.71357 0.2006 0.17156 0.0
H125 H 0.77433 0.26513 0.15774 0.0
H126 H 0.84668 0.29477 0.21457 0.0
H127 H 0.78685 0.23181 0.22828 0.0
H128 H 0.75179 0.1538 0.26198 0.0
H129 H 0.76078 0.15013 0.29806 0.0
H130 H 0.62569 0.11303 0.30565 0.0
H131 H 0.61635 0.11323 0.26918 0.0
H132 H 0.55779 0.10237 0.21309 0.0
H133 H 0.48682 1.04068 0.20205 0.0
H134 H 0.54982 0.97495 0.17432 0.0
H135 H 0.62128 1.03749 0.18544 0.0
N136 N 0.67011 0.14205 0.2001 0.0
N137 N 0.71115 0.1685 0.23084 0.0
N138 N 0.64135 0.10723 0.23026 0.0
C139 C 0.70757 0.17229 0.21066 0.0
C140 C 0.67846 0.13645 0.24073 0.0
C141 C 0.63696 0.10918 0.20998 0.0
C142 C 0.74465 0.21044 0.20114 0.0
C143 C 0.74247 0.22084 0.18108 0.0
C144 C 0.77751 0.25799 0.17314 0.0
C145 C 0.81574 0.28593 0.18503 0.0
C146 C 0.81778 0.2751 0.20497 0.0
C147 C 0.78313 0.23828 0.21282 0.0
C148 C 0.6834 0.13383 0.26277 0.0
C149 C 0.72402 0.14462 0.27141 0.0
C150 C 0.72918 0.14292 0.29225 0.0
C151 C 0.69418 0.13179 0.30522 0.0
C152 C 0.65342 0.12097 0.2964 0.0
C153 C 0.648 0.12138 0.27543 0.0
C154 C 0.59525 0.07553 0.19956 0.0
C155 C 0.55655 0.07533 0.2041 0.0
C156 C 0.64314 0.4657 0.50887 0.0
C157 C 0.66089 0.44446 0.51962 0.0
C158 C 0.68417 0.46525 0.53792 0.0
C159 C 0.68799 0.50467 0.54564 0.0
H160 H 0.66649 0.64492 0.50354 0.0
H161 H 0.66603 0.70662 0.48862 0.0
H162 H 0.6683 0.76236 0.54852 0.0
H163 H 0.66963 0.70263 0.56316 0.0
H164 H 0.68041 0.67231 0.6001 0.0
H165 H 0.68408 0.68159 0.63671 0.0
H166 H 0.67239 0.55536 0.64063 0.0
H167 H 0.66822 0.54555 0.60357 0.0
H168 H 0.63258 0.5204 0.50808 0.0
H169 H 0.6253 0.45109 0.49462 0.0
H170 H 0.69805 0.45014 0.54679 0.0
H171 H 0.70517 0.51863 0.5601 0.0
N172 N 0.66794 0.59609 0.53465 0.0
N173 N 0.67082 0.63397 0.5654 0.0
N174 N 0.67174 0.5689 0.56598 0.0
C175 C 0.66882 0.63136 0.54485 0.0
C176 C 0.67214 0.60331 0.57613 0.0
C177 C 0.66967 0.56467 0.54532 0.0
C178 C 0.66815 0.6681 0.53465 0.0
C179 C 0.66702 0.67041 0.51349 0.0
C180 C 0.66662 0.70593 0.50494 0.0
C181 C 0.66751 0.74025 0.51729 0.0
C182 C 0.66863 0.73762 0.53835 0.0
C183 C 0.66896 0.70252 0.54681 0.0
C184 C 0.67421 0.60818 0.5987 0.0
C185 C 0.67857 0.64631 0.60861 0.0
C186 C 0.68093 0.65183 0.62971 0.0
C187 C 0.67891 0.61942 0.64165 0.0
C188 C 0.67385 0.58089 0.63187 0.0
C189 C 0.67173 0.5754 0.61062 0.0
C190 C 0.66924 0.52535 0.53528 0.0
C191 C 0.64758 0.50575 0.5165 0.0
C192 C 0.99206 0.57495 0.86499 0.0
C193 C 0.99793 0.60393 0.85008 0.0
C194 C 1.03944 0.62677 0.84168 0.0
C195 C 1.07446 0.62224 0.8487 0.0
H196 H 0.18167 0.56828 0.83964 0.0
H197 H 0.24304 0.5622 0.8264 0.0
H198 H 0.32164 0.63619 0.87949 0.0
H199 H 0.2605 0.64179 0.89278 0.0
H200 H 0.20803 0.63234 0.93567 0.0
H201 H 0.20397 0.63884 0.97252 0.0
H202 H 1.06392 0.57709 0.96624 0.0
H203 H 1.06809 0.57207 0.92975 0.0
H204 H 1.02166 0.55006 0.88446 0.0
H205 H 0.96091 0.55706 0.87196 0.0
H206 H 1.04517 0.64915 0.83005 0.0
H207 H 1.10631 0.64176 0.84258 0.0
N208 N 0.14265 0.60064 0.86592 0.0
N209 N 0.17569 0.60497 0.89766 0.0
N210 N 1.1064 0.59738 0.89598 0.0
C211 C 0.17716 0.60415 0.87706 0.0
C212 C 0.14036 0.60136 0.90722 0.0
C213 C 1.10704 0.59735 0.87549 0.0
C214 C 0.21584 0.60535 0.86735 0.0
C215 C 0.21224 0.58388 0.84832 0.0
C216 C 0.24741 0.58015 0.8408 0.0
C217 C 0.28744 0.59855 0.8519 0.0
C218 C 0.2916 0.62185 0.87043 0.0
C219 C 0.25629 0.62484 0.8781 0.0
C220 C 0.13846 0.60227 0.92969 0.0
C221 C 0.17639 0.61997 0.94221 0.0
C222 C 0.17404 0.62354 0.96336 0.0
C223 C 0.13366 0.60917 0.97244 0.0
C224 C 1.09573 0.58974 0.95986 0.0
C225 C 1.09811 0.58663 0.93884 0.0
C226 C 1.06903 0.59535 0.86454 0.0
C227 C 1.02709 0.57104 0.87221 0.0
C228 C 0.15378 0.693 0.44834 0.0
C229 C 0.15004 0.69576 0.46941 0.0
C230 C 0.1124 0.69359 0.47723 0.0
C231 C 1.07849 0.68748 0.46416 0.0
H232 H 0.94387 0.65186 0.46102 0.0
H233 H 0.89495 0.59425 0.48169 0.0
H234 H 0.84618 0.50483 0.42857 0.0
H235 H 0.89713 0.56242 0.40797 0.0
H236 H 0.96242 0.58919 0.36761 0.0
H237 H 0.98261 0.57859 0.33323 0.0
H238 H 1.10186 0.70248 0.34129 0.0
H239 H 1.08181 0.71299 0.37533 0.0
H240 H 0.12406 0.68481 0.41915 0.0
H241 H 0.18301 0.6958 0.44191 0.0
H242 H 0.1091 0.69623 0.49343 0.0
H243 H 1.0494 0.68496 0.47062 0.0
N244 N 1.00412 0.65539 0.43653 0.0
N245 N 0.97301 0.63593 0.40353 0.0
N246 N 1.049 0.67261 0.40891 0.0
C247 C 0.96824 0.63728 0.42395 0.0
C248 C 1.01369 0.65491 0.39598 0.0
C249 C 1.04449 0.67272 0.4292 0.0
C250 C 0.9257 0.611 0.4331 0.0
C251 C 0.92137 0.62036 0.45358 0.0
C252 C 0.89298 0.58721 0.46547 0.0
C253 C 0.8682 0.54438 0.45694 0.0
C254 C 0.86625 0.53725 0.4357 0.0
C255 C 0.89512 0.57039 0.42381 0.0
C256 C 1.02064 0.65183 0.37412 0.0
C257 C 0.99233 0.61458 0.36178 0.0
C258 C 1.0041 0.60832 0.34223 0.0
C259 C 1.04396 0.63956 0.33466 0.0
C260 C 1.07082 0.67796 0.34662 0.0
C261 C 1.05939 0.68391 0.36615 0.0
C262 C 1.082 0.68414 0.44304 0.0
C263 C 0.12026 0.68748 0.4353 0.0
C264 C 0.78568 0.22988 0.77815 0.0
C265 C 0.78263 0.24145 0.79852 0.0
C266 C 0.75237 0.20894 0.81049 0.0
C267 C 0.72292 0.16768 0.80186 0.0
H268 H 0.58618 1.07021 0.80792 0.0
H269 H 0.54794 1.02138 0.83448 0.0
H270 H 0.5465 0.91536 0.79836 0.0
H271 H 0.5819 0.96374 0.77146 0.0
H272 H 0.59617 0.99819 0.71886 0.0
H273 H 0.5857 0.98934 0.68211 0.0
H274 H 0.67039 0.12814 0.67858 0.0
H275 H 0.68243 0.13647 0.71503 0.0
H276 H 0.75708 0.18169 0.75338 0.0
H277 H 0.8093 0.25366 0.76857 0.0
H278 H 0.74843 0.21614 0.82617 0.0
H279 H 0.69848 0.1446 0.8114 0.0
N280 N 0.65454 0.0883 0.78299 0.0
N281 N 0.61555 1.04444 0.75407 0.0
N282 N 0.68109 0.11021 0.75092 0.0
C283 C 0.61954 1.05196 0.77453 0.0
C284 C 0.6461 0.0739 0.74216 0.0
C285 C 0.68579 0.11734 0.77137 0.0
C286 C 0.58751 1.02068 0.78789 0.0
C287 C 0.57618 1.03603 0.80548 0.0
C288 C 0.55448 1.00807 0.82072 0.0
C289 C 0.54508 0.96458 0.81894 0.0
C290 C 0.55275 0.94845 0.80039 0.0
C291 C 0.57342 0.97623 0.78492 0.0
C292 C 0.64027 1.06797 0.71985 0.0
C293 C 0.61271 1.02671 0.71018 0.0
C294 C 0.60649 1.02173 0.68911 0.0
C295 C 0.62714 1.05802 0.67728 0.0
C296 C 0.65464 0.09926 0.68706 0.0
C297 C 0.6614 0.1041 0.70804 0.0
C298 C 0.72257 0.15785 0.781 0.0
C299 C 0.75566 0.1886 0.76941 0.0
C300 C 0.68887 0.35627 0.08584 0.0
C301 C 0.6852 0.3431 0.10577 0.0
C302 C 0.64702 0.33322 0.116 0.0
C303 C 0.61726 0.34378 0.10802 0.0
H304 H 0.55047 0.40528 0.13447 0.0
H305 H 0.53001 0.4395 0.16215 0.0
H306 H 0.56717 0.55102 0.12707 0.0
H307 H 0.5871 0.5171 0.09953 0.0
H308 H 0.6031 0.51217 0.0546 0.0
H309 H 0.60528 0.54038 0.02193 0.0
H310 H 0.59293 0.42312 0.99226 0.0
H311 H 0.59248 0.39534 0.02538 0.0
H312 H 0.6652 0.38085 0.06329 0.0
H313 H 0.71766 0.36407 0.07741 0.0
H314 H 0.64263 0.3219 0.13115 0.0
H315 H 0.59064 0.34022 0.11722 0.0
N316 N 0.59156 0.40668 0.10053 0.0
N317 N 0.58205 0.45095 0.07865 0.0
N318 N 0.6059 0.40382 0.066 0.0
C319 C 0.58043 0.43733 0.09751 0.0
C320 C 0.59425 0.43417 0.06279 0.0
C321 C 0.60442 0.38978 0.0849 0.0
C322 C 0.56983 0.45824 0.11473 0.0
C323 C 0.55461 0.43727 0.13279 0.0
C324 C 0.54305 0.45682 0.14862 0.0
C325 C 0.54744 0.49803 0.14679 0.0
C326 C 0.56415 0.51957 0.12903 0.0
C327 C 0.57497 0.49981 0.11314 0.0
C328 C 0.59708 0.45123 0.0426 0.0
C329 C 0.60081 0.49224 0.04115 0.0
C330 C 0.60182 0.50838 0.02234 0.0
C331 C 0.59843 0.48373 0.00439 0.0
C332 C 0.59578 0.44307 0.00578 0.0
C333 C 0.59534 0.42706 0.02474 0.0
C334 C 0.62482 0.36359 0.08951 0.0
C335 C 0.65877 0.36626 0.07774 0.0
H336 H 0.3492 0.5117 0.18448 0.0
H337 H 0.43563 0.65121 0.19349 0.0
H338 H 0.49897 0.64021 0.19282 0.0
H339 H 0.42284 0.47814 0.21237 0.0
H340 H 0.40634 0.43285 0.194 0.0
H341 H 0.36841 0.45048 0.20125 0.0
H342 H 0.35613 0.459 0.16355 0.0
H343 H 0.39407 0.44197 0.15622 0.0
H344 H 0.40228 0.49367 0.14899 0.0
H345 H 0.55111 0.61631 0.18245 0.0
H346 H 0.58713 0.58148 0.16394 0.0
H347 H 0.46727 0.45727 0.16247 0.0
C348 C 0.38132 0.53977 0.18746 0.0
C349 C 0.38747 0.58227 0.18915 0.0
C350 C 0.43018 0.61833 0.19214 0.0
C351 C 0.46633 0.61234 0.19195 0.0
C352 C 0.4592 0.57005 0.18908 0.0
C353 C 0.41761 0.53425 0.18726 0.0
C354 C 0.41843 0.49306 0.18102 0.0
C355 C 0.40311 0.46179 0.19819 0.0
C356 C 0.39117 0.47069 0.16128 0.0
C357 C 0.46657 0.51176 0.17792 0.0
C358 C 0.48977 0.55603 0.18322 0.0
C359 C 0.53361 0.58147 0.17889 0.0
C360 C 0.55376 0.56152 0.16829 0.0
C361 C 0.52999 0.51665 0.16207 0.0
C362 C 0.48647 0.4913 0.16768 0.0
H363 H 0.87156 0.336 0.48983 0.0
H364 H 0.82873 0.35388 0.54903 0.0
H365 H 0.82985 0.42016 0.53828 0.0
H366 H 0.9428 0.45272 0.48112 0.0
H367 H 0.92747 0.44267 0.45453 0.0
H368 H 0.9287 0.401 0.46834 0.0
H369 H 0.84842 0.34766 0.45648 0.0
H370 H 0.84651 0.38963 0.44329 0.0
H371 H 0.80739 0.36195 0.46219 0.0
H372 H 0.82801 0.48012 0.51909 0.0
H373 H 0.83307 0.53338 0.49501 0.0
H374 H 0.87698 0.47331 0.44919 0.0
C375 C 0.8642 0.35472 0.50092 0.0
C376 C 0.85073 0.34009 0.5204 0.0
C377 C 0.83951 0.36472 0.53407 0.0
C378 C 0.84005 0.40235 0.5281 0.0
C379 C 0.85185 0.41474 0.50843 0.0
C380 C 0.86432 0.39187 0.4952 0.0
C381 C 0.87282 0.40963 0.4745 0.0
C382 C 0.9208 0.42759 0.46933 0.0
C383 C 0.84194 0.37515 0.45817 0.0
C384 C 0.86234 0.44562 0.47792 0.0
C385 C 0.85028 0.4483 0.49751 0.0
C386 C 0.83825 0.47879 0.50383 0.0
C387 C 0.84086 0.50864 0.49 0.0
C388 C 0.85521 0.50756 0.47011 0.0
C389 C 0.86494 0.47476 0.46404 0.0
H390 H 0.54587 0.7697 0.85649 0.0
H391 H 0.64044 0.86235 0.90129 0.0
H392 H 0.60734 0.90863 0.8992 0.0
H393 H 0.5564 0.83565 0.82472 0.0
H394 H 0.50093 0.81328 0.81546 0.0
H395 H 0.51702 0.77894 0.82689 0.0
H396 H 0.45636 0.75813 0.85339 0.0
H397 H 0.43987 0.79186 0.84101 0.0
H398 H 0.45298 0.80065 0.86782 0.0
H399 H 0.58455 0.95459 0.88418 0.0
H400 H 0.57779 0.99591 0.85763 0.0
H401 H 0.49519 0.87581 0.82155 0.0
C402 C 0.55753 0.79833 0.86679 0.0
C403 C 0.59517 0.81239 0.87922 0.0
C404 C 0.61124 0.85095 0.89186 0.0
C405 C 0.59238 0.87724 0.89083 0.0
C406 C 0.55746 0.86447 0.87709 0.0
C407 C 0.53952 0.82532 0.86551 0.0
C408 C 0.50963 0.82374 0.84863 0.0
C409 C 0.52181 0.81231 0.82773 0.0
C410 C 0.46187 0.7917 0.85296 0.0
C411 C 0.51874 0.87024 0.85062 0.0
C412 C 0.54424 0.89233 0.86785 0.0
C413 C 0.56333 0.93734 0.87106 0.0
C414 C 0.55912 0.96072 0.85575 0.0
C415 C 0.53616 0.93917 0.83726 0.0
C416 C 0.51315 0.89316 0.83544 0.0
H417 H 0.87096 0.52359 0.17005 0.0
H418 H 0.95717 0.5063 0.12941 0.0
H419 H 0.89806 0.43204 0.11904 0.0
H420 H 0.80485 0.40167 0.18223 0.0
H421 H 0.7559 0.40504 0.18357 0.0
H422 H 0.8077 0.45156 0.19173 0.0
H423 H 0.79549 0.49906 0.16701 0.0
H424 H 0.74378 0.45324 0.1592 0.0
H425 H 0.78367 0.48102 0.14055 0.0
H426 H 0.82687 0.36929 0.10712 0.0
H427 H 0.75103 0.32785 0.09357 0.0
H428 H 0.71141 0.38308 0.1433 0.0
C429 C 0.87768 0.50354 0.15948 0.0
C430 C 0.91834 0.52068 0.15041 0.0
C431 C 0.92591 0.49393 0.13633 0.0
C432 C 0.89276 0.45143 0.13061 0.0
C433 C 0.85246 0.43577 0.13942 0.0
C434 C 0.84505 0.4609 0.1538 0.0
C435 C 0.79755 0.43929 0.15884 0.0
C436 C 0.79112 0.42344 0.18037 0.0
C437 C 0.77908 0.46995 0.1562 0.0
C438 C 0.7786 0.40112 0.14318 0.0
C439 C 0.81092 0.39833 0.13278 0.0
C440 C 0.80126 0.37028 0.1155 0.0
C441 C 0.75805 0.34691 0.10785 0.0
C442 C 0.72522 0.35223 0.11735 0.0
C443 C 0.73537 0.37727 0.13598 0.0
H444 H 0.36312 0.87514 0.51692 0.0
H445 H 0.41867 0.80071 0.49046 0.0
H446 H 0.34732 0.73357 0.49106 0.0
H447 H 0.26874 0.77872 0.5453 0.0
H448 H 0.23313 0.79918 0.53903 0.0
H449 H 0.29011 0.83658 0.54493 0.0
H450 H 0.29654 0.87126 0.5108 0.0
H451 H 0.2403 0.83409 0.50473 0.0
H452 H 0.28092 0.83714 0.48758 0.0
H453 H 0.27062 0.68275 0.48358 0.0
H454 H 0.19696 0.65395 0.46851 0.0
H455 H 0.1885 0.75997 0.49917 0.0
C456 C 0.36066 0.8442 0.51248 0.0
C457 C 0.39612 0.84278 0.5038 0.0
C458 C 0.39173 0.80223 0.49727 0.0
C459 C 0.35137 0.76392 0.49772 0.0
C460 C 0.31587 0.76676 0.50485 0.0
C461 C 0.32032 0.80592 0.51251 0.0
C462 C 0.2764 0.8027 0.51488 0.0
C463 C 0.26651 0.80438 0.53737 0.0
C464 C 0.27342 0.83834 0.50381 0.0
C465 C 0.24708 0.75773 0.50489 0.0
C466 C 0.27013 0.73664 0.50018 0.0
C467 C 0.25189 0.69817 0.48781 0.0
C468 C 0.21017 0.68218 0.47918 0.0
C469 C 0.18737 0.70488 0.48282 0.0
C470 C 0.20502 0.74157 0.49669 0.0
H471 H 0.73317 0.42126 0.79354 0.0
H472 H 0.72296 0.41301 0.85852 0.0
H473 H 0.77504 0.38639 0.85885 0.0
H474 H 0.71918 0.32591 0.78318 0.0
H475 H 0.75614 0.33818 0.7627 0.0
H476 H 0.734 0.37258 0.76867 0.0
H477 H 0.81226 0.43905 0.77313 0.0
H478 H 0.83462 0.40406 0.76749 0.0
H479 H 0.85073 0.4382 0.79068 0.0
H480 H 0.80981 0.3425 0.85143 0.0
H481 H 0.81233 0.2784 0.83737 0.0
H482 H 0.79506 0.3095 0.77686 0.0
C483 C 0.74269 0.41472 0.8079 0.0
C484 C 0.72357 0.41855 0.82593 0.0
C485 C 0.73736 0.41055 0.84449 0.0
C486 C 0.76729 0.39575 0.84482 0.0
C487 C 0.78348 0.38955 0.82651 0.0
C488 C 0.77179 0.39919 0.80836 0.0
C489 C 0.78515 0.38089 0.79044 0.0
C490 C 0.74631 0.35269 0.77542 0.0
C491 C 0.82295 0.41775 0.77981 0.0
C492 C 0.80041 0.35416 0.80122 0.0
C493 C 0.80222 0.36206 0.82203 0.0
C494 C 0.80918 0.33661 0.83519 0.0
C495 C 0.81021 0.29992 0.82704 0.0
C496 C 0.80241 0.28802 0.80601 0.0
C497 C 0.80147 0.3177 0.79295 0.0
H498 H 0.70553 0.98472 0.51658 0.0
H499 H 0.61865 0.94008 0.46335 0.0
H500 H 0.61323 0.86822 0.46357 0.0
H501 H 0.76223 0.92464 0.50338 0.0
H502 H 0.7654 0.91181 0.52909 0.0
H503 H 0.76465 0.96082 0.52418 0.0
H504 H 0.698 0.93713 0.54667 0.0
H505 H 0.6985 0.88804 0.55161 0.0
H506 H 0.64986 0.88478 0.54122 0.0
H507 H 0.61505 0.79933 0.47007 0.0
H508 H 0.62228 0.7393 0.48298 0.0
H509 H 0.7079 0.82731 0.53206 0.0
C510 C 0.68586 0.96006 0.50479 0.0
C511 C 0.66278 0.96866 0.48984 0.0
C512 C 0.63681 0.93483 0.47496 0.0
C513 C 0.63352 0.89368 0.47493 0.0
C514 C 0.65623 0.88614 0.48993 0.0
C515 C 0.68189 0.91837 0.50462 0.0
C516 C 0.70144 0.90099 0.51951 0.0
C517 C 0.7514 0.92606 0.519 0.0
C518 C 0.68602 0.90285 0.54102 0.0
C519 C 0.68257 0.85406 0.51096 0.0
C520 C 0.65681 0.84628 0.49381 0.0
C521 C 0.6354 0.80524 0.48344 0.0
C522 C 0.64 0.77122 0.49084 0.0
C523 C 0.6657 0.77791 0.50861 0.0
C524 C 0.68755 0.82041 0.51858 0.0
H525 H 0.7504 0.5522 0.8327 0.0
H526 H 0.80276 0.69199 0.83548 0.0
H527 H 0.8773 0.70369 0.8383 0.0
H528 H 0.82747 0.55537 0.86989 0.0
H529 H 0.83097 0.51096 0.85731 0.0
H530 H 0.78209 0.51384 0.85461 0.0
H531 H 0.78762 0.51091 0.81534 0.0
H532 H 0.83606 0.50716 0.81856 0.0
H533 H 0.83745 0.54959 0.80428 0.0
H534 H 0.94673 0.70071 0.8408 0.0
H535 H 1.00524 0.68353 0.84591 0.0
H536 H 0.90915 0.54572 0.84326 0.0
C537 C 0.77759 0.58526 0.83375 0.0
C538 C 0.77049 0.62123 0.8337 0.0
C539 C 0.80709 0.66391 0.83547 0.0
C540 C 0.8497 0.67089 0.837 0.0
C541 C 0.85559 0.63491 0.83702 0.0
C542 C 0.82055 0.59288 0.8357 0.0
C543 C 0.83606 0.56009 0.83716 0.0
C544 C 0.81809 0.53351 0.85586 0.0
C545 C 0.82358 0.53016 0.81768 0.0
C546 C 0.88515 0.59024 0.8395 0.0
C547 C 0.89567 0.63324 0.83913 0.0
C548 C 0.9388 0.66712 0.84109 0.0
C549 C 0.97197 0.65699 0.84385 0.0
C550 C 0.9622 0.61327 0.84491 0.0
C551 C 0.91795 0.57951 0.84255 0.0
H552 H 0.31789 0.74998 0.17632 0.0
H553 H 0.23465 0.798 0.15525 0.0
H554 H 0.29699 0.87275 0.15784 0.0
H555 H 0.38201 0.84008 0.21259 0.0
H556 H 0.43263 0.84151 0.20779 0.0
H557 H 0.38181 0.79104 0.20384 0.0
H558 H 0.40141 0.78273 0.1669 0.0
H559 H 0.4523 0.83324 0.17073 0.0
H560 H 0.41499 0.82604 0.15033 0.0
H561 H 0.36757 0.94313 0.16336 0.0
H562 H 0.44165 1.00429 0.17155 0.0
H563 H 0.48174 0.91335 0.18917 0.0
C564 C 0.31278 0.77616 0.17216 0.0
C565 C 0.27081 0.76751 0.16554 0.0
C566 C 0.266 0.80315 0.16035 0.0
C567 C 0.30142 0.84601 0.16175 0.0
C568 C 0.34204 0.8534 0.16836 0.0
C569 C 0.34808 0.81956 0.17347 0.0
C570 C 0.39535 0.83702 0.18042 0.0
C571 C 0.3981 0.8268 0.20247 0.0
C572 C 0.41731 0.81866 0.16625 0.0
C573 C 0.41468 0.88586 0.17854 0.0
C574 C 0.38317 0.89436 0.17151 0.0
C575 C 0.39248 0.9368 0.16886 0.0
C576 C 0.43479 0.97149 0.17367 0.0
C577 C 0.46794 0.96413 0.18112 0.0
C578 C 0.45753 0.92036 0.18334 0.0
H579 H 0.71347 0.24731 0.50634 0.0
H580 H 0.57861 0.16408 0.48571 0.0
H581 H 0.5673 0.227 0.48861 0.0
H582 H 0.6946 0.3144 0.54317 0.0
H583 H 0.74331 0.36424 0.538 0.0
H584 H 0.74136 0.31285 0.53385 0.0
H585 H 0.76387 0.33136 0.49724 0.0
H586 H 0.76249 0.38153 0.50008 0.0
H587 H 0.72993 0.34097 0.48042 0.0
H588 H 0.56971 0.29956 0.4941 0.0
H589 H 0.58528 0.37447 0.50314 0.0
H590 H 0.71803 0.41199 0.52067 0.0
C591 C 0.68159 0.24228 0.50235 0.0
C592 C 0.64699 0.20012 0.49575 0.0
C593 C 0.60582 0.19554 0.49083 0.0
C594 C 0.59897 0.23131 0.4924 0.0
C595 C 0.63347 0.27213 0.49901 0.0
C596 C 0.67395 0.27784 0.50399 0.0
C597 C 0.7052 0.3253 0.51091 0.0
C598 C 0.72213 0.32944 0.53278 0.0
C599 C 0.74267 0.34597 0.4963 0.0
C600 C 0.67586 0.34501 0.50952 0.0
C601 C 0.63471 0.31384 0.50234 0.0
C602 C 0.60195 0.32417 0.4997 0.0
C603 C 0.61123 0.36711 0.50477 0.0
C604 C 0.65293 0.39972 0.51264 0.0
C605 C 0.68567 0.38812 0.51486 0.0
H606 H 0.5356 0.65428 0.83725 0.0
H607 H 0.48344 0.51674 0.8208 0.0
H608 H 0.40883 0.50437 0.8234 0.0
H609 H 0.45787 0.64162 0.8741 0.0
H610 H 0.45396 0.68819 0.86754 0.0
H611 H 0.50318 0.68679 0.86313 0.0
H612 H 0.49869 0.70043 0.82571 0.0
H613 H 0.44848 0.70064 0.82938 0.0
H614 H 0.4507 0.66368 0.81039 0.0
H615 H 0.33905 0.50623 0.82843 0.0
H616 H 0.28033 0.5216 0.83723 0.0
H617 H 0.37651 0.65738 0.85152 0.0
C618 C 0.50852 0.62161 0.83397 0.0
C619 C 0.51582 0.58652 0.82867 0.0
C620 C 0.47913 0.54426 0.82483 0.0
C621 C 0.43643 0.53687 0.82623 0.0
C622 C 0.43041 0.57196 0.8316 0.0
C623 C 0.46544 0.61351 0.83548 0.0
C624 C 0.44976 0.64523 0.84154 0.0
C625 C 0.46719 0.6667 0.86287 0.0
C626 C 0.4627 0.67956 0.82583 0.0
C627 C 0.40066 0.61486 0.84108 0.0
C628 C 0.3902 0.57286 0.83492 0.0
C629 C 0.34698 0.53905 0.83322 0.0
C630 C 0.31371 0.54817 0.83817 0.0
C631 C 0.32345 0.59069 0.84506 0.0
C632 C 0.36777 0.62446 0.8464 0.0
H633 H 1.02971 0.52558 0.19122 0.0
H634 H 1.05637 0.49736 0.13015 0.0
H635 H 0.9876 0.42623 0.12872 0.0
H636 H 0.98803 0.41537 0.20618 0.0
H637 H 0.94838 0.41672 0.22264 0.0
H638 H 0.99805 0.46633 0.21836 0.0
H639 H 0.95359 0.50149 0.2062 0.0
H640 H 0.90432 0.452 0.21122 0.0
H641 H 0.91198 0.47288 0.18656 0.0
H642 H 0.91393 0.35776 0.13393 0.0
H643 H 0.84798 0.29542 0.14652 0.0
H644 H 0.87124 0.36662 0.20492 0.0
C645 C 1.02098 0.50449 0.1775 0.0
C646 C 1.0485 0.51731 0.16071 0.0
C647 C 1.0361 0.48833 0.14321 0.0
C648 C 0.99689 0.44789 0.14224 0.0
C649 C 0.97053 0.43624 0.15904 0.0
C650 C 0.98249 0.46349 0.17648 0.0
C651 C 0.95019 0.44194 0.19297 0.0
C652 C 0.9725 0.43466 0.21111 0.0
C653 C 0.9288 0.46872 0.19964 0.0
C654 C 0.91746 0.39886 0.18194 0.0
C655 C 0.9296 0.39627 0.16235 0.0
C656 C 0.90439 0.3595 0.14931 0.0
C657 C 0.86658 0.32422 0.15657 0.0
C658 C 0.85399 0.32539 0.17683 0.0
C659 C 0.87987 0.36388 0.18947 0.0
H660 H 0.1895 0.61748 0.09126 0.0
H661 H 1.08579 0.64625 0.10262 0.0
H662 H 1.07271 0.64405 0.06593 0.0
H663 H 0.23085 0.68046 0.04743 0.0
H664 H 0.24165 0.64157 0.03399 0.0
H665 H 0.24366 0.64574 0.06127 0.0
H666 H 0.18713 0.56348 0.06157 0.0
H667 H 0.18507 0.55902 0.0343 0.0
H668 H 0.13574 0.54188 0.04785 0.0
H669 H 1.07141 0.64049 0.02831 0.0
H670 H 1.07937 0.6321 0.99174 0.0
H671 H 0.18162 0.6022 0.00388 0.0
C672 C 0.16409 0.62338 0.08603 0.0
C673 C 0.13877 0.63217 0.09993 0.0
C674 C 1.10564 0.6394 0.09238 0.0
C675 C 1.09798 0.63834 0.07152 0.0
C676 C 0.1235 0.62974 0.05828 0.0
C677 C 0.15569 0.62208 0.06515 0.0
C678 C 0.17772 0.61272 0.04752 0.0
C679 C 0.22636 0.64719 0.04756 0.0
C680 C 0.171 0.56653 0.04783 0.0
C681 C 0.15292 0.6165 0.02971 0.0
C682 C 0.12197 0.62654 0.03635 0.0
C683 C 1.09522 0.63217 0.02291 0.0
C684 C 1.09981 0.62697 0.0021 0.0
C685 C 0.13065 0.61576 0.99476 0.0
C686 C 0.15781 0.61088 0.00889 0.0
H687 H 0.62323 1.06623 0.41893 0.0
H688 H 0.75816 0.15227 0.43843 0.0
H689 H 0.7772 0.1701 0.40291 0.0
H690 H 0.64724 1.0239 0.3724 0.0
H691 H 0.6017 1.01994 0.3583 0.0
H692 H 0.59889 1.01448 0.38524 0.0
H693 H 0.5811 0.07674 0.38965 0.0
H694 H 0.58417 0.08262 0.36276 0.0
H695 H 0.61755 0.1289 0.38004 0.0
H696 H 0.7801 0.18255 0.36559 0.0
H697 H 0.76903 0.18316 0.32902 0.0
H698 H 0.63352 0.08218 0.3332 0.0
C699 C 0.6568 0.08877 0.41569 0.0
C700 C 0.68924 0.10815 0.43142 0.0
C701 C 0.73287 0.13701 0.42659 0.0
C702 C 0.74392 0.14745 0.40649 0.0
C703 C 0.7111 0.12806 0.39135 0.0
C704 C 0.66856 0.09874 0.39566 0.0
C705 C 0.63975 0.08143 0.37653 0.0
C706 C 0.62079 1.03201 0.3729 0.0
C707 C 0.60351 0.09314 0.3773 0.0
C708 C 0.67257 0.10618 0.3608 0.0
C709 C 0.71339 0.13319 0.36969 0.0
C710 C 0.74846 0.16079 0.3584 0.0
C711 C 0.7418 0.1605 0.33746 0.0
C712 C 0.70049 0.13212 0.32773 0.0
C713 C 0.66554 0.10464 0.33982 0.0
H714 H 0.61552 0.56364 0.75692 0.0
H715 H 0.71656 0.69628 0.77444 0.0
H716 H 0.73404 0.70936 0.73859 0.0
H717 H 0.6734 0.54432 0.71699 0.0
H718 H 0.62581 0.51285 0.70054 0.0
H719 H 0.62054 0.51368 0.7276 0.0
H720 H 0.56463 0.53971 0.72406 0.0
H721 H 0.56953 0.53872 0.69698 0.0
H722 H 0.57912 0.58796 0.71087 0.0
H723 H 0.74113 0.7083 0.701 0.0
H724 H 0.73628 0.69373 0.66396 0.0
H725 H 0.63067 0.56184 0.67032 0.0
C726 C 0.64119 0.59553 0.75323 0.0
C727 C 0.6646 0.62897 0.7686 0.0
C728 C 0.69809 0.67011 0.76304 0.0
C729 C 0.70833 0.67787 0.74268 0.0
C730 C 0.6849 0.64418 0.72798 0.0
C731 C 0.65195 0.60385 0.73294 0.0
C732 C 0.63186 0.57329 0.71413 0.0
C733 C 0.6383 0.5337 0.71486 0.0
C734 C 0.58342 0.5591 0.71135 0.0
C735 C 0.65865 0.60281 0.69782 0.0
C736 C 0.68905 0.64354 0.70619 0.0
C737 C 0.71734 0.67658 0.69427 0.0
C738 C 0.7142 0.66802 0.67321 0.0
C739 C 0.68295 0.62673 0.66416 0.0
C740 C 0.65514 0.5936 0.67675 0.0
H741 H 0.69063 0.11532 0.56291 0.0
H742 H 0.5596 1.01356 0.54438 0.0
H743 H 0.54236 0.99862 0.58021 0.0
H744 H 0.70486 1.0583 0.60241 0.0
H745 H 0.73594 0.10653 0.61898 0.0
H746 H 0.73724 0.11048 0.59196 0.0
H747 H 0.71265 0.1679 0.59564 0.0
H748 H 0.71133 0.16419 0.62269 0.0
H749 H 0.66352 0.15503 0.60865 0.0
H750 H 0.53939 0.99545 0.61813 0.0
H751 H 0.55143 1.00264 0.6552 0.0
H752 H 0.68611 0.10284 0.64846 0.0
C753 C 0.65818 0.09018 0.5664 0.0
C754 C 0.62633 1.0658 0.55091 0.0
C755 C 0.58446 1.03267 0.55605 0.0
C756 C 0.57435 1.02399 0.57634 0.0
C757 C 0.60662 1.04843 0.59124 0.0
C758 C 0.64774 0.08067 0.58652 0.0
C759 C 0.677 0.10117 0.60531 0.0
C760 C 0.71606 0.09365 0.60462 0.0
C761 C 0.69199 0.14996 0.60824 0.0
C762 C 0.64584 0.07557 0.62136 0.0
C763 C 0.60536 1.0455 0.61297 0.0
C764 C 0.57109 1.01864 0.62487 0.0
C765 C 0.57839 1.02274 0.64593 0.0
C766 C 0.6198 1.05318 0.65489 0.0
C767 C 0.65388 0.07965 0.64227 0.0
H768 H 0.65527 0.53712 0.88865 0.0
H769 H 0.58816 0.61102 0.89355 0.0
H770 H 0.57018 0.59021 0.92865 0.0
H771 H 0.58259 0.4488 0.91838 0.0
H772 H 0.62541 0.44394 0.93047 0.0
H773 H 0.63225 0.4636 0.90546 0.0
H774 H 0.70341 0.5336 0.91784 0.0
H775 H 0.69695 0.51409 0.94286 0.0
H776 H 0.7025 0.56655 0.93933 0.0
H777 H 0.55796 0.56039 0.96263 0.0
H778 H 0.55695 0.52809 0.99469 0.0
H779 H 0.6359 0.47702 0.96881 0.0
C780 C 0.6367 0.54881 0.89711 0.0
C781 C 0.62294 0.57554 0.88837 0.0
C782 C 0.5991 0.59058 0.89996 0.0
C783 C 0.58856 0.57879 0.91987 0.0
C784 C 0.60245 0.55229 0.92802 0.0
C785 C 0.62637 0.53782 0.91712 0.0
C786 C 0.63858 0.51098 0.92979 0.0
C787 C 0.6185 0.46404 0.92046 0.0
C788 C 0.68831 0.53261 0.93262 0.0
C789 C 0.61767 0.5126 0.94949 0.0
C790 C 0.59671 0.53629 0.94802 0.0
C791 C 0.57466 0.54216 0.96408 0.0
C792 C 0.57458 0.52391 0.98229 0.0
C793 C 0.59692 0.50052 0.98446 0.0
C794 C 0.61832 0.49447 0.96767 0.0
H795 H 0.1609 0.70202 0.22945 0.0
H796 H 0.14582 0.57288 0.2233 0.0
H797 H 0.11252 0.55719 0.25673 0.0
H798 H 0.18476 0.72057 0.28445 0.0
H799 H 0.15476 0.74892 0.28774 0.0
H800 H 0.18115 0.75093 0.26432 0.0
H801 H 1.10754 0.72219 0.24465 0.0
H802 H 1.08068 0.71919 0.268 0.0
H803 H 1.06117 0.67143 0.2509 0.0
H804 H 1.07435 0.55335 0.28942 0.0
H805 H 1.04198 0.5647 0.32054 0.0
H806 H 1.08194 0.69611 0.3048 0.0
C807 C 0.15159 0.67078 0.2353 0.0
C808 C 0.15611 0.63873 0.22376 0.0
C809 C 0.14309 0.59812 0.23193 0.0
C810 C 0.12385 0.58879 0.25086 0.0
C811 C 0.11827 0.62054 0.26145 0.0
C812 C 0.13246 0.66098 0.25411 0.0
C813 C 0.1214 0.68896 0.26806 0.0
C814 C 0.163 0.72975 0.27665 0.0
C815 C 1.09089 0.70114 0.25725 0.0
C816 C 1.09824 0.65777 0.28429 0.0
C817 C 1.0966 0.61841 0.28021 0.0
C818 C 1.07577 0.58416 0.29284 0.0
C819 C 1.05707 0.59073 0.31035 0.0
C820 C 1.05947 0.63126 0.31506 0.0
C821 C 1.07994 0.66491 0.30168 0.0
loop_
_geom_bond_atom_site_label_1
_geom_bond_atom_site_label_2
_geom_bond_distance
_geom_bond_site_symmetry_2
_ccdc_geom_bond_type
Tb0 C9 2.764 1_455 S
Tb0 O10 2.325 1_455 S
Tb0 O13 2.303 . S
Tb0 O17 2.322 . S
Tb0 O18 2.349 . S
Tb0 O21 2.415 1_455 S
Tb0 O22 2.399 1_455 S
Tb1 O11 2.322 . S
Tb1 O12 2.349 . S
Tb1 O14 2.415 . S
Tb1 O15 2.399 . S
Tb1 O16 2.325 . S
Tb1 O19 2.303 . S
Tb1 C30 2.764 . S
C2 O18 1.261 . S
C2 O19 1.257 . S
C3 C6 1.358 . S
C3 C7 1.332 . S
C3 C9 1.504 . S
C4 C5 1.373 . S
C4 C8 1.308 . S
C5 C4 1.373 . S
C5 C6 1.429 . S
C5 H32 0.932 . S
C6 C3 1.358 . S
C6 C5 1.429 . S
C6 H33 0.930 . S
C7 C3 1.332 . S
C7 C8 1.394 . S
C7 H34 0.932 . S
C8 C4 1.308 . S
C8 C7 1.394 . S
C8 H35 0.929 . S
C9 Tb0 2.764 1_655 S
C9 C3 1.504 . S
C9 O21 1.239 . S
C9 O22 1.263 . S
O10 Tb0 2.325 1_655 S
O10 C20 1.236 . S
O11 Tb1 2.322 . S
O11 C20 1.257 1_455 S
O12 Tb1 2.349 . S
O12 C23 1.261 . S
O13 Tb0 2.303 . S
O13 C23 1.257 . S
O14 Tb1 2.415 . S
O14 C30 1.239 . S
O15 Tb1 2.399 . S
O15 C30 1.263 . S
O16 Tb1 2.325 . S
O16 C31 1.236 . S
O17 Tb0 2.322 . S
O17 C31 1.257 . S
O18 Tb0 2.349 . S
O18 C2 1.261 . S
O19 Tb1 2.303 . S
O19 C2 1.257 . S
C20 O10 1.236 . S
C20 O11 1.257 1_655 S
O21 Tb0 2.415 1_655 S
O21 C9 1.239 . S
O22 Tb0 2.399 1_655 S
O22 C9 1.263 . S
C23 O12 1.261 . S
C23 O13 1.257 . S
C24 C27 1.358 . S
C24 C28 1.332 . S
C24 C30 1.504 . S
C25 C26 1.373 . S
C25 C29 1.308 . S
C26 C25 1.373 . S
C26 C27 1.429 . S
C26 H36 0.932 . S
C27 C24 1.358 . S
C27 C26 1.429 . S
C27 H37 0.930 . S
C28 C24 1.332 . S
C28 C29 1.394 . S
C28 H38 0.932 . S
C29 C25 1.308 . S
C29 C28 1.394 . S
C29 H39 0.929 . S
C30 Tb1 2.764 . S
C30 O14 1.239 . S
C30 O15 1.263 . S
C30 C24 1.504 . S
C31 O16 1.236 . S
C31 O17 1.257 . S
H32 C5 0.932 . S
H33 C6 0.930 . S
H34 C7 0.932 . S
H35 C8 0.929 . S
H36 C26 0.932 . S
H37 C27 0.930 . S
H38 C28 0.932 . S
H39 C29 0.929 . S
Tb40 C49 2.764 . S
Tb40 O50 2.325 . S
Tb40 O53 2.303 1_565 S
Tb40 O57 2.322 1_565 S
Tb40 O58 2.349 1_565 S
Tb40 O61 2.415 . S
Tb40 O62 2.399 . S
Tb41 O51 2.322 1_545 S
Tb41 O52 2.349 . S
Tb41 O54 2.415 . S
Tb41 O55 2.399 . S
Tb41 O56 2.325 . S
Tb41 O59 2.303 . S
Tb41 C70 2.764 . S
C42 O58 1.261 . S
C42 O59 1.257 . S
C43 C46 1.358 . S
C43 C47 1.332 . S
C43 C49 1.504 . S
C44 C45 1.373 . S
C44 C48 1.308 . S
C45 C44 1.373 . S
C45 C46 1.429 . S
C45 H72 0.932 . S
C46 C43 1.358 . S
C46 C45 1.429 . S
C46 H73 0.930 . S
C47 C43 1.332 . S
C47 C48 1.394 . S
C47 H74 0.932 . S
C48 C44 1.308 . S
C48 C47 1.394 . S
C48 H75 0.929 . S
C49 Tb40 2.764 . S
C49 C43 1.504 . S
C49 O61 1.239 . S
C49 O62 1.263 . S
O50 Tb40 2.325 . S
O50 C60 1.236 . S
O51 Tb41 2.322 1_565 S
O51 C60 1.257 . S
O52 Tb41 2.349 . S
O52 C63 1.261 . S
O53 Tb40 2.303 1_545 S
O53 C63 1.257 . S
O54 Tb41 2.415 . S
O54 C70 1.239 . S
O55 Tb41 2.399 . S
O55 C70 1.263 . S
O56 Tb41 2.325 . S
O56 C71 1.236 . S
O57 Tb40 2.322 1_545 S
O57 C71 1.257 . S
O58 Tb40 2.349 1_545 S
O58 C42 1.261 . S
O59 Tb41 2.303 . S
O59 C42 1.257 . S
C60 O50 1.236 . S
C60 O51 1.257 . S
O61 Tb40 2.415 . S
O61 C49 1.239 . S
O62 Tb40 2.399 . S
O62 C49 1.263 . S
C63 O52 1.261 . S
C63 O53 1.257 . S
C64 C67 1.358 . S
C64 C68 1.332 . S
C64 C70 1.504 . S
C65 C66 1.373 . S
C65 C69 1.308 . S
C66 C65 1.373 . S
C66 C67 1.429 . S
C66 H76 0.932 . S
C67 C64 1.358 . S
C67 C66 1.429 . S
C67 H77 0.930 . S
C68 C64 1.332 . S
C68 C69 1.394 . S
C68 H78 0.932 . S
C69 C65 1.308 . S
C69 C68 1.394 . S
C69 H79 0.929 . S
C70 Tb41 2.764 . S
C70 O54 1.239 . S
C70 O55 1.263 . S
C70 C64 1.504 . S
C71 O56 1.236 . S
C71 O57 1.257 . S
H72 C45 0.932 . S
H73 C46 0.930 . S
H74 C47 0.932 . S
H75 C48 0.929 . S
H76 C66 0.932 . S
H77 C67 0.930 . S
H78 C68 0.932 . S
H79 C69 0.929 . S
Tb80 C89 2.764 . S
Tb80 O90 2.325 . S
Tb80 O93 2.303 . S
Tb80 O97 2.322 . S
Tb80 O98 2.349 . S
Tb80 O101 2.415 . S
Tb80 O102 2.399 . S
Tb81 O91 2.322 . S
Tb81 O92 2.349 . S
Tb81 O94 2.415 . S
Tb81 O95 2.399 . S
Tb81 O96 2.325 . S
Tb81 O99 2.303 . S
Tb81 C110 2.764 . S
C82 O98 1.261 . S
C82 O99 1.257 . S
C83 C86 1.358 . S
C83 C87 1.332 . S
C83 C89 1.504 . S
C84 C85 1.373 . S
C84 C88 1.308 . S
C85 C84 1.373 . S
C85 C86 1.429 . S
C85 H112 0.932 . S
C86 C83 1.358 . S
C86 C85 1.429 . S
C86 H113 0.930 . S
C87 C83 1.332 . S
C87 C88 1.394 . S
C87 H114 0.932 . S
C88 C84 1.308 . S
C88 C87 1.394 . S
C88 H115 0.929 . S
C89 Tb80 2.764 . S
C89 C83 1.504 . S
C89 O101 1.239 . S
C89 O102 1.263 . S
O90 Tb80 2.325 . S
O90 C100 1.236 . S
O91 Tb81 2.322 . S
O91 C100 1.257 . S
O92 Tb81 2.349 . S
O92 C103 1.261 . S
O93 Tb80 2.303 . S
O93 C103 1.257 . S
O94 Tb81 2.415 . S
O94 C110 1.239 . S
O95 Tb81 2.399 . S
O95 C110 1.263 . S
O96 Tb81 2.325 . S
O96 C111 1.236 . S
O97 Tb80 2.322 . S
O97 C111 1.257 . S
O98 Tb80 2.349 . S
O98 C82 1.261 . S
O99 Tb81 2.303 . S
O99 C82 1.257 . S
C100 O90 1.236 . S
C100 O91 1.257 . S
O101 Tb80 2.415 . S
O101 C89 1.239 . S
O102 Tb80 2.399 . S
O102 C89 1.263 . S
C103 O92 1.261 . S
C103 O93 1.257 . S
C104 C107 1.358 . S
C104 C108 1.332 . S
C104 C110 1.504 . S
C105 C106 1.373 . S
C105 C109 1.308 . S
C106 C105 1.373 . S
C106 C107 1.429 . S
C106 H116 0.932 . S
C107 C104 1.358 . S
C107 C106 1.429 . S
C107 H117 0.930 . S
C108 C104 1.332 . S
C108 C109 1.394 . S
C108 H118 0.932 . S
C109 C105 1.308 . S
C109 C108 1.394 . S
C109 H119 0.929 . S
C110 Tb81 2.764 . S
C110 O94 1.239 . S
C110 O95 1.263 . S
C110 C104 1.504 . S
C111 O96 1.236 . S
C111 O97 1.257 . S
H112 C85 0.932 . S
H113 C86 0.930 . S
H114 C87 0.932 . S
H115 C88 0.929 . S
H116 C106 0.932 . S
H117 C107 0.930 . S
H118 C108 0.932 . S
H119 C109 0.929 . S
C120 C121 1.384 . S
C120 H133 0.947 . S
C120 C155 1.382 . S
C121 C120 1.384 . S
C121 C122 1.378 . S
C122 C121 1.378 . S
C122 C123 1.378 . S
C122 H134 0.952 . S
C123 C122 1.378 . S
C123 H135 0.950 . S
C123 C154 1.383 . S
H124 C143 0.947 . S
H125 C144 0.946 . S
H126 C146 0.953 . S
H127 C147 0.945 . S
H128 C149 0.952 . S
H129 C150 0.949 . S
H130 C152 0.950 1_565 S
H131 C153 0.948 . S
H132 C155 0.951 . S
H133 C120 0.947 . S
H134 C122 0.952 . S
H135 C123 0.950 . S
N136 C139 1.382 . S
N136 C141 1.363 1_545 S
N137 C139 1.371 . S
N137 C140 1.372 . S
N138 C140 1.361 1_565 S
N138 C141 1.377 . S
C139 N136 1.382 . S
C139 N137 1.371 . S
C139 C142 1.480 . S
C140 N137 1.372 . S
C140 N138 1.361 1_545 S
C140 C148 1.457 . S
C141 N136 1.363 1_565 S
C141 N138 1.377 . S
C141 C154 1.479 . S
C142 C139 1.480 . S
C142 C143 1.383 . S
C142 C147 1.385 . S
C143 H124 0.947 . S
C143 C142 1.383 . S
C143 C144 1.388 . S
C144 H125 0.946 . S
C144 C143 1.388 . S
C144 C145 1.384 . S
C145 C144 1.384 . S
C145 C146 1.377 . S
C146 H126 0.953 . S
C146 C145 1.377 . S
C146 C147 1.369 . S
C147 H127 0.945 . S
C147 C142 1.385 . S
C147 C146 1.369 . S
C148 C140 1.457 . S
C148 C149 1.372 . S
C148 C153 1.364 1_545 S
C149 H128 0.952 . S
C149 C148 1.372 . S
C149 C150 1.389 . S
C150 H129 0.949 . S
C150 C149 1.389 . S
C150 C151 1.387 . S
C151 C150 1.387 . S
C151 C152 1.372 . S
C152 H130 0.950 1_545 S
C152 C151 1.372 . S
C152 C153 1.379 1_545 S
C153 H131 0.948 . S
C153 C148 1.364 1_565 S
C153 C152 1.379 1_565 S
C154 C123 1.383 . S
C154 C141 1.479 . S
C154 C155 1.398 . S
C155 C120 1.382 . S
C155 H132 0.951 . S
C155 C154 1.398 . S
C156 C157 1.384 . S
C156 H169 0.947 . S
C156 C191 1.382 . S
C157 C156 1.384 . S
C157 C158 1.378 . S
C158 C157 1.378 . S
C158 C159 1.378 . S
C158 H170 0.952 . S
C159 C158 1.378 . S
C159 H171 0.950 . S
C159 C190 1.383 . S
H160 C179 0.947 . S
H161 C180 0.946 . S
H162 C182 0.953 . S
H163 C183 0.945 . S
H164 C185 0.952 . S
H165 C186 0.949 . S
H166 C188 0.950 . S
H167 C189 0.948 . S
H168 C191 0.951 . S
H169 C156 0.947 . S
H170 C158 0.952 . S
H171 C159 0.950 . S
N172 C175 1.382 . S
N172 C177 1.363 . S
N173 C175 1.371 . S
N173 C176 1.372 . S
N174 C176 1.361 . S
N174 C177 1.377 . S
C175 N172 1.382 . S
C175 N173 1.371 . S
C175 C178 1.480 . S
C176 N173 1.372 . S
C176 N174 1.361 . S
C176 C184 1.457 . S
C177 N172 1.363 . S
C177 N174 1.377 . S
C177 C190 1.479 . S
C178 C175 1.480 . S
C178 C179 1.383 . S
C178 C183 1.385 . S
C179 H160 0.947 . S
C179 C178 1.383 . S
C179 C180 1.388 . S
C180 H161 0.946 . S
C180 C179 1.388 . S
C180 C181 1.384 . S
C181 C180 1.384 . S
C181 C182 1.377 . S
C182 H162 0.953 . S
C182 C181 1.377 . S
C182 C183 1.369 . S
C183 H163 0.945 . S
C183 C178 1.385 . S
C183 C182 1.369 . S
C184 C176 1.457 . S
C184 C185 1.372 . S
C184 C189 1.364 . S
C185 H164 0.952 . S
C185 C184 1.372 . S
C185 C186 1.389 . S
C186 H165 0.949 . S
C186 C185 1.389 . S
C186 C187 1.387 . S
C187 C186 1.387 . S
C187 C188 1.372 . S
C188 H166 0.950 . S
C188 C187 1.372 . S
C188 C189 1.379 . S
C189 H167 0.948 . S
C189 C184 1.364 . S
C189 C188 1.379 . S
C190 C159 1.383 . S
C190 C177 1.479 . S
C190 C191 1.398 . S
C191 C156 1.382 . S
C191 H168 0.951 . S
C191 C190 1.398 . S
C192 C193 1.384 . S
C192 H205 0.947 . S
C192 C227 1.382 . S
C193 C192 1.384 . S
C193 C194 1.378 . S
C194 C193 1.378 . S
C194 C195 1.378 . S
C194 H206 0.952 . S
C195 C194 1.378 . S
C195 H207 0.950 1_655 S
C195 C226 1.383 1_655 S
H196 C215 0.947 . S
H197 C216 0.946 . S
H198 C218 0.953 . S
H199 C219 0.945 . S
H200 C221 0.952 . S
H201 C222 0.949 . S
H202 C224 0.950 . S
H203 C225 0.948 . S
H204 C227 0.951 . S
H205 C192 0.947 . S
H206 C194 0.952 . S
H207 C195 0.950 1_455 S
N208 C211 1.382 . S
N208 C213 1.363 . S
N209 C211 1.371 . S
N209 C212 1.372 . S
N210 C212 1.361 . S
N210 C213 1.377 . S
C211 N208 1.382 . S
C211 N209 1.371 . S
C211 C214 1.480 . S
C212 N209 1.372 . S
C212 N210 1.361 . S
C212 C220 1.457 . S
C213 N208 1.363 . S
C213 N210 1.377 . S
C213 C226 1.476 . S
C214 C211 1.480 . S
C214 C215 1.383 . S
C214 C219 1.385 . S
C215 H196 0.947 . S
C215 C214 1.383 . S
C215 C216 1.388 . S
C216 H197 0.946 . S
C216 C215 1.388 . S
C216 C217 1.384 . S
C217 C216 1.384 . S
C217 C218 1.377 . S
C218 H198 0.953 . S
C218 C217 1.377 . S
C218 C219 1.369 . S
C219 H199 0.945 . S
C219 C214 1.385 . S
C219 C218 1.369 . S
C220 C212 1.457 . S
C220 C221 1.372 . S
C220 C225 1.364 . S
C221 H200 0.952 . S
C221 C220 1.372 . S
C221 C222 1.389 . S
C222 H201 0.949 . S
C222 C221 1.389 . S
C222 C223 1.387 . S
C223 C222 1.387 . S
C223 C224 1.372 . S
C224 H202 0.950 . S
C224 C223 1.372 . S
C224 C225 1.379 . S
C225 H203 0.948 . S
C225 C220 1.364 . S
C225 C224 1.379 . S
C226 C195 1.383 1_455 S
C226 C213 1.476 . S
C226 C227 1.401 1_455 S
C227 C192 1.382 . S
C227 H204 0.951 . S
C227 C226 1.401 1_655 S
C228 C229 1.384 . S
C228 H241 0.947 . S
C228 C263 1.382 . S
C229 C228 1.384 . S
C229 C230 1.378 . S
C230 C229 1.378 . S
C230 C231 1.378 . S
C230 H242 0.952 . S
C231 C230 1.378 . S
C231 H243 0.950 . S
C231 C262 1.383 . S
H232 C251 0.947 . S
H233 C252 0.946 . S
H234 C254 0.953 . S
H235 C255 0.945 . S
H236 C257 0.952 . S
H237 C258 0.949 . S
H238 C260 0.950 . S
H239 C261 0.948 . S
H240 C263 0.951 . S
H241 C228 0.947 . S
H242 C230 0.952 . S
H243 C231 0.950 . S
N244 C247 1.382 1_455 S
N244 C249 1.363 . S
N245 C247 1.371 . S
N245 C248 1.372 1_655 S
N246 C248 1.361 . S
N246 C249 1.377 . S
C247 N244 1.382 1_655 S
C247 N245 1.371 . S
C247 C250 1.480 . S
C248 N245 1.372 1_455 S
C248 N246 1.361 . S
C248 C256 1.457 . S
C249 N244 1.363 . S
C249 N246 1.377 . S
C249 C262 1.479 . S
C250 C247 1.480 . S
C250 C251 1.383 . S
C250 C255 1.385 . S
C251 H232 0.947 . S
C251 C250 1.383 . S
C251 C252 1.388 . S
C252 H233 0.946 . S
C252 C251 1.388 . S
C252 C253 1.384 . S
C253 C252 1.384 . S
C253 C254 1.377 . S
C254 H234 0.953 . S
C254 C253 1.377 . S
C254 C255 1.369 . S
C255 H235 0.945 . S
C255 C250 1.385 . S
C255 C254 1.369 . S
C256 C248 1.457 . S
C256 C257 1.372 1_455 S
C256 C261 1.364 . S
C257 H236 0.952 . S
C257 C256 1.372 1_655 S
C257 C258 1.389 . S
C258 H237 0.949 . S
C258 C257 1.389 . S
C258 C259 1.383 1_655 S
C259 C258 1.383 1_455 S
C259 C260 1.376 . S
C260 H238 0.950 . S
C260 C259 1.376 . S
C260 C261 1.379 . S
C261 H239 0.948 . S
C261 C256 1.364 . S
C261 C260 1.379 . S
C262 C231 1.383 . S
C262 C249 1.479 . S
C262 C263 1.398 . S
C263 C228 1.382 . S
C263 H240 0.951 . S
C263 C262 1.398 . S
C264 C265 1.384 . S
C264 H277 0.947 . S
C264 C299 1.382 . S
C265 C264 1.384 . S
C265 C266 1.378 . S
C266 C265 1.378 . S
C266 C267 1.378 . S
C266 H278 0.952 . S
C267 C266 1.378 . S
C267 H279 0.950 . S
C267 C298 1.383 . S
H268 C287 0.947 . S
H269 C288 0.946 . S
H270 C290 0.953 . S
H271 C291 0.945 . S
H272 C293 0.952 . S
H273 C294 0.949 . S
H274 C296 0.950 . S
H275 C297 0.948 . S
H276 C299 0.951 . S
H277 C264 0.947 . S
H278 C266 0.952 . S
H279 C267 0.950 . S
N280 C283 1.382 1_545 S
N280 C285 1.363 . S
N281 C283 1.371 . S
N281 C284 1.372 1_565 S
N282 C284 1.361 . S
N282 C285 1.377 . S
C283 N280 1.382 1_565 S
C283 N281 1.371 . S
C283 C286 1.480 . S
C284 N281 1.372 1_545 S
C284 N282 1.361 . S
C284 C292 1.457 . S
C285 N280 1.363 . S
C285 N282 1.377 . S
C285 C298 1.479 . S
C286 C283 1.480 . S
C286 C287 1.383 . S
C286 C291 1.385 . S
C287 H268 0.947 . S
C287 C286 1.383 . S
C287 C288 1.388 . S
C288 H269 0.946 . S
C288 C287 1.388 . S
C288 C289 1.384 . S
C289 C288 1.384 . S
C289 C290 1.377 . S
C290 H270 0.953 . S
C290 C289 1.377 . S
C290 C291 1.369 . S
C291 H271 0.945 . S
C291 C286 1.385 . S
C291 C290 1.369 . S
C292 C284 1.457 . S
C292 C293 1.372 1_545 S
C292 C297 1.364 . S
C293 H272 0.952 . S
C293 C292 1.372 1_565 S
C293 C294 1.389 . S
C294 H273 0.949 . S
C294 C293 1.389 . S
C294 C295 1.387 . S
C295 C294 1.387 . S
C295 C296 1.372 1_565 S
C296 H274 0.950 . S
C296 C295 1.372 1_545 S
C296 C297 1.379 . S
C297 H275 0.948 . S
C297 C292 1.364 . S
C297 C296 1.379 . S
C298 C267 1.383 . S
C298 C285 1.479 . S
C298 C299 1.398 . S
C299 C264 1.382 . S
C299 H276 0.951 . S
C299 C298 1.398 . S
C300 C301 1.384 . S
C300 H313 0.947 . S
C300 C335 1.382 . S
C301 C300 1.384 . S
C301 C302 1.378 . S
C302 C301 1.378 . S
C302 C303 1.378 . S
C302 H314 0.952 . S
C303 C302 1.378 . S
C303 H315 0.950 . S
C303 C334 1.383 . S
H304 C323 0.947 . S
H305 C324 0.946 . S
H306 C326 0.953 . S
H307 C327 0.945 . S
H308 C329 0.952 . S
H309 C330 0.949 . S
H310 C332 0.950 . S
H311 C333 0.948 . S
H312 C335 0.951 . S
H313 C300 0.947 . S
H314 C302 0.952 . S
H315 C303 0.950 . S
N316 C319 1.382 . S
N316 C321 1.363 . S
N317 C319 1.371 . S
N317 C320 1.372 . S
N318 C320 1.361 . S
N318 C321 1.377 . S
C319 N316 1.382 . S
C319 N317 1.371 . S
C319 C322 1.480 . S
C320 N317 1.372 . S
C320 N318 1.361 . S
C320 C328 1.457 . S
C321 N316 1.363 . S
C321 N318 1.377 . S
C321 C334 1.479 . S
C322 C319 1.480 . S
C322 C323 1.383 . S
C322 C327 1.385 . S
C323 H304 0.947 . S
C323 C322 1.383 . S
C323 C324 1.388 . S
C324 H305 0.946 . S
C324 C323 1.388 . S
C324 C325 1.384 . S
C325 C324 1.384 . S
C325 C326 1.377 . S
C326 H306 0.953 . S
C326 C325 1.377 . S
C326 C327 1.369 . S
C327 H307 0.945 . S
C327 C322 1.385 . S
C327 C326 1.369 . S
C328 C320 1.457 . S
C328 C329 1.372 . S
C328 C333 1.364 . S
C329 H308 0.952 . S
C329 C328 1.372 . S
C329 C330 1.389 . S
C330 H309 0.949 . S
C330 C329 1.389 . S
C330 C331 1.387 . S
C331 C330 1.387 . S
C331 C332 1.372 . S
C332 H310 0.950 . S
C332 C331 1.372 . S
C332 C333 1.379 . S
C333 H311 0.948 . S
C333 C328 1.364 . S
C333 C332 1.379 . S
C334 C303 1.383 . S
C334 C321 1.479 . S
C334 C335 1.398 . S
C335 C300 1.382 . S
C335 H312 0.951 . S
C335 C334 1.398 . S
H336 C348 0.930 . S
H337 C350 0.930 . S
H338 C351 0.930 . S
H339 C355 0.959 . S
H340 C355 0.959 . S
H341 C355 0.961 . S
H342 C356 0.960 . S
H343 C356 0.961 . S
H344 C356 0.959 . S
H345 C359 0.929 . S
H346 C360 0.931 . S
H347 C362 0.930 . S
C348 H336 0.930 . S
C348 C349 1.399 . S
C348 C353 1.399 . S
C349 C348 1.399 . S
C349 C350 1.376 . S
C350 H337 0.930 . S
C350 C349 1.376 . S
C350 C351 1.388 . S
C351 H338 0.930 . S
C351 C350 1.388 . S
C351 C352 1.390 . S
C352 C351 1.390 . S
C352 C353 1.394 . S
C352 C358 1.465 . S
C353 C348 1.399 . S
C353 C352 1.394 . S
C353 C354 1.516 . S
C354 C353 1.516 . S
C354 C355 1.502 . S
C354 C356 1.561 . S
C354 C357 1.526 . S
C355 H339 0.959 . S
C355 H340 0.959 . S
C355 H341 0.961 . S
C355 C354 1.502 . S
C356 H342 0.960 . S
C356 H343 0.961 . S
C356 H344 0.959 . S
C356 C354 1.561 . S
C357 C354 1.526 . S
C357 C358 1.396 . S
C357 C362 1.390 . S
C358 C352 1.465 . S
C358 C357 1.396 . S
C358 C359 1.399 . S
C359 H345 0.929 . S
C359 C358 1.399 . S
C359 C360 1.385 . S
C360 H346 0.931 . S
C360 C359 1.385 . S
C360 C361 1.389 . S
C361 C360 1.389 . S
C361 C362 1.387 . S
C362 H347 0.930 . S
C362 C357 1.390 . S
C362 C361 1.387 . S
H363 C375 0.930 . S
H364 C377 0.930 . S
H365 C378 0.930 . S
H366 C382 0.959 . S
H367 C382 0.959 . S
H368 C382 0.961 . S
H369 C383 0.960 . S
H370 C383 0.961 . S
H371 C383 0.959 . S
H372 C386 0.929 . S
H373 C387 0.931 . S
H374 C389 0.930 . S
C375 H363 0.930 . S
C375 C376 1.399 . S
C375 C380 1.399 . S
C376 C375 1.399 . S
C376 C377 1.376 . S
C377 H364 0.930 . S
C377 C376 1.376 . S
C377 C378 1.388 . S
C378 H365 0.930 . S
C378 C377 1.388 . S
C378 C379 1.390 . S
C379 C378 1.390 . S
C379 C380 1.394 . S
C379 C385 1.465 . S
C380 C375 1.399 . S
C380 C379 1.394 . S
C380 C381 1.516 . S
C381 C380 1.516 . S
C381 C382 1.502 . S
C381 C383 1.561 . S
C381 C384 1.526 . S
C382 H366 0.959 . S
C382 H367 0.959 . S
C382 H368 0.961 . S
C382 C381 1.502 . S
C383 H369 0.960 . S
C383 H370 0.961 . S
C383 H371 0.959 . S
C383 C381 1.561 . S
C384 C381 1.526 . S
C384 C385 1.396 . S
C384 C389 1.390 . S
C385 C379 1.465 . S
C385 C384 1.396 . S
C385 C386 1.399 . S
C386 H372 0.929 . S
C386 C385 1.399 . S
C386 C387 1.385 . S
C387 H373 0.931 . S
C387 C386 1.385 . S
C387 C388 1.389 . S
C388 C387 1.389 . S
C388 C389 1.387 . S
C389 H374 0.930 . S
C389 C384 1.390 . S
C389 C388 1.387 . S
H390 C402 0.930 . S
H391 C404 0.930 . S
H392 C405 0.930 . S
H393 C409 0.959 . S
H394 C409 0.959 . S
H395 C409 0.961 . S
H396 C410 0.960 . S
H397 C410 0.961 . S
H398 C410 0.959 . S
H399 C413 0.929 . S
H400 C414 0.931 . S
H401 C416 0.930 . S
C402 H390 0.930 . S
C402 C403 1.399 . S
C402 C407 1.399 . S
C403 C402 1.399 . S
C403 C404 1.376 . S
C404 H391 0.930 . S
C404 C403 1.376 . S
C404 C405 1.388 . S
C405 H392 0.930 . S
C405 C404 1.388 . S
C405 C406 1.390 . S
C406 C405 1.390 . S
C406 C407 1.394 . S
C406 C412 1.465 . S
C407 C402 1.399 . S
C407 C406 1.394 . S
C407 C408 1.516 . S
C408 C407 1.516 . S
C408 C409 1.502 . S
C408 C410 1.561 . S
C408 C411 1.526 . S
C409 H393 0.959 . S
C409 H394 0.959 . S
C409 H395 0.961 . S
C409 C408 1.502 . S
C410 H396 0.960 . S
C410 H397 0.961 . S
C410 H398 0.959 . S
C410 C408 1.561 . S
C411 C408 1.526 . S
C411 C412 1.396 . S
C411 C416 1.390 . S
C412 C406 1.465 . S
C412 C411 1.396 . S
C412 C413 1.399 . S
C413 H399 0.929 . S
C413 C412 1.399 . S
C413 C414 1.385 . S
C414 H400 0.931 . S
C414 C413 1.385 . S
C414 C415 1.389 . S
C415 C414 1.389 . S
C415 C416 1.387 . S
C416 H401 0.930 . S
C416 C411 1.390 . S
C416 C415 1.387 . S
H417 C429 0.930 . S
H418 C431 0.930 . S
H419 C432 0.930 . S
H420 C436 0.959 . S
H421 C436 0.959 . S
H422 C436 0.961 . S
H423 C437 0.960 . S
H424 C437 0.961 . S
H425 C437 0.959 . S
H426 C440 0.929 . S
H427 C441 0.931 . S
H428 C443 0.930 . S
C429 H417 0.930 . S
C429 C430 1.399 . S
C429 C434 1.399 . S
C430 C429 1.399 . S
C430 C431 1.376 . S
C431 H418 0.930 . S
C431 C430 1.376 . S
C431 C432 1.388 . S
C432 H419 0.930 . S
C432 C431 1.388 . S
C432 C433 1.390 . S
C433 C432 1.390 . S
C433 C434 1.394 . S
C433 C439 1.465 . S
C434 C429 1.399 . S
C434 C433 1.394 . S
C434 C435 1.516 . S
C435 C434 1.516 . S
C435 C436 1.502 . S
C435 C437 1.561 . S
C435 C438 1.526 . S
C436 H420 0.959 . S
C436 H421 0.959 . S
C436 H422 0.961 . S
C436 C435 1.502 . S
C437 H423 0.960 . S
C437 H424 0.961 . S
C437 H425 0.959 . S
C437 C435 1.561 . S
C438 C435 1.526 . S
C438 C439 1.396 . S
C438 C443 1.390 . S
C439 C433 1.465 . S
C439 C438 1.396 . S
C439 C440 1.399 . S
C440 H426 0.929 . S
C440 C439 1.399 . S
C440 C441 1.385 . S
C441 H427 0.931 . S
C441 C440 1.385 . S
C441 C442 1.389 . S
C442 C441 1.389 . S
C442 C443 1.387 . S
C443 H428 0.930 . S
C443 C438 1.390 . S
C443 C442 1.387 . S
H444 C456 0.930 . S
H445 C458 0.930 . S
H446 C459 0.930 . S
H447 C463 0.959 . S
H448 C463 0.959 . S
H449 C463 0.961 . S
H450 C464 0.960 . S
H451 C464 0.961 . S
H452 C464 0.959 . S
H453 C467 0.929 . S
H454 C468 0.931 . S
H455 C470 0.930 . S
C456 H444 0.930 . S
C456 C457 1.399 . S
C456 C461 1.399 . S
C457 C456 1.399 . S
C457 C458 1.376 . S
C458 H445 0.930 . S
C458 C457 1.376 . S
C458 C459 1.388 . S
C459 H446 0.930 . S
C459 C458 1.388 . S
C459 C460 1.390 . S
C460 C459 1.390 . S
C460 C461 1.394 . S
C460 C466 1.465 . S
C461 C456 1.399 . S
C461 C460 1.394 . S
C461 C462 1.516 . S
C462 C461 1.516 . S
C462 C463 1.502 . S
C462 C464 1.561 . S
C462 C465 1.526 . S
C463 H447 0.959 . S
C463 H448 0.959 . S
C463 H449 0.961 . S
C463 C462 1.502 . S
C464 H450 0.960 . S
C464 H451 0.961 . S
C464 H452 0.959 . S
C464 C462 1.561 . S
C465 C462 1.526 . S
C465 C466 1.396 . S
C465 C470 1.390 . S
C466 C460 1.465 . S
C466 C465 1.396 . S
C466 C467 1.399 . S
C467 H453 0.929 . S
C467 C466 1.399 . S
C467 C468 1.385 . S
C468 H454 0.931 . S
C468 C467 1.385 . S
C468 C469 1.389 . S
C469 C468 1.389 . S
C469 C470 1.387 . S
C470 H455 0.930 . S
C470 C465 1.390 . S
C470 C469 1.387 . S
H471 C483 0.930 . S
H472 C485 0.930 . S
H473 C486 0.930 . S
H474 C490 0.959 . S
H475 C490 0.959 . S
H476 C490 0.961 . S
H477 C491 0.960 . S
H478 C491 0.961 . S
H479 C491 0.959 . S
H480 C494 0.929 . S
H481 C495 0.931 . S
H482 C497 0.930 . S
C483 H471 0.930 . S
C483 C484 1.399 . S
C483 C488 1.399 . S
C484 C483 1.399 . S
C484 C485 1.376 . S
C485 H472 0.930 . S
C485 C484 1.376 . S
C485 C486 1.388 . S
C486 H473 0.930 . S
C486 C485 1.388 . S
C486 C487 1.390 . S
C487 C486 1.390 . S
C487 C488 1.394 . S
C487 C493 1.465 . S
C488 C483 1.399 . S
C488 C487 1.394 . S
C488 C489 1.516 . S
C489 C488 1.516 . S
C489 C490 1.502 . S
C489 C491 1.561 . S
C489 C492 1.526 . S
C490 H474 0.959 . S
C490 H475 0.959 . S
C490 H476 0.961 . S
C490 C489 1.502 . S
C491 H477 0.960 . S
C491 H478 0.961 . S
C491 H479 0.959 . S
C491 C489 1.561 . S
C492 C489 1.526 . S
C492 C493 1.396 . S
C492 C497 1.390 . S
C493 C487 1.465 . S
C493 C492 1.396 . S
C493 C494 1.399 . S
C494 H480 0.929 . S
C494 C493 1.399 . S
C494 C495 1.385 . S
C495 H481 0.931 . S
C495 C494 1.385 . S
C495 C496 1.389 . S
C496 C495 1.389 . S
C496 C497 1.387 . S
C497 H482 0.930 . S
C497 C492 1.390 . S
C497 C496 1.387 . S
H498 C510 0.930 . S
H499 C512 0.930 . S
H500 C513 0.930 . S
H501 C517 0.959 . S
H502 C517 0.959 . S
H503 C517 0.961 . S
H504 C518 0.960 . S
H505 C518 0.961 . S
H506 C518 0.959 . S
H507 C521 0.929 . S
H508 C522 0.931 . S
H509 C524 0.930 . S
C510 H498 0.930 . S
C510 C511 1.399 . S
C510 C515 1.399 . S
C511 C510 1.399 . S
C511 C512 1.376 . S
C512 H499 0.930 . S
C512 C511 1.376 . S
C512 C513 1.388 . S
C513 H500 0.930 . S
C513 C512 1.388 . S
C513 C514 1.390 . S
C514 C513 1.390 . S
C514 C515 1.394 . S
C514 C520 1.465 . S
C515 C510 1.399 . S
C515 C514 1.394 . S
C515 C516 1.516 . S
C516 C515 1.516 . S
C516 C517 1.502 . S
C516 C518 1.561 . S
C516 C519 1.526 . S
C517 H501 0.959 . S
C517 H502 0.959 . S
C517 H503 0.961 . S
C517 C516 1.502 . S
C518 H504 0.960 . S
C518 H505 0.961 . S
C518 H506 0.959 . S
C518 C516 1.561 . S
C519 C516 1.526 . S
C519 C520 1.396 . S
C519 C524 1.390 . S
C520 C514 1.465 . S
C520 C519 1.396 . S
C520 C521 1.399 . S
C521 H507 0.929 . S
C521 C520 1.399 . S
C521 C522 1.385 . S
C522 H508 0.931 . S
C522 C521 1.385 . S
C522 C523 1.389 . S
C523 C522 1.389 . S
C523 C524 1.387 . S
C524 H509 0.930 . S
C524 C519 1.390 . S
C524 C523 1.387 . S
H525 C537 0.930 . S
H526 C539 0.930 . S
H527 C540 0.930 . S
H528 C544 0.959 . S
H529 C544 0.959 . S
H530 C544 0.961 . S
H531 C545 0.960 . S
H532 C545 0.961 . S
H533 C545 0.959 . S
H534 C548 0.929 . S
H535 C549 0.931 . S
H536 C551 0.930 . S
C537 H525 0.930 . S
C537 C538 1.399 . S
C537 C542 1.399 . S
C538 C537 1.399 . S
C538 C539 1.376 . S
C539 H526 0.930 . S
C539 C538 1.376 . S
C539 C540 1.388 . S
C540 H527 0.930 . S
C540 C539 1.388 . S
C540 C541 1.390 . S
C541 C540 1.390 . S
C541 C542 1.394 . S
C541 C547 1.465 . S
C542 C537 1.399 . S
C542 C541 1.394 . S
C542 C543 1.516 . S
C543 C542 1.516 . S
C543 C544 1.502 . S
C543 C545 1.561 . S
C543 C546 1.526 . S
C544 H528 0.959 . S
C544 H529 0.959 . S
C544 H530 0.961 . S
C544 C543 1.502 . S
C545 H531 0.960 . S
C545 H532 0.961 . S
C545 H533 0.959 . S
C545 C543 1.561 . S
C546 C543 1.526 . S
C546 C547 1.396 . S
C546 C551 1.390 . S
C547 C541 1.465 . S
C547 C546 1.396 . S
C547 C548 1.399 . S
C548 H534 0.929 . S
C548 C547 1.399 . S
C548 C549 1.385 . S
C549 H535 0.931 . S
C549 C548 1.385 . S
C549 C550 1.389 . S
C550 C549 1.389 . S
C550 C551 1.387 . S
C551 H536 0.930 . S
C551 C546 1.390 . S
C551 C550 1.387 . S
H552 C564 0.930 . S
H553 C566 0.930 . S
H554 C567 0.930 . S
H555 C571 0.959 . S
H556 C571 0.959 . S
H557 C571 0.961 . S
H558 C572 0.960 . S
H559 C572 0.961 . S
H560 C572 0.959 . S
H561 C575 0.929 . S
H562 C576 0.931 . S
H563 C578 0.930 . S
C564 H552 0.930 . S
C564 C565 1.399 . S
C564 C569 1.399 . S
C565 C564 1.399 . S
C565 C566 1.376 . S
C566 H553 0.930 . S
C566 C565 1.376 . S
C566 C567 1.388 . S
C567 H554 0.930 . S
C567 C566 1.388 . S
C567 C568 1.390 . S
C568 C567 1.390 . S
C568 C569 1.394 . S
C568 C574 1.465 . S
C569 C564 1.399 . S
C569 C568 1.394 . S
C569 C570 1.516 . S
C570 C569 1.516 . S
C570 C571 1.502 . S
C570 C572 1.561 . S
C570 C573 1.526 . S
C571 H555 0.959 . S
C571 H556 0.959 . S
C571 H557 0.961 . S
C571 C570 1.502 . S
C572 H558 0.960 . S
C572 H559 0.961 . S
C572 H560 0.959 . S
C572 C570 1.561 . S
C573 C570 1.526 . S
C573 C574 1.396 . S
C573 C578 1.390 . S
C574 C568 1.465 . S
C574 C573 1.396 . S
C574 C575 1.399 . S
C575 H561 0.929 . S
C575 C574 1.399 . S
C575 C576 1.385 . S
C576 H562 0.931 . S
C576 C575 1.385 . S
C576 C577 1.389 . S
C577 C576 1.389 . S
C577 C578 1.387 . S
C578 H563 0.930 . S
C578 C573 1.390 . S
C578 C577 1.387 . S
H579 C591 0.930 . S
H580 C593 0.930 . S
H581 C594 0.930 . S
H582 C598 0.959 . S
H583 C598 0.959 . S
H584 C598 0.961 . S
H585 C599 0.960 . S
H586 C599 0.961 . S
H587 C599 0.959 . S
H588 C602 0.929 . S
H589 C603 0.931 . S
H590 C605 0.930 . S
C591 H579 0.930 . S
C591 C592 1.399 . S
C591 C596 1.399 . S
C592 C591 1.399 . S
C592 C593 1.376 . S
C593 H580 0.930 . S
C593 C592 1.376 . S
C593 C594 1.388 . S
C594 H581 0.930 . S
C594 C593 1.388 . S
C594 C595 1.390 . S
C595 C594 1.390 . S
C595 C596 1.394 . S
C595 C601 1.465 . S
C596 C591 1.399 . S
C596 C595 1.394 . S
C596 C597 1.516 . S
C597 C596 1.516 . S
C597 C598 1.502 . S
C597 C599 1.561 . S
C597 C600 1.526 . S
C598 H582 0.959 . S
C598 H583 0.959 . S
C598 H584 0.961 . S
C598 C597 1.502 . S
C599 H585 0.960 . S
C599 H586 0.961 . S
C599 H587 0.959 . S
C599 C597 1.561 . S
C600 C597 1.526 . S
C600 C601 1.396 . S
C600 C605 1.390 . S
C601 C595 1.465 . S
C601 C600 1.396 . S
C601 C602 1.399 . S
C602 H588 0.929 . S
C602 C601 1.399 . S
C602 C603 1.385 . S
C603 H589 0.931 . S
C603 C602 1.385 . S
C603 C604 1.389 . S
C604 C603 1.389 . S
C604 C605 1.387 . S
C605 H590 0.930 . S
C605 C600 1.390 . S
C605 C604 1.387 . S
H606 C618 0.930 . S
H607 C620 0.930 . S
H608 C621 0.930 . S
H609 C625 0.959 . S
H610 C625 0.959 . S
H611 C625 0.961 . S
H612 C626 0.960 . S
H613 C626 0.961 . S
H614 C626 0.959 . S
H615 C629 0.929 . S
H616 C630 0.931 . S
H617 C632 0.930 . S
C618 H606 0.930 . S
C618 C619 1.399 . S
C618 C623 1.399 . S
C619 C618 1.399 . S
C619 C620 1.376 . S
C620 H607 0.930 . S
C620 C619 1.376 . S
C620 C621 1.388 . S
C621 H608 0.930 . S
C621 C620 1.388 . S
C621 C622 1.390 . S
C622 C621 1.390 . S
C622 C623 1.394 . S
C622 C628 1.465 . S
C623 C618 1.399 . S
C623 C622 1.394 . S
C623 C624 1.516 . S
C624 C623 1.516 . S
C624 C625 1.502 . S
C624 C626 1.561 . S
C624 C627 1.526 . S
C625 H609 0.959 . S
C625 H610 0.959 . S
C625 H611 0.961 . S
C625 C624 1.502 . S
C626 H612 0.960 . S
C626 H613 0.961 . S
C626 H614 0.959 . S
C626 C624 1.561 . S
C627 C624 1.526 . S
C627 C628 1.396 . S
C627 C632 1.390 . S
C628 C622 1.465 . S
C628 C627 1.396 . S
C628 C629 1.399 . S
C629 H615 0.929 . S
C629 C628 1.399 . S
C629 C630 1.385 . S
C630 H616 0.931 . S
C630 C629 1.385 . S
C630 C631 1.389 . S
C631 C630 1.389 . S
C631 C632 1.387 . S
C632 H617 0.930 . S
C632 C627 1.390 . S
C632 C631 1.387 . S
H633 C645 0.930 . S
H634 C647 0.930 . S
H635 C648 0.930 . S
H636 C652 0.959 . S
H637 C652 0.959 . S
H638 C652 0.961 . S
H639 C653 0.960 . S
H640 C653 0.961 . S
H641 C653 0.959 . S
H642 C656 0.929 . S
H643 C657 0.931 . S
H644 C659 0.930 . S
C645 H633 0.930 . S
C645 C646 1.399 . S
C645 C650 1.399 . S
C646 C645 1.399 . S
C646 C647 1.376 . S
C647 H634 0.930 . S
C647 C646 1.376 . S
C647 C648 1.388 . S
C648 H635 0.930 . S
C648 C647 1.388 . S
C648 C649 1.390 . S
C649 C648 1.390 . S
C649 C650 1.394 . S
C649 C655 1.465 . S
C650 C645 1.399 . S
C650 C649 1.394 . S
C650 C651 1.516 . S
C651 C650 1.516 . S
C651 C652 1.502 . S
C651 C653 1.561 . S
C651 C654 1.526 . S
C652 H636 0.959 . S
C652 H637 0.959 . S
C652 H638 0.961 . S
C652 C651 1.502 . S
C653 H639 0.960 . S
C653 H640 0.961 . S
C653 H641 0.959 . S
C653 C651 1.561 . S
C654 C651 1.526 . S
C654 C655 1.396 . S
C654 C659 1.390 . S
C655 C649 1.465 . S
C655 C654 1.396 . S
C655 C656 1.399 . S
C656 H642 0.929 . S
C656 C655 1.399 . S
C656 C657 1.385 . S
C657 H643 0.931 . S
C657 C656 1.385 . S
C657 C658 1.389 . S
C658 C657 1.389 . S
C658 C659 1.387 . S
C659 H644 0.930 . S
C659 C654 1.390 . S
C659 C658 1.387 . S
H660 C672 0.930 . S
H661 C674 0.930 . S
H662 C675 0.930 . S
H663 C679 0.959 . S
H664 C679 0.959 . S
H665 C679 0.961 . S
H666 C680 0.960 . S
H667 C680 0.961 . S
H668 C680 0.959 . S
H669 C683 0.929 . S
H670 C684 0.931 . S
H671 C686 0.930 . S
C672 H660 0.930 . S
C672 C673 1.399 . S
C672 C677 1.399 . S
C673 C672 1.399 . S
C673 C674 1.376 . S
C674 H661 0.930 . S
C674 C673 1.376 . S
C674 C675 1.388 . S
C675 H662 0.930 . S
C675 C674 1.388 . S
C675 C676 1.390 . S
C676 C675 1.390 . S
C676 C677 1.394 . S
C676 C682 1.465 . S
C677 C672 1.399 . S
C677 C676 1.394 . S
C677 C678 1.516 . S
C678 C677 1.516 . S
C678 C679 1.502 . S
C678 C680 1.561 1_455 S
C678 C681 1.526 . S
C679 H663 0.959 . S
C679 H664 0.959 . S
C679 H665 0.961 . S
C679 C678 1.502 . S
C680 H666 0.960 . S
C680 H667 0.961 . S
C680 H668 0.959 . S
C680 C678 1.561 1_655 S
C681 C678 1.526 . S
C681 C682 1.396 . S
C681 C686 1.390 . S
C682 C676 1.465 . S
C682 C681 1.396 . S
C682 C683 1.399 . S
C683 H669 0.929 . S
C683 C682 1.399 . S
C683 C684 1.385 . S
C684 H670 0.931 . S
C684 C683 1.385 . S
C684 C685 1.389 . S
C685 C684 1.389 . S
C685 C686 1.387 . S
C686 H671 0.930 . S
C686 C681 1.390 . S
C686 C685 1.387 . S
H687 C699 0.930 1_565 S
H688 C701 0.930 . S
H689 C702 0.930 . S
H690 C706 0.959 . S
H691 C706 0.959 . S
H692 C706 0.961 . S
H693 C707 0.960 . S
H694 C707 0.961 . S
H695 C707 0.959 . S
H696 C710 0.929 . S
H697 C711 0.931 . S
H698 C713 0.930 1_565 S
C699 H687 0.930 1_545 S
C699 C700 1.399 . S
C699 C704 1.399 . S
C700 C699 1.399 . S
C700 C701 1.376 . S
C701 H688 0.930 . S
C701 C700 1.376 . S
C701 C702 1.388 . S
C702 H689 0.930 . S
C702 C701 1.388 . S
C702 C703 1.390 . S
C703 C702 1.390 . S
C703 C704 1.394 . S
C703 C709 1.465 . S
C704 C699 1.399 . S
C704 C703 1.394 . S
C704 C705 1.516 1_545 S
C705 C704 1.516 1_565 S
C705 C706 1.502 . S
C705 C707 1.561 . S
C705 C708 1.526 1_565 S
C706 H690 0.959 . S
C706 H691 0.959 . S
C706 H692 0.961 . S
C706 C705 1.502 . S
C707 H693 0.960 . S
C707 H694 0.961 . S
C707 H695 0.959 . S
C707 C705 1.561 . S
C708 C705 1.526 1_545 S
C708 C709 1.396 . S
C708 C713 1.390 . S
C709 C703 1.465 . S
C709 C708 1.396 . S
C709 C710 1.399 . S
C710 H696 0.929 . S
C710 C709 1.399 . S
C710 C711 1.385 . S
C711 H697 0.931 . S
C711 C710 1.385 . S
C711 C712 1.389 . S
C712 C711 1.389 . S
C712 C713 1.387 . S
C713 H698 0.930 1_545 S
C713 C708 1.390 . S
C713 C712 1.387 . S
H714 C726 0.930 . S
H715 C728 0.930 . S
H716 C729 0.930 . S
H717 C733 0.959 . S
H718 C733 0.959 . S
H719 C733 0.961 . S
H720 C734 0.960 . S
H721 C734 0.961 . S
H722 C734 0.959 . S
H723 C737 0.929 . S
H724 C738 0.931 . S
H725 C740 0.930 . S
C726 H714 0.930 . S
C726 C727 1.399 . S
C726 C731 1.399 . S
C727 C726 1.399 . S
C727 C728 1.376 . S
C728 H715 0.930 . S
C728 C727 1.376 . S
C728 C729 1.388 . S
C729 H716 0.930 . S
C729 C728 1.388 . S
C729 C730 1.390 . S
C730 C729 1.390 . S
C730 C731 1.394 . S
C730 C736 1.465 . S
C731 C726 1.399 . S
C731 C730 1.394 . S
C731 C732 1.516 . S
C732 C731 1.516 . S
C732 C733 1.502 . S
C732 C734 1.561 . S
C732 C735 1.526 . S
C733 H717 0.959 . S
C733 H718 0.959 . S
C733 H719 0.961 . S
C733 C732 1.502 . S
C734 H720 0.960 . S
C734 H721 0.961 . S
C734 H722 0.959 . S
C734 C732 1.561 . S
C735 C732 1.526 . S
C735 C736 1.396 . S
C735 C740 1.390 . S
C736 C730 1.465 . S
C736 C735 1.396 . S
C736 C737 1.399 . S
C737 H723 0.929 . S
C737 C736 1.399 . S
C737 C738 1.385 . S
C738 H724 0.931 . S
C738 C737 1.385 . S
C738 C739 1.389 . S
C739 C738 1.389 . S
C739 C740 1.387 . S
C740 H725 0.930 . S
C740 C735 1.390 . S
C740 C739 1.387 . S
H741 C753 0.930 . S
H742 C755 0.930 . S
H743 C756 0.930 . S
H744 C760 0.959 . S
H745 C760 0.959 . S
H746 C760 0.961 . S
H747 C761 0.960 . S
H748 C761 0.961 . S
H749 C761 0.959 . S
H750 C764 0.929 . S
H751 C765 0.931 . S
H752 C767 0.930 . S
C753 H741 0.930 . S
C753 C754 1.399 . S
C753 C758 1.399 . S
C754 C753 1.399 . S
C754 C755 1.376 1_545 S
C755 H742 0.930 . S
C755 C754 1.376 1_565 S
C755 C756 1.388 . S
C756 H743 0.930 . S
C756 C755 1.388 . S
C756 C757 1.390 . S
C757 C756 1.390 . S
C757 C758 1.394 1_565 S
C757 C763 1.465 . S
C758 C753 1.399 . S
C758 C757 1.394 1_545 S
C758 C759 1.516 . S
C759 C758 1.516 . S
C759 C760 1.502 . S
C759 C761 1.561 . S
C759 C762 1.526 . S
C760 H744 0.959 . S
C760 H745 0.959 . S
C760 H746 0.961 . S
C760 C759 1.502 . S
C761 H747 0.960 . S
C761 H748 0.961 . S
C761 H749 0.959 . S
C761 C759 1.561 . S
C762 C759 1.526 . S
C762 C763 1.396 1_545 S
C762 C767 1.390 . S
C763 C757 1.465 . S
C763 C762 1.396 1_565 S
C763 C764 1.399 . S
C764 H750 0.929 . S
C764 C763 1.399 . S
C764 C765 1.385 . S
C765 H751 0.931 . S
C765 C764 1.385 . S
C765 C766 1.389 . S
C766 C765 1.389 . S
C766 C767 1.387 1_565 S
C767 H752 0.930 . S
C767 C762 1.390 . S
C767 C766 1.387 1_545 S
H768 C780 0.930 . S
H769 C782 0.930 . S
H770 C783 0.930 . S
H771 C787 0.959 . S
H772 C787 0.959 . S
H773 C787 0.961 . S
H774 C788 0.960 . S
H775 C788 0.961 . S
H776 C788 0.959 . S
H777 C791 0.929 . S
H778 C792 0.931 . S
H779 C794 0.930 . S
C780 H768 0.930 . S
C780 C781 1.399 . S
C780 C785 1.399 . S
C781 C780 1.399 . S
C781 C782 1.376 . S
C782 H769 0.930 . S
C782 C781 1.376 . S
C782 C783 1.388 . S
C783 H770 0.930 . S
C783 C782 1.388 . S
C783 C784 1.390 . S
C784 C783 1.390 . S
C784 C785 1.394 . S
C784 C790 1.465 . S
C785 C780 1.399 . S
C785 C784 1.394 . S
C785 C786 1.516 . S
C786 C785 1.516 . S
C786 C787 1.502 . S
C786 C788 1.561 . S
C786 C789 1.526 . S
C787 H771 0.959 . S
C787 H772 0.959 . S
C787 H773 0.961 . S
C787 C786 1.502 . S
C788 H774 0.960 . S
C788 H775 0.961 . S
C788 H776 0.959 . S
C788 C786 1.561 . S
C789 C786 1.526 . S
C789 C790 1.396 . S
C789 C794 1.390 . S
C790 C784 1.465 . S
C790 C789 1.396 . S
C790 C791 1.399 . S
C791 H777 0.929 . S
C791 C790 1.399 . S
C791 C792 1.385 . S
C792 H778 0.931 . S
C792 C791 1.385 . S
C792 C793 1.389 . S
C793 C792 1.389 . S
C793 C794 1.387 . S
C794 H779 0.930 . S
C794 C789 1.390 . S
C794 C793 1.387 . S
H795 C807 0.930 . S
H796 C809 0.930 . S
H797 C810 0.930 . S
H798 C814 0.959 . S
H799 C814 0.959 . S
H800 C814 0.961 . S
H801 C815 0.960 . S
H802 C815 0.961 . S
H803 C815 0.959 . S
H804 C818 0.929 . S
H805 C819 0.931 . S
H806 C821 0.930 . S
C807 H795 0.930 . S
C807 C808 1.399 . S
C807 C812 1.399 . S
C808 C807 1.399 . S
C808 C809 1.376 1_455 S
C809 H796 0.930 . S
C809 C808 1.376 1_655 S
C809 C810 1.388 . S
C810 H797 0.930 . S
C810 C809 1.388 . S
C810 C811 1.390 . S
C811 C810 1.390 . S
C811 C812 1.394 1_655 S
C811 C817 1.465 . S
C812 C807 1.399 . S
C812 C811 1.394 1_455 S
C812 C813 1.516 . S
C813 C812 1.516 . S
C813 C814 1.502 . S
C813 C815 1.561 . S
C813 C816 1.526 . S
C814 H798 0.959 . S
C814 H799 0.959 . S
C814 H800 0.961 . S
C814 C813 1.502 . S
C815 H801 0.960 . S
C815 H802 0.961 . S
C815 H803 0.959 . S
C815 C813 1.561 . S
C816 C813 1.526 . S
C816 C817 1.396 1_455 S
C816 C821 1.390 . S
C817 C811 1.465 . S
C817 C816 1.396 1_655 S
C817 C818 1.399 . S
C818 H804 0.929 . S
C818 C817 1.399 . S
C818 C819 1.385 . S
C819 H805 0.931 . S
C819 C818 1.385 . S
C819 C820 1.389 . S
C820 C819 1.389 . S
C820 C821 1.387 1_655 S
C821 H806 0.930 . S
C821 C816 1.390 . S
C821 C820 1.387 1_455 S
C349 C25 0.388 . S
C361 C325 0.335 . S
C376 C65 0.411 . S
C388 C253 0.414 . S
C403 C105 0.541 . S
C415 C289 0.434 . S
C430 C4 0.314 . S
C442 C301 0.336 . S
C469 C229 0.369 . S
C457 C44 0.475 . S
C496 C265 0.456 . S
C484 C84 0.532 . S
C511 C60 2.909 . S
C523 C181 2.855 . S
C538 C100 3.086 . S
C550 C193 3.049 . S
C565 C31 3.100 . S
C577 C121 3.039 . S
C604 C157 3.041 . S
C592 C71 3.091 . S
C631 C217 2.842 . S
C619 C111 2.919 . S
C646 C20 2.912 . S
C658 C145 2.858 . S
C685 C223 1.801 1_554 S
C673 C2 1.702 . S
C700 C42 1.750 . S
C712 C151 1.794 . S
C727 C82 1.770 . S
C739 C187 1.796 . S
C766 C295 1.092 . S
C754 C63 1.092 . S
C793 C331 1.115 1_556 S
C781 C103 1.077 . S
C808 C23 1.071 . S
C820 C259 1.069 1_655 S
