# Generated by pormake.
# Topology zzz, (3,6)-cn, num edge types: 1
# Building blocks:
#     Node 0, Type 0, BuildingBlock: CUQRIR_clean_linker_1, # of connection points: 3
#     Node 1, Type 0, BuildingBlock: CUQRIR_clean_linker_1, # of connection points: 3
#     Node 2, Type 0, BuildingBlock: CUQRIR_clean_linker_1, # of connection points: 3
#     Node 3, Type 0, BuildingBlock: CUQRIR_clean_linker_1, # of connection points: 3
#     Node 4, Type 0, BuildingBlock: CUQRIR_clean_linker_1, # of connection points: 3
#     Node 5, Type 0, BuildingBlock: CUQRIR_clean_linker_1, # of connection points: 3
#     Node 6, Type 0, BuildingBlock: CUQRIR_clean_linker_1, # of connection points: 3
#     Node 7, Type 0, BuildingBlock: CUQRIR_clean_linker_1, # of connection points: 3
#     Node 8, Type 1, BuildingBlock: BETFEN_clean_sbu_0, # of connection points: 6
#     Node 9, Type 1, BuildingBlock: BETFEN_clean_sbu_0, # of connection points: 6
#     Node 10, Type 1, BuildingBlock: BETFEN_clean_sbu_0, # of connection points: 6
#     Node 11, Type 1, BuildingBlock: BETFEN_clean_sbu_0, # of connection points: 6
#     Edge 12, Type (0, 1), BuildingBlock: EZIPEK_clean_linker_0, # of connection points: 2
#     Edge 13, Type (0, 1), BuildingBlock: EZIPEK_clean_linker_0, # of connection points: 2
#     Edge 14, Type (0, 1), BuildingBlock: EZIPEK_clean_linker_0, # of connection points: 2
#     Edge 15, Type (0, 1), BuildingBlock: EZIPEK_clean_linker_0, # of connection points: 2
#     Edge 16, Type (0, 1), BuildingBlock: EZIPEK_clean_linker_0, # of connection points: 2
#     Edge 17, Type (0, 1), BuildingBlock: EZIPEK_clean_linker_0, # of connection points: 2
#     Edge 18, Type (0, 1), BuildingBlock: EZIPEK_clean_linker_0, # of connection points: 2
#     Edge 19, Type (0, 1), BuildingBlock: EZIPEK_clean_linker_0, # of connection points: 2
#     Edge 20, Type (0, 1), BuildingBlock: EZIPEK_clean_linker_0, # of connection points: 2
#     Edge 21, Type (0, 1), BuildingBlock: EZIPEK_clean_linker_0, # of connection points: 2
#     Edge 22, Type (0, 1), BuildingBlock: EZIPEK_clean_linker_0, # of connection points: 2
#     Edge 23, Type (0, 1), BuildingBlock: EZIPEK_clean_linker_0, # of connection points: 2
#     Edge 24, Type (0, 1), BuildingBlock: EZIPEK_clean_linker_0, # of connection points: 2
#     Edge 25, Type (0, 1), BuildingBlock: EZIPEK_clean_linker_0, # of connection points: 2
#     Edge 26, Type (0, 1), BuildingBlock: EZIPEK_clean_linker_0, # of connection points: 2
#     Edge 27, Type (0, 1), BuildingBlock: EZIPEK_clean_linker_0, # of connection points: 2
#     Edge 28, Type (0, 1), BuildingBlock: EZIPEK_clean_linker_0, # of connection points: 2
#     Edge 29, Type (0, 1), BuildingBlock: EZIPEK_clean_linker_0, # of connection points: 2
#     Edge 30, Type (0, 1), BuildingBlock: EZIPEK_clean_linker_0, # of connection points: 2
#     Edge 31, Type (0, 1), BuildingBlock: EZIPEK_clean_linker_0, # of connection points: 2
#     Edge 32, Type (0, 1), BuildingBlock: EZIPEK_clean_linker_0, # of connection points: 2
#     Edge 33, Type (0, 1), BuildingBlock: EZIPEK_clean_linker_0, # of connection points: 2
#     Edge 34, Type (0, 1), BuildingBlock: EZIPEK_clean_linker_0, # of connection points: 2
#     Edge 35, Type (0, 1), BuildingBlock: EZIPEK_clean_linker_0, # of connection points: 2
# Relax obj value: 0.457
# Max RMSD: 0.224
# Mean RMSD: 0.156
data_MOF--net-zzz--node1-BETFEN_clean_sbu_0--node2-CUQRIR_clean_linker_1--edge1-EZIPEK_clean_linker_0
_symmetry_space_group_name_H-M    P1
_symmetry_Int_Tables_number       1
_symmetry_cell_setting            triclinic
loop_
_symmetry_equiv_pos_as_xyz
'x, y, z'
_cell_length_a     35.625468
_cell_length_b     35.547857
_cell_length_c     9.22879
_cell_angle_alpha  89.716086
_cell_angle_beta   89.872987
_cell_angle_gamma 89.766225
loop_
_atom_site_label
_atom_site_type_symbol
_atom_site_fract_x
_atom_site_fract_y
_atom_site_fract_z
_atom_type_partial_charge
C0 C 0.75615 0.53361 0.38383 0.0
N1 N 0.78946 0.51316 0.38966 0.0
N2 N 0.73306 0.52233 0.27097 0.0
C3 C 0.74521 0.56305 0.49195 0.0
C4 C 0.75426 0.49522 0.20742 0.0
N5 N 0.78652 0.48858 0.28139 0.0
C6 C 0.74192 0.47278 0.07628 0.0
H7 H 0.7282 0.58556 0.44068 0.0
H8 H 0.77039 0.57535 0.54367 0.0
H9 H 0.72745 0.54991 0.57698 0.0
H10 H 0.71793 0.48595 0.01896 0.0
H11 H 0.73463 0.44372 0.11016 0.0
H12 H 0.76441 0.47038 0.995 0.0
C13 C 1.00371 0.74736 0.4507 0.0
N14 N 0.0172 0.78392 0.44963 0.0
N15 N 1.01099 0.72858 0.32132 0.0
C16 C 0.9865 0.72928 0.58148 0.0
C17 C 0.02899 0.75557 0.24393 0.0
N18 N 0.03455 0.78693 0.32252 0.0
C19 C 0.04026 0.75232 0.08668 0.0
H20 H 1.00183 0.73804 0.68027 0.0
H21 H 0.98688 0.69817 0.57211 0.0
H22 H 0.95703 0.73905 0.59242 0.0
H23 H 0.02325 0.73094 0.02967 0.0
H24 H 0.07038 0.74461 0.07887 0.0
H25 H 0.03664 0.77987 0.03111 0.0
C26 C 0.77418 0.99675 0.37325 0.0
N27 N 0.74012 0.01586 0.37708 0.0
N28 N 0.79682 1.00844 0.25891 0.0
C29 C 0.78633 0.96859 0.48544 0.0
C30 C 0.77449 0.03429 0.19239 0.0
N31 N 0.74207 0.04007 0.26644 0.0
C32 C 0.78559 0.05625 0.05744 0.0
H33 H 0.80432 0.94642 0.4377 0.0
H34 H 0.76169 0.95559 0.53931 0.0
H35 H 0.80347 0.98308 0.5682 0.0
H36 H 0.76281 0.05719 0.97749 0.0
H37 H 0.80997 0.04365 1.00068 0.0
H38 H 0.79162 0.08587 0.08639 0.0
C39 C 0.51669 0.77847 0.42884 0.0
N40 N 0.50137 0.74306 0.44745 0.0
N41 N 0.50722 0.79457 0.29618 0.0
C42 C 0.53735 0.79845 0.54668 0.0
C43 C 0.48617 0.76662 0.23739 0.0
N44 N 0.48025 0.7377 0.33106 0.0
C45 C 0.47386 0.76517 0.08128 0.0
H46 H 0.53698 0.82934 0.52875 0.0
H47 H 0.56685 0.7884 0.54947 0.0
H48 H 0.52447 0.7917 0.65329 0.0
H49 H 0.48983 0.78515 0.0124 0.0
H50 H 0.44341 0.77137 0.0729 0.0
H51 H 0.47831 0.73632 0.03912 0.0
C52 C 0.27955 0.48688 0.29817 0.0
N53 N 0.24822 0.51019 0.29001 0.0
N54 N 0.30385 0.49711 0.40865 0.0
C55 C 0.28751 0.45544 0.19542 0.0
C56 C 0.28647 0.5274 0.46475 0.0
N57 N 0.25464 0.53588 0.39191 0.0
C58 C 0.30143 0.54973 0.59082 0.0
H59 H 0.28484 0.42827 0.25417 0.0
H60 H 0.31686 0.45753 0.15565 0.0
H61 H 0.26776 0.45598 0.10261 0.0
H62 H 0.32057 0.57183 0.54901 0.0
H63 H 0.31756 0.53143 0.66612 0.0
H64 H 0.27848 0.56363 0.65211 0.0
C65 C 0.02848 0.28871 0.24237 0.0
N66 N 1.01299 0.25289 0.24284 0.0
N67 N 0.02172 0.30804 0.37135 0.0
C68 C 0.04794 0.30535 0.11368 0.0
C69 C 1.00292 0.28182 0.44907 0.0
N70 N 0.9957 0.25092 0.36998 0.0
C71 C 0.99073 0.28618 0.60522 0.0
H72 H 0.07642 0.29281 0.10478 0.0
H73 H 0.05041 0.33633 0.12415 0.0
H74 H 0.03239 0.29824 0.01345 0.0
H75 H 0.96014 0.29202 0.60983 0.0
H76 H 1.00619 0.30895 0.66066 0.0
H77 H 0.99572 0.25964 0.66585 0.0
C78 C 0.24591 0.02764 0.26279 0.0
N79 N 0.2815 1.01174 0.26219 0.0
N80 N 0.22774 0.02333 0.39585 0.0
C81 C 0.22835 0.04509 0.13148 0.0
C82 C 0.25471 1.00607 0.47507 0.0
N83 N 0.28468 0.99655 0.39311 0.0
C84 C 0.25231 0.99823 0.63589 0.0
H85 H 0.24047 0.07348 0.11442 0.0
H86 H 0.19748 0.04768 0.14445 0.0
H87 H 0.23506 0.02803 0.03435 0.0
H88 H 0.25227 0.96744 0.65623 0.0
H89 H 0.22713 1.01126 0.68595 0.0
H90 H 0.27764 1.00955 0.6898 0.0
C91 C 0.49713 0.24361 0.25767 0.0
N92 N 0.51187 0.27962 0.26716 0.0
N93 N 0.50388 0.22215 0.38203 0.0
C94 C 0.47862 0.2289 0.12434 0.0
C95 C 0.52212 0.2472 0.46607 0.0
N96 N 0.52882 0.27971 0.39499 0.0
C97 C 0.53396 0.24027 0.62119 0.0
H98 H 0.44983 0.24079 0.11722 0.0
H99 H 0.47699 0.19773 0.12718 0.0
H100 H 0.49429 0.2383 0.02668 0.0
H101 H 0.56448 0.23402 0.62499 0.0
H102 H 0.51814 0.21678 0.67162 0.0
H103 H 0.52913 0.26589 0.68684 0.0
Pr104 Pr 0.03849 0.01581 0.91348 0.0
Pr105 Pr 0.99035 0.02379 0.74389 0.0
C106 C 0.09953 1.00166 0.07644 0.0
C107 C 0.12874 0.97344 0.04891 0.0
C108 C 0.15276 0.96312 0.16108 0.0
C109 C 0.1555 0.9251 0.19994 0.0
C110 C 0.13476 0.89899 0.1209 0.0
C111 C 0.12257 0.90881 0.98194 0.0
C112 C 0.12031 0.94675 0.94415 0.0
C113 C 0.07495 0.03718 0.64893 0.0
C114 C 0.01548 0.93556 0.73016 0.0
C115 C 0.94518 0.04158 0.51998 0.0
C116 C 0.91913 0.07048 0.47205 0.0
C117 C 0.88928 0.08276 0.56032 0.0
C118 C 0.87531 0.11924 0.54209 0.0
C119 C 0.8931 0.14296 0.4418 0.0
C120 C 0.91538 0.12726 0.33195 0.0
C121 C 0.92946 0.09131 0.34986 0.0
C122 C 0.94799 1.0009 0.99128 0.0
C123 C 1.01078 0.1009 0.95745 0.0
O124 O 0.06621 0.98789 0.10382 0.0
O125 O 0.09815 0.02902 0.98339 0.0
O126 O 0.05173 1.0106 0.66817 0.0
O127 O 0.07238 0.05858 0.76159 0.0
O128 O 0.99968 0.96189 0.65132 0.0
O129 O 0.03078 0.94793 0.85322 0.0
O130 O 0.98007 0.05239 0.53005 0.0
O131 O 0.93477 0.02013 0.62711 0.0
O132 O 0.97481 0.02506 0.99257 0.0
O133 O 0.94787 0.98421 0.8672 0.0
O134 O 0.02493 0.07317 0.03378 0.0
O135 O 0.99735 0.09035 0.82818 0.0
H136 H 0.16402 0.98452 0.22866 0.0
H137 H 0.1677 0.91699 0.30236 0.0
H138 H 0.10797 0.8882 0.91827 0.0
H139 H 0.10433 0.95552 0.85093 0.0
H140 H 0.88028 0.0665 0.6536 0.0
H141 H 0.85719 0.1309 0.62503 0.0
H142 H 0.92844 0.14512 0.25159 0.0
H143 H 0.95178 0.08176 0.27868 0.0
Pr144 Pr 0.51883 0.03022 0.91816 0.0
Pr145 Pr 0.50318 0.98342 0.73176 0.0
C146 C 0.54171 0.0732 0.14116 0.0
C147 C 0.56904 0.10121 0.18648 0.0
C148 C 0.57938 0.13165 0.09797 0.0
C149 C 0.61225 0.15142 0.12843 0.0
C150 C 0.63622 0.1387 0.23988 0.0
C151 C 0.62221 0.1122 0.34027 0.0
C152 C 0.58834 0.0945 0.31515 0.0
C153 C 0.49571 0.07416 0.6731 0.0
C154 C 0.59123 1.00643 0.6879 0.0
C155 C 0.48261 0.93969 0.50711 0.0
C156 C 0.45637 0.91088 0.46071 0.0
C157 C 0.4457 0.88116 0.55306 0.0
C158 C 0.40969 0.86601 0.53952 0.0
C159 C 0.38493 0.8828 0.44027 0.0
C160 C 0.40014 0.9027 0.32269 0.0
C161 C 0.43551 0.91834 0.33596 0.0
C162 C 0.52566 0.93995 0.97983 0.0
C163 C 0.43027 1.00817 0.95547 0.0
O164 O 0.55489 0.03958 0.11462 0.0
O165 O 0.51584 0.08369 0.05013 0.0
O166 O 0.51849 0.04631 0.67062 0.0
O167 O 0.4808 0.076 0.8008 0.0
O168 O 0.56304 0.98946 0.6268 0.0
O169 O 0.58311 0.02296 0.81435 0.0
O170 O 0.46833 0.97304 0.53151 0.0
O171 O 0.50781 0.92993 0.60178 0.0
O172 O 0.50258 0.9675 0.97866 0.0
O173 O 0.5412 0.93821 0.85342 0.0
O174 O 0.45885 0.02154 0.02788 0.0
O175 O 0.43888 0.99362 0.82628 0.0
H176 H 0.56377 0.1384 1.0006 0.0
H177 H 0.62103 0.1733 0.05423 0.0
H178 H 0.63884 0.10221 0.4308 0.0
H179 H 0.5787 0.07347 0.39108 0.0
H180 H 0.46242 0.87369 0.64676 0.0
H181 H 0.39893 0.84854 0.62654 0.0
H182 H 0.38179 0.91398 0.24049 0.0
H183 H 0.44412 0.93998 0.25974 0.0
Pr184 Pr 0.49201 0.52082 0.93664 0.0
Pr185 Pr 0.53624 0.50689 0.76127 0.0
C186 C 0.44191 0.56033 0.08684 0.0
C187 C 0.41983 0.5942 0.04642 0.0
C188 C 0.38036 0.5936 0.0486 0.0
C189 C 0.36094 0.62657 0.0855 0.0
C190 C 0.38123 0.65994 0.10315 0.0
C191 C 0.41604 0.66203 0.03108 0.0
C192 C 0.43739 0.62907 0.0248 0.0
C193 C 0.44868 0.49069 0.70335 0.0
C194 C 0.51417 0.59418 0.7272 0.0
C195 C 0.57836 0.48485 0.53447 0.0
C196 C 0.60633 0.45749 0.49163 0.0
C197 C 0.63498 0.44605 0.58695 0.0
C198 C 0.64942 0.40959 0.57593 0.0
C199 C 0.63295 0.38512 0.47611 0.0
C200 C 0.61263 0.40009 0.35913 0.0
C201 C 0.59797 0.436 0.36993 0.0
C202 C 0.58286 0.53096 0.99711 0.0
C203 C 0.51318 0.43382 0.99317 0.0
O204 O 0.47801 0.56433 0.106 0.0
O205 O 0.43302 0.52872 0.02587 0.0
O206 O 0.47359 0.51645 0.69407 0.0
O207 O 0.4497 0.47721 0.83373 0.0
O208 O 0.52349 0.56579 0.64536 0.0
O209 O 0.50558 0.58483 0.86106 0.0
O210 O 0.54546 0.47082 0.56523 0.0
O211 O 0.58861 0.51111 0.62331 0.0
O212 O 0.55523 0.50802 0.00729 0.0
O213 O 0.58232 0.54592 0.86903 0.0
O214 O 0.49918 0.46266 0.06532 0.0
O215 O 0.52771 0.44264 0.86334 0.0
H216 H 0.36536 0.56728 0.04459 0.0
H217 H 0.33227 0.62462 0.1228 0.0
H218 H 0.43095 0.68848 0.02688 0.0
H219 H 0.46752 0.63132 0.01319 0.0
H220 H 0.64216 0.46281 0.68054 0.0
H221 H 0.66628 0.39852 0.66402 0.0
H222 H 0.60095 0.38165 0.2784 0.0
H223 H 0.57642 0.44486 0.29408 0.0
Pr224 Pr 1.00949 0.49456 0.93699 0.0
Pr225 Pr 0.02604 0.54226 0.75737 0.0
C226 C 0.98407 0.45082 0.1553 0.0
C227 C 0.95516 0.42394 0.1973 0.0
C228 C 0.94456 0.39384 0.10881 0.0
C229 C 0.91143 0.37435 0.13926 0.0
C230 C 0.88773 0.38656 0.25251 0.0
C231 C 0.90202 0.41257 0.35288 0.0
C232 C 0.93546 0.43093 0.32493 0.0
C233 C 0.03289 0.4519 0.69022 0.0
C234 C 0.93786 0.52033 0.70603 0.0
C235 C 0.04873 0.58659 0.53638 0.0
C236 C 0.07683 0.61402 0.49374 0.0
C237 C 0.08834 0.64273 0.58789 0.0
C238 C 0.12437 0.65768 0.57257 0.0
C239 C 0.14852 0.64175 0.46939 0.0
C240 C 0.13304 0.6217 0.35377 0.0
C241 C 0.09759 0.6064 0.3688 0.0
C242 C 1.00225 0.58434 1.00596 0.0
C243 C 0.09839 0.51589 0.98154 0.0
O244 O 0.97264 0.48523 0.13162 0.0
O245 O 1.0098 0.43988 0.06439 0.0
O246 O 1.01051 0.4801 0.68893 0.0
O247 O 0.04739 0.44897 0.81828 0.0
O248 O 0.9663 0.53804 0.64829 0.0
O249 O 0.94559 0.5026 0.83085 0.0
O250 O 0.06102 0.55227 0.5569 0.0
O251 O 0.02402 0.59695 0.63219 0.0
O252 O 0.02533 0.55674 1.00521 0.0
O253 O 0.98749 0.587 0.87847 0.0
O254 O 0.06946 0.50121 0.0493 0.0
O255 O 0.09032 0.53221 0.85435 0.0
H256 H 0.96033 0.38704 0.01185 0.0
H257 H 0.90234 0.35294 0.06453 0.0
H258 H 0.88563 0.42224 0.44447 0.0
H259 H 0.94496 0.45202 0.39983 0.0
H260 H 0.07197 0.64985 0.683 0.0
H261 H 0.1356 0.67461 0.65946 0.0
H262 H 0.15109 0.61058 0.27021 0.0
H263 H 0.08847 0.58525 0.29236 0.0
C264 C 0.16642 0.9962 0.49354 0.0
C265 C 0.18787 0.02788 0.44371 0.0
C266 C 0.13307 0.06773 0.5204 0.0
C267 C 0.11125 0.03511 0.5566 0.0
N268 N 0.10472 0.96925 0.50439 0.0
N269 N 0.18976 0.09478 0.41 0.0
C270 C 0.1272 0.99976 0.52222 0.0
C271 C 0.17034 0.06396 0.45606 0.0
N272 N 0.18249 0.96159 0.50855 0.0
N273 N 0.11803 0.10242 0.54654 0.0
H274 H 0.21756 0.09306 0.37506 0.0
H275 H 0.17818 0.1216 0.40099 0.0
H276 H 0.09012 0.10615 0.57787 0.0
H277 H 0.13304 0.1274 0.53928 0.0
H278 H 0.16955 0.93987 0.56625 0.0
H279 H 0.20854 0.9545 0.46738 0.0
H280 H 0.11515 0.94317 0.4722 0.0
H281 H 0.07564 0.97113 0.49759 0.0
C282 C 0.5345 0.16258 0.47139 0.0
C283 C 0.5015 0.18126 0.4196 0.0
C284 C 0.4656 0.1254 0.50838 0.0
C285 C 0.49822 0.10958 0.57635 0.0
N286 N 0.56247 0.11958 0.64724 0.0
N287 N 0.43422 0.18142 0.41124 0.0
C288 C 0.53234 0.13008 0.56461 0.0
C289 C 0.46664 0.16264 0.44289 0.0
N290 N 0.56833 0.1773 0.4339 0.0
N291 N 0.43341 0.10474 0.50586 0.0
H292 H 0.43421 0.20842 0.36662 0.0
H293 H 0.4077 0.1715 0.43912 0.0
H294 H 0.4316 0.07807 0.55314 0.0
H295 H 0.40975 0.11262 0.44683 0.0
H296 H 0.59395 0.16939 0.47813 0.0
H297 H 0.57039 0.19637 0.34898 0.0
H298 H 0.58699 0.13519 0.65555 0.0
H299 H 0.56197 0.09699 0.71938 0.0
C300 C 0.37266 0.51058 0.40886 0.0
C301 C 0.34278 0.48638 0.44903 0.0
C302 C 0.38646 0.45691 0.62821 0.0
C303 C 0.41476 0.48472 0.60008 0.0
N304 N 0.43847 0.5291 0.42784 0.0
N305 N 0.32075 0.43772 0.60644 0.0
C306 C 0.40882 0.50887 0.47933 0.0
C307 C 0.34986 0.45952 0.56026 0.0
N308 N 0.36554 0.5366 0.30484 0.0
N309 N 0.39529 0.42647 0.71237 0.0
H310 H 0.2946 0.43848 0.55556 0.0
H311 H 0.32182 0.42079 0.69875 0.0
H312 H 0.42246 0.42128 0.74917 0.0
H313 H 0.37727 0.40389 0.72925 0.0
H314 H 0.3834 0.55862 0.28455 0.0
H315 H 0.34068 0.53704 0.24528 0.0
H316 H 0.43642 0.55171 0.35776 0.0
H317 H 0.46621 0.52136 0.44791 0.0
C318 C 0.06073 0.36484 0.44947 0.0
C319 C 0.02528 0.34802 0.41932 0.0
C320 C 0.99558 0.39869 0.56958 0.0
C321 C 0.0303 0.41736 0.58987 0.0
N322 N 0.09603 0.41982 0.53064 0.0
N323 N 0.95794 0.35505 0.44169 0.0
C324 C 0.06287 0.40086 0.52369 0.0
C325 C 0.99286 0.36727 0.4742 0.0
N326 N 0.09255 0.34529 0.41596 0.0
N327 N 0.96448 0.40978 0.64547 0.0
H328 H 0.95264 0.33416 0.36612 0.0
H329 H 0.95264 0.33416 0.36612 0.0
H330 H 0.9648 0.4308 0.72358 0.0
H331 H 0.93868 0.39617 0.63652 0.0
H332 H 0.11929 0.35347 0.44794 0.0
H333 H 0.09176 0.31921 0.36493 0.0
H334 H 0.12002 0.41168 0.47426 0.0
H335 H 0.09859 0.44549 0.58408 0.0
C336 C 0.85358 0.96942 0.17507 0.0
C337 C 0.83765 1.00384 0.22554 0.0
C338 C 0.8922 0.03637 0.11233 0.0
C339 C 0.91147 1.002 0.0836 0.0
N340 N 0.91018 0.93445 0.10912 0.0
N341 N 0.84687 0.06949 0.26429 0.0
C342 C 0.8921 0.96813 0.12299 0.0
C343 C 0.85967 0.0368 0.2053 0.0
N344 N 0.83124 0.93855 0.16466 0.0
N345 N 0.90234 0.06812 0.03911 0.0
H346 H 0.82601 0.0697 0.34383 0.0
H347 H 0.85662 0.09592 0.23579 0.0
H348 H 0.92287 0.06788 0.95876 0.0
H349 H 0.88703 0.0931 0.04313 0.0
H350 H 0.84001 0.91362 0.116 0.0
H351 H 0.8028 0.93938 0.19153 0.0
H352 H 0.89889 0.90923 0.14686 0.0
H353 H 0.93783 0.93241 0.07221 0.0
C354 C 0.48168 0.85151 0.15911 0.0
C355 C 0.5123 0.83314 0.23175 0.0
C356 C 0.55111 0.8885 0.15599 0.0
C357 C 0.52107 0.90402 0.07175 0.0
N358 N 0.4617 0.89115 0.95887 0.0
N359 N 0.57944 0.83187 0.26004 0.0
C360 C 0.48764 0.88268 0.06288 0.0
C361 C 0.54799 0.85123 0.22046 0.0
N362 N 0.44609 0.83992 0.18575 0.0
N363 N 0.58289 0.90921 0.17412 0.0
H364 H 0.57848 0.80392 0.29427 0.0
H365 H 0.6065 0.84202 0.24312 0.0
H366 H 0.58623 0.93576 0.12711 0.0
H367 H 0.60431 0.90135 0.24491 0.0
H368 H 0.42238 0.85078 0.13453 0.0
H369 H 0.44039 0.82287 0.27375 0.0
H370 H 0.46503 0.91306 0.88454 0.0
H371 H 0.43891 0.8739 0.93596 0.0
C372 C 0.67817 0.56224 0.17529 0.0
C373 C 0.69243 0.52822 0.23725 0.0
C374 C 0.63714 0.49594 0.13073 0.0
C375 C 0.61951 0.53037 0.08903 0.0
N376 N 0.62351 0.59806 0.09273 0.0
N377 N 0.68051 0.46395 0.29514 0.0
C378 C 0.64008 0.56407 0.11899 0.0
C379 C 0.66913 0.49595 0.22611 0.0
N380 N 0.70173 0.59207 0.15936 0.0
N381 N 0.62637 0.46347 0.06556 0.0
H382 H 0.70127 0.46434 0.37475 0.0
H383 H 0.66974 0.43752 0.27465 0.0
H384 H 0.607 0.46348 0.98131 0.0
H385 H 0.64042 0.43796 0.07905 0.0
H386 H 0.69442 0.61639 0.10245 0.0
H387 H 0.72975 0.59082 0.19159 0.0
H388 H 0.63557 0.62347 0.12329 0.0
H389 H 0.59624 0.60049 0.05253 0.0
C390 C 0.97348 0.66994 0.251 0.0
C391 C 1.00837 0.68857 0.27321 0.0
C392 C 0.03823 0.64026 0.1141 0.0
C393 C 1.00459 0.61904 0.10538 0.0
N394 N 0.94045 0.6124 0.18355 0.0
N395 N 0.07511 0.68442 0.25331 0.0
C396 C 0.97235 0.63349 0.18015 0.0
C397 C 0.041 0.67097 0.21399 0.0
N398 N 0.94112 0.68795 0.28901 0.0
N399 N 0.06712 0.63255 0.02135 0.0
H400 H 0.07753 0.70113 0.34473 0.0
H401 H 0.10047 0.67618 0.20739 0.0
H402 H 0.06548 0.61192 0.94183 0.0
H403 H 0.09093 0.64928 0.0118 0.0
H404 H 0.91453 0.678 0.263 0.0
H405 H 0.94114 0.71448 0.33665 0.0
H406 H 0.91718 0.61916 0.24693 0.0
H407 H 0.9386 0.58645 0.1317 0.0
C408 C 0.97274 0.19715 0.50433 0.0
C409 C 0.96573 0.22599 0.40421 0.0
C410 C 0.89898 0.2102 0.39727 0.0
C411 C 0.90698 0.17963 0.48902 0.0
N412 N 0.94637 0.15291 0.67331 0.0
N413 N 0.92186 0.266 0.27642 0.0
C414 C 0.94202 0.17715 0.56064 0.0
C415 C 0.92854 0.23474 0.35837 0.0
N416 N 1.0089 0.1888 0.54262 0.0
N417 N 0.86408 0.21304 0.33755 0.0
H418 H 0.94352 0.28242 0.2357 0.0
H419 H 0.89513 0.27616 0.25238 0.0
H420 H 0.84247 0.19496 0.36942 0.0
H421 H 0.85695 0.23202 0.25581 0.0
H422 H 0.01673 0.16535 0.60349 0.0
H423 H 0.03173 0.20415 0.5038 0.0
H424 H 0.97162 0.14947 0.72708 0.0
H425 H 0.92366 0.13937 0.72129 0.0
C426 C 0.2952 0.92765 0.37811 0.0
C427 C 0.30691 0.96398 0.4246 0.0
C428 C 0.35591 0.935 0.56718 0.0
C429 C 0.35011 0.90056 0.49398 0.0
N430 N 0.31003 0.86179 0.35112 0.0
N431 N 0.34958 1.00295 0.55498 0.0
C432 C 0.31782 0.89604 0.40914 0.0
C433 C 0.33761 0.96784 0.51754 0.0
N434 N 0.26339 0.92239 0.30008 0.0
N435 N 0.38016 0.93642 0.67985 0.0
H436 H 0.33579 0.02736 0.52062 0.0
H437 H 0.37463 1.00813 0.60905 0.0
H438 H 0.39076 0.91228 0.72954 0.0
H439 H 0.38545 0.96116 0.73407 0.0
H440 H 0.24519 0.94406 0.26968 0.0
H441 H 0.24519 0.94406 0.26968 0.0
H442 H 0.28705 0.85733 0.2834 0.0
H443 H 0.32667 0.83822 0.37403 0.0
C444 C 0.55157 0.33211 0.53678 0.0
C445 C 0.55887 0.30401 0.43441 0.0
C446 C 0.62614 0.31805 0.43802 0.0
C447 C 0.6178 0.34897 0.52628 0.0
N448 N 0.57726 0.37725 0.70291 0.0
N449 N 0.6028 0.26473 0.30484 0.0
C450 C 0.58211 0.35227 0.59359 0.0
C451 C 0.59628 0.29491 0.39174 0.0
N452 N 0.5153 0.33946 0.57691 0.0
N453 N 0.66195 0.3139 0.38754 0.0
H454 H 0.58105 0.24995 0.2574 0.0
H455 H 0.62933 0.2541 0.28085 0.0
H456 H 0.68352 0.33123 0.42434 0.0
H457 H 0.67017 0.29435 0.3101 0.0
H458 H 0.50695 0.36171 0.64233 0.0
H459 H 0.49272 0.324 0.5376 0.0
H460 H 0.55166 0.38236 0.75257 0.0
H461 H 0.59988 0.39045 0.75186 0.0
C462 C 0.2017 0.55975 0.53 0.0
C463 C 0.23073 0.56657 0.4302 0.0
C464 C 0.21605 0.63375 0.42664 0.0
C465 C 0.18489 0.62611 0.51582 0.0
N466 N 0.15832 0.5867 0.7015 0.0
N467 N 0.27407 0.61065 0.32261 0.0
C468 C 0.18189 0.59076 0.58654 0.0
C469 C 0.24089 0.60393 0.39165 0.0
N470 N 0.19357 0.52368 0.57085 0.0
N471 N 0.21961 0.66867 0.36653 0.0
H472 H 0.29233 0.58907 0.29247 0.0
H473 H 0.2845 0.63761 0.30488 0.0
H474 H 0.20155 0.69064 0.39547 0.0
H475 H 0.23915 0.67524 0.28626 0.0
H476 H 0.16993 0.51611 0.63049 0.0
H477 H 0.20947 0.50065 0.53709 0.0
H478 H 0.15397 0.56123 0.75401 0.0
H479 H 0.1463 0.60976 0.7531 0.0
C480 C 0.04788 0.85163 0.25164 0.0
C481 C 0.06105 0.81554 0.28466 0.0
C482 C 0.12518 0.83392 0.21992 0.0
C483 C 0.11203 0.87091 0.19908 0.0
N484 N 0.06368 0.91674 0.2528 0.0
N485 N 0.11331 0.77423 0.33604 0.0
C486 C 0.07417 0.88037 0.23268 0.0
C487 C 0.10016 0.80711 0.2793 0.0
N488 N 1.01039 0.85823 0.23486 0.0
N489 N 0.16105 0.82446 0.18209 0.0
H490 H 0.09571 0.75593 0.39118 0.0
H491 H 0.14172 0.76759 0.34446 0.0
H492 H 0.18029 0.84425 0.1439 0.0
H493 H 0.17085 0.79681 0.181 0.0
H494 H 0.99969 0.88396 0.19873 0.0
H495 H 0.99057 0.83679 0.24311 0.0
H496 H 0.03692 0.92468 0.28741 0.0
H497 H 0.08349 0.93787 0.25701 0.0
C498 C 0.72347 0.10334 0.35871 0.0
C499 C 0.72038 0.0743 0.25333 0.0
C500 C 0.68823 0.11871 0.09754 0.0
C501 C 0.67755 0.13962 0.21906 0.0
N502 N 0.69438 0.16025 0.45573 0.0
N503 N 0.69485 0.05461 0.02489 0.0
C504 C 0.69982 0.13569 0.3449 0.0
C505 C 0.70142 0.08212 0.1225 0.0
N506 N 0.74881 0.10022 0.46851 0.0
N507 N 0.68307 0.13244 0.96118 0.0
H508 H 0.70448 0.02729 0.0422 0.0
H509 H 0.67836 0.05927 0.93322 0.0
H510 H 0.67481 0.16028 0.94361 0.0
H511 H 0.69127 0.11748 0.86927 0.0
H512 H 0.75374 0.12162 0.54268 0.0
H513 H 0.76708 0.0774 0.47744 0.0
H514 H 0.70621 0.15688 0.55811 0.0
H515 H 0.67634 0.18332 0.44339 0.0
C516 C 0.44526 0.67671 0.34098 0.0
C517 C 0.44568 0.71637 0.33202 0.0
C518 C 0.37992 0.71589 0.25918 0.0
C519 C 0.38232 0.67654 0.25058 0.0
N520 N 0.40386 0.62475 0.39655 0.0
N521 N 0.40591 0.77021 0.37847 0.0
C522 C 0.40984 0.65923 0.3385 0.0
C523 C 0.41045 0.73536 0.32183 0.0
N524 N 0.4773 0.65595 0.33346 0.0
N525 N 0.35024 0.73427 0.19908 0.0
H526 H 0.42707 0.78236 0.44041 0.0
H527 H 0.38012 0.78422 0.37869 0.0
H528 H 0.32805 0.71934 0.15322 0.0
H529 H 0.34889 0.76354 0.19163 0.0
H530 H 0.47688 0.62659 0.33367 0.0
H531 H 0.50309 0.66838 0.31047 0.0
H532 H 0.42431 0.61093 0.45774 0.0
H533 H 0.37696 0.61323 0.39535 0.0
C534 C 0.82519 0.44515 0.13689 0.0
C535 C 0.80709 0.45367 0.26903 0.0
C536 C 0.82431 0.39083 0.35859 0.0
C537 C 0.84638 0.38636 0.23228 0.0
N538 N 0.84044 0.39423 0.97488 0.0
N539 N 0.77776 0.42864 0.48548 0.0
C540 C 0.8363 0.40796 0.11129 0.0
C541 C 0.80262 0.42447 0.3743 0.0
N542 N 0.83258 0.47246 0.0381 0.0
N543 N 0.82842 0.36543 0.46828 0.0
H544 H 0.76095 0.45253 0.49599 0.0
H545 H 0.77176 0.40732 0.5596 0.0
H546 H 0.84521 0.3415 0.45453 0.0
H547 H 0.81676 0.36884 0.57096 0.0
H548 H 0.8484 0.46721 0.94514 0.0
H549 H 0.82419 0.50016 0.05557 0.0
H550 H 0.83269 0.40971 0.88321 0.0
H551 H 0.84758 0.36611 0.95743 0.0
C552 C 0.04671 0.19293 0.15951 0.0
C553 C 0.01664 0.2194 0.14432 0.0
C554 C 0.98186 0.16847 0.015 0.0
C555 C 1.01302 0.14279 0.01593 0.0
N556 N 0.07918 0.13709 0.06885 0.0
N557 N 0.96117 0.23384 0.00934 0.0
C558 C 0.04659 0.15706 0.08272 0.0
C559 C 0.98601 0.20747 0.05733 0.0
N560 N 0.07546 0.20165 0.2504 0.0
N561 N 0.94709 0.15527 0.98427 0.0
H562 H 0.96593 0.26243 0.02595 0.0
H563 H 0.93953 0.22766 0.9375 0.0
H564 H 0.94274 0.12718 0.9596 0.0
H565 H 0.92279 0.17148 0.99532 0.0
H566 H 0.09601 0.18234 0.28171 0.0
H567 H 0.0771 0.22767 0.30186 0.0
H568 H 0.10511 0.14713 0.10293 0.0
H569 H 0.08104 0.11235 0.00908 0.0
C570 C 0.34063 0.04479 0.17127 0.0
C571 C 0.31427 0.01476 0.16 0.0
C572 C 0.36404 0.97958 0.024 0.0
C573 C 0.38935 1.01078 0.02111 0.0
N574 N 0.39565 0.07695 0.07328 0.0
N575 N 0.29892 0.95894 0.02938 0.0
C576 C 0.37575 0.04447 0.08968 0.0
C577 C 0.32549 0.98388 0.07201 0.0
N578 N 0.33252 0.07363 0.26312 0.0
N579 N 0.37736 0.9447 0.99226 0.0
H580 H 0.27056 0.96379 0.05055 0.0
H581 H 0.3045 0.93716 0.95712 0.0
H582 H 0.40566 0.93994 0.97046 0.0
H583 H 0.36107 0.92047 1.00028 0.0
H584 H 0.35186 0.09424 0.29103 0.0
H585 H 0.30703 0.07537 0.31867 0.0
H586 H 0.38595 0.10302 0.10863 0.0
H587 H 0.41999 0.07858 0.01076 0.0
C588 C 0.53846 0.32717 0.0875 0.0
C589 C 0.50813 0.31442 0.17485 0.0
C590 C 0.47791 0.3774 0.12355 0.0
C591 C 0.51114 0.39216 0.05512 0.0
N592 N 0.57678 0.37994 0.01411 0.0
N593 N 0.44952 0.3307 0.28621 0.0
C594 C 0.54227 0.36649 0.04834 0.0
C595 C 0.47806 0.34065 0.19542 0.0
N596 N 0.56332 0.3013 0.03612 0.0
N597 N 0.44535 0.39764 0.11534 0.0
H598 H 0.44803 0.30402 0.33359 0.0
H599 H 0.42896 0.3495 0.32132 0.0
H600 H 0.44336 0.4232 0.06014 0.0
H601 H 0.41952 0.38729 0.15004 0.0
H602 H 0.58464 0.30808 0.96304 0.0
H603 H 0.5589 0.27257 0.05122 0.0
H604 H 0.6012 0.36374 0.02084 0.0
H605 H 0.58097 0.40811 0.98998 0.0
C606 C 0.20236 0.54026 0.11022 0.0
C607 C 0.21321 0.5089 0.19811 0.0
C608 C 0.15224 0.47933 0.12114 0.0
C609 C 0.139 0.51317 0.05103 0.0
N610 N 0.1514 0.57912 0.018 0.0
N611 N 0.19371 0.44988 0.30053 0.0
C612 C 0.16428 0.5444 0.05607 0.0
C613 C 0.18674 0.47879 0.20664 0.0
N614 N 0.22908 0.56587 0.07332 0.0
N615 N 0.13269 0.44679 0.10184 0.0
H616 H 0.21788 0.44857 0.3637 0.0
H617 H 0.17422 0.429 0.3244 0.0
H618 H 0.10903 0.44521 0.03598 0.0
H619 H 0.14226 0.42063 0.13754 0.0
H620 H 0.22431 0.58777 1.00007 0.0
H621 H 0.2571 0.56209 0.10283 0.0
H622 H 0.16735 0.6035 0.02748 0.0
H623 H 0.12372 0.58373 0.98702 0.0
C624 C 0.98034 0.83876 0.56212 0.0
C625 C 0.01365 0.81618 0.55369 0.0
C626 C 0.04776 0.87077 0.65861 0.0
C627 C 0.01462 0.89322 0.67772 0.0
N628 N 0.94702 0.89253 0.66739 0.0
N629 N 0.07781 0.81096 0.63351 0.0
C630 C 0.98024 0.87524 0.63518 0.0
C631 C 0.04631 0.83209 0.61662 0.0
N632 N 0.94891 0.82628 0.49383 0.0
N633 N 0.08228 0.88605 0.66846 0.0
H634 H 0.07844 0.78209 0.61342 0.0
H635 H 0.07844 0.78209 0.61342 0.0
H636 H 0.08642 0.91458 0.68555 0.0
H637 H 0.08642 0.91458 0.68555 0.0
H638 H 0.92497 0.84273 0.47888 0.0
H639 H 0.94796 0.80017 0.44296 0.0
H640 H 0.92099 0.87987 0.65313 0.0
H641 H 0.94566 0.91816 0.72154 0.0
C642 C 0.6712 1.00102 0.38557 0.0
C643 C 0.70457 1.00921 0.46122 0.0
C644 C 0.66557 1.00466 0.68729 0.0
C645 C 0.63078 1.00644 0.60954 0.0
N646 N 0.60363 1.0058 0.3669 0.0
N647 N 0.73228 0.02019 0.69371 0.0
C648 C 0.63454 1.00401 0.45362 0.0
C649 C 0.7014 1.01131 0.61497 0.0
N650 N 0.67574 0.98843 0.24774 0.0
N651 N 0.66515 0.99245 0.82724 0.0
H652 H 0.75774 0.02724 0.64528 0.0
H653 H 0.73158 0.02293 0.80563 0.0
H654 H 0.64039 0.98629 0.88283 0.0
H655 H 0.68957 0.98351 0.87925 0.0
H656 H 0.65431 0.97772 0.18346 0.0
H657 H 0.65431 0.97772 0.18346 0.0
H658 H 0.60545 1.00803 0.25483 0.0
H659 H 0.57637 1.00982 0.40329 0.0
C660 C 0.48013 0.6967 0.63805 0.0
C661 C 0.50971 0.71225 0.5531 0.0
C662 C 0.54569 0.65292 0.60823 0.0
C663 C 0.5133 0.63538 0.6706 0.0
N664 N 0.44644 0.64245 0.71339 0.0
N665 N 0.5709 0.70194 0.44964 0.0
C666 C 0.4801 0.65789 0.67888 0.0
C667 C 0.54293 0.68967 0.53901 0.0
N668 N 0.44962 0.71786 0.6725 0.0
N669 N 0.57945 0.63477 0.61642 0.0
H670 H 0.57006 0.72813 0.39863 0.0
H671 H 0.59356 0.68522 0.41855 0.0
H672 H 0.58253 0.60838 0.66489 0.0
H673 H 0.60477 0.64724 0.58694 0.0
H674 H 0.44784 0.74656 0.64874 0.0
H675 H 0.44784 0.74656 0.64874 0.0
H676 H 0.44255 0.61368 0.73063 0.0
H677 H 0.44255 0.61368 0.73063 0.0
C678 C 0.85899 0.52598 0.39933 0.0
C679 C 0.8251 0.51876 0.47434 0.0
C680 C 0.86343 0.52285 0.70202 0.0
C681 C 0.89851 0.52062 0.62587 0.0
N682 N 0.92692 0.5213 0.38584 0.0
N683 N 0.79626 0.50904 0.70661 0.0
C684 C 0.89542 0.52301 0.46979 0.0
C685 C 0.82769 0.51695 0.62849 0.0
N686 N 0.85507 0.53752 0.25952 0.0
N687 N 0.86356 0.53484 0.84179 0.0
H688 H 0.77071 0.50297 0.65754 0.0
H689 H 0.79645 0.50612 0.81862 0.0
H690 H 0.88824 0.54029 0.89837 0.0
H691 H 0.83916 0.54429 0.89269 0.0
H692 H 0.8768 0.54738 0.1938 0.0
H693 H 0.8768 0.54738 0.1938 0.0
H694 H 0.92613 0.52024 0.27364 0.0
H695 H 0.95373 0.51616 0.42522 0.0
loop_
_geom_bond_atom_site_label_1
_geom_bond_atom_site_label_2
_geom_bond_distance
_geom_bond_site_symmetry_2
_ccdc_geom_bond_type
C0 N1 1.317 . S
C0 N2 1.348 . S
C0 C3 1.485 . S
N1 C0 1.317 . S
N1 N5 1.370 . S
N2 C0 1.348 . S
N2 C4 1.346 . S
C3 C0 1.485 . S
C3 H7 0.960 . S
C3 H8 0.961 . S
C3 H9 0.960 . S
C4 N2 1.346 . S
C4 N5 1.307 . S
C4 C6 1.486 . S
N5 N1 1.370 . S
N5 C4 1.307 . S
C6 C4 1.486 . S
C6 H10 0.960 . S
C6 H11 0.960 . S
C6 H12 0.959 . S
H7 C3 0.960 . S
H8 C3 0.961 . S
H9 C3 0.960 . S
H10 C6 0.960 . S
H11 C6 0.960 . S
H12 C6 0.959 . S
C13 N14 1.317 . S
C13 N15 1.348 . S
C13 C16 1.485 . S
N14 C13 1.317 . S
N14 N18 1.371 . S
N15 C13 1.348 . S
N15 C17 1.346 1_655 S
C16 C13 1.485 . S
C16 H20 0.960 1_655 S
C16 H21 0.961 . S
C16 H22 0.960 . S
C17 N15 1.346 1_455 S
C17 N18 1.307 1_455 S
C17 C19 1.486 . S
N18 N14 1.371 . S
N18 C17 1.307 1_655 S
C19 C17 1.486 . S
C19 H23 0.960 1_455 S
C19 H24 0.960 . S
C19 H25 0.959 . S
H20 C16 0.960 1_455 S
H21 C16 0.961 . S
H22 C16 0.960 . S
H23 C19 0.960 1_655 S
H24 C19 0.960 . S
H25 C19 0.959 . S
C26 N27 1.317 . S
C26 N28 1.348 . S
C26 C29 1.485 . S
N27 C26 1.317 . S
N27 N31 1.371 . S
N28 C26 1.348 . S
N28 C30 1.346 1_565 S
C29 C26 1.485 . S
C29 H33 0.960 1_565 S
C29 H34 0.961 . S
C29 H35 0.960 . S
C30 N28 1.346 1_545 S
C30 N31 1.307 1_545 S
C30 C32 1.486 . S
N31 N27 1.371 . S
N31 C30 1.307 1_565 S
C32 C30 1.486 . S
C32 H36 0.960 1_545 S
C32 H37 0.960 . S
C32 H38 0.959 . S
H33 C29 0.960 1_545 S
H34 C29 0.961 . S
H35 C29 0.960 . S
H36 C32 0.960 1_565 S
H37 C32 0.960 . S
H38 C32 0.959 . S
C39 N40 1.317 . S
C39 N41 1.348 . S
C39 C42 1.485 . S
N40 C39 1.317 . S
N40 N44 1.370 . S
N41 C39 1.348 . S
N41 C43 1.346 . S
C42 C39 1.485 . S
C42 H46 0.960 . S
C42 H47 0.961 . S
C42 H48 0.960 . S
C43 N41 1.346 . S
C43 N44 1.307 . S
C43 C45 1.486 . S
N44 N40 1.370 . S
N44 C43 1.307 . S
C45 C43 1.486 . S
C45 H49 0.960 . S
C45 H50 0.960 . S
C45 H51 0.959 . S
H46 C42 0.960 . S
H47 C42 0.961 . S
H48 C42 0.960 . S
H49 C45 0.960 . S
H50 C45 0.960 . S
H51 C45 0.959 . S
C52 N53 1.317 . S
C52 N54 1.348 1_556 S
C52 C55 1.485 . S
N53 C52 1.317 . S
N53 N57 1.370 1_556 S
N54 C52 1.348 1_554 S
N54 C56 1.346 . S
C55 C52 1.485 . S
C55 H59 0.960 . S
C55 H60 0.961 . S
C55 H61 0.960 . S
C56 N54 1.346 . S
C56 N57 1.307 . S
C56 C58 1.486 . S
N57 N53 1.370 1_554 S
N57 C56 1.307 . S
C58 C56 1.486 . S
C58 H62 0.960 . S
C58 H63 0.960 . S
C58 H64 0.959 . S
H59 C55 0.960 . S
H60 C55 0.961 . S
H61 C55 0.960 . S
H62 C58 0.960 . S
H63 C58 0.960 . S
H64 C58 0.959 . S
C65 N66 1.317 . S
C65 N67 1.350 1_556 S
C65 C68 1.485 . S
N66 C65 1.317 . S
N66 N70 1.371 1_556 S
N67 C65 1.350 1_554 S
N67 C69 1.345 1_655 S
C68 C65 1.485 . S
C68 H72 0.960 1_655 S
C68 H73 0.961 . S
C68 H74 0.960 . S
C69 N67 1.345 1_455 S
C69 N70 1.307 1_455 S
C69 C71 1.487 . S
N70 N66 1.371 1_554 S
N70 C69 1.307 1_655 S
C71 C69 1.487 . S
C71 H75 0.960 1_455 S
C71 H76 0.960 . S
C71 H77 0.959 . S
H72 C68 0.960 1_455 S
H73 C68 0.961 . S
H74 C68 0.960 . S
H75 C71 0.960 1_655 S
H76 C71 0.960 . S
H77 C71 0.959 . S
C78 N79 1.317 . S
C78 N80 1.350 1_556 S
C78 C81 1.485 . S
N79 C78 1.317 . S
N79 N83 1.371 1_556 S
N80 C78 1.350 1_554 S
N80 C82 1.345 1_565 S
C81 C78 1.485 . S
C81 H85 0.960 1_565 S
C81 H86 0.961 . S
C81 H87 0.960 . S
C82 N80 1.345 1_545 S
C82 N83 1.307 1_545 S
C82 C84 1.487 . S
N83 N79 1.371 1_554 S
N83 C82 1.307 1_565 S
C84 C82 1.487 . S
C84 H88 0.960 1_545 S
C84 H89 0.960 . S
C84 H90 0.959 . S
H85 C81 0.960 1_545 S
H86 C81 0.961 . S
H87 C81 0.960 . S
H88 C84 0.960 1_565 S
H89 C84 0.960 . S
H90 C84 0.959 . S
C91 N92 1.317 . S
C91 N93 1.348 1_556 S
C91 C94 1.485 . S
N92 C91 1.317 . S
N92 N96 1.370 1_556 S
N93 C91 1.348 1_554 S
N93 C95 1.346 . S
C94 C91 1.485 . S
C94 H98 0.960 . S
C94 H99 0.961 . S
C94 H100 0.960 . S
C95 N93 1.346 . S
C95 N96 1.307 . S
C95 C97 1.486 . S
N96 N92 1.370 1_554 S
N96 C95 1.307 . S
C97 C95 1.486 . S
C97 H101 0.960 . S
C97 H102 0.960 . S
C97 H103 0.959 . S
H98 C94 0.960 . S
H99 C94 0.961 . S
H100 C94 0.960 . S
H101 C97 0.960 . S
H102 C97 0.960 . S
H103 C97 0.959 . S
Pr104 C106 2.880 1_556 S
Pr104 O124 2.562 1_556 S
Pr104 O125 2.490 1_556 S
Pr104 O126 2.695 1_565 S
Pr104 O127 2.512 . S
Pr104 O129 2.437 . S
Pr104 O132 2.436 1_455 S
Pr104 O134 2.438 1_565 S
Pr105 C115 2.880 . S
Pr105 O126 2.436 1_655 S
Pr105 O128 2.438 1_545 S
Pr105 O130 2.562 . S
Pr105 O131 2.490 . S
Pr105 O132 2.695 1_545 S
Pr105 O133 2.512 . S
Pr105 O135 2.437 . S
C106 Pr104 2.880 1_554 S
C106 C107 1.491 . S
C106 O124 1.254 . S
C106 O125 1.225 . S
C107 C106 1.491 . S
C107 C108 1.392 . S
C107 C112 1.356 . S
C108 C107 1.392 . S
C108 C109 1.368 . S
C108 H136 0.929 . S
C109 C108 1.368 . S
C109 C110 1.386 . S
C109 H137 0.929 . S
C110 C109 1.386 . S
C110 C111 1.373 . S
C111 C110 1.373 . S
C111 C112 1.409 . S
C111 H138 0.931 . S
C112 C107 1.356 . S
C112 C111 1.409 . S
C112 H139 0.930 1_455 S
C113 O126 1.270 1_565 S
C113 O127 1.248 . S
C114 O128 1.267 . S
C114 O129 1.278 1_655 S
C115 Pr105 2.880 . S
C115 C116 1.491 . S
C115 O130 1.254 . S
C115 O131 1.225 . S
C116 C115 1.491 . S
C116 C117 1.392 . S
C116 C121 1.356 . S
C117 C116 1.392 . S
C117 C118 1.368 . S
C117 H140 0.929 . S
C118 C117 1.368 . S
C118 C119 1.386 . S
C118 H141 0.929 . S
C119 C118 1.386 . S
C119 C120 1.373 . S
C120 C119 1.373 . S
C120 C121 1.409 . S
C120 H142 0.931 . S
C121 C116 1.356 . S
C121 C120 1.409 . S
C121 H143 0.930 1_655 S
C122 O132 1.270 1_545 S
C122 O133 1.248 . S
C123 O134 1.267 . S
C123 O135 1.278 1_455 S
O124 Pr104 2.562 1_554 S
O124 C106 1.254 . S
O125 Pr104 2.490 1_554 S
O125 C106 1.225 . S
O126 Pr104 2.695 1_545 S
O126 Pr105 2.436 1_455 S
O126 C113 1.270 1_545 S
O127 Pr104 2.512 . S
O127 C113 1.248 . S
O128 Pr105 2.438 1_565 S
O128 C114 1.267 . S
O129 Pr104 2.437 . S
O129 C114 1.278 1_455 S
O130 Pr105 2.562 . S
O130 C115 1.254 . S
O131 Pr105 2.490 . S
O131 C115 1.225 . S
O132 Pr104 2.436 1_655 S
O132 Pr105 2.695 1_565 S
O132 C122 1.270 1_565 S
O133 Pr105 2.512 . S
O133 C122 1.248 . S
O134 Pr104 2.438 1_545 S
O134 C123 1.267 . S
O135 Pr105 2.437 . S
O135 C123 1.278 1_655 S
H136 C108 0.929 . S
H137 C109 0.929 . S
H138 C111 0.931 . S
H139 C112 0.930 1_655 S
H140 C117 0.929 . S
H141 C118 0.929 . S
H142 C120 0.931 . S
H143 C121 0.930 1_455 S
Pr144 C146 2.880 1_556 S
Pr144 O164 2.562 1_556 S
Pr144 O165 2.490 1_556 S
Pr144 O166 2.695 . S
Pr144 O167 2.512 . S
Pr144 O169 2.437 . S
Pr144 O172 2.436 1_545 S
Pr144 O174 2.438 . S
Pr145 C155 2.880 . S
Pr145 O166 2.436 1_565 S
Pr145 O168 2.438 . S
Pr145 O170 2.562 . S
Pr145 O171 2.490 . S
Pr145 O172 2.695 . S
Pr145 O173 2.512 . S
Pr145 O175 2.437 . S
C146 Pr144 2.880 1_554 S
C146 C147 1.491 . S
C146 O164 1.254 . S
C146 O165 1.225 . S
C147 C146 1.491 . S
C147 C148 1.392 . S
C147 C152 1.356 . S
C148 C147 1.392 . S
C148 C149 1.368 . S
C148 H176 0.929 . S
C149 C148 1.368 . S
C149 C150 1.386 . S
C149 H177 0.929 . S
C150 C149 1.386 . S
C150 C151 1.373 . S
C151 C150 1.373 . S
C151 C152 1.409 . S
C151 H178 0.931 . S
C152 C147 1.356 . S
C152 C151 1.409 . S
C152 H179 0.930 1_545 S
C153 O166 1.270 . S
C153 O167 1.248 . S
C154 O168 1.267 . S
C154 O169 1.278 1_565 S
C155 Pr145 2.880 . S
C155 C156 1.491 . S
C155 O170 1.254 . S
C155 O171 1.225 . S
C156 C155 1.491 . S
C156 C157 1.392 . S
C156 C161 1.356 . S
C157 C156 1.392 . S
C157 C158 1.368 . S
C157 H180 0.929 . S
C158 C157 1.368 . S
C158 C159 1.386 . S
C158 H181 0.929 . S
C159 C158 1.386 . S
C159 C160 1.373 . S
C160 C159 1.373 . S
C160 C161 1.409 . S
C160 H182 0.931 . S
C161 C156 1.356 . S
C161 C160 1.409 . S
C161 H183 0.930 1_565 S
C162 O172 1.270 . S
C162 O173 1.248 . S
C163 O174 1.267 . S
C163 O175 1.278 1_545 S
O164 Pr144 2.562 1_554 S
O164 C146 1.254 . S
O165 Pr144 2.490 1_554 S
O165 C146 1.225 . S
O166 Pr144 2.695 . S
O166 Pr145 2.436 1_545 S
O166 C153 1.270 . S
O167 Pr144 2.512 . S
O167 C153 1.248 . S
O168 Pr145 2.438 . S
O168 C154 1.267 . S
O169 Pr144 2.437 . S
O169 C154 1.278 1_545 S
O170 Pr145 2.562 . S
O170 C155 1.254 . S
O171 Pr145 2.490 . S
O171 C155 1.225 . S
O172 Pr144 2.436 1_565 S
O172 Pr145 2.695 . S
O172 C162 1.270 . S
O173 Pr145 2.512 . S
O173 C162 1.248 . S
O174 Pr144 2.438 . S
O174 C163 1.267 . S
O175 Pr145 2.437 . S
O175 C163 1.278 1_565 S
H176 C148 0.929 . S
H177 C149 0.929 . S
H178 C151 0.931 . S
H179 C152 0.930 1_565 S
H180 C157 0.929 . S
H181 C158 0.929 . S
H182 C160 0.931 . S
H183 C161 0.930 1_545 S
Pr184 C186 2.880 1_556 S
Pr184 O204 2.562 1_556 S
Pr184 O205 2.490 1_556 S
Pr184 O206 2.695 . S
Pr184 O207 2.512 . S
Pr184 O209 2.437 . S
Pr184 O212 2.436 . S
Pr184 O214 2.438 . S
Pr185 C195 2.880 . S
Pr185 O206 2.436 . S
Pr185 O208 2.438 . S
Pr185 O210 2.562 . S
Pr185 O211 2.490 . S
Pr185 O212 2.695 . S
Pr185 O213 2.512 . S
Pr185 O215 2.437 . S
C186 Pr184 2.880 1_554 S
C186 C187 1.491 . S
C186 O204 1.254 . S
C186 O205 1.225 . S
C187 C186 1.491 . S
C187 C188 1.392 . S
C187 C192 1.356 . S
C188 C187 1.392 . S
C188 C189 1.368 . S
C188 H216 0.929 . S
C189 C188 1.368 . S
C189 C190 1.386 . S
C189 H217 0.929 . S
C190 C189 1.386 . S
C190 C191 1.373 . S
C191 C190 1.373 . S
C191 C192 1.409 . S
C191 H218 0.931 . S
C192 C187 1.356 . S
C192 C191 1.409 . S
C192 H219 0.930 . S
C193 O206 1.270 . S
C193 O207 1.248 . S
C194 O208 1.267 . S
C194 O209 1.278 . S
C195 Pr185 2.880 . S
C195 C196 1.491 . S
C195 O210 1.254 . S
C195 O211 1.225 . S
C196 C195 1.491 . S
C196 C197 1.392 . S
C196 C201 1.356 . S
C197 C196 1.392 . S
C197 C198 1.368 . S
C197 H220 0.929 . S
C198 C197 1.368 . S
C198 C199 1.386 . S
C198 H221 0.929 . S
C199 C198 1.386 . S
C199 C200 1.373 . S
C200 C199 1.373 . S
C200 C201 1.409 . S
C200 H222 0.931 . S
C201 C196 1.356 . S
C201 C200 1.409 . S
C201 H223 0.930 . S
C202 O212 1.270 . S
C202 O213 1.248 . S
C203 O214 1.267 . S
C203 O215 1.278 . S
O204 Pr184 2.562 1_554 S
O204 C186 1.254 . S
O205 Pr184 2.490 1_554 S
O205 C186 1.225 . S
O206 Pr184 2.695 . S
O206 Pr185 2.436 . S
O206 C193 1.270 . S
O207 Pr184 2.512 . S
O207 C193 1.248 . S
O208 Pr185 2.438 . S
O208 C194 1.267 . S
O209 Pr184 2.437 . S
O209 C194 1.278 . S
O210 Pr185 2.562 . S
O210 C195 1.254 . S
O211 Pr185 2.490 . S
O211 C195 1.225 . S
O212 Pr184 2.436 . S
O212 Pr185 2.695 . S
O212 C202 1.270 . S
O213 Pr185 2.512 . S
O213 C202 1.248 . S
O214 Pr184 2.438 . S
O214 C203 1.267 . S
O215 Pr185 2.437 . S
O215 C203 1.278 . S
H216 C188 0.929 . S
H217 C189 0.929 . S
H218 C191 0.931 . S
H219 C192 0.930 . S
H220 C197 0.929 . S
H221 C198 0.929 . S
H222 C200 0.931 . S
H223 C201 0.930 . S
Pr224 C226 2.880 1_556 S
Pr224 O244 2.562 1_556 S
Pr224 O245 2.490 1_556 S
Pr224 O246 2.695 1_655 S
Pr224 O247 2.512 . S
Pr224 O249 2.437 . S
Pr224 O252 2.436 . S
Pr224 O254 2.438 1_655 S
Pr225 C235 2.880 . S
Pr225 O246 2.436 . S
Pr225 O248 2.438 1_455 S
Pr225 O250 2.562 . S
Pr225 O251 2.490 . S
Pr225 O252 2.695 1_455 S
Pr225 O253 2.512 . S
Pr225 O255 2.437 . S
C226 Pr224 2.880 1_554 S
C226 C227 1.491 . S
C226 O244 1.254 . S
C226 O245 1.225 . S
C227 C226 1.491 . S
C227 C228 1.392 . S
C227 C232 1.356 . S
C228 C227 1.392 . S
C228 C229 1.368 . S
C228 H256 0.929 . S
C229 C228 1.368 . S
C229 C230 1.386 . S
C229 H257 0.929 . S
C230 C229 1.386 . S
C230 C231 1.373 . S
C231 C230 1.373 . S
C231 C232 1.409 . S
C231 H258 0.931 . S
C232 C227 1.356 . S
C232 C231 1.409 . S
C232 H259 0.930 . S
C233 O246 1.264 1_655 S
C233 O247 1.258 . S
C234 O248 1.267 . S
C234 O249 1.278 . S
C235 Pr225 2.880 . S
C235 C236 1.491 . S
C235 O250 1.254 . S
C235 O251 1.225 . S
C236 C235 1.491 . S
C236 C237 1.392 . S
C236 C241 1.356 . S
C237 C236 1.392 . S
C237 C238 1.368 . S
C237 H260 0.929 . S
C238 C237 1.368 . S
C238 C239 1.386 . S
C238 H261 0.929 . S
C239 C238 1.386 . S
C239 C240 1.373 . S
C240 C239 1.373 . S
C240 C241 1.409 . S
C240 H262 0.931 . S
C241 C236 1.356 . S
C241 C240 1.409 . S
C241 H263 0.930 . S
C242 O252 1.262 1_455 S
C242 O253 1.261 . S
C243 O254 1.267 . S
C243 O255 1.278 . S
O244 Pr224 2.562 1_554 S
O244 C226 1.254 . S
O245 Pr224 2.490 1_554 S
O245 C226 1.225 . S
O246 Pr224 2.695 1_455 S
O246 Pr225 2.436 . S
O246 C233 1.264 1_455 S
O247 Pr224 2.512 . S
O247 C233 1.258 . S
O248 Pr225 2.438 1_655 S
O248 C234 1.267 . S
O249 Pr224 2.437 . S
O249 C234 1.278 . S
O250 Pr225 2.562 . S
O250 C235 1.254 . S
O251 Pr225 2.490 . S
O251 C235 1.225 . S
O252 Pr224 2.436 . S
O252 Pr225 2.695 1_655 S
O252 C242 1.262 1_655 S
O253 Pr225 2.512 . S
O253 C242 1.261 . S
O254 Pr224 2.438 1_455 S
O254 C243 1.267 . S
O255 Pr225 2.437 . S
O255 C243 1.278 . S
H256 C228 0.929 . S
H257 C229 0.929 . S
H258 C231 0.931 . S
H259 C232 0.930 . S
H260 C237 0.929 . S
H261 C238 0.929 . S
H262 C240 0.931 . S
H263 C241 0.930 . S
C264 C265 1.362 1_565 S
C264 C270 1.379 . S
C264 N272 1.356 . S
C265 C264 1.362 1_545 S
C265 C271 1.364 . S
C266 C267 1.365 . S
C266 C271 1.379 . S
C266 N273 1.356 . S
C267 C266 1.365 . S
C267 C270 1.361 1_545 S
N268 C270 1.356 . S
N268 H280 0.984 . S
N268 H281 0.985 . S
N269 C271 1.356 . S
N269 H274 0.984 . S
N269 H275 0.985 . S
C270 C264 1.379 . S
C270 C267 1.361 1_565 S
C270 N268 1.356 . S
C271 C265 1.364 . S
C271 C266 1.379 . S
C271 N269 1.356 . S
N272 C264 1.356 . S
N272 H278 0.984 . S
N272 H279 0.984 . S
N273 C266 1.356 . S
N273 H276 0.984 . S
N273 H277 0.985 . S
H274 N269 0.984 . S
H275 N269 0.985 . S
H276 N273 0.984 . S
H277 N273 0.985 . S
H278 N272 0.984 . S
H279 N272 0.984 . S
H280 N268 0.984 . S
H281 N268 0.985 . S
C282 C283 1.363 . S
C282 C288 1.379 . S
C282 N290 1.356 . S
C283 C282 1.363 . S
C283 C289 1.363 . S
C284 C285 1.363 . S
C284 C289 1.379 . S
C284 N291 1.356 . S
C285 C284 1.363 . S
C285 C288 1.363 . S
N286 C288 1.356 . S
N286 H298 0.984 . S
N286 H299 0.985 . S
N287 C289 1.356 . S
N287 H292 0.984 . S
N287 H293 0.985 . S
C288 C282 1.379 . S
C288 C285 1.363 . S
C288 N286 1.356 . S
C289 C283 1.363 . S
C289 C284 1.379 . S
C289 N287 1.356 . S
N290 C282 1.356 . S
N290 H296 0.984 . S
N290 H297 0.984 . S
N291 C284 1.356 . S
N291 H294 0.984 . S
N291 H295 0.985 . S
H292 N287 0.984 . S
H293 N287 0.985 . S
H294 N291 0.984 . S
H295 N291 0.985 . S
H296 N290 0.984 . S
H297 N290 0.984 . S
H298 N286 0.984 . S
H299 N286 0.985 . S
C300 C301 1.363 . S
C300 C306 1.379 . S
C300 N308 1.356 . S
C301 C300 1.363 . S
C301 C307 1.363 . S
C302 C303 1.363 . S
C302 C307 1.379 . S
C302 N309 1.356 . S
C303 C302 1.363 . S
C303 C306 1.363 . S
N304 C306 1.356 . S
N304 H316 0.984 . S
N304 H317 0.985 . S
N305 C307 1.356 . S
N305 H310 0.984 . S
N305 H311 0.985 . S
C306 C300 1.379 . S
C306 C303 1.363 . S
C306 N304 1.356 . S
C307 C301 1.363 . S
C307 C302 1.379 . S
C307 N305 1.356 . S
N308 C300 1.356 . S
N308 H314 0.984 . S
N308 H315 0.984 . S
N309 C302 1.356 . S
N309 H312 0.984 . S
N309 H313 0.985 . S
H310 N305 0.984 . S
H311 N305 0.985 . S
H312 N309 0.984 . S
H313 N309 0.985 . S
H314 N308 0.984 . S
H315 N308 0.984 . S
H316 N304 0.984 . S
H317 N304 0.985 . S
C318 C319 1.370 . S
C318 C324 1.379 . S
C318 N326 1.356 . S
C319 C318 1.370 . S
C319 C325 1.357 1_455 S
C320 C321 1.363 1_655 S
C320 C325 1.379 . S
C320 N327 1.356 . S
C321 C320 1.363 1_455 S
C321 C324 1.363 . S
N322 C324 1.356 . S
N322 H334 0.984 . S
N322 H335 0.985 . S
N323 C325 1.356 . S
N323 H328 0.984 . S
N323 H329 0.985 . S
C324 C318 1.379 . S
C324 C321 1.363 . S
C324 N322 1.356 . S
C325 C319 1.357 1_655 S
C325 C320 1.379 . S
C325 N323 1.356 . S
N326 C318 1.356 . S
N326 H332 0.984 . S
N326 H333 0.984 . S
N327 C320 1.356 . S
N327 H330 0.984 . S
N327 H331 0.985 . S
H328 N323 0.984 . S
H329 N323 0.985 . S
H330 N327 0.984 . S
H331 N327 0.985 . S
H332 N326 0.984 . S
H333 N326 0.984 . S
H334 N322 0.984 . S
H335 N322 0.985 . S
C336 C337 1.364 1_565 S
C336 C342 1.379 . S
C336 N344 1.356 . S
C337 C336 1.364 1_545 S
C337 C343 1.362 . S
C338 C339 1.361 . S
C338 C343 1.379 . S
C338 N345 1.356 . S
C339 C338 1.361 . S
C339 C342 1.365 1_545 S
N340 C342 1.356 . S
N340 H352 0.984 . S
N340 H353 0.985 . S
N341 C343 1.356 . S
N341 H346 0.984 . S
N341 H347 0.985 . S
C342 C336 1.379 . S
C342 C339 1.365 1_565 S
C342 N340 1.356 . S
C343 C337 1.362 . S
C343 C338 1.379 . S
C343 N341 1.356 . S
N344 C336 1.356 . S
N344 H350 0.984 . S
N344 H351 0.984 . S
N345 C338 1.356 . S
N345 H348 0.984 1_554 S
N345 H349 0.985 . S
H346 N341 0.984 . S
H347 N341 0.985 . S
H348 N345 0.984 1_556 S
H349 N345 0.985 . S
H350 N344 0.984 . S
H351 N344 0.984 . S
H352 N340 0.984 . S
H353 N340 0.985 . S
C354 C355 1.363 . S
C354 C360 1.379 . S
C354 N362 1.356 . S
C355 C354 1.363 . S
C355 C361 1.363 . S
C356 C357 1.363 . S
C356 C361 1.379 . S
C356 N363 1.356 . S
C357 C356 1.363 . S
C357 C360 1.363 . S
N358 C360 1.356 . S
N358 H370 0.984 . S
N358 H371 0.985 . S
N359 C361 1.356 . S
N359 H364 0.984 . S
N359 H365 0.985 . S
C360 C354 1.379 . S
C360 C357 1.363 . S
C360 N358 1.356 . S
C361 C355 1.363 . S
C361 C356 1.379 . S
C361 N359 1.356 . S
N362 C354 1.356 . S
N362 H368 0.984 . S
N362 H369 0.984 . S
N363 C356 1.356 . S
N363 H366 0.984 1_554 S
N363 H367 0.985 . S
H364 N359 0.984 . S
H365 N359 0.985 . S
H366 N363 0.984 1_556 S
H367 N363 0.985 . S
H368 N362 0.984 . S
H369 N362 0.984 . S
H370 N358 0.984 . S
H371 N358 0.985 . S
C372 C373 1.363 . S
C372 C378 1.379 . S
C372 N380 1.356 . S
C373 C372 1.363 . S
C373 C379 1.363 . S
C374 C375 1.363 . S
C374 C379 1.379 . S
C374 N381 1.356 . S
C375 C374 1.363 . S
C375 C378 1.363 . S
N376 C378 1.356 . S
N376 H388 0.984 . S
N376 H389 0.985 . S
N377 C379 1.356 . S
N377 H382 0.984 . S
N377 H383 0.985 . S
C378 C372 1.379 . S
C378 C375 1.363 . S
C378 N376 1.356 . S
C379 C373 1.363 . S
C379 C374 1.379 . S
C379 N377 1.356 . S
N380 C372 1.356 . S
N380 H386 0.984 . S
N380 H387 0.984 . S
N381 C374 1.356 . S
N381 H384 0.984 . S
N381 H385 0.985 . S
H382 N377 0.984 . S
H383 N377 0.985 . S
H384 N381 0.984 . S
H385 N381 0.985 . S
H386 N380 0.984 . S
H387 N380 0.984 . S
H388 N376 0.984 . S
H389 N376 0.985 . S
C390 C391 1.379 . S
C390 C396 1.379 . S
C390 N398 1.356 . S
C391 C390 1.379 . S
C391 C397 1.347 1_655 S
C392 C393 1.363 1_455 S
C392 C397 1.379 . S
C392 N399 1.356 . S
C393 C392 1.363 1_655 S
C393 C396 1.363 . S
N394 C396 1.356 . S
N394 H406 0.984 . S
N394 H407 0.985 . S
N395 C397 1.356 . S
N395 H400 0.984 . S
N395 H401 0.985 . S
C396 C390 1.379 . S
C396 C393 1.363 . S
C396 N394 1.356 . S
C397 C391 1.347 1_455 S
C397 C392 1.379 . S
C397 N395 1.356 . S
N398 C390 1.356 . S
N398 H404 0.984 . S
N398 H405 0.984 . S
N399 C392 1.356 . S
N399 H402 0.984 1_554 S
N399 H403 0.985 . S
H400 N395 0.984 . S
H401 N395 0.985 . S
H402 N399 0.984 1_556 S
H403 N399 0.985 . S
H404 N398 0.984 . S
H405 N398 0.984 . S
H406 N394 0.984 . S
H407 N394 0.985 . S
C408 C409 1.363 1_455 S
C408 C414 1.379 1_455 S
C408 N416 1.356 . S
C409 C408 1.363 1_655 S
C409 C415 1.363 . S
C410 C411 1.363 . S
C410 C415 1.379 . S
C410 N417 1.356 . S
C411 C410 1.363 . S
C411 C414 1.363 . S
N412 C414 1.356 . S
N412 H424 0.984 . S
N412 H425 0.985 . S
N413 C415 1.356 . S
N413 H418 0.984 . S
N413 H419 0.985 1_554 S
C414 C408 1.379 1_655 S
C414 C411 1.363 . S
C414 N412 1.356 . S
C415 C409 1.363 . S
C415 C410 1.379 . S
C415 N413 1.356 . S
N416 C408 1.356 . S
N416 H422 0.984 . S
N416 H423 0.984 . S
N417 C410 1.356 . S
N417 H420 0.984 . S
N417 H421 0.985 . S
H418 N413 0.984 . S
H419 N413 0.985 1_556 S
H420 N417 0.984 . S
H421 N417 0.985 . S
H422 N416 0.984 . S
H423 N416 0.984 . S
H424 N412 0.984 . S
H425 N412 0.985 . S
C426 C427 1.363 . S
C426 C432 1.379 . S
C426 N434 1.356 1_554 S
C427 C426 1.363 . S
C427 C433 1.363 1_565 S
C428 C429 1.363 . S
C428 C433 1.379 1_565 S
C428 N435 1.356 . S
C429 C428 1.363 . S
C429 C432 1.363 . S
N430 C432 1.356 . S
N430 H442 0.984 . S
N430 H443 0.985 . S
N431 C433 1.356 . S
N431 H436 0.984 . S
N431 H437 0.985 . S
C432 C426 1.379 . S
C432 C429 1.363 . S
C432 N430 1.356 . S
C433 C427 1.363 1_545 S
C433 C428 1.379 1_545 S
C433 N431 1.356 . S
N434 C426 1.356 1_556 S
N434 H440 0.984 . S
N434 H441 0.984 . S
N435 C428 1.356 . S
N435 H438 0.984 . S
N435 H439 0.985 . S
H436 N431 0.984 . S
H437 N431 0.985 . S
H438 N435 0.984 . S
H439 N435 0.985 . S
H440 N434 0.984 . S
H441 N434 0.984 . S
H442 N430 0.984 . S
H443 N430 0.985 . S
C444 C445 1.363 . S
C444 C450 1.379 . S
C444 N452 1.356 . S
C445 C444 1.363 . S
C445 C451 1.363 . S
C446 C447 1.363 . S
C446 C451 1.379 . S
C446 N453 1.356 . S
C447 C446 1.363 . S
C447 C450 1.363 . S
N448 C450 1.356 . S
N448 H460 0.984 . S
N448 H461 0.985 . S
N449 C451 1.356 . S
N449 H454 0.984 . S
N449 H455 0.985 . S
C450 C444 1.379 . S
C450 C447 1.363 . S
C450 N448 1.356 . S
C451 C445 1.363 . S
C451 C446 1.379 . S
C451 N449 1.356 . S
N452 C444 1.356 . S
N452 H458 0.984 . S
N452 H459 0.984 . S
N453 C446 1.356 . S
N453 H456 0.984 . S
N453 H457 0.985 . S
H454 N449 0.984 . S
H455 N449 0.985 . S
H456 N453 0.984 . S
H457 N453 0.985 . S
H458 N452 0.984 . S
H459 N452 0.984 . S
H460 N448 0.984 . S
H461 N448 0.985 . S
C462 C463 1.363 . S
C462 C468 1.379 . S
C462 N470 1.356 . S
C463 C462 1.363 . S
C463 C469 1.363 . S
C464 C465 1.363 . S
C464 C469 1.379 . S
C464 N471 1.356 . S
C465 C464 1.363 . S
C465 C468 1.363 . S
N466 C468 1.356 . S
N466 H478 0.984 . S
N466 H479 0.985 . S
N467 C469 1.356 1_556 S
N467 H472 0.984 . S
N467 H473 0.985 . S
C468 C462 1.379 . S
C468 C465 1.363 . S
C468 N466 1.356 . S
C469 C463 1.363 . S
C469 C464 1.379 . S
C469 N467 1.356 1_554 S
N470 C462 1.356 . S
N470 H476 0.984 . S
N470 H477 0.984 . S
N471 C464 1.356 . S
N471 H474 0.984 . S
N471 H475 0.985 1_554 S
H472 N467 0.984 . S
H473 N467 0.985 . S
H474 N471 0.984 . S
H475 N471 0.985 1_556 S
H476 N470 0.984 . S
H477 N470 0.984 . S
H478 N466 0.984 . S
H479 N466 0.985 . S
C480 C481 1.363 . S
C480 C486 1.379 . S
C480 N488 1.356 1_455 S
C481 C480 1.363 . S
C481 C487 1.363 . S
C482 C483 1.363 . S
C482 C487 1.379 . S
C482 N489 1.356 . S
C483 C482 1.363 . S
C483 C486 1.363 . S
N484 C486 1.356 . S
N484 H496 0.984 . S
N484 H497 0.985 . S
N485 C487 1.356 . S
N485 H490 0.984 1_455 S
N485 H491 0.985 . S
C486 C480 1.379 . S
C486 C483 1.363 . S
C486 N484 1.356 . S
C487 C481 1.363 . S
C487 C482 1.379 . S
C487 N485 1.356 . S
N488 C480 1.356 1_655 S
N488 H494 0.984 . S
N488 H495 0.984 . S
N489 C482 1.356 . S
N489 H492 0.984 . S
N489 H493 0.985 . S
H490 N485 0.984 1_655 S
H491 N485 0.985 . S
H492 N489 0.984 . S
H493 N489 0.985 . S
H494 N488 0.984 . S
H495 N488 0.984 . S
H496 N484 0.984 . S
H497 N484 0.985 . S
C498 C499 1.363 . S
C498 C504 1.379 . S
C498 N506 1.356 . S
C499 C498 1.363 . S
C499 C505 1.363 . S
C500 C501 1.363 . S
C500 C505 1.379 . S
C500 N507 1.356 . S
C501 C500 1.363 . S
C501 C504 1.363 . S
N502 C504 1.356 . S
N502 H514 0.984 . S
N502 H515 0.985 . S
N503 C505 1.356 1_565 S
N503 H508 0.984 . S
N503 H509 0.985 . S
C504 C498 1.379 . S
C504 C501 1.363 . S
C504 N502 1.356 . S
C505 C499 1.363 . S
C505 C500 1.379 . S
C505 N503 1.356 1_545 S
N506 C498 1.356 . S
N506 H512 0.984 . S
N506 H513 0.984 1_545 S
N507 C500 1.356 . S
N507 H510 0.984 . S
N507 H511 0.985 . S
H508 N503 0.984 . S
H509 N503 0.985 . S
H510 N507 0.984 . S
H511 N507 0.985 . S
H512 N506 0.984 . S
H513 N506 0.984 1_565 S
H514 N502 0.984 . S
H515 N502 0.985 . S
C516 C517 1.363 . S
C516 C522 1.379 . S
C516 N524 1.356 . S
C517 C516 1.363 . S
C517 C523 1.363 . S
C518 C519 1.363 . S
C518 C523 1.379 . S
C518 N525 1.356 . S
C519 C518 1.363 . S
C519 C522 1.363 . S
N520 C522 1.356 . S
N520 H532 0.984 . S
N520 H533 0.985 . S
N521 C523 1.356 . S
N521 H526 0.984 . S
N521 H527 0.985 . S
C522 C516 1.379 . S
C522 C519 1.363 . S
C522 N520 1.356 . S
C523 C517 1.363 . S
C523 C518 1.379 . S
C523 N521 1.356 . S
N524 C516 1.356 . S
N524 H530 0.984 . S
N524 H531 0.984 . S
N525 C518 1.356 . S
N525 H528 0.984 . S
N525 H529 0.985 . S
H526 N521 0.984 . S
H527 N521 0.985 . S
H528 N525 0.984 . S
H529 N525 0.985 . S
H530 N524 0.984 . S
H531 N524 0.984 . S
H532 N520 0.984 . S
H533 N520 0.985 . S
C534 C535 1.363 . S
C534 C540 1.379 . S
C534 N542 1.356 . S
C535 C534 1.363 . S
C535 C541 1.363 . S
C536 C537 1.363 . S
C536 C541 1.379 . S
C536 N543 1.356 . S
C537 C536 1.363 . S
C537 C540 1.363 . S
N538 C540 1.356 . S
N538 H550 0.984 . S
N538 H551 0.985 . S
N539 C541 1.356 . S
N539 H544 0.984 . S
N539 H545 0.985 . S
C540 C534 1.379 . S
C540 C537 1.363 . S
C540 N538 1.356 . S
C541 C535 1.363 . S
C541 C536 1.379 . S
C541 N539 1.356 . S
N542 C534 1.356 . S
N542 H548 0.984 . S
N542 H549 0.984 . S
N543 C536 1.356 . S
N543 H546 0.984 . S
N543 H547 0.985 . S
H544 N539 0.984 . S
H545 N539 0.985 . S
H546 N543 0.984 . S
H547 N543 0.985 . S
H548 N542 0.984 . S
H549 N542 0.984 . S
H550 N538 0.984 . S
H551 N538 0.985 . S
C552 C553 1.363 1_554 S
C552 C558 1.379 . S
C552 N560 1.356 . S
C553 C552 1.363 1_556 S
C553 C559 1.363 1_455 S
C554 C555 1.363 1_655 S
C554 C559 1.379 . S
C554 N561 1.356 . S
C555 C554 1.363 1_455 S
C555 C558 1.363 1_556 S
N556 C558 1.356 . S
N556 H568 0.984 . S
N556 H569 0.985 . S
N557 C559 1.356 . S
N557 H562 0.984 . S
N557 H563 0.985 . S
C558 C552 1.379 . S
C558 C555 1.363 1_554 S
C558 N556 1.356 . S
C559 C553 1.363 1_655 S
C559 C554 1.379 . S
C559 N557 1.356 . S
N560 C552 1.356 . S
N560 H566 0.984 . S
N560 H567 0.984 . S
N561 C554 1.356 . S
N561 H564 0.984 . S
N561 H565 0.985 . S
H562 N557 0.984 . S
H563 N557 0.985 . S
H564 N561 0.984 . S
H565 N561 0.985 . S
H566 N560 0.984 . S
H567 N560 0.984 . S
H568 N556 0.984 . S
H569 N556 0.985 . S
C570 C571 1.363 1_554 S
C570 C576 1.379 . S
C570 N578 1.356 . S
C571 C570 1.363 1_556 S
C571 C577 1.363 1_545 S
C572 C573 1.363 1_565 S
C572 C577 1.379 . S
C572 N579 1.356 . S
C573 C572 1.363 1_545 S
C573 C576 1.363 1_556 S
N574 C576 1.356 . S
N574 H586 0.984 . S
N574 H587 0.985 . S
N575 C577 1.356 . S
N575 H580 0.984 . S
N575 H581 0.985 . S
C576 C570 1.379 . S
C576 C573 1.363 1_554 S
C576 N574 1.356 . S
C577 C571 1.363 1_565 S
C577 C572 1.379 . S
C577 N575 1.356 . S
N578 C570 1.356 . S
N578 H584 0.984 . S
N578 H585 0.984 . S
N579 C572 1.356 . S
N579 H582 0.984 . S
N579 H583 0.985 . S
H580 N575 0.984 . S
H581 N575 0.985 . S
H582 N579 0.984 . S
H583 N579 0.985 . S
H584 N578 0.984 . S
H585 N578 0.984 . S
H586 N574 0.984 . S
H587 N574 0.985 . S
C588 C589 1.363 . S
C588 C594 1.379 . S
C588 N596 1.356 . S
C589 C588 1.363 . S
C589 C595 1.363 1_556 S
C590 C591 1.363 1_554 S
C590 C595 1.379 . S
C590 N597 1.356 . S
C591 C590 1.363 1_556 S
C591 C594 1.363 . S
N592 C594 1.356 . S
N592 H604 0.984 . S
N592 H605 0.985 . S
N593 C595 1.356 . S
N593 H598 0.984 . S
N593 H599 0.985 . S
C594 C588 1.379 . S
C594 C591 1.363 . S
C594 N592 1.356 . S
C595 C589 1.363 1_554 S
C595 C590 1.379 . S
C595 N593 1.356 . S
N596 C588 1.356 . S
N596 H602 0.984 . S
N596 H603 0.984 . S
N597 C590 1.356 . S
N597 H600 0.984 . S
N597 H601 0.985 . S
H598 N593 0.984 . S
H599 N593 0.985 . S
H600 N597 0.984 . S
H601 N597 0.985 . S
H602 N596 0.984 . S
H603 N596 0.984 . S
H604 N592 0.984 . S
H605 N592 0.985 . S
C606 C607 1.363 . S
C606 C612 1.379 . S
C606 N614 1.356 . S
C607 C606 1.363 . S
C607 C613 1.363 1_556 S
C608 C609 1.363 1_554 S
C608 C613 1.379 . S
C608 N615 1.356 . S
C609 C608 1.363 1_556 S
C609 C612 1.363 . S
N610 C612 1.356 . S
N610 H622 0.984 . S
N610 H623 0.985 . S
N611 C613 1.356 . S
N611 H616 0.984 . S
N611 H617 0.985 . S
C612 C606 1.379 . S
C612 C609 1.363 . S
C612 N610 1.356 . S
C613 C607 1.363 1_554 S
C613 C608 1.379 . S
C613 N611 1.356 . S
N614 C606 1.356 . S
N614 H620 0.984 . S
N614 H621 0.984 . S
N615 C608 1.356 . S
N615 H618 0.984 . S
N615 H619 0.985 . S
H616 N611 0.984 . S
H617 N611 0.985 . S
H618 N615 0.984 . S
H619 N615 0.985 . S
H620 N614 0.984 . S
H621 N614 0.984 . S
H622 N610 0.984 . S
H623 N610 0.985 . S
C624 C625 1.363 . S
C624 C630 1.379 . S
C624 N632 1.356 . S
C625 C624 1.363 . S
C625 C631 1.363 1_655 S
C626 C627 1.363 1_455 S
C626 C631 1.379 . S
C626 N633 1.356 . S
C627 C626 1.363 1_655 S
C627 C630 1.363 . S
N628 C630 1.356 . S
N628 H640 0.984 1_556 S
N628 H641 0.985 . S
N629 C631 1.356 . S
N629 H634 0.984 . S
N629 H635 0.985 . S
C630 C624 1.379 . S
C630 C627 1.363 . S
C630 N628 1.356 . S
C631 C625 1.363 1_455 S
C631 C626 1.379 . S
C631 N629 1.356 . S
N632 C624 1.356 . S
N632 H638 0.984 1_556 S
N632 H639 0.984 . S
N633 C626 1.356 . S
N633 H636 0.984 . S
N633 H637 0.985 . S
H634 N629 0.984 . S
H635 N629 0.985 . S
H636 N633 0.984 . S
H637 N633 0.985 . S
H638 N632 0.984 1_554 S
H639 N632 0.984 . S
H640 N628 0.984 1_554 S
H641 N628 0.985 . S
C642 C643 1.363 1_545 S
C642 C648 1.379 . S
C642 N650 1.356 . S
C643 C642 1.363 1_565 S
C643 C649 1.363 . S
C644 C645 1.363 . S
C644 C649 1.379 . S
C644 N651 1.356 . S
C645 C644 1.363 . S
C645 C648 1.363 1_565 S
N646 C648 1.356 . S
N646 H658 0.984 . S
N646 H659 0.985 . S
N647 C649 1.356 . S
N647 H652 0.984 . S
N647 H653 0.985 1_556 S
C648 C642 1.379 . S
C648 C645 1.363 1_545 S
C648 N646 1.356 . S
C649 C643 1.363 . S
C649 C644 1.379 . S
C649 N647 1.356 . S
N650 C642 1.356 . S
N650 H656 0.984 . S
N650 H657 0.984 . S
N651 C644 1.356 . S
N651 H654 0.984 . S
N651 H655 0.985 1_556 S
H652 N647 0.984 . S
H653 N647 0.985 1_554 S
H654 N651 0.984 . S
H655 N651 0.985 1_554 S
H656 N650 0.984 . S
H657 N650 0.984 . S
H658 N646 0.984 . S
H659 N646 0.985 . S
C660 C661 1.363 . S
C660 C666 1.379 . S
C660 N668 1.356 . S
C661 C660 1.363 . S
C661 C667 1.363 . S
C662 C663 1.363 . S
C662 C667 1.379 . S
C662 N669 1.356 . S
C663 C662 1.363 . S
C663 C666 1.363 . S
N664 C666 1.356 . S
N664 H676 0.984 . S
N664 H677 0.985 . S
N665 C667 1.356 . S
N665 H670 0.984 . S
N665 H671 0.985 1_556 S
C666 C660 1.379 . S
C666 C663 1.363 . S
C666 N664 1.356 . S
C667 C661 1.363 . S
C667 C662 1.379 . S
C667 N665 1.356 . S
N668 C660 1.356 . S
N668 H674 0.984 . S
N668 H675 0.984 . S
N669 C662 1.356 . S
N669 H672 0.984 . S
N669 H673 0.985 1_556 S
H670 N665 0.984 . S
H671 N665 0.985 1_554 S
H672 N669 0.984 . S
H673 N669 0.985 1_554 S
H674 N668 0.984 . S
H675 N668 0.984 . S
H676 N664 0.984 . S
H677 N664 0.985 . S
C678 C679 1.363 . S
C678 C684 1.379 . S
C678 N686 1.356 . S
C679 C678 1.363 . S
C679 C685 1.363 . S
C680 C681 1.363 . S
C680 C685 1.379 . S
C680 N687 1.356 . S
C681 C680 1.363 . S
C681 C684 1.363 . S
N682 C684 1.356 . S
N682 H694 0.984 . S
N682 H695 0.985 . S
N683 C685 1.356 . S
N683 H688 0.984 . S
N683 H689 0.985 1_556 S
C684 C678 1.379 . S
C684 C681 1.363 . S
C684 N682 1.356 . S
C685 C679 1.363 . S
C685 C680 1.379 . S
C685 N683 1.356 . S
N686 C678 1.356 . S
N686 H692 0.984 . S
N686 H693 0.984 . S
N687 C680 1.356 . S
N687 H690 0.984 . S
N687 H691 0.985 1_556 S
H688 N683 0.984 . S
H689 N683 0.985 1_554 S
H690 N687 0.984 . S
H691 N687 0.985 1_554 S
H692 N686 0.984 . S
H693 N686 0.984 . S
H694 N682 0.984 . S
H695 N682 0.985 . S
C265 N80 1.997 1_545 S
C267 C113 2.172 1_545 S
C285 C153 2.192 . S
C283 N93 2.020 . S
C303 C193 2.206 . S
C301 N54 2.040 . S
C321 C233 2.187 1_455 S
C319 N67 2.015 1_455 S
C339 C122 2.173 1_554 S
C337 N28 2.000 1_545 S
C355 N41 2.017 . S
C357 C162 2.194 1_554 S
C373 N2 2.034 . S
C375 C202 2.206 1_554 S
C391 N15 2.016 . S
C393 C242 2.187 1_654 S
C411 C119 0.836 . S
C409 N70 0.854 . S
C429 C159 0.831 . S
C427 N83 0.849 . S
C447 C199 0.825 . S
C445 N96 0.844 . S
C463 N57 0.849 . S
C465 C239 0.824 . S
C481 N18 0.858 1_455 S
C483 C110 0.839 . S
C501 C150 0.831 . S
C499 N31 0.851 1_545 S
C519 C190 0.826 . S
C517 N44 0.847 . S
C535 N5 0.852 . S
C537 C230 0.830 . S
C553 N66 2.415 1_455 S
C555 C123 2.530 . S
C571 N79 2.369 1_545 S
C573 C163 2.484 . S
C591 C203 2.467 . S
C589 N92 2.358 . S
C609 C243 2.517 . S
C607 N53 2.401 . S
C625 N14 2.403 . S
C627 C114 2.537 . S
C645 C154 2.484 . S
C643 N27 2.355 . S
C663 C194 2.467 . S
C661 N40 2.337 . S
C679 N1 2.383 . S
C681 C234 2.520 . S
