# Generated by pormake.
# Topology zzz, (3,6)-cn, num edge types: 1
# Building blocks:
#     Node 0, Type 0, BuildingBlock: KAKCAD_clean_linker_0, # of connection points: 3
#     Node 1, Type 0, BuildingBlock: KAKCAD_clean_linker_0, # of connection points: 3
#     Node 2, Type 0, BuildingBlock: KAKCAD_clean_linker_0, # of connection points: 3
#     Node 3, Type 0, BuildingBlock: KAKCAD_clean_linker_0, # of connection points: 3
#     Node 4, Type 0, BuildingBlock: KAKCAD_clean_linker_0, # of connection points: 3
#     Node 5, Type 0, BuildingBlock: KAKCAD_clean_linker_0, # of connection points: 3
#     Node 6, Type 0, BuildingBlock: KAKCAD_clean_linker_0, # of connection points: 3
#     Node 7, Type 0, BuildingBlock: KAKCAD_clean_linker_0, # of connection points: 3
#     Node 8, Type 1, BuildingBlock: VOLQOD_clean_sbu_1, # of connection points: 6
#     Node 9, Type 1, BuildingBlock: VOLQOD_clean_sbu_1, # of connection points: 6
#     Node 10, Type 1, BuildingBlock: VOLQOD_clean_sbu_1, # of connection points: 6
#     Node 11, Type 1, BuildingBlock: VOLQOD_clean_sbu_1, # of connection points: 6
#     Edge 12, Type (0, 1), None
#     Edge 13, Type (0, 1), None
#     Edge 14, Type (0, 1), None
#     Edge 15, Type (0, 1), None
#     Edge 16, Type (0, 1), None
#     Edge 17, Type (0, 1), None
#     Edge 18, Type (0, 1), None
#     Edge 19, Type (0, 1), None
#     Edge 20, Type (0, 1), None
#     Edge 21, Type (0, 1), None
#     Edge 22, Type (0, 1), None
#     Edge 23, Type (0, 1), None
#     Edge 24, Type (0, 1), None
#     Edge 25, Type (0, 1), None
#     Edge 26, Type (0, 1), None
#     Edge 27, Type (0, 1), None
#     Edge 28, Type (0, 1), None
#     Edge 29, Type (0, 1), None
#     Edge 30, Type (0, 1), None
#     Edge 31, Type (0, 1), None
#     Edge 32, Type (0, 1), None
#     Edge 33, Type (0, 1), None
#     Edge 34, Type (0, 1), None
#     Edge 35, Type (0, 1), None
# Relax obj value: 0.355
# Max RMSD: 0.257
# Mean RMSD: 0.208
data_MOF--net-zzz--node1-VOLQOD_clean_sbu_1--node2-KAKCAD_clean_linker_0--edge1-none
_symmetry_space_group_name_H-M    P1
_symmetry_Int_Tables_number       1
_symmetry_cell_setting            triclinic
loop_
_symmetry_equiv_pos_as_xyz
'x, y, z'
_cell_length_a     32.570662
_cell_length_b     32.034787
_cell_length_c     12.786272
_cell_angle_alpha  89.896971
_cell_angle_beta   90.086097
_cell_angle_gamma 92.518647
loop_
_atom_site_label
_atom_site_type_symbol
_atom_site_fract_x
_atom_site_fract_y
_atom_site_fract_z
_atom_type_partial_charge
C0 C 0.88764 0.42768 0.87651 0.0
C1 C 0.92708 0.42421 0.91918 0.0
C2 C 0.8545 0.43501 0.94157 0.0
C3 C 0.86002 0.43741 0.05065 0.0
C4 C 0.89763 0.42507 0.093 0.0
C5 C 0.93127 0.4195 0.02768 0.0
C6 C 0.8308 0.46095 0.11546 0.0
C7 C 0.78927 0.46289 0.08777 0.0
C8 C 0.76381 0.49193 0.13459 0.0
C9 C 0.77968 0.51774 0.21593 0.0
C10 C 0.82093 0.5148 0.24722 0.0
C11 C 0.846 0.48699 0.19586 0.0
C12 C 0.83959 0.5379 0.33672 0.0
C13 C 0.87397 0.56518 0.31866 0.0
C14 C 0.83384 0.52072 0.43675 0.0
C15 C 0.86487 0.52547 0.51203 0.0
C16 C 0.90187 0.54794 0.48884 0.0
C17 C 0.72226 0.49667 0.08893 0.0
C18 C 0.71042 0.53562 0.05111 0.0
C19 C 0.69773 0.46081 0.06465 0.0
C20 C 0.6643 0.46319 0.99694 0.0
C21 C 0.65412 0.50159 0.95276 0.0
C22 C 0.67645 0.5381 0.98389 0.0
C23 C 0.90488 0.57038 0.39459 0.0
H24 H 0.88331 0.43087 0.79286 0.0
H25 H 0.8262 0.44364 0.90466 0.0
H26 H 0.90242 0.42398 0.17675 0.0
H27 H 0.96125 0.41572 0.06242 0.0
H28 H 0.77702 0.44317 0.02545 0.0
H29 H 0.87812 0.48675 0.21792 0.0
H30 H 0.76034 0.5398 0.2539 0.0
H31 H 0.87936 0.57824 0.2414 0.0
H32 H 0.808 0.49912 0.45214 0.0
H33 H 0.86163 0.5081 0.58457 0.0
H34 H 0.72896 0.56372 0.06781 0.0
H35 H 0.70585 0.43043 0.09353 0.0
H36 H 0.93305 0.58777 0.37447 0.0
H37 H 0.66903 0.56821 0.95213 0.0
H38 H 0.6471 0.43459 0.97692 0.0
C39 C 0.09033 0.86896 0.8602 0.0
C40 C 0.09431 0.90989 0.8981 0.0
C41 C 0.08995 0.83533 0.92901 0.0
C42 C 0.09386 0.84204 0.03756 0.0
C43 C 0.10555 0.88273 0.07226 0.0
C44 C 0.10506 0.91666 0.00298 0.0
C45 C 0.0755 0.81004 0.11125 0.0
C46 C 0.07189 0.76776 0.08247 0.0
C47 C 0.04182 0.74061 0.12755 0.0
C48 C 0.01816 0.7544 0.21171 0.0
C49 C 0.02375 0.79581 0.24683 0.0
C50 C 0.05238 0.82307 0.19679 0.0
C51 C 0.99689 0.81421 0.3258 0.0
C52 C 0.97101 0.84571 0.29329 0.0
C53 C 0.00639 0.81056 0.43235 0.0
C54 C 0.99448 0.84116 0.50303 0.0
C55 C 0.97375 0.87609 0.46706 0.0
C56 C 0.03054 0.70168 0.07048 0.0
C57 C 0.01698 0.70479 0.96657 0.0
C58 C 0.03767 0.6622 0.11245 0.0
C59 C 0.03343 0.62653 0.04903 0.0
C60 C 0.02209 0.63 0.94285 0.0
C61 C 0.01278 0.66944 0.90351 0.0
C62 C 0.95981 0.87663 0.36318 0.0
H63 H 0.08218 0.86319 0.77907 0.0
H64 H 0.08122 0.805 0.89706 0.0
H65 H 0.11076 0.88905 0.15447 0.0
H66 H 0.1084 0.94814 0.03359 0.0
H67 H 0.08973 0.75657 0.01763 0.0
H68 H 0.05365 0.85563 0.21979 0.0
H69 H 0.99398 0.73414 0.2447 0.0
H70 H 0.96362 0.84927 0.21116 0.0
H71 H 0.02678 0.78687 0.45875 0.0
H72 H 0.00588 0.84009 0.5826 0.0
H73 H 0.01119 0.73504 0.93279 0.0
H74 H 0.04838 0.65921 0.19225 0.0
H75 H 0.94376 0.90312 0.33349 0.0
H76 H 0.00357 0.67333 0.82277 0.0
H77 H 0.04071 0.59658 0.08199 0.0
C78 C 0.66014 0.05566 0.83618 0.0
C79 C 0.62048 0.06116 0.87477 0.0
C80 C 0.69359 0.05643 0.90388 0.0
C81 C 0.68778 0.06269 0.01155 0.0
C82 C 0.64932 0.0761 0.04581 0.0
C83 C 0.61555 0.07482 0.97774 0.0
C84 C 0.71672 0.04362 0.08629 0.0
C85 C 0.75865 0.04166 0.06313 0.0
C86 C 0.78331 0.01264 0.1134 0.0
C87 C 0.76586 0.98637 0.1921 0.0
C88 C 0.72423 0.9897 0.21948 0.0
C89 C 0.70048 0.01866 0.1674 0.0
C90 C 0.70248 0.96242 0.29719 0.0
C91 C 0.66754 0.93868 0.26363 0.0
C92 C 0.70717 0.97102 0.40421 0.0
C93 C 0.67505 0.96077 0.47404 0.0
C94 C 0.63764 0.94261 0.437 0.0
C95 C 0.82545 0.00767 0.07177 0.0
C96 C 0.83693 0.96923 0.03041 0.0
C97 C 0.85116 0.04334 0.05432 0.0
C98 C 0.88571 0.04143 0.99031 0.0
C99 C 0.89564 0.00373 0.94215 0.0
C100 C 0.87182 0.96724 0.96629 0.0
C101 C 0.63513 0.92944 0.33254 0.0
H102 H 0.66455 0.04565 0.75617 0.0
H103 H 0.72252 0.04643 0.87335 0.0
H104 H 0.64417 0.08273 0.12767 0.0
H105 H 0.58517 0.07959 0.00869 0.0
H106 H 0.77151 0.06061 -0.00014 0.0
H107 H 0.66802 0.01921 0.18563 0.0
H108 H 0.78411 0.96316 0.2297 0.0
H109 H 0.66309 0.93196 0.18124 0.0
H110 H 0.73346 0.98981 0.43175 0.0
H111 H 0.67778 0.97146 0.5542 0.0
H112 H 0.81742 0.94132 0.04162 0.0
H113 H 0.84316 0.07334 0.08553 0.0
H114 H 0.60677 0.91526 0.30203 0.0
H115 H 0.87881 0.93763 0.93125 0.0
H116 H 0.90378 0.07002 0.97549 0.0
C117 C 0.53638 0.67181 0.55244 0.0
C118 C 0.5653 0.64269 0.52313 0.0
C119 C 0.52406 0.70191 0.48061 0.0
C120 C 0.54132 0.70381 0.38004 0.0
C121 C 0.57508 0.67944 0.35813 0.0
C122 C 0.5865 0.64854 0.42842 0.0
C123 C 0.51498 0.71439 0.29063 0.0
C124 C 0.52219 0.75012 0.22818 0.0
C125 C 0.50133 0.7536 0.132 0.0
C126 C 0.47693 0.71923 0.0952 0.0
C127 C 0.47083 0.68264 0.15552 0.0
C128 C 0.4871 0.68263 0.25702 0.0
C129 C 0.45572 0.64233 0.10606 0.0
C130 C 0.43174 0.64196 0.01406 0.0
C131 C 0.47217 0.60429 0.13851 0.0
C132 C 0.47042 0.56951 0.07329 0.0
C133 C 0.45294 0.57205 0.97376 0.0
C134 C 0.50556 0.79178 0.0656 0.0
C135 C 0.47017 0.80803 0.02128 0.0
C136 C 0.54416 0.8104 0.03966 0.0
C137 C 0.54719 0.84366 0.96762 0.0
C138 C 0.51163 0.85901 0.92093 0.0
C139 C 0.47312 0.8411 0.9503 0.0
C140 C 0.43095 0.60724 0.94749 0.0
H141 H 0.51931 0.66775 0.62468 0.0
H142 H 0.49749 0.71978 0.49859 0.0
H143 H 0.58842 0.67985 0.2805 0.0
H144 H 0.60879 0.62641 0.40394 0.0
H145 H 0.54372 0.77472 0.25403 0.0
H146 H 0.48164 0.65571 0.30729 0.0
H147 H 0.465 0.7205 0.01629 0.0
H148 H 0.41679 0.66967 0.98821 0.0
H149 H 0.49088 0.60211 0.20799 0.0
H150 H 0.48788 0.54273 0.09467 0.0
H151 H 0.43998 0.79467 0.04058 0.0
H152 H 0.57199 0.79837 0.07224 0.0
H153 H 0.41733 0.60986 0.87051 0.0
H154 H 0.44494 0.85218 0.91733 0.0
H155 H 0.57731 0.8569 0.94748 0.0
C156 C 0.17775 0.5879 0.52072 0.0
C157 C 0.13812 0.59138 0.47989 0.0
C158 C 0.21131 0.58621 0.45402 0.0
C159 C 0.20584 0.5887 0.34486 0.0
C160 C 0.16747 0.60146 0.30732 0.0
C161 C 0.13347 0.60192 0.37436 0.0
C162 C 0.23521 0.56758 0.27417 0.0
C163 C 0.27582 0.56118 0.30596 0.0
C164 C 0.29862 0.52958 0.26111 0.0
C165 C 0.28236 0.50667 0.17551 0.0
C166 C 0.24283 0.51462 0.13832 0.0
C167 C 0.21987 0.54501 0.18737 0.0
C168 C 0.22149 0.4886 0.05778 0.0
C169 C 0.22743 0.49785 0.95143 0.0
C170 C 0.18673 0.46399 0.08802 0.0
C171 C 0.15582 0.4536 0.01566 0.0
C172 C 0.15946 0.46705 0.9114 0.0
C173 C 0.33545 0.51634 0.3181 0.0
C174 C 0.37509 0.52304 0.27718 0.0
C175 C 0.33075 0.50073 0.42034 0.0
C176 C 0.365 0.4933 0.48228 0.0
C177 C 0.40489 0.50164 0.44373 0.0
C178 C 0.40958 0.51585 0.33958 0.0
C179 C 0.19671 0.48674 0.87829 0.0
H180 H 0.182 0.5803 0.60261 0.0
H181 H 0.23993 0.57729 0.48857 0.0
H182 H 0.16242 0.60638 0.22462 0.0
H183 H 0.10313 0.60529 0.34136 0.0
H184 H 0.28895 0.57842 0.37162 0.0
H185 H 0.18842 0.54814 0.16207 0.0
H186 H 0.29912 0.48132 0.14266 0.0
H187 H 0.25367 0.51735 0.92669 0.0
H188 H 0.18136 0.45687 0.1699 0.0
H189 H 0.12751 0.43835 0.04326 0.0
H190 H 0.37939 0.5354 0.19883 0.0
H191 H 0.30034 0.49544 0.45345 0.0
H192 H 0.20022 0.49778 0.79853 0.0
H193 H 0.43985 0.52252 0.30708 0.0
H194 H 0.3601 0.48227 0.5616 0.0
C195 C 0.95428 0.15627 0.47393 0.0
C196 C 0.94818 0.11586 0.4327 0.0
C197 C 0.96451 0.18975 0.40804 0.0
C198 C 0.96729 0.18369 0.29932 0.0
C199 C 0.95294 0.14496 0.2578 0.0
C200 C 0.94434 0.111 0.32409 0.0
C201 C 0.99251 0.21387 0.23432 0.0
C202 C 0.99692 0.25627 0.26101 0.0
C203 C 0.02726 0.28269 0.21413 0.0
C204 C 0.05179 0.26723 0.13349 0.0
C205 C 0.04629 0.22524 0.1028 0.0
C206 C 0.01735 0.19898 0.15445 0.0
C207 C 0.06744 0.20721 0.01267 0.0
C208 C 0.05016 0.21293 0.91357 0.0
C209 C 0.09198 0.17272 0.02959 0.0
C210 C 0.09388 0.14126 0.95402 0.0
C211 C 0.07088 0.14396 0.8616 0.0
C212 C 0.03474 0.32476 0.25971 0.0
C213 C 1.00142 0.35042 0.27414 0.0
C214 C 0.07217 0.33505 0.31035 0.0
C215 C 0.07499 0.36831 0.38162 0.0
C216 C 0.04031 0.39142 0.4035 0.0
C217 C 0.00413 0.38331 0.34538 0.0
C218 C 0.05155 0.18132 0.83877 0.0
H219 H 0.95684 0.16123 0.55754 0.0
H220 H 0.97467 0.21887 0.44434 0.0
H221 H 0.95216 0.13966 0.17421 0.0
H222 H 0.93858 0.08031 0.29025 0.0
H223 H 0.97811 0.26856 0.32255 0.0
H224 H 0.01515 0.16629 0.13273 0.0
H225 H 0.07479 0.28747 0.09557 0.0
H226 H 0.03072 0.23895 0.89916 0.0
H227 H 0.1051 0.16744 0.10615 0.0
H228 H 0.10895 0.11278 0.97354 0.0
H229 H 0.97229 0.34315 0.23577 0.0
H230 H 0.09815 0.31538 0.30124 0.0
H231 H 0.03389 0.18425 0.76743 0.0
H232 H 0.97712 0.40119 0.35834 0.0
H233 H 0.1034 0.37413 0.42434 0.0
C234 C 0.36211 0.91902 0.46496 0.0
C235 C 0.40086 0.91328 0.4207 0.0
C236 C 0.32885 0.92758 0.40126 0.0
C237 C 0.33333 0.92894 0.29171 0.0
C238 C 0.36984 0.91413 0.24851 0.0
C239 C 0.40385 0.90773 0.3124 0.0
C240 C 0.30505 0.95418 0.22715 0.0
C241 C 0.26538 0.96264 0.26197 0.0
C242 C 0.2434 0.99515 0.21799 0.0
C243 C 0.25949 0.01713 0.13041 0.0
C244 C 0.29828 0.00739 0.09127 0.0
C245 C 0.32061 0.97654 0.14039 0.0
C246 C 0.31834 0.02844 0.0006 0.0
C247 C 0.3133 0.00927 0.90274 0.0
C248 C 0.35359 0.05455 0.01844 0.0
C249 C 0.38569 0.05671 0.94529 0.0
C250 C 0.38296 0.03243 0.85408 0.0
C251 C 0.20688 0.00859 0.27565 0.0
C252 C 0.16694 1.00035 0.23763 0.0
C253 C 0.2122 0.02346 0.37827 0.0
C254 C 0.17845 0.028 0.4438 0.0
C255 C 0.13843 0.01766 0.4084 0.0
C256 C 0.13293 0.00495 0.30343 0.0
C257 C 0.34543 0.01104 0.83031 0.0
H258 H 0.35862 0.92277 0.54866 0.0
H259 H 0.30155 0.9378 0.43974 0.0
H260 H 0.37374 0.9115 0.1648 0.0
H261 H 0.4332 0.90202 0.27656 0.0
H262 H 0.25202 0.94564 0.32774 0.0
H263 H 0.35142 0.97184 0.11252 0.0
H264 H 0.24288 0.04231 0.09597 0.0
H265 H 0.28685 0.98841 0.88779 0.0
H266 H 0.35853 0.06893 0.09432 0.0
H267 H 0.41423 0.07339 0.96573 0.0
H268 H 0.1622 0.98827 0.15926 0.0
H269 H 0.24281 0.02971 0.40943 0.0
H270 H 0.34234 0.99237 0.7599 0.0
H271 H 0.10253 0.99678 0.27337 0.0
H272 H 0.18395 0.03819 0.52351 0.0
C273 C 0.4653 0.34391 0.92182 0.0
C274 C 0.49358 0.3502 0.84 0.0
C275 C 0.46959 0.31063 0.99192 0.0
C276 C 0.50234 0.28364 0.9813 0.0
C277 C 0.52578 0.28579 0.88948 0.0
C278 C 0.52152 0.31889 0.81948 0.0
C279 C 0.52317 0.27114 0.07843 0.0
C280 C 0.51416 0.23368 0.13284 0.0
C281 C 0.53094 0.22774 0.23385 0.0
C282 C 0.55317 0.26163 0.28131 0.0
C283 C 0.56281 0.29888 0.22633 0.0
C284 C 0.55005 0.30148 0.12226 0.0
C285 C 0.58044 0.33706 0.28053 0.0
C286 C 0.60389 0.33423 0.37279 0.0
C287 C 0.56954 0.3771 0.24697 0.0
C288 C 0.57775 0.41212 0.30871 0.0
C289 C 0.59535 0.40802 0.40811 0.0
C290 C 0.52506 0.18734 0.29284 0.0
C291 C 0.48943 0.16101 0.28151 0.0
C292 C 0.55552 0.17515 0.36391 0.0
C293 C 0.54975 0.13932 0.42525 0.0
C294 C 0.5141 0.11369 0.41489 0.0
C295 C 0.48425 0.12425 0.34125 0.0
C296 C 0.6109 0.36932 0.43661 0.0
H297 H 0.44328 0.36729 0.93929 0.0
H298 H 0.45139 0.30995 0.06283 0.0
H299 H 0.55145 0.26573 0.87984 0.0
H300 H 0.54323 0.32243 0.75561 0.0
H301 H 0.49468 0.20965 0.09626 0.0
H302 H 0.55839 0.32891 0.07602 0.0
H303 H 0.5614 0.25948 0.36302 0.0
H304 H 0.61465 0.30455 0.39942 0.0
H305 H 0.55128 0.38167 0.17762 0.0
H306 H 0.56598 0.44156 0.28307 0.0
H307 H 0.46509 0.16911 0.22852 0.0
H308 H 0.58413 0.19331 0.37269 0.0
H309 H 0.62543 0.36525 0.51199 0.0
H310 H 0.45651 0.10468 0.33189 0.0
H311 H 0.57351 0.13132 0.4803 0.0
O312 O 0.11033 0.02246 0.58035 0.0
Zn313 Zn 0.07445 0.02122 0.71049 0.0
O314 O 0.01595 0.01033 0.66992 0.0
Zn315 Zn 0.98402 0.05632 0.71663 0.0
Zn316 Zn 0.01095 0.0052 0.51793 0.0
Zn317 Zn 0.99222 0.95932 0.73409 0.0
O318 O 0.94207 0.03868 0.82492 0.0
O319 O 0.94418 0.96964 0.83316 0.0
O320 O 0.08349 0.07712 0.7865 0.0
O321 O 0.02053 0.1009 0.77962 0.0
O322 O 0.95709 0.08475 0.59781 0.0
O323 O 0.97739 0.05058 0.4577 0.0
O324 O 0.98736 0.94868 0.47654 0.0
O325 O 0.09393 0.97463 0.80486 0.0
O326 O 0.97741 0.91465 0.6264 0.0
O327 O 0.0364 0.93454 0.81651 0.0
C328 C 0.10328 0.01757 0.48275 0.0
C329 C 0.92919 0.00379 0.86313 0.0
C330 C 0.95814 0.08007 0.49917 0.0
C331 C 0.05833 0.10575 0.80336 0.0
C332 C 0.97696 0.91555 0.52681 0.0
C333 C 0.07411 0.9421 0.83811 0.0
O334 O 0.06685 0.0106 0.44866 0.0
O335 O 0.50739 0.08103 0.58053 0.0
Zn336 Zn 0.50509 0.04146 0.70468 0.0
O337 O 0.51127 0.98331 0.65396 0.0
Zn338 Zn 0.4645 0.94902 0.70061 0.0
Zn339 Zn 0.51389 0.98163 0.50078 0.0
Zn340 Zn 0.56055 0.95874 0.711 0.0
O341 O 0.48001 0.90569 0.80458 0.0
O342 O 0.54805 0.90989 0.8123 0.0
O343 O 0.45038 0.04819 0.78275 0.0
O344 O 0.42282 0.98389 0.76753 0.0
O345 O 0.43446 0.92165 0.58244 0.0
O346 O 0.46636 0.94677 0.44106 0.0
O347 O 0.56798 0.95958 0.45227 0.0
O348 O 0.55344 0.06 0.79764 0.0
O349 O 0.60103 0.94373 0.59818 0.0
O350 O 0.5908 0.00351 0.78864 0.0
C351 C 0.509 0.07624 0.48165 0.0
C352 C 0.51362 0.89329 0.84186 0.0
C353 C 0.43749 0.92467 0.48369 0.0
C354 C 0.42043 0.02165 0.79626 0.0
C355 C 0.5996 0.94648 0.49887 0.0
C356 C 0.58604 0.04089 0.81775 0.0
O357 O 0.51091 0.04022 0.44021 0.0
O358 O 0.43605 0.48473 0.6074 0.0
Zn359 Zn 0.47486 0.47916 0.73161 0.0
O360 O 0.53167 0.49764 0.68961 0.0
Zn361 Zn 0.56888 0.45288 0.715 0.0
Zn362 Zn 0.53352 0.51151 0.5417 0.0
Zn363 Zn 0.55203 0.54705 0.76643 0.0
O364 O 0.61118 0.46894 0.82404 0.0
O365 O 0.60252 0.53614 0.85554 0.0
O366 O 0.4723 0.41811 0.78487 0.0
O367 O 0.53777 0.40277 0.76913 0.0
O368 O 0.59451 0.43163 0.58375 0.0
O369 O 0.56445 0.4695 0.46305 0.0
O370 O 0.5568 0.56965 0.51454 0.0
O371 O 0.45442 0.51707 0.84744 0.0
O372 O 0.56136 0.598 0.67263 0.0
O373 O 0.50844 0.56176 0.86515 0.0
C374 C 0.44111 0.49777 0.51358 0.0
C375 C 0.62108 0.50256 0.87279 0.0
C376 C 0.58726 0.43985 0.4883 0.0
C377 C 0.50088 0.39215 0.79238 0.0
C378 C 0.56381 0.60115 0.57348 0.0
C379 C 0.47235 0.54885 0.89026 0.0
O380 O 0.47655 0.50941 0.4799 0.0
O381 O 0.96839 0.56678 0.56176 0.0
Zn382 Zn 0.02251 0.56282 0.64435 0.0
O383 O 0.03225 0.50485 0.69122 0.0
Zn384 Zn 0.03501 0.5008 0.84327 0.0
Zn385 Zn 0.98728 0.46877 0.64184 0.0
Zn386 Zn 0.08332 0.48436 0.63507 0.0
O387 O 0.08942 0.48094 0.89222 0.0
O388 O 0.1244 0.4691 0.74732 0.0
O389 O 0.01933 0.59954 0.77284 0.0
O390 O 0.02894 0.55752 0.9085 0.0
O391 O 0.98966 0.46268 0.89891 0.0
O392 O 0.9596 0.43607 0.75666 0.0
O393 O 0.00557 0.43116 0.52833 0.0
O394 O 0.0708 0.58624 0.55636 0.0
O395 O 0.07368 0.43817 0.52659 0.0
O396 O 0.11112 0.53191 0.56289 0.0
C397 C 0.93923 0.53924 0.54982 0.0
C398 C 0.122 0.47011 0.84671 0.0
C399 C 0.96256 0.43861 0.85561 0.0
C400 C 0.02272 0.5936 0.87123 0.0
C401 C 0.04012 0.42192 0.4905 0.0
C402 C 0.10454 0.56923 0.53612 0.0
O403 O 0.94295 0.50183 0.58022 0.0
loop_
_geom_bond_atom_site_label_1
_geom_bond_atom_site_label_2
_geom_bond_distance
_geom_bond_site_symmetry_2
_ccdc_geom_bond_type
C0 C1 1.386 . S
C0 C2 1.397 . S
C0 H24 0.931 . S
C1 C0 1.386 . S
C1 C5 1.397 . S
C2 C0 1.397 . S
C2 C3 1.384 . S
C2 H25 0.930 . S
C3 C2 1.384 . S
C3 C4 1.377 . S
C3 C6 1.481 . S
C4 C3 1.377 . S
C4 C5 1.389 . S
C4 H26 0.929 . S
C5 C1 1.397 . S
C5 C4 1.389 . S
C5 H27 0.931 . S
C6 C3 1.481 . S
C6 C7 1.387 . S
C6 C11 1.390 1_556 S
C7 C6 1.387 . S
C7 C8 1.401 1_556 S
C7 H28 0.930 . S
C8 C7 1.401 1_554 S
C8 C9 1.376 . S
C8 C17 1.511 1_554 S
C9 C8 1.376 . S
C9 C10 1.392 . S
C9 H30 0.931 . S
C10 C9 1.392 . S
C10 C11 1.361 . S
C10 C12 1.500 . S
C11 C6 1.390 1_554 S
C11 C10 1.361 . S
C11 H29 0.931 . S
C12 C10 1.500 . S
C12 C13 1.371 . S
C12 C14 1.365 . S
C13 C12 1.371 . S
C13 C23 1.386 . S
C13 H31 0.931 . S
C14 C12 1.365 . S
C14 C15 1.409 . S
C14 H32 0.929 . S
C15 C14 1.409 . S
C15 C16 1.380 . S
C15 H33 0.930 . S
C16 C15 1.380 . S
C16 C23 1.357 . S
C17 C8 1.511 1_556 S
C17 C18 1.341 . S
C17 C19 1.371 1_556 S
C18 C17 1.341 . S
C18 C22 1.394 . S
C18 H34 0.930 . S
C19 C17 1.371 1_554 S
C19 C20 1.392 . S
C19 H35 0.931 . S
C20 C19 1.392 . S
C20 C21 1.331 1_554 S
C20 H38 0.932 . S
C21 C20 1.331 1_556 S
C21 C22 1.336 . S
C22 C18 1.394 . S
C22 C21 1.336 . S
C22 H37 0.929 . S
C23 C13 1.386 . S
C23 C16 1.357 . S
C23 H36 0.928 . S
H24 C0 0.931 . S
H25 C2 0.930 . S
H26 C4 0.929 . S
H27 C5 0.931 . S
H28 C7 0.930 . S
H29 C11 0.931 . S
H30 C9 0.931 . S
H31 C13 0.931 . S
H32 C14 0.929 . S
H33 C15 0.930 . S
H34 C18 0.930 . S
H35 C19 0.931 . S
H36 C23 0.928 . S
H37 C22 0.929 . S
H38 C20 0.932 . S
C39 C40 1.386 . S
C39 C41 1.397 . S
C39 H63 0.931 . S
C40 C39 1.386 . S
C40 C44 1.397 1_655 S
C41 C39 1.397 . S
C41 C42 1.384 . S
C41 H64 0.930 . S
C42 C41 1.384 . S
C42 C43 1.377 1_655 S
C42 C45 1.481 1_556 S
C43 C42 1.377 1_455 S
C43 C44 1.389 . S
C43 H65 0.929 1_556 S
C44 C40 1.397 1_455 S
C44 C43 1.389 . S
C44 H66 0.931 . S
C45 C42 1.481 1_554 S
C45 C46 1.387 . S
C45 C50 1.390 . S
C46 C45 1.387 . S
C46 C47 1.401 . S
C46 H67 0.930 1_554 S
C47 C46 1.401 . S
C47 C48 1.376 . S
C47 C56 1.511 . S
C48 C47 1.376 . S
C48 C49 1.392 . S
C48 H69 0.931 . S
C49 C48 1.392 . S
C49 C50 1.361 . S
C49 C51 1.500 . S
C50 C45 1.390 . S
C50 C49 1.361 . S
C50 H68 0.931 . S
C51 C49 1.500 . S
C51 C52 1.371 . S
C51 C53 1.365 1_655 S
C52 C51 1.371 . S
C52 C62 1.386 . S
C52 H70 0.931 . S
C53 C51 1.365 1_455 S
C53 C54 1.409 . S
C53 H71 0.929 . S
C54 C53 1.409 . S
C54 C55 1.380 1_455 S
C54 H72 0.930 . S
C55 C54 1.380 1_655 S
C55 C62 1.357 . S
C56 C47 1.511 . S
C56 C57 1.341 1_554 S
C56 C58 1.371 . S
C57 C56 1.341 1_556 S
C57 C61 1.394 . S
C57 H73 0.930 . S
C58 C56 1.371 . S
C58 C59 1.392 . S
C58 H74 0.931 1_655 S
C59 C58 1.392 . S
C59 C60 1.331 1_554 S
C59 H77 0.932 1_655 S
C60 C59 1.331 1_556 S
C60 C61 1.336 . S
C61 C57 1.394 . S
C61 C60 1.336 . S
C61 H76 0.929 . S
C62 C52 1.386 . S
C62 C55 1.357 . S
C62 H75 0.928 . S
H63 C39 0.931 . S
H64 C41 0.930 . S
H65 C43 0.929 1_554 S
H66 C44 0.931 . S
H67 C46 0.930 1_556 S
H68 C50 0.931 . S
H69 C48 0.931 . S
H70 C52 0.931 . S
H71 C53 0.929 . S
H72 C54 0.930 . S
H73 C57 0.930 . S
H74 C58 0.931 1_455 S
H75 C62 0.928 . S
H76 C61 0.929 . S
H77 C59 0.932 1_455 S
C78 C79 1.386 . S
C78 C80 1.397 . S
C78 H102 0.931 . S
C79 C78 1.386 . S
C79 C83 1.397 1_565 S
C80 C78 1.397 . S
C80 C81 1.385 . S
C80 H103 0.930 . S
C81 C80 1.385 . S
C81 C82 1.377 1_565 S
C81 C84 1.481 . S
C82 C81 1.377 1_545 S
C82 C83 1.389 . S
C82 H104 0.929 . S
C83 C79 1.397 1_545 S
C83 C82 1.389 . S
C83 H105 0.931 . S
C84 C81 1.481 . S
C84 C85 1.387 . S
C84 C89 1.391 1_556 S
C85 C84 1.387 . S
C85 C86 1.401 1_556 S
C85 H106 0.930 . S
C86 C85 1.401 1_554 S
C86 C87 1.376 . S
C86 C95 1.511 . S
C87 C86 1.376 . S
C87 C88 1.392 . S
C87 H108 0.931 . S
C88 C87 1.392 . S
C88 C89 1.361 . S
C88 C90 1.499 1_565 S
C89 C84 1.391 1_554 S
C89 C88 1.361 . S
C89 H107 0.930 . S
C90 C88 1.499 1_545 S
C90 C91 1.371 1_545 S
C90 C92 1.365 . S
C91 C90 1.371 1_565 S
C91 C101 1.386 . S
C91 H109 0.931 . S
C92 C90 1.365 . S
C92 C93 1.409 . S
C92 H110 0.929 . S
C93 C92 1.409 . S
C93 C94 1.385 . S
C93 H111 0.930 . S
C94 C93 1.385 . S
C94 C101 1.353 1_545 S
C95 C86 1.511 . S
C95 C96 1.341 1_554 S
C95 C97 1.371 1_565 S
C96 C95 1.341 1_556 S
C96 C100 1.394 . S
C96 H112 0.930 . S
C97 C95 1.371 1_545 S
C97 C98 1.392 . S
C97 H113 0.931 . S
C98 C97 1.392 . S
C98 C99 1.331 1_544 S
C98 H116 0.932 . S
C99 C98 1.331 1_566 S
C99 C100 1.336 . S
C100 C96 1.394 . S
C100 C99 1.336 . S
C100 H115 0.929 . S
C101 C91 1.386 . S
C101 C94 1.353 1_565 S
C101 H114 0.928 . S
H102 C78 0.931 . S
H103 C80 0.930 . S
H104 C82 0.929 . S
H105 C83 0.931 . S
H106 C85 0.930 . S
H107 C89 0.930 . S
H108 C87 0.931 . S
H109 C91 0.931 . S
H110 C92 0.929 . S
H111 C93 0.930 . S
H112 C96 0.930 . S
H113 C97 0.931 . S
H114 C101 0.928 . S
H115 C100 0.929 . S
H116 C98 0.932 . S
C117 C118 1.386 . S
C117 C119 1.397 . S
C117 H141 0.931 . S
C118 C117 1.386 . S
C118 C122 1.397 . S
C119 C117 1.397 . S
C119 C120 1.384 . S
C119 H142 0.930 . S
C120 C119 1.384 . S
C120 C121 1.377 . S
C120 C123 1.481 . S
C121 C120 1.377 . S
C121 C122 1.389 . S
C121 H143 0.929 . S
C122 C118 1.397 . S
C122 C121 1.389 . S
C122 H144 0.931 . S
C123 C120 1.481 . S
C123 C124 1.387 . S
C123 C128 1.390 . S
C124 C123 1.387 . S
C124 C125 1.401 . S
C124 H145 0.930 . S
C125 C124 1.401 . S
C125 C126 1.376 1_554 S
C125 C134 1.511 . S
C126 C125 1.376 1_556 S
C126 C127 1.392 . S
C126 H147 0.931 . S
C127 C126 1.392 . S
C127 C128 1.361 1_556 S
C127 C129 1.500 . S
C128 C123 1.390 . S
C128 C127 1.361 1_554 S
C128 H146 0.931 . S
C129 C127 1.500 . S
C129 C130 1.371 . S
C129 C131 1.365 . S
C130 C129 1.371 . S
C130 C140 1.386 . S
C130 H148 0.931 . S
C131 C129 1.365 . S
C131 C132 1.409 . S
C131 H149 0.929 . S
C132 C131 1.409 . S
C132 C133 1.380 . S
C132 H150 0.930 . S
C133 C132 1.380 . S
C133 C140 1.357 . S
C134 C125 1.511 . S
C134 C135 1.341 . S
C134 C136 1.371 1_554 S
C135 C134 1.341 . S
C135 C139 1.394 . S
C135 H151 0.930 . S
C136 C134 1.371 1_556 S
C136 C137 1.392 . S
C136 H152 0.931 . S
C137 C136 1.392 . S
C137 C138 1.331 . S
C137 H155 0.932 . S
C138 C137 1.331 . S
C138 C139 1.336 1_556 S
C139 C135 1.394 . S
C139 C138 1.336 1_554 S
C139 H154 0.929 . S
C140 C130 1.386 . S
C140 C133 1.357 . S
C140 H153 0.928 . S
H141 C117 0.931 . S
H142 C119 0.930 . S
H143 C121 0.929 . S
H144 C122 0.931 . S
H145 C124 0.930 . S
H146 C128 0.931 . S
H147 C126 0.931 . S
H148 C130 0.931 . S
H149 C131 0.929 . S
H150 C132 0.930 . S
H151 C135 0.930 . S
H152 C136 0.931 . S
H153 C140 0.928 . S
H154 C139 0.929 . S
H155 C137 0.932 . S
C156 C157 1.386 . S
C156 C158 1.397 . S
C156 H180 0.931 . S
C157 C156 1.386 . S
C157 C161 1.397 . S
C158 C156 1.397 . S
C158 C159 1.384 . S
C158 H181 0.930 . S
C159 C158 1.384 . S
C159 C160 1.377 . S
C159 C162 1.481 . S
C160 C159 1.377 . S
C160 C161 1.389 . S
C160 H182 0.929 . S
C161 C157 1.397 . S
C161 C160 1.389 . S
C161 H183 0.931 . S
C162 C159 1.481 . S
C162 C163 1.387 . S
C162 C167 1.390 . S
C163 C162 1.387 . S
C163 C164 1.401 . S
C163 H184 0.930 . S
C164 C163 1.401 . S
C164 C165 1.376 . S
C164 C173 1.511 . S
C165 C164 1.376 . S
C165 C166 1.392 . S
C165 H186 0.931 . S
C166 C165 1.392 . S
C166 C167 1.361 . S
C166 C168 1.500 . S
C167 C162 1.390 . S
C167 C166 1.361 . S
C167 H185 0.931 . S
C168 C166 1.500 . S
C168 C169 1.371 1_554 S
C168 C170 1.365 . S
C169 C168 1.371 1_556 S
C169 C179 1.386 . S
C169 H187 0.931 . S
C170 C168 1.365 . S
C170 C171 1.409 1_554 S
C170 H188 0.929 . S
C171 C170 1.409 1_556 S
C171 C172 1.380 . S
C171 H189 0.930 . S
C172 C171 1.380 . S
C172 C179 1.357 . S
C173 C164 1.511 . S
C173 C174 1.341 . S
C173 C175 1.371 . S
C174 C173 1.341 . S
C174 C178 1.394 . S
C174 H190 0.930 . S
C175 C173 1.371 . S
C175 C176 1.392 . S
C175 H191 0.931 . S
C176 C175 1.392 . S
C176 C177 1.331 . S
C176 H194 0.932 . S
C177 C176 1.331 . S
C177 C178 1.336 . S
C178 C174 1.394 . S
C178 C177 1.336 . S
C178 H193 0.929 . S
C179 C169 1.386 . S
C179 C172 1.357 . S
C179 H192 0.928 . S
H180 C156 0.931 . S
H181 C158 0.930 . S
H182 C160 0.929 . S
H183 C161 0.931 . S
H184 C163 0.930 . S
H185 C167 0.931 . S
H186 C165 0.931 . S
H187 C169 0.931 . S
H188 C170 0.929 . S
H189 C171 0.930 . S
H190 C174 0.930 . S
H191 C175 0.931 . S
H192 C179 0.928 . S
H193 C178 0.929 . S
H194 C176 0.932 . S
C195 C196 1.386 . S
C195 C197 1.397 . S
C195 H219 0.931 . S
C196 C195 1.386 . S
C196 C200 1.397 . S
C197 C195 1.397 . S
C197 C198 1.384 . S
C197 H220 0.930 . S
C198 C197 1.384 . S
C198 C199 1.377 . S
C198 C201 1.481 . S
C199 C198 1.377 . S
C199 C200 1.389 . S
C199 H221 0.929 . S
C200 C196 1.397 . S
C200 C199 1.389 . S
C200 H222 0.931 . S
C201 C198 1.481 . S
C201 C202 1.387 . S
C201 C206 1.390 . S
C202 C201 1.387 . S
C202 C203 1.401 . S
C202 H223 0.930 . S
C203 C202 1.401 . S
C203 C204 1.376 . S
C203 C212 1.511 . S
C204 C203 1.376 . S
C204 C205 1.392 . S
C204 H225 0.931 . S
C205 C204 1.392 . S
C205 C206 1.361 . S
C205 C207 1.500 . S
C206 C201 1.390 . S
C206 C205 1.361 . S
C206 H224 0.931 . S
C207 C205 1.500 . S
C207 C208 1.371 . S
C207 C209 1.365 . S
C208 C207 1.371 . S
C208 C218 1.386 1_554 S
C208 H226 0.931 . S
C209 C207 1.365 . S
C209 C210 1.409 1_554 S
C209 H227 0.929 . S
C210 C209 1.409 1_556 S
C210 C211 1.380 . S
C210 H228 0.930 . S
C211 C210 1.380 . S
C211 C218 1.357 . S
C212 C203 1.511 . S
C212 C213 1.341 . S
C212 C214 1.371 . S
C213 C212 1.341 . S
C213 C217 1.394 . S
C213 H229 0.930 . S
C214 C212 1.371 . S
C214 C215 1.392 . S
C214 H230 0.931 . S
C215 C214 1.392 . S
C215 C216 1.331 . S
C215 H233 0.932 . S
C216 C215 1.331 . S
C216 C217 1.336 . S
C217 C213 1.394 . S
C217 C216 1.336 . S
C217 H232 0.929 . S
C218 C208 1.386 1_556 S
C218 C211 1.357 . S
C218 H231 0.928 . S
H219 C195 0.931 . S
H220 C197 0.930 . S
H221 C199 0.929 . S
H222 C200 0.931 . S
H223 C202 0.930 . S
H224 C206 0.931 . S
H225 C204 0.931 . S
H226 C208 0.931 . S
H227 C209 0.929 . S
H228 C210 0.930 . S
H229 C213 0.930 . S
H230 C214 0.931 . S
H231 C218 0.928 . S
H232 C217 0.929 . S
H233 C215 0.932 . S
C234 C235 1.386 1_565 S
C234 C236 1.397 . S
C234 H258 0.931 . S
C235 C234 1.386 1_545 S
C235 C239 1.398 . S
C236 C234 1.397 . S
C236 C237 1.384 1_565 S
C236 H259 0.930 . S
C237 C236 1.384 1_545 S
C237 C238 1.377 . S
C237 C240 1.481 1_545 S
C238 C237 1.377 . S
C238 C239 1.389 . S
C238 H260 0.929 . S
C239 C235 1.398 . S
C239 C238 1.389 . S
C239 H261 0.931 . S
C240 C237 1.481 1_565 S
C240 C241 1.387 . S
C240 C245 1.390 . S
C241 C240 1.387 . S
C241 C242 1.401 . S
C241 H262 0.930 . S
C242 C241 1.401 . S
C242 C243 1.376 . S
C242 C251 1.511 . S
C243 C242 1.376 . S
C243 C244 1.392 . S
C243 H264 0.931 . S
C244 C243 1.392 . S
C244 C245 1.361 . S
C244 C246 1.500 1_565 S
C245 C240 1.390 . S
C245 C244 1.361 . S
C245 H263 0.931 1_565 S
C246 C244 1.500 1_545 S
C246 C247 1.371 1_544 S
C246 C248 1.365 . S
C247 C246 1.371 1_566 S
C247 C257 1.386 . S
C247 H265 0.931 1_556 S
C248 C246 1.365 . S
C248 C249 1.409 1_554 S
C248 H266 0.929 . S
C249 C248 1.409 1_556 S
C249 C250 1.387 . S
C249 H267 0.930 . S
C250 C249 1.387 . S
C250 C257 1.351 1_545 S
C251 C242 1.511 . S
C251 C252 1.341 . S
C251 C253 1.371 1_565 S
C252 C251 1.341 . S
C252 C256 1.394 . S
C252 H268 0.930 . S
C253 C251 1.371 1_545 S
C253 C254 1.392 . S
C253 H269 0.931 . S
C254 C253 1.392 . S
C254 C255 1.331 1_545 S
C254 H272 0.932 . S
C255 C254 1.331 1_565 S
C255 C256 1.336 . S
C256 C252 1.394 . S
C256 C255 1.336 . S
C256 H271 0.929 . S
C257 C247 1.386 . S
C257 C250 1.351 1_565 S
C257 H270 0.928 . S
H258 C234 0.931 . S
H259 C236 0.930 . S
H260 C238 0.929 . S
H261 C239 0.931 . S
H262 C241 0.930 . S
H263 C245 0.931 1_545 S
H264 C243 0.931 . S
H265 C247 0.931 1_554 S
H266 C248 0.929 . S
H267 C249 0.930 . S
H268 C252 0.930 . S
H269 C253 0.931 . S
H270 C257 0.928 . S
H271 C256 0.929 . S
H272 C254 0.932 . S
C273 C274 1.386 . S
C273 C275 1.397 . S
C273 H297 0.931 . S
C274 C273 1.386 . S
C274 C278 1.397 . S
C275 C273 1.397 . S
C275 C276 1.384 1_556 S
C275 H298 0.930 . S
C276 C275 1.384 1_554 S
C276 C277 1.377 . S
C276 C279 1.481 . S
C277 C276 1.377 . S
C277 C278 1.389 1_554 S
C277 H299 0.929 . S
C278 C274 1.397 . S
C278 C277 1.389 1_556 S
C278 H300 0.931 . S
C279 C276 1.481 . S
C279 C280 1.387 . S
C279 C284 1.390 . S
C280 C279 1.387 . S
C280 C281 1.401 . S
C280 H301 0.930 . S
C281 C280 1.401 . S
C281 C282 1.376 . S
C281 C290 1.511 . S
C282 C281 1.376 . S
C282 C283 1.392 . S
C282 H303 0.931 . S
C283 C282 1.392 . S
C283 C284 1.361 . S
C283 C285 1.500 . S
C284 C279 1.390 . S
C284 C283 1.361 . S
C284 H302 0.931 . S
C285 C283 1.500 . S
C285 C286 1.371 . S
C285 C287 1.365 . S
C286 C285 1.371 . S
C286 C296 1.386 . S
C286 H304 0.931 . S
C287 C285 1.365 . S
C287 C288 1.409 . S
C287 H305 0.929 . S
C288 C287 1.409 . S
C288 C289 1.380 . S
C288 H306 0.930 . S
C289 C288 1.380 . S
C289 C296 1.357 . S
C290 C281 1.511 . S
C290 C291 1.341 . S
C290 C292 1.371 . S
C291 C290 1.341 . S
C291 C295 1.394 . S
C291 H307 0.930 . S
C292 C290 1.371 . S
C292 C293 1.392 . S
C292 H308 0.931 . S
C293 C292 1.392 . S
C293 C294 1.331 . S
C293 H311 0.932 . S
C294 C293 1.331 . S
C294 C295 1.336 . S
C295 C291 1.394 . S
C295 C294 1.336 . S
C295 H310 0.929 . S
C296 C286 1.386 . S
C296 C289 1.357 . S
C296 H309 0.928 . S
H297 C273 0.931 . S
H298 C275 0.930 . S
H299 C277 0.929 . S
H300 C278 0.931 . S
H301 C280 0.930 . S
H302 C284 0.931 . S
H303 C282 0.931 . S
H304 C286 0.931 . S
H305 C287 0.929 . S
H306 C288 0.930 . S
H307 C291 0.930 . S
H308 C292 0.931 . S
H309 C296 0.928 . S
H310 C295 0.929 . S
H311 C293 0.932 . S
O312 Zn313 1.953 . S
O312 C328 1.225 . S
Zn313 O312 1.953 . S
Zn313 O314 1.950 . S
Zn313 O320 1.919 1_565 S
Zn313 O325 1.924 . S
O314 Zn313 1.950 . S
O314 Zn315 1.898 1_565 S
O314 Zn316 1.953 . S
O314 Zn317 1.966 1_455 S
Zn315 O314 1.898 1_545 S
Zn315 O318 1.933 1_455 S
Zn315 O321 1.941 . S
Zn315 O322 1.965 . S
Zn316 O314 1.953 . S
Zn316 O323 1.938 1_565 S
Zn316 O324 1.906 . S
Zn316 O334 1.953 . S
Zn317 O314 1.966 1_655 S
Zn317 O319 1.932 . S
Zn317 O326 1.977 . S
Zn317 O327 1.910 1_655 S
O318 Zn315 1.933 1_655 S
O318 C329 1.226 . S
O319 Zn317 1.932 . S
O319 C329 1.307 1_565 S
O320 Zn313 1.919 1_545 S
O320 C331 1.253 . S
O321 Zn315 1.941 . S
O321 C331 1.283 . S
O322 Zn315 1.965 . S
O322 C330 1.303 . S
O323 Zn316 1.938 1_545 S
O323 C330 1.247 . S
O324 Zn316 1.906 . S
O324 C332 1.304 1_455 S
O325 Zn313 1.924 . S
O325 C333 1.311 . S
O326 Zn317 1.977 . S
O326 C332 1.272 . S
O327 Zn317 1.910 1_455 S
O327 C333 1.231 . S
C328 O312 1.225 . S
C328 O334 1.298 . S
C329 O318 1.226 . S
C329 O319 1.307 1_545 S
C330 O322 1.303 . S
C330 O323 1.247 . S
C331 O320 1.253 . S
C331 O321 1.283 . S
C332 O324 1.304 1_655 S
C332 O326 1.272 . S
C333 O325 1.311 . S
C333 O327 1.231 . S
O334 Zn316 1.953 . S
O334 C328 1.298 . S
O335 Zn336 1.953 . S
O335 C351 1.225 . S
Zn336 O335 1.953 . S
Zn336 O337 1.949 . S
Zn336 O343 1.919 . S
Zn336 O348 1.924 . S
O337 Zn336 1.949 . S
O337 Zn338 1.923 1_545 S
O337 Zn339 1.950 . S
O337 Zn340 1.945 1_545 S
Zn338 O337 1.923 1_565 S
Zn338 O341 1.933 . S
Zn338 O344 1.941 . S
Zn338 O345 1.965 . S
Zn339 O337 1.950 . S
Zn339 O346 1.938 . S
Zn339 O347 1.906 1_545 S
Zn339 O357 1.953 . S
Zn340 O337 1.945 1_565 S
Zn340 O342 1.932 . S
Zn340 O349 1.977 . S
Zn340 O350 1.910 1_565 S
O341 Zn338 1.933 . S
O341 C352 1.226 . S
O342 Zn340 1.932 . S
O342 C352 1.307 . S
O343 Zn336 1.919 . S
O343 C354 1.253 . S
O344 Zn338 1.941 . S
O344 C354 1.283 1_565 S
O345 Zn338 1.965 . S
O345 C353 1.303 . S
O346 Zn339 1.938 . S
O346 C353 1.247 1_545 S
O347 Zn339 1.906 1_565 S
O347 C355 1.304 . S
O348 Zn336 1.924 . S
O348 C356 1.311 . S
O349 Zn340 1.977 . S
O349 C355 1.272 . S
O350 Zn340 1.910 1_545 S
O350 C356 1.231 . S
C351 O335 1.225 . S
C351 O357 1.298 . S
C352 O341 1.226 . S
C352 O342 1.307 . S
C353 O345 1.303 . S
C353 O346 1.247 1_565 S
C354 O343 1.253 . S
C354 O344 1.283 1_545 S
C355 O347 1.304 . S
C355 O349 1.272 . S
C356 O348 1.311 . S
C356 O350 1.231 . S
O357 Zn339 1.953 . S
O357 C351 1.298 . S
O358 Zn359 1.953 . S
O358 C374 1.225 . S
Zn359 O358 1.953 . S
Zn359 O360 1.949 . S
Zn359 O366 1.919 . S
Zn359 O371 1.924 . S
O360 Zn359 1.949 . S
O360 Zn361 1.923 . S
O360 Zn362 1.950 . S
O360 Zn363 1.945 . S
Zn361 O360 1.923 . S
Zn361 O364 1.933 . S
Zn361 O367 1.941 . S
Zn361 O368 1.965 . S
Zn362 O360 1.950 . S
Zn362 O369 1.938 . S
Zn362 O370 1.906 . S
Zn362 O380 1.953 . S
Zn363 O360 1.945 . S
Zn363 O365 1.932 . S
Zn363 O372 1.977 . S
Zn363 O373 1.910 . S
O364 Zn361 1.933 . S
O364 C375 1.226 . S
O365 Zn363 1.932 . S
O365 C375 1.307 . S
O366 Zn359 1.919 . S
O366 C377 1.253 . S
O367 Zn361 1.941 . S
O367 C377 1.283 . S
O368 Zn361 1.965 . S
O368 C376 1.303 . S
O369 Zn362 1.938 . S
O369 C376 1.247 . S
O370 Zn362 1.906 . S
O370 C378 1.304 . S
O371 Zn359 1.924 . S
O371 C379 1.311 . S
O372 Zn363 1.977 . S
O372 C378 1.272 . S
O373 Zn363 1.910 . S
O373 C379 1.231 . S
C374 O358 1.225 . S
C374 O380 1.298 . S
C375 O364 1.226 . S
C375 O365 1.307 . S
C376 O368 1.303 . S
C376 O369 1.247 . S
C377 O366 1.253 . S
C377 O367 1.283 . S
C378 O370 1.304 . S
C378 O372 1.272 . S
C379 O371 1.311 . S
C379 O373 1.231 . S
O380 Zn362 1.953 . S
O380 C374 1.298 . S
O381 Zn382 1.953 1_655 S
O381 C397 1.225 . S
Zn382 O381 1.953 1_455 S
Zn382 O383 1.949 . S
Zn382 O389 1.919 . S
Zn382 O394 1.924 . S
O383 Zn382 1.949 . S
O383 Zn384 1.923 . S
O383 Zn385 1.950 1_455 S
O383 Zn386 1.945 . S
Zn384 O383 1.923 . S
Zn384 O387 1.933 . S
Zn384 O390 1.941 1_455 S
Zn384 O391 1.965 1_455 S
Zn385 O383 1.950 1_655 S
Zn385 O392 1.938 . S
Zn385 O393 1.906 . S
Zn385 O403 1.953 . S
Zn386 O383 1.945 . S
Zn386 O388 1.932 . S
Zn386 O395 1.977 . S
Zn386 O396 1.910 . S
O387 Zn384 1.933 . S
O387 C398 1.226 . S
O388 Zn386 1.932 . S
O388 C398 1.307 . S
O389 Zn382 1.919 . S
O389 C400 1.253 . S
O390 Zn384 1.941 1_655 S
O390 C400 1.283 1_655 S
O391 Zn384 1.965 1_655 S
O391 C399 1.303 . S
O392 Zn385 1.938 . S
O392 C399 1.247 . S
O393 Zn385 1.906 . S
O393 C401 1.304 1_655 S
O394 Zn382 1.924 . S
O394 C402 1.311 . S
O395 Zn386 1.977 . S
O395 C401 1.272 . S
O396 Zn386 1.910 . S
O396 C402 1.231 . S
C397 O381 1.225 . S
C397 O403 1.298 . S
C398 O387 1.226 . S
C398 O388 1.307 . S
C399 O391 1.303 . S
C399 O392 1.247 . S
C400 O389 1.253 . S
C400 O390 1.283 1_455 S
C401 O393 1.304 1_455 S
C401 O395 1.272 . S
C402 O394 1.311 . S
C402 O396 1.231 . S
O403 Zn385 1.953 . S
O403 C397 1.298 . S
C255 C328 3.080 . S
C351 C294 3.420 . S
C374 C177 2.957 . S
C401 C216 2.783 . S
C329 C99 2.527 1_545 S
C138 C352 2.872 . S
C21 C375 2.579 . S
C60 C400 2.943 1_655 S
C330 C196 2.450 . S
C353 C235 1.455 1_565 S
C376 C289 1.803 . S
C157 C402 1.500 . S
C40 C333 1.957 1_655 S
C356 C79 1.826 1_545 S
C379 C133 2.333 . S
C1 C399 1.046 . S
C211 C331 3.095 . S
C250 C354 3.109 . S
C377 C274 3.257 . S
C398 C172 3.147 . S
C55 C332 3.439 . S
C355 C94 3.052 1_565 S
C378 C118 3.106 . S
C16 C397 3.393 . S
