# Generated by pormake.
# Topology eea, (3,6)-cn, num edge types: 1
# Building blocks:
#     Node 0, Type 0, BuildingBlock: QEWDON_clean_linker_0, # of connection points: 3
#     Node 1, Type 0, BuildingBlock: QEWDON_clean_linker_0, # of connection points: 3
#     Node 2, Type 0, BuildingBlock: QEWDON_clean_linker_0, # of connection points: 3
#     Node 3, Type 0, BuildingBlock: QEWDON_clean_linker_0, # of connection points: 3
#     Node 4, Type 0, BuildingBlock: QEWDON_clean_linker_0, # of connection points: 3
#     Node 5, Type 0, BuildingBlock: QEWDON_clean_linker_0, # of connection points: 3
#     Node 6, Type 0, BuildingBlock: QEWDON_clean_linker_0, # of connection points: 3
#     Node 7, Type 0, BuildingBlock: QEWDON_clean_linker_0, # of connection points: 3
#     Node 8, Type 0, BuildingBlock: QEWDON_clean_linker_0, # of connection points: 3
#     Node 9, Type 0, BuildingBlock: QEWDON_clean_linker_0, # of connection points: 3
#     Node 10, Type 0, BuildingBlock: QEWDON_clean_linker_0, # of connection points: 3
#     Node 11, Type 0, BuildingBlock: QEWDON_clean_linker_0, # of connection points: 3
#     Node 12, Type 0, BuildingBlock: QEWDON_clean_linker_0, # of connection points: 3
#     Node 13, Type 0, BuildingBlock: QEWDON_clean_linker_0, # of connection points: 3
#     Node 14, Type 0, BuildingBlock: QEWDON_clean_linker_0, # of connection points: 3
#     Node 15, Type 0, BuildingBlock: QEWDON_clean_linker_0, # of connection points: 3
#     Node 16, Type 0, BuildingBlock: QEWDON_clean_linker_0, # of connection points: 3
#     Node 17, Type 0, BuildingBlock: QEWDON_clean_linker_0, # of connection points: 3
#     Node 18, Type 1, BuildingBlock: HISSIN_clean_sbu_0, # of connection points: 6
#     Node 19, Type 1, BuildingBlock: HISSIN_clean_sbu_0, # of connection points: 6
#     Node 20, Type 1, BuildingBlock: HISSIN_clean_sbu_0, # of connection points: 6
#     Node 21, Type 1, BuildingBlock: HISSIN_clean_sbu_0, # of connection points: 6
#     Node 22, Type 1, BuildingBlock: HISSIN_clean_sbu_0, # of connection points: 6
#     Node 23, Type 1, BuildingBlock: HISSIN_clean_sbu_0, # of connection points: 6
#     Node 24, Type 1, BuildingBlock: HISSIN_clean_sbu_0, # of connection points: 6
#     Node 25, Type 1, BuildingBlock: HISSIN_clean_sbu_0, # of connection points: 6
#     Node 26, Type 1, BuildingBlock: HISSIN_clean_sbu_0, # of connection points: 6
#     Edge 27, Type (0, 1), BuildingBlock: MIFKUJ_clean_linker_0, # of connection points: 2
#     Edge 28, Type (0, 1), BuildingBlock: MIFKUJ_clean_linker_0, # of connection points: 2
#     Edge 29, Type (0, 1), BuildingBlock: MIFKUJ_clean_linker_0, # of connection points: 2
#     Edge 30, Type (0, 1), BuildingBlock: MIFKUJ_clean_linker_0, # of connection points: 2
#     Edge 31, Type (0, 1), BuildingBlock: MIFKUJ_clean_linker_0, # of connection points: 2
#     Edge 32, Type (0, 1), BuildingBlock: MIFKUJ_clean_linker_0, # of connection points: 2
#     Edge 33, Type (0, 1), BuildingBlock: MIFKUJ_clean_linker_0, # of connection points: 2
#     Edge 34, Type (0, 1), BuildingBlock: MIFKUJ_clean_linker_0, # of connection points: 2
#     Edge 35, Type (0, 1), BuildingBlock: MIFKUJ_clean_linker_0, # of connection points: 2
#     Edge 36, Type (0, 1), BuildingBlock: MIFKUJ_clean_linker_0, # of connection points: 2
#     Edge 37, Type (0, 1), BuildingBlock: MIFKUJ_clean_linker_0, # of connection points: 2
#     Edge 38, Type (0, 1), BuildingBlock: MIFKUJ_clean_linker_0, # of connection points: 2
#     Edge 39, Type (0, 1), BuildingBlock: MIFKUJ_clean_linker_0, # of connection points: 2
#     Edge 40, Type (0, 1), BuildingBlock: MIFKUJ_clean_linker_0, # of connection points: 2
#     Edge 41, Type (0, 1), BuildingBlock: MIFKUJ_clean_linker_0, # of connection points: 2
#     Edge 42, Type (0, 1), BuildingBlock: MIFKUJ_clean_linker_0, # of connection points: 2
#     Edge 43, Type (0, 1), BuildingBlock: MIFKUJ_clean_linker_0, # of connection points: 2
#     Edge 44, Type (0, 1), BuildingBlock: MIFKUJ_clean_linker_0, # of connection points: 2
#     Edge 45, Type (0, 1), BuildingBlock: MIFKUJ_clean_linker_0, # of connection points: 2
#     Edge 46, Type (0, 1), BuildingBlock: MIFKUJ_clean_linker_0, # of connection points: 2
#     Edge 47, Type (0, 1), BuildingBlock: MIFKUJ_clean_linker_0, # of connection points: 2
#     Edge 48, Type (0, 1), BuildingBlock: MIFKUJ_clean_linker_0, # of connection points: 2
#     Edge 49, Type (0, 1), BuildingBlock: MIFKUJ_clean_linker_0, # of connection points: 2
#     Edge 50, Type (0, 1), BuildingBlock: MIFKUJ_clean_linker_0, # of connection points: 2
#     Edge 51, Type (0, 1), BuildingBlock: MIFKUJ_clean_linker_0, # of connection points: 2
#     Edge 52, Type (0, 1), BuildingBlock: MIFKUJ_clean_linker_0, # of connection points: 2
#     Edge 53, Type (0, 1), BuildingBlock: MIFKUJ_clean_linker_0, # of connection points: 2
#     Edge 54, Type (0, 1), BuildingBlock: MIFKUJ_clean_linker_0, # of connection points: 2
#     Edge 55, Type (0, 1), BuildingBlock: MIFKUJ_clean_linker_0, # of connection points: 2
#     Edge 56, Type (0, 1), BuildingBlock: MIFKUJ_clean_linker_0, # of connection points: 2
#     Edge 57, Type (0, 1), BuildingBlock: MIFKUJ_clean_linker_0, # of connection points: 2
#     Edge 58, Type (0, 1), BuildingBlock: MIFKUJ_clean_linker_0, # of connection points: 2
#     Edge 59, Type (0, 1), BuildingBlock: MIFKUJ_clean_linker_0, # of connection points: 2
#     Edge 60, Type (0, 1), BuildingBlock: MIFKUJ_clean_linker_0, # of connection points: 2
#     Edge 61, Type (0, 1), BuildingBlock: MIFKUJ_clean_linker_0, # of connection points: 2
#     Edge 62, Type (0, 1), BuildingBlock: MIFKUJ_clean_linker_0, # of connection points: 2
#     Edge 63, Type (0, 1), BuildingBlock: MIFKUJ_clean_linker_0, # of connection points: 2
#     Edge 64, Type (0, 1), BuildingBlock: MIFKUJ_clean_linker_0, # of connection points: 2
#     Edge 65, Type (0, 1), BuildingBlock: MIFKUJ_clean_linker_0, # of connection points: 2
#     Edge 66, Type (0, 1), BuildingBlock: MIFKUJ_clean_linker_0, # of connection points: 2
#     Edge 67, Type (0, 1), BuildingBlock: MIFKUJ_clean_linker_0, # of connection points: 2
#     Edge 68, Type (0, 1), BuildingBlock: MIFKUJ_clean_linker_0, # of connection points: 2
#     Edge 69, Type (0, 1), BuildingBlock: MIFKUJ_clean_linker_0, # of connection points: 2
#     Edge 70, Type (0, 1), BuildingBlock: MIFKUJ_clean_linker_0, # of connection points: 2
#     Edge 71, Type (0, 1), BuildingBlock: MIFKUJ_clean_linker_0, # of connection points: 2
#     Edge 72, Type (0, 1), BuildingBlock: MIFKUJ_clean_linker_0, # of connection points: 2
#     Edge 73, Type (0, 1), BuildingBlock: MIFKUJ_clean_linker_0, # of connection points: 2
#     Edge 74, Type (0, 1), BuildingBlock: MIFKUJ_clean_linker_0, # of connection points: 2
#     Edge 75, Type (0, 1), BuildingBlock: MIFKUJ_clean_linker_0, # of connection points: 2
#     Edge 76, Type (0, 1), BuildingBlock: MIFKUJ_clean_linker_0, # of connection points: 2
#     Edge 77, Type (0, 1), BuildingBlock: MIFKUJ_clean_linker_0, # of connection points: 2
#     Edge 78, Type (0, 1), BuildingBlock: MIFKUJ_clean_linker_0, # of connection points: 2
#     Edge 79, Type (0, 1), BuildingBlock: MIFKUJ_clean_linker_0, # of connection points: 2
#     Edge 80, Type (0, 1), BuildingBlock: MIFKUJ_clean_linker_0, # of connection points: 2
# Relax obj value: 0.085
# Max RMSD: 0.253
# Mean RMSD: 0.174
data_MOF--net-eea--node1-HISSIN_clean_sbu_0--node2-QEWDON_clean_linker_0--edge1-MIFKUJ_clean_linker_0
_symmetry_space_group_name_H-M    P1
_symmetry_Int_Tables_number       1
_symmetry_cell_setting            triclinic
loop_
_symmetry_equiv_pos_as_xyz
'x, y, z'
_cell_length_a     75.366594
_cell_length_b     75.819424
_cell_length_c     82.980566
_cell_angle_alpha  93.325076
_cell_angle_beta   93.5392
_cell_angle_gamma 119.80322
loop_
_atom_site_label
_atom_site_type_symbol
_atom_site_fract_x
_atom_site_fract_y
_atom_site_fract_z
_atom_type_partial_charge
H0 H 0.19807 0.11614 0.42725 0.0
C1 C 0.19887 0.10338 0.42151 0.0
C2 C 0.21393 0.09898 0.42753 0.0
C3 C 0.18435 0.09087 0.40847 0.0
H4 H 0.2254 0.07809 0.4254 0.0
C5 C 0.21444 0.08205 0.42025 0.0
C6 C 0.20011 0.06949 0.40711 0.0
C7 C 0.1852 0.07416 0.40124 0.0
C8 C 0.16737 0.09432 0.40305 0.0
H9 H 0.17412 0.06478 0.39102 0.0
C10 C 0.17139 0.11336 0.39835 0.0
C11 C 0.15507 0.1165 0.39339 0.0
C12 C 0.14691 0.0784 0.40266 0.0
H13 H 0.14349 0.06361 0.40628 0.0
C14 C 0.1307 0.08153 0.39789 0.0
H15 H 0.18714 0.12568 0.39853 0.0
C16 C 0.13472 0.10049 0.39333 0.0
H17 H 0.12193 0.10258 0.38952 0.0
H18 H 0.11498 0.06923 0.39771 0.0
H19 H 0.91083 0.10373 0.436 0.0
C20 C 0.92288 0.11639 0.43067 0.0
C21 C 0.93084 0.13648 0.43793 0.0
C22 C 0.93111 0.11245 0.4171 0.0
H23 H 0.95271 0.16825 0.43646 0.0
C24 C 0.94699 0.15274 0.43121 0.0
C25 C 0.95557 0.14918 0.41767 0.0
C26 C 0.9474 0.12895 0.41071 0.0
C27 C 0.92343 0.0911 0.40989 0.0
H28 H 0.95395 0.12594 0.40038 0.0
C29 C 0.9022 0.07651 0.4076 0.0
C30 C 0.89528 0.05678 0.39993 0.0
C31 C 0.93752 0.08533 0.40495 0.0
H32 H 0.95392 0.09593 0.40691 0.0
C33 C 0.93067 0.06576 0.39751 0.0
H34 H 0.89107 0.08064 0.41123 0.0
C35 C 0.90971 0.05162 0.39488 0.0
H36 H 0.90473 0.0365 0.38905 0.0
H37 H 0.94167 0.06155 0.39372 0.0
H38 H 0.9167 0.79401 0.43838 0.0
C39 C 0.90327 0.79373 0.43255 0.0
C40 C 0.88461 0.78441 0.43967 0.0
C41 C 0.90508 0.80413 0.41868 0.0
H42 H 0.85309 0.77754 0.43765 0.0
C43 C 0.86755 0.78498 0.43237 0.0
C44 C 0.86894 0.79506 0.41842 0.0
C45 C 0.88774 0.80444 0.41162 0.0
C46 C 0.92551 0.81711 0.41277 0.0
H47 H 0.88919 0.8128 0.40115 0.0
C48 C 0.93872 0.80955 0.40897 0.0
C49 C 0.95774 0.82249 0.40309 0.0
C50 C 0.93182 0.83767 0.41089 0.0
H51 H 0.92218 0.84398 0.41392 0.0
C52 C 0.95068 0.85042 0.40528 0.0
H53 H 0.93413 0.79375 0.41029 0.0
C54 C 0.96354 0.8429 0.40136 0.0
H55 H 0.9781 0.85304 0.39691 0.0
H56 H 0.95533 0.86621 0.40392 0.0
H57 H 0.10856 0.20599 0.58334 0.0
C58 C 0.09611 0.20656 0.58875 0.0
C59 C 0.08722 0.21721 0.58169 0.0
C60 C 0.08816 0.19552 0.60211 0.0
H61 H 0.06293 0.22444 0.58264 0.0
C62 C 0.0701 0.21665 0.5882 0.0
C63 C 0.06192 0.20579 0.60162 0.0
C64 C 0.07148 0.19579 0.60867 0.0
C65 C 0.09566 0.18197 0.60829 0.0
H66 H 0.06574 0.18789 0.61929 0.0
C67 C 0.11677 0.18784 0.61001 0.0
C68 C 0.12306 0.1743 0.6156 0.0
C69 C 0.08114 0.16244 0.61218 0.0
H70 H 0.06483 0.15715 0.61061 0.0
C71 C 0.08732 0.14925 0.61791 0.0
H72 H 0.12817 0.20273 0.60696 0.0
C73 C 0.10804 0.1551 0.61968 0.0
H74 H 0.11233 0.14455 0.62436 0.0
H75 H 0.07595 0.13435 0.62096 0.0
H76 H 0.81467 0.91371 0.59514 0.0
C77 C 0.81325 0.90078 0.60111 0.0
C78 C 0.79696 0.88104 0.5958 0.0
C79 C 0.82805 0.90395 0.61378 0.0
H80 H 0.7827 0.84918 0.59968 0.0
C81 C 0.79525 0.86444 0.60371 0.0
C82 C 0.80995 0.86734 0.61645 0.0
C83 C 0.82638 0.88719 0.62132 0.0
C84 C 0.84561 0.92475 0.61875 0.0
H85 H 0.83807 0.88964 0.63088 0.0
C86 C 0.84223 0.94122 0.62163 0.0
C87 C 0.85884 0.96113 0.62571 0.0
C88 C 0.86584 0.92833 0.62024 0.0
H89 H 0.86885 0.91589 0.61799 0.0
C90 C 0.88241 0.94813 0.62426 0.0
H91 H 0.82666 0.93857 0.62058 0.0
C92 C 0.87898 0.9645 0.6269 0.0
H93 H 0.892 0.97975 0.63006 0.0
H94 H 0.89796 0.9508 0.62528 0.0
H95 H 0.09289 0.88141 0.58851 0.0
C96 C 0.10652 0.8948 0.5945 0.0
C97 C 0.12542 0.90226 0.58786 0.0
C98 C 0.10508 0.90511 0.60856 0.0
H99 H 0.15694 0.92656 0.58969 0.0
C100 C 0.14277 0.92018 0.59539 0.0
C101 C 0.14166 0.93059 0.60951 0.0
C102 C 0.12278 0.92261 0.61615 0.0
C103 C 0.08496 0.89915 0.61469 0.0
H104 H 0.12162 0.93019 0.62717 0.0
C105 C 0.07179 0.8792 0.61871 0.0
C106 C 0.05372 0.87475 0.62589 0.0
C107 C 0.07936 0.91417 0.61726 0.0
H108 H 0.0891 0.92953 0.61409 0.0
C109 C 0.06127 0.9096 0.62399 0.0
H110 H 0.07597 0.86752 0.6169 0.0
C111 C 0.0486 0.89009 0.62842 0.0
H112 H 0.03468 0.8869 0.63378 0.0
H113 H 0.05715 0.9213 0.62593 0.0
H114 H 0.87767 0.45503 0.75253 0.0
C115 C 0.87874 0.44175 0.74856 0.0
C116 C 0.88684 0.43357 0.75966 0.0
C117 C 0.87108 0.4322 0.73264 0.0
H118 H 0.89321 0.40921 0.76325 0.0
C119 C 0.8873 0.41577 0.75468 0.0
C120 C 0.87981 0.40613 0.73886 0.0
C121 C 0.8722 0.41473 0.72786 0.0
C122 C 0.86092 0.43958 0.72109 0.0
H123 H 0.86698 0.40765 0.71548 0.0
C124 C 0.86861 0.4606 0.72013 0.0
C125 C 0.85906 0.46724 0.70883 0.0
C126 C 0.84328 0.42536 0.71081 0.0
H127 H 0.83658 0.40909 0.71152 0.0
C128 C 0.83386 0.4319 0.6996 0.0
H129 H 0.8822 0.47177 0.72788 0.0
C130 C 0.84169 0.45269 0.69855 0.0
H131 H 0.83384 0.4574 0.68996 0.0
H132 H 0.82031 0.42081 0.69179 0.0
H133 H 0.57735 0.43893 0.76577 0.0
C134 C 0.58835 0.45197 0.7601 0.0
C135 C 0.59437 0.47192 0.7667 0.0
C136 C 0.59712 0.44867 0.74662 0.0
H137 H 0.61372 0.50406 0.76417 0.0
C138 C 0.60931 0.48865 0.75949 0.0
C139 C 0.61839 0.48564 0.74606 0.0
C140 C 0.61209 0.46559 0.73973 0.0
C141 C 0.59108 0.42762 0.73986 0.0
H142 H 0.61907 0.46309 0.72946 0.0
C143 C 0.57024 0.41209 0.73737 0.0
C144 C 0.56464 0.39259 0.72998 0.0
C145 C 0.60621 0.42312 0.73538 0.0
H146 H 0.62237 0.43461 0.73741 0.0
C147 C 0.60069 0.40373 0.72825 0.0
H148 H 0.55837 0.41535 0.74059 0.0
C149 C 0.58003 0.38859 0.72544 0.0
H150 H 0.57607 0.37365 0.71984 0.0
H151 H 0.61246 0.40046 0.72482 0.0
H152 H 0.58354 0.13065 0.77354 0.0
C153 C 0.57019 0.13048 0.76767 0.0
C154 C 0.55077 0.11876 0.77333 0.0
C155 C 0.57261 0.14271 0.75493 0.0
H156 H 0.51882 0.11036 0.77025 0.0
C157 C 0.5337 0.11917 0.76584 0.0
C158 C 0.53572 0.13135 0.75313 0.0
C159 C 0.55524 0.14283 0.74769 0.0
C160 C 0.59343 0.15734 0.75032 0.0
H161 H 0.55718 0.15264 0.73816 0.0
C162 C 0.60817 0.15152 0.74711 0.0
C163 C 0.62758 0.16596 0.74246 0.0
C164 C 0.5985 0.17771 0.74907 0.0
H165 H 0.58776 0.18277 0.75176 0.0
C166 C 0.61743 0.19185 0.7444 0.0
H167 H 0.60453 0.13592 0.74816 0.0
C168 C 0.63176 0.18606 0.74101 0.0
H169 H 0.64613 0.1974 0.73703 0.0
H170 H 0.621 0.20741 0.74333 0.0
H171 H 0.77735 0.54269 0.91722 0.0
C172 C 0.76403 0.54224 0.92186 0.0
C173 C 0.75563 0.55344 0.91499 0.0
C174 C 0.75494 0.52997 0.93437 0.0
H175 H 0.73114 0.56048 0.91554 0.0
C176 C 0.73812 0.55248 0.92106 0.0
C177 C 0.72882 0.54032 0.93358 0.0
C178 C 0.73748 0.52931 0.9402 0.0
C179 C 0.76259 0.51664 0.9407 0.0
H180 H 0.73054 0.52015 0.95001 0.0
C181 C 0.7838 0.52374 0.94446 0.0
C182 C 0.79027 0.51093 0.95124 0.0
C183 C 0.74823 0.4964 0.94319 0.0
H184 H 0.73192 0.49029 0.94007 0.0
C185 C 0.75466 0.48371 0.94964 0.0
H186 H 0.79512 0.53928 0.94269 0.0
C187 C 0.77549 0.49093 0.95376 0.0
H188 H 0.78011 0.4808 0.95883 0.0
H189 H 0.74343 0.46819 0.95152 0.0
H190 H 0.45551 0.2377 0.94149 0.0
C191 C 0.45633 0.22474 0.94545 0.0
C192 C 0.44739 0.20642 0.93512 0.0
C193 C 0.46644 0.22641 0.96078 0.0
H194 H 0.44319 0.17612 0.93181 0.0
C195 C 0.44913 0.18988 0.94008 0.0
C196 C 0.4592 0.19129 0.9553 0.0
C197 C 0.46729 0.20941 0.96569 0.0
C198 C 0.47671 0.24593 0.97157 0.0
H199 H 0.47427 0.21026 0.97773 0.0
C200 C 0.46797 0.25855 0.97273 0.0
C201 C 0.47783 0.27699 0.98296 0.0
C202 C 0.49555 0.25211 0.98081 0.0
H203 H 0.50302 0.24309 0.97993 0.0
C204 C 0.50522 0.27023 0.99112 0.0
H205 H 0.45339 0.25397 0.96585 0.0
C206 C 0.49646 0.28261 0.99221 0.0
H207 H 0.50459 0.2969 0.99997 0.0
H208 H 0.51972 0.27483 0.99811 0.0
H209 H 0.75551 0.22159 0.91639 0.0
C210 C 0.76914 0.23449 0.92289 0.0
C211 C 0.78816 0.24229 0.9164 0.0
C212 C 0.76732 0.24443 0.93699 0.0
H213 H 0.82007 0.26585 0.9195 0.0
C214 C 0.80549 0.25969 0.92458 0.0
C215 C 0.80403 0.26973 0.93878 0.0
C216 C 0.78483 0.26184 0.94493 0.0
C217 C 0.74677 0.23867 0.94213 0.0
H218 H 0.78332 0.26947 0.95577 0.0
C219 C 0.73306 0.21878 0.94599 0.0
C220 C 0.71347 0.21388 0.95045 0.0
C221 C 0.74074 0.25349 0.94286 0.0
H222 H 0.75096 0.26882 0.93986 0.0
C223 C 0.72138 0.24862 0.94719 0.0
H224 H 0.73758 0.20725 0.94553 0.0
C225 C 0.70781 0.22897 0.95092 0.0
H226 H 0.69291 0.22562 0.95443 0.0
H227 H 0.71687 0.26014 0.94766 0.0
H228 H 0.53053 0.78181 0.09327 0.0
C229 C 0.53121 0.76879 0.08795 0.0
C230 C 0.54516 0.76361 0.09511 0.0
C231 C 0.518 0.75704 0.07402 0.0
H232 H 0.55567 0.74189 0.09439 0.0
C233 C 0.54561 0.74643 0.08838 0.0
C234 C 0.5326 0.7346 0.07445 0.0
C235 C 0.51905 0.74023 0.06725 0.0
C236 C 0.50295 0.76206 0.06642 0.0
H237 H 0.50939 0.73164 0.05618 0.0
C238 C 0.50887 0.78228 0.06364 0.0
C239 C 0.49493 0.78672 0.05539 0.0
C240 C 0.4827 0.7464 0.06127 0.0
H241 H 0.47765 0.73073 0.06345 0.0
C242 C 0.46877 0.75082 0.05327 0.0
H243 H 0.52452 0.79443 0.06731 0.0
C244 C 0.47485 0.77083 0.05022 0.0
H245 H 0.46381 0.77395 0.04397 0.0
H246 H 0.45323 0.73867 0.04934 0.0
H247 H 0.24721 0.77144 0.10152 0.0
C248 C 0.25939 0.78373 0.09597 0.0
C249 C 0.26725 0.80409 0.10246 0.0
C250 C 0.26807 0.77904 0.0831 0.0
H251 H 0.29027 0.83547 0.10101 0.0
C252 C 0.28392 0.81984 0.09578 0.0
C253 C 0.29264 0.81552 0.08265 0.0
C254 C 0.28434 0.79501 0.07632 0.0
C255 C 0.26148 0.75742 0.0777 0.0
H256 H 0.29057 0.79133 0.06607 0.0
C257 C 0.2405 0.74226 0.07503 0.0
C258 C 0.23468 0.72168 0.07085 0.0
C259 C 0.27645 0.75174 0.07588 0.0
H260 H 0.29268 0.76299 0.07805 0.0
C261 C 0.27069 0.73139 0.07169 0.0
H262 H 0.22877 0.7464 0.07634 0.0
C263 C 0.24996 0.71642 0.06927 0.0
H264 H 0.24582 0.7007 0.06598 0.0
H265 H 0.28235 0.72718 0.07041 0.0
H266 H 0.24935 0.46474 0.10835 0.0
C267 C 0.23638 0.46523 0.10247 0.0
C268 C 0.21672 0.45375 0.10778 0.0
C269 C 0.23961 0.4782 0.09017 0.0
H270 H 0.18506 0.44622 0.10424 0.0
C271 C 0.20016 0.45496 0.10018 0.0
C272 C 0.203 0.46788 0.08787 0.0
C273 C 0.22285 0.47938 0.08295 0.0
C274 C 0.26083 0.49279 0.08645 0.0
H275 H 0.22555 0.48996 0.07392 0.0
C276 C 0.27465 0.48633 0.08184 0.0
C277 C 0.29483 0.50089 0.07886 0.0
C278 C 0.26742 0.51377 0.08793 0.0
H279 H 0.25723 0.51914 0.09157 0.0
C280 C 0.2873 0.52808 0.08502 0.0
H281 H 0.26978 0.47021 0.08061 0.0
C282 C 0.30092 0.52174 0.08056 0.0
H283 H 0.31624 0.53318 0.07823 0.0
H284 H 0.29218 0.54419 0.08625 0.0
H285 H 0.44688 0.8773 0.24853 0.0
C286 C 0.4348 0.87803 0.25444 0.0
C287 C 0.42743 0.89078 0.24916 0.0
C288 C 0.42562 0.86498 0.26647 0.0
H289 H 0.40566 0.90089 0.25288 0.0
C290 C 0.41104 0.89073 0.25654 0.0
C291 C 0.40156 0.87774 0.26861 0.0
C292 C 0.40908 0.86497 0.27347 0.0
C293 C 0.43158 0.84958 0.27037 0.0
H294 H 0.40162 0.85443 0.28237 0.0
C295 C 0.45231 0.85502 0.27434 0.0
C296 C 0.45741 0.83984 0.27737 0.0
C297 C 0.41617 0.82893 0.26961 0.0
H298 H 0.40018 0.82428 0.26642 0.0
C299 C 0.4212 0.81396 0.27257 0.0
H300 H 0.46436 0.87088 0.27502 0.0
C301 C 0.44164 0.81932 0.27637 0.0
H302 H 0.44514 0.80741 0.27873 0.0
H303 H 0.40919 0.7981 0.27188 0.0
H304 H 0.15085 0.57915 0.26017 0.0
C305 C 0.14986 0.567 0.267 0.0
C306 C 0.13537 0.54652 0.26161 0.0
C307 C 0.164 0.57186 0.28064 0.0
H308 H 0.12425 0.51517 0.26591 0.0
C309 C 0.13513 0.53095 0.27021 0.0
C310 C 0.14912 0.53558 0.28401 0.0
C311 C 0.16333 0.55619 0.28921 0.0
C312 C 0.18044 0.59322 0.28536 0.0
H313 H 0.17402 0.56023 0.29996 0.0
C314 C 0.17567 0.60878 0.2881 0.0
C315 C 0.19144 0.62911 0.29229 0.0
C316 C 0.2011 0.59813 0.28694 0.0
H317 H 0.20511 0.58636 0.28483 0.0
C318 C 0.21679 0.61832 0.29097 0.0
H319 H 0.15975 0.60508 0.28698 0.0
C320 C 0.21203 0.63377 0.29358 0.0
H321 H 0.22442 0.64933 0.29688 0.0
H322 H 0.23268 0.622 0.29208 0.0
H323 H 0.4222 0.54657 0.25209 0.0
C324 C 0.43555 0.56029 0.258 0.0
C325 C 0.45491 0.56709 0.25232 0.0
C326 C 0.43316 0.57173 0.27075 0.0
H327 H 0.48689 0.59049 0.25554 0.0
C328 C 0.47199 0.58518 0.25992 0.0
C329 C 0.46992 0.59696 0.27259 0.0
C330 C 0.45039 0.59 0.27795 0.0
C331 C 0.41236 0.56609 0.27525 0.0
H332 H 0.44834 0.59916 0.28736 0.0
C333 C 0.39877 0.54651 0.2798 0.0
C334 C 0.37893 0.54158 0.28363 0.0
C335 C 0.40592 0.58057 0.27468 0.0
H336 H 0.416 0.59563 0.27111 0.0
C337 C 0.38632 0.57568 0.2784 0.0
H338 H 0.40359 0.53524 0.28034 0.0
C339 C 0.37289 0.55634 0.28281 0.0
H340 H 0.3578 0.55298 0.28581 0.0
H341 H 0.38151 0.58694 0.27787 0.0
Eu342 Eu 0.5022 0.99838 0.99515 0.0
Eu343 Eu 0.51517 0.01733 0.03418 0.0
C344 C 0.49525 0.03441 0.00914 0.0
C345 C 0.49807 0.99782 0.94909 0.0
C346 C 0.50673 0.01913 0.95009 0.0
C347 C 0.49801 0.99686 0.91975 0.0
C348 C 0.51109 0.02925 0.93599 0.0
C349 C 0.49368 0.98678 0.93384 0.0
C350 C 0.50688 0.01826 0.92061 0.0
C351 C 0.49458 0.98712 0.96388 0.0
O352 O 0.48102 0.9945 0.03094 0.0
O353 O 0.47856 0.97372 0.00855 0.0
C354 C 0.47131 0.97696 0.02173 0.0
O355 O 0.51952 0.98403 0.00609 0.0
O356 O 0.50864 0.02988 0.05594 0.0
O357 O 0.53497 0.02548 0.05689 0.0
O358 O 0.51482 0.98762 0.03292 0.0
C359 C 0.51948 0.97906 0.021 0.0
O360 O 0.52939 0.03003 0.99613 0.0
O361 O 0.54445 0.03385 0.02192 0.0
O362 O 0.50987 0.03957 0.02095 0.0
O363 O 0.51112 0.99039 0.97259 0.0
O364 O 0.48111 0.98753 0.97284 0.0
O365 O 0.48669 0.01661 1.00044 0.0
C366 C 0.51691 0.01966 0.08045 0.0
C367 C 0.52112 0.00427 0.0846 0.0
C368 C 0.50004 0.01613 0.10516 0.0
C369 C 0.51492 0.99499 0.09891 0.0
C370 C 0.50641 0.02554 0.09093 0.0
C371 C 0.50421 0.00074 0.10932 0.0
C372 C 0.52305 0.02952 0.06524 0.0
C373 C 0.54538 0.03924 0.00706 0.0
H374 H 0.51031 0.02795 0.96178 0.0
H375 H 0.49484 0.98791 0.90819 0.0
H376 H 0.51766 0.04567 0.93714 0.0
H377 H 0.48717 0.97036 0.93284 0.0
H378 H 0.52907 0.99926 0.07675 0.0
H379 H 0.492 0.02104 0.11299 0.0
H380 H 0.51815 0.98301 0.10167 0.0
H381 H 0.50302 0.03739 0.08806 0.0
Eu382 Eu 0.01489 0.5083 0.99511 0.0
Eu383 Eu 0.9979 0.50175 0.03122 0.0
C384 C 0.97618 0.46586 0.00211 0.0
C385 C 0.01458 0.50741 0.94968 0.0
C386 C 0.99312 0.49482 0.94799 0.0
C387 C 0.01358 0.51078 0.92081 0.0
C388 C 0.98193 0.49028 0.9328 0.0
C389 C 0.02476 0.51528 0.93603 0.0
C390 C 0.99202 0.49834 0.91905 0.0
C391 C 0.02614 0.51333 0.9658 0.0
O392 O 0.01995 0.48955 0.03098 0.0
O393 O 0.03935 0.50658 0.01081 0.0
C394 C 0.03668 0.49618 0.02345 0.0
O395 O 0.03061 0.53955 0.00923 0.0
O396 O 0.98529 0.48234 0.05077 0.0
O397 O 0.99018 0.51315 0.05278 0.0
O398 O 0.02908 0.53006 0.035 0.0
C399 C 0.03728 0.54377 0.02474 0.0
O400 O 0.98441 0.50706 0.9919 0.0
O401 O 0.98293 0.51717 0.0181 0.0
O402 O 0.97322 0.47553 0.01433 0.0
O403 O 0.02429 0.52686 0.97484 0.0
O404 O 0.02464 0.49844 0.97383 0.0
O405 O 0.99342 0.47435 0.99529 0.0
C406 C 0.99575 0.50049 0.07691 0.0
C407 C 0.01277 0.51953 0.08296 0.0
C408 C 0.99797 0.48727 0.1025 0.0
C409 C 0.0222 0.52243 0.09868 0.0
C410 C 0.98839 0.48443 0.08683 0.0
C411 C 0.01496 0.50631 0.10857 0.0
C412 C 0.98581 0.49699 0.06024 0.0
C413 C 0.97667 0.51413 0.00251 0.0
H414 H 0.98501 0.4888 0.95849 0.0
H415 H 0.0218 0.517 0.91042 0.0
H416 H 0.96534 0.48086 0.93188 0.0
H417 H 0.04132 0.5251 0.93718 0.0
H418 H 0.01894 0.53215 0.07554 0.0
H419 H 0.99201 0.47463 0.10991 0.0
H420 H 0.03544 0.53717 0.10297 0.0
H421 H 0.97529 0.46964 0.08241 0.0
Eu422 Eu 0.51329 0.50788 0.02221 0.0
Eu423 Eu 0.49594 0.5079 0.98458 0.0
C424 C 0.51683 0.548 0.0092 0.0
C425 C 0.51866 0.5116 0.0684 0.0
C426 C 0.50787 0.52219 0.06984 0.0
C427 C 0.51656 0.50655 0.09701 0.0
C428 C 0.50157 0.52506 0.08482 0.0
C429 C 0.5229 0.50376 0.08206 0.0
C430 C 0.50585 0.51728 0.09862 0.0
C431 C 0.52496 0.50802 0.05266 0.0
O432 O 0.53006 0.51964 0.98477 0.0
O433 O 0.53595 0.50562 0.00684 0.0
C434 C 0.54142 0.51398 0.9932 0.0
O435 O 0.49131 0.47521 0.01234 0.0
O436 O 0.49868 0.52461 0.96348 0.0
O437 O 0.47515 0.49268 0.96242 0.0
O438 O 0.49599 0.47847 0.98554 0.0
C439 C 0.49009 0.46716 0.99762 0.0
O440 O 0.48517 0.51076 0.02443 0.0
O441 O 0.4682 0.49697 0.99891 0.0
O442 O 0.50098 0.53645 0.99856 0.0
O443 O 0.51144 0.49163 0.04352 0.0
O444 O 0.53391 0.52371 0.04437 0.0
O445 O 0.52718 0.54058 0.01659 0.0
C446 C 0.49169 0.50462 0.93854 0.0
C447 C 0.49024 0.48579 0.93376 0.0
C448 C 0.50838 0.51792 0.91432 0.0
C449 C 0.49783 0.48311 0.91941 0.0
C450 C 0.5006 0.52054 0.92857 0.0
C451 C 0.50721 0.49923 0.90965 0.0
C452 C 0.48508 0.50833 0.95419 0.0
C453 C 0.46833 0.5026 0.01429 0.0
H454 H 0.50431 0.52825 0.05939 0.0
H455 H 0.51982 0.50003 0.10727 0.0
H456 H 0.49358 0.53358 0.08562 0.0
H457 H 0.53101 0.49535 0.08112 0.0
H458 H 0.48358 0.47324 0.94122 0.0
H459 H 0.51531 0.53054 0.90694 0.0
H460 H 0.49687 0.46859 0.91619 0.0
H461 H 0.50187 0.53517 0.93195 0.0
Eu462 Eu 0.16417 0.33069 0.32881 0.0
Eu463 Eu 0.17953 0.34764 0.36808 0.0
C464 C 0.16278 0.36947 0.34499 0.0
C465 C 0.15913 0.33143 0.28276 0.0
C466 C 0.16953 0.35287 0.28392 0.0
C467 C 0.15833 0.33051 0.25338 0.0
C468 C 0.17434 0.36306 0.26986 0.0
C469 C 0.15353 0.32036 0.26742 0.0
C470 C 0.16889 0.35202 0.25439 0.0
C471 C 0.15501 0.32047 0.29744 0.0
O472 O 0.1449 0.32785 0.36555 0.0
O473 O 0.13898 0.30729 0.34201 0.0
C474 C 0.13328 0.31089 0.35591 0.0
O475 O 0.17896 0.31318 0.33835 0.0
O476 O 0.17638 0.36139 0.39076 0.0
O477 O 0.19873 0.35137 0.39029 0.0
O478 O 0.17405 0.31578 0.36513 0.0
C479 C 0.17745 0.30669 0.35281 0.0
O480 O 0.19334 0.36087 0.33002 0.0
O481 O 0.20856 0.36234 0.35525 0.0
O482 O 0.17691 0.37241 0.35658 0.0
O483 O 0.17103 0.32177 0.30561 0.0
O484 O 0.14279 0.32247 0.30693 0.0
O485 O 0.15267 0.35227 0.33544 0.0
C486 C 0.18103 0.34647 0.41359 0.0
C487 C 0.16363 0.3268 0.41162 0.0
C488 C 0.18307 0.34473 0.44277 0.0
C489 C 0.15593 0.31621 0.42514 0.0
C490 C 0.1907 0.35535 0.42923 0.0
C491 C 0.16555 0.32503 0.4409 0.0
C492 C 0.18904 0.3577 0.39938 0.0
C493 C 0.20965 0.36848 0.34062 0.0
H494 H 0.17408 0.36171 0.29568 0.0
H495 H 0.15416 0.32147 0.24174 0.0
H496 H 0.18225 0.37959 0.27112 0.0
H497 H 0.14568 0.30381 0.26629 0.0
H498 H 0.15601 0.31963 0.39961 0.0
H499 H 0.19072 0.35208 0.45472 0.0
H500 H 0.14259 0.30099 0.42321 0.0
H501 H 0.20413 0.37052 0.43099 0.0
Eu502 Eu 0.68098 0.83656 0.32799 0.0
Eu503 Eu 0.66413 0.83128 0.36438 0.0
C504 C 0.64183 0.79415 0.33547 0.0
C505 C 0.68233 0.83598 0.28243 0.0
C506 C 0.6611 0.82224 0.27981 0.0
C507 C 0.68294 0.84045 0.25373 0.0
C508 C 0.65082 0.81768 0.26422 0.0
C509 C 0.69321 0.84498 0.26933 0.0
C510 C 0.6616 0.82687 0.25102 0.0
C511 C 0.69294 0.84194 0.2989 0.0
O512 O 0.68673 0.8198 0.36557 0.0
O513 O 0.70429 0.8328 0.3434 0.0
C514 C 0.70223 0.82411 0.35694 0.0
O515 O 0.69713 0.868 0.34184 0.0
O516 O 0.65041 0.81272 0.38407 0.0
O517 O 0.65712 0.84411 0.3856 0.0
O518 O 0.69534 0.85954 0.36796 0.0
C519 C 0.70362 0.87279 0.35738 0.0
O520 O 0.65011 0.83443 0.32465 0.0
O521 O 0.64946 0.84641 0.35041 0.0
O522 O 0.63984 0.80354 0.34845 0.0
O523 O 0.69011 0.855 0.30765 0.0
O524 O 0.69158 0.82716 0.30703 0.0
O525 O 0.65804 0.8029 0.32739 0.0
C526 C 0.66099 0.83134 0.40983 0.0
C527 C 0.68126 0.83538 0.41269 0.0
C528 C 0.65934 0.83481 0.43885 0.0
C529 C 0.69053 0.8391 0.42856 0.0
C530 C 0.65007 0.83103 0.42295 0.0
C531 C 0.6797 0.83895 0.44184 0.0
C532 C 0.65134 0.82782 0.39319 0.0
C533 C 0.64258 0.84211 0.33492 0.0
H534 H 0.65246 0.81525 0.28986 0.0
H535 H 0.69164 0.84798 0.24388 0.0
H536 H 0.63444 0.80695 0.26251 0.0
H537 H 0.70958 0.85577 0.27122 0.0
H538 H 0.68991 0.83568 0.40264 0.0
H539 H 0.65068 0.83485 0.44878 0.0
H540 H 0.70612 0.84196 0.43044 0.0
H541 H 0.63443 0.82804 0.4209 0.0
Eu542 Eu 0.18419 0.84092 0.3579 0.0
Eu543 Eu 0.16928 0.8431 0.32001 0.0
C544 C 0.1858 0.8813 0.34657 0.0
C545 C 0.18834 0.84489 0.40401 0.0
C546 C 0.17799 0.85599 0.40459 0.0
C547 C 0.18703 0.84263 0.43301 0.0
C548 C 0.17218 0.86036 0.41932 0.0
C549 C 0.19285 0.83829 0.41829 0.0
C550 C 0.17656 0.85367 0.43373 0.0
C551 C 0.19338 0.83909 0.38846 0.0
O552 O 0.20394 0.85742 0.32193 0.0
O553 O 0.20954 0.84272 0.34369 0.0
C554 C 0.21554 0.85219 0.33058 0.0
O555 O 0.16815 0.80871 0.34557 0.0
O556 O 0.17229 0.86056 0.29936 0.0
O557 O 0.15009 0.82814 0.29711 0.0
O558 O 0.17427 0.81634 0.31954 0.0
C559 C 0.16987 0.8036 0.33062 0.0
O560 O 0.15469 0.84145 0.3587 0.0
O561 O 0.14007 0.82818 0.33263 0.0
O562 O 0.17156 0.87014 0.33462 0.0
O563 O 0.17793 0.82418 0.37928 0.0
O564 O 0.20521 0.85397 0.3802 0.0
O565 O 0.19592 0.87413 0.35468 0.0
C566 C 0.16793 0.84166 0.27452 0.0
C567 C 0.18505 0.83893 0.27536 0.0
C568 C 0.16685 0.83941 0.24512 0.0
C569 C 0.1931 0.83657 0.26119 0.0
C570 C 0.15886 0.84186 0.25933 0.0
C571 C 0.18412 0.8368 0.24588 0.0
C572 C 0.15971 0.84441 0.28948 0.0
C573 C 0.13851 0.8326 0.3479 0.0
H574 H 0.17425 0.86109 0.39362 0.0
H575 H 0.19035 0.83691 0.44377 0.0
H576 H 0.16431 0.86904 0.41942 0.0
H577 H 0.2006 0.8295 0.41802 0.0
H578 H 0.19219 0.83861 0.28701 0.0
H579 H 0.1597 0.83987 0.23354 0.0
H580 H 0.20622 0.83431 0.26222 0.0
H581 H 0.14565 0.84399 0.25847 0.0
Eu582 Eu 0.83182 0.66454 0.66102 0.0
Eu583 Eu 0.84417 0.68269 0.70034 0.0
C584 C 0.82737 0.7026 0.67505 0.0
C585 C 0.82908 0.66361 0.61496 0.0
C586 C 0.83752 0.68487 0.61579 0.0
C587 C 0.83157 0.66266 0.58588 0.0
C588 C 0.84296 0.69497 0.60174 0.0
C589 C 0.82608 0.65258 0.59992 0.0
C590 C 0.84018 0.684 0.5866 0.0
C591 C 0.82437 0.65296 0.62978 0.0
O592 O 0.80993 0.66125 0.69656 0.0
O593 O 0.80679 0.64049 0.67396 0.0
C594 C 0.79963 0.644 0.68709 0.0
O595 O 0.85004 0.65121 0.6721 0.0
O596 O 0.83801 0.69523 0.72226 0.0
O597 O 0.86293 0.68872 0.72333 0.0
O598 O 0.8427 0.6524 0.69836 0.0
C599 C 0.84923 0.64537 0.68675 0.0
O600 O 0.86035 0.69523 0.66223 0.0
O601 O 0.8739 0.69886 0.68863 0.0
O602 O 0.84048 0.70626 0.68772 0.0
O603 O 0.84019 0.65502 0.6388 0.0
O604 O 0.81134 0.65473 0.63843 0.0
O605 O 0.8191 0.68552 0.66537 0.0
C606 C 0.84404 0.6826 0.74603 0.0
C607 C 0.8303 0.66144 0.74435 0.0
C608 C 0.84327 0.68288 0.7753 0.0
C609 C 0.82313 0.65105 0.75806 0.0
C610 C 0.85046 0.69324 0.76158 0.0
C611 C 0.82953 0.66164 0.77373 0.0
C612 C 0.85157 0.69361 0.73164 0.0
C613 C 0.8759 0.70376 0.6736 0.0
H614 H 0.84015 0.69369 0.62733 0.0
H615 H 0.82896 0.6537 0.57442 0.0
H616 H 0.84978 0.71143 0.60279 0.0
H617 H 0.81966 0.63617 0.59906 0.0
H618 H 0.82508 0.65296 0.73242 0.0
H619 H 0.84873 0.69149 0.78716 0.0
H620 H 0.81237 0.63476 0.75636 0.0
H621 H 0.86107 0.70957 0.76311 0.0
Eu622 Eu 0.34946 0.17306 0.66002 0.0
Eu623 Eu 0.33211 0.16795 0.69626 0.0
C624 C 0.31046 0.13104 0.66788 0.0
C625 C 0.35195 0.17025 0.61449 0.0
C626 C 0.33101 0.15553 0.61152 0.0
C627 C 0.35294 0.17496 0.58582 0.0
C628 C 0.32106 0.1506 0.59579 0.0
C629 C 0.36289 0.17981 0.60157 0.0
C630 C 0.33185 0.16045 0.58277 0.0
C631 C 0.3621 0.17667 0.63112 0.0
O632 O 0.35372 0.15528 0.69676 0.0
O633 O 0.37359 0.17205 0.67677 0.0
C634 C 0.37058 0.1617 0.68947 0.0
O635 O 0.36528 0.20474 0.67316 0.0
O636 O 0.31922 0.1494 0.71615 0.0
O637 O 0.32497 0.18048 0.71755 0.0
O638 O 0.36278 0.19702 0.69952 0.0
C639 C 0.37124 0.20996 0.68874 0.0
O640 O 0.31971 0.17328 0.65585 0.0
O641 O 0.31561 0.18112 0.6821 0.0
O642 O 0.30755 0.14107 0.67986 0.0
O643 O 0.35956 0.19041 0.63913 0.0
O644 O 0.36002 0.16215 0.63989 0.0
O645 O 0.3275 0.13934 0.66078 0.0
C646 C 0.32985 0.16828 0.74181 0.0
C647 C 0.35123 0.17683 0.74459 0.0
C648 C 0.3275 0.16733 0.77079 0.0
C649 C 0.36071 0.18068 0.76042 0.0
C650 C 0.31805 0.16355 0.75496 0.0
C651 C 0.34894 0.17596 0.7737 0.0
C652 C 0.31983 0.16436 0.72525 0.0
C653 C 0.31077 0.17909 0.66633 0.0
H654 H 0.3223 0.14809 0.62141 0.0
H655 H 0.36164 0.18303 0.57614 0.0
H656 H 0.30489 0.13915 0.59384 0.0
H657 H 0.37903 0.19136 0.60371 0.0
H658 H 0.36055 0.1805 0.73452 0.0
H659 H 0.31805 0.16374 0.78077 0.0
H660 H 0.37721 0.18708 0.76225 0.0
H661 H 0.30152 0.15698 0.75299 0.0
Eu662 Eu 0.84462 0.16601 0.69242 0.0
Eu663 Eu 0.83282 0.17437 0.65555 0.0
C664 C 0.84805 0.20873 0.68518 0.0
C665 C 0.84719 0.16715 0.73781 0.0
C666 C 0.84176 0.18239 0.73854 0.0
C667 C 0.84011 0.16187 0.76584 0.0
C668 C 0.83561 0.18738 0.75283 0.0
C669 C 0.84638 0.15696 0.75154 0.0
C670 C 0.83457 0.17708 0.76663 0.0
C671 C 0.85217 0.16089 0.72241 0.0
O672 O 0.86742 0.18867 0.6595 0.0
O673 O 0.86983 0.1682 0.67773 0.0
C674 C 0.87748 0.18056 0.66637 0.0
O675 O 0.82881 0.13535 0.67763 0.0
O676 O 0.83885 0.19486 0.63664 0.0
O677 O 0.81497 0.16305 0.63177 0.0
O678 O 0.83616 0.14656 0.65258 0.0
C679 C 0.83105 0.13222 0.66237 0.0
O680 O 0.81474 0.16571 0.69362 0.0
O681 O 0.80249 0.15985 0.66657 0.0
O682 O 0.83469 0.19964 0.67233 0.0
O683 O 0.83634 0.14729 0.71269 0.0
O684 O 0.86548 0.17557 0.71472 0.0
O685 O 0.85707 0.1999 0.69244 0.0
C686 C 0.83518 0.17833 0.61073 0.0
C687 C 0.85352 0.17769 0.61174 0.0
C688 C 0.83311 0.17392 0.58133 0.0
C689 C 0.86164 0.17527 0.59764 0.0
C690 C 0.82506 0.17648 0.59546 0.0
C691 C 0.85147 0.1732 0.58225 0.0
C692 C 0.82629 0.18016 0.62559 0.0
C693 C 0.79978 0.16051 0.68209 0.0
H694 H 0.84196 0.1902 0.72797 0.0
H695 H 0.83966 0.15379 0.77629 0.0
H696 H 0.83121 0.19897 0.75293 0.0
H697 H 0.85033 0.14503 0.75114 0.0
H698 H 0.86146 0.17889 0.62345 0.0
H699 H 0.82503 0.17262 0.56968 0.0
H700 H 0.87568 0.1746 0.59881 0.0
H701 H 0.81086 0.17688 0.59447 0.0
H702 H 0.32521 0.81411 0.07058 0.0
H703 H 0.3545 0.84108 0.05939 0.0
H704 H 0.33198 0.88249 0.06949 0.0
H705 H 0.30158 0.85503 0.07939 0.0
H706 H 0.34619 0.88913 0.04224 0.0
H707 H 0.37168 0.88098 0.09335 0.0
H708 H 0.37847 0.8632 0.11468 0.0
H709 H 0.41512 0.84993 0.08405 0.0
H710 H 0.40797 0.86701 0.06229 0.0
H711 H 0.44533 0.98035 0.04158 0.0
H712 H 0.41449 0.95269 0.05113 0.0
H713 H 0.42334 0.90822 0.02357 0.0
H714 H 0.45404 0.9358 0.01369 0.0
H715 H 0.41683 0.90404 0.05982 0.0
H716 H 0.38825 0.91144 0.00826 0.0
H717 H 0.38208 0.93131 0.98844 0.0
H718 H 0.35306 0.94966 0.02332 0.0
H719 H 0.35935 0.93013 0.04344 0.0
C720 C 0.32615 0.82879 0.07016 0.0
C721 C 0.31082 0.83223 0.07594 0.0
C722 C 0.34321 0.84438 0.06398 0.0
C723 C 0.3458 0.86404 0.06387 0.0
C724 C 0.33048 0.86752 0.0695 0.0
C725 C 0.31317 0.85181 0.07538 0.0
C726 C 0.36436 0.88091 0.05781 0.0
C727 C 0.36161 0.89246 0.04629 0.0
C728 C 0.38462 0.88531 0.06292 0.0
C729 C 0.38899 0.87503 0.07604 0.0
C730 C 0.38092 0.87401 0.09104 0.0
C731 C 0.38481 0.86401 0.10322 0.0
C732 C 0.39712 0.85534 0.10069 0.0
C733 C 0.40552 0.8566 0.08597 0.0
C734 C 0.40149 0.86637 0.07368 0.0
C735 C 0.44065 0.96469 0.03745 0.0
C736 C 0.45208 0.96026 0.02682 0.0
C737 C 0.42304 0.94893 0.04292 0.0
C738 C 0.41672 0.92846 0.03806 0.0
C739 C 0.42803 0.92395 0.02744 0.0
C740 C 0.44546 0.93972 0.02174 0.0
C741 C 0.39842 0.9118 0.04427 0.0
C742 C 0.40131 0.90047 0.05585 0.0
C743 C 0.37836 0.90787 0.03952 0.0
C744 C 0.37448 0.91951 0.02741 0.0
C745 C 0.38074 0.91988 0.01175 0.0
C746 C 0.37718 0.93104 1.00045 0.0
C747 C 0.36724 0.94179 0.00463 0.0
C748 C 0.36079 0.94135 0.02011 0.0
C749 C 0.36433 0.93023 0.03146 0.0
H750 H 0.36449 0.95042 0.99587 0.0
H751 H 0.40024 0.84774 0.11018 0.0
H752 H 0.19474 0.47388 0.05641 0.0
H753 H 0.16682 0.47881 0.04539 0.0
H754 H 0.14333 0.47164 0.09206 0.0
H755 H 0.1716 0.46764 0.10342 0.0
H756 H 0.11272 0.44864 0.06595 0.0
H757 H 0.16836 0.51739 0.08088 0.0
H758 H 0.20345 0.54658 0.08083 0.0
H759 H 0.19346 0.54591 0.02923 0.0
H760 H 0.1584 0.51647 0.02894 0.0
H761 H 0.0407 0.48197 0.05234 0.0
H762 H 0.06869 0.47701 0.06295 0.0
H763 H 0.09836 0.49669 0.01936 0.0
H764 H 0.07076 0.50235 0.00892 0.0
H765 H 0.12605 0.5129 0.04361 0.0
H766 H 0.07128 0.44458 0.0278 0.0
H767 H 0.03631 0.41486 0.02684 0.0
H768 H 0.04457 0.41371 0.07836 0.0
H769 H 0.07952 0.44361 0.07966 0.0
C770 C 0.18382 0.47357 0.06443 0.0
C771 C 0.18557 0.47027 0.08086 0.0
C772 C 0.16777 0.4763 0.05806 0.0
C773 C 0.15298 0.47563 0.0679 0.0
C774 C 0.15448 0.47209 0.0842 0.0
C775 C 0.17064 0.46964 0.09064 0.0
C776 C 0.13598 0.47868 0.06127 0.0
C777 C 0.1156 0.46277 0.06122 0.0
C778 C 0.13974 0.4969 0.0547 0.0
C779 C 0.16084 0.51455 0.05486 0.0
C780 C 0.17372 0.52332 0.06949 0.0
C781 C 0.19359 0.53994 0.06954 0.0
C782 C 0.20071 0.54805 0.05503 0.0
C783 C 0.18795 0.53958 0.04046 0.0
C784 C 0.16807 0.52293 0.04035 0.0
C785 C 0.0531 0.48512 0.04494 0.0
C786 C 0.05333 0.4924 0.02969 0.0
C787 C 0.06912 0.48219 0.05101 0.0
C788 C 0.08558 0.48609 0.04187 0.0
C789 C 0.08587 0.49349 0.02667 0.0
C790 C 0.06999 0.49664 0.02068 0.0
C791 C 0.10263 0.48282 0.04821 0.0
C792 C 0.12307 0.4987 0.04825 0.0
C793 C 0.09893 0.46446 0.05458 0.0
C794 C 0.07794 0.44645 0.05384 0.0
C795 C 0.06559 0.43808 0.03894 0.0
C796 C 0.04578 0.42119 0.03834 0.0
C797 C 0.0382 0.41243 0.05254 0.0
C798 C 0.05045 0.42052 0.06737 0.0
C799 C 0.07026 0.43743 0.06805 0.0
H800 H 0.02286 0.39936 0.05204 0.0
H801 H 0.2161 0.56093 0.05509 0.0
H802 H 0.56575 0.72889 0.07269 0.0
H803 H 0.56559 0.69809 0.06219 0.0
H804 H 0.50001 0.66812 0.04939 0.0
H805 H 0.49976 0.69818 0.06102 0.0
H806 H 0.50836 0.64271 0.06174 0.0
H807 H 0.53674 0.6889 0.02096 0.0
H808 H 0.56081 0.72101 0.01018 0.0
H809 H 0.61135 0.7125 0.02523 0.0
H810 H 0.58759 0.68044 0.03629 0.0
H811 H 0.49301 0.56493 0.00278 0.0
H812 H 0.49899 0.59818 0.01383 0.0
H813 H 0.55741 0.61195 0.03798 0.0
H814 H 0.55147 0.57845 0.02714 0.0
H815 H 0.55509 0.64545 0.02109 0.0
H816 H 0.5241 0.59703 0.06046 0.0
H817 H 0.49811 0.56367 0.06829 0.0
H818 H 0.45009 0.57589 0.05314 0.0
H819 H 0.47581 0.60918 0.04488 0.0
C820 C 0.55123 0.71566 0.06785 0.0
C821 C 0.53277 0.71611 0.06765 0.0
C822 C 0.55122 0.69814 0.06164 0.0
C823 C 0.53284 0.68089 0.05474 0.0
C824 C 0.51441 0.68126 0.05459 0.0
C825 C 0.51434 0.69861 0.06106 0.0
C826 C 0.53264 0.66233 0.04777 0.0
C827 C 0.51849 0.64337 0.05276 0.0
C828 C 0.54611 0.66314 0.03626 0.0
C829 C 0.56042 0.6824 0.02961 0.0
C830 C 0.55301 0.69396 0.02208 0.0
C831 C 0.56659 0.71213 0.0159 0.0
C832 C 0.58761 0.71882 0.01706 0.0
C833 C 0.59508 0.70732 0.02437 0.0
C834 C 0.58156 0.68914 0.03059 0.0
C835 C 0.50729 0.57511 0.01023 0.0
C836 C 0.52172 0.56903 0.01421 0.0
C837 C 0.51065 0.59408 0.01653 0.0
C838 C 0.52855 0.60731 0.02676 0.0
C839 C 0.54352 0.60183 0.03008 0.0
C840 C 0.54005 0.58271 0.02394 0.0
C841 C 0.5307 0.62614 0.03494 0.0
C842 C 0.54517 0.64501 0.03019 0.0
C843 C 0.51732 0.62525 0.04646 0.0
C844 C 0.50188 0.60554 0.05192 0.0
C845 C 0.50799 0.59255 0.05869 0.0
C846 C 0.49331 0.57366 0.06321 0.0
C847 C 0.47246 0.56765 0.06118 0.0
C848 C 0.46626 0.58056 0.05469 0.0
C849 C 0.48088 0.59946 0.05009 0.0
H850 H 0.46112 0.55301 0.06468 0.0
H851 H 0.5981 0.7329 0.01227 0.0
H852 H 0.84466 0.27993 0.94231 0.0
H853 H 0.8745 0.31286 0.95253 0.0
H854 H 0.83456 0.33656 0.96331 0.0
H855 H 0.80474 0.30414 0.9521 0.0
H856 H 0.86513 0.36368 0.94986 0.0
H857 H 0.85967 0.32282 0.99336 0.0
H858 H 0.85724 0.29321 0.00611 0.0
H859 H 0.91576 0.30667 0.99095 0.0
H860 H 0.91842 0.33622 0.97792 0.0
H861 H 0.93537 0.44914 0.00557 0.0
H862 H 0.9072 0.41559 0.99418 0.0
H863 H 0.95034 0.40239 0.97242 0.0
H864 H 0.97872 0.43624 0.98352 0.0
H865 H 0.91961 0.37032 0.99069 0.0
H866 H 0.92495 0.41247 0.94809 0.0
H867 H 0.92703 0.4426 0.93652 0.0
H868 H 0.86791 0.42705 0.95156 0.0
H869 H 0.86562 0.39698 0.96346 0.0
C870 C 0.84218 0.29216 0.94676 0.0
C871 C 0.82219 0.28926 0.94636 0.0
C872 C 0.8593 0.31097 0.9528 0.0
C873 C 0.85684 0.32721 0.95891 0.0
C874 C 0.83691 0.32429 0.95871 0.0
C875 C 0.8198 0.30558 0.95248 0.0
C876 C 0.87502 0.34741 0.9651 0.0
C877 C 0.87687 0.36508 0.95894 0.0
C878 C 0.89069 0.34935 0.97668 0.0
C879 C 0.88914 0.3316 0.98452 0.0
C880 C 0.87195 0.31937 0.99264 0.0
C881 C 0.87054 0.30262 0.99993 0.0
C882 C 0.88631 0.29803 0.9993 0.0
C883 C 0.90354 0.31022 0.99141 0.0
C884 C 0.90502 0.32698 0.98408 0.0
C885 C 0.93891 0.4391 0.99841 0.0
C886 C 0.95928 0.44533 0.99547 0.0
C887 C 0.92278 0.41997 0.99186 0.0
C888 C 0.92671 0.40658 0.98244 0.0
C889 C 0.94704 0.41256 0.97967 0.0
C890 C 0.96319 0.43189 0.98597 0.0
C891 C 0.90947 0.38635 0.97553 0.0
C892 C 0.90783 0.36876 0.98156 0.0
C893 C 0.89389 0.3845 0.96398 0.0
C894 C 0.89521 0.40257 0.95682 0.0
C895 C 0.91248 0.41558 0.94908 0.0
C896 C 0.91368 0.43263 0.94242 0.0
C897 C 0.89763 0.43676 0.94333 0.0
C898 C 0.88034 0.42384 0.95088 0.0
C899 C 0.87908 0.40678 0.95757 0.0
H900 H 0.89857 0.44995 0.93816 0.0
H901 H 0.88519 0.28505 0.00496 0.0
H902 H 0.69404 0.5054 0.9392 0.0
H903 H 0.66254 0.50203 0.94879 0.0
H904 H 0.68827 0.56725 0.95041 0.0
H905 H 0.71996 0.57074 0.94087 0.0
H906 H 0.66964 0.55209 0.97793 0.0
H907 H 0.65286 0.53738 0.92044 0.0
H908 H 0.64924 0.52016 0.89331 0.0
H909 H 0.60683 0.46236 0.90924 0.0
H910 H 0.61044 0.47921 0.93656 0.0
H911 H 0.55577 0.52752 0.96423 0.0
H912 H 0.58762 0.53296 0.954 0.0
H913 H 0.60306 0.51303 0.9976 0.0
H914 H 0.57122 0.50767 0.00803 0.0
H915 H 0.60151 0.5076 0.9466 0.0
H916 H 0.65559 0.53965 0.00651 0.0
H917 H 0.65931 0.55921 0.03255 0.0
H918 H 0.62747 0.58651 0.00979 0.0
H919 H 0.62382 0.56734 0.98358 0.0
C920 C 0.69306 0.51906 0.94168 0.0
C921 C 0.70957 0.53836 0.93931 0.0
C922 C 0.67497 0.51709 0.94706 0.0
C923 C 0.67295 0.53437 0.95026 0.0
C924 C 0.68945 0.55369 0.94802 0.0
C925 C 0.7075 0.55566 0.94247 0.0
C926 C 0.65367 0.53221 0.95602 0.0
C927 C 0.65474 0.54234 0.97109 0.0
C928 C 0.63422 0.51975 0.947 0.0
C929 C 0.63209 0.50954 0.93061 0.0
C930 C 0.64291 0.52097 0.91821 0.0
C931 C 0.64082 0.51128 0.90278 0.0
C932 C 0.62785 0.49017 0.89956 0.0
C933 C 0.6169 0.47871 0.91176 0.0
C934 C 0.61895 0.48833 0.92722 0.0
C935 C 0.56593 0.52433 0.97172 0.0
C936 C 0.56089 0.51723 0.98703 0.0
C937 C 0.58414 0.52738 0.96579 0.0
C938 C 0.5979 0.52358 0.97505 0.0
C939 C 0.59287 0.51634 0.99029 0.0
C940 C 0.57459 0.51321 0.99623 0.0
C941 C 0.61741 0.52715 0.96868 0.0
C942 C 0.61639 0.51728 0.95349 0.0
C943 C 0.63693 0.5401 0.97747 0.0
C944 C 0.63925 0.55189 0.99313 0.0
C945 C 0.64945 0.54988 0.00706 0.0
C946 C 0.65154 0.5609 0.02185 0.0
C947 C 0.64357 0.57404 0.02284 0.0
C948 C 0.63356 0.57626 0.00902 0.0
C949 C 0.63146 0.56531 0.9942 0.0
H950 H 0.64518 0.58254 0.0343 0.0
H951 H 0.62625 0.48268 0.88762 0.0
H952 H 0.43183 0.15002 0.9497 0.0
H953 H 0.43681 0.12221 0.9579 0.0
H954 H 0.49733 0.16614 0.98091 0.0
H955 H 0.49305 0.19387 0.97183 0.0
H956 H 0.49903 0.13641 0.96592 0.0
H957 H 0.4543 0.14106 0.00261 0.0
H958 H 0.42353 0.14164 0.01041 0.0
H959 H 0.38485 0.08108 0.98651 0.0
H960 H 0.4154 0.08025 0.97838 0.0
H961 H 0.51536 0.07523 0.01908 0.0
H962 H 0.50755 0.10073 0.00949 0.0
H963 H 0.45441 0.05343 0.97937 0.0
H964 H 0.46211 0.02775 0.98881 0.0
H965 H 0.44799 0.08327 0.99686 0.0
H966 H 0.49502 0.07901 0.96214 0.0
H967 H 0.52694 0.07916 0.95691 0.0
H968 H 0.56283 0.14068 0.97961 0.0
H969 H 0.53111 0.14075 0.98532 0.0
C970 C 0.4463 0.15375 0.95632 0.0
C971 C 0.46196 0.17421 0.96024 0.0
C972 C 0.44903 0.13784 0.96116 0.0
C973 C 0.46731 0.1421 0.97027 0.0
C974 C 0.48305 0.16247 0.97397 0.0
C975 C 0.48046 0.17834 0.96894 0.0
C976 C 0.47012 0.12543 0.97608 0.0
C977 C 0.48795 0.12493 0.97282 0.0
C978 C 0.45551 0.11023 0.98486 0.0
C979 C 0.43712 0.11069 0.98973 0.0
C980 C 0.43922 0.12793 0.99891 0.0
C981 C 0.42182 0.1283 0.00341 0.0
C982 C 0.40224 0.11143 0.99891 0.0
C983 C 0.40003 0.09415 0.98995 0.0
C984 C 0.41738 0.09371 0.98541 0.0
C985 C 0.50186 0.07019 0.01057 0.0
C986 C 0.48941 0.0495 0.00462 0.0
C987 C 0.49749 0.08479 0.00507 0.0
C988 C 0.48055 0.0789 0.99362 0.0
C989 C 0.46758 0.05819 0.98818 0.0
C990 C 0.47205 0.04359 0.99355 0.0
C991 C 0.47691 0.09451 0.98684 0.0
C992 C 0.45895 0.09475 0.98989 0.0
C993 C 0.49155 0.10966 0.9781 0.0
C994 C 0.51065 0.10981 0.9743 0.0
C995 C 0.50971 0.09252 0.96613 0.0
C996 C 0.52777 0.09257 0.96308 0.0
C997 C 0.5469 0.1099 0.96796 0.0
C998 C 0.548 0.12725 0.97586 0.0
C999 C 0.52998 0.12725 0.97901 0.0
H1000 H 0.56087 0.10991 0.9656 0.0
H1001 H 0.38879 0.11174 0.00241 0.0
H1002 H 0.67406 0.18874 0.93738 0.0
H1003 H 0.64774 0.1581 0.94797 0.0
H1004 H 0.69287 0.16279 0.98521 0.0
H1005 H 0.71947 0.19327 0.97424 0.0
H1006 H 0.66598 0.12341 0.97528 0.0
H1007 H 0.66111 0.18177 0.99258 0.0
H1008 H 0.65832 0.21252 0.9898 0.0
H1009 H 0.6001 0.1763 0.96111 0.0
H1010 H 0.60272 0.14538 0.96342 0.0
H1011 H 0.58453 0.05896 0.02316 0.0
H1012 H 0.61548 0.08802 0.01475 0.0
H1013 H 0.57979 0.08825 0.97217 0.0
H1014 H 0.54912 0.05953 0.98035 0.0
H1015 H 0.60403 0.1264 0.98813 0.0
H1016 H 0.6108 0.06869 0.96914 0.0
H1017 H 0.61347 0.03795 0.97249 0.0
H1018 H 0.66787 0.0733 0.00577 0.0
H1019 H 0.66536 0.10421 0.00278 0.0
C1020 C 0.67842 0.18297 0.94762 0.0
C1021 C 0.69873 0.19339 0.95506 0.0
C1022 C 0.66336 0.16556 0.95375 0.0
C1023 C 0.66817 0.15844 0.96769 0.0
C1024 C 0.68875 0.16807 0.97453 0.0
C1025 C 0.70394 0.18542 0.96824 0.0
C1026 C 0.65145 0.14174 0.97551 0.0
C1027 C 0.65259 0.12421 0.97832 0.0
C1028 C 0.63387 0.14267 0.97946 0.0
C1029 C 0.63224 0.16127 0.97803 0.0
C1030 C 0.64781 0.18038 0.98554 0.0
C1031 C 0.64624 0.19785 0.98406 0.0
C1032 C 0.62908 0.19638 0.97524 0.0
C1033 C 0.61341 0.17743 0.96791 0.0
C1034 C 0.61494 0.15993 0.96929 0.0
C1035 C 0.58333 0.06522 0.01201 0.0
C1036 C 0.56435 0.05684 0.00242 0.0
C1037 C 0.60102 0.08176 0.00719 0.0
C1038 C 0.59995 0.09023 0.99278 0.0
C1039 C 0.58099 0.08197 0.98332 0.0
C1040 C 0.56345 0.06545 0.98802 0.0
C1041 C 0.61833 0.10792 0.98746 0.0
C1042 C 0.61753 0.1257 0.98521 0.0
C1043 C 0.63619 0.10723 0.98414 0.0
C1044 C 0.63775 0.0887 0.98589 0.0
C1045 C 0.62323 0.06987 0.97728 0.0
C1046 C 0.62473 0.05242 0.9791 0.0
C1047 C 0.64079 0.05366 0.98938 0.0
C1048 C 0.65542 0.07236 0.99784 0.0
C1049 C 0.65397 0.08984 0.99608 0.0
H1050 H 0.64193 0.04014 0.99077 0.0
H1051 H 0.62789 0.20991 0.97413 0.0
H1052 H 0.82177 0.52355 0.93193 0.0
H1053 H 0.85635 0.52881 0.93934 0.0
H1054 H 0.84231 0.51841 0.9887 0.0
H1055 H 0.80787 0.51298 0.9813 0.0
H1056 H 0.88242 0.55011 0.98682 0.0
H1057 H 0.83649 0.48022 0.96308 0.0
H1058 H 0.81287 0.45376 0.94134 0.0
H1059 H 0.86015 0.47679 0.90909 0.0
H1060 H 0.88399 0.50352 0.93061 0.0
H1061 H 0.95007 0.51946 0.02053 0.0
H1062 H 0.92105 0.52326 0.0107 0.0
H1063 H 0.93625 0.52128 0.96158 0.0
H1064 H 0.96479 0.51666 0.97129 0.0
H1065 H 0.89757 0.49901 0.96111 0.0
H1066 H 0.94472 0.56678 0.98426 0.0
H1067 H 0.96925 0.59408 0.0051 0.0
H1068 H 0.92172 0.57738 0.03688 0.0
H1069 H 0.89695 0.54978 0.01631 0.0
C1070 C 0.82633 0.5229 0.94442 0.0
C1071 C 0.81224 0.51792 0.95606 0.0
C1072 C 0.84598 0.52574 0.94862 0.0
C1073 C 0.85186 0.5238 0.96456 0.0
C1074 C 0.83815 0.51998 0.97636 0.0
C1075 C 0.8185 0.5169 0.97212 0.0
C1076 C 0.87163 0.52435 0.96887 0.0
C1077 C 0.88573 0.5389 0.98126 0.0
C1078 C 0.87626 0.51011 0.9613 0.0
C1079 C 0.86192 0.49404 0.94838 0.0
C1080 C 0.84179 0.47975 0.95131 0.0
C1081 C 0.82838 0.46467 0.93904 0.0
C1082 C 0.83499 0.46362 0.92383 0.0
C1083 C 0.85505 0.47762 0.92087 0.0
C1084 C 0.86851 0.49274 0.9331 0.0
C1085 C 0.94736 0.52002 0.00765 0.0
C1086 C 0.95983 0.5178 0.99673 0.0
C1087 C 0.93078 0.52231 0.00202 0.0
C1088 C 0.92653 0.52291 0.98537 0.0
C1089 C 0.93912 0.5209 0.97447 0.0
C1090 C 0.95552 0.51831 0.98006 0.0
C1091 C 0.90844 0.52469 0.97926 0.0
C1092 C 0.89456 0.51049 0.96656 0.0
C1093 C 0.9042 0.53948 0.98637 0.0
C1094 C 0.91901 0.5561 0.99878 0.0
C1095 C 0.93953 0.56883 0.99573 0.0
C1096 C 0.95347 0.58438 0.00749 0.0
C1097 C 0.94706 0.58743 0.02231 0.0
C1098 C 0.92667 0.57498 0.02539 0.0
C1099 C 0.91266 0.5594 0.01368 0.0
H1100 H 0.95788 0.59947 0.0314 0.0
H1101 H 0.82459 0.45193 0.91435 0.0
H1102 H 0.46277 0.28821 0.9572 0.0
H1103 H 0.45534 0.31617 0.95745 0.0
H1104 H 0.46759 0.3261 0.00963 0.0
H1105 H 0.47458 0.29786 0.00951 0.0
H1106 H 0.43654 0.334 0.99795 0.0
H1107 H 0.50597 0.35077 0.98815 0.0
H1108 H 0.53118 0.34642 0.97338 0.0
H1109 H 0.50857 0.35899 0.9293 0.0
H1110 H 0.483 0.3631 0.94379 0.0
H1111 H 0.48245 0.43997 0.02011 0.0
H1112 H 0.47186 0.4039 0.01514 0.0
H1113 H 0.46903 0.40801 0.96348 0.0
H1114 H 0.48016 0.44428 0.96835 0.0
H1115 H 0.49022 0.39074 0.97139 0.0
H1116 H 0.42497 0.38063 0.98276 0.0
H1117 H 0.40042 0.38558 0.99795 0.0
H1118 H 0.4147 0.3611 0.03893 0.0
H1119 H 0.43959 0.35629 0.02409 0.0
C1120 C 0.46322 0.29591 0.96877 0.0
C1121 C 0.46959 0.29111 0.98333 0.0
C1122 C 0.45903 0.3119 0.96888 0.0
C1123 C 0.46123 0.32335 0.98354 0.0
C1124 C 0.46585 0.31746 0.99819 0.0
C1125 C 0.47006 0.30149 0.99809 0.0
C1126 C 0.46189 0.34316 0.9835 0.0
C1127 C 0.44822 0.34646 0.99216 0.0
C1128 C 0.47692 0.35922 0.97566 0.0
C1129 C 0.49243 0.35699 0.967 0.0
C1130 C 0.50629 0.35246 0.97529 0.0
C1131 C 0.52064 0.35005 0.96697 0.0
C1132 C 0.52143 0.35237 0.9504 0.0
C1133 C 0.5079 0.35716 0.94213 0.0
C1134 C 0.49348 0.35953 0.95038 0.0
C1135 C 0.47936 0.43316 0.00768 0.0
C1136 C 0.48229 0.44501 0.99462 0.0
C1137 C 0.47313 0.41248 0.00485 0.0
C1138 C 0.4694 0.40318 0.98892 0.0
C1139 C 0.47178 0.41487 0.97586 0.0
C1140 C 0.47819 0.4356 0.97868 0.0
C1141 C 0.46497 0.38184 0.986 0.0
C1142 C 0.47811 0.37825 0.97686 0.0
C1143 C 0.44943 0.3656 0.9934 0.0
C1144 C 0.43427 0.36822 0.00233 0.0
C1145 C 0.42298 0.37642 0.99505 0.0
C1146 C 0.40899 0.37919 0.0036 0.0
C1147 C 0.40603 0.37369 0.01941 0.0
C1148 C 0.41701 0.36536 0.02669 0.0
C1149 C 0.43105 0.36258 0.0182 0.0
H1150 H 0.3952 0.37587 0.02601 0.0
H1151 H 0.53256 0.3505 0.94398 0.0
H1152 H 0.20477 0.71982 0.04933 0.0
H1153 H 0.16977 0.69095 0.04232 0.0
H1154 H 0.18035 0.65836 0.07922 0.0
H1155 H 0.21557 0.68681 0.08564 0.0
H1156 H 0.16363 0.63386 0.05374 0.0
H1157 H 0.14779 0.68014 0.0823 0.0
H1158 H 0.1483 0.71254 0.08885 0.0
H1159 H 0.11961 0.70709 0.04105 0.0
H1160 H 0.11918 0.67478 0.03414 0.0
H1161 H 0.06064 0.55476 0.05397 0.0
H1162 H 0.0927 0.5866 0.06259 0.0
H1163 H 0.08752 0.61013 0.01756 0.0
H1164 H 0.05544 0.57816 0.00868 0.0
H1165 H 0.1006 0.63909 0.04683 0.0
H1166 H 0.11685 0.59185 0.01918 0.0
H1167 H 0.11494 0.55853 0.0143 0.0
H1168 H 0.1422 0.56543 0.06292 0.0
H1169 H 0.14389 0.59865 0.0682 0.0
C1170 C 0.19943 0.70658 0.05607 0.0
C1171 C 0.21277 0.70548 0.06801 0.0
C1172 C 0.17942 0.6901 0.05211 0.0
C1173 C 0.17225 0.67244 0.06033 0.0
C1174 C 0.18547 0.6717 0.07263 0.0
C1175 C 0.20555 0.68798 0.07635 0.0
C1176 C 0.15146 0.65426 0.05555 0.0
C1177 C 0.14987 0.63506 0.0525 0.0
C1178 C 0.13341 0.65571 0.05354 0.0
C1179 C 0.13364 0.67514 0.05766 0.0
C1180 C 0.14173 0.68593 0.07314 0.0
C1181 C 0.14198 0.70426 0.07693 0.0
C1182 C 0.13404 0.7119 0.06536 0.0
C1183 C 0.12579 0.70117 0.04999 0.0
C1184 C 0.12552 0.68284 0.04614 0.0
C1185 C 0.06613 0.56677 0.04595 0.0
C1186 C 0.05553 0.56385 0.03058 0.0
C1187 C 0.08448 0.58495 0.0509 0.0
C1188 C 0.09251 0.60062 0.04066 0.0
C1189 C 0.08154 0.59818 0.02563 0.0
C1190 C 0.06327 0.57988 0.02056 0.0
C1191 C 0.113 0.61897 0.04525 0.0
C1192 C 0.11447 0.63808 0.04817 0.0
C1193 C 0.13092 0.61744 0.04739 0.0
C1194 C 0.1303 0.59765 0.04414 0.0
C1195 C 0.12228 0.5862 0.02888 0.0
C1196 C 0.12126 0.56734 0.02603 0.0
C1197 C 0.12839 0.55985 0.0383 0.0
C1198 C 0.13664 0.57124 0.05343 0.0
C1199 C 0.13764 0.59009 0.05636 0.0
H1200 H 0.12758 0.54525 0.03607 0.0
H1201 H 0.13425 0.72609 0.06831 0.0
H1202 H 0.33301 0.51364 0.09362 0.0
H1203 H 0.36062 0.5104 0.08242 0.0
H1204 H 0.31903 0.47302 0.04056 0.0
H1205 H 0.2911 0.47588 0.05204 0.0
H1206 H 0.34624 0.46036 0.04863 0.0
H1207 H 0.35036 0.52392 0.03967 0.0
H1208 H 0.35174 0.55656 0.04711 0.0
H1209 H 0.40795 0.57757 0.07773 0.0
H1210 H 0.40671 0.54488 0.07073 0.0
H1211 H 0.42878 0.48215 0.99905 0.0
H1212 H 0.39765 0.47873 0.00965 0.0
H1213 H 0.43355 0.51448 0.05411 0.0
H1214 H 0.46458 0.51807 0.04366 0.0
H1215 H 0.40789 0.52714 0.04286 0.0
H1216 H 0.40293 0.4629 0.05245 0.0
H1217 H 0.40178 0.43047 0.04453 0.0
H1218 H 0.34758 0.4112 0.01179 0.0
H1219 H 0.34858 0.44367 0.01935 0.0
C1220 C 0.32963 0.50431 0.08222 0.0
C1221 C 0.30994 0.49507 0.07367 0.0
C1222 C 0.34546 0.50258 0.07576 0.0
C1223 C 0.34211 0.49191 0.06042 0.0
C1224 C 0.32207 0.48145 0.05236 0.0
C1225 C 0.30609 0.48301 0.05894 0.0
C1226 C 0.35986 0.49306 0.05244 0.0
C1227 C 0.35959 0.47496 0.04717 0.0
C1228 C 0.37746 0.5121 0.05062 0.0
C1229 C 0.37831 0.53184 0.0548 0.0
C1230 C 0.36292 0.53542 0.0481 0.0
C1231 C 0.36369 0.55395 0.05223 0.0
C1232 C 0.37989 0.56911 0.06292 0.0
C1233 C 0.39539 0.56579 0.06948 0.0
C1234 C 0.39466 0.54727 0.06543 0.0
C1235 C 0.43005 0.48928 0.01108 0.0
C1236 C 0.44924 0.50034 0.02048 0.0
C1237 C 0.41221 0.48722 0.01717 0.0
C1238 C 0.41319 0.49621 0.03275 0.0
C1239 C 0.43235 0.50738 0.04207 0.0
C1240 C 0.45012 0.50935 0.03606 0.0
C1241 C 0.39446 0.49449 0.03934 0.0
C1242 C 0.39452 0.51253 0.04428 0.0
C1243 C 0.37672 0.47543 0.04077 0.0
C1244 C 0.37596 0.45581 0.03634 0.0
C1245 C 0.39086 0.45182 0.04347 0.0
C1246 C 0.39022 0.43342 0.03906 0.0
C1247 C 0.37466 0.41881 0.02762 0.0
C1248 C 0.35965 0.42255 0.02062 0.0
C1249 C 0.36024 0.44094 0.02498 0.0
H1250 H 0.3742 0.40458 0.02421 0.0
H1251 H 0.38047 0.58344 0.06609 0.0
H1252 H 0.49015 0.79978 0.02643 0.0
H1253 H 0.49918 0.83455 0.02104 0.0
H1254 H 0.52281 0.85593 0.07128 0.0
H1255 H 0.51396 0.82115 0.07671 0.0
H1256 H 0.49383 0.86686 0.05878 0.0
H1257 H 0.55599 0.86926 0.04545 0.0
H1258 H 0.57658 0.85717 0.03164 0.0
H1259 H 0.55208 0.86265 0.98531 0.0
H1260 H 0.53108 0.87449 0.99884 0.0
H1261 H 0.52937 0.97018 0.05036 0.0
H1262 H 0.52948 0.93915 0.05649 0.0
H1263 H 0.5156 0.91736 0.00554 0.0
H1264 H 0.51604 0.9487 0.99925 0.0
H1265 H 0.5414 0.90723 0.01934 0.0
H1266 H 0.47734 0.90164 0.03142 0.0
H1267 H 0.45438 0.91144 0.0442 0.0
H1268 H 0.48009 0.91012 0.09142 0.0
H1269 H 0.50326 0.90042 0.07896 0.0
C1270 C 0.49737 0.81195 0.03629 0.0
C1271 C 0.50131 0.80786 0.05199 0.0
C1272 C 0.50263 0.83176 0.03318 0.0
C1273 C 0.51174 0.84774 0.04575 0.0
C1274 C 0.51586 0.84375 0.06142 0.0
C1275 C 0.51087 0.82397 0.06449 0.0
C1276 C 0.51576 0.86835 0.0427 0.0
C1277 C 0.50452 0.87591 0.0504 0.0
C1278 C 0.52919 0.87969 0.03134 0.0
C1279 C 0.54181 0.87258 0.02317 0.0
C1280 C 0.55484 0.86771 0.03232 0.0
C1281 C 0.56662 0.86094 0.02454 0.0
C1282 C 0.5656 0.85909 0.00761 0.0
C1283 C 0.55283 0.86406 0.99842 0.0
C1284 C 0.541 0.87082 0.00614 0.0
C1285 C 0.52663 0.95891 0.04043 0.0
C1286 C 0.5225 0.96177 0.02433 0.0
C1287 C 0.52659 0.94115 0.04396 0.0
C1288 C 0.52204 0.92573 0.03151 0.0
C1289 C 0.51903 0.92902 0.01534 0.0
C1290 C 0.51931 0.94694 0.01176 0.0
C1291 C 0.51946 0.90583 0.03544 0.0
C1292 C 0.53086 0.89832 0.02785 0.0
C1293 C 0.50591 0.89433 0.04674 0.0
C1294 C 0.49219 0.90051 0.05425 0.0
C1295 C 0.47821 0.90361 0.04453 0.0
C1296 C 0.46511 0.9091 0.05172 0.0
C1297 C 0.46578 0.91145 0.06861 0.0
C1298 C 0.47955 0.9083 0.07835 0.0
C1299 C 0.49266 0.90278 0.07123 0.0
H1300 H 0.45559 0.91566 0.07415 0.0
H1301 H 0.57474 0.85385 1.00161 0.0
H1302 H 0.96378 0.15388 0.38577 0.0
H1303 H 0.99381 0.18121 0.37527 0.0
H1304 H 0.01739 0.21154 0.42367 0.0
H1305 H 0.98802 0.18378 0.43449 0.0
H1306 H 0.01781 0.23744 0.39927 0.0
H1307 H 0.03844 0.18808 0.40911 0.0
H1308 H 0.03595 0.15434 0.40681 0.0
H1309 H 0.03711 0.15526 0.35519 0.0
H1310 H 0.0392 0.18883 0.35714 0.0
H1311 H 0.11918 0.31083 0.38553 0.0
H1312 H 0.08864 0.28376 0.39549 0.0
H1313 H 0.07273 0.24771 0.3492 0.0
H1314 H 0.1037 0.27455 0.33926 0.0
H1315 H 0.06791 0.22457 0.37248 0.0
H1316 H 0.04666 0.27308 0.36183 0.0
H1317 H 0.04933 0.30691 0.36349 0.0
H1318 H 0.04898 0.30759 0.41525 0.0
H1319 H 0.04657 0.27387 0.41392 0.0
C1320 C 0.97544 0.16616 0.39428 0.0
C1321 C 0.97338 0.16643 0.41105 0.0
C1322 C 0.99256 0.18186 0.3882 0.0
C1323 C 0.00786 0.19834 0.3987 0.0
C1324 C 0.00571 0.19897 0.41536 0.0
C1325 C 0.98877 0.18311 0.4215 0.0
C1326 C 0.0261 0.21493 0.39229 0.0
C1327 C 0.0289 0.2347 0.39354 0.0
C1328 C 0.04025 0.2112 0.38446 0.0
C1329 C 0.03862 0.19083 0.38324 0.0
C1330 C 0.03785 0.18096 0.39724 0.0
C1331 C 0.03658 0.16189 0.39601 0.0
C1332 C 0.03627 0.15262 0.38086 0.0
C1333 C 0.03727 0.16242 0.36691 0.0
C1334 C 0.03848 0.18146 0.36807 0.0
C1335 C 0.10911 0.29724 0.37735 0.0
C1336 C 0.11386 0.29498 0.3615 0.0
C1337 C 0.09156 0.28177 0.38309 0.0
C1338 C 0.07812 0.26378 0.37303 0.0
C1339 C 0.08279 0.26147 0.35718 0.0
C1340 C 0.10047 0.27689 0.35147 0.0
C1341 C 0.05959 0.24713 0.37924 0.0
C1342 C 0.05675 0.22733 0.37803 0.0
C1343 C 0.04529 0.25079 0.38695 0.0
C1344 C 0.04661 0.27102 0.38778 0.0
C1345 C 0.04729 0.28051 0.37357 0.0
C1346 C 0.04874 0.29965 0.37446 0.0
C1347 C 0.04937 0.30942 0.38947 0.0
C1348 C 0.04851 0.30002 0.40363 0.0
C1349 C 0.04708 0.28088 0.40282 0.0
H1350 H 0.0505 0.32424 0.39013 0.0
H1351 H 0.03533 0.13787 0.37993 0.0
H1352 H 0.84287 0.80293 0.43502 0.0
H1353 H 0.81412 0.80642 0.424 0.0
H1354 H 0.82596 0.79521 0.37538 0.0
H1355 H 0.85486 0.79169 0.38636 0.0
H1356 H 0.81899 0.82635 0.37734 0.0
H1357 H 0.78497 0.75839 0.39319 0.0
H1358 H 0.77672 0.73178 0.41181 0.0
H1359 H 0.75483 0.76133 0.44409 0.0
H1360 H 0.76322 0.78829 0.42576 0.0
H1361 H 0.72741 0.81661 0.33901 0.0
H1362 H 0.75467 0.81009 0.34872 0.0
H1363 H 0.74172 0.81595 0.39806 0.0
H1364 H 0.71365 0.82138 0.38828 0.0
H1365 H 0.74921 0.7866 0.39501 0.0
H1366 H 0.7844 0.85534 0.3792 0.0
H1367 H 0.79301 0.88185 0.36032 0.0
H1368 H 0.81291 0.85063 0.32782 0.0
H1369 H 0.80419 0.82383 0.34634 0.0
C1370 C 0.83922 0.80091 0.42198 0.0
C1371 C 0.85113 0.79684 0.41159 0.0
C1372 C 0.82275 0.80295 0.41568 0.0
C1373 C 0.81761 0.8008 0.39883 0.0
C1374 C 0.82956 0.79691 0.38842 0.0
C1375 C 0.84612 0.79493 0.39471 0.0
C1376 C 0.80005 0.80302 0.39214 0.0
C1377 C 0.80365 0.81745 0.38103 0.0
C1378 C 0.7801 0.79174 0.39717 0.0
C1379 C 0.7749 0.77546 0.40816 0.0
C1380 C 0.77853 0.7593 0.40431 0.0
C1381 C 0.77381 0.74414 0.41481 0.0
C1382 C 0.7653 0.74489 0.42915 0.0
C1383 C 0.76144 0.76078 0.43299 0.0
C1384 C 0.76616 0.77599 0.42254 0.0
C1385 C 0.73034 0.81645 0.35194 0.0
C1386 C 0.71841 0.81959 0.36288 0.0
C1387 C 0.74607 0.81287 0.3575 0.0
C1388 C 0.75073 0.813 0.37421 0.0
C1389 C 0.73857 0.81582 0.38513 0.0
C1390 C 0.72251 0.81894 0.37953 0.0
C1391 C 0.76814 0.81012 0.3803 0.0
C1392 C 0.76452 0.79554 0.3913 0.0
C1393 C 0.7881 0.82127 0.37516 0.0
C1394 C 0.79347 0.83749 0.36409 0.0
C1395 C 0.7905 0.85408 0.36798 0.0
C1396 C 0.79541 0.86916 0.35735 0.0
C1397 C 0.80345 0.86789 0.34289 0.0
C1398 C 0.80666 0.85158 0.33902 0.0
C1399 C 0.80175 0.83646 0.34958 0.0
H1400 H 0.80723 0.87957 0.33469 0.0
H1401 H 0.76167 0.73314 0.43726 0.0
H1402 H 0.23327 0.06455 0.4025 0.0
H1403 H 0.23286 0.03347 0.39242 0.0
H1404 H 0.16657 0.00159 0.38499 0.0
H1405 H 0.16676 0.03206 0.3962 0.0
H1406 H 0.17762 0.97821 0.39777 0.0
H1407 H 0.19862 0.01918 0.35312 0.0
H1408 H 0.2199 0.04978 0.33941 0.0
H1409 H 0.27309 0.04436 0.35156 0.0
H1410 H 0.25216 0.01386 0.36553 0.0
H1411 H 0.15991 0.89609 0.34095 0.0
H1412 H 0.16496 0.92935 0.35116 0.0
H1413 H 0.22512 0.94647 0.37379 0.0
H1414 H 0.22004 0.91295 0.36393 0.0
H1415 H 0.21922 0.9773 0.35397 0.0
H1416 H 0.19635 0.93525 0.39851 0.0
H1417 H 0.17335 0.9034 0.41009 0.0
H1418 H 0.12149 0.91017 0.39579 0.0
H1419 H 0.1442 0.94197 0.38389 0.0
C1420 C 0.21858 0.05088 0.39888 0.0
C1421 C 0.20005 0.05091 0.40013 0.0
C1422 C 0.21839 0.03317 0.3929 0.0
C1423 C 0.1997 0.01524 0.3877 0.0
C1424 C 0.1812 0.01525 0.38887 0.0
C1425 C 0.18136 0.03282 0.39509 0.0
C1426 C 0.19927 0.99629 0.38137 0.0
C1427 C 0.1866 0.97807 0.38809 0.0
C1428 C 0.21125 0.99605 0.36893 0.0
C1429 C 0.22387 0.01437 0.36052 0.0
C1430 C 0.21488 0.02461 0.35298 0.0
C1431 C 0.22688 0.04192 0.34514 0.0
C1432 C 0.24785 0.04904 0.34465 0.0
C1433 C 0.25685 0.03884 0.35197 0.0
C1434 C 0.24493 0.02154 0.35984 0.0
C1435 C 0.17431 0.907 0.34795 0.0
C1436 C 0.18957 0.90193 0.35169 0.0
C1437 C 0.17714 0.92594 0.35377 0.0
C1438 C 0.19538 0.94022 0.3632 0.0
C1439 C 0.21097 0.93557 0.36649 0.0
C1440 C 0.208 0.91644 0.36092 0.0
C1441 C 0.19752 0.95954 0.37031 0.0
C1442 C 0.21043 0.97769 0.36373 0.0
C1443 C 0.18558 0.95971 0.38271 0.0
C1444 C 0.17195 0.94087 0.39017 0.0
C1445 C 0.18002 0.92986 0.39772 0.0
C1446 C 0.16704 0.91183 0.40436 0.0
C1447 C 0.14595 0.90471 0.40363 0.0
C1448 C 0.13783 0.91569 0.39632 0.0
C1449 C 0.15075 0.93373 0.38965 0.0
H1450 H 0.13593 0.89073 0.40875 0.0
H1451 H 0.25711 0.06244 0.33858 0.0
H1452 H 0.47994 0.61446 0.30427 0.0
H1453 H 0.50898 0.64783 0.31516 0.0
H1454 H 0.52993 0.65828 0.26762 0.0
H1455 H 0.5006 0.62548 0.25646 0.0
H1456 H 0.56138 0.66714 0.29257 0.0
H1457 H 0.50696 0.68183 0.28075 0.0
H1458 H 0.47245 0.67744 0.2823 0.0
H1459 H 0.48495 0.69178 0.33403 0.0
H1460 H 0.51945 0.69595 0.33282 0.0
H1461 H 0.63556 0.77284 0.30583 0.0
H1462 H 0.6066 0.73926 0.29553 0.0
H1463 H 0.58053 0.73478 0.34101 0.0
H1464 H 0.60911 0.76858 0.35121 0.0
H1465 H 0.55149 0.72233 0.31744 0.0
H1466 H 0.6054 0.70769 0.32999 0.0
H1467 H 0.63979 0.7115 0.32926 0.0
H1468 H 0.62836 0.69629 0.27759 0.0
H1469 H 0.59398 0.69264 0.27799 0.0
C1470 C 0.49057 0.62391 0.29607 0.0
C1471 C 0.48786 0.6171 0.27946 0.0
C1472 C 0.50723 0.64295 0.30235 0.0
C1473 C 0.5216 0.65553 0.29219 0.0
C1474 C 0.5191 0.64875 0.27569 0.0
C1475 C 0.50234 0.62987 0.26937 0.0
C1476 C 0.53924 0.6758 0.2987 0.0
C1477 C 0.55926 0.6793 0.29786 0.0
C1478 C 0.53643 0.69147 0.30597 0.0
C1479 C 0.51569 0.68896 0.30671 0.0
C1480 C 0.50228 0.68385 0.29248 0.0
C1481 C 0.48273 0.68144 0.29329 0.0
C1482 C 0.47648 0.68426 0.30826 0.0
C1483 C 0.48979 0.68955 0.32245 0.0
C1484 C 0.50935 0.69195 0.3217 0.0
C1485 C 0.62375 0.76466 0.31369 0.0
C1486 C 0.62475 0.77339 0.32939 0.0
C1487 C 0.60719 0.7454 0.30779 0.0
C1488 C 0.59146 0.73428 0.31756 0.0
C1489 C 0.59244 0.743 0.33323 0.0
C1490 C 0.60887 0.76233 0.33907 0.0
C1491 C 0.57378 0.71376 0.31138 0.0
C1492 C 0.5537 0.71019 0.31224 0.0
C1493 C 0.57655 0.69794 0.30428 0.0
C1494 C 0.59719 0.70009 0.304 0.0
C1495 C 0.61028 0.7053 0.31846 0.0
C1496 C 0.62976 0.70741 0.3181 0.0
C1497 C 0.63627 0.70419 0.30338 0.0
C1498 C 0.6233 0.6988 0.28898 0.0
C1499 C 0.60381 0.6967 0.28926 0.0
H1500 H 0.65136 0.70583 0.30313 0.0
H1501 H 0.46135 0.6824 0.30886 0.0
H1502 H 0.39147 0.87263 0.30004 0.0
H1503 H 0.36049 0.86894 0.31087 0.0
H1504 H 0.3391 0.87713 0.26406 0.0
H1505 H 0.3697 0.88024 0.25296 0.0
H1506 H 0.334 0.89939 0.28901 0.0
H1507 H 0.31898 0.83045 0.27615 0.0
H1508 H 0.32474 0.80121 0.27699 0.0
H1509 H 0.32304 0.80383 0.32867 0.0
H1510 H 0.3176 0.83332 0.32817 0.0
H1511 H 0.22992 0.86485 0.30141 0.0
H1512 H 0.26185 0.87006 0.29157 0.0
H1513 H 0.27859 0.85439 0.33695 0.0
H1514 H 0.2463 0.84852 0.34671 0.0
H1515 H 0.28668 0.83642 0.31319 0.0
H1516 H 0.30159 0.90507 0.32641 0.0
H1517 H 0.29583 0.93434 0.32589 0.0
H1518 H 0.2981 0.93268 0.27427 0.0
H1519 H 0.30361 0.90322 0.27446 0.0
C1520 C 0.38013 0.87348 0.29196 0.0
C1521 C 0.38319 0.87667 0.27556 0.0
C1522 C 0.36242 0.87144 0.29822 0.0
C1523 C 0.34734 0.87258 0.28826 0.0
C1524 C 0.35053 0.87624 0.27201 0.0
C1525 C 0.36815 0.87814 0.2657 0.0
C1526 C 0.32816 0.86977 0.29473 0.0
C1527 C 0.32353 0.88553 0.29413 0.0
C1528 C 0.31472 0.8519 0.3018 0.0
C1529 C 0.31812 0.83425 0.30214 0.0
C1530 C 0.32005 0.82493 0.28771 0.0
C1531 C 0.32321 0.80828 0.28813 0.0
C1532 C 0.32431 0.8007 0.30288 0.0
C1533 C 0.32222 0.80974 0.31725 0.0
C1534 C 0.31909 0.82642 0.31691 0.0
C1535 C 0.24043 0.86264 0.30938 0.0
C1536 C 0.23552 0.85636 0.32493 0.0
C1537 C 0.25879 0.86572 0.30373 0.0
C1538 C 0.27291 0.86295 0.31357 0.0
C1539 C 0.26804 0.85668 0.3291 0.0
C1540 C 0.24956 0.8534 0.33471 0.0
C1541 C 0.29247 0.86609 0.30753 0.0
C1542 C 0.29717 0.85036 0.30816 0.0
C1543 C 0.30605 0.88405 0.30058 0.0
C1544 C 0.30283 0.90182 0.30044 0.0
C1545 C 0.30072 0.91086 0.31494 0.0
C1546 C 0.29752 0.9275 0.3147 0.0
C1547 C 0.29655 0.93533 0.30005 0.0
C1548 C 0.29883 0.92658 0.28561 0.0
C1549 C 0.30202 0.90993 0.28577 0.0
H1550 H 0.29407 0.94821 0.29989 0.0
H1551 H 0.32673 0.78779 0.30317 0.0
H1552 H 0.11671 0.49759 0.28827 0.0
H1553 H 0.11823 0.46977 0.30018 0.0
H1554 H 0.18371 0.50852 0.31239 0.0
H1555 H 0.18274 0.53554 0.29883 0.0
H1556 H 0.17815 0.47496 0.30197 0.0
H1557 H 0.14548 0.4938 0.34125 0.0
H1558 H 0.12006 0.50166 0.35185 0.0
H1559 H 0.07154 0.44073 0.3354 0.0
H1560 H 0.09664 0.43258 0.3245 0.0
H1561 H 0.18771 0.40986 0.35552 0.0
H1562 H 0.18405 0.4385 0.3475 0.0
H1563 H 0.12675 0.3965 0.31897 0.0
H1564 H 0.13035 0.36768 0.32676 0.0
H1565 H 0.1284 0.43161 0.33894 0.0
H1566 H 0.16532 0.41512 0.29979 0.0
H1567 H 0.19354 0.40939 0.29283 0.0
H1568 H 0.23791 0.47003 0.31385 0.0
H1569 H 0.20997 0.476 0.32121 0.0
C1570 C 0.13152 0.50017 0.29325 0.0
C1571 C 0.1496 0.51897 0.29249 0.0
C1572 C 0.1323 0.4843 0.3004 0.0
C1573 C 0.15104 0.48707 0.3075 0.0
C1574 C 0.16902 0.50593 0.30705 0.0
C1575 C 0.16837 0.52157 0.29947 0.0
C1576 C 0.15216 0.47008 0.31469 0.0
C1577 C 0.16742 0.46577 0.31025 0.0
C1578 C 0.1381 0.45781 0.32541 0.0
C1579 C 0.12293 0.46265 0.33191 0.0
C1580 C 0.12937 0.48213 0.33978 0.0
C1581 C 0.11502 0.48663 0.34586 0.0
C1582 C 0.0942 0.47172 0.34426 0.0
C1583 C 0.08768 0.45227 0.33661 0.0
C1584 C 0.10196 0.4477 0.33049 0.0
C1585 C 0.17415 0.40666 0.34775 0.0
C1586 C 0.15937 0.38652 0.34168 0.0
C1587 C 0.17212 0.42304 0.34318 0.0
C1588 C 0.1552 0.41952 0.3326 0.0
C1589 C 0.13989 0.39943 0.32717 0.0
C1590 C 0.14203 0.38303 0.33156 0.0
C1591 C 0.15431 0.43683 0.3262 0.0
C1592 C 0.13909 0.44105 0.33073 0.0
C1593 C 0.1688 0.44944 0.31599 0.0
C1594 C 0.18555 0.44594 0.31118 0.0
C1595 C 0.18109 0.42718 0.30303 0.0
C1596 C 0.19704 0.4239 0.29899 0.0
C1597 C 0.2175 0.43934 0.30288 0.0
C1598 C 0.22206 0.4581 0.31081 0.0
C1599 C 0.20618 0.46144 0.31492 0.0
H1600 H 0.22983 0.4368 0.29972 0.0
H1601 H 0.08311 0.47524 0.34898 0.0
H1602 H 0.33967 0.51559 0.27056 0.0
H1603 H 0.31355 0.48523 0.28157 0.0
H1604 H 0.35854 0.49208 0.31992 0.0
H1605 H 0.38497 0.52231 0.30855 0.0
H1606 H 0.33229 0.45222 0.31057 0.0
H1607 H 0.32558 0.50997 0.32624 0.0
H1608 H 0.32228 0.54029 0.32254 0.0
H1609 H 0.26533 0.50303 0.29246 0.0
H1610 H 0.2685 0.47255 0.2957 0.0
H1611 H 0.24847 0.38807 0.35751 0.0
H1612 H 0.27999 0.41674 0.34935 0.0
H1613 H 0.24627 0.41551 0.305 0.0
H1614 H 0.21507 0.38733 0.31291 0.0
H1615 H 0.26915 0.45412 0.32121 0.0
H1616 H 0.27778 0.39693 0.30413 0.0
H1617 H 0.28101 0.3667 0.30843 0.0
H1618 H 0.33423 0.40328 0.34259 0.0
H1619 H 0.33113 0.4337 0.33865 0.0
C1620 C 0.34406 0.5104 0.28118 0.0
C1621 C 0.36428 0.52136 0.28879 0.0
C1622 C 0.32911 0.49312 0.28753 0.0
C1623 C 0.33391 0.48666 0.30186 0.0
C1624 C 0.35441 0.49685 0.30894 0.0
C1625 C 0.36951 0.51406 0.30242 0.0
C1626 C 0.31721 0.47003 0.30976 0.0
C1627 C 0.31864 0.4528 0.31315 0.0
C1628 C 0.2993 0.47066 0.31313 0.0
C1629 C 0.29737 0.48899 0.31111 0.0
C1630 C 0.31244 0.50827 0.31872 0.0
C1631 C 0.31059 0.52548 0.31671 0.0
C1632 C 0.29364 0.52359 0.30724 0.0
C1633 C 0.27849 0.50448 0.29976 0.0
C1634 C 0.2803 0.48723 0.30168 0.0
C1635 C 0.24783 0.39388 0.34601 0.0
C1636 C 0.22918 0.38534 0.33591 0.0
C1637 C 0.26585 0.41021 0.34134 0.0
C1638 C 0.26545 0.41828 0.32657 0.0
C1639 C 0.24692 0.40965 0.31649 0.0
C1640 C 0.22906 0.3934 0.32105 0.0
C1641 C 0.28398 0.43612 0.32156 0.0
C1642 C 0.28292 0.45366 0.3188 0.0
C1643 C 0.30218 0.43577 0.31891 0.0
C1644 C 0.30407 0.41752 0.32125 0.0
C1645 C 0.29005 0.39849 0.31267 0.0
C1646 C 0.29189 0.38133 0.31502 0.0
C1647 C 0.30777 0.38305 0.32582 0.0
C1648 C 0.3219 0.40196 0.33426 0.0
C1649 C 0.32012 0.41916 0.33197 0.0
H1650 H 0.30917 0.36975 0.32761 0.0
H1651 H 0.29222 0.53694 0.30572 0.0
H1652 H 0.48446 0.86577 0.30286 0.0
H1653 H 0.51747 0.86907 0.31269 0.0
H1654 H 0.51164 0.82818 0.27165 0.0
H1655 H 0.47839 0.82433 0.26225 0.0
H1656 H 0.52136 0.81635 0.29708 0.0
H1657 H 0.548 0.88187 0.27685 0.0
H1658 H 0.55179 0.91573 0.27396 0.0
H1659 H 0.57164 0.93322 0.32486 0.0
H1660 H 0.56771 0.89935 0.32811 0.0
H1661 H 0.62137 0.83022 0.30467 0.0
H1662 H 0.59156 0.83281 0.29513 0.0
H1663 H 0.59431 0.8628 0.34174 0.0
H1664 H 0.62427 0.86022 0.3515 0.0
H1665 H 0.58658 0.88078 0.31485 0.0
H1666 H 0.56055 0.81454 0.33413 0.0
H1667 H 0.55813 0.78106 0.33582 0.0
H1668 H 0.53798 0.76523 0.28487 0.0
H1669 H 0.54062 0.79878 0.2828 0.0
C1670 C 0.49051 0.85788 0.29579 0.0
C1671 C 0.47893 0.84484 0.28179 0.0
C1672 C 0.50938 0.85975 0.3014 0.0
C1673 C 0.51722 0.84891 0.29291 0.0
C1674 C 0.50598 0.8366 0.27852 0.0
C1675 C 0.48703 0.83449 0.27308 0.0
C1676 C 0.53636 0.84926 0.29944 0.0
C1677 C 0.53565 0.8305 0.30072 0.0
C1678 C 0.555 0.86764 0.30466 0.0
C1679 C 0.55734 0.88799 0.30275 0.0
C1680 C 0.55301 0.89288 0.28746 0.0
C1681 C 0.55522 0.91208 0.28575 0.0
C1682 C 0.56189 0.9266 0.29922 0.0
C1683 C 0.56643 0.92195 0.31444 0.0
C1684 C 0.56423 0.90276 0.31622 0.0
C1685 C 0.61579 0.83751 0.31292 0.0
C1686 C 0.62521 0.84491 0.32892 0.0
C1687 C 0.59868 0.83894 0.30742 0.0
C1688 C 0.59058 0.84783 0.31776 0.0
C1689 C 0.6003 0.85586 0.33356 0.0
C1690 C 0.61738 0.8543 0.33914 0.0
C1691 C 0.57149 0.84795 0.31217 0.0
C1692 C 0.57221 0.86672 0.31116 0.0
C1693 C 0.55289 0.8296 0.30701 0.0
C1694 C 0.55096 0.80926 0.30828 0.0
C1695 C 0.55574 0.80398 0.32326 0.0
C1696 C 0.55432 0.78498 0.32429 0.0
C1697 C 0.54795 0.77104 0.31046 0.0
C1698 C 0.54293 0.77605 0.29557 0.0
C1699 C 0.54438 0.79505 0.29446 0.0
H1700 H 0.54687 0.75634 0.31128 0.0
H1701 H 0.5636 0.94146 0.29787 0.0
H1702 H 0.20684 0.66521 0.27908 0.0
H1703 H 0.20045 0.69326 0.2858 0.0
H1704 H 0.15928 0.65822 0.32026 0.0
H1705 H 0.16507 0.62979 0.31303 0.0
H1706 H 0.14421 0.67786 0.30545 0.0
H1707 H 0.20983 0.69674 0.33214 0.0
H1708 H 0.2453 0.70296 0.33498 0.0
H1709 H 0.26297 0.74921 0.30208 0.0
H1710 H 0.22751 0.74303 0.29883 0.0
H1711 H 0.15478 0.7701 0.34785 0.0
H1712 H 0.1555 0.73844 0.34144 0.0
H1713 H 0.18367 0.76121 0.29787 0.0
H1714 H 0.18277 0.79258 0.30395 0.0
H1715 H 0.20465 0.74728 0.31963 0.0
H1716 H 0.13706 0.72632 0.29298 0.0
H1717 H 0.10171 0.7203 0.29219 0.0
H1718 H 0.08828 0.67821 0.32826 0.0
H1719 H 0.12368 0.68421 0.32943 0.0
C1720 C 0.19635 0.66351 0.28802 0.0
C1721 C 0.18656 0.64548 0.29564 0.0
C1722 C 0.19277 0.67954 0.29191 0.0
C1723 C 0.17976 0.67805 0.30383 0.0
C1724 C 0.16944 0.65976 0.31109 0.0
C1725 C 0.17275 0.64356 0.30697 0.0
C1726 C 0.17733 0.69576 0.30891 0.0
C1727 C 0.15744 0.69297 0.30878 0.0
C1728 C 0.19458 0.71553 0.31323 0.0
C1729 C 0.21594 0.71928 0.31513 0.0
C1730 C 0.22123 0.70812 0.32541 0.0
C1731 C 0.24134 0.71165 0.3271 0.0
C1732 C 0.25636 0.72644 0.31868 0.0
C1733 C 0.25131 0.73774 0.30857 0.0
C1734 C 0.2312 0.73423 0.3068 0.0
C1735 C 0.16093 0.76825 0.33682 0.0
C1736 C 0.16874 0.78384 0.32642 0.0
C1737 C 0.16128 0.75018 0.33318 0.0
C1738 C 0.16965 0.7476 0.3192 0.0
C1739 C 0.17715 0.76298 0.30871 0.0
C1740 C 0.17654 0.78085 0.3122 0.0
C1741 C 0.17165 0.72937 0.31582 0.0
C1742 C 0.19148 0.7321 0.31637 0.0
C1743 C 0.15439 0.70957 0.31219 0.0
C1744 C 0.13309 0.7059 0.31143 0.0
C1745 C 0.12664 0.71593 0.30086 0.0
C1746 C 0.10657 0.71249 0.30031 0.0
C1747 C 0.09278 0.69893 0.3102 0.0
C1748 C 0.099 0.68873 0.32062 0.0
C1749 C 0.11905 0.69214 0.32122 0.0
H1750 H 0.07725 0.69628 0.30976 0.0
H1751 H 0.27193 0.72916 0.32003 0.0
H1752 H 0.87358 0.03708 0.37094 0.0
H1753 H 0.83824 0.00839 0.36605 0.0
H1754 H 0.83195 0.01212 0.41726 0.0
H1755 H 0.86738 0.04121 0.42215 0.0
H1756 H 0.82095 0.97255 0.40334 0.0
H1757 H 0.80513 0.02466 0.39382 0.0
H1758 H 0.80842 0.05523 0.38223 0.0
H1759 H 0.79404 0.02423 0.33419 0.0
H1760 H 0.79098 0.99356 0.34547 0.0
H1761 H 0.71752 0.89057 0.38868 0.0
H1762 H 0.74738 0.92401 0.39799 0.0
H1763 H 0.75963 0.935 0.34835 0.0
H1764 H 0.72946 0.9019 0.33894 0.0
H1765 H 0.76594 0.96872 0.36469 0.0
H1766 H 0.7848 0.9176 0.3743 0.0
H1767 H 0.78102 0.88692 0.38605 0.0
H1768 H 0.79035 0.91632 0.43408 0.0
H1769 H 0.79354 0.94697 0.42265 0.0
C1770 C 0.8645 0.032 0.3811 0.0
C1771 C 0.87311 0.04133 0.39691 0.0
C1772 C 0.84433 0.01565 0.3783 0.0
C1773 C 0.83245 0.00814 0.39129 0.0
C1774 C 0.84085 0.01772 0.40708 0.0
C1775 C 0.86099 0.03436 0.40985 0.0
C1776 C 0.81181 0.98946 0.3883 0.0
C1777 C 0.80873 0.97178 0.39515 0.0
C1778 C 0.79607 0.9884 0.37737 0.0
C1779 C 0.798 0.00685 0.3705 0.0
C1780 C 0.80286 0.02442 0.38077 0.0
C1781 C 0.80464 0.04175 0.37426 0.0
C1782 C 0.80148 0.04169 0.35748 0.0
C1783 C 0.7965 0.02426 0.34718 0.0
C1784 C 0.79472 0.00689 0.35363 0.0
C1785 C 0.72649 0.90015 0.37973 0.0
C1786 C 0.72114 0.89348 0.36305 0.0
C1787 C 0.74362 0.91927 0.38508 0.0
C1788 C 0.75601 0.93195 0.3739 0.0
C1789 C 0.75036 0.92552 0.35723 0.0
C1790 C 0.73311 0.90653 0.35186 0.0
C1791 C 0.77518 0.95163 0.37945 0.0
C1792 C 0.77802 0.9695 0.37304 0.0
C1793 C 0.79074 0.95284 0.39076 0.0
C1794 C 0.78917 0.93451 0.39761 0.0
C1795 C 0.78589 0.91748 0.38737 0.0
C1796 C 0.78388 0.9001 0.39397 0.0
C1797 C 0.78548 0.89968 0.41078 0.0
C1798 C 0.7891 0.91665 0.42105 0.0
C1799 C 0.79096 0.93402 0.41452 0.0
H1800 H 0.78393 0.8862 0.41585 0.0
H1801 H 0.80286 0.05512 0.35246 0.0
H1802 H 0.9893 0.82409 0.42204 0.0
H1803 H 0.01825 0.82149 0.41265 0.0
H1804 H 0.98836 0.80465 0.36372 0.0
H1805 H 0.95931 0.80703 0.3732 0.0
H1806 H 0.00972 0.78461 0.36987 0.0
H1807 H 0.02237 0.85336 0.37627 0.0
H1808 H 0.02488 0.88386 0.39094 0.0
H1809 H 0.07175 0.88774 0.42558 0.0
H1810 H 0.06922 0.85699 0.41128 0.0
H1811 H 0.10121 0.81734 0.32939 0.0
H1812 H 0.06866 0.81181 0.33858 0.0
H1813 H 0.09766 0.83259 0.3877 0.0
H1814 H 0.13008 0.83845 0.37865 0.0
H1815 H 0.07599 0.84989 0.38081 0.0
H1816 H 0.06342 0.78107 0.37448 0.0
H1817 H 0.06093 0.75059 0.35976 0.0
H1818 H 0.0145 0.7471 0.32487 0.0
H1819 H 0.01691 0.77774 0.33926 0.0
C1820 C 0.98861 0.81907 0.40941 0.0
C1821 C 0.97199 0.81543 0.39837 0.0
C1822 C 0.00523 0.8178 0.404 0.0
C1823 C 0.00568 0.8132 0.38741 0.0
C1824 C 0.9884 0.80822 0.37656 0.0
C1825 C 0.97176 0.80946 0.38198 0.0
C1826 C 0.02483 0.81553 0.3812 0.0
C1827 C 0.02418 0.79893 0.37214 0.0
C1828 C 0.0438 0.83415 0.38425 0.0
C1829 C 0.04543 0.85272 0.39281 0.0
C1830 C 0.03308 0.8606 0.38709 0.0
C1831 C 0.03452 0.87795 0.39534 0.0
C1832 C 0.04843 0.8877 0.40921 0.0
C1833 C 0.06096 0.88014 0.41485 0.0
C1834 C 0.05952 0.86275 0.40669 0.0
C1835 C 0.10062 0.82062 0.34215 0.0
C1836 C 0.11835 0.82836 0.35323 0.0
C1837 C 0.08195 0.81737 0.34742 0.0
C1838 C 0.08057 0.82161 0.36389 0.0
C1839 C 0.09824 0.8292 0.37494 0.0
C1840 C 0.11684 0.83251 0.3697 0.0
C1841 C 0.06104 0.81887 0.3697 0.0
C1842 C 0.06159 0.8355 0.3786 0.0
C1843 C 0.04204 0.80028 0.36649 0.0
C1844 C 0.0405 0.78182 0.35786 0.0
C1845 C 0.05279 0.77389 0.3636 0.0
C1846 C 0.05138 0.75657 0.35532 0.0
C1847 C 0.03761 0.74695 0.34136 0.0
C1848 C 0.02518 0.75459 0.33567 0.0
C1849 C 0.02655 0.77192 0.34389 0.0
H1850 H 0.03654 0.73354 0.33497 0.0
H1851 H 0.04954 0.90114 0.41557 0.0
H1852 H 0.17923 0.13736 0.37023 0.0
H1853 H 0.18421 0.16926 0.36047 0.0
H1854 H 0.14537 0.17231 0.39537 0.0
H1855 H 0.1397 0.14001 0.40458 0.0
H1856 H 0.13545 0.18106 0.3683 0.0
H1857 H 0.20016 0.20287 0.39968 0.0
H1858 H 0.23219 0.20273 0.4075 0.0
H1859 H 0.25108 0.21703 0.35993 0.0
H1860 H 0.21902 0.217 0.35176 0.0
H1861 H 0.1656 0.28471 0.37874 0.0
H1862 H 0.16307 0.25198 0.38233 0.0
H1863 H 0.18646 0.25201 0.3362 0.0
H1864 H 0.18884 0.28503 0.33229 0.0
H1865 H 0.20439 0.24091 0.36449 0.0
H1866 H 0.13993 0.22345 0.33535 0.0
H1867 H 0.10844 0.22533 0.32975 0.0
H1868 H 0.08939 0.20426 0.37597 0.0
H1869 H 0.12102 0.2027 0.38202 0.0
C1870 C 0.17191 0.14499 0.37585 0.0
C1871 C 0.15912 0.13635 0.38815 0.0
C1872 C 0.17479 0.16321 0.37031 0.0
C1873 C 0.16534 0.17335 0.37729 0.0
C1874 C 0.15275 0.16476 0.38973 0.0
C1875 C 0.14956 0.14637 0.39503 0.0
C1876 C 0.16814 0.1927 0.37154 0.0
C1877 C 0.15055 0.19417 0.3676 0.0
C1878 C 0.18782 0.20968 0.37016 0.0
C1879 C 0.20709 0.20969 0.37505 0.0
C1880 C 0.21107 0.20582 0.39085 0.0
C1881 C 0.22924 0.2058 0.39535 0.0
C1882 C 0.24363 0.2098 0.3842 0.0
C1883 C 0.2399 0.21389 0.36854 0.0
C1884 C 0.22174 0.2139 0.36397 0.0
C1885 C 0.17039 0.27794 0.36935 0.0
C1886 C 0.17741 0.2875 0.35518 0.0
C1887 C 0.16884 0.25917 0.37142 0.0
C1888 C 0.1744 0.24958 0.35947 0.0
C1889 C 0.18204 0.25924 0.34552 0.0
C1890 C 0.18336 0.27803 0.3433 0.0
C1891 C 0.17177 0.22927 0.36172 0.0
C1892 C 0.18933 0.22764 0.36499 0.0
C1893 C 0.15209 0.21226 0.3628 0.0
C1894 C 0.13297 0.21311 0.35919 0.0
C1895 C 0.12915 0.21942 0.3444 0.0
C1896 C 0.11126 0.22041 0.34113 0.0
C1897 C 0.09695 0.21495 0.3525 0.0
C1898 C 0.1005 0.20851 0.36718 0.0
C1899 C 0.11842 0.20756 0.37053 0.0
H1900 H 0.08307 0.21565 0.3499 0.0
H1901 H 0.25769 0.20978 0.38772 0.0
H1902 H 0.62424 0.49024 0.71389 0.0
H1903 H 0.65338 0.51759 0.7025 0.0
H1904 H 0.67909 0.54861 0.75051 0.0
H1905 H 0.65027 0.52106 0.76208 0.0
H1906 H 0.68161 0.57498 0.72719 0.0
H1907 H 0.69708 0.52097 0.73393 0.0
H1908 H 0.68999 0.48548 0.73003 0.0
H1909 H 0.68748 0.48749 0.67837 0.0
H1910 H 0.69424 0.52292 0.68196 0.0
H1911 H 0.78504 0.64191 0.71657 0.0
H1912 H 0.75274 0.61557 0.72483 0.0
H1913 H 0.73639 0.58361 0.67674 0.0
H1914 H 0.76922 0.60977 0.66848 0.0
H1915 H 0.72726 0.55739 0.69816 0.0
H1916 H 0.71365 0.61157 0.69077 0.0
H1917 H 0.71989 0.6468 0.69396 0.0
H1918 H 0.71776 0.64447 0.74542 0.0
H1919 H 0.71178 0.60931 0.74258 0.0
C1920 C 0.63611 0.50284 0.72206 0.0
C1921 C 0.63499 0.5033 0.73895 0.0
C1922 C 0.6527 0.5185 0.7155 0.0
C1923 C 0.66851 0.53501 0.72567 0.0
C1924 C 0.66704 0.53601 0.74244 0.0
C1925 C 0.6505 0.52027 0.74903 0.0
C1926 C 0.68699 0.55079 0.71892 0.0
C1927 C 0.69172 0.57121 0.72096 0.0
C1928 C 0.6998 0.54573 0.71037 0.0
C1929 C 0.69594 0.52451 0.70821 0.0
C1930 C 0.69485 0.51379 0.72173 0.0
C1931 C 0.69092 0.4937 0.71958 0.0
C1932 C 0.68823 0.48422 0.70396 0.0
C1933 C 0.68953 0.49484 0.69046 0.0
C1934 C 0.69342 0.51493 0.69255 0.0
C1935 C 0.77454 0.62938 0.70767 0.0
C1936 C 0.77966 0.62805 0.6918 0.0
C1937 C 0.75598 0.61433 0.71241 0.0
C1938 C 0.74186 0.59777 0.70133 0.0
C1939 C 0.74697 0.5963 0.68549 0.0
C1940 C 0.76572 0.61127 0.68077 0.0
C1941 C 0.72211 0.58177 0.70653 0.0
C1942 C 0.71711 0.56125 0.70422 0.0
C1943 C 0.70894 0.58673 0.7147 0.0
C1944 C 0.71242 0.60785 0.71647 0.0
C1945 C 0.71465 0.61862 0.70278 0.0
C1946 C 0.71812 0.63857 0.70453 0.0
C1947 C 0.71926 0.64788 0.71989 0.0
C1948 C 0.71688 0.63724 0.73353 0.0
C1949 C 0.71343 0.61729 0.73186 0.0
H1950 H 0.72195 0.66333 0.72121 0.0
H1951 H 0.68519 0.46866 0.70232 0.0
H1952 H 0.50482 0.1315 0.76917 0.0
H1953 H 0.47628 0.13533 0.75814 0.0
H1954 H 0.4979 0.14046 0.71083 0.0
H1955 H 0.52603 0.13569 0.72152 0.0
H1956 H 0.48857 0.17143 0.72125 0.0
H1957 H 0.45743 0.098 0.71668 0.0
H1958 H 0.44763 0.06488 0.72706 0.0
H1959 H 0.41266 0.07534 0.76139 0.0
H1960 H 0.4225 0.10868 0.75137 0.0
H1961 H 0.40404 0.16622 0.67492 0.0
H1962 H 0.43128 0.1603 0.68573 0.0
H1963 H 0.40192 0.14263 0.72968 0.0
H1964 H 0.37423 0.14796 0.71872 0.0
H1965 H 0.41539 0.11813 0.72152 0.0
H1966 H 0.44549 0.19044 0.72763 0.0
H1967 H 0.45559 0.22462 0.71933 0.0
H1968 H 0.4929 0.21815 0.68504 0.0
H1969 H 0.48278 0.18379 0.69297 0.0
C1970 C 0.50336 0.13298 0.75633 0.0
C1971 C 0.51785 0.13314 0.74627 0.0
C1972 C 0.48706 0.13535 0.75008 0.0
C1973 C 0.48491 0.13815 0.73365 0.0
C1974 C 0.4993 0.13841 0.72356 0.0
C1975 C 0.51546 0.13577 0.72975 0.0
C1976 C 0.46779 0.14106 0.72707 0.0
C1977 C 0.47256 0.15968 0.72107 0.0
C1978 C 0.44691 0.12602 0.72741 0.0
C1979 C 0.44087 0.10593 0.73338 0.0
C1980 C 0.44779 0.09332 0.72653 0.0
C1981 C 0.4422 0.07449 0.73233 0.0
C1982 C 0.42958 0.06803 0.7449 0.0
C1983 C 0.42246 0.08037 0.75167 0.0
C1984 C 0.42803 0.09923 0.74592 0.0
C1985 C 0.40332 0.16105 0.68689 0.0
C1986 C 0.38692 0.15764 0.69596 0.0
C1987 C 0.41902 0.15776 0.69311 0.0
C1988 C 0.41895 0.15135 0.70868 0.0
C1989 C 0.40241 0.14761 0.71766 0.0
C1990 C 0.38657 0.1507 0.71137 0.0
C1991 C 0.4361 0.14852 0.71552 0.0
C1992 C 0.43137 0.12993 0.72164 0.0
C1993 C 0.45705 0.16376 0.71558 0.0
C1994 C 0.46321 0.18445 0.71078 0.0
C1995 C 0.45572 0.19624 0.71823 0.0
C1996 C 0.46147 0.21566 0.7136 0.0
C1997 C 0.47484 0.22353 0.70164 0.0
C1998 C 0.48252 0.21202 0.69429 0.0
C1999 C 0.4768 0.19257 0.69886 0.0
H2000 H 0.47927 0.23857 0.69808 0.0
H2001 H 0.42526 0.05345 0.74938 0.0
H2002 H 0.8483 0.37274 0.72084 0.0
H2003 H 0.84563 0.3399 0.71352 0.0
H2004 H 0.90526 0.36124 0.73944 0.0
H2005 H 0.90852 0.3947 0.74622 0.0
H2006 H 0.9011 0.33989 0.71128 0.0
H2007 H 0.86195 0.32921 0.75607 0.0
H2008 H 0.83636 0.33034 0.77255 0.0
H2009 H 0.7881 0.29212 0.73495 0.0
H2010 H 0.81344 0.29101 0.71812 0.0
H2011 H 0.8802 0.23578 0.70718 0.0
H2012 H 0.88798 0.26991 0.71799 0.0
H2013 H 0.83468 0.26224 0.68897 0.0
H2014 H 0.82685 0.22825 0.678 0.0
H2015 H 0.83833 0.27667 0.72206 0.0
H2016 H 0.87951 0.29049 0.67668 0.0
H2017 H 0.90583 0.28916 0.66125 0.0
H2018 H 0.95129 0.32113 0.70205 0.0
H2019 H 0.92515 0.32238 0.71781 0.0
C2020 C 0.86103 0.37063 0.72478 0.0
C2021 C 0.87865 0.38637 0.7341 0.0
C2022 C 0.85935 0.35173 0.72077 0.0
C2023 C 0.87507 0.348 0.7262 0.0
C2024 C 0.89288 0.36377 0.73523 0.0
C2025 C 0.89465 0.3828 0.73919 0.0
C2026 C 0.8727 0.32758 0.72232 0.0
C2027 C 0.88757 0.32608 0.71391 0.0
C2028 C 0.85499 0.30956 0.72569 0.0
C2029 C 0.83964 0.31016 0.73577 0.0
C2030 C 0.8459 0.32117 0.75125 0.0
C2031 C 0.83143 0.32179 0.76067 0.0
C2032 C 0.81062 0.31134 0.75479 0.0
C2033 C 0.80423 0.30022 0.73948 0.0
C2034 C 0.81864 0.29957 0.73001 0.0
C2035 C 0.87015 0.24137 0.70308 0.0
C2036 C 0.85294 0.22936 0.69169 0.0
C2037 C 0.87466 0.26086 0.70924 0.0
C2038 C 0.86193 0.26853 0.7042 0.0
C2039 C 0.84467 0.25653 0.69297 0.0
C2040 C 0.84028 0.23717 0.68668 0.0
C2041 C 0.86641 0.28905 0.71066 0.0
C2042 C 0.85196 0.29052 0.71962 0.0
C2043 C 0.88461 0.30699 0.70799 0.0
C2044 C 0.90033 0.30631 0.69849 0.0
C2045 C 0.89508 0.29706 0.68241 0.0
C2046 C 0.90997 0.29636 0.67359 0.0
C2047 C 0.93021 0.305 0.68068 0.0
C2048 C 0.9356 0.31441 0.69659 0.0
C2049 C 0.92076 0.31513 0.70546 0.0
H2050 H 0.94172 0.30444 0.67383 0.0
H2051 H 0.79944 0.31183 0.7621 0.0
H2052 H 0.18287 0.94258 0.61092 0.0
H2053 H 0.21222 0.97602 0.62062 0.0
H2054 H 0.17108 0.99679 0.63505 0.0
H2055 H 0.14175 0.96418 0.62403 0.0
H2056 H 0.19863 0.0248 0.62149 0.0
H2057 H 0.20109 0.98416 0.66271 0.0
H2058 H 0.20234 0.95532 0.6739 0.0
H2059 H 0.25964 0.97315 0.65431 0.0
H2060 H 0.25859 0.00196 0.64282 0.0
H2061 H 0.27033 0.11232 0.67421 0.0
H2062 H 0.24278 0.0778 0.66434 0.0
H2063 H 0.28532 0.06737 0.63873 0.0
H2064 H 0.31305 0.10208 0.64842 0.0
H2065 H 0.25855 0.0345 0.65743 0.0
H2066 H 0.25496 0.07654 0.61714 0.0
H2067 H 0.25272 0.10571 0.60783 0.0
H2068 H 0.19577 0.08522 0.62873 0.0
H2069 H 0.19781 0.05602 0.63833 0.0
C2070 C 0.18 0.95429 0.616 0.0
C2071 C 0.15977 0.95047 0.61665 0.0
C2072 C 0.19688 0.97338 0.62181 0.0
C2073 C 0.19398 0.98895 0.62883 0.0
C2074 C 0.17382 0.98508 0.62974 0.0
C2075 C 0.15697 0.96619 0.62362 0.0
C2076 C 0.21178 0.00956 0.63464 0.0
C2077 C 0.21155 0.02681 0.62954 0.0
C2078 C 0.22898 0.01239 0.64487 0.0
C2079 C 0.22965 0.99508 0.65176 0.0
C2080 C 0.21387 0.98184 0.66068 0.0
C2081 C 0.21456 0.96552 0.6671 0.0
C2082 C 0.23103 0.96237 0.66478 0.0
C2083 C 0.24688 0.97558 0.65607 0.0
C2084 C 0.24625 0.99192 0.64962 0.0
C2085 C 0.27389 0.1027 0.66653 0.0
C2086 C 0.2939 0.10997 0.66208 0.0
C2087 C 0.25811 0.08299 0.66087 0.0
C2088 C 0.26202 0.0701 0.65077 0.0
C2089 C 0.28202 0.07712 0.64653 0.0
C2090 C 0.2978 0.09696 0.65202 0.0
C2091 C 0.24506 0.04943 0.64443 0.0
C2092 C 0.24554 0.03228 0.64939 0.0
C2093 C 0.22788 0.04666 0.63436 0.0
C2094 C 0.22663 0.06419 0.62857 0.0
C2095 C 0.24205 0.07835 0.61987 0.0
C2096 C 0.2408 0.09488 0.61452 0.0
C2097 C 0.22413 0.09735 0.61772 0.0
C2098 C 0.20868 0.08329 0.62627 0.0
C2099 C 0.20986 0.06673 0.63165 0.0
H2100 H 0.22311 0.1101 0.61354 0.0
H2101 H 0.23154 0.94973 0.66976 0.0
H2102 H 0.04994 0.23483 0.60409 0.0
H2103 H 0.0186 0.23135 0.61399 0.0
H2104 H 0.9997 0.16957 0.6239 0.0
H2105 H 0.0302 0.17244 0.61305 0.0
H2106 H 0.96779 0.17007 0.61197 0.0
H2107 H 0.02158 0.21203 0.65435 0.0
H2108 H 0.0546 0.24146 0.66638 0.0
H2109 H 0.03397 0.28256 0.6526 0.0
H2110 H 1.00091 0.25336 0.64031 0.0
H2111 H 0.89644 0.15789 0.66939 0.0
H2112 H 0.92756 0.16306 0.65767 0.0
H2113 H 0.93412 0.21706 0.63788 0.0
H2114 H 0.90282 0.21182 0.64929 0.0
H2115 H 0.97164 0.22141 0.65406 0.0
H2116 H 0.91604 0.17718 0.61321 0.0
H2117 H 0.88285 0.14648 0.60331 0.0
H2118 H 0.90731 0.1082 0.6162 0.0
H2119 H 0.94046 0.13857 0.62657 0.0
C2120 C 0.03903 0.2204 0.60819 0.0
C2121 C 0.04288 0.204 0.60787 0.0
C2122 C 0.02116 0.21851 0.61406 0.0
C2123 C 0.00682 0.2003 0.62003 0.0
C2124 C 0.01048 0.18384 0.61948 0.0
C2125 C 0.02818 0.18562 0.61345 0.0
C2126 C 0.98805 0.19829 0.62687 0.0
C2127 C 0.96874 0.18123 0.6213 0.0
C2128 C 0.98902 0.21295 0.63888 0.0
C2129 C 0.00887 0.23053 0.64626 0.0
C2130 C 0.02415 0.22735 0.65378 0.0
C2131 C 0.04286 0.24399 0.66066 0.0
C2132 C 0.0464 0.26387 0.66021 0.0
C2133 C 0.03122 0.26715 0.65292 0.0
C2134 C 0.01249 0.25056 0.646 0.0
C2135 C 0.90461 0.17098 0.66268 0.0
C2136 C 0.89717 0.18449 0.66034 0.0
C2137 C 0.92233 0.17385 0.65591 0.0
C2138 C 0.93312 0.1904 0.64684 0.0
C2139 C 0.92604 0.2042 0.64483 0.0
C2140 C 0.90813 0.20115 0.65136 0.0
C2141 C 0.95163 0.19315 0.63927 0.0
C2142 C 0.9708 0.21035 0.64469 0.0
C2143 C 0.95057 0.17847 0.62732 0.0
C2144 C 0.93068 0.16018 0.62088 0.0
C2145 C 0.91427 0.16221 0.61412 0.0
C2146 C 0.89545 0.14486 0.60844 0.0
C2147 C 0.8929 0.1254 0.60929 0.0
C2148 C 0.90922 0.12325 0.6157 0.0
C2149 C 0.92804 0.14053 0.62148 0.0
H2150 H 0.87833 0.11199 0.60487 0.0
H2151 H 0.0609 0.27673 0.66555 0.0
H2152 H 0.79879 0.82944 0.60178 0.0
H2153 H 0.7984 0.80094 0.61432 0.0
H2154 H 0.81887 0.83673 0.66093 0.0
H2155 H 0.81857 0.86515 0.64863 0.0
H2156 H 0.8424 0.81863 0.6521 0.0
H2157 H 0.7718 0.79942 0.6554 0.0
H2158 H 0.7373 0.79214 0.64478 0.0
H2159 H 0.73113 0.74363 0.61126 0.0
H2160 H 0.76574 0.75081 0.62152 0.0
H2161 H 0.83686 0.73769 0.69376 0.0
H2162 H 0.83089 0.76511 0.68612 0.0
H2163 H 0.80154 0.73134 0.63944 0.0
H2164 H 0.80698 0.70369 0.64709 0.0
H2165 H 0.78149 0.74919 0.65055 0.0
H2166 H 0.85182 0.7696 0.64421 0.0
H2167 H 0.8868 0.77662 0.65294 0.0
H2168 H 0.89416 0.82261 0.68977 0.0
H2169 H 0.85908 0.81565 0.6814 0.0
C2170 C 0.80276 0.83115 0.61476 0.0
C2171 C 0.80872 0.84962 0.62419 0.0
C2172 C 0.80262 0.81486 0.62188 0.0
C2173 C 0.80853 0.81676 0.63854 0.0
C2174 C 0.81429 0.83504 0.64804 0.0
C2175 C 0.81423 0.85127 0.64096 0.0
C2176 C 0.8097 0.79998 0.6458 0.0
C2177 C 0.82903 0.80354 0.65208 0.0
C2178 C 0.79233 0.7802 0.64527 0.0
C2179 C 0.77145 0.77577 0.63914 0.0
C2180 C 0.76316 0.7873 0.64567 0.0
C2181 C 0.74357 0.78318 0.63973 0.0
C2182 C 0.73205 0.76746 0.62733 0.0
C2183 C 0.74008 0.75581 0.62086 0.0
C2184 C 0.75968 0.75988 0.62675 0.0
C2185 C 0.82898 0.73602 0.68192 0.0
C2186 C 0.82253 0.71857 0.67099 0.0
C2187 C 0.82562 0.75173 0.67756 0.0
C2188 C 0.81605 0.75039 0.66212 0.0
C2189 C 0.80896 0.73268 0.65141 0.0
C2190 C 0.81214 0.71691 0.65581 0.0
C2191 C 0.81424 0.76779 0.65678 0.0
C2192 C 0.79482 0.76435 0.65079 0.0
C2193 C 0.8316 0.78763 0.65731 0.0
C2194 C 0.85274 0.79194 0.6623 0.0
C2195 C 0.86084 0.7811 0.65425 0.0
C2196 C 0.88069 0.78508 0.65912 0.0
C2197 C 0.89267 0.80001 0.67193 0.0
C2198 C 0.88484 0.81103 0.67987 0.0
C2199 C 0.86498 0.80708 0.67506 0.0
H2200 H 0.90803 0.80307 0.67568 0.0
H2201 H 0.71688 0.76429 0.62275 0.0
H2202 H 0.03216 0.8382 0.60712 0.0
H2203 H 0.00425 0.80615 0.61516 0.0
H2204 H 0.01614 0.83387 0.66442 0.0
H2205 H 0.04377 0.86586 0.65637 0.0
H2206 H 0.0057 0.79163 0.66181 0.0
H2207 H 0.98085 0.83544 0.64174 0.0
H2208 H 0.97717 0.85599 0.62121 0.0
H2209 H 0.94849 0.80328 0.58607 0.0
H2210 H 0.95199 0.78239 0.60642 0.0
H2211 H 0.90967 0.73288 0.69361 0.0
H2212 H 0.94214 0.75975 0.68545 0.0
H2213 H 0.92026 0.73662 0.63517 0.0
H2214 H 0.88771 0.71038 0.64317 0.0
H2215 H 0.93682 0.7753 0.63733 0.0
H2216 H 0.95796 0.73011 0.65724 0.0
H2217 H 0.9622 0.70891 0.67684 0.0
H2218 H 0.99848 0.76214 0.71073 0.0
H2219 H 0.99422 0.78364 0.69141 0.0
C2220 C 0.02913 0.83719 0.61973 0.0
C2221 C 0.04 0.8544 0.63115 0.0
C2222 C 0.01318 0.81897 0.6243 0.0
C2223 C 0.00805 0.81772 0.64037 0.0
C2224 C 0.01988 0.83449 0.65199 0.0
C2225 C 0.0356 0.85274 0.64738 0.0
C2226 C 0.98908 0.79991 0.64476 0.0
C2227 C 0.9906 0.78805 0.65654 0.0
C2228 C 0.96944 0.79505 0.63765 0.0
C2229 C 0.96685 0.80743 0.62554 0.0
C2230 C 0.97381 0.82826 0.62962 0.0
C2231 C 0.9717 0.83994 0.61803 0.0
C2232 C 0.96257 0.83093 0.60235 0.0
C2233 C 0.95546 0.8102 0.59824 0.0
C2234 C 0.95747 0.79842 0.6098 0.0
C2235 C 0.91186 0.73348 0.68084 0.0
C2236 C 0.89607 0.71953 0.66906 0.0
C2237 C 0.93048 0.74879 0.67617 0.0
C2238 C 0.93382 0.75014 0.65966 0.0
C2239 C 0.91812 0.73601 0.64796 0.0
C2240 C 0.89948 0.72095 0.65258 0.0
C2241 C 0.95323 0.76673 0.65444 0.0
C2242 C 0.95183 0.77855 0.64253 0.0
C2243 C 0.97294 0.77131 0.6613 0.0
C2244 C 0.9756 0.75846 0.67294 0.0
C2245 C 0.96672 0.73728 0.66892 0.0
C2246 C 0.96915 0.72521 0.67997 0.0
C2247 C 0.98056 0.73417 0.69504 0.0
C2248 C 0.98962 0.75522 0.69907 0.0
C2249 C 0.98722 0.76736 0.68806 0.0
H2250 H 0.98242 0.7248 0.70358 0.0
H2251 H 0.96099 0.84001 0.59338 0.0
H2252 H 0.13871 0.15006 0.60662 0.0
H2253 H 0.1731 0.15583 0.61373 0.0
H2254 H 0.19222 0.21655 0.63538 0.0
H2255 H 0.15721 0.21039 0.6289 0.0
H2256 H 0.2098 0.17943 0.60734 0.0
H2257 H 0.22823 0.22892 0.66782 0.0
H2258 H 0.21029 0.23607 0.68891 0.0
H2259 H 0.15765 0.17609 0.67718 0.0
H2260 H 0.17538 0.16853 0.65618 0.0
H2261 H 0.30831 0.19751 0.63953 0.0
H2262 H 0.27991 0.20235 0.62947 0.0
H2263 H 0.24578 0.17085 0.66856 0.0
H2264 H 0.27485 0.1677 0.67931 0.0
H2265 H 0.23808 0.19814 0.6652 0.0
H2266 H 0.24046 0.15051 0.6246 0.0
H2267 H 0.25456 0.13878 0.60308 0.0
H2268 H 0.26055 0.18704 0.57524 0.0
H2269 H 0.24707 0.19947 0.59674 0.0
C2270 C 0.15022 0.1647 0.61286 0.0
C2271 C 0.14506 0.17961 0.61747 0.0
C2272 C 0.17 0.16805 0.61682 0.0
C2273 C 0.1853 0.18648 0.6254 0.0
C2274 C 0.18062 0.202 0.62907 0.0
C2275 C 0.16065 0.19857 0.62519 0.0
C2276 C 0.20557 0.18864 0.63113 0.0
C2277 C 0.21608 0.18365 0.61999 0.0
C2278 C 0.21378 0.19398 0.64764 0.0
C2279 C 0.20303 0.19829 0.66031 0.0
C2280 C 0.21284 0.21727 0.66978 0.0
C2281 C 0.20271 0.22138 0.68171 0.0
C2282 C 0.18281 0.20657 0.68434 0.0
C2283 C 0.17303 0.18758 0.67509 0.0
C2284 C 0.1831 0.18338 0.66316 0.0
C2285 C 0.29476 0.19179 0.646 0.0
C2286 C 0.29378 0.18227 0.66021 0.0
C2287 C 0.27839 0.19437 0.64015 0.0
C2288 C 0.26028 0.1866 0.64797 0.0
C2289 C 0.25947 0.17713 0.66224 0.0
C2290 C 0.27609 0.17525 0.6684 0.0
C2291 C 0.24208 0.18813 0.64151 0.0
C2292 C 0.23202 0.19405 0.65251 0.0
C2293 C 0.23397 0.18305 0.62491 0.0
C2294 C 0.24294 0.17604 0.61237 0.0
C2295 C 0.24502 0.15878 0.61399 0.0
C2296 C 0.25286 0.15198 0.60178 0.0
C2297 C 0.25833 0.16209 0.5878 0.0
C2298 C 0.25628 0.17922 0.58608 0.0
C2299 C 0.24862 0.18619 0.59828 0.0
H2300 H 0.264 0.15658 0.57824 0.0
H2301 H 0.17498 0.20979 0.69357 0.0
H2302 H 0.8758 0.99691 0.61186 0.0
H2303 H 0.86918 0.0252 0.61655 0.0
H2304 H 0.82722 0.9925 0.65135 0.0
H2305 H 0.8332 0.96385 0.64612 0.0
H2306 H 0.81156 0.00944 0.63388 0.0
H2307 H 0.87802 0.0336 0.66294 0.0
H2308 H 0.91415 0.0418 0.66651 0.0
H2309 H 0.92908 0.08345 0.62994 0.0
H2310 H 0.89291 0.07515 0.62597 0.0
H2311 H 0.81482 0.09636 0.67644 0.0
H2312 H 0.81742 0.06621 0.66834 0.0
H2313 H 0.84935 0.09514 0.62768 0.0
H2314 H 0.84669 0.12521 0.63555 0.0
H2315 H 0.86964 0.08034 0.64735 0.0
H2316 H 0.80246 0.05701 0.62017 0.0
H2317 H 0.76646 0.04924 0.61822 0.0
H2318 H 0.75296 0.00614 0.65345 0.0
H2319 H 0.78898 0.01387 0.65579 0.0
C2320 C 0.86522 0.99586 0.62053 0.0
C2321 C 0.85508 0.97833 0.62871 0.0
C2322 C 0.86149 0.01202 0.62326 0.0
C2323 C 0.84797 0.01115 0.63453 0.0
C2324 C 0.83771 0.99353 0.6426 0.0
C2325 C 0.84115 0.97721 0.63965 0.0
C2326 C 0.84454 0.02861 0.63794 0.0
C2327 C 0.82427 0.0249 0.63704 0.0
C2328 C 0.8611 0.04886 0.64178 0.0
C2329 C 0.88279 0.05372 0.64411 0.0
C2330 C 0.88899 0.04441 0.6556 0.0
C2331 C 0.90947 0.04906 0.65769 0.0
C2332 C 0.9239 0.06312 0.64845 0.0
C2333 C 0.91789 0.07256 0.63709 0.0
C2334 C 0.89743 0.06791 0.63493 0.0
C2335 C 0.82212 0.09617 0.66565 0.0
C2336 C 0.83052 0.11314 0.65664 0.0
C2337 C 0.82355 0.07894 0.66102 0.0
C2338 C 0.83352 0.07849 0.6474 0.0
C2339 C 0.84155 0.09522 0.6382 0.0
C2340 C 0.83991 0.11233 0.64269 0.0
C2341 C 0.83673 0.06111 0.64335 0.0
C2342 C 0.85697 0.06486 0.64417 0.0
C2343 C 0.82015 0.0409 0.6397 0.0
C2344 C 0.79847 0.03617 0.63827 0.0
C2345 C 0.79186 0.04601 0.62761 0.0
C2346 C 0.77144 0.04158 0.62641 0.0
C2347 C 0.75745 0.02724 0.63574 0.0
C2348 C 0.76383 0.01726 0.64625 0.0
C2349 C 0.78424 0.02164 0.6475 0.0
H2350 H 0.74165 0.02384 0.63479 0.0
H2351 H 0.93975 0.06672 0.6501 0.0
H2352 H 0.53565 0.37792 0.75142 0.0
H2353 H 0.50032 0.34881 0.74619 0.0
H2354 H 0.50927 0.34188 0.69589 0.0
H2355 H 0.54459 0.37064 0.70112 0.0
H2356 H 0.47016 0.33877 0.70158 0.0
H2357 H 0.51465 0.31241 0.7186 0.0
H2358 H 0.54015 0.31061 0.73748 0.0
H2359 H 0.49939 0.2955 0.77482 0.0
H2360 H 0.47376 0.29752 0.7562 0.0
H2361 H 0.3969 0.23845 0.66987 0.0
H2362 H 0.42729 0.27143 0.6788 0.0
H2363 H 0.41587 0.26162 0.72873 0.0
H2364 H 0.38569 0.2282 0.71989 0.0
H2365 H 0.45449 0.27506 0.72609 0.0
H2366 H 0.40812 0.29716 0.70886 0.0
H2367 H 0.3822 0.29915 0.69065 0.0
H2368 H 0.42511 0.32292 0.65505 0.0
H2369 H 0.45121 0.3208 0.67295 0.0
C2370 C 0.52992 0.3703 0.73923 0.0
C2371 C 0.54279 0.37638 0.72668 0.0
C2372 C 0.50983 0.3537 0.73628 0.0
C2373 C 0.50227 0.3432 0.72067 0.0
C2374 C 0.51484 0.34982 0.708 0.0
C2375 C 0.53499 0.36614 0.71101 0.0
C2376 C 0.48169 0.32461 0.71762 0.0
C2377 C 0.46668 0.32478 0.70687 0.0
C2378 C 0.47704 0.30661 0.72492 0.0
C2379 C 0.49242 0.30539 0.73609 0.0
C2380 C 0.51122 0.30891 0.73089 0.0
C2381 C 0.52568 0.30781 0.74153 0.0
C2382 C 0.52143 0.30302 0.75736 0.0
C2383 C 0.50268 0.29926 0.76257 0.0
C2384 C 0.48819 0.30038 0.75198 0.0
C2385 C 0.40069 0.24336 0.68277 0.0
C2386 C 0.3888 0.23066 0.69417 0.0
C2387 C 0.41805 0.26232 0.68785 0.0
C2388 C 0.42375 0.26922 0.70445 0.0
C2389 C 0.41177 0.25668 0.71586 0.0
C2390 C 0.39448 0.23758 0.71079 0.0
C2391 C 0.44283 0.28899 0.70981 0.0
C2392 C 0.45767 0.28907 0.72098 0.0
C2393 C 0.4472 0.30729 0.70303 0.0
C2394 C 0.43158 0.30868 0.69222 0.0
C2395 C 0.41199 0.30268 0.69711 0.0
C2396 C 0.39727 0.30385 0.68684 0.0
C2397 C 0.40199 0.31112 0.67169 0.0
C2398 C 0.42147 0.31728 0.66679 0.0
C2399 C 0.43624 0.31613 0.677 0.0
H2400 H 0.39057 0.31201 0.66376 0.0
H2401 H 0.53263 0.30216 0.76558 0.0
H2402 H 0.6691 0.18906 0.7506 0.0
H2403 H 0.69589 0.18399 0.74038 0.0
H2404 H 0.64989 0.12518 0.71636 0.0
H2405 H 0.62274 0.13094 0.72567 0.0
H2406 H 0.71065 0.16144 0.74289 0.0
H2407 H 0.66651 0.11375 0.6822 0.0
H2408 H 0.63754 0.10802 0.66277 0.0
H2409 H 0.64805 0.16783 0.67807 0.0
H2410 H 0.67721 0.17399 0.69743 0.0
H2411 H 0.78061 0.13972 0.70714 0.0
H2412 H 0.74909 0.1355 0.71724 0.0
H2413 H 0.74296 0.16946 0.67939 0.0
H2414 H 0.77372 0.17227 0.66855 0.0
H2415 H 0.70725 0.14335 0.68394 0.0
H2416 H 0.76473 0.19102 0.72162 0.0
H2417 H 0.79627 0.20319 0.74025 0.0
H2418 H 0.76345 0.15441 0.76961 0.0
H2419 H 0.73171 0.14187 0.7511 0.0
C2420 C 0.66458 0.17504 0.74307 0.0
C2421 C 0.64365 0.16066 0.73864 0.0
C2422 C 0.68002 0.17205 0.73734 0.0
C2423 C 0.6751 0.1544 0.72722 0.0
C2424 C 0.65422 0.13923 0.72375 0.0
C2425 C 0.63865 0.14239 0.72929 0.0
C2426 C 0.69194 0.1526 0.71993 0.0
C2427 C 0.70978 0.15736 0.73 0.0
C2428 C 0.69125 0.14769 0.70305 0.0
C2429 C 0.67384 0.1442 0.69139 0.0
C2430 C 0.66264 0.12568 0.68138 0.0
C2431 C 0.6462 0.12236 0.67039 0.0
C2432 C 0.64091 0.13752 0.66923 0.0
C2433 C 0.65211 0.15607 0.67902 0.0
C2434 C 0.66858 0.15947 0.69001 0.0
C2435 C 0.77232 0.146 0.70084 0.0
C2436 C 0.77962 0.15636 0.68708 0.0
C2437 C 0.75439 0.14379 0.70672 0.0
C2438 C 0.74381 0.1527 0.69946 0.0
C2439 C 0.75075 0.16246 0.68533 0.0
C2440 C 0.76836 0.16409 0.67911 0.0
C2441 C 0.72605 0.1525 0.70687 0.0
C2442 C 0.70804 0.14727 0.69685 0.0
C2443 C 0.72692 0.15788 0.7237 0.0
C2444 C 0.74592 0.16541 0.73489 0.0
C2445 C 0.76428 0.18283 0.732 0.0
C2446 C 0.78217 0.18978 0.74253 0.0
C2447 C 0.78185 0.17949 0.75603 0.0
C2448 C 0.76366 0.16226 0.75908 0.0
C2449 C 0.7457 0.15528 0.74861 0.0
H2450 H 0.79562 0.18504 0.76426 0.0
H2451 H 0.62816 0.13492 0.66073 0.0
H2452 H 0.86874 0.49621 0.73413 0.0
H2453 H 0.87448 0.5308 0.7325 0.0
H2454 H 0.87087 0.52218 0.68031 0.0
H2455 H 0.86541 0.48773 0.68188 0.0
H2456 H 0.89956 0.56256 0.69338 0.0
H2457 H 0.82871 0.51038 0.69659 0.0
H2458 H 0.80099 0.48228 0.70911 0.0
H2459 H 0.81501 0.52205 0.7528 0.0
H2460 H 0.84306 0.55031 0.7406 0.0
H2461 H 0.85873 0.62321 0.6653 0.0
H2462 H 0.86696 0.59671 0.67119 0.0
H2463 H 0.8621 0.60678 0.72205 0.0
H2464 H 0.85345 0.63293 0.71624 0.0
H2465 H 0.84092 0.56776 0.71217 0.0
H2466 H 0.90897 0.62156 0.70758 0.0
H2467 H 0.93649 0.64963 0.69492 0.0
H2468 H 0.92823 0.60778 0.65414 0.0
H2469 H 0.90042 0.57948 0.66645 0.0
C2470 C 0.86979 0.50194 0.72236 0.0
C2471 C 0.86634 0.48924 0.70811 0.0
C2472 C 0.873 0.52164 0.72144 0.0
C2473 C 0.8728 0.52888 0.70627 0.0
C2474 C 0.87103 0.51684 0.69212 0.0
C2475 C 0.86773 0.49713 0.69303 0.0
C2476 C 0.87165 0.54766 0.70494 0.0
C2477 C 0.88676 0.56376 0.69743 0.0
C2478 C 0.85509 0.54927 0.71049 0.0
C2479 C 0.83812 0.53237 0.71776 0.0
C2480 C 0.82598 0.51308 0.70891 0.0
C2481 C 0.8102 0.49714 0.71594 0.0
C2482 C 0.80628 0.50037 0.73176 0.0
C2483 C 0.8181 0.51956 0.74056 0.0
C2484 C 0.83393 0.53555 0.7336 0.0
C2485 C 0.85958 0.6199 0.67775 0.0
C2486 C 0.85531 0.6301 0.69027 0.0
C2487 C 0.86442 0.60485 0.68112 0.0
C2488 C 0.86535 0.59991 0.69709 0.0
C2489 C 0.86148 0.61036 0.70964 0.0
C2490 C 0.85652 0.62529 0.70628 0.0
C2491 C 0.86883 0.58284 0.70055 0.0
C2492 C 0.85401 0.56689 0.70837 0.0
C2493 C 0.88567 0.58147 0.6953 0.0
C2494 C 0.90248 0.59842 0.68789 0.0
C2495 C 0.91291 0.61836 0.69586 0.0
C2496 C 0.92858 0.63431 0.68875 0.0
C2497 C 0.93408 0.6305 0.67372 0.0
C2498 C 0.92394 0.61071 0.66578 0.0
C2499 C 0.90824 0.5947 0.67283 0.0
H2500 H 0.94621 0.64287 0.66824 0.0
H2501 H 0.79405 0.48801 0.73718 0.0
H2502 H 0.46768 0.91155 0.24216 0.0
H2503 H 0.48119 0.9304 0.21877 0.0
H2504 H 0.42038 0.91756 0.20149 0.0
H2505 H 0.40658 0.89781 0.22437 0.0
H2506 H 0.43807 0.91254 0.17695 0.0
H2507 H 0.45835 0.96542 0.22042 0.0
H2508 H 0.47443 0.98413 0.2474 0.0
H2509 H 0.53325 0.99488 0.23502 0.0
H2510 H 0.51746 0.97599 0.20803 0.0
H2511 H 0.46665 0.98671 0.12067 0.0
H2512 H 0.4547 0.96916 0.14497 0.0
H2513 H 0.51361 0.97385 0.15618 0.0
H2514 H 0.52574 0.99157 0.13189 0.0
H2515 H 0.49756 0.98332 0.18363 0.0
H2516 H 0.47659 0.9298 0.14021 0.0
H2517 H 0.46086 0.91408 0.11245 0.0
H2518 H 0.40304 0.90637 0.12458 0.0
H2519 H 0.4185 0.92225 0.15244 0.0
C2520 C 0.45712 0.9126 0.23335 0.0
C2521 C 0.43601 0.90319 0.23529 0.0
C2522 C 0.46493 0.9236 0.22003 0.0
C2523 C 0.45188 0.9257 0.20841 0.0
C2524 C 0.43081 0.91627 0.21028 0.0
C2525 C 0.42297 0.90517 0.22353 0.0
C2526 C 0.4601 0.93749 0.19422 0.0
C2527 C 0.45092 0.92809 0.1785 0.0
C2528 C 0.47713 0.95771 0.19606 0.0
C2529 C 0.48668 0.9691 0.21227 0.0
C2530 C 0.47469 0.97164 0.2235 0.0
C2531 C 0.48375 0.9823 0.23878 0.0
C2532 C 0.50484 0.99064 0.24294 0.0
C2533 C 0.51691 0.98838 0.23179 0.0
C2534 C 0.50792 0.97771 0.21649 0.0
C2535 C 0.47714 0.9842 0.12839 0.0
C2536 C 0.49714 0.99049 0.12432 0.0
C2537 C 0.47026 0.97408 0.14223 0.0
C2538 C 0.48323 0.9701 0.15235 0.0
C2539 C 0.50335 0.97676 0.14855 0.0
C2540 C 0.5102 0.98673 0.1346 0.0
C2541 C 0.47549 0.95835 0.16655 0.0
C2542 C 0.48475 0.96774 0.1822 0.0
C2543 C 0.45849 0.93821 0.16468 0.0
C2544 C 0.44874 0.92736 0.14836 0.0
C2545 C 0.46051 0.92473 0.13697 0.0
C2546 C 0.45167 0.91582 0.12121 0.0
C2547 C 0.43102 0.90935 0.11673 0.0
C2548 C 0.41906 0.91144 0.12807 0.0
C2549 C 0.42784 0.92035 0.14387 0.0
H2550 H 0.42436 0.90278 0.10444 0.0
H2551 H 0.51183 0.99889 0.25478 0.0
H2552 H 0.12351 0.51505 0.23776 0.0
H2553 H 0.1011 0.50708 0.21277 0.0
H2554 H 0.09388 0.55897 0.22554 0.0
H2555 H 0.11532 0.56634 0.25115 0.0
H2556 H 0.05845 0.52798 0.21251 0.0
H2557 H 0.12744 0.5607 0.19807 0.0
H2558 H 0.16243 0.56619 0.19694 0.0
H2559 H 0.13759 0.50649 0.17146 0.0
H2560 H 0.10241 0.50053 0.17265 0.0
H2561 H 0.02695 0.53803 0.13199 0.0
H2562 H 0.04563 0.54361 0.15875 0.0
H2563 H 0.04543 0.48701 0.14897 0.0
H2564 H 0.02681 0.48138 0.12217 0.0
H2565 H 0.08413 0.52021 0.16044 0.0
H2566 H 0.01468 0.48856 0.17453 0.0
H2567 H 0.98021 0.48448 0.17537 0.0
H2568 H 0.00679 0.5443 0.20102 0.0
H2569 H 0.04148 0.54886 0.20013 0.0
C2570 C 0.11686 0.52457 0.23546 0.0
C2571 C 0.12128 0.54138 0.24651 0.0
C2572 C 0.10425 0.52013 0.22103 0.0
C2573 C 0.09612 0.53265 0.21712 0.0
C2574 C 0.10008 0.54917 0.22825 0.0
C2575 C 0.11253 0.55348 0.24281 0.0
C2576 C 0.08382 0.5287 0.20128 0.0
C2577 C 0.06418 0.52654 0.20112 0.0
C2578 C 0.09114 0.52651 0.1864 0.0
C2579 C 0.11228 0.53009 0.18559 0.0
C2580 C 0.12943 0.54868 0.19233 0.0
C2581 C 0.1493 0.55189 0.19166 0.0
C2582 C 0.15223 0.53668 0.18417 0.0
C2583 C 0.13529 0.51825 0.17728 0.0
C2584 C 0.11539 0.51495 0.17794 0.0
C2585 C 0.03087 0.52677 0.13558 0.0
C2586 C 0.02545 0.50927 0.12503 0.0
C2587 C 0.0414 0.52991 0.15088 0.0
C2588 C 0.04679 0.51565 0.15584 0.0
C2589 C 0.04134 0.49814 0.14535 0.0
C2590 C 0.03062 0.49489 0.13012 0.0
C2591 C 0.05881 0.51941 0.17172 0.0
C2592 C 0.07842 0.52161 0.17186 0.0
C2593 C 0.05155 0.52187 0.18652 0.0
C2594 C 0.0307 0.51913 0.18712 0.0
C2595 C 0.0132 0.50092 0.18022 0.0
C2596 C 0.99361 0.4985 0.18073 0.0
C2597 C 0.99131 0.51414 0.1882 0.0
C2598 C 0.0086 0.53221 0.19522 0.0
C2599 C 0.02822 0.53471 0.19473 0.0
H2600 H 0.97613 0.51224 0.18858 0.0
H2601 H 0.16762 0.5392 0.18366 0.0
H2602 H 0.4298 0.55256 0.2237 0.0
H2603 H 0.43658 0.54062 0.19806 0.0
H2604 H 0.49248 0.547 0.22142 0.0
H2605 H 0.4857 0.55877 0.24714 0.0
H2606 H 0.49935 0.56652 0.19445 0.0
H2607 H 0.45114 0.49998 0.20862 0.0
H2608 H 0.4182 0.4734 0.21681 0.0
H2609 H 0.38614 0.47697 0.17364 0.0
H2610 H 0.41887 0.50379 0.1653 0.0
H2611 H 0.52705 0.5256 0.12876 0.0
H2612 H 0.5165 0.53081 0.15497 0.0
H2613 H 0.45984 0.52225 0.1312 0.0
H2614 H 0.46988 0.51608 0.10491 0.0
H2615 H 0.45279 0.50329 0.1583 0.0
H2616 H 0.49998 0.57011 0.14441 0.0
H2617 H 0.53245 0.5972 0.13597 0.0
H2618 H 0.5658 0.59387 0.17844 0.0
H2619 H 0.53354 0.56654 0.18702 0.0
C2620 C 0.44324 0.55087 0.2235 0.0
C2621 C 0.45726 0.55671 0.23747 0.0
C2622 C 0.44713 0.5441 0.2088 0.0
C2623 C 0.46506 0.54293 0.20779 0.0
C2624 C 0.47861 0.5479 0.22188 0.0
C2625 C 0.47472 0.55464 0.23657 0.0
C2626 C 0.47055 0.53811 0.19185 0.0
C2627 C 0.48931 0.55252 0.18668 0.0
C2628 C 0.45714 0.52019 0.18144 0.0
C2629 C 0.43744 0.50404 0.18642 0.0
C2630 C 0.43705 0.49523 0.20094 0.0
C2631 C 0.41841 0.48009 0.2056 0.0
C2632 C 0.40008 0.47354 0.19577 0.0
C2633 C 0.40035 0.48208 0.18125 0.0
C2634 C 0.41894 0.49723 0.17654 0.0
C2635 C 0.51221 0.52454 0.12907 0.0
C2636 C 0.49936 0.52046 0.11465 0.0
C2637 C 0.50628 0.52773 0.14409 0.0
C2638 C 0.48749 0.52721 0.14507 0.0
C2639 C 0.47445 0.52281 0.13076 0.0
C2640 C 0.48032 0.51951 0.11571 0.0
C2641 C 0.48168 0.53162 0.161 0.0
C2642 C 0.46285 0.51723 0.16612 0.0
C2643 C 0.49494 0.54965 0.17136 0.0
C2644 C 0.51436 0.56614 0.16627 0.0
C2645 C 0.51425 0.57505 0.15189 0.0
C2646 C 0.53262 0.59046 0.14709 0.0
C2647 C 0.55119 0.59721 0.15664 0.0
C2648 C 0.55141 0.5886 0.17104 0.0
C2649 C 0.53309 0.57316 0.17588 0.0
H2650 H 0.56539 0.60915 0.15291 0.0
H2651 H 0.38567 0.46182 0.1994 0.0
H2652 H 0.91181 0.47418 0.7702 0.0
H2653 H 0.92757 0.48917 0.79794 0.0
H2654 H 0.8954 0.42943 0.81488 0.0
H2655 H 0.87917 0.41453 0.78741 0.0
H2656 H 0.89703 0.45769 0.83678 0.0
H2657 H 0.94459 0.44948 0.8049 0.0
H2658 H 0.96516 0.45482 0.78178 0.0
H2659 H 0.99692 0.51967 0.79484 0.0
H2660 H 0.97631 0.51471 0.81793 0.0
H2661 H 0.95966 0.46186 0.90538 0.0
H2662 H 0.94009 0.45466 0.87889 0.0
H2663 H 0.97771 0.51764 0.86988 0.0
H2664 H 0.9974 0.52495 0.8964 0.0
H2665 H 0.9732 0.49228 0.84419 0.0
H2666 H 0.92811 0.49926 0.87885 0.0
H2667 H 0.90836 0.49251 0.90261 0.0
H2668 H 0.87238 0.42895 0.88491 0.0
H2669 H 0.89206 0.43526 0.86114 0.0
C2670 C 0.9078 0.46434 0.77992 0.0
C2671 C 0.89453 0.44315 0.77661 0.0
C2672 C 0.91689 0.47289 0.79572 0.0
C2673 C 0.91293 0.46036 0.80842 0.0
C2674 C 0.89877 0.43938 0.80527 0.0
C2675 C 0.88966 0.43086 0.78954 0.0
C2676 C 0.92458 0.46859 0.82473 0.0
C2677 C 0.91368 0.46524 0.83842 0.0
C2678 C 0.94633 0.47875 0.82685 0.0
C2679 C 0.95874 0.48174 0.81301 0.0
C2680 C 0.95584 0.46489 0.80276 0.0
C2681 C 0.96752 0.46784 0.78968 0.0
C2682 C 0.98229 0.48758 0.78681 0.0
C2683 C 0.98544 0.5044 0.79705 0.0
C2684 C 0.97377 0.50152 0.81014 0.0
C2685 C 0.96363 0.47422 0.89784 0.0
C2686 C 0.98007 0.49397 0.90299 0.0
C2687 C 0.95241 0.4701 0.88271 0.0
C2688 C 0.95725 0.48569 0.87251 0.0
C2689 C 0.9737 0.5054 0.87758 0.0
C2690 C 0.98498 0.50953 0.89269 0.0
C2691 C 0.94566 0.48114 0.85627 0.0
C2692 C 0.95657 0.48514 0.84258 0.0
C2693 C 0.92393 0.47147 0.85419 0.0
C2694 C 0.91167 0.46772 0.86825 0.0
C2695 C 0.91604 0.48383 0.88005 0.0
C2696 C 0.90486 0.48008 0.89352 0.0
C2697 C 0.88918 0.46031 0.89529 0.0
C2698 C 0.88455 0.44426 0.88353 0.0
C2699 C 0.89568 0.44792 0.87004 0.0
H2700 H 0.88061 0.45741 0.90577 0.0
H2701 H 0.99132 0.48984 0.77668 0.0
H2702 H 0.61366 0.50188 0.79231 0.0
H2703 H 0.59896 0.50713 0.81622 0.0
H2704 H 0.54046 0.45405 0.79888 0.0
H2705 H 0.55465 0.44951 0.77438 0.0
H2706 H 0.53405 0.48232 0.81061 0.0
H2707 H 0.57505 0.45418 0.83022 0.0
H2708 H 0.60641 0.45187 0.8351 0.0
H2709 H 0.63726 0.51125 0.86197 0.0
H2710 H 0.60613 0.51398 0.85716 0.0
H2711 H 0.49002 0.46715 0.88584 0.0
H2712 H 0.50503 0.46306 0.86151 0.0
H2713 H 0.55961 0.52145 0.87572 0.0
H2714 H 0.54474 0.52557 0.9001 0.0
H2715 H 0.56816 0.49093 0.8659 0.0
H2716 H 0.52634 0.51827 0.84645 0.0
H2717 H 0.49439 0.5196 0.84207 0.0
H2718 H 0.46444 0.46024 0.81519 0.0
H2719 H 0.49615 0.45844 0.81961 0.0
C2720 C 0.59757 0.49148 0.79341 0.0
C2721 C 0.58539 0.47522 0.78134 0.0
C2722 C 0.58925 0.49433 0.80726 0.0
C2723 C 0.56868 0.48075 0.80957 0.0
C2724 C 0.55641 0.46467 0.79747 0.0
C2725 C 0.56463 0.46197 0.78351 0.0
C2726 C 0.55982 0.48343 0.82445 0.0
C2727 C 0.5414 0.4839 0.82269 0.0
C2728 C 0.56957 0.48598 0.84028 0.0
C2729 C 0.58832 0.48437 0.84318 0.0
C2730 C 0.58857 0.46681 0.83707 0.0
C2731 C 0.60629 0.46541 0.83986 0.0
C2732 C 0.62383 0.48142 0.84881 0.0
C2733 C 0.62367 0.49886 0.85503 0.0
C2734 C 0.60598 0.50033 0.8523 0.0
C2735 C 0.50524 0.47907 0.88379 0.0
C2736 C 0.51617 0.49672 0.89483 0.0
C2737 C 0.51375 0.47678 0.86986 0.0
C2738 C 0.53338 0.49203 0.86676 0.0
C2739 C 0.54442 0.50953 0.87786 0.0
C2740 C 0.53585 0.51193 0.89171 0.0
C2741 C 0.54243 0.48967 0.85197 0.0
C2742 C 0.56087 0.4893 0.85379 0.0
C2743 C 0.53263 0.48705 0.83621 0.0
C2744 C 0.51356 0.48813 0.8335 0.0
C2745 C 0.51289 0.50542 0.83972 0.0
C2746 C 0.49483 0.50628 0.83721 0.0
C2747 C 0.47738 0.48999 0.8284 0.0
C2748 C 0.47796 0.47284 0.82204 0.0
C2749 C 0.49598 0.4719 0.82453 0.0
H2750 H 0.46341 0.49068 0.82646 0.0
H2751 H 0.63754 0.48031 0.85096 0.0
H2752 H 0.576 0.13121 0.80195 0.0
H2753 H 0.56984 0.11397 0.82675 0.0
H2754 H 0.51352 0.0634 0.80266 0.0
H2755 H 0.51965 0.08049 0.77781 0.0
H2756 H 0.50719 0.07569 0.83148 0.0
H2757 H 0.55646 0.05931 0.81184 0.0
H2758 H 0.58942 0.06672 0.80193 0.0
H2759 H 0.62203 0.10371 0.84655 0.0
H2760 H 0.58927 0.09674 0.85665 0.0
H2761 H 0.48439 0.00594 0.8907 0.0
H2762 H 0.49313 0.02294 0.86591 0.0
H2763 H 0.54922 0.07215 0.8915 0.0
H2764 H 0.54093 0.05485 0.91627 0.0
H2765 H 0.55633 0.06137 0.86235 0.0
H2766 H 0.50759 0.07795 0.88213 0.0
H2767 H 0.4749 0.07111 0.89224 0.0
H2768 H 0.44164 0.03462 0.84759 0.0
H2769 H 0.47413 0.04101 0.83728 0.0
C2770 C 0.56253 0.11622 0.8018 0.0
C2771 C 0.54831 0.10727 0.78785 0.0
C2772 C 0.55898 0.10639 0.81604 0.0
C2773 C 0.54121 0.08733 0.81662 0.0
C2774 C 0.52728 0.07814 0.80258 0.0
C2775 C 0.53081 0.08794 0.78837 0.0
C2776 C 0.5366 0.07737 0.83201 0.0
C2777 C 0.51783 0.07229 0.83809 0.0
C2778 C 0.55071 0.07349 0.84097 0.0
C2779 C 0.57042 0.07766 0.83494 0.0
C2780 C 0.57067 0.06916 0.81949 0.0
C2781 C 0.58932 0.07326 0.81385 0.0
C2782 C 0.60781 0.08573 0.82359 0.0
C2783 C 0.60769 0.09408 0.83901 0.0
C2784 C 0.58909 0.09004 0.84471 0.0
C2785 C 0.49867 0.0203 0.89107 0.0
C2786 C 0.51193 0.02899 0.90556 0.0
C2787 C 0.50356 0.03013 0.87688 0.0
C2788 C 0.52174 0.04898 0.87682 0.0
C2789 C 0.53508 0.05766 0.89122 0.0
C2790 C 0.5302 0.04783 0.90544 0.0
C2791 C 0.52683 0.05952 0.86171 0.0
C2792 C 0.5457 0.06476 0.85572 0.0
C2793 C 0.51285 0.06364 0.85285 0.0
C2794 C 0.49328 0.0598 0.859 0.0
C2795 C 0.49329 0.06833 0.87451 0.0
C2796 C 0.4748 0.06456 0.88027 0.0
C2797 C 0.4562 0.0524 0.87058 0.0
C2798 C 0.45606 0.04402 0.85509 0.0
C2799 C 0.47451 0.04772 0.84928 0.0
H2800 H 0.4419 0.0495 0.87506 0.0
H2801 H 0.62223 0.08888 0.8192 0.0
H2802 H 0.12745 0.24053 0.57551 0.0
H2803 H 0.14051 0.25828 0.55153 0.0
H2804 H 0.07845 0.23712 0.53097 0.0
H2805 H 0.06524 0.21864 0.55459 0.0
H2806 H 0.1 0.23379 0.50827 0.0
H2807 H 0.11025 0.28676 0.54855 0.0
H2808 H 0.12264 0.30741 0.57513 0.0
H2809 H 0.18495 0.32605 0.56685 0.0
H2810 H 0.1729 0.30527 0.5403 0.0
H2811 H 0.12528 0.30201 0.44695 0.0
H2812 H 0.11195 0.28355 0.47059 0.0
H2813 H 0.17385 0.30397 0.49116 0.0
H2814 H 0.18729 0.32254 0.46758 0.0
H2815 H 0.15216 0.30762 0.51378 0.0
H2816 H 0.14128 0.25434 0.47307 0.0
H2817 H 0.12831 0.2341 0.44632 0.0
H2818 H 0.06642 0.21644 0.45526 0.0
H2819 H 0.07905 0.23679 0.482 0.0
C2820 C 0.11655 0.2395 0.56584 0.0
C2821 C 0.09527 0.22823 0.56709 0.0
C2822 C 0.12406 0.24984 0.55217 0.0
C2823 C 0.1105 0.24933 0.53949 0.0
C2824 C 0.08925 0.23787 0.5406 0.0
C2825 C 0.08172 0.22747 0.55423 0.0
C2826 C 0.11843 0.26067 0.52505 0.0
C2827 C 0.11122 0.24999 0.50948 0.0
C2828 C 0.13335 0.28175 0.52656 0.0
C2829 C 0.14065 0.29429 0.54251 0.0
C2830 C 0.12658 0.29513 0.55245 0.0
C2831 C 0.13354 0.30689 0.5675 0.0
C2832 C 0.15457 0.31799 0.57269 0.0
C2833 C 0.16867 0.31742 0.56282 0.0
C2834 C 0.16179 0.30567 0.54777 0.0
C2835 C 0.13607 0.30243 0.45643 0.0
C2836 C 0.15738 0.31373 0.45532 0.0
C2837 C 0.12841 0.29186 0.46997 0.0
C2838 C 0.14186 0.29212 0.48262 0.0
C2839 C 0.16314 0.30352 0.48159 0.0
C2840 C 0.17081 0.31419 0.4681 0.0
C2841 C 0.13381 0.28073 0.497 0.0
C2842 C 0.14098 0.29141 0.51257 0.0
C2843 C 0.11877 0.25967 0.49547 0.0
C2844 C 0.11113 0.24724 0.47948 0.0
C2845 C 0.12492 0.24624 0.46929 0.0
C2846 C 0.11763 0.23474 0.45414 0.0
C2847 C 0.09656 0.22404 0.44908 0.0
C2848 C 0.08274 0.22476 0.45919 0.0
C2849 C 0.08995 0.23625 0.47435 0.0
H2850 H 0.09095 0.21515 0.43733 0.0
H2851 H 0.15993 0.32709 0.58435 0.0
H2852 H 0.75507 0.85563 0.5914 0.0
H2853 H 0.73197 0.84855 0.56675 0.0
H2854 H 0.78326 0.8915 0.54299 0.0
H2855 H 0.80638 0.89849 0.56741 0.0
H2856 H 0.74959 0.89539 0.53672 0.0
H2857 H 0.76544 0.84075 0.53659 0.0
H2858 H 0.76691 0.81219 0.54813 0.0
H2859 H 0.70138 0.78008 0.54906 0.0
H2860 H 0.69957 0.80861 0.53773 0.0
H2861 H 0.71918 0.86786 0.4532 0.0
H2862 H 0.73586 0.87478 0.48079 0.0
H2863 H 0.67956 0.82761 0.49643 0.0
H2864 H 0.66294 0.82001 0.46864 0.0
H2865 H 0.7117 0.82506 0.50862 0.0
H2866 H 0.69521 0.87795 0.50604 0.0
H2867 H 0.69355 0.90642 0.49454 0.0
H2868 H 0.75949 0.94179 0.49889 0.0
H2869 H 0.76156 0.91342 0.51021 0.0
C2870 C 0.7614 0.86355 0.58092 0.0
C2871 C 0.78256 0.8776 0.58135 0.0
C2872 C 0.74819 0.85953 0.56687 0.0
C2873 C 0.75595 0.86939 0.55302 0.0
C2874 C 0.77695 0.8838 0.55358 0.0
C2875 C 0.79013 0.88782 0.56757 0.0
C2876 C 0.7425 0.86426 0.53766 0.0
C2877 C 0.74138 0.88005 0.53051 0.0
C2878 C 0.73133 0.84412 0.52983 0.0
C2879 C 0.7324 0.8269 0.5365 0.0
C2880 C 0.75137 0.82767 0.53938 0.0
C2881 C 0.75226 0.81148 0.54586 0.0
C2882 C 0.73426 0.79436 0.54938 0.0
C2883 C 0.71532 0.79337 0.54636 0.0
C2884 C 0.71435 0.80954 0.53991 0.0
C2885 C 0.71037 0.85882 0.46246 0.0
C2886 C 0.68972 0.84336 0.45871 0.0
C2887 C 0.71986 0.86297 0.47828 0.0
C2888 C 0.70886 0.85192 0.49073 0.0
C2889 C 0.68829 0.8364 0.48703 0.0
C2890 C 0.67878 0.83219 0.47117 0.0
C2891 C 0.71912 0.85629 0.50747 0.0
C2892 C 0.71964 0.84037 0.5149 0.0
C2893 C 0.72969 0.87631 0.51559 0.0
C2894 C 0.72853 0.89348 0.50887 0.0
C2895 C 0.70936 0.89174 0.50444 0.0
C2896 C 0.70835 0.90787 0.49797 0.0
C2897 C 0.7264 0.92589 0.49596 0.0
C2898 C 0.74551 0.92782 0.50045 0.0
C2899 C 0.74662 0.91173 0.50692 0.0
H2900 H 0.72558 0.93836 0.49094 0.0
H2901 H 0.73498 0.78185 0.5544 0.0
H2902 H 0.15525 0.89337 0.58127 0.0
H2903 H 0.16148 0.88281 0.55482 0.0
H2904 H 0.10618 0.87914 0.53295 0.0
H2905 H 0.09981 0.88968 0.55949 0.0
H2906 H 0.11217 0.84822 0.51978 0.0
H2907 H 0.15099 0.92118 0.53111 0.0
H2908 H 0.17484 0.95363 0.54767 0.0
H2909 H 0.22303 0.93903 0.54686 0.0
H2910 H 0.19936 0.90631 0.53052 0.0
H2911 H 0.1407 0.85326 0.43905 0.0
H2912 H 0.13015 0.86003 0.46487 0.0
H2913 H 0.18668 0.86972 0.48983 0.0
H2914 H 0.19776 0.86393 0.46403 0.0
H2915 H 0.17867 0.89789 0.50094 0.0
H2916 H 0.13983 0.82459 0.49025 0.0
H2917 H 0.11592 0.79178 0.47416 0.0
H2918 H 0.06795 0.80676 0.4738 0.0
H2919 H 0.09166 0.8398 0.48972 0.0
C2920 C 0.14427 0.89005 0.57086 0.0
C2921 C 0.12717 0.89257 0.57241 0.0
C2922 C 0.14786 0.88404 0.55576 0.0
C2923 C 0.13452 0.8806 0.54185 0.0
C2924 C 0.11671 0.88181 0.54351 0.0
C2925 C 0.11306 0.88776 0.55868 0.0
C2926 C 0.14003 0.87719 0.52554 0.0
C2927 C 0.12658 0.85918 0.51555 0.0
C2928 C 0.15897 0.89138 0.52011 0.0
C2929 C 0.17335 0.91121 0.5297 0.0
C2930 C 0.16664 0.92483 0.53455 0.0
C2931 C 0.18012 0.94328 0.54389 0.0
C2932 C 0.20042 0.94837 0.54835 0.0
C2933 C 0.20729 0.93506 0.54342 0.0
C2934 C 0.19385 0.91656 0.5341 0.0
C2935 C 0.15102 0.85706 0.45 0.0
C2936 C 0.17008 0.85796 0.44942 0.0
C2937 C 0.14483 0.86069 0.4648 0.0
C2938 C 0.15746 0.86507 0.47936 0.0
C2939 C 0.1766 0.86625 0.47879 0.0
C2940 C 0.18284 0.86274 0.46401 0.0
C2941 C 0.15097 0.86872 0.49521 0.0
C2942 C 0.16424 0.88689 0.50511 0.0
C2943 C 0.13188 0.85465 0.50053 0.0
C2944 C 0.11758 0.83475 0.49104 0.0
C2945 C 0.12422 0.82095 0.48664 0.0
C2946 C 0.1107 0.8023 0.47756 0.0
C2947 C 0.09045 0.79721 0.47292 0.0
C2948 C 0.08365 0.81073 0.47738 0.0
C2949 C 0.09712 0.82942 0.48645 0.0
H2950 H 0.08 0.78276 0.46589 0.0
H2951 H 0.21084 0.96266 0.55559 0.0
H2952 H 0.58615 0.77757 0.10108 0.0
H2953 H 0.6075 0.79221 0.12703 0.0
H2954 H 0.55625 0.79041 0.14893 0.0
H2955 H 0.53481 0.77588 0.12289 0.0
H2956 H 0.59329 0.82489 0.16049 0.0
H2957 H 0.56542 0.75208 0.15209 0.0
H2958 H 0.55848 0.72007 0.13676 0.0
H2959 H 0.62332 0.74258 0.13781 0.0
H2960 H 0.63065 0.77489 0.15292 0.0
H2961 H 0.62412 0.82325 0.24274 0.0
H2962 H 0.60579 0.81562 0.21566 0.0
H2963 H 0.65603 0.81383 0.19488 0.0
H2964 H 0.67412 0.82068 0.222 0.0
H2965 H 0.62022 0.78222 0.18238 0.0
H2966 H 0.64834 0.85455 0.19172 0.0
H2967 H 0.65547 0.88682 0.20671 0.0
H2968 H 0.59078 0.86565 0.20394 0.0
H2969 H 0.58324 0.83312 0.18912 0.0
C2970 C 0.57953 0.78056 0.11139 0.0
C2971 C 0.55878 0.77536 0.11007 0.0
C2972 C 0.59173 0.78892 0.12618 0.0
C2973 C 0.58332 0.792 0.13995 0.0
C2974 C 0.56299 0.78808 0.13843 0.0
C2975 C 0.55078 0.77981 0.12358 0.0
C2976 C 0.59519 0.79765 0.15614 0.0
C2977 C 0.59902 0.8155 0.16538 0.0
C2978 C 0.60297 0.78553 0.16234 0.0
C2979 C 0.59858 0.76597 0.1535 0.0
C2980 C 0.5782 0.75025 0.14896 0.0
C2981 C 0.5742 0.73205 0.14031 0.0
C2982 C 0.59045 0.72931 0.13628 0.0
C2983 C 0.61075 0.74474 0.14092 0.0
C2984 C 0.61483 0.76299 0.14953 0.0
C2985 C 0.6312 0.82107 0.23242 0.0
C2986 C 0.65058 0.82254 0.23453 0.0
C2987 C 0.62081 0.81696 0.21693 0.0
C2988 C 0.62966 0.81443 0.20323 0.0
C2989 C 0.64897 0.81584 0.20529 0.0
C2990 C 0.65935 0.8199 0.22078 0.0
C2991 C 0.61845 0.80956 0.18679 0.0
C2992 C 0.61464 0.79175 0.17751 0.0
C2993 C 0.61074 0.82174 0.18059 0.0
C2994 C 0.61522 0.84132 0.18944 0.0
C2995 C 0.63562 0.85671 0.19442 0.0
C2996 C 0.63974 0.87506 0.20286 0.0
C2997 C 0.62358 0.87826 0.20631 0.0
C2998 C 0.60328 0.86314 0.20128 0.0
C2999 C 0.59907 0.84475 0.19284 0.0
H3000 H 0.6268 0.89248 0.21285 0.0
H3001 H 0.58732 0.71521 0.12958 0.0
H3002 H 0.28832 0.83056 0.12967 0.0
H3003 H 0.2742 0.83712 0.15356 0.0
H3004 H 0.21277 0.79422 0.13177 0.0
H3005 H 0.22676 0.78794 0.10764 0.0
H3006 H 0.21522 0.82875 0.14628 0.0
H3007 H 0.23574 0.78041 0.16044 0.0
H3008 H 0.25978 0.76741 0.16389 0.0
H3009 H 0.29991 0.81942 0.19784 0.0
H3010 H 0.27623 0.83289 0.19441 0.0
H3011 H 0.16312 0.81383 0.21721 0.0
H3012 H 0.17736 0.80941 0.19261 0.0
H3013 H 0.23877 0.84957 0.21581 0.0
H3014 H 0.22463 0.854 0.24046 0.0
H3015 H 0.23659 0.8169 0.20045 0.0
H3016 H 0.21632 0.86527 0.18673 0.0
H3017 H 0.19269 0.87876 0.18328 0.0
H3018 H 0.15267 0.82755 0.14862 0.0
H3019 H 0.17593 0.8136 0.15203 0.0
C3020 C 0.27179 0.82272 0.12985 0.0
C3021 C 0.25866 0.8087 0.11675 0.0
C3022 C 0.26375 0.82635 0.14359 0.0
C3023 C 0.24243 0.81598 0.14454 0.0
C3024 C 0.22926 0.80234 0.13133 0.0
C3025 C 0.23729 0.79866 0.1176 0.0
C3026 C 0.2339 0.81909 0.15942 0.0
C3027 C 0.21969 0.82592 0.1581 0.0
C3028 C 0.2401 0.81587 0.17491 0.0
C3029 C 0.25431 0.80775 0.17704 0.0
C3030 C 0.24977 0.78915 0.16854 0.0
C3031 C 0.26332 0.78169 0.17051 0.0
C3032 C 0.28139 0.79261 0.18104 0.0
C3033 C 0.28592 0.81099 0.18967 0.0
C3034 C 0.27243 0.81854 0.18773 0.0
C3035 C 0.17966 0.8219 0.21702 0.0
C3036 C 0.19273 0.83431 0.23081 0.0
C3037 C 0.18778 0.81935 0.20294 0.0
C3038 C 0.20916 0.82934 0.20227 0.0
C3039 C 0.22224 0.84168 0.21603 0.0
C3040 C 0.21413 0.84416 0.23013 0.0
C3041 C 0.21789 0.82659 0.18735 0.0
C3042 C 0.23213 0.81979 0.18865 0.0
C3043 C 0.21177 0.82992 0.17186 0.0
C3044 C 0.19777 0.83829 0.16975 0.0
C3045 C 0.2024 0.8568 0.17846 0.0
C3046 C 0.18909 0.86455 0.1765 0.0
C3047 C 0.17116 0.85399 0.16577 0.0
C3048 C 0.16655 0.83569 0.15695 0.0
C3049 C 0.1798 0.82787 0.15888 0.0
H3050 H 0.16088 0.86001 0.16427 0.0
H3051 H 0.29185 0.7868 0.18255 0.0
H3052 H 0.2418 0.46476 0.13637 0.0
H3053 H 0.23485 0.44702 0.1609 0.0
H3054 H 0.1773 0.39853 0.13665 0.0
H3055 H 0.18427 0.41602 0.11198 0.0
H3056 H 0.17226 0.41183 0.16602 0.0
H3057 H 0.21795 0.39125 0.14502 0.0
H3058 H 0.24998 0.39657 0.13454 0.0
H3059 H 0.28463 0.43205 0.17917 0.0
H3060 H 0.25282 0.42717 0.18984 0.0
H3061 H 0.14575 0.3413 0.22483 0.0
H3062 H 0.15505 0.35826 0.20007 0.0
H3063 H 0.21335 0.40445 0.22503 0.0
H3064 H 0.20448 0.3871 0.24974 0.0
H3065 H 0.21865 0.39298 0.1956 0.0
H3066 H 0.17387 0.41413 0.21674 0.0
H3067 H 0.14234 0.40979 0.22754 0.0
H3068 H 0.10664 0.37467 0.18311 0.0
H3069 H 0.13794 0.37856 0.17211 0.0
C3070 C 0.22788 0.45009 0.1361 0.0
C3071 C 0.21359 0.44187 0.12214 0.0
C3072 C 0.22388 0.43999 0.1502 0.0
C3073 C 0.20554 0.42139 0.15066 0.0
C3074 C 0.19149 0.4129 0.13664 0.0
C3075 C 0.1955 0.42295 0.12254 0.0
C3076 C 0.20053 0.41125 0.16595 0.0
C3077 C 0.18226 0.40743 0.17235 0.0
C3078 C 0.21388 0.40611 0.17454 0.0
C3079 C 0.23302 0.40901 0.16816 0.0
C3080 C 0.23242 0.40033 0.15255 0.0
C3081 C 0.25053 0.40324 0.14659 0.0
C3082 C 0.26934 0.41469 0.15617 0.0
C3083 C 0.27006 0.42321 0.17175 0.0
C3084 C 0.25199 0.42036 0.17777 0.0
C3085 C 0.16064 0.35497 0.22507 0.0
C3086 C 0.17434 0.36279 0.23936 0.0
C3087 C 0.16586 0.3648 0.2109 0.0
C3088 C 0.18483 0.38282 0.21068 0.0
C3089 C 0.1986 0.39062 0.22488 0.0
C3090 C 0.1934 0.38077 0.23907 0.0
C3091 C 0.19027 0.39339 0.1956 0.0
C3092 C 0.20863 0.39736 0.18926 0.0
C3093 C 0.17708 0.39882 0.18711 0.0
C3094 C 0.15822 0.39647 0.19367 0.0
C3095 C 0.15927 0.40534 0.20932 0.0
C3096 C 0.14145 0.40299 0.21547 0.0
C3097 C 0.12249 0.39192 0.20603 0.0
C3098 C 0.12133 0.38322 0.19041 0.0
C3099 C 0.13911 0.38551 0.18421 0.0
H3100 H 0.10871 0.39012 0.21081 0.0
H3101 H 0.28335 0.41692 0.15153 0.0
H3102 H 0.76173 0.59133 0.90947 0.0
H3103 H 0.77454 0.60986 0.88576 0.0
H3104 H 0.78208 0.56087 0.86486 0.0
H3105 H 0.76924 0.54224 0.8885 0.0
H3106 H 0.8144 0.59694 0.86076 0.0
H3107 H 0.74117 0.5664 0.85177 0.0
H3108 H 0.70672 0.55843 0.85853 0.0
H3109 H 0.72572 0.62224 0.8622 0.0
H3110 H 0.7604 0.63062 0.85568 0.0
H3111 H 0.82412 0.62417 0.77989 0.0
H3112 H 0.81184 0.60619 0.80392 0.0
H3113 H 0.80592 0.65614 0.82494 0.0
H3114 H 0.81766 0.67399 0.80075 0.0
H3115 H 0.77291 0.61982 0.82905 0.0
H3116 H 0.84628 0.65009 0.83774 0.0
H3117 H 0.88051 0.65763 0.83074 0.0
H3118 H 0.86089 0.59368 0.82729 0.0
H3119 H 0.82642 0.58573 0.83406 0.0
C3120 C 0.76604 0.58446 0.89981 0.0
C3121 C 0.76438 0.56525 0.90091 0.0
C3122 C 0.77337 0.59508 0.88624 0.0
C3123 C 0.77904 0.58667 0.87338 0.0
C3124 C 0.77783 0.56771 0.87461 0.0
C3125 C 0.77055 0.5571 0.88819 0.0
C3126 C 0.78609 0.59753 0.85861 0.0
C3127 C 0.8052 0.6017 0.85372 0.0
C3128 C 0.77431 0.60415 0.84955 0.0
C3129 C 0.75344 0.59915 0.85339 0.0
C3130 C 0.73805 0.57875 0.85414 0.0
C3131 C 0.71848 0.57415 0.85791 0.0
C3132 C 0.71405 0.58982 0.86084 0.0
C3133 C 0.72918 0.61012 0.85995 0.0
C3134 C 0.74879 0.6148 0.85621 0.0
C3135 C 0.82004 0.63128 0.78955 0.0
C3136 C 0.82196 0.65059 0.78837 0.0
C3137 C 0.81319 0.62105 0.80337 0.0
C3138 C 0.80817 0.6299 0.81637 0.0
C3139 C 0.80977 0.64903 0.81513 0.0
C3140 C 0.81666 0.65929 0.80133 0.0
C3141 C 0.80122 0.61922 0.83122 0.0
C3142 C 0.78212 0.61507 0.83611 0.0
C3143 C 0.81297 0.61256 0.84025 0.0
C3144 C 0.83371 0.6173 0.83625 0.0
C3145 C 0.84921 0.63762 0.83537 0.0
C3146 C 0.86867 0.64197 0.83146 0.0
C3147 C 0.87286 0.62614 0.82853 0.0
C3148 C 0.85761 0.60593 0.82954 0.0
C3149 C 0.83812 0.60149 0.83343 0.0
H3150 H 0.88793 0.62954 0.82551 0.0
H3151 H 0.69889 0.58624 0.86376 0.0
H3152 H 0.4596 0.23408 0.91253 0.0
H3153 H 0.44249 0.22997 0.88538 0.0
H3154 H 0.39392 0.17033 0.89408 0.0
H3155 H 0.41093 0.17436 0.92119 0.0
H3156 H 0.40727 0.16908 0.86528 0.0
H3157 H 0.38642 0.21131 0.89418 0.0
H3158 H 0.39163 0.24133 0.91158 0.0
H3159 H 0.42755 0.28089 0.87702 0.0
H3160 H 0.4228 0.25112 0.8595 0.0
H3161 H 0.33591 0.15114 0.79816 0.0
H3162 H 0.35257 0.15752 0.82578 0.0
H3163 H 0.40146 0.21576 0.81483 0.0
H3164 H 0.38461 0.20971 0.78727 0.0
H3165 H 0.38853 0.21837 0.84453 0.0
H3166 H 0.40923 0.17606 0.81566 0.0
H3167 H 0.40402 0.14601 0.79831 0.0
H3168 H 0.3683 0.10655 0.833 0.0
H3169 H 0.37305 0.13636 0.85047 0.0
C3170 C 0.44512 0.22023 0.90873 0.0
C3171 C 0.43662 0.20453 0.91897 0.0
C3172 C 0.43538 0.21788 0.89322 0.0
C3173 C 0.41686 0.19988 0.88774 0.0
C3174 C 0.40823 0.18431 0.89803 0.0
C3175 C 0.41798 0.18661 0.9135 0.0
C3176 C 0.4068 0.19691 0.87108 0.0
C3177 C 0.40291 0.17971 0.86083 0.0
C3178 C 0.40163 0.21107 0.86513 0.0
C3179 C 0.40442 0.229 0.87561 0.0
C3180 C 0.39557 0.22642 0.89035 0.0
C3181 C 0.39842 0.24339 0.90022 0.0
C3182 C 0.40996 0.26301 0.89543 0.0
C3183 C 0.41864 0.26569 0.88073 0.0
C3184 C 0.41586 0.24877 0.87081 0.0
C3185 C 0.3501 0.1654 0.80167 0.0
C3186 C 0.35898 0.1799 0.79052 0.0
C3187 C 0.35968 0.16895 0.81741 0.0
C3188 C 0.37836 0.18702 0.82229 0.0
C3189 C 0.38709 0.20169 0.81129 0.0
C3190 C 0.37754 0.19813 0.79552 0.0
C3191 C 0.38886 0.19047 0.83883 0.0
C3192 C 0.39289 0.20775 0.84902 0.0
C3193 C 0.39416 0.17638 0.84475 0.0
C3194 C 0.39133 0.15843 0.8343 0.0
C3195 C 0.40012 0.16096 0.81953 0.0
C3196 C 0.39728 0.14397 0.80968 0.0
C3197 C 0.3858 0.12438 0.81453 0.0
C3198 C 0.37717 0.12173 0.82926 0.0
C3199 C 0.37995 0.13867 0.83914 0.0
H3200 H 0.38362 0.11124 0.80689 0.0
H3201 H 0.41215 0.27613 0.9031 0.0
H3202 H 0.77141 0.20177 0.90505 0.0
H3203 H 0.77536 0.1878 0.87895 0.0
H3204 H 0.81287 0.24897 0.86585 0.0
H3205 H 0.8084 0.26289 0.89147 0.0
H3206 H 0.78698 0.22526 0.8407 0.0
H3207 H 0.83391 0.22067 0.88029 0.0
H3208 H 0.84354 0.20979 0.90518 0.0
H3209 H 0.80321 0.14688 0.88707 0.0
H3210 H 0.79313 0.15742 0.86215 0.0
H3211 H 0.84456 0.21484 0.78075 0.0
H3212 H 0.83245 0.22294 0.80518 0.0
H3213 H 0.79626 0.15874 0.81102 0.0
H3214 H 0.80828 0.1505 0.78648 0.0
H3215 H 0.81733 0.18029 0.83922 0.0
H3216 H 0.77097 0.18508 0.79923 0.0
H3217 H 0.76078 0.19639 0.77479 0.0
H3218 H 0.80112 0.25906 0.7934 0.0
H3219 H 0.81111 0.24816 0.81815 0.0
C3220 C 0.78033 0.21219 0.89652 0.0
C3221 C 0.78984 0.23345 0.90045 0.0
C3222 C 0.78271 0.20421 0.88167 0.0
C3223 C 0.79466 0.21734 0.8705 0.0
C3224 C 0.80366 0.23851 0.87426 0.0
C3225 C 0.80127 0.24647 0.88902 0.0
C3226 C 0.7982 0.2093 0.85499 0.0
C3227 C 0.79372 0.21551 0.84041 0.0
C3228 C 0.80653 0.19617 0.85449 0.0
C3229 C 0.81258 0.18983 0.86945 0.0
C3230 C 0.82696 0.20452 0.88168 0.0
C3231 C 0.83253 0.19842 0.89578 0.0
C3232 C 0.82394 0.17766 0.89773 0.0
C3233 C 0.80981 0.16296 0.88556 0.0
C3234 C 0.80418 0.16898 0.87144 0.0
C3235 C 0.83388 0.20242 0.78714 0.0
C3236 C 0.82743 0.18202 0.78167 0.0
C3237 C 0.82689 0.20707 0.80108 0.0
C3238 C 0.8132 0.19143 0.80983 0.0
C3239 C 0.80679 0.17105 0.80446 0.0
C3240 C 0.81379 0.16638 0.7905 0.0
C3241 C 0.8064 0.19652 0.82499 0.0
C3242 C 0.8103 0.18978 0.83949 0.0
C3243 C 0.7976 0.20922 0.82544 0.0
C3244 C 0.79189 0.21581 0.81047 0.0
C3245 C 0.77774 0.20127 0.79806 0.0
C3246 C 0.77196 0.2076 0.78419 0.0
C3247 C 0.78047 0.22841 0.78247 0.0
C3248 C 0.79459 0.24295 0.79472 0.0
C3249 C 0.8002 0.23671 0.80873 0.0
H3250 H 0.77604 0.23325 0.77168 0.0
H3251 H 0.82827 0.17296 0.90866 0.0
H3252 H 0.2553 0.11382 0.43232 0.0
H3253 H 0.27753 0.12847 0.45791 0.0
H3254 H 0.22667 0.12487 0.48169 0.0
H3255 H 0.20443 0.11041 0.45608 0.0
H3256 H 0.26249 0.15908 0.49336 0.0
H3257 H 0.23787 0.08714 0.48297 0.0
H3258 H 0.23203 0.05603 0.46682 0.0
H3259 H 0.2972 0.08135 0.46673 0.0
H3260 H 0.30341 0.11277 0.48266 0.0
H3261 H 0.29352 0.15442 0.57449 0.0
H3262 H 0.2754 0.14724 0.54739 0.0
H3263 H 0.32776 0.15038 0.52641 0.0
H3264 H 0.34562 0.15674 0.55359 0.0
H3265 H 0.29283 0.11813 0.51274 0.0
H3266 H 0.31716 0.18974 0.52482 0.0
H3267 H 0.32212 0.22006 0.54166 0.0
H3268 H 0.25673 0.19453 0.53951 0.0
H3269 H 0.25136 0.16396 0.52276 0.0
C3270 C 0.24896 0.11644 0.44297 0.0
C3271 C 0.2281 0.11079 0.44227 0.0
C3272 C 0.26165 0.12479 0.45756 0.0
C3273 C 0.25364 0.12738 0.47177 0.0
C3274 C 0.23315 0.12296 0.47087 0.0
C3275 C 0.22047 0.11473 0.45624 0.0
C3276 C 0.26605 0.13299 0.48775 0.0
C3277 C 0.26902 0.15007 0.49765 0.0
C3278 C 0.27479 0.12137 0.49326 0.0
C3279 C 0.2711 0.10238 0.48385 0.0
C3280 C 0.25095 0.08613 0.47941 0.0
C3281 C 0.24757 0.06844 0.4703 0.0
C3282 C 0.26423 0.06673 0.46571 0.0
C3283 C 0.28431 0.0827 0.47027 0.0
C3284 C 0.28777 0.10045 0.47934 0.0
C3285 C 0.30108 0.15338 0.56412 0.0
C3286 C 0.32098 0.15613 0.56621 0.0
C3287 C 0.29083 0.14955 0.54861 0.0
C3288 C 0.30036 0.1486 0.53484 0.0
C3289 C 0.32017 0.15119 0.53687 0.0
C3290 C 0.33041 0.15496 0.5524 0.0
C3291 C 0.28937 0.14428 0.51837 0.0
C3292 C 0.28654 0.12732 0.50839 0.0
C3293 C 0.28068 0.15595 0.51286 0.0
C3294 C 0.28386 0.17451 0.52262 0.0
C3295 C 0.30384 0.19056 0.52799 0.0
C3296 C 0.30672 0.2078 0.5375 0.0
C3297 C 0.28975 0.2092 0.54167 0.0
C3298 C 0.26986 0.19342 0.53626 0.0
C3299 C 0.26689 0.17616 0.52673 0.0
H3300 H 0.29202 0.22253 0.54907 0.0
H3301 H 0.26159 0.05303 0.45866 0.0
H3302 H 0.89068 0.11892 0.4447 0.0
H3303 H 0.87761 0.12535 0.46928 0.0
H3304 H 0.93944 0.16979 0.48926 0.0
H3305 H 0.95268 0.16293 0.46496 0.0
H3306 H 0.9187 0.14606 0.51184 0.0
H3307 H 0.90661 0.18468 0.47342 0.0
H3308 H 0.89359 0.19044 0.44743 0.0
H3309 H 0.83179 0.14667 0.45551 0.0
H3310 H 0.84447 0.14044 0.48147 0.0
H3311 H 0.89165 0.19203 0.57557 0.0
H3312 H 0.9053 0.18609 0.55116 0.0
H3313 H 0.8439 0.14112 0.53063 0.0
H3314 H 0.83014 0.14699 0.555 0.0
H3315 H 0.8649 0.16565 0.50846 0.0
H3316 H 0.87741 0.12662 0.54674 0.0
H3317 H 0.89058 0.12178 0.57305 0.0
H3318 H 0.95191 0.16744 0.56556 0.0
H3319 H 0.93907 0.17261 0.53918 0.0
C3320 C 0.90152 0.12995 0.45437 0.0
C3321 C 0.92273 0.14049 0.4528 0.0
C3322 C 0.89401 0.13375 0.46837 0.0
C3323 C 0.90752 0.14825 0.48106 0.0
C3324 C 0.92871 0.15859 0.47962 0.0
C3325 C 0.93623 0.1548 0.46564 0.0
C3326 C 0.89956 0.15263 0.49584 0.0
C3327 C 0.90712 0.15059 0.5111 0.0
C3328 C 0.8842 0.15822 0.49491 0.0
C3329 C 0.87652 0.16194 0.47931 0.0
C3330 C 0.89026 0.17616 0.46959 0.0
C3331 C 0.88294 0.17953 0.45488 0.0
C3332 C 0.86188 0.16889 0.4498 0.0
C3333 C 0.8481 0.15488 0.45945 0.0
C3334 C 0.85534 0.15143 0.47417 0.0
C3335 C 0.88105 0.18078 0.56591 0.0
C3336 C 0.85979 0.16995 0.56727 0.0
C3337 C 0.88888 0.1774 0.55195 0.0
C3338 C 0.87565 0.16297 0.53913 0.0
C3339 C 0.85441 0.15234 0.54035 0.0
C3340 C 0.84656 0.15577 0.55428 0.0
C3341 C 0.88392 0.15894 0.52442 0.0
C3342 C 0.87646 0.16109 0.50918 0.0
C3343 C 0.8994 0.15352 0.52538 0.0
C3344 C 0.90725 0.15011 0.54105 0.0
C3345 C 0.89369 0.13569 0.55073 0.0
C3346 C 0.9011 0.13288 0.56566 0.0
C3347 C 0.92206 0.14436 0.57102 0.0
C3348 C 0.93568 0.15857 0.5614 0.0
C3349 C 0.92835 0.16141 0.54644 0.0
H3350 H 0.92777 0.1422 0.5826 0.0
H3351 H 0.85624 0.17153 0.43841 0.0
H3352 H 0.89792 0.75814 0.4485 0.0
H3353 H 0.89325 0.74174 0.47381 0.0
H3354 H 0.86292 0.77348 0.4913 0.0
H3355 H 0.86772 0.79 0.46625 0.0
H3356 H 0.88964 0.77353 0.51511 0.0
H3357 H 0.83519 0.72444 0.47526 0.0
H3358 H 0.82098 0.70268 0.44922 0.0
H3359 H 0.85381 0.67159 0.46125 0.0
H3360 H 0.86844 0.69337 0.48728 0.0
H3361 H 0.83484 0.71529 0.57711 0.0
H3362 H 0.84505 0.73282 0.55263 0.0
H3363 H 0.86985 0.69472 0.53775 0.0
H3364 H 0.85962 0.67707 0.5622 0.0
H3365 H 0.84868 0.69795 0.51268 0.0
H3366 H 0.9011 0.74499 0.5535 0.0
H3367 H 0.91512 0.76639 0.5797 0.0
H3368 H 0.88713 0.80146 0.56606 0.0
H3369 H 0.87258 0.78001 0.5399 0.0
C3370 C 0.89044 0.76174 0.45782 0.0
C3371 C 0.88298 0.77518 0.45528 0.0
C3372 C 0.88768 0.75229 0.47224 0.0
C3373 C 0.87753 0.75621 0.48442 0.0
C3374 C 0.87073 0.77016 0.4821 0.0
C3375 C 0.87334 0.77946 0.4677 0.0
C3376 C 0.87334 0.7454 0.49938 0.0
C3377 C 0.88057 0.75701 0.51459 0.0
C3378 C 0.86192 0.72382 0.49874 0.0
C3379 C 0.85309 0.71069 0.48312 0.0
C3380 C 0.83951 0.71307 0.47229 0.0
C3381 C 0.83136 0.70072 0.45754 0.0
C3382 C 0.83654 0.6858 0.45356 0.0
C3383 C 0.84984 0.68317 0.46434 0.0
C3384 C 0.85806 0.69551 0.47909 0.0
C3385 C 0.84264 0.71075 0.56872 0.0
C3386 C 0.84643 0.69477 0.57168 0.0
C3387 C 0.84848 0.72081 0.5547 0.0
C3388 C 0.85849 0.71531 0.54339 0.0
C3389 C 0.86216 0.69927 0.54625 0.0
C3390 C 0.85623 0.68914 0.56023 0.0
C3391 C 0.8648 0.72607 0.52847 0.0
C3392 C 0.85795 0.71446 0.51325 0.0
C3393 C 0.87666 0.74765 0.52912 0.0
C3394 C 0.88559 0.76076 0.54478 0.0
C3395 C 0.8978 0.75717 0.55613 0.0
C3396 C 0.90585 0.76931 0.57098 0.0
C3397 C 0.90199 0.78525 0.57456 0.0
C3398 C 0.89009 0.7891 0.56328 0.0
C3399 C 0.88194 0.77695 0.54844 0.0
H3400 H 0.90823 0.79464 0.58606 0.0
H3401 H 0.83021 0.67624 0.44214 0.0
loop_
_geom_bond_atom_site_label_1
_geom_bond_atom_site_label_2
_geom_bond_distance
_geom_bond_site_symmetry_2
_ccdc_geom_bond_type
H0 C1 0.949 . S
C1 H0 0.949 . S
C1 C2 1.395 . S
C1 C3 1.391 . S
C2 C1 1.395 . S
C2 C5 1.390 . S
C3 C1 1.391 . S
C3 C7 1.387 . S
C3 C8 1.491 . S
H4 C5 0.950 . S
C5 C2 1.390 . S
C5 H4 0.950 . S
C5 C6 1.378 . S
C6 C5 1.378 . S
C6 C7 1.409 . S
C7 C3 1.387 . S
C7 C6 1.409 . S
C7 H9 0.951 . S
C8 C3 1.491 . S
C8 C10 1.382 . S
C8 C12 1.404 . S
H9 C7 0.951 . S
C10 C8 1.382 . S
C10 C11 1.390 . S
C10 H15 0.949 . S
C11 C10 1.390 . S
C11 C16 1.399 . S
C12 C8 1.404 . S
C12 H13 0.950 . S
C12 C14 1.375 . S
H13 C12 0.950 . S
C14 C12 1.375 . S
C14 C16 1.382 . S
C14 H18 0.950 . S
H15 C10 0.949 . S
C16 C11 1.399 . S
C16 C14 1.382 . S
C16 H17 0.952 . S
H17 C16 0.952 . S
H18 C14 0.950 . S
H19 C20 0.949 . S
C20 H19 0.949 . S
C20 C21 1.395 . S
C20 C22 1.391 . S
C21 C20 1.395 . S
C21 C24 1.390 . S
C22 C20 1.391 . S
C22 C26 1.387 . S
C22 C27 1.491 . S
H23 C24 0.950 . S
C24 C21 1.390 . S
C24 H23 0.950 . S
C24 C25 1.378 . S
C25 C24 1.378 . S
C25 C26 1.409 . S
C26 C22 1.387 . S
C26 C25 1.409 . S
C26 H28 0.951 . S
C27 C22 1.491 . S
C27 C29 1.382 . S
C27 C31 1.404 . S
H28 C26 0.951 . S
C29 C27 1.382 . S
C29 C30 1.390 . S
C29 H34 0.949 . S
C30 C29 1.390 . S
C30 C35 1.399 . S
C31 C27 1.404 . S
C31 H32 0.950 . S
C31 C33 1.375 . S
H32 C31 0.950 . S
C33 C31 1.375 . S
C33 C35 1.382 . S
C33 H37 0.950 . S
H34 C29 0.949 . S
C35 C30 1.399 . S
C35 C33 1.382 . S
C35 H36 0.952 . S
H36 C35 0.952 . S
H37 C33 0.950 . S
H38 C39 0.949 . S
C39 H38 0.949 . S
C39 C40 1.395 . S
C39 C41 1.391 . S
C40 C39 1.395 . S
C40 C43 1.390 . S
C41 C39 1.391 . S
C41 C45 1.387 . S
C41 C46 1.491 . S
H42 C43 0.950 . S
C43 C40 1.390 . S
C43 H42 0.950 . S
C43 C44 1.378 . S
C44 C43 1.378 . S
C44 C45 1.409 . S
C45 C41 1.387 . S
C45 C44 1.409 . S
C45 H47 0.951 . S
C46 C41 1.491 . S
C46 C48 1.382 . S
C46 C50 1.404 . S
H47 C45 0.951 . S
C48 C46 1.382 . S
C48 C49 1.390 . S
C48 H53 0.949 . S
C49 C48 1.390 . S
C49 C54 1.399 . S
C50 C46 1.404 . S
C50 H51 0.950 . S
C50 C52 1.375 . S
H51 C50 0.950 . S
C52 C50 1.375 . S
C52 C54 1.382 . S
C52 H56 0.950 . S
H53 C48 0.949 . S
C54 C49 1.399 . S
C54 C52 1.382 . S
C54 H55 0.952 . S
H55 C54 0.952 . S
H56 C52 0.950 . S
H57 C58 0.949 . S
C58 H57 0.949 . S
C58 C59 1.395 . S
C58 C60 1.391 . S
C59 C58 1.395 . S
C59 C62 1.390 . S
C60 C58 1.391 . S
C60 C64 1.387 . S
C60 C65 1.491 . S
H61 C62 0.950 . S
C62 C59 1.390 . S
C62 H61 0.950 . S
C62 C63 1.378 . S
C63 C62 1.378 . S
C63 C64 1.409 . S
C64 C60 1.387 . S
C64 C63 1.409 . S
C64 H66 0.951 . S
C65 C60 1.491 . S
C65 C67 1.382 . S
C65 C69 1.404 . S
H66 C64 0.951 . S
C67 C65 1.382 . S
C67 C68 1.390 . S
C67 H72 0.949 . S
C68 C67 1.390 . S
C68 C73 1.399 . S
C69 C65 1.404 . S
C69 H70 0.950 . S
C69 C71 1.375 . S
H70 C69 0.950 . S
C71 C69 1.375 . S
C71 C73 1.382 . S
C71 H75 0.950 . S
H72 C67 0.949 . S
C73 C68 1.399 . S
C73 C71 1.382 . S
C73 H74 0.952 . S
H74 C73 0.952 . S
H75 C71 0.950 . S
H76 C77 0.949 . S
C77 H76 0.949 . S
C77 C78 1.395 . S
C77 C79 1.391 . S
C78 C77 1.395 . S
C78 C81 1.390 . S
C79 C77 1.391 . S
C79 C83 1.387 . S
C79 C84 1.491 . S
H80 C81 0.950 . S
C81 C78 1.390 . S
C81 H80 0.950 . S
C81 C82 1.378 . S
C82 C81 1.378 . S
C82 C83 1.409 . S
C83 C79 1.387 . S
C83 C82 1.409 . S
C83 H85 0.951 . S
C84 C79 1.491 . S
C84 C86 1.382 . S
C84 C88 1.404 . S
H85 C83 0.951 . S
C86 C84 1.382 . S
C86 C87 1.390 . S
C86 H91 0.949 . S
C87 C86 1.390 . S
C87 C92 1.399 . S
C88 C84 1.404 . S
C88 H89 0.950 . S
C88 C90 1.375 . S
H89 C88 0.950 . S
C90 C88 1.375 . S
C90 C92 1.382 . S
C90 H94 0.950 . S
H91 C86 0.949 . S
C92 C87 1.399 . S
C92 C90 1.382 . S
C92 H93 0.952 . S
H93 C92 0.952 . S
H94 C90 0.950 . S
H95 C96 0.949 . S
C96 H95 0.949 . S
C96 C97 1.395 . S
C96 C98 1.391 . S
C97 C96 1.395 . S
C97 C100 1.390 . S
C98 C96 1.391 . S
C98 C102 1.387 . S
C98 C103 1.491 . S
H99 C100 0.950 . S
C100 C97 1.390 . S
C100 H99 0.950 . S
C100 C101 1.378 . S
C101 C100 1.378 . S
C101 C102 1.409 . S
C102 C98 1.387 . S
C102 C101 1.409 . S
C102 H104 0.951 . S
C103 C98 1.491 . S
C103 C105 1.382 . S
C103 C107 1.404 . S
H104 C102 0.951 . S
C105 C103 1.382 . S
C105 C106 1.390 . S
C105 H110 0.949 . S
C106 C105 1.390 . S
C106 C111 1.399 . S
C107 C103 1.404 . S
C107 H108 0.950 . S
C107 C109 1.375 . S
H108 C107 0.950 . S
C109 C107 1.375 . S
C109 C111 1.382 . S
C109 H113 0.950 . S
H110 C105 0.949 . S
C111 C106 1.399 . S
C111 C109 1.382 . S
C111 H112 0.952 . S
H112 C111 0.952 . S
H113 C109 0.950 . S
H114 C115 0.949 . S
C115 H114 0.949 . S
C115 C116 1.395 . S
C115 C117 1.391 . S
C116 C115 1.395 . S
C116 C119 1.390 . S
C117 C115 1.391 . S
C117 C121 1.387 . S
C117 C122 1.491 . S
H118 C119 0.950 . S
C119 C116 1.390 . S
C119 H118 0.950 . S
C119 C120 1.378 . S
C120 C119 1.378 . S
C120 C121 1.409 . S
C121 C117 1.387 . S
C121 C120 1.409 . S
C121 H123 0.951 . S
C122 C117 1.491 . S
C122 C124 1.382 . S
C122 C126 1.404 . S
H123 C121 0.951 . S
C124 C122 1.382 . S
C124 C125 1.390 . S
C124 H129 0.949 . S
C125 C124 1.390 . S
C125 C130 1.399 . S
C126 C122 1.404 . S
C126 H127 0.950 . S
C126 C128 1.375 . S
H127 C126 0.950 . S
C128 C126 1.375 . S
C128 C130 1.382 . S
C128 H132 0.950 . S
H129 C124 0.949 . S
C130 C125 1.399 . S
C130 C128 1.382 . S
C130 H131 0.952 . S
H131 C130 0.952 . S
H132 C128 0.950 . S
H133 C134 0.949 . S
C134 H133 0.949 . S
C134 C135 1.395 . S
C134 C136 1.391 . S
C135 C134 1.395 . S
C135 C138 1.390 . S
C136 C134 1.391 . S
C136 C140 1.387 . S
C136 C141 1.491 . S
H137 C138 0.950 . S
C138 C135 1.390 . S
C138 H137 0.950 . S
C138 C139 1.378 . S
C139 C138 1.378 . S
C139 C140 1.409 . S
C140 C136 1.387 . S
C140 C139 1.409 . S
C140 H142 0.951 . S
C141 C136 1.491 . S
C141 C143 1.382 . S
C141 C145 1.404 . S
H142 C140 0.951 . S
C143 C141 1.382 . S
C143 C144 1.390 . S
C143 H148 0.949 . S
C144 C143 1.390 . S
C144 C149 1.399 . S
C145 C141 1.404 . S
C145 H146 0.950 . S
C145 C147 1.375 . S
H146 C145 0.950 . S
C147 C145 1.375 . S
C147 C149 1.382 . S
C147 H151 0.950 . S
H148 C143 0.949 . S
C149 C144 1.399 . S
C149 C147 1.382 . S
C149 H150 0.952 . S
H150 C149 0.952 . S
H151 C147 0.950 . S
H152 C153 0.949 . S
C153 H152 0.949 . S
C153 C154 1.395 . S
C153 C155 1.391 . S
C154 C153 1.395 . S
C154 C157 1.390 . S
C155 C153 1.391 . S
C155 C159 1.387 . S
C155 C160 1.491 . S
H156 C157 0.950 . S
C157 C154 1.390 . S
C157 H156 0.950 . S
C157 C158 1.378 . S
C158 C157 1.378 . S
C158 C159 1.409 . S
C159 C155 1.387 . S
C159 C158 1.409 . S
C159 H161 0.951 . S
C160 C155 1.491 . S
C160 C162 1.382 . S
C160 C164 1.404 . S
H161 C159 0.951 . S
C162 C160 1.382 . S
C162 C163 1.390 . S
C162 H167 0.949 . S
C163 C162 1.390 . S
C163 C168 1.399 . S
C164 C160 1.404 . S
C164 H165 0.950 . S
C164 C166 1.375 . S
H165 C164 0.950 . S
C166 C164 1.375 . S
C166 C168 1.382 . S
C166 H170 0.950 . S
H167 C162 0.949 . S
C168 C163 1.399 . S
C168 C166 1.382 . S
C168 H169 0.952 . S
H169 C168 0.952 . S
H170 C166 0.950 . S
H171 C172 0.949 . S
C172 H171 0.949 . S
C172 C173 1.395 . S
C172 C174 1.391 . S
C173 C172 1.395 . S
C173 C176 1.390 . S
C174 C172 1.391 . S
C174 C178 1.387 . S
C174 C179 1.491 . S
H175 C176 0.950 . S
C176 C173 1.390 . S
C176 H175 0.950 . S
C176 C177 1.378 . S
C177 C176 1.378 . S
C177 C178 1.409 . S
C178 C174 1.387 . S
C178 C177 1.409 . S
C178 H180 0.951 . S
C179 C174 1.491 . S
C179 C181 1.382 . S
C179 C183 1.404 . S
H180 C178 0.951 . S
C181 C179 1.382 . S
C181 C182 1.390 . S
C181 H186 0.949 . S
C182 C181 1.390 . S
C182 C187 1.399 . S
C183 C179 1.404 . S
C183 H184 0.950 . S
C183 C185 1.375 . S
H184 C183 0.950 . S
C185 C183 1.375 . S
C185 C187 1.382 . S
C185 H189 0.950 . S
H186 C181 0.949 . S
C187 C182 1.399 . S
C187 C185 1.382 . S
C187 H188 0.952 . S
H188 C187 0.952 . S
H189 C185 0.950 . S
H190 C191 0.949 . S
C191 H190 0.949 . S
C191 C192 1.395 . S
C191 C193 1.391 . S
C192 C191 1.395 . S
C192 C195 1.390 . S
C193 C191 1.391 . S
C193 C197 1.387 . S
C193 C198 1.491 . S
H194 C195 0.950 . S
C195 C192 1.390 . S
C195 H194 0.950 . S
C195 C196 1.378 . S
C196 C195 1.378 . S
C196 C197 1.409 . S
C197 C193 1.387 . S
C197 C196 1.409 . S
C197 H199 0.951 1_556 S
C198 C193 1.491 . S
C198 C200 1.382 . S
C198 C202 1.404 1_556 S
H199 C197 0.951 1_554 S
C200 C198 1.382 . S
C200 C201 1.390 1_556 S
C200 H205 0.949 . S
C201 C200 1.390 1_554 S
C201 C206 1.399 . S
C202 C198 1.404 1_554 S
C202 H203 0.950 . S
C202 C204 1.375 . S
H203 C202 0.950 . S
C204 C202 1.375 . S
C204 C206 1.382 . S
C204 H208 0.950 . S
H205 C200 0.949 . S
C206 C201 1.399 . S
C206 C204 1.382 . S
C206 H207 0.952 . S
H207 C206 0.952 . S
H208 C204 0.950 . S
H209 C210 0.949 . S
C210 H209 0.949 . S
C210 C211 1.395 . S
C210 C212 1.391 . S
C211 C210 1.395 . S
C211 C214 1.390 . S
C212 C210 1.391 . S
C212 C216 1.387 . S
C212 C217 1.491 . S
H213 C214 0.950 . S
C214 C211 1.390 . S
C214 H213 0.950 . S
C214 C215 1.378 . S
C215 C214 1.378 . S
C215 C216 1.409 . S
C216 C212 1.387 . S
C216 C215 1.409 . S
C216 H218 0.951 . S
C217 C212 1.491 . S
C217 C219 1.382 . S
C217 C221 1.404 . S
H218 C216 0.951 . S
C219 C217 1.382 . S
C219 C220 1.390 . S
C219 H224 0.949 . S
C220 C219 1.390 . S
C220 C225 1.399 . S
C221 C217 1.404 . S
C221 H222 0.950 . S
C221 C223 1.375 . S
H222 C221 0.950 . S
C223 C221 1.375 . S
C223 C225 1.382 . S
C223 H227 0.950 . S
H224 C219 0.949 . S
C225 C220 1.399 . S
C225 C223 1.382 . S
C225 H226 0.952 . S
H226 C225 0.952 . S
H227 C223 0.950 . S
H228 C229 0.949 . S
C229 H228 0.949 . S
C229 C230 1.395 . S
C229 C231 1.391 . S
C230 C229 1.395 . S
C230 C233 1.390 . S
C231 C229 1.391 . S
C231 C235 1.387 . S
C231 C236 1.491 . S
H232 C233 0.950 . S
C233 C230 1.390 . S
C233 H232 0.950 . S
C233 C234 1.378 . S
C234 C233 1.378 . S
C234 C235 1.409 . S
C235 C231 1.387 . S
C235 C234 1.409 . S
C235 H237 0.951 . S
C236 C231 1.491 . S
C236 C238 1.382 . S
C236 C240 1.404 . S
H237 C235 0.951 . S
C238 C236 1.382 . S
C238 C239 1.390 . S
C238 H243 0.949 . S
C239 C238 1.390 . S
C239 C244 1.399 . S
C240 C236 1.404 . S
C240 H241 0.950 . S
C240 C242 1.375 . S
H241 C240 0.950 . S
C242 C240 1.375 . S
C242 C244 1.382 . S
C242 H246 0.950 . S
H243 C238 0.949 . S
C244 C239 1.399 . S
C244 C242 1.382 . S
C244 H245 0.952 . S
H245 C244 0.952 . S
H246 C242 0.950 . S
H247 C248 0.949 . S
C248 H247 0.949 . S
C248 C249 1.395 . S
C248 C250 1.391 . S
C249 C248 1.395 . S
C249 C252 1.390 . S
C250 C248 1.391 . S
C250 C254 1.387 . S
C250 C255 1.491 . S
H251 C252 0.950 . S
C252 C249 1.390 . S
C252 H251 0.950 . S
C252 C253 1.378 . S
C253 C252 1.378 . S
C253 C254 1.409 . S
C254 C250 1.387 . S
C254 C253 1.409 . S
C254 H256 0.951 . S
C255 C250 1.491 . S
C255 C257 1.382 . S
C255 C259 1.404 . S
H256 C254 0.951 . S
C257 C255 1.382 . S
C257 C258 1.390 . S
C257 H262 0.949 . S
C258 C257 1.390 . S
C258 C263 1.399 . S
C259 C255 1.404 . S
C259 H260 0.950 . S
C259 C261 1.375 . S
H260 C259 0.950 . S
C261 C259 1.375 . S
C261 C263 1.382 . S
C261 H265 0.950 . S
H262 C257 0.949 . S
C263 C258 1.399 . S
C263 C261 1.382 . S
C263 H264 0.952 . S
H264 C263 0.952 . S
H265 C261 0.950 . S
H266 C267 0.949 . S
C267 H266 0.949 . S
C267 C268 1.395 . S
C267 C269 1.391 . S
C268 C267 1.395 . S
C268 C271 1.390 . S
C269 C267 1.391 . S
C269 C273 1.387 . S
C269 C274 1.491 . S
H270 C271 0.950 . S
C271 C268 1.390 . S
C271 H270 0.950 . S
C271 C272 1.378 . S
C272 C271 1.378 . S
C272 C273 1.409 . S
C273 C269 1.387 . S
C273 C272 1.409 . S
C273 H275 0.951 . S
C274 C269 1.491 . S
C274 C276 1.382 . S
C274 C278 1.404 . S
H275 C273 0.951 . S
C276 C274 1.382 . S
C276 C277 1.390 . S
C276 H281 0.949 . S
C277 C276 1.390 . S
C277 C282 1.399 . S
C278 C274 1.404 . S
C278 H279 0.950 . S
C278 C280 1.375 . S
H279 C278 0.950 . S
C280 C278 1.375 . S
C280 C282 1.382 . S
C280 H284 0.950 . S
H281 C276 0.949 . S
C282 C277 1.399 . S
C282 C280 1.382 . S
C282 H283 0.952 . S
H283 C282 0.952 . S
H284 C280 0.950 . S
H285 C286 0.949 . S
C286 H285 0.949 . S
C286 C287 1.395 . S
C286 C288 1.391 . S
C287 C286 1.395 . S
C287 C290 1.390 . S
C288 C286 1.391 . S
C288 C292 1.387 . S
C288 C293 1.491 . S
H289 C290 0.950 . S
C290 C287 1.390 . S
C290 H289 0.950 . S
C290 C291 1.378 . S
C291 C290 1.378 . S
C291 C292 1.409 . S
C292 C288 1.387 . S
C292 C291 1.409 . S
C292 H294 0.951 . S
C293 C288 1.491 . S
C293 C295 1.382 . S
C293 C297 1.404 . S
H294 C292 0.951 . S
C295 C293 1.382 . S
C295 C296 1.390 . S
C295 H300 0.949 . S
C296 C295 1.390 . S
C296 C301 1.399 . S
C297 C293 1.404 . S
C297 H298 0.950 . S
C297 C299 1.375 . S
H298 C297 0.950 . S
C299 C297 1.375 . S
C299 C301 1.382 . S
C299 H303 0.950 . S
H300 C295 0.949 . S
C301 C296 1.399 . S
C301 C299 1.382 . S
C301 H302 0.952 . S
H302 C301 0.952 . S
H303 C299 0.950 . S
H304 C305 0.949 . S
C305 H304 0.949 . S
C305 C306 1.395 . S
C305 C307 1.391 . S
C306 C305 1.395 . S
C306 C309 1.390 . S
C307 C305 1.391 . S
C307 C311 1.387 . S
C307 C312 1.491 . S
H308 C309 0.950 . S
C309 C306 1.390 . S
C309 H308 0.950 . S
C309 C310 1.378 . S
C310 C309 1.378 . S
C310 C311 1.409 . S
C311 C307 1.387 . S
C311 C310 1.409 . S
C311 H313 0.951 . S
C312 C307 1.491 . S
C312 C314 1.382 . S
C312 C316 1.404 . S
H313 C311 0.951 . S
C314 C312 1.382 . S
C314 C315 1.390 . S
C314 H319 0.949 . S
C315 C314 1.390 . S
C315 C320 1.399 . S
C316 C312 1.404 . S
C316 H317 0.950 . S
C316 C318 1.375 . S
H317 C316 0.950 . S
C318 C316 1.375 . S
C318 C320 1.382 . S
C318 H322 0.950 . S
H319 C314 0.949 . S
C320 C315 1.399 . S
C320 C318 1.382 . S
C320 H321 0.952 . S
H321 C320 0.952 . S
H322 C318 0.950 . S
H323 C324 0.949 . S
C324 H323 0.949 . S
C324 C325 1.395 . S
C324 C326 1.391 . S
C325 C324 1.395 . S
C325 C328 1.390 . S
C326 C324 1.391 . S
C326 C330 1.387 . S
C326 C331 1.491 . S
H327 C328 0.950 . S
C328 C325 1.390 . S
C328 H327 0.950 . S
C328 C329 1.378 . S
C329 C328 1.378 . S
C329 C330 1.409 . S
C330 C326 1.387 . S
C330 C329 1.409 . S
C330 H332 0.951 . S
C331 C326 1.491 . S
C331 C333 1.382 . S
C331 C335 1.404 . S
H332 C330 0.951 . S
C333 C331 1.382 . S
C333 C334 1.390 . S
C333 H338 0.949 . S
C334 C333 1.390 . S
C334 C339 1.399 . S
C335 C331 1.404 . S
C335 H336 0.950 . S
C335 C337 1.375 . S
H336 C335 0.950 . S
C337 C335 1.375 . S
C337 C339 1.382 . S
C337 H341 0.950 . S
H338 C333 0.949 . S
C339 C334 1.399 . S
C339 C337 1.382 . S
C339 H340 0.952 . S
H340 C339 0.952 . S
H341 C337 0.950 . S
Eu342 C351 2.828 1_565 S
Eu342 O353 2.420 . S
Eu342 O355 2.418 . S
Eu342 O360 2.373 1_565 S
Eu342 O363 2.488 . S
Eu342 O364 2.471 1_565 S
Eu342 O365 2.328 1_566 S
Eu343 O352 2.373 1_545 S
Eu343 O356 2.488 . S
Eu343 O357 2.471 1_545 S
Eu343 O358 2.349 1_545 S
Eu343 O361 2.392 . S
Eu343 O362 2.418 . S
Eu343 C372 2.826 . S
C344 O362 1.244 . S
C344 O365 1.285 . S
C345 C346 1.379 . S
C345 C349 1.373 . S
C345 C351 1.505 . S
C346 C345 1.379 . S
C346 C348 1.369 . S
C346 H374 0.930 . S
C347 C349 1.383 . S
C347 C350 1.382 . S
C347 H375 0.930 . S
C348 C346 1.369 . S
C348 C350 1.392 . S
C348 H376 0.930 . S
C349 C345 1.373 . S
C349 C347 1.383 . S
C349 H377 0.931 1_545 S
C350 C347 1.382 . S
C350 C348 1.392 . S
C351 Eu342 2.828 1_545 S
C351 C345 1.505 . S
C351 O363 1.249 1_545 S
C351 O364 1.244 . S
O352 Eu343 2.373 1_565 S
O352 C354 1.258 . S
O353 Eu342 2.420 . S
O353 C354 1.202 1_556 S
C354 O352 1.258 . S
C354 O353 1.202 1_554 S
O355 Eu342 2.418 . S
O355 C359 1.244 1_556 S
O356 Eu343 2.488 . S
O356 C372 1.242 . S
O357 Eu343 2.471 1_565 S
O357 C372 1.249 1_565 S
O358 Eu343 2.349 1_565 S
O358 C359 1.265 . S
C359 O355 1.244 1_554 S
C359 O358 1.265 . S
O360 Eu342 2.373 1_545 S
O360 C373 1.263 . S
O361 Eu343 2.392 . S
O361 C373 1.234 1_554 S
O362 Eu343 2.418 . S
O362 C344 1.244 . S
O363 Eu342 2.488 . S
O363 C351 1.249 1_565 S
O364 Eu342 2.471 1_545 S
O364 C351 1.244 . S
O365 Eu342 2.328 1_544 S
O365 C344 1.285 . S
C366 C367 1.379 . S
C366 C370 1.373 1_565 S
C366 C372 1.507 1_565 S
C367 C366 1.379 . S
C367 C369 1.369 . S
C367 H378 0.930 . S
C368 C370 1.383 1_565 S
C368 C371 1.382 . S
C368 H379 0.930 1_565 S
C369 C367 1.369 . S
C369 C371 1.392 . S
C369 H380 0.930 . S
C370 C366 1.373 1_545 S
C370 C368 1.383 1_545 S
C370 H381 0.931 . S
C371 C368 1.382 . S
C371 C369 1.392 . S
C372 Eu343 2.826 . S
C372 O356 1.242 . S
C372 O357 1.249 1_545 S
C372 C366 1.507 1_545 S
C373 O360 1.263 . S
C373 O361 1.234 1_556 S
H374 C346 0.930 . S
H375 C347 0.930 . S
H376 C348 0.930 . S
H377 C349 0.931 1_565 S
H378 C367 0.930 . S
H379 C368 0.930 1_545 S
H380 C369 0.930 . S
H381 C370 0.931 . S
Eu382 C391 2.828 1_455 S
Eu382 O393 2.392 1_556 S
Eu382 O395 2.418 . S
Eu382 O400 2.373 1_455 S
Eu382 O403 2.488 . S
Eu382 O404 2.471 1_455 S
Eu382 O405 2.349 1_455 S
Eu383 O392 2.373 1_655 S
Eu383 O396 2.488 . S
Eu383 O397 2.471 1_655 S
Eu383 O398 2.349 1_655 S
Eu383 O401 2.392 . S
Eu383 O402 2.418 . S
Eu383 C412 2.828 1_655 S
C384 O402 1.244 . S
C384 O405 1.265 1_554 S
C385 C386 1.379 . S
C385 C389 1.373 . S
C385 C391 1.505 . S
C386 C385 1.379 . S
C386 C388 1.369 . S
C386 H414 0.930 . S
C387 C389 1.383 . S
C387 C390 1.382 . S
C387 H415 0.930 . S
C388 C386 1.369 . S
C388 C390 1.392 . S
C388 H416 0.930 . S
C389 C385 1.373 . S
C389 C387 1.383 . S
C389 H417 0.931 1_655 S
C390 C387 1.382 . S
C390 C388 1.392 . S
C391 Eu382 2.828 1_655 S
C391 C385 1.505 . S
C391 O403 1.249 1_655 S
C391 O404 1.244 . S
O392 Eu383 2.373 1_455 S
O392 C394 1.258 . S
O393 Eu382 2.392 1_554 S
O393 C394 1.242 . S
C394 O392 1.258 . S
C394 O393 1.242 . S
O395 Eu382 2.418 . S
O395 C399 1.244 1_556 S
O396 Eu383 2.488 . S
O396 C412 1.249 1_655 S
O397 Eu383 2.471 1_455 S
O397 C412 1.244 . S
O398 Eu383 2.349 1_455 S
O398 C399 1.265 . S
C399 O395 1.244 1_554 S
C399 O398 1.265 . S
O400 Eu382 2.373 1_655 S
O400 C413 1.258 . S
O401 Eu383 2.392 . S
O401 C413 1.242 1_554 S
O402 Eu383 2.418 . S
O402 C384 1.244 . S
O403 Eu382 2.488 . S
O403 C391 1.249 1_455 S
O404 Eu382 2.471 1_655 S
O404 C391 1.244 . S
O405 Eu382 2.349 1_655 S
O405 C384 1.265 1_556 S
C406 C407 1.379 . S
C406 C410 1.373 . S
C406 C412 1.505 . S
C407 C406 1.379 . S
C407 C409 1.369 . S
C407 H418 0.930 . S
C408 C410 1.383 . S
C408 C411 1.382 . S
C408 H419 0.930 . S
C409 C407 1.369 . S
C409 C411 1.392 . S
C409 H420 0.930 . S
C410 C406 1.373 . S
C410 C408 1.383 . S
C410 H421 0.931 1_455 S
C411 C408 1.382 . S
C411 C409 1.392 . S
C412 Eu383 2.828 1_455 S
C412 O396 1.249 1_455 S
C412 O397 1.244 . S
C412 C406 1.505 . S
C413 O400 1.258 . S
C413 O401 1.242 1_556 S
H414 C386 0.930 . S
H415 C387 0.930 . S
H416 C388 0.930 . S
H417 C389 0.931 1_455 S
H418 C407 0.930 . S
H419 C408 0.930 . S
H420 C409 0.930 . S
H421 C410 0.931 1_655 S
Eu422 C431 2.828 . S
Eu422 O433 2.392 . S
Eu422 O435 2.418 . S
Eu422 O440 2.373 . S
Eu422 O443 2.488 . S
Eu422 O444 2.471 . S
Eu422 O445 2.349 . S
Eu423 O432 2.373 . S
Eu423 O436 2.488 . S
Eu423 O437 2.471 . S
Eu423 O438 2.349 1_556 S
Eu423 O441 2.392 1_556 S
Eu423 O442 2.426 . S
Eu423 C452 2.828 . S
C424 O442 1.195 1_554 S
C424 O445 1.265 . S
C425 C426 1.379 . S
C425 C429 1.373 . S
C425 C431 1.505 . S
C426 C425 1.379 . S
C426 C428 1.369 . S
C426 H454 0.930 . S
C427 C429 1.383 . S
C427 C430 1.382 . S
C427 H455 0.930 . S
C428 C426 1.369 . S
C428 C430 1.392 . S
C428 H456 0.930 . S
C429 C425 1.373 . S
C429 C427 1.383 . S
C429 H457 0.931 . S
C430 C427 1.382 . S
C430 C428 1.392 . S
C431 Eu422 2.828 . S
C431 C425 1.505 . S
C431 O443 1.249 . S
C431 O444 1.244 . S
O432 Eu423 2.373 . S
O432 C434 1.258 1_556 S
O433 Eu422 2.392 . S
O433 C434 1.242 . S
C434 O432 1.258 1_554 S
C434 O433 1.242 . S
O435 Eu422 2.418 . S
O435 C439 1.244 . S
O436 Eu423 2.488 . S
O436 C452 1.249 . S
O437 Eu423 2.471 . S
O437 C452 1.244 . S
O438 Eu423 2.349 1_554 S
O438 C439 1.265 . S
C439 O435 1.244 . S
C439 O438 1.265 . S
O440 Eu422 2.373 . S
O440 C453 1.258 . S
O441 Eu423 2.392 1_554 S
O441 C453 1.242 . S
O442 Eu423 2.426 . S
O442 C424 1.195 1_556 S
O443 Eu422 2.488 . S
O443 C431 1.249 . S
O444 Eu422 2.471 . S
O444 C431 1.244 . S
O445 Eu422 2.349 . S
O445 C424 1.265 . S
C446 C447 1.379 . S
C446 C450 1.373 . S
C446 C452 1.505 . S
C447 C446 1.379 . S
C447 C449 1.369 . S
C447 H458 0.930 . S
C448 C450 1.383 . S
C448 C451 1.382 . S
C448 H459 0.930 . S
C449 C447 1.369 . S
C449 C451 1.392 . S
C449 H460 0.930 . S
C450 C446 1.373 . S
C450 C448 1.383 . S
C450 H461 0.931 . S
C451 C448 1.382 . S
C451 C449 1.392 . S
C452 Eu423 2.828 . S
C452 O436 1.249 . S
C452 O437 1.244 . S
C452 C446 1.505 . S
C453 O440 1.258 . S
C453 O441 1.242 . S
H454 C426 0.930 . S
H455 C427 0.930 . S
H456 C428 0.930 . S
H457 C429 0.931 . S
H458 C447 0.930 . S
H459 C448 0.930 . S
H460 C449 0.930 . S
H461 C450 0.931 . S
Eu462 C471 2.828 . S
Eu462 O473 2.392 . S
Eu462 O475 2.418 . S
Eu462 O480 2.373 . S
Eu462 O483 2.488 . S
Eu462 O484 2.471 . S
Eu462 O485 2.349 . S
Eu463 O472 2.373 . S
Eu463 O476 2.488 . S
Eu463 O477 2.471 . S
Eu463 O478 2.349 . S
Eu463 O481 2.392 . S
Eu463 O482 2.418 . S
Eu463 C492 2.828 . S
C464 O482 1.244 . S
C464 O485 1.265 . S
C465 C466 1.379 . S
C465 C469 1.373 . S
C465 C471 1.505 . S
C466 C465 1.379 . S
C466 C468 1.369 . S
C466 H494 0.930 . S
C467 C469 1.383 . S
C467 C470 1.382 . S
C467 H495 0.930 . S
C468 C466 1.369 . S
C468 C470 1.392 . S
C468 H496 0.930 . S
C469 C465 1.373 . S
C469 C467 1.383 . S
C469 H497 0.931 . S
C470 C467 1.382 . S
C470 C468 1.392 . S
C471 Eu462 2.828 . S
C471 C465 1.505 . S
C471 O483 1.249 . S
C471 O484 1.244 . S
O472 Eu463 2.373 . S
O472 C474 1.258 . S
O473 Eu462 2.392 . S
O473 C474 1.242 . S
C474 O472 1.258 . S
C474 O473 1.242 . S
O475 Eu462 2.418 . S
O475 C479 1.244 . S
O476 Eu463 2.488 . S
O476 C492 1.249 . S
O477 Eu463 2.471 . S
O477 C492 1.244 . S
O478 Eu463 2.349 . S
O478 C479 1.265 . S
C479 O475 1.244 . S
C479 O478 1.265 . S
O480 Eu462 2.373 . S
O480 C493 1.258 . S
O481 Eu463 2.392 . S
O481 C493 1.242 . S
O482 Eu463 2.418 . S
O482 C464 1.244 . S
O483 Eu462 2.488 . S
O483 C471 1.249 . S
O484 Eu462 2.471 . S
O484 C471 1.244 . S
O485 Eu462 2.349 . S
O485 C464 1.265 . S
C486 C487 1.379 . S
C486 C490 1.373 . S
C486 C492 1.505 . S
C487 C486 1.379 . S
C487 C489 1.369 . S
C487 H498 0.930 . S
C488 C490 1.383 . S
C488 C491 1.382 . S
C488 H499 0.930 . S
C489 C487 1.369 . S
C489 C491 1.392 . S
C489 H500 0.930 . S
C490 C486 1.373 . S
C490 C488 1.383 . S
C490 H501 0.931 . S
C491 C488 1.382 . S
C491 C489 1.392 . S
C492 Eu463 2.828 . S
C492 O476 1.249 . S
C492 O477 1.244 . S
C492 C486 1.505 . S
C493 O480 1.258 . S
C493 O481 1.242 . S
H494 C466 0.930 . S
H495 C467 0.930 . S
H496 C468 0.930 . S
H497 C469 0.931 . S
H498 C487 0.930 . S
H499 C488 0.930 . S
H500 C489 0.930 . S
H501 C490 0.931 . S
Eu502 C511 2.828 . S
Eu502 O513 2.392 . S
Eu502 O515 2.418 . S
Eu502 O520 2.373 . S
Eu502 O523 2.488 . S
Eu502 O524 2.471 . S
Eu502 O525 2.349 . S
Eu503 O512 2.373 . S
Eu503 O516 2.488 . S
Eu503 O517 2.471 . S
Eu503 O518 2.349 . S
Eu503 O521 2.392 . S
Eu503 O522 2.418 . S
Eu503 C532 2.828 . S
C504 O522 1.244 . S
C504 O525 1.265 . S
C505 C506 1.379 . S
C505 C509 1.373 . S
C505 C511 1.505 . S
C506 C505 1.379 . S
C506 C508 1.369 . S
C506 H534 0.930 . S
C507 C509 1.383 . S
C507 C510 1.382 . S
C507 H535 0.930 . S
C508 C506 1.369 . S
C508 C510 1.392 . S
C508 H536 0.930 . S
C509 C505 1.373 . S
C509 C507 1.383 . S
C509 H537 0.931 . S
C510 C507 1.382 . S
C510 C508 1.392 . S
C511 Eu502 2.828 . S
C511 C505 1.505 . S
C511 O523 1.249 . S
C511 O524 1.244 . S
O512 Eu503 2.373 . S
O512 C514 1.258 . S
O513 Eu502 2.392 . S
O513 C514 1.242 . S
C514 O512 1.258 . S
C514 O513 1.242 . S
O515 Eu502 2.418 . S
O515 C519 1.244 . S
O516 Eu503 2.488 . S
O516 C532 1.249 . S
O517 Eu503 2.471 . S
O517 C532 1.244 . S
O518 Eu503 2.349 . S
O518 C519 1.265 . S
C519 O515 1.244 . S
C519 O518 1.265 . S
O520 Eu502 2.373 . S
O520 C533 1.258 . S
O521 Eu503 2.392 . S
O521 C533 1.242 . S
O522 Eu503 2.418 . S
O522 C504 1.244 . S
O523 Eu502 2.488 . S
O523 C511 1.249 . S
O524 Eu502 2.471 . S
O524 C511 1.244 . S
O525 Eu502 2.349 . S
O525 C504 1.265 . S
C526 C527 1.379 . S
C526 C530 1.373 . S
C526 C532 1.505 . S
C527 C526 1.379 . S
C527 C529 1.369 . S
C527 H538 0.930 . S
C528 C530 1.383 . S
C528 C531 1.382 . S
C528 H539 0.930 . S
C529 C527 1.369 . S
C529 C531 1.392 . S
C529 H540 0.930 . S
C530 C526 1.373 . S
C530 C528 1.383 . S
C530 H541 0.931 . S
C531 C528 1.382 . S
C531 C529 1.392 . S
C532 Eu503 2.828 . S
C532 O516 1.249 . S
C532 O517 1.244 . S
C532 C526 1.505 . S
C533 O520 1.258 . S
C533 O521 1.242 . S
H534 C506 0.930 . S
H535 C507 0.930 . S
H536 C508 0.930 . S
H537 C509 0.931 . S
H538 C527 0.930 . S
H539 C528 0.930 . S
H540 C529 0.930 . S
H541 C530 0.931 . S
Eu542 C551 2.828 . S
Eu542 O553 2.392 . S
Eu542 O555 2.418 . S
Eu542 O560 2.373 . S
Eu542 O563 2.488 . S
Eu542 O564 2.471 . S
Eu542 O565 2.349 . S
Eu543 O552 2.373 . S
Eu543 O556 2.488 . S
Eu543 O557 2.471 . S
Eu543 O558 2.349 . S
Eu543 O561 2.392 . S
Eu543 O562 2.418 . S
Eu543 C572 2.828 . S
C544 O562 1.244 . S
C544 O565 1.265 . S
C545 C546 1.379 . S
C545 C549 1.373 . S
C545 C551 1.505 . S
C546 C545 1.379 . S
C546 C548 1.369 . S
C546 H574 0.930 . S
C547 C549 1.383 . S
C547 C550 1.382 . S
C547 H575 0.930 . S
C548 C546 1.369 . S
C548 C550 1.392 . S
C548 H576 0.930 . S
C549 C545 1.373 . S
C549 C547 1.383 . S
C549 H577 0.931 . S
C550 C547 1.382 . S
C550 C548 1.392 . S
C551 Eu542 2.828 . S
C551 C545 1.505 . S
C551 O563 1.249 . S
C551 O564 1.244 . S
O552 Eu543 2.373 . S
O552 C554 1.258 . S
O553 Eu542 2.392 . S
O553 C554 1.242 . S
C554 O552 1.258 . S
C554 O553 1.242 . S
O555 Eu542 2.418 . S
O555 C559 1.244 . S
O556 Eu543 2.488 . S
O556 C572 1.249 . S
O557 Eu543 2.471 . S
O557 C572 1.244 . S
O558 Eu543 2.349 . S
O558 C559 1.265 . S
C559 O555 1.244 . S
C559 O558 1.265 . S
O560 Eu542 2.373 . S
O560 C573 1.258 . S
O561 Eu543 2.392 . S
O561 C573 1.242 . S
O562 Eu543 2.418 . S
O562 C544 1.244 . S
O563 Eu542 2.488 . S
O563 C551 1.249 . S
O564 Eu542 2.471 . S
O564 C551 1.244 . S
O565 Eu542 2.349 . S
O565 C544 1.265 . S
C566 C567 1.379 . S
C566 C570 1.373 . S
C566 C572 1.505 . S
C567 C566 1.379 . S
C567 C569 1.369 . S
C567 H578 0.930 . S
C568 C570 1.383 . S
C568 C571 1.382 . S
C568 H579 0.930 . S
C569 C567 1.369 . S
C569 C571 1.392 . S
C569 H580 0.930 . S
C570 C566 1.373 . S
C570 C568 1.383 . S
C570 H581 0.931 . S
C571 C568 1.382 . S
C571 C569 1.392 . S
C572 Eu543 2.828 . S
C572 O556 1.249 . S
C572 O557 1.244 . S
C572 C566 1.505 . S
C573 O560 1.258 . S
C573 O561 1.242 . S
H574 C546 0.930 . S
H575 C547 0.930 . S
H576 C548 0.930 . S
H577 C549 0.931 . S
H578 C567 0.930 . S
H579 C568 0.930 . S
H580 C569 0.930 . S
H581 C570 0.931 . S
Eu582 C591 2.828 . S
Eu582 O593 2.392 . S
Eu582 O595 2.418 . S
Eu582 O600 2.373 . S
Eu582 O603 2.488 . S
Eu582 O604 2.471 . S
Eu582 O605 2.349 . S
Eu583 O592 2.373 . S
Eu583 O596 2.488 . S
Eu583 O597 2.471 . S
Eu583 O598 2.349 . S
Eu583 O601 2.392 . S
Eu583 O602 2.418 . S
Eu583 C612 2.828 . S
C584 O602 1.244 . S
C584 O605 1.265 . S
C585 C586 1.379 . S
C585 C589 1.373 . S
C585 C591 1.505 . S
C586 C585 1.379 . S
C586 C588 1.369 . S
C586 H614 0.930 . S
C587 C589 1.383 . S
C587 C590 1.382 . S
C587 H615 0.930 . S
C588 C586 1.369 . S
C588 C590 1.392 . S
C588 H616 0.930 . S
C589 C585 1.373 . S
C589 C587 1.383 . S
C589 H617 0.931 . S
C590 C587 1.382 . S
C590 C588 1.392 . S
C591 Eu582 2.828 . S
C591 C585 1.505 . S
C591 O603 1.249 . S
C591 O604 1.244 . S
O592 Eu583 2.373 . S
O592 C594 1.258 . S
O593 Eu582 2.392 . S
O593 C594 1.242 . S
C594 O592 1.258 . S
C594 O593 1.242 . S
O595 Eu582 2.418 . S
O595 C599 1.244 . S
O596 Eu583 2.488 . S
O596 C612 1.249 . S
O597 Eu583 2.471 . S
O597 C612 1.244 . S
O598 Eu583 2.349 . S
O598 C599 1.265 . S
C599 O595 1.244 . S
C599 O598 1.265 . S
O600 Eu582 2.373 . S
O600 C613 1.258 . S
O601 Eu583 2.392 . S
O601 C613 1.242 . S
O602 Eu583 2.418 . S
O602 C584 1.244 . S
O603 Eu582 2.488 . S
O603 C591 1.249 . S
O604 Eu582 2.471 . S
O604 C591 1.244 . S
O605 Eu582 2.349 . S
O605 C584 1.265 . S
C606 C607 1.379 . S
C606 C610 1.373 . S
C606 C612 1.505 . S
C607 C606 1.379 . S
C607 C609 1.369 . S
C607 H618 0.930 . S
C608 C610 1.383 . S
C608 C611 1.382 . S
C608 H619 0.930 . S
C609 C607 1.369 . S
C609 C611 1.392 . S
C609 H620 0.930 . S
C610 C606 1.373 . S
C610 C608 1.383 . S
C610 H621 0.931 . S
C611 C608 1.382 . S
C611 C609 1.392 . S
C612 Eu583 2.828 . S
C612 O596 1.249 . S
C612 O597 1.244 . S
C612 C606 1.505 . S
C613 O600 1.258 . S
C613 O601 1.242 . S
H614 C586 0.930 . S
H615 C587 0.930 . S
H616 C588 0.930 . S
H617 C589 0.931 . S
H618 C607 0.930 . S
H619 C608 0.930 . S
H620 C609 0.930 . S
H621 C610 0.931 . S
Eu622 C631 2.828 . S
Eu622 O633 2.392 . S
Eu622 O635 2.418 . S
Eu622 O640 2.373 . S
Eu622 O643 2.488 . S
Eu622 O644 2.471 . S
Eu622 O645 2.349 . S
Eu623 O632 2.373 . S
Eu623 O636 2.488 . S
Eu623 O637 2.471 . S
Eu623 O638 2.349 . S
Eu623 O641 2.392 . S
Eu623 O642 2.418 . S
Eu623 C652 2.828 . S
C624 O642 1.244 . S
C624 O645 1.265 . S
C625 C626 1.379 . S
C625 C629 1.373 . S
C625 C631 1.505 . S
C626 C625 1.379 . S
C626 C628 1.369 . S
C626 H654 0.930 . S
C627 C629 1.383 . S
C627 C630 1.382 . S
C627 H655 0.930 . S
C628 C626 1.369 . S
C628 C630 1.392 . S
C628 H656 0.930 . S
C629 C625 1.373 . S
C629 C627 1.383 . S
C629 H657 0.931 . S
C630 C627 1.382 . S
C630 C628 1.392 . S
C631 Eu622 2.828 . S
C631 C625 1.505 . S
C631 O643 1.249 . S
C631 O644 1.244 . S
O632 Eu623 2.373 . S
O632 C634 1.258 . S
O633 Eu622 2.392 . S
O633 C634 1.242 . S
C634 O632 1.258 . S
C634 O633 1.242 . S
O635 Eu622 2.418 . S
O635 C639 1.244 . S
O636 Eu623 2.488 . S
O636 C652 1.249 . S
O637 Eu623 2.471 . S
O637 C652 1.244 . S
O638 Eu623 2.349 . S
O638 C639 1.265 . S
C639 O635 1.244 . S
C639 O638 1.265 . S
O640 Eu622 2.373 . S
O640 C653 1.258 . S
O641 Eu623 2.392 . S
O641 C653 1.242 . S
O642 Eu623 2.418 . S
O642 C624 1.244 . S
O643 Eu622 2.488 . S
O643 C631 1.249 . S
O644 Eu622 2.471 . S
O644 C631 1.244 . S
O645 Eu622 2.349 . S
O645 C624 1.265 . S
C646 C647 1.379 . S
C646 C650 1.373 . S
C646 C652 1.505 . S
C647 C646 1.379 . S
C647 C649 1.369 . S
C647 H658 0.930 . S
C648 C650 1.383 . S
C648 C651 1.382 . S
C648 H659 0.930 . S
C649 C647 1.369 . S
C649 C651 1.392 . S
C649 H660 0.930 . S
C650 C646 1.373 . S
C650 C648 1.383 . S
C650 H661 0.931 . S
C651 C648 1.382 . S
C651 C649 1.392 . S
C652 Eu623 2.828 . S
C652 O636 1.249 . S
C652 O637 1.244 . S
C652 C646 1.505 . S
C653 O640 1.258 . S
C653 O641 1.242 . S
H654 C626 0.930 . S
H655 C627 0.930 . S
H656 C628 0.930 . S
H657 C629 0.931 . S
H658 C647 0.930 . S
H659 C648 0.930 . S
H660 C649 0.930 . S
H661 C650 0.931 . S
Eu662 C671 2.828 . S
Eu662 O673 2.392 . S
Eu662 O675 2.418 . S
Eu662 O680 2.373 . S
Eu662 O683 2.488 . S
Eu662 O684 2.471 . S
Eu662 O685 2.349 . S
Eu663 O672 2.373 . S
Eu663 O676 2.488 . S
Eu663 O677 2.471 . S
Eu663 O678 2.349 . S
Eu663 O681 2.392 . S
Eu663 O682 2.418 . S
Eu663 C692 2.828 . S
C664 O682 1.244 . S
C664 O685 1.265 . S
C665 C666 1.379 . S
C665 C669 1.373 . S
C665 C671 1.505 . S
C666 C665 1.379 . S
C666 C668 1.369 . S
C666 H694 0.930 . S
C667 C669 1.383 . S
C667 C670 1.382 . S
C667 H695 0.930 . S
C668 C666 1.369 . S
C668 C670 1.392 . S
C668 H696 0.930 . S
C669 C665 1.373 . S
C669 C667 1.383 . S
C669 H697 0.931 . S
C670 C667 1.382 . S
C670 C668 1.392 . S
C671 Eu662 2.828 . S
C671 C665 1.505 . S
C671 O683 1.249 . S
C671 O684 1.244 . S
O672 Eu663 2.373 . S
O672 C674 1.258 . S
O673 Eu662 2.392 . S
O673 C674 1.242 . S
C674 O672 1.258 . S
C674 O673 1.242 . S
O675 Eu662 2.418 . S
O675 C679 1.244 . S
O676 Eu663 2.488 . S
O676 C692 1.249 . S
O677 Eu663 2.471 . S
O677 C692 1.244 . S
O678 Eu663 2.349 . S
O678 C679 1.265 . S
C679 O675 1.244 . S
C679 O678 1.265 . S
O680 Eu662 2.373 . S
O680 C693 1.258 . S
O681 Eu663 2.392 . S
O681 C693 1.242 . S
O682 Eu663 2.418 . S
O682 C664 1.244 . S
O683 Eu662 2.488 . S
O683 C671 1.249 . S
O684 Eu662 2.471 . S
O684 C671 1.244 . S
O685 Eu662 2.349 . S
O685 C664 1.265 . S
C686 C687 1.379 . S
C686 C690 1.373 . S
C686 C692 1.505 . S
C687 C686 1.379 . S
C687 C689 1.369 . S
C687 H698 0.930 . S
C688 C690 1.383 . S
C688 C691 1.382 . S
C688 H699 0.930 . S
C689 C687 1.369 . S
C689 C691 1.392 . S
C689 H700 0.930 . S
C690 C686 1.373 . S
C690 C688 1.383 . S
C690 H701 0.931 . S
C691 C688 1.382 . S
C691 C689 1.392 . S
C692 Eu663 2.828 . S
C692 O676 1.249 . S
C692 O677 1.244 . S
C692 C686 1.505 . S
C693 O680 1.258 . S
C693 O681 1.242 . S
H694 C666 0.930 . S
H695 C667 0.930 . S
H696 C668 0.930 . S
H697 C669 0.931 . S
H698 C687 0.930 . S
H699 C688 0.930 . S
H700 C689 0.930 . S
H701 C690 0.931 . S
H702 C720 0.951 . S
H703 C722 0.951 . S
H704 C724 0.950 . S
H705 C725 0.950 . S
H706 C727 0.950 . S
H707 C730 0.950 . S
H708 C731 0.950 . S
H709 C733 0.950 . S
H710 C734 0.950 . S
H711 C735 0.951 . S
H712 C737 0.951 . S
H713 C739 0.950 . S
H714 C740 0.950 . S
H715 C742 0.950 . S
H716 C745 0.950 . S
H717 C746 0.950 . S
H718 C748 0.950 . S
H719 C749 0.950 1_554 S
C720 H702 0.951 . S
C720 C721 1.366 . S
C720 C722 1.388 . S
C721 C720 1.366 . S
C721 C725 1.385 . S
C722 H703 0.951 . S
C722 C720 1.388 . S
C722 C723 1.366 . S
C723 C722 1.366 . S
C723 C724 1.414 . S
C723 C726 1.499 . S
C724 H704 0.950 . S
C724 C723 1.414 . S
C724 C725 1.374 . S
C725 H705 0.950 . S
C725 C721 1.385 . S
C725 C724 1.374 . S
C726 C723 1.499 . S
C726 C727 1.373 . S
C726 C728 1.389 . S
C727 H706 0.950 . S
C727 C726 1.373 . S
C727 C743 1.377 . S
C728 C726 1.389 . S
C728 C729 1.524 . S
C728 C742 1.377 . S
C729 C728 1.524 . S
C729 C730 1.397 . S
C729 C734 1.363 . S
C730 H707 0.950 . S
C730 C729 1.397 . S
C730 C731 1.334 . S
C731 H708 0.950 . S
C731 C730 1.334 . S
C731 C732 1.287 . S
C732 C731 1.287 . S
C732 C733 1.524 . S
C732 H751 0.913 . S
C733 H709 0.950 . S
C733 C732 1.524 . S
C733 C734 1.415 . S
C734 H710 0.950 . S
C734 C729 1.363 . S
C734 C733 1.415 . S
C735 H711 0.951 . S
C735 C736 1.366 . S
C735 C737 1.388 . S
C736 C735 1.366 . S
C736 C740 1.385 . S
C737 H712 0.951 . S
C737 C735 1.388 . S
C737 C738 1.366 . S
C738 C737 1.366 . S
C738 C739 1.414 . S
C738 C741 1.499 . S
C739 H713 0.950 . S
C739 C738 1.414 . S
C739 C740 1.374 . S
C740 H714 0.950 . S
C740 C736 1.385 . S
C740 C739 1.374 . S
C741 C738 1.499 . S
C741 C742 1.373 . S
C741 C743 1.389 . S
C742 H715 0.950 . S
C742 C728 1.377 . S
C742 C741 1.373 . S
C743 C727 1.377 . S
C743 C741 1.389 . S
C743 C744 1.507 1_554 S
C744 C743 1.507 1_556 S
C744 C745 1.408 . S
C744 C749 1.368 . S
C745 H716 0.950 . S
C745 C744 1.408 . S
C745 C746 1.334 . S
C746 H717 0.950 . S
C746 C745 1.334 . S
C746 C747 1.287 . S
C747 C746 1.287 . S
C747 C748 1.524 . S
C747 H750 0.999 . S
C748 H718 0.950 . S
C748 C747 1.524 . S
C748 C749 1.415 . S
C749 H719 0.950 1_556 S
C749 C744 1.368 . S
C749 C748 1.415 . S
H750 C747 0.999 . S
H751 C732 0.913 . S
H752 C770 0.951 . S
H753 C772 0.951 . S
H754 C774 0.950 . S
H755 C775 0.950 . S
H756 C777 0.950 . S
H757 C780 0.950 . S
H758 C781 0.950 . S
H759 C783 0.950 1_556 S
H760 C784 0.950 . S
H761 C785 0.951 . S
H762 C787 0.951 . S
H763 C789 0.950 . S
H764 C790 0.950 . S
H765 C792 0.950 . S
H766 C795 0.950 . S
H767 C796 0.950 . S
H768 C798 0.950 . S
H769 C799 0.950 . S
C770 H752 0.951 . S
C770 C771 1.366 . S
C770 C772 1.388 . S
C771 C770 1.366 . S
C771 C775 1.385 . S
C772 H753 0.951 . S
C772 C770 1.388 . S
C772 C773 1.366 . S
C773 C772 1.366 . S
C773 C774 1.414 . S
C773 C776 1.499 . S
C774 H754 0.950 . S
C774 C773 1.414 . S
C774 C775 1.374 . S
C775 H755 0.950 . S
C775 C771 1.385 . S
C775 C774 1.374 . S
C776 C773 1.499 . S
C776 C777 1.373 . S
C776 C778 1.389 . S
C777 H756 0.950 . S
C777 C776 1.373 . S
C777 C793 1.377 . S
C778 C776 1.389 . S
C778 C779 1.524 . S
C778 C792 1.377 . S
C779 C778 1.524 . S
C779 C780 1.397 . S
C779 C784 1.363 . S
C780 H757 0.950 . S
C780 C779 1.397 . S
C780 C781 1.334 . S
C781 H758 0.950 . S
C781 C780 1.334 . S
C781 C782 1.287 . S
C782 C781 1.287 . S
C782 C783 1.524 . S
C782 H801 0.913 . S
C783 H759 0.950 1_554 S
C783 C782 1.524 . S
C783 C784 1.415 . S
C784 H760 0.950 . S
C784 C779 1.363 . S
C784 C783 1.415 . S
C785 H761 0.951 . S
C785 C786 1.366 . S
C785 C787 1.388 . S
C786 C785 1.366 . S
C786 C790 1.385 . S
C787 H762 0.951 . S
C787 C785 1.388 . S
C787 C788 1.366 . S
C788 C787 1.366 . S
C788 C789 1.414 . S
C788 C791 1.499 . S
C789 H763 0.950 . S
C789 C788 1.414 . S
C789 C790 1.374 . S
C790 H764 0.950 . S
C790 C786 1.385 . S
C790 C789 1.374 . S
C791 C788 1.499 . S
C791 C792 1.373 . S
C791 C793 1.389 . S
C792 H765 0.950 . S
C792 C778 1.377 . S
C792 C791 1.373 . S
C793 C777 1.377 . S
C793 C791 1.389 . S
C793 C794 1.524 . S
C794 C793 1.524 . S
C794 C795 1.397 . S
C794 C799 1.363 . S
C795 H766 0.950 . S
C795 C794 1.397 . S
C795 C796 1.334 . S
C796 H767 0.950 . S
C796 C795 1.334 . S
C796 C797 1.287 . S
C797 C796 1.287 . S
C797 C798 1.524 . S
C797 H800 0.999 . S
C798 H768 0.950 . S
C798 C797 1.524 . S
C798 C799 1.415 . S
C799 H769 0.950 . S
C799 C794 1.363 . S
C799 C798 1.415 . S
H800 C797 0.999 . S
H801 C782 0.913 . S
H802 C820 0.951 . S
H803 C822 0.951 . S
H804 C824 0.950 . S
H805 C825 0.950 . S
H806 C827 0.950 . S
H807 C830 0.950 . S
H808 C831 1.001 . S
H809 C833 0.950 . S
H810 C834 0.950 . S
H811 C835 0.951 . S
H812 C837 0.951 . S
H813 C839 0.950 . S
H814 C840 0.950 . S
H815 C842 0.950 . S
H816 C845 0.950 . S
H817 C846 0.950 . S
H818 C848 0.950 . S
H819 C849 0.950 . S
C820 H802 0.951 . S
C820 C821 1.366 . S
C820 C822 1.388 . S
C821 C820 1.366 . S
C821 C825 1.385 . S
C822 H803 0.951 . S
C822 C820 1.388 . S
C822 C823 1.366 . S
C823 C822 1.366 . S
C823 C824 1.414 . S
C823 C826 1.499 . S
C824 H804 0.950 . S
C824 C823 1.414 . S
C824 C825 1.374 . S
C825 H805 0.950 . S
C825 C821 1.385 . S
C825 C824 1.374 . S
C826 C823 1.499 . S
C826 C827 1.373 . S
C826 C828 1.389 . S
C827 H806 0.950 . S
C827 C826 1.373 . S
C827 C843 1.377 . S
C828 C826 1.389 . S
C828 C829 1.524 . S
C828 C842 1.377 . S
C829 C828 1.524 . S
C829 C830 1.397 . S
C829 C834 1.363 . S
C830 H807 0.950 . S
C830 C829 1.397 . S
C830 C831 1.305 1_554 S
C831 H808 1.001 . S
C831 C830 1.305 1_556 S
C831 C832 1.268 1_556 S
C832 C831 1.268 1_554 S
C832 C833 1.524 . S
C832 H851 0.913 . S
C833 H809 0.950 . S
C833 C832 1.524 . S
C833 C834 1.415 . S
C834 H810 0.950 . S
C834 C829 1.363 . S
C834 C833 1.415 . S
C835 H811 0.951 . S
C835 C836 1.366 . S
C835 C837 1.388 . S
C836 C835 1.366 . S
C836 C840 1.385 . S
C837 H812 0.951 . S
C837 C835 1.388 . S
C837 C838 1.366 . S
C838 C837 1.366 . S
C838 C839 1.414 . S
C838 C841 1.499 . S
C839 H813 0.950 . S
C839 C838 1.414 . S
C839 C840 1.374 . S
C840 H814 0.950 . S
C840 C836 1.385 . S
C840 C839 1.374 . S
C841 C838 1.499 . S
C841 C842 1.373 . S
C841 C843 1.389 . S
C842 H815 0.950 . S
C842 C828 1.377 . S
C842 C841 1.373 . S
C843 C827 1.377 . S
C843 C841 1.389 . S
C843 C844 1.524 . S
C844 C843 1.524 . S
C844 C845 1.397 . S
C844 C849 1.363 . S
C845 H816 0.950 . S
C845 C844 1.397 . S
C845 C846 1.334 . S
C846 H817 0.950 . S
C846 C845 1.334 . S
C846 C847 1.287 . S
C847 C846 1.287 . S
C847 C848 1.524 . S
C847 H850 0.999 . S
C848 H818 0.950 . S
C848 C847 1.524 . S
C848 C849 1.415 . S
C849 H819 0.950 . S
C849 C844 1.363 . S
C849 C848 1.415 . S
H850 C847 0.999 . S
H851 C832 0.913 . S
H852 C870 0.951 . S
H853 C872 0.951 . S
H854 C874 0.950 . S
H855 C875 0.950 . S
H856 C877 0.950 . S
H857 C880 0.950 . S
H858 C881 0.950 . S
H859 C883 0.950 . S
H860 C884 0.950 . S
H861 C885 0.951 . S
H862 C887 0.948 . S
H863 C889 0.950 . S
H864 C890 0.950 . S
H865 C892 0.950 . S
H866 C895 0.950 . S
H867 C896 0.950 . S
H868 C898 0.950 . S
H869 C899 0.950 . S
C870 H852 0.951 . S
C870 C871 1.366 . S
C870 C872 1.388 . S
C871 C870 1.366 . S
C871 C875 1.385 . S
C872 H853 0.951 . S
C872 C870 1.388 . S
C872 C873 1.366 . S
C873 C872 1.366 . S
C873 C874 1.414 . S
C873 C876 1.499 . S
C874 H854 0.950 . S
C874 C873 1.414 . S
C874 C875 1.374 . S
C875 H855 0.950 . S
C875 C871 1.385 . S
C875 C874 1.374 . S
C876 C873 1.499 . S
C876 C877 1.373 . S
C876 C878 1.389 . S
C877 H856 0.950 . S
C877 C876 1.373 . S
C877 C893 1.377 . S
C878 C876 1.389 . S
C878 C879 1.524 . S
C878 C892 1.377 . S
C879 C878 1.524 . S
C879 C880 1.397 1_556 S
C879 C884 1.363 . S
C880 H857 0.950 . S
C880 C879 1.397 1_554 S
C880 C881 1.334 . S
C881 H858 0.950 . S
C881 C880 1.334 . S
C881 C882 1.287 . S
C882 C881 1.287 . S
C882 C883 1.524 1_554 S
C882 H901 0.913 . S
C883 H859 0.950 . S
C883 C882 1.524 1_556 S
C883 C884 1.415 . S
C884 H860 0.950 . S
C884 C879 1.363 . S
C884 C883 1.415 . S
C885 H861 0.951 . S
C885 C886 1.366 1_554 S
C885 C887 1.387 . S
C886 C885 1.366 1_556 S
C886 C890 1.385 . S
C887 H862 0.948 . S
C887 C885 1.387 . S
C887 C888 1.369 1_554 S
C888 C887 1.369 1_556 S
C888 C889 1.414 . S
C888 C891 1.499 . S
C889 H863 0.950 . S
C889 C888 1.414 . S
C889 C890 1.374 . S
C890 H864 0.950 . S
C890 C886 1.385 . S
C890 C889 1.374 . S
C891 C888 1.499 . S
C891 C892 1.373 . S
C891 C893 1.389 . S
C892 H865 0.950 . S
C892 C878 1.377 . S
C892 C891 1.373 . S
C893 C877 1.377 . S
C893 C891 1.389 . S
C893 C894 1.524 . S
C894 C893 1.524 . S
C894 C895 1.397 . S
C894 C899 1.363 . S
C895 H866 0.950 . S
C895 C894 1.397 . S
C895 C896 1.334 . S
C896 H867 0.950 . S
C896 C895 1.334 . S
C896 C897 1.287 . S
C897 C896 1.287 . S
C897 C898 1.524 . S
C897 H900 0.999 . S
C898 H868 0.950 . S
C898 C897 1.524 . S
C898 C899 1.415 . S
C899 H869 0.950 . S
C899 C894 1.363 . S
C899 C898 1.415 . S
H900 C897 0.999 . S
H901 C882 0.913 . S
H902 C920 0.951 . S
H903 C922 0.951 . S
H904 C924 0.950 . S
H905 C925 0.950 . S
H906 C927 0.950 . S
H907 C930 0.950 . S
H908 C931 0.950 . S
H909 C933 0.950 . S
H910 C934 0.950 . S
H911 C935 0.953 1_554 S
H912 C937 0.951 . S
H913 C939 0.950 . S
H914 C940 0.950 . S
H915 C942 0.950 . S
H916 C945 0.950 . S
H917 C946 0.950 . S
H918 C948 0.950 . S
H919 C949 0.950 . S
C920 H902 0.951 . S
C920 C921 1.366 . S
C920 C922 1.388 . S
C921 C920 1.366 . S
C921 C925 1.385 . S
C922 H903 0.951 . S
C922 C920 1.388 . S
C922 C923 1.366 . S
C923 C922 1.366 . S
C923 C924 1.414 . S
C923 C926 1.499 . S
C924 H904 0.950 . S
C924 C923 1.414 . S
C924 C925 1.374 . S
C925 H905 0.950 . S
C925 C921 1.385 . S
C925 C924 1.374 . S
C926 C923 1.499 . S
C926 C927 1.373 . S
C926 C928 1.389 . S
C927 H906 0.950 . S
C927 C926 1.373 . S
C927 C943 1.377 . S
C928 C926 1.389 . S
C928 C929 1.524 . S
C928 C942 1.377 . S
C929 C928 1.524 . S
C929 C930 1.397 . S
C929 C934 1.363 . S
C930 H907 0.950 . S
C930 C929 1.397 . S
C930 C931 1.334 . S
C931 H908 0.950 . S
C931 C930 1.334 . S
C931 C932 1.287 . S
C932 C931 1.287 . S
C932 C933 1.524 . S
C932 H951 0.913 . S
C933 H909 0.950 . S
C933 C932 1.524 . S
C933 C934 1.415 . S
C934 H910 0.950 . S
C934 C929 1.363 . S
C934 C933 1.415 . S
C935 H911 0.953 1_556 S
C935 C936 1.366 . S
C935 C937 1.386 . S
C936 C935 1.366 . S
C936 C940 1.385 . S
C937 H912 0.951 . S
C937 C935 1.386 . S
C937 C938 1.366 . S
C938 C937 1.366 . S
C938 C939 1.414 . S
C938 C941 1.499 . S
C939 H913 0.950 . S
C939 C938 1.414 . S
C939 C940 1.374 . S
C940 H914 0.950 . S
C940 C936 1.385 . S
C940 C939 1.374 . S
C941 C938 1.499 . S
C941 C942 1.373 . S
C941 C943 1.389 . S
C942 H915 0.950 . S
C942 C928 1.377 . S
C942 C941 1.373 . S
C943 C927 1.377 . S
C943 C941 1.389 . S
C943 C944 1.524 1_556 S
C944 C943 1.524 1_554 S
C944 C945 1.397 . S
C944 C949 1.363 . S
C945 H916 0.950 . S
C945 C944 1.397 . S
C945 C946 1.334 . S
C946 H917 0.950 . S
C946 C945 1.334 . S
C946 C947 1.287 . S
C947 C946 1.287 . S
C947 C948 1.524 . S
C947 H950 0.999 . S
C948 H918 0.950 . S
C948 C947 1.524 . S
C948 C949 1.415 . S
C949 H919 0.950 . S
C949 C944 1.363 . S
C949 C948 1.415 . S
H950 C947 0.999 . S
H951 C932 0.913 . S
H952 C970 0.951 . S
H953 C972 0.951 . S
H954 C974 0.950 . S
H955 C975 0.989 . S
H956 C977 0.953 . S
H957 C980 0.950 . S
H958 C981 0.950 . S
H959 C983 0.950 . S
H960 C984 0.950 . S
H961 C985 0.951 . S
H962 C987 0.951 . S
H963 C989 0.950 . S
H964 C990 0.950 . S
H965 C992 0.950 . S
H966 C995 0.950 . S
H967 C996 0.950 . S
H968 C998 0.950 . S
H969 C999 0.950 . S
C970 H952 0.951 . S
C970 C971 1.366 . S
C970 C972 1.388 . S
C971 C970 1.366 . S
C971 C975 1.336 1_556 S
C972 H953 0.951 . S
C972 C970 1.388 . S
C972 C973 1.366 . S
C973 C972 1.366 . S
C973 C974 1.414 1_556 S
C973 C976 1.499 . S
C974 H954 0.950 . S
C974 C973 1.414 1_554 S
C974 C975 1.387 . S
C975 H955 0.989 . S
C975 C971 1.336 1_554 S
C975 C974 1.387 . S
C976 C973 1.499 . S
C976 C977 1.373 . S
C976 C978 1.389 . S
C977 H956 0.953 . S
C977 C976 1.373 . S
C977 C993 1.377 . S
C978 C976 1.389 . S
C978 C979 1.524 . S
C978 C992 1.377 . S
C979 C978 1.524 . S
C979 C980 1.397 1_556 S
C979 C984 1.363 . S
C980 H957 0.950 . S
C980 C979 1.397 1_554 S
C980 C981 1.334 . S
C981 H958 0.950 . S
C981 C980 1.334 . S
C981 C982 1.287 1_554 S
C982 C981 1.287 1_556 S
C982 C983 1.524 . S
C982 H1001 0.913 . S
C983 H959 0.950 . S
C983 C982 1.524 . S
C983 C984 1.415 . S
C984 H960 0.950 . S
C984 C979 1.363 . S
C984 C983 1.415 . S
C985 H961 0.951 . S
C985 C986 1.366 . S
C985 C987 1.388 . S
C986 C985 1.366 . S
C986 C990 1.385 1_554 S
C987 H962 0.951 . S
C987 C985 1.388 . S
C987 C988 1.336 1_554 S
C988 C987 1.336 1_556 S
C988 C989 1.436 . S
C988 C991 1.506 . S
C989 H963 0.950 . S
C989 C988 1.436 . S
C989 C990 1.374 . S
C990 H964 0.950 . S
C990 C986 1.385 1_556 S
C990 C989 1.374 . S
C991 C988 1.506 . S
C991 C992 1.373 . S
C991 C993 1.389 . S
C992 H965 0.950 . S
C992 C978 1.377 . S
C992 C991 1.373 . S
C993 C977 1.377 . S
C993 C991 1.389 . S
C993 C994 1.524 1_556 S
C994 C993 1.524 1_554 S
C994 C995 1.366 1_554 S
C994 C999 1.391 . S
C995 H966 0.950 . S
C995 C994 1.366 1_556 S
C995 C996 1.334 . S
C996 H967 0.950 . S
C996 C995 1.334 . S
C996 C997 1.280 1_556 S
C997 C996 1.280 1_554 S
C997 C998 1.532 . S
C997 H1000 0.999 . S
C998 H968 0.950 . S
C998 C997 1.532 . S
C998 C999 1.415 . S
C999 H969 0.950 . S
C999 C994 1.391 . S
C999 C998 1.415 . S
H1000 C997 0.999 . S
H1001 C982 0.913 . S
H1002 C1020 0.951 . S
H1003 C1022 0.951 . S
H1004 C1024 0.950 . S
H1005 C1025 0.950 . S
H1006 C1027 0.950 . S
H1007 C1030 0.950 . S
H1008 C1031 0.950 . S
H1009 C1033 0.950 . S
H1010 C1034 0.950 . S
H1011 C1035 0.973 . S
H1012 C1037 0.951 1_554 S
H1013 C1039 0.950 . S
H1014 C1040 0.950 . S
H1015 C1042 0.950 . S
H1016 C1045 0.950 . S
H1017 C1046 0.950 . S
H1018 C1048 0.950 . S
H1019 C1049 0.950 . S
C1020 H1002 0.951 . S
C1020 C1021 1.366 . S
C1020 C1022 1.388 . S
C1021 C1020 1.366 . S
C1021 C1025 1.385 . S
C1022 H1003 0.951 . S
C1022 C1020 1.388 . S
C1022 C1023 1.366 . S
C1023 C1022 1.366 . S
C1023 C1024 1.414 . S
C1023 C1026 1.499 . S
C1024 H1004 0.950 . S
C1024 C1023 1.414 . S
C1024 C1025 1.374 . S
C1025 H1005 0.950 . S
C1025 C1021 1.385 . S
C1025 C1024 1.374 . S
C1026 C1023 1.499 . S
C1026 C1027 1.373 . S
C1026 C1028 1.389 . S
C1027 H1006 0.950 . S
C1027 C1026 1.373 . S
C1027 C1043 1.377 . S
C1028 C1026 1.389 . S
C1028 C1029 1.524 . S
C1028 C1042 1.377 . S
C1029 C1028 1.524 . S
C1029 C1030 1.399 1_556 S
C1029 C1034 1.362 . S
C1030 H1007 0.950 . S
C1030 C1029 1.399 1_554 S
C1030 C1031 1.334 . S
C1031 H1008 0.950 . S
C1031 C1030 1.334 . S
C1031 C1032 1.287 . S
C1032 C1031 1.287 . S
C1032 C1033 1.524 . S
C1032 H1051 0.913 . S
C1033 H1009 0.950 . S
C1033 C1032 1.524 . S
C1033 C1034 1.415 1_554 S
C1034 H1010 0.950 . S
C1034 C1029 1.362 . S
C1034 C1033 1.415 1_556 S
C1035 H1011 0.973 . S
C1035 C1036 1.356 1_554 S
C1035 C1037 1.377 1_554 S
C1036 C1035 1.356 1_556 S
C1036 C1040 1.385 . S
C1037 H1012 0.951 1_556 S
C1037 C1035 1.377 1_556 S
C1037 C1038 1.366 . S
C1038 C1037 1.366 . S
C1038 C1039 1.414 . S
C1038 C1041 1.499 . S
C1039 H1013 0.950 . S
C1039 C1038 1.414 . S
C1039 C1040 1.374 . S
C1040 H1014 0.950 . S
C1040 C1036 1.385 . S
C1040 C1039 1.374 . S
C1041 C1038 1.499 . S
C1041 C1042 1.373 . S
C1041 C1043 1.389 . S
C1042 H1015 0.950 . S
C1042 C1028 1.377 . S
C1042 C1041 1.373 . S
C1043 C1027 1.377 . S
C1043 C1041 1.389 . S
C1043 C1044 1.524 . S
C1044 C1043 1.524 . S
C1044 C1045 1.397 . S
C1044 C1049 1.363 . S
C1045 H1016 0.950 . S
C1045 C1044 1.397 . S
C1045 C1046 1.334 . S
C1046 H1017 0.950 . S
C1046 C1045 1.334 . S
C1046 C1047 1.287 . S
C1047 C1046 1.287 . S
C1047 C1048 1.524 . S
C1047 H1050 0.999 . S
C1048 H1018 0.950 . S
C1048 C1047 1.524 . S
C1048 C1049 1.415 . S
C1049 H1019 0.950 . S
C1049 C1044 1.363 . S
C1049 C1048 1.415 . S
H1050 C1047 0.999 . S
H1051 C1032 0.913 . S
H1052 C1070 0.951 . S
H1053 C1072 0.951 . S
H1054 C1074 0.950 . S
H1055 C1075 0.950 . S
H1056 C1077 0.950 . S
H1057 C1080 0.950 . S
H1058 C1081 0.950 . S
H1059 C1083 0.950 . S
H1060 C1084 0.950 . S
H1061 C1085 0.999 . S
H1062 C1087 0.951 1_554 S
H1063 C1089 0.950 . S
H1064 C1090 0.950 . S
H1065 C1092 0.950 . S
H1066 C1095 0.950 . S
H1067 C1096 0.950 . S
H1068 C1098 0.950 . S
H1069 C1099 0.950 . S
C1070 H1052 0.951 . S
C1070 C1071 1.366 . S
C1070 C1072 1.388 . S
C1071 C1070 1.366 . S
C1071 C1075 1.385 . S
C1072 H1053 0.951 . S
C1072 C1070 1.388 . S
C1072 C1073 1.366 . S
C1073 C1072 1.366 . S
C1073 C1074 1.414 . S
C1073 C1076 1.499 . S
C1074 H1054 0.950 . S
C1074 C1073 1.414 . S
C1074 C1075 1.374 . S
C1075 H1055 0.950 . S
C1075 C1071 1.385 . S
C1075 C1074 1.374 . S
C1076 C1073 1.499 . S
C1076 C1077 1.373 . S
C1076 C1078 1.389 . S
C1077 H1056 0.950 . S
C1077 C1076 1.373 . S
C1077 C1093 1.377 . S
C1078 C1076 1.389 . S
C1078 C1079 1.524 . S
C1078 C1092 1.377 . S
C1079 C1078 1.524 . S
C1079 C1080 1.397 . S
C1079 C1084 1.363 . S
C1080 H1057 0.950 . S
C1080 C1079 1.397 . S
C1080 C1081 1.334 . S
C1081 H1058 0.950 . S
C1081 C1080 1.334 . S
C1081 C1082 1.287 . S
C1082 C1081 1.287 . S
C1082 C1083 1.524 . S
C1082 H1101 0.913 . S
C1083 H1059 0.950 . S
C1083 C1082 1.524 . S
C1083 C1084 1.415 . S
C1084 H1060 0.950 . S
C1084 C1079 1.363 . S
C1084 C1083 1.415 . S
C1085 H1061 0.999 . S
C1085 C1086 1.328 1_554 S
C1085 C1087 1.380 1_554 S
C1086 C1085 1.328 1_556 S
C1086 C1090 1.385 . S
C1087 H1062 0.951 1_556 S
C1087 C1085 1.380 1_556 S
C1087 C1088 1.366 . S
C1088 C1087 1.366 . S
C1088 C1089 1.414 . S
C1088 C1091 1.499 . S
C1089 H1063 0.950 . S
C1089 C1088 1.414 . S
C1089 C1090 1.374 . S
C1090 H1064 0.950 . S
C1090 C1086 1.385 . S
C1090 C1089 1.374 . S
C1091 C1088 1.499 . S
C1091 C1092 1.373 . S
C1091 C1093 1.389 . S
C1092 H1065 0.950 . S
C1092 C1078 1.377 . S
C1092 C1091 1.373 . S
C1093 C1077 1.377 . S
C1093 C1091 1.389 . S
C1093 C1094 1.524 1_556 S
C1094 C1093 1.524 1_554 S
C1094 C1095 1.397 1_554 S
C1094 C1099 1.363 . S
C1095 H1066 0.950 . S
C1095 C1094 1.397 1_556 S
C1095 C1096 1.334 1_556 S
C1096 H1067 0.950 . S
C1096 C1095 1.334 1_554 S
C1096 C1097 1.287 . S
C1097 C1096 1.287 . S
C1097 C1098 1.524 . S
C1097 H1100 0.999 . S
C1098 H1068 0.950 . S
C1098 C1097 1.524 . S
C1098 C1099 1.415 . S
C1099 H1069 0.950 . S
C1099 C1094 1.363 . S
C1099 C1098 1.415 . S
H1100 C1097 0.999 . S
H1101 C1082 0.913 . S
H1102 C1120 0.951 . S
H1103 C1122 0.951 . S
H1104 C1124 0.950 . S
H1105 C1125 0.950 . S
H1106 C1127 0.950 . S
H1107 C1130 0.950 . S
H1108 C1131 0.950 . S
H1109 C1133 0.950 . S
H1110 C1134 0.950 . S
H1111 C1135 0.951 . S
H1112 C1137 0.951 . S
H1113 C1139 0.950 . S
H1114 C1140 0.950 . S
H1115 C1142 0.931 1_556 S
H1116 C1145 0.908 1_556 S
H1117 C1146 0.950 1_556 S
H1118 C1148 0.950 . S
H1119 C1149 0.950 . S
C1120 H1102 0.951 . S
C1120 C1121 1.366 1_556 S
C1120 C1122 1.388 . S
C1121 C1120 1.366 1_554 S
C1121 C1125 1.385 . S
C1122 H1103 0.951 . S
C1122 C1120 1.388 . S
C1122 C1123 1.366 1_556 S
C1123 C1122 1.366 1_554 S
C1123 C1124 1.414 . S
C1123 C1126 1.499 . S
C1124 H1104 0.950 . S
C1124 C1123 1.414 . S
C1124 C1125 1.374 . S
C1125 H1105 0.950 . S
C1125 C1121 1.385 . S
C1125 C1124 1.374 . S
C1126 C1123 1.499 . S
C1126 C1127 1.373 . S
C1126 C1128 1.389 . S
C1127 H1106 0.950 . S
C1127 C1126 1.373 . S
C1127 C1143 1.377 . S
C1128 C1126 1.389 . S
C1128 C1129 1.524 1_554 S
C1128 C1142 1.377 . S
C1129 C1128 1.524 1_556 S
C1129 C1130 1.397 1_556 S
C1129 C1134 1.363 . S
C1130 H1107 0.950 . S
C1130 C1129 1.397 1_554 S
C1130 C1131 1.334 . S
C1131 H1108 0.950 . S
C1131 C1130 1.334 . S
C1131 C1132 1.287 1_554 S
C1132 C1131 1.287 1_556 S
C1132 C1133 1.524 . S
C1132 H1151 0.913 . S
C1133 H1109 0.950 . S
C1133 C1132 1.524 . S
C1133 C1134 1.415 . S
C1134 H1110 0.950 . S
C1134 C1129 1.363 . S
C1134 C1133 1.415 . S
C1135 H1111 0.951 . S
C1135 C1136 1.366 . S
C1135 C1137 1.388 . S
C1136 C1135 1.366 . S
C1136 C1140 1.385 1_554 S
C1137 H1112 0.951 . S
C1137 C1135 1.388 . S
C1137 C1138 1.366 . S
C1138 C1137 1.366 . S
C1138 C1139 1.414 1_554 S
C1138 C1141 1.499 . S
C1139 H1113 0.950 . S
C1139 C1138 1.414 1_556 S
C1139 C1140 1.374 . S
C1140 H1114 0.950 . S
C1140 C1136 1.385 1_556 S
C1140 C1139 1.374 . S
C1141 C1138 1.499 . S
C1141 C1142 1.373 . S
C1141 C1143 1.389 . S
C1142 H1115 0.931 1_554 S
C1142 C1128 1.377 . S
C1142 C1141 1.373 . S
C1143 C1127 1.377 . S
C1143 C1141 1.389 . S
C1143 C1144 1.524 . S
C1144 C1143 1.524 . S
C1144 C1145 1.433 . S
C1144 C1149 1.363 . S
C1145 H1116 0.908 1_554 S
C1145 C1144 1.433 . S
C1145 C1146 1.340 . S
C1146 H1117 0.950 1_554 S
C1146 C1145 1.340 . S
C1146 C1147 1.287 . S
C1147 C1146 1.287 . S
C1147 C1148 1.524 . S
C1147 H1150 0.999 . S
C1148 H1118 0.950 . S
C1148 C1147 1.524 . S
C1148 C1149 1.415 . S
C1149 H1119 0.950 . S
C1149 C1144 1.363 . S
C1149 C1148 1.415 . S
H1150 C1147 0.999 . S
H1151 C1132 0.913 . S
H1152 C1170 0.951 . S
H1153 C1172 0.951 . S
H1154 C1174 0.950 . S
H1155 C1175 0.950 . S
H1156 C1177 0.950 . S
H1157 C1180 0.950 . S
H1158 C1181 0.950 . S
H1159 C1183 0.950 . S
H1160 C1184 0.950 . S
H1161 C1185 0.951 . S
H1162 C1187 0.951 . S
H1163 C1189 0.950 . S
H1164 C1190 0.950 . S
H1165 C1192 0.950 . S
H1166 C1195 0.950 . S
H1167 C1196 0.950 . S
H1168 C1198 0.950 . S
H1169 C1199 0.998 . S
C1170 H1152 0.951 . S
C1170 C1171 1.366 . S
C1170 C1172 1.388 . S
C1171 C1170 1.366 . S
C1171 C1175 1.385 . S
C1172 H1153 0.951 . S
C1172 C1170 1.388 . S
C1172 C1173 1.366 . S
C1173 C1172 1.366 . S
C1173 C1174 1.414 . S
C1173 C1176 1.499 . S
C1174 H1154 0.950 . S
C1174 C1173 1.414 . S
C1174 C1175 1.374 . S
C1175 H1155 0.950 . S
C1175 C1171 1.385 . S
C1175 C1174 1.374 . S
C1176 C1173 1.499 . S
C1176 C1177 1.373 . S
C1176 C1178 1.389 . S
C1177 H1156 0.950 . S
C1177 C1176 1.373 . S
C1177 C1193 1.377 . S
C1178 C1176 1.389 . S
C1178 C1179 1.524 . S
C1178 C1192 1.377 . S
C1179 C1178 1.524 . S
C1179 C1180 1.397 . S
C1179 C1184 1.363 . S
C1180 H1157 0.950 . S
C1180 C1179 1.397 . S
C1180 C1181 1.334 . S
C1181 H1158 0.950 . S
C1181 C1180 1.334 . S
C1181 C1182 1.287 . S
C1182 C1181 1.287 . S
C1182 C1183 1.524 . S
C1182 H1201 0.913 . S
C1183 H1159 0.950 . S
C1183 C1182 1.524 . S
C1183 C1184 1.415 . S
C1184 H1160 0.950 . S
C1184 C1179 1.363 . S
C1184 C1183 1.415 . S
C1185 H1161 0.951 . S
C1185 C1186 1.366 . S
C1185 C1187 1.388 . S
C1186 C1185 1.366 . S
C1186 C1190 1.385 . S
C1187 H1162 0.951 . S
C1187 C1185 1.388 . S
C1187 C1188 1.366 . S
C1188 C1187 1.366 . S
C1188 C1189 1.414 . S
C1188 C1191 1.499 . S
C1189 H1163 0.950 . S
C1189 C1188 1.414 . S
C1189 C1190 1.374 . S
C1190 H1164 0.950 . S
C1190 C1186 1.385 . S
C1190 C1189 1.374 . S
C1191 C1188 1.499 . S
C1191 C1192 1.373 . S
C1191 C1193 1.389 . S
C1192 H1165 0.950 . S
C1192 C1178 1.377 . S
C1192 C1191 1.373 . S
C1193 C1177 1.377 . S
C1193 C1191 1.389 . S
C1193 C1194 1.516 1_554 S
C1194 C1193 1.516 1_556 S
C1194 C1195 1.406 . S
C1194 C1199 1.366 1_556 S
C1195 H1166 0.950 . S
C1195 C1194 1.406 . S
C1195 C1196 1.334 . S
C1196 H1167 0.950 . S
C1196 C1195 1.334 . S
C1196 C1197 1.287 . S
C1197 C1196 1.287 . S
C1197 C1198 1.524 . S
C1197 H1200 0.999 . S
C1198 H1168 0.950 . S
C1198 C1197 1.524 . S
C1198 C1199 1.369 1_556 S
C1199 H1169 0.998 . S
C1199 C1194 1.366 1_554 S
C1199 C1198 1.369 1_554 S
H1200 C1197 0.999 . S
H1201 C1182 0.913 . S
H1202 C1220 0.951 . S
H1203 C1222 0.951 . S
H1204 C1224 0.950 . S
H1205 C1225 0.950 . S
H1206 C1227 0.950 . S
H1207 C1230 0.950 . S
H1208 C1231 0.950 . S
H1209 C1233 0.950 . S
H1210 C1234 0.950 . S
H1211 C1235 0.951 . S
H1212 C1237 0.951 . S
H1213 C1239 0.950 . S
H1214 C1240 0.950 . S
H1215 C1242 0.950 . S
H1216 C1245 0.950 . S
H1217 C1246 0.950 . S
H1218 C1248 0.950 . S
H1219 C1249 0.950 . S
C1220 H1202 0.951 . S
C1220 C1221 1.366 . S
C1220 C1222 1.388 . S
C1221 C1220 1.366 . S
C1221 C1225 1.385 . S
C1222 H1203 0.951 . S
C1222 C1220 1.388 . S
C1222 C1223 1.366 . S
C1223 C1222 1.366 . S
C1223 C1224 1.414 . S
C1223 C1226 1.499 . S
C1224 H1204 0.950 . S
C1224 C1223 1.414 . S
C1224 C1225 1.374 . S
C1225 H1205 0.950 . S
C1225 C1221 1.385 . S
C1225 C1224 1.374 . S
C1226 C1223 1.499 . S
C1226 C1227 1.373 . S
C1226 C1228 1.389 . S
C1227 H1206 0.950 . S
C1227 C1226 1.373 . S
C1227 C1243 1.377 . S
C1228 C1226 1.389 . S
C1228 C1229 1.524 . S
C1228 C1242 1.377 . S
C1229 C1228 1.524 . S
C1229 C1230 1.397 . S
C1229 C1234 1.363 . S
C1230 H1207 0.950 . S
C1230 C1229 1.397 . S
C1230 C1231 1.334 . S
C1231 H1208 0.950 . S
C1231 C1230 1.334 . S
C1231 C1232 1.287 . S
C1232 C1231 1.287 . S
C1232 C1233 1.524 . S
C1232 H1251 0.913 . S
C1233 H1209 0.950 . S
C1233 C1232 1.524 . S
C1233 C1234 1.415 . S
C1234 H1210 0.950 . S
C1234 C1229 1.363 . S
C1234 C1233 1.415 . S
C1235 H1211 0.951 . S
C1235 C1236 1.366 . S
C1235 C1237 1.388 . S
C1236 C1235 1.366 . S
C1236 C1240 1.385 . S
C1237 H1212 0.951 . S
C1237 C1235 1.388 . S
C1237 C1238 1.366 . S
C1238 C1237 1.366 . S
C1238 C1239 1.414 . S
C1238 C1241 1.499 . S
C1239 H1213 0.950 . S
C1239 C1238 1.414 . S
C1239 C1240 1.374 . S
C1240 H1214 0.950 . S
C1240 C1236 1.385 . S
C1240 C1239 1.374 . S
C1241 C1238 1.499 . S
C1241 C1242 1.373 . S
C1241 C1243 1.389 . S
C1242 H1215 0.950 . S
C1242 C1228 1.377 . S
C1242 C1241 1.373 . S
C1243 C1227 1.377 . S
C1243 C1241 1.389 . S
C1243 C1244 1.524 . S
C1244 C1243 1.524 . S
C1244 C1245 1.397 . S
C1244 C1249 1.363 . S
C1245 H1216 0.950 . S
C1245 C1244 1.397 . S
C1245 C1246 1.334 . S
C1246 H1217 0.950 . S
C1246 C1245 1.334 . S
C1246 C1247 1.287 . S
C1247 C1246 1.287 . S
C1247 C1248 1.524 . S
C1247 H1250 0.999 . S
C1248 H1218 0.950 . S
C1248 C1247 1.524 . S
C1248 C1249 1.415 . S
C1249 H1219 0.950 . S
C1249 C1244 1.363 . S
C1249 C1248 1.415 . S
H1250 C1247 0.999 . S
H1251 C1232 0.913 . S
H1252 C1270 0.951 . S
H1253 C1272 0.954 . S
H1254 C1274 0.950 . S
H1255 C1275 0.950 . S
H1256 C1277 0.950 . S
H1257 C1280 0.979 . S
H1258 C1281 0.950 . S
H1259 C1283 0.950 . S
H1260 C1284 0.950 . S
H1261 C1285 0.951 . S
H1262 C1287 0.951 . S
H1263 C1289 0.946 1_556 S
H1264 C1290 0.950 . S
H1265 C1292 0.950 1_556 S
H1266 C1295 0.950 . S
H1267 C1296 0.950 . S
H1268 C1298 0.950 . S
H1269 C1299 0.950 . S
C1270 H1252 0.951 . S
C1270 C1271 1.366 . S
C1270 C1272 1.388 . S
C1271 C1270 1.366 . S
C1271 C1275 1.385 . S
C1272 H1253 0.954 . S
C1272 C1270 1.388 . S
C1272 C1273 1.366 . S
C1273 C1272 1.366 . S
C1273 C1274 1.414 . S
C1273 C1276 1.499 . S
C1274 H1254 0.950 . S
C1274 C1273 1.414 . S
C1274 C1275 1.374 . S
C1275 H1255 0.950 . S
C1275 C1271 1.385 . S
C1275 C1274 1.374 . S
C1276 C1273 1.499 . S
C1276 C1277 1.373 . S
C1276 C1278 1.389 . S
C1277 H1256 0.950 . S
C1277 C1276 1.373 . S
C1277 C1293 1.377 . S
C1278 C1276 1.389 . S
C1278 C1279 1.524 1_554 S
C1278 C1292 1.377 . S
C1279 C1278 1.524 1_556 S
C1279 C1280 1.397 . S
C1279 C1284 1.363 . S
C1280 H1257 0.979 . S
C1280 C1279 1.397 . S
C1280 C1281 1.334 . S
C1281 H1258 0.950 . S
C1281 C1280 1.334 . S
C1281 C1282 1.287 . S
C1282 C1281 1.287 . S
C1282 C1283 1.524 . S
C1282 H1301 0.913 . S
C1283 H1259 0.950 . S
C1283 C1282 1.524 . S
C1283 C1284 1.415 . S
C1284 H1260 0.950 . S
C1284 C1279 1.363 . S
C1284 C1283 1.415 . S
C1285 H1261 0.951 . S
C1285 C1286 1.366 . S
C1285 C1287 1.388 . S
C1286 C1285 1.366 . S
C1286 C1290 1.385 1_554 S
C1287 H1262 0.951 . S
C1287 C1285 1.388 . S
C1287 C1288 1.366 . S
C1288 C1287 1.366 . S
C1288 C1289 1.419 . S
C1288 C1291 1.499 . S
C1289 H1263 0.946 1_554 S
C1289 C1288 1.419 . S
C1289 C1290 1.373 1_554 S
C1290 H1264 0.950 . S
C1290 C1286 1.385 1_556 S
C1290 C1289 1.373 1_556 S
C1291 C1288 1.499 . S
C1291 C1292 1.373 . S
C1291 C1293 1.389 . S
C1292 H1265 0.950 1_554 S
C1292 C1278 1.377 . S
C1292 C1291 1.373 . S
C1293 C1277 1.377 . S
C1293 C1291 1.389 . S
C1293 C1294 1.524 . S
C1294 C1293 1.524 . S
C1294 C1295 1.397 . S
C1294 C1299 1.363 . S
C1295 H1266 0.950 . S
C1295 C1294 1.397 . S
C1295 C1296 1.334 . S
C1296 H1267 0.950 . S
C1296 C1295 1.334 . S
C1296 C1297 1.287 . S
C1297 C1296 1.287 . S
C1297 C1298 1.524 . S
C1297 H1300 0.999 . S
C1298 H1268 0.950 . S
C1298 C1297 1.524 . S
C1298 C1299 1.415 . S
C1299 H1269 0.950 . S
C1299 C1294 1.363 . S
C1299 C1298 1.415 . S
H1300 C1297 0.999 . S
H1301 C1282 0.913 . S
H1302 C1320 0.951 . S
H1303 C1322 0.951 . S
H1304 C1324 0.950 . S
H1305 C1325 0.950 . S
H1306 C1327 0.950 . S
H1307 C1330 0.950 . S
H1308 C1331 0.950 . S
H1309 C1333 0.950 . S
H1310 C1334 0.950 . S
H1311 C1335 0.951 . S
H1312 C1337 0.951 . S
H1313 C1339 0.950 . S
H1314 C1340 0.950 . S
H1315 C1342 0.950 . S
H1316 C1345 0.950 . S
H1317 C1346 0.950 . S
H1318 C1348 0.950 . S
H1319 C1349 0.950 . S
C1320 H1302 0.951 . S
C1320 C1321 1.366 . S
C1320 C1322 1.388 . S
C1321 C1320 1.366 . S
C1321 C1325 1.385 . S
C1322 H1303 0.951 . S
C1322 C1320 1.388 . S
C1322 C1323 1.366 . S
C1323 C1322 1.366 . S
C1323 C1324 1.414 . S
C1323 C1326 1.499 . S
C1324 H1304 0.950 . S
C1324 C1323 1.414 . S
C1324 C1325 1.374 . S
C1325 H1305 0.950 . S
C1325 C1321 1.385 . S
C1325 C1324 1.374 . S
C1326 C1323 1.499 . S
C1326 C1327 1.373 . S
C1326 C1328 1.389 . S
C1327 H1306 0.950 . S
C1327 C1326 1.373 . S
C1327 C1343 1.377 . S
C1328 C1326 1.389 . S
C1328 C1329 1.524 . S
C1328 C1342 1.377 1_655 S
C1329 C1328 1.524 . S
C1329 C1330 1.397 . S
C1329 C1334 1.363 . S
C1330 H1307 0.950 . S
C1330 C1329 1.397 . S
C1330 C1331 1.334 . S
C1331 H1308 0.950 . S
C1331 C1330 1.334 . S
C1331 C1332 1.287 . S
C1332 C1331 1.287 . S
C1332 C1333 1.524 . S
C1332 H1351 0.913 . S
C1333 H1309 0.950 . S
C1333 C1332 1.524 . S
C1333 C1334 1.415 . S
C1334 H1310 0.950 . S
C1334 C1329 1.363 . S
C1334 C1333 1.415 . S
C1335 H1311 0.951 . S
C1335 C1336 1.366 . S
C1335 C1337 1.388 . S
C1336 C1335 1.366 . S
C1336 C1340 1.385 . S
C1337 H1312 0.951 . S
C1337 C1335 1.388 . S
C1337 C1338 1.366 . S
C1338 C1337 1.366 . S
C1338 C1339 1.414 . S
C1338 C1341 1.499 . S
C1339 H1313 0.950 . S
C1339 C1338 1.414 . S
C1339 C1340 1.374 . S
C1340 H1314 0.950 . S
C1340 C1336 1.385 . S
C1340 C1339 1.374 . S
C1341 C1338 1.499 . S
C1341 C1342 1.373 . S
C1341 C1343 1.389 1_455 S
C1342 H1315 0.950 . S
C1342 C1328 1.377 1_455 S
C1342 C1341 1.373 . S
C1343 C1327 1.377 . S
C1343 C1341 1.389 1_655 S
C1343 C1344 1.524 . S
C1344 C1343 1.524 . S
C1344 C1345 1.397 1_655 S
C1344 C1349 1.363 . S
C1345 H1316 0.950 . S
C1345 C1344 1.397 1_455 S
C1345 C1346 1.334 . S
C1346 H1317 0.950 . S
C1346 C1345 1.334 . S
C1346 C1347 1.287 . S
C1347 C1346 1.287 . S
C1347 C1348 1.524 1_455 S
C1347 H1350 0.999 . S
C1348 H1318 0.950 . S
C1348 C1347 1.524 1_655 S
C1348 C1349 1.415 . S
C1349 H1319 0.950 . S
C1349 C1344 1.363 . S
C1349 C1348 1.415 . S
H1350 C1347 0.999 . S
H1351 C1332 0.913 . S
H1352 C1370 0.951 . S
H1353 C1372 0.951 . S
H1354 C1374 0.950 . S
H1355 C1375 0.950 . S
H1356 C1377 0.950 . S
H1357 C1380 0.950 . S
H1358 C1381 0.950 . S
H1359 C1383 0.950 . S
H1360 C1384 0.950 . S
H1361 C1385 0.951 . S
H1362 C1387 0.951 . S
H1363 C1389 0.950 . S
H1364 C1390 0.950 . S
H1365 C1392 0.950 . S
H1366 C1395 0.950 . S
H1367 C1396 0.950 . S
H1368 C1398 0.950 . S
H1369 C1399 0.950 . S
C1370 H1352 0.951 . S
C1370 C1371 1.366 . S
C1370 C1372 1.388 . S
C1371 C1370 1.366 . S
C1371 C1375 1.385 . S
C1372 H1353 0.951 . S
C1372 C1370 1.388 . S
C1372 C1373 1.366 . S
C1373 C1372 1.366 . S
C1373 C1374 1.414 . S
C1373 C1376 1.499 . S
C1374 H1354 0.950 . S
C1374 C1373 1.414 . S
C1374 C1375 1.374 . S
C1375 H1355 0.950 . S
C1375 C1371 1.385 . S
C1375 C1374 1.374 . S
C1376 C1373 1.499 . S
C1376 C1377 1.373 . S
C1376 C1378 1.389 . S
C1377 H1356 0.950 . S
C1377 C1376 1.373 . S
C1377 C1393 1.377 . S
C1378 C1376 1.389 . S
C1378 C1379 1.524 . S
C1378 C1392 1.377 . S
C1379 C1378 1.524 . S
C1379 C1380 1.397 . S
C1379 C1384 1.363 . S
C1380 H1357 0.950 . S
C1380 C1379 1.397 . S
C1380 C1381 1.334 . S
C1381 H1358 0.950 . S
C1381 C1380 1.334 . S
C1381 C1382 1.287 . S
C1382 C1381 1.287 . S
C1382 C1383 1.524 . S
C1382 H1401 0.913 . S
C1383 H1359 0.950 . S
C1383 C1382 1.524 . S
C1383 C1384 1.415 . S
C1384 H1360 0.950 . S
C1384 C1379 1.363 . S
C1384 C1383 1.415 . S
C1385 H1361 0.951 . S
C1385 C1386 1.366 . S
C1385 C1387 1.388 . S
C1386 C1385 1.366 . S
C1386 C1390 1.385 . S
C1387 H1362 0.951 . S
C1387 C1385 1.388 . S
C1387 C1388 1.366 . S
C1388 C1387 1.366 . S
C1388 C1389 1.414 . S
C1388 C1391 1.499 . S
C1389 H1363 0.950 . S
C1389 C1388 1.414 . S
C1389 C1390 1.374 . S
C1390 H1364 0.950 . S
C1390 C1386 1.385 . S
C1390 C1389 1.374 . S
C1391 C1388 1.499 . S
C1391 C1392 1.373 . S
C1391 C1393 1.389 . S
C1392 H1365 0.950 . S
C1392 C1378 1.377 . S
C1392 C1391 1.373 . S
C1393 C1377 1.377 . S
C1393 C1391 1.389 . S
C1393 C1394 1.524 . S
C1394 C1393 1.524 . S
C1394 C1395 1.397 . S
C1394 C1399 1.363 . S
C1395 H1366 0.950 . S
C1395 C1394 1.397 . S
C1395 C1396 1.334 . S
C1396 H1367 0.950 . S
C1396 C1395 1.334 . S
C1396 C1397 1.287 . S
C1397 C1396 1.287 . S
C1397 C1398 1.524 . S
C1397 H1400 0.999 . S
C1398 H1368 0.950 . S
C1398 C1397 1.524 . S
C1398 C1399 1.415 . S
C1399 H1369 0.950 . S
C1399 C1394 1.363 . S
C1399 C1398 1.415 . S
H1400 C1397 0.999 . S
H1401 C1382 0.913 . S
H1402 C1420 0.951 . S
H1403 C1422 0.951 . S
H1404 C1424 0.950 . S
H1405 C1425 0.950 . S
H1406 C1427 0.950 . S
H1407 C1430 0.950 . S
H1408 C1431 0.950 . S
H1409 C1433 0.950 . S
H1410 C1434 0.950 . S
H1411 C1435 0.951 . S
H1412 C1437 0.951 . S
H1413 C1439 0.950 . S
H1414 C1440 0.950 . S
H1415 C1442 0.950 . S
H1416 C1445 0.950 . S
H1417 C1446 0.950 . S
H1418 C1448 0.950 . S
H1419 C1449 0.950 . S
C1420 H1402 0.951 . S
C1420 C1421 1.366 . S
C1420 C1422 1.388 . S
C1421 C1420 1.366 . S
C1421 C1425 1.385 . S
C1422 H1403 0.951 . S
C1422 C1420 1.388 . S
C1422 C1423 1.366 . S
C1423 C1422 1.366 . S
C1423 C1424 1.414 . S
C1423 C1426 1.499 . S
C1424 H1404 0.950 . S
C1424 C1423 1.414 . S
C1424 C1425 1.374 . S
C1425 H1405 0.950 . S
C1425 C1421 1.385 . S
C1425 C1424 1.374 . S
C1426 C1423 1.499 . S
C1426 C1427 1.373 . S
C1426 C1428 1.389 . S
C1427 H1406 0.950 . S
C1427 C1426 1.373 . S
C1427 C1443 1.377 . S
C1428 C1426 1.389 . S
C1428 C1429 1.524 . S
C1428 C1442 1.377 . S
C1429 C1428 1.524 . S
C1429 C1430 1.397 . S
C1429 C1434 1.363 . S
C1430 H1407 0.950 . S
C1430 C1429 1.397 . S
C1430 C1431 1.334 . S
C1431 H1408 0.950 . S
C1431 C1430 1.334 . S
C1431 C1432 1.287 . S
C1432 C1431 1.287 . S
C1432 C1433 1.524 . S
C1432 H1451 0.913 . S
C1433 H1409 0.950 . S
C1433 C1432 1.524 . S
C1433 C1434 1.415 . S
C1434 H1410 0.950 . S
C1434 C1429 1.363 . S
C1434 C1433 1.415 . S
C1435 H1411 0.951 . S
C1435 C1436 1.366 . S
C1435 C1437 1.388 . S
C1436 C1435 1.366 . S
C1436 C1440 1.385 . S
C1437 H1412 0.951 . S
C1437 C1435 1.388 . S
C1437 C1438 1.366 . S
C1438 C1437 1.366 . S
C1438 C1439 1.414 . S
C1438 C1441 1.499 1_565 S
C1439 H1413 0.950 . S
C1439 C1438 1.414 . S
C1439 C1440 1.374 . S
C1440 H1414 0.950 . S
C1440 C1436 1.385 . S
C1440 C1439 1.374 . S
C1441 C1438 1.499 1_545 S
C1441 C1442 1.373 . S
C1441 C1443 1.389 . S
C1442 H1415 0.950 . S
C1442 C1428 1.377 . S
C1442 C1441 1.373 . S
C1443 C1427 1.377 . S
C1443 C1441 1.389 . S
C1443 C1444 1.524 1_545 S
C1444 C1443 1.524 1_565 S
C1444 C1445 1.397 . S
C1444 C1449 1.363 . S
C1445 H1416 0.950 . S
C1445 C1444 1.397 . S
C1445 C1446 1.334 . S
C1446 H1417 0.950 . S
C1446 C1445 1.334 . S
C1446 C1447 1.287 . S
C1447 C1446 1.287 . S
C1447 C1448 1.524 . S
C1447 H1450 0.999 . S
C1448 H1418 0.950 . S
C1448 C1447 1.524 . S
C1448 C1449 1.415 . S
C1449 H1419 0.950 . S
C1449 C1444 1.363 . S
C1449 C1448 1.415 . S
H1450 C1447 0.999 . S
H1451 C1432 0.913 . S
H1452 C1470 0.951 . S
H1453 C1472 0.951 . S
H1454 C1474 0.950 . S
H1455 C1475 0.950 . S
H1456 C1477 0.950 . S
H1457 C1480 0.950 . S
H1458 C1481 0.950 . S
H1459 C1483 0.950 . S
H1460 C1484 0.950 . S
H1461 C1485 0.951 . S
H1462 C1487 0.951 . S
H1463 C1489 0.950 . S
H1464 C1490 0.950 . S
H1465 C1492 0.950 . S
H1466 C1495 0.950 . S
H1467 C1496 0.950 . S
H1468 C1498 0.950 . S
H1469 C1499 0.950 . S
C1470 H1452 0.951 . S
C1470 C1471 1.366 . S
C1470 C1472 1.388 . S
C1471 C1470 1.366 . S
C1471 C1475 1.385 . S
C1472 H1453 0.951 . S
C1472 C1470 1.388 . S
C1472 C1473 1.366 . S
C1473 C1472 1.366 . S
C1473 C1474 1.414 . S
C1473 C1476 1.499 . S
C1474 H1454 0.950 . S
C1474 C1473 1.414 . S
C1474 C1475 1.374 . S
C1475 H1455 0.950 . S
C1475 C1471 1.385 . S
C1475 C1474 1.374 . S
C1476 C1473 1.499 . S
C1476 C1477 1.373 . S
C1476 C1478 1.389 . S
C1477 H1456 0.950 . S
C1477 C1476 1.373 . S
C1477 C1493 1.377 . S
C1478 C1476 1.389 . S
C1478 C1479 1.524 . S
C1478 C1492 1.377 . S
C1479 C1478 1.524 . S
C1479 C1480 1.397 . S
C1479 C1484 1.363 . S
C1480 H1457 0.950 . S
C1480 C1479 1.397 . S
C1480 C1481 1.334 . S
C1481 H1458 0.950 . S
C1481 C1480 1.334 . S
C1481 C1482 1.287 . S
C1482 C1481 1.287 . S
C1482 C1483 1.524 . S
C1482 H1501 0.913 . S
C1483 H1459 0.950 . S
C1483 C1482 1.524 . S
C1483 C1484 1.415 . S
C1484 H1460 0.950 . S
C1484 C1479 1.363 . S
C1484 C1483 1.415 . S
C1485 H1461 0.951 . S
C1485 C1486 1.366 . S
C1485 C1487 1.388 . S
C1486 C1485 1.366 . S
C1486 C1490 1.385 . S
C1487 H1462 0.951 . S
C1487 C1485 1.388 . S
C1487 C1488 1.366 . S
C1488 C1487 1.366 . S
C1488 C1489 1.414 . S
C1488 C1491 1.499 . S
C1489 H1463 0.950 . S
C1489 C1488 1.414 . S
C1489 C1490 1.374 . S
C1490 H1464 0.950 . S
C1490 C1486 1.385 . S
C1490 C1489 1.374 . S
C1491 C1488 1.499 . S
C1491 C1492 1.373 . S
C1491 C1493 1.389 . S
C1492 H1465 0.950 . S
C1492 C1478 1.377 . S
C1492 C1491 1.373 . S
C1493 C1477 1.377 . S
C1493 C1491 1.389 . S
C1493 C1494 1.524 . S
C1494 C1493 1.524 . S
C1494 C1495 1.397 . S
C1494 C1499 1.363 . S
C1495 H1466 0.950 . S
C1495 C1494 1.397 . S
C1495 C1496 1.334 . S
C1496 H1467 0.950 . S
C1496 C1495 1.334 . S
C1496 C1497 1.287 . S
C1497 C1496 1.287 . S
C1497 C1498 1.524 . S
C1497 H1500 0.999 . S
C1498 H1468 0.950 . S
C1498 C1497 1.524 . S
C1498 C1499 1.415 . S
C1499 H1469 0.950 . S
C1499 C1494 1.363 . S
C1499 C1498 1.415 . S
H1500 C1497 0.999 . S
H1501 C1482 0.913 . S
H1502 C1520 0.951 . S
H1503 C1522 0.951 . S
H1504 C1524 0.950 . S
H1505 C1525 0.950 . S
H1506 C1527 0.950 . S
H1507 C1530 0.950 . S
H1508 C1531 0.950 . S
H1509 C1533 0.950 . S
H1510 C1534 0.950 . S
H1511 C1535 0.951 . S
H1512 C1537 0.951 . S
H1513 C1539 0.950 . S
H1514 C1540 0.950 . S
H1515 C1542 0.950 . S
H1516 C1545 0.950 . S
H1517 C1546 0.950 . S
H1518 C1548 0.950 . S
H1519 C1549 0.950 . S
C1520 H1502 0.951 . S
C1520 C1521 1.366 . S
C1520 C1522 1.388 . S
C1521 C1520 1.366 . S
C1521 C1525 1.385 . S
C1522 H1503 0.951 . S
C1522 C1520 1.388 . S
C1522 C1523 1.366 . S
C1523 C1522 1.366 . S
C1523 C1524 1.414 . S
C1523 C1526 1.499 . S
C1524 H1504 0.950 . S
C1524 C1523 1.414 . S
C1524 C1525 1.374 . S
C1525 H1505 0.950 . S
C1525 C1521 1.385 . S
C1525 C1524 1.374 . S
C1526 C1523 1.499 . S
C1526 C1527 1.373 . S
C1526 C1528 1.389 . S
C1527 H1506 0.950 . S
C1527 C1526 1.373 . S
C1527 C1543 1.377 . S
C1528 C1526 1.389 . S
C1528 C1529 1.524 . S
C1528 C1542 1.377 . S
C1529 C1528 1.524 . S
C1529 C1530 1.397 . S
C1529 C1534 1.363 . S
C1530 H1507 0.950 . S
C1530 C1529 1.397 . S
C1530 C1531 1.334 . S
C1531 H1508 0.950 . S
C1531 C1530 1.334 . S
C1531 C1532 1.287 . S
C1532 C1531 1.287 . S
C1532 C1533 1.524 . S
C1532 H1551 0.913 . S
C1533 H1509 0.950 . S
C1533 C1532 1.524 . S
C1533 C1534 1.415 . S
C1534 H1510 0.950 . S
C1534 C1529 1.363 . S
C1534 C1533 1.415 . S
C1535 H1511 0.951 . S
C1535 C1536 1.366 . S
C1535 C1537 1.388 . S
C1536 C1535 1.366 . S
C1536 C1540 1.385 . S
C1537 H1512 0.951 . S
C1537 C1535 1.388 . S
C1537 C1538 1.366 . S
C1538 C1537 1.366 . S
C1538 C1539 1.414 . S
C1538 C1541 1.499 . S
C1539 H1513 0.950 . S
C1539 C1538 1.414 . S
C1539 C1540 1.374 . S
C1540 H1514 0.950 . S
C1540 C1536 1.385 . S
C1540 C1539 1.374 . S
C1541 C1538 1.499 . S
C1541 C1542 1.373 . S
C1541 C1543 1.389 . S
C1542 H1515 0.950 . S
C1542 C1528 1.377 . S
C1542 C1541 1.373 . S
C1543 C1527 1.377 . S
C1543 C1541 1.389 . S
C1543 C1544 1.524 . S
C1544 C1543 1.524 . S
C1544 C1545 1.397 . S
C1544 C1549 1.363 . S
C1545 H1516 0.950 . S
C1545 C1544 1.397 . S
C1545 C1546 1.334 . S
C1546 H1517 0.950 . S
C1546 C1545 1.334 . S
C1546 C1547 1.287 . S
C1547 C1546 1.287 . S
C1547 C1548 1.524 . S
C1547 H1550 0.999 . S
C1548 H1518 0.950 . S
C1548 C1547 1.524 . S
C1548 C1549 1.415 . S
C1549 H1519 0.950 . S
C1549 C1544 1.363 . S
C1549 C1548 1.415 . S
H1550 C1547 0.999 . S
H1551 C1532 0.913 . S
H1552 C1570 0.951 . S
H1553 C1572 0.951 . S
H1554 C1574 0.950 . S
H1555 C1575 0.950 . S
H1556 C1577 0.950 . S
H1557 C1580 0.950 . S
H1558 C1581 0.950 . S
H1559 C1583 0.950 . S
H1560 C1584 0.950 . S
H1561 C1585 0.951 . S
H1562 C1587 0.951 . S
H1563 C1589 0.950 . S
H1564 C1590 0.950 . S
H1565 C1592 0.950 . S
H1566 C1595 0.950 . S
H1567 C1596 0.950 . S
H1568 C1598 0.950 . S
H1569 C1599 0.950 . S
C1570 H1552 0.951 . S
C1570 C1571 1.366 . S
C1570 C1572 1.388 . S
C1571 C1570 1.366 . S
C1571 C1575 1.385 . S
C1572 H1553 0.951 . S
C1572 C1570 1.388 . S
C1572 C1573 1.366 . S
C1573 C1572 1.366 . S
C1573 C1574 1.414 . S
C1573 C1576 1.499 . S
C1574 H1554 0.950 . S
C1574 C1573 1.414 . S
C1574 C1575 1.374 . S
C1575 H1555 0.950 . S
C1575 C1571 1.385 . S
C1575 C1574 1.374 . S
C1576 C1573 1.499 . S
C1576 C1577 1.373 . S
C1576 C1578 1.389 . S
C1577 H1556 0.950 . S
C1577 C1576 1.373 . S
C1577 C1593 1.377 . S
C1578 C1576 1.389 . S
C1578 C1579 1.524 . S
C1578 C1592 1.377 . S
C1579 C1578 1.524 . S
C1579 C1580 1.397 . S
C1579 C1584 1.363 . S
C1580 H1557 0.950 . S
C1580 C1579 1.397 . S
C1580 C1581 1.334 . S
C1581 H1558 0.950 . S
C1581 C1580 1.334 . S
C1581 C1582 1.287 . S
C1582 C1581 1.287 . S
C1582 C1583 1.524 . S
C1582 H1601 0.913 . S
C1583 H1559 0.950 . S
C1583 C1582 1.524 . S
C1583 C1584 1.415 . S
C1584 H1560 0.950 . S
C1584 C1579 1.363 . S
C1584 C1583 1.415 . S
C1585 H1561 0.951 . S
C1585 C1586 1.366 . S
C1585 C1587 1.388 . S
C1586 C1585 1.366 . S
C1586 C1590 1.385 . S
C1587 H1562 0.951 . S
C1587 C1585 1.388 . S
C1587 C1588 1.366 . S
C1588 C1587 1.366 . S
C1588 C1589 1.414 . S
C1588 C1591 1.499 . S
C1589 H1563 0.950 . S
C1589 C1588 1.414 . S
C1589 C1590 1.374 . S
C1590 H1564 0.950 . S
C1590 C1586 1.385 . S
C1590 C1589 1.374 . S
C1591 C1588 1.499 . S
C1591 C1592 1.373 . S
C1591 C1593 1.389 . S
C1592 H1565 0.950 . S
C1592 C1578 1.377 . S
C1592 C1591 1.373 . S
C1593 C1577 1.377 . S
C1593 C1591 1.389 . S
C1593 C1594 1.524 . S
C1594 C1593 1.524 . S
C1594 C1595 1.397 . S
C1594 C1599 1.363 . S
C1595 H1566 0.950 . S
C1595 C1594 1.397 . S
C1595 C1596 1.334 . S
C1596 H1567 0.950 . S
C1596 C1595 1.334 . S
C1596 C1597 1.287 . S
C1597 C1596 1.287 . S
C1597 C1598 1.524 . S
C1597 H1600 0.999 . S
C1598 H1568 0.950 . S
C1598 C1597 1.524 . S
C1598 C1599 1.415 . S
C1599 H1569 0.950 . S
C1599 C1594 1.363 . S
C1599 C1598 1.415 . S
H1600 C1597 0.999 . S
H1601 C1582 0.913 . S
H1602 C1620 0.951 . S
H1603 C1622 0.951 . S
H1604 C1624 0.950 . S
H1605 C1625 0.950 . S
H1606 C1627 0.950 . S
H1607 C1630 0.950 . S
H1608 C1631 0.950 . S
H1609 C1633 0.950 . S
H1610 C1634 0.950 . S
H1611 C1635 0.951 . S
H1612 C1637 0.951 . S
H1613 C1639 0.950 . S
H1614 C1640 0.950 . S
H1615 C1642 0.950 . S
H1616 C1645 0.950 . S
H1617 C1646 0.950 . S
H1618 C1648 0.950 . S
H1619 C1649 0.950 . S
C1620 H1602 0.951 . S
C1620 C1621 1.366 . S
C1620 C1622 1.388 . S
C1621 C1620 1.366 . S
C1621 C1625 1.385 . S
C1622 H1603 0.951 . S
C1622 C1620 1.388 . S
C1622 C1623 1.366 . S
C1623 C1622 1.366 . S
C1623 C1624 1.414 . S
C1623 C1626 1.499 . S
C1624 H1604 0.950 . S
C1624 C1623 1.414 . S
C1624 C1625 1.374 . S
C1625 H1605 0.950 . S
C1625 C1621 1.385 . S
C1625 C1624 1.374 . S
C1626 C1623 1.499 . S
C1626 C1627 1.373 . S
C1626 C1628 1.389 . S
C1627 H1606 0.950 . S
C1627 C1626 1.373 . S
C1627 C1643 1.377 . S
C1628 C1626 1.389 . S
C1628 C1629 1.524 . S
C1628 C1642 1.377 . S
C1629 C1628 1.524 . S
C1629 C1630 1.397 . S
C1629 C1634 1.363 . S
C1630 H1607 0.950 . S
C1630 C1629 1.397 . S
C1630 C1631 1.334 . S
C1631 H1608 0.950 . S
C1631 C1630 1.334 . S
C1631 C1632 1.287 . S
C1632 C1631 1.287 . S
C1632 C1633 1.524 . S
C1632 H1651 0.913 . S
C1633 H1609 0.950 . S
C1633 C1632 1.524 . S
C1633 C1634 1.415 . S
C1634 H1610 0.950 . S
C1634 C1629 1.363 . S
C1634 C1633 1.415 . S
C1635 H1611 0.951 . S
C1635 C1636 1.366 . S
C1635 C1637 1.388 . S
C1636 C1635 1.366 . S
C1636 C1640 1.385 . S
C1637 H1612 0.951 . S
C1637 C1635 1.388 . S
C1637 C1638 1.366 . S
C1638 C1637 1.366 . S
C1638 C1639 1.414 . S
C1638 C1641 1.499 . S
C1639 H1613 0.950 . S
C1639 C1638 1.414 . S
C1639 C1640 1.374 . S
C1640 H1614 0.950 . S
C1640 C1636 1.385 . S
C1640 C1639 1.374 . S
C1641 C1638 1.499 . S
C1641 C1642 1.373 . S
C1641 C1643 1.389 . S
C1642 H1615 0.950 . S
C1642 C1628 1.377 . S
C1642 C1641 1.373 . S
C1643 C1627 1.377 . S
C1643 C1641 1.389 . S
C1643 C1644 1.524 . S
C1644 C1643 1.524 . S
C1644 C1645 1.397 . S
C1644 C1649 1.363 . S
C1645 H1616 0.950 . S
C1645 C1644 1.397 . S
C1645 C1646 1.334 . S
C1646 H1617 0.950 . S
C1646 C1645 1.334 . S
C1646 C1647 1.287 . S
C1647 C1646 1.287 . S
C1647 C1648 1.524 . S
C1647 H1650 0.999 . S
C1648 H1618 0.950 . S
C1648 C1647 1.524 . S
C1648 C1649 1.415 . S
C1649 H1619 0.950 . S
C1649 C1644 1.363 . S
C1649 C1648 1.415 . S
H1650 C1647 0.999 . S
H1651 C1632 0.913 . S
H1652 C1670 0.951 . S
H1653 C1672 0.951 . S
H1654 C1674 0.950 . S
H1655 C1675 0.950 . S
H1656 C1677 0.950 . S
H1657 C1680 0.950 . S
H1658 C1681 0.950 . S
H1659 C1683 0.950 . S
H1660 C1684 0.950 . S
H1661 C1685 0.951 . S
H1662 C1687 0.951 . S
H1663 C1689 0.950 . S
H1664 C1690 0.950 . S
H1665 C1692 0.950 . S
H1666 C1695 0.950 . S
H1667 C1696 0.950 . S
H1668 C1698 0.950 . S
H1669 C1699 0.950 . S
C1670 H1652 0.951 . S
C1670 C1671 1.366 . S
C1670 C1672 1.388 . S
C1671 C1670 1.366 . S
C1671 C1675 1.385 . S
C1672 H1653 0.951 . S
C1672 C1670 1.388 . S
C1672 C1673 1.366 . S
C1673 C1672 1.366 . S
C1673 C1674 1.414 . S
C1673 C1676 1.499 . S
C1674 H1654 0.950 . S
C1674 C1673 1.414 . S
C1674 C1675 1.374 . S
C1675 H1655 0.950 . S
C1675 C1671 1.385 . S
C1675 C1674 1.374 . S
C1676 C1673 1.499 . S
C1676 C1677 1.373 . S
C1676 C1678 1.389 . S
C1677 H1656 0.950 . S
C1677 C1676 1.373 . S
C1677 C1693 1.377 . S
C1678 C1676 1.389 . S
C1678 C1679 1.524 . S
C1678 C1692 1.377 . S
C1679 C1678 1.524 . S
C1679 C1680 1.397 . S
C1679 C1684 1.363 . S
C1680 H1657 0.950 . S
C1680 C1679 1.397 . S
C1680 C1681 1.334 . S
C1681 H1658 0.950 . S
C1681 C1680 1.334 . S
C1681 C1682 1.287 . S
C1682 C1681 1.287 . S
C1682 C1683 1.524 . S
C1682 H1701 0.913 . S
C1683 H1659 0.950 . S
C1683 C1682 1.524 . S
C1683 C1684 1.415 . S
C1684 H1660 0.950 . S
C1684 C1679 1.363 . S
C1684 C1683 1.415 . S
C1685 H1661 0.951 . S
C1685 C1686 1.366 . S
C1685 C1687 1.388 . S
C1686 C1685 1.366 . S
C1686 C1690 1.385 . S
C1687 H1662 0.951 . S
C1687 C1685 1.388 . S
C1687 C1688 1.366 . S
C1688 C1687 1.366 . S
C1688 C1689 1.414 . S
C1688 C1691 1.499 . S
C1689 H1663 0.950 . S
C1689 C1688 1.414 . S
C1689 C1690 1.374 . S
C1690 H1664 0.950 . S
C1690 C1686 1.385 . S
C1690 C1689 1.374 . S
C1691 C1688 1.499 . S
C1691 C1692 1.373 . S
C1691 C1693 1.389 . S
C1692 H1665 0.950 . S
C1692 C1678 1.377 . S
C1692 C1691 1.373 . S
C1693 C1677 1.377 . S
C1693 C1691 1.389 . S
C1693 C1694 1.524 . S
C1694 C1693 1.524 . S
C1694 C1695 1.397 . S
C1694 C1699 1.363 . S
C1695 H1666 0.950 . S
C1695 C1694 1.397 . S
C1695 C1696 1.334 . S
C1696 H1667 0.950 . S
C1696 C1695 1.334 . S
C1696 C1697 1.287 . S
C1697 C1696 1.287 . S
C1697 C1698 1.524 . S
C1697 H1700 0.999 . S
C1698 H1668 0.950 . S
C1698 C1697 1.524 . S
C1698 C1699 1.415 . S
C1699 H1669 0.950 . S
C1699 C1694 1.363 . S
C1699 C1698 1.415 . S
H1700 C1697 0.999 . S
H1701 C1682 0.913 . S
H1702 C1720 0.951 . S
H1703 C1722 0.951 . S
H1704 C1724 0.950 . S
H1705 C1725 0.950 . S
H1706 C1727 0.950 . S
H1707 C1730 0.950 . S
H1708 C1731 0.950 . S
H1709 C1733 0.950 . S
H1710 C1734 0.950 . S
H1711 C1735 0.951 . S
H1712 C1737 0.951 . S
H1713 C1739 0.950 . S
H1714 C1740 0.950 . S
H1715 C1742 0.950 . S
H1716 C1745 0.950 . S
H1717 C1746 0.950 . S
H1718 C1748 0.950 . S
H1719 C1749 0.950 . S
C1720 H1702 0.951 . S
C1720 C1721 1.366 . S
C1720 C1722 1.388 . S
C1721 C1720 1.366 . S
C1721 C1725 1.385 . S
C1722 H1703 0.951 . S
C1722 C1720 1.388 . S
C1722 C1723 1.366 . S
C1723 C1722 1.366 . S
C1723 C1724 1.414 . S
C1723 C1726 1.499 . S
C1724 H1704 0.950 . S
C1724 C1723 1.414 . S
C1724 C1725 1.374 . S
C1725 H1705 0.950 . S
C1725 C1721 1.385 . S
C1725 C1724 1.374 . S
C1726 C1723 1.499 . S
C1726 C1727 1.373 . S
C1726 C1728 1.389 . S
C1727 H1706 0.950 . S
C1727 C1726 1.373 . S
C1727 C1743 1.377 . S
C1728 C1726 1.389 . S
C1728 C1729 1.524 . S
C1728 C1742 1.377 . S
C1729 C1728 1.524 . S
C1729 C1730 1.397 . S
C1729 C1734 1.363 . S
C1730 H1707 0.950 . S
C1730 C1729 1.397 . S
C1730 C1731 1.334 . S
C1731 H1708 0.950 . S
C1731 C1730 1.334 . S
C1731 C1732 1.287 . S
C1732 C1731 1.287 . S
C1732 C1733 1.524 . S
C1732 H1751 0.913 . S
C1733 H1709 0.950 . S
C1733 C1732 1.524 . S
C1733 C1734 1.415 . S
C1734 H1710 0.950 . S
C1734 C1729 1.363 . S
C1734 C1733 1.415 . S
C1735 H1711 0.951 . S
C1735 C1736 1.366 . S
C1735 C1737 1.388 . S
C1736 C1735 1.366 . S
C1736 C1740 1.385 . S
C1737 H1712 0.951 . S
C1737 C1735 1.388 . S
C1737 C1738 1.366 . S
C1738 C1737 1.366 . S
C1738 C1739 1.414 . S
C1738 C1741 1.499 . S
C1739 H1713 0.950 . S
C1739 C1738 1.414 . S
C1739 C1740 1.374 . S
C1740 H1714 0.950 . S
C1740 C1736 1.385 . S
C1740 C1739 1.374 . S
C1741 C1738 1.499 . S
C1741 C1742 1.373 . S
C1741 C1743 1.389 . S
C1742 H1715 0.950 . S
C1742 C1728 1.377 . S
C1742 C1741 1.373 . S
C1743 C1727 1.377 . S
C1743 C1741 1.389 . S
C1743 C1744 1.524 . S
C1744 C1743 1.524 . S
C1744 C1745 1.397 . S
C1744 C1749 1.363 . S
C1745 H1716 0.950 . S
C1745 C1744 1.397 . S
C1745 C1746 1.334 . S
C1746 H1717 0.950 . S
C1746 C1745 1.334 . S
C1746 C1747 1.287 . S
C1747 C1746 1.287 . S
C1747 C1748 1.524 . S
C1747 H1750 0.999 . S
C1748 H1718 0.950 . S
C1748 C1747 1.524 . S
C1748 C1749 1.415 . S
C1749 H1719 0.950 . S
C1749 C1744 1.363 . S
C1749 C1748 1.415 . S
H1750 C1747 0.999 . S
H1751 C1732 0.913 . S
H1752 C1770 0.951 . S
H1753 C1772 0.951 1_565 S
H1754 C1774 0.950 1_565 S
H1755 C1775 0.950 . S
H1756 C1777 0.950 . S
H1757 C1780 0.950 . S
H1758 C1781 0.936 1_545 S
H1759 C1783 0.950 . S
H1760 C1784 0.950 . S
H1761 C1785 0.951 . S
H1762 C1787 0.951 . S
H1763 C1789 0.950 . S
H1764 C1790 0.950 . S
H1765 C1792 0.950 . S
H1766 C1795 0.950 . S
H1767 C1796 0.950 . S
H1768 C1798 0.950 . S
H1769 C1799 0.950 . S
C1770 H1752 0.951 . S
C1770 C1771 1.366 . S
C1770 C1772 1.388 . S
C1771 C1770 1.366 . S
C1771 C1775 1.385 . S
C1772 H1753 0.951 1_545 S
C1772 C1770 1.388 . S
C1772 C1773 1.366 1_545 S
C1773 C1772 1.366 1_565 S
C1773 C1774 1.414 1_565 S
C1773 C1776 1.499 . S
C1774 H1754 0.950 1_545 S
C1774 C1773 1.414 1_545 S
C1774 C1775 1.374 . S
C1775 H1755 0.950 . S
C1775 C1771 1.385 . S
C1775 C1774 1.374 . S
C1776 C1773 1.499 . S
C1776 C1777 1.373 . S
C1776 C1778 1.389 . S
C1777 H1756 0.950 . S
C1777 C1776 1.373 . S
C1777 C1793 1.377 . S
C1778 C1776 1.389 . S
C1778 C1779 1.524 . S
C1778 C1792 1.377 . S
C1779 C1778 1.524 . S
C1779 C1780 1.397 . S
C1779 C1784 1.363 . S
C1780 H1757 0.950 . S
C1780 C1779 1.397 . S
C1780 C1781 1.334 . S
C1781 H1758 0.936 1_565 S
C1781 C1780 1.334 . S
C1781 C1782 1.287 . S
C1782 C1781 1.287 . S
C1782 C1783 1.524 . S
C1782 H1801 0.913 . S
C1783 H1759 0.950 . S
C1783 C1782 1.524 . S
C1783 C1784 1.415 . S
C1784 H1760 0.950 . S
C1784 C1779 1.363 . S
C1784 C1783 1.415 . S
C1785 H1761 0.951 . S
C1785 C1786 1.366 . S
C1785 C1787 1.388 . S
C1786 C1785 1.366 . S
C1786 C1790 1.385 . S
C1787 H1762 0.951 . S
C1787 C1785 1.388 . S
C1787 C1788 1.366 . S
C1788 C1787 1.366 . S
C1788 C1789 1.414 . S
C1788 C1791 1.499 . S
C1789 H1763 0.950 . S
C1789 C1788 1.414 . S
C1789 C1790 1.374 . S
C1790 H1764 0.950 . S
C1790 C1786 1.385 . S
C1790 C1789 1.374 . S
C1791 C1788 1.499 . S
C1791 C1792 1.373 . S
C1791 C1793 1.389 . S
C1792 H1765 0.950 . S
C1792 C1778 1.377 . S
C1792 C1791 1.373 . S
C1793 C1777 1.377 . S
C1793 C1791 1.389 . S
C1793 C1794 1.524 . S
C1794 C1793 1.524 . S
C1794 C1795 1.397 . S
C1794 C1799 1.363 . S
C1795 H1766 0.950 . S
C1795 C1794 1.397 . S
C1795 C1796 1.334 . S
C1796 H1767 0.950 . S
C1796 C1795 1.334 . S
C1796 C1797 1.287 . S
C1797 C1796 1.287 . S
C1797 C1798 1.524 . S
C1797 H1800 0.999 . S
C1798 H1768 0.950 . S
C1798 C1797 1.524 . S
C1798 C1799 1.415 . S
C1799 H1769 0.950 . S
C1799 C1794 1.363 . S
C1799 C1798 1.415 . S
H1800 C1797 0.999 . S
H1801 C1782 0.913 . S
H1802 C1820 0.956 . S
H1803 C1822 0.951 . S
H1804 C1824 0.950 . S
H1805 C1825 0.950 . S
H1806 C1827 0.950 . S
H1807 C1830 0.950 . S
H1808 C1831 0.950 . S
H1809 C1833 0.950 . S
H1810 C1834 0.950 . S
H1811 C1835 0.951 . S
H1812 C1837 0.951 . S
H1813 C1839 0.950 . S
H1814 C1840 0.950 . S
H1815 C1842 0.950 . S
H1816 C1845 0.950 . S
H1817 C1846 0.950 . S
H1818 C1848 0.950 . S
H1819 C1849 0.950 . S
C1820 H1802 0.956 . S
C1820 C1821 1.366 1_455 S
C1820 C1822 1.388 . S
C1821 C1820 1.366 1_655 S
C1821 C1825 1.385 . S
C1822 H1803 0.951 . S
C1822 C1820 1.388 . S
C1822 C1823 1.366 . S
C1823 C1822 1.366 . S
C1823 C1824 1.414 . S
C1823 C1826 1.499 . S
C1824 H1804 0.950 . S
C1824 C1823 1.414 . S
C1824 C1825 1.374 1_455 S
C1825 H1805 0.950 . S
C1825 C1821 1.385 . S
C1825 C1824 1.374 1_655 S
C1826 C1823 1.499 . S
C1826 C1827 1.373 . S
C1826 C1828 1.389 . S
C1827 H1806 0.950 . S
C1827 C1826 1.373 . S
C1827 C1843 1.377 . S
C1828 C1826 1.389 . S
C1828 C1829 1.524 . S
C1828 C1842 1.377 . S
C1829 C1828 1.524 . S
C1829 C1830 1.397 . S
C1829 C1834 1.363 . S
C1830 H1807 0.950 . S
C1830 C1829 1.397 . S
C1830 C1831 1.334 . S
C1831 H1808 0.950 . S
C1831 C1830 1.334 . S
C1831 C1832 1.287 . S
C1832 C1831 1.287 . S
C1832 C1833 1.524 . S
C1832 H1851 0.913 . S
C1833 H1809 0.950 . S
C1833 C1832 1.524 . S
C1833 C1834 1.415 . S
C1834 H1810 0.950 . S
C1834 C1829 1.363 . S
C1834 C1833 1.415 . S
C1835 H1811 0.951 . S
C1835 C1836 1.366 . S
C1835 C1837 1.388 . S
C1836 C1835 1.366 . S
C1836 C1840 1.385 . S
C1837 H1812 0.951 . S
C1837 C1835 1.388 . S
C1837 C1838 1.366 . S
C1838 C1837 1.366 . S
C1838 C1839 1.414 . S
C1838 C1841 1.499 . S
C1839 H1813 0.950 . S
C1839 C1838 1.414 . S
C1839 C1840 1.374 . S
C1840 H1814 0.950 . S
C1840 C1836 1.385 . S
C1840 C1839 1.374 . S
C1841 C1838 1.499 . S
C1841 C1842 1.373 . S
C1841 C1843 1.389 . S
C1842 H1815 0.950 . S
C1842 C1828 1.377 . S
C1842 C1841 1.373 . S
C1843 C1827 1.377 . S
C1843 C1841 1.389 . S
C1843 C1844 1.524 . S
C1844 C1843 1.524 . S
C1844 C1845 1.397 . S
C1844 C1849 1.363 . S
C1845 H1816 0.950 . S
C1845 C1844 1.397 . S
C1845 C1846 1.334 . S
C1846 H1817 0.950 . S
C1846 C1845 1.334 . S
C1846 C1847 1.287 . S
C1847 C1846 1.287 . S
C1847 C1848 1.524 . S
C1847 H1850 0.999 . S
C1848 H1818 0.950 . S
C1848 C1847 1.524 . S
C1848 C1849 1.415 . S
C1849 H1819 0.950 . S
C1849 C1844 1.363 . S
C1849 C1848 1.415 . S
H1850 C1847 0.999 . S
H1851 C1832 0.913 . S
H1852 C1870 0.951 . S
H1853 C1872 0.951 . S
H1854 C1874 0.950 . S
H1855 C1875 0.950 . S
H1856 C1877 0.950 . S
H1857 C1880 0.950 . S
H1858 C1881 0.950 . S
H1859 C1883 0.950 . S
H1860 C1884 0.950 . S
H1861 C1885 0.951 . S
H1862 C1887 0.951 . S
H1863 C1889 0.950 . S
H1864 C1890 0.950 . S
H1865 C1892 0.950 . S
H1866 C1895 0.950 . S
H1867 C1896 0.950 . S
H1868 C1898 0.950 . S
H1869 C1899 0.950 . S
C1870 H1852 0.951 . S
C1870 C1871 1.366 . S
C1870 C1872 1.388 . S
C1871 C1870 1.366 . S
C1871 C1875 1.385 . S
C1872 H1853 0.951 . S
C1872 C1870 1.388 . S
C1872 C1873 1.366 . S
C1873 C1872 1.366 . S
C1873 C1874 1.414 . S
C1873 C1876 1.499 . S
C1874 H1854 0.950 . S
C1874 C1873 1.414 . S
C1874 C1875 1.374 . S
C1875 H1855 0.950 . S
C1875 C1871 1.385 . S
C1875 C1874 1.374 . S
C1876 C1873 1.499 . S
C1876 C1877 1.373 . S
C1876 C1878 1.389 . S
C1877 H1856 0.950 . S
C1877 C1876 1.373 . S
C1877 C1893 1.377 . S
C1878 C1876 1.389 . S
C1878 C1879 1.524 . S
C1878 C1892 1.377 . S
C1879 C1878 1.524 . S
C1879 C1880 1.397 . S
C1879 C1884 1.363 . S
C1880 H1857 0.950 . S
C1880 C1879 1.397 . S
C1880 C1881 1.334 . S
C1881 H1858 0.950 . S
C1881 C1880 1.334 . S
C1881 C1882 1.287 . S
C1882 C1881 1.287 . S
C1882 C1883 1.524 . S
C1882 H1901 0.913 . S
C1883 H1859 0.950 . S
C1883 C1882 1.524 . S
C1883 C1884 1.415 . S
C1884 H1860 0.950 . S
C1884 C1879 1.363 . S
C1884 C1883 1.415 . S
C1885 H1861 0.951 . S
C1885 C1886 1.366 . S
C1885 C1887 1.388 . S
C1886 C1885 1.366 . S
C1886 C1890 1.385 . S
C1887 H1862 0.951 . S
C1887 C1885 1.388 . S
C1887 C1888 1.366 . S
C1888 C1887 1.366 . S
C1888 C1889 1.414 . S
C1888 C1891 1.499 . S
C1889 H1863 0.950 . S
C1889 C1888 1.414 . S
C1889 C1890 1.374 . S
C1890 H1864 0.950 . S
C1890 C1886 1.385 . S
C1890 C1889 1.374 . S
C1891 C1888 1.499 . S
C1891 C1892 1.373 . S
C1891 C1893 1.389 . S
C1892 H1865 0.950 . S
C1892 C1878 1.377 . S
C1892 C1891 1.373 . S
C1893 C1877 1.377 . S
C1893 C1891 1.389 . S
C1893 C1894 1.524 . S
C1894 C1893 1.524 . S
C1894 C1895 1.397 . S
C1894 C1899 1.363 . S
C1895 H1866 0.950 . S
C1895 C1894 1.397 . S
C1895 C1896 1.334 . S
C1896 H1867 0.950 . S
C1896 C1895 1.334 . S
C1896 C1897 1.287 . S
C1897 C1896 1.287 . S
C1897 C1898 1.524 . S
C1897 H1900 0.999 . S
C1898 H1868 0.950 . S
C1898 C1897 1.524 . S
C1898 C1899 1.415 . S
C1899 H1869 0.950 . S
C1899 C1894 1.363 . S
C1899 C1898 1.415 . S
H1900 C1897 0.999 . S
H1901 C1882 0.913 . S
H1902 C1920 0.951 . S
H1903 C1922 0.951 . S
H1904 C1924 0.950 . S
H1905 C1925 0.950 . S
H1906 C1927 0.950 . S
H1907 C1930 0.950 . S
H1908 C1931 0.950 . S
H1909 C1933 0.950 . S
H1910 C1934 0.950 . S
H1911 C1935 0.951 . S
H1912 C1937 0.951 . S
H1913 C1939 0.950 . S
H1914 C1940 0.950 . S
H1915 C1942 0.950 . S
H1916 C1945 0.950 . S
H1917 C1946 0.950 . S
H1918 C1948 0.950 . S
H1919 C1949 0.950 . S
C1920 H1902 0.951 . S
C1920 C1921 1.366 . S
C1920 C1922 1.388 . S
C1921 C1920 1.366 . S
C1921 C1925 1.385 . S
C1922 H1903 0.951 . S
C1922 C1920 1.388 . S
C1922 C1923 1.366 . S
C1923 C1922 1.366 . S
C1923 C1924 1.414 . S
C1923 C1926 1.499 . S
C1924 H1904 0.950 . S
C1924 C1923 1.414 . S
C1924 C1925 1.374 . S
C1925 H1905 0.950 . S
C1925 C1921 1.385 . S
C1925 C1924 1.374 . S
C1926 C1923 1.499 . S
C1926 C1927 1.373 . S
C1926 C1928 1.389 . S
C1927 H1906 0.950 . S
C1927 C1926 1.373 . S
C1927 C1943 1.377 . S
C1928 C1926 1.389 . S
C1928 C1929 1.524 . S
C1928 C1942 1.377 . S
C1929 C1928 1.524 . S
C1929 C1930 1.397 . S
C1929 C1934 1.363 . S
C1930 H1907 0.950 . S
C1930 C1929 1.397 . S
C1930 C1931 1.334 . S
C1931 H1908 0.950 . S
C1931 C1930 1.334 . S
C1931 C1932 1.287 . S
C1932 C1931 1.287 . S
C1932 C1933 1.524 . S
C1932 H1951 0.913 . S
C1933 H1909 0.950 . S
C1933 C1932 1.524 . S
C1933 C1934 1.415 . S
C1934 H1910 0.950 . S
C1934 C1929 1.363 . S
C1934 C1933 1.415 . S
C1935 H1911 0.951 . S
C1935 C1936 1.366 . S
C1935 C1937 1.388 . S
C1936 C1935 1.366 . S
C1936 C1940 1.385 . S
C1937 H1912 0.951 . S
C1937 C1935 1.388 . S
C1937 C1938 1.366 . S
C1938 C1937 1.366 . S
C1938 C1939 1.414 . S
C1938 C1941 1.499 . S
C1939 H1913 0.950 . S
C1939 C1938 1.414 . S
C1939 C1940 1.374 . S
C1940 H1914 0.950 . S
C1940 C1936 1.385 . S
C1940 C1939 1.374 . S
C1941 C1938 1.499 . S
C1941 C1942 1.373 . S
C1941 C1943 1.389 . S
C1942 H1915 0.950 . S
C1942 C1928 1.377 . S
C1942 C1941 1.373 . S
C1943 C1927 1.377 . S
C1943 C1941 1.389 . S
C1943 C1944 1.524 . S
C1944 C1943 1.524 . S
C1944 C1945 1.397 . S
C1944 C1949 1.363 . S
C1945 H1916 0.950 . S
C1945 C1944 1.397 . S
C1945 C1946 1.334 . S
C1946 H1917 0.950 . S
C1946 C1945 1.334 . S
C1946 C1947 1.287 . S
C1947 C1946 1.287 . S
C1947 C1948 1.524 . S
C1947 H1950 0.999 . S
C1948 H1918 0.950 . S
C1948 C1947 1.524 . S
C1948 C1949 1.415 . S
C1949 H1919 0.950 . S
C1949 C1944 1.363 . S
C1949 C1948 1.415 . S
H1950 C1947 0.999 . S
H1951 C1932 0.913 . S
H1952 C1970 0.951 . S
H1953 C1972 0.951 . S
H1954 C1974 0.950 . S
H1955 C1975 0.950 . S
H1956 C1977 0.950 . S
H1957 C1980 0.950 . S
H1958 C1981 0.950 . S
H1959 C1983 0.950 . S
H1960 C1984 0.950 . S
H1961 C1985 0.951 . S
H1962 C1987 0.951 . S
H1963 C1989 0.950 . S
H1964 C1990 0.950 . S
H1965 C1992 0.950 . S
H1966 C1995 0.950 . S
H1967 C1996 0.950 . S
H1968 C1998 0.950 . S
H1969 C1999 0.950 . S
C1970 H1952 0.951 . S
C1970 C1971 1.366 . S
C1970 C1972 1.388 . S
C1971 C1970 1.366 . S
C1971 C1975 1.385 . S
C1972 H1953 0.951 . S
C1972 C1970 1.388 . S
C1972 C1973 1.366 . S
C1973 C1972 1.366 . S
C1973 C1974 1.414 . S
C1973 C1976 1.499 . S
C1974 H1954 0.950 . S
C1974 C1973 1.414 . S
C1974 C1975 1.374 . S
C1975 H1955 0.950 . S
C1975 C1971 1.385 . S
C1975 C1974 1.374 . S
C1976 C1973 1.499 . S
C1976 C1977 1.373 . S
C1976 C1978 1.389 . S
C1977 H1956 0.950 . S
C1977 C1976 1.373 . S
C1977 C1993 1.377 . S
C1978 C1976 1.389 . S
C1978 C1979 1.524 . S
C1978 C1992 1.377 . S
C1979 C1978 1.524 . S
C1979 C1980 1.397 . S
C1979 C1984 1.363 . S
C1980 H1957 0.950 . S
C1980 C1979 1.397 . S
C1980 C1981 1.334 . S
C1981 H1958 0.950 . S
C1981 C1980 1.334 . S
C1981 C1982 1.287 . S
C1982 C1981 1.287 . S
C1982 C1983 1.524 . S
C1982 H2001 0.913 . S
C1983 H1959 0.950 . S
C1983 C1982 1.524 . S
C1983 C1984 1.415 . S
C1984 H1960 0.950 . S
C1984 C1979 1.363 . S
C1984 C1983 1.415 . S
C1985 H1961 0.951 . S
C1985 C1986 1.366 . S
C1985 C1987 1.388 . S
C1986 C1985 1.366 . S
C1986 C1990 1.385 . S
C1987 H1962 0.951 . S
C1987 C1985 1.388 . S
C1987 C1988 1.366 . S
C1988 C1987 1.366 . S
C1988 C1989 1.414 . S
C1988 C1991 1.499 . S
C1989 H1963 0.950 . S
C1989 C1988 1.414 . S
C1989 C1990 1.374 . S
C1990 H1964 0.950 . S
C1990 C1986 1.385 . S
C1990 C1989 1.374 . S
C1991 C1988 1.499 . S
C1991 C1992 1.373 . S
C1991 C1993 1.389 . S
C1992 H1965 0.950 . S
C1992 C1978 1.377 . S
C1992 C1991 1.373 . S
C1993 C1977 1.377 . S
C1993 C1991 1.389 . S
C1993 C1994 1.524 . S
C1994 C1993 1.524 . S
C1994 C1995 1.397 . S
C1994 C1999 1.363 . S
C1995 H1966 0.950 . S
C1995 C1994 1.397 . S
C1995 C1996 1.334 . S
C1996 H1967 0.950 . S
C1996 C1995 1.334 . S
C1996 C1997 1.287 . S
C1997 C1996 1.287 . S
C1997 C1998 1.524 . S
C1997 H2000 0.999 . S
C1998 H1968 0.950 . S
C1998 C1997 1.524 . S
C1998 C1999 1.415 . S
C1999 H1969 0.950 . S
C1999 C1994 1.363 . S
C1999 C1998 1.415 . S
H2000 C1997 0.999 . S
H2001 C1982 0.913 . S
H2002 C2020 0.951 . S
H2003 C2022 0.951 . S
H2004 C2024 0.950 . S
H2005 C2025 0.950 . S
H2006 C2027 0.950 . S
H2007 C2030 0.950 . S
H2008 C2031 0.950 . S
H2009 C2033 0.950 . S
H2010 C2034 0.950 . S
H2011 C2035 0.951 . S
H2012 C2037 0.951 . S
H2013 C2039 0.950 . S
H2014 C2040 0.950 . S
H2015 C2042 0.950 . S
H2016 C2045 0.950 . S
H2017 C2046 0.950 . S
H2018 C2048 0.950 . S
H2019 C2049 0.950 . S
C2020 H2002 0.951 . S
C2020 C2021 1.366 . S
C2020 C2022 1.388 . S
C2021 C2020 1.366 . S
C2021 C2025 1.385 . S
C2022 H2003 0.951 . S
C2022 C2020 1.388 . S
C2022 C2023 1.366 . S
C2023 C2022 1.366 . S
C2023 C2024 1.414 . S
C2023 C2026 1.499 . S
C2024 H2004 0.950 . S
C2024 C2023 1.414 . S
C2024 C2025 1.374 . S
C2025 H2005 0.950 . S
C2025 C2021 1.385 . S
C2025 C2024 1.374 . S
C2026 C2023 1.499 . S
C2026 C2027 1.373 . S
C2026 C2028 1.389 . S
C2027 H2006 0.950 . S
C2027 C2026 1.373 . S
C2027 C2043 1.377 . S
C2028 C2026 1.389 . S
C2028 C2029 1.524 . S
C2028 C2042 1.377 . S
C2029 C2028 1.524 . S
C2029 C2030 1.397 . S
C2029 C2034 1.363 . S
C2030 H2007 0.950 . S
C2030 C2029 1.397 . S
C2030 C2031 1.334 . S
C2031 H2008 0.950 . S
C2031 C2030 1.334 . S
C2031 C2032 1.287 . S
C2032 C2031 1.287 . S
C2032 C2033 1.524 . S
C2032 H2051 0.913 . S
C2033 H2009 0.950 . S
C2033 C2032 1.524 . S
C2033 C2034 1.415 . S
C2034 H2010 0.950 . S
C2034 C2029 1.363 . S
C2034 C2033 1.415 . S
C2035 H2011 0.951 . S
C2035 C2036 1.366 . S
C2035 C2037 1.388 . S
C2036 C2035 1.366 . S
C2036 C2040 1.385 . S
C2037 H2012 0.951 . S
C2037 C2035 1.388 . S
C2037 C2038 1.366 . S
C2038 C2037 1.366 . S
C2038 C2039 1.414 . S
C2038 C2041 1.499 . S
C2039 H2013 0.950 . S
C2039 C2038 1.414 . S
C2039 C2040 1.374 . S
C2040 H2014 0.950 . S
C2040 C2036 1.385 . S
C2040 C2039 1.374 . S
C2041 C2038 1.499 . S
C2041 C2042 1.373 . S
C2041 C2043 1.389 . S
C2042 H2015 0.950 . S
C2042 C2028 1.377 . S
C2042 C2041 1.373 . S
C2043 C2027 1.377 . S
C2043 C2041 1.389 . S
C2043 C2044 1.524 . S
C2044 C2043 1.524 . S
C2044 C2045 1.397 . S
C2044 C2049 1.363 . S
C2045 H2016 0.950 . S
C2045 C2044 1.397 . S
C2045 C2046 1.334 . S
C2046 H2017 0.950 . S
C2046 C2045 1.334 . S
C2046 C2047 1.287 . S
C2047 C2046 1.287 . S
C2047 C2048 1.524 . S
C2047 H2050 0.999 . S
C2048 H2018 0.950 . S
C2048 C2047 1.524 . S
C2048 C2049 1.415 . S
C2049 H2019 0.950 . S
C2049 C2044 1.363 . S
C2049 C2048 1.415 . S
H2050 C2047 0.999 . S
H2051 C2032 0.913 . S
H2052 C2070 0.951 . S
H2053 C2072 0.951 . S
H2054 C2074 0.950 . S
H2055 C2075 0.950 . S
H2056 C2077 0.950 . S
H2057 C2080 0.950 . S
H2058 C2081 0.950 . S
H2059 C2083 0.950 . S
H2060 C2084 0.950 . S
H2061 C2085 0.951 . S
H2062 C2087 0.951 . S
H2063 C2089 0.950 . S
H2064 C2090 0.950 . S
H2065 C2092 0.953 1_545 S
H2066 C2095 0.950 . S
H2067 C2096 0.950 . S
H2068 C2098 0.950 . S
H2069 C2099 0.950 . S
C2070 H2052 0.951 . S
C2070 C2071 1.366 . S
C2070 C2072 1.388 . S
C2071 C2070 1.366 . S
C2071 C2075 1.385 . S
C2072 H2053 0.951 . S
C2072 C2070 1.388 . S
C2072 C2073 1.366 . S
C2073 C2072 1.366 . S
C2073 C2074 1.414 . S
C2073 C2076 1.499 . S
C2074 H2054 0.950 . S
C2074 C2073 1.414 . S
C2074 C2075 1.374 . S
C2075 H2055 0.950 . S
C2075 C2071 1.385 . S
C2075 C2074 1.374 . S
C2076 C2073 1.499 . S
C2076 C2077 1.373 . S
C2076 C2078 1.389 . S
C2077 H2056 0.950 . S
C2077 C2076 1.373 . S
C2077 C2093 1.377 1_565 S
C2078 C2076 1.389 . S
C2078 C2079 1.524 . S
C2078 C2092 1.377 . S
C2079 C2078 1.524 . S
C2079 C2080 1.397 . S
C2079 C2084 1.363 . S
C2080 H2057 0.950 . S
C2080 C2079 1.397 . S
C2080 C2081 1.334 . S
C2081 H2058 0.950 . S
C2081 C2080 1.334 . S
C2081 C2082 1.287 . S
C2082 C2081 1.287 . S
C2082 C2083 1.524 . S
C2082 H2101 0.913 . S
C2083 H2059 0.950 . S
C2083 C2082 1.524 . S
C2083 C2084 1.415 . S
C2084 H2060 0.950 . S
C2084 C2079 1.363 . S
C2084 C2083 1.415 . S
C2085 H2061 0.951 . S
C2085 C2086 1.366 . S
C2085 C2087 1.388 . S
C2086 C2085 1.366 . S
C2086 C2090 1.385 . S
C2087 H2062 0.951 . S
C2087 C2085 1.388 . S
C2087 C2088 1.366 . S
C2088 C2087 1.366 . S
C2088 C2089 1.414 . S
C2088 C2091 1.499 . S
C2089 H2063 0.950 . S
C2089 C2088 1.414 . S
C2089 C2090 1.374 . S
C2090 H2064 0.950 . S
C2090 C2086 1.385 . S
C2090 C2089 1.374 . S
C2091 C2088 1.499 . S
C2091 C2092 1.373 1_545 S
C2091 C2093 1.389 . S
C2092 H2065 0.953 1_565 S
C2092 C2078 1.377 . S
C2092 C2091 1.373 1_565 S
C2093 C2077 1.377 1_545 S
C2093 C2091 1.389 . S
C2093 C2094 1.524 . S
C2094 C2093 1.524 . S
C2094 C2095 1.397 . S
C2094 C2099 1.363 . S
C2095 H2066 0.950 . S
C2095 C2094 1.397 . S
C2095 C2096 1.334 . S
C2096 H2067 0.950 . S
C2096 C2095 1.334 . S
C2096 C2097 1.287 . S
C2097 C2096 1.287 . S
C2097 C2098 1.524 . S
C2097 H2100 0.999 . S
C2098 H2068 0.950 . S
C2098 C2097 1.524 . S
C2098 C2099 1.415 . S
C2099 H2069 0.950 . S
C2099 C2094 1.363 . S
C2099 C2098 1.415 . S
H2100 C2097 0.999 . S
H2101 C2082 0.913 . S
H2102 C2120 0.951 . S
H2103 C2122 0.951 . S
H2104 C2124 0.950 . S
H2105 C2125 0.950 . S
H2106 C2127 0.950 . S
H2107 C2130 0.950 . S
H2108 C2131 0.950 . S
H2109 C2133 0.950 . S
H2110 C2134 0.950 . S
H2111 C2135 0.951 . S
H2112 C2137 0.951 . S
H2113 C2139 0.950 . S
H2114 C2140 0.950 . S
H2115 C2142 0.950 . S
H2116 C2145 0.950 . S
H2117 C2146 0.950 . S
H2118 C2148 0.950 . S
H2119 C2149 0.950 . S
C2120 H2102 0.951 . S
C2120 C2121 1.366 . S
C2120 C2122 1.388 . S
C2121 C2120 1.366 . S
C2121 C2125 1.385 . S
C2122 H2103 0.951 . S
C2122 C2120 1.388 . S
C2122 C2123 1.366 . S
C2123 C2122 1.366 . S
C2123 C2124 1.414 . S
C2123 C2126 1.499 . S
C2124 H2104 0.950 . S
C2124 C2123 1.414 . S
C2124 C2125 1.374 . S
C2125 H2105 0.950 . S
C2125 C2121 1.385 . S
C2125 C2124 1.374 . S
C2126 C2123 1.499 . S
C2126 C2127 1.373 . S
C2126 C2128 1.389 . S
C2127 H2106 0.950 . S
C2127 C2126 1.373 . S
C2127 C2143 1.377 1_455 S
C2128 C2126 1.389 . S
C2128 C2129 1.524 . S
C2128 C2142 1.377 . S
C2129 C2128 1.524 . S
C2129 C2130 1.397 . S
C2129 C2134 1.363 . S
C2130 H2107 0.950 . S
C2130 C2129 1.397 . S
C2130 C2131 1.334 . S
C2131 H2108 0.950 . S
C2131 C2130 1.334 . S
C2131 C2132 1.287 . S
C2132 C2131 1.287 . S
C2132 C2133 1.524 . S
C2132 H2151 0.913 . S
C2133 H2109 0.950 . S
C2133 C2132 1.524 . S
C2133 C2134 1.415 . S
C2134 H2110 0.950 . S
C2134 C2129 1.363 . S
C2134 C2133 1.415 . S
C2135 H2111 0.951 . S
C2135 C2136 1.366 . S
C2135 C2137 1.388 . S
C2136 C2135 1.366 . S
C2136 C2140 1.385 . S
C2137 H2112 0.951 . S
C2137 C2135 1.388 . S
C2137 C2138 1.366 . S
C2138 C2137 1.366 . S
C2138 C2139 1.414 . S
C2138 C2141 1.499 . S
C2139 H2113 0.950 . S
C2139 C2138 1.414 . S
C2139 C2140 1.374 . S
C2140 H2114 0.950 . S
C2140 C2136 1.385 . S
C2140 C2139 1.374 . S
C2141 C2138 1.499 . S
C2141 C2142 1.373 1_655 S
C2141 C2143 1.389 . S
C2142 H2115 0.950 . S
C2142 C2128 1.377 . S
C2142 C2141 1.373 1_455 S
C2143 C2127 1.377 1_655 S
C2143 C2141 1.389 . S
C2143 C2144 1.524 . S
C2144 C2143 1.524 . S
C2144 C2145 1.397 . S
C2144 C2149 1.363 . S
C2145 H2116 0.950 . S
C2145 C2144 1.397 . S
C2145 C2146 1.334 . S
C2146 H2117 0.950 . S
C2146 C2145 1.334 . S
C2146 C2147 1.287 . S
C2147 C2146 1.287 . S
C2147 C2148 1.524 . S
C2147 H2150 0.999 . S
C2148 H2118 0.950 . S
C2148 C2147 1.524 . S
C2148 C2149 1.415 . S
C2149 H2119 0.950 . S
C2149 C2144 1.363 . S
C2149 C2148 1.415 . S
H2150 C2147 0.999 . S
H2151 C2132 0.913 . S
H2152 C2170 0.951 . S
H2153 C2172 0.951 . S
H2154 C2174 0.950 . S
H2155 C2175 0.950 . S
H2156 C2177 0.950 . S
H2157 C2180 0.950 . S
H2158 C2181 0.950 . S
H2159 C2183 0.950 . S
H2160 C2184 0.950 . S
H2161 C2185 0.951 . S
H2162 C2187 0.951 . S
H2163 C2189 0.950 . S
H2164 C2190 0.950 . S
H2165 C2192 0.950 . S
H2166 C2195 0.950 . S
H2167 C2196 0.950 . S
H2168 C2198 0.950 . S
H2169 C2199 0.950 . S
C2170 H2152 0.951 . S
C2170 C2171 1.366 . S
C2170 C2172 1.388 . S
C2171 C2170 1.366 . S
C2171 C2175 1.385 . S
C2172 H2153 0.951 . S
C2172 C2170 1.388 . S
C2172 C2173 1.366 . S
C2173 C2172 1.366 . S
C2173 C2174 1.414 . S
C2173 C2176 1.499 . S
C2174 H2154 0.950 . S
C2174 C2173 1.414 . S
C2174 C2175 1.374 . S
C2175 H2155 0.950 . S
C2175 C2171 1.385 . S
C2175 C2174 1.374 . S
C2176 C2173 1.499 . S
C2176 C2177 1.373 . S
C2176 C2178 1.389 . S
C2177 H2156 0.950 . S
C2177 C2176 1.373 . S
C2177 C2193 1.377 . S
C2178 C2176 1.389 . S
C2178 C2179 1.524 . S
C2178 C2192 1.377 . S
C2179 C2178 1.524 . S
C2179 C2180 1.397 . S
C2179 C2184 1.363 . S
C2180 H2157 0.950 . S
C2180 C2179 1.397 . S
C2180 C2181 1.334 . S
C2181 H2158 0.950 . S
C2181 C2180 1.334 . S
C2181 C2182 1.287 . S
C2182 C2181 1.287 . S
C2182 C2183 1.524 . S
C2182 H2201 0.913 . S
C2183 H2159 0.950 . S
C2183 C2182 1.524 . S
C2183 C2184 1.415 . S
C2184 H2160 0.950 . S
C2184 C2179 1.363 . S
C2184 C2183 1.415 . S
C2185 H2161 0.951 . S
C2185 C2186 1.366 . S
C2185 C2187 1.388 . S
C2186 C2185 1.366 . S
C2186 C2190 1.385 . S
C2187 H2162 0.951 . S
C2187 C2185 1.388 . S
C2187 C2188 1.366 . S
C2188 C2187 1.366 . S
C2188 C2189 1.414 . S
C2188 C2191 1.499 . S
C2189 H2163 0.950 . S
C2189 C2188 1.414 . S
C2189 C2190 1.374 . S
C2190 H2164 0.950 . S
C2190 C2186 1.385 . S
C2190 C2189 1.374 . S
C2191 C2188 1.499 . S
C2191 C2192 1.373 . S
C2191 C2193 1.389 . S
C2192 H2165 0.950 . S
C2192 C2178 1.377 . S
C2192 C2191 1.373 . S
C2193 C2177 1.377 . S
C2193 C2191 1.389 . S
C2193 C2194 1.524 . S
C2194 C2193 1.524 . S
C2194 C2195 1.397 . S
C2194 C2199 1.363 . S
C2195 H2166 0.950 . S
C2195 C2194 1.397 . S
C2195 C2196 1.334 . S
C2196 H2167 0.950 . S
C2196 C2195 1.334 . S
C2196 C2197 1.287 . S
C2197 C2196 1.287 . S
C2197 C2198 1.524 . S
C2197 H2200 0.999 . S
C2198 H2168 0.950 . S
C2198 C2197 1.524 . S
C2198 C2199 1.415 . S
C2199 H2169 0.950 . S
C2199 C2194 1.363 . S
C2199 C2198 1.415 . S
H2200 C2197 0.999 . S
H2201 C2182 0.913 . S
H2202 C2220 0.951 . S
H2203 C2222 0.951 . S
H2204 C2224 0.950 1_655 S
H2205 C2225 0.950 . S
H2206 C2227 0.950 . S
H2207 C2230 0.950 . S
H2208 C2231 0.950 . S
H2209 C2233 0.950 . S
H2210 C2234 0.950 . S
H2211 C2235 0.951 . S
H2212 C2237 0.951 . S
H2213 C2239 0.950 . S
H2214 C2240 0.950 . S
H2215 C2242 0.950 . S
H2216 C2245 0.950 . S
H2217 C2246 0.950 . S
H2218 C2248 0.950 . S
H2219 C2249 0.950 . S
C2220 H2202 0.951 . S
C2220 C2221 1.366 . S
C2220 C2222 1.388 1_455 S
C2221 C2220 1.366 . S
C2221 C2225 1.385 . S
C2222 H2203 0.951 . S
C2222 C2220 1.388 1_655 S
C2222 C2223 1.366 . S
C2223 C2222 1.366 . S
C2223 C2224 1.414 1_655 S
C2223 C2226 1.499 . S
C2224 H2204 0.950 1_455 S
C2224 C2223 1.414 1_455 S
C2224 C2225 1.374 . S
C2225 H2205 0.950 . S
C2225 C2221 1.385 . S
C2225 C2224 1.374 . S
C2226 C2223 1.499 . S
C2226 C2227 1.373 . S
C2226 C2228 1.389 . S
C2227 H2206 0.950 . S
C2227 C2226 1.373 . S
C2227 C2243 1.377 . S
C2228 C2226 1.389 . S
C2228 C2229 1.524 . S
C2228 C2242 1.377 . S
C2229 C2228 1.524 . S
C2229 C2230 1.397 . S
C2229 C2234 1.363 . S
C2230 H2207 0.950 . S
C2230 C2229 1.397 . S
C2230 C2231 1.334 . S
C2231 H2208 0.950 . S
C2231 C2230 1.334 . S
C2231 C2232 1.287 . S
C2232 C2231 1.287 . S
C2232 C2233 1.524 . S
C2232 H2251 0.913 . S
C2233 H2209 0.950 . S
C2233 C2232 1.524 . S
C2233 C2234 1.415 . S
C2234 H2210 0.950 . S
C2234 C2229 1.363 . S
C2234 C2233 1.415 . S
C2235 H2211 0.951 . S
C2235 C2236 1.366 . S
C2235 C2237 1.388 . S
C2236 C2235 1.366 . S
C2236 C2240 1.385 . S
C2237 H2212 0.951 . S
C2237 C2235 1.388 . S
C2237 C2238 1.366 . S
C2238 C2237 1.366 . S
C2238 C2239 1.414 . S
C2238 C2241 1.499 . S
C2239 H2213 0.950 . S
C2239 C2238 1.414 . S
C2239 C2240 1.374 . S
C2240 H2214 0.950 . S
C2240 C2236 1.385 . S
C2240 C2239 1.374 . S
C2241 C2238 1.499 . S
C2241 C2242 1.373 . S
C2241 C2243 1.389 . S
C2242 H2215 0.950 . S
C2242 C2228 1.377 . S
C2242 C2241 1.373 . S
C2243 C2227 1.377 . S
C2243 C2241 1.389 . S
C2243 C2244 1.524 . S
C2244 C2243 1.524 . S
C2244 C2245 1.397 . S
C2244 C2249 1.363 . S
C2245 H2216 0.950 . S
C2245 C2244 1.397 . S
C2245 C2246 1.334 . S
C2246 H2217 0.950 . S
C2246 C2245 1.334 . S
C2246 C2247 1.287 . S
C2247 C2246 1.287 . S
C2247 C2248 1.524 . S
C2247 H2250 0.999 . S
C2248 H2218 0.950 . S
C2248 C2247 1.524 . S
C2248 C2249 1.415 . S
C2249 H2219 0.950 . S
C2249 C2244 1.363 . S
C2249 C2248 1.415 . S
H2250 C2247 0.999 . S
H2251 C2232 0.913 . S
H2252 C2270 0.951 . S
H2253 C2272 0.951 . S
H2254 C2274 0.950 . S
H2255 C2275 0.950 . S
H2256 C2277 0.950 . S
H2257 C2280 0.950 . S
H2258 C2281 0.950 . S
H2259 C2283 0.950 . S
H2260 C2284 0.950 . S
H2261 C2285 0.951 . S
H2262 C2287 0.951 . S
H2263 C2289 0.950 . S
H2264 C2290 0.950 . S
H2265 C2292 0.950 . S
H2266 C2295 0.950 . S
H2267 C2296 0.950 . S
H2268 C2298 0.950 . S
H2269 C2299 0.950 . S
C2270 H2252 0.951 . S
C2270 C2271 1.366 . S
C2270 C2272 1.388 . S
C2271 C2270 1.366 . S
C2271 C2275 1.385 . S
C2272 H2253 0.951 . S
C2272 C2270 1.388 . S
C2272 C2273 1.366 . S
C2273 C2272 1.366 . S
C2273 C2274 1.414 . S
C2273 C2276 1.499 . S
C2274 H2254 0.950 . S
C2274 C2273 1.414 . S
C2274 C2275 1.374 . S
C2275 H2255 0.950 . S
C2275 C2271 1.385 . S
C2275 C2274 1.374 . S
C2276 C2273 1.499 . S
C2276 C2277 1.373 . S
C2276 C2278 1.389 . S
C2277 H2256 0.950 . S
C2277 C2276 1.373 . S
C2277 C2293 1.377 . S
C2278 C2276 1.389 . S
C2278 C2279 1.524 . S
C2278 C2292 1.377 . S
C2279 C2278 1.524 . S
C2279 C2280 1.397 . S
C2279 C2284 1.363 . S
C2280 H2257 0.950 . S
C2280 C2279 1.397 . S
C2280 C2281 1.334 . S
C2281 H2258 0.950 . S
C2281 C2280 1.334 . S
C2281 C2282 1.287 . S
C2282 C2281 1.287 . S
C2282 C2283 1.524 . S
C2282 H2301 0.913 . S
C2283 H2259 0.950 . S
C2283 C2282 1.524 . S
C2283 C2284 1.415 . S
C2284 H2260 0.950 . S
C2284 C2279 1.363 . S
C2284 C2283 1.415 . S
C2285 H2261 0.951 . S
C2285 C2286 1.366 . S
C2285 C2287 1.388 . S
C2286 C2285 1.366 . S
C2286 C2290 1.385 . S
C2287 H2262 0.951 . S
C2287 C2285 1.388 . S
C2287 C2288 1.366 . S
C2288 C2287 1.366 . S
C2288 C2289 1.414 . S
C2288 C2291 1.499 . S
C2289 H2263 0.950 . S
C2289 C2288 1.414 . S
C2289 C2290 1.374 . S
C2290 H2264 0.950 . S
C2290 C2286 1.385 . S
C2290 C2289 1.374 . S
C2291 C2288 1.499 . S
C2291 C2292 1.373 . S
C2291 C2293 1.389 . S
C2292 H2265 0.950 . S
C2292 C2278 1.377 . S
C2292 C2291 1.373 . S
C2293 C2277 1.377 . S
C2293 C2291 1.389 . S
C2293 C2294 1.524 . S
C2294 C2293 1.524 . S
C2294 C2295 1.397 . S
C2294 C2299 1.363 . S
C2295 H2266 0.950 . S
C2295 C2294 1.397 . S
C2295 C2296 1.334 . S
C2296 H2267 0.950 . S
C2296 C2295 1.334 . S
C2296 C2297 1.287 . S
C2297 C2296 1.287 . S
C2297 C2298 1.524 . S
C2297 H2300 0.999 . S
C2298 H2268 0.950 . S
C2298 C2297 1.524 . S
C2298 C2299 1.415 . S
C2299 H2269 0.950 . S
C2299 C2294 1.363 . S
C2299 C2298 1.415 . S
H2300 C2297 0.999 . S
H2301 C2282 0.913 . S
H2302 C2320 0.951 . S
H2303 C2322 0.951 . S
H2304 C2324 0.950 . S
H2305 C2325 0.950 . S
H2306 C2327 0.950 . S
H2307 C2330 0.950 . S
H2308 C2331 0.950 . S
H2309 C2333 0.950 . S
H2310 C2334 0.950 . S
H2311 C2335 0.951 . S
H2312 C2337 0.951 . S
H2313 C2339 0.950 . S
H2314 C2340 0.950 . S
H2315 C2342 0.950 . S
H2316 C2345 0.950 . S
H2317 C2346 0.950 . S
H2318 C2348 0.950 . S
H2319 C2349 0.950 . S
C2320 H2302 0.951 . S
C2320 C2321 1.366 . S
C2320 C2322 1.388 1_565 S
C2321 C2320 1.366 . S
C2321 C2325 1.385 . S
C2322 H2303 0.951 . S
C2322 C2320 1.388 1_545 S
C2322 C2323 1.366 . S
C2323 C2322 1.366 . S
C2323 C2324 1.414 . S
C2323 C2326 1.499 . S
C2324 H2304 0.950 . S
C2324 C2323 1.414 . S
C2324 C2325 1.374 1_545 S
C2325 H2305 0.950 . S
C2325 C2321 1.385 . S
C2325 C2324 1.374 1_565 S
C2326 C2323 1.499 . S
C2326 C2327 1.373 . S
C2326 C2328 1.389 . S
C2327 H2306 0.950 . S
C2327 C2326 1.373 . S
C2327 C2343 1.377 . S
C2328 C2326 1.389 . S
C2328 C2329 1.524 . S
C2328 C2342 1.377 . S
C2329 C2328 1.524 . S
C2329 C2330 1.397 . S
C2329 C2334 1.363 . S
C2330 H2307 0.950 . S
C2330 C2329 1.397 . S
C2330 C2331 1.334 . S
C2331 H2308 0.950 . S
C2331 C2330 1.334 . S
C2331 C2332 1.287 . S
C2332 C2331 1.287 . S
C2332 C2333 1.524 . S
C2332 H2351 0.913 . S
C2333 H2309 0.950 . S
C2333 C2332 1.524 . S
C2333 C2334 1.415 . S
C2334 H2310 0.950 . S
C2334 C2329 1.363 . S
C2334 C2333 1.415 . S
C2335 H2311 0.951 . S
C2335 C2336 1.366 . S
C2335 C2337 1.388 . S
C2336 C2335 1.366 . S
C2336 C2340 1.385 . S
C2337 H2312 0.951 . S
C2337 C2335 1.388 . S
C2337 C2338 1.366 . S
C2338 C2337 1.366 . S
C2338 C2339 1.414 . S
C2338 C2341 1.499 . S
C2339 H2313 0.950 . S
C2339 C2338 1.414 . S
C2339 C2340 1.374 . S
C2340 H2314 0.950 . S
C2340 C2336 1.385 . S
C2340 C2339 1.374 . S
C2341 C2338 1.499 . S
C2341 C2342 1.373 . S
C2341 C2343 1.389 . S
C2342 H2315 0.950 . S
C2342 C2328 1.377 . S
C2342 C2341 1.373 . S
C2343 C2327 1.377 . S
C2343 C2341 1.389 . S
C2343 C2344 1.524 . S
C2344 C2343 1.524 . S
C2344 C2345 1.397 . S
C2344 C2349 1.363 . S
C2345 H2316 0.950 . S
C2345 C2344 1.397 . S
C2345 C2346 1.334 . S
C2346 H2317 0.950 . S
C2346 C2345 1.334 . S
C2346 C2347 1.287 . S
C2347 C2346 1.287 . S
C2347 C2348 1.524 . S
C2347 H2350 0.999 . S
C2348 H2318 0.950 . S
C2348 C2347 1.524 . S
C2348 C2349 1.415 . S
C2349 H2319 0.950 . S
C2349 C2344 1.363 . S
C2349 C2348 1.415 . S
H2350 C2347 0.999 . S
H2351 C2332 0.913 . S
H2352 C2370 0.951 . S
H2353 C2372 0.951 . S
H2354 C2374 0.950 . S
H2355 C2375 0.950 . S
H2356 C2377 0.950 . S
H2357 C2380 0.950 . S
H2358 C2381 0.950 . S
H2359 C2383 0.950 . S
H2360 C2384 0.950 . S
H2361 C2385 0.951 . S
H2362 C2387 0.951 . S
H2363 C2389 0.950 . S
H2364 C2390 0.950 . S
H2365 C2392 0.950 . S
H2366 C2395 0.950 . S
H2367 C2396 0.950 . S
H2368 C2398 0.950 . S
H2369 C2399 0.950 . S
C2370 H2352 0.951 . S
C2370 C2371 1.366 . S
C2370 C2372 1.388 . S
C2371 C2370 1.366 . S
C2371 C2375 1.385 . S
C2372 H2353 0.951 . S
C2372 C2370 1.388 . S
C2372 C2373 1.366 . S
C2373 C2372 1.366 . S
C2373 C2374 1.414 . S
C2373 C2376 1.499 . S
C2374 H2354 0.950 . S
C2374 C2373 1.414 . S
C2374 C2375 1.374 . S
C2375 H2355 0.950 . S
C2375 C2371 1.385 . S
C2375 C2374 1.374 . S
C2376 C2373 1.499 . S
C2376 C2377 1.373 . S
C2376 C2378 1.389 . S
C2377 H2356 0.950 . S
C2377 C2376 1.373 . S
C2377 C2393 1.377 . S
C2378 C2376 1.389 . S
C2378 C2379 1.524 . S
C2378 C2392 1.377 . S
C2379 C2378 1.524 . S
C2379 C2380 1.397 . S
C2379 C2384 1.363 . S
C2380 H2357 0.950 . S
C2380 C2379 1.397 . S
C2380 C2381 1.334 . S
C2381 H2358 0.950 . S
C2381 C2380 1.334 . S
C2381 C2382 1.287 . S
C2382 C2381 1.287 . S
C2382 C2383 1.524 . S
C2382 H2401 0.913 . S
C2383 H2359 0.950 . S
C2383 C2382 1.524 . S
C2383 C2384 1.415 . S
C2384 H2360 0.950 . S
C2384 C2379 1.363 . S
C2384 C2383 1.415 . S
C2385 H2361 0.951 . S
C2385 C2386 1.366 . S
C2385 C2387 1.388 . S
C2386 C2385 1.366 . S
C2386 C2390 1.385 . S
C2387 H2362 0.951 . S
C2387 C2385 1.388 . S
C2387 C2388 1.366 . S
C2388 C2387 1.366 . S
C2388 C2389 1.414 . S
C2388 C2391 1.499 . S
C2389 H2363 0.950 . S
C2389 C2388 1.414 . S
C2389 C2390 1.374 . S
C2390 H2364 0.950 . S
C2390 C2386 1.385 . S
C2390 C2389 1.374 . S
C2391 C2388 1.499 . S
C2391 C2392 1.373 . S
C2391 C2393 1.389 . S
C2392 H2365 0.950 . S
C2392 C2378 1.377 . S
C2392 C2391 1.373 . S
C2393 C2377 1.377 . S
C2393 C2391 1.389 . S
C2393 C2394 1.524 . S
C2394 C2393 1.524 . S
C2394 C2395 1.397 . S
C2394 C2399 1.363 . S
C2395 H2366 0.950 . S
C2395 C2394 1.397 . S
C2395 C2396 1.334 . S
C2396 H2367 0.950 . S
C2396 C2395 1.334 . S
C2396 C2397 1.287 . S
C2397 C2396 1.287 . S
C2397 C2398 1.524 . S
C2397 H2400 0.999 . S
C2398 H2368 0.950 . S
C2398 C2397 1.524 . S
C2398 C2399 1.415 . S
C2399 H2369 0.950 . S
C2399 C2394 1.363 . S
C2399 C2398 1.415 . S
H2400 C2397 0.999 . S
H2401 C2382 0.913 . S
H2402 C2420 0.951 . S
H2403 C2422 0.951 . S
H2404 C2424 0.950 . S
H2405 C2425 0.950 . S
H2406 C2427 0.950 . S
H2407 C2430 0.950 . S
H2408 C2431 0.950 . S
H2409 C2433 0.950 . S
H2410 C2434 0.950 . S
H2411 C2435 0.951 . S
H2412 C2437 0.951 . S
H2413 C2439 0.950 . S
H2414 C2440 0.950 . S
H2415 C2442 0.950 . S
H2416 C2445 0.950 . S
H2417 C2446 0.950 . S
H2418 C2448 0.950 . S
H2419 C2449 0.950 . S
C2420 H2402 0.951 . S
C2420 C2421 1.366 . S
C2420 C2422 1.388 . S
C2421 C2420 1.366 . S
C2421 C2425 1.385 . S
C2422 H2403 0.951 . S
C2422 C2420 1.388 . S
C2422 C2423 1.366 . S
C2423 C2422 1.366 . S
C2423 C2424 1.414 . S
C2423 C2426 1.499 . S
C2424 H2404 0.950 . S
C2424 C2423 1.414 . S
C2424 C2425 1.374 . S
C2425 H2405 0.950 . S
C2425 C2421 1.385 . S
C2425 C2424 1.374 . S
C2426 C2423 1.499 . S
C2426 C2427 1.373 . S
C2426 C2428 1.389 . S
C2427 H2406 0.950 . S
C2427 C2426 1.373 . S
C2427 C2443 1.377 . S
C2428 C2426 1.389 . S
C2428 C2429 1.524 . S
C2428 C2442 1.377 . S
C2429 C2428 1.524 . S
C2429 C2430 1.397 . S
C2429 C2434 1.363 . S
C2430 H2407 0.950 . S
C2430 C2429 1.397 . S
C2430 C2431 1.334 . S
C2431 H2408 0.950 . S
C2431 C2430 1.334 . S
C2431 C2432 1.287 . S
C2432 C2431 1.287 . S
C2432 C2433 1.524 . S
C2432 H2451 0.913 . S
C2433 H2409 0.950 . S
C2433 C2432 1.524 . S
C2433 C2434 1.415 . S
C2434 H2410 0.950 . S
C2434 C2429 1.363 . S
C2434 C2433 1.415 . S
C2435 H2411 0.951 . S
C2435 C2436 1.366 . S
C2435 C2437 1.388 . S
C2436 C2435 1.366 . S
C2436 C2440 1.385 . S
C2437 H2412 0.951 . S
C2437 C2435 1.388 . S
C2437 C2438 1.366 . S
C2438 C2437 1.366 . S
C2438 C2439 1.414 . S
C2438 C2441 1.499 . S
C2439 H2413 0.950 . S
C2439 C2438 1.414 . S
C2439 C2440 1.374 . S
C2440 H2414 0.950 . S
C2440 C2436 1.385 . S
C2440 C2439 1.374 . S
C2441 C2438 1.499 . S
C2441 C2442 1.373 . S
C2441 C2443 1.389 . S
C2442 H2415 0.950 . S
C2442 C2428 1.377 . S
C2442 C2441 1.373 . S
C2443 C2427 1.377 . S
C2443 C2441 1.389 . S
C2443 C2444 1.524 . S
C2444 C2443 1.524 . S
C2444 C2445 1.397 . S
C2444 C2449 1.363 . S
C2445 H2416 0.950 . S
C2445 C2444 1.397 . S
C2445 C2446 1.334 . S
C2446 H2417 0.950 . S
C2446 C2445 1.334 . S
C2446 C2447 1.287 . S
C2447 C2446 1.287 . S
C2447 C2448 1.524 . S
C2447 H2450 0.999 . S
C2448 H2418 0.950 . S
C2448 C2447 1.524 . S
C2448 C2449 1.415 . S
C2449 H2419 0.950 . S
C2449 C2444 1.363 . S
C2449 C2448 1.415 . S
H2450 C2447 0.999 . S
H2451 C2432 0.913 . S
H2452 C2470 0.951 . S
H2453 C2472 0.951 . S
H2454 C2474 0.950 . S
H2455 C2475 0.950 . S
H2456 C2477 0.950 . S
H2457 C2480 0.950 . S
H2458 C2481 0.950 . S
H2459 C2483 0.950 . S
H2460 C2484 0.950 . S
H2461 C2485 0.951 . S
H2462 C2487 0.951 . S
H2463 C2489 0.950 . S
H2464 C2490 0.950 . S
H2465 C2492 0.950 . S
H2466 C2495 0.950 . S
H2467 C2496 0.950 . S
H2468 C2498 0.950 . S
H2469 C2499 0.950 . S
C2470 H2452 0.951 . S
C2470 C2471 1.366 . S
C2470 C2472 1.388 . S
C2471 C2470 1.366 . S
C2471 C2475 1.385 . S
C2472 H2453 0.951 . S
C2472 C2470 1.388 . S
C2472 C2473 1.366 . S
C2473 C2472 1.366 . S
C2473 C2474 1.414 . S
C2473 C2476 1.499 . S
C2474 H2454 0.950 . S
C2474 C2473 1.414 . S
C2474 C2475 1.374 . S
C2475 H2455 0.950 . S
C2475 C2471 1.385 . S
C2475 C2474 1.374 . S
C2476 C2473 1.499 . S
C2476 C2477 1.373 . S
C2476 C2478 1.389 . S
C2477 H2456 0.950 . S
C2477 C2476 1.373 . S
C2477 C2493 1.377 . S
C2478 C2476 1.389 . S
C2478 C2479 1.524 . S
C2478 C2492 1.377 . S
C2479 C2478 1.524 . S
C2479 C2480 1.397 . S
C2479 C2484 1.363 . S
C2480 H2457 0.950 . S
C2480 C2479 1.397 . S
C2480 C2481 1.334 . S
C2481 H2458 0.950 . S
C2481 C2480 1.334 . S
C2481 C2482 1.287 . S
C2482 C2481 1.287 . S
C2482 C2483 1.524 . S
C2482 H2501 0.913 . S
C2483 H2459 0.950 . S
C2483 C2482 1.524 . S
C2483 C2484 1.415 . S
C2484 H2460 0.950 . S
C2484 C2479 1.363 . S
C2484 C2483 1.415 . S
C2485 H2461 0.951 . S
C2485 C2486 1.366 . S
C2485 C2487 1.388 . S
C2486 C2485 1.366 . S
C2486 C2490 1.385 . S
C2487 H2462 0.951 . S
C2487 C2485 1.388 . S
C2487 C2488 1.366 . S
C2488 C2487 1.366 . S
C2488 C2489 1.414 . S
C2488 C2491 1.499 . S
C2489 H2463 0.950 . S
C2489 C2488 1.414 . S
C2489 C2490 1.374 . S
C2490 H2464 0.950 . S
C2490 C2486 1.385 . S
C2490 C2489 1.374 . S
C2491 C2488 1.499 . S
C2491 C2492 1.373 . S
C2491 C2493 1.389 . S
C2492 H2465 0.950 . S
C2492 C2478 1.377 . S
C2492 C2491 1.373 . S
C2493 C2477 1.377 . S
C2493 C2491 1.389 . S
C2493 C2494 1.524 . S
C2494 C2493 1.524 . S
C2494 C2495 1.397 . S
C2494 C2499 1.363 . S
C2495 H2466 0.950 . S
C2495 C2494 1.397 . S
C2495 C2496 1.334 . S
C2496 H2467 0.950 . S
C2496 C2495 1.334 . S
C2496 C2497 1.287 . S
C2497 C2496 1.287 . S
C2497 C2498 1.524 . S
C2497 H2500 0.999 . S
C2498 H2468 0.950 . S
C2498 C2497 1.524 . S
C2498 C2499 1.415 . S
C2499 H2469 0.950 . S
C2499 C2494 1.363 . S
C2499 C2498 1.415 . S
H2500 C2497 0.999 . S
H2501 C2482 0.913 . S
H2502 C2520 0.951 . S
H2503 C2522 0.951 . S
H2504 C2524 0.950 . S
H2505 C2525 0.950 . S
H2506 C2527 0.950 . S
H2507 C2530 0.950 . S
H2508 C2531 0.950 . S
H2509 C2533 0.950 . S
H2510 C2534 0.950 . S
H2511 C2535 0.951 . S
H2512 C2537 0.951 . S
H2513 C2539 0.950 . S
H2514 C2540 0.950 . S
H2515 C2542 0.950 . S
H2516 C2545 0.950 . S
H2517 C2546 0.950 . S
H2518 C2548 0.950 . S
H2519 C2549 0.950 . S
C2520 H2502 0.951 . S
C2520 C2521 1.366 . S
C2520 C2522 1.388 . S
C2521 C2520 1.366 . S
C2521 C2525 1.385 . S
C2522 H2503 0.951 . S
C2522 C2520 1.388 . S
C2522 C2523 1.366 . S
C2523 C2522 1.366 . S
C2523 C2524 1.414 . S
C2523 C2526 1.499 . S
C2524 H2504 0.950 . S
C2524 C2523 1.414 . S
C2524 C2525 1.374 . S
C2525 H2505 0.950 . S
C2525 C2521 1.385 . S
C2525 C2524 1.374 . S
C2526 C2523 1.499 . S
C2526 C2527 1.373 . S
C2526 C2528 1.389 . S
C2527 H2506 0.950 . S
C2527 C2526 1.373 . S
C2527 C2543 1.377 . S
C2528 C2526 1.389 . S
C2528 C2529 1.524 . S
C2528 C2542 1.377 . S
C2529 C2528 1.524 . S
C2529 C2530 1.397 . S
C2529 C2534 1.363 . S
C2530 H2507 0.950 . S
C2530 C2529 1.397 . S
C2530 C2531 1.334 . S
C2531 H2508 0.950 . S
C2531 C2530 1.334 . S
C2531 C2532 1.287 . S
C2532 C2531 1.287 . S
C2532 C2533 1.524 . S
C2532 H2551 0.913 1_565 S
C2533 H2509 0.950 . S
C2533 C2532 1.524 . S
C2533 C2534 1.415 . S
C2534 H2510 0.950 . S
C2534 C2529 1.363 . S
C2534 C2533 1.415 . S
C2535 H2511 0.951 . S
C2535 C2536 1.366 . S
C2535 C2537 1.388 . S
C2536 C2535 1.366 . S
C2536 C2540 1.385 . S
C2537 H2512 0.951 . S
C2537 C2535 1.388 . S
C2537 C2538 1.366 . S
C2538 C2537 1.366 . S
C2538 C2539 1.414 . S
C2538 C2541 1.499 . S
C2539 H2513 0.950 . S
C2539 C2538 1.414 . S
C2539 C2540 1.374 . S
C2540 H2514 0.950 . S
C2540 C2536 1.385 . S
C2540 C2539 1.374 . S
C2541 C2538 1.499 . S
C2541 C2542 1.373 . S
C2541 C2543 1.389 . S
C2542 H2515 0.950 . S
C2542 C2528 1.377 . S
C2542 C2541 1.373 . S
C2543 C2527 1.377 . S
C2543 C2541 1.389 . S
C2543 C2544 1.524 . S
C2544 C2543 1.524 . S
C2544 C2545 1.397 . S
C2544 C2549 1.363 . S
C2545 H2516 0.950 . S
C2545 C2544 1.397 . S
C2545 C2546 1.334 . S
C2546 H2517 0.950 . S
C2546 C2545 1.334 . S
C2546 C2547 1.287 . S
C2547 C2546 1.287 . S
C2547 C2548 1.524 . S
C2547 H2550 0.999 . S
C2548 H2518 0.950 . S
C2548 C2547 1.524 . S
C2548 C2549 1.415 . S
C2549 H2519 0.950 . S
C2549 C2544 1.363 . S
C2549 C2548 1.415 . S
H2550 C2547 0.999 . S
H2551 C2532 0.913 1_545 S
H2552 C2570 0.951 . S
H2553 C2572 0.951 . S
H2554 C2574 0.950 . S
H2555 C2575 0.950 . S
H2556 C2577 0.950 . S
H2557 C2580 0.950 . S
H2558 C2581 0.950 . S
H2559 C2583 0.950 . S
H2560 C2584 0.950 . S
H2561 C2585 0.951 . S
H2562 C2587 0.951 . S
H2563 C2589 0.950 . S
H2564 C2590 0.950 . S
H2565 C2592 0.950 . S
H2566 C2595 0.950 . S
H2567 C2596 0.950 . S
H2568 C2598 0.950 . S
H2569 C2599 0.950 . S
C2570 H2552 0.951 . S
C2570 C2571 1.366 . S
C2570 C2572 1.388 . S
C2571 C2570 1.366 . S
C2571 C2575 1.385 . S
C2572 H2553 0.951 . S
C2572 C2570 1.388 . S
C2572 C2573 1.366 . S
C2573 C2572 1.366 . S
C2573 C2574 1.414 . S
C2573 C2576 1.499 . S
C2574 H2554 0.950 . S
C2574 C2573 1.414 . S
C2574 C2575 1.374 . S
C2575 H2555 0.950 . S
C2575 C2571 1.385 . S
C2575 C2574 1.374 . S
C2576 C2573 1.499 . S
C2576 C2577 1.373 . S
C2576 C2578 1.389 . S
C2577 H2556 0.950 . S
C2577 C2576 1.373 . S
C2577 C2593 1.377 . S
C2578 C2576 1.389 . S
C2578 C2579 1.524 . S
C2578 C2592 1.377 . S
C2579 C2578 1.524 . S
C2579 C2580 1.397 . S
C2579 C2584 1.363 . S
C2580 H2557 0.950 . S
C2580 C2579 1.397 . S
C2580 C2581 1.334 . S
C2581 H2558 0.950 . S
C2581 C2580 1.334 . S
C2581 C2582 1.287 . S
C2582 C2581 1.287 . S
C2582 C2583 1.524 . S
C2582 H2601 0.913 . S
C2583 H2559 0.950 . S
C2583 C2582 1.524 . S
C2583 C2584 1.415 . S
C2584 H2560 0.950 . S
C2584 C2579 1.363 . S
C2584 C2583 1.415 . S
C2585 H2561 0.951 . S
C2585 C2586 1.366 . S
C2585 C2587 1.388 . S
C2586 C2585 1.366 . S
C2586 C2590 1.385 . S
C2587 H2562 0.951 . S
C2587 C2585 1.388 . S
C2587 C2588 1.366 . S
C2588 C2587 1.366 . S
C2588 C2589 1.414 . S
C2588 C2591 1.499 . S
C2589 H2563 0.950 . S
C2589 C2588 1.414 . S
C2589 C2590 1.374 . S
C2590 H2564 0.950 . S
C2590 C2586 1.385 . S
C2590 C2589 1.374 . S
C2591 C2588 1.499 . S
C2591 C2592 1.373 . S
C2591 C2593 1.389 . S
C2592 H2565 0.950 . S
C2592 C2578 1.377 . S
C2592 C2591 1.373 . S
C2593 C2577 1.377 . S
C2593 C2591 1.389 . S
C2593 C2594 1.524 . S
C2594 C2593 1.524 . S
C2594 C2595 1.397 . S
C2594 C2599 1.363 . S
C2595 H2566 0.950 . S
C2595 C2594 1.397 . S
C2595 C2596 1.334 1_455 S
C2596 H2567 0.950 . S
C2596 C2595 1.334 1_655 S
C2596 C2597 1.287 . S
C2597 C2596 1.287 . S
C2597 C2598 1.524 . S
C2597 H2600 0.999 . S
C2598 H2568 0.950 . S
C2598 C2597 1.524 . S
C2598 C2599 1.415 1_655 S
C2599 H2569 0.950 . S
C2599 C2594 1.363 . S
C2599 C2598 1.415 1_455 S
H2600 C2597 0.999 . S
H2601 C2582 0.913 . S
H2602 C2620 0.951 . S
H2603 C2622 0.951 . S
H2604 C2624 0.950 . S
H2605 C2625 0.950 . S
H2606 C2627 0.950 . S
H2607 C2630 0.950 . S
H2608 C2631 0.950 . S
H2609 C2633 0.950 . S
H2610 C2634 0.950 . S
H2611 C2635 0.951 . S
H2612 C2637 0.951 . S
H2613 C2639 0.950 . S
H2614 C2640 0.950 . S
H2615 C2642 0.950 . S
H2616 C2645 0.950 . S
H2617 C2646 0.950 . S
H2618 C2648 0.950 . S
H2619 C2649 0.950 . S
C2620 H2602 0.951 . S
C2620 C2621 1.366 . S
C2620 C2622 1.388 . S
C2621 C2620 1.366 . S
C2621 C2625 1.385 . S
C2622 H2603 0.951 . S
C2622 C2620 1.388 . S
C2622 C2623 1.366 . S
C2623 C2622 1.366 . S
C2623 C2624 1.414 . S
C2623 C2626 1.499 . S
C2624 H2604 0.950 . S
C2624 C2623 1.414 . S
C2624 C2625 1.374 . S
C2625 H2605 0.950 . S
C2625 C2621 1.385 . S
C2625 C2624 1.374 . S
C2626 C2623 1.499 . S
C2626 C2627 1.373 . S
C2626 C2628 1.389 . S
C2627 H2606 0.950 . S
C2627 C2626 1.373 . S
C2627 C2643 1.377 . S
C2628 C2626 1.389 . S
C2628 C2629 1.524 . S
C2628 C2642 1.377 . S
C2629 C2628 1.524 . S
C2629 C2630 1.397 . S
C2629 C2634 1.363 . S
C2630 H2607 0.950 . S
C2630 C2629 1.397 . S
C2630 C2631 1.334 . S
C2631 H2608 0.950 . S
C2631 C2630 1.334 . S
C2631 C2632 1.287 . S
C2632 C2631 1.287 . S
C2632 C2633 1.524 . S
C2632 H2651 0.913 . S
C2633 H2609 0.950 . S
C2633 C2632 1.524 . S
C2633 C2634 1.415 . S
C2634 H2610 0.950 . S
C2634 C2629 1.363 . S
C2634 C2633 1.415 . S
C2635 H2611 0.951 . S
C2635 C2636 1.366 . S
C2635 C2637 1.388 . S
C2636 C2635 1.366 . S
C2636 C2640 1.385 . S
C2637 H2612 0.951 . S
C2637 C2635 1.388 . S
C2637 C2638 1.366 . S
C2638 C2637 1.366 . S
C2638 C2639 1.414 . S
C2638 C2641 1.499 . S
C2639 H2613 0.950 . S
C2639 C2638 1.414 . S
C2639 C2640 1.374 . S
C2640 H2614 0.950 . S
C2640 C2636 1.385 . S
C2640 C2639 1.374 . S
C2641 C2638 1.499 . S
C2641 C2642 1.373 . S
C2641 C2643 1.389 . S
C2642 H2615 0.950 . S
C2642 C2628 1.377 . S
C2642 C2641 1.373 . S
C2643 C2627 1.377 . S
C2643 C2641 1.389 . S
C2643 C2644 1.524 . S
C2644 C2643 1.524 . S
C2644 C2645 1.397 . S
C2644 C2649 1.363 . S
C2645 H2616 0.950 . S
C2645 C2644 1.397 . S
C2645 C2646 1.334 . S
C2646 H2617 0.950 . S
C2646 C2645 1.334 . S
C2646 C2647 1.287 . S
C2647 C2646 1.287 . S
C2647 C2648 1.524 . S
C2647 H2650 0.999 . S
C2648 H2618 0.950 . S
C2648 C2647 1.524 . S
C2648 C2649 1.415 . S
C2649 H2619 0.950 . S
C2649 C2644 1.363 . S
C2649 C2648 1.415 . S
H2650 C2647 0.999 . S
H2651 C2632 0.913 . S
H2652 C2670 0.951 . S
H2653 C2672 0.951 . S
H2654 C2674 0.950 . S
H2655 C2675 0.950 . S
H2656 C2677 0.950 . S
H2657 C2680 0.950 . S
H2658 C2681 0.950 . S
H2659 C2683 0.950 . S
H2660 C2684 0.930 1_655 S
H2661 C2685 0.951 . S
H2662 C2687 0.951 . S
H2663 C2689 0.950 . S
H2664 C2690 0.950 . S
H2665 C2692 0.950 . S
H2666 C2695 0.950 . S
H2667 C2696 0.950 . S
H2668 C2698 0.950 . S
H2669 C2699 0.950 . S
C2670 H2652 0.951 . S
C2670 C2671 1.366 . S
C2670 C2672 1.388 . S
C2671 C2670 1.366 . S
C2671 C2675 1.385 . S
C2672 H2653 0.951 . S
C2672 C2670 1.388 . S
C2672 C2673 1.366 . S
C2673 C2672 1.366 . S
C2673 C2674 1.414 . S
C2673 C2676 1.499 . S
C2674 H2654 0.950 . S
C2674 C2673 1.414 . S
C2674 C2675 1.374 . S
C2675 H2655 0.950 . S
C2675 C2671 1.385 . S
C2675 C2674 1.374 . S
C2676 C2673 1.499 . S
C2676 C2677 1.373 . S
C2676 C2678 1.389 . S
C2677 H2656 0.950 . S
C2677 C2676 1.373 . S
C2677 C2693 1.377 . S
C2678 C2676 1.389 . S
C2678 C2679 1.524 . S
C2678 C2692 1.377 . S
C2679 C2678 1.524 . S
C2679 C2680 1.397 . S
C2679 C2684 1.363 1_655 S
C2680 H2657 0.950 . S
C2680 C2679 1.397 . S
C2680 C2681 1.334 1_655 S
C2681 H2658 0.950 . S
C2681 C2680 1.334 1_455 S
C2681 C2682 1.287 . S
C2682 C2681 1.287 . S
C2682 C2683 1.524 . S
C2682 H2701 0.913 . S
C2683 H2659 0.950 . S
C2683 C2682 1.524 . S
C2683 C2684 1.415 . S
C2684 H2660 0.930 1_455 S
C2684 C2679 1.363 1_455 S
C2684 C2683 1.415 . S
C2685 H2661 0.951 . S
C2685 C2686 1.366 . S
C2685 C2687 1.388 . S
C2686 C2685 1.366 . S
C2686 C2690 1.385 . S
C2687 H2662 0.951 . S
C2687 C2685 1.388 . S
C2687 C2688 1.366 . S
C2688 C2687 1.366 . S
C2688 C2689 1.414 . S
C2688 C2691 1.499 . S
C2689 H2663 0.950 . S
C2689 C2688 1.414 . S
C2689 C2690 1.374 . S
C2690 H2664 0.950 . S
C2690 C2686 1.385 . S
C2690 C2689 1.374 . S
C2691 C2688 1.499 . S
C2691 C2692 1.373 . S
C2691 C2693 1.389 . S
C2692 H2665 0.950 . S
C2692 C2678 1.377 . S
C2692 C2691 1.373 . S
C2693 C2677 1.377 . S
C2693 C2691 1.389 . S
C2693 C2694 1.524 . S
C2694 C2693 1.524 . S
C2694 C2695 1.397 . S
C2694 C2699 1.363 . S
C2695 H2666 0.950 . S
C2695 C2694 1.397 . S
C2695 C2696 1.334 . S
C2696 H2667 0.950 . S
C2696 C2695 1.334 . S
C2696 C2697 1.287 . S
C2697 C2696 1.287 . S
C2697 C2698 1.524 . S
C2697 H2700 0.999 . S
C2698 H2668 0.950 . S
C2698 C2697 1.524 . S
C2698 C2699 1.415 . S
C2699 H2669 0.950 . S
C2699 C2694 1.363 . S
C2699 C2698 1.415 . S
H2700 C2697 0.999 . S
H2701 C2682 0.913 . S
H2702 C2720 0.951 . S
H2703 C2722 0.951 . S
H2704 C2724 0.950 . S
H2705 C2725 0.950 . S
H2706 C2727 0.950 . S
H2707 C2730 0.950 . S
H2708 C2731 0.950 . S
H2709 C2733 0.950 . S
H2710 C2734 0.950 . S
H2711 C2735 0.951 . S
H2712 C2737 0.951 . S
H2713 C2739 0.950 . S
H2714 C2740 0.950 . S
H2715 C2742 0.950 . S
H2716 C2745 0.950 . S
H2717 C2746 0.950 . S
H2718 C2748 0.950 . S
H2719 C2749 0.950 . S
C2720 H2702 0.951 . S
C2720 C2721 1.366 . S
C2720 C2722 1.388 . S
C2721 C2720 1.366 . S
C2721 C2725 1.385 . S
C2722 H2703 0.951 . S
C2722 C2720 1.388 . S
C2722 C2723 1.366 . S
C2723 C2722 1.366 . S
C2723 C2724 1.414 . S
C2723 C2726 1.499 . S
C2724 H2704 0.950 . S
C2724 C2723 1.414 . S
C2724 C2725 1.374 . S
C2725 H2705 0.950 . S
C2725 C2721 1.385 . S
C2725 C2724 1.374 . S
C2726 C2723 1.499 . S
C2726 C2727 1.373 . S
C2726 C2728 1.389 . S
C2727 H2706 0.950 . S
C2727 C2726 1.373 . S
C2727 C2743 1.377 . S
C2728 C2726 1.389 . S
C2728 C2729 1.524 . S
C2728 C2742 1.377 . S
C2729 C2728 1.524 . S
C2729 C2730 1.397 . S
C2729 C2734 1.363 . S
C2730 H2707 0.950 . S
C2730 C2729 1.397 . S
C2730 C2731 1.334 . S
C2731 H2708 0.950 . S
C2731 C2730 1.334 . S
C2731 C2732 1.287 . S
C2732 C2731 1.287 . S
C2732 C2733 1.524 . S
C2732 H2751 0.913 . S
C2733 H2709 0.950 . S
C2733 C2732 1.524 . S
C2733 C2734 1.415 . S
C2734 H2710 0.950 . S
C2734 C2729 1.363 . S
C2734 C2733 1.415 . S
C2735 H2711 0.951 . S
C2735 C2736 1.366 . S
C2735 C2737 1.388 . S
C2736 C2735 1.366 . S
C2736 C2740 1.385 . S
C2737 H2712 0.951 . S
C2737 C2735 1.388 . S
C2737 C2738 1.366 . S
C2738 C2737 1.366 . S
C2738 C2739 1.414 . S
C2738 C2741 1.499 . S
C2739 H2713 0.950 . S
C2739 C2738 1.414 . S
C2739 C2740 1.374 . S
C2740 H2714 0.950 . S
C2740 C2736 1.385 . S
C2740 C2739 1.374 . S
C2741 C2738 1.499 . S
C2741 C2742 1.373 . S
C2741 C2743 1.389 . S
C2742 H2715 0.950 . S
C2742 C2728 1.377 . S
C2742 C2741 1.373 . S
C2743 C2727 1.377 . S
C2743 C2741 1.389 . S
C2743 C2744 1.524 . S
C2744 C2743 1.524 . S
C2744 C2745 1.397 . S
C2744 C2749 1.363 . S
C2745 H2716 0.950 . S
C2745 C2744 1.397 . S
C2745 C2746 1.334 . S
C2746 H2717 0.950 . S
C2746 C2745 1.334 . S
C2746 C2747 1.287 . S
C2747 C2746 1.287 . S
C2747 C2748 1.524 . S
C2747 H2750 0.999 . S
C2748 H2718 0.950 . S
C2748 C2747 1.524 . S
C2748 C2749 1.415 . S
C2749 H2719 0.950 . S
C2749 C2744 1.363 . S
C2749 C2748 1.415 . S
H2750 C2747 0.999 . S
H2751 C2732 0.913 . S
H2752 C2770 0.951 . S
H2753 C2772 0.951 . S
H2754 C2774 0.950 . S
H2755 C2775 0.950 . S
H2756 C2777 0.950 . S
H2757 C2780 0.950 . S
H2758 C2781 0.950 . S
H2759 C2783 0.950 . S
H2760 C2784 0.950 . S
H2761 C2785 0.951 . S
H2762 C2787 0.951 . S
H2763 C2789 0.950 . S
H2764 C2790 0.950 . S
H2765 C2792 0.950 . S
H2766 C2795 0.950 . S
H2767 C2796 0.950 . S
H2768 C2798 0.950 . S
H2769 C2799 0.950 . S
C2770 H2752 0.951 . S
C2770 C2771 1.366 . S
C2770 C2772 1.388 . S
C2771 C2770 1.366 . S
C2771 C2775 1.385 . S
C2772 H2753 0.951 . S
C2772 C2770 1.388 . S
C2772 C2773 1.366 . S
C2773 C2772 1.366 . S
C2773 C2774 1.414 . S
C2773 C2776 1.499 . S
C2774 H2754 0.950 . S
C2774 C2773 1.414 . S
C2774 C2775 1.374 . S
C2775 H2755 0.950 . S
C2775 C2771 1.385 . S
C2775 C2774 1.374 . S
C2776 C2773 1.499 . S
C2776 C2777 1.373 . S
C2776 C2778 1.389 . S
C2777 H2756 0.950 . S
C2777 C2776 1.373 . S
C2777 C2793 1.377 . S
C2778 C2776 1.389 . S
C2778 C2779 1.524 . S
C2778 C2792 1.377 . S
C2779 C2778 1.524 . S
C2779 C2780 1.397 . S
C2779 C2784 1.363 . S
C2780 H2757 0.950 . S
C2780 C2779 1.397 . S
C2780 C2781 1.334 . S
C2781 H2758 0.950 . S
C2781 C2780 1.334 . S
C2781 C2782 1.287 . S
C2782 C2781 1.287 . S
C2782 C2783 1.524 . S
C2782 H2801 0.913 . S
C2783 H2759 0.950 . S
C2783 C2782 1.524 . S
C2783 C2784 1.415 . S
C2784 H2760 0.950 . S
C2784 C2779 1.363 . S
C2784 C2783 1.415 . S
C2785 H2761 0.951 . S
C2785 C2786 1.366 . S
C2785 C2787 1.388 . S
C2786 C2785 1.366 . S
C2786 C2790 1.385 . S
C2787 H2762 0.951 . S
C2787 C2785 1.388 . S
C2787 C2788 1.366 . S
C2788 C2787 1.366 . S
C2788 C2789 1.414 . S
C2788 C2791 1.499 . S
C2789 H2763 0.950 . S
C2789 C2788 1.414 . S
C2789 C2790 1.374 . S
C2790 H2764 0.950 . S
C2790 C2786 1.385 . S
C2790 C2789 1.374 . S
C2791 C2788 1.499 . S
C2791 C2792 1.373 . S
C2791 C2793 1.389 . S
C2792 H2765 0.950 . S
C2792 C2778 1.377 . S
C2792 C2791 1.373 . S
C2793 C2777 1.377 . S
C2793 C2791 1.389 . S
C2793 C2794 1.524 . S
C2794 C2793 1.524 . S
C2794 C2795 1.397 . S
C2794 C2799 1.363 . S
C2795 H2766 0.950 . S
C2795 C2794 1.397 . S
C2795 C2796 1.334 . S
C2796 H2767 0.950 . S
C2796 C2795 1.334 . S
C2796 C2797 1.287 . S
C2797 C2796 1.287 . S
C2797 C2798 1.524 . S
C2797 H2800 0.999 . S
C2798 H2768 0.950 . S
C2798 C2797 1.524 . S
C2798 C2799 1.415 . S
C2799 H2769 0.950 . S
C2799 C2794 1.363 . S
C2799 C2798 1.415 . S
H2800 C2797 0.999 . S
H2801 C2782 0.913 . S
H2802 C2820 0.951 . S
H2803 C2822 0.951 . S
H2804 C2824 0.950 . S
H2805 C2825 0.950 . S
H2806 C2827 0.950 . S
H2807 C2830 0.950 . S
H2808 C2831 0.950 . S
H2809 C2833 0.950 . S
H2810 C2834 0.950 . S
H2811 C2835 0.951 . S
H2812 C2837 0.951 . S
H2813 C2839 0.950 . S
H2814 C2840 0.950 . S
H2815 C2842 0.950 . S
H2816 C2845 0.950 . S
H2817 C2846 0.950 . S
H2818 C2848 0.950 . S
H2819 C2849 0.950 . S
C2820 H2802 0.951 . S
C2820 C2821 1.366 . S
C2820 C2822 1.388 . S
C2821 C2820 1.366 . S
C2821 C2825 1.385 . S
C2822 H2803 0.951 . S
C2822 C2820 1.388 . S
C2822 C2823 1.366 . S
C2823 C2822 1.366 . S
C2823 C2824 1.414 . S
C2823 C2826 1.499 . S
C2824 H2804 0.950 . S
C2824 C2823 1.414 . S
C2824 C2825 1.374 . S
C2825 H2805 0.950 . S
C2825 C2821 1.385 . S
C2825 C2824 1.374 . S
C2826 C2823 1.499 . S
C2826 C2827 1.373 . S
C2826 C2828 1.389 . S
C2827 H2806 0.950 . S
C2827 C2826 1.373 . S
C2827 C2843 1.377 . S
C2828 C2826 1.389 . S
C2828 C2829 1.524 . S
C2828 C2842 1.377 . S
C2829 C2828 1.524 . S
C2829 C2830 1.397 . S
C2829 C2834 1.363 . S
C2830 H2807 0.950 . S
C2830 C2829 1.397 . S
C2830 C2831 1.334 . S
C2831 H2808 0.950 . S
C2831 C2830 1.334 . S
C2831 C2832 1.287 . S
C2832 C2831 1.287 . S
C2832 C2833 1.524 . S
C2832 H2851 0.913 . S
C2833 H2809 0.950 . S
C2833 C2832 1.524 . S
C2833 C2834 1.415 . S
C2834 H2810 0.950 . S
C2834 C2829 1.363 . S
C2834 C2833 1.415 . S
C2835 H2811 0.951 . S
C2835 C2836 1.366 . S
C2835 C2837 1.388 . S
C2836 C2835 1.366 . S
C2836 C2840 1.385 . S
C2837 H2812 0.951 . S
C2837 C2835 1.388 . S
C2837 C2838 1.366 . S
C2838 C2837 1.366 . S
C2838 C2839 1.414 . S
C2838 C2841 1.499 . S
C2839 H2813 0.950 . S
C2839 C2838 1.414 . S
C2839 C2840 1.374 . S
C2840 H2814 0.950 . S
C2840 C2836 1.385 . S
C2840 C2839 1.374 . S
C2841 C2838 1.499 . S
C2841 C2842 1.373 . S
C2841 C2843 1.389 . S
C2842 H2815 0.950 . S
C2842 C2828 1.377 . S
C2842 C2841 1.373 . S
C2843 C2827 1.377 . S
C2843 C2841 1.389 . S
C2843 C2844 1.524 . S
C2844 C2843 1.524 . S
C2844 C2845 1.397 . S
C2844 C2849 1.363 . S
C2845 H2816 0.950 . S
C2845 C2844 1.397 . S
C2845 C2846 1.334 . S
C2846 H2817 0.950 . S
C2846 C2845 1.334 . S
C2846 C2847 1.287 . S
C2847 C2846 1.287 . S
C2847 C2848 1.524 . S
C2847 H2850 0.999 . S
C2848 H2818 0.950 . S
C2848 C2847 1.524 . S
C2848 C2849 1.415 . S
C2849 H2819 0.950 . S
C2849 C2844 1.363 . S
C2849 C2848 1.415 . S
H2850 C2847 0.999 . S
H2851 C2832 0.913 . S
H2852 C2870 0.951 . S
H2853 C2872 0.951 . S
H2854 C2874 0.950 . S
H2855 C2875 0.950 . S
H2856 C2877 0.950 . S
H2857 C2880 0.950 . S
H2858 C2881 0.950 . S
H2859 C2883 0.950 . S
H2860 C2884 0.950 . S
H2861 C2885 0.951 . S
H2862 C2887 0.951 . S
H2863 C2889 0.950 . S
H2864 C2890 0.950 . S
H2865 C2892 0.950 . S
H2866 C2895 0.950 . S
H2867 C2896 0.950 . S
H2868 C2898 0.950 . S
H2869 C2899 0.950 . S
C2870 H2852 0.951 . S
C2870 C2871 1.366 . S
C2870 C2872 1.388 . S
C2871 C2870 1.366 . S
C2871 C2875 1.385 . S
C2872 H2853 0.951 . S
C2872 C2870 1.388 . S
C2872 C2873 1.366 . S
C2873 C2872 1.366 . S
C2873 C2874 1.414 . S
C2873 C2876 1.499 . S
C2874 H2854 0.950 . S
C2874 C2873 1.414 . S
C2874 C2875 1.374 . S
C2875 H2855 0.950 . S
C2875 C2871 1.385 . S
C2875 C2874 1.374 . S
C2876 C2873 1.499 . S
C2876 C2877 1.373 . S
C2876 C2878 1.389 . S
C2877 H2856 0.950 . S
C2877 C2876 1.373 . S
C2877 C2893 1.377 . S
C2878 C2876 1.389 . S
C2878 C2879 1.524 . S
C2878 C2892 1.377 . S
C2879 C2878 1.524 . S
C2879 C2880 1.397 . S
C2879 C2884 1.363 . S
C2880 H2857 0.950 . S
C2880 C2879 1.397 . S
C2880 C2881 1.334 . S
C2881 H2858 0.950 . S
C2881 C2880 1.334 . S
C2881 C2882 1.287 . S
C2882 C2881 1.287 . S
C2882 C2883 1.524 . S
C2882 H2901 0.913 . S
C2883 H2859 0.950 . S
C2883 C2882 1.524 . S
C2883 C2884 1.415 . S
C2884 H2860 0.950 . S
C2884 C2879 1.363 . S
C2884 C2883 1.415 . S
C2885 H2861 0.951 . S
C2885 C2886 1.366 . S
C2885 C2887 1.388 . S
C2886 C2885 1.366 . S
C2886 C2890 1.385 . S
C2887 H2862 0.951 . S
C2887 C2885 1.388 . S
C2887 C2888 1.366 . S
C2888 C2887 1.366 . S
C2888 C2889 1.414 . S
C2888 C2891 1.499 . S
C2889 H2863 0.950 . S
C2889 C2888 1.414 . S
C2889 C2890 1.374 . S
C2890 H2864 0.950 . S
C2890 C2886 1.385 . S
C2890 C2889 1.374 . S
C2891 C2888 1.499 . S
C2891 C2892 1.373 . S
C2891 C2893 1.389 . S
C2892 H2865 0.950 . S
C2892 C2878 1.377 . S
C2892 C2891 1.373 . S
C2893 C2877 1.377 . S
C2893 C2891 1.389 . S
C2893 C2894 1.524 . S
C2894 C2893 1.524 . S
C2894 C2895 1.397 . S
C2894 C2899 1.363 . S
C2895 H2866 0.950 . S
C2895 C2894 1.397 . S
C2895 C2896 1.334 . S
C2896 H2867 0.950 . S
C2896 C2895 1.334 . S
C2896 C2897 1.287 . S
C2897 C2896 1.287 . S
C2897 C2898 1.524 . S
C2897 H2900 0.999 . S
C2898 H2868 0.950 . S
C2898 C2897 1.524 . S
C2898 C2899 1.415 . S
C2899 H2869 0.950 . S
C2899 C2894 1.363 . S
C2899 C2898 1.415 . S
H2900 C2897 0.999 . S
H2901 C2882 0.913 . S
H2902 C2920 0.951 . S
H2903 C2922 0.951 . S
H2904 C2924 0.950 . S
H2905 C2925 0.950 . S
H2906 C2927 0.950 . S
H2907 C2930 0.950 . S
H2908 C2931 0.950 . S
H2909 C2933 0.950 . S
H2910 C2934 0.950 . S
H2911 C2935 0.951 . S
H2912 C2937 0.951 . S
H2913 C2939 0.950 . S
H2914 C2940 0.950 . S
H2915 C2942 0.950 . S
H2916 C2945 0.950 . S
H2917 C2946 0.950 . S
H2918 C2948 0.950 . S
H2919 C2949 0.950 . S
C2920 H2902 0.951 . S
C2920 C2921 1.366 . S
C2920 C2922 1.388 . S
C2921 C2920 1.366 . S
C2921 C2925 1.385 . S
C2922 H2903 0.951 . S
C2922 C2920 1.388 . S
C2922 C2923 1.366 . S
C2923 C2922 1.366 . S
C2923 C2924 1.414 . S
C2923 C2926 1.499 . S
C2924 H2904 0.950 . S
C2924 C2923 1.414 . S
C2924 C2925 1.374 . S
C2925 H2905 0.950 . S
C2925 C2921 1.385 . S
C2925 C2924 1.374 . S
C2926 C2923 1.499 . S
C2926 C2927 1.373 . S
C2926 C2928 1.389 . S
C2927 H2906 0.950 . S
C2927 C2926 1.373 . S
C2927 C2943 1.377 . S
C2928 C2926 1.389 . S
C2928 C2929 1.524 . S
C2928 C2942 1.377 . S
C2929 C2928 1.524 . S
C2929 C2930 1.397 . S
C2929 C2934 1.363 . S
C2930 H2907 0.950 . S
C2930 C2929 1.397 . S
C2930 C2931 1.334 . S
C2931 H2908 0.950 . S
C2931 C2930 1.334 . S
C2931 C2932 1.287 . S
C2932 C2931 1.287 . S
C2932 C2933 1.524 . S
C2932 H2951 0.913 . S
C2933 H2909 0.950 . S
C2933 C2932 1.524 . S
C2933 C2934 1.415 . S
C2934 H2910 0.950 . S
C2934 C2929 1.363 . S
C2934 C2933 1.415 . S
C2935 H2911 0.951 . S
C2935 C2936 1.366 . S
C2935 C2937 1.388 . S
C2936 C2935 1.366 . S
C2936 C2940 1.385 . S
C2937 H2912 0.951 . S
C2937 C2935 1.388 . S
C2937 C2938 1.366 . S
C2938 C2937 1.366 . S
C2938 C2939 1.414 . S
C2938 C2941 1.499 . S
C2939 H2913 0.950 . S
C2939 C2938 1.414 . S
C2939 C2940 1.374 . S
C2940 H2914 0.950 . S
C2940 C2936 1.385 . S
C2940 C2939 1.374 . S
C2941 C2938 1.499 . S
C2941 C2942 1.373 . S
C2941 C2943 1.389 . S
C2942 H2915 0.950 . S
C2942 C2928 1.377 . S
C2942 C2941 1.373 . S
C2943 C2927 1.377 . S
C2943 C2941 1.389 . S
C2943 C2944 1.524 . S
C2944 C2943 1.524 . S
C2944 C2945 1.397 . S
C2944 C2949 1.363 . S
C2945 H2916 0.950 . S
C2945 C2944 1.397 . S
C2945 C2946 1.334 . S
C2946 H2917 0.950 . S
C2946 C2945 1.334 . S
C2946 C2947 1.287 . S
C2947 C2946 1.287 . S
C2947 C2948 1.524 . S
C2947 H2950 0.999 . S
C2948 H2918 0.950 . S
C2948 C2947 1.524 . S
C2948 C2949 1.415 . S
C2949 H2919 0.950 . S
C2949 C2944 1.363 . S
C2949 C2948 1.415 . S
H2950 C2947 0.999 . S
H2951 C2932 0.913 . S
H2952 C2970 0.951 . S
H2953 C2972 0.951 . S
H2954 C2974 0.950 . S
H2955 C2975 0.950 . S
H2956 C2977 0.950 . S
H2957 C2980 0.950 . S
H2958 C2981 0.950 . S
H2959 C2983 0.950 . S
H2960 C2984 0.950 . S
H2961 C2985 0.951 . S
H2962 C2987 0.951 . S
H2963 C2989 0.950 . S
H2964 C2990 0.950 . S
H2965 C2992 0.950 . S
H2966 C2995 0.950 . S
H2967 C2996 0.950 . S
H2968 C2998 0.950 . S
H2969 C2999 0.950 . S
C2970 H2952 0.951 . S
C2970 C2971 1.366 . S
C2970 C2972 1.388 . S
C2971 C2970 1.366 . S
C2971 C2975 1.385 . S
C2972 H2953 0.951 . S
C2972 C2970 1.388 . S
C2972 C2973 1.366 . S
C2973 C2972 1.366 . S
C2973 C2974 1.414 . S
C2973 C2976 1.499 . S
C2974 H2954 0.950 . S
C2974 C2973 1.414 . S
C2974 C2975 1.374 . S
C2975 H2955 0.950 . S
C2975 C2971 1.385 . S
C2975 C2974 1.374 . S
C2976 C2973 1.499 . S
C2976 C2977 1.373 . S
C2976 C2978 1.389 . S
C2977 H2956 0.950 . S
C2977 C2976 1.373 . S
C2977 C2993 1.377 . S
C2978 C2976 1.389 . S
C2978 C2979 1.524 . S
C2978 C2992 1.377 . S
C2979 C2978 1.524 . S
C2979 C2980 1.397 . S
C2979 C2984 1.363 . S
C2980 H2957 0.950 . S
C2980 C2979 1.397 . S
C2980 C2981 1.334 . S
C2981 H2958 0.950 . S
C2981 C2980 1.334 . S
C2981 C2982 1.287 . S
C2982 C2981 1.287 . S
C2982 C2983 1.524 . S
C2982 H3001 0.913 . S
C2983 H2959 0.950 . S
C2983 C2982 1.524 . S
C2983 C2984 1.415 . S
C2984 H2960 0.950 . S
C2984 C2979 1.363 . S
C2984 C2983 1.415 . S
C2985 H2961 0.951 . S
C2985 C2986 1.366 . S
C2985 C2987 1.388 . S
C2986 C2985 1.366 . S
C2986 C2990 1.385 . S
C2987 H2962 0.951 . S
C2987 C2985 1.388 . S
C2987 C2988 1.366 . S
C2988 C2987 1.366 . S
C2988 C2989 1.414 . S
C2988 C2991 1.499 . S
C2989 H2963 0.950 . S
C2989 C2988 1.414 . S
C2989 C2990 1.374 . S
C2990 H2964 0.950 . S
C2990 C2986 1.385 . S
C2990 C2989 1.374 . S
C2991 C2988 1.499 . S
C2991 C2992 1.373 . S
C2991 C2993 1.389 . S
C2992 H2965 0.950 . S
C2992 C2978 1.377 . S
C2992 C2991 1.373 . S
C2993 C2977 1.377 . S
C2993 C2991 1.389 . S
C2993 C2994 1.524 . S
C2994 C2993 1.524 . S
C2994 C2995 1.397 . S
C2994 C2999 1.363 . S
C2995 H2966 0.950 . S
C2995 C2994 1.397 . S
C2995 C2996 1.334 . S
C2996 H2967 0.950 . S
C2996 C2995 1.334 . S
C2996 C2997 1.287 . S
C2997 C2996 1.287 . S
C2997 C2998 1.524 . S
C2997 H3000 0.999 . S
C2998 H2968 0.950 . S
C2998 C2997 1.524 . S
C2998 C2999 1.415 . S
C2999 H2969 0.950 . S
C2999 C2994 1.363 . S
C2999 C2998 1.415 . S
H3000 C2997 0.999 . S
H3001 C2982 0.913 . S
H3002 C3020 0.951 . S
H3003 C3022 0.951 . S
H3004 C3024 0.950 . S
H3005 C3025 0.950 . S
H3006 C3027 0.950 . S
H3007 C3030 0.950 . S
H3008 C3031 0.950 . S
H3009 C3033 0.950 . S
H3010 C3034 0.950 . S
H3011 C3035 0.951 . S
H3012 C3037 0.951 . S
H3013 C3039 0.950 . S
H3014 C3040 0.950 . S
H3015 C3042 0.950 . S
H3016 C3045 0.950 . S
H3017 C3046 0.950 . S
H3018 C3048 0.950 . S
H3019 C3049 0.950 . S
C3020 H3002 0.951 . S
C3020 C3021 1.366 . S
C3020 C3022 1.388 . S
C3021 C3020 1.366 . S
C3021 C3025 1.385 . S
C3022 H3003 0.951 . S
C3022 C3020 1.388 . S
C3022 C3023 1.366 . S
C3023 C3022 1.366 . S
C3023 C3024 1.414 . S
C3023 C3026 1.499 . S
C3024 H3004 0.950 . S
C3024 C3023 1.414 . S
C3024 C3025 1.374 . S
C3025 H3005 0.950 . S
C3025 C3021 1.385 . S
C3025 C3024 1.374 . S
C3026 C3023 1.499 . S
C3026 C3027 1.373 . S
C3026 C3028 1.389 . S
C3027 H3006 0.950 . S
C3027 C3026 1.373 . S
C3027 C3043 1.377 . S
C3028 C3026 1.389 . S
C3028 C3029 1.524 . S
C3028 C3042 1.377 . S
C3029 C3028 1.524 . S
C3029 C3030 1.397 . S
C3029 C3034 1.363 . S
C3030 H3007 0.950 . S
C3030 C3029 1.397 . S
C3030 C3031 1.334 . S
C3031 H3008 0.950 . S
C3031 C3030 1.334 . S
C3031 C3032 1.287 . S
C3032 C3031 1.287 . S
C3032 C3033 1.524 . S
C3032 H3051 0.913 . S
C3033 H3009 0.950 . S
C3033 C3032 1.524 . S
C3033 C3034 1.415 . S
C3034 H3010 0.950 . S
C3034 C3029 1.363 . S
C3034 C3033 1.415 . S
C3035 H3011 0.951 . S
C3035 C3036 1.366 . S
C3035 C3037 1.388 . S
C3036 C3035 1.366 . S
C3036 C3040 1.385 . S
C3037 H3012 0.951 . S
C3037 C3035 1.388 . S
C3037 C3038 1.366 . S
C3038 C3037 1.366 . S
C3038 C3039 1.414 . S
C3038 C3041 1.499 . S
C3039 H3013 0.950 . S
C3039 C3038 1.414 . S
C3039 C3040 1.374 . S
C3040 H3014 0.950 . S
C3040 C3036 1.385 . S
C3040 C3039 1.374 . S
C3041 C3038 1.499 . S
C3041 C3042 1.373 . S
C3041 C3043 1.389 . S
C3042 H3015 0.950 . S
C3042 C3028 1.377 . S
C3042 C3041 1.373 . S
C3043 C3027 1.377 . S
C3043 C3041 1.389 . S
C3043 C3044 1.524 . S
C3044 C3043 1.524 . S
C3044 C3045 1.397 . S
C3044 C3049 1.363 . S
C3045 H3016 0.950 . S
C3045 C3044 1.397 . S
C3045 C3046 1.334 . S
C3046 H3017 0.950 . S
C3046 C3045 1.334 . S
C3046 C3047 1.287 . S
C3047 C3046 1.287 . S
C3047 C3048 1.524 . S
C3047 H3050 0.999 . S
C3048 H3018 0.950 . S
C3048 C3047 1.524 . S
C3048 C3049 1.415 . S
C3049 H3019 0.950 . S
C3049 C3044 1.363 . S
C3049 C3048 1.415 . S
H3050 C3047 0.999 . S
H3051 C3032 0.913 . S
H3052 C3070 0.951 . S
H3053 C3072 0.951 . S
H3054 C3074 0.950 . S
H3055 C3075 0.950 . S
H3056 C3077 0.950 . S
H3057 C3080 0.950 . S
H3058 C3081 0.950 . S
H3059 C3083 0.950 . S
H3060 C3084 0.950 . S
H3061 C3085 0.951 . S
H3062 C3087 0.951 . S
H3063 C3089 0.950 . S
H3064 C3090 0.950 . S
H3065 C3092 0.950 . S
H3066 C3095 0.950 . S
H3067 C3096 0.950 . S
H3068 C3098 0.950 . S
H3069 C3099 0.950 . S
C3070 H3052 0.951 . S
C3070 C3071 1.366 . S
C3070 C3072 1.388 . S
C3071 C3070 1.366 . S
C3071 C3075 1.385 . S
C3072 H3053 0.951 . S
C3072 C3070 1.388 . S
C3072 C3073 1.366 . S
C3073 C3072 1.366 . S
C3073 C3074 1.414 . S
C3073 C3076 1.499 . S
C3074 H3054 0.950 . S
C3074 C3073 1.414 . S
C3074 C3075 1.374 . S
C3075 H3055 0.950 . S
C3075 C3071 1.385 . S
C3075 C3074 1.374 . S
C3076 C3073 1.499 . S
C3076 C3077 1.373 . S
C3076 C3078 1.389 . S
C3077 H3056 0.950 . S
C3077 C3076 1.373 . S
C3077 C3093 1.377 . S
C3078 C3076 1.389 . S
C3078 C3079 1.524 . S
C3078 C3092 1.377 . S
C3079 C3078 1.524 . S
C3079 C3080 1.397 . S
C3079 C3084 1.363 . S
C3080 H3057 0.950 . S
C3080 C3079 1.397 . S
C3080 C3081 1.334 . S
C3081 H3058 0.950 . S
C3081 C3080 1.334 . S
C3081 C3082 1.287 . S
C3082 C3081 1.287 . S
C3082 C3083 1.524 . S
C3082 H3101 0.913 . S
C3083 H3059 0.950 . S
C3083 C3082 1.524 . S
C3083 C3084 1.415 . S
C3084 H3060 0.950 . S
C3084 C3079 1.363 . S
C3084 C3083 1.415 . S
C3085 H3061 0.951 . S
C3085 C3086 1.366 . S
C3085 C3087 1.388 . S
C3086 C3085 1.366 . S
C3086 C3090 1.385 . S
C3087 H3062 0.951 . S
C3087 C3085 1.388 . S
C3087 C3088 1.366 . S
C3088 C3087 1.366 . S
C3088 C3089 1.414 . S
C3088 C3091 1.499 . S
C3089 H3063 0.950 . S
C3089 C3088 1.414 . S
C3089 C3090 1.374 . S
C3090 H3064 0.950 . S
C3090 C3086 1.385 . S
C3090 C3089 1.374 . S
C3091 C3088 1.499 . S
C3091 C3092 1.373 . S
C3091 C3093 1.389 . S
C3092 H3065 0.950 . S
C3092 C3078 1.377 . S
C3092 C3091 1.373 . S
C3093 C3077 1.377 . S
C3093 C3091 1.389 . S
C3093 C3094 1.524 . S
C3094 C3093 1.524 . S
C3094 C3095 1.397 . S
C3094 C3099 1.363 . S
C3095 H3066 0.950 . S
C3095 C3094 1.397 . S
C3095 C3096 1.334 . S
C3096 H3067 0.950 . S
C3096 C3095 1.334 . S
C3096 C3097 1.287 . S
C3097 C3096 1.287 . S
C3097 C3098 1.524 . S
C3097 H3100 0.999 . S
C3098 H3068 0.950 . S
C3098 C3097 1.524 . S
C3098 C3099 1.415 . S
C3099 H3069 0.950 . S
C3099 C3094 1.363 . S
C3099 C3098 1.415 . S
H3100 C3097 0.999 . S
H3101 C3082 0.913 . S
H3102 C3120 0.951 . S
H3103 C3122 0.951 . S
H3104 C3124 0.950 . S
H3105 C3125 0.950 . S
H3106 C3127 0.950 . S
H3107 C3130 0.950 . S
H3108 C3131 0.950 . S
H3109 C3133 0.950 . S
H3110 C3134 0.950 . S
H3111 C3135 0.951 . S
H3112 C3137 0.951 . S
H3113 C3139 0.950 . S
H3114 C3140 0.950 . S
H3115 C3142 0.950 . S
H3116 C3145 0.950 . S
H3117 C3146 0.950 . S
H3118 C3148 0.950 . S
H3119 C3149 0.950 . S
C3120 H3102 0.951 . S
C3120 C3121 1.366 . S
C3120 C3122 1.388 . S
C3121 C3120 1.366 . S
C3121 C3125 1.385 . S
C3122 H3103 0.951 . S
C3122 C3120 1.388 . S
C3122 C3123 1.366 . S
C3123 C3122 1.366 . S
C3123 C3124 1.414 . S
C3123 C3126 1.499 . S
C3124 H3104 0.950 . S
C3124 C3123 1.414 . S
C3124 C3125 1.374 . S
C3125 H3105 0.950 . S
C3125 C3121 1.385 . S
C3125 C3124 1.374 . S
C3126 C3123 1.499 . S
C3126 C3127 1.373 . S
C3126 C3128 1.389 . S
C3127 H3106 0.950 . S
C3127 C3126 1.373 . S
C3127 C3143 1.377 . S
C3128 C3126 1.389 . S
C3128 C3129 1.524 . S
C3128 C3142 1.377 . S
C3129 C3128 1.524 . S
C3129 C3130 1.397 . S
C3129 C3134 1.363 . S
C3130 H3107 0.950 . S
C3130 C3129 1.397 . S
C3130 C3131 1.334 . S
C3131 H3108 0.950 . S
C3131 C3130 1.334 . S
C3131 C3132 1.287 . S
C3132 C3131 1.287 . S
C3132 C3133 1.524 . S
C3132 H3151 0.913 . S
C3133 H3109 0.950 . S
C3133 C3132 1.524 . S
C3133 C3134 1.415 . S
C3134 H3110 0.950 . S
C3134 C3129 1.363 . S
C3134 C3133 1.415 . S
C3135 H3111 0.951 . S
C3135 C3136 1.366 . S
C3135 C3137 1.388 . S
C3136 C3135 1.366 . S
C3136 C3140 1.385 . S
C3137 H3112 0.951 . S
C3137 C3135 1.388 . S
C3137 C3138 1.366 . S
C3138 C3137 1.366 . S
C3138 C3139 1.414 . S
C3138 C3141 1.499 . S
C3139 H3113 0.950 . S
C3139 C3138 1.414 . S
C3139 C3140 1.374 . S
C3140 H3114 0.950 . S
C3140 C3136 1.385 . S
C3140 C3139 1.374 . S
C3141 C3138 1.499 . S
C3141 C3142 1.373 . S
C3141 C3143 1.389 . S
C3142 H3115 0.950 . S
C3142 C3128 1.377 . S
C3142 C3141 1.373 . S
C3143 C3127 1.377 . S
C3143 C3141 1.389 . S
C3143 C3144 1.524 . S
C3144 C3143 1.524 . S
C3144 C3145 1.397 . S
C3144 C3149 1.363 . S
C3145 H3116 0.950 . S
C3145 C3144 1.397 . S
C3145 C3146 1.334 . S
C3146 H3117 0.950 . S
C3146 C3145 1.334 . S
C3146 C3147 1.287 . S
C3147 C3146 1.287 . S
C3147 C3148 1.524 . S
C3147 H3150 0.999 . S
C3148 H3118 0.950 . S
C3148 C3147 1.524 . S
C3148 C3149 1.415 . S
C3149 H3119 0.950 . S
C3149 C3144 1.363 . S
C3149 C3148 1.415 . S
H3150 C3147 0.999 . S
H3151 C3132 0.913 . S
H3152 C3170 0.951 . S
H3153 C3172 0.951 . S
H3154 C3174 0.950 . S
H3155 C3175 0.950 . S
H3156 C3177 0.950 . S
H3157 C3180 0.950 . S
H3158 C3181 0.950 . S
H3159 C3183 0.950 . S
H3160 C3184 0.950 . S
H3161 C3185 0.951 . S
H3162 C3187 0.951 . S
H3163 C3189 0.950 . S
H3164 C3190 0.950 . S
H3165 C3192 0.950 . S
H3166 C3195 0.950 . S
H3167 C3196 0.950 . S
H3168 C3198 0.950 . S
H3169 C3199 0.950 . S
C3170 H3152 0.951 . S
C3170 C3171 1.366 . S
C3170 C3172 1.388 . S
C3171 C3170 1.366 . S
C3171 C3175 1.385 . S
C3172 H3153 0.951 . S
C3172 C3170 1.388 . S
C3172 C3173 1.366 . S
C3173 C3172 1.366 . S
C3173 C3174 1.414 . S
C3173 C3176 1.499 . S
C3174 H3154 0.950 . S
C3174 C3173 1.414 . S
C3174 C3175 1.374 . S
C3175 H3155 0.950 . S
C3175 C3171 1.385 . S
C3175 C3174 1.374 . S
C3176 C3173 1.499 . S
C3176 C3177 1.373 . S
C3176 C3178 1.389 . S
C3177 H3156 0.950 . S
C3177 C3176 1.373 . S
C3177 C3193 1.377 . S
C3178 C3176 1.389 . S
C3178 C3179 1.524 . S
C3178 C3192 1.377 . S
C3179 C3178 1.524 . S
C3179 C3180 1.397 . S
C3179 C3184 1.363 . S
C3180 H3157 0.950 . S
C3180 C3179 1.397 . S
C3180 C3181 1.334 . S
C3181 H3158 0.950 . S
C3181 C3180 1.334 . S
C3181 C3182 1.287 . S
C3182 C3181 1.287 . S
C3182 C3183 1.524 . S
C3182 H3201 0.913 . S
C3183 H3159 0.950 . S
C3183 C3182 1.524 . S
C3183 C3184 1.415 . S
C3184 H3160 0.950 . S
C3184 C3179 1.363 . S
C3184 C3183 1.415 . S
C3185 H3161 0.951 . S
C3185 C3186 1.366 . S
C3185 C3187 1.388 . S
C3186 C3185 1.366 . S
C3186 C3190 1.385 . S
C3187 H3162 0.951 . S
C3187 C3185 1.388 . S
C3187 C3188 1.366 . S
C3188 C3187 1.366 . S
C3188 C3189 1.414 . S
C3188 C3191 1.499 . S
C3189 H3163 0.950 . S
C3189 C3188 1.414 . S
C3189 C3190 1.374 . S
C3190 H3164 0.950 . S
C3190 C3186 1.385 . S
C3190 C3189 1.374 . S
C3191 C3188 1.499 . S
C3191 C3192 1.373 . S
C3191 C3193 1.389 . S
C3192 H3165 0.950 . S
C3192 C3178 1.377 . S
C3192 C3191 1.373 . S
C3193 C3177 1.377 . S
C3193 C3191 1.389 . S
C3193 C3194 1.524 . S
C3194 C3193 1.524 . S
C3194 C3195 1.397 . S
C3194 C3199 1.363 . S
C3195 H3166 0.950 . S
C3195 C3194 1.397 . S
C3195 C3196 1.334 . S
C3196 H3167 0.950 . S
C3196 C3195 1.334 . S
C3196 C3197 1.287 . S
C3197 C3196 1.287 . S
C3197 C3198 1.524 . S
C3197 H3200 0.999 . S
C3198 H3168 0.950 . S
C3198 C3197 1.524 . S
C3198 C3199 1.415 . S
C3199 H3169 0.950 . S
C3199 C3194 1.363 . S
C3199 C3198 1.415 . S
H3200 C3197 0.999 . S
H3201 C3182 0.913 . S
H3202 C3220 0.951 . S
H3203 C3222 0.951 . S
H3204 C3224 0.950 . S
H3205 C3225 0.950 . S
H3206 C3227 0.950 . S
H3207 C3230 0.950 . S
H3208 C3231 0.950 . S
H3209 C3233 0.950 . S
H3210 C3234 0.950 . S
H3211 C3235 0.951 . S
H3212 C3237 0.951 . S
H3213 C3239 0.950 . S
H3214 C3240 0.950 . S
H3215 C3242 0.950 . S
H3216 C3245 0.950 . S
H3217 C3246 0.950 . S
H3218 C3248 0.950 . S
H3219 C3249 0.950 . S
C3220 H3202 0.951 . S
C3220 C3221 1.366 . S
C3220 C3222 1.388 . S
C3221 C3220 1.366 . S
C3221 C3225 1.385 . S
C3222 H3203 0.951 . S
C3222 C3220 1.388 . S
C3222 C3223 1.366 . S
C3223 C3222 1.366 . S
C3223 C3224 1.414 . S
C3223 C3226 1.499 . S
C3224 H3204 0.950 . S
C3224 C3223 1.414 . S
C3224 C3225 1.374 . S
C3225 H3205 0.950 . S
C3225 C3221 1.385 . S
C3225 C3224 1.374 . S
C3226 C3223 1.499 . S
C3226 C3227 1.373 . S
C3226 C3228 1.389 . S
C3227 H3206 0.950 . S
C3227 C3226 1.373 . S
C3227 C3243 1.377 . S
C3228 C3226 1.389 . S
C3228 C3229 1.524 . S
C3228 C3242 1.377 . S
C3229 C3228 1.524 . S
C3229 C3230 1.397 . S
C3229 C3234 1.363 . S
C3230 H3207 0.950 . S
C3230 C3229 1.397 . S
C3230 C3231 1.334 . S
C3231 H3208 0.950 . S
C3231 C3230 1.334 . S
C3231 C3232 1.287 . S
C3232 C3231 1.287 . S
C3232 C3233 1.524 . S
C3232 H3251 0.913 . S
C3233 H3209 0.950 . S
C3233 C3232 1.524 . S
C3233 C3234 1.415 . S
C3234 H3210 0.950 . S
C3234 C3229 1.363 . S
C3234 C3233 1.415 . S
C3235 H3211 0.951 . S
C3235 C3236 1.366 . S
C3235 C3237 1.388 . S
C3236 C3235 1.366 . S
C3236 C3240 1.385 . S
C3237 H3212 0.951 . S
C3237 C3235 1.388 . S
C3237 C3238 1.366 . S
C3238 C3237 1.366 . S
C3238 C3239 1.414 . S
C3238 C3241 1.499 . S
C3239 H3213 0.950 . S
C3239 C3238 1.414 . S
C3239 C3240 1.374 . S
C3240 H3214 0.950 . S
C3240 C3236 1.385 . S
C3240 C3239 1.374 . S
C3241 C3238 1.499 . S
C3241 C3242 1.373 . S
C3241 C3243 1.389 . S
C3242 H3215 0.950 . S
C3242 C3228 1.377 . S
C3242 C3241 1.373 . S
C3243 C3227 1.377 . S
C3243 C3241 1.389 . S
C3243 C3244 1.524 . S
C3244 C3243 1.524 . S
C3244 C3245 1.397 . S
C3244 C3249 1.363 . S
C3245 H3216 0.950 . S
C3245 C3244 1.397 . S
C3245 C3246 1.334 . S
C3246 H3217 0.950 . S
C3246 C3245 1.334 . S
C3246 C3247 1.287 . S
C3247 C3246 1.287 . S
C3247 C3248 1.524 . S
C3247 H3250 0.999 . S
C3248 H3218 0.950 . S
C3248 C3247 1.524 . S
C3248 C3249 1.415 . S
C3249 H3219 0.950 . S
C3249 C3244 1.363 . S
C3249 C3248 1.415 . S
H3250 C3247 0.999 . S
H3251 C3232 0.913 . S
H3252 C3270 0.951 . S
H3253 C3272 0.951 . S
H3254 C3274 0.950 . S
H3255 C3275 0.950 . S
H3256 C3277 0.950 . S
H3257 C3280 0.950 . S
H3258 C3281 0.950 . S
H3259 C3283 0.950 . S
H3260 C3284 0.950 . S
H3261 C3285 0.951 . S
H3262 C3287 0.951 . S
H3263 C3289 0.950 . S
H3264 C3290 0.950 . S
H3265 C3292 0.950 . S
H3266 C3295 0.950 . S
H3267 C3296 0.950 . S
H3268 C3298 0.950 . S
H3269 C3299 0.950 . S
C3270 H3252 0.951 . S
C3270 C3271 1.366 . S
C3270 C3272 1.388 . S
C3271 C3270 1.366 . S
C3271 C3275 1.385 . S
C3272 H3253 0.951 . S
C3272 C3270 1.388 . S
C3272 C3273 1.366 . S
C3273 C3272 1.366 . S
C3273 C3274 1.414 . S
C3273 C3276 1.499 . S
C3274 H3254 0.950 . S
C3274 C3273 1.414 . S
C3274 C3275 1.374 . S
C3275 H3255 0.950 . S
C3275 C3271 1.385 . S
C3275 C3274 1.374 . S
C3276 C3273 1.499 . S
C3276 C3277 1.373 . S
C3276 C3278 1.389 . S
C3277 H3256 0.950 . S
C3277 C3276 1.373 . S
C3277 C3293 1.377 . S
C3278 C3276 1.389 . S
C3278 C3279 1.524 . S
C3278 C3292 1.377 . S
C3279 C3278 1.524 . S
C3279 C3280 1.397 . S
C3279 C3284 1.363 . S
C3280 H3257 0.950 . S
C3280 C3279 1.397 . S
C3280 C3281 1.334 . S
C3281 H3258 0.950 . S
C3281 C3280 1.334 . S
C3281 C3282 1.287 . S
C3282 C3281 1.287 . S
C3282 C3283 1.524 . S
C3282 H3301 0.913 . S
C3283 H3259 0.950 . S
C3283 C3282 1.524 . S
C3283 C3284 1.415 . S
C3284 H3260 0.950 . S
C3284 C3279 1.363 . S
C3284 C3283 1.415 . S
C3285 H3261 0.951 . S
C3285 C3286 1.366 . S
C3285 C3287 1.388 . S
C3286 C3285 1.366 . S
C3286 C3290 1.385 . S
C3287 H3262 0.951 . S
C3287 C3285 1.388 . S
C3287 C3288 1.366 . S
C3288 C3287 1.366 . S
C3288 C3289 1.414 . S
C3288 C3291 1.499 . S
C3289 H3263 0.950 . S
C3289 C3288 1.414 . S
C3289 C3290 1.374 . S
C3290 H3264 0.950 . S
C3290 C3286 1.385 . S
C3290 C3289 1.374 . S
C3291 C3288 1.499 . S
C3291 C3292 1.373 . S
C3291 C3293 1.389 . S
C3292 H3265 0.950 . S
C3292 C3278 1.377 . S
C3292 C3291 1.373 . S
C3293 C3277 1.377 . S
C3293 C3291 1.389 . S
C3293 C3294 1.524 . S
C3294 C3293 1.524 . S
C3294 C3295 1.397 . S
C3294 C3299 1.363 . S
C3295 H3266 0.950 . S
C3295 C3294 1.397 . S
C3295 C3296 1.334 . S
C3296 H3267 0.950 . S
C3296 C3295 1.334 . S
C3296 C3297 1.287 . S
C3297 C3296 1.287 . S
C3297 C3298 1.524 . S
C3297 H3300 0.999 . S
C3298 H3268 0.950 . S
C3298 C3297 1.524 . S
C3298 C3299 1.415 . S
C3299 H3269 0.950 . S
C3299 C3294 1.363 . S
C3299 C3298 1.415 . S
H3300 C3297 0.999 . S
H3301 C3282 0.913 . S
H3302 C3320 0.951 . S
H3303 C3322 0.951 . S
H3304 C3324 0.950 . S
H3305 C3325 0.950 . S
H3306 C3327 0.950 . S
H3307 C3330 0.950 . S
H3308 C3331 0.950 . S
H3309 C3333 0.950 . S
H3310 C3334 0.950 . S
H3311 C3335 0.951 . S
H3312 C3337 0.951 . S
H3313 C3339 0.950 . S
H3314 C3340 0.950 . S
H3315 C3342 0.950 . S
H3316 C3345 0.950 . S
H3317 C3346 0.950 . S
H3318 C3348 0.950 . S
H3319 C3349 0.950 . S
C3320 H3302 0.951 . S
C3320 C3321 1.366 . S
C3320 C3322 1.388 . S
C3321 C3320 1.366 . S
C3321 C3325 1.385 . S
C3322 H3303 0.951 . S
C3322 C3320 1.388 . S
C3322 C3323 1.366 . S
C3323 C3322 1.366 . S
C3323 C3324 1.414 . S
C3323 C3326 1.499 . S
C3324 H3304 0.950 . S
C3324 C3323 1.414 . S
C3324 C3325 1.374 . S
C3325 H3305 0.950 . S
C3325 C3321 1.385 . S
C3325 C3324 1.374 . S
C3326 C3323 1.499 . S
C3326 C3327 1.373 . S
C3326 C3328 1.389 . S
C3327 H3306 0.950 . S
C3327 C3326 1.373 . S
C3327 C3343 1.377 . S
C3328 C3326 1.389 . S
C3328 C3329 1.524 . S
C3328 C3342 1.377 . S
C3329 C3328 1.524 . S
C3329 C3330 1.397 . S
C3329 C3334 1.363 . S
C3330 H3307 0.950 . S
C3330 C3329 1.397 . S
C3330 C3331 1.334 . S
C3331 H3308 0.950 . S
C3331 C3330 1.334 . S
C3331 C3332 1.287 . S
C3332 C3331 1.287 . S
C3332 C3333 1.524 . S
C3332 H3351 0.913 . S
C3333 H3309 0.950 . S
C3333 C3332 1.524 . S
C3333 C3334 1.415 . S
C3334 H3310 0.950 . S
C3334 C3329 1.363 . S
C3334 C3333 1.415 . S
C3335 H3311 0.951 . S
C3335 C3336 1.366 . S
C3335 C3337 1.388 . S
C3336 C3335 1.366 . S
C3336 C3340 1.385 . S
C3337 H3312 0.951 . S
C3337 C3335 1.388 . S
C3337 C3338 1.366 . S
C3338 C3337 1.366 . S
C3338 C3339 1.414 . S
C3338 C3341 1.499 . S
C3339 H3313 0.950 . S
C3339 C3338 1.414 . S
C3339 C3340 1.374 . S
C3340 H3314 0.950 . S
C3340 C3336 1.385 . S
C3340 C3339 1.374 . S
C3341 C3338 1.499 . S
C3341 C3342 1.373 . S
C3341 C3343 1.389 . S
C3342 H3315 0.950 . S
C3342 C3328 1.377 . S
C3342 C3341 1.373 . S
C3343 C3327 1.377 . S
C3343 C3341 1.389 . S
C3343 C3344 1.524 . S
C3344 C3343 1.524 . S
C3344 C3345 1.397 . S
C3344 C3349 1.363 . S
C3345 H3316 0.950 . S
C3345 C3344 1.397 . S
C3345 C3346 1.334 . S
C3346 H3317 0.950 . S
C3346 C3345 1.334 . S
C3346 C3347 1.287 . S
C3347 C3346 1.287 . S
C3347 C3348 1.524 . S
C3347 H3350 0.999 . S
C3348 H3318 0.950 . S
C3348 C3347 1.524 . S
C3348 C3349 1.415 . S
C3349 H3319 0.950 . S
C3349 C3344 1.363 . S
C3349 C3348 1.415 . S
H3350 C3347 0.999 . S
H3351 C3332 0.913 . S
H3352 C3370 0.951 . S
H3353 C3372 0.951 . S
H3354 C3374 0.950 . S
H3355 C3375 0.950 . S
H3356 C3377 0.950 . S
H3357 C3380 0.950 . S
H3358 C3381 0.950 . S
H3359 C3383 0.950 . S
H3360 C3384 0.950 . S
H3361 C3385 0.951 . S
H3362 C3387 0.951 . S
H3363 C3389 0.950 . S
H3364 C3390 0.950 . S
H3365 C3392 0.950 . S
H3366 C3395 0.950 . S
H3367 C3396 0.950 . S
H3368 C3398 0.950 . S
H3369 C3399 0.950 . S
C3370 H3352 0.951 . S
C3370 C3371 1.366 . S
C3370 C3372 1.388 . S
C3371 C3370 1.366 . S
C3371 C3375 1.385 . S
C3372 H3353 0.951 . S
C3372 C3370 1.388 . S
C3372 C3373 1.366 . S
C3373 C3372 1.366 . S
C3373 C3374 1.414 . S
C3373 C3376 1.499 . S
C3374 H3354 0.950 . S
C3374 C3373 1.414 . S
C3374 C3375 1.374 . S
C3375 H3355 0.950 . S
C3375 C3371 1.385 . S
C3375 C3374 1.374 . S
C3376 C3373 1.499 . S
C3376 C3377 1.373 . S
C3376 C3378 1.389 . S
C3377 H3356 0.950 . S
C3377 C3376 1.373 . S
C3377 C3393 1.377 . S
C3378 C3376 1.389 . S
C3378 C3379 1.524 . S
C3378 C3392 1.377 . S
C3379 C3378 1.524 . S
C3379 C3380 1.397 . S
C3379 C3384 1.363 . S
C3380 H3357 0.950 . S
C3380 C3379 1.397 . S
C3380 C3381 1.334 . S
C3381 H3358 0.950 . S
C3381 C3380 1.334 . S
C3381 C3382 1.287 . S
C3382 C3381 1.287 . S
C3382 C3383 1.524 . S
C3382 H3401 0.913 . S
C3383 H3359 0.950 . S
C3383 C3382 1.524 . S
C3383 C3384 1.415 . S
C3384 H3360 0.950 . S
C3384 C3379 1.363 . S
C3384 C3383 1.415 . S
C3385 H3361 0.951 . S
C3385 C3386 1.366 . S
C3385 C3387 1.388 . S
C3386 C3385 1.366 . S
C3386 C3390 1.385 . S
C3387 H3362 0.951 . S
C3387 C3385 1.388 . S
C3387 C3388 1.366 . S
C3388 C3387 1.366 . S
C3388 C3389 1.414 . S
C3388 C3391 1.499 . S
C3389 H3363 0.950 . S
C3389 C3388 1.414 . S
C3389 C3390 1.374 . S
C3390 H3364 0.950 . S
C3390 C3386 1.385 . S
C3390 C3389 1.374 . S
C3391 C3388 1.499 . S
C3391 C3392 1.373 . S
C3391 C3393 1.389 . S
C3392 H3365 0.950 . S
C3392 C3378 1.377 . S
C3392 C3391 1.373 . S
C3393 C3377 1.377 . S
C3393 C3391 1.389 . S
C3393 C3394 1.524 . S
C3394 C3393 1.524 . S
C3394 C3395 1.397 . S
C3394 C3399 1.363 . S
C3395 H3366 0.950 . S
C3395 C3394 1.397 . S
C3395 C3396 1.334 . S
C3396 H3367 0.950 . S
C3396 C3395 1.334 . S
C3396 C3397 1.287 . S
C3397 C3396 1.287 . S
C3397 C3398 1.524 . S
C3397 H3400 0.999 . S
C3398 H3368 0.950 . S
C3398 C3397 1.524 . S
C3398 C3399 1.415 . S
C3399 H3369 0.950 . S
C3399 C3394 1.363 . S
C3399 C3398 1.415 . S
H3400 C3397 0.999 . S
H3401 C3382 0.913 . S
C721 C253 1.758 . S
C736 C354 1.770 . S
C771 C272 1.903 . S
C786 C394 1.899 . S
C821 C234 1.628 . S
C836 C424 1.612 . S
C871 C215 1.466 . S
C886 C384 1.441 1_556 S
C936 C434 1.547 1_556 S
C921 C177 1.551 . S
C971 C196 1.354 . S
C986 C344 1.349 . S
C1036 C373 1.731 . S
C1021 C220 1.570 . S
C1086 C413 1.694 . S
C1071 C182 1.584 . S
C1121 C201 1.655 . S
C1136 C439 1.764 . S
C1171 C258 1.433 . S
C1186 C399 1.531 . S
C1221 C277 1.318 . S
C1236 C453 1.444 . S
C1286 C359 1.510 . S
C1271 C239 1.384 . S
C1336 C474 1.769 . S
C1321 C25 1.757 . S
C1371 C44 1.903 . S
C1386 C514 1.899 . S
C1421 C6 1.627 . S
C1436 C544 1.612 . S
C1471 C329 1.466 . S
C1486 C504 1.440 . S
C1521 C291 1.551 . S
C1536 C554 1.547 . S
C1571 C310 1.354 . S
C1586 C464 1.348 . S
C1621 C334 1.570 . S
C1636 C493 1.729 . S
C1671 C296 1.583 . S
C1686 C533 1.694 . S
C1736 C559 1.764 . S
C1721 C315 1.655 . S
C1771 C30 1.433 . S
C1786 C519 1.531 . S
C1836 C573 1.444 . S
C1821 C49 1.317 . S
C1871 C11 1.384 . S
C1886 C479 1.511 . S
C1936 C594 1.769 . S
C1921 C139 1.757 . S
C1971 C158 1.903 . S
C1986 C634 1.900 . S
C2036 C664 1.613 . S
C2021 C120 1.629 . S
C2086 C624 1.440 . S
C2071 C101 1.466 . S
C2136 C674 1.547 . S
C2121 C63 1.551 . S
C2171 C82 1.354 . S
C2186 C584 1.349 . S
C2221 C106 1.569 . S
C2236 C613 1.728 . S
C2271 C68 1.584 . S
C2286 C653 1.693 . S
C2336 C679 1.763 . S
C2321 C87 1.655 . S
C2371 C144 1.434 . S
C2386 C639 1.531 . S
C2421 C163 1.317 . S
C2436 C693 1.444 . S
C2471 C125 1.385 . S
C2486 C599 1.511 . S
C2521 C287 1.511 . S
C2536 C371 1.488 . S
C2586 C411 2.120 . S
C2571 C306 2.150 . S
C2621 C325 1.640 . S
C2636 C430 1.670 . S
C2671 C116 1.920 . S
C2686 C390 1.938 . S
C2721 C135 1.832 . S
C2736 C451 1.815 . S
C2786 C350 1.280 . S
C2771 C154 1.259 . S
C2821 C59 1.511 . S
C2836 C491 1.488 . S
C2871 C78 2.150 . S
C2886 C531 2.120 . S
C2921 C97 1.641 . S
C2936 C550 1.671 . S
C2971 C230 1.920 . S
C2986 C510 1.939 . S
C3036 C571 1.815 . S
C3021 C249 1.832 . S
C3071 C268 1.259 . S
C3086 C470 1.280 . S
C3121 C173 1.511 . S
C3136 C611 1.488 . S
C3171 C192 2.149 . S
C3186 C651 2.119 . S
C3236 C670 1.671 . S
C3221 C211 1.641 . S
C3271 C2 1.920 . S
C3286 C630 1.939 . S
C3321 C21 1.832 . S
C3336 C691 1.815 . S
C3371 C40 1.260 . S
C3386 C590 1.280 . S
