# Generated by pormake.
# Topology ssa, (4,4)-cn, num edge types: 1
# Building blocks:
#     Node 0, Type 0, BuildingBlock: NAWXER_clean_sbu_0, # of connection points: 4
#     Node 1, Type 0, BuildingBlock: NAWXER_clean_sbu_0, # of connection points: 4
#     Node 2, Type 0, BuildingBlock: NAWXER_clean_sbu_0, # of connection points: 4
#     Node 3, Type 0, BuildingBlock: NAWXER_clean_sbu_0, # of connection points: 4
#     Node 4, Type 0, BuildingBlock: NAWXER_clean_sbu_0, # of connection points: 4
#     Node 5, Type 0, BuildingBlock: NAWXER_clean_sbu_0, # of connection points: 4
#     Node 6, Type 1, BuildingBlock: NAWXER_clean_linker_0, # of connection points: 4
#     Node 7, Type 1, BuildingBlock: NAWXER_clean_linker_0, # of connection points: 4
#     Node 8, Type 1, BuildingBlock: NAWXER_clean_linker_0, # of connection points: 4
#     Node 9, Type 1, BuildingBlock: NAWXER_clean_linker_0, # of connection points: 4
#     Node 10, Type 1, BuildingBlock: NAWXER_clean_linker_0, # of connection points: 4
#     Node 11, Type 1, BuildingBlock: NAWXER_clean_linker_0, # of connection points: 4
#     Edge 12, Type (0, 1), BuildingBlock: ZUJKAS_clean_linker_0, # of connection points: 2
#     Edge 13, Type (0, 1), BuildingBlock: ZUJKAS_clean_linker_0, # of connection points: 2
#     Edge 14, Type (0, 1), BuildingBlock: ZUJKAS_clean_linker_0, # of connection points: 2
#     Edge 15, Type (0, 1), BuildingBlock: ZUJKAS_clean_linker_0, # of connection points: 2
#     Edge 16, Type (0, 1), BuildingBlock: ZUJKAS_clean_linker_0, # of connection points: 2
#     Edge 17, Type (0, 1), BuildingBlock: ZUJKAS_clean_linker_0, # of connection points: 2
#     Edge 18, Type (0, 1), BuildingBlock: ZUJKAS_clean_linker_0, # of connection points: 2
#     Edge 19, Type (0, 1), BuildingBlock: ZUJKAS_clean_linker_0, # of connection points: 2
#     Edge 20, Type (0, 1), BuildingBlock: ZUJKAS_clean_linker_0, # of connection points: 2
#     Edge 21, Type (0, 1), BuildingBlock: ZUJKAS_clean_linker_0, # of connection points: 2
#     Edge 22, Type (0, 1), BuildingBlock: ZUJKAS_clean_linker_0, # of connection points: 2
#     Edge 23, Type (0, 1), BuildingBlock: ZUJKAS_clean_linker_0, # of connection points: 2
#     Edge 24, Type (0, 1), BuildingBlock: ZUJKAS_clean_linker_0, # of connection points: 2
#     Edge 25, Type (0, 1), BuildingBlock: ZUJKAS_clean_linker_0, # of connection points: 2
#     Edge 26, Type (0, 1), BuildingBlock: ZUJKAS_clean_linker_0, # of connection points: 2
#     Edge 27, Type (0, 1), BuildingBlock: ZUJKAS_clean_linker_0, # of connection points: 2
#     Edge 28, Type (0, 1), BuildingBlock: ZUJKAS_clean_linker_0, # of connection points: 2
#     Edge 29, Type (0, 1), BuildingBlock: ZUJKAS_clean_linker_0, # of connection points: 2
#     Edge 30, Type (0, 1), BuildingBlock: ZUJKAS_clean_linker_0, # of connection points: 2
#     Edge 31, Type (0, 1), BuildingBlock: ZUJKAS_clean_linker_0, # of connection points: 2
#     Edge 32, Type (0, 1), BuildingBlock: ZUJKAS_clean_linker_0, # of connection points: 2
#     Edge 33, Type (0, 1), BuildingBlock: ZUJKAS_clean_linker_0, # of connection points: 2
#     Edge 34, Type (0, 1), BuildingBlock: ZUJKAS_clean_linker_0, # of connection points: 2
#     Edge 35, Type (0, 1), BuildingBlock: ZUJKAS_clean_linker_0, # of connection points: 2
# Relax obj value: 0.014
# Max RMSD: 0.030
# Mean RMSD: 0.028
data_MOF--net-ssa--node1-NAWXER_clean_sbu_0--node2-NAWXER_clean_linker_0--edge1-ZUJKAS_clean_linker_0
_symmetry_space_group_name_H-M    P1
_symmetry_Int_Tables_number       1
_symmetry_cell_setting            triclinic
loop_
_symmetry_equiv_pos_as_xyz
'x, y, z'
_cell_length_a     71.636529
_cell_length_b     71.630874
_cell_length_c     49.656647
_cell_angle_alpha  90.045762
_cell_angle_beta   89.966811
_cell_angle_gamma 120.01284
loop_
_atom_site_label
_atom_site_type_symbol
_atom_site_fract_x
_atom_site_fract_y
_atom_site_fract_z
_atom_type_partial_charge
C0 C 0.00058 0.53865 0.03764 0.0
C1 C 0.96327 0.47302 0.98381 0.0
O2 O 0.98252 0.52197 0.04253 0.0
Zn3 Zn 0.98133 0.50591 0.01065 0.0
O4 O 0.0107 0.53954 0.01592 0.0
Zn5 Zn 0.00652 0.5195 0.98168 0.0
O6 O 0.00496 0.53587 0.9518 0.0
O7 O 0.97675 0.5234 0.97875 0.0
O8 O 0.98099 0.48733 0.97304 0.0
O9 O 0.9572 0.47712 0.006 0.0
O10 O 0.0075 0.49988 0.01714 0.0
O11 O 0.03128 0.51568 0.98454 0.0
C12 C 0.98682 0.53397 0.95765 0.0
C13 C 0.02542 0.50443 0.00593 0.0
C14 C 0.49988 0.04455 0.51202 0.0
C15 C 0.52863 0.00655 0.46014 0.0
O16 O 0.49519 0.02628 0.52224 0.0
Zn17 Zn 0.5007 0.00013 0.51378 0.0
O18 O 0.51083 0.05074 0.4904 0.0
Zn19 Zn 0.51432 0.02585 0.48535 0.0
O20 O 0.4823 0.00038 0.47618 0.0
O21 O 0.47203 0.97598 0.50838 0.0
O22 O 0.5305 0.02476 0.45466 0.0
O23 O 0.51812 0.99629 0.48117 0.0
O24 O 0.51714 0.00028 0.54475 0.0
O25 O 0.53492 0.02854 0.51828 0.0
C26 C 0.46808 0.98234 0.48633 0.0
C27 C 0.53423 0.0179 0.53939 0.0
C28 C 0.51053 0.48375 0.99567 0.0
C29 C 0.54273 0.55023 0.04815 0.0
O30 O 0.50735 0.49833 0.9853 0.0
Zn31 Zn 0.51551 0.53101 0.99366 0.0
O32 O 0.52143 0.48776 0.01725 0.0
Zn33 Zn 0.52709 0.5169 0.02189 0.0
O34 O 0.49539 0.51188 0.02985 0.0
O35 O 0.48739 0.5282 0.99799 0.0
O36 O 0.54336 0.53314 0.05297 0.0
O37 O 0.53305 0.55127 0.02696 0.0
O38 O 0.53287 0.54641 0.96275 0.0
O39 O 0.54828 0.53303 0.9887 0.0
C40 C 0.48214 0.51692 0.01936 0.0
C41 C 0.54864 0.54347 0.96755 0.0
C42 C 0.03024 0.51724 0.49365 0.0
C43 C 0.9933 0.45022 0.54448 0.0
O44 O 0.03638 0.51244 0.51526 0.0
Zn45 Zn 0.01214 0.48373 0.51895 0.0
O46 O 0.01235 0.50338 0.48275 0.0
Zn47 Zn 0.98663 0.47102 0.49056 0.0
O48 O 0.96204 0.47497 0.49524 0.0
O49 O 0.98641 0.49005 0.52732 0.0
O50 O 0.98291 0.4498 0.52325 0.0
O51 O 0.01126 0.46691 0.54973 0.0
O52 O 0.01633 0.46727 0.48522 0.0
O53 O 0.98763 0.45556 0.45928 0.0
C54 C 0.96836 0.48588 0.51688 0.0
C55 C 0.00591 0.45738 0.46393 0.0
C56 C 0.50986 0.97977 0.03808 0.0
C57 C 0.48051 0.01787 0.98828 0.0
O58 O 0.50978 0.99678 0.04521 0.0
Zn59 Zn 0.49449 0.99857 0.01424 0.0
O60 O 0.50058 0.97023 0.01609 0.0
Zn61 Zn 0.48292 0.97434 0.9838 0.0
O62 O 0.50047 0.9769 0.95283 0.0
O63 O 0.51656 0.00368 0.982 0.0
O64 O 0.47684 0.00034 0.97671 0.0
O65 O 0.49022 0.02302 0.01081 0.0
O66 O 0.46269 0.97228 0.02077 0.0
O67 O 0.45437 0.94927 0.98722 0.0
C68 C 0.51696 0.99446 0.96001 0.0
C69 C 0.44925 0.95455 0.00928 0.0
C70 C 0.52082 0.50444 0.50688 0.0
C71 C 0.45302 0.47403 0.45787 0.0
O72 O 0.50695 0.50808 0.51844 0.0
Zn73 Zn 0.47446 0.50089 0.51225 0.0
O74 O 0.51586 0.49366 0.48513 0.0
Zn75 Zn 0.48693 0.48897 0.4822 0.0
O76 O 0.49221 0.52088 0.47531 0.0
O77 O 0.47795 0.52935 0.50926 0.0
O78 O 0.46987 0.47338 0.45154 0.0
O79 O 0.45275 0.48357 0.47966 0.0
O80 O 0.46014 0.48373 0.54367 0.0
O81 O 0.47064 0.46727 0.51492 0.0
C82 C 0.48809 0.53439 0.48701 0.0
C83 C 0.4614 0.46726 0.53704 0.0
C84 C 0.28471 0.45403 0.18894 0.0
C85 C 0.28376 0.44394 0.16428 0.0
C86 C 0.2661 0.44751 0.20421 0.0
C87 C 0.24617 0.43059 0.1953 0.0
C88 C 0.2638 0.42691 0.15546 0.0
C89 C 0.24515 0.42042 0.17075 0.0
C90 C 0.22615 0.425 0.2102 0.0
C91 C 0.2659 0.40792 0.26342 0.0
C92 C 0.27256 0.41989 0.28747 0.0
C93 C 0.24984 0.40801 0.2475 0.0
C94 C 0.24039 0.42031 0.25517 0.0
C95 C 0.26264 0.43171 0.29538 0.0
C96 C 0.24667 0.43183 0.27947 0.0
C97 C 0.22392 0.42137 0.23828 0.0
C98 C 0.13453 0.40817 0.26003 0.0
C99 C 0.13939 0.42059 0.28367 0.0
C100 C 0.15098 0.40799 0.24498 0.0
C101 C 0.1726 0.42038 0.25319 0.0
C102 C 0.16097 0.43238 0.29223 0.0
C103 C 0.17734 0.43222 0.27721 0.0
C104 C 0.1905 0.42119 0.23725 0.0
C105 C 0.16236 0.45164 0.18368 0.0
C106 C 0.15383 0.44067 0.15929 0.0
C107 C 0.17452 0.44605 0.20025 0.0
C108 C 0.17819 0.42923 0.19291 0.0
C109 C 0.15745 0.42376 0.15203 0.0
C110 C 0.16968 0.41822 0.16862 0.0
C111 C 0.19264 0.42455 0.20911 0.0
H112 H 0.29986 0.46709 0.19638 0.0
H113 H 0.26722 0.45606 0.22268 0.0
H114 H 0.26251 0.41899 0.13639 0.0
H115 H 0.22986 0.40759 0.16328 0.0
H116 H 0.27302 0.39841 0.257 0.0
H117 H 0.24485 0.39851 0.2292 0.0
H118 H 0.2676 0.44135 0.31357 0.0
H119 H 0.23959 0.44139 0.28585 0.0
H120 H 0.11808 0.39891 0.25289 0.0
H121 H 0.1468 0.39825 0.2269 0.0
H122 H 0.16523 0.44172 0.31066 0.0
H123 H 0.19384 0.44171 0.28416 0.0
H124 H 0.15971 0.46463 0.1899 0.0
H125 H 0.18145 0.45521 0.21852 0.0
H126 H 0.15131 0.41521 0.13321 0.0
H127 H 0.17267 0.40545 0.16238 0.0
N128 N 0.21031 0.42622 0.1967 0.0
N129 N 0.20626 0.41976 0.25068 0.0
C130 C 0.84878 0.26561 0.82143 0.0
C131 C 0.83982 0.27471 0.83862 0.0
C132 C 0.83555 0.24843 0.80443 0.0
C133 C 0.81317 0.24027 0.80404 0.0
C134 C 0.81735 0.26601 0.83874 0.0
C135 C 0.80419 0.24893 0.82173 0.0
C136 C 0.79879 0.22278 0.78547 0.0
C137 C 0.84304 0.27953 0.73396 0.0
C138 C 0.85516 0.27531 0.71521 0.0
C139 C 0.8259 0.26263 0.74769 0.0
C140 C 0.82094 0.24122 0.7435 0.0
C141 C 0.84991 0.25386 0.71062 0.0
C142 C 0.83294 0.23698 0.72463 0.0
C143 C 0.80249 0.22308 0.75739 0.0
C144 C 0.71512 0.15814 0.71861 0.0
C145 C 0.71862 0.14487 0.70094 0.0
C146 C 0.73173 0.17308 0.73488 0.0
C147 C 0.75216 0.17492 0.73411 0.0
C148 C 0.73927 0.14706 0.69972 0.0
C149 C 0.75598 0.16213 0.71607 0.0
C150 C 0.76922 0.19011 0.75254 0.0
C151 C 0.72164 0.13381 0.80075 0.0
C152 C 0.70813 0.13871 0.81599 0.0
C153 C 0.74067 0.15034 0.78959 0.0
C154 C 0.74652 0.172 0.79368 0.0
C155 C 0.71425 0.1604 0.8205 0.0
C156 C 0.73341 0.17692 0.80964 0.0
C157 C 0.76587 0.18954 0.78057 0.0
H158 H 0.866 0.27174 0.82118 0.0
H159 H 0.84279 0.24163 0.79147 0.0
H160 H 0.80995 0.27279 0.85145 0.0
H161 H 0.78697 0.24284 0.82187 0.0
H162 H 0.84643 0.29586 0.73745 0.0
H163 H 0.81635 0.2663 0.76129 0.0
H164 H 0.859 0.25016 0.69628 0.0
H165 H 0.82921 0.22058 0.72078 0.0
H166 H 0.69938 0.15673 0.72027 0.0
H167 H 0.72853 0.18307 0.74833 0.0
H168 H 0.7425 0.13723 0.68607 0.0
H169 H 0.77171 0.16347 0.71506 0.0
H170 H 0.71727 0.11721 0.797 0.0
H171 H 0.75072 0.14622 0.77756 0.0
H172 H 0.70423 0.16458 0.83249 0.0
H173 H 0.73769 0.19353 0.81307 0.0
N174 N 0.78059 0.206 0.79594 0.0
N175 N 0.78752 0.20669 0.74198 0.0
C176 C 0.59765 0.7366 0.23817 0.0
C177 C 0.5845 0.72692 0.21554 0.0
C178 C 0.59819 0.7544 0.25059 0.0
C179 C 0.5854 0.76271 0.24078 0.0
C180 C 0.57224 0.73571 0.20532 0.0
C181 C 0.57275 0.75344 0.21775 0.0
C182 C 0.58515 0.7811 0.25412 0.0
C183 C 0.55502 0.72644 0.31225 0.0
C184 C 0.56596 0.72965 0.3368 0.0
C185 C 0.56073 0.74358 0.2946 0.0
C186 C 0.57784 0.76426 0.30078 0.0
C187 C 0.58271 0.75046 0.34337 0.0
C188 C 0.58857 0.76763 0.32551 0.0
C189 C 0.58334 0.78254 0.28236 0.0
C190 C 0.56424 0.85394 0.29479 0.0
C191 C 0.58 0.86817 0.31297 0.0
C192 C 0.56582 0.83701 0.28331 0.0
C193 C 0.5833 0.83408 0.28954 0.0
C194 C 0.59734 0.86502 0.31947 0.0
C195 C 0.59888 0.84799 0.30798 0.0
C196 C 0.58521 0.81648 0.27681 0.0
C197 C 0.59605 0.86644 0.21553 0.0
C198 C 0.57822 0.85867 0.19817 0.0
C199 C 0.59921 0.85209 0.23134 0.0
C200 C 0.58466 0.82982 0.22981 0.0
C201 C 0.56425 0.83634 0.19589 0.0
C202 C 0.56756 0.82203 0.21141 0.0
C203 C 0.58596 0.81454 0.24861 0.0
H204 H 0.60727 0.73022 0.24656 0.0
H205 H 0.60852 0.76159 0.26793 0.0
H206 H 0.5623 0.72894 0.18758 0.0
H207 H 0.56294 0.75969 0.20961 0.0
H208 H 0.54168 0.71072 0.30694 0.0
H209 H 0.55151 0.7407 0.27625 0.0
H210 H 0.59139 0.75339 0.36219 0.0
H211 H 0.60154 0.78353 0.33093 0.0
H212 H 0.55077 0.85602 0.28924 0.0
H213 H 0.55342 0.82622 0.26944 0.0
H214 H 0.60956 0.87553 0.33371 0.0
H215 H 0.61238 0.84585 0.3132 0.0
H216 H 0.60705 0.8836 0.21758 0.0
H217 H 0.61265 0.85839 0.24526 0.0
H218 H 0.55056 0.82996 0.18237 0.0
H219 H 0.55618 0.8049 0.2099 0.0
N220 N 0.58598 0.79699 0.23832 0.0
N221 N 0.58384 0.80039 0.29266 0.0
C222 C 0.84599 0.56796 0.68284 0.0
C223 C 0.8372 0.5493 0.66671 0.0
C224 C 0.83253 0.5731 0.69762 0.0
C225 C 0.81005 0.55953 0.69679 0.0
C226 C 0.81468 0.53607 0.66548 0.0
C227 C 0.80128 0.54116 0.6803 0.0
C228 C 0.79531 0.56444 0.71222 0.0
C229 C 0.83396 0.55229 0.77298 0.0
C230 C 0.84767 0.5704 0.78864 0.0
C231 C 0.81783 0.55224 0.75721 0.0
C232 C 0.81527 0.57042 0.75642 0.0
C233 C 0.84487 0.58849 0.78813 0.0
C234 C 0.82868 0.58842 0.77229 0.0
C235 C 0.79813 0.5703 0.73974 0.0
C236 C 0.71162 0.55701 0.77022 0.0
C237 C 0.71693 0.57525 0.78615 0.0
C238 C 0.72737 0.55583 0.75499 0.0
C239 C 0.74875 0.57296 0.75505 0.0
C240 C 0.73846 0.59222 0.78661 0.0
C241 C 0.75425 0.59102 0.77129 0.0
C242 C 0.76547 0.57158 0.73905 0.0
C243 C 0.71919 0.57398 0.67962 0.0
C244 C 0.70868 0.55559 0.66311 0.0
C245 C 0.73681 0.57748 0.69543 0.0
C246 C 0.74403 0.56251 0.69524 0.0
C247 C 0.71628 0.54091 0.6626 0.0
C248 C 0.73378 0.54437 0.67845 0.0
C249 C 0.76274 0.5658 0.71151 0.0
H250 H 0.86328 0.57847 0.6843 0.0
H251 H 0.8397 0.58769 0.7096 0.0
H252 H 0.80735 0.52184 0.65284 0.0
H253 H 0.78398 0.53057 0.67906 0.0
H254 H 0.83577 0.53816 0.77275 0.0
H255 H 0.80732 0.53795 0.74565 0.0
H256 H 0.85497 0.60256 0.80028 0.0
H257 H 0.82675 0.60249 0.77224 0.0
H258 H 0.69534 0.54341 0.76994 0.0
H259 H 0.72286 0.5414 0.74333 0.0
H260 H 0.74308 0.60651 0.79861 0.0
H261 H 0.7707 0.6043 0.77188 0.0
H262 H 0.71368 0.58555 0.68053 0.0
H263 H 0.74482 0.59191 0.70765 0.0
H264 H 0.70884 0.52683 0.64972 0.0
H265 H 0.73922 0.53273 0.67771 0.0
N266 N 0.77771 0.56238 0.6993 0.0
N267 N 0.78318 0.57379 0.75207 0.0
C268 C 0.15384 0.7013 0.23333 0.0
C269 C 0.14114 0.70588 0.216 0.0
C270 C 0.17142 0.7179 0.24681 0.0
C271 C 0.17652 0.7394 0.24346 0.0
C272 C 0.14624 0.72743 0.21275 0.0
C273 C 0.16388 0.74405 0.22621 0.0
C274 C 0.19583 0.75715 0.25645 0.0
C275 C 0.15008 0.71843 0.32308 0.0
C276 C 0.15844 0.70901 0.34064 0.0
C277 C 0.16357 0.73431 0.30475 0.0
C278 C 0.1856 0.74085 0.30347 0.0
C279 C 0.18058 0.71593 0.33961 0.0
C280 C 0.194 0.73175 0.32132 0.0
C281 C 0.20029 0.75747 0.2842 0.0
C282 C 0.28033 0.8438 0.29995 0.0
C283 C 0.29047 0.8377 0.3195 0.0
C284 C 0.26236 0.82816 0.28585 0.0
C285 C 0.25431 0.80615 0.29093 0.0
C286 C 0.28241 0.81564 0.32439 0.0
C287 C 0.26449 0.80007 0.31034 0.0
C288 C 0.23439 0.7893 0.27783 0.0
C289 C 0.28214 0.81801 0.21028 0.0
C290 C 0.27644 0.82758 0.18956 0.0
C291 C 0.26729 0.8058 0.23024 0.0
C292 C 0.24647 0.80311 0.23013 0.0
C293 C 0.25556 0.8248 0.18943 0.0
C294 C 0.24069 0.81258 0.20945 0.0
C295 C 0.23015 0.78877 0.24996 0.0
H296 H 0.15027 0.68486 0.23636 0.0
H297 H 0.18126 0.71394 0.25947 0.0
H298 H 0.13696 0.73151 0.19923 0.0
H299 H 0.16773 0.76057 0.22306 0.0
H300 H 0.13316 0.71366 0.32367 0.0
H301 H 0.15682 0.74153 0.2917 0.0
H302 H 0.18749 0.70881 0.35256 0.0
H303 H 0.21096 0.7366 0.32077 0.0
H304 H 0.28621 0.86066 0.29564 0.0
H305 H 0.2545 0.83331 0.27146 0.0
H306 H 0.2896 0.81039 0.33961 0.0
H307 H 0.25845 0.7832 0.31483 0.0
H308 H 0.29791 0.8194 0.21065 0.0
H309 H 0.27192 0.79798 0.24534 0.0
H310 H 0.25071 0.8321 0.17388 0.0
H311 H 0.22463 0.81047 0.20875 0.0
N312 N 0.21092 0.77284 0.24042 0.0
N313 N 0.21936 0.77353 0.29374 0.0
C314 C 0.43852 0.16086 0.80348 0.0
C315 C 0.45454 0.1673 0.82343 0.0
C316 C 0.43739 0.17621 0.78721 0.0
C317 C 0.45234 0.19824 0.79052 0.0
C318 C 0.46975 0.18933 0.82616 0.0
C319 C 0.46857 0.20461 0.81002 0.0
C320 C 0.45015 0.21498 0.77577 0.0
C321 C 0.46796 0.18217 0.71196 0.0
C322 C 0.45288 0.17249 0.69102 0.0
C323 C 0.46574 0.19543 0.73078 0.0
C324 C 0.44828 0.19913 0.72928 0.0
C325 C 0.43538 0.17618 0.68959 0.0
C326 C 0.43318 0.18948 0.70845 0.0
C327 C 0.4469 0.21467 0.74769 0.0
C328 C 0.45877 0.30267 0.7266 0.0
C329 C 0.44284 0.29752 0.70681 0.0
C330 C 0.45974 0.28644 0.74098 0.0
C331 C 0.44435 0.26467 0.73665 0.0
C332 C 0.42775 0.27565 0.70212 0.0
C333 C 0.4285 0.25943 0.71689 0.0
C334 C 0.44544 0.24721 0.75131 0.0
C335 C 0.43889 0.28885 0.81462 0.0
C336 C 0.45657 0.29845 0.83235 0.0
C337 C 0.43609 0.2721 0.7975 0.0
C338 C 0.45107 0.26489 0.7976 0.0
C339 C 0.47106 0.29062 0.83301 0.0
C340 C 0.4683 0.27401 0.81588 0.0
C341 C 0.44896 0.24759 0.77938 0.0
H342 H 0.42642 0.14404 0.80106 0.0
H343 H 0.42441 0.17093 0.77274 0.0
H344 H 0.48254 0.19481 0.84095 0.0
H345 H 0.48026 0.22152 0.81296 0.0
H346 H 0.48189 0.18009 0.71332 0.0
H347 H 0.47809 0.20333 0.74599 0.0
H348 H 0.42338 0.16883 0.67387 0.0
H349 H 0.41973 0.19231 0.70669 0.0
H350 H 0.47058 0.31928 0.73102 0.0
H351 H 0.4727 0.29097 0.75531 0.0
H352 H 0.41557 0.27095 0.68663 0.0
H353 H 0.41672 0.24274 0.71278 0.0
H354 H 0.42746 0.29453 0.81361 0.0
H355 H 0.42233 0.26492 0.78408 0.0
H356 H 0.48456 0.29731 0.84684 0.0
H357 H 0.47989 0.2685 0.81662 0.0
N358 N 0.45119 0.23148 0.79038 0.0
N359 N 0.44445 0.23069 0.73663 0.0
H360 H 0.06675 0.51494 0.99237 0.0
H361 H 0.08985 0.50391 0.01571 0.0
H362 H 0.03818 0.46589 0.07111 0.0
H363 H 0.01521 0.47698 0.04834 0.0
H364 H 0.07666 0.49316 0.09636 0.0
H365 H 0.08784 0.44554 0.016 0.0
H366 H 0.09434 0.47234 0.0065 0.0
H367 H 0.06698 0.45266 0.01459 0.0
C368 C 0.06026 0.50406 0.00935 0.0
C369 C 0.03917 0.49689 0.01855 0.0
C370 C 0.07344 0.49769 0.02257 0.0
C371 C 0.06563 0.48393 0.04497 0.0
C372 C 0.04449 0.4765 0.05384 0.0
H373 H 0.11643 0.41462 0.13202 0.0
H374 H 0.0959 0.42571 0.10327 0.0
C375 C 0.03139 0.48288 0.04077 0.0
C376 C 0.0797 0.47813 0.06033 0.0
H377 H 0.10791 0.45141 0.05617 0.0
C378 C 0.08354 0.48406 0.08757 0.0
C379 C 0.08843 0.46609 0.04883 0.0
C380 C 0.08409 0.45859 0.01994 0.0
C381 C 0.09583 0.47823 0.10372 0.0
C382 C 0.10488 0.46651 0.09213 0.0
C383 C 0.10106 0.46054 0.06489 0.0
C384 C 0.11794 0.45989 0.10827 0.0
C385 C 0.09856 0.48419 0.1332 0.0
C386 C 0.13729 0.47546 0.12014 0.0
C387 C 0.149 0.46919 0.13657 0.0
C388 C 0.14164 0.44723 0.14125 0.0
C389 C 0.12255 0.43166 0.12869 0.0
C390 C 0.1108 0.43795 0.11232 0.0
H391 H 0.08638 0.48838 0.14023 0.0
H392 H 0.09725 0.47077 0.14577 0.0
H393 H 0.11477 0.49844 0.13645 0.0
H394 H 0.14329 0.49247 0.1168 0.0
H395 H 0.16388 0.48155 0.14551 0.0
H396 H 0.57371 0.05302 0.53049 0.0
H397 H 0.60499 0.06834 0.56002 0.0
H398 H 0.56989 0.01785 0.61797 0.0
H399 H 0.53814 0.00233 0.58844 0.0
H400 H 0.59005 0.05896 0.64017 0.0
H401 H 0.64768 0.04807 0.5774 0.0
H402 H 0.63525 0.06052 0.55901 0.0
H403 H 0.61896 0.03342 0.57136 0.0
C404 C 0.5726 0.04499 0.5494 0.0
C405 C 0.55338 0.02643 0.55711 0.0
C406 C 0.59062 0.05369 0.56615 0.0
C407 C 0.5899 0.044 0.59093 0.0
C408 C 0.57081 0.02542 0.59875 0.0
H409 H 0.70763 0.10293 0.69067 0.0
H410 H 0.67612 0.07577 0.66565 0.0
C411 C 0.55271 0.0166 0.58189 0.0
C412 C 0.60864 0.05451 0.60934 0.0
H413 H 0.66326 0.07605 0.61127 0.0
C414 C 0.60599 0.06234 0.6341 0.0
C415 C 0.62939 0.05866 0.60157 0.0
C416 C 0.63298 0.04952 0.576 0.0
C417 C 0.62377 0.07541 0.65048 0.0
C418 C 0.6447 0.081 0.64165 0.0
C419 C 0.64721 0.072 0.61778 0.0
C420 C 0.66419 0.09737 0.65594 0.0
C421 C 0.62004 0.08354 0.67683 0.0
C422 C 0.66821 0.11859 0.65798 0.0
C423 C 0.68618 0.13409 0.67198 0.0
C424 C 0.70056 0.12871 0.68421 0.0
C425 C 0.69691 0.10759 0.68135 0.0
C426 C 0.67887 0.09205 0.66724 0.0
H427 H 0.60335 0.073 0.68433 0.0
H428 H 0.63158 0.08453 0.69246 0.0
H429 H 0.62239 0.09993 0.67381 0.0
H430 H 0.65736 0.12315 0.64877 0.0
H431 H 0.68877 0.15032 0.67332 0.0
H432 H 0.54461 0.58894 0.04239 0.0
H433 H 0.55761 0.61836 0.0747 0.0
H434 H 0.57522 0.58302 0.12944 0.0
H435 H 0.56185 0.55309 0.09716 0.0
H436 H 0.55178 0.59895 0.15394 0.0
H437 H 0.61835 0.66369 0.09565 0.0
H438 H 0.59385 0.65093 0.0765 0.0
H439 H 0.60633 0.63558 0.08661 0.0
C440 C 0.55146 0.58743 0.06114 0.0
C441 C 0.5522 0.56863 0.06716 0.0
C442 C 0.55906 0.6044 0.07953 0.0
C443 C 0.56775 0.60307 0.10427 0.0
C444 C 0.56875 0.58444 0.11033 0.0
H445 H 0.61771 0.71921 0.20523 0.0
H446 H 0.61576 0.68801 0.18219 0.0
C447 C 0.56113 0.56738 0.09186 0.0
C448 C 0.57419 0.62055 0.12436 0.0
H449 H 0.60304 0.67528 0.13087 0.0
C450 C 0.5633 0.61561 0.14913 0.0
C451 C 0.5895 0.64223 0.11833 0.0
C452 C 0.60284 0.6484 0.09293 0.0
C453 C 0.56627 0.63193 0.16724 0.0
C454 C 0.58016 0.65375 0.1601 0.0
C455 C 0.59214 0.65858 0.13617 0.0
C456 C 0.58125 0.67179 0.17601 0.0
C457 C 0.55421 0.62564 0.19362 0.0
C458 C 0.56252 0.67305 0.18011 0.0
C459 C 0.56356 0.69072 0.19337 0.0
C460 C 0.5834 0.70768 0.20257 0.0
C461 C 0.60214 0.70631 0.19867 0.0
C462 C 0.60107 0.68856 0.1854 0.0
H463 H 0.55057 0.60931 0.20004 0.0
H464 H 0.56351 0.63733 0.20981 0.0
H465 H 0.53863 0.62526 0.19111 0.0
H466 H 0.54712 0.66056 0.17249 0.0
H467 H 0.54879 0.69114 0.1963 0.0
H468 H 0.92666 0.47536 0.50574 0.0
H469 H 0.90465 0.48723 0.53007 0.0
H470 H 0.95827 0.52605 0.5826 0.0
H471 H 0.98014 0.51397 0.55891 0.0
H472 H 0.92158 0.5016 0.61043 0.0
H473 H 0.90656 0.54488 0.52824 0.0
H474 H 0.89883 0.51753 0.52007 0.0
H475 H 0.92676 0.53692 0.52581 0.0
C476 C 0.9338 0.48656 0.52233 0.0
C477 C 0.95513 0.49369 0.53041 0.0
C478 C 0.92124 0.49343 0.53611 0.0
C479 C 0.92992 0.50775 0.55794 0.0
C480 C 0.95127 0.51504 0.56579 0.0
H481 H 0.87393 0.57622 0.63848 0.0
H482 H 0.89691 0.56639 0.61272 0.0
C483 C 0.96374 0.5081 0.5522 0.0
C484 C 0.91655 0.51435 0.5736 0.0
H485 H 0.88658 0.5392 0.56869 0.0
C486 C 0.91398 0.50989 0.60131 0.0
C487 C 0.9069 0.52541 0.56174 0.0
C488 C 0.91004 0.53168 0.53239 0.0
C489 C 0.90183 0.51595 0.61745 0.0
C490 C 0.89154 0.52632 0.60543 0.0
C491 C 0.89434 0.53107 0.57779 0.0
C492 C 0.87774 0.53227 0.62121 0.0
C493 C 0.90043 0.51151 0.64732 0.0
C494 C 0.8593 0.51633 0.63436 0.0
C495 C 0.84631 0.5219 0.64933 0.0
C496 C 0.85135 0.54353 0.65119 0.0
C497 C 0.86977 0.55947 0.63779 0.0
C498 C 0.88281 0.55386 0.62288 0.0
H499 H 0.91389 0.50924 0.65434 0.0
H500 H 0.9007 0.52486 0.65901 0.0
H501 H 0.8851 0.49649 0.65176 0.0
H502 H 0.85489 0.49952 0.63296 0.0
H503 H 0.83238 0.50925 0.65959 0.0
H504 H 0.43214 0.96401 0.05252 0.0
H505 H 0.39947 0.93988 0.0773 0.0
H506 H 0.38617 0.88857 0.02147 0.0
H507 H 0.41917 0.9127 0.99641 0.0
H508 H 0.35537 0.91533 0.06022 0.0
H509 H 0.38887 0.86457 0.09693 0.0
H510 H 0.40566 0.89086 0.08226 0.0
H511 H 0.38881 0.86829 0.06111 0.0
C512 C 0.42225 0.94764 0.04532 0.0
C513 C 0.42838 0.94021 0.02261 0.0
C514 C 0.40353 0.9339 0.05949 0.0
C515 C 0.39057 0.91242 0.05138 0.0
C516 C 0.39614 0.90506 0.0282 0.0
H517 H 0.2688 0.82699 0.13535 0.0
H518 H 0.29503 0.84656 0.09966 0.0
C519 C 0.41492 0.91888 0.01386 0.0
C520 C 0.37186 0.89774 0.06822 0.0
H521 H 0.35486 0.85643 0.11331 0.0
C522 C 0.35505 0.90224 0.07157 0.0
C523 C 0.37172 0.88089 0.0832 0.0
C524 C 0.38975 0.87584 0.08096 0.0
C525 C 0.3383 0.89062 0.09002 0.0
C526 C 0.33836 0.87401 0.1053 0.0
C527 C 0.35489 0.86916 0.10146 0.0
C528 C 0.32225 0.86242 0.12669 0.0
C529 C 0.3212 0.8968 0.09389 0.0
C530 C 0.32892 0.86476 0.15363 0.0
C531 C 0.31402 0.85371 0.17404 0.0
C532 C 0.29212 0.83997 0.16788 0.0
C533 C 0.28547 0.83772 0.14082 0.0
C534 C 0.30043 0.84882 0.12039 0.0
H535 H 0.32557 0.91238 0.08403 0.0
H536 H 0.30581 0.88413 0.08503 0.0
H537 H 0.31841 0.89803 0.11566 0.0
H538 H 0.34571 0.87524 0.15887 0.0
H539 H 0.31963 0.85603 0.19468 0.0
H540 H 0.44543 0.42544 0.52276 0.0
H541 H 0.43694 0.39498 0.55234 0.0
H542 H 0.45321 0.43677 0.62158 0.0
H543 H 0.46052 0.46701 0.59202 0.0
H544 H 0.46393 0.39074 0.58121 0.0
H545 H 0.40107 0.3857 0.65027 0.0
H546 H 0.40877 0.40196 0.62017 0.0
H547 H 0.42435 0.41215 0.65062 0.0
C548 C 0.44667 0.42797 0.54435 0.0
C549 C 0.45358 0.44852 0.55516 0.0
C550 C 0.44186 0.41058 0.56125 0.0
C551 C 0.44425 0.41345 0.58928 0.0
C552 C 0.45062 0.43391 0.60014 0.0
H553 H 0.47725 0.33556 0.6892 0.0
H554 H 0.47663 0.36348 0.66205 0.0
C555 C 0.45493 0.45125 0.58323 0.0
C556 C 0.44233 0.39564 0.60661 0.0
H557 H 0.42015 0.36776 0.66473 0.0
C558 C 0.45413 0.38558 0.59929 0.0
C559 C 0.42936 0.38865 0.63008 0.0
C560 C 0.415 0.39753 0.63808 0.0
C561 C 0.45365 0.36907 0.61491 0.0
C562 C 0.44178 0.36301 0.63925 0.0
C563 C 0.42955 0.37267 0.64631 0.0
C564 C 0.44193 0.34671 0.65756 0.0
C565 C 0.46561 0.35807 0.60479 0.0
C566 C 0.42255 0.32848 0.66536 0.0
C567 C 0.42278 0.31272 0.68174 0.0
C568 C 0.44243 0.3148 0.69052 0.0
C569 C 0.46178 0.33339 0.68315 0.0
C570 C 0.46149 0.34927 0.66717 0.0
H571 H 0.46757 0.35941 0.58255 0.0
H572 H 0.48197 0.36598 0.61382 0.0
H573 H 0.45712 0.34073 0.61029 0.0
H574 H 0.40723 0.32627 0.65845 0.0
H575 H 0.40754 0.29891 0.68748 0.0
H576 H 0.55055 0.0219 0.41225 0.0
H577 H 0.5649 0.00425 0.38312 0.0
H578 H 0.54214 0.95138 0.43924 0.0
H579 H 0.52813 0.96881 0.46837 0.0
H580 H 0.58434 0.96617 0.421 0.0
H581 H 0.52687 0.95033 0.33682 0.0
H582 H 0.543 0.97781 0.3479 0.0
H583 H 0.52293 0.95817 0.36994 0.0
C584 C 0.5487 0.00656 0.41838 0.0
C585 C 0.53808 0.99672 0.44255 0.0
C586 C 0.55682 0.99647 0.40169 0.0
C587 C 0.55438 0.97642 0.40895 0.0
C588 C 0.54419 0.96686 0.43328 0.0
H589 H 0.54378 0.86638 0.33336 0.0
H590 H 0.5404 0.89547 0.3541 0.0
C591 C 0.53612 0.97685 0.44987 0.0
C592 C 0.56182 0.96478 0.39129 0.0
H593 H 0.5494 0.9354 0.33323 0.0
C594 C 0.577 0.95971 0.40158 0.0
C595 C 0.55203 0.95627 0.36611 0.0
C596 C 0.5352 0.96073 0.35447 0.0
C597 C 0.58197 0.94558 0.38794 0.0
C598 C 0.57172 0.93659 0.36311 0.0
C599 C 0.55725 0.94239 0.35225 0.0
C600 C 0.57409 0.91948 0.3495 0.0
C601 C 0.59717 0.93943 0.40095 0.0
C602 C 0.59414 0.92339 0.33984 0.0
C603 C 0.59614 0.90674 0.328 0.0
C604 C 0.57805 0.88597 0.32542 0.0
C605 C 0.55796 0.88225 0.33478 0.0
C606 C 0.55601 0.89884 0.34668 0.0
H607 H 0.60048 0.94462 0.42234 0.0
H608 H 0.59046 0.92171 0.40003 0.0
H609 H 0.61273 0.94726 0.38993 0.0
H610 H 0.60823 0.93931 0.34142 0.0
H611 H 0.61176 0.91016 0.3206 0.0
H612 H 0.55469 0.56495 0.91956 0.0
H613 H 0.5834 0.5739 0.88638 0.0
H614 H 0.61206 0.54722 0.93875 0.0
H615 H 0.5837 0.53828 0.97191 0.0
H616 H 0.63239 0.59909 0.89409 0.0
H617 H 0.5976 0.51314 0.8645 0.0
H618 H 0.582 0.52321 0.88122 0.0
H619 H 0.60059 0.51846 0.90011 0.0
C620 C 0.56723 0.56119 0.92412 0.0
C621 C 0.56679 0.55075 0.94832 0.0
C622 C 0.5836 0.56634 0.90517 0.0
C623 C 0.59965 0.56099 0.91009 0.0
C624 C 0.59967 0.55127 0.93454 0.0
H625 H 0.7203 0.58995 0.83793 0.0
H626 H 0.69169 0.58872 0.86612 0.0
C627 C 0.58343 0.54621 0.95348 0.0
C628 C 0.61594 0.56461 0.88934 0.0
H629 H 0.63259 0.53762 0.84817 0.0
C630 C 0.63239 0.58572 0.88382 0.0
C631 C 0.6157 0.54711 0.87587 0.0
C632 C 0.59796 0.52418 0.88047 0.0
C633 C 0.64909 0.58971 0.86572 0.0
C634 C 0.64932 0.57211 0.85309 0.0
C635 C 0.63244 0.55108 0.85799 0.0
C636 C 0.66715 0.57494 0.83523 0.0
C637 C 0.66633 0.61268 0.86026 0.0
C638 C 0.66283 0.56753 0.80856 0.0
C639 C 0.67913 0.56821 0.7924 0.0
C640 C 0.70007 0.57615 0.80268 0.0
C641 C 0.70445 0.58402 0.82926 0.0
C642 C 0.68812 0.58336 0.8454 0.0
H643 H 0.66089 0.62425 0.8657 0.0
H644 H 0.68078 0.6166 0.87253 0.0
H645 H 0.67114 0.61495 0.83871 0.0
H646 H 0.64673 0.56092 0.80036 0.0
H647 H 0.67528 0.56232 0.77191 0.0
H648 H 0.02254 0.53111 0.44603 0.0
H649 H 0.04468 0.5658 0.42401 0.0
H650 H 0.0898 0.58656 0.49003 0.0
H651 H 0.06789 0.55162 0.51212 0.0
H652 H 0.05716 0.60725 0.44164 0.0
H653 H 0.12813 0.59684 0.42433 0.0
H654 H 0.10215 0.5748 0.43416 0.0
H655 H 0.11944 0.59417 0.45875 0.0
C656 C 0.03718 0.54301 0.45593 0.0
C657 C 0.04353 0.53853 0.48077 0.0
C658 C 0.04978 0.56286 0.44331 0.0
C659 C 0.069 0.57863 0.45521 0.0
C660 C 0.07522 0.57443 0.48026 0.0
H661 H 0.16666 0.70365 0.39305 0.0
H662 H 0.14451 0.67328 0.42281 0.0
C663 C 0.06264 0.5545 0.4929 0.0
C664 C 0.08248 0.59934 0.44111 0.0
H665 H 0.13142 0.62993 0.41096 0.0
C666 C 0.07343 0.61227 0.435 0.0
C667 C 0.10369 0.60581 0.43249 0.0
C668 C 0.11393 0.59213 0.43752 0.0
C669 C 0.08501 0.63149 0.42037 0.0
C670 C 0.10605 0.63774 0.41138 0.0
C671 C 0.11527 0.62507 0.41796 0.0
C672 C 0.11854 0.65691 0.39417 0.0
C673 C 0.07468 0.64498 0.41472 0.0
C674 C 0.11121 0.65775 0.36825 0.0
C675 C 0.12388 0.67499 0.35111 0.0
C676 C 0.14418 0.69163 0.35957 0.0
C677 C 0.15124 0.69094 0.3858 0.0
C678 C 0.13857 0.67368 0.40288 0.0
H679 H 0.06117 0.64114 0.42882 0.0
H680 H 0.08666 0.66244 0.41626 0.0
H681 H 0.0681 0.64166 0.39394 0.0
H682 H 0.09598 0.64472 0.36095 0.0
H683 H 0.11813 0.67487 0.33091 0.0
H684 H 0.48683 0.05708 0.00541 0.0
H685 H 0.47924 0.08202 0.98036 0.0
H686 H 0.45388 0.03677 0.9145 0.0
H687 H 0.46095 0.0117 0.93941 0.0
H688 H 0.49671 0.1004 0.93175 0.0
H689 H 0.40777 0.05322 0.92305 0.0
H690 H 0.42255 0.04628 0.94655 0.0
H691 H 0.42048 0.03849 0.91172 0.0
C692 C 0.47931 0.05231 0.98578 0.0
C693 C 0.47447 0.03239 0.97444 0.0
C694 C 0.47502 0.06658 0.97149 0.0
C695 C 0.4657 0.06111 0.94574 0.0
C696 C 0.46057 0.04112 0.9346 0.0
H697 H 0.44772 0.12694 0.81134 0.0
H698 H 0.44973 0.10122 0.84206 0.0
C699 C 0.46479 0.02685 0.94884 0.0
C700 C 0.46288 0.07689 0.92954 0.0
H701 H 0.42603 0.08326 0.89305 0.0
C702 C 0.48121 0.09678 0.92357 0.0
C703 C 0.44265 0.07206 0.91879 0.0
C704 C 0.42221 0.05143 0.92557 0.0
C705 C 0.47998 0.1117 0.90648 0.0
C706 C 0.45985 0.10668 0.89532 0.0
C707 C 0.44145 0.08695 0.90155 0.0
C708 C 0.45767 0.12178 0.87709 0.0
C709 C 0.50032 0.1325 0.89987 0.0
C710 C 0.46107 0.1416 0.88683 0.0
C711 C 0.45981 0.15623 0.86944 0.0
C712 C 0.45513 0.15131 0.84194 0.0
C713 C 0.45124 0.13118 0.8324 0.0
C714 C 0.45245 0.11651 0.84987 0.0
H715 H 0.51504 0.13199 0.90564 0.0
H716 H 0.50109 0.13608 0.87801 0.0
H717 H 0.50033 0.14594 0.911 0.0
H718 H 0.46475 0.14578 0.90789 0.0
H719 H 0.46239 0.17137 0.87759 0.0
H720 H 0.41332 0.4687 0.46847 0.0
H721 H 0.38257 0.45553 0.43805 0.0
H722 H 0.41885 0.44548 0.37607 0.0
H723 H 0.44969 0.4583 0.40663 0.0
H724 H 0.38275 0.47444 0.39005 0.0
H725 H 0.36115 0.38915 0.37393 0.0
H726 H 0.37846 0.40536 0.40107 0.0
H727 H 0.38887 0.40872 0.36741 0.0
C728 C 0.41473 0.46346 0.44848 0.0
C729 C 0.43398 0.4646 0.43995 0.0
C730 C 0.39711 0.45592 0.43113 0.0
C731 C 0.39836 0.44934 0.4049 0.0
C732 C 0.4174 0.45007 0.39641 0.0
H733 H 0.3106 0.42367 0.26999 0.0
H734 H 0.34129 0.42909 0.29762 0.0
C735 C 0.43505 0.45752 0.41385 0.0
C736 C 0.38022 0.44331 0.38603 0.0
H737 H 0.34237 0.40215 0.34761 0.0
C738 C 0.37393 0.45863 0.3808 0.0
C739 C 0.36883 0.4227 0.37388 0.0
C740 C 0.3745 0.40543 0.37947 0.0
C741 C 0.35645 0.45385 0.36392 0.0
C742 C 0.34489 0.4332 0.35211 0.0
C743 C 0.35135 0.41796 0.35681 0.0
C744 C 0.32559 0.42716 0.33555 0.0
C745 C 0.35035 0.4709 0.35884 0.0
C746 C 0.30654 0.42372 0.34789 0.0
C747 C 0.289 0.42051 0.33226 0.0
C748 C 0.29025 0.42076 0.30398 0.0
C749 C 0.30907 0.42324 0.29171 0.0
C750 C 0.32663 0.4264 0.30742 0.0
H751 H 0.36306 0.4871 0.3657 0.0
H752 H 0.34732 0.47172 0.33706 0.0
H753 H 0.33525 0.46661 0.36987 0.0
H754 H 0.30548 0.42413 0.36963 0.0
H755 H 0.27459 0.41824 0.34232 0.0
H756 H 0.97146 0.46043 0.93553 0.0
H757 H 0.95025 0.4259 0.91276 0.0
H758 H 0.90445 0.40324 0.97807 0.0
H759 H 0.92572 0.43788 0.00129 0.0
H760 H 0.91837 0.37361 0.96004 0.0
H761 H 0.89134 0.40532 0.87579 0.0
H762 H 0.91993 0.41976 0.88157 0.0
H763 H 0.90207 0.42 0.90682 0.0
C764 C 0.95686 0.44817 0.94512 0.0
C765 C 0.95022 0.45197 0.9702 0.0
C766 C 0.94472 0.42846 0.93199 0.0
C767 C 0.92566 0.41217 0.94357 0.0
C768 C 0.91908 0.41571 0.96877 0.0
H769 H 0.83293 0.28224 0.89077 0.0
H770 H 0.85409 0.31505 0.91719 0.0
C771 C 0.93122 0.4355 0.98195 0.0
C772 C 0.91279 0.39142 0.92931 0.0
H773 H 0.88485 0.36958 0.87122 0.0
C774 C 0.91088 0.37263 0.94072 0.0
C775 C 0.90314 0.39031 0.90408 0.0
C776 C 0.90401 0.40987 0.89139 0.0
C777 C 0.90001 0.35277 0.92717 0.0
C778 C 0.89052 0.3517 0.90181 0.0
C779 C 0.89226 0.37048 0.89058 0.0
C780 C 0.87849 0.33127 0.88658 0.0
C781 C 0.89926 0.33325 0.93976 0.0
C782 C 0.88507 0.32958 0.8605 0.0
C783 C 0.87288 0.31095 0.84522 0.0
C784 C 0.85377 0.29371 0.85568 0.0
C785 C 0.84747 0.29531 0.88204 0.0
C786 C 0.85967 0.31395 0.89729 0.0
H787 H 0.91195 0.33784 0.95535 0.0
H788 H 0.88337 0.32328 0.9496 0.0
H789 H 0.90128 0.32319 0.92429 0.0
H790 H 0.89949 0.34284 0.85181 0.0
H791 H 0.87802 0.31035 0.82488 0.0
H792 H 0.94944 0.5343 0.96638 0.0
H793 H 0.93073 0.54583 0.93551 0.0
H794 H 0.98215 0.56543 0.87772 0.0
H795 H 0.00102 0.55366 0.9085 0.0
H796 H 0.94343 0.58612 0.91037 0.0
H797 H 0.92739 0.52092 0.83695 0.0
H798 H 0.93649 0.52097 0.87084 0.0
H799 H 0.95511 0.53868 0.84596 0.0
C800 C 0.95691 0.54119 0.9472 0.0
C801 C 0.97664 0.54285 0.93978 0.0
C802 C 0.94621 0.54785 0.92962 0.0
C803 C 0.95494 0.55622 0.90425 0.0
C804 C 0.97502 0.55872 0.89711 0.0
H805 H 0.88948 0.60281 0.79581 0.0
H806 H 0.91754 0.60168 0.82288 0.0
C807 C 0.9858 0.55207 0.91474 0.0
C808 C 0.94224 0.56117 0.885 0.0
H809 H 0.91256 0.5429 0.82735 0.0
C810 C 0.93688 0.5769 0.89201 0.0
C811 C 0.93359 0.54891 0.86126 0.0
C812 C 0.93825 0.5313 0.85326 0.0
C813 C 0.92262 0.58033 0.87622 0.0
C814 C 0.9137 0.56781 0.85274 0.0
C815 C 0.91954 0.55251 0.84534 0.0
C816 C 0.8969 0.569 0.83675 0.0
C817 C 0.91642 0.59659 0.88538 0.0
C818 C 0.87612 0.55096 0.83548 0.0
C819 C 0.86012 0.55155 0.82014 0.0
C820 C 0.86462 0.57018 0.80561 0.0
C821 C 0.88545 0.58832 0.80705 0.0
C822 C 0.90149 0.5877 0.82244 0.0
H823 H 0.92186 0.60222 0.90628 0.0
H824 H 0.92394 0.6108 0.87183 0.0
H825 H 0.89867 0.5896 0.88435 0.0
H826 H 0.87226 0.53639 0.84647 0.0
H827 H 0.84417 0.53742 0.8198 0.0
H828 H 0.45352 0.9932 0.44166 0.0
H829 H 0.42199 0.96991 0.41438 0.0
H830 H 0.40573 0.91708 0.46887 0.0
H831 H 0.43714 0.94043 0.49666 0.0
H832 H 0.41508 0.93351 0.38832 0.0
H833 H 0.34802 0.91456 0.4592 0.0
H834 H 0.37516 0.93633 0.46493 0.0
H835 H 0.36805 0.90901 0.47245 0.0
C836 C 0.4431 0.97671 0.44811 0.0
C837 C 0.44786 0.96866 0.47135 0.0
C838 C 0.42508 0.96342 0.43245 0.0
C839 C 0.41142 0.94183 0.4397 0.0
C840 C 0.41583 0.93382 0.46319 0.0
H841 H 0.32722 0.83748 0.33393 0.0
H842 H 0.35648 0.86331 0.36265 0.0
C843 C 0.43384 0.94716 0.47898 0.0
C844 C 0.39347 0.92742 0.42161 0.0
H845 H 0.33898 0.8937 0.41892 0.0
C846 C 0.39842 0.92489 0.39497 0.0
C847 C 0.37174 0.9164 0.43023 0.0
C848 C 0.36534 0.91933 0.45819 0.0
C849 C 0.38228 0.91133 0.37685 0.0
C850 C 0.36065 0.89968 0.38576 0.0
C851 C 0.35562 0.90253 0.41222 0.0
C852 C 0.34306 0.88424 0.368 0.0
C853 C 0.38851 0.90979 0.34824 0.0
C854 C 0.32564 0.88726 0.36184 0.0
C855 C 0.30876 0.87239 0.34563 0.0
C856 C 0.30895 0.85415 0.33546 0.0
C857 C 0.32651 0.85127 0.3416 0.0
C858 C 0.34335 0.86612 0.3578 0.0
H859 H 0.40431 0.92393 0.34272 0.0
H860 H 0.3899 0.89511 0.3461 0.0
H861 H 0.37613 0.9086 0.33379 0.0
H862 H 0.32507 0.90109 0.36966 0.0
H863 H 0.29533 0.87491 0.34162 0.0
H864 H 0.48114 0.46812 0.95502 0.0
H865 H 0.46875 0.43482 0.92966 0.0
H866 H 0.50851 0.41886 0.97867 0.0
H867 H 0.52066 0.45205 0.00467 0.0
H868 H 0.49373 0.42495 0.89955 0.0
H869 H 0.45194 0.36211 0.9775 0.0
H870 H 0.4591 0.38988 0.98257 0.0
H871 H 0.47904 0.38183 0.98654 0.0
C872 C 0.48708 0.45742 0.96066 0.0
C873 C 0.50194 0.46276 0.98182 0.0
C874 C 0.47995 0.43838 0.94614 0.0
C875 C 0.48753 0.42425 0.95242 0.0
C876 C 0.50208 0.4293 0.97385 0.0
H877 H 0.49487 0.33477 0.84332 0.0
H878 H 0.50131 0.3647 0.87272 0.0
C879 C 0.50911 0.44833 0.98859 0.0
C880 C 0.48148 0.40521 0.93508 0.0
H881 H 0.45932 0.35049 0.93572 0.0
C882 C 0.48607 0.40865 0.90745 0.0
C883 C 0.47123 0.38394 0.94535 0.0
C884 C 0.46483 0.37914 0.97456 0.0
C885 C 0.48113 0.39148 0.88988 0.0
C886 C 0.47178 0.37033 0.90033 0.0
C887 C 0.46668 0.36677 0.92783 0.0
C888 C 0.46773 0.35183 0.88306 0.0
C889 C 0.48582 0.39614 0.86024 0.0
C890 C 0.44675 0.33438 0.87969 0.0
C891 C 0.44302 0.31705 0.86311 0.0
C892 C 0.46026 0.31683 0.84982 0.0
C893 C 0.48126 0.3343 0.85348 0.0
C894 C 0.48496 0.35155 0.87004 0.0
H895 H 0.48698 0.41169 0.85452 0.0
H896 H 0.50149 0.39727 0.85547 0.0
H897 H 0.47315 0.3831 0.84773 0.0
H898 H 0.43326 0.33426 0.88972 0.0
H899 H 0.42671 0.30371 0.86098 0.0
H900 H 0.04502 0.45979 0.46782 0.0
H901 H 0.06277 0.44902 0.43441 0.0
H902 H 0.00722 0.42551 0.38258 0.0
H903 H 0.98935 0.43661 0.41584 0.0
H904 H 0.05106 0.40926 0.41134 0.0
H905 H 0.05674 0.46848 0.33464 0.0
H906 H 0.04968 0.46955 0.36926 0.0
H907 H 0.03008 0.44997 0.34667 0.0
C908 C 0.03647 0.45224 0.44939 0.0
C909 C 0.01582 0.44924 0.44442 0.0
C910 C 0.04665 0.44604 0.43033 0.0
C911 C 0.03644 0.43675 0.40587 0.0
C912 C 0.01553 0.43302 0.40114 0.0
H913 H 0.09877 0.38746 0.29587 0.0
H914 H 0.07123 0.38926 0.3233 0.0
C915 C 0.00531 0.43927 0.42023 0.0
C916 C 0.0482 0.43166 0.38522 0.0
H917 H 0.07184 0.44697 0.32332 0.0
C918 C 0.05542 0.4173 0.39195 0.0
C919 C 0.05401 0.44236 0.36007 0.0
C920 C 0.04741 0.45859 0.35218 0.0
C921 C 0.0688 0.41378 0.37452 0.0
C922 C 0.07479 0.42465 0.34949 0.0
C923 C 0.06708 0.43855 0.34245 0.0
C924 C 0.09066 0.42342 0.33148 0.0
C925 C 0.07724 0.39927 0.38359 0.0
C926 C 0.11038 0.44214 0.32627 0.0
C927 C 0.12599 0.44122 0.31041 0.0
C928 C 0.12221 0.42154 0.29939 0.0
C929 C 0.10217 0.40288 0.304 0.0
C930 C 0.0865 0.40383 0.31989 0.0
H931 H 0.0746 0.39561 0.40546 0.0
H932 H 0.06875 0.3838 0.3724 0.0
H933 H 0.09475 0.40677 0.37929 0.0
H934 H 0.11387 0.45746 0.33487 0.0
H935 H 0.14106 0.45598 0.30681 0.0
H936 H 0.52033 0.99131 0.90535 0.0
H937 H 0.55241 0.01287 0.87751 0.0
H938 H 0.58971 0.04244 0.94917 0.0
H939 H 0.55773 0.02164 0.9768 0.0
H940 H 0.59389 0.07188 0.91381 0.0
H941 H 0.60652 0.01043 0.86194 0.0
H942 H 0.58002 0.00675 0.85747 0.0
H943 H 0.58871 0.00403 0.89046 0.0
C944 C 0.5355 0.00214 0.9151 0.0
C945 C 0.53654 0.00494 0.94318 0.0
C946 C 0.55383 0.01437 0.89921 0.0
C947 C 0.57351 0.02919 0.91127 0.0
C948 C 0.57469 0.03118 0.93941 0.0
H949 H 0.70173 0.10339 0.84446 0.0
H950 H 0.66822 0.07602 0.86571 0.0
C951 C 0.5564 0.01928 0.95518 0.0
C952 C 0.59246 0.04413 0.89486 0.0
H953 H 0.62802 0.04669 0.84713 0.0
C954 C 0.60136 0.06634 0.89926 0.0
C955 C 0.60227 0.03689 0.87601 0.0
C956 C 0.59404 0.01322 0.87131 0.0
C957 C 0.6199 0.08153 0.88564 0.0
C958 C 0.62944 0.07435 0.8663 0.0
C959 C 0.62053 0.05214 0.86176 0.0
C960 C 0.64913 0.08975 0.85143 0.0
C961 C 0.62946 0.10506 0.89279 0.0
C962 C 0.64935 0.10617 0.83579 0.0
C963 C 0.66849 0.12194 0.82401 0.0
C964 C 0.68764 0.12129 0.82721 0.0
C965 C 0.68717 0.10424 0.84172 0.0
C966 C 0.66807 0.08861 0.85381 0.0
H967 H 0.62387 0.1072 0.91282 0.0
H968 H 0.64735 0.11344 0.89296 0.0
H969 H 0.62437 0.11298 0.87761 0.0
H970 H 0.63479 0.10702 0.83309 0.0
H971 H 0.66836 0.1347 0.81247 0.0
H972 H 0.48812 0.56972 0.50877 0.0
H973 H 0.50069 0.60492 0.48726 0.0
H974 H 0.51685 0.58214 0.4155 0.0
H975 H 0.50455 0.54717 0.43664 0.0
H976 H 0.54547 0.6329 0.46111 0.0
H977 H 0.47525 0.6061 0.39266 0.0
H978 H 0.47385 0.59226 0.42368 0.0
H979 H 0.48654 0.58864 0.39453 0.0
C980 C 0.4943 0.57221 0.48839 0.0
C981 C 0.49529 0.55563 0.47439 0.0
C982 C 0.50151 0.59231 0.4762 0.0
C983 C 0.50952 0.59597 0.44979 0.0
C984 C 0.51054 0.5795 0.43584 0.0
H985 H 0.55749 0.68911 0.32435 0.0
H986 H 0.54419 0.65798 0.3543 0.0
C987 C 0.50354 0.55955 0.44801 0.0
C988 C 0.51702 0.61696 0.43646 0.0
H989 H 0.50618 0.63991 0.38308 0.0
C990 C 0.5368 0.63464 0.4443 0.0
C991 C 0.50562 0.61899 0.41455 0.0
C992 C 0.48404 0.60057 0.40588 0.0
C993 C 0.54601 0.65412 0.42986 0.0
C994 C 0.53488 0.65594 0.40738 0.0
C995 C 0.51472 0.63844 0.40024 0.0
C996 C 0.54424 0.67535 0.39001 0.0
C997 C 0.56798 0.67219 0.43798 0.0
C998 C 0.54885 0.6955 0.40021 0.0
C999 C 0.55654 0.71337 0.3831 0.0
C1000 C 0.55947 0.71128 0.35549 0.0
C1001 C 0.55515 0.69115 0.34548 0.0
C1002 C 0.54761 0.67337 0.36256 0.0
H1003 H 0.57636 0.66653 0.45173 0.0
H1004 H 0.57828 0.67967 0.42 0.0
H1005 H 0.56616 0.68481 0.44861 0.0
H1006 H 0.54597 0.69728 0.42121 0.0
H1007 H 0.55948 0.72863 0.39129 0.0
H1008 H 0.51189 0.08677 0.50147 0.0
H1009 H 0.50266 0.11009 0.52774 0.0
H1010 H 0.4638 0.05708 0.58098 0.0
H1011 H 0.47275 0.03373 0.55497 0.0
H1012 H 0.44447 0.0822 0.56471 0.0
H1013 H 0.5279 0.13179 0.60454 0.0
H1014 H 0.52507 0.1291 0.56853 0.0
H1015 H 0.51863 0.1059 0.58878 0.0
C1016 C 0.50123 0.08005 0.51862 0.0
C1017 C 0.4932 0.05844 0.52625 0.0
C1018 C 0.49606 0.0934 0.53366 0.0
C1019 C 0.48276 0.08533 0.55645 0.0
C1020 C 0.47413 0.06361 0.56349 0.0
H1021 H 0.46624 0.14313 0.69868 0.0
H1022 H 0.473 0.12269 0.6644 0.0
C1023 C 0.47934 0.05032 0.54861 0.0
C1024 C 0.47839 0.09952 0.57382 0.0
H1025 H 0.50202 0.14046 0.61958 0.0
C1026 C 0.45705 0.0951 0.57653 0.0
C1027 C 0.49484 0.11611 0.58942 0.0
C1028 C 0.5179 0.12101 0.58795 0.0
C1029 C 0.45168 0.10671 0.59469 0.0
C1030 C 0.46812 0.12323 0.61037 0.0
C1031 C 0.48949 0.12782 0.60741 0.0
C1032 C 0.46339 0.13529 0.63092 0.0
C1033 C 0.42839 0.10077 0.59767 0.0
C1034 C 0.45577 0.14915 0.62339 0.0
C1035 C 0.45201 0.16097 0.64293 0.0
C1036 C 0.45588 0.15918 0.67034 0.0
C1037 C 0.46335 0.1451 0.67775 0.0
C1038 C 0.46714 0.13335 0.65821 0.0
H1039 H 0.41727 0.0851 0.58792 0.0
H1040 H 0.42399 0.09985 0.61928 0.0
H1041 H 0.42597 0.1134 0.58812 0.0
H1042 H 0.4531 0.15111 0.60237 0.0
H1043 H 0.44661 0.17192 0.63647 0.0
H1044 H 0.46555 0.49025 0.06266 0.0
H1045 H 0.43096 0.47799 0.08471 0.0
H1046 H 0.41613 0.51446 0.02825 0.0
H1047 H 0.45077 0.52661 0.00561 0.0
H1048 H 0.41666 0.50271 0.1094 0.0
H1049 H 0.36183 0.45486 0.02597 0.0
H1050 H 0.39027 0.46371 0.02578 0.0
H1051 H 0.38116 0.48226 0.0175 0.0
C1052 C 0.45494 0.49563 0.05477 0.0
C1053 C 0.46094 0.50942 0.03232 0.0
C1054 C 0.43515 0.48858 0.06744 0.0
C1055 C 0.42087 0.49511 0.05796 0.0
C1056 C 0.42674 0.50889 0.03558 0.0
H1057 H 0.3144 0.48555 0.15328 0.0
H1058 H 0.34735 0.49825 0.1268 0.0
C1059 C 0.44659 0.51592 0.02277 0.0
C1060 C 0.40026 0.48802 0.07234 0.0
H1061 H 0.34552 0.45922 0.06521 0.0
C1062 C 0.4011 0.49323 0.09973 0.0
C1063 C 0.38001 0.47543 0.05974 0.0
C1064 C 0.37815 0.46853 0.03069 0.0
C1065 C 0.38224 0.48621 0.11491 0.0
C1066 C 0.36198 0.47402 0.10219 0.0
C1067 C 0.3611 0.46873 0.07482 0.0
C1068 C 0.34154 0.46631 0.11719 0.0
C1069 C 0.3842 0.49147 0.14458 0.0
C1070 C 0.32703 0.44413 0.11988 0.0
C1071 C 0.30814 0.43681 0.13496 0.0
C1072 C 0.30345 0.45157 0.14759 0.0
C1073 C 0.3178 0.47378 0.14429 0.0
C1074 C 0.3366 0.48107 0.12914 0.0
H1075 H 0.40042 0.49597 0.1525 0.0
H1076 H 0.38161 0.50533 0.14786 0.0
H1077 H 0.37189 0.47758 0.15638 0.0
H1078 H 0.33053 0.43249 0.11074 0.0
H1079 H 0.29745 0.41961 0.13723 0.0
H1080 H 0.0038 0.44927 0.59733 0.0
H1081 H 0.98484 0.41953 0.62941 0.0
H1082 H 0.94195 0.37998 0.56628 0.0
H1083 H 0.96055 0.40954 0.53424 0.0
H1084 H 0.93645 0.39896 0.63762 0.0
H1085 H 0.96383 0.34193 0.60663 0.0
H1086 H 0.97955 0.37061 0.60042 0.0
H1087 H 0.95646 0.35398 0.57992 0.0
C1088 C 0.99056 0.43412 0.59021 0.0
C1089 C 0.98362 0.43175 0.56328 0.0
C1090 C 0.97975 0.4172 0.60854 0.0
C1091 C 0.96215 0.39759 0.60008 0.0
C1092 C 0.95567 0.39494 0.57307 0.0
H1093 H 0.86242 0.27723 0.6611 0.0
H1094 H 0.89007 0.30754 0.63525 0.0
C1095 C 0.96625 0.41188 0.55484 0.0
C1096 C 0.94929 0.3804 0.61973 0.0
H1097 H 0.93362 0.32833 0.63594 0.0
C1098 C 0.93601 0.3836 0.63762 0.0
C1099 C 0.94869 0.3604 0.61933 0.0
C1100 C 0.96298 0.35644 0.6007 0.0
C1101 C 0.92137 0.36693 0.65444 0.0
C1102 C 0.92052 0.34674 0.65384 0.0
C1103 C 0.9343 0.3438 0.63642 0.0
C1104 C 0.90458 0.32811 0.66996 0.0
C1105 C 0.90625 0.37081 0.67163 0.0
C1106 C 0.90382 0.32943 0.69812 0.0
C1107 C 0.88788 0.3122 0.71289 0.0
C1108 C 0.8727 0.2932 0.6998 0.0
C1109 C 0.87399 0.29163 0.67173 0.0
C1110 C 0.88975 0.30894 0.65695 0.0
H1111 H 0.90517 0.38495 0.66454 0.0
H1112 H 0.88979 0.35649 0.6717 0.0
H1113 H 0.9123 0.37407 0.69265 0.0
H1114 H 0.91545 0.34383 0.70867 0.0
H1115 H 0.88744 0.3137 0.73456 0.0
H1116 H 0.51851 0.98525 0.09218 0.0
H1117 H 0.53329 0.96744 0.11996 0.0
H1118 H 0.54049 0.93667 0.0491 0.0
H1119 H 0.52494 0.95363 0.02158 0.0
H1120 H 0.52115 0.90834 0.08674 0.0
H1121 H 0.59304 0.97791 0.13164 0.0
H1122 H 0.56878 0.97861 0.1382 0.0
H1123 H 0.57828 0.98086 0.10412 0.0
C1124 C 0.5235 0.97488 0.08256 0.0
C1125 C 0.52046 0.97071 0.05478 0.0
C1126 C 0.53211 0.96484 0.0984 0.0
C1127 C 0.53829 0.95092 0.08658 0.0
C1128 C 0.53585 0.94733 0.05869 0.0
H1129 H 0.60555 0.89271 0.1664 0.0
H1130 H 0.59656 0.91587 0.13938 0.0
C1131 C 0.52692 0.95701 0.04298 0.0
C1132 C 0.54558 0.93861 0.10333 0.0
H1133 H 0.58183 0.9434 0.1514 0.0
C1134 C 0.53454 0.91607 0.10071 0.0
C1135 C 0.56322 0.94866 0.12133 0.0
C1136 C 0.57666 0.97285 0.12381 0.0
C1137 C 0.54041 0.90329 0.11577 0.0
C1138 C 0.55732 0.91323 0.13477 0.0
C1139 C 0.56867 0.93579 0.13709 0.0
C1140 C 0.56326 0.90033 0.15241 0.0
C1141 C 0.52864 0.87927 0.11075 0.0
C1142 C 0.54773 0.88439 0.16922 0.0
C1143 C 0.55273 0.87104 0.18425 0.0
C1144 C 0.57351 0.87368 0.1832 0.0
C1145 C 0.5894 0.89034 0.16745 0.0
C1146 C 0.58428 0.90354 0.15207 0.0
H1147 H 0.52121 0.87525 0.09039 0.0
H1148 H 0.53962 0.8726 0.11266 0.0
H1149 H 0.51548 0.87117 0.12573 0.0
H1150 H 0.5316 0.88206 0.17043 0.0
H1151 H 0.54033 0.8586 0.19671 0.0
H1152 H 0.53872 0.53423 0.54681 0.0
H1153 H 0.57235 0.54529 0.57076 0.0
H1154 H 0.58436 0.50311 0.52081 0.0
H1155 H 0.55081 0.49227 0.49618 0.0
H1156 H 0.58109 0.5191 0.6002 0.0
H1157 H 0.64261 0.55815 0.51999 0.0
H1158 H 0.61514 0.55229 0.51607 0.0
H1159 H 0.62173 0.53132 0.51171 0.0
C1160 C 0.54863 0.52748 0.54065 0.0
C1161 C 0.54209 0.51231 0.51965 0.0
C1162 C 0.56786 0.53385 0.55436 0.0
C1163 C 0.58094 0.52517 0.54744 0.0
C1164 C 0.57472 0.51035 0.52611 0.0
H1165 H 0.6717 0.51723 0.65452 0.0
H1166 H 0.64117 0.51038 0.62603 0.0
C1167 C 0.5555 0.50408 0.51216 0.0
C1168 C 0.60015 0.53047 0.56401 0.0
H1169 H 0.65459 0.55101 0.56148 0.0
C1170 C 0.59718 0.52618 0.59174 0.0
C1171 C 0.62113 0.53992 0.55299 0.0
C1172 C 0.62544 0.5459 0.5236 0.0
C1173 C 0.61458 0.53083 0.60873 0.0
C1174 C 0.63545 0.53952 0.59756 0.0
C1175 C 0.63852 0.54416 0.56991 0.0
C1176 C 0.65423 0.54371 0.61428 0.0
C1177 C 0.61048 0.52665 0.63854 0.0
C1178 C 0.67194 0.56465 0.61655 0.0
C1179 C 0.68959 0.56859 0.63255 0.0
C1180 C 0.68986 0.55161 0.64642 0.0
C1181 C 0.67211 0.53064 0.64392 0.0
C1182 C 0.65453 0.52672 0.62788 0.0
H1183 H 0.5952 0.52589 0.64471 0.0
H1184 H 0.60914 0.51092 0.6435 0.0
H1185 H 0.6239 0.53937 0.65055 0.0
H1186 H 0.67203 0.57795 0.60606 0.0
H1187 H 0.70315 0.58487 0.63374 0.0
H1188 H 0.03909 0.57584 0.0327 0.0
H1189 H 0.05763 0.60397 0.06629 0.0
H1190 H 0.00388 0.57071 0.12061 0.0
H1191 H 0.98522 0.54205 0.08711 0.0
H1192 H 0.04676 0.63145 0.09207 0.0
H1193 H 0.0549 0.57677 0.16467 0.0
H1194 H 0.04658 0.56909 0.13023 0.0
H1195 H 0.02789 0.56894 0.15449 0.0
C1196 C 0.03108 0.57449 0.0517 0.0
C1197 C 0.01073 0.55656 0.0573 0.0
C1198 C 0.04171 0.59065 0.07087 0.0
C1199 C 0.03228 0.58928 0.09607 0.0
C1200 C 0.01161 0.57186 0.10144 0.0
H1201 H 0.10061 0.69961 0.20698 0.0
H1202 H 0.07172 0.67112 0.17999 0.0
C1203 C 0.00093 0.55558 0.08223 0.0
C1204 C 0.04472 0.60582 0.11677 0.0
H1205 H 0.07104 0.61333 0.17659 0.0
C1206 C 0.05187 0.62751 0.11074 0.0
C1207 C 0.05151 0.60058 0.14094 0.0
C1208 C 0.04501 0.57763 0.14801 0.0
C1209 C 0.06621 0.64419 0.12779 0.0
C1210 C 0.07324 0.63896 0.15177 0.0
C1211 C 0.06552 0.61724 0.15824 0.0
C1212 C 0.09012 0.65577 0.16912 0.0
C1213 C 0.07456 0.66726 0.11929 0.0
C1214 C 0.10978 0.65624 0.17252 0.0
C1215 C 0.1262 0.67236 0.18798 0.0
C1216 C 0.12328 0.68835 0.20042 0.0
C1217 C 0.10342 0.68767 0.19734 0.0
C1218 C 0.08693 0.67144 0.18193 0.0
H1219 H 0.07102 0.66849 0.09779 0.0
H1220 H 0.06674 0.67431 0.13169 0.0
H1221 H 0.09224 0.67707 0.12246 0.0
H1222 H 0.11259 0.64433 0.16276 0.0
H1223 H 0.14138 0.67258 0.18967 0.0
loop_
_geom_bond_atom_site_label_1
_geom_bond_atom_site_label_2
_geom_bond_distance
_geom_bond_site_symmetry_2
_ccdc_geom_bond_type
C0 O2 1.247 . S
C0 O4 1.258 . S
C1 O8 1.247 . S
C1 O9 1.258 . S
O2 C0 1.247 . S
O2 Zn3 2.028 1_455 S
Zn3 O2 2.028 1_655 S
Zn3 O7 2.035 1_554 S
Zn3 O9 2.035 1_554 S
Zn3 O10 2.028 1_655 S
O4 C0 1.258 . S
O4 Zn5 2.035 1_554 S
Zn5 O4 2.035 1_556 S
Zn5 O6 2.028 1_455 S
Zn5 O8 2.028 1_455 S
Zn5 O11 2.035 1_556 S
O6 Zn5 2.028 1_655 S
O6 C12 1.247 . S
O7 Zn3 2.035 1_556 S
O7 C12 1.258 . S
O8 C1 1.247 . S
O8 Zn5 2.028 1_655 S
O9 C1 1.258 . S
O9 Zn3 2.035 1_556 S
O10 Zn3 2.028 1_455 S
O10 C13 1.247 . S
O11 Zn5 2.035 1_554 S
O11 C13 1.258 . S
C12 O6 1.247 . S
C12 O7 1.258 . S
C13 O10 1.247 . S
C13 O11 1.258 . S
C14 O16 1.247 . S
C14 O18 1.258 . S
C15 O22 1.247 . S
C15 O23 1.258 . S
O16 C14 1.247 . S
O16 Zn17 2.028 1_545 S
Zn17 O16 2.028 1_565 S
Zn17 O21 2.035 . S
Zn17 O23 2.035 . S
Zn17 O24 2.028 1_565 S
O18 C14 1.258 . S
O18 Zn19 2.035 . S
Zn19 O18 2.035 . S
Zn19 O20 2.028 1_545 S
Zn19 O22 2.028 1_545 S
Zn19 O25 2.035 . S
O20 Zn19 2.028 1_565 S
O20 C26 1.247 . S
O21 Zn17 2.035 . S
O21 C26 1.258 . S
O22 C15 1.247 . S
O22 Zn19 2.028 1_565 S
O23 C15 1.258 . S
O23 Zn17 2.035 . S
O24 Zn17 2.028 1_545 S
O24 C27 1.247 . S
O25 Zn19 2.035 . S
O25 C27 1.258 . S
C26 O20 1.247 . S
C26 O21 1.258 . S
C27 O24 1.247 . S
C27 O25 1.258 . S
C28 O30 1.247 . S
C28 O32 1.258 . S
C29 O36 1.247 . S
C29 O37 1.258 . S
O30 C28 1.247 . S
O30 Zn31 2.028 . S
Zn31 O30 2.028 . S
Zn31 O35 2.035 1_556 S
Zn31 O37 2.035 1_556 S
Zn31 O38 2.028 . S
O32 C28 1.258 . S
O32 Zn33 2.035 1_556 S
Zn33 O32 2.035 1_554 S
Zn33 O34 2.028 . S
Zn33 O36 2.028 . S
Zn33 O39 2.035 1_554 S
O34 Zn33 2.028 . S
O34 C40 1.247 . S
O35 Zn31 2.035 1_554 S
O35 C40 1.258 . S
O36 C29 1.247 . S
O36 Zn33 2.028 . S
O37 C29 1.258 . S
O37 Zn31 2.035 1_554 S
O38 Zn31 2.028 . S
O38 C41 1.247 . S
O39 Zn33 2.035 1_556 S
O39 C41 1.258 . S
C40 O34 1.247 . S
C40 O35 1.258 . S
C41 O38 1.247 . S
C41 O39 1.258 . S
C42 O44 1.247 . S
C42 O46 1.258 . S
C43 O50 1.247 . S
C43 O51 1.258 . S
O44 C42 1.247 . S
O44 Zn45 2.028 . S
Zn45 O44 2.028 . S
Zn45 O49 2.035 1_455 S
Zn45 O51 2.035 1_455 S
Zn45 O52 2.028 . S
O46 C42 1.258 . S
O46 Zn47 2.035 1_455 S
Zn47 O46 2.035 1_655 S
Zn47 O48 2.028 . S
Zn47 O50 2.028 . S
Zn47 O53 2.035 1_655 S
O48 Zn47 2.028 . S
O48 C54 1.247 . S
O49 Zn45 2.035 1_655 S
O49 C54 1.258 . S
O50 C43 1.247 . S
O50 Zn47 2.028 . S
O51 C43 1.258 . S
O51 Zn45 2.035 1_655 S
O52 Zn45 2.028 . S
O52 C55 1.247 . S
O53 Zn47 2.035 1_455 S
O53 C55 1.258 . S
C54 O48 1.247 . S
C54 O49 1.258 . S
C55 O52 1.247 . S
C55 O53 1.258 . S
C56 O58 1.247 . S
C56 O60 1.258 . S
C57 O64 1.247 . S
C57 O65 1.258 . S
O58 C56 1.247 . S
O58 Zn59 2.028 1_565 S
Zn59 O58 2.028 1_545 S
Zn59 O63 2.035 1_554 S
Zn59 O65 2.035 1_554 S
Zn59 O66 2.028 1_545 S
O60 C56 1.258 . S
O60 Zn61 2.035 1_554 S
Zn61 O60 2.035 1_556 S
Zn61 O62 2.028 1_565 S
Zn61 O64 2.028 1_565 S
Zn61 O67 2.035 1_556 S
O62 Zn61 2.028 1_545 S
O62 C68 1.247 . S
O63 Zn59 2.035 1_556 S
O63 C68 1.258 . S
O64 C57 1.247 . S
O64 Zn61 2.028 1_545 S
O65 C57 1.258 . S
O65 Zn59 2.035 1_556 S
O66 Zn59 2.028 1_565 S
O66 C69 1.247 . S
O67 Zn61 2.035 1_554 S
O67 C69 1.258 . S
C68 O62 1.247 . S
C68 O63 1.258 . S
C69 O66 1.247 . S
C69 O67 1.258 . S
C70 O72 1.247 . S
C70 O74 1.258 . S
C71 O78 1.247 . S
C71 O79 1.258 . S
O72 C70 1.247 . S
O72 Zn73 2.028 . S
Zn73 O72 2.028 . S
Zn73 O77 2.035 . S
Zn73 O79 2.035 . S
Zn73 O80 2.028 . S
O74 C70 1.258 . S
O74 Zn75 2.035 . S
Zn75 O74 2.035 . S
Zn75 O76 2.028 . S
Zn75 O78 2.028 . S
Zn75 O81 2.035 . S
O76 Zn75 2.028 . S
O76 C82 1.247 . S
O77 Zn73 2.035 . S
O77 C82 1.258 . S
O78 C71 1.247 . S
O78 Zn75 2.028 . S
O79 C71 1.258 . S
O79 Zn73 2.035 . S
O80 Zn73 2.028 . S
O80 C83 1.247 . S
O81 Zn75 2.035 . S
O81 C83 1.258 . S
C82 O76 1.247 . S
C82 O77 1.258 . S
C83 O80 1.247 . S
C83 O81 1.258 . S
C84 C85 1.384 . S
C84 C86 1.384 . S
C84 H112 0.931 . S
C85 C84 1.384 . S
C85 C88 1.382 . S
C86 C84 1.384 . S
C86 C87 1.381 . S
C86 H113 0.930 . S
C87 C86 1.381 . S
C87 C89 1.381 . S
C87 C90 1.487 . S
C88 C85 1.382 . S
C88 C89 1.387 . S
C88 H114 0.930 . S
C89 C87 1.381 . S
C89 C88 1.387 . S
C89 H115 0.931 . S
C90 C87 1.487 . S
C90 C97 1.399 . S
C90 N128 1.343 . S
C91 C92 1.384 . S
C91 C93 1.384 . S
C91 H116 0.931 . S
C92 C91 1.384 . S
C92 C95 1.382 . S
C93 C91 1.384 . S
C93 C94 1.381 . S
C93 H117 0.930 . S
C94 C93 1.381 . S
C94 C96 1.381 . S
C94 C97 1.487 . S
C95 C92 1.382 . S
C95 C96 1.387 . S
C95 H118 0.930 . S
C96 C94 1.381 . S
C96 C95 1.387 . S
C96 H119 0.931 . S
C97 C90 1.399 . S
C97 C94 1.487 . S
C97 N129 1.343 . S
C98 C99 1.384 . S
C98 C100 1.384 . S
C98 H120 0.931 . S
C99 C98 1.384 . S
C99 C102 1.382 . S
C100 C98 1.384 . S
C100 C101 1.381 . S
C100 H121 0.930 . S
C101 C100 1.381 . S
C101 C103 1.381 . S
C101 C104 1.487 . S
C102 C99 1.382 . S
C102 C103 1.387 . S
C102 H122 0.930 . S
C103 C101 1.381 . S
C103 C102 1.387 . S
C103 H123 0.931 . S
C104 C101 1.487 . S
C104 C111 1.399 . S
C104 N129 1.343 . S
C105 C106 1.384 . S
C105 C107 1.384 . S
C105 H124 0.931 . S
C106 C105 1.384 . S
C106 C109 1.382 . S
C107 C105 1.384 . S
C107 C108 1.381 . S
C107 H125 0.930 . S
C108 C107 1.381 . S
C108 C110 1.381 . S
C108 C111 1.487 . S
C109 C106 1.382 . S
C109 C110 1.387 . S
C109 H126 0.930 . S
C110 C108 1.381 . S
C110 C109 1.387 . S
C110 H127 0.931 . S
C111 C104 1.399 . S
C111 C108 1.487 . S
C111 N128 1.343 . S
H112 C84 0.931 . S
H113 C86 0.930 . S
H114 C88 0.930 . S
H115 C89 0.931 . S
H116 C91 0.931 . S
H117 C93 0.930 . S
H118 C95 0.930 . S
H119 C96 0.931 . S
H120 C98 0.931 . S
H121 C100 0.930 . S
H122 C102 0.930 . S
H123 C103 0.931 . S
H124 C105 0.931 . S
H125 C107 0.930 . S
H126 C109 0.930 . S
H127 C110 0.931 . S
N128 C90 1.343 . S
N128 C111 1.343 . S
N129 C97 1.343 . S
N129 C104 1.343 . S
C130 C131 1.384 . S
C130 C132 1.384 . S
C130 H158 0.931 . S
C131 C130 1.384 . S
C131 C134 1.382 . S
C132 C130 1.384 . S
C132 C133 1.381 . S
C132 H159 0.930 . S
C133 C132 1.381 . S
C133 C135 1.381 . S
C133 C136 1.487 . S
C134 C131 1.382 . S
C134 C135 1.387 . S
C134 H160 0.930 . S
C135 C133 1.381 . S
C135 C134 1.387 . S
C135 H161 0.931 . S
C136 C133 1.487 . S
C136 C143 1.399 . S
C136 N174 1.343 . S
C137 C138 1.384 . S
C137 C139 1.384 . S
C137 H162 0.931 . S
C138 C137 1.384 . S
C138 C141 1.382 . S
C139 C137 1.384 . S
C139 C140 1.381 . S
C139 H163 0.930 . S
C140 C139 1.381 . S
C140 C142 1.381 . S
C140 C143 1.487 . S
C141 C138 1.382 . S
C141 C142 1.387 . S
C141 H164 0.930 . S
C142 C140 1.381 . S
C142 C141 1.387 . S
C142 H165 0.931 . S
C143 C136 1.399 . S
C143 C140 1.487 . S
C143 N175 1.343 . S
C144 C145 1.384 . S
C144 C146 1.384 . S
C144 H166 0.931 . S
C145 C144 1.384 . S
C145 C148 1.382 . S
C146 C144 1.384 . S
C146 C147 1.381 . S
C146 H167 0.930 . S
C147 C146 1.381 . S
C147 C149 1.381 . S
C147 C150 1.487 . S
C148 C145 1.382 . S
C148 C149 1.387 . S
C148 H168 0.930 . S
C149 C147 1.381 . S
C149 C148 1.387 . S
C149 H169 0.931 . S
C150 C147 1.487 . S
C150 C157 1.399 . S
C150 N175 1.343 . S
C151 C152 1.384 . S
C151 C153 1.384 . S
C151 H170 0.931 . S
C152 C151 1.384 . S
C152 C155 1.382 . S
C153 C151 1.384 . S
C153 C154 1.381 . S
C153 H171 0.930 . S
C154 C153 1.381 . S
C154 C156 1.381 . S
C154 C157 1.487 . S
C155 C152 1.382 . S
C155 C156 1.387 . S
C155 H172 0.930 . S
C156 C154 1.381 . S
C156 C155 1.387 . S
C156 H173 0.931 . S
C157 C150 1.399 . S
C157 C154 1.487 . S
C157 N174 1.343 . S
H158 C130 0.931 . S
H159 C132 0.930 . S
H160 C134 0.930 . S
H161 C135 0.931 . S
H162 C137 0.931 . S
H163 C139 0.930 . S
H164 C141 0.930 . S
H165 C142 0.931 . S
H166 C144 0.931 . S
H167 C146 0.930 . S
H168 C148 0.930 . S
H169 C149 0.931 . S
H170 C151 0.931 . S
H171 C153 0.930 . S
H172 C155 0.930 . S
H173 C156 0.931 . S
N174 C136 1.343 . S
N174 C157 1.343 . S
N175 C143 1.343 . S
N175 C150 1.343 . S
C176 C177 1.384 . S
C176 C178 1.384 . S
C176 H204 0.931 . S
C177 C176 1.384 . S
C177 C180 1.382 . S
C178 C176 1.384 . S
C178 C179 1.381 . S
C178 H205 0.930 . S
C179 C178 1.381 . S
C179 C181 1.381 . S
C179 C182 1.487 . S
C180 C177 1.382 . S
C180 C181 1.387 . S
C180 H206 0.930 . S
C181 C179 1.381 . S
C181 C180 1.387 . S
C181 H207 0.931 . S
C182 C179 1.487 . S
C182 C189 1.399 . S
C182 N220 1.343 . S
C183 C184 1.384 . S
C183 C185 1.384 . S
C183 H208 0.931 . S
C184 C183 1.384 . S
C184 C187 1.382 . S
C185 C183 1.384 . S
C185 C186 1.381 . S
C185 H209 0.930 . S
C186 C185 1.381 . S
C186 C188 1.381 . S
C186 C189 1.487 . S
C187 C184 1.382 . S
C187 C188 1.387 . S
C187 H210 0.930 . S
C188 C186 1.381 . S
C188 C187 1.387 . S
C188 H211 0.931 . S
C189 C182 1.399 . S
C189 C186 1.487 . S
C189 N221 1.343 . S
C190 C191 1.384 . S
C190 C192 1.384 . S
C190 H212 0.931 . S
C191 C190 1.384 . S
C191 C194 1.382 . S
C192 C190 1.384 . S
C192 C193 1.381 . S
C192 H213 0.930 . S
C193 C192 1.381 . S
C193 C195 1.381 . S
C193 C196 1.487 . S
C194 C191 1.382 . S
C194 C195 1.387 . S
C194 H214 0.930 . S
C195 C193 1.381 . S
C195 C194 1.387 . S
C195 H215 0.931 . S
C196 C193 1.487 . S
C196 C203 1.399 . S
C196 N221 1.343 . S
C197 C198 1.384 . S
C197 C199 1.384 . S
C197 H216 0.931 . S
C198 C197 1.384 . S
C198 C201 1.382 . S
C199 C197 1.384 . S
C199 C200 1.381 . S
C199 H217 0.930 . S
C200 C199 1.381 . S
C200 C202 1.381 . S
C200 C203 1.487 . S
C201 C198 1.382 . S
C201 C202 1.387 . S
C201 H218 0.930 . S
C202 C200 1.381 . S
C202 C201 1.387 . S
C202 H219 0.931 . S
C203 C196 1.399 . S
C203 C200 1.487 . S
C203 N220 1.343 . S
H204 C176 0.931 . S
H205 C178 0.930 . S
H206 C180 0.930 . S
H207 C181 0.931 . S
H208 C183 0.931 . S
H209 C185 0.930 . S
H210 C187 0.930 . S
H211 C188 0.931 . S
H212 C190 0.931 . S
H213 C192 0.930 . S
H214 C194 0.930 . S
H215 C195 0.931 . S
H216 C197 0.931 . S
H217 C199 0.930 . S
H218 C201 0.930 . S
H219 C202 0.931 . S
N220 C182 1.343 . S
N220 C203 1.343 . S
N221 C189 1.343 . S
N221 C196 1.343 . S
C222 C223 1.384 . S
C222 C224 1.384 . S
C222 H250 0.931 . S
C223 C222 1.384 . S
C223 C226 1.382 . S
C224 C222 1.384 . S
C224 C225 1.381 . S
C224 H251 0.930 . S
C225 C224 1.381 . S
C225 C227 1.381 . S
C225 C228 1.487 . S
C226 C223 1.382 . S
C226 C227 1.387 . S
C226 H252 0.930 . S
C227 C225 1.381 . S
C227 C226 1.387 . S
C227 H253 0.931 . S
C228 C225 1.487 . S
C228 C235 1.399 . S
C228 N266 1.343 . S
C229 C230 1.384 . S
C229 C231 1.384 . S
C229 H254 0.931 . S
C230 C229 1.384 . S
C230 C233 1.382 . S
C231 C229 1.384 . S
C231 C232 1.381 . S
C231 H255 0.930 . S
C232 C231 1.381 . S
C232 C234 1.381 . S
C232 C235 1.487 . S
C233 C230 1.382 . S
C233 C234 1.387 . S
C233 H256 0.930 . S
C234 C232 1.381 . S
C234 C233 1.387 . S
C234 H257 0.931 . S
C235 C228 1.399 . S
C235 C232 1.487 . S
C235 N267 1.343 . S
C236 C237 1.384 . S
C236 C238 1.384 . S
C236 H258 0.931 . S
C237 C236 1.384 . S
C237 C240 1.382 . S
C238 C236 1.384 . S
C238 C239 1.381 . S
C238 H259 0.930 . S
C239 C238 1.381 . S
C239 C241 1.381 . S
C239 C242 1.487 . S
C240 C237 1.382 . S
C240 C241 1.387 . S
C240 H260 0.930 . S
C241 C239 1.381 . S
C241 C240 1.387 . S
C241 H261 0.931 . S
C242 C239 1.487 . S
C242 C249 1.399 . S
C242 N267 1.343 . S
C243 C244 1.384 . S
C243 C245 1.384 . S
C243 H262 0.931 . S
C244 C243 1.384 . S
C244 C247 1.382 . S
C245 C243 1.384 . S
C245 C246 1.381 . S
C245 H263 0.930 . S
C246 C245 1.381 . S
C246 C248 1.381 . S
C246 C249 1.487 . S
C247 C244 1.382 . S
C247 C248 1.387 . S
C247 H264 0.930 . S
C248 C246 1.381 . S
C248 C247 1.387 . S
C248 H265 0.931 . S
C249 C242 1.399 . S
C249 C246 1.487 . S
C249 N266 1.343 . S
H250 C222 0.931 . S
H251 C224 0.930 . S
H252 C226 0.930 . S
H253 C227 0.931 . S
H254 C229 0.931 . S
H255 C231 0.930 . S
H256 C233 0.930 . S
H257 C234 0.931 . S
H258 C236 0.931 . S
H259 C238 0.930 . S
H260 C240 0.930 . S
H261 C241 0.931 . S
H262 C243 0.931 . S
H263 C245 0.930 . S
H264 C247 0.930 . S
H265 C248 0.931 . S
N266 C228 1.343 . S
N266 C249 1.343 . S
N267 C235 1.343 . S
N267 C242 1.343 . S
C268 C269 1.384 . S
C268 C270 1.384 . S
C268 H296 0.931 . S
C269 C268 1.384 . S
C269 C272 1.382 . S
C270 C268 1.384 . S
C270 C271 1.381 . S
C270 H297 0.930 . S
C271 C270 1.381 . S
C271 C273 1.381 . S
C271 C274 1.487 . S
C272 C269 1.382 . S
C272 C273 1.387 . S
C272 H298 0.930 . S
C273 C271 1.381 . S
C273 C272 1.387 . S
C273 H299 0.931 . S
C274 C271 1.487 . S
C274 C281 1.399 . S
C274 N312 1.343 . S
C275 C276 1.384 . S
C275 C277 1.384 . S
C275 H300 0.931 . S
C276 C275 1.384 . S
C276 C279 1.382 . S
C277 C275 1.384 . S
C277 C278 1.381 . S
C277 H301 0.930 . S
C278 C277 1.381 . S
C278 C280 1.381 . S
C278 C281 1.487 . S
C279 C276 1.382 . S
C279 C280 1.387 . S
C279 H302 0.930 . S
C280 C278 1.381 . S
C280 C279 1.387 . S
C280 H303 0.931 . S
C281 C274 1.399 . S
C281 C278 1.487 . S
C281 N313 1.343 . S
C282 C283 1.384 . S
C282 C284 1.384 . S
C282 H304 0.931 . S
C283 C282 1.384 . S
C283 C286 1.382 . S
C284 C282 1.384 . S
C284 C285 1.381 . S
C284 H305 0.930 . S
C285 C284 1.381 . S
C285 C287 1.381 . S
C285 C288 1.487 . S
C286 C283 1.382 . S
C286 C287 1.387 . S
C286 H306 0.930 . S
C287 C285 1.381 . S
C287 C286 1.387 . S
C287 H307 0.931 . S
C288 C285 1.487 . S
C288 C295 1.399 . S
C288 N313 1.343 . S
C289 C290 1.384 . S
C289 C291 1.384 . S
C289 H308 0.931 . S
C290 C289 1.384 . S
C290 C293 1.382 . S
C291 C289 1.384 . S
C291 C292 1.381 . S
C291 H309 0.930 . S
C292 C291 1.381 . S
C292 C294 1.381 . S
C292 C295 1.487 . S
C293 C290 1.382 . S
C293 C294 1.387 . S
C293 H310 0.930 . S
C294 C292 1.381 . S
C294 C293 1.387 . S
C294 H311 0.931 . S
C295 C288 1.399 . S
C295 C292 1.487 . S
C295 N312 1.343 . S
H296 C268 0.931 . S
H297 C270 0.930 . S
H298 C272 0.930 . S
H299 C273 0.931 . S
H300 C275 0.931 . S
H301 C277 0.930 . S
H302 C279 0.930 . S
H303 C280 0.931 . S
H304 C282 0.931 . S
H305 C284 0.930 . S
H306 C286 0.930 . S
H307 C287 0.931 . S
H308 C289 0.931 . S
H309 C291 0.930 . S
H310 C293 0.930 . S
H311 C294 0.931 . S
N312 C274 1.343 . S
N312 C295 1.343 . S
N313 C281 1.343 . S
N313 C288 1.343 . S
C314 C315 1.384 . S
C314 C316 1.384 . S
C314 H342 0.931 . S
C315 C314 1.384 . S
C315 C318 1.382 . S
C316 C314 1.384 . S
C316 C317 1.381 . S
C316 H343 0.930 . S
C317 C316 1.381 . S
C317 C319 1.381 . S
C317 C320 1.487 . S
C318 C315 1.382 . S
C318 C319 1.387 . S
C318 H344 0.930 . S
C319 C317 1.381 . S
C319 C318 1.387 . S
C319 H345 0.931 . S
C320 C317 1.487 . S
C320 C327 1.399 . S
C320 N358 1.343 . S
C321 C322 1.384 . S
C321 C323 1.384 . S
C321 H346 0.931 . S
C322 C321 1.384 . S
C322 C325 1.382 . S
C323 C321 1.384 . S
C323 C324 1.381 . S
C323 H347 0.930 . S
C324 C323 1.381 . S
C324 C326 1.381 . S
C324 C327 1.487 . S
C325 C322 1.382 . S
C325 C326 1.387 . S
C325 H348 0.930 . S
C326 C324 1.381 . S
C326 C325 1.387 . S
C326 H349 0.931 . S
C327 C320 1.399 . S
C327 C324 1.487 . S
C327 N359 1.343 . S
C328 C329 1.384 . S
C328 C330 1.384 . S
C328 H350 0.931 . S
C329 C328 1.384 . S
C329 C332 1.382 . S
C330 C328 1.384 . S
C330 C331 1.381 . S
C330 H351 0.930 . S
C331 C330 1.381 . S
C331 C333 1.381 . S
C331 C334 1.487 . S
C332 C329 1.382 . S
C332 C333 1.387 . S
C332 H352 0.930 . S
C333 C331 1.381 . S
C333 C332 1.387 . S
C333 H353 0.931 . S
C334 C331 1.487 . S
C334 C341 1.399 . S
C334 N359 1.343 . S
C335 C336 1.384 . S
C335 C337 1.384 . S
C335 H354 0.931 . S
C336 C335 1.384 . S
C336 C339 1.382 . S
C337 C335 1.384 . S
C337 C338 1.381 . S
C337 H355 0.930 . S
C338 C337 1.381 . S
C338 C340 1.381 . S
C338 C341 1.487 . S
C339 C336 1.382 . S
C339 C340 1.387 . S
C339 H356 0.930 . S
C340 C338 1.381 . S
C340 C339 1.387 . S
C340 H357 0.931 . S
C341 C334 1.399 . S
C341 C338 1.487 . S
C341 N358 1.343 . S
H342 C314 0.931 . S
H343 C316 0.930 . S
H344 C318 0.930 . S
H345 C319 0.931 . S
H346 C321 0.931 . S
H347 C323 0.930 . S
H348 C325 0.930 . S
H349 C326 0.931 . S
H350 C328 0.931 . S
H351 C330 0.930 . S
H352 C332 0.930 . S
H353 C333 0.931 . S
H354 C335 0.931 . S
H355 C337 0.930 . S
H356 C339 0.930 . S
H357 C340 0.931 . S
N358 C320 1.343 . S
N358 C341 1.343 . S
N359 C327 1.343 . S
N359 C334 1.343 . S
H360 C368 0.929 . S
H361 C370 0.930 . S
H362 C372 0.930 . S
H363 C375 0.929 . S
H364 C378 0.930 . S
H365 C380 0.960 . S
H366 C380 0.960 . S
H367 C380 0.960 . S
C368 H360 0.929 . S
C368 C369 1.377 . S
C368 C370 1.384 . S
C369 C368 1.377 . S
C369 C375 1.390 . S
C370 H361 0.930 . S
C370 C368 1.384 . S
C370 C371 1.372 . S
C371 C370 1.372 . S
C371 C372 1.400 . S
C371 C376 1.490 . S
C372 H362 0.930 . S
C372 C371 1.400 . S
C372 C375 1.386 . S
H373 C389 0.930 . S
H374 C390 0.931 . S
C375 H363 0.929 . S
C375 C369 1.390 . S
C375 C372 1.386 . S
C376 C371 1.490 . S
C376 C378 1.395 . S
C376 C379 1.403 . S
H377 C383 0.930 . S
C378 H364 0.930 . S
C378 C376 1.395 . S
C378 C381 1.403 . S
C379 C376 1.403 . S
C379 C380 1.524 . S
C379 C383 1.400 . S
C380 H365 0.960 . S
C380 H366 0.960 . S
C380 H367 0.960 . S
C380 C379 1.524 . S
C381 C378 1.403 . S
C381 C382 1.392 . S
C381 C385 1.495 . S
C382 C381 1.392 . S
C382 C383 1.385 . S
C382 C384 1.478 . S
C383 H377 0.930 . S
C383 C379 1.400 . S
C383 C382 1.385 . S
C384 C382 1.478 . S
C384 C386 1.381 . S
C384 C390 1.383 . S
C385 C381 1.495 . S
C385 H391 0.959 . S
C385 H392 0.961 . S
C385 H393 0.960 . S
C386 C384 1.381 . S
C386 C387 1.394 . S
C386 H394 0.930 . S
C387 C386 1.394 . S
C387 C388 1.383 . S
C387 H395 0.929 . S
C388 C387 1.383 . S
C388 C389 1.377 . S
C389 H373 0.930 . S
C389 C388 1.377 . S
C389 C390 1.379 . S
C390 H374 0.931 . S
C390 C384 1.383 . S
C390 C389 1.379 . S
H391 C385 0.959 . S
H392 C385 0.961 . S
H393 C385 0.960 . S
H394 C386 0.930 . S
H395 C387 0.929 . S
H396 C404 0.929 . S
H397 C406 0.930 . S
H398 C408 0.930 . S
H399 C411 0.929 . S
H400 C414 0.930 . S
H401 C416 0.960 . S
H402 C416 0.960 . S
H403 C416 0.960 . S
C404 H396 0.929 . S
C404 C405 1.377 . S
C404 C406 1.384 . S
C405 C404 1.377 . S
C405 C411 1.390 . S
C406 H397 0.930 . S
C406 C404 1.384 . S
C406 C407 1.372 . S
C407 C406 1.372 . S
C407 C408 1.400 . S
C407 C412 1.490 . S
C408 H398 0.930 . S
C408 C407 1.400 . S
C408 C411 1.386 . S
H409 C425 0.930 . S
H410 C426 0.931 . S
C411 H399 0.929 . S
C411 C405 1.390 . S
C411 C408 1.386 . S
C412 C407 1.490 . S
C412 C414 1.395 . S
C412 C415 1.403 . S
H413 C419 0.930 . S
C414 H400 0.930 . S
C414 C412 1.395 . S
C414 C417 1.403 . S
C415 C412 1.403 . S
C415 C416 1.524 . S
C415 C419 1.400 . S
C416 H401 0.960 . S
C416 H402 0.960 . S
C416 H403 0.960 . S
C416 C415 1.524 . S
C417 C414 1.403 . S
C417 C418 1.392 . S
C417 C421 1.495 . S
C418 C417 1.392 . S
C418 C419 1.385 . S
C418 C420 1.478 . S
C419 H413 0.930 . S
C419 C415 1.400 . S
C419 C418 1.385 . S
C420 C418 1.478 . S
C420 C422 1.381 . S
C420 C426 1.383 . S
C421 C417 1.495 . S
C421 H427 0.959 . S
C421 H428 0.961 . S
C421 H429 0.960 . S
C422 C420 1.381 . S
C422 C423 1.394 . S
C422 H430 0.930 . S
C423 C422 1.394 . S
C423 C424 1.383 . S
C423 H431 0.929 . S
C424 C423 1.383 . S
C424 C425 1.377 . S
C425 H409 0.930 . S
C425 C424 1.377 . S
C425 C426 1.379 . S
C426 H410 0.931 . S
C426 C420 1.383 . S
C426 C425 1.379 . S
H427 C421 0.959 . S
H428 C421 0.961 . S
H429 C421 0.960 . S
H430 C422 0.930 . S
H431 C423 0.929 . S
H432 C440 0.929 . S
H433 C442 0.930 . S
H434 C444 0.930 . S
H435 C447 0.929 . S
H436 C450 0.930 . S
H437 C452 0.960 . S
H438 C452 0.960 . S
H439 C452 0.960 . S
C440 H432 0.929 . S
C440 C441 1.377 . S
C440 C442 1.384 . S
C441 C440 1.377 . S
C441 C447 1.390 . S
C442 H433 0.930 . S
C442 C440 1.384 . S
C442 C443 1.372 . S
C443 C442 1.372 . S
C443 C444 1.400 . S
C443 C448 1.490 . S
C444 H434 0.930 . S
C444 C443 1.400 . S
C444 C447 1.386 . S
H445 C461 0.930 . S
H446 C462 0.931 . S
C447 H435 0.929 . S
C447 C441 1.390 . S
C447 C444 1.386 . S
C448 C443 1.490 . S
C448 C450 1.395 . S
C448 C451 1.403 . S
H449 C455 0.930 . S
C450 H436 0.930 . S
C450 C448 1.395 . S
C450 C453 1.403 . S
C451 C448 1.403 . S
C451 C452 1.524 . S
C451 C455 1.400 . S
C452 H437 0.960 . S
C452 H438 0.960 . S
C452 H439 0.960 . S
C452 C451 1.524 . S
C453 C450 1.403 . S
C453 C454 1.392 . S
C453 C457 1.495 . S
C454 C453 1.392 . S
C454 C455 1.385 . S
C454 C456 1.478 . S
C455 H449 0.930 . S
C455 C451 1.400 . S
C455 C454 1.385 . S
C456 C454 1.478 . S
C456 C458 1.381 . S
C456 C462 1.383 . S
C457 C453 1.495 . S
C457 H463 0.959 . S
C457 H464 0.961 . S
C457 H465 0.960 . S
C458 C456 1.381 . S
C458 C459 1.394 . S
C458 H466 0.930 . S
C459 C458 1.394 . S
C459 C460 1.383 . S
C459 H467 0.929 . S
C460 C459 1.383 . S
C460 C461 1.377 . S
C461 H445 0.930 . S
C461 C460 1.377 . S
C461 C462 1.379 . S
C462 H446 0.931 . S
C462 C456 1.383 . S
C462 C461 1.379 . S
H463 C457 0.959 . S
H464 C457 0.961 . S
H465 C457 0.960 . S
H466 C458 0.930 . S
H467 C459 0.929 . S
H468 C476 0.929 . S
H469 C478 0.930 . S
H470 C480 0.930 . S
H471 C483 0.929 . S
H472 C486 0.930 . S
H473 C488 0.960 . S
H474 C488 0.960 . S
H475 C488 0.960 . S
C476 H468 0.929 . S
C476 C477 1.377 . S
C476 C478 1.384 . S
C477 C476 1.377 . S
C477 C483 1.390 . S
C478 H469 0.930 . S
C478 C476 1.384 . S
C478 C479 1.372 . S
C479 C478 1.372 . S
C479 C480 1.400 . S
C479 C484 1.490 . S
C480 H470 0.930 . S
C480 C479 1.400 . S
C480 C483 1.386 . S
H481 C497 0.930 . S
H482 C498 0.931 . S
C483 H471 0.929 . S
C483 C477 1.390 . S
C483 C480 1.386 . S
C484 C479 1.490 . S
C484 C486 1.395 . S
C484 C487 1.403 . S
H485 C491 0.930 . S
C486 H472 0.930 . S
C486 C484 1.395 . S
C486 C489 1.403 . S
C487 C484 1.403 . S
C487 C488 1.524 . S
C487 C491 1.400 . S
C488 H473 0.960 . S
C488 H474 0.960 . S
C488 H475 0.960 . S
C488 C487 1.524 . S
C489 C486 1.403 . S
C489 C490 1.392 . S
C489 C493 1.495 . S
C490 C489 1.392 . S
C490 C491 1.385 . S
C490 C492 1.478 . S
C491 H485 0.930 . S
C491 C487 1.400 . S
C491 C490 1.385 . S
C492 C490 1.478 . S
C492 C494 1.381 . S
C492 C498 1.383 . S
C493 C489 1.495 . S
C493 H499 0.959 . S
C493 H500 0.961 . S
C493 H501 0.960 . S
C494 C492 1.381 . S
C494 C495 1.394 . S
C494 H502 0.930 . S
C495 C494 1.394 . S
C495 C496 1.383 . S
C495 H503 0.929 . S
C496 C495 1.383 . S
C496 C497 1.377 . S
C497 H481 0.930 . S
C497 C496 1.377 . S
C497 C498 1.379 . S
C498 H482 0.931 . S
C498 C492 1.383 . S
C498 C497 1.379 . S
H499 C493 0.959 . S
H500 C493 0.961 . S
H501 C493 0.960 . S
H502 C494 0.930 . S
H503 C495 0.929 . S
H504 C512 0.929 . S
H505 C514 0.930 . S
H506 C516 0.930 . S
H507 C519 0.929 . S
H508 C522 0.930 . S
H509 C524 0.960 . S
H510 C524 0.960 . S
H511 C524 0.960 . S
C512 H504 0.929 . S
C512 C513 1.377 . S
C512 C514 1.384 . S
C513 C512 1.377 . S
C513 C519 1.390 . S
C514 H505 0.930 . S
C514 C512 1.384 . S
C514 C515 1.372 . S
C515 C514 1.372 . S
C515 C516 1.400 . S
C515 C520 1.490 . S
C516 H506 0.930 . S
C516 C515 1.400 . S
C516 C519 1.386 . S
H517 C533 0.930 . S
H518 C534 0.931 . S
C519 H507 0.929 . S
C519 C513 1.390 . S
C519 C516 1.386 . S
C520 C515 1.490 . S
C520 C522 1.395 . S
C520 C523 1.403 . S
H521 C527 0.930 . S
C522 H508 0.930 . S
C522 C520 1.395 . S
C522 C525 1.403 . S
C523 C520 1.403 . S
C523 C524 1.524 . S
C523 C527 1.400 . S
C524 H509 0.960 . S
C524 H510 0.960 . S
C524 H511 0.960 . S
C524 C523 1.524 . S
C525 C522 1.403 . S
C525 C526 1.392 . S
C525 C529 1.495 . S
C526 C525 1.392 . S
C526 C527 1.385 . S
C526 C528 1.478 . S
C527 H521 0.930 . S
C527 C523 1.400 . S
C527 C526 1.385 . S
C528 C526 1.478 . S
C528 C530 1.381 . S
C528 C534 1.383 . S
C529 C525 1.495 . S
C529 H535 0.959 . S
C529 H536 0.961 . S
C529 H537 0.960 . S
C530 C528 1.381 . S
C530 C531 1.394 . S
C530 H538 0.930 . S
C531 C530 1.394 . S
C531 C532 1.383 . S
C531 H539 0.929 . S
C532 C531 1.383 . S
C532 C533 1.377 . S
C533 H517 0.930 . S
C533 C532 1.377 . S
C533 C534 1.379 . S
C534 H518 0.931 . S
C534 C528 1.383 . S
C534 C533 1.379 . S
H535 C529 0.959 . S
H536 C529 0.961 . S
H537 C529 0.960 . S
H538 C530 0.930 . S
H539 C531 0.929 . S
H540 C548 0.929 . S
H541 C550 0.930 . S
H542 C552 0.930 . S
H543 C555 0.929 . S
H544 C558 0.930 . S
H545 C560 0.960 . S
H546 C560 0.960 . S
H547 C560 0.960 . S
C548 H540 0.929 . S
C548 C549 1.377 . S
C548 C550 1.384 . S
C549 C548 1.377 . S
C549 C555 1.390 . S
C550 H541 0.930 . S
C550 C548 1.384 . S
C550 C551 1.372 . S
C551 C550 1.372 . S
C551 C552 1.400 . S
C551 C556 1.490 . S
C552 H542 0.930 . S
C552 C551 1.400 . S
C552 C555 1.386 . S
H553 C569 0.930 . S
H554 C570 0.931 . S
C555 H543 0.929 . S
C555 C549 1.390 . S
C555 C552 1.386 . S
C556 C551 1.490 . S
C556 C558 1.395 . S
C556 C559 1.403 . S
H557 C563 0.930 . S
C558 H544 0.930 . S
C558 C556 1.395 . S
C558 C561 1.403 . S
C559 C556 1.403 . S
C559 C560 1.524 . S
C559 C563 1.400 . S
C560 H545 0.960 . S
C560 H546 0.960 . S
C560 H547 0.960 . S
C560 C559 1.524 . S
C561 C558 1.403 . S
C561 C562 1.392 . S
C561 C565 1.495 . S
C562 C561 1.392 . S
C562 C563 1.385 . S
C562 C564 1.478 . S
C563 H557 0.930 . S
C563 C559 1.400 . S
C563 C562 1.385 . S
C564 C562 1.478 . S
C564 C566 1.381 . S
C564 C570 1.383 . S
C565 C561 1.495 . S
C565 H571 0.959 . S
C565 H572 0.961 . S
C565 H573 0.960 . S
C566 C564 1.381 . S
C566 C567 1.394 . S
C566 H574 0.930 . S
C567 C566 1.394 . S
C567 C568 1.383 . S
C567 H575 0.929 . S
C568 C567 1.383 . S
C568 C569 1.377 . S
C569 H553 0.930 . S
C569 C568 1.377 . S
C569 C570 1.379 . S
C570 H554 0.931 . S
C570 C564 1.383 . S
C570 C569 1.379 . S
H571 C565 0.959 . S
H572 C565 0.961 . S
H573 C565 0.960 . S
H574 C566 0.930 . S
H575 C567 0.929 . S
H576 C584 0.929 . S
H577 C586 0.930 . S
H578 C588 0.930 . S
H579 C591 0.929 . S
H580 C594 0.930 . S
H581 C596 0.960 . S
H582 C596 0.960 . S
H583 C596 0.960 . S
C584 H576 0.929 . S
C584 C585 1.377 . S
C584 C586 1.384 . S
C585 C584 1.377 . S
C585 C591 1.390 . S
C586 H577 0.930 . S
C586 C584 1.384 . S
C586 C587 1.372 . S
C587 C586 1.372 . S
C587 C588 1.400 . S
C587 C592 1.490 . S
C588 H578 0.930 . S
C588 C587 1.400 . S
C588 C591 1.386 . S
H589 C605 0.930 . S
H590 C606 0.931 . S
C591 H579 0.929 . S
C591 C585 1.390 . S
C591 C588 1.386 . S
C592 C587 1.490 . S
C592 C594 1.395 . S
C592 C595 1.403 . S
H593 C599 0.930 . S
C594 H580 0.930 . S
C594 C592 1.395 . S
C594 C597 1.403 . S
C595 C592 1.403 . S
C595 C596 1.524 . S
C595 C599 1.400 . S
C596 H581 0.960 . S
C596 H582 0.960 . S
C596 H583 0.960 . S
C596 C595 1.524 . S
C597 C594 1.403 . S
C597 C598 1.392 . S
C597 C601 1.495 . S
C598 C597 1.392 . S
C598 C599 1.385 . S
C598 C600 1.478 . S
C599 H593 0.930 . S
C599 C595 1.400 . S
C599 C598 1.385 . S
C600 C598 1.478 . S
C600 C602 1.381 . S
C600 C606 1.383 . S
C601 C597 1.495 . S
C601 H607 0.959 . S
C601 H608 0.961 . S
C601 H609 0.960 . S
C602 C600 1.381 . S
C602 C603 1.394 . S
C602 H610 0.930 . S
C603 C602 1.394 . S
C603 C604 1.383 . S
C603 H611 0.929 . S
C604 C603 1.383 . S
C604 C605 1.377 . S
C605 H589 0.930 . S
C605 C604 1.377 . S
C605 C606 1.379 . S
C606 H590 0.931 . S
C606 C600 1.383 . S
C606 C605 1.379 . S
H607 C601 0.959 . S
H608 C601 0.961 . S
H609 C601 0.960 . S
H610 C602 0.930 . S
H611 C603 0.929 . S
H612 C620 0.929 . S
H613 C622 0.930 . S
H614 C624 0.930 . S
H615 C627 0.929 . S
H616 C630 0.930 . S
H617 C632 0.960 . S
H618 C632 0.960 . S
H619 C632 0.960 . S
C620 H612 0.929 . S
C620 C621 1.377 . S
C620 C622 1.384 . S
C621 C620 1.377 . S
C621 C627 1.390 . S
C622 H613 0.930 . S
C622 C620 1.384 . S
C622 C623 1.372 . S
C623 C622 1.372 . S
C623 C624 1.400 . S
C623 C628 1.490 . S
C624 H614 0.930 . S
C624 C623 1.400 . S
C624 C627 1.386 . S
H625 C641 0.930 . S
H626 C642 0.931 . S
C627 H615 0.929 . S
C627 C621 1.390 . S
C627 C624 1.386 . S
C628 C623 1.490 . S
C628 C630 1.395 . S
C628 C631 1.403 . S
H629 C635 0.930 . S
C630 H616 0.930 . S
C630 C628 1.395 . S
C630 C633 1.403 . S
C631 C628 1.403 . S
C631 C632 1.524 . S
C631 C635 1.400 . S
C632 H617 0.960 . S
C632 H618 0.960 . S
C632 H619 0.960 . S
C632 C631 1.524 . S
C633 C630 1.403 . S
C633 C634 1.392 . S
C633 C637 1.495 . S
C634 C633 1.392 . S
C634 C635 1.385 . S
C634 C636 1.478 . S
C635 H629 0.930 . S
C635 C631 1.400 . S
C635 C634 1.385 . S
C636 C634 1.478 . S
C636 C638 1.381 . S
C636 C642 1.383 . S
C637 C633 1.495 . S
C637 H643 0.959 . S
C637 H644 0.961 . S
C637 H645 0.960 . S
C638 C636 1.381 . S
C638 C639 1.394 . S
C638 H646 0.930 . S
C639 C638 1.394 . S
C639 C640 1.383 . S
C639 H647 0.929 . S
C640 C639 1.383 . S
C640 C641 1.377 . S
C641 H625 0.930 . S
C641 C640 1.377 . S
C641 C642 1.379 . S
C642 H626 0.931 . S
C642 C636 1.383 . S
C642 C641 1.379 . S
H643 C637 0.959 . S
H644 C637 0.961 . S
H645 C637 0.960 . S
H646 C638 0.930 . S
H647 C639 0.929 . S
H648 C656 0.929 . S
H649 C658 0.930 . S
H650 C660 0.930 . S
H651 C663 0.929 . S
H652 C666 0.930 . S
H653 C668 0.960 . S
H654 C668 0.960 . S
H655 C668 0.960 . S
C656 H648 0.929 . S
C656 C657 1.377 . S
C656 C658 1.384 . S
C657 C656 1.377 . S
C657 C663 1.390 . S
C658 H649 0.930 . S
C658 C656 1.384 . S
C658 C659 1.372 . S
C659 C658 1.372 . S
C659 C660 1.400 . S
C659 C664 1.490 . S
C660 H650 0.930 . S
C660 C659 1.400 . S
C660 C663 1.386 . S
H661 C677 0.930 . S
H662 C678 0.931 . S
C663 H651 0.929 . S
C663 C657 1.390 . S
C663 C660 1.386 . S
C664 C659 1.490 . S
C664 C666 1.395 . S
C664 C667 1.403 . S
H665 C671 0.930 . S
C666 H652 0.930 . S
C666 C664 1.395 . S
C666 C669 1.403 . S
C667 C664 1.403 . S
C667 C668 1.524 . S
C667 C671 1.400 . S
C668 H653 0.960 . S
C668 H654 0.960 . S
C668 H655 0.960 . S
C668 C667 1.524 . S
C669 C666 1.403 . S
C669 C670 1.392 . S
C669 C673 1.495 . S
C670 C669 1.392 . S
C670 C671 1.385 . S
C670 C672 1.478 . S
C671 H665 0.930 . S
C671 C667 1.400 . S
C671 C670 1.385 . S
C672 C670 1.478 . S
C672 C674 1.381 . S
C672 C678 1.383 . S
C673 C669 1.495 . S
C673 H679 0.959 . S
C673 H680 0.961 . S
C673 H681 0.960 . S
C674 C672 1.381 . S
C674 C675 1.394 . S
C674 H682 0.930 . S
C675 C674 1.394 . S
C675 C676 1.383 . S
C675 H683 0.929 . S
C676 C675 1.383 . S
C676 C677 1.377 . S
C677 H661 0.930 . S
C677 C676 1.377 . S
C677 C678 1.379 . S
C678 H662 0.931 . S
C678 C672 1.383 . S
C678 C677 1.379 . S
H679 C673 0.959 . S
H680 C673 0.961 . S
H681 C673 0.960 . S
H682 C674 0.930 . S
H683 C675 0.929 . S
H684 C692 0.929 . S
H685 C694 0.930 . S
H686 C696 0.930 . S
H687 C699 0.929 . S
H688 C702 0.930 . S
H689 C704 0.960 . S
H690 C704 0.960 . S
H691 C704 0.960 . S
C692 H684 0.929 . S
C692 C693 1.377 . S
C692 C694 1.384 . S
C693 C692 1.377 . S
C693 C699 1.390 . S
C694 H685 0.930 . S
C694 C692 1.384 . S
C694 C695 1.372 . S
C695 C694 1.372 . S
C695 C696 1.400 . S
C695 C700 1.490 . S
C696 H686 0.930 . S
C696 C695 1.400 . S
C696 C699 1.386 . S
H697 C713 0.930 . S
H698 C714 0.931 . S
C699 H687 0.929 . S
C699 C693 1.390 . S
C699 C696 1.386 . S
C700 C695 1.490 . S
C700 C702 1.395 . S
C700 C703 1.403 . S
H701 C707 0.930 . S
C702 H688 0.930 . S
C702 C700 1.395 . S
C702 C705 1.403 . S
C703 C700 1.403 . S
C703 C704 1.524 . S
C703 C707 1.400 . S
C704 H689 0.960 . S
C704 H690 0.960 . S
C704 H691 0.960 . S
C704 C703 1.524 . S
C705 C702 1.403 . S
C705 C706 1.392 . S
C705 C709 1.495 . S
C706 C705 1.392 . S
C706 C707 1.385 . S
C706 C708 1.478 . S
C707 H701 0.930 . S
C707 C703 1.400 . S
C707 C706 1.385 . S
C708 C706 1.478 . S
C708 C710 1.381 . S
C708 C714 1.383 . S
C709 C705 1.495 . S
C709 H715 0.959 . S
C709 H716 0.961 . S
C709 H717 0.960 . S
C710 C708 1.381 . S
C710 C711 1.394 . S
C710 H718 0.930 . S
C711 C710 1.394 . S
C711 C712 1.383 . S
C711 H719 0.929 . S
C712 C711 1.383 . S
C712 C713 1.377 . S
C713 H697 0.930 . S
C713 C712 1.377 . S
C713 C714 1.379 . S
C714 H698 0.931 . S
C714 C708 1.383 . S
C714 C713 1.379 . S
H715 C709 0.959 . S
H716 C709 0.961 . S
H717 C709 0.960 . S
H718 C710 0.930 . S
H719 C711 0.929 . S
H720 C728 0.929 . S
H721 C730 0.930 . S
H722 C732 0.930 . S
H723 C735 0.929 . S
H724 C738 0.930 . S
H725 C740 0.960 . S
H726 C740 0.960 . S
H727 C740 0.960 . S
C728 H720 0.929 . S
C728 C729 1.377 . S
C728 C730 1.384 . S
C729 C728 1.377 . S
C729 C735 1.390 . S
C730 H721 0.930 . S
C730 C728 1.384 . S
C730 C731 1.372 . S
C731 C730 1.372 . S
C731 C732 1.400 . S
C731 C736 1.490 . S
C732 H722 0.930 . S
C732 C731 1.400 . S
C732 C735 1.386 . S
H733 C749 0.930 . S
H734 C750 0.931 . S
C735 H723 0.929 . S
C735 C729 1.390 . S
C735 C732 1.386 . S
C736 C731 1.490 . S
C736 C738 1.395 . S
C736 C739 1.403 . S
H737 C743 0.930 . S
C738 H724 0.930 . S
C738 C736 1.395 . S
C738 C741 1.403 . S
C739 C736 1.403 . S
C739 C740 1.524 . S
C739 C743 1.400 . S
C740 H725 0.960 . S
C740 H726 0.960 . S
C740 H727 0.960 . S
C740 C739 1.524 . S
C741 C738 1.403 . S
C741 C742 1.392 . S
C741 C745 1.495 . S
C742 C741 1.392 . S
C742 C743 1.385 . S
C742 C744 1.478 . S
C743 H737 0.930 . S
C743 C739 1.400 . S
C743 C742 1.385 . S
C744 C742 1.478 . S
C744 C746 1.381 . S
C744 C750 1.383 . S
C745 C741 1.495 . S
C745 H751 0.959 . S
C745 H752 0.961 . S
C745 H753 0.960 . S
C746 C744 1.381 . S
C746 C747 1.394 . S
C746 H754 0.930 . S
C747 C746 1.394 . S
C747 C748 1.383 . S
C747 H755 0.929 . S
C748 C747 1.383 . S
C748 C749 1.377 . S
C749 H733 0.930 . S
C749 C748 1.377 . S
C749 C750 1.379 . S
C750 H734 0.931 . S
C750 C744 1.383 . S
C750 C749 1.379 . S
H751 C745 0.959 . S
H752 C745 0.961 . S
H753 C745 0.960 . S
H754 C746 0.930 . S
H755 C747 0.929 . S
H756 C764 0.929 . S
H757 C766 0.930 . S
H758 C768 0.930 . S
H759 C771 0.929 . S
H760 C774 0.930 . S
H761 C776 0.960 . S
H762 C776 0.960 . S
H763 C776 0.960 . S
C764 H756 0.929 . S
C764 C765 1.377 . S
C764 C766 1.384 . S
C765 C764 1.377 . S
C765 C771 1.390 . S
C766 H757 0.930 . S
C766 C764 1.384 . S
C766 C767 1.372 . S
C767 C766 1.372 . S
C767 C768 1.400 . S
C767 C772 1.490 . S
C768 H758 0.930 . S
C768 C767 1.400 . S
C768 C771 1.386 . S
H769 C785 0.930 . S
H770 C786 0.931 . S
C771 H759 0.929 . S
C771 C765 1.390 . S
C771 C768 1.386 . S
C772 C767 1.490 . S
C772 C774 1.395 . S
C772 C775 1.403 . S
H773 C779 0.930 . S
C774 H760 0.930 . S
C774 C772 1.395 . S
C774 C777 1.403 . S
C775 C772 1.403 . S
C775 C776 1.524 . S
C775 C779 1.400 . S
C776 H761 0.960 . S
C776 H762 0.960 . S
C776 H763 0.960 . S
C776 C775 1.524 . S
C777 C774 1.403 . S
C777 C778 1.392 . S
C777 C781 1.495 . S
C778 C777 1.392 . S
C778 C779 1.385 . S
C778 C780 1.478 . S
C779 H773 0.930 . S
C779 C775 1.400 . S
C779 C778 1.385 . S
C780 C778 1.478 . S
C780 C782 1.381 . S
C780 C786 1.383 . S
C781 C777 1.495 . S
C781 H787 0.959 . S
C781 H788 0.961 . S
C781 H789 0.960 . S
C782 C780 1.381 . S
C782 C783 1.394 . S
C782 H790 0.930 . S
C783 C782 1.394 . S
C783 C784 1.383 . S
C783 H791 0.929 . S
C784 C783 1.383 . S
C784 C785 1.377 . S
C785 H769 0.930 . S
C785 C784 1.377 . S
C785 C786 1.379 . S
C786 H770 0.931 . S
C786 C780 1.383 . S
C786 C785 1.379 . S
H787 C781 0.959 . S
H788 C781 0.961 . S
H789 C781 0.960 . S
H790 C782 0.930 . S
H791 C783 0.929 . S
H792 C800 0.929 . S
H793 C802 0.930 . S
H794 C804 0.930 . S
H795 C807 0.929 . S
H796 C810 0.930 . S
H797 C812 0.960 . S
H798 C812 0.960 . S
H799 C812 0.960 . S
C800 H792 0.929 . S
C800 C801 1.377 . S
C800 C802 1.384 . S
C801 C800 1.377 . S
C801 C807 1.390 . S
C802 H793 0.930 . S
C802 C800 1.384 . S
C802 C803 1.372 . S
C803 C802 1.372 . S
C803 C804 1.400 . S
C803 C808 1.490 . S
C804 H794 0.930 . S
C804 C803 1.400 . S
C804 C807 1.386 . S
H805 C821 0.930 . S
H806 C822 0.931 . S
C807 H795 0.929 . S
C807 C801 1.390 . S
C807 C804 1.386 . S
C808 C803 1.490 . S
C808 C810 1.395 . S
C808 C811 1.403 . S
H809 C815 0.930 . S
C810 H796 0.930 . S
C810 C808 1.395 . S
C810 C813 1.403 . S
C811 C808 1.403 . S
C811 C812 1.524 . S
C811 C815 1.400 . S
C812 H797 0.960 . S
C812 H798 0.960 . S
C812 H799 0.960 . S
C812 C811 1.524 . S
C813 C810 1.403 . S
C813 C814 1.392 . S
C813 C817 1.495 . S
C814 C813 1.392 . S
C814 C815 1.385 . S
C814 C816 1.478 . S
C815 H809 0.930 . S
C815 C811 1.400 . S
C815 C814 1.385 . S
C816 C814 1.478 . S
C816 C818 1.381 . S
C816 C822 1.383 . S
C817 C813 1.495 . S
C817 H823 0.959 . S
C817 H824 0.961 . S
C817 H825 0.960 . S
C818 C816 1.381 . S
C818 C819 1.394 . S
C818 H826 0.930 . S
C819 C818 1.394 . S
C819 C820 1.383 . S
C819 H827 0.929 . S
C820 C819 1.383 . S
C820 C821 1.377 . S
C821 H805 0.930 . S
C821 C820 1.377 . S
C821 C822 1.379 . S
C822 H806 0.931 . S
C822 C816 1.383 . S
C822 C821 1.379 . S
H823 C817 0.959 . S
H824 C817 0.961 . S
H825 C817 0.960 . S
H826 C818 0.930 . S
H827 C819 0.929 . S
H828 C836 0.929 . S
H829 C838 0.930 . S
H830 C840 0.930 . S
H831 C843 0.929 . S
H832 C846 0.930 . S
H833 C848 0.960 . S
H834 C848 0.960 . S
H835 C848 0.960 . S
C836 H828 0.929 . S
C836 C837 1.377 . S
C836 C838 1.384 . S
C837 C836 1.377 . S
C837 C843 1.390 . S
C838 H829 0.930 . S
C838 C836 1.384 . S
C838 C839 1.372 . S
C839 C838 1.372 . S
C839 C840 1.400 . S
C839 C844 1.490 . S
C840 H830 0.930 . S
C840 C839 1.400 . S
C840 C843 1.386 . S
H841 C857 0.930 . S
H842 C858 0.931 . S
C843 H831 0.929 . S
C843 C837 1.390 . S
C843 C840 1.386 . S
C844 C839 1.490 . S
C844 C846 1.395 . S
C844 C847 1.403 . S
H845 C851 0.930 . S
C846 H832 0.930 . S
C846 C844 1.395 . S
C846 C849 1.403 . S
C847 C844 1.403 . S
C847 C848 1.524 . S
C847 C851 1.400 . S
C848 H833 0.960 . S
C848 H834 0.960 . S
C848 H835 0.960 . S
C848 C847 1.524 . S
C849 C846 1.403 . S
C849 C850 1.392 . S
C849 C853 1.495 . S
C850 C849 1.392 . S
C850 C851 1.385 . S
C850 C852 1.478 . S
C851 H845 0.930 . S
C851 C847 1.400 . S
C851 C850 1.385 . S
C852 C850 1.478 . S
C852 C854 1.381 . S
C852 C858 1.383 . S
C853 C849 1.495 . S
C853 H859 0.959 . S
C853 H860 0.961 . S
C853 H861 0.960 . S
C854 C852 1.381 . S
C854 C855 1.394 . S
C854 H862 0.930 . S
C855 C854 1.394 . S
C855 C856 1.383 . S
C855 H863 0.929 . S
C856 C855 1.383 . S
C856 C857 1.377 . S
C857 H841 0.930 . S
C857 C856 1.377 . S
C857 C858 1.379 . S
C858 H842 0.931 . S
C858 C852 1.383 . S
C858 C857 1.379 . S
H859 C853 0.959 . S
H860 C853 0.961 . S
H861 C853 0.960 . S
H862 C854 0.930 . S
H863 C855 0.929 . S
H864 C872 0.929 . S
H865 C874 0.930 . S
H866 C876 0.930 . S
H867 C879 0.929 . S
H868 C882 0.930 . S
H869 C884 0.960 . S
H870 C884 0.960 . S
H871 C884 0.960 . S
C872 H864 0.929 . S
C872 C873 1.377 . S
C872 C874 1.384 . S
C873 C872 1.377 . S
C873 C879 1.390 . S
C874 H865 0.930 . S
C874 C872 1.384 . S
C874 C875 1.372 . S
C875 C874 1.372 . S
C875 C876 1.400 . S
C875 C880 1.490 . S
C876 H866 0.930 . S
C876 C875 1.400 . S
C876 C879 1.386 . S
H877 C893 0.930 . S
H878 C894 0.931 . S
C879 H867 0.929 . S
C879 C873 1.390 . S
C879 C876 1.386 . S
C880 C875 1.490 . S
C880 C882 1.395 . S
C880 C883 1.403 . S
H881 C887 0.930 . S
C882 H868 0.930 . S
C882 C880 1.395 . S
C882 C885 1.403 . S
C883 C880 1.403 . S
C883 C884 1.524 . S
C883 C887 1.400 . S
C884 H869 0.960 . S
C884 H870 0.960 . S
C884 H871 0.960 . S
C884 C883 1.524 . S
C885 C882 1.403 . S
C885 C886 1.392 . S
C885 C889 1.495 . S
C886 C885 1.392 . S
C886 C887 1.385 . S
C886 C888 1.478 . S
C887 H881 0.930 . S
C887 C883 1.400 . S
C887 C886 1.385 . S
C888 C886 1.478 . S
C888 C890 1.381 . S
C888 C894 1.383 . S
C889 C885 1.495 . S
C889 H895 0.959 . S
C889 H896 0.961 . S
C889 H897 0.960 . S
C890 C888 1.381 . S
C890 C891 1.394 . S
C890 H898 0.930 . S
C891 C890 1.394 . S
C891 C892 1.383 . S
C891 H899 0.929 . S
C892 C891 1.383 . S
C892 C893 1.377 . S
C893 H877 0.930 . S
C893 C892 1.377 . S
C893 C894 1.379 . S
C894 H878 0.931 . S
C894 C888 1.383 . S
C894 C893 1.379 . S
H895 C889 0.959 . S
H896 C889 0.961 . S
H897 C889 0.960 . S
H898 C890 0.930 . S
H899 C891 0.929 . S
H900 C908 0.929 . S
H901 C910 0.930 . S
H902 C912 0.930 . S
H903 C915 0.929 . S
H904 C918 0.930 . S
H905 C920 0.960 . S
H906 C920 0.960 . S
H907 C920 0.960 . S
C908 H900 0.929 . S
C908 C909 1.377 . S
C908 C910 1.384 . S
C909 C908 1.377 . S
C909 C915 1.390 . S
C910 H901 0.930 . S
C910 C908 1.384 . S
C910 C911 1.372 . S
C911 C910 1.372 . S
C911 C912 1.400 . S
C911 C916 1.490 . S
C912 H902 0.930 . S
C912 C911 1.400 . S
C912 C915 1.386 . S
H913 C929 0.930 . S
H914 C930 0.931 . S
C915 H903 0.929 . S
C915 C909 1.390 . S
C915 C912 1.386 . S
C916 C911 1.490 . S
C916 C918 1.395 . S
C916 C919 1.403 . S
H917 C923 0.930 . S
C918 H904 0.930 . S
C918 C916 1.395 . S
C918 C921 1.403 . S
C919 C916 1.403 . S
C919 C920 1.524 . S
C919 C923 1.400 . S
C920 H905 0.960 . S
C920 H906 0.960 . S
C920 H907 0.960 . S
C920 C919 1.524 . S
C921 C918 1.403 . S
C921 C922 1.392 . S
C921 C925 1.495 . S
C922 C921 1.392 . S
C922 C923 1.385 . S
C922 C924 1.478 . S
C923 H917 0.930 . S
C923 C919 1.400 . S
C923 C922 1.385 . S
C924 C922 1.478 . S
C924 C926 1.381 . S
C924 C930 1.383 . S
C925 C921 1.495 . S
C925 H931 0.959 . S
C925 H932 0.961 . S
C925 H933 0.960 . S
C926 C924 1.381 . S
C926 C927 1.394 . S
C926 H934 0.930 . S
C927 C926 1.394 . S
C927 C928 1.383 . S
C927 H935 0.929 . S
C928 C927 1.383 . S
C928 C929 1.377 . S
C929 H913 0.930 . S
C929 C928 1.377 . S
C929 C930 1.379 . S
C930 H914 0.931 . S
C930 C924 1.383 . S
C930 C929 1.379 . S
H931 C925 0.959 . S
H932 C925 0.961 . S
H933 C925 0.960 . S
H934 C926 0.930 . S
H935 C927 0.929 . S
H936 C944 0.929 . S
H937 C946 0.930 . S
H938 C948 0.930 . S
H939 C951 0.929 . S
H940 C954 0.930 . S
H941 C956 0.960 . S
H942 C956 0.960 . S
H943 C956 0.960 . S
C944 H936 0.929 . S
C944 C945 1.377 . S
C944 C946 1.384 . S
C945 C944 1.377 . S
C945 C951 1.390 . S
C946 H937 0.930 . S
C946 C944 1.384 . S
C946 C947 1.372 . S
C947 C946 1.372 . S
C947 C948 1.400 . S
C947 C952 1.490 . S
C948 H938 0.930 . S
C948 C947 1.400 . S
C948 C951 1.386 . S
H949 C965 0.930 . S
H950 C966 0.931 . S
C951 H939 0.929 . S
C951 C945 1.390 . S
C951 C948 1.386 . S
C952 C947 1.490 . S
C952 C954 1.395 . S
C952 C955 1.403 . S
H953 C959 0.930 . S
C954 H940 0.930 . S
C954 C952 1.395 . S
C954 C957 1.403 . S
C955 C952 1.403 . S
C955 C956 1.524 . S
C955 C959 1.400 . S
C956 H941 0.960 . S
C956 H942 0.960 . S
C956 H943 0.960 . S
C956 C955 1.524 . S
C957 C954 1.403 . S
C957 C958 1.392 . S
C957 C961 1.495 . S
C958 C957 1.392 . S
C958 C959 1.385 . S
C958 C960 1.478 . S
C959 H953 0.930 . S
C959 C955 1.400 . S
C959 C958 1.385 . S
C960 C958 1.478 . S
C960 C962 1.381 . S
C960 C966 1.383 . S
C961 C957 1.495 . S
C961 H967 0.959 . S
C961 H968 0.961 . S
C961 H969 0.960 . S
C962 C960 1.381 . S
C962 C963 1.394 . S
C962 H970 0.930 . S
C963 C962 1.394 . S
C963 C964 1.383 . S
C963 H971 0.929 . S
C964 C963 1.383 . S
C964 C965 1.377 . S
C965 H949 0.930 . S
C965 C964 1.377 . S
C965 C966 1.379 . S
C966 H950 0.931 . S
C966 C960 1.383 . S
C966 C965 1.379 . S
H967 C961 0.959 . S
H968 C961 0.961 . S
H969 C961 0.960 . S
H970 C962 0.930 . S
H971 C963 0.929 . S
H972 C980 0.929 . S
H973 C982 0.930 . S
H974 C984 0.930 . S
H975 C987 0.929 . S
H976 C990 0.930 . S
H977 C992 0.960 . S
H978 C992 0.960 . S
H979 C992 0.960 . S
C980 H972 0.929 . S
C980 C981 1.377 . S
C980 C982 1.384 . S
C981 C980 1.377 . S
C981 C987 1.390 . S
C982 H973 0.930 . S
C982 C980 1.384 . S
C982 C983 1.372 . S
C983 C982 1.372 . S
C983 C984 1.400 . S
C983 C988 1.490 . S
C984 H974 0.930 . S
C984 C983 1.400 . S
C984 C987 1.386 . S
H985 C1001 0.930 . S
H986 C1002 0.931 . S
C987 H975 0.929 . S
C987 C981 1.390 . S
C987 C984 1.386 . S
C988 C983 1.490 . S
C988 C990 1.395 . S
C988 C991 1.403 . S
H989 C995 0.930 . S
C990 H976 0.930 . S
C990 C988 1.395 . S
C990 C993 1.403 . S
C991 C988 1.403 . S
C991 C992 1.524 . S
C991 C995 1.400 . S
C992 H977 0.960 . S
C992 H978 0.960 . S
C992 H979 0.960 . S
C992 C991 1.524 . S
C993 C990 1.403 . S
C993 C994 1.392 . S
C993 C997 1.495 . S
C994 C993 1.392 . S
C994 C995 1.385 . S
C994 C996 1.478 . S
C995 H989 0.930 . S
C995 C991 1.400 . S
C995 C994 1.385 . S
C996 C994 1.478 . S
C996 C998 1.381 . S
C996 C1002 1.383 . S
C997 C993 1.495 . S
C997 H1003 0.959 . S
C997 H1004 0.961 . S
C997 H1005 0.960 . S
C998 C996 1.381 . S
C998 C999 1.394 . S
C998 H1006 0.930 . S
C999 C998 1.394 . S
C999 C1000 1.383 . S
C999 H1007 0.929 . S
C1000 C999 1.383 . S
C1000 C1001 1.377 . S
C1001 H985 0.930 . S
C1001 C1000 1.377 . S
C1001 C1002 1.379 . S
C1002 H986 0.931 . S
C1002 C996 1.383 . S
C1002 C1001 1.379 . S
H1003 C997 0.959 . S
H1004 C997 0.961 . S
H1005 C997 0.960 . S
H1006 C998 0.930 . S
H1007 C999 0.929 . S
H1008 C1016 0.929 . S
H1009 C1018 0.930 . S
H1010 C1020 0.930 . S
H1011 C1023 0.929 . S
H1012 C1026 0.930 . S
H1013 C1028 0.960 . S
H1014 C1028 0.960 . S
H1015 C1028 0.960 . S
C1016 H1008 0.929 . S
C1016 C1017 1.377 . S
C1016 C1018 1.384 . S
C1017 C1016 1.377 . S
C1017 C1023 1.390 . S
C1018 H1009 0.930 . S
C1018 C1016 1.384 . S
C1018 C1019 1.372 . S
C1019 C1018 1.372 . S
C1019 C1020 1.400 . S
C1019 C1024 1.490 . S
C1020 H1010 0.930 . S
C1020 C1019 1.400 . S
C1020 C1023 1.386 . S
H1021 C1037 0.930 . S
H1022 C1038 0.931 . S
C1023 H1011 0.929 . S
C1023 C1017 1.390 . S
C1023 C1020 1.386 . S
C1024 C1019 1.490 . S
C1024 C1026 1.395 . S
C1024 C1027 1.403 . S
H1025 C1031 0.930 . S
C1026 H1012 0.930 . S
C1026 C1024 1.395 . S
C1026 C1029 1.403 . S
C1027 C1024 1.403 . S
C1027 C1028 1.524 . S
C1027 C1031 1.400 . S
C1028 H1013 0.960 . S
C1028 H1014 0.960 . S
C1028 H1015 0.960 . S
C1028 C1027 1.524 . S
C1029 C1026 1.403 . S
C1029 C1030 1.392 . S
C1029 C1033 1.495 . S
C1030 C1029 1.392 . S
C1030 C1031 1.385 . S
C1030 C1032 1.478 . S
C1031 H1025 0.930 . S
C1031 C1027 1.400 . S
C1031 C1030 1.385 . S
C1032 C1030 1.478 . S
C1032 C1034 1.381 . S
C1032 C1038 1.383 . S
C1033 C1029 1.495 . S
C1033 H1039 0.959 . S
C1033 H1040 0.961 . S
C1033 H1041 0.960 . S
C1034 C1032 1.381 . S
C1034 C1035 1.394 . S
C1034 H1042 0.930 . S
C1035 C1034 1.394 . S
C1035 C1036 1.383 . S
C1035 H1043 0.929 . S
C1036 C1035 1.383 . S
C1036 C1037 1.377 . S
C1037 H1021 0.930 . S
C1037 C1036 1.377 . S
C1037 C1038 1.379 . S
C1038 H1022 0.931 . S
C1038 C1032 1.383 . S
C1038 C1037 1.379 . S
H1039 C1033 0.959 . S
H1040 C1033 0.961 . S
H1041 C1033 0.960 . S
H1042 C1034 0.930 . S
H1043 C1035 0.929 . S
H1044 C1052 0.929 . S
H1045 C1054 0.930 . S
H1046 C1056 0.930 . S
H1047 C1059 0.929 . S
H1048 C1062 0.930 . S
H1049 C1064 0.960 . S
H1050 C1064 0.960 . S
H1051 C1064 0.960 . S
C1052 H1044 0.929 . S
C1052 C1053 1.377 . S
C1052 C1054 1.384 . S
C1053 C1052 1.377 . S
C1053 C1059 1.390 . S
C1054 H1045 0.930 . S
C1054 C1052 1.384 . S
C1054 C1055 1.372 . S
C1055 C1054 1.372 . S
C1055 C1056 1.400 . S
C1055 C1060 1.490 . S
C1056 H1046 0.930 . S
C1056 C1055 1.400 . S
C1056 C1059 1.386 . S
H1057 C1073 0.930 . S
H1058 C1074 0.931 . S
C1059 H1047 0.929 . S
C1059 C1053 1.390 . S
C1059 C1056 1.386 . S
C1060 C1055 1.490 . S
C1060 C1062 1.395 . S
C1060 C1063 1.403 . S
H1061 C1067 0.930 . S
C1062 H1048 0.930 . S
C1062 C1060 1.395 . S
C1062 C1065 1.403 . S
C1063 C1060 1.403 . S
C1063 C1064 1.524 . S
C1063 C1067 1.400 . S
C1064 H1049 0.960 . S
C1064 H1050 0.960 . S
C1064 H1051 0.960 . S
C1064 C1063 1.524 . S
C1065 C1062 1.403 . S
C1065 C1066 1.392 . S
C1065 C1069 1.495 . S
C1066 C1065 1.392 . S
C1066 C1067 1.385 . S
C1066 C1068 1.478 . S
C1067 H1061 0.930 . S
C1067 C1063 1.400 . S
C1067 C1066 1.385 . S
C1068 C1066 1.478 . S
C1068 C1070 1.381 . S
C1068 C1074 1.383 . S
C1069 C1065 1.495 . S
C1069 H1075 0.959 . S
C1069 H1076 0.961 . S
C1069 H1077 0.960 . S
C1070 C1068 1.381 . S
C1070 C1071 1.394 . S
C1070 H1078 0.930 . S
C1071 C1070 1.394 . S
C1071 C1072 1.383 . S
C1071 H1079 0.929 . S
C1072 C1071 1.383 . S
C1072 C1073 1.377 . S
C1073 H1057 0.930 . S
C1073 C1072 1.377 . S
C1073 C1074 1.379 . S
C1074 H1058 0.931 . S
C1074 C1068 1.383 . S
C1074 C1073 1.379 . S
H1075 C1069 0.959 . S
H1076 C1069 0.961 . S
H1077 C1069 0.960 . S
H1078 C1070 0.930 . S
H1079 C1071 0.929 . S
H1080 C1088 0.929 . S
H1081 C1090 0.930 . S
H1082 C1092 0.930 . S
H1083 C1095 0.929 . S
H1084 C1098 0.930 . S
H1085 C1100 0.960 . S
H1086 C1100 0.960 . S
H1087 C1100 0.960 . S
C1088 H1080 0.929 . S
C1088 C1089 1.377 . S
C1088 C1090 1.384 . S
C1089 C1088 1.377 . S
C1089 C1095 1.390 . S
C1090 H1081 0.930 . S
C1090 C1088 1.384 . S
C1090 C1091 1.372 . S
C1091 C1090 1.372 . S
C1091 C1092 1.400 . S
C1091 C1096 1.490 . S
C1092 H1082 0.930 . S
C1092 C1091 1.400 . S
C1092 C1095 1.386 . S
H1093 C1109 0.930 . S
H1094 C1110 0.931 . S
C1095 H1083 0.929 . S
C1095 C1089 1.390 . S
C1095 C1092 1.386 . S
C1096 C1091 1.490 . S
C1096 C1098 1.395 . S
C1096 C1099 1.403 . S
H1097 C1103 0.930 . S
C1098 H1084 0.930 . S
C1098 C1096 1.395 . S
C1098 C1101 1.403 . S
C1099 C1096 1.403 . S
C1099 C1100 1.524 . S
C1099 C1103 1.400 . S
C1100 H1085 0.960 . S
C1100 H1086 0.960 . S
C1100 H1087 0.960 . S
C1100 C1099 1.524 . S
C1101 C1098 1.403 . S
C1101 C1102 1.392 . S
C1101 C1105 1.495 . S
C1102 C1101 1.392 . S
C1102 C1103 1.385 . S
C1102 C1104 1.478 . S
C1103 H1097 0.930 . S
C1103 C1099 1.400 . S
C1103 C1102 1.385 . S
C1104 C1102 1.478 . S
C1104 C1106 1.381 . S
C1104 C1110 1.383 . S
C1105 C1101 1.495 . S
C1105 H1111 0.959 . S
C1105 H1112 0.961 . S
C1105 H1113 0.960 . S
C1106 C1104 1.381 . S
C1106 C1107 1.394 . S
C1106 H1114 0.930 . S
C1107 C1106 1.394 . S
C1107 C1108 1.383 . S
C1107 H1115 0.929 . S
C1108 C1107 1.383 . S
C1108 C1109 1.377 . S
C1109 H1093 0.930 . S
C1109 C1108 1.377 . S
C1109 C1110 1.379 . S
C1110 H1094 0.931 . S
C1110 C1104 1.383 . S
C1110 C1109 1.379 . S
H1111 C1105 0.959 . S
H1112 C1105 0.961 . S
H1113 C1105 0.960 . S
H1114 C1106 0.930 . S
H1115 C1107 0.929 . S
H1116 C1124 0.929 . S
H1117 C1126 0.930 . S
H1118 C1128 0.930 . S
H1119 C1131 0.929 . S
H1120 C1134 0.930 . S
H1121 C1136 0.960 . S
H1122 C1136 0.960 . S
H1123 C1136 0.960 . S
C1124 H1116 0.929 . S
C1124 C1125 1.377 . S
C1124 C1126 1.384 . S
C1125 C1124 1.377 . S
C1125 C1131 1.390 . S
C1126 H1117 0.930 . S
C1126 C1124 1.384 . S
C1126 C1127 1.372 . S
C1127 C1126 1.372 . S
C1127 C1128 1.400 . S
C1127 C1132 1.490 . S
C1128 H1118 0.930 . S
C1128 C1127 1.400 . S
C1128 C1131 1.386 . S
H1129 C1145 0.930 . S
H1130 C1146 0.931 . S
C1131 H1119 0.929 . S
C1131 C1125 1.390 . S
C1131 C1128 1.386 . S
C1132 C1127 1.490 . S
C1132 C1134 1.395 . S
C1132 C1135 1.403 . S
H1133 C1139 0.930 . S
C1134 H1120 0.930 . S
C1134 C1132 1.395 . S
C1134 C1137 1.403 . S
C1135 C1132 1.403 . S
C1135 C1136 1.524 . S
C1135 C1139 1.400 . S
C1136 H1121 0.960 . S
C1136 H1122 0.960 . S
C1136 H1123 0.960 . S
C1136 C1135 1.524 . S
C1137 C1134 1.403 . S
C1137 C1138 1.392 . S
C1137 C1141 1.495 . S
C1138 C1137 1.392 . S
C1138 C1139 1.385 . S
C1138 C1140 1.478 . S
C1139 H1133 0.930 . S
C1139 C1135 1.400 . S
C1139 C1138 1.385 . S
C1140 C1138 1.478 . S
C1140 C1142 1.381 . S
C1140 C1146 1.383 . S
C1141 C1137 1.495 . S
C1141 H1147 0.959 . S
C1141 H1148 0.961 . S
C1141 H1149 0.960 . S
C1142 C1140 1.381 . S
C1142 C1143 1.394 . S
C1142 H1150 0.930 . S
C1143 C1142 1.394 . S
C1143 C1144 1.383 . S
C1143 H1151 0.929 . S
C1144 C1143 1.383 . S
C1144 C1145 1.377 . S
C1145 H1129 0.930 . S
C1145 C1144 1.377 . S
C1145 C1146 1.379 . S
C1146 H1130 0.931 . S
C1146 C1140 1.383 . S
C1146 C1145 1.379 . S
H1147 C1141 0.959 . S
H1148 C1141 0.961 . S
H1149 C1141 0.960 . S
H1150 C1142 0.930 . S
H1151 C1143 0.929 . S
H1152 C1160 0.929 . S
H1153 C1162 0.930 . S
H1154 C1164 0.930 . S
H1155 C1167 0.929 . S
H1156 C1170 0.930 . S
H1157 C1172 0.960 . S
H1158 C1172 0.960 . S
H1159 C1172 0.960 . S
C1160 H1152 0.929 . S
C1160 C1161 1.377 . S
C1160 C1162 1.384 . S
C1161 C1160 1.377 . S
C1161 C1167 1.390 . S
C1162 H1153 0.930 . S
C1162 C1160 1.384 . S
C1162 C1163 1.372 . S
C1163 C1162 1.372 . S
C1163 C1164 1.400 . S
C1163 C1168 1.490 . S
C1164 H1154 0.930 . S
C1164 C1163 1.400 . S
C1164 C1167 1.386 . S
H1165 C1181 0.930 . S
H1166 C1182 0.931 . S
C1167 H1155 0.929 . S
C1167 C1161 1.390 . S
C1167 C1164 1.386 . S
C1168 C1163 1.490 . S
C1168 C1170 1.395 . S
C1168 C1171 1.403 . S
H1169 C1175 0.930 . S
C1170 H1156 0.930 . S
C1170 C1168 1.395 . S
C1170 C1173 1.403 . S
C1171 C1168 1.403 . S
C1171 C1172 1.524 . S
C1171 C1175 1.400 . S
C1172 H1157 0.960 . S
C1172 H1158 0.960 . S
C1172 H1159 0.960 . S
C1172 C1171 1.524 . S
C1173 C1170 1.403 . S
C1173 C1174 1.392 . S
C1173 C1177 1.495 . S
C1174 C1173 1.392 . S
C1174 C1175 1.385 . S
C1174 C1176 1.478 . S
C1175 H1169 0.930 . S
C1175 C1171 1.400 . S
C1175 C1174 1.385 . S
C1176 C1174 1.478 . S
C1176 C1178 1.381 . S
C1176 C1182 1.383 . S
C1177 C1173 1.495 . S
C1177 H1183 0.959 . S
C1177 H1184 0.961 . S
C1177 H1185 0.960 . S
C1178 C1176 1.381 . S
C1178 C1179 1.394 . S
C1178 H1186 0.930 . S
C1179 C1178 1.394 . S
C1179 C1180 1.383 . S
C1179 H1187 0.929 . S
C1180 C1179 1.383 . S
C1180 C1181 1.377 . S
C1181 H1165 0.930 . S
C1181 C1180 1.377 . S
C1181 C1182 1.379 . S
C1182 H1166 0.931 . S
C1182 C1176 1.383 . S
C1182 C1181 1.379 . S
H1183 C1177 0.959 . S
H1184 C1177 0.961 . S
H1185 C1177 0.960 . S
H1186 C1178 0.930 . S
H1187 C1179 0.929 . S
H1188 C1196 0.929 . S
H1189 C1198 0.930 . S
H1190 C1200 0.930 . S
H1191 C1203 0.929 . S
H1192 C1206 0.930 . S
H1193 C1208 0.960 . S
H1194 C1208 0.960 . S
H1195 C1208 0.960 . S
C1196 H1188 0.929 . S
C1196 C1197 1.377 . S
C1196 C1198 1.384 . S
C1197 C1196 1.377 . S
C1197 C1203 1.390 . S
C1198 H1189 0.930 . S
C1198 C1196 1.384 . S
C1198 C1199 1.372 . S
C1199 C1198 1.372 . S
C1199 C1200 1.400 . S
C1199 C1204 1.490 . S
C1200 H1190 0.930 . S
C1200 C1199 1.400 . S
C1200 C1203 1.386 . S
H1201 C1217 0.930 . S
H1202 C1218 0.931 . S
C1203 H1191 0.929 . S
C1203 C1197 1.390 . S
C1203 C1200 1.386 . S
C1204 C1199 1.490 . S
C1204 C1206 1.395 . S
C1204 C1207 1.403 . S
H1205 C1211 0.930 . S
C1206 H1192 0.930 . S
C1206 C1204 1.395 . S
C1206 C1209 1.403 . S
C1207 C1204 1.403 . S
C1207 C1208 1.524 . S
C1207 C1211 1.400 . S
C1208 H1193 0.960 . S
C1208 H1194 0.960 . S
C1208 H1195 0.960 . S
C1208 C1207 1.524 . S
C1209 C1206 1.403 . S
C1209 C1210 1.392 . S
C1209 C1213 1.495 . S
C1210 C1209 1.392 . S
C1210 C1211 1.385 . S
C1210 C1212 1.478 . S
C1211 H1205 0.930 . S
C1211 C1207 1.400 . S
C1211 C1210 1.385 . S
C1212 C1210 1.478 . S
C1212 C1214 1.381 . S
C1212 C1218 1.383 . S
C1213 C1209 1.495 . S
C1213 H1219 0.959 . S
C1213 H1220 0.961 . S
C1213 H1221 0.960 . S
C1214 C1212 1.381 . S
C1214 C1215 1.394 . S
C1214 H1222 0.930 . S
C1215 C1214 1.394 . S
C1215 C1216 1.383 . S
C1215 H1223 0.929 . S
C1216 C1215 1.383 . S
C1216 C1217 1.377 . S
C1217 H1201 0.930 . S
C1217 C1216 1.377 . S
C1217 C1218 1.379 . S
C1218 H1202 0.931 . S
C1218 C1212 1.383 . S
C1218 C1217 1.379 . S
H1219 C1213 0.959 . S
H1220 C1213 0.961 . S
H1221 C1213 0.960 . S
H1222 C1214 0.930 . S
H1223 C1215 0.929 . S
C369 C13 1.749 . S
C388 C106 1.708 . S
C405 C27 1.750 . S
C424 C145 1.710 . S
C460 C177 1.688 . S
C441 C29 1.749 . S
C496 C223 1.693 . S
C477 C54 1.750 . S
C532 C290 1.740 . S
C513 C69 1.750 . S
C568 C329 1.722 . S
C549 C83 1.748 . S
C585 C15 1.749 . S
C604 C191 1.734 . S
C621 C41 1.751 . S
C640 C237 1.728 . S
C676 C276 1.727 . S
C657 C42 1.751 . S
C712 C315 1.691 . S
C693 C57 1.748 . S
C729 C71 1.748 . S
C748 C92 1.695 . S
C784 C131 1.726 . S
C765 C1 1.750 . S
C820 C230 1.720 . S
C801 C12 1.751 . S
C837 C26 1.748 . S
C856 C283 1.713 . S
C892 C336 1.701 . S
C873 C28 1.748 . S
C909 C55 1.751 . S
C928 C99 1.705 . S
C945 C68 1.750 . S
C964 C152 1.693 . S
C981 C82 1.751 . S
C1000 C184 1.737 . S
C1017 C14 1.751 . S
C1036 C322 1.739 . S
C1072 C85 1.719 . S
C1053 C40 1.748 . S
C1089 C43 1.749 . S
C1108 C138 1.708 . S
C1125 C56 1.750 . S
C1144 C198 1.694 . S
C1161 C70 1.748 . S
C1180 C244 1.712 . S
C1197 C0 1.751 . S
C1216 C269 1.730 . S
