# Generated by pormake.
# Topology zzz, (3,6)-cn, num edge types: 1
# Building blocks:
#     Node 0, Type 0, BuildingBlock: KAKCAD_clean_linker_0, # of connection points: 3
#     Node 1, Type 0, BuildingBlock: KAKCAD_clean_linker_0, # of connection points: 3
#     Node 2, Type 0, BuildingBlock: KAKCAD_clean_linker_0, # of connection points: 3
#     Node 3, Type 0, BuildingBlock: KAKCAD_clean_linker_0, # of connection points: 3
#     Node 4, Type 0, BuildingBlock: KAKCAD_clean_linker_0, # of connection points: 3
#     Node 5, Type 0, BuildingBlock: KAKCAD_clean_linker_0, # of connection points: 3
#     Node 6, Type 0, BuildingBlock: KAKCAD_clean_linker_0, # of connection points: 3
#     Node 7, Type 0, BuildingBlock: KAKCAD_clean_linker_0, # of connection points: 3
#     Node 8, Type 1, BuildingBlock: BETDEL_clean_sbu_0, # of connection points: 6
#     Node 9, Type 1, BuildingBlock: BETDEL_clean_sbu_0, # of connection points: 6
#     Node 10, Type 1, BuildingBlock: BETDEL_clean_sbu_0, # of connection points: 6
#     Node 11, Type 1, BuildingBlock: BETDEL_clean_sbu_0, # of connection points: 6
#     Edge 12, Type (0, 1), BuildingBlock: AJUNOK_clean_linker_0, # of connection points: 2
#     Edge 13, Type (0, 1), BuildingBlock: AJUNOK_clean_linker_0, # of connection points: 2
#     Edge 14, Type (0, 1), BuildingBlock: AJUNOK_clean_linker_0, # of connection points: 2
#     Edge 15, Type (0, 1), BuildingBlock: AJUNOK_clean_linker_0, # of connection points: 2
#     Edge 16, Type (0, 1), BuildingBlock: AJUNOK_clean_linker_0, # of connection points: 2
#     Edge 17, Type (0, 1), BuildingBlock: AJUNOK_clean_linker_0, # of connection points: 2
#     Edge 18, Type (0, 1), BuildingBlock: AJUNOK_clean_linker_0, # of connection points: 2
#     Edge 19, Type (0, 1), BuildingBlock: AJUNOK_clean_linker_0, # of connection points: 2
#     Edge 20, Type (0, 1), BuildingBlock: AJUNOK_clean_linker_0, # of connection points: 2
#     Edge 21, Type (0, 1), BuildingBlock: AJUNOK_clean_linker_0, # of connection points: 2
#     Edge 22, Type (0, 1), BuildingBlock: AJUNOK_clean_linker_0, # of connection points: 2
#     Edge 23, Type (0, 1), BuildingBlock: AJUNOK_clean_linker_0, # of connection points: 2
#     Edge 24, Type (0, 1), BuildingBlock: AJUNOK_clean_linker_0, # of connection points: 2
#     Edge 25, Type (0, 1), BuildingBlock: AJUNOK_clean_linker_0, # of connection points: 2
#     Edge 26, Type (0, 1), BuildingBlock: AJUNOK_clean_linker_0, # of connection points: 2
#     Edge 27, Type (0, 1), BuildingBlock: AJUNOK_clean_linker_0, # of connection points: 2
#     Edge 28, Type (0, 1), BuildingBlock: AJUNOK_clean_linker_0, # of connection points: 2
#     Edge 29, Type (0, 1), BuildingBlock: AJUNOK_clean_linker_0, # of connection points: 2
#     Edge 30, Type (0, 1), BuildingBlock: AJUNOK_clean_linker_0, # of connection points: 2
#     Edge 31, Type (0, 1), BuildingBlock: AJUNOK_clean_linker_0, # of connection points: 2
#     Edge 32, Type (0, 1), BuildingBlock: AJUNOK_clean_linker_0, # of connection points: 2
#     Edge 33, Type (0, 1), BuildingBlock: AJUNOK_clean_linker_0, # of connection points: 2
#     Edge 34, Type (0, 1), BuildingBlock: AJUNOK_clean_linker_0, # of connection points: 2
#     Edge 35, Type (0, 1), BuildingBlock: AJUNOK_clean_linker_0, # of connection points: 2
# Relax obj value: 0.347
# Max RMSD: 0.229
# Mean RMSD: 0.211
data_MOF--net-zzz--node1-BETDEL_clean_sbu_0--node2-KAKCAD_clean_linker_0--edge1-AJUNOK_clean_linker_0
_symmetry_space_group_name_H-M    P1
_symmetry_Int_Tables_number       1
_symmetry_cell_setting            triclinic
loop_
_symmetry_equiv_pos_as_xyz
'x, y, z'
_cell_length_a     43.987218
_cell_length_b     44.310194
_cell_length_c     15.60158
_cell_angle_alpha  91.043793
_cell_angle_beta   88.93687
_cell_angle_gamma 95.25777
loop_
_atom_site_label
_atom_site_type_symbol
_atom_site_fract_x
_atom_site_fract_y
_atom_site_fract_z
_atom_type_partial_charge
C0 C 0.83082 0.43724 0.85559 0.0
C1 C 0.85144 0.42067 0.89849 0.0
C2 C 0.8049 0.44618 0.89827 0.0
C3 C 0.79919 0.43854 0.98442 0.0
C4 C 0.81762 0.41845 0.02306 0.0
C5 C 0.84375 0.40977 0.9806 0.0
C6 C 0.77934 0.45687 0.03808 0.0
C7 C 0.75172 0.46567 0.00791 0.0
C8 C 0.73634 0.48788 0.05197 0.0
C9 C 0.74902 0.50164 0.12743 0.0
C10 C 0.77639 0.49215 0.15932 0.0
C11 C 0.79095 0.46977 0.11454 0.0
C12 C 0.79299 0.50634 0.23392 0.0
C13 C 0.81155 0.53355 0.22269 0.0
C14 C 0.7988 0.48787 0.303 0.0
C15 C 0.82455 0.49468 0.35372 0.0
C16 C 0.84511 0.52013 0.33645 0.0
C17 C 0.70784 0.49672 0.01403 0.0
C18 C 0.70925 0.51965 0.95267 0.0
C19 C 0.68068 0.47774 0.02362 0.0
C20 C 0.656 0.48049 0.9696 0.0
C21 C 0.65815 0.50197 0.90384 0.0
C22 C 0.68456 0.52237 0.89837 0.0
C23 C 0.83729 0.54047 0.2738 0.0
H24 H 0.83629 0.44588 0.79207 0.0
H25 H 0.79125 0.46167 0.86665 0.0
H26 H 0.81337 0.41167 0.08888 0.0
H27 H 0.85911 0.39654 0.01426 0.0
H28 H 0.7426 0.45592 0.94843 0.0
H29 H 0.81291 0.464 0.13666 0.0
H30 H 0.73787 0.51943 0.16043 0.0
H31 H 0.80796 0.54792 0.16904 0.0
H32 H 0.78524 0.46645 0.31196 0.0
H33 H 0.82972 0.47855 0.40145 0.0
H34 H 0.7302 0.5341 0.9428 0.0
H35 H 0.67923 0.45957 0.06947 0.0
H36 H 0.85216 0.56075 0.26043 0.0
H37 H 0.68697 0.53908 0.8483 0.0
H38 H 0.63578 0.46478 0.97645 0.0
C39 C 0.04912 0.82207 0.87598 0.0
C40 C 0.07 0.84439 0.91181 0.0
C41 C 0.04182 0.79478 0.9181 0.0
C42 C 0.05508 0.78974 0.9971 0.0
C43 C 0.07804 0.81105 0.02872 0.0
C44 C 0.08542 0.8383 0.98631 0.0
C45 C 0.04015 0.76647 0.05449 0.0
C46 C 0.03222 0.73667 0.02628 0.0
C47 C 0.0141 0.71625 0.07824 0.0
C48 C 1.003 0.72624 0.15857 0.0
C49 C 1.01088 0.75636 0.18651 0.0
C50 C 0.02983 0.7758 0.13492 0.0
C51 C 0.99771 0.77055 0.26353 0.0
C52 C 0.97052 0.78444 0.25436 0.0
C53 C 0.01758 0.78082 0.32954 0.0
C54 C 0.01234 0.80681 0.37793 0.0
C55 C 0.98718 0.82307 0.36094 0.0
C56 C 1.00686 0.68498 0.0446 0.0
C57 C 0.98806 0.68013 0.97297 0.0
C58 C 0.02394 0.6616 0.07055 0.0
C59 C 0.02403 0.63472 0.02163 0.0
C60 C 1.00703 0.63083 0.946 0.0
C61 C 0.98794 0.6532 0.92454 0.0
C62 C 0.96528 0.8105 0.30269 0.0
H63 H 0.03698 0.82661 0.81849 0.0
H64 H 0.02382 0.77893 0.89293 0.0
H65 H 0.08855 0.80761 0.08959 0.0
H66 H 0.10151 0.85541 0.01475 0.0
H67 H 0.03993 0.72942 0.9634 0.0
H68 H 0.03479 0.79928 0.1553 0.0
H69 H 0.98809 0.71107 0.19766 0.0
H70 H 0.95513 0.77736 0.20286 0.0
H71 H 0.03902 0.77095 0.3366 0.0
H72 H 0.02959 0.81581 0.42257 0.0
H73 H 0.97509 0.69806 0.95102 0.0
H74 H 0.03897 0.66504 0.12477 0.0
H75 H 0.9453 0.82214 0.28967 0.0
H76 H 0.97479 0.65097 0.86637 0.0
H77 H 0.03881 0.61776 0.03996 0.0
C78 C 0.72368 0.06697 0.81423 0.0
C79 C 0.70422 0.08898 0.84047 0.0
C80 C 0.74561 0.05807 0.86966 0.0
C81 C 0.74821 0.07079 0.95255 0.0
C82 C 0.73098 0.09496 0.97545 0.0
C83 C 0.70924 0.10407 0.91967 0.0
C84 C 0.76427 0.05515 0.01875 0.0
C85 C 0.7932 0.04553 1.00238 0.0
C86 C 0.80638 0.02665 0.05965 0.0
C87 C 0.78991 0.01692 0.13474 0.0
C88 C 0.76082 0.02721 0.15286 0.0
C89 C 0.74859 0.04634 0.09432 0.0
C90 C 0.74094 0.01724 0.22785 0.0
C91 C 0.73163 0.98643 0.24057 0.0
C92 C 0.72581 0.03897 0.27496 0.0
C93 C 0.70019 0.0304 0.32649 0.0
C94 C 0.68899 0.99974 0.33331 0.0
C95 C 0.837 0.01734 0.03515 0.0
C96 C 0.83921 0.99219 0.9799 0.0
C97 C 0.8626 0.03854 0.04364 0.0
C98 C 0.88888 0.03605 0.99266 0.0
C99 C 0.88999 0.01247 0.93131 0.0
C100 C 0.86554 0.98968 0.92879 0.0
C101 C 0.70606 0.97777 0.2932 0.0
H102 H 0.72007 0.05448 0.75443 0.0
H103 H 0.75843 0.03924 0.85063 0.0
H104 H 0.73284 0.10534 0.03877 0.0
H105 H 0.69469 0.12126 0.94119 0.0
H106 H 0.80532 0.05225 0.94356 0.0
H107 H 0.72565 0.05292 0.1051 0.0
H108 H 0.79961 1.0018 0.17833 0.0
H109 H 0.7427 0.96913 0.20517 0.0
H110 H 0.73246 0.06292 0.26684 0.0
H111 H 0.68798 0.04807 0.35635 0.0
H112 H 0.81954 0.97598 0.97038 0.0
H113 H 0.86124 0.05853 0.08408 0.0
H114 H 0.69894 0.95387 0.29948 0.0
H115 H 0.86563 0.97134 0.88192 0.0
H116 H 0.90745 0.05383 0.99669 0.0
C117 C 0.53039 0.71058 0.40181 0.0
C118 C 0.555 0.69391 0.37794 0.0
C119 C 0.52357 0.7353 0.35331 0.0
C120 C 0.54106 0.74367 0.27972 0.0
C121 C 0.56818 0.72993 0.26371 0.0
C122 C 0.57517 0.7053 0.31263 0.0
C123 C 0.52478 0.75425 0.20529 0.0
C124 C 0.53033 0.78319 0.16876 0.0
C125 C 0.51457 0.79003 0.09411 0.0
C126 C 0.49465 0.76724 0.05517 0.0
C127 C 0.48989 0.73824 0.09016 0.0
C128 C 0.50451 0.7324 0.16588 0.0
C129 C 0.47424 0.71219 0.04255 0.0
C130 C 0.4567 0.68918 0.08744 0.0
C131 C 0.48276 0.70673 0.95687 0.0
C132 C 0.47709 0.6778 0.92048 0.0
C133 C 0.4628 0.65408 0.96915 0.0
C134 C 0.51916 0.82015 0.05245 0.0
C135 C 0.49358 0.83497 0.03024 0.0
C136 C 0.54822 0.8321 0.02377 0.0
C137 C 0.55133 0.85721 0.96932 0.0
C138 C 0.52543 0.87093 0.94315 0.0
C139 C 0.49668 0.86004 0.97663 0.0
C140 C 0.45136 0.66014 0.05128 0.0
H141 H 0.5145 0.70261 0.4521 0.0
H142 H 0.50226 0.74514 0.36631 0.0
H143 H 0.58187 0.7356 0.20682 0.0
H144 H 0.59487 0.69353 0.29436 0.0
H145 H 0.54642 0.80009 0.19805 0.0
H146 H 0.50186 0.70971 0.19176 0.0
H147 H 0.48363 0.77179 0.99576 0.0
H148 H 0.44954 0.6929 0.15331 0.0
H149 H 0.49649 0.72384 0.92087 0.0
H150 H 0.48619 0.67333 0.85695 0.0
H151 H 0.47092 0.82635 0.05171 0.0
H152 H 0.56828 0.82093 0.03909 0.0
H153 H 0.44033 0.642 0.0896 0.0
H154 H 0.47633 0.87031 0.95884 0.0
H155 H 0.57376 0.86479 0.944 0.0
C156 C 0.18957 0.60742 0.11949 0.0
C157 C 0.18249 0.59969 0.20458 0.0
C158 C 0.21712 0.6002 0.08232 0.0
C159 C 0.23723 0.584 0.12895 0.0
C160 C 0.2319 0.58019 0.21734 0.0
C161 C 0.2047 0.58818 0.25502 0.0
C162 C 0.25845 0.5649 0.08276 0.0
C163 C 0.28658 0.55924 0.11665 0.0
C164 C 0.30446 0.5374 0.07897 0.0
C165 C 0.29272 0.52029 0.00684 0.0
C166 C 0.26428 0.52607 0.97262 0.0
C167 C 0.24791 0.54847 0.01044 0.0
C168 C 0.24867 0.50865 0.9013 0.0
C169 C 0.24534 0.52366 0.82388 0.0
C170 C 0.22745 0.48404 0.92169 0.0
C171 C 0.2019 0.47656 0.87019 0.0
C172 C 0.19698 0.49354 0.79706 0.0
C173 C 0.33434 0.53243 0.11957 0.0
C174 C 0.35165 0.55698 0.15906 0.0
C175 C 0.3446 0.50339 0.12671 0.0
C176 C 0.37026 0.49897 0.17634 0.0
C177 C 0.38586 0.52333 0.22205 0.0
C178 C 0.37641 0.55247 0.21053 0.0
C179 C 0.21979 0.51631 0.77259 0.0
H180 H 0.17265 0.61631 0.07971 0.0
H181 H 0.22108 0.6042 0.01455 0.0
H182 H 0.24683 0.56785 0.25526 0.0
H183 H 0.19945 0.58187 0.32082 0.0
H184 H 0.294 0.57135 0.17459 0.0
H185 H 0.22551 0.55164 0.98591 0.0
H186 H 0.30543 0.50291 0.97753 0.0
H187 H 0.26067 0.5434 0.80807 0.0
H188 H 0.22886 0.47267 0.9822 0.0
H189 H 0.18497 0.45874 0.8907 0.0
H190 H 0.34547 0.57993 0.15279 0.0
H191 H 0.33223 0.48388 0.09669 0.0
H192 H 0.21666 0.53035 0.71796 0.0
H193 H 0.38738 0.57204 0.24385 0.0
H194 H 0.37746 0.47634 0.17951 0.0
C195 C 0.94592 0.16531 0.10649 0.0
C196 C 0.9605 0.16224 0.18454 0.0
C197 C 0.94831 0.19337 0.06613 0.0
C198 C 0.96577 0.21844 0.10275 0.0
C199 C 0.97657 0.21614 0.18629 0.0
C200 C 0.97396 0.18822 0.22678 0.0
C201 C 0.98002 0.2429 0.04735 0.0
C202 C 0.98604 0.27276 0.07798 0.0
C203 C 1.00679 0.2936 0.03446 0.0
C204 C 0.02193 0.28388 0.95933 0.0
C205 C 0.01492 0.25422 0.92672 0.0
C206 C 0.99367 0.23443 0.97017 0.0
C207 C 0.03161 0.24055 0.85483 0.0
C208 C 0.01507 0.23083 0.78162 0.0
C209 C 0.05797 0.22646 0.87377 0.0
C210 C 0.06531 0.20068 0.82716 0.0
C211 C 0.04636 0.1886 0.76089 0.0
C212 C 0.01405 0.32426 0.07406 0.0
C213 C 0.9903 0.34054 0.10697 0.0
C214 C 0.04438 0.33555 0.08994 0.0
C215 C 0.05067 0.36123 0.14301 0.0
C216 C 0.02676 0.37614 0.18111 0.0
C217 C 0.99657 0.36616 0.15961 0.0
C218 C 0.0224 0.20511 0.73498 0.0
H219 H 0.93527 0.1456 0.07295 0.0
H220 H 0.9393 0.19466 1.00226 0.0
H221 H 0.99011 0.2349 0.21649 0.0
H222 H 0.98495 0.18637 0.28782 0.0
H223 H 0.97593 0.27923 0.1387 0.0
H224 H 0.99012 0.21108 0.94748 0.0
H225 H 0.03901 0.29904 0.92714 0.0
H226 H 0.99426 0.24085 0.7668 0.0
H227 H 0.07076 0.23311 0.93081 0.0
H228 H 0.08439 0.18887 0.84726 0.0
H229 H 0.9667 0.33258 0.09522 0.0
H230 H 0.06317 0.3235 0.0657 0.0
H231 H 1.00743 0.1965 0.68401 0.0
H232 H 0.97761 0.37708 0.18766 0.0
H233 H 0.07422 0.36873 0.1569 0.0
C234 C 0.32631 0.93677 0.26994 0.0
C235 C 0.34659 0.91687 0.23525 0.0
C236 C 0.30235 0.94533 0.22134 0.0
C237 C 0.29836 0.93422 0.13709 0.0
C238 C 0.31626 0.91148 0.1065 0.0
C239 C 0.34013 0.90272 0.15551 0.0
C240 C 0.28079 0.95108 0.07702 0.0
C241 C 0.25241 0.96075 0.10087 0.0
C242 C 0.23892 0.98227 0.05252 0.0
C243 C 0.25465 0.99454 0.97895 0.0
C244 C 0.28276 0.98377 0.95236 0.0
C245 C 0.29521 0.96199 1.00172 0.0
C246 C 0.30192 0.99604 0.87882 0.0
C247 C 0.31254 0.97565 0.81737 0.0
C248 C 0.31649 0.02557 0.88329 0.0
C249 C 0.34267 0.03363 0.83264 0.0
C250 C 0.35489 0.01233 0.77647 0.0
C251 C 0.20934 0.99227 0.08532 0.0
C252 C 0.18462 0.97042 0.10006 0.0
C253 C 0.2077 0.02166 0.11941 0.0
C254 C 0.18276 0.0284 0.17189 0.0
C255 C 0.15884 0.00597 0.19084 0.0
C256 C 0.1597 0.97716 0.15192 0.0
C257 C 0.33869 0.98361 0.76714 0.0
H258 H 0.33067 0.94804 0.33129 0.0
H259 H 0.28902 0.96297 0.24656 0.0
H260 H 0.3133 0.90222 0.04212 0.0
H261 H 0.35493 0.88667 0.12833 0.0
H262 H 0.24135 0.95244 0.15968 0.0
H263 H 0.31767 0.95524 0.98465 0.0
H264 H 0.24506 0.01189 0.9427 0.0
H265 H 0.30213 0.95254 0.81361 0.0
H266 H 0.30926 0.04158 0.93108 0.0
H267 H 0.35436 0.05605 0.84105 0.0
H268 H 0.1855 0.94744 0.07581 0.0
H269 H 0.22666 0.03877 0.11055 0.0
H270 H 0.34751 0.96635 0.72615 0.0
H271 H 0.14216 0.95911 0.16622 0.0
H272 H 0.18283 0.05083 0.20074 0.0
C273 C 0.46127 0.31016 0.749 0.0
C274 C 0.49059 0.32494 0.73632 0.0
C275 C 0.4571 0.28371 0.79736 0.0
C276 C 0.48205 0.27209 0.83658 0.0
C277 C 0.51164 0.28474 0.81485 0.0
C278 C 0.51588 0.31095 0.76509 0.0
C279 C 0.47686 0.26018 0.92444 0.0
C280 C 0.48045 0.23029 0.95024 0.0
C281 C 0.47662 0.22278 0.03818 0.0
C282 C 0.47093 0.24562 0.09886 0.0
C283 C 0.46837 0.27533 0.07314 0.0
C284 C 0.4706 0.28197 0.98621 0.0
C285 C 0.46924 0.30117 0.13449 0.0
C286 C 0.49275 0.30487 0.1944 0.0
C287 C 0.45282 0.326 0.1165 0.0
C288 C 0.46322 0.35495 0.14537 0.0
C289 C 0.4894 0.35932 0.1959 0.0
C290 C 0.48017 0.19203 0.07124 0.0
C291 C 0.45678 0.17757 0.12258 0.0
C292 C 0.50857 0.17989 0.06661 0.0
C293 C 0.51402 0.155 0.11688 0.0
C294 C 0.49113 0.14175 0.17244 0.0
C295 C 0.46212 0.15262 0.17211 0.0
C296 C 0.50249 0.33377 0.22583 0.0
H297 H 0.44141 0.32028 0.72677 0.0
H298 H 0.43401 0.27491 0.81428 0.0
H299 H 0.53125 0.27685 0.84565 0.0
H300 H 0.53876 0.32184 0.75615 0.0
H301 H 0.48598 0.21329 0.90318 0.0
H302 H 0.46983 0.30523 0.96619 0.0
H303 H 0.46967 0.24052 0.16663 0.0
H304 H 0.50559 0.28608 0.21036 0.0
H305 H 0.43414 0.32357 0.07183 0.0
H306 H 0.45208 0.37401 0.12262 0.0
H307 H 0.43475 0.18665 0.12792 0.0
H308 H 0.5271 0.19082 0.02848 0.0
H309 H 0.52147 0.33623 0.26937 0.0
H310 H 0.44401 0.14296 0.21403 0.0
H311 H 0.53646 0.14679 0.11458 0.0
Dy312 Dy 0.0416 0.99323 0.62231 0.0
C313 C 0.9905 0.05269 0.3423 0.0
C314 C 0.0625 0.95761 0.74492 0.0
Dy315 Dy 1.00328 0.0203 0.4813 0.0
O316 O 0.07532 0.96282 0.67052 0.0
O317 O 0.03863 0.97276 0.75339 0.0
O318 O 0.08381 0.01449 0.55674 0.0
O319 O 0.04611 0.99869 0.4828 0.0
C320 C 0.07285 0.01198 0.47974 0.0
C321 C 0.96995 0.01512 0.62881 0.0
O322 O 0.99651 0.97143 0.44081 0.0
O323 O 0.01608 0.95172 0.56346 0.0
O324 O 0.97129 0.03273 0.37942 0.0
O325 O 0.01684 0.05371 0.37917 0.0
O326 O 0.96 0.02579 0.55873 0.0
O327 O 0.99654 0.0078 0.61377 0.0
O328 O 0.04254 0.04084 0.67287 0.0
O329 O 0.02795 0.06127 0.54542 0.0
C330 C 1.002 0.94813 0.48882 0.0
C331 C 0.03832 0.06447 0.6248 0.0
Dy332 Dy 0.50357 0.98077 0.49186 0.0
C333 C 0.58958 0.06444 0.67439 0.0
C334 C 0.45946 0.94571 0.40658 0.0
Dy335 Dy 0.54138 0.03007 0.60474 0.0
O336 O 0.4831 0.9605 0.3707 0.0
O337 O 0.46004 0.95014 0.48904 0.0
O338 O 0.54575 0.95646 0.46547 0.0
O339 O 0.55016 1.00286 0.49006 0.0
C340 C 0.56506 0.98003 0.47904 0.0
C341 C 0.48109 0.02899 0.64576 0.0
O342 O 0.5312 0.05866 0.49366 0.0
O343 O 0.49725 0.02379 0.42125 0.0
O344 O 0.58462 0.06122 0.59284 0.0
O345 O 0.568 0.04919 0.71743 0.0
O346 O 0.50201 0.04744 0.68169 0.0
O347 O 0.49418 0.01339 0.59044 0.0
O348 O 0.50522 0.95721 0.61655 0.0
O349 O 0.54744 0.98601 0.67065 0.0
C350 C 0.51213 0.05124 0.4299 0.0
C351 C 0.52726 0.96178 0.67333 0.0
Dy352 Dy 0.50831 0.52292 0.63751 0.0
C353 C 0.54082 0.47447 0.31994 0.0
C354 C 0.48769 0.5461 0.78891 0.0
Dy355 Dy 0.5369 0.49712 0.48268 0.0
O356 O 0.47057 0.53475 0.72739 0.0
O357 O 0.51612 0.54345 0.76889 0.0
O358 O 0.47568 0.54268 0.54954 0.0
O359 O 0.48968 0.49955 0.5223 0.0
C360 C 0.47383 0.51979 0.49664 0.0
C361 C 0.57294 0.49895 0.61952 0.0
O362 O 0.54539 0.54654 0.45234 0.0
O363 O 0.53165 0.56606 0.58452 0.0
O364 O 0.55947 0.47005 0.38125 0.0
O365 O 0.52256 0.49419 0.3463 0.0
O366 O 0.57366 0.47891 0.55779 0.0
O367 O 0.55588 0.51921 0.59998 0.0
O368 O 0.50637 0.47326 0.67329 0.0
O369 O 0.51319 0.45485 0.5357 0.0
C370 C 0.54234 0.56991 0.50502 0.0
C371 C 0.50734 0.45019 0.61787 0.0
Dy372 Dy 1.00553 0.48042 0.62008 0.0
C373 C 0.07138 0.55605 0.3675 0.0
C374 C 0.96622 0.44756 0.72728 0.0
Dy375 Dy 0.03836 0.52826 0.49688 0.0
O376 O 0.96957 0.44243 0.64573 0.0
O377 O 0.98489 0.47059 0.75092 0.0
O378 O 0.02956 0.44479 0.55064 0.0
O379 O 0.01678 0.48179 0.48221 0.0
C380 C 0.03039 0.45784 0.47656 0.0
C381 C 0.0267 0.55468 0.65019 0.0
O382 O 0.99086 0.5274 0.44762 0.0
O383 O 0.9661 0.50182 0.56173 0.0
O384 O 0.05206 0.56892 0.41664 0.0
O385 O 0.07216 0.5278 0.38784 0.0
O386 O 0.04094 0.56897 0.58744 0.0
O387 O 0.02021 0.52771 0.62614 0.0
O388 O 0.05229 0.48548 0.67764 0.0
O389 O 0.07745 0.50809 0.5593 0.0
C390 C 0.96553 0.51706 0.48914 0.0
C391 C 0.07781 0.49488 0.63504 0.0
C392 C 0.14449 0.02379 0.33896 0.0
C393 C 0.13526 0.01115 0.25902 0.0
C394 C 0.12381 0.0251 0.40847 0.0
C395 C 0.09292 0.01393 0.40136 0.0
H396 H 0.16823 0.03149 0.34929 0.0
H397 H 0.13245 0.03407 0.46929 0.0
S398 S 0.05609 0.98194 0.20333 0.0
N399 N 0.09229 0.98972 0.17486 0.0
N400 N 0.05355 0.99212 0.3054 0.0
C401 C 0.08295 1.00269 0.32062 0.0
C402 C 0.10407 1.00126 0.24972 0.0
C403 C 0.47805 0.09159 0.24451 0.0
C404 C 0.49778 0.11826 0.23541 0.0
C405 C 0.48293 0.07009 0.30695 0.0
C406 C 0.50751 0.07451 0.36404 0.0
H407 H 0.45863 0.0873 0.20292 0.0
H408 H 0.46701 0.04999 0.31097 0.0
S409 S 0.56557 0.14105 0.36776 0.0
N410 N 0.54265 0.14809 0.28943 0.0
N411 N 0.55197 0.10797 0.40624 0.0
C412 C 0.52743 0.10117 0.35543 0.0
C413 C 0.52257 0.12289 0.29133 0.0
C414 C 0.4348 0.54244 0.2962 0.0
C415 C 0.41097 0.51912 0.28438 0.0
C416 C 0.45552 0.542 0.36351 0.0
C417 C 0.45432 0.51761 0.41991 0.0
H418 H 0.43708 0.56183 0.25456 0.0
H419 H 0.47242 0.56113 0.37214 0.0
S420 S 0.39915 0.44934 0.41491 0.0
N421 N 0.38875 0.47007 0.33549 0.0
N422 N 0.42939 0.46847 0.45705 0.0
C423 C 0.43236 0.4931 0.4059 0.0
C424 C 0.41039 0.49395 0.33922 0.0
C425 C 0.01727 0.42643 0.2504 0.0
C426 C 0.03254 0.39978 0.24996 0.0
C427 C 0.01838 0.44646 0.32162 0.0
C428 C 0.03445 0.44035 0.39561 0.0
H429 H 1.00348 0.43129 0.19639 0.0
H430 H 1.00518 0.46592 0.32042 0.0
S431 S 0.0803 0.3752 0.4249 0.0
N432 N 0.06582 0.3696 0.32843 0.0
N433 N 0.06795 0.40716 0.46141 0.0
C434 C 0.05115 0.41476 0.39413 0.0
C435 C 0.0502 0.39451 0.32162 0.0
C436 C 0.93082 0.98985 0.83959 0.0
C437 C 0.91366 0.01443 0.86094 0.0
C438 C 0.95073 0.9907 0.76726 0.0
C439 C 0.95341 0.01578 0.71264 0.0
H440 H 0.92839 0.96967 0.87813 0.0
H441 H 0.96288 0.97106 0.75168 0.0
S442 S 0.91442 0.08613 0.74113 0.0
N443 N 0.90182 0.0649 0.82248 0.0
N444 N 0.93837 0.06612 0.68683 0.0
C445 C 0.937 0.04065 0.73456 0.0
C446 C 0.91735 0.04007 0.80854 0.0
C447 C 0.50726 0.89109 0.80604 0.0
C448 C 0.52749 0.89444 0.87509 0.0
C449 C 0.50782 0.91268 0.74134 0.0
C450 C 0.52866 0.93885 0.74221 0.0
H451 H 0.49079 0.87141 0.80156 0.0
H452 H 0.49151 0.90871 0.69031 0.0
S453 S 0.58662 0.95857 0.90945 0.0
N454 N 0.56906 0.92599 0.94088 0.0
N455 N 0.57034 0.96667 0.81916 0.0
C456 C 0.54933 0.94239 0.81063 0.0
C457 C 0.54874 0.9202 0.87681 0.0
C458 C 0.62179 0.52724 0.8101 0.0
C459 C 0.63466 0.50084 0.83541 0.0
C460 C 0.60103 0.52651 0.742 0.0
C461 C 0.59294 0.4995 0.69556 0.0
H462 H 0.62793 0.54861 0.84295 0.0
H463 H 0.59191 0.54737 0.72422 0.0
S464 S 0.61977 0.42414 0.73666 0.0
N465 N 0.63729 0.4469 0.80873 0.0
N466 N 0.59866 0.44559 0.68165 0.0
C467 C 0.6053 0.47296 0.7211 0.0
C468 C 0.62605 0.47361 0.79066 0.0
C469 C 0.98839 0.58823 0.84472 0.0
C470 C 0.01279 0.60646 0.8821 0.0
C471 C 0.99324 0.56909 0.77349 0.0
C472 C 0.02252 0.56819 0.73638 0.0
H473 H 0.96529 0.58969 0.86862 0.0
H474 H 0.97375 0.55657 0.7439 0.0
S475 S 0.09413 0.60984 0.81228 0.0
N476 N 0.0675 0.62072 0.87897 0.0
N477 N 0.07631 0.58547 0.74472 0.0
C478 C 0.04715 0.58517 0.77537 0.0
C479 C 0.04238 0.60411 0.8484 0.0
C480 C 0.99751 0.12656 0.22693 0.0
C481 C 0.96695 0.13204 0.21438 0.0
C482 C 1.00494 0.09949 0.26187 0.0
C483 C 0.98208 0.07689 0.28613 0.0
H484 H 0.01586 0.14374 0.21164 0.0
H485 H 0.02874 0.09697 0.27394 0.0
S486 S 0.89878 0.0785 0.25555 0.0
N487 N 0.91383 0.11156 0.21993 0.0
N488 N 0.92773 0.06037 0.28692 0.0
C489 C 0.95151 0.08111 0.26828 0.0
C490 C 0.94394 0.10881 0.23205 0.0
C491 C 0.3787 0.91353 0.36473 0.0
C492 C 0.37679 0.91588 0.27525 0.0
C493 C 0.40636 0.92092 0.40652 0.0
C494 C 0.43296 0.93113 0.3603 0.0
H495 H 0.3583 0.90774 0.40312 0.0
H496 H 0.40637 0.92052 0.47595 0.0
S497 S 0.4412 0.93693 0.12412 0.0
N498 N 0.40473 0.92598 0.14101 0.0
N499 N 0.45671 0.93943 0.2198 0.0
C500 C 0.43203 0.93093 0.27041 0.0
C501 C 0.4039 0.92339 0.22775 0.0
C502 C 0.48497 0.41384 0.23349 0.0
C503 C 0.50358 0.39041 0.21396 0.0
C504 C 0.4977 0.44276 0.25679 0.0
C505 C 0.52951 0.44909 0.26392 0.0
H506 H 0.46033 0.40951 0.23525 0.0
H507 H 0.48226 0.45935 0.27678 0.0
S508 S 0.58841 0.39785 0.2029 0.0
N509 N 0.55565 0.37728 0.18768 0.0
N510 N 0.57942 0.43128 0.23839 0.0
C511 C 0.54845 0.42677 0.23814 0.0
C512 C 0.53553 0.39746 0.21198 0.0
C513 C 0.13265 0.56958 0.19895 0.0
C514 C 0.15042 0.59482 0.23303 0.0
C515 C 0.10551 0.55826 0.23966 0.0
C516 C 0.09495 0.5724 0.31409 0.0
H517 H 0.14108 0.55701 0.14463 0.0
H518 H 0.09362 0.53742 0.21553 0.0
S519 S 0.13157 0.641 0.42316 0.0
N520 N 0.15482 0.63473 0.34165 0.0
N521 N 0.1028 0.61437 0.41639 0.0
C522 C 0.11116 0.59915 0.34463 0.0
C523 C 0.13927 0.61015 0.3045 0.0
C524 C 0.04826 0.89367 0.90018 0.0
C525 C 0.07177 0.87535 0.87882 0.0
C526 C 0.0468 0.9217 0.86134 0.0
C527 C 0.06866 0.93206 0.79919 0.0
H528 H 0.03023 0.88571 0.94479 0.0
H529 H 0.02746 0.93442 0.87651 0.0
S530 S 0.13663 0.89366 0.72891 0.0
N531 N 0.11876 0.87028 0.7985 0.0
N532 N 0.11613 0.92301 0.72424 0.0
C533 C 0.09335 0.91469 0.78139 0.0
C534 C 0.09485 0.8862 0.82145 0.0
C535 C 0.64759 0.08693 0.84301 0.0
C536 C 0.6751 0.09083 0.79528 0.0
C537 C 0.61962 0.08057 0.80255 0.0
C538 C 0.61807 0.078 0.71291 0.0
H539 H 0.64779 0.08644 0.9124 0.0
H540 H 0.5993 0.07589 0.84215 0.0
S541 S 0.68275 0.0913 0.55819 0.0
N542 N 0.69861 0.09562 0.65332 0.0
N543 N 0.64579 0.08353 0.57687 0.0
C544 C 0.64496 0.08446 0.66398 0.0
C545 C 0.67357 0.09085 0.70533 0.0
C546 C 0.44413 0.60829 0.88329 0.0
C547 C 0.46541 0.62269 0.93989 0.0
C548 C 0.45008 0.58122 0.8409 0.0
C549 C 0.47777 0.56825 0.85276 0.0
H550 H 0.4237 0.61889 0.86809 0.0
H551 H 0.43401 0.57181 0.79356 0.0
S552 S 0.53887 0.5957 1.003 0.0
N553 N 0.51337 0.62074 0.01309 0.0
N554 N 0.52492 0.57014 0.9323 0.0
C555 C 0.49803 0.58132 0.91432 0.0
C556 C 0.4918 0.60861 0.95802 0.0
C557 C 0.8876 0.4107 0.77843 0.0
C558 C 0.88286 0.42021 0.86356 0.0
C559 C 0.91585 0.41737 0.73692 0.0
C560 C 0.94005 0.43429 0.77872 0.0
H561 H 0.86884 0.3996 0.74227 0.0
H562 H 0.91795 0.41109 0.66978 0.0
S563 S 0.94028 0.46125 0.00499 0.0
N564 N 0.90551 0.44467 0.99104 0.0
N565 N 0.95854 0.45746 0.91252 0.0
C566 C 0.93634 0.44186 0.86577 0.0
C567 C 0.9077 0.43476 0.90837 0.0
C568 C 0.04687 0.15088 0.63835 0.0
C569 C 0.04853 0.15712 0.72692 0.0
C570 C 0.04473 0.12096 0.60604 0.0
C571 C 0.044 0.0959 0.66089 0.0
H572 H 0.04656 0.16927 0.59368 0.0
H573 H 0.04297 0.11752 0.53733 0.0
S574 S 0.04725 0.1 0.89863 0.0
N575 N 0.04912 0.13572 0.86925 0.0
N576 N 0.04539 0.07968 0.80883 0.0
C577 C 0.04641 0.10189 0.74962 0.0
C578 C 0.04859 0.13239 0.78249 0.0
C579 C 0.41026 0.0318 0.78808 0.0
C580 C 0.3863 0.01845 0.73736 0.0
C581 C 0.44051 0.03541 0.75689 0.0
C582 C 0.4484 0.02556 0.67381 0.0
H583 H 0.40583 0.03873 0.85373 0.0
H584 H 0.45804 0.04536 0.79935 0.0
S585 S 0.3942 0.99265 0.5107 0.0
N586 N 0.37247 0.99779 0.5963 0.0
N587 N 0.42946 1.00429 0.53853 0.0
C588 C 0.42474 0.01301 0.62121 0.0
C589 C 0.39373 0.00951 0.65274 0.0
C590 C 0.48043 0.37985 0.74691 0.0
C591 C 0.49443 0.35648 0.70326 0.0
C592 C 0.48487 0.41014 0.71994 0.0
C593 C 0.50296 0.41815 0.64711 0.0
H594 H 0.46635 0.37473 0.80344 0.0
H595 H 0.4738 0.42732 0.75587 0.0
S596 S 0.54472 0.36532 0.5106 0.0
N597 N 0.52735 0.34345 0.58457 0.0
N598 N 0.5353 0.39989 0.53239 0.0
C599 C 0.51695 0.39484 0.60271 0.0
C600 C 0.51282 0.36418 0.63116 0.0
C601 C 0.13932 0.48885 0.80226 0.0
C602 C 0.1667 0.49035 0.75323 0.0
C603 C 0.11069 0.48932 0.76358 0.0
C604 C 0.10812 0.49153 0.67412 0.0
H605 H 0.14003 0.48849 0.87157 0.0
H606 H 0.09052 0.48905 0.8046 0.0
S607 S 0.17234 0.49231 0.51564 0.0
N608 N 0.18893 0.49122 0.60947 0.0
N609 N 0.13547 0.49262 0.53699 0.0
C610 C 0.1352 0.49185 0.62406 0.0
C611 C 0.16431 0.49116 0.66345 0.0
C612 C 0.99223 0.86168 0.48136 0.0
C613 C 0.9865 0.85478 0.3945 0.0
C614 C 0.99593 0.89183 0.51167 0.0
C615 C 0.99426 0.91647 0.45636 0.0
H616 H 0.99458 0.84362 0.52597 0.0
H617 H 1.00091 0.89578 0.5789 0.0
S618 S 0.9799 0.91056 0.22245 0.0
N619 N 0.9793 0.87508 0.25328 0.0
N620 N 0.98599 0.93156 0.30999 0.0
C621 C 0.98767 0.90981 0.36963 0.0
C622 C 0.98388 0.87908 0.33883 0.0
C623 C 0.64953 0.00706 0.45068 0.0
C624 C 0.65837 0.99153 0.37568 0.0
C625 C 0.61963 1.00263 0.48513 0.0
C626 C 0.59733 0.98218 0.44694 0.0
H627 H 0.66572 0.02323 0.48242 0.0
H628 H 0.61391 0.01543 0.54192 0.0
S629 S 0.60801 0.93578 0.25005 0.0
N630 N 0.64158 0.95494 0.26415 0.0
N631 N 0.58614 0.94589 0.33074 0.0
C632 C 0.606 0.96573 0.37385 0.0
C633 C 0.63626 0.97055 0.33789 0.0
C634 C 0.55177 0.65651 0.49884 0.0
C635 C 0.55625 0.66255 0.41098 0.0
C636 C 0.54852 0.62662 0.52908 0.0
C637 C 0.54944 0.60142 0.47274 0.0
H638 H 0.55006 0.67503 0.54442 0.0
H639 H 0.54446 0.6233 0.5971 0.0
S640 S 0.56029 0.60495 0.23607 0.0
N641 N 0.56122 0.64072 0.26785 0.0
N642 N 0.5556 0.58492 0.32418 0.0
C643 C 0.55471 0.60725 0.38486 0.0
C644 C 0.55798 0.63765 0.35419 0.0
C645 C 0.87926 0.51765 0.46418 0.0
C646 C 0.87603 0.52304 0.37623 0.0
C647 C 0.9082 0.51661 0.50053 0.0
C648 C 0.93526 0.52096 0.4506 0.0
H649 H 0.85919 0.51365 0.50513 0.0
H650 H 0.90928 0.51189 0.56821 0.0
S651 S 0.93945 0.53485 0.2162 0.0
N652 N 0.90258 0.53209 0.23971 0.0
N653 N 0.95669 0.53072 0.30773 0.0
C654 C 0.93237 0.52696 0.36279 0.0
C655 C 0.9029 0.52786 0.32577 0.0
loop_
_geom_bond_atom_site_label_1
_geom_bond_atom_site_label_2
_geom_bond_distance
_geom_bond_site_symmetry_2
_ccdc_geom_bond_type
C0 C1 1.386 . S
C0 C2 1.397 . S
C0 H24 0.931 . S
C1 C0 1.386 . S
C1 C5 1.397 . S
C2 C0 1.397 . S
C2 C3 1.384 . S
C2 H25 0.930 . S
C3 C2 1.384 . S
C3 C4 1.377 . S
C3 C6 1.481 . S
C4 C3 1.377 . S
C4 C5 1.389 . S
C4 H26 0.929 . S
C5 C1 1.397 . S
C5 C4 1.389 . S
C5 H27 0.931 . S
C6 C3 1.481 . S
C6 C7 1.387 . S
C6 C11 1.390 1_556 S
C7 C6 1.387 . S
C7 C8 1.401 1_556 S
C7 H28 0.930 . S
C8 C7 1.401 1_554 S
C8 C9 1.376 . S
C8 C17 1.511 1_554 S
C9 C8 1.376 . S
C9 C10 1.392 . S
C9 H30 0.931 . S
C10 C9 1.392 . S
C10 C11 1.361 . S
C10 C12 1.500 . S
C11 C6 1.390 1_554 S
C11 C10 1.361 . S
C11 H29 0.931 . S
C12 C10 1.500 . S
C12 C13 1.371 . S
C12 C14 1.365 . S
C13 C12 1.371 . S
C13 C23 1.386 . S
C13 H31 0.931 . S
C14 C12 1.365 . S
C14 C15 1.409 . S
C14 H32 0.929 . S
C15 C14 1.409 . S
C15 C16 1.380 . S
C15 H33 0.930 . S
C16 C15 1.380 . S
C16 C23 1.357 . S
C17 C8 1.511 1_556 S
C17 C18 1.341 . S
C17 C19 1.371 1_556 S
C18 C17 1.341 . S
C18 C22 1.394 . S
C18 H34 0.930 . S
C19 C17 1.371 1_554 S
C19 C20 1.392 . S
C19 H35 0.931 . S
C20 C19 1.392 . S
C20 C21 1.331 1_554 S
C20 H38 0.932 . S
C21 C20 1.331 1_556 S
C21 C22 1.336 . S
C22 C18 1.394 . S
C22 C21 1.336 . S
C22 H37 0.929 . S
C23 C13 1.386 . S
C23 C16 1.357 . S
C23 H36 0.928 . S
H24 C0 0.931 . S
H25 C2 0.930 . S
H26 C4 0.929 . S
H27 C5 0.931 . S
H28 C7 0.930 . S
H29 C11 0.931 . S
H30 C9 0.931 . S
H31 C13 0.931 . S
H32 C14 0.929 . S
H33 C15 0.930 . S
H34 C18 0.930 . S
H35 C19 0.931 . S
H36 C23 0.928 . S
H37 C22 0.929 . S
H38 C20 0.932 . S
C39 C40 1.386 . S
C39 C41 1.397 . S
C39 H63 0.931 . S
C40 C39 1.386 . S
C40 C44 1.397 . S
C41 C39 1.397 . S
C41 C42 1.384 . S
C41 H64 0.930 . S
C42 C41 1.384 . S
C42 C43 1.377 . S
C42 C45 1.481 . S
C43 C42 1.377 . S
C43 C44 1.389 . S
C43 H65 0.929 . S
C44 C40 1.397 . S
C44 C43 1.389 . S
C44 H66 0.931 . S
C45 C42 1.481 . S
C45 C46 1.387 . S
C45 C50 1.390 1_556 S
C46 C45 1.387 . S
C46 C47 1.401 1_556 S
C46 H67 0.930 . S
C47 C46 1.401 1_554 S
C47 C48 1.376 . S
C47 C56 1.511 1_554 S
C48 C47 1.376 . S
C48 C49 1.392 . S
C48 H69 0.931 . S
C49 C48 1.392 . S
C49 C50 1.361 . S
C49 C51 1.500 . S
C50 C45 1.390 1_554 S
C50 C49 1.361 . S
C50 H68 0.931 . S
C51 C49 1.500 . S
C51 C52 1.371 . S
C51 C53 1.365 . S
C52 C51 1.371 . S
C52 C62 1.386 . S
C52 H70 0.931 . S
C53 C51 1.365 . S
C53 C54 1.409 . S
C53 H71 0.929 . S
C54 C53 1.409 . S
C54 C55 1.380 . S
C54 H72 0.930 . S
C55 C54 1.380 . S
C55 C62 1.357 . S
C56 C47 1.511 1_556 S
C56 C57 1.341 . S
C56 C58 1.371 1_556 S
C57 C56 1.341 . S
C57 C61 1.394 . S
C57 H73 0.930 . S
C58 C56 1.371 1_554 S
C58 C59 1.392 . S
C58 H74 0.931 . S
C59 C58 1.392 . S
C59 C60 1.331 1_554 S
C59 H77 0.932 . S
C60 C59 1.331 1_556 S
C60 C61 1.336 . S
C61 C57 1.394 . S
C61 C60 1.336 . S
C61 H76 0.929 . S
C62 C52 1.386 . S
C62 C55 1.357 . S
C62 H75 0.928 . S
H63 C39 0.931 . S
H64 C41 0.930 . S
H65 C43 0.929 . S
H66 C44 0.931 . S
H67 C46 0.930 . S
H68 C50 0.931 . S
H69 C48 0.931 . S
H70 C52 0.931 . S
H71 C53 0.929 . S
H72 C54 0.930 . S
H73 C57 0.930 . S
H74 C58 0.931 . S
H75 C62 0.928 . S
H76 C61 0.929 . S
H77 C59 0.932 . S
C78 C79 1.395 . S
C78 C80 1.397 . S
C78 H102 0.931 . S
C79 C78 1.395 . S
C79 C83 1.389 1_565 S
C80 C78 1.397 . S
C80 C81 1.389 . S
C80 H103 0.930 . S
C81 C80 1.389 . S
C81 C82 1.372 1_565 S
C81 C84 1.478 . S
C82 C81 1.372 1_545 S
C82 C83 1.389 . S
C82 H104 0.929 . S
C83 C79 1.389 1_545 S
C83 C82 1.389 . S
C83 H105 0.931 . S
C84 C81 1.478 . S
C84 C85 1.392 . S
C84 C89 1.390 1_556 S
C85 C84 1.392 . S
C85 C86 1.399 1_556 S
C85 H106 0.930 . S
C86 C85 1.399 1_554 S
C86 C87 1.376 . S
C86 C95 1.516 . S
C87 C86 1.376 . S
C87 C88 1.393 . S
C87 H108 0.931 . S
C88 C87 1.393 . S
C88 C89 1.362 . S
C88 C90 1.499 1_565 S
C89 C84 1.390 1_554 S
C89 C88 1.362 . S
C89 H107 0.930 . S
C90 C88 1.499 1_545 S
C90 C91 1.359 1_545 S
C90 C92 1.378 . S
C91 C90 1.359 1_565 S
C91 C101 1.386 . S
C91 H109 0.931 . S
C92 C90 1.378 . S
C92 C93 1.409 . S
C92 H110 0.929 . S
C93 C92 1.409 . S
C93 C94 1.380 . S
C93 H111 0.930 . S
C94 C93 1.380 . S
C94 C101 1.357 1_545 S
C95 C86 1.516 . S
C95 C96 1.341 1_554 S
C95 C97 1.371 1_565 S
C96 C95 1.341 1_556 S
C96 C100 1.394 . S
C96 H112 0.930 . S
C97 C95 1.371 1_545 S
C97 C98 1.392 . S
C97 H113 0.931 . S
C98 C97 1.392 . S
C98 C99 1.322 1_544 S
C98 H116 0.932 . S
C99 C98 1.322 1_566 S
C99 C100 1.343 . S
C100 C96 1.394 . S
C100 C99 1.343 . S
C100 H115 0.929 . S
C101 C91 1.386 . S
C101 C94 1.357 1_565 S
C101 H114 0.928 . S
H102 C78 0.931 . S
H103 C80 0.930 . S
H104 C82 0.929 . S
H105 C83 0.931 . S
H106 C85 0.930 . S
H107 C89 0.930 . S
H108 C87 0.931 . S
H109 C91 0.931 . S
H110 C92 0.929 . S
H111 C93 0.930 . S
H112 C96 0.930 . S
H113 C97 0.931 . S
H114 C101 0.928 . S
H115 C100 0.929 . S
H116 C98 0.932 . S
C117 C118 1.386 . S
C117 C119 1.397 . S
C117 H141 0.931 . S
C118 C117 1.386 . S
C118 C122 1.397 . S
C119 C117 1.397 . S
C119 C120 1.384 . S
C119 H142 0.930 . S
C120 C119 1.384 . S
C120 C121 1.377 . S
C120 C123 1.481 . S
C121 C120 1.377 . S
C121 C122 1.389 . S
C121 H143 0.929 . S
C122 C118 1.397 . S
C122 C121 1.389 . S
C122 H144 0.931 . S
C123 C120 1.481 . S
C123 C124 1.387 . S
C123 C128 1.390 . S
C124 C123 1.387 . S
C124 C125 1.401 . S
C124 H145 0.930 . S
C125 C124 1.401 . S
C125 C126 1.376 1_554 S
C125 C134 1.511 . S
C126 C125 1.376 1_556 S
C126 C127 1.392 1_556 S
C126 H147 0.931 . S
C127 C126 1.392 1_554 S
C127 C128 1.361 . S
C127 C129 1.500 1_554 S
C128 C123 1.390 . S
C128 C127 1.361 . S
C128 H146 0.931 . S
C129 C127 1.500 1_556 S
C129 C130 1.371 . S
C129 C131 1.365 . S
C130 C129 1.371 . S
C130 C140 1.386 . S
C130 H148 0.931 . S
C131 C129 1.365 . S
C131 C132 1.409 . S
C131 H149 0.929 . S
C132 C131 1.409 . S
C132 C133 1.380 . S
C132 H150 0.930 . S
C133 C132 1.380 . S
C133 C140 1.357 . S
C134 C125 1.511 . S
C134 C135 1.341 . S
C134 C136 1.371 1_554 S
C135 C134 1.341 . S
C135 C139 1.394 . S
C135 H151 0.930 . S
C136 C134 1.371 1_556 S
C136 C137 1.392 . S
C136 H152 0.931 . S
C137 C136 1.392 . S
C137 C138 1.331 . S
C137 H155 0.932 . S
C138 C137 1.331 . S
C138 C139 1.336 1_556 S
C139 C135 1.394 . S
C139 C138 1.336 1_554 S
C139 H154 0.929 . S
C140 C130 1.386 . S
C140 C133 1.357 . S
C140 H153 0.928 . S
H141 C117 0.931 . S
H142 C119 0.930 . S
H143 C121 0.929 . S
H144 C122 0.931 . S
H145 C124 0.930 . S
H146 C128 0.931 . S
H147 C126 0.931 . S
H148 C130 0.931 . S
H149 C131 0.929 . S
H150 C132 0.930 . S
H151 C135 0.930 . S
H152 C136 0.931 . S
H153 C140 0.928 . S
H154 C139 0.929 . S
H155 C137 0.932 . S
C156 C157 1.386 . S
C156 C158 1.397 . S
C156 H180 0.931 . S
C157 C156 1.386 . S
C157 C161 1.397 . S
C158 C156 1.397 . S
C158 C159 1.384 . S
C158 H181 0.930 . S
C159 C158 1.384 . S
C159 C160 1.377 . S
C159 C162 1.481 . S
C160 C159 1.377 . S
C160 C161 1.389 . S
C160 H182 0.929 . S
C161 C157 1.397 . S
C161 C160 1.389 . S
C161 H183 0.931 . S
C162 C159 1.481 . S
C162 C163 1.387 . S
C162 C167 1.390 . S
C163 C162 1.387 . S
C163 C164 1.401 . S
C163 H184 0.930 . S
C164 C163 1.401 . S
C164 C165 1.379 . S
C164 C173 1.511 . S
C165 C164 1.379 . S
C165 C166 1.392 1_554 S
C165 H186 0.929 1_554 S
C166 C165 1.392 1_556 S
C166 C167 1.361 1_556 S
C166 C168 1.500 . S
C167 C162 1.390 . S
C167 C166 1.361 1_554 S
C167 H185 0.931 . S
C168 C166 1.500 . S
C168 C169 1.371 . S
C168 C170 1.365 . S
C169 C168 1.371 . S
C169 C179 1.386 . S
C169 H187 0.931 . S
C170 C168 1.365 . S
C170 C171 1.409 . S
C170 H188 0.929 . S
C171 C170 1.409 . S
C171 C172 1.380 . S
C171 H189 0.930 . S
C172 C171 1.380 . S
C172 C179 1.357 . S
C173 C164 1.511 . S
C173 C174 1.341 . S
C173 C175 1.371 . S
C174 C173 1.341 . S
C174 C178 1.394 . S
C174 H190 0.930 . S
C175 C173 1.371 . S
C175 C176 1.392 . S
C175 H191 0.931 1_554 S
C176 C175 1.392 . S
C176 C177 1.331 . S
C176 H194 0.932 . S
C177 C176 1.331 . S
C177 C178 1.336 . S
C178 C174 1.394 . S
C178 C177 1.336 . S
C178 H193 0.929 . S
C179 C169 1.386 . S
C179 C172 1.357 . S
C179 H192 0.928 . S
H180 C156 0.931 . S
H181 C158 0.930 . S
H182 C160 0.929 . S
H183 C161 0.931 . S
H184 C163 0.930 . S
H185 C167 0.931 . S
H186 C165 0.929 1_556 S
H187 C169 0.931 . S
H188 C170 0.929 . S
H189 C171 0.930 . S
H190 C174 0.930 . S
H191 C175 0.931 1_556 S
H192 C179 0.928 . S
H193 C178 0.929 . S
H194 C176 0.932 . S
C195 C196 1.386 . S
C195 C197 1.397 . S
C195 H219 0.931 . S
C196 C195 1.386 . S
C196 C200 1.397 . S
C197 C195 1.397 . S
C197 C198 1.384 . S
C197 H220 0.930 . S
C198 C197 1.384 . S
C198 C199 1.377 . S
C198 C201 1.481 . S
C199 C198 1.377 . S
C199 C200 1.389 . S
C199 H221 0.929 . S
C200 C196 1.397 . S
C200 C199 1.389 . S
C200 H222 0.931 . S
C201 C198 1.481 . S
C201 C202 1.387 . S
C201 C206 1.390 . S
C202 C201 1.387 . S
C202 C203 1.401 . S
C202 H223 0.930 . S
C203 C202 1.401 . S
C203 C204 1.376 . S
C203 C212 1.511 . S
C204 C203 1.376 . S
C204 C205 1.392 1_554 S
C204 H225 0.931 1_554 S
C205 C204 1.392 1_556 S
C205 C206 1.361 1_556 S
C205 C207 1.500 . S
C206 C201 1.390 . S
C206 C205 1.361 1_554 S
C206 H224 0.931 . S
C207 C205 1.500 . S
C207 C208 1.371 . S
C207 C209 1.365 . S
C208 C207 1.371 . S
C208 C218 1.386 . S
C208 H226 0.931 . S
C209 C207 1.365 . S
C209 C210 1.409 . S
C209 H227 0.929 . S
C210 C209 1.409 . S
C210 C211 1.380 . S
C210 H228 0.930 . S
C211 C210 1.380 . S
C211 C218 1.357 . S
C212 C203 1.511 . S
C212 C213 1.341 . S
C212 C214 1.371 . S
C213 C212 1.341 . S
C213 C217 1.394 . S
C213 H229 0.930 . S
C214 C212 1.371 . S
C214 C215 1.392 . S
C214 H230 0.931 . S
C215 C214 1.392 . S
C215 C216 1.331 . S
C215 H233 0.932 . S
C216 C215 1.331 . S
C216 C217 1.336 . S
C217 C213 1.394 . S
C217 C216 1.336 . S
C217 H232 0.929 . S
C218 C208 1.386 . S
C218 C211 1.357 . S
C218 H231 0.928 . S
H219 C195 0.931 . S
H220 C197 0.930 . S
H221 C199 0.929 . S
H222 C200 0.931 . S
H223 C202 0.930 . S
H224 C206 0.931 . S
H225 C204 0.931 1_556 S
H226 C208 0.931 . S
H227 C209 0.929 . S
H228 C210 0.930 . S
H229 C213 0.930 . S
H230 C214 0.931 . S
H231 C218 0.928 . S
H232 C217 0.929 . S
H233 C215 0.932 . S
C234 C235 1.389 . S
C234 C236 1.397 . S
C234 H258 0.931 . S
C235 C234 1.389 . S
C235 C239 1.394 1_565 S
C236 C234 1.397 . S
C236 C237 1.383 . S
C236 H259 0.930 . S
C237 C236 1.383 . S
C237 C238 1.378 1_565 S
C237 C240 1.483 . S
C238 C237 1.378 1_545 S
C238 C239 1.389 . S
C238 H260 0.929 . S
C239 C235 1.394 1_545 S
C239 C238 1.389 . S
C239 H261 0.931 . S
C240 C237 1.483 . S
C240 C241 1.386 . S
C240 C245 1.390 . S
C241 C240 1.386 . S
C241 C242 1.404 . S
C241 H262 0.930 . S
C242 C241 1.404 . S
C242 C243 1.376 1_554 S
C242 C251 1.510 . S
C243 C242 1.376 1_556 S
C243 C244 1.395 . S
C243 H264 0.930 . S
C244 C243 1.395 . S
C244 C245 1.360 1_556 S
C244 C246 1.499 1_565 S
C245 C240 1.390 . S
C245 C244 1.360 1_554 S
C245 H263 0.932 . S
C246 C244 1.499 1_545 S
C246 C247 1.359 1_545 S
C246 C248 1.378 . S
C247 C246 1.359 1_565 S
C247 C257 1.386 . S
C247 H265 0.931 . S
C248 C246 1.378 . S
C248 C249 1.409 . S
C248 H266 0.929 . S
C249 C248 1.409 . S
C249 C250 1.384 . S
C249 H267 0.930 . S
C250 C249 1.384 . S
C250 C257 1.354 1_545 S
C251 C242 1.510 . S
C251 C252 1.341 . S
C251 C253 1.371 1_565 S
C252 C251 1.341 . S
C252 C256 1.394 . S
C252 H268 0.930 . S
C253 C251 1.371 1_545 S
C253 C254 1.392 . S
C253 H269 0.931 1_554 S
C254 C253 1.392 . S
C254 C255 1.325 1_545 S
C254 H272 0.932 . S
C255 C254 1.325 1_565 S
C255 C256 1.344 . S
C256 C252 1.394 . S
C256 C255 1.344 . S
C256 H271 0.929 . S
C257 C247 1.386 . S
C257 C250 1.354 1_565 S
C257 H270 0.928 . S
H258 C234 0.931 . S
H259 C236 0.930 . S
H260 C238 0.929 . S
H261 C239 0.931 . S
H262 C241 0.930 . S
H263 C245 0.932 . S
H264 C243 0.930 . S
H265 C247 0.931 . S
H266 C248 0.929 . S
H267 C249 0.930 . S
H268 C252 0.930 . S
H269 C253 0.931 1_556 S
H270 C257 0.928 . S
H271 C256 0.929 . S
H272 C254 0.932 . S
C273 C274 1.386 . S
C273 C275 1.397 . S
C273 H297 0.931 . S
C274 C273 1.386 . S
C274 C278 1.397 . S
C275 C273 1.397 . S
C275 C276 1.384 . S
C275 H298 0.930 . S
C276 C275 1.384 . S
C276 C277 1.377 . S
C276 C279 1.481 . S
C277 C276 1.377 . S
C277 C278 1.389 . S
C277 H299 0.929 . S
C278 C274 1.397 . S
C278 C277 1.389 . S
C278 H300 0.931 . S
C279 C276 1.481 . S
C279 C280 1.387 . S
C279 C284 1.390 1_556 S
C280 C279 1.387 . S
C280 C281 1.401 1_556 S
C280 H301 0.930 . S
C281 C280 1.401 1_554 S
C281 C282 1.376 . S
C281 C290 1.511 . S
C282 C281 1.376 . S
C282 C283 1.392 . S
C282 H303 0.931 . S
C283 C282 1.392 . S
C283 C284 1.361 . S
C283 C285 1.500 . S
C284 C279 1.390 1_554 S
C284 C283 1.361 . S
C284 H302 0.931 1_554 S
C285 C283 1.500 . S
C285 C286 1.371 . S
C285 C287 1.365 . S
C286 C285 1.371 . S
C286 C296 1.386 . S
C286 H304 0.931 . S
C287 C285 1.365 . S
C287 C288 1.409 . S
C287 H305 0.929 . S
C288 C287 1.409 . S
C288 C289 1.380 . S
C288 H306 0.930 . S
C289 C288 1.380 . S
C289 C296 1.357 . S
C290 C281 1.511 . S
C290 C291 1.341 . S
C290 C292 1.371 . S
C291 C290 1.341 . S
C291 C295 1.394 . S
C291 H307 0.930 1_554 S
C292 C290 1.371 . S
C292 C293 1.392 . S
C292 H308 0.931 . S
C293 C292 1.392 . S
C293 C294 1.331 . S
C293 H311 0.932 . S
C294 C293 1.331 . S
C294 C295 1.336 . S
C295 C291 1.394 . S
C295 C294 1.336 . S
C295 H310 0.929 1_554 S
C296 C286 1.386 . S
C296 C289 1.357 . S
C296 H309 0.928 . S
H297 C273 0.931 . S
H298 C275 0.930 . S
H299 C277 0.929 . S
H300 C278 0.931 . S
H301 C280 0.930 . S
H302 C284 0.931 1_556 S
H303 C282 0.931 . S
H304 C286 0.931 . S
H305 C287 0.929 . S
H306 C288 0.930 . S
H307 C291 0.930 1_556 S
H308 C292 0.931 . S
H309 C296 0.928 . S
H310 C295 0.929 1_556 S
H311 C293 0.932 . S
Dy312 O316 2.398 . S
Dy312 O317 2.491 1_455 S
Dy312 O318 2.403 . S
Dy312 O319 2.664 1_565 S
Dy312 O323 2.326 . S
Dy312 O327 2.310 1_455 S
Dy312 O328 2.351 1_565 S
C313 O324 1.185 1_455 S
C313 O325 1.355 . S
C314 O316 1.185 . S
C314 O317 1.355 1_455 S
Dy315 O319 2.310 1_655 S
Dy315 O322 2.351 1_545 S
Dy315 O324 2.398 . S
Dy315 O325 2.491 1_655 S
Dy315 O326 2.403 . S
Dy315 O327 2.664 1_545 S
Dy315 O329 2.326 1_655 S
O316 Dy312 2.398 . S
O316 C314 1.185 . S
O317 Dy312 2.491 1_655 S
O317 C314 1.355 1_655 S
O318 Dy312 2.403 . S
O318 C320 1.254 . S
O319 Dy312 2.664 1_545 S
O319 Dy315 2.310 1_455 S
O319 C320 1.268 1_545 S
C320 O318 1.254 . S
C320 O319 1.268 1_565 S
C321 O326 1.254 . S
C321 O327 1.268 1_545 S
O322 Dy315 2.351 1_565 S
O322 C330 1.249 . S
O323 Dy312 2.326 . S
O323 C330 1.267 1_455 S
O324 C313 1.185 1_655 S
O324 Dy315 2.398 . S
O325 C313 1.355 . S
O325 Dy315 2.491 1_455 S
O326 Dy315 2.403 . S
O326 C321 1.254 . S
O327 Dy312 2.310 1_655 S
O327 Dy315 2.664 1_565 S
O327 C321 1.268 1_565 S
O328 Dy312 2.351 1_545 S
O328 C331 1.249 . S
O329 Dy315 2.326 1_455 S
O329 C331 1.267 . S
C330 O322 1.249 . S
C330 O323 1.267 1_655 S
C331 O328 1.249 . S
C331 O329 1.267 . S
Dy332 O336 2.398 . S
Dy332 O337 2.491 . S
Dy332 O338 2.403 . S
Dy332 O339 2.664 . S
Dy332 O343 2.326 1_565 S
Dy332 O347 2.310 1_565 S
Dy332 O348 2.351 . S
C333 O344 1.185 . S
C333 O345 1.355 . S
C334 O336 1.185 . S
C334 O337 1.355 . S
Dy335 O339 2.310 1_545 S
Dy335 O342 2.351 . S
Dy335 O344 2.398 . S
Dy335 O345 2.491 . S
Dy335 O346 2.403 . S
Dy335 O347 2.664 . S
Dy335 O349 2.326 1_545 S
O336 Dy332 2.398 . S
O336 C334 1.185 . S
O337 Dy332 2.491 . S
O337 C334 1.355 . S
O338 Dy332 2.403 . S
O338 C340 1.254 . S
O339 Dy332 2.664 . S
O339 Dy335 2.310 1_565 S
O339 C340 1.268 . S
C340 O338 1.254 . S
C340 O339 1.268 . S
C341 O346 1.254 . S
C341 O347 1.268 . S
O342 Dy335 2.351 . S
O342 C350 1.249 . S
O343 Dy332 2.326 1_545 S
O343 C350 1.267 . S
O344 C333 1.185 . S
O344 Dy335 2.398 . S
O345 C333 1.355 . S
O345 Dy335 2.491 . S
O346 Dy335 2.403 . S
O346 C341 1.254 . S
O347 Dy332 2.310 1_545 S
O347 Dy335 2.664 . S
O347 C341 1.268 . S
O348 Dy332 2.351 . S
O348 C351 1.249 . S
O349 Dy335 2.326 1_565 S
O349 C351 1.267 . S
C350 O342 1.249 . S
C350 O343 1.267 . S
C351 O348 1.249 . S
C351 O349 1.267 . S
Dy352 O356 2.398 . S
Dy352 O357 2.491 . S
Dy352 O358 2.403 . S
Dy352 O359 2.664 . S
Dy352 O363 2.326 . S
Dy352 O367 2.310 . S
Dy352 O368 2.351 . S
C353 O364 1.185 . S
C353 O365 1.355 . S
C354 O356 1.185 . S
C354 O357 1.355 . S
Dy355 O359 2.310 . S
Dy355 O362 2.351 . S
Dy355 O364 2.398 . S
Dy355 O365 2.491 . S
Dy355 O366 2.403 . S
Dy355 O367 2.664 . S
Dy355 O369 2.326 . S
O356 Dy352 2.398 . S
O356 C354 1.185 . S
O357 Dy352 2.491 . S
O357 C354 1.355 . S
O358 Dy352 2.403 . S
O358 C360 1.254 . S
O359 Dy352 2.664 . S
O359 Dy355 2.310 . S
O359 C360 1.268 . S
C360 O358 1.254 . S
C360 O359 1.268 . S
C361 O366 1.254 . S
C361 O367 1.268 . S
O362 Dy355 2.351 . S
O362 C370 1.249 . S
O363 Dy352 2.326 . S
O363 C370 1.267 . S
O364 C353 1.185 . S
O364 Dy355 2.398 . S
O365 C353 1.355 . S
O365 Dy355 2.491 . S
O366 Dy355 2.403 . S
O366 C361 1.254 . S
O367 Dy352 2.310 . S
O367 Dy355 2.664 . S
O367 C361 1.268 . S
O368 Dy352 2.351 . S
O368 C371 1.249 . S
O369 Dy355 2.326 . S
O369 C371 1.267 . S
C370 O362 1.249 . S
C370 O363 1.267 . S
C371 O368 1.249 . S
C371 O369 1.267 . S
Dy372 O376 2.398 . S
Dy372 O377 2.491 . S
Dy372 O378 2.407 . S
Dy372 O379 2.664 1_655 S
Dy372 O383 2.326 . S
Dy372 O387 2.310 . S
Dy372 O388 2.351 1_655 S
C373 O384 1.185 . S
C373 O385 1.355 . S
C374 O376 1.185 . S
C374 O377 1.355 . S
Dy375 O379 2.310 . S
Dy375 O382 2.351 1_455 S
Dy375 O384 2.398 . S
Dy375 O385 2.491 . S
Dy375 O386 2.403 . S
Dy375 O387 2.664 1_455 S
Dy375 O389 2.326 . S
O376 Dy372 2.398 . S
O376 C374 1.185 . S
O377 Dy372 2.491 . S
O377 C374 1.355 . S
O378 Dy372 2.407 . S
O378 C380 1.248 1_655 S
O379 Dy372 2.664 1_455 S
O379 Dy375 2.310 . S
O379 C380 1.268 . S
C380 O378 1.248 1_455 S
C380 O379 1.268 . S
C381 O386 1.254 1_655 S
C381 O387 1.268 . S
O382 Dy375 2.351 1_655 S
O382 C390 1.249 . S
O383 Dy372 2.326 . S
O383 C390 1.267 . S
O384 C373 1.185 . S
O384 Dy375 2.398 . S
O385 C373 1.355 . S
O385 Dy375 2.491 . S
O386 Dy375 2.403 . S
O386 C381 1.254 1_455 S
O387 Dy372 2.310 . S
O387 Dy375 2.664 1_655 S
O387 C381 1.268 . S
O388 Dy372 2.351 1_455 S
O388 C391 1.249 . S
O389 Dy375 2.326 . S
O389 C391 1.267 . S
C390 O382 1.249 . S
C390 O383 1.267 . S
C391 O388 1.249 . S
C391 O389 1.267 . S
C392 C393 1.382 . S
C392 C394 1.419 . S
C392 H396 0.930 . S
C393 C392 1.382 . S
C393 C402 1.416 1_565 S
C394 C392 1.419 . S
C394 C395 1.363 . S
C394 H397 0.929 . S
C395 C394 1.363 . S
C395 C401 1.428 1_565 S
H396 C392 0.930 . S
H397 C394 0.929 . S
S398 N399 1.613 . S
S398 N400 1.610 . S
N399 S398 1.613 . S
N399 C402 1.350 . S
N400 S398 1.610 . S
N400 C401 1.351 . S
C401 C395 1.428 1_545 S
C401 N400 1.351 . S
C401 C402 1.434 . S
C402 C393 1.416 1_545 S
C402 N399 1.350 . S
C402 C401 1.434 . S
C403 C404 1.369 . S
C403 C405 1.419 . S
C403 H407 0.930 . S
C404 C403 1.369 . S
C404 C413 1.429 . S
C405 C403 1.419 . S
C405 C406 1.363 . S
C405 H408 0.929 . S
C406 C405 1.363 . S
C406 C412 1.428 . S
H407 C403 0.930 . S
H408 C405 0.929 . S
S409 N410 1.613 . S
S409 N411 1.610 . S
N410 S409 1.613 . S
N410 C413 1.350 . S
N411 S409 1.610 . S
N411 C412 1.351 . S
C412 C406 1.428 . S
C412 N411 1.351 . S
C412 C413 1.434 . S
C413 C404 1.429 . S
C413 N410 1.350 . S
C413 C412 1.434 . S
C414 C415 1.369 . S
C414 C416 1.419 . S
C414 H418 0.930 . S
C415 C414 1.369 . S
C415 C424 1.429 . S
C416 C414 1.419 . S
C416 C417 1.363 . S
C416 H419 0.929 . S
C417 C416 1.363 . S
C417 C423 1.428 . S
H418 C414 0.930 . S
H419 C416 0.929 . S
S420 N421 1.613 . S
S420 N422 1.610 . S
N421 S420 1.613 . S
N421 C424 1.350 . S
N422 S420 1.610 . S
N422 C423 1.351 . S
C423 C417 1.428 . S
C423 N422 1.351 . S
C423 C424 1.434 . S
C424 C415 1.429 . S
C424 N421 1.350 . S
C424 C423 1.434 . S
C425 C426 1.369 . S
C425 C427 1.419 . S
C425 H429 0.930 . S
C426 C425 1.369 . S
C426 C435 1.429 . S
C427 C425 1.419 . S
C427 C428 1.363 . S
C427 H430 0.929 . S
C428 C427 1.363 . S
C428 C434 1.428 . S
H429 C425 0.930 . S
H430 C427 0.929 . S
S431 N432 1.613 . S
S431 N433 1.610 . S
N432 S431 1.613 . S
N432 C435 1.350 . S
N433 S431 1.610 . S
N433 C434 1.351 . S
C434 C428 1.428 . S
C434 N433 1.351 . S
C434 C435 1.434 . S
C435 C426 1.429 . S
C435 N432 1.350 . S
C435 C434 1.434 . S
C436 C437 1.369 1_565 S
C436 C438 1.419 . S
C436 H440 0.930 . S
C437 C436 1.369 1_545 S
C437 C446 1.429 . S
C438 C436 1.419 . S
C438 C439 1.363 1_565 S
C438 H441 0.929 . S
C439 C438 1.363 1_545 S
C439 C445 1.428 . S
H440 C436 0.930 . S
H441 C438 0.929 . S
S442 N443 1.613 . S
S442 N444 1.610 . S
N443 S442 1.613 . S
N443 C446 1.350 . S
N444 S442 1.610 . S
N444 C445 1.351 . S
C445 C439 1.428 . S
C445 N444 1.351 . S
C445 C446 1.434 . S
C446 C437 1.429 . S
C446 N443 1.350 . S
C446 C445 1.434 . S
C447 C448 1.369 . S
C447 C449 1.419 . S
C447 H451 0.930 . S
C448 C447 1.369 . S
C448 C457 1.429 . S
C449 C447 1.419 . S
C449 C450 1.363 . S
C449 H452 0.929 . S
C450 C449 1.363 . S
C450 C456 1.428 . S
H451 C447 0.930 . S
H452 C449 0.929 . S
S453 N454 1.613 . S
S453 N455 1.610 . S
N454 S453 1.613 . S
N454 C457 1.350 . S
N455 S453 1.610 . S
N455 C456 1.351 . S
C456 C450 1.428 . S
C456 N455 1.351 . S
C456 C457 1.434 . S
C457 C448 1.429 . S
C457 N454 1.350 . S
C457 C456 1.434 . S
C458 C459 1.369 . S
C458 C460 1.419 . S
C458 H462 0.930 . S
C459 C458 1.369 . S
C459 C468 1.429 . S
C460 C458 1.419 . S
C460 C461 1.363 . S
C460 H463 0.929 . S
C461 C460 1.363 . S
C461 C467 1.428 . S
H462 C458 0.930 . S
H463 C460 0.929 . S
S464 N465 1.613 . S
S464 N466 1.610 . S
N465 S464 1.613 . S
N465 C468 1.350 . S
N466 S464 1.610 . S
N466 C467 1.351 . S
C467 C461 1.428 . S
C467 N466 1.351 . S
C467 C468 1.434 . S
C468 C459 1.429 . S
C468 N465 1.350 . S
C468 C467 1.434 . S
C469 C470 1.369 . S
C469 C471 1.419 . S
C469 H473 0.930 . S
C470 C469 1.369 . S
C470 C479 1.429 . S
C471 C469 1.419 . S
C471 C472 1.363 . S
C471 H474 0.929 . S
C472 C471 1.363 . S
C472 C478 1.428 . S
H473 C469 0.930 . S
H474 C471 0.929 . S
S475 N476 1.613 1_455 S
S475 N477 1.610 . S
N476 S475 1.613 1_655 S
N476 C479 1.350 . S
N477 S475 1.610 . S
N477 C478 1.351 1_455 S
C478 C472 1.428 . S
C478 N477 1.351 1_655 S
C478 C479 1.434 . S
C479 C470 1.429 . S
C479 N476 1.350 . S
C479 C478 1.434 . S
C480 C481 1.369 . S
C480 C482 1.419 . S
C480 H484 0.930 . S
C481 C480 1.369 . S
C481 C490 1.429 . S
C482 C480 1.419 . S
C482 C483 1.363 . S
C482 H485 0.929 . S
C483 C482 1.363 . S
C483 C489 1.428 . S
H484 C480 0.930 . S
H485 C482 0.929 . S
S486 N487 1.613 . S
S486 N488 1.610 1_455 S
N487 S486 1.613 . S
N487 C490 1.350 . S
N488 S486 1.610 1_655 S
N488 C489 1.351 1_655 S
C489 C483 1.428 . S
C489 N488 1.351 1_455 S
C489 C490 1.434 . S
C490 C481 1.429 . S
C490 N487 1.350 . S
C490 C489 1.434 . S
C491 C492 1.352 1_565 S
C491 C493 1.419 . S
C491 H495 0.930 . S
C492 C491 1.352 1_545 S
C492 C501 1.439 . S
C493 C491 1.419 . S
C493 C494 1.363 . S
C493 H496 0.929 . S
C494 C493 1.363 . S
C494 C500 1.428 1_565 S
H495 C491 0.930 . S
H496 C493 0.929 . S
S497 N498 1.613 . S
S497 N499 1.610 . S
N498 S497 1.613 . S
N498 C501 1.350 . S
N499 S497 1.610 . S
N499 C500 1.351 . S
C500 C494 1.428 1_545 S
C500 N499 1.351 . S
C500 C501 1.434 . S
C501 C492 1.439 . S
C501 N498 1.350 . S
C501 C500 1.434 . S
C502 C503 1.369 . S
C502 C504 1.419 . S
C502 H506 0.930 . S
C503 C502 1.369 . S
C503 C512 1.429 . S
C504 C502 1.419 . S
C504 C505 1.363 . S
C504 H507 0.929 . S
C505 C504 1.363 . S
C505 C511 1.428 . S
H506 C502 0.930 . S
H507 C504 0.929 . S
S508 N509 1.613 . S
S508 N510 1.610 . S
N509 S508 1.613 . S
N509 C512 1.350 . S
N510 S508 1.610 . S
N510 C511 1.351 . S
C511 C505 1.428 . S
C511 N510 1.351 . S
C511 C512 1.434 . S
C512 C503 1.429 . S
C512 N509 1.350 . S
C512 C511 1.434 . S
C513 C514 1.369 . S
C513 C515 1.419 . S
C513 H517 0.930 . S
C514 C513 1.369 . S
C514 C523 1.429 . S
C515 C513 1.419 . S
C515 C516 1.363 . S
C515 H518 0.929 . S
C516 C515 1.363 . S
C516 C522 1.428 . S
H517 C513 0.930 . S
H518 C515 0.929 . S
S519 N520 1.613 . S
S519 N521 1.610 . S
N520 S519 1.613 . S
N520 C523 1.350 . S
N521 S519 1.610 . S
N521 C522 1.351 . S
C522 C516 1.428 . S
C522 N521 1.351 . S
C522 C523 1.434 . S
C523 C514 1.429 . S
C523 N520 1.350 . S
C523 C522 1.434 . S
C524 C525 1.369 . S
C524 C526 1.419 . S
C524 H528 0.930 . S
C525 C524 1.369 . S
C525 C534 1.429 . S
C526 C524 1.419 . S
C526 C527 1.363 . S
C526 H529 0.929 . S
C527 C526 1.363 . S
C527 C533 1.428 . S
H528 C524 0.930 . S
H529 C526 0.929 . S
S530 N531 1.613 1_455 S
S530 N532 1.610 . S
N531 S530 1.613 1_655 S
N531 C534 1.350 . S
N532 S530 1.610 . S
N532 C533 1.351 1_455 S
C533 C527 1.428 . S
C533 N532 1.351 1_655 S
C533 C534 1.434 . S
C534 C525 1.429 . S
C534 N531 1.350 . S
C534 C533 1.434 . S
C535 C536 1.369 1_565 S
C535 C537 1.419 1_565 S
C535 H539 0.930 . S
C536 C535 1.369 1_545 S
C536 C545 1.429 . S
C537 C535 1.419 1_545 S
C537 C538 1.363 . S
C537 H540 0.929 1_545 S
C538 C537 1.363 . S
C538 C544 1.428 . S
H539 C535 0.930 . S
H540 C537 0.929 1_565 S
S541 N542 1.613 . S
S541 N543 1.610 . S
N542 S541 1.613 . S
N542 C545 1.350 . S
N543 S541 1.610 . S
N543 C544 1.351 . S
C544 C538 1.428 . S
C544 N543 1.351 . S
C544 C545 1.434 . S
C545 C536 1.429 . S
C545 N542 1.350 . S
C545 C544 1.434 . S
C546 C547 1.369 . S
C546 C548 1.419 . S
C546 H550 0.930 . S
C547 C546 1.369 . S
C547 C556 1.429 . S
C548 C546 1.419 . S
C548 C549 1.363 . S
C548 H551 0.929 . S
C549 C548 1.363 . S
C549 C555 1.428 . S
H550 C546 0.930 . S
H551 C548 0.929 . S
S552 N553 1.613 . S
S552 N554 1.610 . S
N553 S552 1.613 . S
N553 C556 1.350 . S
N554 S552 1.610 . S
N554 C555 1.351 . S
C555 C549 1.428 . S
C555 N554 1.351 . S
C555 C556 1.434 . S
C556 C547 1.429 . S
C556 N553 1.350 . S
C556 C555 1.434 . S
C557 C558 1.369 . S
C557 C559 1.419 . S
C557 H561 0.930 . S
C558 C557 1.369 . S
C558 C567 1.429 . S
C559 C557 1.419 . S
C559 C560 1.363 . S
C559 H562 0.929 . S
C560 C559 1.363 . S
C560 C566 1.428 . S
H561 C557 0.930 . S
H562 C559 0.929 . S
S563 N564 1.613 . S
S563 N565 1.610 . S
N564 S563 1.613 . S
N564 C567 1.350 . S
N565 S563 1.610 . S
N565 C566 1.351 . S
C566 C560 1.428 . S
C566 N565 1.351 . S
C566 C567 1.434 . S
C567 C558 1.429 . S
C567 N564 1.350 . S
C567 C566 1.434 . S
C568 C569 1.369 . S
C568 C570 1.419 . S
C568 H572 0.930 . S
C569 C568 1.369 . S
C569 C578 1.429 . S
C570 C568 1.419 . S
C570 C571 1.363 . S
C570 H573 0.929 . S
C571 C570 1.363 . S
C571 C577 1.428 . S
H572 C568 0.930 . S
H573 C570 0.929 . S
S574 N575 1.592 1_655 S
S574 N576 1.599 1_655 S
N575 S574 1.592 1_455 S
N575 C578 1.350 . S
N576 S574 1.599 1_455 S
N576 C577 1.351 . S
C577 C571 1.428 . S
C577 N576 1.351 . S
C577 C578 1.434 . S
C578 C569 1.429 . S
C578 N575 1.350 . S
C578 C577 1.434 . S
C579 C580 1.369 1_565 S
C579 C581 1.419 . S
C579 H583 0.930 . S
C580 C579 1.369 1_545 S
C580 C589 1.429 . S
C581 C579 1.419 . S
C581 C582 1.363 1_565 S
C581 H584 0.929 . S
C582 C581 1.363 1_545 S
C582 C588 1.428 . S
H583 C579 0.930 . S
H584 C581 0.929 . S
S585 N586 1.613 . S
S585 N587 1.610 . S
N586 S585 1.613 . S
N586 C589 1.350 . S
N587 S585 1.610 . S
N587 C588 1.351 . S
C588 C582 1.428 . S
C588 N587 1.351 . S
C588 C589 1.434 . S
C589 C580 1.429 . S
C589 N586 1.350 . S
C589 C588 1.434 . S
C590 C591 1.369 . S
C590 C592 1.419 . S
C590 H594 0.930 . S
C591 C590 1.369 . S
C591 C600 1.429 . S
C592 C590 1.419 . S
C592 C593 1.363 . S
C592 H595 0.929 . S
C593 C592 1.363 . S
C593 C599 1.428 . S
H594 C590 0.930 . S
H595 C592 0.929 . S
S596 N597 1.613 . S
S596 N598 1.610 . S
N597 S596 1.613 . S
N597 C600 1.350 . S
N598 S596 1.610 . S
N598 C599 1.351 . S
C599 C593 1.428 . S
C599 N598 1.351 . S
C599 C600 1.434 . S
C600 C591 1.429 . S
C600 N597 1.350 . S
C600 C599 1.434 . S
C601 C602 1.369 . S
C601 C603 1.419 . S
C601 H605 0.930 . S
C602 C601 1.369 . S
C602 C611 1.429 . S
C603 C601 1.419 . S
C603 C604 1.363 . S
C603 H606 0.929 . S
C604 C603 1.363 . S
C604 C610 1.428 . S
H605 C601 0.930 . S
H606 C603 0.929 . S
S607 N608 1.613 . S
S607 N609 1.610 . S
N608 S607 1.613 . S
N608 C611 1.350 . S
N609 S607 1.610 . S
N609 C610 1.351 . S
C610 C604 1.428 . S
C610 N609 1.351 . S
C610 C611 1.434 . S
C611 C602 1.429 . S
C611 N608 1.350 . S
C611 C610 1.434 . S
C612 C613 1.369 . S
C612 C614 1.419 . S
C612 H616 0.930 . S
C613 C612 1.369 . S
C613 C622 1.429 . S
C614 C612 1.419 . S
C614 C615 1.363 . S
C614 H617 0.929 1_655 S
C615 C614 1.363 . S
C615 C621 1.428 . S
H616 C612 0.930 . S
H617 C614 0.929 1_455 S
S618 N619 1.613 . S
S618 N620 1.610 . S
N619 S618 1.613 . S
N619 C622 1.350 . S
N620 S618 1.610 . S
N620 C621 1.351 . S
C621 C615 1.428 . S
C621 N620 1.351 . S
C621 C622 1.434 . S
C622 C613 1.429 . S
C622 N619 1.350 . S
C622 C621 1.434 . S
C623 C624 1.369 1_545 S
C623 C625 1.419 . S
C623 H627 0.930 . S
C624 C623 1.369 1_565 S
C624 C633 1.429 . S
C625 C623 1.419 . S
C625 C626 1.363 1_545 S
C625 H628 0.929 . S
C626 C625 1.363 1_565 S
C626 C632 1.428 . S
H627 C623 0.930 . S
H628 C625 0.929 . S
S629 N630 1.613 . S
S629 N631 1.610 . S
N630 S629 1.613 . S
N630 C633 1.350 . S
N631 S629 1.610 . S
N631 C632 1.351 . S
C632 C626 1.428 . S
C632 N631 1.351 . S
C632 C633 1.434 . S
C633 C624 1.429 . S
C633 N630 1.350 . S
C633 C632 1.434 . S
C634 C635 1.369 . S
C634 C636 1.419 . S
C634 H638 0.930 . S
C635 C634 1.369 . S
C635 C644 1.429 . S
C636 C634 1.419 . S
C636 C637 1.363 . S
C636 H639 0.929 . S
C637 C636 1.363 . S
C637 C643 1.428 . S
H638 C634 0.930 . S
H639 C636 0.929 . S
S640 N641 1.613 . S
S640 N642 1.610 . S
N641 S640 1.613 . S
N641 C644 1.350 . S
N642 S640 1.610 . S
N642 C643 1.351 . S
C643 C637 1.428 . S
C643 N642 1.351 . S
C643 C644 1.434 . S
C644 C635 1.429 . S
C644 N641 1.350 . S
C644 C643 1.434 . S
C645 C646 1.369 . S
C645 C647 1.419 . S
C645 H649 0.930 . S
C646 C645 1.369 . S
C646 C655 1.429 . S
C647 C645 1.419 . S
C647 C648 1.363 . S
C647 H650 0.929 . S
C648 C647 1.363 . S
C648 C654 1.428 . S
H649 C645 0.930 . S
H650 C647 0.929 . S
S651 N652 1.613 . S
S651 N653 1.610 . S
N652 S651 1.613 . S
N652 C655 1.350 . S
N653 S651 1.610 . S
N653 C654 1.351 . S
C654 C648 1.428 . S
C654 N653 1.351 . S
C654 C655 1.434 . S
C655 C646 1.429 . S
C655 N652 1.350 . S
C655 C654 1.434 . S
C393 C255 1.884 . S
C395 C320 2.031 . S
C406 C350 2.517 . S
C404 C294 2.342 . S
C417 C360 2.138 . S
C415 C177 1.983 . S
C428 C380 2.067 . S
C426 C216 1.841 . S
C439 C321 2.031 . S
C437 C99 1.879 1_545 S
C448 C138 2.327 . S
C450 C351 2.515 . S
C459 C21 1.967 . S
C461 C361 2.136 . S
C470 C60 1.852 . S
C472 C381 2.069 . S
C483 C313 1.177 . S
C481 C196 1.084 . S
C494 C334 0.723 . S
C492 C235 0.710 1_545 S
C505 C353 1.406 . S
C503 C289 1.275 . S
C514 C157 0.809 . S
C516 C373 0.815 . S
C525 C40 1.085 . S
C527 C314 1.183 1_655 S
C538 C333 0.706 . S
C536 C79 0.728 1_545 S
C549 C354 1.401 . S
C547 C133 1.284 . S
C558 C1 0.805 . S
C560 C374 0.816 . S
C569 C211 2.359 . S
C571 C331 2.686 . S
C580 C250 2.065 . S
C582 C341 2.430 . S
C593 C371 2.921 . S
C591 C274 2.556 . S
C604 C391 2.780 . S
C602 C172 2.469 . S
C613 C55 2.359 . S
C615 C330 2.694 . S
C626 C340 2.430 . S
C624 C94 2.061 1_565 S
C637 C370 2.922 . S
C635 C118 2.546 . S
C646 C16 2.468 . S
C648 C390 2.782 . S
