# Generated by pormake.
# Topology sqc, (4,8)-cn, num edge types: 1
# Building blocks:
#     Node 0, Type 0, BuildingBlock: KUFVIS_clean_linker_0, # of connection points: 4
#     Node 1, Type 0, BuildingBlock: KUFVIS_clean_linker_0, # of connection points: 4
#     Node 2, Type 0, BuildingBlock: KUFVIS_clean_linker_0, # of connection points: 4
#     Node 3, Type 0, BuildingBlock: KUFVIS_clean_linker_0, # of connection points: 4
#     Node 4, Type 0, BuildingBlock: KUFVIS_clean_linker_0, # of connection points: 4
#     Node 5, Type 0, BuildingBlock: KUFVIS_clean_linker_0, # of connection points: 4
#     Node 6, Type 0, BuildingBlock: KUFVIS_clean_linker_0, # of connection points: 4
#     Node 7, Type 0, BuildingBlock: KUFVIS_clean_linker_0, # of connection points: 4
#     Node 8, Type 1, BuildingBlock: TAGTUT_clean_sbu_3, # of connection points: 8
#     Node 9, Type 1, BuildingBlock: TAGTUT_clean_sbu_3, # of connection points: 8
#     Node 10, Type 1, BuildingBlock: TAGTUT_clean_sbu_3, # of connection points: 8
#     Node 11, Type 1, BuildingBlock: TAGTUT_clean_sbu_3, # of connection points: 8
#     Edge 12, Type (0, 1), BuildingBlock: KIFKEQ_clean_linker_1, # of connection points: 2
#     Edge 13, Type (0, 1), BuildingBlock: KIFKEQ_clean_linker_1, # of connection points: 2
#     Edge 14, Type (0, 1), BuildingBlock: KIFKEQ_clean_linker_1, # of connection points: 2
#     Edge 15, Type (0, 1), BuildingBlock: KIFKEQ_clean_linker_1, # of connection points: 2
#     Edge 16, Type (0, 1), BuildingBlock: KIFKEQ_clean_linker_1, # of connection points: 2
#     Edge 17, Type (0, 1), BuildingBlock: KIFKEQ_clean_linker_1, # of connection points: 2
#     Edge 18, Type (0, 1), BuildingBlock: KIFKEQ_clean_linker_1, # of connection points: 2
#     Edge 19, Type (0, 1), BuildingBlock: KIFKEQ_clean_linker_1, # of connection points: 2
#     Edge 20, Type (0, 1), BuildingBlock: KIFKEQ_clean_linker_1, # of connection points: 2
#     Edge 21, Type (0, 1), BuildingBlock: KIFKEQ_clean_linker_1, # of connection points: 2
#     Edge 22, Type (0, 1), BuildingBlock: KIFKEQ_clean_linker_1, # of connection points: 2
#     Edge 23, Type (0, 1), BuildingBlock: KIFKEQ_clean_linker_1, # of connection points: 2
#     Edge 24, Type (0, 1), BuildingBlock: KIFKEQ_clean_linker_1, # of connection points: 2
#     Edge 25, Type (0, 1), BuildingBlock: KIFKEQ_clean_linker_1, # of connection points: 2
#     Edge 26, Type (0, 1), BuildingBlock: KIFKEQ_clean_linker_1, # of connection points: 2
#     Edge 27, Type (0, 1), BuildingBlock: KIFKEQ_clean_linker_1, # of connection points: 2
#     Edge 28, Type (0, 1), BuildingBlock: KIFKEQ_clean_linker_1, # of connection points: 2
#     Edge 29, Type (0, 1), BuildingBlock: KIFKEQ_clean_linker_1, # of connection points: 2
#     Edge 30, Type (0, 1), BuildingBlock: KIFKEQ_clean_linker_1, # of connection points: 2
#     Edge 31, Type (0, 1), BuildingBlock: KIFKEQ_clean_linker_1, # of connection points: 2
#     Edge 32, Type (0, 1), BuildingBlock: KIFKEQ_clean_linker_1, # of connection points: 2
#     Edge 33, Type (0, 1), BuildingBlock: KIFKEQ_clean_linker_1, # of connection points: 2
#     Edge 34, Type (0, 1), BuildingBlock: KIFKEQ_clean_linker_1, # of connection points: 2
#     Edge 35, Type (0, 1), BuildingBlock: KIFKEQ_clean_linker_1, # of connection points: 2
#     Edge 36, Type (0, 1), BuildingBlock: KIFKEQ_clean_linker_1, # of connection points: 2
#     Edge 37, Type (0, 1), BuildingBlock: KIFKEQ_clean_linker_1, # of connection points: 2
#     Edge 38, Type (0, 1), BuildingBlock: KIFKEQ_clean_linker_1, # of connection points: 2
#     Edge 39, Type (0, 1), BuildingBlock: KIFKEQ_clean_linker_1, # of connection points: 2
#     Edge 40, Type (0, 1), BuildingBlock: KIFKEQ_clean_linker_1, # of connection points: 2
#     Edge 41, Type (0, 1), BuildingBlock: KIFKEQ_clean_linker_1, # of connection points: 2
#     Edge 42, Type (0, 1), BuildingBlock: KIFKEQ_clean_linker_1, # of connection points: 2
#     Edge 43, Type (0, 1), BuildingBlock: KIFKEQ_clean_linker_1, # of connection points: 2
# Relax obj value: 0.176
# Max RMSD: 0.271
# Mean RMSD: 0.222
data_MOF--net-sqc--node1-TAGTUT_clean_sbu_3--node2-KUFVIS_clean_linker_0--edge1-KIFKEQ_clean_linker_1
_symmetry_space_group_name_H-M    P1
_symmetry_Int_Tables_number       1
_symmetry_cell_setting            triclinic
loop_
_symmetry_equiv_pos_as_xyz
'x, y, z'
_cell_length_a     24.707743
_cell_length_b     24.640851
_cell_length_c     73.910032
_cell_angle_alpha  90.86497
_cell_angle_beta   89.574935
_cell_angle_gamma 90.181184
loop_
_atom_site_label
_atom_site_type_symbol
_atom_site_fract_x
_atom_site_fract_y
_atom_site_fract_z
_atom_type_partial_charge
H0 H 0.87096 0.04183 0.47032 0.0
H1 H 0.01506 0.07208 0.50092 0.0
H2 H 0.02389 0.99793 0.44732 0.0
H3 H 0.09702 0.95724 0.45967 0.0
H4 H 0.24633 0.02783 0.47748 0.0
H5 H 0.09717 0.10625 0.49163 0.0
C6 C 0.91477 0.04144 0.47135 0.0
C7 C 0.94478 0.01854 0.45721 0.0
C8 C 0.93944 0.06179 0.48697 0.0
C9 C 0.99614 0.05759 0.48859 0.0
C10 C 0.02798 0.03471 0.47431 0.0
C11 C 1.00124 0.01505 0.45861 0.0
C12 C 0.08872 0.03199 0.47556 0.0
C13 C 0.11808 0.98953 0.46682 0.0
C14 C 0.17499 0.98782 0.46755 0.0
C15 C 0.20249 0.02882 0.47698 0.0
C16 C 0.17494 0.0713 0.48571 0.0
C17 C 0.11807 0.07264 0.48511 0.0
H18 H 0.26725 0.88276 0.7131 0.0
H19 H 0.29193 0.75476 0.75066 0.0
H20 H 0.33656 0.73331 0.69421 0.0
H21 H 0.39987 0.68275 0.70588 0.0
H22 H 0.39106 0.53392 0.73473 0.0
H23 H 0.28175 0.66235 0.74891 0.0
C24 C 0.27906 0.84118 0.7156 0.0
C25 C 0.30323 0.81037 0.70173 0.0
C26 C 0.27436 0.82102 0.73311 0.0
C27 C 0.29358 0.76879 0.73686 0.0
C28 C 0.31605 0.73576 0.72295 0.0
C29 C 0.31997 0.75724 0.70531 0.0
C30 C 0.33774 0.68029 0.72686 0.0
C31 C 0.3808 0.65888 0.71632 0.0
C32 C 0.39959 0.60601 0.71889 0.0
C33 C 0.37787 0.57544 0.73298 0.0
C34 C 0.33649 0.59585 0.7441 0.0
C35 C 0.31545 0.64782 0.74077 0.0
H36 H 0.83431 0.04026 -0.01967 0.0
H37 H 0.69446 0.9556 -0.00036 0.0
H38 H 0.67695 0.08881 0.96275 0.0
H39 H 0.60348 0.0393 0.9546 0.0
H40 H 0.46274 0.98795 -0.01565 0.0
H41 H 0.61642 0.99124 0.01041 0.0
C42 C 0.79071 0.03526 -0.0193 0.0
C43 C 0.75816 0.0684 0.97006 0.0
C44 C 0.76787 0.99517 -0.00841 0.0
C45 C 0.7116 0.98817 -0.00826 0.0
C46 C 0.67785 0.02185 -0.01852 0.0
C47 C 0.70179 0.06199 0.97063 0.0
C48 C 0.61796 0.01468 -0.0178 0.0
C49 C 0.58534 0.02493 0.96701 0.0
C50 C 0.52893 0.01728 0.96787 0.0
C51 C 0.50586 0.99611 -0.01634 0.0
C52 C 0.53751 0.98654 -0.00115 0.0
C53 C 0.59296 0.99719 -0.00173 0.0
H54 H 0.38937 0.48944 0.22591 0.0
H55 H 0.42169 0.33396 0.24782 0.0
H56 H 0.29069 0.35388 0.20986 0.0
H57 H 0.30621 0.26545 0.20377 0.0
H58 H 0.31005 0.12172 0.23546 0.0
H59 H 0.37128 0.26972 0.25819 0.0
C60 C 0.37991 0.44654 0.22657 0.0
C61 C 0.33769 0.42517 0.21612 0.0
C62 C 0.4087 0.41408 0.23843 0.0
C63 C 0.3971 0.35851 0.23913 0.0
C64 C 0.35444 0.33539 0.22889 0.0
C65 C 0.32485 0.36961 0.21739 0.0
C66 C 0.34018 0.27637 0.23077 0.0
C67 C 0.31533 0.24654 0.2165 0.0
C68 C 0.30349 0.19112 0.21849 0.0
C69 C 0.31808 0.16487 0.23426 0.0
C70 C 0.34453 0.19272 0.2482 0.0
C71 C 0.35311 0.24867 0.24682 0.0
H72 H 0.78536 0.39001 0.2196 0.0
H73 H 0.80647 0.26031 0.25677 0.0
H74 H 0.84862 0.23871 0.20006 0.0
H75 H 0.90826 0.18322 0.21077 0.0
H76 H 0.89175 0.0338 0.23895 0.0
H77 H 0.79329 0.16895 0.25502 0.0
C78 C 0.79617 0.34808 0.22198 0.0
C79 C 0.81873 0.31668 0.20798 0.0
C80 C 0.79112 0.3276 0.23943 0.0
C81 C 0.80855 0.2746 0.243 0.0
C82 C 0.82937 0.24103 0.22892 0.0
C83 C 0.83359 0.2629 0.21134 0.0
C84 C 0.84816 0.18418 0.23244 0.0
C85 C 0.8885 0.16023 0.22129 0.0
C86 C 0.9035 0.10586 0.22327 0.0
C87 C 0.88139 0.07625 0.23753 0.0
C88 C 0.84284 0.09913 0.24926 0.0
C89 C 0.82516 0.15263 0.24644 0.0
H90 H 0.83261 0.97404 0.7316 0.0
H91 H 0.89603 0.82668 0.75217 0.0
H92 H 0.82682 0.82978 0.69843 0.0
H93 H 0.81006 0.73957 0.70499 0.0
H94 H 0.90642 0.60603 0.72226 0.0
H95 H 0.94928 0.76676 0.73927 0.0
C96 C 0.84033 0.93092 0.72989 0.0
C97 C 0.82484 0.90452 0.71389 0.0
C98 C 0.86714 0.90317 0.74344 0.0
C99 C 0.87764 0.84781 0.74106 0.0
C100 C 0.86397 0.82016 0.72477 0.0
C101 C 0.83759 0.84941 0.71111 0.0
C102 C 0.87779 0.7613 0.72238 0.0
C103 C 0.84521 0.72503 0.71208 0.0
C104 C 0.8575 0.66918 0.7113 0.0
C105 C 0.90027 0.64952 0.7216 0.0
C106 C 0.9318 0.68445 0.73227 0.0
C107 C 0.92253 0.74024 0.73167 0.0
H108 H 0.74418 0.50976 -0.01867 0.0
H109 H 0.59841 0.45143 0.95678 0.0
H110 H 0.59384 0.57928 -0.00203 0.0
H111 H 0.51051 0.55265 0.00252 0.0
H112 H 0.36863 0.52353 0.97086 0.0
H113 H 0.52279 0.48698 0.94772 0.0
C114 C 0.70041 0.51042 -0.01978 0.0
C115 C 0.67122 0.54583 -0.00861 0.0
C116 C 0.6747 0.47685 0.96757 0.0
C117 C 0.61784 0.4792 0.96616 0.0
C118 C 0.58682 0.51599 -0.02293 0.0
C119 C 0.61493 0.54983 -0.01044 0.0
C120 C 0.52585 0.51905 0.97543 0.0
C121 C 0.49279 0.53962 -0.01015 0.0
C122 C 0.43608 0.54358 -0.01198 0.0
C123 C 0.41236 0.52416 0.97209 0.0
C124 C 0.4434 0.50386 0.95777 0.0
C125 C 0.49985 0.50164 0.9593 0.0
H126 H 0.33261 0.56779 0.48843 0.0
H127 H 0.19833 0.47666 0.5083 0.0
H128 H 0.17498 0.59766 0.46715 0.0
H129 H 0.10403 0.54908 0.46046 0.0
H130 H 0.96557 0.48442 0.4881 0.0
H131 H 0.11575 0.49737 0.51598 0.0
C132 C 0.28934 0.56023 0.48859 0.0
C133 C 0.25601 0.58625 0.47621 0.0
C134 C 0.26826 0.5217 0.5004 0.0
C135 C 0.21317 0.50856 0.49966 0.0
C136 C 0.17795 0.53617 0.48799 0.0
C137 C 0.20026 0.57533 0.47629 0.0
C138 C 0.11862 0.52336 0.48798 0.0
C139 C 0.08644 0.53225 0.47257 0.0
C140 C 0.03073 0.52053 0.47278 0.0
C141 C 1.00806 0.49557 0.488 0.0
C142 C 0.03903 0.48659 0.5034 0.0
C143 C 0.09345 0.5022 0.50357 0.0
C144 C 0.15206 0.66775 0.12931 0.0
C145 C 0.95787 0.59523 0.12385 0.0
C146 C 0.95382 0.68539 0.07449 0.0
Mg147 Mg 0.21081 0.77505 0.11495 0.0
Mg148 Mg 0.14841 0.88037 0.09738 0.0
O149 O 0.15453 0.80531 0.09847 0.0
Mg150 Mg 0.09309 0.75746 0.10541 0.0
O151 O 0.03726 0.70379 0.11274 0.0
Mg152 Mg 0.06286 0.64019 0.09802 0.0
Mg153 Mg 0.96334 0.7173 0.11465 0.0
C154 C 0.04148 0.84733 0.07673 0.0
O155 O 0.05522 0.81813 0.12582 0.0
O156 O 0.27261 0.82922 0.09988 0.0
O157 O 0.9681 0.79283 0.13012 0.0
O158 O 0.19934 0.84645 0.13646 0.0
O159 O 0.22785 0.89801 0.08713 0.0
O160 O 0.14516 0.90874 0.12446 0.0
O161 O 0.12857 0.69592 0.08479 0.0
O162 O 0.21541 0.70902 0.09307 0.0
C163 C 0.17945 0.68436 0.08352 0.0
C164 C 0.2716 0.87214 0.09025 0.0
O165 O 0.04113 0.79976 0.08369 0.0
O166 O 0.99981 0.58763 0.11374 0.0
O167 O 0.07714 0.88355 0.08064 0.0
O168 O 0.9966 0.65619 0.07602 0.0
O169 O 0.9381 0.64257 0.12681 0.0
O170 O 0.9363 0.71541 0.08746 0.0
O171 O 0.14558 0.71904 0.12712 0.0
O172 O 0.12512 0.63203 0.1203 0.0
C173 C 0.17309 0.89143 0.13758 0.0
C174 C 1.00819 0.82504 0.13297 0.0
C175 C 0.68055 0.82754 0.38112 0.0
C176 C 0.75963 0.63394 0.38032 0.0
C177 C 0.68012 0.61721 0.32902 0.0
Mg178 Mg 0.57061 0.87566 0.36399 0.0
Mg179 Mg 0.47333 0.80046 0.34566 0.0
O180 O 0.5473 0.81372 0.34793 0.0
Mg181 Mg 0.5977 0.75787 0.35702 0.0
O182 O 0.65245 0.70693 0.36635 0.0
Mg183 Mg 0.71672 0.73239 0.35222 0.0
Mg184 Mg 0.64008 0.63258 0.36812 0.0
C185 C 0.51747 0.69193 0.32788 0.0
O186 O 0.53611 0.72152 0.37689 0.0
O187 O 0.51311 0.92978 0.34717 0.0
O188 O 0.56268 0.63572 0.38225 0.0
O189 O 0.49846 0.86161 0.3848 0.0
O190 O 0.45184 0.87553 0.33359 0.0
O191 O 0.44042 0.80254 0.37224 0.0
O192 O 0.66018 0.79264 0.33709 0.0
O193 O 0.63917 0.88036 0.34314 0.0
C194 C 0.66826 0.84407 0.33505 0.0
C195 C 0.47241 0.92252 0.33666 0.0
O196 O 0.56316 0.69775 0.33585 0.0
O197 O 0.76843 0.67478 0.37005 0.0
O198 O 0.4779 0.72505 0.33013 0.0
O199 O 0.70783 0.66122 0.33077 0.0
O200 O 0.71266 0.61244 0.38204 0.0
O201 O 0.64751 0.6013 0.34132 0.0
O202 O 0.62998 0.81823 0.37817 0.0
O203 O 0.71828 0.79951 0.37353 0.0
C204 C 0.45488 0.83289 0.38547 0.0
C205 C 0.52937 0.67524 0.3843 0.0
C206 C 0.64108 0.15093 0.6274 0.0
C207 C 0.44546 0.09337 0.6201 0.0
C208 C 0.44642 0.19465 0.57285 0.0
Mg209 Mg 0.70969 0.2572 0.6158 0.0
Mg210 Mg 0.65398 0.37084 0.60205 0.0
O211 O 0.65602 0.29548 0.60022 0.0
Mg212 Mg 0.59127 0.25029 0.60554 0.0
O213 O 0.53111 0.19937 0.61112 0.0
Mg214 Mg 0.55247 0.1377 0.59489 0.0
Mg215 Mg 0.45813 0.21641 0.61393 0.0
C216 C 0.54595 0.35141 0.5803 0.0
O217 O 0.55688 0.30878 0.62704 0.0
O218 O 0.77517 0.31103 0.60208 0.0
O219 O 0.46784 0.28965 0.63047 0.0
O220 O 0.7037 0.32354 0.63936 0.0
O221 O 0.73433 0.38651 0.59226 0.0
O222 O 0.65181 0.39145 0.62992 0.0
O223 O 0.62283 0.19162 0.58336 0.0
O224 O 0.70983 0.19681 0.59226 0.0
C225 C 0.67289 0.17706 0.58194 0.0
C226 C 0.77645 0.35692 0.59405 0.0
O227 O 0.54321 0.30155 0.58516 0.0
O228 O 0.48574 0.08583 0.60924 0.0
O229 O 0.58311 0.38411 0.58577 0.0
O230 O 0.48835 0.16376 0.57314 0.0
O231 O 0.42931 0.14099 0.62471 0.0
O232 O 0.42991 0.2205 0.58692 0.0
O233 O 0.64011 0.20305 0.62637 0.0
O234 O 0.6116 0.12025 0.61732 0.0
C235 C 0.67979 0.36928 0.64216 0.0
C236 C 0.51009 0.31831 0.63399 0.0
C237 C 0.1852 0.31822 0.87716 0.0
C238 C 0.25529 0.12276 0.8752 0.0
C239 C 0.17432 0.11091 0.82375 0.0
Mg240 Mg 0.08076 0.37526 0.86013 0.0
Mg241 Mg 0.97831 0.31249 0.8401 0.0
O242 O 0.05207 0.31488 0.84448 0.0
Mg243 Mg 0.09818 0.25464 0.85271 0.0
O244 O 0.15038 0.19977 0.86129 0.0
Mg245 Mg 0.21594 0.22313 0.8474 0.0
Mg246 Mg 0.13564 0.12592 0.86306 0.0
C247 C 1.00963 0.19674 0.82412 0.0
O248 O 0.0359 0.22107 0.87288 0.0
O249 O 0.0335 0.43474 0.84212 0.0
O250 O 0.05865 0.13352 0.87726 0.0
O251 O 1.00543 0.36848 0.88047 0.0
O252 O 0.97331 0.3867 0.82578 0.0
O253 O 0.94123 0.32162 0.86575 0.0
O254 O 0.16243 0.28611 0.83247 0.0
O255 O 0.14967 0.37448 0.83968 0.0
C256 C 0.17477 0.33682 0.83091 0.0
C257 C 0.9985 0.43095 0.82941 0.0
O258 O 0.05668 0.19756 0.8315 0.0
O259 O 0.26519 0.16308 0.86485 0.0
O260 O 0.97494 0.23492 0.82633 0.0
O261 O 0.20368 0.15373 0.82567 0.0
O262 O 0.2076 0.10299 0.87712 0.0
O263 O 0.14174 0.0952 0.83609 0.0
O264 O 0.1342 0.31208 0.87425 0.0
O265 O 0.22118 0.289 0.86914 0.0
C266 C 0.95791 0.34675 0.87983 0.0
C267 C 0.02747 0.17454 0.87997 0.0
H268 H 0.2607 0.93038 0.48033 0.0
H269 H 0.16499 0.9526 0.43239 0.0
H270 H 0.32907 0.88206 0.46238 0.0
H271 H 0.23292 0.90312 0.41449 0.0
H272 H 0.35314 0.78999 0.38812 0.0
H273 H 0.28223 0.81407 0.40966 0.0
H274 H 0.39393 0.91837 0.43843 0.0
H275 H 0.46571 0.89412 0.41681 0.0
C276 C 0.25367 0.92379 0.46601 0.0
C277 C 0.2078 0.94606 0.45771 0.0
C278 C 0.29296 0.89634 0.45575 0.0
C279 C 0.28686 0.88964 0.437 0.0
C280 C 0.23873 0.90761 0.42894 0.0
C281 C 0.1996 0.93568 0.4392 0.0
C282 C 0.36331 0.81714 0.39924 0.0
C283 C 0.41542 0.84034 0.40062 0.0
C284 C 0.32229 0.83119 0.41152 0.0
C285 C 0.33224 0.86853 0.4256 0.0
C286 C 0.38508 0.88922 0.42773 0.0
C287 C 0.42622 0.87544 0.41532 0.0
H288 H 0.23823 0.87244 0.68058 0.0
H289 H 0.40106 0.81115 0.68453 0.0
H290 H 0.26769 0.93473 0.65707 0.0
H291 H 0.43093 0.87401 0.66135 0.0
H292 H 0.47037 0.98539 0.61536 0.0
H293 H 0.4303 0.90809 0.63088 0.0
H294 H 0.3205 0.01636 0.65926 0.0
H295 H 0.35936 0.09302 0.64355 0.0
C296 C 0.28008 0.87149 0.67611 0.0
C297 C 0.31745 0.83733 0.6845 0.0
C298 C 0.29709 0.90743 0.66275 0.0
C299 C 0.35194 0.91027 0.65758 0.0
C300 C 0.38836 0.87283 0.6649 0.0
C301 C 0.37123 0.83664 0.67819 0.0
C302 C 0.43719 0.9926 0.62474 0.0
C303 C 0.41844 0.04562 0.62829 0.0
C304 C 0.41436 0.94825 0.63368 0.0
C305 C 0.37219 0.95587 0.64635 0.0
C306 C 0.35227 1.00868 0.64939 0.0
C307 C 0.37501 0.05289 0.64047 0.0
H308 H 0.54553 1.0036 0.93107 0.0
H309 H 0.43147 0.06787 0.97048 0.0
H310 H 0.48263 0.02633 0.90675 0.0
H311 H 0.3687 0.0882 0.94641 0.0
H312 H 0.24647 0.05081 0.90277 0.0
H313 H 0.31659 0.02364 0.92367 0.0
H314 H 0.43449 0.11775 0.89424 0.0
H315 H 0.3641 0.14578 0.87318 0.0
C316 C 0.50738 0.02274 0.93455 0.0
C317 C 0.49312 0.03299 0.95276 0.0
C318 C 0.47145 0.03549 0.92066 0.0
C319 C 0.42064 0.05804 0.92482 0.0
C320 C 0.40719 0.0697 0.94291 0.0
C321 C 0.44311 0.05777 0.95668 0.0
C322 C 0.28738 0.06528 0.90052 0.0
C323 C 0.29947 0.10104 0.8864 0.0
C324 C 0.32745 0.04975 0.91254 0.0
C325 C 0.38063 0.06906 0.9106 0.0
C326 C 0.3937 0.10231 0.89595 0.0
C327 C 0.35335 0.11847 0.88399 0.0
H328 H 0.35665 0.13365 0.19262 0.0
H329 H 0.1972 0.16804 0.21372 0.0
H330 H 0.32032 0.05727 0.17492 0.0
H331 H 0.1604 0.09145 0.19614 0.0
H332 H 0.11707 0.98375 0.1455 0.0
H333 H 0.14504 0.05888 0.1648 0.0
H334 H 0.2825 0.96602 0.18227 0.0
H335 H 0.25385 0.88979 0.16298 0.0
C336 C 0.31346 0.12586 0.19291 0.0
C337 C 0.27933 0.15733 0.20406 0.0
C338 C 0.29284 0.08152 0.18315 0.0
C339 C 0.23767 0.06774 0.18441 0.0
C340 C 0.20305 0.10108 0.19488 0.0
C341 C 0.22383 0.14528 0.20473 0.0
C342 C 0.15204 0.97826 0.15397 0.0
C343 C 0.18291 0.93036 0.15273 0.0
C344 C 0.16839 0.02175 0.16493 0.0
C345 C 0.21654 0.01883 0.17477 0.0
C346 C 0.24571 0.9698 0.17451 0.0
C347 C 0.22888 0.92582 0.16367 0.0
H348 H 0.26463 0.12568 0.47406 0.0
H349 H 0.1601 0.10694 0.52062 0.0
H350 H 0.33272 0.16983 0.49307 0.0
H351 H 0.22778 0.15238 0.53958 0.0
H352 H 0.45771 0.13704 0.54086 0.0
H353 H 0.3888 0.12376 0.51767 0.0
H354 H 0.28472 0.23861 0.54541 0.0
H355 H 0.35332 0.25255 0.56846 0.0
C356 C 0.2556 0.13246 0.48828 0.0
C357 C 0.20747 0.11202 0.49595 0.0
C358 C 0.29464 0.15754 0.49913 0.0
C359 C 0.28592 0.16366 0.51782 0.0
C360 C 0.23553 0.14825 0.52518 0.0
C361 C 0.19662 0.12248 0.51434 0.0
C362 C 0.42083 0.16058 0.54178 0.0
C363 C 0.41091 0.19515 0.55671 0.0
C364 C 0.38134 0.15305 0.52847 0.0
C365 C 0.33111 0.17965 0.52991 0.0
C366 C 0.32274 0.21706 0.54411 0.0
C367 C 0.36231 0.22505 0.55728 0.0
H368 H 0.32829 0.8565 0.76296 0.0
H369 H 0.17663 0.87098 0.73492 0.0
H370 H 0.30142 0.9305 0.78367 0.0
H371 H 0.14935 0.94447 0.75572 0.0
H372 H 0.10815 0.02938 0.8118 0.0
H373 H 0.12942 0.95803 0.78979 0.0
H374 H 0.28394 0.0337 0.77915 0.0
H375 H 0.26215 0.10629 0.80094 0.0
C376 C 0.28871 0.87471 0.76155 0.0
C377 C 0.25422 0.85797 0.74754 0.0
C378 C 0.27369 0.91745 0.77317 0.0
C379 C 0.22365 0.94355 0.77109 0.0
C380 C 0.18816 0.92507 0.75758 0.0
C381 C 0.20356 0.88297 0.74578 0.0
C382 C 0.14598 0.03183 0.80442 0.0
C383 C 0.18327 0.07381 0.80807 0.0
C384 C 0.15827 0.99069 0.79189 0.0
C385 C 0.20861 0.99 0.78301 0.0
C386 C 0.24511 0.033 0.78605 0.0
C387 C 0.23236 0.07483 0.79835 0.0
H388 H 0.53229 0.03669 0.03181 0.0
H389 H 0.48401 0.89154 0.00272 0.0
H390 H 0.47781 1.00845 0.05799 0.0
H391 H 0.43046 0.86283 0.02885 0.0
H392 H 0.29528 0.97325 0.07801 0.0
H393 H 0.37209 0.99941 0.0591 0.0
H394 H 0.43753 0.8378 0.06298 0.0
H395 H 0.36094 0.81151 0.0821 0.0
C396 C 0.51103 0.99818 0.03126 0.0
C397 C 0.51172 0.96621 0.0154 0.0
C398 C 0.47999 0.98215 0.04613 0.0
C399 C 0.45024 0.93351 0.04537 0.0
C400 C 0.45361 0.90017 0.02983 0.0
C401 C 0.48379 0.91665 0.01489 0.0
C402 C 0.32661 0.94362 0.07513 0.0
C403 C 0.32186 0.8902 0.08132 0.0
C404 C 0.37074 0.95874 0.06446 0.0
C405 C 0.4104 0.92047 0.0596 0.0
C406 C 0.40726 0.86788 0.06657 0.0
C407 C 0.36355 0.85298 0.0775 0.0
H408 H 0.40294 0.10061 0.24538 0.0
H409 H 0.33788 0.21441 0.28488 0.0
H410 H 0.43171 0.04167 0.26956 0.0
H411 H 0.36841 0.15502 0.30935 0.0
H412 H 0.50656 0.02898 0.33766 0.0
H413 H 0.47524 0.10272 0.31841 0.0
H414 H 0.35667 0.99517 0.2946 0.0
H415 H 0.38687 0.9219 0.31364 0.0
C416 C 0.39504 0.11311 0.25927 0.0
C417 C 0.36702 0.16137 0.26329 0.0
C418 C 0.41178 0.07957 0.27305 0.0
C419 C 0.40154 0.09384 0.29115 0.0
C420 C 0.37649 0.14352 0.29539 0.0
C421 C 0.35917 0.17725 0.28147 0.0
C422 C 0.47316 0.02135 0.32855 0.0
C423 C 0.44985 0.96926 0.32697 0.0
C424 C 0.45516 0.0636 0.31768 0.0
C425 C 0.4139 0.05406 0.30511 0.0
C426 C 0.38868 1.00312 0.30424 0.0
C427 C 0.40626 0.9612 0.3151 0.0
H428 H 0.85572 0.13131 0.48245 0.0
H429 H 0.94056 0.04442 0.52375 0.0
H430 H 0.78299 0.15113 0.50338 0.0
H431 H 0.86998 0.06939 0.54564 0.0
H432 H 0.71843 0.07739 0.57866 0.0
H433 H 0.7837 0.0505 0.55528 0.0
H434 H 0.74926 0.19855 0.52674 0.0
H435 H 0.68128 0.22187 0.54926 0.0
C436 C 0.85941 0.11755 0.49625 0.0
C437 C 0.90351 0.0853 0.50132 0.0
C438 C 0.81761 0.12941 0.50841 0.0
C439 C 0.81941 0.11131 0.52634 0.0
C440 C 0.86579 0.08255 0.53183 0.0
C441 C 0.90716 0.0693 0.51941 0.0
C442 C 0.72291 0.10228 0.56678 0.0
C443 C 0.69374 0.15074 0.56541 0.0
C444 C 0.76159 0.0879 0.55363 0.0
C445 C 0.77333 0.12278 0.53915 0.0
C446 C 0.74146 0.16981 0.53737 0.0
C447 C 0.70175 0.18319 0.55022 0.0
H448 H 0.89755 0.0437 0.27473 0.0
H449 H 0.73642 0.07353 0.25521 0.0
H450 H 0.86235 0.9736 0.2947 0.0
H451 H 0.7008 1.00346 0.27535 0.0
H452 H 0.66161 0.83902 0.29853 0.0
H453 H 0.70633 0.90184 0.27774 0.0
H454 H 0.80356 0.96414 0.32177 0.0
H455 H 0.75882 0.90137 0.34235 0.0
C456 C 0.85438 0.03581 0.27499 0.0
C457 C 0.81959 0.0642 0.26354 0.0
C458 C 0.83429 0.99557 0.28636 0.0
C459 C 0.77895 0.98239 0.2864 0.0
C460 C 0.74383 0.012 0.27535 0.0
C461 C 0.76395 0.05273 0.26407 0.0
C462 C 0.69433 0.86442 0.30349 0.0
C463 C 0.70771 0.86475 0.3219 0.0
C464 C 0.71906 0.90119 0.29173 0.0
C465 C 0.75777 0.93863 0.29819 0.0
C466 C 0.77401 0.93582 0.31634 0.0
C467 C 0.74886 0.89953 0.32811 0.0
H468 H 0.86318 0.94629 -0.01793 0.0
H469 H 0.75259 0.96898 0.02707 0.0
H470 H 0.92762 0.90285 0.00201 0.0
H471 H 0.81708 0.92531 0.04704 0.0
H472 H 0.93602 0.81394 0.07577 0.0
H473 H 0.86652 0.8403 0.05409 0.0
H474 H 0.98377 0.94089 0.0267 0.0
H475 H 0.05285 0.91387 0.04807 0.0
C476 C 0.85251 0.9416 -0.0038 0.0
C477 C 0.80324 0.96177 0.00308 0.0
C478 C 0.88936 0.91673 0.0076 0.0
C479 C 0.87767 0.91138 0.02612 0.0
C480 C 0.82705 0.9286 0.0328 0.0
C481 C 0.79015 0.9536 0.02137 0.0
C482 C 0.94696 0.84063 0.06485 0.0
C483 C 0.99979 0.86132 0.06344 0.0
C484 C 0.9072 0.85616 0.0526 0.0
C485 C 0.91988 0.8922 0.03862 0.0
C486 C 0.97298 0.91229 0.03713 0.0
C487 C 0.01241 0.89724 0.04946 0.0
H488 H 0.96946 0.90528 0.75709 0.0
H489 H 0.80955 0.97172 0.76529 0.0
H490 H 1.00624 0.97259 0.77848 0.0
H491 H 0.84595 0.03845 0.78669 0.0
H492 H 0.93927 0.19578 0.7962 0.0
H493 H 0.90464 0.11755 0.77948 0.0
H494 H 1.00548 0.01166 0.8107 0.0
H495 H 0.04006 0.09071 0.82767 0.0
C496 C 0.94201 0.93314 0.76393 0.0
C497 C 0.88687 0.93398 0.75941 0.0
C498 C 0.96303 0.97168 0.7761 0.0
C499 C 0.92907 0.01144 0.78389 0.0
C500 C 0.87322 1.00907 0.78053 0.0
C501 C 0.85234 0.97077 0.76839 0.0
C502 C 0.95431 0.15587 0.79946 0.0
C503 C 0.99291 0.14932 0.81308 0.0
C504 C 0.93418 0.11103 0.78998 0.0
C505 C 0.95193 0.05847 0.79396 0.0
C506 C 0.99139 0.0518 0.80732 0.0
C507 C 0.01157 0.09695 0.81687 0.0
H508 H 0.93486 0.91251 0.44743 0.0
H509 H 0.88182 0.07324 0.43384 0.0
H510 H 0.86158 0.87334 0.42929 0.0
H511 H 0.80818 0.03445 0.41583 0.0
H512 H 0.71593 0.92711 0.37203 0.0
H513 H 0.7849 0.97769 0.38888 0.0
H514 H 0.76174 0.87108 0.43417 0.0
H515 H 0.69343 0.82035 0.4171 0.0
C516 C 0.90874 0.93928 0.43998 0.0
C517 C 0.91414 0.99569 0.44181 0.0
C518 C 0.8661 0.91706 0.42995 0.0
C519 C 0.82827 0.95095 0.42156 0.0
C520 C 0.83644 1.00735 0.42221 0.0
C521 C 0.87888 0.02952 0.43232 0.0
C522 C 0.72373 0.91644 0.38593 0.0
C523 C 0.69894 0.87059 0.39344 0.0
C524 C 0.76374 0.94482 0.39549 0.0
C525 C 0.77981 0.9273 0.41263 0.0
C526 C 0.75113 0.88462 0.42079 0.0
C527 C 0.71104 0.85646 0.41124 0.0
H528 H 0.98365 0.03091 0.22811 0.0
H529 H 0.89585 0.11452 0.18659 0.0
H530 H 0.01757 0.96629 0.20538 0.0
H531 H 0.93108 0.05076 0.16389 0.0
H532 H 0.03154 0.93142 0.12732 0.0
H533 H 0.01756 1.0078 0.14865 0.0
H534 H 0.95535 0.89659 0.18838 0.0
H535 H 0.96737 0.82105 0.16689 0.0
C536 C 0.97272 0.03633 0.21408 0.0
C537 C 0.93618 0.07712 0.2092 0.0
C538 C 0.99213 0.99941 0.20112 0.0
C539 C 0.97599 1.00314 0.18302 0.0
C540 C 0.94406 0.04712 0.17779 0.0
C541 C 0.92413 0.08376 0.19079 0.0
C542 C 0.01502 0.92366 0.14065 0.0
C543 C 1.00049 0.87081 0.14561 0.0
C544 C 1.00709 0.96708 0.15279 0.0
C545 C 0.98643 0.95774 0.17021 0.0
C546 C 0.97242 0.90464 0.17514 0.0
C547 C 0.97878 0.86163 0.16285 0.0
H548 H 0.8401 0.13978 -0.02292 0.0
H549 H 0.73658 0.08061 0.93422 0.0
H550 H 0.90121 0.17889 0.95464 0.0
H551 H 0.79737 0.12083 0.9118 0.0
H552 H 0.92731 0.22119 0.87853 0.0
H553 H 0.85325 0.21245 0.90077 0.0
H554 H 0.95332 0.10754 0.93257 0.0
H555 H 0.02631 0.11538 0.91041 0.0
C556 C 0.82952 0.13677 0.9629 0.0
C557 C 0.78446 0.10609 0.95732 0.0
C558 C 0.8643 0.15924 0.95011 0.0
C559 C 0.85416 0.15189 0.9316 0.0
C560 C 0.80578 0.12699 0.92605 0.0
C561 C 0.77106 0.10407 0.93887 0.0
C562 C 0.9333 0.19667 0.89036 0.0
C563 C 0.98228 0.16896 0.89284 0.0
C564 C 0.89117 0.19172 0.903 0.0
C565 C 0.89829 0.16021 0.91843 0.0
C566 C 0.94738 0.13289 0.9209 0.0
C567 C 0.98881 0.13683 0.90815 0.0
H568 H 0.85309 0.92395 0.67866 0.0
H569 H 0.73206 0.95947 0.71948 0.0
H570 H 0.81059 0.98963 0.65846 0.0
H571 H 0.69054 0.02531 0.69974 0.0
H572 H 0.59534 0.08459 0.65122 0.0
H573 H 0.64018 0.02344 0.67167 0.0
H574 H 0.79519 0.09171 0.65664 0.0
H575 H 0.74934 0.15328 0.6357 0.0
C576 C 0.81691 0.94512 0.68312 0.0
C577 C 0.79533 0.93649 0.70046 0.0
C578 C 0.79326 0.98329 0.67177 0.0
C579 C 0.74757 0.01291 0.67761 0.0
C580 C 0.72549 1.00296 0.69481 0.0
C581 C 0.74905 0.96517 0.70608 0.0
C582 C 0.63893 0.08737 0.6526 0.0
C583 C 0.66905 0.12379 0.64213 0.0
C584 C 0.66462 0.0523 0.66427 0.0
C585 C 0.7212 0.0526 0.6657 0.0
C586 C 0.7515 0.09034 0.65563 0.0
C587 C 0.72545 0.12604 0.64393 0.0
H588 H 0.66776 0.46152 0.9308 0.0
H589 H 0.76134 0.41483 -0.02286 0.0
H590 H 0.7369 0.42185 0.91074 0.0
H591 H 0.83112 0.37718 0.95709 0.0
H592 H 0.9693 0.40335 0.91227 0.0
H593 H 0.89751 0.42484 0.93437 0.0
H594 H 0.78368 0.33047 0.90294 0.0
H595 H 0.85438 0.30834 0.88119 0.0
C596 C 0.70229 0.44165 0.93671 0.0
C597 C 0.70931 0.44205 0.95555 0.0
C598 C 0.74214 0.41936 0.92524 0.0
C599 C 0.78992 0.39749 0.93239 0.0
C600 C 0.7953 0.3948 0.95122 0.0
C601 C 0.75518 0.41619 0.96266 0.0
C602 C 0.92925 0.38645 0.91025 0.0
C603 C 0.91784 0.35457 0.89481 0.0
C604 C 0.88814 0.39871 0.92289 0.0
C605 C 0.83484 0.37983 0.9202 0.0
C606 C 0.82409 0.34623 0.90522 0.0
C607 C 0.86499 0.33349 0.89278 0.0
H608 H 0.7537 0.37858 0.18687 0.0
H609 H 0.91621 0.31641 0.19066 0.0
H610 H 0.78289 0.43949 0.16292 0.0
H611 H 0.94601 0.37824 0.16715 0.0
H612 H 0.98479 0.48737 0.12044 0.0
H613 H 0.94564 0.41107 0.13674 0.0
H614 H 0.8353 0.52071 0.1643 0.0
H615 H 0.87307 0.59621 0.14777 0.0
C616 C 0.79543 0.37722 0.18228 0.0
C617 C 0.83281 0.34319 0.19069 0.0
C618 C 0.81232 0.41238 0.16869 0.0
C619 C 0.86708 0.4147 0.16338 0.0
C620 C 0.90349 0.37745 0.1708 0.0
C621 C 0.88644 0.3419 0.18428 0.0
C622 C 0.95178 0.49507 0.12985 0.0
C623 C 0.93237 0.54809 0.13286 0.0
C624 C 0.92944 0.4513 0.13923 0.0
C625 C 0.88724 0.4596 0.15184 0.0
C626 C 0.867 0.51245 0.15446 0.0
C627 C 0.88913 0.55603 0.14507 0.0
H628 H 0.93035 0.56479 0.47566 0.0
H629 H 0.05052 0.5154 0.43593 0.0
H630 H 0.86896 0.58857 0.45158 0.0
H631 H 0.98889 0.54167 0.41166 0.0
H632 H 0.86702 0.66443 0.38036 0.0
H633 H 0.93718 0.63497 0.40135 0.0
H634 H 0.8226 0.5268 0.42653 0.0
H635 H 0.75293 0.55527 0.40575 0.0
C636 C 0.9436 0.55858 0.46179 0.0
C637 C 0.995 0.53703 0.45775 0.0
C638 C 0.90851 0.57261 0.44802 0.0
C639 C 0.92413 0.56632 0.42984 0.0
C640 C 0.97611 0.54679 0.42563 0.0
C641 C 0.01126 0.53193 0.4395 0.0
C642 C 0.85702 0.63383 0.39021 0.0
C643 C 0.80412 0.61273 0.3915 0.0
C644 C 0.89723 0.61688 0.40213 0.0
C645 C 0.88488 0.5791 0.41558 0.0
C646 C 0.83283 0.55641 0.41636 0.0
C647 C 0.793 0.57279 0.40441 0.0
H648 H 0.74802 0.65045 0.71355 0.0
H649 H 0.89381 0.5952 0.68674 0.0
H650 H 0.69863 0.57219 0.70087 0.0
H651 H 0.84501 0.51798 0.67391 0.0
H652 H 0.76671 0.36006 0.66485 0.0
H653 H 0.80513 0.43309 0.68343 0.0
H654 H 0.66599 0.53291 0.67267 0.0
H655 H 0.62744 0.45994 0.6545 0.0
C656 C 0.76907 0.62228 0.70459 0.0
C657 C 0.8246 0.6289 0.70104 0.0
C658 C 0.74105 0.57719 0.69749 0.0
C659 C 0.76816 0.53796 0.68673 0.0
C660 C 0.82318 0.54624 0.68261 0.0
C661 C 0.85098 0.591 0.68969 0.0
C662 C 0.74334 0.39673 0.66702 0.0
C663 C 0.6942 0.40424 0.65797 0.0
C664 C 0.76576 0.43903 0.67744 0.0
C665 C 0.73943 0.48958 0.67907 0.0
C666 C 0.68761 0.49481 0.67166 0.0
C667 C 0.66533 0.45267 0.66124 0.0
H668 H 0.69545 0.65433 -0.00738 0.0
H669 H 0.71964 0.50363 0.02031 0.0
H670 H 0.76792 0.69676 0.01075 0.0
H671 H 0.79178 0.54524 0.03814 0.0
H672 H 0.95912 0.60592 0.04822 0.0
H673 H 0.88653 0.57899 0.02772 0.0
H674 H 0.79309 0.71835 0.04491 0.0
H675 H 0.86492 0.74503 0.06564 0.0
C676 C 0.71501 0.63104 0.00301 0.0
C677 C 0.70191 0.57608 0.0053 0.0
C678 C 0.75677 0.65493 0.01317 0.0
C679 C 0.78624 0.62371 0.02544 0.0
C680 C 0.77057 0.56979 0.02845 0.0
C681 C 0.72877 0.54628 0.01851 0.0
C682 C 0.92389 0.63175 0.04728 0.0
C683 C 0.91777 0.67737 0.05873 0.0
C684 C 0.88214 0.61606 0.03566 0.0
C685 C 0.83387 0.64607 0.03507 0.0
C686 C 0.8298 0.69445 0.04517 0.0
C687 C 0.8712 0.70976 0.05699 0.0
H688 H 0.84886 0.37349 0.2668 0.0
H689 H 0.68965 0.36755 0.24335 0.0
H690 H 0.81973 0.44775 0.28713 0.0
H691 H 0.66007 0.44109 0.2638 0.0
H692 H 0.6239 0.52554 0.32016 0.0
H693 H 0.64822 0.45529 0.29825 0.0
H694 H 0.78862 0.5482 0.2824 0.0
H695 H 0.76306 0.62029 0.30399 0.0
C696 C 0.80731 0.38729 0.26636 0.0
C697 C 0.77109 0.36451 0.25384 0.0
C698 C 0.79091 0.43019 0.27773 0.0
C699 C 0.73786 0.45043 0.27686 0.0
C700 C 0.70116 0.42621 0.26474 0.0
C701 C 0.71784 0.38399 0.25318 0.0
C702 C 0.65885 0.53221 0.31158 0.0
C703 C 0.69094 0.57917 0.31368 0.0
C704 C 0.67306 0.49153 0.29914 0.0
C705 C 0.72053 0.4961 0.28879 0.0
C706 C 0.75203 0.54355 0.2904 0.0
C707 C 0.7371 0.58499 0.30262 0.0
H708 H 0.0378 0.52689 0.53796 0.0
H709 H 0.982 0.39247 0.50486 0.0
H710 H 0.98515 0.49254 0.56363 0.0
H711 H 0.92961 0.35811 0.53041 0.0
H712 H 0.86004 0.29354 0.58189 0.0
H713 H 0.93572 0.32164 0.56262 0.0
H714 H 0.88204 0.48798 0.56682 0.0
H715 H 0.80643 0.4601 0.58592 0.0
C716 C 0.0152 0.4894 0.53634 0.0
C717 C 0.01337 0.46243 0.51949 0.0
C718 C 0.98507 0.46991 0.55095 0.0
C719 C 0.9534 0.42276 0.54896 0.0
C720 C 0.95416 0.39421 0.53237 0.0
C721 C 0.98364 0.41407 0.51773 0.0
C722 C 0.8652 0.33626 0.57905 0.0
C723 C 0.82706 0.37461 0.58521 0.0
C724 C 0.90833 0.35223 0.56799 0.0
C725 C 0.91445 0.40687 0.5632 0.0
C726 C 0.8785 0.44566 0.57042 0.0
C727 C 0.835 0.42963 0.58123 0.0
H728 H 0.93676 0.71668 0.76762 0.0
H729 H 1.00198 0.59875 0.72951 0.0
H730 H 0.96503 0.6605 0.79262 0.0
H731 H 0.02927 0.54207 0.75467 0.0
H732 H 0.94716 0.42964 0.797 0.0
H733 H 0.95011 0.49849 0.77394 0.0
H734 H 0.04231 0.60391 0.80932 0.0
H735 H 0.04032 0.53419 0.83268 0.0
C736 C 0.95938 0.68004 0.76457 0.0
C737 C 0.96598 0.66134 0.74659 0.0
C738 C 0.97536 0.64783 0.77892 0.0
C739 C 0.99791 0.5966 0.77545 0.0
C740 C 0.01096 0.58118 0.75758 0.0
C741 C 0.99537 0.61351 0.74323 0.0
C742 C 0.96776 0.46752 0.80004 0.0
C743 C 0.99359 0.47631 0.8167 0.0
C744 C 0.97013 0.5066 0.7867 0.0
C745 C 0.99774 0.55565 0.78975 0.0
C746 C 0.02157 0.56588 0.80663 0.0
C747 C 0.01996 0.52622 0.81998 0.0
H748 H 0.44062 0.53265 0.02526 0.0
H749 H 0.34811 0.60802 -0.0168 0.0
H750 H 0.37359 0.56307 0.0476 0.0
H751 H 0.27863 0.63206 0.0047 0.0
H752 H 0.18531 0.71806 0.04929 0.0
H753 H 0.24971 0.68694 0.02667 0.0
H754 H 0.2901 0.55065 0.06033 0.0
H755 H 0.22858 0.58589 0.08368 0.0
C756 C 0.40611 0.55567 0.02076 0.0
C757 C 0.39959 0.56703 0.00234 0.0
C758 C 0.36677 0.57214 0.03353 0.0
C759 C 0.31945 0.59951 0.02813 0.0
C760 C 0.31419 0.61192 0.00972 0.0
C761 C 0.35404 0.59714 -0.00281 0.0
C762 C 0.20647 0.68027 0.05148 0.0
C763 C 0.20096 0.65349 0.06795 0.0
C764 C 0.24401 0.66229 0.03851 0.0
C765 C 0.27622 0.61606 0.04149 0.0
C766 C 0.26754 0.58713 0.05758 0.0
C767 C 0.23108 0.60628 0.07081 0.0
H768 H 0.23121 0.56458 0.74991 0.0
H769 H 0.39348 0.54369 0.76974 0.0
H770 H 0.19922 0.49273 0.77002 0.0
H771 H 0.3622 0.47141 0.78942 0.0
H772 H 0.26614 0.3935 0.83707 0.0
H773 H 0.30724 0.45716 0.81611 0.0
H774 H 0.20689 0.39304 0.77314 0.0
H775 H 0.16544 0.32951 0.79441 0.0
C776 C 0.25975 0.5453 0.75881 0.0
C777 C 0.3147 0.55986 0.75836 0.0
C778 C 0.24176 0.50347 0.77005 0.0
C779 C 0.27837 0.47565 0.78112 0.0
C780 C 0.33291 0.49188 0.78111 0.0
C781 C 0.35081 0.53339 0.76988 0.0
C782 C 0.25487 0.39129 0.82294 0.0
C783 C 0.2135 0.35597 0.81725 0.0
C784 C 0.2779 0.4282 0.81094 0.0
C785 C 0.25959 0.43097 0.79301 0.0
C786 C 0.22113 0.39261 0.78696 0.0
C787 C 0.19836 0.35529 0.79899 0.0
H788 H 0.34038 0.57002 0.52294 0.0
H789 H 0.27845 0.4129 0.50657 0.0
H790 H 0.40589 0.52664 0.5424 0.0
H791 H 0.34493 0.36901 0.52588 0.0
H792 H 0.44157 0.31684 0.57629 0.0
H793 H 0.37167 0.35588 0.55731 0.0
H794 H 0.48715 0.47429 0.53811 0.0
H795 H 0.55641 0.43549 0.55717 0.0
C796 C 0.34095 0.52611 0.52352 0.0
C797 C 0.30479 0.49473 0.51318 0.0
C798 C 0.37858 0.50124 0.53458 0.0
C799 C 0.38116 0.44438 0.53545 0.0
C800 C 0.34375 0.41292 0.52555 0.0
C801 C 0.30576 0.43795 0.51452 0.0
C802 C 0.45209 0.35044 0.56775 0.0
C803 C 0.50439 0.37282 0.56813 0.0
C804 C 0.41208 0.373 0.55694 0.0
C805 C 0.42377 0.41845 0.54633 0.0
C806 C 0.47652 0.43999 0.54643 0.0
C807 C 0.51629 0.41761 0.55727 0.0
H808 H 0.48743 0.48982 0.23206 0.0
H809 H 0.41 0.40019 0.27488 0.0
H810 H 0.52455 0.55346 0.25442 0.0
H811 H 0.4474 0.46355 0.29722 0.0
H812 H 0.54082 0.58556 0.33328 0.0
H813 H 0.52851 0.50954 0.31176 0.0
H814 H 0.46732 0.62088 0.27232 0.0
H815 H 0.47843 0.69608 0.29389 0.0
C816 C 0.47978 0.48281 0.24629 0.0
C817 C 0.44504 0.44075 0.25174 0.0
C818 C 0.50077 0.51929 0.25905 0.0
C819 C 0.48766 0.5141 0.27747 0.0
C820 C 0.45804 0.46854 0.28309 0.0
C821 C 0.43683 0.43211 0.27031 0.0
C822 C 0.52528 0.5935 0.31992 0.0
C823 C 0.51081 0.64632 0.31509 0.0
C824 C 0.51822 0.55023 0.30768 0.0
C825 C 0.49815 0.55957 0.29028 0.0
C826 C 0.48414 0.61268 0.28549 0.0
C827 C 0.48988 0.65557 0.29785 0.0
H828 H 0.38079 0.56016 0.93469 0.0
H829 H 0.43627 0.39892 0.94655 0.0
H830 H 0.31026 0.52202 0.91513 0.0
H831 H 0.36583 0.36049 0.92701 0.0
H832 H 0.19696 0.30861 0.91311 0.0
H833 H 0.26405 0.35792 0.9312 0.0
H834 H 0.29362 0.46577 0.88665 0.0
H835 H 0.22628 0.41621 0.86865 0.0
C836 C 0.37902 0.5166 0.93252 0.0
C837 C 0.41408 0.48232 0.9419 0.0
C838 C 0.33842 0.4948 0.92151 0.0
C839 C 0.3318 0.43834 0.91993 0.0
C840 C 0.36933 0.4042 0.92833 0.0
C841 C 0.41027 0.42606 0.9392 0.0
C842 C 0.21591 0.34451 0.90757 0.0
C843 C 0.20584 0.35956 0.88972 0.0
C844 C 0.25516 0.37193 0.91772 0.0
C845 C 0.28493 0.41479 0.91013 0.0
C846 C 0.2714 0.43279 0.8928 0.0
C847 C 0.2324 0.40502 0.88261 0.0
H848 H 0.4847 0.53838 0.72551 0.0
H849 H 0.39543 0.61111 0.68207 0.0
H850 H 0.52292 0.47217 0.70409 0.0
H851 H 0.43521 0.54606 0.66068 0.0
H852 H 0.46769 0.31999 0.66784 0.0
H853 H 0.45724 0.39902 0.68805 0.0
H854 H 0.52719 0.50177 0.64719 0.0
H855 H 0.53956 0.42202 0.6272 0.0
C856 C 0.47463 0.54134 0.71132 0.0
C857 C 0.43603 0.57903 0.70554 0.0
C858 C 0.49653 0.50356 0.69911 0.0
C859 C 0.48102 0.50367 0.6809 0.0
C860 C 0.44766 0.54531 0.6747 0.0
C861 C 0.42512 0.5827 0.68695 0.0
C862 C 0.48131 0.35941 0.66333 0.0
C863 C 0.50454 0.36538 0.64615 0.0
C864 C 0.47583 0.40437 0.67487 0.0
C865 C 0.49219 0.45609 0.66918 0.0
C866 C 0.51483 0.46213 0.65187 0.0
C867 C 0.52186 0.41679 0.64053 0.0
H868 H 0.33227 0.66573 0.48033 0.0
H869 H 0.23903 0.57932 0.4399 0.0
H870 H 0.39424 0.69725 0.4568 0.0
H871 H 0.30079 0.61127 0.41637 0.0
H872 H 0.42335 0.69867 0.37833 0.0
H873 H 0.34793 0.69168 0.40008 0.0
H874 H 0.4582 0.63083 0.43999 0.0
H875 H 0.53283 0.63718 0.41827 0.0
C876 C 0.32408 0.65499 0.46634 0.0
C877 C 0.28161 0.61926 0.46194 0.0
C878 C 0.35954 0.67283 0.45293 0.0
C879 C 0.35285 0.6555 0.43491 0.0
C880 C 0.30681 0.62505 0.43019 0.0
C881 C 0.27137 0.60696 0.44365 0.0
C882 C 0.43116 0.68426 0.39182 0.0
C883 C 0.48354 0.66878 0.39679 0.0
C884 C 0.38825 0.68022 0.40418 0.0
C885 C 0.39764 0.66196 0.42177 0.0
C886 C 0.45015 0.64628 0.42663 0.0
C887 C 0.49263 0.6492 0.41418 0.0
H888 H 0.30332 0.40621 0.18142 0.0
H889 H 0.30326 0.52827 0.22399 0.0
H890 H 0.26248 0.47099 0.16101 0.0
H891 H 0.26658 0.59402 0.20335 0.0
H892 H 0.14642 0.67971 0.16573 0.0
H893 H 0.1901 0.62099 0.18753 0.0
H894 H 0.28524 0.54818 0.14423 0.0
H895 H 0.239 0.60502 0.12251 0.0
C896 C 0.29439 0.44675 0.18643 0.0
C897 C 0.30725 0.46222 0.20424 0.0
C898 C 0.27194 0.48431 0.17466 0.0
C899 C 0.2623 0.53831 0.18038 0.0
C900 C 0.27333 0.553 0.19841 0.0
C901 C 0.29498 0.51532 0.21022 0.0
C902 C 0.17809 0.65243 0.16108 0.0
C903 C 0.19005 0.64704 0.1426 0.0
C904 C 0.20291 0.61841 0.17351 0.0
C905 C 0.24049 0.57887 0.16762 0.0
C906 C 0.25533 0.57687 0.1492 0.0
C907 C 0.22982 0.61015 0.1368 0.0
loop_
_geom_bond_atom_site_label_1
_geom_bond_atom_site_label_2
_geom_bond_distance
_geom_bond_site_symmetry_2
_ccdc_geom_bond_type
H0 C6 0.930 . S
H1 C9 0.931 . S
H2 C11 0.931 . S
H3 C13 0.930 . S
H4 C15 0.930 . S
H5 C17 0.931 . S
C6 H0 0.930 . S
C6 C7 1.380 1_545 S
C6 C8 1.394 . S
C7 C6 1.380 1_565 S
C7 C11 1.382 . S
C8 C6 1.394 . S
C8 C9 1.400 . S
C9 H1 0.931 . S
C9 C8 1.400 . S
C9 C10 1.375 1_545 S
C10 C9 1.375 1_565 S
C10 C11 1.415 . S
C10 C12 1.501 1_655 S
C11 H2 0.931 . S
C11 C7 1.382 . S
C11 C10 1.415 . S
C12 C10 1.501 1_455 S
C12 C13 1.384 . S
C12 C17 1.408 1_565 S
C13 H3 0.930 . S
C13 C12 1.384 . S
C13 C14 1.389 . S
C14 C13 1.389 . S
C14 C15 1.405 . S
C15 H4 0.930 . S
C15 C14 1.405 . S
C15 C16 1.364 1_565 S
C16 C15 1.364 1_545 S
C16 C17 1.400 . S
C17 H5 0.931 . S
C17 C12 1.408 1_545 S
C17 C16 1.400 . S
H18 C24 0.930 . S
H19 C27 0.931 . S
H20 C29 0.931 . S
H21 C31 0.930 . S
H22 C33 0.930 . S
H23 C35 0.931 . S
C24 H18 0.930 . S
C24 C25 1.380 . S
C24 C26 1.394 . S
C25 C24 1.380 . S
C25 C29 1.382 . S
C26 C24 1.394 . S
C26 C27 1.400 . S
C27 H19 0.931 . S
C27 C26 1.400 . S
C27 C28 1.375 . S
C28 C27 1.375 . S
C28 C29 1.415 . S
C28 C30 1.501 . S
C29 H20 0.931 . S
C29 C25 1.382 . S
C29 C28 1.415 . S
C30 C28 1.501 . S
C30 C31 1.384 . S
C30 C35 1.408 . S
C31 H21 0.930 . S
C31 C30 1.384 . S
C31 C32 1.389 . S
C32 C31 1.389 . S
C32 C33 1.405 . S
C33 H22 0.930 . S
C33 C32 1.405 . S
C33 C34 1.364 . S
C34 C33 1.364 . S
C34 C35 1.400 . S
C35 H23 0.931 . S
C35 C30 1.408 . S
C35 C34 1.400 . S
H36 C42 0.930 . S
H37 C45 0.931 . S
H38 C47 0.931 . S
H39 C49 0.930 . S
H40 C51 0.930 . S
H41 C53 0.931 . S
C42 H36 0.930 . S
C42 C43 1.380 1_564 S
C42 C44 1.394 . S
C43 C42 1.380 1_546 S
C43 C47 1.382 . S
C44 C42 1.394 . S
C44 C45 1.400 . S
C45 H37 0.931 . S
C45 C44 1.400 . S
C45 C46 1.375 1_565 S
C46 C45 1.375 1_545 S
C46 C47 1.415 1_554 S
C46 C48 1.501 . S
C47 H38 0.931 . S
C47 C43 1.382 . S
C47 C46 1.415 1_556 S
C48 C46 1.501 . S
C48 C49 1.384 1_554 S
C48 C53 1.408 1_545 S
C49 H39 0.930 . S
C49 C48 1.384 1_556 S
C49 C50 1.389 . S
C50 C49 1.389 . S
C50 C51 1.405 1_556 S
C51 H40 0.930 . S
C51 C50 1.405 1_554 S
C51 C52 1.364 1_545 S
C52 C51 1.364 1_565 S
C52 C53 1.400 . S
C53 H41 0.931 . S
C53 C48 1.408 1_565 S
C53 C52 1.400 . S
H54 C60 0.930 . S
H55 C63 0.931 . S
H56 C65 0.931 . S
H57 C67 0.930 . S
H58 C69 0.930 . S
H59 C71 0.931 . S
C60 H54 0.930 . S
C60 C61 1.380 . S
C60 C62 1.394 . S
C61 C60 1.380 . S
C61 C65 1.382 . S
C62 C60 1.394 . S
C62 C63 1.400 . S
C63 H55 0.931 . S
C63 C62 1.400 . S
C63 C64 1.375 . S
C64 C63 1.375 . S
C64 C65 1.415 . S
C64 C66 1.501 . S
C65 H56 0.931 . S
C65 C61 1.382 . S
C65 C64 1.415 . S
C66 C64 1.501 . S
C66 C67 1.384 . S
C66 C71 1.408 . S
C67 H57 0.930 . S
C67 C66 1.384 . S
C67 C68 1.389 . S
C68 C67 1.389 . S
C68 C69 1.405 . S
C69 H58 0.930 . S
C69 C68 1.405 . S
C69 C70 1.364 . S
C70 C69 1.364 . S
C70 C71 1.400 . S
C71 H59 0.931 . S
C71 C66 1.408 . S
C71 C70 1.400 . S
H72 C78 0.930 . S
H73 C81 0.931 . S
H74 C83 0.931 . S
H75 C85 0.930 . S
H76 C87 0.930 . S
H77 C89 0.931 . S
C78 H72 0.930 . S
C78 C79 1.380 . S
C78 C80 1.394 . S
C79 C78 1.380 . S
C79 C83 1.382 . S
C80 C78 1.394 . S
C80 C81 1.400 . S
C81 H73 0.931 . S
C81 C80 1.400 . S
C81 C82 1.375 . S
C82 C81 1.375 . S
C82 C83 1.415 . S
C82 C84 1.501 . S
C83 H74 0.931 . S
C83 C79 1.382 . S
C83 C82 1.415 . S
C84 C82 1.501 . S
C84 C85 1.384 . S
C84 C89 1.408 . S
C85 H75 0.930 . S
C85 C84 1.384 . S
C85 C86 1.389 . S
C86 C85 1.389 . S
C86 C87 1.405 . S
C87 H76 0.930 . S
C87 C86 1.405 . S
C87 C88 1.364 . S
C88 C87 1.364 . S
C88 C89 1.400 . S
C89 H77 0.931 . S
C89 C84 1.408 . S
C89 C88 1.400 . S
H90 C96 0.930 . S
H91 C99 0.931 . S
H92 C101 0.931 . S
H93 C103 0.930 . S
H94 C105 0.930 . S
H95 C107 0.931 . S
C96 H90 0.930 . S
C96 C97 1.380 . S
C96 C98 1.394 . S
C97 C96 1.380 . S
C97 C101 1.382 . S
C98 C96 1.394 . S
C98 C99 1.400 . S
C99 H91 0.931 . S
C99 C98 1.400 . S
C99 C100 1.375 . S
C100 C99 1.375 . S
C100 C101 1.415 . S
C100 C102 1.501 . S
C101 H92 0.931 . S
C101 C97 1.382 . S
C101 C100 1.415 . S
C102 C100 1.501 . S
C102 C103 1.384 . S
C102 C107 1.408 . S
C103 H93 0.930 . S
C103 C102 1.384 . S
C103 C104 1.389 . S
C104 C103 1.389 . S
C104 C105 1.405 . S
C105 H94 0.930 . S
C105 C104 1.405 . S
C105 C106 1.364 . S
C106 C105 1.364 . S
C106 C107 1.400 . S
C107 H95 0.931 . S
C107 C102 1.408 . S
C107 C106 1.400 . S
H108 C114 0.930 . S
H109 C117 0.931 . S
H110 C119 0.931 . S
H111 C121 0.930 . S
H112 C123 0.930 . S
H113 C125 0.931 . S
C114 H108 0.930 . S
C114 C115 1.380 . S
C114 C116 1.394 1_554 S
C115 C114 1.380 . S
C115 C119 1.382 . S
C116 C114 1.394 1_556 S
C116 C117 1.400 . S
C117 H109 0.931 . S
C117 C116 1.400 . S
C117 C118 1.375 1_556 S
C118 C117 1.375 1_554 S
C118 C119 1.415 . S
C118 C120 1.501 . S
C119 H110 0.931 . S
C119 C115 1.382 . S
C119 C118 1.415 . S
C120 C118 1.501 . S
C120 C121 1.384 . S
C120 C125 1.408 1_554 S
C121 H111 0.930 . S
C121 C120 1.384 . S
C121 C122 1.389 . S
C122 C121 1.389 . S
C122 C123 1.405 . S
C123 H112 0.930 . S
C123 C122 1.405 . S
C123 C124 1.364 1_554 S
C124 C123 1.364 1_556 S
C124 C125 1.400 . S
C125 H113 0.931 . S
C125 C120 1.408 1_556 S
C125 C124 1.400 . S
H126 C132 0.930 . S
H127 C135 0.931 . S
H128 C137 0.931 . S
H129 C139 0.930 . S
H130 C141 0.930 1_655 S
H131 C143 0.931 . S
C132 H126 0.930 . S
C132 C133 1.380 . S
C132 C134 1.394 . S
C133 C132 1.380 . S
C133 C137 1.382 . S
C134 C132 1.394 . S
C134 C135 1.400 . S
C135 H127 0.931 . S
C135 C134 1.400 . S
C135 C136 1.375 . S
C136 C135 1.375 . S
C136 C137 1.415 . S
C136 C138 1.501 . S
C137 H128 0.931 . S
C137 C133 1.382 . S
C137 C136 1.415 . S
C138 C136 1.501 . S
C138 C139 1.384 . S
C138 C143 1.408 . S
C139 H129 0.930 . S
C139 C138 1.384 . S
C139 C140 1.389 . S
C140 C139 1.389 . S
C140 C141 1.405 . S
C141 H130 0.930 1_455 S
C141 C140 1.405 . S
C141 C142 1.364 . S
C142 C141 1.364 . S
C142 C143 1.400 . S
C143 H131 0.931 . S
C143 C138 1.408 . S
C143 C142 1.400 . S
C144 O171 1.312 . S
C144 O172 1.208 . S
C145 O166 1.331 1_655 S
C145 O169 1.244 . S
C146 O168 1.264 1_655 S
C146 O170 1.273 . S
Mg147 O149 1.936 . S
Mg147 O156 2.081 . S
Mg147 O158 2.023 . S
Mg147 O162 2.031 . S
Mg147 O171 2.291 . S
Mg148 O149 1.963 . S
Mg148 O159 1.942 . S
Mg148 O160 1.955 . S
Mg148 O167 1.986 . S
O149 Mg147 1.936 . S
O149 Mg148 1.963 . S
O149 Mg150 1.915 . S
Mg150 O149 1.915 . S
Mg150 O151 1.915 . S
Mg150 O155 2.013 . S
Mg150 O161 2.114 . S
Mg150 O165 2.013 . S
Mg150 O171 2.114 . S
O151 Mg150 1.915 . S
O151 Mg152 1.936 . S
O151 Mg153 1.963 1_455 S
Mg152 O151 1.936 . S
Mg152 O161 2.291 . S
Mg152 O166 2.081 . S
Mg152 O168 2.023 . S
Mg152 O172 2.031 . S
Mg153 O151 1.963 1_655 S
Mg153 O157 1.986 . S
Mg153 O169 1.942 . S
Mg153 O170 1.955 . S
C154 O165 1.191 . S
C154 O167 1.307 . S
O155 Mg150 2.013 . S
O155 C174 1.191 . S
O156 Mg147 2.081 . S
O156 C164 1.331 . S
O157 Mg153 1.986 . S
O157 C174 1.307 1_655 S
O158 Mg147 2.023 . S
O158 C173 1.264 . S
O159 Mg148 1.942 . S
O159 C164 1.244 . S
O160 Mg148 1.955 . S
O160 C173 1.273 . S
O161 Mg150 2.114 . S
O161 Mg152 2.291 . S
O161 C163 1.312 . S
O162 Mg147 2.031 . S
O162 C163 1.208 . S
C163 O161 1.312 . S
C163 O162 1.208 . S
C164 O156 1.331 . S
C164 O159 1.244 . S
O165 Mg150 2.013 . S
O165 C154 1.191 . S
O166 C145 1.331 1_455 S
O166 Mg152 2.081 . S
O167 Mg148 1.986 . S
O167 C154 1.307 . S
O168 C146 1.264 1_455 S
O168 Mg152 2.023 . S
O169 C145 1.244 . S
O169 Mg153 1.942 . S
O170 C146 1.273 . S
O170 Mg153 1.955 . S
O171 C144 1.312 . S
O171 Mg147 2.291 . S
O171 Mg150 2.114 . S
O172 C144 1.208 . S
O172 Mg152 2.031 . S
C173 O158 1.264 . S
C173 O160 1.273 . S
C174 O155 1.191 . S
C174 O157 1.307 1_455 S
C175 O202 1.312 . S
C175 O203 1.208 . S
C176 O197 1.331 . S
C176 O200 1.244 . S
C177 O199 1.264 . S
C177 O201 1.273 . S
Mg178 O180 1.936 . S
Mg178 O187 2.081 . S
Mg178 O189 2.023 . S
Mg178 O193 2.031 . S
Mg178 O202 2.291 . S
Mg179 O180 1.963 . S
Mg179 O190 1.942 . S
Mg179 O191 1.955 . S
Mg179 O198 1.986 . S
O180 Mg178 1.936 . S
O180 Mg179 1.963 . S
O180 Mg181 1.915 . S
Mg181 O180 1.915 . S
Mg181 O182 1.915 . S
Mg181 O186 2.013 . S
Mg181 O192 2.114 . S
Mg181 O196 2.013 . S
Mg181 O202 2.114 . S
O182 Mg181 1.915 . S
O182 Mg183 1.936 . S
O182 Mg184 1.963 . S
Mg183 O182 1.936 . S
Mg183 O192 2.291 . S
Mg183 O197 2.081 . S
Mg183 O199 2.023 . S
Mg183 O203 2.031 . S
Mg184 O182 1.963 . S
Mg184 O188 1.986 . S
Mg184 O200 1.942 . S
Mg184 O201 1.955 . S
C185 O196 1.191 . S
C185 O198 1.307 . S
O186 Mg181 2.013 . S
O186 C205 1.191 . S
O187 Mg178 2.081 . S
O187 C195 1.331 . S
O188 Mg184 1.986 . S
O188 C205 1.307 . S
O189 Mg178 2.023 . S
O189 C204 1.264 . S
O190 Mg179 1.942 . S
O190 C195 1.244 . S
O191 Mg179 1.955 . S
O191 C204 1.273 . S
O192 Mg181 2.114 . S
O192 Mg183 2.291 . S
O192 C194 1.312 . S
O193 Mg178 2.031 . S
O193 C194 1.208 . S
C194 O192 1.312 . S
C194 O193 1.208 . S
C195 O187 1.331 . S
C195 O190 1.244 . S
O196 Mg181 2.013 . S
O196 C185 1.191 . S
O197 C176 1.331 . S
O197 Mg183 2.081 . S
O198 Mg179 1.986 . S
O198 C185 1.307 . S
O199 C177 1.264 . S
O199 Mg183 2.023 . S
O200 C176 1.244 . S
O200 Mg184 1.942 . S
O201 C177 1.273 . S
O201 Mg184 1.955 . S
O202 C175 1.312 . S
O202 Mg178 2.291 . S
O202 Mg181 2.114 . S
O203 C175 1.208 . S
O203 Mg183 2.031 . S
C204 O189 1.264 . S
C204 O191 1.273 . S
C205 O186 1.191 . S
C205 O188 1.307 . S
C206 O233 1.312 . S
C206 O234 1.208 . S
C207 O228 1.331 . S
C207 O231 1.244 . S
C208 O230 1.264 . S
C208 O232 1.273 . S
Mg209 O211 1.936 . S
Mg209 O218 2.081 . S
Mg209 O220 2.023 . S
Mg209 O224 2.031 . S
Mg209 O233 2.291 . S
Mg210 O211 1.963 . S
Mg210 O221 1.942 . S
Mg210 O222 1.955 . S
Mg210 O229 1.986 . S
O211 Mg209 1.936 . S
O211 Mg210 1.963 . S
O211 Mg212 1.915 . S
Mg212 O211 1.915 . S
Mg212 O213 1.915 . S
Mg212 O217 2.013 . S
Mg212 O223 2.114 . S
Mg212 O227 2.013 . S
Mg212 O233 2.114 . S
O213 Mg212 1.915 . S
O213 Mg214 1.936 . S
O213 Mg215 1.963 . S
Mg214 O213 1.936 . S
Mg214 O223 2.291 . S
Mg214 O228 2.081 . S
Mg214 O230 2.023 . S
Mg214 O234 2.031 . S
Mg215 O213 1.963 . S
Mg215 O219 1.986 . S
Mg215 O231 1.942 . S
Mg215 O232 1.955 . S
C216 O227 1.191 . S
C216 O229 1.307 . S
O217 Mg212 2.013 . S
O217 C236 1.191 . S
O218 Mg209 2.081 . S
O218 C226 1.331 . S
O219 Mg215 1.986 . S
O219 C236 1.307 . S
O220 Mg209 2.023 . S
O220 C235 1.264 . S
O221 Mg210 1.942 . S
O221 C226 1.244 . S
O222 Mg210 1.955 . S
O222 C235 1.273 . S
O223 Mg212 2.114 . S
O223 Mg214 2.291 . S
O223 C225 1.312 . S
O224 Mg209 2.031 . S
O224 C225 1.208 . S
C225 O223 1.312 . S
C225 O224 1.208 . S
C226 O218 1.331 . S
C226 O221 1.244 . S
O227 Mg212 2.013 . S
O227 C216 1.191 . S
O228 C207 1.331 . S
O228 Mg214 2.081 . S
O229 Mg210 1.986 . S
O229 C216 1.307 . S
O230 C208 1.264 . S
O230 Mg214 2.023 . S
O231 C207 1.244 . S
O231 Mg215 1.942 . S
O232 C208 1.273 . S
O232 Mg215 1.955 . S
O233 C206 1.312 . S
O233 Mg209 2.291 . S
O233 Mg212 2.114 . S
O234 C206 1.208 . S
O234 Mg214 2.031 . S
C235 O220 1.264 . S
C235 O222 1.273 . S
C236 O217 1.191 . S
C236 O219 1.307 . S
C237 O264 1.312 . S
C237 O265 1.208 . S
C238 O259 1.331 . S
C238 O262 1.244 . S
C239 O261 1.264 . S
C239 O263 1.273 . S
Mg240 O242 1.936 . S
Mg240 O249 2.081 . S
Mg240 O251 2.023 . S
Mg240 O255 2.031 . S
Mg240 O264 2.291 . S
Mg241 O242 1.963 1_655 S
Mg241 O252 1.942 . S
Mg241 O253 1.955 . S
Mg241 O260 1.986 . S
O242 Mg240 1.936 . S
O242 Mg241 1.963 1_455 S
O242 Mg243 1.915 . S
Mg243 O242 1.915 . S
Mg243 O244 1.915 . S
Mg243 O248 2.013 . S
Mg243 O254 2.114 . S
Mg243 O258 2.013 . S
Mg243 O264 2.114 . S
O244 Mg243 1.915 . S
O244 Mg245 1.936 . S
O244 Mg246 1.963 . S
Mg245 O244 1.936 . S
Mg245 O254 2.291 . S
Mg245 O259 2.081 . S
Mg245 O261 2.023 . S
Mg245 O265 2.031 . S
Mg246 O244 1.963 . S
Mg246 O250 1.986 . S
Mg246 O262 1.942 . S
Mg246 O263 1.955 . S
C247 O258 1.191 . S
C247 O260 1.307 1_455 S
O248 Mg243 2.013 . S
O248 C267 1.191 . S
O249 Mg240 2.081 . S
O249 C257 1.331 1_455 S
O250 Mg246 1.986 . S
O250 C267 1.307 . S
O251 Mg240 2.023 . S
O251 C266 1.264 1_455 S
O252 Mg241 1.942 . S
O252 C257 1.244 . S
O253 Mg241 1.955 . S
O253 C266 1.273 . S
O254 Mg243 2.114 . S
O254 Mg245 2.291 . S
O254 C256 1.312 . S
O255 Mg240 2.031 . S
O255 C256 1.208 . S
C256 O254 1.312 . S
C256 O255 1.208 . S
C257 O249 1.331 1_655 S
C257 O252 1.244 . S
O258 Mg243 2.013 . S
O258 C247 1.191 . S
O259 C238 1.331 . S
O259 Mg245 2.081 . S
O260 Mg241 1.986 . S
O260 C247 1.307 1_655 S
O261 C239 1.264 . S
O261 Mg245 2.023 . S
O262 C238 1.244 . S
O262 Mg246 1.942 . S
O263 C239 1.273 . S
O263 Mg246 1.955 . S
O264 C237 1.312 . S
O264 Mg240 2.291 . S
O264 Mg243 2.114 . S
O265 C237 1.208 . S
O265 Mg245 2.031 . S
C266 O251 1.264 1_655 S
C266 O253 1.273 . S
C267 O248 1.191 . S
C267 O250 1.307 . S
H268 C276 0.950 . S
H269 C281 0.950 . S
H270 C278 0.950 . S
H271 C280 0.950 . S
H272 C282 0.950 . S
H273 C284 0.950 . S
H274 C286 0.950 . S
H275 C287 0.950 . S
C276 H268 0.950 . S
C276 C277 1.386 . S
C276 C278 1.391 . S
C277 C276 1.386 . S
C277 C281 1.393 . S
C278 H270 0.950 . S
C278 C276 1.391 . S
C278 C279 1.400 . S
C279 C278 1.400 . S
C279 C280 1.398 . S
C279 C285 1.491 . S
C280 H271 0.950 . S
C280 C279 1.398 . S
C280 C281 1.391 . S
C281 H269 0.950 . S
C281 C277 1.393 . S
C281 C280 1.391 . S
C282 H272 0.950 . S
C282 C283 1.386 . S
C282 C284 1.391 . S
C283 C282 1.386 . S
C283 C287 1.393 . S
C284 H273 0.950 . S
C284 C282 1.391 . S
C284 C285 1.400 . S
C285 C279 1.491 . S
C285 C284 1.400 . S
C285 C286 1.398 . S
C286 H274 0.950 . S
C286 C285 1.398 . S
C286 C287 1.391 . S
C287 H275 0.950 . S
C287 C283 1.393 . S
C287 C286 1.391 . S
H288 C296 0.950 . S
H289 C301 0.950 . S
H290 C298 0.950 . S
H291 C300 0.950 . S
H292 C302 0.950 . S
H293 C304 0.950 . S
H294 C306 0.950 . S
H295 C307 0.950 . S
C296 H288 0.950 . S
C296 C297 1.386 . S
C296 C298 1.391 . S
C297 C296 1.386 . S
C297 C301 1.393 . S
C298 H290 0.950 . S
C298 C296 1.391 . S
C298 C299 1.400 . S
C299 C298 1.400 . S
C299 C300 1.398 . S
C299 C305 1.491 . S
C300 H291 0.950 . S
C300 C299 1.398 . S
C300 C301 1.391 . S
C301 H289 0.950 . S
C301 C297 1.393 . S
C301 C300 1.391 . S
C302 H292 0.950 . S
C302 C303 1.386 . S
C302 C304 1.391 1_545 S
C303 C302 1.386 . S
C303 C307 1.393 . S
C304 H293 0.950 . S
C304 C302 1.391 1_565 S
C304 C305 1.400 . S
C305 C299 1.491 . S
C305 C304 1.400 . S
C305 C306 1.398 1_565 S
C306 H294 0.950 . S
C306 C305 1.398 1_545 S
C306 C307 1.391 . S
C307 H295 0.950 . S
C307 C303 1.393 . S
C307 C306 1.391 . S
H308 C316 0.950 . S
H309 C321 0.986 . S
H310 C318 0.950 . S
H311 C320 0.950 . S
H312 C322 0.950 . S
H313 C324 0.950 . S
H314 C326 0.950 . S
H315 C327 0.950 . S
C316 H308 0.950 . S
C316 C317 1.386 . S
C316 C318 1.391 . S
C317 C316 1.386 . S
C317 C321 1.393 . S
C318 H310 0.950 . S
C318 C316 1.391 . S
C318 C319 1.400 . S
C319 C318 1.400 . S
C319 C320 1.398 . S
C319 C325 1.491 . S
C320 H311 0.950 . S
C320 C319 1.398 . S
C320 C321 1.391 . S
C321 H309 0.986 . S
C321 C317 1.393 . S
C321 C320 1.391 . S
C322 H312 0.950 . S
C322 C323 1.386 . S
C322 C324 1.391 . S
C323 C322 1.386 . S
C323 C327 1.393 . S
C324 H313 0.950 . S
C324 C322 1.391 . S
C324 C325 1.400 . S
C325 C319 1.491 . S
C325 C324 1.400 . S
C325 C326 1.398 . S
C326 H314 0.950 . S
C326 C325 1.398 . S
C326 C327 1.391 . S
C327 H315 0.950 . S
C327 C323 1.393 . S
C327 C326 1.391 . S
H328 C336 0.950 . S
H329 C341 0.950 . S
H330 C338 0.950 . S
H331 C340 0.950 . S
H332 C342 0.950 . S
H333 C344 0.950 . S
H334 C346 0.950 . S
H335 C347 0.950 . S
C336 H328 0.950 . S
C336 C337 1.386 . S
C336 C338 1.391 . S
C337 C336 1.386 . S
C337 C341 1.393 . S
C338 H330 0.950 . S
C338 C336 1.391 . S
C338 C339 1.400 . S
C339 C338 1.400 . S
C339 C340 1.398 . S
C339 C345 1.491 . S
C340 H331 0.950 . S
C340 C339 1.398 . S
C340 C341 1.391 . S
C341 H329 0.950 . S
C341 C337 1.393 . S
C341 C340 1.391 . S
C342 H332 0.950 . S
C342 C343 1.386 . S
C342 C344 1.391 1_565 S
C343 C342 1.386 . S
C343 C347 1.393 . S
C344 H333 0.950 . S
C344 C342 1.391 1_545 S
C344 C345 1.400 . S
C345 C339 1.491 . S
C345 C344 1.400 . S
C345 C346 1.398 1_545 S
C346 H334 0.950 . S
C346 C345 1.398 1_565 S
C346 C347 1.391 . S
C347 H335 0.950 . S
C347 C343 1.393 . S
C347 C346 1.391 . S
H348 C356 0.950 . S
H349 C361 0.950 . S
H350 C358 0.950 . S
H351 C360 0.950 . S
H352 C362 0.950 . S
H353 C364 0.950 . S
H354 C366 0.950 . S
H355 C367 0.950 . S
C356 H348 0.950 . S
C356 C357 1.386 . S
C356 C358 1.391 . S
C357 C356 1.386 . S
C357 C361 1.393 . S
C358 H350 0.950 . S
C358 C356 1.391 . S
C358 C359 1.400 . S
C359 C358 1.400 . S
C359 C360 1.398 . S
C359 C365 1.491 . S
C360 H351 0.950 . S
C360 C359 1.398 . S
C360 C361 1.391 . S
C361 H349 0.950 . S
C361 C357 1.393 . S
C361 C360 1.391 . S
C362 H352 0.950 . S
C362 C363 1.386 . S
C362 C364 1.391 . S
C363 C362 1.386 . S
C363 C367 1.393 . S
C364 H353 0.950 . S
C364 C362 1.391 . S
C364 C365 1.400 . S
C365 C359 1.491 . S
C365 C364 1.400 . S
C365 C366 1.398 . S
C366 H354 0.950 . S
C366 C365 1.398 . S
C366 C367 1.391 . S
C367 H355 0.950 . S
C367 C363 1.393 . S
C367 C366 1.391 . S
H368 C376 0.950 . S
H369 C381 0.950 . S
H370 C378 0.950 . S
H371 C380 0.950 . S
H372 C382 0.950 . S
H373 C384 0.950 . S
H374 C386 0.950 . S
H375 C387 0.950 . S
C376 H368 0.950 . S
C376 C377 1.386 . S
C376 C378 1.391 . S
C377 C376 1.386 . S
C377 C381 1.393 . S
C378 H370 0.950 . S
C378 C376 1.391 . S
C378 C379 1.400 . S
C379 C378 1.400 . S
C379 C380 1.398 . S
C379 C385 1.491 . S
C380 H371 0.950 . S
C380 C379 1.398 . S
C380 C381 1.391 . S
C381 H369 0.950 . S
C381 C377 1.393 . S
C381 C380 1.391 . S
C382 H372 0.950 . S
C382 C383 1.386 . S
C382 C384 1.391 1_545 S
C383 C382 1.386 . S
C383 C387 1.393 . S
C384 H373 0.950 . S
C384 C382 1.391 1_565 S
C384 C385 1.400 . S
C385 C379 1.491 . S
C385 C384 1.400 . S
C385 C386 1.398 1_565 S
C386 H374 0.950 . S
C386 C385 1.398 1_545 S
C386 C387 1.391 . S
C387 H375 0.950 . S
C387 C383 1.393 . S
C387 C386 1.391 . S
H388 C396 0.950 . S
H389 C401 0.950 . S
H390 C398 0.950 . S
H391 C400 0.950 . S
H392 C402 0.950 . S
H393 C404 0.950 . S
H394 C406 0.950 . S
H395 C407 0.950 . S
C396 H388 0.950 . S
C396 C397 1.386 . S
C396 C398 1.391 . S
C397 C396 1.386 . S
C397 C401 1.393 . S
C398 H390 0.950 . S
C398 C396 1.391 . S
C398 C399 1.400 . S
C399 C398 1.400 . S
C399 C400 1.398 . S
C399 C405 1.491 . S
C400 H391 0.950 . S
C400 C399 1.398 . S
C400 C401 1.391 . S
C401 H389 0.950 . S
C401 C397 1.393 . S
C401 C400 1.391 . S
C402 H392 0.950 . S
C402 C403 1.386 . S
C402 C404 1.391 . S
C403 C402 1.386 . S
C403 C407 1.393 . S
C404 H393 0.950 . S
C404 C402 1.391 . S
C404 C405 1.400 . S
C405 C399 1.491 . S
C405 C404 1.400 . S
C405 C406 1.398 . S
C406 H394 0.950 . S
C406 C405 1.398 . S
C406 C407 1.391 . S
C407 H395 0.950 . S
C407 C403 1.393 . S
C407 C406 1.391 . S
H408 C416 0.950 . S
H409 C421 0.950 . S
H410 C418 0.950 . S
H411 C420 0.950 . S
H412 C422 0.950 . S
H413 C424 0.950 . S
H414 C426 0.950 . S
H415 C427 0.950 . S
C416 H408 0.950 . S
C416 C417 1.386 . S
C416 C418 1.391 . S
C417 C416 1.386 . S
C417 C421 1.393 . S
C418 H410 0.950 . S
C418 C416 1.391 . S
C418 C419 1.400 . S
C419 C418 1.400 . S
C419 C420 1.398 . S
C419 C425 1.491 . S
C420 H411 0.950 . S
C420 C419 1.398 . S
C420 C421 1.391 . S
C421 H409 0.950 . S
C421 C417 1.393 . S
C421 C420 1.391 . S
C422 H412 0.950 . S
C422 C423 1.386 . S
C422 C424 1.391 1_565 S
C423 C422 1.386 . S
C423 C427 1.393 . S
C424 H413 0.950 . S
C424 C422 1.391 1_545 S
C424 C425 1.400 . S
C425 C419 1.491 . S
C425 C424 1.400 . S
C425 C426 1.398 1_545 S
C426 H414 0.950 . S
C426 C425 1.398 1_565 S
C426 C427 1.391 . S
C427 H415 0.950 . S
C427 C423 1.393 . S
C427 C426 1.391 . S
H428 C436 0.950 . S
H429 C441 0.950 . S
H430 C438 0.950 . S
H431 C440 0.950 . S
H432 C442 0.950 . S
H433 C444 0.950 . S
H434 C446 0.950 . S
H435 C447 0.950 . S
C436 H428 0.950 . S
C436 C437 1.386 . S
C436 C438 1.391 . S
C437 C436 1.386 . S
C437 C441 1.393 . S
C438 H430 0.950 . S
C438 C436 1.391 . S
C438 C439 1.400 . S
C439 C438 1.400 . S
C439 C440 1.398 . S
C439 C445 1.491 . S
C440 H431 0.950 . S
C440 C439 1.398 . S
C440 C441 1.391 . S
C441 H429 0.950 . S
C441 C437 1.393 . S
C441 C440 1.391 . S
C442 H432 0.950 . S
C442 C443 1.386 . S
C442 C444 1.391 . S
C443 C442 1.386 . S
C443 C447 1.393 . S
C444 H433 0.950 . S
C444 C442 1.391 . S
C444 C445 1.400 . S
C445 C439 1.491 . S
C445 C444 1.400 . S
C445 C446 1.398 . S
C446 H434 0.950 . S
C446 C445 1.398 . S
C446 C447 1.391 . S
C447 H435 0.950 . S
C447 C443 1.393 . S
C447 C446 1.391 . S
H448 C456 0.950 . S
H449 C461 0.950 . S
H450 C458 0.950 . S
H451 C460 0.950 . S
H452 C462 0.950 . S
H453 C464 0.950 . S
H454 C466 0.950 . S
H455 C467 0.950 . S
C456 H448 0.950 . S
C456 C457 1.386 . S
C456 C458 1.391 1_545 S
C457 C456 1.386 . S
C457 C461 1.393 . S
C458 H450 0.950 . S
C458 C456 1.391 1_565 S
C458 C459 1.400 . S
C459 C458 1.400 . S
C459 C460 1.398 . S
C459 C465 1.491 . S
C460 H451 0.950 . S
C460 C459 1.398 . S
C460 C461 1.391 1_565 S
C461 H449 0.950 . S
C461 C457 1.393 . S
C461 C460 1.391 1_545 S
C462 H452 0.950 . S
C462 C463 1.386 . S
C462 C464 1.391 . S
C463 C462 1.386 . S
C463 C467 1.393 . S
C464 H453 0.950 . S
C464 C462 1.391 . S
C464 C465 1.400 . S
C465 C459 1.491 . S
C465 C464 1.400 . S
C465 C466 1.398 . S
C466 H454 0.950 . S
C466 C465 1.398 . S
C466 C467 1.391 . S
C467 H455 0.950 . S
C467 C463 1.393 . S
C467 C466 1.391 . S
H468 C476 0.950 . S
H469 C481 0.950 . S
H470 C478 0.950 . S
H471 C480 0.950 . S
H472 C482 0.950 . S
H473 C484 0.950 . S
H474 C486 0.950 . S
H475 C487 0.950 . S
C476 H468 0.950 . S
C476 C477 1.386 . S
C476 C478 1.391 . S
C477 C476 1.386 . S
C477 C481 1.393 . S
C478 H470 0.950 . S
C478 C476 1.391 . S
C478 C479 1.400 . S
C479 C478 1.400 . S
C479 C480 1.398 . S
C479 C485 1.491 . S
C480 H471 0.950 . S
C480 C479 1.398 . S
C480 C481 1.391 . S
C481 H469 0.950 . S
C481 C477 1.393 . S
C481 C480 1.391 . S
C482 H472 0.950 . S
C482 C483 1.386 1_655 S
C482 C484 1.391 . S
C483 C482 1.386 1_455 S
C483 C487 1.393 . S
C484 H473 0.950 . S
C484 C482 1.391 . S
C484 C485 1.400 . S
C485 C479 1.491 . S
C485 C484 1.400 . S
C485 C486 1.398 . S
C486 H474 0.950 . S
C486 C485 1.398 . S
C486 C487 1.391 1_655 S
C487 H475 0.950 . S
C487 C483 1.393 . S
C487 C486 1.391 1_455 S
H488 C496 0.950 . S
H489 C501 0.950 . S
H490 C498 0.950 . S
H491 C500 0.950 . S
H492 C502 0.950 . S
H493 C504 0.950 . S
H494 C506 0.955 . S
H495 C507 0.950 . S
C496 H488 0.950 . S
C496 C497 1.386 . S
C496 C498 1.391 . S
C497 C496 1.386 . S
C497 C501 1.393 1_565 S
C498 H490 0.950 . S
C498 C496 1.391 . S
C498 C499 1.400 1_565 S
C499 C498 1.400 1_545 S
C499 C500 1.398 . S
C499 C505 1.491 . S
C500 H491 0.950 . S
C500 C499 1.398 . S
C500 C501 1.391 . S
C501 H489 0.950 . S
C501 C497 1.393 1_545 S
C501 C500 1.391 . S
C502 H492 0.950 . S
C502 C503 1.386 1_655 S
C502 C504 1.391 . S
C503 C502 1.386 1_455 S
C503 C507 1.393 . S
C504 H493 0.950 . S
C504 C502 1.391 . S
C504 C505 1.400 . S
C505 C499 1.491 . S
C505 C504 1.400 . S
C505 C506 1.387 1_655 S
C506 H494 0.955 . S
C506 C505 1.387 1_455 S
C506 C507 1.396 . S
C507 H495 0.950 . S
C507 C503 1.393 . S
C507 C506 1.396 . S
H508 C516 0.950 . S
H509 C521 0.950 1_545 S
H510 C518 0.950 . S
H511 C520 0.950 . S
H512 C522 0.950 . S
H513 C524 0.950 . S
H514 C526 0.950 . S
H515 C527 0.950 . S
C516 H508 0.950 . S
C516 C517 1.386 . S
C516 C518 1.391 . S
C517 C516 1.386 . S
C517 C521 1.393 . S
C518 H510 0.950 . S
C518 C516 1.391 . S
C518 C519 1.400 . S
C519 C518 1.400 . S
C519 C520 1.398 . S
C519 C525 1.491 . S
C520 H511 0.950 . S
C520 C519 1.398 . S
C520 C521 1.391 . S
C521 H509 0.950 1_565 S
C521 C517 1.393 . S
C521 C520 1.391 . S
C522 H512 0.950 . S
C522 C523 1.386 . S
C522 C524 1.391 . S
C523 C522 1.386 . S
C523 C527 1.393 . S
C524 H513 0.950 . S
C524 C522 1.391 . S
C524 C525 1.400 . S
C525 C519 1.491 . S
C525 C524 1.400 . S
C525 C526 1.398 . S
C526 H514 0.950 . S
C526 C525 1.398 . S
C526 C527 1.391 . S
C527 H515 0.950 . S
C527 C523 1.393 . S
C527 C526 1.391 . S
H528 C536 0.950 . S
H529 C541 0.950 . S
H530 C538 0.950 . S
H531 C540 0.950 . S
H532 C542 0.950 1_455 S
H533 C544 0.950 . S
H534 C546 0.950 . S
H535 C547 0.950 . S
C536 H528 0.950 . S
C536 C537 1.386 1_565 S
C536 C538 1.391 . S
C537 C536 1.386 1_545 S
C537 C541 1.393 . S
C538 H530 0.950 . S
C538 C536 1.391 . S
C538 C539 1.400 . S
C539 C538 1.400 . S
C539 C540 1.398 1_565 S
C539 C545 1.491 . S
C540 H531 0.950 . S
C540 C539 1.398 1_545 S
C540 C541 1.391 . S
C541 H529 0.950 . S
C541 C537 1.393 . S
C541 C540 1.391 . S
C542 H532 0.950 1_655 S
C542 C543 1.386 1_655 S
C542 C544 1.391 . S
C543 C542 1.386 1_455 S
C543 C547 1.393 1_455 S
C544 H533 0.950 . S
C544 C542 1.391 . S
C544 C545 1.400 . S
C545 C539 1.491 . S
C545 C544 1.400 . S
C545 C546 1.398 . S
C546 H534 0.950 . S
C546 C545 1.398 . S
C546 C547 1.391 . S
C547 H535 0.950 . S
C547 C543 1.393 1_655 S
C547 C546 1.391 . S
H548 C556 0.950 . S
H549 C561 0.950 . S
H550 C558 0.950 . S
H551 C560 0.950 . S
H552 C562 0.950 . S
H553 C564 0.950 . S
H554 C566 0.950 . S
H555 C567 0.950 . S
C556 H548 0.950 . S
C556 C557 1.386 . S
C556 C558 1.391 . S
C557 C556 1.386 . S
C557 C561 1.393 . S
C558 H550 0.950 . S
C558 C556 1.391 . S
C558 C559 1.400 . S
C559 C558 1.400 . S
C559 C560 1.398 . S
C559 C565 1.491 . S
C560 H551 0.950 . S
C560 C559 1.398 . S
C560 C561 1.391 . S
C561 H549 0.950 . S
C561 C557 1.393 . S
C561 C560 1.391 . S
C562 H552 0.950 . S
C562 C563 1.386 1_655 S
C562 C564 1.391 . S
C563 C562 1.386 1_455 S
C563 C567 1.393 . S
C564 H553 0.950 . S
C564 C562 1.391 . S
C564 C565 1.400 . S
C565 C559 1.491 . S
C565 C564 1.400 . S
C565 C566 1.398 . S
C566 H554 0.950 . S
C566 C565 1.398 . S
C566 C567 1.391 1_655 S
C567 H555 0.950 . S
C567 C563 1.393 . S
C567 C566 1.391 1_455 S
H568 C576 0.950 . S
H569 C581 0.950 . S
H570 C578 0.950 . S
H571 C580 0.950 . S
H572 C582 0.950 . S
H573 C584 0.950 . S
H574 C586 0.950 . S
H575 C587 0.950 . S
C576 H568 0.950 . S
C576 C577 1.386 . S
C576 C578 1.391 1_565 S
C577 C576 1.386 . S
C577 C581 1.393 . S
C578 H570 0.950 . S
C578 C576 1.391 1_545 S
C578 C579 1.400 . S
C579 C578 1.400 . S
C579 C580 1.398 . S
C579 C585 1.491 . S
C580 H571 0.950 . S
C580 C579 1.398 . S
C580 C581 1.391 1_545 S
C581 H569 0.950 . S
C581 C577 1.393 . S
C581 C580 1.391 1_565 S
C582 H572 0.950 . S
C582 C583 1.386 . S
C582 C584 1.391 . S
C583 C582 1.386 . S
C583 C587 1.393 . S
C584 H573 0.950 . S
C584 C582 1.391 . S
C584 C585 1.400 . S
C585 C579 1.491 . S
C585 C584 1.400 . S
C585 C586 1.398 . S
C586 H574 0.950 . S
C586 C585 1.398 . S
C586 C587 1.391 . S
C587 H575 0.950 . S
C587 C583 1.393 . S
C587 C586 1.391 . S
H588 C596 0.950 . S
H589 C601 0.950 . S
H590 C598 0.950 . S
H591 C600 0.950 . S
H592 C602 0.950 . S
H593 C604 0.950 . S
H594 C606 0.950 . S
H595 C607 0.950 . S
C596 H588 0.950 . S
C596 C597 1.386 . S
C596 C598 1.391 . S
C597 C596 1.386 . S
C597 C601 1.393 . S
C598 H590 0.950 . S
C598 C596 1.391 . S
C598 C599 1.400 . S
C599 C598 1.400 . S
C599 C600 1.398 . S
C599 C605 1.491 . S
C600 H591 0.950 . S
C600 C599 1.398 . S
C600 C601 1.391 . S
C601 H589 0.950 . S
C601 C597 1.393 . S
C601 C600 1.391 . S
C602 H592 0.950 . S
C602 C603 1.386 . S
C602 C604 1.391 . S
C603 C602 1.386 . S
C603 C607 1.393 . S
C604 H593 0.950 . S
C604 C602 1.391 . S
C604 C605 1.400 . S
C605 C599 1.491 . S
C605 C604 1.400 . S
C605 C606 1.398 . S
C606 H594 0.950 . S
C606 C605 1.398 . S
C606 C607 1.391 . S
C607 H595 0.950 . S
C607 C603 1.393 . S
C607 C606 1.391 . S
H608 C616 0.950 . S
H609 C621 0.950 . S
H610 C618 0.950 . S
H611 C620 0.950 . S
H612 C622 0.950 1_455 S
H613 C624 0.950 1_455 S
H614 C626 0.950 . S
H615 C627 0.950 . S
C616 H608 0.950 . S
C616 C617 1.386 . S
C616 C618 1.391 . S
C617 C616 1.386 . S
C617 C621 1.393 . S
C618 H610 0.950 . S
C618 C616 1.391 . S
C618 C619 1.400 . S
C619 C618 1.400 . S
C619 C620 1.398 . S
C619 C625 1.491 . S
C620 H611 0.950 . S
C620 C619 1.398 . S
C620 C621 1.391 . S
C621 H609 0.950 . S
C621 C617 1.393 . S
C621 C620 1.391 . S
C622 H612 0.950 1_655 S
C622 C623 1.386 . S
C622 C624 1.391 . S
C623 C622 1.386 . S
C623 C627 1.393 . S
C624 H613 0.950 1_655 S
C624 C622 1.391 . S
C624 C625 1.400 . S
C625 C619 1.491 . S
C625 C624 1.400 . S
C625 C626 1.398 . S
C626 H614 0.950 . S
C626 C625 1.398 . S
C626 C627 1.391 . S
C627 H615 0.950 . S
C627 C623 1.393 . S
C627 C626 1.391 . S
H628 C636 0.950 . S
H629 C641 0.950 1_455 S
H630 C638 0.950 . S
H631 C640 0.950 . S
H632 C642 0.950 . S
H633 C644 0.950 . S
H634 C646 0.950 . S
H635 C647 0.950 . S
C636 H628 0.950 . S
C636 C637 1.379 1_655 S
C636 C638 1.391 . S
C637 C636 1.379 1_455 S
C637 C641 1.393 1_455 S
C638 H630 0.950 . S
C638 C636 1.391 . S
C638 C639 1.400 . S
C639 C638 1.400 . S
C639 C640 1.398 . S
C639 C645 1.491 . S
C640 H631 0.950 . S
C640 C639 1.398 . S
C640 C641 1.391 . S
C641 H629 0.950 1_655 S
C641 C637 1.393 1_655 S
C641 C640 1.391 . S
C642 H632 0.950 . S
C642 C643 1.386 . S
C642 C644 1.391 . S
C643 C642 1.386 . S
C643 C647 1.393 . S
C644 H633 0.950 . S
C644 C642 1.391 . S
C644 C645 1.400 . S
C645 C639 1.491 . S
C645 C644 1.400 . S
C645 C646 1.398 . S
C646 H634 0.950 . S
C646 C645 1.398 . S
C646 C647 1.391 . S
C647 H635 0.950 . S
C647 C643 1.393 . S
C647 C646 1.391 . S
H648 C656 0.950 . S
H649 C661 0.950 . S
H650 C658 0.950 . S
H651 C660 0.950 . S
H652 C662 0.950 . S
H653 C664 0.950 . S
H654 C666 0.950 . S
H655 C667 0.950 . S
C656 H648 0.950 . S
C656 C657 1.386 . S
C656 C658 1.391 . S
C657 C656 1.386 . S
C657 C661 1.393 . S
C658 H650 0.950 . S
C658 C656 1.391 . S
C658 C659 1.400 . S
C659 C658 1.400 . S
C659 C660 1.398 . S
C659 C665 1.491 . S
C660 H651 0.950 . S
C660 C659 1.398 . S
C660 C661 1.391 . S
C661 H649 0.950 . S
C661 C657 1.393 . S
C661 C660 1.391 . S
C662 H652 0.950 . S
C662 C663 1.386 . S
C662 C664 1.391 . S
C663 C662 1.386 . S
C663 C667 1.393 . S
C664 H653 0.950 . S
C664 C662 1.391 . S
C664 C665 1.400 . S
C665 C659 1.491 . S
C665 C664 1.400 . S
C665 C666 1.398 . S
C666 H654 0.950 . S
C666 C665 1.398 . S
C666 C667 1.391 . S
C667 H655 0.950 . S
C667 C663 1.393 . S
C667 C666 1.391 . S
H668 C676 0.950 . S
H669 C681 0.950 . S
H670 C678 0.950 . S
H671 C680 0.950 . S
H672 C682 0.950 . S
H673 C684 0.950 . S
H674 C686 0.950 . S
H675 C687 0.950 . S
C676 H668 0.950 . S
C676 C677 1.386 . S
C676 C678 1.391 . S
C677 C676 1.386 . S
C677 C681 1.393 . S
C678 H670 0.950 . S
C678 C676 1.391 . S
C678 C679 1.400 . S
C679 C678 1.400 . S
C679 C680 1.398 . S
C679 C685 1.491 . S
C680 H671 0.950 . S
C680 C679 1.398 . S
C680 C681 1.391 . S
C681 H669 0.950 . S
C681 C677 1.393 . S
C681 C680 1.391 . S
C682 H672 0.950 . S
C682 C683 1.386 . S
C682 C684 1.391 . S
C683 C682 1.386 . S
C683 C687 1.393 . S
C684 H673 0.950 . S
C684 C682 1.391 . S
C684 C685 1.400 . S
C685 C679 1.491 . S
C685 C684 1.400 . S
C685 C686 1.398 . S
C686 H674 0.950 . S
C686 C685 1.398 . S
C686 C687 1.391 . S
C687 H675 0.950 . S
C687 C683 1.393 . S
C687 C686 1.391 . S
H688 C696 0.950 . S
H689 C701 0.950 . S
H690 C698 0.950 . S
H691 C700 0.950 . S
H692 C702 0.950 . S
H693 C704 0.950 . S
H694 C706 0.950 . S
H695 C707 0.950 . S
C696 H688 0.950 . S
C696 C697 1.386 . S
C696 C698 1.391 . S
C697 C696 1.386 . S
C697 C701 1.393 . S
C698 H690 0.950 . S
C698 C696 1.391 . S
C698 C699 1.400 . S
C699 C698 1.400 . S
C699 C700 1.398 . S
C699 C705 1.491 . S
C700 H691 0.950 . S
C700 C699 1.398 . S
C700 C701 1.391 . S
C701 H689 0.950 . S
C701 C697 1.393 . S
C701 C700 1.391 . S
C702 H692 0.950 . S
C702 C703 1.386 . S
C702 C704 1.391 . S
C703 C702 1.386 . S
C703 C707 1.393 . S
C704 H693 0.950 . S
C704 C702 1.391 . S
C704 C705 1.400 . S
C705 C699 1.491 . S
C705 C704 1.400 . S
C705 C706 1.398 . S
C706 H694 0.950 . S
C706 C705 1.398 . S
C706 C707 1.391 . S
C707 H695 0.950 . S
C707 C703 1.393 . S
C707 C706 1.391 . S
H708 C716 0.950 1_455 S
H709 C721 0.950 . S
H710 C718 0.950 . S
H711 C720 0.950 . S
H712 C722 0.950 . S
H713 C724 0.950 . S
H714 C726 0.950 . S
H715 C727 0.950 . S
C716 H708 0.950 1_655 S
C716 C717 1.386 . S
C716 C718 1.391 . S
C717 C716 1.386 . S
C717 C721 1.393 . S
C718 H710 0.950 . S
C718 C716 1.391 . S
C718 C719 1.400 . S
C719 C718 1.400 . S
C719 C720 1.398 . S
C719 C725 1.491 . S
C720 H711 0.950 . S
C720 C719 1.398 . S
C720 C721 1.391 . S
C721 H709 0.950 . S
C721 C717 1.393 . S
C721 C720 1.391 . S
C722 H712 0.950 . S
C722 C723 1.386 . S
C722 C724 1.391 . S
C723 C722 1.386 . S
C723 C727 1.393 . S
C724 H713 0.950 . S
C724 C722 1.391 . S
C724 C725 1.400 . S
C725 C719 1.491 . S
C725 C724 1.400 . S
C725 C726 1.398 . S
C726 H714 0.950 . S
C726 C725 1.398 . S
C726 C727 1.391 . S
C727 H715 0.950 . S
C727 C723 1.393 . S
C727 C726 1.391 . S
H728 C736 0.950 . S
H729 C741 0.950 . S
H730 C738 0.950 . S
H731 C740 0.950 . S
H732 C742 0.950 . S
H733 C744 0.950 . S
H734 C746 0.950 . S
H735 C747 0.950 . S
C736 H728 0.950 . S
C736 C737 1.386 . S
C736 C738 1.391 . S
C737 C736 1.386 . S
C737 C741 1.393 . S
C738 H730 0.950 . S
C738 C736 1.391 . S
C738 C739 1.400 . S
C739 C738 1.400 . S
C739 C740 1.398 . S
C739 C745 1.491 . S
C740 H731 0.950 . S
C740 C739 1.398 . S
C740 C741 1.391 . S
C741 H729 0.950 . S
C741 C737 1.393 . S
C741 C740 1.391 . S
C742 H732 0.950 . S
C742 C743 1.386 . S
C742 C744 1.391 . S
C743 C742 1.386 . S
C743 C747 1.393 . S
C744 H733 0.950 . S
C744 C742 1.391 . S
C744 C745 1.400 . S
C745 C739 1.491 . S
C745 C744 1.400 . S
C745 C746 1.398 . S
C746 H734 0.950 . S
C746 C745 1.398 . S
C746 C747 1.391 . S
C747 H735 0.950 . S
C747 C743 1.393 . S
C747 C746 1.391 . S
H748 C756 0.950 . S
H749 C761 0.950 . S
H750 C758 0.950 . S
H751 C760 0.950 . S
H752 C762 0.950 . S
H753 C764 0.950 . S
H754 C766 0.950 . S
H755 C767 0.950 . S
C756 H748 0.950 . S
C756 C757 1.386 . S
C756 C758 1.391 . S
C757 C756 1.386 . S
C757 C761 1.393 . S
C758 H750 0.950 . S
C758 C756 1.391 . S
C758 C759 1.400 . S
C759 C758 1.400 . S
C759 C760 1.398 . S
C759 C765 1.491 . S
C760 H751 0.950 . S
C760 C759 1.398 . S
C760 C761 1.391 . S
C761 H749 0.950 . S
C761 C757 1.393 . S
C761 C760 1.391 . S
C762 H752 0.950 . S
C762 C763 1.386 . S
C762 C764 1.391 . S
C763 C762 1.386 . S
C763 C767 1.393 . S
C764 H753 0.950 . S
C764 C762 1.391 . S
C764 C765 1.400 . S
C765 C759 1.491 . S
C765 C764 1.400 . S
C765 C766 1.398 . S
C766 H754 0.950 . S
C766 C765 1.398 . S
C766 C767 1.391 . S
C767 H755 0.950 . S
C767 C763 1.393 . S
C767 C766 1.391 . S
H768 C776 0.950 . S
H769 C781 0.950 . S
H770 C778 0.950 . S
H771 C780 0.950 . S
H772 C782 0.950 . S
H773 C784 0.950 . S
H774 C786 0.950 . S
H775 C787 0.950 . S
C776 H768 0.950 . S
C776 C777 1.386 . S
C776 C778 1.391 . S
C777 C776 1.386 . S
C777 C781 1.393 . S
C778 H770 0.950 . S
C778 C776 1.391 . S
C778 C779 1.400 . S
C779 C778 1.400 . S
C779 C780 1.398 . S
C779 C785 1.491 . S
C780 H771 0.950 . S
C780 C779 1.398 . S
C780 C781 1.391 . S
C781 H769 0.950 . S
C781 C777 1.393 . S
C781 C780 1.391 . S
C782 H772 0.950 . S
C782 C783 1.386 . S
C782 C784 1.391 . S
C783 C782 1.386 . S
C783 C787 1.393 . S
C784 H773 0.950 . S
C784 C782 1.391 . S
C784 C785 1.400 . S
C785 C779 1.491 . S
C785 C784 1.400 . S
C785 C786 1.398 . S
C786 H774 0.950 . S
C786 C785 1.398 . S
C786 C787 1.391 . S
C787 H775 0.950 . S
C787 C783 1.393 . S
C787 C786 1.391 . S
H788 C796 0.950 . S
H789 C801 0.950 . S
H790 C798 0.950 . S
H791 C800 0.950 . S
H792 C802 0.950 . S
H793 C804 0.950 . S
H794 C806 0.950 . S
H795 C807 0.950 . S
C796 H788 0.950 . S
C796 C797 1.386 . S
C796 C798 1.391 . S
C797 C796 1.386 . S
C797 C801 1.393 . S
C798 H790 0.950 . S
C798 C796 1.391 . S
C798 C799 1.400 . S
C799 C798 1.400 . S
C799 C800 1.398 . S
C799 C805 1.491 . S
C800 H791 0.950 . S
C800 C799 1.398 . S
C800 C801 1.391 . S
C801 H789 0.950 . S
C801 C797 1.393 . S
C801 C800 1.391 . S
C802 H792 0.950 . S
C802 C803 1.386 . S
C802 C804 1.391 . S
C803 C802 1.386 . S
C803 C807 1.393 . S
C804 H793 0.950 . S
C804 C802 1.391 . S
C804 C805 1.400 . S
C805 C799 1.491 . S
C805 C804 1.400 . S
C805 C806 1.398 . S
C806 H794 0.950 . S
C806 C805 1.398 . S
C806 C807 1.391 . S
C807 H795 0.950 . S
C807 C803 1.393 . S
C807 C806 1.391 . S
H808 C816 0.950 . S
H809 C821 0.950 . S
H810 C818 0.950 . S
H811 C820 0.950 . S
H812 C822 0.950 . S
H813 C824 0.950 . S
H814 C826 0.950 . S
H815 C827 0.950 . S
C816 H808 0.950 . S
C816 C817 1.386 . S
C816 C818 1.391 . S
C817 C816 1.386 . S
C817 C821 1.393 . S
C818 H810 0.950 . S
C818 C816 1.391 . S
C818 C819 1.400 . S
C819 C818 1.400 . S
C819 C820 1.398 . S
C819 C825 1.491 . S
C820 H811 0.950 . S
C820 C819 1.398 . S
C820 C821 1.391 . S
C821 H809 0.950 . S
C821 C817 1.393 . S
C821 C820 1.391 . S
C822 H812 0.950 . S
C822 C823 1.386 . S
C822 C824 1.391 . S
C823 C822 1.386 . S
C823 C827 1.393 . S
C824 H813 0.950 . S
C824 C822 1.391 . S
C824 C825 1.400 . S
C825 C819 1.491 . S
C825 C824 1.400 . S
C825 C826 1.398 . S
C826 H814 0.950 . S
C826 C825 1.398 . S
C826 C827 1.391 . S
C827 H815 0.950 . S
C827 C823 1.393 . S
C827 C826 1.391 . S
H828 C836 0.950 . S
H829 C841 0.950 . S
H830 C838 0.950 . S
H831 C840 0.950 . S
H832 C842 0.950 . S
H833 C844 0.950 . S
H834 C846 0.950 . S
H835 C847 0.950 . S
C836 H828 0.950 . S
C836 C837 1.386 . S
C836 C838 1.391 . S
C837 C836 1.386 . S
C837 C841 1.393 . S
C838 H830 0.950 . S
C838 C836 1.391 . S
C838 C839 1.400 . S
C839 C838 1.400 . S
C839 C840 1.398 . S
C839 C845 1.491 . S
C840 H831 0.950 . S
C840 C839 1.398 . S
C840 C841 1.391 . S
C841 H829 0.950 . S
C841 C837 1.393 . S
C841 C840 1.391 . S
C842 H832 0.950 . S
C842 C843 1.386 . S
C842 C844 1.391 . S
C843 C842 1.386 . S
C843 C847 1.393 . S
C844 H833 0.950 . S
C844 C842 1.391 . S
C844 C845 1.400 . S
C845 C839 1.491 . S
C845 C844 1.400 . S
C845 C846 1.398 . S
C846 H834 0.950 . S
C846 C845 1.398 . S
C846 C847 1.391 . S
C847 H835 0.950 . S
C847 C843 1.393 . S
C847 C846 1.391 . S
H848 C856 0.950 . S
H849 C861 0.950 . S
H850 C858 0.950 . S
H851 C860 0.950 . S
H852 C862 0.950 . S
H853 C864 0.950 . S
H854 C866 0.950 . S
H855 C867 0.950 . S
C856 H848 0.950 . S
C856 C857 1.386 . S
C856 C858 1.391 . S
C857 C856 1.386 . S
C857 C861 1.393 . S
C858 H850 0.950 . S
C858 C856 1.391 . S
C858 C859 1.400 . S
C859 C858 1.400 . S
C859 C860 1.398 . S
C859 C865 1.491 . S
C860 H851 0.950 . S
C860 C859 1.398 . S
C860 C861 1.391 . S
C861 H849 0.950 . S
C861 C857 1.393 . S
C861 C860 1.391 . S
C862 H852 0.950 . S
C862 C863 1.386 . S
C862 C864 1.391 . S
C863 C862 1.386 . S
C863 C867 1.393 . S
C864 H853 0.950 . S
C864 C862 1.391 . S
C864 C865 1.400 . S
C865 C859 1.491 . S
C865 C864 1.400 . S
C865 C866 1.398 . S
C866 H854 0.950 . S
C866 C865 1.398 . S
C866 C867 1.391 . S
C867 H855 0.950 . S
C867 C863 1.393 . S
C867 C866 1.391 . S
H868 C876 0.950 . S
H869 C881 0.950 . S
H870 C878 0.950 . S
H871 C880 0.950 . S
H872 C882 0.950 . S
H873 C884 0.950 . S
H874 C886 0.950 . S
H875 C887 0.950 . S
C876 H868 0.950 . S
C876 C877 1.386 . S
C876 C878 1.391 . S
C877 C876 1.386 . S
C877 C881 1.393 . S
C878 H870 0.950 . S
C878 C876 1.391 . S
C878 C879 1.400 . S
C879 C878 1.400 . S
C879 C880 1.398 . S
C879 C885 1.491 . S
C880 H871 0.950 . S
C880 C879 1.398 . S
C880 C881 1.391 . S
C881 H869 0.950 . S
C881 C877 1.393 . S
C881 C880 1.391 . S
C882 H872 0.950 . S
C882 C883 1.386 . S
C882 C884 1.391 . S
C883 C882 1.386 . S
C883 C887 1.393 . S
C884 H873 0.950 . S
C884 C882 1.391 . S
C884 C885 1.400 . S
C885 C879 1.491 . S
C885 C884 1.400 . S
C885 C886 1.398 . S
C886 H874 0.950 . S
C886 C885 1.398 . S
C886 C887 1.391 . S
C887 H875 0.950 . S
C887 C883 1.393 . S
C887 C886 1.391 . S
H888 C896 0.950 . S
H889 C901 0.950 . S
H890 C898 0.950 . S
H891 C900 0.950 . S
H892 C902 0.950 . S
H893 C904 0.950 . S
H894 C906 0.950 . S
H895 C907 0.950 . S
C896 H888 0.950 . S
C896 C897 1.386 . S
C896 C898 1.391 . S
C897 C896 1.386 . S
C897 C901 1.393 . S
C898 H890 0.950 . S
C898 C896 1.391 . S
C898 C899 1.400 . S
C899 C898 1.400 . S
C899 C900 1.398 . S
C899 C905 1.491 . S
C900 H891 0.950 . S
C900 C899 1.398 . S
C900 C901 1.391 . S
C901 H889 0.950 . S
C901 C897 1.393 . S
C901 C900 1.391 . S
C902 H892 0.950 . S
C902 C903 1.386 . S
C902 C904 1.391 . S
C903 C902 1.386 . S
C903 C907 1.393 . S
C904 H893 0.950 . S
C904 C902 1.391 . S
C904 C905 1.400 . S
C905 C899 1.491 . S
C905 C904 1.400 . S
C905 C906 1.398 . S
C906 H894 0.950 . S
C906 C905 1.398 . S
C906 C907 1.391 . S
C907 H895 0.950 . S
C907 C903 1.393 . S
C907 C906 1.391 . S
C283 C204 1.781 . S
C277 C14 1.801 . S
C297 C25 1.707 . S
C303 C207 1.708 . S
C317 C50 1.684 . S
C323 C238 1.688 . S
C343 C173 1.747 . S
C337 C68 1.771 . S
C363 C208 1.783 . S
C357 C16 1.789 . S
C383 C239 1.742 . S
C377 C26 1.767 . S
C403 C164 1.685 . S
C397 C52 1.670 . S
C423 C195 1.716 . S
C417 C70 1.711 . S
C437 C8 1.375 . S
C443 C225 1.286 . S
C457 C88 1.358 . S
C463 C194 1.285 . S
C477 C44 1.275 . S
C483 C154 1.269 . S
C503 C247 1.273 . S
C497 C98 1.294 . S
C523 C175 1.281 . S
C517 C7 1.374 . S
C537 C86 1.307 . S
C543 C174 1.303 . S
C557 C43 1.286 . S
C563 C267 1.282 . S
C583 C206 1.289 . S
C577 C97 1.365 . S
C597 C116 1.777 . S
C603 C266 1.762 . S
C617 C79 1.702 . S
C623 C145 1.704 . S
C637 C140 1.708 . S
C643 C176 1.699 . S
C657 C104 1.770 . S
C663 C235 1.757 . S
C683 C146 1.782 . S
C677 C115 1.785 . S
C697 C80 1.767 . S
C703 C177 1.742 . S
C717 C142 1.670 1_655 S
C723 C226 1.684 . S
C743 C257 1.706 . S
C737 C106 1.689 . S
C757 C122 1.381 . S
C763 C163 1.290 . S
C777 C34 1.349 . S
C783 C256 1.253 . S
C797 C134 1.285 . S
C803 C216 1.265 . S
C823 C185 1.280 . S
C817 C62 1.292 . S
C843 C237 1.313 . S
C837 C124 1.385 . S
C863 C236 1.284 . S
C857 C32 1.302 . S
C883 C205 1.278 . S
C877 C133 1.281 . S
C903 C144 1.287 . S
C897 C61 1.364 . S
