# Generated by pormake.
# Topology anh, (6,3)-cn, num edge types: 1
# Building blocks:
#     Node 0, Type 0, BuildingBlock: BETFAJ_clean_sbu_0, # of connection points: 6
#     Node 1, Type 0, BuildingBlock: BETFAJ_clean_sbu_0, # of connection points: 6
#     Node 2, Type 0, BuildingBlock: BETFAJ_clean_sbu_0, # of connection points: 6
#     Node 3, Type 1, BuildingBlock: MIDCAF_clean_linker_0, # of connection points: 3
#     Node 4, Type 1, BuildingBlock: MIDCAF_clean_linker_0, # of connection points: 3
#     Node 5, Type 1, BuildingBlock: MIDCAF_clean_linker_0, # of connection points: 3
#     Node 6, Type 1, BuildingBlock: MIDCAF_clean_linker_0, # of connection points: 3
#     Node 7, Type 1, BuildingBlock: MIDCAF_clean_linker_0, # of connection points: 3
#     Node 8, Type 1, BuildingBlock: MIDCAF_clean_linker_0, # of connection points: 3
#     Edge 9, Type (0, 1), BuildingBlock: MIFKUJ_clean_linker_0, # of connection points: 2
#     Edge 10, Type (0, 1), BuildingBlock: MIFKUJ_clean_linker_0, # of connection points: 2
#     Edge 11, Type (0, 1), BuildingBlock: MIFKUJ_clean_linker_0, # of connection points: 2
#     Edge 12, Type (0, 1), BuildingBlock: MIFKUJ_clean_linker_0, # of connection points: 2
#     Edge 13, Type (0, 1), BuildingBlock: MIFKUJ_clean_linker_0, # of connection points: 2
#     Edge 14, Type (0, 1), BuildingBlock: MIFKUJ_clean_linker_0, # of connection points: 2
#     Edge 15, Type (0, 1), BuildingBlock: MIFKUJ_clean_linker_0, # of connection points: 2
#     Edge 16, Type (0, 1), BuildingBlock: MIFKUJ_clean_linker_0, # of connection points: 2
#     Edge 17, Type (0, 1), BuildingBlock: MIFKUJ_clean_linker_0, # of connection points: 2
#     Edge 18, Type (0, 1), BuildingBlock: MIFKUJ_clean_linker_0, # of connection points: 2
#     Edge 19, Type (0, 1), BuildingBlock: MIFKUJ_clean_linker_0, # of connection points: 2
#     Edge 20, Type (0, 1), BuildingBlock: MIFKUJ_clean_linker_0, # of connection points: 2
#     Edge 21, Type (0, 1), BuildingBlock: MIFKUJ_clean_linker_0, # of connection points: 2
#     Edge 22, Type (0, 1), BuildingBlock: MIFKUJ_clean_linker_0, # of connection points: 2
#     Edge 23, Type (0, 1), BuildingBlock: MIFKUJ_clean_linker_0, # of connection points: 2
#     Edge 24, Type (0, 1), BuildingBlock: MIFKUJ_clean_linker_0, # of connection points: 2
#     Edge 25, Type (0, 1), BuildingBlock: MIFKUJ_clean_linker_0, # of connection points: 2
#     Edge 26, Type (0, 1), BuildingBlock: MIFKUJ_clean_linker_0, # of connection points: 2
# Relax obj value: 0.165
# Max RMSD: 0.199
# Mean RMSD: 0.150
data_MOF--net-anh--node1-BETFAJ_clean_sbu_0--node2-MIDCAF_clean_linker_0--edge1-MIFKUJ_clean_linker_0
_symmetry_space_group_name_H-M    P1
_symmetry_Int_Tables_number       1
_symmetry_cell_setting            triclinic
loop_
_symmetry_equiv_pos_as_xyz
'x, y, z'
_cell_length_a     47.23287
_cell_length_b     52.510718
_cell_length_c     82.327791
_cell_angle_alpha  92.086436
_cell_angle_beta   89.995784
_cell_angle_gamma 127.20276
loop_
_atom_site_label
_atom_site_type_symbol
_atom_site_fract_x
_atom_site_fract_y
_atom_site_fract_z
_atom_type_partial_charge
Sm0 Sm 0.06314 0.51205 0.14704 0.0
Sm1 Sm 1.02348 0.53734 0.157 0.0
C2 C 0.10787 0.5028 0.1346 0.0
C3 C 0.14394 0.5146 0.13981 0.0
C4 C 0.17246 0.53256 0.12936 0.0
C5 C 0.20687 0.54446 0.1344 0.0
C6 C 0.21331 0.53842 0.14997 0.0
C7 C 0.18469 0.52077 0.16046 0.0
C8 C 0.15048 0.50914 0.15548 0.0
C9 C 0.05513 0.5132 0.18005 0.0
C10 C 0.10742 0.59085 0.15409 0.0
C11 C 0.97905 0.54486 0.17156 0.0
C12 C 0.94059 0.52189 0.17388 0.0
C13 C 0.92612 0.52123 0.18888 0.0
C14 C 0.89024 0.49704 0.19172 0.0
C15 C 0.86843 0.47307 0.17961 0.0
C16 C 0.883 0.47419 0.16453 0.0
C17 C 0.91872 0.49826 0.16172 0.0
C18 C 0.03286 0.53697 0.12402 0.0
C19 C 0.97923 0.4591 0.1498 0.0
O20 O 0.10479 0.52424 0.1293 0.0
O21 O 0.08199 0.48255 0.14399 0.0
O22 O 0.06283 0.535 0.17079 0.0
O23 O 0.05369 0.49066 0.17216 0.0
O24 O 0.1067 0.5674 0.147 0.0
O25 O 0.07883 0.58507 0.16083 0.0
O26 O 0.99829 0.53882 0.17941 0.0
O27 O 0.98916 0.55304 0.15663 0.0
O28 O 1.02424 0.51463 0.13313 0.0
O29 O 0.03508 0.55991 0.13206 0.0
O30 O 0.98072 0.4822 0.15778 0.0
O31 O 1.00701 0.46536 0.14194 0.0
H32 H 0.16813 0.53741 0.1173 0.0
H33 H 0.22837 0.55827 0.12607 0.0
H34 H 0.18845 0.51508 0.1724 0.0
H35 H 0.12914 0.49568 0.16393 0.0
H36 H 0.94276 0.53899 0.19849 0.0
H37 H 0.87974 0.49674 0.20346 0.0
H38 H 0.86676 0.45648 0.15484 0.0
H39 H 0.92938 0.49797 0.15012 0.0
Sm40 Sm 0.56799 0.01262 0.48494 0.0
Sm41 Sm 0.52454 0.03529 0.47717 0.0
C42 C 0.59352 0.98415 0.4975 0.0
C43 C 0.58408 0.95189 0.49948 0.0
C44 C 0.57715 0.93949 0.51503 0.0
C45 C 0.57039 0.91003 0.51736 0.0
C46 C 0.57068 0.89233 0.5042 0.0
C47 C 0.57725 0.90458 0.4886 0.0
C48 C 0.58386 0.93401 0.48625 0.0
C49 C 0.56468 0.02106 0.45248 0.0
C50 C 0.48094 0.95943 0.47746 0.0
C51 C 0.49967 0.0658 0.46692 0.0
C52 C 0.50893 0.09765 0.47071 0.0
C53 C 0.49158 0.1077 0.46245 0.0
C54 C 0.49934 0.13748 0.46649 0.0
C55 C 0.52456 0.15774 0.47892 0.0
C56 C 0.54234 0.14769 0.48696 0.0
C57 C 0.53461 0.11795 0.48288 0.0
C58 C 0.52995 0.02809 0.5097 0.0
C59 C 0.61216 0.08862 0.4823 0.0
O60 O 0.57571 0.99158 0.50589 0.0
O61 O 0.60067 0.99528 0.48291 0.0
O62 O 0.53876 0.00843 0.46187 0.0
O63 O 0.59301 0.02806 0.45987 0.0
O64 O 0.50938 0.96623 0.48534 0.0
O65 O 0.48177 0.98209 0.47046 0.0
O66 O 0.52349 0.06529 0.45915 0.0
O67 O 0.48577 0.04599 0.47875 0.0
O68 O 0.55509 0.04078 0.49994 0.0
O69 O 0.5008 0.01959 0.50258 0.0
O70 O 0.58247 0.08141 0.47573 0.0
O71 O 0.61284 0.06653 0.48903 0.0
H72 H 0.57757 0.95288 0.52548 0.0
H73 H 0.56593 0.90154 0.52957 0.0
H74 H 0.57731 0.89141 0.47818 0.0
H75 H 0.58919 0.94287 0.4741 0.0
H76 H 0.47182 0.09239 0.45297 0.0
H77 H 0.48556 0.14462 0.45986 0.0
H78 H 0.56159 0.1624 0.49671 0.0
H79 H 0.54829 0.11055 0.48939 0.0
Sm80 Sm 0.58042 0.55613 0.84861 0.0
Sm81 Sm 0.53248 0.48484 0.85156 0.0
C82 C 0.61178 0.61477 0.83849 0.0
C83 C 0.60509 0.6385 0.83634 0.0
C84 C 0.57108 0.62922 0.83221 0.0
C85 C 0.56595 0.65239 0.82947 0.0
C86 C 0.59474 0.68522 0.83078 0.0
C87 C 0.62857 0.69426 0.83522 0.0
C88 C 0.63364 0.67114 0.83795 0.0
C89 C 0.56984 0.53732 0.87999 0.0
C90 C 0.49158 0.51849 0.85166 0.0
C91 C 0.50206 0.42487 0.85901 0.0
C92 C 0.50644 0.39994 0.85446 0.0
C93 C 0.50794 0.38268 0.86661 0.0
C94 C 0.51183 0.35884 0.8625 0.0
C95 C 0.51403 0.35165 0.84613 0.0
C96 C 0.51283 0.36918 0.834 0.0
C97 C 0.50925 0.39317 0.83812 0.0
C98 C 0.54436 0.504 0.8201 0.0
C99 C 0.62202 0.52329 0.85088 0.0
O100 O 0.594 0.58903 0.82883 0.0
O101 O 0.61509 0.60898 0.85341 0.0
O102 O 0.54615 0.5247 0.86888 0.0
O103 O 0.60002 0.56223 0.87509 0.0
O104 O 0.52297 0.54413 0.84695 0.0
O105 O 0.48913 0.49306 0.85609 0.0
O106 O 0.52775 0.44953 0.86786 0.0
O107 O 0.48963 0.43282 0.84768 0.0
O108 O 0.56758 0.51609 0.83138 0.0
O109 O 0.51382 0.47983 0.825 0.0
O110 O 0.58977 0.49683 0.854 0.0
O111 O 0.62543 0.54942 0.84703 0.0
H112 H 0.54863 0.60412 0.83088 0.0
H113 H 0.53962 0.64456 0.82595 0.0
H114 H 0.6512 0.71928 0.83661 0.0
H115 H 0.66005 0.67878 0.84118 0.0
H116 H 0.50593 0.38755 0.87929 0.0
H117 H 0.51244 0.34562 0.87211 0.0
H118 H 0.51499 0.36455 0.82131 0.0
H119 H 0.50864 0.40636 0.82849 0.0
C120 C 0.44043 0.91671 0.19908 0.0
C121 C 0.43464 0.90983 0.18226 0.0
C122 C 0.45802 0.9344 0.17175 0.0
C123 C 0.4871 0.96487 0.17803 0.0
H124 H 0.5776 0.07874 0.17209 0.0
H125 H 0.62752 0.12821 0.16001 0.0
H126 H 0.69742 0.14173 0.19884 0.0
H127 H 0.64807 0.09313 0.21085 0.0
H128 H 0.6057 0.08378 0.24691 0.0
H129 H 0.60705 0.0878 0.2766 0.0
H130 H 0.50523 0.99451 0.2771 0.0
H131 H 0.50344 0.99063 0.24762 0.0
H132 H 0.47197 0.95049 0.21839 0.0
H133 H 0.42265 0.89873 0.20756 0.0
H134 H 0.45424 0.92987 0.1587 0.0
H135 H 0.50491 0.98312 0.16968 0.0
N136 N 0.55034 0.02738 0.19352 0.0
N137 N 0.57977 0.05773 0.21786 0.0
N138 N 0.52579 0.00683 0.21889 0.0
C139 C 0.57861 0.0549 0.20133 0.0
C140 C 0.55335 0.03391 0.22673 0.0
C141 C 0.52377 1.00296 0.20243 0.0
C142 C 0.60884 0.082 0.19243 0.0
C143 C 0.60379 0.09206 0.17783 0.0
C144 C 0.63229 0.1205 0.17102 0.0
C145 C 0.66652 0.13897 0.17846 0.0
C146 C 0.67161 0.12804 0.19268 0.0
C147 C 0.6432 0.10017 0.19961 0.0
C148 C 0.55447 0.03689 0.24479 0.0
C149 C 0.58353 0.06417 0.25334 0.0
C150 C 0.5844 0.06643 0.27037 0.0
C151 C 0.55618 0.04153 0.27923 0.0
C152 C 0.52713 0.01437 0.27067 0.0
C153 C 0.52627 0.01208 0.25371 0.0
C154 C 0.49301 0.97143 0.19496 0.0
C155 C 0.46891 0.94682 0.20529 0.0
C156 C 0.58153 0.44842 0.55946 0.0
C157 C 0.56724 0.43822 0.54354 0.0
C158 C 0.55378 0.45275 0.53612 0.0
C159 C 0.5544 0.47682 0.54451 0.0
H160 H 0.56429 0.56419 0.53872 0.0
H161 H 0.55902 0.60284 0.52623 0.0
H162 H 0.54228 0.62951 0.57346 0.0
H163 H 0.54703 0.59104 0.58585 0.0
H164 H 0.55931 0.56904 0.61713 0.0
H165 H 0.56241 0.57058 0.64666 0.0
H166 H 0.58771 0.50406 0.64444 0.0
H167 H 0.58372 0.50181 0.61487 0.0
H168 H 0.59255 0.479 0.58024 0.0
H169 H 0.59179 0.43751 0.56557 0.0
H170 H 0.54281 0.44551 0.52382 0.0
H171 H 0.54355 0.48733 0.53851 0.0
N172 N 0.56218 0.53048 0.56243 0.0
N173 N 0.56365 0.55331 0.58778 0.0
N174 N 0.57002 0.51245 0.58652 0.0
C175 C 0.56066 0.55205 0.5713 0.0
C176 C 0.56834 0.53368 0.5955 0.0
C177 C 0.56688 0.51057 0.57002 0.0
C178 C 0.55617 0.57444 0.56332 0.0
C179 C 0.55922 0.57814 0.54641 0.0
C180 C 0.5564 0.6004 0.53926 0.0
C181 C 0.55009 0.61919 0.54883 0.0
C182 C 0.54659 0.61512 0.56567 0.0
C183 C 0.54962 0.59313 0.5728 0.0
C184 C 0.57115 0.53521 0.61354 0.0
C185 C 0.56561 0.55475 0.62289 0.0
C186 C 0.5676 0.5558 0.63987 0.0
C187 C 0.57531 0.53745 0.64797 0.0
C188 C 0.58118 0.51814 0.63863 0.0
C189 C 0.57907 0.51699 0.62164 0.0
C190 C 0.56799 0.4865 0.56059 0.0
C191 C 0.58173 0.47211 0.56791 0.0
C192 C 0.93931 0.49541 0.85599 0.0
C193 C 0.94101 0.52328 0.85852 0.0
C194 C 0.97528 0.55168 0.86288 0.0
C195 C 1.00536 0.55194 0.86523 0.0
H196 H 0.13295 0.55217 0.84821 0.0
H197 H 0.18438 0.55199 0.84319 0.0
H198 H 0.14698 0.48088 0.87904 0.0
H199 H 0.0962 0.48059 0.88351 0.0
H200 H 0.09272 0.51444 0.91855 0.0
H201 H 0.09104 0.51617 0.94815 0.0
H202 H 1.01445 0.53557 0.94553 0.0
H203 H 1.01632 0.53424 0.91598 0.0
H204 H 0.96592 0.47334 0.8572 0.0
H205 H 0.91422 0.4728 0.85251 0.0
H206 H 0.97882 0.57383 0.86535 0.0
H207 H 0.03006 0.57403 0.86969 0.0
N208 N 0.05674 0.52059 0.86339 0.0
N209 N 0.0792 0.52057 0.88905 0.0
N210 N 0.0324 0.52433 0.88769 0.0
C211 C 0.08087 0.51947 0.87258 0.0
C212 C 0.05554 0.52312 0.8967 0.0
C213 C 0.032 0.52293 0.8712 0.0
C214 C 0.10903 0.51583 0.86607 0.0
C215 C 0.13504 0.5357 0.85462 0.0
C216 C 0.16531 0.53598 0.85197 0.0
C217 C 0.17118 0.51638 0.86062 0.0
C218 C 0.14446 0.4961 0.8717 0.0
C219 C 0.11464 0.49593 0.87433 0.0
C220 C 0.05468 0.52423 0.91478 0.0
C221 C 0.07554 0.51915 0.92424 0.0
C222 C 0.07443 0.51993 0.94124 0.0
C223 C 0.05262 0.52601 0.94922 0.0
C224 C 0.03186 0.53119 0.93978 0.0
C225 C 0.0328 0.53023 0.9228 0.0
C226 C 1.0035 0.52407 0.86305 0.0
C227 C 0.9696 0.49579 0.8583 0.0
C228 C 0.16386 0.62221 0.43617 0.0
C229 C 0.16499 0.63323 0.45212 0.0
C230 C 0.13477 0.61403 0.4617 0.0
C231 C 0.10416 0.58459 0.45535 0.0
H232 H 0.98404 0.48495 0.46051 0.0
H233 H 0.93229 0.43481 0.47109 0.0
H234 H 0.93787 0.38161 0.43157 0.0
H235 H 0.98783 0.43122 0.42084 0.0
H236 H 0.9881 0.46814 0.38584 0.0
H237 H 0.9848 0.46754 0.35624 0.0
H238 H 0.08245 0.56399 0.35691 0.0
H239 H 0.08551 0.56495 0.38637 0.0
H240 H 0.13402 0.58612 0.4174 0.0
H241 H 0.18623 0.63641 0.42831 0.0
H242 H 0.13479 0.62177 0.47408 0.0
H243 H 0.08116 0.57051 0.46287 0.0
N244 N 0.04507 0.5188 0.43975 0.0
N245 N 1.01486 0.49136 0.41499 0.0
N246 N 0.06723 0.54351 0.41484 0.0
C247 C 1.01718 0.49182 0.43149 0.0
C248 C 0.03956 0.51718 0.40658 0.0
C249 C 0.07054 0.54477 0.43129 0.0
C250 C 0.98974 0.46207 0.43975 0.0
C251 C 0.97432 0.46242 0.45428 0.0
C252 C 0.94464 0.43363 0.4603 0.0
C253 C 0.9301 0.40395 0.452 0.0
C254 C 0.9472 0.40384 0.43803 0.0
C255 C 0.97623 0.43239 0.43194 0.0
C256 C 0.03706 0.51659 0.38857 0.0
C257 C 1.00882 0.48927 0.37969 0.0
C258 C 1.007 0.48885 0.3627 0.0
C259 C 0.03332 0.51574 0.35419 0.0
C260 C 0.06143 0.54304 0.36307 0.0
C261 C 0.06327 0.54348 0.38002 0.0
C262 C 0.10307 0.57416 0.43921 0.0
C263 C 0.13354 0.5933 0.42984 0.0
C264 C 0.54306 0.10578 0.76976 0.0
C265 C 0.54389 0.10791 0.78683 0.0
C266 C 0.54879 0.08809 0.79543 0.0
C267 C 0.55223 0.06632 0.7871 0.0
H268 H 0.548 0.98248 0.79203 0.0
H269 H 0.55227 0.94349 0.8049 0.0
H270 H 0.57976 0.92266 0.75891 0.0
H271 H 0.57578 0.96129 0.74612 0.0
H272 H 0.54125 0.97202 0.71388 0.0
H273 H 0.54017 0.97197 0.68418 0.0
H274 H 0.574 0.06897 0.68668 0.0
H275 H 0.5747 0.06905 0.71636 0.0
H276 H 0.54577 0.0835 0.74831 0.0
H277 H 0.53997 0.12105 0.76274 0.0
H278 H 0.54938 0.08905 0.8086 0.0
H279 H 0.55569 0.05124 0.79407 0.0
N280 N 0.55631 0.01958 0.76857 0.0
N281 N 0.55943 0.99905 0.74336 0.0
N282 N 0.55529 0.04124 0.74431 0.0
C283 C 0.55894 0.99852 0.75986 0.0
C284 C 0.55768 0.02032 0.7355 0.0
C285 C 0.55445 0.04108 0.76081 0.0
C286 C 0.56156 0.97515 0.76802 0.0
C287 C 0.55506 0.96964 0.78469 0.0
C288 C 0.55731 0.94719 0.79205 0.0
C289 C 0.56656 0.93012 0.78294 0.0
C290 C 0.57309 0.93572 0.76633 0.0
C291 C 0.57054 0.95781 0.75897 0.0
C292 C 0.55798 0.02052 0.7175 0.0
C293 C 0.54859 0.99339 0.70811 0.0
C294 C 0.5478 0.99328 0.69112 0.0
C295 C 0.55702 0.02047 0.68318 0.0
C296 C 0.56701 0.04777 0.69252 0.0
C297 C 0.5672 0.04772 0.7095 0.0
C298 C 0.55113 0.0641 0.76998 0.0
C299 C 0.54665 0.08427 0.76147 0.0
C300 C 0.53422 0.35024 0.12572 0.0
C301 C 0.53132 0.34777 0.14267 0.0
C302 C 0.50966 0.35383 0.15074 0.0
C303 C 0.49327 0.36438 0.14223 0.0
H304 H 0.47513 0.43236 0.15125 0.0
H305 H 0.45435 0.45838 0.16706 0.0
H306 H 0.40015 0.45617 0.12422 0.0
H307 H 0.42127 0.43084 0.10834 0.0
H308 H 0.48326 0.45322 0.07773 0.0
H309 H 0.49716 0.46718 0.04951 0.0
H310 H 0.51041 0.3933 0.04155 0.0
H311 H 0.49668 0.3792 0.07001 0.0
H312 H 0.52212 0.3641 0.10425 0.0
H313 H 0.55106 0.34602 0.1192 0.0
H314 H 0.50671 0.35179 0.16378 0.0
H315 H 0.47793 0.37006 0.14899 0.0
N316 N 0.47249 0.39814 0.12595 0.0
N317 N 0.46796 0.41975 0.10262 0.0
N318 N 0.4907 0.39056 0.10088 0.0
C319 C 0.46326 0.41506 0.11878 0.0
C320 C 0.4817 0.40767 0.09357 0.0
C321 C 0.48595 0.38555 0.11709 0.0
C322 C 0.44975 0.42955 0.12856 0.0
C323 C 0.45862 0.43729 0.14525 0.0
C324 C 0.44698 0.45229 0.15427 0.0
C325 C 0.42564 0.45904 0.14682 0.0
C326 C 0.4164 0.45093 0.13023 0.0
C327 C 0.42859 0.43658 0.12115 0.0
C328 C 0.48888 0.41506 0.07618 0.0
C329 C 0.48897 0.43976 0.07002 0.0
C330 C 0.49718 0.44797 0.05387 0.0
C331 C 0.50508 0.43146 0.04342 0.0
C332 C 0.50434 0.40634 0.04939 0.0
C333 C 0.4966 0.39838 0.06567 0.0
C334 C 0.49832 0.36924 0.12545 0.0
C335 C 0.51786 0.36088 0.11718 0.0
H336 H 0.24697 0.56066 0.18006 0.0
H337 H 0.30004 0.56633 0.18901 0.0
H338 H 0.31311 0.54373 0.13999 0.0
H339 H 0.26002 0.53722 0.13108 0.0
H340 H 0.3031 0.51752 0.18812 0.0
H341 H 0.39559 0.57576 0.13199 0.0
H342 H 0.41788 0.62178 0.11502 0.0
H343 H 0.39852 0.66705 0.15316 0.0
H344 H 0.37664 0.62156 0.17049 0.0
H345 H 0.35759 0.43767 0.14976 0.0
H346 H 0.33692 0.4671 0.16118 0.0
H347 H 0.44467 0.54601 0.17566 0.0
H348 H 0.46549 0.51621 0.1642 0.0
H349 H 0.41357 0.56485 0.15734 0.0
H350 H 0.38568 0.51067 0.20532 0.0
H351 H 0.36447 0.46597 0.22314 0.0
H352 H 0.25831 0.4166 0.2036 0.0
H353 H 0.2789 0.46072 0.18546 0.0
C354 C 0.26147 0.55732 0.17115 0.0
C355 C 0.24895 0.54806 0.15488 0.0
C356 C 0.29193 0.56086 0.17627 0.0
C357 C 0.31067 0.55569 0.16516 0.0
C358 C 0.29955 0.54854 0.14873 0.0
C359 C 0.26904 0.54477 0.14363 0.0
C360 C 0.33801 0.55235 0.17079 0.0
C361 C 0.32767 0.52833 0.18167 0.0
C362 C 0.37081 0.56749 0.16293 0.0
C363 C 0.38445 0.59515 0.15257 0.0
C364 C 0.39639 0.59564 0.13684 0.0
C365 C 0.40887 0.62162 0.12713 0.0
C366 C 0.40961 0.64732 0.13301 0.0
C367 C 0.39789 0.64711 0.14861 0.0
C368 C 0.38539 0.6212 0.15838 0.0
C369 C 0.37671 0.46098 0.15572 0.0
C370 C 0.41304 0.47483 0.15607 0.0
C371 C 0.36491 0.47768 0.16237 0.0
C372 C 0.38924 0.50864 0.16942 0.0
C373 C 0.42548 0.52204 0.17041 0.0
C374 C 0.43729 0.50506 0.16391 0.0
C375 C 0.37671 0.52796 0.17339 0.0
C376 C 0.38984 0.555 0.16434 0.0
C377 C 0.34673 0.5159 0.18311 0.0
C378 C 0.3339 0.48915 0.19403 0.0
C379 C 0.35783 0.49023 0.20475 0.0
C380 C 0.34591 0.46497 0.21492 0.0
C381 C 0.31006 0.43848 0.21451 0.0
C382 C 0.28606 0.43719 0.20393 0.0
C383 C 0.29784 0.46237 0.19373 0.0
H384 H 0.30089 0.41894 0.22239 0.0
H385 H 0.41927 0.6674 0.12546 0.0
H386 H 0.67942 0.11386 0.49396 0.0
H387 H 0.73367 0.1688 0.49208 0.0
H388 H 0.67413 0.19413 0.46719 0.0
H389 H 0.6199 0.13969 0.46928 0.0
H390 H 0.76814 0.20159 0.46637 0.0
H391 H 0.71136 0.27261 0.47434 0.0
H392 H 0.66256 0.26819 0.48846 0.0
H393 H 0.66378 0.21195 0.52461 0.0
H394 H 0.71285 0.21634 0.51083 0.0
H395 H 0.87654 0.35338 0.43274 0.0
H396 H 0.82438 0.30182 0.44094 0.0
H397 H 0.85355 0.33278 0.49134 0.0
H398 H 0.90706 0.38449 0.48325 0.0
H399 H 0.77803 0.2985 0.48315 0.0
H400 H 0.87051 0.28614 0.47756 0.0
H401 H 0.91915 0.29024 0.46351 0.0
H402 H 0.84714 0.22873 0.42419 0.0
H403 H 0.79818 0.22466 0.43789 0.0
C404 C 0.67779 0.13118 0.48821 0.0
C405 C 0.64516 0.12222 0.4818 0.0
C406 C 0.70889 0.16263 0.48711 0.0
C407 C 0.70809 0.18588 0.47966 0.0
C408 C 0.6755 0.17696 0.47329 0.0
C409 C 0.64444 0.14562 0.47442 0.0
C410 C 0.7415 0.219 0.47785 0.0
C411 C 0.77025 0.2227 0.47015 0.0
C412 C 0.7446 0.24678 0.48283 0.0
C413 C 0.71566 0.24465 0.49147 0.0
C414 C 0.70138 0.25947 0.48536 0.0
C415 C 0.67362 0.25693 0.49329 0.0
C416 C 0.66003 0.23975 0.50741 0.0
C417 C 0.67426 0.22517 0.51365 0.0
C418 C 0.70202 0.22765 0.50577 0.0
C419 C 0.87237 0.34933 0.4456 0.0
C420 C 0.89674 0.37319 0.4573 0.0
C421 C 0.84219 0.31978 0.45026 0.0
C422 C 0.83515 0.31325 0.46675 0.0
C423 C 0.85844 0.33729 0.47853 0.0
C424 C 0.88902 0.36691 0.47387 0.0
C425 C 0.80415 0.28081 0.47145 0.0
C426 C 0.77589 0.27729 0.47957 0.0
C427 C 0.80142 0.25312 0.46691 0.0
C428 C 0.83075 0.2553 0.4587 0.0
C429 C 0.86511 0.27368 0.46586 0.0
C430 C 0.89273 0.27597 0.45797 0.0
C431 C 0.88626 0.2598 0.44295 0.0
C432 C 0.85213 0.24125 0.43581 0.0
C433 C 0.82442 0.23892 0.44365 0.0
H434 H 0.90767 0.2616 0.43686 0.0
H435 H 0.63851 0.23778 0.51351 0.0
H436 H 0.63867 0.7394 0.8139 0.0
H437 H 0.6318 0.78077 0.80845 0.0
H438 H 0.53298 0.72879 0.83381 0.0
H439 H 0.53974 0.68714 0.83937 0.0
H440 H 0.52699 0.75087 0.8061 0.0
H441 H 0.60827 0.79576 0.85156 0.0
H442 H 0.66144 0.81212 0.8675 0.0
H443 H 0.72868 0.87651 0.83074 0.0
H444 H 0.67589 0.86018 0.81445 0.0
H445 H 0.52068 0.88362 0.80389 0.0
H446 H 0.52353 0.84219 0.81462 0.0
H447 H 0.62113 0.88124 0.78952 0.0
H448 H 0.61873 0.92284 0.77902 0.0
H449 H 0.6245 0.86515 0.82008 0.0
H450 H 0.54267 0.81634 0.77375 0.0
H451 H 0.48937 0.79971 0.75781 0.0
H452 H 0.42289 0.74269 0.79677 0.0
H453 H 0.4759 0.75935 0.81304 0.0
C454 C 0.61563 0.73687 0.81849 0.0
C455 C 0.58994 0.71005 0.82722 0.0
C456 C 0.61172 0.76057 0.81534 0.0
C457 C 0.58218 0.75822 0.82095 0.0
C458 C 0.55607 0.73119 0.8294 0.0
C459 C 0.55992 0.70736 0.83253 0.0
C460 C 0.57859 0.78391 0.81778 0.0
C461 C 0.54803 0.7758 0.80944 0.0
C462 C 0.60622 0.81654 0.82192 0.0
C463 C 0.63808 0.82655 0.83172 0.0
C464 C 0.63439 0.81324 0.84681 0.0
C465 C 0.66446 0.82253 0.85592 0.0
C466 C 0.69842 0.84529 0.85012 0.0
C467 C 0.70236 0.85886 0.83521 0.0
C468 C 0.67237 0.84962 0.82604 0.0
C469 C 0.54298 0.8836 0.80086 0.0
C470 C 0.56934 0.90636 0.7905 0.0
C471 C 0.54444 0.85978 0.80689 0.0
C472 C 0.57234 0.85837 0.80271 0.0
C473 C 0.59929 0.88176 0.79286 0.0
C474 C 0.59775 0.9054 0.78677 0.0
C475 C 0.57322 0.83214 0.80816 0.0
C476 C 0.60329 0.84018 0.81693 0.0
C477 C 0.54511 0.79947 0.80446 0.0
C478 C 0.51326 0.78939 0.79468 0.0
C479 C 0.51671 0.80047 0.77897 0.0
C480 C 0.48655 0.791 0.76987 0.0
C481 C 0.45277 0.77024 0.7763 0.0
C482 C 0.44908 0.75883 0.79182 0.0
C483 C 0.47916 0.76826 0.80099 0.0
H484 H 0.42945 0.76293 0.76923 0.0
H485 H 0.72167 0.85246 0.8572 0.0
H486 H 0.82068 0.47923 0.19404 0.0
H487 H 0.75619 0.43937 0.194 0.0
H488 H 0.76505 0.36956 0.17078 0.0
H489 H 0.82979 0.40929 0.17099 0.0
H490 H 0.72496 0.37993 0.1532 0.0
H491 H 0.72976 0.35659 0.20752 0.0
H492 H 0.74734 0.36704 0.23657 0.0
H493 H 0.69575 0.41134 0.24353 0.0
H494 H 0.67821 0.4015 0.21447 0.0
H495 H 0.54493 0.30426 0.13703 0.0
H496 H 0.59353 0.30613 0.1493 0.0
H497 H 0.62099 0.38577 0.18102 0.0
H498 H 0.57216 0.3833 0.16926 0.0
H499 H 0.63784 0.35316 0.19584 0.0
H500 H 0.65518 0.39582 0.14207 0.0
H501 H 0.64075 0.39178 0.11284 0.0
H502 H 0.65527 0.31906 0.10512 0.0
H503 H 0.66929 0.32239 0.13438 0.0
C504 C 0.80902 0.45512 0.18942 0.0
C505 C 0.83022 0.44754 0.18226 0.0
C506 C 0.77213 0.43229 0.18945 0.0
C507 C 0.75585 0.40149 0.1824 0.0
C508 C 0.77712 0.3932 0.17627 0.0
C509 C 0.81403 0.41599 0.17627 0.0
C510 C 0.71704 0.38032 0.17896 0.0
C511 C 0.7057 0.37312 0.16258 0.0
C512 C 0.69216 0.37219 0.19119 0.0
C513 C 0.70262 0.37821 0.20874 0.0
C514 C 0.72225 0.36864 0.21521 0.0
C515 C 0.73222 0.37447 0.2317 0.0
C516 C 0.72265 0.38983 0.2419 0.0
C517 C 0.70308 0.39938 0.23562 0.0
C518 C 0.69305 0.3936 0.21914 0.0
C519 C 0.5608 0.32152 0.14694 0.0
C520 C 0.55508 0.34386 0.15208 0.0
C521 C 0.58848 0.32257 0.15395 0.0
C522 C 0.6114 0.34657 0.16582 0.0
C523 C 0.6037 0.36702 0.17189 0.0
C524 C 0.57576 0.36563 0.16512 0.0
C525 C 0.64633 0.35415 0.17011 0.0
C526 C 0.65693 0.35887 0.18657 0.0
C527 C 0.67099 0.36092 0.15797 0.0
C528 C 0.66276 0.35902 0.1404 0.0
C529 C 0.65507 0.37884 0.13414 0.0
C530 C 0.64698 0.37668 0.11758 0.0
C531 C 0.64697 0.35509 0.10714 0.0
C532 C 0.65517 0.33569 0.11323 0.0
C533 C 0.66316 0.33767 0.1298 0.0
H534 H 0.64073 0.35347 0.09432 0.0
H535 H 0.73041 0.39435 0.25466 0.0
H536 H 0.46683 0.90739 0.49274 0.0
H537 H 0.41294 0.85191 0.49028 0.0
H538 H 0.36626 0.87944 0.45704 0.0
H539 H 0.41999 0.93493 0.45941 0.0
H540 H 0.34242 0.82306 0.49683 0.0
H541 H 0.31852 0.81892 0.42776 0.0
H542 H 0.35278 0.84496 0.40324 0.0
H543 H 0.44573 0.86339 0.42595 0.0
H544 H 0.41191 0.83708 0.4505 0.0
H545 H 0.16922 0.68103 0.4699 0.0
H546 H 0.22263 0.73581 0.4763 0.0
H547 H 0.28752 0.71269 0.45396 0.0
H548 H 0.23462 0.65811 0.44774 0.0
H549 H 0.30303 0.7667 0.44249 0.0
H550 H 0.28894 0.72393 0.495 0.0
H551 H 0.25698 0.69688 0.5198 0.0
H552 H 0.24389 0.76974 0.5307 0.0
H553 H 0.27538 0.79701 0.50584 0.0
C554 C 0.44511 0.90171 0.48492 0.0
C555 C 0.44794 0.92572 0.47621 0.0
C556 C 0.41419 0.86995 0.4836 0.0
C557 C 0.38553 0.86136 0.47341 0.0
C558 C 0.38808 0.88535 0.46488 0.0
C559 C 0.41888 0.91714 0.46626 0.0
C560 C 0.3535 0.82721 0.47129 0.0
C561 C 0.33373 0.81076 0.48494 0.0
C562 C 0.34229 0.81091 0.45583 0.0
C563 C 0.36275 0.82634 0.44103 0.0
C564 C 0.34623 0.82843 0.42749 0.0
C565 C 0.36558 0.84325 0.41359 0.0
C566 C 0.40144 0.85592 0.41306 0.0
C567 C 0.41799 0.85368 0.4264 0.0
C568 C 0.39875 0.83885 0.44032 0.0
C569 C 0.19495 0.68743 0.46667 0.0
C570 C 0.19749 0.66516 0.45816 0.0
C571 C 0.22549 0.71883 0.47028 0.0
C572 C 0.25921 0.72856 0.46552 0.0
C573 C 0.26186 0.70598 0.4576 0.0
C574 C 0.2315 0.67471 0.45405 0.0
C575 C 0.29161 0.7625 0.46801 0.0
C576 C 0.31149 0.77898 0.45439 0.0
C577 C 0.30307 0.77864 0.48352 0.0
C578 C 0.2842 0.76232 0.49848 0.0
C579 C 0.27899 0.73404 0.50262 0.0
C580 C 0.26101 0.71869 0.5167 0.0
C581 C 0.24832 0.73154 0.5268 0.0
C582 C 0.25368 0.7598 0.52286 0.0
C583 C 0.27162 0.77522 0.50878 0.0
H584 H 0.23442 0.71963 0.53769 0.0
H585 H 0.41638 0.86742 0.40229 0.0
H586 H 0.55693 0.33936 0.86033 0.0
H587 H 0.56217 0.29683 0.85265 0.0
H588 H 0.48363 0.26304 0.81413 0.0
H589 H 0.47799 0.3052 0.82185 0.0
H590 H 0.47184 0.21382 0.83157 0.0
H591 H 0.56972 0.30667 0.80548 0.0
H592 H 0.62399 0.36238 0.80461 0.0
H593 H 0.678 0.34173 0.8372 0.0
H594 H 0.62384 0.28596 0.83844 0.0
H595 H 0.49668 0.11988 0.77943 0.0
H596 H 0.49215 0.15997 0.79208 0.0
H597 H 0.57617 0.1877 0.82648 0.0
H598 H 0.58151 0.14798 0.81353 0.0
H599 H 0.58666 0.23949 0.81401 0.0
H600 H 0.49053 0.14552 0.83849 0.0
H601 H 0.43636 0.08982 0.83954 0.0
H602 H 0.37906 0.11221 0.8106 0.0
H603 H 0.43304 0.16797 0.80918 0.0
C604 C 0.54062 0.32272 0.8503 0.0
C605 C 0.51715 0.32573 0.84165 0.0
C606 C 0.5438 0.29857 0.84586 0.0
C607 C 0.52347 0.27688 0.83274 0.0
C608 C 0.49962 0.27952 0.82427 0.0
C609 C 0.49663 0.30378 0.82861 0.0
C610 C 0.5271 0.25152 0.82769 0.0
C611 C 0.49686 0.21942 0.8276 0.0
C612 C 0.56 0.25878 0.82298 0.0
C613 C 0.59261 0.29225 0.8222 0.0
C614 C 0.59307 0.31408 0.81257 0.0
C615 C 0.62383 0.34565 0.81199 0.0
C616 C 0.65439 0.35561 0.82088 0.0
C617 C 0.65428 0.33399 0.83034 0.0
C618 C 0.62357 0.30239 0.83098 0.0
C619 C 0.51426 0.13451 0.78968 0.0
C620 C 0.53958 0.1308 0.79542 0.0
C621 C 0.5114 0.15725 0.79701 0.0
C622 C 0.53359 0.17671 0.81034 0.0
C623 C 0.55869 0.1729 0.81624 0.0
C624 C 0.56152 0.15002 0.80891 0.0
C625 C 0.53122 0.20171 0.81764 0.0
C626 C 0.56169 0.23378 0.81815 0.0
C627 C 0.49853 0.19441 0.82279 0.0
C628 C 0.46595 0.16089 0.82362 0.0
C629 C 0.46646 0.13852 0.83224 0.0
C630 C 0.43577 0.10694 0.83292 0.0
C631 C 0.40431 0.09747 0.82511 0.0
C632 C 0.40346 0.11958 0.81663 0.0
C633 C 0.43409 0.15119 0.8159 0.0
H634 H 0.38057 0.07301 0.82565 0.0
H635 H 0.67818 0.38007 0.82042 0.0
H636 H 0.60727 0.87167 0.49107 0.0
H637 H 0.60051 0.82287 0.49666 0.0
H638 H 0.51539 0.79509 0.52909 0.0
H639 H 0.52213 0.84393 0.5236 0.0
H640 H 0.56056 0.78829 0.54294 0.0
H641 H 0.5001 0.75737 0.49101 0.0
H642 H 0.49292 0.76255 0.46192 0.0
H643 H 0.5809 0.76124 0.45088 0.0
H644 H 0.58892 0.7565 0.47994 0.0
H645 H 0.50301 0.63201 0.55551 0.0
H646 H 0.50381 0.67595 0.54598 0.0
H647 H 0.5934 0.70595 0.51625 0.0
H648 H 0.59282 0.66195 0.5258 0.0
H649 H 0.54571 0.71106 0.50059 0.0
H650 H 0.60669 0.74317 0.55262 0.0
H651 H 0.61347 0.73759 0.58169 0.0
H652 H 0.52387 0.73662 0.59245 0.0
H653 H 0.51623 0.74172 0.56339 0.0
C654 C 0.58673 0.85494 0.4992 0.0
C655 C 0.56524 0.86174 0.50689 0.0
C656 C 0.58289 0.82701 0.50239 0.0
C657 C 0.55722 0.80508 0.5132 0.0
C658 C 0.53545 0.81164 0.52074 0.0
C659 C 0.53938 0.83962 0.51761 0.0
C660 C 0.55412 0.77607 0.51725 0.0
C661 C 0.55674 0.77117 0.53367 0.0
C662 C 0.55012 0.7541 0.50517 0.0
C663 C 0.54532 0.7569 0.48768 0.0
C664 C 0.5181 0.75845 0.4824 0.0
C665 C 0.51384 0.76126 0.46591 0.0
C666 C 0.5365 0.76231 0.45457 0.0
C667 C 0.5634 0.76047 0.45968 0.0
C668 C 0.56779 0.75769 0.47616 0.0
C669 C 0.52285 0.64789 0.54691 0.0
C670 C 0.54815 0.6437 0.54158 0.0
C671 C 0.52322 0.67297 0.54145 0.0
C672 C 0.54906 0.69461 0.53062 0.0
C673 C 0.57327 0.6896 0.52464 0.0
C674 C 0.57286 0.6644 0.53008 0.0
C675 C 0.55185 0.72328 0.52625 0.0
C676 C 0.54937 0.72818 0.50982 0.0
C677 C 0.55595 0.7453 0.53831 0.0
C678 C 0.56069 0.74252 0.55581 0.0
C679 C 0.58828 0.74154 0.56117 0.0
C680 C 0.59229 0.73849 0.57764 0.0
C681 C 0.56906 0.73668 0.5889 0.0
C682 C 0.54182 0.73799 0.58371 0.0
C683 C 0.53765 0.74098 0.56724 0.0
H684 H 0.57221 0.73432 0.60166 0.0
H685 H 0.53316 0.76447 0.44181 0.0
H686 H 0.69371 0.57278 0.84552 0.0
H687 H 0.74562 0.57286 0.84674 0.0
H688 H 0.6782 0.47379 0.85879 0.0
H689 H 0.62632 0.47391 0.85792 0.0
H690 H 0.73554 0.49825 0.87542 0.0
H691 H 0.7215 0.5064 0.81876 0.0
H692 H 0.71569 0.52904 0.79439 0.0
H693 H 0.81772 0.61852 0.80545 0.0
H694 H 0.82395 0.59653 0.83001 0.0
H695 H 0.86847 0.47296 0.86294 0.0
H696 H 0.81649 0.47247 0.8613 0.0
H697 H 0.88362 0.5719 0.85005 0.0
H698 H 0.93563 0.57229 0.85106 0.0
H699 H 0.82629 0.54699 0.83294 0.0
H700 H 0.84 0.5384 0.8897 0.0
H701 H 0.84547 0.51534 0.91398 0.0
H702 H 0.74359 0.426 0.90249 0.0
H703 H 0.73771 0.44842 0.87802 0.0
C704 C 0.68961 0.55084 0.8484 0.0
C705 C 0.65483 0.52331 0.85152 0.0
C706 C 0.7198 0.5508 0.84899 0.0
C707 C 0.71704 0.52313 0.85258 0.0
C708 C 0.68229 0.49573 0.85592 0.0
C709 C 0.65209 0.49578 0.85535 0.0
C710 C 0.74981 0.52276 0.85304 0.0
C711 C 0.7549 0.50859 0.8659 0.0
C712 C 0.77663 0.53663 0.84105 0.0
C713 C 0.77301 0.54992 0.82631 0.0
C714 C 0.74259 0.53098 0.81605 0.0
C715 C 0.73923 0.54368 0.8022 0.0
C716 C 0.76627 0.57523 0.7984 0.0
C717 C 0.79677 0.59411 0.80842 0.0
C718 C 0.80024 0.58153 0.82231 0.0
C719 C 0.87266 0.49488 0.85995 0.0
C720 C 0.90763 0.52272 0.85723 0.0
C721 C 0.84231 0.49468 0.85923 0.0
C722 C 0.84492 0.52233 0.85584 0.0
C723 C 0.87968 0.54997 0.85281 0.0
C724 C 0.91005 0.55022 0.85356 0.0
C725 C 0.81202 0.5225 0.85532 0.0
C726 C 0.80691 0.53664 0.84245 0.0
C727 C 0.78513 0.50853 0.86728 0.0
C728 C 0.78859 0.49498 0.88194 0.0
C729 C 0.81888 0.51377 0.89229 0.0
C730 C 0.82204 0.50082 0.9061 0.0
C731 C 0.79494 0.4692 0.90975 0.0
C732 C 0.76458 0.45047 0.89963 0.0
C733 C 0.76131 0.46329 0.8858 0.0
H734 H 0.79743 0.45922 0.92045 0.0
H735 H 0.76363 0.58502 0.78766 0.0
H736 H 0.17294 0.61181 0.14307 0.0
H737 H 0.22906 0.66593 0.14568 0.0
H738 H 0.17507 0.69955 0.16929 0.0
H739 H 0.11904 0.64552 0.16696 0.0
H740 H 0.2538 0.72413 0.13518 0.0
H741 H 0.22924 0.75511 0.19922 0.0
H742 H 0.19438 0.72692 0.22327 0.0
H743 H 0.19726 0.64851 0.2105 0.0
H744 H 0.23282 0.67653 0.18663 0.0
H745 H 0.38502 0.8921 0.15784 0.0
H746 H 0.33076 0.83803 0.15082 0.0
H747 H 0.36092 0.79923 0.18619 0.0
H748 H 0.41474 0.85284 0.1932 0.0
H749 H 0.29476 0.77648 0.19037 0.0
H750 H 0.36374 0.78738 0.14475 0.0
H751 H 0.40006 0.81276 0.12066 0.0
H752 H 0.3132 0.80374 0.09698 0.0
H753 H 0.2765 0.77868 0.12104 0.0
C754 C 0.1729 0.63071 0.14876 0.0
C755 C 0.14136 0.62409 0.15493 0.0
C756 C 0.20508 0.66176 0.15017 0.0
C757 C 0.20654 0.68691 0.15783 0.0
C758 C 0.17486 0.68055 0.16353 0.0
C759 C 0.14274 0.64955 0.16217 0.0
C760 C 0.24134 0.71935 0.16057 0.0
C761 C 0.26269 0.73563 0.14724 0.0
C762 C 0.25348 0.73427 0.17632 0.0
C763 C 0.23335 0.71779 0.19104 0.0
C764 C 0.22267 0.73197 0.20162 0.0
C765 C 0.2028 0.71602 0.21523 0.0
C766 C 0.19353 0.68591 0.2184 0.0
C767 C 0.20441 0.67181 0.20805 0.0
C768 C 0.22445 0.68773 0.19448 0.0
C769 C 0.38037 0.87194 0.16388 0.0
C770 C 0.4041 0.8769 0.1762 0.0
C771 C 0.34926 0.841 0.15989 0.0
C772 C 0.34146 0.81436 0.16803 0.0
C773 C 0.36594 0.81926 0.17985 0.0
C774 C 0.3968 0.85002 0.18384 0.0
C775 C 0.3072 0.7816 0.16495 0.0
C776 C 0.28587 0.76518 0.17826 0.0
C777 C 0.29551 0.76639 0.14923 0.0
C778 C 0.31751 0.78147 0.13477 0.0
C779 C 0.35249 0.79106 0.13447 0.0
C780 C 0.37312 0.80534 0.12081 0.0
C781 C 0.35898 0.80995 0.10732 0.0
C782 C 0.32414 0.80021 0.10745 0.0
C783 C 0.3034 0.78594 0.12109 0.0
H784 H 0.375 0.82099 0.09675 0.0
H785 H 0.17792 0.67353 0.22886 0.0
H786 H 0.58835 0.21523 0.48778 0.0
H787 H 0.59872 0.26503 0.49722 0.0
H788 H 0.48702 0.22047 0.49047 0.0
H789 H 0.47628 0.17048 0.48134 0.0
H790 H 0.52945 0.28166 0.47921 0.0
H791 H 0.52054 0.22843 0.52799 0.0
H792 H 0.53755 0.20252 0.54569 0.0
H793 H 0.64501 0.28865 0.54883 0.0
H794 H 0.62868 0.31497 0.53101 0.0
H795 H 0.51081 0.38585 0.52656 0.0
H796 H 0.50674 0.34072 0.51411 0.0
H797 H 0.61582 0.38586 0.52868 0.0
H798 H 0.61963 0.43066 0.54152 0.0
H799 H 0.57854 0.32627 0.535 0.0
H800 H 0.58866 0.38139 0.488 0.0
H801 H 0.57435 0.40797 0.46927 0.0
H802 H 0.46892 0.32052 0.46141 0.0
H803 H 0.48243 0.29351 0.48027 0.0
C804 C 0.56593 0.21594 0.48839 0.0
C805 C 0.53143 0.1887 0.48385 0.0
C806 C 0.57194 0.24449 0.49372 0.0
C807 C 0.54358 0.24642 0.49467 0.0
C808 C 0.50932 0.21958 0.48977 0.0
C809 C 0.50326 0.19101 0.48449 0.0
C810 C 0.54926 0.27599 0.50124 0.0
C811 C 0.53986 0.2913 0.49146 0.0
C812 C 0.56384 0.28909 0.51704 0.0
C813 C 0.57346 0.27357 0.52808 0.0
C814 C 0.54783 0.24179 0.53241 0.0
C815 C 0.55734 0.22704 0.54246 0.0
C816 C 0.59236 0.24391 0.54835 0.0
C817 C 0.6179 0.27562 0.54426 0.0
C818 C 0.60852 0.29048 0.53421 0.0
C819 C 0.53405 0.38633 0.52691 0.0
C820 C 0.56556 0.41185 0.53499 0.0
C821 C 0.53175 0.36052 0.51976 0.0
C822 C 0.56113 0.35994 0.52023 0.0
C823 C 0.59275 0.38563 0.52814 0.0
C824 C 0.59492 0.41125 0.53547 0.0
C825 C 0.55845 0.33204 0.51302 0.0
C826 C 0.56836 0.31693 0.52269 0.0
C827 C 0.54472 0.31936 0.49703 0.0
C828 C 0.53647 0.33551 0.48567 0.0
C829 C 0.56233 0.36789 0.48238 0.0
C830 C 0.55438 0.38302 0.47172 0.0
C831 C 0.52072 0.36597 0.46419 0.0
C832 C 0.49497 0.33371 0.46726 0.0
C833 C 0.50277 0.31847 0.47793 0.0
H834 H 0.51462 0.37773 0.45594 0.0
H835 H 0.59969 0.23243 0.55611 0.0
H836 H 0.42229 0.47109 0.86139 0.0
H837 H 0.37059 0.47131 0.86258 0.0
H838 H 0.43317 0.56622 0.84445 0.0
H839 H 0.4852 0.56628 0.8436 0.0
H840 H 0.39201 0.56579 0.86499 0.0
H841 H 0.36197 0.49016 0.82126 0.0
H842 H 0.35194 0.44248 0.8078 0.0
H843 H 0.27153 0.38243 0.84196 0.0
H844 H 0.28139 0.42981 0.85575 0.0
H845 H 0.24045 0.56552 0.85033 0.0
H846 H 0.29282 0.56658 0.84806 0.0
H847 H 0.23258 0.47062 0.86464 0.0
H848 H 0.17988 0.46875 0.86611 0.0
H849 H 0.27325 0.47241 0.84436 0.0
H850 H 0.30408 0.54836 0.88838 0.0
H851 H 0.31436 0.59618 0.90179 0.0
H852 H 0.39334 0.65573 0.867 0.0
H853 H 0.38322 0.60819 0.85327 0.0
C854 C 0.42533 0.49213 0.85758 0.0
C855 C 0.45885 0.51859 0.8523 0.0
C856 C 0.39515 0.49217 0.85815 0.0
C857 C 0.39649 0.51856 0.85333 0.0
C858 C 0.43017 0.54521 0.84826 0.0
C859 C 0.4604 0.54519 0.84771 0.0
C860 C 0.36344 0.51853 0.85368 0.0
C861 C 0.36628 0.54535 0.86022 0.0
C862 C 0.3287 0.49207 0.84789 0.0
C863 C 0.32267 0.46356 0.83963 0.0
C864 C 0.34231 0.4668 0.82596 0.0
C865 C 0.33663 0.43983 0.81827 0.0
C866 C 0.31118 0.40946 0.82405 0.0
C867 C 0.29128 0.40598 0.83752 0.0
C868 C 0.29688 0.43288 0.84527 0.0
C869 C 0.23781 0.54434 0.85341 0.0
C870 C 0.20462 0.51717 0.85864 0.0
C871 C 0.26858 0.54515 0.85232 0.0
C872 C 0.26825 0.51896 0.85653 0.0
C873 C 0.23495 0.49161 0.86137 0.0
C874 C 0.20423 0.49073 0.8624 0.0
C875 C 0.3017 0.51958 0.85578 0.0
C876 C 0.29895 0.49285 0.84915 0.0
C877 C 0.3365 0.54613 0.86148 0.0
C878 C 0.34262 0.57469 0.8697 0.0
C879 C 0.32347 0.57163 0.88353 0.0
C880 C 0.32929 0.59868 0.8912 0.0
C881 C 0.35441 0.62896 0.88523 0.0
C882 C 0.37384 0.63226 0.8716 0.0
C883 C 0.36809 0.60527 0.86387 0.0
H884 H 0.35888 0.64987 0.89118 0.0
H885 H 0.30682 0.3886 0.81808 0.0
H886 H 0.97146 0.40298 0.14628 0.0
H887 H 0.91729 0.34845 0.14903 0.0
H888 H 0.85711 0.38504 0.15616 0.0
H889 H 0.91162 0.43955 0.15439 0.0
H890 H 0.83469 0.34293 0.17607 0.0
H891 H 0.85364 0.34174 0.11935 0.0
H892 H 0.88636 0.34887 0.09447 0.0
H893 H 0.90009 0.27948 0.1096 0.0
H894 H 0.86784 0.27223 0.13469 0.0
H895 H 0.66632 0.18832 0.16868 0.0
H896 H 0.71748 0.24191 0.16131 0.0
H897 H 0.78631 0.21444 0.16688 0.0
H898 H 0.73534 0.16091 0.17424 0.0
H899 H 0.80161 0.25127 0.13933 0.0
H900 H 0.78384 0.25671 0.19729 0.0
H901 H 0.74737 0.2491 0.22078 0.0
H902 H 0.72632 0.31041 0.20043 0.0
H903 H 0.7628 0.31852 0.17686 0.0
C904 C 0.9466 0.39934 0.14828 0.0
C905 C 0.9459 0.42568 0.15008 0.0
C906 C 0.91544 0.36803 0.14977 0.0
C907 C 0.88254 0.36215 0.15257 0.0
C908 C 0.88188 0.38857 0.15407 0.0
C909 C 0.91314 0.41986 0.15299 0.0
C910 C 0.84918 0.32879 0.1546 0.0
C911 C 0.82737 0.32314 0.1678 0.0
C912 C 0.83922 0.30242 0.14404 0.0
C913 C 0.85861 0.30667 0.12897 0.0
C914 C 0.86385 0.32817 0.11743 0.0
C915 C 0.88228 0.3322 0.10328 0.0
C916 C 0.89537 0.3147 0.10047 0.0
C917 C 0.88997 0.29305 0.1118 0.0
C918 C 0.87159 0.28894 0.12598 0.0
C919 C 0.69224 0.19352 0.16806 0.0
C920 C 0.69671 0.17031 0.17211 0.0
C921 C 0.72154 0.22426 0.16396 0.0
C922 C 0.75591 0.23241 0.16369 0.0
C923 C 0.76015 0.20884 0.16703 0.0
C924 C 0.73098 0.17826 0.17131 0.0
C925 C 0.7877 0.26581 0.16071 0.0
C926 C 0.80911 0.27133 0.14743 0.0
C927 C 0.79692 0.29219 0.17094 0.0
C928 C 0.77579 0.28802 0.18529 0.0
C929 C 0.77138 0.26853 0.19784 0.0
C930 C 0.7508 0.26422 0.21118 0.0
C931 C 0.7346 0.27934 0.21212 0.0
C932 C 0.73907 0.29891 0.19974 0.0
C933 C 0.75975 0.30343 0.18641 0.0
H934 H 0.71858 0.27589 0.22243 0.0
H935 H 0.90963 0.31785 0.08951 0.0
H936 H 0.04238 0.5794 0.10235 0.0
H937 H 0.04603 0.57651 0.07275 0.0
H938 H 0.03386 0.48853 0.07576 0.0
H939 H 0.03027 0.49136 0.10543 0.0
H940 H 0.08634 0.52978 0.05477 0.0
H941 H 0.96465 0.48576 0.06364 0.0
H942 H 0.9156 0.48478 0.07485 0.0
H943 H 0.9516 0.56944 0.04979 0.0
H944 H 1.00119 0.57119 0.03861 0.0
H945 H 0.04994 0.48525 0.97021 0.0
H946 H 0.04724 0.48651 -0.00013 0.0
H947 H 0.05004 0.57009 -0.00114 0.0
H948 H 0.05245 0.56879 0.9692 0.0
H949 H 1.00145 0.52935 0.01903 0.0
H950 H 0.12373 0.57425 0.01052 0.0
H951 H 0.17332 0.57589 -0.00053 0.0
H952 H 0.13705 0.49054 0.0239 0.0
H953 H 0.08694 0.48814 0.03492 0.0
C954 C 0.0405 0.55945 0.0967 0.0
C955 C 0.03578 0.53548 0.10617 0.0
C956 C 0.04249 0.55777 0.07979 0.0
C957 C 0.03981 0.53211 0.07201 0.0
C958 C 0.03588 0.5085 0.08149 0.0
C959 C 0.0337 0.51007 0.09842 0.0
C960 C 0.04085 0.52988 0.05398 0.0
C961 C 0.06749 0.52923 0.04694 0.0
C962 C 1.01672 0.52983 0.04376 0.0
C963 C 0.98683 0.52877 0.05041 0.0
C964 C 0.96227 0.50431 0.06062 0.0
C965 C 0.93435 0.50359 0.06695 0.0
C966 C 0.93054 0.52707 0.06307 0.0
C967 C 0.95461 0.55128 0.0528 0.0
C968 C 0.98261 0.55214 0.04645 0.0
C969 C 0.05032 0.50408 0.97631 0.0
C970 C 0.05147 0.52696 0.96732 0.0
C971 C 0.04878 0.50478 0.99329 0.0
C972 C 0.04884 0.52862 0.00167 0.0
C973 C 0.04989 0.55141 0.9927 0.0
C974 C 0.0512 0.55061 0.97573 0.0
C975 C 0.04719 0.52955 0.01975 0.0
C976 C 1.02035 0.52988 0.02683 0.0
C977 C 0.07122 0.5294 0.02998 0.0
C978 C 0.10138 0.53084 0.02341 0.0
C979 C 0.12617 0.55569 0.01343 0.0
C980 C 0.1544 0.55678 0.0072 0.0
C981 C 0.15828 0.53328 0.01095 0.0
C982 C 0.13398 0.50869 0.02098 0.0
C983 C 0.10568 0.50747 0.02724 0.0
H984 H 0.18015 0.53417 0.00611 0.0
H985 H 0.90889 0.52647 0.06798 0.0
H986 H 0.61804 0.04646 0.43095 0.0
H987 H 0.6149 0.05245 0.40186 0.0
H988 H 0.50366 0.0108 0.40531 0.0
H989 H 0.5066 0.0044 0.43451 0.0
H990 H 0.51562 0.98559 0.3794 0.0
H991 H 0.56471 0.09039 0.40132 0.0
H992 H 0.60626 0.13989 0.41806 0.0
H993 H 0.69379 0.15887 0.39045 0.0
H994 H 0.65284 0.10917 0.3737 0.0
H995 H 0.50161 0.02362 0.29952 0.0
H996 H 0.50193 0.02272 0.32918 0.0
H997 H 0.61297 0.06264 0.32965 0.0
H998 H 0.61281 0.06342 0.29994 0.0
H999 H 0.59853 0.0898 0.35384 0.0
H1000 H 0.5498 0.98329 0.33325 0.0
H1001 H 0.50844 0.93316 0.3169 0.0
H1002 H 0.42007 0.91736 0.34235 0.0
H1003 H 0.4609 0.96767 0.3587 0.0
C1004 C 0.59292 0.03863 0.42552 0.0
C1005 C 0.56255 0.02494 0.43496 0.0
C1006 C 0.59121 0.04222 0.40891 0.0
C1007 C 0.55915 0.03242 0.40143 0.0
C1008 C 0.52869 0.0186 0.41084 0.0
C1009 C 0.5304 0.015 0.4275 0.0
C1010 C 0.55742 0.03595 0.38372 0.0
C1011 C 0.5333 0.00848 0.37384 0.0
C1012 C 0.58102 0.06572 0.37644 0.0
C1013 C 0.60571 0.09589 0.38633 0.0
C1014 C 0.59285 0.105 0.39888 0.0
C1015 C 0.61629 0.13311 0.40836 0.0
C1016 C 0.65265 0.15248 0.40534 0.0
C1017 C 0.66562 0.14382 0.39278 0.0
C1018 C 0.6423 0.1157 0.38328 0.0
C1019 C 0.5261 0.03216 0.30592 0.0
C1020 C 0.55711 0.04331 0.29733 0.0
C1021 C 0.52626 0.0317 0.32288 0.0
C1022 C 0.55735 0.04219 0.33162 0.0
C1023 C 0.58867 0.05442 0.32315 0.0
C1024 C 0.58856 0.05492 0.30617 0.0
C1025 C 0.55691 0.03939 0.34953 0.0
C1026 C 0.58065 0.06698 0.35942 0.0
C1027 C 0.53294 0.00973 0.35685 0.0
C1028 C 0.50837 0.97942 0.34707 0.0
C1029 C 0.52153 0.96926 0.33526 0.0
C1030 C 0.49818 0.94079 0.32601 0.0
C1031 C 0.46164 0.92214 0.32855 0.0
C1032 C 0.44838 0.93187 0.34038 0.0
C1033 C 0.47161 0.96035 0.34964 0.0
H1034 H 0.44362 0.9001 0.32138 0.0
H1035 H 0.67076 0.17423 0.4127 0.0
H1036 H 0.6092 0.5446 0.80637 0.0
H1037 H 0.62103 0.55717 0.77758 0.0
H1038 H 0.50826 0.49585 0.76659 0.0
H1039 H 0.49632 0.48302 0.79522 0.0
H1040 H 0.60175 0.51525 0.7507 0.0
H1041 H 0.49277 0.53156 0.73744 0.0
H1042 H 0.46324 0.55122 0.75193 0.0
H1043 H 0.55437 0.61032 0.78414 0.0
H1044 H 0.58469 0.59148 0.76967 0.0
H1045 H 0.55023 0.48716 0.66758 0.0
H1046 H 0.55187 0.48806 0.69725 0.0
H1047 H 0.60412 0.58966 0.69916 0.0
H1048 H 0.60315 0.58911 0.66943 0.0
H1049 H 0.55058 0.55943 0.72042 0.0
H1050 H 0.65126 0.56305 0.70751 0.0
H1051 H 0.68416 0.54636 0.69356 0.0
H1052 H 0.61716 0.45435 0.71447 0.0
H1053 H 0.5835 0.47033 0.72837 0.0
C1054 C 0.58699 0.53394 0.7978 0.0
C1055 C 0.55185 0.51278 0.80297 0.0
C1056 C 0.59377 0.54106 0.78138 0.0
C1057 C 0.56551 0.52756 0.76999 0.0
C1058 C 0.53043 0.50674 0.77521 0.0
C1059 C 0.52365 0.49936 0.79155 0.0
C1060 C 0.57238 0.5344 0.75253 0.0
C1061 C 0.59074 0.52505 0.74407 0.0
C1062 C 0.55862 0.54782 0.74399 0.0
C1063 C 0.54087 0.55986 0.75254 0.0
C1064 C 0.5066 0.5489 0.74755 0.0
C1065 C 0.48971 0.55989 0.75576 0.0
C1066 C 0.50688 0.58194 0.76897 0.0
C1067 C 0.54105 0.59317 0.77394 0.0
C1068 C 0.55808 0.58231 0.76574 0.0
C1069 C 0.56255 0.50981 0.67428 0.0
C1070 C 0.57668 0.53809 0.66608 0.0
C1071 C 0.56336 0.51026 0.69125 0.0
C1072 C 0.57841 0.53898 0.70043 0.0
C1073 C 0.59234 0.56723 0.69233 0.0
C1074 C 0.59164 0.56682 0.67533 0.0
C1075 C 0.57893 0.53927 0.71847 0.0
C1076 C 0.5619 0.5499 0.72704 0.0
C1077 C 0.59441 0.52751 0.72716 0.0
C1078 C 0.61469 0.51783 0.71889 0.0
C1079 C 0.64337 0.53918 0.70904 0.0
C1080 C 0.66219 0.52985 0.70116 0.0
C1081 C 0.65272 0.49929 0.7031 0.0
C1082 C 0.62446 0.47801 0.71297 0.0
C1083 C 0.60552 0.4872 0.72087 0.0
H1084 H 0.66732 0.49211 0.69699 0.0
H1085 H 0.49373 0.59037 0.77533 0.0
H1086 H 0.4773 0.99097 0.53073 0.0
H1087 H 0.48307 0.98838 0.56 0.0
H1088 H 0.59692 0.0591 0.55769 0.0
H1089 H 0.59126 0.06036 0.52819 0.0
H1090 H 0.58455 0.01777 0.57777 0.0
H1091 H 0.53918 0.07715 0.57164 0.0
H1092 H 0.49874 0.08838 0.56158 0.0
H1093 H 0.41127 0.00594 0.5848 0.0
H1094 H 0.45112 0.99396 0.59483 0.0
H1095 H 0.60824 0.06472 0.66313 0.0
H1096 H 0.6048 0.06475 0.63337 0.0
H1097 H 0.4986 0.97606 0.63303 0.0
H1098 H 0.5021 0.97565 0.66274 0.0
H1099 H 0.50828 0.02752 0.61475 0.0
H1100 H 0.55825 0.97067 0.62119 0.0
H1101 H 0.60212 0.964 0.63179 0.0
H1102 H 0.68579 0.04875 0.60854 0.0
H1103 H 0.64245 0.05619 0.59799 0.0
C1104 C 0.50354 0.00587 0.53649 0.0
C1105 C 0.5338 0.02609 0.52728 0.0
C1106 C 0.50683 0.00454 0.55324 0.0
C1107 C 0.54037 0.02416 0.5612 0.0
C1108 C 0.57074 0.04385 0.55189 0.0
C1109 C 0.5675 0.04465 0.53505 0.0
C1110 C 0.54365 0.02425 0.5792 0.0
C1111 C 0.56817 0.02035 0.58583 0.0
C1112 C 0.52212 0.02732 0.58981 0.0
C1113 C 0.49808 0.0345 0.58386 0.0
C1114 C 0.51128 0.06129 0.57451 0.0
C1115 C 0.48847 0.06781 0.56883 0.0
C1116 C 0.45244 0.04784 0.57252 0.0
C1117 C 0.43917 0.02136 0.58194 0.0
C1118 C 0.46187 0.01471 0.58764 0.0
C1119 C 0.58424 0.04521 0.65667 0.0
C1120 C 0.55545 0.02016 0.66519 0.0
C1121 C 0.58236 0.0452 0.63971 0.0
C1122 C 0.55148 0.02036 0.63105 0.0
C1123 C 0.52266 0.99538 0.63953 0.0
C1124 C 0.52476 0.9951 0.65645 0.0
C1125 C 0.54887 0.02085 0.61316 0.0
C1126 C 0.52457 0.02496 0.60661 0.0
C1127 C 0.57112 0.01871 0.60267 0.0
C1128 C 0.59715 0.01417 0.60895 0.0
C1129 C 0.58604 0.98805 0.61847 0.0
C1130 C 0.61081 0.98409 0.62444 0.0
C1131 C 0.64674 0.00598 0.62088 0.0
C1132 C 0.65796 0.03183 0.61131 0.0
C1133 C 0.6333 0.03592 0.60532 0.0
H1134 H 0.66587 1.00287 0.62551 0.0
H1135 H 0.43482 0.05292 0.5681 0.0
H1136 H 0.61127 0.56945 0.90717 0.0
H1137 H 0.60077 0.55026 0.93473 0.0
H1138 H 0.50487 0.45937 0.91755 0.0
H1139 H 0.51392 0.47955 0.89029 0.0
H1140 H 0.49173 0.473 0.9444 0.0
H1141 H 0.58874 0.47359 0.92706 0.0
H1142 H 0.64774 0.49635 0.91594 0.0
H1143 H 0.69769 0.56658 0.95562 0.0
H1144 H 0.63895 0.54452 0.96686 0.0
H1145 H 0.47723 0.3926 0.01583 0.0
H1146 H 0.48939 0.40893 0.98756 0.0
H1147 H 0.56538 0.50748 0.00439 0.0
H1148 H 0.55318 0.49135 0.03261 0.0
H1149 H 0.5883 0.48727 0.97772 0.0
H1150 H 0.48773 0.48478 0.99393 0.0
H1151 H 0.42767 0.45872 0.00459 0.0
H1152 H 0.38337 0.38648 0.96589 0.0
H1153 H 0.44327 0.41189 0.95513 0.0
C1154 C 0.58793 0.54542 0.90933 0.0
C1155 C 0.56357 0.52584 0.89662 0.0
C1156 C 0.5821 0.53431 0.92506 0.0
C1157 C 0.55249 0.50298 0.92823 0.0
C1158 C 0.528 0.48355 0.91548 0.0
C1159 C 0.53329 0.49501 0.89987 0.0
C1160 C 0.54655 0.49068 0.94486 0.0
C1161 C 0.51279 0.47568 0.95151 0.0
C1162 C 0.57401 0.49442 0.95437 0.0
C1163 C 0.60941 0.50755 0.94773 0.0
C1164 C 0.6123 0.494 0.93336 0.0
C1165 C 0.64569 0.50677 0.92705 0.0
C1166 C 0.67644 0.53293 0.93505 0.0
C1167 C 0.67385 0.54633 0.94942 0.0
C1168 C 0.64051 0.53368 0.95578 0.0
C1169 C 0.49681 0.41767 0.01346 0.0
C1170 C 0.51414 0.44076 0.02636 0.0
C1171 C 0.50362 0.42696 0.99735 0.0
C1172 C 0.52812 0.45941 0.99395 0.0
C1173 C 0.54638 0.48234 0.0068 0.0
C1174 C 0.53925 0.47313 0.02287 0.0
C1175 C 0.53371 0.46975 0.97702 0.0
C1176 C 0.56735 0.48441 0.97042 0.0
C1177 C 0.50601 0.46512 0.96743 0.0
C1178 C 0.47 0.45003 0.97383 0.0
C1179 C 0.46521 0.46319 0.98777 0.0
C1180 C 0.4312 0.44857 0.99382 0.0
C1181 C 0.40174 0.42091 0.98595 0.0
C1182 C 0.40622 0.40788 0.97199 0.0
C1183 C 0.44019 0.42239 0.9659 0.0
H1184 H 0.37542 0.40963 0.99065 0.0
H1185 H 0.70227 0.5428 0.93014 0.0
H1186 H 0.06646 0.5624 0.19924 0.0
H1187 H 0.06088 0.5639 0.22885 0.0
H1188 H 0.03023 0.46819 0.23036 0.0
H1189 H 0.03567 0.46656 0.20087 0.0
H1190 H 0.9876 0.47543 0.24873 0.0
H1191 H 0.11263 0.53167 0.24113 0.0
H1192 H 0.17225 0.57311 0.23105 0.0
H1193 H 0.17125 0.64639 0.25522 0.0
H1194 H 0.11119 0.60545 0.26508 0.0
H1195 H 1.01566 0.46692 0.3326 0.0
H1196 H 1.01636 0.46728 0.30292 0.0
H1197 H 0.04928 0.56395 0.30518 0.0
H1198 H 0.04837 0.56369 0.33486 0.0
H1199 H 0.08945 0.55794 0.28482 0.0
H1200 H 0.96496 0.50154 0.29304 0.0
H1201 H 0.90627 0.45988 0.30389 0.0
H1202 H 0.90698 0.38685 0.27917 0.0
H1203 H 0.96594 0.42808 0.26834 0.0
C1204 C 0.05854 0.54172 0.20593 0.0
C1205 C 0.05165 0.51442 0.19781 0.0
C1206 C 0.05545 0.54263 0.22281 0.0
C1207 C 0.04538 0.51622 0.23182 0.0
C1208 C 0.03802 0.48881 0.22366 0.0
C1209 C 0.04128 0.48797 0.20683 0.0
C1210 C 0.04252 0.51699 0.24975 0.0
C1211 C 1.00996 0.49331 0.25664 0.0
C1212 C 0.07147 0.54077 0.26003 0.0
C1213 C 0.10716 0.56548 0.25367 0.0
C1214 C 0.12486 0.55664 0.24409 0.0
C1215 C 0.15878 0.58005 0.23843 0.0
C1216 C 0.17548 0.61237 0.24244 0.0
C1217 C 0.15823 0.62136 0.25206 0.0
C1218 C 0.12422 0.59807 0.25766 0.0
C1219 C 1.02249 0.48808 0.32678 0.0
C1220 C 0.03199 0.51529 0.33612 0.0
C1221 C 1.02294 0.48827 0.30981 0.0
C1222 C 0.03264 0.51557 0.30181 0.0
C1223 C 0.0418 0.54265 0.31108 0.0
C1224 C 0.04138 0.54249 0.32805 0.0
C1225 C 0.03458 0.51632 0.28381 0.0
C1226 C 0.06698 0.54025 0.27691 0.0
C1227 C 1.00552 0.49278 0.27352 0.0
C1228 C 0.97004 0.46791 0.28 0.0
C1229 C 0.95274 0.47659 0.29002 0.0
C1230 C 0.9194 0.45305 0.29615 0.0
C1231 C 0.90295 0.42074 0.29225 0.0
C1232 C 0.91978 0.4119 0.28219 0.0
C1233 C 0.95315 0.43534 0.27604 0.0
H1234 H 0.87712 0.40255 0.29701 0.0
H1235 H 0.20186 0.63044 0.23817 0.0
loop_
_geom_bond_atom_site_label_1
_geom_bond_atom_site_label_2
_geom_bond_distance
_geom_bond_site_symmetry_2
_ccdc_geom_bond_type
Sm0 C2 2.846 . S
Sm0 O20 2.543 . S
Sm0 O21 2.450 . S
Sm0 O22 2.681 . S
Sm0 O23 2.464 . S
Sm0 O24 2.396 . S
Sm0 O28 2.386 . S
Sm0 O31 2.408 1_455 S
Sm1 C11 2.846 . S
Sm1 O22 2.386 1_655 S
Sm1 O25 2.408 1_655 S
Sm1 O26 2.543 . S
Sm1 O27 2.450 . S
Sm1 O28 2.681 1_655 S
Sm1 O29 2.461 1_655 S
Sm1 O30 2.396 . S
C2 Sm0 2.846 . S
C2 C3 1.506 . S
C2 O20 1.261 . S
C2 O21 1.242 . S
C3 C2 1.506 . S
C3 C4 1.358 . S
C3 C8 1.382 . S
C4 C3 1.358 . S
C4 C5 1.385 . S
C4 H32 0.930 . S
C5 C4 1.385 . S
C5 C6 1.395 . S
C5 H33 0.929 . S
C6 C5 1.395 . S
C6 C7 1.335 . S
C7 C6 1.335 . S
C7 C8 1.398 . S
C7 H34 0.930 . S
C8 C3 1.382 . S
C8 C7 1.398 . S
C8 H35 0.929 . S
C9 O22 1.271 . S
C9 O23 1.251 . S
C10 O24 1.252 . S
C10 O25 1.272 . S
C11 Sm1 2.846 . S
C11 C12 1.506 . S
C11 O26 1.261 . S
C11 O27 1.242 . S
C12 C11 1.506 . S
C12 C13 1.358 . S
C12 C17 1.382 . S
C13 C12 1.358 . S
C13 C14 1.385 . S
C13 H36 0.930 . S
C14 C13 1.385 . S
C14 C15 1.395 . S
C14 H37 0.929 . S
C15 C14 1.395 . S
C15 C16 1.335 . S
C16 C15 1.335 . S
C16 C17 1.398 . S
C16 H38 0.930 . S
C17 C12 1.382 . S
C17 C16 1.398 . S
C17 H39 0.929 . S
C18 O28 1.271 . S
C18 O29 1.267 . S
C19 O30 1.252 . S
C19 O31 1.272 . S
O20 Sm0 2.543 . S
O20 C2 1.261 . S
O21 Sm0 2.450 . S
O21 C2 1.242 . S
O22 Sm0 2.681 . S
O22 Sm1 2.386 1_455 S
O22 C9 1.271 . S
O23 Sm0 2.464 . S
O23 C9 1.251 . S
O24 Sm0 2.396 . S
O24 C10 1.252 . S
O25 Sm1 2.408 1_455 S
O25 C10 1.272 . S
O26 Sm1 2.543 . S
O26 C11 1.261 . S
O27 Sm1 2.450 . S
O27 C11 1.242 . S
O28 Sm0 2.386 . S
O28 Sm1 2.681 1_455 S
O28 C18 1.271 . S
O29 Sm1 2.461 1_455 S
O29 C18 1.267 . S
O30 Sm1 2.396 . S
O30 C19 1.252 . S
O31 Sm0 2.408 1_655 S
O31 C19 1.272 . S
H32 C4 0.930 . S
H33 C5 0.929 . S
H34 C7 0.930 . S
H35 C8 0.929 . S
H36 C13 0.930 . S
H37 C14 0.929 . S
H38 C16 0.930 . S
H39 C17 0.929 . S
Sm40 C42 2.846 . S
Sm40 O60 2.543 . S
Sm40 O61 2.450 . S
Sm40 O62 2.681 1_565 S
Sm40 O63 2.464 . S
Sm40 O64 2.396 . S
Sm40 O68 2.367 1_565 S
Sm40 O71 2.408 1_565 S
Sm41 C51 2.846 . S
Sm41 O62 2.386 . S
Sm41 O65 2.408 1_545 S
Sm41 O66 2.543 . S
Sm41 O67 2.450 . S
Sm41 O68 2.712 . S
Sm41 O69 2.464 . S
Sm41 O70 2.396 . S
C42 Sm40 2.846 . S
C42 C43 1.506 . S
C42 O60 1.261 . S
C42 O61 1.242 . S
C43 C42 1.506 . S
C43 C44 1.358 . S
C43 C48 1.382 . S
C44 C43 1.358 . S
C44 C45 1.385 . S
C44 H72 0.930 . S
C45 C44 1.385 . S
C45 C46 1.395 . S
C45 H73 0.929 . S
C46 C45 1.395 . S
C46 C47 1.335 . S
C47 C46 1.335 . S
C47 C48 1.398 . S
C47 H74 0.930 . S
C48 C43 1.382 . S
C48 C47 1.398 . S
C48 H75 0.929 . S
C49 O62 1.271 . S
C49 O63 1.251 1_545 S
C50 O64 1.252 . S
C50 O65 1.272 . S
C51 Sm41 2.846 . S
C51 C52 1.506 . S
C51 O66 1.261 . S
C51 O67 1.242 . S
C52 C51 1.506 . S
C52 C53 1.358 . S
C52 C57 1.382 . S
C53 C52 1.358 . S
C53 C54 1.385 . S
C53 H76 0.930 . S
C54 C53 1.385 . S
C54 C55 1.395 . S
C54 H77 0.929 . S
C55 C54 1.395 . S
C55 C56 1.335 . S
C56 C55 1.335 . S
C56 C57 1.398 . S
C56 H78 0.930 . S
C57 C52 1.382 . S
C57 C56 1.398 . S
C57 H79 0.929 . S
C58 O68 1.290 . S
C58 O69 1.251 . S
C59 O70 1.252 . S
C59 O71 1.272 . S
O60 Sm40 2.543 . S
O60 C42 1.261 . S
O61 Sm40 2.450 . S
O61 C42 1.242 . S
O62 Sm40 2.681 1_545 S
O62 Sm41 2.386 . S
O62 C49 1.271 . S
O63 Sm40 2.464 . S
O63 C49 1.251 1_565 S
O64 Sm40 2.396 . S
O64 C50 1.252 . S
O65 Sm41 2.408 1_565 S
O65 C50 1.272 . S
O66 Sm41 2.543 . S
O66 C51 1.261 . S
O67 Sm41 2.450 . S
O67 C51 1.242 . S
O68 Sm40 2.367 1_545 S
O68 Sm41 2.712 . S
O68 C58 1.290 . S
O69 Sm41 2.464 . S
O69 C58 1.251 . S
O70 Sm41 2.396 . S
O70 C59 1.252 . S
O71 Sm40 2.408 1_545 S
O71 C59 1.272 . S
H72 C44 0.930 . S
H73 C45 0.929 . S
H74 C47 0.930 . S
H75 C48 0.929 . S
H76 C53 0.930 . S
H77 C54 0.929 . S
H78 C56 0.930 . S
H79 C57 0.929 . S
Sm80 C82 2.846 . S
Sm80 O100 2.543 . S
Sm80 O101 2.450 . S
Sm80 O102 2.681 . S
Sm80 O103 2.464 . S
Sm80 O104 2.396 . S
Sm80 O108 2.386 . S
Sm80 O111 2.408 . S
Sm81 C91 2.846 . S
Sm81 O102 2.386 . S
Sm81 O105 2.408 . S
Sm81 O106 2.543 . S
Sm81 O107 2.450 . S
Sm81 O108 2.681 . S
Sm81 O109 2.464 . S
Sm81 O110 2.396 . S
C82 Sm80 2.846 . S
C82 C83 1.506 . S
C82 O100 1.261 . S
C82 O101 1.242 . S
C83 C82 1.506 . S
C83 C84 1.358 . S
C83 C88 1.382 . S
C84 C83 1.358 . S
C84 C85 1.385 . S
C84 H112 0.930 . S
C85 C84 1.385 . S
C85 C86 1.395 . S
C85 H113 0.929 . S
C86 C85 1.395 . S
C86 C87 1.335 . S
C87 C86 1.335 . S
C87 C88 1.398 . S
C87 H114 0.930 . S
C88 C83 1.382 . S
C88 C87 1.398 . S
C88 H115 0.929 . S
C89 O102 1.271 . S
C89 O103 1.251 . S
C90 O104 1.252 . S
C90 O105 1.272 . S
C91 Sm81 2.846 . S
C91 C92 1.506 . S
C91 O106 1.261 . S
C91 O107 1.242 . S
C92 C91 1.506 . S
C92 C93 1.358 . S
C92 C97 1.382 . S
C93 C92 1.358 . S
C93 C94 1.385 . S
C93 H116 0.930 . S
C94 C93 1.385 . S
C94 C95 1.395 . S
C94 H117 0.929 . S
C95 C94 1.395 . S
C95 C96 1.335 . S
C96 C95 1.335 . S
C96 C97 1.398 . S
C96 H118 0.930 . S
C97 C92 1.382 . S
C97 C96 1.398 . S
C97 H119 0.929 . S
C98 O108 1.271 . S
C98 O109 1.251 . S
C99 O110 1.252 . S
C99 O111 1.272 . S
O100 Sm80 2.543 . S
O100 C82 1.261 . S
O101 Sm80 2.450 . S
O101 C82 1.242 . S
O102 Sm80 2.681 . S
O102 Sm81 2.386 . S
O102 C89 1.271 . S
O103 Sm80 2.464 . S
O103 C89 1.251 . S
O104 Sm80 2.396 . S
O104 C90 1.252 . S
O105 Sm81 2.408 . S
O105 C90 1.272 . S
O106 Sm81 2.543 . S
O106 C91 1.261 . S
O107 Sm81 2.450 . S
O107 C91 1.242 . S
O108 Sm80 2.386 . S
O108 Sm81 2.681 . S
O108 C98 1.271 . S
O109 Sm81 2.464 . S
O109 C98 1.251 . S
O110 Sm81 2.396 . S
O110 C99 1.252 . S
O111 Sm80 2.408 . S
O111 C99 1.272 . S
H112 C84 0.930 . S
H113 C85 0.929 . S
H114 C87 0.930 . S
H115 C88 0.929 . S
H116 C93 0.930 . S
H117 C94 0.929 . S
H118 C96 0.930 . S
H119 C97 0.929 . S
C120 C121 1.384 . S
C120 H133 0.947 . S
C120 C155 1.382 . S
C121 C120 1.384 . S
C121 C122 1.378 . S
C122 C121 1.378 . S
C122 C123 1.378 . S
C122 H134 0.952 . S
C123 C122 1.378 . S
C123 H135 0.950 . S
C123 C154 1.383 . S
H124 C143 0.947 . S
H125 C144 0.946 . S
H126 C146 0.953 . S
H127 C147 0.945 . S
H128 C149 0.952 . S
H129 C150 0.949 . S
H130 C152 0.950 . S
H131 C153 0.948 . S
H132 C155 0.951 . S
H133 C120 0.947 . S
H134 C122 0.952 . S
H135 C123 0.950 . S
N136 C139 1.382 . S
N136 C141 1.363 1_545 S
N137 C139 1.371 . S
N137 C140 1.372 . S
N138 C140 1.361 1_565 S
N138 C141 1.377 . S
C139 N136 1.382 . S
C139 N137 1.371 . S
C139 C142 1.480 . S
C140 N137 1.372 . S
C140 N138 1.361 1_545 S
C140 C148 1.457 . S
C141 N136 1.363 1_565 S
C141 N138 1.377 . S
C141 C154 1.479 . S
C142 C139 1.480 . S
C142 C143 1.383 . S
C142 C147 1.385 . S
C143 H124 0.947 . S
C143 C142 1.383 . S
C143 C144 1.388 . S
C144 H125 0.946 . S
C144 C143 1.388 . S
C144 C145 1.384 . S
C145 C144 1.384 . S
C145 C146 1.377 . S
C146 H126 0.953 . S
C146 C145 1.377 . S
C146 C147 1.369 . S
C147 H127 0.945 . S
C147 C142 1.385 . S
C147 C146 1.369 . S
C148 C140 1.457 . S
C148 C149 1.372 . S
C148 C153 1.364 1_545 S
C149 H128 0.952 . S
C149 C148 1.372 . S
C149 C150 1.389 . S
C150 H129 0.949 . S
C150 C149 1.389 . S
C150 C151 1.387 . S
C151 C150 1.387 . S
C151 C152 1.372 1_545 S
C152 H130 0.950 . S
C152 C151 1.372 1_565 S
C152 C153 1.379 . S
C153 H131 0.948 . S
C153 C148 1.364 1_565 S
C153 C152 1.379 . S
C154 C123 1.383 . S
C154 C141 1.479 . S
C154 C155 1.398 . S
C155 C120 1.382 . S
C155 H132 0.951 . S
C155 C154 1.398 . S
C156 C157 1.384 . S
C156 H169 0.947 . S
C156 C191 1.382 . S
C157 C156 1.384 . S
C157 C158 1.378 . S
C158 C157 1.378 . S
C158 C159 1.378 . S
C158 H170 0.952 . S
C159 C158 1.378 . S
C159 H171 0.950 . S
C159 C190 1.383 . S
H160 C179 0.947 . S
H161 C180 0.946 . S
H162 C182 0.953 . S
H163 C183 0.945 . S
H164 C185 0.952 . S
H165 C186 0.949 . S
H166 C188 0.950 . S
H167 C189 0.948 . S
H168 C191 0.951 . S
H169 C156 0.947 . S
H170 C158 0.952 . S
H171 C159 0.950 . S
N172 C175 1.382 . S
N172 C177 1.363 . S
N173 C175 1.371 . S
N173 C176 1.372 . S
N174 C176 1.361 . S
N174 C177 1.377 . S
C175 N172 1.382 . S
C175 N173 1.371 . S
C175 C178 1.480 . S
C176 N173 1.372 . S
C176 N174 1.361 . S
C176 C184 1.457 . S
C177 N172 1.363 . S
C177 N174 1.377 . S
C177 C190 1.479 . S
C178 C175 1.480 . S
C178 C179 1.383 . S
C178 C183 1.385 . S
C179 H160 0.947 . S
C179 C178 1.383 . S
C179 C180 1.388 . S
C180 H161 0.946 . S
C180 C179 1.388 . S
C180 C181 1.384 . S
C181 C180 1.384 . S
C181 C182 1.377 . S
C182 H162 0.953 . S
C182 C181 1.377 . S
C182 C183 1.369 . S
C183 H163 0.945 . S
C183 C178 1.385 . S
C183 C182 1.369 . S
C184 C176 1.457 . S
C184 C185 1.372 . S
C184 C189 1.364 . S
C185 H164 0.952 . S
C185 C184 1.372 . S
C185 C186 1.389 . S
C186 H165 0.949 . S
C186 C185 1.389 . S
C186 C187 1.387 . S
C187 C186 1.387 . S
C187 C188 1.372 . S
C188 H166 0.950 . S
C188 C187 1.372 . S
C188 C189 1.379 . S
C189 H167 0.948 . S
C189 C184 1.364 . S
C189 C188 1.379 . S
C190 C159 1.383 . S
C190 C177 1.479 . S
C190 C191 1.398 . S
C191 C156 1.382 . S
C191 H168 0.951 . S
C191 C190 1.398 . S
C192 C193 1.384 . S
C192 H205 0.947 . S
C192 C227 1.382 . S
C193 C192 1.384 . S
C193 C194 1.378 . S
C194 C193 1.378 . S
C194 C195 1.378 . S
C194 H206 0.952 . S
C195 C194 1.378 . S
C195 H207 0.950 1_655 S
C195 C226 1.383 . S
H196 C215 0.947 . S
H197 C216 0.946 . S
H198 C218 0.953 . S
H199 C219 0.945 . S
H200 C221 0.952 . S
H201 C222 0.949 . S
H202 C224 0.950 1_655 S
H203 C225 0.948 1_655 S
H204 C227 0.951 . S
H205 C192 0.947 . S
H206 C194 0.952 . S
H207 C195 0.950 1_455 S
N208 C211 1.382 . S
N208 C213 1.363 . S
N209 C211 1.371 . S
N209 C212 1.372 . S
N210 C212 1.361 . S
N210 C213 1.377 . S
C211 N208 1.382 . S
C211 N209 1.371 . S
C211 C214 1.480 . S
C212 N209 1.372 . S
C212 N210 1.361 . S
C212 C220 1.457 . S
C213 N208 1.363 . S
C213 N210 1.377 . S
C213 C226 1.479 1_455 S
C214 C211 1.480 . S
C214 C215 1.383 . S
C214 C219 1.385 . S
C215 H196 0.947 . S
C215 C214 1.383 . S
C215 C216 1.388 . S
C216 H197 0.946 . S
C216 C215 1.388 . S
C216 C217 1.384 . S
C217 C216 1.384 . S
C217 C218 1.377 . S
C218 H198 0.953 . S
C218 C217 1.377 . S
C218 C219 1.369 . S
C219 H199 0.945 . S
C219 C214 1.385 . S
C219 C218 1.369 . S
C220 C212 1.457 . S
C220 C221 1.372 . S
C220 C225 1.364 . S
C221 H200 0.952 . S
C221 C220 1.372 . S
C221 C222 1.389 . S
C222 H201 0.949 . S
C222 C221 1.389 . S
C222 C223 1.387 . S
C223 C222 1.387 . S
C223 C224 1.372 . S
C224 H202 0.950 1_455 S
C224 C223 1.372 . S
C224 C225 1.379 . S
C225 H203 0.948 1_455 S
C225 C220 1.364 . S
C225 C224 1.379 . S
C226 C195 1.383 . S
C226 C213 1.479 1_655 S
C226 C227 1.398 . S
C227 C192 1.382 . S
C227 H204 0.951 . S
C227 C226 1.398 . S
C228 C229 1.384 . S
C228 H241 0.947 . S
C228 C263 1.382 . S
C229 C228 1.384 . S
C229 C230 1.378 . S
C230 C229 1.378 . S
C230 C231 1.378 . S
C230 H242 0.952 . S
C231 C230 1.378 . S
C231 H243 0.950 . S
C231 C262 1.383 . S
H232 C251 0.947 . S
H233 C252 0.946 . S
H234 C254 0.953 . S
H235 C255 0.945 . S
H236 C257 0.952 . S
H237 C258 0.949 . S
H238 C260 0.950 . S
H239 C261 0.948 . S
H240 C263 0.951 . S
H241 C228 0.947 . S
H242 C230 0.952 . S
H243 C231 0.950 . S
N244 C247 1.382 1_455 S
N244 C249 1.363 . S
N245 C247 1.371 . S
N245 C248 1.372 1_655 S
N246 C248 1.361 . S
N246 C249 1.377 . S
C247 N244 1.382 1_655 S
C247 N245 1.371 . S
C247 C250 1.480 . S
C248 N245 1.372 1_455 S
C248 N246 1.361 . S
C248 C256 1.457 . S
C249 N244 1.363 . S
C249 N246 1.377 . S
C249 C262 1.479 . S
C250 C247 1.480 . S
C250 C251 1.383 . S
C250 C255 1.385 . S
C251 H232 0.947 . S
C251 C250 1.383 . S
C251 C252 1.388 . S
C252 H233 0.946 . S
C252 C251 1.388 . S
C252 C253 1.384 . S
C253 C252 1.384 . S
C253 C254 1.377 . S
C254 H234 0.953 . S
C254 C253 1.377 . S
C254 C255 1.369 . S
C255 H235 0.945 . S
C255 C250 1.385 . S
C255 C254 1.369 . S
C256 C248 1.457 . S
C256 C257 1.372 1_455 S
C256 C261 1.364 . S
C257 H236 0.952 . S
C257 C256 1.372 1_655 S
C257 C258 1.389 . S
C258 H237 0.949 . S
C258 C257 1.389 . S
C258 C259 1.387 1_655 S
C259 C258 1.387 1_455 S
C259 C260 1.372 . S
C260 H238 0.950 . S
C260 C259 1.372 . S
C260 C261 1.379 . S
C261 H239 0.948 . S
C261 C256 1.364 . S
C261 C260 1.379 . S
C262 C231 1.383 . S
C262 C249 1.479 . S
C262 C263 1.398 . S
C263 C228 1.382 . S
C263 H240 0.951 . S
C263 C262 1.398 . S
C264 C265 1.384 . S
C264 H277 0.947 . S
C264 C299 1.382 . S
C265 C264 1.384 . S
C265 C266 1.378 . S
C266 C265 1.378 . S
C266 C267 1.378 . S
C266 H278 0.952 . S
C267 C266 1.378 . S
C267 H279 0.950 . S
C267 C298 1.383 . S
H268 C287 0.947 . S
H269 C288 0.946 . S
H270 C290 0.953 . S
H271 C291 0.945 . S
H272 C293 0.952 . S
H273 C294 0.949 . S
H274 C296 0.950 . S
H275 C297 0.948 . S
H276 C299 0.951 . S
H277 C264 0.947 . S
H278 C266 0.952 . S
H279 C267 0.950 . S
N280 C283 1.382 1_545 S
N280 C285 1.363 . S
N281 C283 1.371 . S
N281 C284 1.372 1_565 S
N282 C284 1.361 . S
N282 C285 1.377 . S
C283 N280 1.382 1_565 S
C283 N281 1.371 . S
C283 C286 1.480 . S
C284 N281 1.372 1_545 S
C284 N282 1.361 . S
C284 C292 1.457 . S
C285 N280 1.363 . S
C285 N282 1.377 . S
C285 C298 1.479 . S
C286 C283 1.480 . S
C286 C287 1.383 . S
C286 C291 1.385 . S
C287 H268 0.947 . S
C287 C286 1.383 . S
C287 C288 1.388 . S
C288 H269 0.946 . S
C288 C287 1.388 . S
C288 C289 1.384 . S
C289 C288 1.384 . S
C289 C290 1.377 . S
C290 H270 0.953 . S
C290 C289 1.377 . S
C290 C291 1.369 . S
C291 H271 0.945 . S
C291 C286 1.385 . S
C291 C290 1.369 . S
C292 C284 1.457 . S
C292 C293 1.372 1_545 S
C292 C297 1.364 . S
C293 H272 0.952 . S
C293 C292 1.372 1_565 S
C293 C294 1.389 . S
C294 H273 0.949 . S
C294 C293 1.389 . S
C294 C295 1.348 1_565 S
C295 C294 1.348 1_545 S
C295 C296 1.409 . S
C296 H274 0.950 . S
C296 C295 1.409 . S
C296 C297 1.379 . S
C297 H275 0.948 . S
C297 C292 1.364 . S
C297 C296 1.379 . S
C298 C267 1.383 . S
C298 C285 1.479 . S
C298 C299 1.398 . S
C299 C264 1.382 . S
C299 H276 0.951 . S
C299 C298 1.398 . S
C300 C301 1.384 . S
C300 H313 0.947 . S
C300 C335 1.382 . S
C301 C300 1.384 . S
C301 C302 1.378 . S
C302 C301 1.378 . S
C302 C303 1.378 . S
C302 H314 0.952 . S
C303 C302 1.378 . S
C303 H315 0.950 . S
C303 C334 1.383 . S
H304 C323 0.947 . S
H305 C324 0.946 . S
H306 C326 0.953 . S
H307 C327 0.945 . S
H308 C329 0.952 . S
H309 C330 0.949 . S
H310 C332 0.950 . S
H311 C333 0.948 . S
H312 C335 0.951 . S
H313 C300 0.947 . S
H314 C302 0.952 . S
H315 C303 0.950 . S
N316 C319 1.382 . S
N316 C321 1.363 . S
N317 C319 1.371 . S
N317 C320 1.372 . S
N318 C320 1.361 . S
N318 C321 1.377 . S
C319 N316 1.382 . S
C319 N317 1.371 . S
C319 C322 1.480 . S
C320 N317 1.372 . S
C320 N318 1.361 . S
C320 C328 1.457 . S
C321 N316 1.363 . S
C321 N318 1.377 . S
C321 C334 1.479 . S
C322 C319 1.480 . S
C322 C323 1.383 . S
C322 C327 1.385 . S
C323 H304 0.947 . S
C323 C322 1.383 . S
C323 C324 1.388 . S
C324 H305 0.946 . S
C324 C323 1.388 . S
C324 C325 1.384 . S
C325 C324 1.384 . S
C325 C326 1.377 . S
C326 H306 0.953 . S
C326 C325 1.377 . S
C326 C327 1.369 . S
C327 H307 0.945 . S
C327 C322 1.385 . S
C327 C326 1.369 . S
C328 C320 1.457 . S
C328 C329 1.372 . S
C328 C333 1.364 . S
C329 H308 0.952 . S
C329 C328 1.372 . S
C329 C330 1.389 . S
C330 H309 0.949 . S
C330 C329 1.389 . S
C330 C331 1.387 . S
C331 C330 1.387 . S
C331 C332 1.372 . S
C332 H310 0.950 . S
C332 C331 1.372 . S
C332 C333 1.379 . S
C333 H311 0.948 . S
C333 C328 1.364 . S
C333 C332 1.379 . S
C334 C303 1.383 . S
C334 C321 1.479 . S
C334 C335 1.398 . S
C335 C300 1.382 . S
C335 H312 0.951 . S
C335 C334 1.398 . S
H336 C354 0.951 . S
H337 C356 0.951 . S
H338 C358 0.950 . S
H339 C359 0.950 . S
H340 C361 0.950 . S
H341 C364 0.950 . S
H342 C365 0.950 . S
H343 C367 0.950 . S
H344 C368 0.950 . S
H345 C369 0.951 . S
H346 C371 0.951 . S
H347 C373 0.950 . S
H348 C374 0.950 . S
H349 C376 0.950 . S
H350 C379 0.950 . S
H351 C380 0.950 . S
H352 C382 0.950 . S
H353 C383 0.950 . S
C354 H336 0.951 . S
C354 C355 1.366 . S
C354 C356 1.388 . S
C355 C354 1.366 . S
C355 C359 1.385 . S
C356 H337 0.951 . S
C356 C354 1.388 . S
C356 C357 1.366 . S
C357 C356 1.366 . S
C357 C358 1.414 . S
C357 C360 1.499 . S
C358 H338 0.950 . S
C358 C357 1.414 . S
C358 C359 1.374 . S
C359 H339 0.950 . S
C359 C355 1.385 . S
C359 C358 1.374 . S
C360 C357 1.499 . S
C360 C361 1.373 . S
C360 C362 1.389 . S
C361 H340 0.950 . S
C361 C360 1.373 . S
C361 C377 1.377 . S
C362 C360 1.389 . S
C362 C363 1.524 . S
C362 C376 1.377 . S
C363 C362 1.524 . S
C363 C364 1.397 . S
C363 C368 1.363 . S
C364 H341 0.950 . S
C364 C363 1.397 . S
C364 C365 1.334 . S
C365 H342 0.950 . S
C365 C364 1.334 . S
C365 C366 1.287 . S
C366 C365 1.287 . S
C366 C367 1.524 . S
C366 H385 0.913 . S
C367 H343 0.950 . S
C367 C366 1.524 . S
C367 C368 1.415 . S
C368 H344 0.950 . S
C368 C363 1.363 . S
C368 C367 1.415 . S
C369 H345 0.951 . S
C369 C370 1.366 . S
C369 C371 1.388 . S
C370 C369 1.366 . S
C370 C374 1.385 . S
C371 H346 0.951 . S
C371 C369 1.388 . S
C371 C372 1.366 . S
C372 C371 1.366 . S
C372 C373 1.414 . S
C372 C375 1.499 . S
C373 H347 0.950 . S
C373 C372 1.414 . S
C373 C374 1.374 . S
C374 H348 0.950 . S
C374 C370 1.385 . S
C374 C373 1.374 . S
C375 C372 1.499 . S
C375 C376 1.373 . S
C375 C377 1.389 . S
C376 H349 0.950 . S
C376 C362 1.377 . S
C376 C375 1.373 . S
C377 C361 1.377 . S
C377 C375 1.389 . S
C377 C378 1.524 . S
C378 C377 1.524 . S
C378 C379 1.397 . S
C378 C383 1.363 . S
C379 H350 0.950 . S
C379 C378 1.397 . S
C379 C380 1.334 . S
C380 H351 0.950 . S
C380 C379 1.334 . S
C380 C381 1.287 . S
C381 C380 1.287 . S
C381 C382 1.524 . S
C381 H384 0.999 . S
C382 H352 0.950 . S
C382 C381 1.524 . S
C382 C383 1.415 . S
C383 H353 0.950 . S
C383 C378 1.363 . S
C383 C382 1.415 . S
H384 C381 0.999 . S
H385 C366 0.913 . S
H386 C404 0.951 . S
H387 C406 0.951 . S
H388 C408 0.950 . S
H389 C409 0.950 . S
H390 C411 0.950 . S
H391 C414 0.950 . S
H392 C415 0.950 . S
H393 C417 0.950 . S
H394 C418 0.950 . S
H395 C419 0.951 . S
H396 C421 0.951 . S
H397 C423 0.950 . S
H398 C424 0.950 . S
H399 C426 0.950 . S
H400 C429 0.950 . S
H401 C430 0.950 . S
H402 C432 0.950 . S
H403 C433 0.950 . S
C404 H386 0.951 . S
C404 C405 1.366 . S
C404 C406 1.388 . S
C405 C404 1.366 . S
C405 C409 1.385 . S
C406 H387 0.951 . S
C406 C404 1.388 . S
C406 C407 1.366 . S
C407 C406 1.366 . S
C407 C408 1.414 . S
C407 C410 1.499 . S
C408 H388 0.950 . S
C408 C407 1.414 . S
C408 C409 1.374 . S
C409 H389 0.950 . S
C409 C405 1.385 . S
C409 C408 1.374 . S
C410 C407 1.499 . S
C410 C411 1.373 . S
C410 C412 1.389 . S
C411 H390 0.950 . S
C411 C410 1.373 . S
C411 C427 1.377 . S
C412 C410 1.389 . S
C412 C413 1.524 . S
C412 C426 1.377 . S
C413 C412 1.524 . S
C413 C414 1.397 . S
C413 C418 1.363 . S
C414 H391 0.950 . S
C414 C413 1.397 . S
C414 C415 1.334 . S
C415 H392 0.950 . S
C415 C414 1.334 . S
C415 C416 1.287 . S
C416 C415 1.287 . S
C416 C417 1.524 . S
C416 H435 0.913 . S
C417 H393 0.950 . S
C417 C416 1.524 . S
C417 C418 1.415 . S
C418 H394 0.950 . S
C418 C413 1.363 . S
C418 C417 1.415 . S
C419 H395 0.951 . S
C419 C420 1.366 . S
C419 C421 1.388 . S
C420 C419 1.366 . S
C420 C424 1.385 . S
C421 H396 0.951 . S
C421 C419 1.388 . S
C421 C422 1.366 . S
C422 C421 1.366 . S
C422 C423 1.414 . S
C422 C425 1.499 . S
C423 H397 0.950 . S
C423 C422 1.414 . S
C423 C424 1.374 . S
C424 H398 0.950 . S
C424 C420 1.385 . S
C424 C423 1.374 . S
C425 C422 1.499 . S
C425 C426 1.373 . S
C425 C427 1.389 . S
C426 H399 0.950 . S
C426 C412 1.377 . S
C426 C425 1.373 . S
C427 C411 1.377 . S
C427 C425 1.389 . S
C427 C428 1.524 . S
C428 C427 1.524 . S
C428 C429 1.397 . S
C428 C433 1.363 . S
C429 H400 0.950 . S
C429 C428 1.397 . S
C429 C430 1.334 . S
C430 H401 0.950 . S
C430 C429 1.334 . S
C430 C431 1.287 . S
C431 C430 1.287 . S
C431 C432 1.524 . S
C431 H434 0.999 . S
C432 H402 0.950 . S
C432 C431 1.524 . S
C432 C433 1.415 . S
C433 H403 0.950 . S
C433 C428 1.363 . S
C433 C432 1.415 . S
H434 C431 0.999 . S
H435 C416 0.913 . S
H436 C454 0.951 . S
H437 C456 0.951 . S
H438 C458 0.950 . S
H439 C459 0.950 . S
H440 C461 0.950 . S
H441 C464 0.950 . S
H442 C465 0.950 . S
H443 C467 0.950 . S
H444 C468 0.950 . S
H445 C469 0.951 . S
H446 C471 0.951 . S
H447 C473 0.950 . S
H448 C474 0.950 . S
H449 C476 0.950 . S
H450 C479 0.950 . S
H451 C480 0.950 . S
H452 C482 0.950 . S
H453 C483 0.950 . S
C454 H436 0.951 . S
C454 C455 1.366 . S
C454 C456 1.388 . S
C455 C454 1.366 . S
C455 C459 1.385 . S
C456 H437 0.951 . S
C456 C454 1.388 . S
C456 C457 1.366 . S
C457 C456 1.366 . S
C457 C458 1.414 . S
C457 C460 1.499 . S
C458 H438 0.950 . S
C458 C457 1.414 . S
C458 C459 1.374 . S
C459 H439 0.950 . S
C459 C455 1.385 . S
C459 C458 1.374 . S
C460 C457 1.499 . S
C460 C461 1.373 . S
C460 C462 1.389 . S
C461 H440 0.950 . S
C461 C460 1.373 . S
C461 C477 1.377 . S
C462 C460 1.389 . S
C462 C463 1.524 . S
C462 C476 1.377 . S
C463 C462 1.524 . S
C463 C464 1.397 . S
C463 C468 1.363 . S
C464 H441 0.950 . S
C464 C463 1.397 . S
C464 C465 1.334 . S
C465 H442 0.950 . S
C465 C464 1.334 . S
C465 C466 1.287 . S
C466 C465 1.287 . S
C466 C467 1.524 . S
C466 H485 0.913 . S
C467 H443 0.950 . S
C467 C466 1.524 . S
C467 C468 1.415 . S
C468 H444 0.950 . S
C468 C463 1.363 . S
C468 C467 1.415 . S
C469 H445 0.951 . S
C469 C470 1.366 . S
C469 C471 1.388 . S
C470 C469 1.366 . S
C470 C474 1.385 . S
C471 H446 0.951 . S
C471 C469 1.388 . S
C471 C472 1.366 . S
C472 C471 1.366 . S
C472 C473 1.414 . S
C472 C475 1.499 . S
C473 H447 0.950 . S
C473 C472 1.414 . S
C473 C474 1.374 . S
C474 H448 0.950 . S
C474 C470 1.385 . S
C474 C473 1.374 . S
C475 C472 1.499 . S
C475 C476 1.373 . S
C475 C477 1.389 . S
C476 H449 0.950 . S
C476 C462 1.377 . S
C476 C475 1.373 . S
C477 C461 1.377 . S
C477 C475 1.389 . S
C477 C478 1.524 . S
C478 C477 1.524 . S
C478 C479 1.397 . S
C478 C483 1.363 . S
C479 H450 0.950 . S
C479 C478 1.397 . S
C479 C480 1.334 . S
C480 H451 0.950 . S
C480 C479 1.334 . S
C480 C481 1.287 . S
C481 C480 1.287 . S
C481 C482 1.524 . S
C481 H484 0.999 . S
C482 H452 0.950 . S
C482 C481 1.524 . S
C482 C483 1.415 . S
C483 H453 0.950 . S
C483 C478 1.363 . S
C483 C482 1.415 . S
H484 C481 0.999 . S
H485 C466 0.913 . S
H486 C504 0.951 . S
H487 C506 0.951 . S
H488 C508 0.950 . S
H489 C509 0.950 . S
H490 C511 0.950 . S
H491 C514 0.950 . S
H492 C515 0.950 . S
H493 C517 0.950 . S
H494 C518 0.950 . S
H495 C519 0.951 . S
H496 C521 0.951 . S
H497 C523 0.950 . S
H498 C524 0.950 . S
H499 C526 0.950 . S
H500 C529 0.950 . S
H501 C530 0.950 . S
H502 C532 0.950 . S
H503 C533 0.950 . S
C504 H486 0.951 . S
C504 C505 1.366 . S
C504 C506 1.388 . S
C505 C504 1.366 . S
C505 C509 1.385 . S
C506 H487 0.951 . S
C506 C504 1.388 . S
C506 C507 1.366 . S
C507 C506 1.366 . S
C507 C508 1.414 . S
C507 C510 1.499 . S
C508 H488 0.950 . S
C508 C507 1.414 . S
C508 C509 1.374 . S
C509 H489 0.950 . S
C509 C505 1.385 . S
C509 C508 1.374 . S
C510 C507 1.499 . S
C510 C511 1.373 . S
C510 C512 1.389 . S
C511 H490 0.950 . S
C511 C510 1.373 . S
C511 C527 1.377 . S
C512 C510 1.389 . S
C512 C513 1.524 . S
C512 C526 1.377 . S
C513 C512 1.524 . S
C513 C514 1.397 . S
C513 C518 1.363 . S
C514 H491 0.950 . S
C514 C513 1.397 . S
C514 C515 1.334 . S
C515 H492 0.950 . S
C515 C514 1.334 . S
C515 C516 1.287 . S
C516 C515 1.287 . S
C516 C517 1.524 . S
C516 H535 0.913 . S
C517 H493 0.950 . S
C517 C516 1.524 . S
C517 C518 1.415 . S
C518 H494 0.950 . S
C518 C513 1.363 . S
C518 C517 1.415 . S
C519 H495 0.951 . S
C519 C520 1.366 . S
C519 C521 1.388 . S
C520 C519 1.366 . S
C520 C524 1.385 . S
C521 H496 0.951 . S
C521 C519 1.388 . S
C521 C522 1.366 . S
C522 C521 1.366 . S
C522 C523 1.414 . S
C522 C525 1.499 . S
C523 H497 0.950 . S
C523 C522 1.414 . S
C523 C524 1.374 . S
C524 H498 0.950 . S
C524 C520 1.385 . S
C524 C523 1.374 . S
C525 C522 1.499 . S
C525 C526 1.373 . S
C525 C527 1.389 . S
C526 H499 0.950 . S
C526 C512 1.377 . S
C526 C525 1.373 . S
C527 C511 1.377 . S
C527 C525 1.389 . S
C527 C528 1.524 . S
C528 C527 1.524 . S
C528 C529 1.397 . S
C528 C533 1.363 . S
C529 H500 0.950 . S
C529 C528 1.397 . S
C529 C530 1.334 . S
C530 H501 0.950 . S
C530 C529 1.334 . S
C530 C531 1.287 . S
C531 C530 1.287 . S
C531 C532 1.524 . S
C531 H534 0.999 . S
C532 H502 0.950 . S
C532 C531 1.524 . S
C532 C533 1.415 . S
C533 H503 0.950 . S
C533 C528 1.363 . S
C533 C532 1.415 . S
H534 C531 0.999 . S
H535 C516 0.913 . S
H536 C554 0.951 . S
H537 C556 0.951 . S
H538 C558 0.950 . S
H539 C559 0.950 . S
H540 C561 0.950 . S
H541 C564 0.950 . S
H542 C565 0.950 . S
H543 C567 0.950 . S
H544 C568 0.950 . S
H545 C569 0.951 . S
H546 C571 0.951 . S
H547 C573 0.950 . S
H548 C574 0.950 . S
H549 C576 0.950 . S
H550 C579 0.950 . S
H551 C580 0.950 . S
H552 C582 0.950 . S
H553 C583 0.950 . S
C554 H536 0.951 . S
C554 C555 1.366 . S
C554 C556 1.388 . S
C555 C554 1.366 . S
C555 C559 1.385 . S
C556 H537 0.951 . S
C556 C554 1.388 . S
C556 C557 1.366 . S
C557 C556 1.366 . S
C557 C558 1.414 . S
C557 C560 1.499 . S
C558 H538 0.950 . S
C558 C557 1.414 . S
C558 C559 1.374 . S
C559 H539 0.950 . S
C559 C555 1.385 . S
C559 C558 1.374 . S
C560 C557 1.499 . S
C560 C561 1.373 . S
C560 C562 1.389 . S
C561 H540 0.950 . S
C561 C560 1.373 . S
C561 C577 1.377 . S
C562 C560 1.389 . S
C562 C563 1.524 . S
C562 C576 1.377 . S
C563 C562 1.524 . S
C563 C564 1.397 . S
C563 C568 1.363 . S
C564 H541 0.950 . S
C564 C563 1.397 . S
C564 C565 1.334 . S
C565 H542 0.950 . S
C565 C564 1.334 . S
C565 C566 1.287 . S
C566 C565 1.287 . S
C566 C567 1.524 . S
C566 H585 0.913 . S
C567 H543 0.950 . S
C567 C566 1.524 . S
C567 C568 1.415 . S
C568 H544 0.950 . S
C568 C563 1.363 . S
C568 C567 1.415 . S
C569 H545 0.951 . S
C569 C570 1.366 . S
C569 C571 1.388 . S
C570 C569 1.366 . S
C570 C574 1.385 . S
C571 H546 0.951 . S
C571 C569 1.388 . S
C571 C572 1.366 . S
C572 C571 1.366 . S
C572 C573 1.414 . S
C572 C575 1.499 . S
C573 H547 0.950 . S
C573 C572 1.414 . S
C573 C574 1.374 . S
C574 H548 0.950 . S
C574 C570 1.385 . S
C574 C573 1.374 . S
C575 C572 1.499 . S
C575 C576 1.373 . S
C575 C577 1.389 . S
C576 H549 0.950 . S
C576 C562 1.377 . S
C576 C575 1.373 . S
C577 C561 1.377 . S
C577 C575 1.389 . S
C577 C578 1.524 . S
C578 C577 1.524 . S
C578 C579 1.397 . S
C578 C583 1.363 . S
C579 H550 0.950 . S
C579 C578 1.397 . S
C579 C580 1.334 . S
C580 H551 0.950 . S
C580 C579 1.334 . S
C580 C581 1.287 . S
C581 C580 1.287 . S
C581 C582 1.524 . S
C581 H584 0.999 . S
C582 H552 0.950 . S
C582 C581 1.524 . S
C582 C583 1.415 . S
C583 H553 0.950 . S
C583 C578 1.363 . S
C583 C582 1.415 . S
H584 C581 0.999 . S
H585 C566 0.913 . S
H586 C604 0.951 . S
H587 C606 0.951 . S
H588 C608 0.950 . S
H589 C609 0.950 . S
H590 C611 0.950 . S
H591 C614 0.950 . S
H592 C615 0.950 . S
H593 C617 0.950 . S
H594 C618 0.950 . S
H595 C619 0.951 . S
H596 C621 0.951 . S
H597 C623 0.950 . S
H598 C624 0.950 . S
H599 C626 0.950 . S
H600 C629 0.950 . S
H601 C630 0.950 . S
H602 C632 0.950 . S
H603 C633 0.950 . S
C604 H586 0.951 . S
C604 C605 1.366 . S
C604 C606 1.388 . S
C605 C604 1.366 . S
C605 C609 1.385 . S
C606 H587 0.951 . S
C606 C604 1.388 . S
C606 C607 1.366 . S
C607 C606 1.366 . S
C607 C608 1.414 . S
C607 C610 1.499 . S
C608 H588 0.950 . S
C608 C607 1.414 . S
C608 C609 1.374 . S
C609 H589 0.950 . S
C609 C605 1.385 . S
C609 C608 1.374 . S
C610 C607 1.499 . S
C610 C611 1.373 . S
C610 C612 1.389 . S
C611 H590 0.950 . S
C611 C610 1.373 . S
C611 C627 1.377 . S
C612 C610 1.389 . S
C612 C613 1.524 . S
C612 C626 1.377 . S
C613 C612 1.524 . S
C613 C614 1.397 . S
C613 C618 1.363 . S
C614 H591 0.950 . S
C614 C613 1.397 . S
C614 C615 1.334 . S
C615 H592 0.950 . S
C615 C614 1.334 . S
C615 C616 1.287 . S
C616 C615 1.287 . S
C616 C617 1.524 . S
C616 H635 0.913 . S
C617 H593 0.950 . S
C617 C616 1.524 . S
C617 C618 1.415 . S
C618 H594 0.950 . S
C618 C613 1.363 . S
C618 C617 1.415 . S
C619 H595 0.951 . S
C619 C620 1.366 . S
C619 C621 1.388 . S
C620 C619 1.366 . S
C620 C624 1.385 . S
C621 H596 0.951 . S
C621 C619 1.388 . S
C621 C622 1.366 . S
C622 C621 1.366 . S
C622 C623 1.414 . S
C622 C625 1.499 . S
C623 H597 0.950 . S
C623 C622 1.414 . S
C623 C624 1.374 . S
C624 H598 0.950 . S
C624 C620 1.385 . S
C624 C623 1.374 . S
C625 C622 1.499 . S
C625 C626 1.373 . S
C625 C627 1.389 . S
C626 H599 0.950 . S
C626 C612 1.377 . S
C626 C625 1.373 . S
C627 C611 1.377 . S
C627 C625 1.389 . S
C627 C628 1.524 . S
C628 C627 1.524 . S
C628 C629 1.397 . S
C628 C633 1.363 . S
C629 H600 0.950 . S
C629 C628 1.397 . S
C629 C630 1.334 . S
C630 H601 0.950 . S
C630 C629 1.334 . S
C630 C631 1.287 . S
C631 C630 1.287 . S
C631 C632 1.524 . S
C631 H634 0.999 . S
C632 H602 0.950 . S
C632 C631 1.524 . S
C632 C633 1.415 . S
C633 H603 0.950 . S
C633 C628 1.363 . S
C633 C632 1.415 . S
H634 C631 0.999 . S
H635 C616 0.913 . S
H636 C654 0.951 . S
H637 C656 0.951 . S
H638 C658 0.950 . S
H639 C659 0.950 . S
H640 C661 0.950 . S
H641 C664 0.950 . S
H642 C665 0.950 . S
H643 C667 0.950 . S
H644 C668 0.950 . S
H645 C669 0.951 . S
H646 C671 0.951 . S
H647 C673 0.950 . S
H648 C674 0.950 . S
H649 C676 0.950 . S
H650 C679 0.950 . S
H651 C680 0.950 . S
H652 C682 0.950 . S
H653 C683 0.950 . S
C654 H636 0.951 . S
C654 C655 1.366 . S
C654 C656 1.388 . S
C655 C654 1.366 . S
C655 C659 1.385 . S
C656 H637 0.951 . S
C656 C654 1.388 . S
C656 C657 1.366 . S
C657 C656 1.366 . S
C657 C658 1.414 . S
C657 C660 1.499 . S
C658 H638 0.950 . S
C658 C657 1.414 . S
C658 C659 1.374 . S
C659 H639 0.950 . S
C659 C655 1.385 . S
C659 C658 1.374 . S
C660 C657 1.499 . S
C660 C661 1.373 . S
C660 C662 1.389 . S
C661 H640 0.950 . S
C661 C660 1.373 . S
C661 C677 1.377 . S
C662 C660 1.389 . S
C662 C663 1.524 . S
C662 C676 1.377 . S
C663 C662 1.524 . S
C663 C664 1.397 . S
C663 C668 1.363 . S
C664 H641 0.950 . S
C664 C663 1.397 . S
C664 C665 1.334 . S
C665 H642 0.950 . S
C665 C664 1.334 . S
C665 C666 1.287 . S
C666 C665 1.287 . S
C666 C667 1.524 . S
C666 H685 0.913 . S
C667 H643 0.950 . S
C667 C666 1.524 . S
C667 C668 1.415 . S
C668 H644 0.950 . S
C668 C663 1.363 . S
C668 C667 1.415 . S
C669 H645 0.951 . S
C669 C670 1.366 . S
C669 C671 1.388 . S
C670 C669 1.366 . S
C670 C674 1.385 . S
C671 H646 0.951 . S
C671 C669 1.388 . S
C671 C672 1.366 . S
C672 C671 1.366 . S
C672 C673 1.414 . S
C672 C675 1.499 . S
C673 H647 0.950 . S
C673 C672 1.414 . S
C673 C674 1.374 . S
C674 H648 0.950 . S
C674 C670 1.385 . S
C674 C673 1.374 . S
C675 C672 1.499 . S
C675 C676 1.373 . S
C675 C677 1.389 . S
C676 H649 0.950 . S
C676 C662 1.377 . S
C676 C675 1.373 . S
C677 C661 1.377 . S
C677 C675 1.389 . S
C677 C678 1.524 . S
C678 C677 1.524 . S
C678 C679 1.397 . S
C678 C683 1.363 . S
C679 H650 0.950 . S
C679 C678 1.397 . S
C679 C680 1.334 . S
C680 H651 0.950 . S
C680 C679 1.334 . S
C680 C681 1.287 . S
C681 C680 1.287 . S
C681 C682 1.524 . S
C681 H684 0.999 . S
C682 H652 0.950 . S
C682 C681 1.524 . S
C682 C683 1.415 . S
C683 H653 0.950 . S
C683 C678 1.363 . S
C683 C682 1.415 . S
H684 C681 0.999 . S
H685 C666 0.913 . S
H686 C704 0.951 . S
H687 C706 0.951 . S
H688 C708 0.950 . S
H689 C709 0.950 . S
H690 C711 0.950 . S
H691 C714 0.950 . S
H692 C715 0.950 . S
H693 C717 0.950 . S
H694 C718 0.950 . S
H695 C719 0.951 . S
H696 C721 0.951 . S
H697 C723 0.950 . S
H698 C724 0.950 . S
H699 C726 0.950 . S
H700 C729 0.950 . S
H701 C730 0.950 . S
H702 C732 0.950 . S
H703 C733 0.950 . S
C704 H686 0.951 . S
C704 C705 1.366 . S
C704 C706 1.388 . S
C705 C704 1.366 . S
C705 C709 1.385 . S
C706 H687 0.951 . S
C706 C704 1.388 . S
C706 C707 1.366 . S
C707 C706 1.366 . S
C707 C708 1.414 . S
C707 C710 1.499 . S
C708 H688 0.950 . S
C708 C707 1.414 . S
C708 C709 1.374 . S
C709 H689 0.950 . S
C709 C705 1.385 . S
C709 C708 1.374 . S
C710 C707 1.499 . S
C710 C711 1.373 . S
C710 C712 1.389 . S
C711 H690 0.950 . S
C711 C710 1.373 . S
C711 C727 1.377 . S
C712 C710 1.389 . S
C712 C713 1.524 . S
C712 C726 1.377 . S
C713 C712 1.524 . S
C713 C714 1.397 . S
C713 C718 1.363 . S
C714 H691 0.950 . S
C714 C713 1.397 . S
C714 C715 1.334 . S
C715 H692 0.950 . S
C715 C714 1.334 . S
C715 C716 1.287 . S
C716 C715 1.287 . S
C716 C717 1.524 . S
C716 H735 0.913 . S
C717 H693 0.950 . S
C717 C716 1.524 . S
C717 C718 1.415 . S
C718 H694 0.950 . S
C718 C713 1.363 . S
C718 C717 1.415 . S
C719 H695 0.951 . S
C719 C720 1.366 . S
C719 C721 1.388 . S
C720 C719 1.366 . S
C720 C724 1.385 . S
C721 H696 0.951 . S
C721 C719 1.388 . S
C721 C722 1.366 . S
C722 C721 1.366 . S
C722 C723 1.414 . S
C722 C725 1.499 . S
C723 H697 0.950 . S
C723 C722 1.414 . S
C723 C724 1.374 . S
C724 H698 0.950 . S
C724 C720 1.385 . S
C724 C723 1.374 . S
C725 C722 1.499 . S
C725 C726 1.373 . S
C725 C727 1.389 . S
C726 H699 0.950 . S
C726 C712 1.377 . S
C726 C725 1.373 . S
C727 C711 1.377 . S
C727 C725 1.389 . S
C727 C728 1.524 . S
C728 C727 1.524 . S
C728 C729 1.397 . S
C728 C733 1.363 . S
C729 H700 0.950 . S
C729 C728 1.397 . S
C729 C730 1.334 . S
C730 H701 0.950 . S
C730 C729 1.334 . S
C730 C731 1.287 . S
C731 C730 1.287 . S
C731 C732 1.524 . S
C731 H734 0.999 . S
C732 H702 0.950 . S
C732 C731 1.524 . S
C732 C733 1.415 . S
C733 H703 0.950 . S
C733 C728 1.363 . S
C733 C732 1.415 . S
H734 C731 0.999 . S
H735 C716 0.913 . S
H736 C754 0.951 . S
H737 C756 0.951 . S
H738 C758 0.950 . S
H739 C759 0.950 . S
H740 C761 0.950 . S
H741 C764 0.950 . S
H742 C765 0.950 . S
H743 C767 0.950 . S
H744 C768 0.950 . S
H745 C769 0.951 . S
H746 C771 0.951 . S
H747 C773 0.950 . S
H748 C774 0.950 . S
H749 C776 0.950 . S
H750 C779 0.950 . S
H751 C780 0.950 . S
H752 C782 0.950 . S
H753 C783 0.950 . S
C754 H736 0.951 . S
C754 C755 1.366 . S
C754 C756 1.388 . S
C755 C754 1.366 . S
C755 C759 1.385 . S
C756 H737 0.951 . S
C756 C754 1.388 . S
C756 C757 1.366 . S
C757 C756 1.366 . S
C757 C758 1.414 . S
C757 C760 1.499 . S
C758 H738 0.950 . S
C758 C757 1.414 . S
C758 C759 1.374 . S
C759 H739 0.950 . S
C759 C755 1.385 . S
C759 C758 1.374 . S
C760 C757 1.499 . S
C760 C761 1.373 . S
C760 C762 1.389 . S
C761 H740 0.950 . S
C761 C760 1.373 . S
C761 C777 1.377 . S
C762 C760 1.389 . S
C762 C763 1.524 . S
C762 C776 1.377 . S
C763 C762 1.524 . S
C763 C764 1.397 . S
C763 C768 1.363 . S
C764 H741 0.950 . S
C764 C763 1.397 . S
C764 C765 1.334 . S
C765 H742 0.950 . S
C765 C764 1.334 . S
C765 C766 1.287 . S
C766 C765 1.287 . S
C766 C767 1.524 . S
C766 H785 0.913 . S
C767 H743 0.950 . S
C767 C766 1.524 . S
C767 C768 1.415 . S
C768 H744 0.950 . S
C768 C763 1.363 . S
C768 C767 1.415 . S
C769 H745 0.951 . S
C769 C770 1.366 . S
C769 C771 1.388 . S
C770 C769 1.366 . S
C770 C774 1.385 . S
C771 H746 0.951 . S
C771 C769 1.388 . S
C771 C772 1.366 . S
C772 C771 1.366 . S
C772 C773 1.414 . S
C772 C775 1.499 . S
C773 H747 0.950 . S
C773 C772 1.414 . S
C773 C774 1.374 . S
C774 H748 0.950 . S
C774 C770 1.385 . S
C774 C773 1.374 . S
C775 C772 1.499 . S
C775 C776 1.373 . S
C775 C777 1.389 . S
C776 H749 0.950 . S
C776 C762 1.377 . S
C776 C775 1.373 . S
C777 C761 1.377 . S
C777 C775 1.389 . S
C777 C778 1.524 . S
C778 C777 1.524 . S
C778 C779 1.397 . S
C778 C783 1.363 . S
C779 H750 0.950 . S
C779 C778 1.397 . S
C779 C780 1.334 . S
C780 H751 0.950 . S
C780 C779 1.334 . S
C780 C781 1.287 . S
C781 C780 1.287 . S
C781 C782 1.524 . S
C781 H784 0.999 . S
C782 H752 0.950 . S
C782 C781 1.524 . S
C782 C783 1.415 . S
C783 H753 0.950 . S
C783 C778 1.363 . S
C783 C782 1.415 . S
H784 C781 0.999 . S
H785 C766 0.913 . S
H786 C804 0.951 . S
H787 C806 0.951 . S
H788 C808 0.950 . S
H789 C809 0.950 . S
H790 C811 0.950 . S
H791 C814 0.950 . S
H792 C815 0.950 . S
H793 C817 0.950 . S
H794 C818 0.950 . S
H795 C819 0.951 . S
H796 C821 0.951 . S
H797 C823 0.950 . S
H798 C824 0.950 . S
H799 C826 0.950 . S
H800 C829 0.950 . S
H801 C830 0.950 . S
H802 C832 0.950 . S
H803 C833 0.950 . S
C804 H786 0.951 . S
C804 C805 1.366 . S
C804 C806 1.388 . S
C805 C804 1.366 . S
C805 C809 1.385 . S
C806 H787 0.951 . S
C806 C804 1.388 . S
C806 C807 1.366 . S
C807 C806 1.366 . S
C807 C808 1.414 . S
C807 C810 1.499 . S
C808 H788 0.950 . S
C808 C807 1.414 . S
C808 C809 1.374 . S
C809 H789 0.950 . S
C809 C805 1.385 . S
C809 C808 1.374 . S
C810 C807 1.499 . S
C810 C811 1.373 . S
C810 C812 1.389 . S
C811 H790 0.950 . S
C811 C810 1.373 . S
C811 C827 1.377 . S
C812 C810 1.389 . S
C812 C813 1.524 . S
C812 C826 1.377 . S
C813 C812 1.524 . S
C813 C814 1.397 . S
C813 C818 1.363 . S
C814 H791 0.950 . S
C814 C813 1.397 . S
C814 C815 1.334 . S
C815 H792 0.950 . S
C815 C814 1.334 . S
C815 C816 1.287 . S
C816 C815 1.287 . S
C816 C817 1.524 . S
C816 H835 0.913 . S
C817 H793 0.950 . S
C817 C816 1.524 . S
C817 C818 1.415 . S
C818 H794 0.950 . S
C818 C813 1.363 . S
C818 C817 1.415 . S
C819 H795 0.951 . S
C819 C820 1.366 . S
C819 C821 1.388 . S
C820 C819 1.366 . S
C820 C824 1.385 . S
C821 H796 0.951 . S
C821 C819 1.388 . S
C821 C822 1.366 . S
C822 C821 1.366 . S
C822 C823 1.414 . S
C822 C825 1.499 . S
C823 H797 0.950 . S
C823 C822 1.414 . S
C823 C824 1.374 . S
C824 H798 0.950 . S
C824 C820 1.385 . S
C824 C823 1.374 . S
C825 C822 1.499 . S
C825 C826 1.373 . S
C825 C827 1.389 . S
C826 H799 0.950 . S
C826 C812 1.377 . S
C826 C825 1.373 . S
C827 C811 1.377 . S
C827 C825 1.389 . S
C827 C828 1.524 . S
C828 C827 1.524 . S
C828 C829 1.397 . S
C828 C833 1.363 . S
C829 H800 0.950 . S
C829 C828 1.397 . S
C829 C830 1.334 . S
C830 H801 0.950 . S
C830 C829 1.334 . S
C830 C831 1.287 . S
C831 C830 1.287 . S
C831 C832 1.524 . S
C831 H834 0.999 . S
C832 H802 0.950 . S
C832 C831 1.524 . S
C832 C833 1.415 . S
C833 H803 0.950 . S
C833 C828 1.363 . S
C833 C832 1.415 . S
H834 C831 0.999 . S
H835 C816 0.913 . S
H836 C854 0.951 . S
H837 C856 0.951 . S
H838 C858 0.950 . S
H839 C859 0.950 . S
H840 C861 0.950 . S
H841 C864 0.950 . S
H842 C865 0.950 . S
H843 C867 0.950 . S
H844 C868 0.950 . S
H845 C869 0.951 . S
H846 C871 0.951 . S
H847 C873 0.950 . S
H848 C874 0.950 . S
H849 C876 0.950 . S
H850 C879 0.950 . S
H851 C880 0.950 . S
H852 C882 0.950 . S
H853 C883 0.950 . S
C854 H836 0.951 . S
C854 C855 1.366 . S
C854 C856 1.388 . S
C855 C854 1.366 . S
C855 C859 1.385 . S
C856 H837 0.951 . S
C856 C854 1.388 . S
C856 C857 1.366 . S
C857 C856 1.366 . S
C857 C858 1.414 . S
C857 C860 1.499 . S
C858 H838 0.950 . S
C858 C857 1.414 . S
C858 C859 1.374 . S
C859 H839 0.950 . S
C859 C855 1.385 . S
C859 C858 1.374 . S
C860 C857 1.499 . S
C860 C861 1.373 . S
C860 C862 1.389 . S
C861 H840 0.950 . S
C861 C860 1.373 . S
C861 C877 1.377 . S
C862 C860 1.389 . S
C862 C863 1.524 . S
C862 C876 1.377 . S
C863 C862 1.524 . S
C863 C864 1.397 . S
C863 C868 1.363 . S
C864 H841 0.950 . S
C864 C863 1.397 . S
C864 C865 1.334 . S
C865 H842 0.950 . S
C865 C864 1.334 . S
C865 C866 1.287 . S
C866 C865 1.287 . S
C866 C867 1.524 . S
C866 H885 0.913 . S
C867 H843 0.950 . S
C867 C866 1.524 . S
C867 C868 1.415 . S
C868 H844 0.950 . S
C868 C863 1.363 . S
C868 C867 1.415 . S
C869 H845 0.951 . S
C869 C870 1.366 . S
C869 C871 1.388 . S
C870 C869 1.366 . S
C870 C874 1.385 . S
C871 H846 0.951 . S
C871 C869 1.388 . S
C871 C872 1.366 . S
C872 C871 1.366 . S
C872 C873 1.414 . S
C872 C875 1.499 . S
C873 H847 0.950 . S
C873 C872 1.414 . S
C873 C874 1.374 . S
C874 H848 0.950 . S
C874 C870 1.385 . S
C874 C873 1.374 . S
C875 C872 1.499 . S
C875 C876 1.373 . S
C875 C877 1.389 . S
C876 H849 0.950 . S
C876 C862 1.377 . S
C876 C875 1.373 . S
C877 C861 1.377 . S
C877 C875 1.389 . S
C877 C878 1.524 . S
C878 C877 1.524 . S
C878 C879 1.397 . S
C878 C883 1.363 . S
C879 H850 0.950 . S
C879 C878 1.397 . S
C879 C880 1.334 . S
C880 H851 0.950 . S
C880 C879 1.334 . S
C880 C881 1.287 . S
C881 C880 1.287 . S
C881 C882 1.524 . S
C881 H884 0.999 . S
C882 H852 0.950 . S
C882 C881 1.524 . S
C882 C883 1.415 . S
C883 H853 0.950 . S
C883 C878 1.363 . S
C883 C882 1.415 . S
H884 C881 0.999 . S
H885 C866 0.913 . S
H886 C904 0.951 . S
H887 C906 0.951 . S
H888 C908 0.950 . S
H889 C909 0.950 . S
H890 C911 0.950 . S
H891 C914 0.950 . S
H892 C915 0.950 . S
H893 C917 0.950 . S
H894 C918 0.950 . S
H895 C919 0.951 . S
H896 C921 0.951 . S
H897 C923 0.950 . S
H898 C924 0.950 . S
H899 C926 0.950 . S
H900 C929 0.950 . S
H901 C930 0.950 . S
H902 C932 0.950 . S
H903 C933 0.950 . S
C904 H886 0.951 . S
C904 C905 1.366 . S
C904 C906 1.388 . S
C905 C904 1.366 . S
C905 C909 1.385 . S
C906 H887 0.951 . S
C906 C904 1.388 . S
C906 C907 1.366 . S
C907 C906 1.366 . S
C907 C908 1.414 . S
C907 C910 1.499 . S
C908 H888 0.950 . S
C908 C907 1.414 . S
C908 C909 1.374 . S
C909 H889 0.950 . S
C909 C905 1.385 . S
C909 C908 1.374 . S
C910 C907 1.499 . S
C910 C911 1.373 . S
C910 C912 1.389 . S
C911 H890 0.950 . S
C911 C910 1.373 . S
C911 C927 1.377 . S
C912 C910 1.389 . S
C912 C913 1.524 . S
C912 C926 1.377 . S
C913 C912 1.524 . S
C913 C914 1.397 . S
C913 C918 1.363 . S
C914 H891 0.950 . S
C914 C913 1.397 . S
C914 C915 1.334 . S
C915 H892 0.950 . S
C915 C914 1.334 . S
C915 C916 1.287 . S
C916 C915 1.287 . S
C916 C917 1.524 . S
C916 H935 0.913 . S
C917 H893 0.950 . S
C917 C916 1.524 . S
C917 C918 1.415 . S
C918 H894 0.950 . S
C918 C913 1.363 . S
C918 C917 1.415 . S
C919 H895 0.951 . S
C919 C920 1.366 . S
C919 C921 1.388 . S
C920 C919 1.366 . S
C920 C924 1.385 . S
C921 H896 0.951 . S
C921 C919 1.388 . S
C921 C922 1.366 . S
C922 C921 1.366 . S
C922 C923 1.414 . S
C922 C925 1.499 . S
C923 H897 0.950 . S
C923 C922 1.414 . S
C923 C924 1.374 . S
C924 H898 0.950 . S
C924 C920 1.385 . S
C924 C923 1.374 . S
C925 C922 1.499 . S
C925 C926 1.373 . S
C925 C927 1.389 . S
C926 H899 0.950 . S
C926 C912 1.377 . S
C926 C925 1.373 . S
C927 C911 1.377 . S
C927 C925 1.389 . S
C927 C928 1.524 . S
C928 C927 1.524 . S
C928 C929 1.397 . S
C928 C933 1.363 . S
C929 H900 0.950 . S
C929 C928 1.397 . S
C929 C930 1.334 . S
C930 H901 0.950 . S
C930 C929 1.334 . S
C930 C931 1.287 . S
C931 C930 1.287 . S
C931 C932 1.524 . S
C931 H934 0.999 . S
C932 H902 0.950 . S
C932 C931 1.524 . S
C932 C933 1.415 . S
C933 H903 0.950 . S
C933 C928 1.363 . S
C933 C932 1.415 . S
H934 C931 0.999 . S
H935 C916 0.913 . S
H936 C954 0.951 . S
H937 C956 0.951 . S
H938 C958 0.950 . S
H939 C959 0.950 . S
H940 C961 0.950 . S
H941 C964 0.950 . S
H942 C965 0.950 . S
H943 C967 0.950 . S
H944 C968 0.950 . S
H945 C969 0.951 . S
H946 C971 0.951 . S
H947 C973 0.950 . S
H948 C974 0.950 . S
H949 C976 0.950 1_655 S
H950 C979 0.950 . S
H951 C980 0.950 . S
H952 C982 0.950 . S
H953 C983 0.950 . S
C954 H936 0.951 . S
C954 C955 1.366 . S
C954 C956 1.388 . S
C955 C954 1.366 . S
C955 C959 1.385 . S
C956 H937 0.951 . S
C956 C954 1.388 . S
C956 C957 1.366 . S
C957 C956 1.366 . S
C957 C958 1.414 . S
C957 C960 1.499 . S
C958 H938 0.950 . S
C958 C957 1.414 . S
C958 C959 1.374 . S
C959 H939 0.950 . S
C959 C955 1.385 . S
C959 C958 1.374 . S
C960 C957 1.499 . S
C960 C961 1.373 . S
C960 C962 1.389 . S
C961 H940 0.950 . S
C961 C960 1.373 . S
C961 C977 1.377 . S
C962 C960 1.389 . S
C962 C963 1.524 1_455 S
C962 C976 1.377 . S
C963 C962 1.524 1_655 S
C963 C964 1.397 . S
C963 C968 1.363 . S
C964 H941 0.950 . S
C964 C963 1.397 . S
C964 C965 1.334 . S
C965 H942 0.950 . S
C965 C964 1.334 . S
C965 C966 1.287 . S
C966 C965 1.287 . S
C966 C967 1.524 . S
C966 H985 0.913 . S
C967 H943 0.950 . S
C967 C966 1.524 . S
C967 C968 1.415 . S
C968 H944 0.950 . S
C968 C963 1.363 . S
C968 C967 1.415 . S
C969 H945 0.951 . S
C969 C970 1.366 . S
C969 C971 1.388 1_556 S
C970 C969 1.366 . S
C970 C974 1.385 . S
C971 H946 0.951 . S
C971 C969 1.388 1_554 S
C971 C972 1.366 . S
C972 C971 1.366 . S
C972 C973 1.414 . S
C972 C975 1.499 . S
C973 H947 0.950 . S
C973 C972 1.414 . S
C973 C974 1.374 1_554 S
C974 H948 0.950 . S
C974 C970 1.385 . S
C974 C973 1.374 1_556 S
C975 C972 1.499 . S
C975 C976 1.373 . S
C975 C977 1.389 . S
C976 H949 0.950 1_455 S
C976 C962 1.377 . S
C976 C975 1.373 . S
C977 C961 1.377 . S
C977 C975 1.389 . S
C977 C978 1.524 . S
C978 C977 1.524 . S
C978 C979 1.397 . S
C978 C983 1.363 . S
C979 H950 0.950 . S
C979 C978 1.397 . S
C979 C980 1.334 . S
C980 H951 0.950 . S
C980 C979 1.334 . S
C980 C981 1.287 . S
C981 C980 1.287 . S
C981 C982 1.524 . S
C981 H984 0.999 . S
C982 H952 0.950 . S
C982 C981 1.524 . S
C982 C983 1.415 . S
C983 H953 0.950 . S
C983 C978 1.363 . S
C983 C982 1.415 . S
H984 C981 0.999 . S
H985 C966 0.913 . S
H986 C1004 0.951 . S
H987 C1006 0.951 . S
H988 C1008 0.950 . S
H989 C1009 0.950 . S
H990 C1011 0.950 . S
H991 C1014 0.950 . S
H992 C1015 0.950 . S
H993 C1017 0.950 . S
H994 C1018 0.950 . S
H995 C1019 0.953 . S
H996 C1021 0.951 . S
H997 C1023 0.950 . S
H998 C1024 0.950 . S
H999 C1026 0.950 . S
H1000 C1029 0.950 . S
H1001 C1030 0.950 . S
H1002 C1032 0.950 . S
H1003 C1033 0.950 . S
C1004 H986 0.951 . S
C1004 C1005 1.366 . S
C1004 C1006 1.388 . S
C1005 C1004 1.366 . S
C1005 C1009 1.385 1_545 S
C1006 H987 0.951 . S
C1006 C1004 1.388 . S
C1006 C1007 1.366 . S
C1007 C1006 1.366 . S
C1007 C1008 1.414 1_545 S
C1007 C1010 1.499 . S
C1008 H988 0.950 . S
C1008 C1007 1.414 1_565 S
C1008 C1009 1.374 . S
C1009 H989 0.950 . S
C1009 C1005 1.385 1_565 S
C1009 C1008 1.374 . S
C1010 C1007 1.499 . S
C1010 C1011 1.373 1_545 S
C1010 C1012 1.389 . S
C1011 H990 0.950 . S
C1011 C1010 1.373 1_565 S
C1011 C1027 1.377 . S
C1012 C1010 1.389 . S
C1012 C1013 1.524 . S
C1012 C1026 1.377 . S
C1013 C1012 1.524 . S
C1013 C1014 1.397 . S
C1013 C1018 1.363 . S
C1014 H991 0.950 . S
C1014 C1013 1.397 . S
C1014 C1015 1.334 . S
C1015 H992 0.950 . S
C1015 C1014 1.334 . S
C1015 C1016 1.287 . S
C1016 C1015 1.287 . S
C1016 C1017 1.524 . S
C1016 H1035 0.913 . S
C1017 H993 0.950 . S
C1017 C1016 1.524 . S
C1017 C1018 1.415 . S
C1018 H994 0.950 . S
C1018 C1013 1.363 . S
C1018 C1017 1.415 . S
C1019 H995 0.953 . S
C1019 C1020 1.362 1_565 S
C1019 C1021 1.392 . S
C1020 C1019 1.362 1_545 S
C1020 C1024 1.385 . S
C1021 H996 0.951 . S
C1021 C1019 1.392 . S
C1021 C1022 1.366 1_565 S
C1022 C1021 1.366 1_545 S
C1022 C1023 1.414 . S
C1022 C1025 1.499 . S
C1023 H997 0.950 . S
C1023 C1022 1.414 . S
C1023 C1024 1.374 . S
C1024 H998 0.950 . S
C1024 C1020 1.385 . S
C1024 C1023 1.374 . S
C1025 C1022 1.499 . S
C1025 C1026 1.373 . S
C1025 C1027 1.389 1_545 S
C1026 H999 0.950 . S
C1026 C1012 1.377 . S
C1026 C1025 1.373 . S
C1027 C1011 1.377 . S
C1027 C1025 1.389 1_565 S
C1027 C1028 1.524 . S
C1028 C1027 1.524 . S
C1028 C1029 1.397 . S
C1028 C1033 1.363 . S
C1029 H1000 0.950 . S
C1029 C1028 1.397 . S
C1029 C1030 1.334 . S
C1030 H1001 0.950 . S
C1030 C1029 1.334 . S
C1030 C1031 1.287 . S
C1031 C1030 1.287 . S
C1031 C1032 1.524 . S
C1031 H1034 0.999 . S
C1032 H1002 0.950 . S
C1032 C1031 1.524 . S
C1032 C1033 1.415 . S
C1033 H1003 0.950 . S
C1033 C1028 1.363 . S
C1033 C1032 1.415 . S
H1034 C1031 0.999 . S
H1035 C1016 0.913 . S
H1036 C1054 0.951 . S
H1037 C1056 0.951 . S
H1038 C1058 0.950 . S
H1039 C1059 0.950 . S
H1040 C1061 0.950 . S
H1041 C1064 0.950 . S
H1042 C1065 0.950 . S
H1043 C1067 0.950 . S
H1044 C1068 0.950 . S
H1045 C1069 0.951 . S
H1046 C1071 0.951 . S
H1047 C1073 0.950 . S
H1048 C1074 0.950 . S
H1049 C1076 0.950 . S
H1050 C1079 0.950 . S
H1051 C1080 0.950 . S
H1052 C1082 0.950 . S
H1053 C1083 0.950 . S
C1054 H1036 0.951 . S
C1054 C1055 1.366 . S
C1054 C1056 1.388 . S
C1055 C1054 1.366 . S
C1055 C1059 1.385 . S
C1056 H1037 0.951 . S
C1056 C1054 1.388 . S
C1056 C1057 1.366 . S
C1057 C1056 1.366 . S
C1057 C1058 1.414 . S
C1057 C1060 1.499 . S
C1058 H1038 0.950 . S
C1058 C1057 1.414 . S
C1058 C1059 1.374 . S
C1059 H1039 0.950 . S
C1059 C1055 1.385 . S
C1059 C1058 1.374 . S
C1060 C1057 1.499 . S
C1060 C1061 1.373 . S
C1060 C1062 1.389 . S
C1061 H1040 0.950 . S
C1061 C1060 1.373 . S
C1061 C1077 1.377 . S
C1062 C1060 1.389 . S
C1062 C1063 1.524 . S
C1062 C1076 1.377 . S
C1063 C1062 1.524 . S
C1063 C1064 1.397 . S
C1063 C1068 1.363 . S
C1064 H1041 0.950 . S
C1064 C1063 1.397 . S
C1064 C1065 1.334 . S
C1065 H1042 0.950 . S
C1065 C1064 1.334 . S
C1065 C1066 1.287 . S
C1066 C1065 1.287 . S
C1066 C1067 1.524 . S
C1066 H1085 0.913 . S
C1067 H1043 0.950 . S
C1067 C1066 1.524 . S
C1067 C1068 1.415 . S
C1068 H1044 0.950 . S
C1068 C1063 1.363 . S
C1068 C1067 1.415 . S
C1069 H1045 0.951 . S
C1069 C1070 1.366 . S
C1069 C1071 1.388 . S
C1070 C1069 1.366 . S
C1070 C1074 1.385 . S
C1071 H1046 0.951 . S
C1071 C1069 1.388 . S
C1071 C1072 1.366 . S
C1072 C1071 1.366 . S
C1072 C1073 1.414 . S
C1072 C1075 1.499 . S
C1073 H1047 0.950 . S
C1073 C1072 1.414 . S
C1073 C1074 1.374 . S
C1074 H1048 0.950 . S
C1074 C1070 1.385 . S
C1074 C1073 1.374 . S
C1075 C1072 1.499 . S
C1075 C1076 1.373 . S
C1075 C1077 1.389 . S
C1076 H1049 0.950 . S
C1076 C1062 1.377 . S
C1076 C1075 1.373 . S
C1077 C1061 1.377 . S
C1077 C1075 1.389 . S
C1077 C1078 1.524 . S
C1078 C1077 1.524 . S
C1078 C1079 1.397 . S
C1078 C1083 1.363 . S
C1079 H1050 0.950 . S
C1079 C1078 1.397 . S
C1079 C1080 1.334 . S
C1080 H1051 0.950 . S
C1080 C1079 1.334 . S
C1080 C1081 1.287 . S
C1081 C1080 1.287 . S
C1081 C1082 1.524 . S
C1081 H1084 0.999 . S
C1082 H1052 0.950 . S
C1082 C1081 1.524 . S
C1082 C1083 1.415 . S
C1083 H1053 0.950 . S
C1083 C1078 1.363 . S
C1083 C1082 1.415 . S
H1084 C1081 0.999 . S
H1085 C1066 0.913 . S
H1086 C1104 0.951 . S
H1087 C1106 0.951 . S
H1088 C1108 0.950 . S
H1089 C1109 0.950 . S
H1090 C1111 0.950 . S
H1091 C1114 0.950 . S
H1092 C1115 0.950 . S
H1093 C1117 0.950 . S
H1094 C1118 0.950 . S
H1095 C1119 0.951 . S
H1096 C1121 0.951 . S
H1097 C1123 0.950 . S
H1098 C1124 0.950 . S
H1099 C1126 0.950 . S
H1100 C1129 0.950 . S
H1101 C1130 0.950 . S
H1102 C1132 0.950 . S
H1103 C1133 0.950 . S
C1104 H1086 0.951 . S
C1104 C1105 1.366 1_565 S
C1104 C1106 1.388 . S
C1105 C1104 1.366 1_545 S
C1105 C1109 1.385 . S
C1106 H1087 0.951 . S
C1106 C1104 1.388 . S
C1106 C1107 1.366 1_565 S
C1107 C1106 1.366 1_545 S
C1107 C1108 1.414 . S
C1107 C1110 1.499 . S
C1108 H1088 0.950 . S
C1108 C1107 1.414 . S
C1108 C1109 1.374 . S
C1109 H1089 0.950 . S
C1109 C1105 1.385 . S
C1109 C1108 1.374 . S
C1110 C1107 1.499 . S
C1110 C1111 1.373 . S
C1110 C1112 1.389 1_545 S
C1111 H1090 0.950 . S
C1111 C1110 1.373 . S
C1111 C1127 1.377 . S
C1112 C1110 1.389 1_565 S
C1112 C1113 1.524 . S
C1112 C1126 1.377 . S
C1113 C1112 1.524 . S
C1113 C1114 1.397 . S
C1113 C1118 1.363 . S
C1114 H1091 0.950 . S
C1114 C1113 1.397 . S
C1114 C1115 1.334 . S
C1115 H1092 0.950 . S
C1115 C1114 1.334 . S
C1115 C1116 1.287 . S
C1116 C1115 1.287 . S
C1116 C1117 1.524 . S
C1116 H1135 0.913 . S
C1117 H1093 0.950 . S
C1117 C1116 1.524 . S
C1117 C1118 1.415 . S
C1118 H1094 0.950 . S
C1118 C1113 1.363 . S
C1118 C1117 1.415 . S
C1119 H1095 0.951 . S
C1119 C1120 1.366 1_545 S
C1119 C1121 1.388 . S
C1120 C1119 1.366 1_565 S
C1120 C1124 1.385 . S
C1121 H1096 0.951 . S
C1121 C1119 1.388 . S
C1121 C1122 1.390 . S
C1122 C1121 1.390 . S
C1122 C1123 1.388 1_545 S
C1122 C1125 1.498 . S
C1123 H1097 0.950 . S
C1123 C1122 1.388 1_565 S
C1123 C1124 1.374 . S
C1124 H1098 0.950 . S
C1124 C1120 1.385 . S
C1124 C1123 1.374 . S
C1125 C1122 1.498 . S
C1125 C1126 1.368 1_545 S
C1125 C1127 1.400 . S
C1126 H1099 0.950 . S
C1126 C1112 1.377 . S
C1126 C1125 1.368 1_565 S
C1127 C1111 1.377 . S
C1127 C1125 1.400 . S
C1127 C1128 1.524 . S
C1128 C1127 1.524 . S
C1128 C1129 1.397 . S
C1128 C1133 1.363 . S
C1129 H1100 0.950 . S
C1129 C1128 1.397 . S
C1129 C1130 1.334 . S
C1130 H1101 0.950 . S
C1130 C1129 1.334 . S
C1130 C1131 1.287 . S
C1131 C1130 1.287 . S
C1131 C1132 1.524 . S
C1131 H1134 0.999 . S
C1132 H1102 0.950 . S
C1132 C1131 1.524 . S
C1132 C1133 1.415 . S
C1133 H1103 0.950 . S
C1133 C1128 1.363 . S
C1133 C1132 1.415 . S
H1134 C1131 0.999 . S
H1135 C1116 0.913 . S
H1136 C1154 0.951 . S
H1137 C1156 0.951 . S
H1138 C1158 0.950 . S
H1139 C1159 0.950 . S
H1140 C1161 0.950 . S
H1141 C1164 0.950 . S
H1142 C1165 0.950 . S
H1143 C1167 0.950 . S
H1144 C1168 0.950 . S
H1145 C1169 0.951 . S
H1146 C1171 0.951 . S
H1147 C1173 0.950 . S
H1148 C1174 0.950 . S
H1149 C1176 0.950 . S
H1150 C1179 0.950 . S
H1151 C1180 0.950 . S
H1152 C1182 0.950 . S
H1153 C1183 0.950 . S
C1154 H1136 0.951 . S
C1154 C1155 1.366 . S
C1154 C1156 1.388 . S
C1155 C1154 1.366 . S
C1155 C1159 1.385 . S
C1156 H1137 0.951 . S
C1156 C1154 1.388 . S
C1156 C1157 1.366 . S
C1157 C1156 1.366 . S
C1157 C1158 1.414 . S
C1157 C1160 1.499 . S
C1158 H1138 0.950 . S
C1158 C1157 1.414 . S
C1158 C1159 1.374 . S
C1159 H1139 0.950 . S
C1159 C1155 1.385 . S
C1159 C1158 1.374 . S
C1160 C1157 1.499 . S
C1160 C1161 1.373 . S
C1160 C1162 1.389 . S
C1161 H1140 0.950 . S
C1161 C1160 1.373 . S
C1161 C1177 1.377 . S
C1162 C1160 1.389 . S
C1162 C1163 1.524 . S
C1162 C1176 1.377 . S
C1163 C1162 1.524 . S
C1163 C1164 1.397 . S
C1163 C1168 1.363 . S
C1164 H1141 0.950 . S
C1164 C1163 1.397 . S
C1164 C1165 1.334 . S
C1165 H1142 0.950 . S
C1165 C1164 1.334 . S
C1165 C1166 1.287 . S
C1166 C1165 1.287 . S
C1166 C1167 1.524 . S
C1166 H1185 0.913 . S
C1167 H1143 0.950 . S
C1167 C1166 1.524 . S
C1167 C1168 1.415 . S
C1168 H1144 0.950 . S
C1168 C1163 1.363 . S
C1168 C1167 1.415 . S
C1169 H1145 0.951 . S
C1169 C1170 1.366 . S
C1169 C1171 1.388 1_554 S
C1170 C1169 1.366 . S
C1170 C1174 1.385 . S
C1171 H1146 0.951 . S
C1171 C1169 1.388 1_556 S
C1171 C1172 1.366 . S
C1172 C1171 1.366 . S
C1172 C1173 1.414 . S
C1172 C1175 1.499 . S
C1173 H1147 0.950 . S
C1173 C1172 1.414 . S
C1173 C1174 1.374 1_556 S
C1174 H1148 0.950 . S
C1174 C1170 1.385 . S
C1174 C1173 1.374 1_554 S
C1175 C1172 1.499 . S
C1175 C1176 1.373 . S
C1175 C1177 1.389 . S
C1176 H1149 0.950 . S
C1176 C1162 1.377 . S
C1176 C1175 1.373 . S
C1177 C1161 1.377 . S
C1177 C1175 1.389 . S
C1177 C1178 1.524 . S
C1178 C1177 1.524 . S
C1178 C1179 1.397 . S
C1178 C1183 1.363 . S
C1179 H1150 0.950 . S
C1179 C1178 1.397 . S
C1179 C1180 1.334 . S
C1180 H1151 0.950 . S
C1180 C1179 1.334 . S
C1180 C1181 1.287 . S
C1181 C1180 1.287 . S
C1181 C1182 1.524 . S
C1181 H1184 0.999 . S
C1182 H1152 0.950 . S
C1182 C1181 1.524 . S
C1182 C1183 1.415 . S
C1183 H1153 0.950 . S
C1183 C1178 1.363 . S
C1183 C1182 1.415 . S
H1184 C1181 0.999 . S
H1185 C1166 0.913 . S
H1186 C1204 0.951 . S
H1187 C1206 0.951 . S
H1188 C1208 0.950 . S
H1189 C1209 0.950 . S
H1190 C1211 0.950 . S
H1191 C1214 0.950 . S
H1192 C1215 0.950 . S
H1193 C1217 0.950 . S
H1194 C1218 0.950 . S
H1195 C1219 0.951 . S
H1196 C1221 0.951 . S
H1197 C1223 0.950 . S
H1198 C1224 0.950 . S
H1199 C1226 0.950 . S
H1200 C1229 0.950 . S
H1201 C1230 0.950 . S
H1202 C1232 0.950 . S
H1203 C1233 0.950 . S
C1204 H1186 0.951 . S
C1204 C1205 1.366 . S
C1204 C1206 1.388 . S
C1205 C1204 1.366 . S
C1205 C1209 1.385 1_455 S
C1206 H1187 0.951 . S
C1206 C1204 1.388 . S
C1206 C1207 1.366 . S
C1207 C1206 1.366 . S
C1207 C1208 1.414 1_455 S
C1207 C1210 1.499 . S
C1208 H1188 0.950 . S
C1208 C1207 1.414 1_655 S
C1208 C1209 1.374 . S
C1209 H1189 0.950 . S
C1209 C1205 1.385 1_655 S
C1209 C1208 1.374 . S
C1210 C1207 1.499 . S
C1210 C1211 1.373 1_455 S
C1210 C1212 1.389 . S
C1211 H1190 0.950 . S
C1211 C1210 1.373 1_655 S
C1211 C1227 1.377 . S
C1212 C1210 1.389 . S
C1212 C1213 1.524 . S
C1212 C1226 1.377 . S
C1213 C1212 1.524 . S
C1213 C1214 1.397 . S
C1213 C1218 1.363 . S
C1214 H1191 0.950 . S
C1214 C1213 1.397 . S
C1214 C1215 1.334 . S
C1215 H1192 0.950 . S
C1215 C1214 1.334 . S
C1215 C1216 1.287 . S
C1216 C1215 1.287 . S
C1216 C1217 1.524 . S
C1216 H1235 0.913 . S
C1217 H1193 0.950 . S
C1217 C1216 1.524 . S
C1217 C1218 1.415 . S
C1218 H1194 0.950 . S
C1218 C1213 1.363 . S
C1218 C1217 1.415 . S
C1219 H1195 0.951 . S
C1219 C1220 1.370 . S
C1219 C1221 1.388 . S
C1220 C1219 1.370 . S
C1220 C1224 1.379 1_655 S
C1221 H1196 0.951 . S
C1221 C1219 1.388 . S
C1221 C1222 1.366 1_655 S
C1222 C1221 1.366 1_455 S
C1222 C1223 1.414 . S
C1222 C1225 1.499 . S
C1223 H1197 0.950 . S
C1223 C1222 1.414 . S
C1223 C1224 1.374 . S
C1224 H1198 0.950 . S
C1224 C1220 1.379 1_455 S
C1224 C1223 1.374 . S
C1225 C1222 1.499 . S
C1225 C1226 1.373 . S
C1225 C1227 1.389 1_455 S
C1226 H1199 0.950 . S
C1226 C1212 1.377 . S
C1226 C1225 1.373 . S
C1227 C1211 1.377 . S
C1227 C1225 1.389 1_655 S
C1227 C1228 1.524 . S
C1228 C1227 1.524 . S
C1228 C1229 1.397 . S
C1228 C1233 1.363 . S
C1229 H1200 0.950 . S
C1229 C1228 1.397 . S
C1229 C1230 1.334 . S
C1230 H1201 0.950 . S
C1230 C1229 1.334 . S
C1230 C1231 1.287 . S
C1231 C1230 1.287 . S
C1231 C1232 1.524 . S
C1231 H1234 0.999 . S
C1232 H1202 0.950 . S
C1232 C1231 1.524 . S
C1232 C1233 1.415 . S
C1233 H1203 0.950 . S
C1233 C1228 1.363 . S
C1233 C1232 1.415 . S
H1234 C1231 0.999 . S
H1235 C1216 0.913 . S
C355 C6 0.444 . S
C370 C325 0.429 . S
C405 C59 1.860 . S
C420 C253 1.807 . S
C455 C86 1.151 . S
C470 C289 1.140 . S
C505 C15 0.334 . S
C520 C301 0.233 . S
C570 C229 1.935 . S
C555 C50 1.953 . S
C620 C265 1.262 . S
C605 C95 1.259 . S
C655 C46 1.153 . S
C670 C181 1.147 . S
C705 C99 3.048 . S
C720 C193 3.015 . S
C755 C10 1.980 . S
C770 C121 1.967 . S
C820 C157 1.247 . S
C805 C55 1.239 . S
C870 C217 2.882 . S
C855 C90 2.925 . S
C905 C19 1.852 . S
C920 C145 1.804 . S
C970 C223 1.755 . S
C955 C18 1.693 . S
C1005 C49 1.336 . S
C1020 C151 1.376 . S
C1055 C98 1.454 . S
C1070 C187 1.504 . S
C1120 C295 1.484 1_565 S
C1105 C58 1.443 . S
C1170 C331 1.114 . S
C1155 C89 1.093 . S
C1205 C9 1.333 . S
C1220 C259 1.367 1_655 S
