# Generated by pormake.
# Topology eea, (3,6)-cn, num edge types: 1
# Building blocks:
#     Node 0, Type 0, BuildingBlock: KAKCAD_clean_linker_0, # of connection points: 3
#     Node 1, Type 0, BuildingBlock: KAKCAD_clean_linker_0, # of connection points: 3
#     Node 2, Type 0, BuildingBlock: KAKCAD_clean_linker_0, # of connection points: 3
#     Node 3, Type 0, BuildingBlock: KAKCAD_clean_linker_0, # of connection points: 3
#     Node 4, Type 0, BuildingBlock: KAKCAD_clean_linker_0, # of connection points: 3
#     Node 5, Type 0, BuildingBlock: KAKCAD_clean_linker_0, # of connection points: 3
#     Node 6, Type 0, BuildingBlock: KAKCAD_clean_linker_0, # of connection points: 3
#     Node 7, Type 0, BuildingBlock: KAKCAD_clean_linker_0, # of connection points: 3
#     Node 8, Type 0, BuildingBlock: KAKCAD_clean_linker_0, # of connection points: 3
#     Node 9, Type 0, BuildingBlock: KAKCAD_clean_linker_0, # of connection points: 3
#     Node 10, Type 0, BuildingBlock: KAKCAD_clean_linker_0, # of connection points: 3
#     Node 11, Type 0, BuildingBlock: KAKCAD_clean_linker_0, # of connection points: 3
#     Node 12, Type 0, BuildingBlock: KAKCAD_clean_linker_0, # of connection points: 3
#     Node 13, Type 0, BuildingBlock: KAKCAD_clean_linker_0, # of connection points: 3
#     Node 14, Type 0, BuildingBlock: KAKCAD_clean_linker_0, # of connection points: 3
#     Node 15, Type 0, BuildingBlock: KAKCAD_clean_linker_0, # of connection points: 3
#     Node 16, Type 0, BuildingBlock: KAKCAD_clean_linker_0, # of connection points: 3
#     Node 17, Type 0, BuildingBlock: KAKCAD_clean_linker_0, # of connection points: 3
#     Node 18, Type 1, BuildingBlock: NUHQIS_clean_sbu_0, # of connection points: 6
#     Node 19, Type 1, BuildingBlock: NUHQIS_clean_sbu_0, # of connection points: 6
#     Node 20, Type 1, BuildingBlock: NUHQIS_clean_sbu_0, # of connection points: 6
#     Node 21, Type 1, BuildingBlock: NUHQIS_clean_sbu_0, # of connection points: 6
#     Node 22, Type 1, BuildingBlock: NUHQIS_clean_sbu_0, # of connection points: 6
#     Node 23, Type 1, BuildingBlock: NUHQIS_clean_sbu_0, # of connection points: 6
#     Node 24, Type 1, BuildingBlock: NUHQIS_clean_sbu_0, # of connection points: 6
#     Node 25, Type 1, BuildingBlock: NUHQIS_clean_sbu_0, # of connection points: 6
#     Node 26, Type 1, BuildingBlock: NUHQIS_clean_sbu_0, # of connection points: 6
#     Edge 27, Type (0, 1), None
#     Edge 28, Type (0, 1), None
#     Edge 29, Type (0, 1), None
#     Edge 30, Type (0, 1), None
#     Edge 31, Type (0, 1), None
#     Edge 32, Type (0, 1), None
#     Edge 33, Type (0, 1), None
#     Edge 34, Type (0, 1), None
#     Edge 35, Type (0, 1), None
#     Edge 36, Type (0, 1), None
#     Edge 37, Type (0, 1), None
#     Edge 38, Type (0, 1), None
#     Edge 39, Type (0, 1), None
#     Edge 40, Type (0, 1), None
#     Edge 41, Type (0, 1), None
#     Edge 42, Type (0, 1), None
#     Edge 43, Type (0, 1), None
#     Edge 44, Type (0, 1), None
#     Edge 45, Type (0, 1), None
#     Edge 46, Type (0, 1), None
#     Edge 47, Type (0, 1), None
#     Edge 48, Type (0, 1), None
#     Edge 49, Type (0, 1), None
#     Edge 50, Type (0, 1), None
#     Edge 51, Type (0, 1), None
#     Edge 52, Type (0, 1), None
#     Edge 53, Type (0, 1), None
#     Edge 54, Type (0, 1), None
#     Edge 55, Type (0, 1), None
#     Edge 56, Type (0, 1), None
#     Edge 57, Type (0, 1), None
#     Edge 58, Type (0, 1), None
#     Edge 59, Type (0, 1), None
#     Edge 60, Type (0, 1), None
#     Edge 61, Type (0, 1), None
#     Edge 62, Type (0, 1), None
#     Edge 63, Type (0, 1), None
#     Edge 64, Type (0, 1), None
#     Edge 65, Type (0, 1), None
#     Edge 66, Type (0, 1), None
#     Edge 67, Type (0, 1), None
#     Edge 68, Type (0, 1), None
#     Edge 69, Type (0, 1), None
#     Edge 70, Type (0, 1), None
#     Edge 71, Type (0, 1), None
#     Edge 72, Type (0, 1), None
#     Edge 73, Type (0, 1), None
#     Edge 74, Type (0, 1), None
#     Edge 75, Type (0, 1), None
#     Edge 76, Type (0, 1), None
#     Edge 77, Type (0, 1), None
#     Edge 78, Type (0, 1), None
#     Edge 79, Type (0, 1), None
#     Edge 80, Type (0, 1), None
# Relax obj value: 0.033
# Max RMSD: 0.130
# Mean RMSD: 0.111
data_MOF--net-eea--node1-NUHQIS_clean_sbu_0--node2-KAKCAD_clean_linker_0--edge1-none
_symmetry_space_group_name_H-M    P1
_symmetry_Int_Tables_number       1
_symmetry_cell_setting            triclinic
loop_
_symmetry_equiv_pos_as_xyz
'x, y, z'
_cell_length_a     33.827981
_cell_length_b     34.123361
_cell_length_c     55.569185
_cell_angle_alpha  92.946219
_cell_angle_beta   92.284507
_cell_angle_gamma 120.13411
loop_
_atom_site_label
_atom_site_type_symbol
_atom_site_fract_x
_atom_site_fract_y
_atom_site_fract_z
_atom_type_partial_charge
C0 C 0.31887 0.19147 0.51781 0.0
C1 C 0.35273 0.1811 0.52488 0.0
C2 C 0.30258 0.18482 0.49359 0.0
C3 C 0.31965 0.16745 0.47596 0.0
C4 C 0.35455 0.15847 0.48292 0.0
C5 C 0.37103 0.16536 0.50713 0.0
C6 C 0.2987 0.15549 0.45078 0.0
C7 C 0.28781 0.18465 0.43894 0.0
C8 C 0.26479 0.17154 0.41574 0.0
C9 C 0.25335 0.12919 0.40434 0.0
C10 C 0.26326 0.09936 0.41608 0.0
C11 C 0.28634 0.11297 0.43918 0.0
C12 C 0.24668 0.05282 0.40493 0.0
C13 C 0.2029 0.02791 0.39264 0.0
C14 C 0.2738 0.0325 0.40701 0.0
C15 C 0.25741 0.98817 0.39708 0.0
C16 C 0.2138 0.96352 0.38467 0.0
C17 C 0.24883 0.19991 0.40423 0.0
C18 C 0.22832 0.21947 0.418 0.0
C19 C 0.25109 0.20517 0.37927 0.0
C20 C 0.23295 0.22936 0.36831 0.0
C21 C 0.21223 0.24868 0.38215 0.0
C22 C 0.21028 0.24354 0.40711 0.0
C23 C 0.18677 0.98385 0.38249 0.0
H24 H 0.30455 0.20421 0.53106 0.0
H25 H 0.27541 0.1917 0.48881 0.0
H26 H 0.36855 0.14535 0.46967 0.0
H27 H 0.39698 0.15688 0.51204 0.0
H28 H 0.29697 0.21742 0.44786 0.0
H29 H 0.29254 0.08944 0.44874 0.0
H30 H 0.23514 0.11872 0.38659 0.0
H31 H 0.18067 0.04213 0.3912 0.0
H32 H 0.30784 0.05096 0.41616 0.0
H33 H 0.27916 0.97347 0.39891 0.0
H34 H 0.22518 0.21526 0.43715 0.0
H35 H 0.26694 0.19063 0.36821 0.0
H36 H 0.15284 0.96553 0.3732 0.0
H37 H 0.19456 0.25794 0.41838 0.0
H38 H 0.23534 0.23306 0.3491 0.0
C39 C 0.87029 0.20702 0.51016 0.0
C40 C 0.85792 0.17551 0.5278 0.0
C41 C 0.88131 0.19744 0.48736 0.0
C42 C 0.87948 0.15591 0.48171 0.0
C43 C 0.86815 0.12498 0.49954 0.0
C44 C 0.85764 0.1347 0.5223 0.0
C45 C 0.8857 0.14284 0.45685 0.0
C46 C 0.92368 0.17204 0.44435 0.0
C47 C 0.92924 0.1584 0.4209 0.0
C48 C 0.89579 0.11556 0.41007 0.0
C49 C 0.85766 0.08626 0.42226 0.0
C50 C 0.85294 0.10019 0.4456 0.0
C51 C 0.82288 0.04098 0.41061 0.0
C52 C 0.80867 0.03579 0.38597 0.0
C53 C 0.80407 0.00253 0.42397 0.0
C54 C 0.772 0.95979 0.41288 0.0
C55 C 0.75835 0.95459 0.38816 0.0
C56 C 0.96966 0.18838 0.4075 0.0
C57 C 0.98731 0.23555 0.40882 0.0
C58 C 0.99028 0.16986 0.39278 0.0
C59 C 0.02744 0.19777 0.37969 0.0
C60 C 0.04529 0.24492 0.38129 0.0
C61 C 0.02475 0.26346 0.39596 0.0
C62 C 0.7769 0.99304 0.37484 0.0
H63 H 0.87121 0.23893 0.51395 0.0
H64 H 0.8897 0.22175 0.47389 0.0
H65 H 0.8667 0.0928 0.49572 0.0
H66 H 0.8479 0.10952 0.53537 0.0
H67 H 0.94941 0.20464 0.45319 0.0
H68 H 0.82305 0.07812 0.45492 0.0
H69 H 0.89942 0.10483 0.39201 0.0
H70 H 0.82188 0.06484 0.37527 0.0
H71 H 0.81475 0.00528 0.44292 0.0
H72 H 0.75849 0.93076 0.42361 0.0
H73 H 0.97194 0.25095 0.4196 0.0
H74 H 0.97822 0.13378 0.39164 0.0
H75 H 0.76681 0.99021 0.35579 0.0
H76 H 0.03766 0.29973 0.39759 0.0
H77 H 0.04294 0.18253 0.36888 0.0
C78 C 0.88537 0.70546 0.52121 0.0
C79 C 0.84125 0.66923 0.52456 0.0
C80 C 0.89598 0.72381 0.49873 0.0
C81 C 0.86251 0.70686 0.47916 0.0
C82 C 0.81852 0.67046 0.48249 0.0
C83 C 0.80811 0.65171 0.50483 0.0
C84 C 0.87275 0.72782 0.45557 0.0
C85 C 0.91331 0.73777 0.44457 0.0
C86 C 0.9223 0.75683 0.42207 0.0
C87 C 0.89052 0.7666 0.41097 0.0
C88 C 0.85035 0.75788 0.42179 0.0
C89 C 0.84165 0.73815 0.44402 0.0
C90 C 0.81792 0.7698 0.40977 0.0
C91 C 0.83453 0.80937 0.3973 0.0
C92 C 0.7702 0.74152 0.41027 0.0
C93 C 0.74 0.75241 0.39852 0.0
C94 C 0.75675 0.79156 0.38576 0.0
C95 C 0.96501 0.76765 0.41006 0.0
C96 C 0.0076 0.78757 0.4235 0.0
C97 C 0.96386 0.76049 0.38476 0.0
C98 C 0.00425 0.77396 0.37317 0.0
C99 C 0.0469 0.79468 0.38658 0.0
C100 C 0.04798 0.80087 0.41193 0.0
C101 C 0.80436 0.81991 0.3853 0.0
H102 H 0.91183 0.71951 0.53596 0.0
H103 H 0.9301 0.75197 0.49683 0.0
H104 H 0.79204 0.65639 0.46774 0.0
H105 H 0.77375 0.62404 0.50679 0.0
H106 H 0.93723 0.72957 0.45321 0.0
H107 H 0.81121 0.73198 0.45277 0.0
H108 H 0.89731 0.78145 0.39378 0.0
H109 H 0.87099 0.83262 0.39695 0.0
H110 H 0.75605 0.7105 0.4194 0.0
H111 H 0.70347 0.72979 0.39921 0.0
H112 H 0.00995 0.79408 0.44294 0.0
H113 H 0.93162 0.74448 0.37381 0.0
H114 H 0.81844 0.85067 0.37594 0.0
H115 H 0.08014 0.8166 0.42292 0.0
H116 H 1.00196 0.7681 0.3537 0.0
C117 C 0.16319 0.2841 0.51973 0.0
C118 C 0.15697 0.32094 0.51528 0.0
C119 C 0.15325 0.2646 0.54185 0.0
C120 C 0.13652 0.28117 0.56012 0.0
C121 C 0.12949 0.31749 0.55557 0.0
C122 C 0.13986 0.33733 0.53347 0.0
C123 C 0.12813 0.26153 0.58408 0.0
C124 C 0.16039 0.25247 0.59533 0.0
C125 C 0.15346 0.23404 0.61786 0.0
C126 C 0.11352 0.22453 0.62915 0.0
C127 C 0.08042 0.23281 0.61832 0.0
C128 C 0.08825 0.2517 0.59575 0.0
C129 C 0.03803 0.22165 0.63084 0.0
C130 C 0.01719 0.18333 0.64438 0.0
C131 C 0.01878 0.24979 0.63003 0.0
C132 C 0.98006 0.24002 0.64246 0.0
C133 C 0.95981 0.20215 0.65627 0.0
C134 C 0.18751 0.22415 0.62965 0.0
C135 C 0.20857 0.20483 0.61602 0.0
C136 C 0.19807 0.23257 0.65481 0.0
C137 C 0.22797 0.22094 0.66612 0.0
C138 C 0.24838 0.20092 0.65255 0.0
C139 C 0.23875 0.19346 0.62733 0.0
C140 C 0.97887 0.17394 0.65708 0.0
H141 H 0.17665 0.27082 0.50625 0.0
H142 H 0.1587 0.23643 0.54465 0.0
H143 H 0.11692 0.33125 0.56931 0.0
H144 H 0.13425 0.36536 0.53057 0.0
H145 H 0.19162 0.26087 0.58677 0.0
H146 H 0.0628 0.2576 0.58691 0.0
H147 H 0.10818 0.21044 0.64654 0.0
H148 H 0.03017 0.16012 0.64503 0.0
H149 H 0.03404 0.27989 0.62013 0.0
H150 H 0.96621 0.26248 0.64139 0.0
H151 H 0.20088 0.19743 0.59666 0.0
H152 H 0.18323 0.24822 0.66583 0.0
H153 H 0.96369 0.14407 0.66717 0.0
H154 H 0.25386 0.17808 0.61631 0.0
H155 H 0.23498 0.22763 0.68554 0.0
C156 C 0.64228 0.78346 0.53141 0.0
C157 C 0.66168 0.81606 0.5145 0.0
C158 C 0.66074 0.79365 0.55542 0.0
C159 C 0.69837 0.83679 0.5629 0.0
C160 C 0.71768 0.86924 0.54594 0.0
C161 C 0.6996 0.85896 0.522 0.0
C162 C 0.71756 0.84867 0.58834 0.0
C163 C 0.7286 0.82003 0.60052 0.0
C164 C 0.75004 0.83317 0.6241 0.0
C165 C 0.75957 0.87504 0.63546 0.0
C166 C 0.749 0.90407 0.6234 0.0
C167 C 0.72748 0.89037 0.59997 0.0
C168 C 0.76317 0.94992 0.63462 0.0
C169 C 0.75837 0.95662 0.65925 0.0
C170 C 0.78317 0.98765 0.62081 0.0
C171 C 0.79811 0.03117 0.63137 0.0
C172 C 0.79364 0.03795 0.65602 0.0
C173 C 0.76466 0.80446 0.63643 0.0
C174 C 0.73691 0.75688 0.63415 0.0
C175 C 0.80691 0.82449 0.65032 0.0
C176 C 0.82106 0.79756 0.66165 0.0
C177 C 0.79358 0.75004 0.65903 0.0
C178 C 0.75133 0.72995 0.64523 0.0
C179 C 0.77357 0.00028 0.66988 0.0
H180 H 0.61317 0.75006 0.52602 0.0
H181 H 0.64521 0.76814 0.56822 0.0
H182 H 0.747 0.90261 0.55118 0.0
H183 H 0.71495 0.88489 0.5094 0.0
H184 H 0.72244 0.78856 0.59119 0.0
H185 H 0.71861 0.91238 0.59066 0.0
H186 H 0.77634 0.88563 0.65355 0.0
H187 H 0.7427 0.9281 0.67028 0.0
H188 H 0.78814 0.9837 0.60189 0.0
H189 H 0.81363 0.05953 0.62021 0.0
H190 H 0.70392 0.74041 0.62389 0.0
H191 H 0.82962 0.861 0.65206 0.0
H192 H 0.76942 0.00444 0.6889 0.0
H193 H 0.72924 0.69335 0.643 0.0
H194 H 0.854 0.81396 0.67196 0.0
C195 C 0.11679 0.80252 0.51966 0.0
C196 C 0.16124 0.81175 0.51523 0.0
C197 C 0.10612 0.80907 0.54308 0.0
C198 C 0.13985 0.82547 0.56244 0.0
C199 C 0.18374 0.83309 0.55815 0.0
C200 C 0.19426 0.82612 0.53483 0.0
C201 C 0.13103 0.839 0.58656 0.0
C202 C 0.09158 0.81006 0.59815 0.0
C203 C 0.0837 0.82412 0.62089 0.0
C204 C 0.1154 0.86764 0.63162 0.0
C205 C 0.1542 0.8973 0.61997 0.0
C206 C 0.16195 0.8825 0.59759 0.0
C207 C 0.1856 0.94434 0.63075 0.0
C208 C 0.16788 0.96934 0.64215 0.0
C209 C 0.2333 0.96474 0.62961 0.0
C210 C 0.26263 0.00899 0.63988 0.0
C211 C 0.24482 0.03348 0.65169 0.0
C212 C 0.04135 0.795 0.63308 0.0
C213 C 0.99865 0.77194 0.61976 0.0
C214 C 0.04286 0.79265 0.65833 0.0
C215 C 1.00247 0.7685 0.67001 0.0
C216 C 0.95972 0.74615 0.65669 0.0
C217 C 0.95841 0.74788 0.6314 0.0
C218 C 0.19717 0.01329 0.65263 0.0
H219 H 0.09046 0.79092 0.50494 0.0
H220 H 0.07211 0.8032 0.54586 0.0
H221 H 0.21033 0.84557 0.57279 0.0
H222 H 0.22885 0.83378 0.53203 0.0
H223 H 0.06746 0.77654 0.58964 0.0
H224 H 0.19125 0.90559 0.58818 0.0
H225 H 0.10927 0.87892 0.64892 0.0
H226 H 0.13127 0.9551 0.64284 0.0
H227 H 0.24807 0.94627 0.62114 0.0
H228 H 0.29925 0.02361 0.63897 0.0
H229 H 0.99615 0.77356 0.60038 0.0
H230 H 0.07532 0.80968 0.66909 0.0
H231 H 0.18237 0.03149 0.66138 0.0
H232 H 0.92619 0.73094 0.62045 0.0
H233 H 0.00479 0.76746 0.68944 0.0
C234 C 0.98554 0.5248 0.85114 0.0
C235 C 0.0194 0.51444 0.85822 0.0
C236 C 0.96925 0.51816 0.82692 0.0
C237 C 0.98632 0.50079 0.80929 0.0
C238 C 0.02121 0.4918 0.81625 0.0
C239 C 0.03769 0.49869 0.84046 0.0
C240 C 0.96536 0.48883 0.78411 0.0
C241 C 0.95447 0.51798 0.77227 0.0
C242 C 0.93145 0.50487 0.74908 0.0
C243 C 0.92002 0.46253 0.73767 0.0
C244 C 0.92993 0.43269 0.74941 0.0
C245 C 0.95301 0.4463 0.77252 0.0
C246 C 0.91335 0.38616 0.73826 0.0
C247 C 0.86957 0.36124 0.72598 0.0
C248 C 0.94046 0.36583 0.74035 0.0
C249 C 0.92408 0.32151 0.73042 0.0
C250 C 0.88046 0.29685 0.718 0.0
C251 C 0.9155 0.53324 0.73756 0.0
C252 C 0.89499 0.55281 0.75133 0.0
C253 C 0.91776 0.53851 0.7126 0.0
C254 C 0.89962 0.56269 0.70165 0.0
C255 C 0.8789 0.58201 0.71548 0.0
C256 C 0.87695 0.57688 0.74045 0.0
C257 C 0.85343 0.31718 0.71582 0.0
H258 H 0.97122 0.53755 0.8644 0.0
H259 H 0.94208 0.52503 0.82214 0.0
H260 H 0.03522 0.47868 0.803 0.0
H261 H 0.06365 0.49021 0.84538 0.0
H262 H 0.96364 0.55075 0.78119 0.0
H263 H 0.95921 0.42277 0.78207 0.0
H264 H 0.90181 0.45205 0.71993 0.0
H265 H 0.84734 0.37546 0.72453 0.0
H266 H 0.9745 0.38429 0.74949 0.0
H267 H 0.94583 0.3068 0.73224 0.0
H268 H 0.89185 0.54859 0.77048 0.0
H269 H 0.93361 0.52396 0.70155 0.0
H270 H 0.81951 0.29886 0.70653 0.0
H271 H 0.86123 0.59128 0.75172 0.0
H272 H 0.90201 0.56639 0.68243 0.0
C273 C 0.53696 0.54035 0.84349 0.0
C274 C 0.52459 0.50884 0.86113 0.0
C275 C 0.54798 0.53077 0.82069 0.0
C276 C 0.54615 0.48925 0.81504 0.0
C277 C 0.53482 0.45832 0.83287 0.0
C278 C 0.5243 0.46803 0.85563 0.0
C279 C 0.55237 0.47618 0.79018 0.0
C280 C 0.59035 0.50537 0.77769 0.0
C281 C 0.59591 0.49174 0.75424 0.0
C282 C 0.56246 0.44889 0.7434 0.0
C283 C 0.52433 0.41959 0.75559 0.0
C284 C 0.51961 0.43352 0.77894 0.0
C285 C 0.48955 0.37432 0.74394 0.0
C286 C 0.47534 0.36912 0.7193 0.0
C287 C 0.47074 0.33586 0.7573 0.0
C288 C 0.43867 0.29313 0.74621 0.0
C289 C 0.42501 0.28792 0.72149 0.0
C290 C 0.63633 0.52171 0.74084 0.0
C291 C 0.65398 0.56888 0.74216 0.0
C292 C 0.65695 0.5032 0.72611 0.0
C293 C 0.69411 0.5311 0.71303 0.0
C294 C 0.71196 0.57825 0.71462 0.0
C295 C 0.69142 0.5968 0.7293 0.0
C296 C 0.44357 0.32637 0.70817 0.0
H297 H 0.53788 0.57227 0.84728 0.0
H298 H 0.55637 0.55509 0.80723 0.0
H299 H 0.53336 0.42614 0.82905 0.0
H300 H 0.51456 0.44286 0.86871 0.0
H301 H 0.61608 0.53798 0.78652 0.0
H302 H 0.48972 0.41145 0.78826 0.0
H303 H 0.56609 0.43817 0.72535 0.0
H304 H 0.48855 0.39818 0.7086 0.0
H305 H 0.48141 0.33862 0.77625 0.0
H306 H 0.42515 0.2641 0.75695 0.0
H307 H 0.63861 0.58429 0.75294 0.0
H308 H 0.64489 0.46711 0.72497 0.0
H309 H 0.43348 0.32355 0.68913 0.0
H310 H 0.70432 0.63307 0.73092 0.0
H311 H 0.70961 0.51586 0.70221 0.0
C312 C 0.55204 0.03879 0.85454 0.0
C313 C 0.50791 0.00256 0.85789 0.0
C314 C 0.56264 0.05714 0.83207 0.0
C315 C 0.52918 0.04019 0.81249 0.0
C316 C 0.48518 0.00379 0.81582 0.0
C317 C 0.47478 0.98504 0.83816 0.0
C318 C 0.53941 0.06116 0.7889 0.0
C319 C 0.57998 0.07111 0.7779 0.0
C320 C 0.58896 0.09016 0.75541 0.0
C321 C 0.55719 0.09993 0.74431 0.0
C322 C 0.51702 0.09121 0.75512 0.0
C323 C 0.50832 0.07148 0.77735 0.0
C324 C 0.48458 0.10314 0.74311 0.0
C325 C 0.50119 0.14271 0.73063 0.0
C326 C 0.43686 0.07485 0.7436 0.0
C327 C 0.40667 0.08574 0.73185 0.0
C328 C 0.42342 0.1249 0.71909 0.0
C329 C 0.63168 0.10099 0.74339 0.0
C330 C 0.67427 0.12091 0.75684 0.0
C331 C 0.63053 0.09382 0.71809 0.0
C332 C 0.67091 0.1073 0.70651 0.0
C333 C 0.71356 0.12801 0.71991 0.0
C334 C 0.71464 0.1342 0.74526 0.0
C335 C 0.47102 0.15325 0.71863 0.0
H336 H 0.57849 0.05284 0.8693 0.0
H337 H 0.59676 0.0853 0.83016 0.0
H338 H 0.4587 0.98972 0.80108 0.0
H339 H 0.44042 0.95738 0.84013 0.0
H340 H 0.60389 0.0629 0.78655 0.0
H341 H 0.47788 0.06532 0.7861 0.0
H342 H 0.56398 0.11478 0.72712 0.0
H343 H 0.53766 0.16596 0.73029 0.0
H344 H 0.42271 0.04384 0.75273 0.0
H345 H 0.37014 0.06313 0.73255 0.0
H346 H 0.67662 0.12742 0.77627 0.0
H347 H 0.59828 0.07781 0.70715 0.0
H348 H 0.48511 0.18401 0.70927 0.0
H349 H 0.7468 0.14993 0.75625 0.0
H350 H 0.66862 0.10143 0.68703 0.0
C351 C 0.82986 0.61744 0.85306 0.0
C352 C 0.82363 0.65428 0.84862 0.0
C353 C 0.81992 0.59794 0.87518 0.0
C354 C 0.80319 0.6145 0.89346 0.0
C355 C 0.79615 0.65082 0.88891 0.0
C356 C 0.80653 0.67066 0.8668 0.0
C357 C 0.7948 0.59486 0.91741 0.0
C358 C 0.82706 0.58581 0.92866 0.0
C359 C 0.82013 0.56738 0.9512 0.0
C360 C 0.78019 0.55786 0.96248 0.0
C361 C 0.74708 0.56615 0.95165 0.0
C362 C 0.75492 0.58504 0.92909 0.0
C363 C 0.7047 0.55499 0.96417 0.0
C364 C 0.68386 0.51666 0.97771 0.0
C365 C 0.68545 0.58312 0.96336 0.0
C366 C 0.64673 0.57336 0.9758 0.0
C367 C 0.62648 0.53548 0.9896 0.0
C368 C 0.85417 0.55748 0.96299 0.0
C369 C 0.87524 0.53817 0.94936 0.0
C370 C 0.86474 0.5659 0.98814 0.0
C371 C 0.89464 0.55428 0.99945 0.0
C372 C 0.91505 0.53425 0.98589 0.0
C373 C 0.90541 0.52679 0.96066 0.0
C374 C 0.64553 0.50727 0.99041 0.0
H375 H 0.84332 0.60415 0.83959 0.0
H376 H 0.82536 0.56976 0.87798 0.0
H377 H 0.78359 0.66458 0.90264 0.0
H378 H 0.80092 0.6987 0.8639 0.0
H379 H 0.85828 0.5942 0.9201 0.0
H380 H 0.72947 0.59093 0.92025 0.0
H381 H 0.77485 0.54377 0.97987 0.0
H382 H 0.69684 0.49346 0.97837 0.0
H383 H 0.70071 0.61322 0.95346 0.0
H384 H 0.63288 0.59581 0.97472 0.0
H385 H 0.86755 0.53076 0.92999 0.0
H386 H 0.8499 0.58155 0.99916 0.0
H387 H 0.63035 0.4774 1.00051 0.0
H388 H 0.92052 0.51141 0.94964 0.0
H389 H 0.90165 0.56096 0.01888 0.0
C390 C 0.30895 0.1168 0.86474 0.0
C391 C 0.32835 0.1494 0.84783 0.0
C392 C 0.32741 0.12698 0.88876 0.0
C393 C 0.36504 0.17013 0.89623 0.0
C394 C 0.38435 0.20257 0.87927 0.0
C395 C 0.36627 0.1923 0.85533 0.0
C396 C 0.38423 0.18201 0.92167 0.0
C397 C 0.39527 0.15336 0.93386 0.0
C398 C 0.41671 0.16651 0.95743 0.0
C399 C 0.42624 0.20837 0.9688 0.0
C400 C 0.41567 0.23741 0.95673 0.0
C401 C 0.39415 0.22371 0.9333 0.0
C402 C 0.42983 0.28326 0.96795 0.0
C403 C 0.42504 0.28995 0.99259 0.0
C404 C 0.44984 0.32099 0.95414 0.0
C405 C 0.46478 0.36451 0.9647 0.0
C406 C 0.46031 0.37129 0.98936 0.0
C407 C 0.43133 0.13779 0.96976 0.0
C408 C 0.40357 0.09022 0.96748 0.0
C409 C 0.47358 0.15782 0.98365 0.0
C410 C 0.48772 0.13089 0.99498 0.0
C411 C 0.46025 0.08337 0.99237 0.0
C412 C 0.41799 0.06328 0.97856 0.0
C413 C 0.44024 0.33361 1.00321 0.0
H414 H 0.27984 0.08339 0.85935 0.0
H415 H 0.31187 0.10147 0.90155 0.0
H416 H 0.41367 0.23594 0.88451 0.0
H417 H 0.38162 0.21822 0.84273 0.0
H418 H 0.38911 0.1219 0.92453 0.0
H419 H 0.38528 0.24571 0.92399 0.0
H420 H 0.44301 0.21897 0.98688 0.0
H421 H 0.40936 0.26143 1.00362 0.0
H422 H 0.45481 0.31704 0.93523 0.0
H423 H 0.4803 0.39286 0.95355 0.0
H424 H 0.37059 0.07374 0.95722 0.0
H425 H 0.49628 0.19433 0.98539 0.0
H426 H 0.43609 0.33777 0.02223 0.0
H427 H 0.39591 0.02668 0.97633 0.0
H428 H 0.52067 0.14729 1.00529 0.0
C429 C 0.78346 0.13585 0.85299 0.0
C430 C 0.8279 0.14508 0.84856 0.0
C431 C 0.77279 0.1424 0.87641 0.0
C432 C 0.80652 0.15881 0.89578 0.0
C433 C 0.85041 0.16642 0.89148 0.0
C434 C 0.86093 0.15945 0.86817 0.0
C435 C 0.7977 0.17233 0.91989 0.0
C436 C 0.75825 0.14339 0.93149 0.0
C437 C 0.75037 0.15745 0.95423 0.0
C438 C 0.78206 0.20097 0.96495 0.0
C439 C 0.82087 0.23063 0.9533 0.0
C440 C 0.82862 0.21583 0.93092 0.0
C441 C 0.85226 0.27767 0.96409 0.0
C442 C 0.83455 0.30267 0.97549 0.0
C443 C 0.89997 0.29808 0.96294 0.0
C444 C 0.92929 0.34232 0.97321 0.0
C445 C 0.91149 0.36682 0.98502 0.0
C446 C 0.70802 0.12833 0.96641 0.0
C447 C 0.66532 0.10527 0.95309 0.0
C448 C 0.70952 0.12598 0.99166 0.0
C449 C 0.66914 0.10183 1.00334 0.0
C450 C 0.62638 0.07948 0.99002 0.0
C451 C 0.62508 0.08121 0.96473 0.0
C452 C 0.86384 0.34662 0.98596 0.0
H453 H 0.75713 0.12425 0.83827 0.0
H454 H 0.73878 0.13653 0.87919 0.0
H455 H 0.877 0.1789 0.90612 0.0
H456 H 0.89551 0.16711 0.86536 0.0
H457 H 0.73413 0.10987 0.92297 0.0
H458 H 0.85791 0.23892 0.92152 0.0
H459 H 0.77594 0.21226 0.98226 0.0
H460 H 0.79794 0.28843 0.97618 0.0
H461 H 0.91474 0.2796 0.95447 0.0
H462 H 0.96592 0.35694 0.97231 0.0
H463 H 0.66282 0.10689 0.93371 0.0
H464 H 0.74199 0.14301 1.00243 0.0
H465 H 0.84904 0.36482 0.99472 0.0
H466 H 0.59285 0.06427 0.95379 0.0
H467 H 0.67145 0.10079 0.02277 0.0
C468 C 0.65221 0.85814 0.18447 0.0
C469 C 0.68606 0.84777 0.19155 0.0
C470 C 0.63591 0.85149 0.16025 0.0
C471 C 0.65298 0.83412 0.14263 0.0
C472 C 0.68788 0.82513 0.14959 0.0
C473 C 0.70436 0.83202 0.17379 0.0
C474 C 0.63203 0.82216 0.11744 0.0
C475 C 0.62114 0.85132 0.10561 0.0
C476 C 0.59812 0.83821 0.08241 0.0
C477 C 0.58668 0.79586 0.07101 0.0
C478 C 0.5966 0.76602 0.08274 0.0
C479 C 0.61967 0.77963 0.10585 0.0
C480 C 0.58001 0.71949 0.0716 0.0
C481 C 0.53624 0.69458 0.05931 0.0
C482 C 0.60713 0.69916 0.07368 0.0
C483 C 0.59075 0.65484 0.06375 0.0
C484 C 0.54713 0.63019 0.05134 0.0
C485 C 0.58216 0.86658 0.0709 0.0
C486 C 0.56166 0.88614 0.08467 0.0
C487 C 0.58443 0.87184 0.04593 0.0
C488 C 0.56628 0.89602 0.03498 0.0
C489 C 0.54557 0.91535 0.04881 0.0
C490 C 0.54361 0.91021 0.07378 0.0
C491 C 0.5201 0.65051 0.04916 0.0
H492 H 0.63789 0.87088 0.19773 0.0
H493 H 0.60874 0.85836 0.15547 0.0
H494 H 0.70189 0.81202 0.13634 0.0
H495 H 0.73031 0.82354 0.17871 0.0
H496 H 0.63031 0.88408 0.11453 0.0
H497 H 0.62588 0.7561 0.11541 0.0
H498 H 0.56848 0.78538 0.05326 0.0
H499 H 0.51401 0.70879 0.05786 0.0
H500 H 0.64117 0.71762 0.08283 0.0
H501 H 0.6125 0.64013 0.06558 0.0
H502 H 0.55851 0.88193 0.10381 0.0
H503 H 0.60028 0.85729 0.03488 0.0
H504 H 0.48617 0.6322 0.03987 0.0
H505 H 0.52789 0.92461 0.08505 0.0
H506 H 0.56868 0.89973 1.01577 0.0
C507 C 0.20363 0.87369 0.17682 0.0
C508 C 0.19125 0.84218 0.19446 0.0
C509 C 0.21465 0.8641 0.15403 0.0
C510 C 0.21282 0.82258 0.14838 0.0
C511 C 0.20149 0.79165 0.1662 0.0
C512 C 0.19097 0.80136 0.18897 0.0
C513 C 0.21904 0.80951 0.12351 0.0
C514 C 0.25702 0.8387 0.11102 0.0
C515 C 0.26258 0.82507 0.08757 0.0
C516 C 0.22913 0.78222 0.07674 0.0
C517 C 0.19099 0.75292 0.08893 0.0
C518 C 0.18628 0.76685 0.11227 0.0
C519 C 0.15621 0.70765 0.07728 0.0
C520 C 0.142 0.70246 0.05263 0.0
C521 C 0.1374 0.66919 0.09064 0.0
C522 C 0.10533 0.62646 0.07954 0.0
C523 C 0.09168 0.62125 0.05483 0.0
C524 C 0.30299 0.85504 0.07417 0.0
C525 C 0.32065 0.90221 0.07549 0.0
C526 C 0.32362 0.83653 0.05945 0.0
C527 C 0.36078 0.86443 0.04636 0.0
C528 C 0.37863 0.91158 0.04795 0.0
C529 C 0.35808 0.93013 0.06263 0.0
C530 C 0.11023 0.6597 0.0415 0.0
H531 H 0.20455 0.9056 0.18061 0.0
H532 H 0.22303 0.88842 0.14056 0.0
H533 H 0.20003 0.75947 0.16239 0.0
H534 H 0.18123 0.77619 0.20204 0.0
H535 H 0.28275 0.87131 0.11985 0.0
H536 H 0.15638 0.74478 0.12159 0.0
H537 H 0.23276 0.7715 0.05868 0.0
H538 H 0.15522 0.73151 0.04193 0.0
H539 H 0.14808 0.67195 0.10958 0.0
H540 H 0.09182 0.59743 0.09028 0.0
H541 H 0.30527 0.91762 0.08627 0.0
H542 H 0.31156 0.80044 0.0583 0.0
H543 H 0.10015 0.65688 0.02246 0.0
H544 H 0.37099 0.9664 0.06426 0.0
H545 H 0.37628 0.84919 0.03554 0.0
C546 C 0.21871 0.37212 0.18787 0.0
C547 C 0.17458 0.33589 0.19123 0.0
C548 C 0.22931 0.39047 0.1654 0.0
C549 C 0.19585 0.37352 0.14583 0.0
C550 C 0.15185 0.33713 0.14915 0.0
C551 C 0.14145 0.31837 0.17149 0.0
C552 C 0.20608 0.39449 0.12223 0.0
C553 C 0.24664 0.40444 0.11123 0.0
C554 C 0.25563 0.4235 0.08874 0.0
C555 C 0.22385 0.43326 0.07764 0.0
C556 C 0.18368 0.42454 0.08845 0.0
C557 C 0.17498 0.40482 0.11068 0.0
C558 C 0.15125 0.43647 0.07644 0.0
C559 C 0.16786 0.47604 0.06397 0.0
C560 C 0.10353 0.40819 0.07694 0.0
C561 C 0.07333 0.41908 0.06519 0.0
C562 C 0.09009 0.45823 0.05242 0.0
C563 C 0.29835 0.43432 0.07672 0.0
C564 C 0.34093 0.45424 0.09017 0.0
C565 C 0.29719 0.42715 0.05142 0.0
C566 C 0.33758 0.44063 0.03984 0.0
C567 C 0.38023 0.46134 0.05325 0.0
C568 C 0.38131 0.46753 0.07859 0.0
C569 C 0.13769 0.48658 0.05197 0.0
H570 H 0.24516 0.38617 0.20263 0.0
H571 H 0.26343 0.41863 0.16349 0.0
H572 H 0.12537 0.32305 0.13441 0.0
H573 H 0.10709 0.29071 0.17346 0.0
H574 H 0.27056 0.39623 0.11988 0.0
H575 H 0.14455 0.39865 0.11944 0.0
H576 H 0.23065 0.44811 0.06045 0.0
H577 H 0.20433 0.49929 0.06362 0.0
H578 H 0.08938 0.37717 0.08606 0.0
H579 H 0.03681 0.39646 0.06588 0.0
H580 H 0.34329 0.46075 0.10961 0.0
H581 H 0.26495 0.41114 0.04048 0.0
H582 H 0.15177 0.51734 0.0426 0.0
H583 H 0.41347 0.48326 0.08959 0.0
H584 H 0.33529 0.43476 0.02036 0.0
C585 C 0.49653 0.95077 0.1864 0.0
C586 C 0.4903 0.98761 0.18195 0.0
C587 C 0.48659 0.93127 0.20852 0.0
C588 C 0.46986 0.94784 0.22679 0.0
C589 C 0.46283 0.98416 0.22224 0.0
C590 C 0.4732 0.004 0.20014 0.0
C591 C 0.46147 0.9282 0.25075 0.0
C592 C 0.49373 0.91914 0.262 0.0
C593 C 0.48679 0.90071 0.28453 0.0
C594 C 0.44685 0.8912 0.29582 0.0
C595 C 0.41375 0.89948 0.28498 0.0
C596 C 0.42159 0.91837 0.26242 0.0
C597 C 0.37137 0.88832 0.29751 0.0
C598 C 0.35052 0.85 0.31105 0.0
C599 C 0.35212 0.91646 0.2967 0.0
C600 C 0.3134 0.90669 0.30913 0.0
C601 C 0.29315 0.86882 0.32294 0.0
C602 C 0.52084 0.89081 0.29632 0.0
C603 C 0.5419 0.8715 0.28269 0.0
C604 C 0.53141 0.89924 0.32148 0.0
C605 C 0.5613 0.88761 0.33279 0.0
C606 C 0.58172 0.86758 0.31922 0.0
C607 C 0.57208 0.86013 0.294 0.0
C608 C 0.3122 0.84061 0.32375 0.0
H609 H 0.50998 0.93748 0.17292 0.0
H610 H 0.49203 0.90309 0.21131 0.0
H611 H 0.45027 -0.00208 0.23598 0.0
H612 H 0.4676 0.03204 0.19724 0.0
H613 H 0.52495 0.92753 0.25344 0.0
H614 H 0.39614 0.92427 0.25358 0.0
H615 H 0.44152 0.87711 0.31321 0.0
H616 H 0.36351 0.82679 0.3117 0.0
H617 H 0.36738 0.94655 0.2868 0.0
H618 H 0.29955 0.92915 0.30806 0.0
H619 H 0.53422 0.86409 0.26333 0.0
H620 H 0.51656 0.91489 0.3325 0.0
H621 H 0.29702 0.81074 0.33384 0.0
H622 H 0.58719 0.84474 0.28297 0.0
H623 H 0.56832 0.89429 0.35221 0.0
C624 C 0.97561 0.45013 0.19808 0.0
C625 C 0.99501 0.48273 0.18116 0.0
C626 C 0.99407 0.46031 0.22209 0.0
C627 C 0.0317 0.50346 0.22957 0.0
C628 C 0.05101 0.5359 0.21261 0.0
C629 C 0.03293 0.52563 0.18867 0.0
C630 C 0.05089 0.51534 0.255 0.0
C631 C 0.06193 0.48669 0.26719 0.0
C632 C 0.08337 0.49984 0.29077 0.0
C633 C 0.0929 0.54171 0.30213 0.0
C634 C 0.08233 0.57074 0.29006 0.0
C635 C 0.06081 0.55704 0.26664 0.0
C636 C 0.0965 0.61659 0.30129 0.0
C637 C 0.09171 0.62329 0.32592 0.0
C638 C 0.1165 0.65432 0.28748 0.0
C639 C 0.13145 0.69784 0.29804 0.0
C640 C 0.12697 0.70462 0.32269 0.0
C641 C 0.09799 0.47112 0.3031 0.0
C642 C 0.07024 0.42355 0.30082 0.0
C643 C 0.14024 0.49115 0.31699 0.0
C644 C 0.15439 0.46422 0.32832 0.0
C645 C 0.12691 0.4167 0.3257 0.0
C646 C 0.08466 0.39662 0.31189 0.0
C647 C 0.1069 0.66695 0.33655 0.0
H648 H 0.9465 0.41672 0.19268 0.0
H649 H 0.97854 0.4348 0.23488 0.0
H650 H 0.08034 0.56927 0.21785 0.0
H651 H 0.04828 0.55155 0.17607 0.0
H652 H 0.05577 0.45523 0.25786 0.0
H653 H 0.05194 0.57904 0.25733 0.0
H654 H 0.10968 0.5523 0.32021 0.0
H655 H 0.07603 0.59476 0.33695 0.0
H656 H 0.12148 0.65037 0.26856 0.0
H657 H 0.14696 0.72619 0.28688 0.0
H658 H 0.03725 0.40707 0.29056 0.0
H659 H 0.16295 0.52766 0.31873 0.0
H660 H 0.10275 0.6711 0.35557 0.0
H661 H 0.06257 0.36001 0.30966 0.0
H662 H 0.18733 0.48062 0.33863 0.0
C663 C 0.45012 0.46919 0.18632 0.0
C664 C 0.49457 0.47841 0.18189 0.0
C665 C 0.43945 0.47573 0.20974 0.0
C666 C 0.47318 0.49214 0.22911 0.0
C667 C 0.51707 0.49976 0.22481 0.0
C668 C 0.5276 0.49279 0.2015 0.0
C669 C 0.46436 0.50567 0.25322 0.0
C670 C 0.42491 0.47672 0.26482 0.0
C671 C 0.41703 0.49078 0.28756 0.0
C672 C 0.44873 0.53431 0.29828 0.0
C673 C 0.48754 0.56396 0.28663 0.0
C674 C 0.49529 0.54917 0.26425 0.0
C675 C 0.51893 0.61101 0.29742 0.0
C676 C 0.50122 0.636 0.30882 0.0
C677 C 0.56664 0.63141 0.29628 0.0
C678 C 0.59596 0.67566 0.30654 0.0
C679 C 0.57815 0.70015 0.31836 0.0
C680 C 0.37468 0.46167 0.29974 0.0
C681 C 0.33199 0.43861 0.28643 0.0
C682 C 0.37619 0.45932 0.32499 0.0
C683 C 0.3358 0.43517 0.33668 0.0
C684 C 0.29305 0.41282 0.32335 0.0
C685 C 0.29174 0.41454 0.29806 0.0
C686 C 0.5305 0.67996 0.31929 0.0
H687 H 0.4238 0.45759 0.1716 0.0
H688 H 0.40544 0.46986 0.21252 0.0
H689 H 0.54367 0.51223 0.23946 0.0
H690 H 0.56218 0.50044 0.19869 0.0
H691 H 0.40079 0.4432 0.2563 0.0
H692 H 0.52458 0.57225 0.25485 0.0
H693 H 0.4426 0.54559 0.31559 0.0
H694 H 0.46461 0.62177 0.30951 0.0
H695 H 0.5814 0.61293 0.28781 0.0
H696 H 0.63258 0.69028 0.30564 0.0
H697 H 0.32948 0.44023 0.26705 0.0
H698 H 0.40865 0.47634 0.33576 0.0
H699 H 0.51571 0.69816 0.32805 0.0
H700 H 0.25952 0.39761 0.28712 0.0
H701 H 0.33812 0.43412 0.3561 0.0
Tb702 Tb 0.48557 0.96761 0.99398 0.0
Eu703 Eu 0.52047 0.03039 0.04664 0.0
C704 C 0.52742 0.94227 0.03788 0.0
C705 C 0.42054 0.94201 0.03605 0.0
C706 C 0.47459 0.94754 0.92758 0.0
C707 C 0.47129 0.93617 0.88374 0.0
C708 C 0.46083 0.9184 0.90636 0.0
C709 C 0.4987 0.99476 0.92582 0.0
C710 C 0.50974 0.01256 0.90328 0.0
C711 C 0.49627 0.9835 0.88193 0.0
C712 C 0.46566 0.92891 0.95153 0.0
O713 O 0.45612 0.01159 0.99503 0.0
O714 O 0.5095 0.07239 0.0204 0.0
O715 O 0.58322 0.0519 0.02554 0.0
O716 O 0.54472 0.03237 0.98816 0.0
C717 C 0.4761 0.05465 1.00318 0.0
O718 O 0.50916 0.06718 0.07646 0.0
O719 O 0.56762 0.05753 0.07908 0.0
O720 O 0.51285 0.96291 0.0523 0.0
O721 O 0.52738 0.9465 1.01449 0.0
O722 O 0.43527 0.92573 0.01876 0.0
O723 O 0.44392 0.98487 0.04448 0.0
C724 C 0.58311 0.05337 1.00191 0.0
O725 O 0.50199 0.93766 0.96502 0.0
O726 O 0.43729 0.93542 0.96397 0.0
C727 C 0.5276 0.04868 0.11403 0.0
C728 C 0.50207 0.00885 0.15848 0.0
C729 C 0.52595 0.05648 0.15774 0.0
C730 C 0.53873 0.0762 0.1357 0.0
C731 C 0.50297 0.0012 0.11464 0.0
C732 C 0.49051 0.98152 0.1366 0.0
C733 C 0.54167 0.06893 0.09076 0.0
H734 H 0.46061 0.91284 0.86768 0.0
H735 H 0.44235 0.88187 0.90729 0.0
H736 H 0.50924 0.0179 0.94193 0.0
H737 H 0.52839 0.04912 0.90255 0.0
H738 H 0.5357 0.07854 0.17425 0.0
H739 H 0.55761 0.11289 0.13563 0.0
H740 H 0.49354 0.97928 0.0981 0.0
H741 H 0.47159 0.94479 0.13641 0.0
Tb742 Tb 0.03129 0.50856 0.99649 0.0
Eu743 Eu 0.96936 0.48009 0.04345 0.0
C744 C 0.0588 0.57594 0.04288 0.0
C745 C 0.05817 0.46997 0.0401 0.0
C746 C 0.06145 0.52488 0.9334 0.0
C747 C 0.08075 0.53722 0.89182 0.0
C748 C 0.0943 0.54067 0.91633 0.0
C749 C 0.01491 0.50537 0.92581 0.0
C750 C 1.00136 0.50216 0.9014 0.0
C751 C 0.03414 0.51823 0.88414 0.0
C752 C 0.07571 0.53047 0.9592 0.0
O753 O 0.98555 0.43501 0.99212 0.0
O754 O 0.92604 0.42952 1.01279 0.0
O755 O 0.9487 0.52182 0.02173 0.0
O756 O 0.96793 0.50626 0.98484 0.0
C757 C 0.94228 0.41268 0.99692 0.0
O758 O 0.92792 0.42892 0.06765 0.0
O759 O 0.93934 0.49725 0.07323 0.0
O760 O 0.03665 0.54173 0.05604 0.0
O761 O 0.05244 0.57075 0.01922 0.0
O762 O 0.0735 0.50109 0.02446 0.0
O763 O 0.01544 0.4502 0.04579 0.0
C764 C 0.94569 0.52072 0.99803 0.0
O765 O 0.06673 0.55745 0.97222 0.0
O766 O 0.06452 0.49322 0.96952 0.0
C767 C 0.94157 0.46122 0.10743 0.0
C768 C 0.976 0.47271 0.15571 0.0
C769 C 0.92862 0.4531 0.14996 0.0
C770 C 0.9115 0.44755 0.1259 0.0
C771 C 0.98862 0.47937 0.11306 0.0
C772 C 0.00571 0.48514 0.13699 0.0
C773 C 0.92481 0.4582 0.08232 0.0
H774 H 0.10675 0.5501 0.87895 0.0
H775 H 0.1304 0.55603 0.92196 0.0
H776 H 0.98908 0.49291 0.93879 0.0
H777 H 0.96516 0.48668 0.89599 0.0
H778 H 0.90506 0.44352 0.16409 0.0
H779 H 0.87507 0.43343 0.12177 0.0
H780 H 0.01225 0.4898 0.09893 0.0
H781 H 0.04228 0.49977 0.14089 0.0
Tb782 Tb 0.52197 0.48831 0.0451 0.0
Eu783 Eu 0.48429 0.51237 0.99552 0.0
C784 C 0.47639 0.41749 1.00037 0.0
C785 C 0.58447 0.5245 1.00204 0.0
C786 C 0.53402 0.47297 0.10956 0.0
C787 C 0.53447 0.45606 0.15147 0.0
C788 C 0.54752 0.45465 0.12798 0.0
C789 C 0.50718 0.49258 0.11484 0.0
C790 C 0.49378 0.49365 0.13822 0.0
C791 C 0.5073 0.47544 0.15683 0.0
C792 C 0.54593 0.46967 0.08465 0.0
O793 O 0.55106 0.56177 0.04681 0.0
O794 O 0.49517 0.56577 0.02424 0.0
O795 O 0.42268 0.47404 1.0173 0.0
O796 O 0.46173 0.49119 0.05464 0.0
C797 C 0.53002 0.58366 0.04052 0.0
O798 O 0.49232 0.56106 0.96941 0.0
O799 O 0.43773 0.49093 0.96298 0.0
O800 O 0.48978 0.4509 0.98645 0.0
O801 O 0.47661 0.42448 0.0238 0.0
O802 O 0.57038 0.49471 0.01847 0.0
O803 O 0.5608 0.5435 0.99537 0.0
C804 C 0.42335 0.47589 0.04109 0.0
O805 O 0.51202 0.44018 0.0698 0.0
O806 O 0.57011 0.50795 0.075 0.0
C807 C 0.47904 0.5266 0.93002 0.0
C808 C 0.51069 0.51741 0.88501 0.0
C809 C 0.48008 0.53389 0.88674 0.0
C810 C 0.46427 0.53833 0.9091 0.0
C811 C 0.51049 0.51132 0.92845 0.0
C812 C 0.52609 0.50671 0.9062 0.0
C813 C 0.46194 0.52964 0.95359 0.0
H814 H 0.5452 0.44154 0.16539 0.0
H815 H 0.56793 0.43905 0.12418 0.0
H816 H 0.49658 0.50705 0.10086 0.0
H817 H 0.4735 0.50947 0.14182 0.0
H818 H 0.46731 0.54204 0.87071 0.0
H819 H 0.44012 0.55031 0.91001 0.0
H820 H 0.52263 0.50248 0.94447 0.0
H821 H 0.5501 0.49451 0.90555 0.0
Tb822 Tb 0.15223 0.30094 0.32731 0.0
Eu823 Eu 0.18713 0.36372 0.37997 0.0
C824 C 0.19408 0.2756 0.37121 0.0
C825 C 0.08721 0.27534 0.36939 0.0
C826 C 0.14125 0.28087 0.26092 0.0
C827 C 0.13796 0.2695 0.21707 0.0
C828 C 0.1275 0.25173 0.2397 0.0
C829 C 0.16537 0.32809 0.25916 0.0
C830 C 0.1764 0.34589 0.23662 0.0
C831 C 0.16293 0.31684 0.21526 0.0
C832 C 0.13233 0.26224 0.28486 0.0
O833 O 0.12279 0.34492 0.32836 0.0
O834 O 0.17616 0.40573 0.35373 0.0
O835 O 0.24989 0.38523 0.35887 0.0
O836 O 0.21139 0.3657 0.3215 0.0
C837 C 0.14277 0.38798 0.33651 0.0
O838 O 0.17582 0.40051 0.4098 0.0
O839 O 0.23428 0.39086 0.41242 0.0
O840 O 0.17951 0.29625 0.38563 0.0
O841 O 0.19404 0.27984 0.34782 0.0
O842 O 0.10194 0.25907 0.3521 0.0
O843 O 0.11059 0.3182 0.37781 0.0
C844 C 0.24977 0.3867 0.33524 0.0
O845 O 0.16866 0.271 0.29835 0.0
O846 O 0.10395 0.26875 0.2973 0.0
C847 C 0.19427 0.38201 0.44736 0.0
C848 C 0.16874 0.34219 0.49181 0.0
C849 C 0.19261 0.38982 0.49107 0.0
C850 C 0.20539 0.40953 0.46904 0.0
C851 C 0.16964 0.33454 0.44797 0.0
C852 C 0.15718 0.31485 0.46993 0.0
C853 C 0.20834 0.40226 0.42409 0.0
H854 H 0.12728 0.24617 0.20102 0.0
H855 H 0.10902 0.21521 0.24063 0.0
H856 H 0.1759 0.35124 0.27526 0.0
H857 H 0.19506 0.38245 0.23588 0.0
H858 H 0.20236 0.41187 0.50758 0.0
H859 H 0.22427 0.44622 0.46896 0.0
H860 H 0.16021 0.31261 0.43143 0.0
H861 H 0.13826 0.27812 0.46975 0.0
Tb862 Tb 0.69796 0.84189 0.32983 0.0
Eu863 Eu 0.63603 0.81342 0.37678 0.0
C864 C 0.72546 0.90928 0.37622 0.0
C865 C 0.72484 0.80331 0.37344 0.0
C866 C 0.72812 0.85821 0.26674 0.0
C867 C 0.74741 0.87056 0.22516 0.0
C868 C 0.76096 0.874 0.24966 0.0
C869 C 0.68157 0.83871 0.25914 0.0
C870 C 0.66803 0.8355 0.23473 0.0
C871 C 0.7008 0.85156 0.21748 0.0
C872 C 0.74238 0.86381 0.29254 0.0
O873 O 0.65222 0.76834 0.32545 0.0
O874 O 0.59271 0.76286 0.34612 0.0
O875 O 0.61537 0.85516 0.35506 0.0
O876 O 0.6346 0.8396 0.31818 0.0
C877 C 0.60894 0.74601 0.33025 0.0
O878 O 0.59459 0.76225 0.40098 0.0
O879 O 0.606 0.83058 0.40657 0.0
O880 O 0.70332 0.87506 0.38937 0.0
O881 O 0.71911 0.90408 0.35256 0.0
O882 O 0.74016 0.83443 0.3578 0.0
O883 O 0.68211 0.78353 0.37912 0.0
C884 C 0.61236 0.85405 0.33136 0.0
O885 O 0.7334 0.89079 0.30555 0.0
O886 O 0.73119 0.82655 0.30286 0.0
C887 C 0.60823 0.79455 0.44077 0.0
C888 C 0.64267 0.80605 0.48904 0.0
C889 C 0.59528 0.78644 0.48329 0.0
C890 C 0.57817 0.78089 0.45923 0.0
C891 C 0.65529 0.8127 0.44639 0.0
C892 C 0.67238 0.81847 0.47032 0.0
C893 C 0.59148 0.79153 0.41566 0.0
H894 H 0.77342 0.88343 0.21228 0.0
H895 H 0.79706 0.88937 0.25529 0.0
H896 H 0.65575 0.82624 0.27212 0.0
H897 H 0.63183 0.82002 0.22933 0.0
H898 H 0.57173 0.77685 0.49742 0.0
H899 H 0.54174 0.76676 0.45511 0.0
H900 H 0.67892 0.82314 0.43226 0.0
H901 H 0.70895 0.8331 0.47423 0.0
Tb902 Tb 0.18863 0.82165 0.37844 0.0
Eu903 Eu 0.15096 0.8457 0.32885 0.0
C904 C 0.14306 0.75082 0.33371 0.0
C905 C 0.25114 0.85783 0.33537 0.0
C906 C 0.20069 0.80631 0.44289 0.0
C907 C 0.20113 0.78939 0.48481 0.0
C908 C 0.21419 0.78799 0.46132 0.0
C909 C 0.17385 0.82592 0.44817 0.0
C910 C 0.16044 0.82698 0.47155 0.0
C911 C 0.17397 0.80878 0.49016 0.0
C912 C 0.2126 0.80301 0.41798 0.0
O913 O 0.21772 0.8951 0.38014 0.0
O914 O 0.16184 0.8991 0.35757 0.0
O915 O 0.08935 0.80737 0.35064 0.0
O916 O 0.1284 0.82453 0.38798 0.0
C917 C 0.19668 0.917 0.37385 0.0
O918 O 0.15899 0.89439 0.30274 0.0
O919 O 0.1044 0.82426 0.29631 0.0
O920 O 0.15645 0.78424 0.31978 0.0
O921 O 0.14327 0.75781 0.35713 0.0
O922 O 0.23704 0.82805 0.3518 0.0
O923 O 0.22747 0.87683 0.3287 0.0
C924 C 0.09002 0.80922 0.37442 0.0
O925 O 0.17869 0.77352 0.40313 0.0
O926 O 0.23677 0.84128 0.40833 0.0
C927 C 0.14571 0.85993 0.26336 0.0
C928 C 0.17736 0.85074 0.21834 0.0
C929 C 0.14674 0.86722 0.22007 0.0
C930 C 0.13093 0.87166 0.24244 0.0
C931 C 0.17715 0.84465 0.26179 0.0
C932 C 0.19276 0.84004 0.23953 0.0
C933 C 0.12861 0.86298 0.28692 0.0
H934 H 0.21187 0.77488 0.49872 0.0
H935 H 0.23459 0.77238 0.45751 0.0
H936 H 0.16325 0.84039 0.43419 0.0
H937 H 0.14017 0.8428 0.47516 0.0
H938 H 0.13397 0.87538 0.20404 0.0
H939 H 0.10679 0.88364 0.24334 0.0
H940 H 0.1893 0.83581 0.2778 0.0
H941 H 0.21676 0.82784 0.23888 0.0
Tb942 Tb 0.8189 0.63428 0.66064 0.0
Eu943 Eu 0.8538 0.69706 0.71331 0.0
C944 C 0.86075 0.60894 0.70455 0.0
C945 C 0.75388 0.60868 0.70272 0.0
C946 C 0.80792 0.61421 0.59425 0.0
C947 C 0.80463 0.60284 0.55041 0.0
C948 C 0.79416 0.58506 0.57303 0.0
C949 C 0.83204 0.66143 0.59249 0.0
C950 C 0.84307 0.67922 0.56995 0.0
C951 C 0.8296 0.65017 0.54859 0.0
C952 C 0.799 0.59557 0.6182 0.0
O953 O 0.78946 0.67826 0.6617 0.0
O954 O 0.84283 0.73906 0.68707 0.0
O955 O 0.91656 0.71857 0.69221 0.0
O956 O 0.87805 0.69903 0.65483 0.0
C957 C 0.80944 0.72132 0.66984 0.0
O958 O 0.84249 0.73385 0.74313 0.0
O959 O 0.90095 0.7242 0.74575 0.0
O960 O 0.84618 0.62958 0.71896 0.0
O961 O 0.86071 0.61317 0.68115 0.0
O962 O 0.76861 0.5924 0.68543 0.0
O963 O 0.77725 0.65153 0.71115 0.0
C964 C 0.91644 0.72003 0.66858 0.0
O965 O 0.83533 0.60433 0.63168 0.0
O966 O 0.77062 0.60209 0.63064 0.0
C967 C 0.86094 0.71535 0.7807 0.0
C968 C 0.8354 0.67552 0.82515 0.0
C969 C 0.85928 0.72315 0.8244 0.0
C970 C 0.87206 0.74286 0.80237 0.0
C971 C 0.8363 0.66787 0.78131 0.0
C972 C 0.82385 0.64818 0.80326 0.0
C973 C 0.875 0.7356 0.75743 0.0
H974 H 0.79395 0.57951 0.53435 0.0
H975 H 0.77569 0.54854 0.57396 0.0
H976 H 0.84257 0.68457 0.6086 0.0
H977 H 0.86172 0.71579 0.56922 0.0
H978 H 0.86903 0.7452 0.84091 0.0
H979 H 0.89094 0.77956 0.80229 0.0
H980 H 0.82688 0.64595 0.76477 0.0
H981 H 0.80493 0.61146 0.80308 0.0
Tb982 Tb 0.36462 0.17523 0.66316 0.0
Eu983 Eu 0.3027 0.14676 0.71011 0.0
C984 C 0.39213 0.24261 0.70955 0.0
C985 C 0.3915 0.13664 0.70677 0.0
C986 C 0.39478 0.19155 0.60007 0.0
C987 C 0.41408 0.20389 0.55849 0.0
C988 C 0.42763 0.20733 0.58299 0.0
C989 C 0.34824 0.17204 0.59247 0.0
C990 C 0.33469 0.16883 0.56806 0.0
C991 C 0.36747 0.1849 0.55081 0.0
C992 C 0.40905 0.19714 0.62587 0.0
O993 O 0.31889 0.10168 0.65878 0.0
O994 O 0.25937 0.09619 0.67946 0.0
O995 O 0.28204 0.18849 0.6884 0.0
O996 O 0.30126 0.17293 0.65151 0.0
C997 C 0.27561 0.07935 0.66359 0.0
O998 O 0.26126 0.09559 0.73432 0.0
O999 O 0.27267 0.16392 0.7399 0.0
O1000 O 0.36998 0.2084 0.72271 0.0
O1001 O 0.38578 0.23741 0.68589 0.0
O1002 O 0.40683 0.16776 0.69113 0.0
O1003 O 0.34878 0.11687 0.71245 0.0
C1004 C 0.27902 0.18739 0.66469 0.0
O1005 O 0.40006 0.22412 0.63888 0.0
O1006 O 0.39786 0.15989 0.63619 0.0
C1007 C 0.2749 0.12788 0.7741 0.0
C1008 C 0.30934 0.13938 0.82238 0.0
C1009 C 0.26195 0.11977 0.81662 0.0
C1010 C 0.24484 0.11422 0.79257 0.0
C1011 C 0.32196 0.14603 0.77972 0.0
C1012 C 0.33905 0.1518 0.80365 0.0
C1013 C 0.25815 0.12487 0.74899 0.0
H1014 H 0.44008 0.21677 0.54562 0.0
H1015 H 0.46373 0.2227 0.58863 0.0
H1016 H 0.32241 0.15958 0.60545 0.0
H1017 H 0.2985 0.15335 0.56266 0.0
H1018 H 0.2384 0.11019 0.83076 0.0
H1019 H 0.2084 0.1001 0.78844 0.0
H1020 H 0.34559 0.15647 0.76559 0.0
H1021 H 0.37562 0.16644 0.80756 0.0
Tb1022 Tb 0.8553 0.15498 0.71177 0.0
Eu1023 Eu 0.81762 0.17903 0.66219 0.0
C1024 C 0.80972 0.08416 0.66704 0.0
C1025 C 0.91781 0.19116 0.6687 0.0
C1026 C 0.86736 0.13964 0.77622 0.0
C1027 C 0.8678 0.12273 0.81814 0.0
C1028 C 0.88086 0.12132 0.79465 0.0
C1029 C 0.84052 0.15925 0.78151 0.0
C1030 C 0.82711 0.16031 0.80489 0.0
C1031 C 0.84063 0.14211 0.8235 0.0
C1032 C 0.87927 0.13634 0.75132 0.0
O1033 O 0.88439 0.22843 0.71348 0.0
O1034 O 0.82851 0.23244 0.69091 0.0
O1035 O 0.75602 0.1407 0.68397 0.0
O1036 O 0.79506 0.15786 0.72131 0.0
C1037 C 0.86335 0.25033 0.70719 0.0
O1038 O 0.82566 0.22772 0.63608 0.0
O1039 O 0.77106 0.1576 0.62964 0.0
O1040 O 0.82311 0.11757 0.65311 0.0
O1041 O 0.80994 0.09115 0.69046 0.0
O1042 O 0.90371 0.16138 0.68513 0.0
O1043 O 0.89413 0.21017 0.66203 0.0
C1044 C 0.75669 0.14255 0.70776 0.0
O1045 O 0.84535 0.10685 0.73646 0.0
O1046 O 0.90344 0.17462 0.74167 0.0
C1047 C 0.81237 0.19326 0.59669 0.0
C1048 C 0.84402 0.18407 0.55168 0.0
C1049 C 0.81341 0.20055 0.5534 0.0
C1050 C 0.7976 0.20499 0.57577 0.0
C1051 C 0.84382 0.17798 0.59512 0.0
C1052 C 0.85943 0.17337 0.57286 0.0
C1053 C 0.79528 0.19631 0.62025 0.0
H1054 H 0.87854 0.10821 0.83206 0.0
H1055 H 0.90126 0.10572 0.79085 0.0
H1056 H 0.82991 0.17372 0.76753 0.0
H1057 H 0.80684 0.17614 0.80849 0.0
H1058 H 0.80064 0.20871 0.53738 0.0
H1059 H 0.77345 0.21698 0.57667 0.0
H1060 H 0.85596 0.16915 0.61113 0.0
H1061 H 0.88343 0.16118 0.57222 0.0
loop_
_geom_bond_atom_site_label_1
_geom_bond_atom_site_label_2
_geom_bond_distance
_geom_bond_site_symmetry_2
_ccdc_geom_bond_type
C0 C1 1.386 . S
C0 C2 1.397 . S
C0 H24 0.931 . S
C1 C0 1.386 . S
C1 C5 1.397 . S
C2 C0 1.397 . S
C2 C3 1.384 . S
C2 H25 0.930 . S
C3 C2 1.384 . S
C3 C4 1.377 . S
C3 C6 1.481 . S
C4 C3 1.377 . S
C4 C5 1.389 . S
C4 H26 0.929 . S
C5 C1 1.397 . S
C5 C4 1.389 . S
C5 H27 0.931 . S
C6 C3 1.481 . S
C6 C7 1.387 . S
C6 C11 1.390 . S
C7 C6 1.387 . S
C7 C8 1.401 . S
C7 H28 0.930 . S
C8 C7 1.401 . S
C8 C9 1.376 . S
C8 C17 1.511 . S
C9 C8 1.376 . S
C9 C10 1.392 . S
C9 H30 0.931 . S
C10 C9 1.392 . S
C10 C11 1.361 . S
C10 C12 1.500 . S
C11 C6 1.390 . S
C11 C10 1.361 . S
C11 H29 0.931 . S
C12 C10 1.500 . S
C12 C13 1.371 . S
C12 C14 1.365 . S
C13 C12 1.371 . S
C13 C23 1.386 . S
C13 H31 0.931 . S
C14 C12 1.365 . S
C14 C15 1.409 . S
C14 H32 0.929 . S
C15 C14 1.409 . S
C15 C16 1.380 1_545 S
C15 H33 0.930 . S
C16 C15 1.380 1_565 S
C16 C23 1.357 1_565 S
C17 C8 1.511 . S
C17 C18 1.341 . S
C17 C19 1.371 . S
C18 C17 1.341 . S
C18 C22 1.394 . S
C18 H34 0.930 . S
C19 C17 1.371 . S
C19 C20 1.392 . S
C19 H35 0.931 . S
C20 C19 1.392 . S
C20 C21 1.331 . S
C20 H38 0.932 . S
C21 C20 1.331 . S
C21 C22 1.336 . S
C22 C18 1.394 . S
C22 C21 1.336 . S
C22 H37 0.929 . S
C23 C13 1.386 . S
C23 C16 1.357 1_545 S
C23 H36 0.928 . S
H24 C0 0.931 . S
H25 C2 0.930 . S
H26 C4 0.929 . S
H27 C5 0.931 . S
H28 C7 0.930 . S
H29 C11 0.931 . S
H30 C9 0.931 . S
H31 C13 0.931 . S
H32 C14 0.929 . S
H33 C15 0.930 . S
H34 C18 0.930 . S
H35 C19 0.931 . S
H36 C23 0.928 . S
H37 C22 0.929 . S
H38 C20 0.932 . S
C39 C40 1.386 . S
C39 C41 1.397 . S
C39 H63 0.931 . S
C40 C39 1.386 . S
C40 C44 1.397 . S
C41 C39 1.397 . S
C41 C42 1.384 . S
C41 H64 0.930 . S
C42 C41 1.384 . S
C42 C43 1.377 . S
C42 C45 1.481 . S
C43 C42 1.377 . S
C43 C44 1.389 . S
C43 H65 0.929 . S
C44 C40 1.397 . S
C44 C43 1.389 . S
C44 H66 0.931 . S
C45 C42 1.481 . S
C45 C46 1.387 . S
C45 C50 1.390 . S
C46 C45 1.387 . S
C46 C47 1.401 . S
C46 H67 0.930 . S
C47 C46 1.401 . S
C47 C48 1.376 . S
C47 C56 1.511 . S
C48 C47 1.376 . S
C48 C49 1.392 . S
C48 H69 0.931 . S
C49 C48 1.392 . S
C49 C50 1.361 . S
C49 C51 1.500 . S
C50 C45 1.390 . S
C50 C49 1.361 . S
C50 H68 0.931 . S
C51 C49 1.500 . S
C51 C52 1.371 . S
C51 C53 1.365 . S
C52 C51 1.371 . S
C52 C62 1.386 . S
C52 H70 0.931 . S
C53 C51 1.365 . S
C53 C54 1.409 1_545 S
C53 H71 0.929 . S
C54 C53 1.409 1_565 S
C54 C55 1.380 . S
C54 H72 0.930 . S
C55 C54 1.380 . S
C55 C62 1.357 1_565 S
C56 C47 1.511 . S
C56 C57 1.341 . S
C56 C58 1.371 . S
C57 C56 1.341 . S
C57 C61 1.394 1_655 S
C57 H73 0.930 . S
C58 C56 1.371 . S
C58 C59 1.392 . S
C58 H74 0.931 . S
C59 C58 1.392 . S
C59 C60 1.331 1_655 S
C59 H77 0.932 1_655 S
C60 C59 1.331 1_455 S
C60 C61 1.336 . S
C61 C57 1.394 1_455 S
C61 C60 1.336 . S
C61 H76 0.929 . S
C62 C52 1.386 . S
C62 C55 1.357 1_545 S
C62 H75 0.928 . S
H63 C39 0.931 . S
H64 C41 0.930 . S
H65 C43 0.929 . S
H66 C44 0.931 . S
H67 C46 0.930 . S
H68 C50 0.931 . S
H69 C48 0.931 . S
H70 C52 0.931 . S
H71 C53 0.929 . S
H72 C54 0.930 . S
H73 C57 0.930 . S
H74 C58 0.931 . S
H75 C62 0.928 . S
H76 C61 0.929 . S
H77 C59 0.932 1_455 S
C78 C79 1.386 . S
C78 C80 1.397 . S
C78 H102 0.931 . S
C79 C78 1.386 . S
C79 C83 1.397 . S
C80 C78 1.397 . S
C80 C81 1.384 . S
C80 H103 0.930 . S
C81 C80 1.384 . S
C81 C82 1.377 . S
C81 C84 1.481 . S
C82 C81 1.377 . S
C82 C83 1.389 . S
C82 H104 0.929 . S
C83 C79 1.397 . S
C83 C82 1.389 . S
C83 H105 0.931 . S
C84 C81 1.481 . S
C84 C85 1.387 . S
C84 C89 1.390 . S
C85 C84 1.387 . S
C85 C86 1.401 . S
C85 H106 0.930 . S
C86 C85 1.401 . S
C86 C87 1.376 . S
C86 C95 1.511 . S
C87 C86 1.376 . S
C87 C88 1.392 . S
C87 H108 0.931 . S
C88 C87 1.392 . S
C88 C89 1.361 . S
C88 C90 1.500 . S
C89 C84 1.390 . S
C89 C88 1.361 . S
C89 H107 0.931 . S
C90 C88 1.500 . S
C90 C91 1.371 . S
C90 C92 1.365 . S
C91 C90 1.371 . S
C91 C101 1.386 . S
C91 H109 0.931 . S
C92 C90 1.365 . S
C92 C93 1.409 . S
C92 H110 0.929 . S
C93 C92 1.409 . S
C93 C94 1.380 . S
C93 H111 0.930 . S
C94 C93 1.380 . S
C94 C101 1.357 . S
C95 C86 1.511 . S
C95 C96 1.341 1_655 S
C95 C97 1.371 . S
C96 C95 1.341 1_455 S
C96 C100 1.394 . S
C96 H112 0.930 . S
C97 C95 1.371 . S
C97 C98 1.392 1_655 S
C97 H113 0.931 . S
C98 C97 1.392 1_455 S
C98 C99 1.331 . S
C98 H116 0.932 . S
C99 C98 1.331 . S
C99 C100 1.336 . S
C100 C96 1.394 . S
C100 C99 1.336 . S
C100 H115 0.929 . S
C101 C91 1.386 . S
C101 C94 1.357 . S
C101 H114 0.928 . S
H102 C78 0.931 . S
H103 C80 0.930 . S
H104 C82 0.929 . S
H105 C83 0.931 . S
H106 C85 0.930 . S
H107 C89 0.931 . S
H108 C87 0.931 . S
H109 C91 0.931 . S
H110 C92 0.929 . S
H111 C93 0.930 . S
H112 C96 0.930 . S
H113 C97 0.931 . S
H114 C101 0.928 . S
H115 C100 0.929 . S
H116 C98 0.932 . S
C117 C118 1.386 . S
C117 C119 1.397 . S
C117 H141 0.931 . S
C118 C117 1.386 . S
C118 C122 1.397 . S
C119 C117 1.397 . S
C119 C120 1.384 . S
C119 H142 0.930 . S
C120 C119 1.384 . S
C120 C121 1.377 . S
C120 C123 1.481 . S
C121 C120 1.377 . S
C121 C122 1.389 . S
C121 H143 0.929 . S
C122 C118 1.397 . S
C122 C121 1.389 . S
C122 H144 0.931 . S
C123 C120 1.481 . S
C123 C124 1.387 . S
C123 C128 1.390 . S
C124 C123 1.387 . S
C124 C125 1.401 . S
C124 H145 0.930 . S
C125 C124 1.401 . S
C125 C126 1.376 . S
C125 C134 1.511 . S
C126 C125 1.376 . S
C126 C127 1.392 . S
C126 H147 0.931 . S
C127 C126 1.392 . S
C127 C128 1.361 . S
C127 C129 1.500 . S
C128 C123 1.390 . S
C128 C127 1.361 . S
C128 H146 0.931 . S
C129 C127 1.500 . S
C129 C130 1.371 . S
C129 C131 1.365 . S
C130 C129 1.371 . S
C130 C140 1.386 1_455 S
C130 H148 0.931 . S
C131 C129 1.365 . S
C131 C132 1.409 1_455 S
C131 H149 0.929 . S
C132 C131 1.409 1_655 S
C132 C133 1.380 . S
C132 H150 0.930 . S
C133 C132 1.380 . S
C133 C140 1.357 . S
C134 C125 1.511 . S
C134 C135 1.341 . S
C134 C136 1.371 . S
C135 C134 1.341 . S
C135 C139 1.394 . S
C135 H151 0.930 . S
C136 C134 1.371 . S
C136 C137 1.392 . S
C136 H152 0.931 . S
C137 C136 1.392 . S
C137 C138 1.331 . S
C137 H155 0.932 . S
C138 C137 1.331 . S
C138 C139 1.336 . S
C139 C135 1.394 . S
C139 C138 1.336 . S
C139 H154 0.929 . S
C140 C130 1.386 1_655 S
C140 C133 1.357 . S
C140 H153 0.928 . S
H141 C117 0.931 . S
H142 C119 0.930 . S
H143 C121 0.929 . S
H144 C122 0.931 . S
H145 C124 0.930 . S
H146 C128 0.931 . S
H147 C126 0.931 . S
H148 C130 0.931 . S
H149 C131 0.929 . S
H150 C132 0.930 . S
H151 C135 0.930 . S
H152 C136 0.931 . S
H153 C140 0.928 . S
H154 C139 0.929 . S
H155 C137 0.932 . S
C156 C157 1.386 . S
C156 C158 1.397 . S
C156 H180 0.931 . S
C157 C156 1.386 . S
C157 C161 1.397 . S
C158 C156 1.397 . S
C158 C159 1.384 . S
C158 H181 0.930 . S
C159 C158 1.384 . S
C159 C160 1.377 . S
C159 C162 1.481 . S
C160 C159 1.377 . S
C160 C161 1.389 . S
C160 H182 0.929 . S
C161 C157 1.397 . S
C161 C160 1.389 . S
C161 H183 0.931 . S
C162 C159 1.481 . S
C162 C163 1.387 . S
C162 C167 1.390 . S
C163 C162 1.387 . S
C163 C164 1.401 . S
C163 H184 0.930 . S
C164 C163 1.401 . S
C164 C165 1.376 . S
C164 C173 1.511 . S
C165 C164 1.376 . S
C165 C166 1.392 . S
C165 H186 0.931 . S
C166 C165 1.392 . S
C166 C167 1.361 . S
C166 C168 1.500 . S
C167 C162 1.390 . S
C167 C166 1.361 . S
C167 H185 0.931 . S
C168 C166 1.500 . S
C168 C169 1.371 . S
C168 C170 1.365 . S
C169 C168 1.371 . S
C169 C179 1.386 . S
C169 H187 0.931 . S
C170 C168 1.365 . S
C170 C171 1.409 1_565 S
C170 H188 0.929 . S
C171 C170 1.409 1_545 S
C171 C172 1.380 . S
C171 H189 0.930 . S
C172 C171 1.380 . S
C172 C179 1.357 1_545 S
C173 C164 1.511 . S
C173 C174 1.341 . S
C173 C175 1.371 . S
C174 C173 1.341 . S
C174 C178 1.394 . S
C174 H190 0.930 . S
C175 C173 1.371 . S
C175 C176 1.392 . S
C175 H191 0.931 . S
C176 C175 1.392 . S
C176 C177 1.331 . S
C176 H194 0.932 . S
C177 C176 1.331 . S
C177 C178 1.336 . S
C178 C174 1.394 . S
C178 C177 1.336 . S
C178 H193 0.929 . S
C179 C169 1.386 . S
C179 C172 1.357 1_565 S
C179 H192 0.928 . S
H180 C156 0.931 . S
H181 C158 0.930 . S
H182 C160 0.929 . S
H183 C161 0.931 . S
H184 C163 0.930 . S
H185 C167 0.931 . S
H186 C165 0.931 . S
H187 C169 0.931 . S
H188 C170 0.929 . S
H189 C171 0.930 . S
H190 C174 0.930 . S
H191 C175 0.931 . S
H192 C179 0.928 . S
H193 C178 0.929 . S
H194 C176 0.932 . S
C195 C196 1.386 . S
C195 C197 1.397 . S
C195 H219 0.931 . S
C196 C195 1.386 . S
C196 C200 1.397 . S
C197 C195 1.397 . S
C197 C198 1.384 . S
C197 H220 0.930 . S
C198 C197 1.384 . S
C198 C199 1.377 . S
C198 C201 1.481 . S
C199 C198 1.377 . S
C199 C200 1.389 . S
C199 H221 0.929 . S
C200 C196 1.397 . S
C200 C199 1.389 . S
C200 H222 0.931 . S
C201 C198 1.481 . S
C201 C202 1.387 . S
C201 C206 1.390 . S
C202 C201 1.387 . S
C202 C203 1.401 . S
C202 H223 0.930 . S
C203 C202 1.401 . S
C203 C204 1.376 . S
C203 C212 1.511 . S
C204 C203 1.376 . S
C204 C205 1.392 . S
C204 H225 0.931 . S
C205 C204 1.392 . S
C205 C206 1.361 . S
C205 C207 1.500 . S
C206 C201 1.390 . S
C206 C205 1.361 . S
C206 H224 0.931 . S
C207 C205 1.500 . S
C207 C208 1.371 . S
C207 C209 1.365 . S
C208 C207 1.371 . S
C208 C218 1.386 . S
C208 H226 0.931 . S
C209 C207 1.365 . S
C209 C210 1.409 . S
C209 H227 0.929 . S
C210 C209 1.409 . S
C210 C211 1.380 1_565 S
C210 H228 0.930 1_565 S
C211 C210 1.380 1_545 S
C211 C218 1.357 1_545 S
C212 C203 1.511 . S
C212 C213 1.341 . S
C212 C214 1.371 . S
C213 C212 1.341 . S
C213 C217 1.394 1_455 S
C213 H229 0.930 . S
C214 C212 1.371 . S
C214 C215 1.392 . S
C214 H230 0.931 . S
C215 C214 1.392 . S
C215 C216 1.331 1_455 S
C215 H233 0.932 . S
C216 C215 1.331 1_655 S
C216 C217 1.336 . S
C217 C213 1.394 1_655 S
C217 C216 1.336 . S
C217 H232 0.929 . S
C218 C208 1.386 . S
C218 C211 1.357 1_565 S
C218 H231 0.928 1_565 S
H219 C195 0.931 . S
H220 C197 0.930 . S
H221 C199 0.929 . S
H222 C200 0.931 . S
H223 C202 0.930 . S
H224 C206 0.931 . S
H225 C204 0.931 . S
H226 C208 0.931 . S
H227 C209 0.929 . S
H228 C210 0.930 1_545 S
H229 C213 0.930 . S
H230 C214 0.931 . S
H231 C218 0.928 1_545 S
H232 C217 0.929 . S
H233 C215 0.932 . S
C234 C235 1.386 1_655 S
C234 C236 1.397 . S
C234 H258 0.931 . S
C235 C234 1.386 1_455 S
C235 C239 1.397 . S
C236 C234 1.397 . S
C236 C237 1.384 . S
C236 H259 0.930 . S
C237 C236 1.384 . S
C237 C238 1.377 1_655 S
C237 C240 1.481 . S
C238 C237 1.377 1_455 S
C238 C239 1.389 . S
C238 H260 0.929 . S
C239 C235 1.397 . S
C239 C238 1.389 . S
C239 H261 0.931 . S
C240 C237 1.481 . S
C240 C241 1.387 . S
C240 C245 1.390 . S
C241 C240 1.387 . S
C241 C242 1.401 . S
C241 H262 0.930 . S
C242 C241 1.401 . S
C242 C243 1.376 . S
C242 C251 1.511 . S
C243 C242 1.376 . S
C243 C244 1.392 . S
C243 H264 0.931 . S
C244 C243 1.392 . S
C244 C245 1.361 . S
C244 C246 1.500 . S
C245 C240 1.390 . S
C245 C244 1.361 . S
C245 H263 0.931 . S
C246 C244 1.500 . S
C246 C247 1.371 . S
C246 C248 1.365 . S
C247 C246 1.371 . S
C247 C257 1.386 . S
C247 H265 0.931 . S
C248 C246 1.365 . S
C248 C249 1.409 . S
C248 H266 0.929 . S
C249 C248 1.409 . S
C249 C250 1.380 . S
C249 H267 0.930 . S
C250 C249 1.380 . S
C250 C257 1.357 . S
C251 C242 1.511 . S
C251 C252 1.341 . S
C251 C253 1.371 . S
C252 C251 1.341 . S
C252 C256 1.394 . S
C252 H268 0.930 . S
C253 C251 1.371 . S
C253 C254 1.392 . S
C253 H269 0.931 . S
C254 C253 1.392 . S
C254 C255 1.331 . S
C254 H272 0.932 . S
C255 C254 1.331 . S
C255 C256 1.336 . S
C256 C252 1.394 . S
C256 C255 1.336 . S
C256 H271 0.929 . S
C257 C247 1.386 . S
C257 C250 1.357 . S
C257 H270 0.928 . S
H258 C234 0.931 . S
H259 C236 0.930 . S
H260 C238 0.929 . S
H261 C239 0.931 . S
H262 C241 0.930 . S
H263 C245 0.931 . S
H264 C243 0.931 . S
H265 C247 0.931 . S
H266 C248 0.929 . S
H267 C249 0.930 . S
H268 C252 0.930 . S
H269 C253 0.931 . S
H270 C257 0.928 . S
H271 C256 0.929 . S
H272 C254 0.932 . S
C273 C274 1.386 . S
C273 C275 1.397 . S
C273 H297 0.931 . S
C274 C273 1.386 . S
C274 C278 1.397 . S
C275 C273 1.397 . S
C275 C276 1.384 . S
C275 H298 0.930 . S
C276 C275 1.384 . S
C276 C277 1.377 . S
C276 C279 1.481 . S
C277 C276 1.377 . S
C277 C278 1.389 . S
C277 H299 0.929 . S
C278 C274 1.397 . S
C278 C277 1.389 . S
C278 H300 0.931 . S
C279 C276 1.481 . S
C279 C280 1.387 . S
C279 C284 1.390 . S
C280 C279 1.387 . S
C280 C281 1.401 . S
C280 H301 0.930 . S
C281 C280 1.401 . S
C281 C282 1.376 . S
C281 C290 1.511 . S
C282 C281 1.376 . S
C282 C283 1.392 . S
C282 H303 0.931 . S
C283 C282 1.392 . S
C283 C284 1.361 . S
C283 C285 1.500 . S
C284 C279 1.390 . S
C284 C283 1.361 . S
C284 H302 0.931 . S
C285 C283 1.500 . S
C285 C286 1.371 . S
C285 C287 1.365 . S
C286 C285 1.371 . S
C286 C296 1.386 . S
C286 H304 0.931 . S
C287 C285 1.365 . S
C287 C288 1.409 . S
C287 H305 0.929 . S
C288 C287 1.409 . S
C288 C289 1.380 . S
C288 H306 0.930 . S
C289 C288 1.380 . S
C289 C296 1.357 . S
C290 C281 1.511 . S
C290 C291 1.341 . S
C290 C292 1.371 . S
C291 C290 1.341 . S
C291 C295 1.394 . S
C291 H307 0.930 . S
C292 C290 1.371 . S
C292 C293 1.392 . S
C292 H308 0.931 . S
C293 C292 1.392 . S
C293 C294 1.331 . S
C293 H311 0.932 . S
C294 C293 1.331 . S
C294 C295 1.336 . S
C295 C291 1.394 . S
C295 C294 1.336 . S
C295 H310 0.929 . S
C296 C286 1.386 . S
C296 C289 1.357 . S
C296 H309 0.928 . S
H297 C273 0.931 . S
H298 C275 0.930 . S
H299 C277 0.929 . S
H300 C278 0.931 . S
H301 C280 0.930 . S
H302 C284 0.931 . S
H303 C282 0.931 . S
H304 C286 0.931 . S
H305 C287 0.929 . S
H306 C288 0.930 . S
H307 C291 0.930 . S
H308 C292 0.931 . S
H309 C296 0.928 . S
H310 C295 0.929 . S
H311 C293 0.932 . S
C312 C313 1.386 . S
C312 C314 1.397 . S
C312 H336 0.931 . S
C313 C312 1.386 . S
C313 C317 1.397 . S
C314 C312 1.397 . S
C314 C315 1.384 . S
C314 H337 0.930 . S
C315 C314 1.384 . S
C315 C316 1.377 . S
C315 C318 1.481 . S
C316 C315 1.377 . S
C316 C317 1.389 . S
C316 H338 0.929 1_545 S
C317 C313 1.397 . S
C317 C316 1.389 . S
C317 H339 0.931 1_545 S
C318 C315 1.481 . S
C318 C319 1.387 . S
C318 C323 1.390 . S
C319 C318 1.387 . S
C319 C320 1.401 . S
C319 H340 0.930 . S
C320 C319 1.401 . S
C320 C321 1.376 . S
C320 C329 1.511 . S
C321 C320 1.376 . S
C321 C322 1.392 . S
C321 H342 0.931 . S
C322 C321 1.392 . S
C322 C323 1.361 . S
C322 C324 1.500 . S
C323 C318 1.390 . S
C323 C322 1.361 . S
C323 H341 0.931 . S
C324 C322 1.500 . S
C324 C325 1.371 . S
C324 C326 1.365 . S
C325 C324 1.371 . S
C325 C335 1.386 . S
C325 H343 0.931 . S
C326 C324 1.365 . S
C326 C327 1.409 . S
C326 H344 0.929 . S
C327 C326 1.409 . S
C327 C328 1.380 . S
C327 H345 0.930 . S
C328 C327 1.380 . S
C328 C335 1.357 . S
C329 C320 1.511 . S
C329 C330 1.341 . S
C329 C331 1.371 . S
C330 C329 1.341 . S
C330 C334 1.394 . S
C330 H346 0.930 . S
C331 C329 1.371 . S
C331 C332 1.392 . S
C331 H347 0.931 . S
C332 C331 1.392 . S
C332 C333 1.331 . S
C332 H350 0.932 . S
C333 C332 1.331 . S
C333 C334 1.336 . S
C334 C330 1.394 . S
C334 C333 1.336 . S
C334 H349 0.929 . S
C335 C325 1.386 . S
C335 C328 1.357 . S
C335 H348 0.928 . S
H336 C312 0.931 . S
H337 C314 0.930 . S
H338 C316 0.929 1_565 S
H339 C317 0.931 1_565 S
H340 C319 0.930 . S
H341 C323 0.931 . S
H342 C321 0.931 . S
H343 C325 0.931 . S
H344 C326 0.929 . S
H345 C327 0.930 . S
H346 C330 0.930 . S
H347 C331 0.931 . S
H348 C335 0.928 . S
H349 C334 0.929 . S
H350 C332 0.932 . S
C351 C352 1.386 . S
C351 C353 1.397 . S
C351 H375 0.931 . S
C352 C351 1.386 . S
C352 C356 1.397 . S
C353 C351 1.397 . S
C353 C354 1.384 . S
C353 H376 0.930 . S
C354 C353 1.384 . S
C354 C355 1.377 . S
C354 C357 1.481 . S
C355 C354 1.377 . S
C355 C356 1.389 . S
C355 H377 0.929 . S
C356 C352 1.397 . S
C356 C355 1.389 . S
C356 H378 0.931 . S
C357 C354 1.481 . S
C357 C358 1.387 . S
C357 C362 1.390 . S
C358 C357 1.387 . S
C358 C359 1.401 . S
C358 H379 0.930 . S
C359 C358 1.401 . S
C359 C360 1.376 . S
C359 C368 1.511 . S
C360 C359 1.376 . S
C360 C361 1.392 . S
C360 H381 0.931 . S
C361 C360 1.392 . S
C361 C362 1.361 . S
C361 C363 1.500 . S
C362 C357 1.390 . S
C362 C361 1.361 . S
C362 H380 0.931 . S
C363 C361 1.500 . S
C363 C364 1.371 . S
C363 C365 1.365 . S
C364 C363 1.371 . S
C364 C374 1.386 . S
C364 H382 0.931 . S
C365 C363 1.365 . S
C365 C366 1.409 . S
C365 H383 0.929 . S
C366 C365 1.409 . S
C366 C367 1.380 . S
C366 H384 0.930 . S
C367 C366 1.380 . S
C367 C374 1.357 . S
C368 C359 1.511 . S
C368 C369 1.341 . S
C368 C370 1.371 . S
C369 C368 1.341 . S
C369 C373 1.394 . S
C369 H385 0.930 . S
C370 C368 1.371 . S
C370 C371 1.392 . S
C370 H386 0.931 . S
C371 C370 1.392 . S
C371 C372 1.331 . S
C371 H389 0.932 1_556 S
C372 C371 1.331 . S
C372 C373 1.336 . S
C373 C369 1.394 . S
C373 C372 1.336 . S
C373 H388 0.929 . S
C374 C364 1.386 . S
C374 C367 1.357 . S
C374 H387 0.928 . S
H375 C351 0.931 . S
H376 C353 0.930 . S
H377 C355 0.929 . S
H378 C356 0.931 . S
H379 C358 0.930 . S
H380 C362 0.931 . S
H381 C360 0.931 . S
H382 C364 0.931 . S
H383 C365 0.929 . S
H384 C366 0.930 . S
H385 C369 0.930 . S
H386 C370 0.931 . S
H387 C374 0.928 . S
H388 C373 0.929 . S
H389 C371 0.932 1_554 S
C390 C391 1.386 . S
C390 C392 1.397 . S
C390 H414 0.931 . S
C391 C390 1.386 . S
C391 C395 1.397 . S
C392 C390 1.397 . S
C392 C393 1.384 . S
C392 H415 0.930 . S
C393 C392 1.384 . S
C393 C394 1.377 . S
C393 C396 1.481 . S
C394 C393 1.377 . S
C394 C395 1.389 . S
C394 H416 0.929 . S
C395 C391 1.397 . S
C395 C394 1.389 . S
C395 H417 0.931 . S
C396 C393 1.481 . S
C396 C397 1.387 . S
C396 C401 1.390 . S
C397 C396 1.387 . S
C397 C398 1.401 . S
C397 H418 0.930 . S
C398 C397 1.401 . S
C398 C399 1.376 . S
C398 C407 1.511 . S
C399 C398 1.376 . S
C399 C400 1.392 . S
C399 H420 0.931 . S
C400 C399 1.392 . S
C400 C401 1.361 . S
C400 C402 1.500 . S
C401 C396 1.390 . S
C401 C400 1.361 . S
C401 H419 0.931 . S
C402 C400 1.500 . S
C402 C403 1.371 . S
C402 C404 1.365 . S
C403 C402 1.371 . S
C403 C413 1.386 1_556 S
C403 H421 0.931 1_556 S
C404 C402 1.365 . S
C404 C405 1.409 . S
C404 H422 0.929 . S
C405 C404 1.409 . S
C405 C406 1.380 . S
C405 H423 0.930 . S
C406 C405 1.380 . S
C406 C413 1.357 1_556 S
C407 C398 1.511 . S
C407 C408 1.341 . S
C407 C409 1.371 . S
C408 C407 1.341 . S
C408 C412 1.394 . S
C408 H424 0.930 . S
C409 C407 1.371 . S
C409 C410 1.392 1_556 S
C409 H425 0.921 1_556 S
C410 C409 1.392 1_554 S
C410 C411 1.331 1_554 S
C410 H428 0.932 . S
C411 C410 1.331 1_556 S
C411 C412 1.336 . S
C412 C408 1.394 . S
C412 C411 1.336 . S
C412 H427 0.929 1_545 S
C413 C403 1.386 1_554 S
C413 C406 1.357 1_554 S
C413 H426 0.928 . S
H414 C390 0.931 . S
H415 C392 0.930 . S
H416 C394 0.929 . S
H417 C395 0.931 . S
H418 C397 0.930 . S
H419 C401 0.931 . S
H420 C399 0.931 . S
H421 C403 0.931 1_554 S
H422 C404 0.929 . S
H423 C405 0.930 . S
H424 C408 0.930 . S
H425 C409 0.921 1_554 S
H426 C413 0.928 . S
H427 C412 0.929 1_565 S
H428 C410 0.932 . S
C429 C430 1.386 . S
C429 C431 1.397 . S
C429 H453 0.931 . S
C430 C429 1.386 . S
C430 C434 1.397 . S
C431 C429 1.397 . S
C431 C432 1.384 . S
C431 H454 0.930 . S
C432 C431 1.384 . S
C432 C433 1.377 . S
C432 C435 1.481 . S
C433 C432 1.377 . S
C433 C434 1.389 . S
C433 H455 0.929 . S
C434 C430 1.397 . S
C434 C433 1.389 . S
C434 H456 0.931 . S
C435 C432 1.481 . S
C435 C436 1.387 . S
C435 C440 1.390 . S
C436 C435 1.387 . S
C436 C437 1.401 . S
C436 H457 0.930 . S
C437 C436 1.401 . S
C437 C438 1.376 . S
C437 C446 1.511 . S
C438 C437 1.376 . S
C438 C439 1.392 . S
C438 H459 0.931 . S
C439 C438 1.392 . S
C439 C440 1.361 . S
C439 C441 1.500 . S
C440 C435 1.390 . S
C440 C439 1.361 . S
C440 H458 0.931 . S
C441 C439 1.500 . S
C441 C442 1.371 . S
C441 C443 1.365 . S
C442 C441 1.371 . S
C442 C452 1.386 . S
C442 H460 0.931 . S
C443 C441 1.365 . S
C443 C444 1.409 . S
C443 H461 0.929 . S
C444 C443 1.409 . S
C444 C445 1.380 . S
C444 H462 0.930 . S
C445 C444 1.380 . S
C445 C452 1.357 . S
C446 C437 1.511 . S
C446 C447 1.341 . S
C446 C448 1.371 . S
C447 C446 1.341 . S
C447 C451 1.394 . S
C447 H463 0.930 . S
C448 C446 1.371 . S
C448 C449 1.392 . S
C448 H464 0.931 . S
C449 C448 1.392 . S
C449 C450 1.331 . S
C449 H467 0.932 1_556 S
C450 C449 1.331 . S
C450 C451 1.336 . S
C451 C447 1.394 . S
C451 C450 1.336 . S
C451 H466 0.929 . S
C452 C442 1.386 . S
C452 C445 1.357 . S
C452 H465 0.928 1_556 S
H453 C429 0.931 . S
H454 C431 0.930 . S
H455 C433 0.929 . S
H456 C434 0.931 . S
H457 C436 0.930 . S
H458 C440 0.931 . S
H459 C438 0.931 . S
H460 C442 0.931 . S
H461 C443 0.929 . S
H462 C444 0.930 . S
H463 C447 0.930 . S
H464 C448 0.931 . S
H465 C452 0.928 1_554 S
H466 C451 0.929 . S
H467 C449 0.932 1_554 S
C468 C469 1.386 . S
C468 C470 1.397 . S
C468 H492 0.931 . S
C469 C468 1.386 . S
C469 C473 1.397 . S
C470 C468 1.397 . S
C470 C471 1.384 . S
C470 H493 0.930 . S
C471 C470 1.384 . S
C471 C472 1.377 . S
C471 C474 1.481 . S
C472 C471 1.377 . S
C472 C473 1.389 . S
C472 H494 0.929 . S
C473 C469 1.397 . S
C473 C472 1.389 . S
C473 H495 0.931 . S
C474 C471 1.481 . S
C474 C475 1.387 . S
C474 C479 1.390 . S
C475 C474 1.387 . S
C475 C476 1.401 . S
C475 H496 0.930 . S
C476 C475 1.401 . S
C476 C477 1.376 . S
C476 C485 1.511 . S
C477 C476 1.376 . S
C477 C478 1.392 . S
C477 H498 0.931 . S
C478 C477 1.392 . S
C478 C479 1.361 . S
C478 C480 1.500 . S
C479 C474 1.390 . S
C479 C478 1.361 . S
C479 H497 0.931 . S
C480 C478 1.500 . S
C480 C481 1.371 . S
C480 C482 1.365 . S
C481 C480 1.371 . S
C481 C491 1.386 1_554 S
C481 H499 0.931 . S
C482 C480 1.365 . S
C482 C483 1.409 . S
C482 H500 0.929 . S
C483 C482 1.409 . S
C483 C484 1.380 . S
C483 H501 0.930 . S
C484 C483 1.380 . S
C484 C491 1.357 1_554 S
C485 C476 1.511 . S
C485 C486 1.341 . S
C485 C487 1.371 . S
C486 C485 1.341 . S
C486 C490 1.394 . S
C486 H502 0.930 . S
C487 C485 1.371 . S
C487 C488 1.392 1_554 S
C487 H503 0.949 . S
C488 C487 1.392 1_556 S
C488 C489 1.331 1_556 S
C488 H506 0.932 . S
C489 C488 1.331 1_554 S
C489 C490 1.336 . S
C490 C486 1.394 . S
C490 C489 1.336 . S
C490 H505 0.929 . S
C491 C481 1.386 1_556 S
C491 C484 1.357 1_556 S
C491 H504 0.928 . S
H492 C468 0.931 . S
H493 C470 0.930 . S
H494 C472 0.929 . S
H495 C473 0.931 . S
H496 C475 0.930 . S
H497 C479 0.931 . S
H498 C477 0.931 . S
H499 C481 0.931 . S
H500 C482 0.929 . S
H501 C483 0.930 . S
H502 C486 0.930 . S
H503 C487 0.949 . S
H504 C491 0.928 . S
H505 C490 0.929 . S
H506 C488 0.932 . S
C507 C508 1.386 . S
C507 C509 1.397 . S
C507 H531 0.931 . S
C508 C507 1.386 . S
C508 C512 1.397 . S
C509 C507 1.397 . S
C509 C510 1.384 . S
C509 H532 0.930 . S
C510 C509 1.384 . S
C510 C511 1.377 . S
C510 C513 1.481 . S
C511 C510 1.377 . S
C511 C512 1.389 . S
C511 H533 0.929 . S
C512 C508 1.397 . S
C512 C511 1.389 . S
C512 H534 0.931 . S
C513 C510 1.481 . S
C513 C514 1.387 . S
C513 C518 1.390 . S
C514 C513 1.387 . S
C514 C515 1.401 . S
C514 H535 0.930 . S
C515 C514 1.401 . S
C515 C516 1.376 . S
C515 C524 1.511 . S
C516 C515 1.376 . S
C516 C517 1.392 . S
C516 H537 0.931 . S
C517 C516 1.392 . S
C517 C518 1.361 . S
C517 C519 1.500 . S
C518 C513 1.390 . S
C518 C517 1.361 . S
C518 H536 0.931 . S
C519 C517 1.500 . S
C519 C520 1.371 . S
C519 C521 1.365 . S
C520 C519 1.371 . S
C520 C530 1.396 . S
C520 H538 0.931 . S
C521 C519 1.365 . S
C521 C522 1.409 . S
C521 H539 0.929 . S
C522 C521 1.409 . S
C522 C523 1.380 . S
C522 H540 0.930 . S
C523 C522 1.380 . S
C523 C530 1.370 . S
C524 C515 1.511 . S
C524 C525 1.341 . S
C524 C526 1.371 . S
C525 C524 1.341 . S
C525 C529 1.394 . S
C525 H541 0.930 . S
C526 C524 1.371 . S
C526 C527 1.392 . S
C526 H542 0.931 . S
C527 C526 1.392 . S
C527 C528 1.331 . S
C527 H545 0.932 1_554 S
C528 C527 1.331 . S
C528 C529 1.336 . S
C529 C525 1.394 . S
C529 C528 1.336 . S
C529 H544 0.929 . S
C530 C520 1.396 . S
C530 C523 1.370 . S
C530 H543 0.905 1_554 S
H531 C507 0.931 . S
H532 C509 0.930 . S
H533 C511 0.929 . S
H534 C512 0.931 . S
H535 C514 0.930 . S
H536 C518 0.931 . S
H537 C516 0.931 . S
H538 C520 0.931 . S
H539 C521 0.929 . S
H540 C522 0.930 . S
H541 C525 0.930 . S
H542 C526 0.931 . S
H543 C530 0.905 1_556 S
H544 C529 0.929 . S
H545 C527 0.932 1_556 S
C546 C547 1.386 . S
C546 C548 1.397 . S
C546 H570 0.931 . S
C547 C546 1.386 . S
C547 C551 1.397 . S
C548 C546 1.397 . S
C548 C549 1.384 . S
C548 H571 0.930 . S
C549 C548 1.384 . S
C549 C550 1.377 . S
C549 C552 1.481 . S
C550 C549 1.377 . S
C550 C551 1.389 . S
C550 H572 0.929 . S
C551 C547 1.397 . S
C551 C550 1.389 . S
C551 H573 0.931 . S
C552 C549 1.481 . S
C552 C553 1.387 . S
C552 C557 1.390 . S
C553 C552 1.387 . S
C553 C554 1.401 . S
C553 H574 0.930 . S
C554 C553 1.401 . S
C554 C555 1.376 . S
C554 C563 1.511 . S
C555 C554 1.376 . S
C555 C556 1.392 . S
C555 H576 0.931 . S
C556 C555 1.392 . S
C556 C557 1.361 . S
C556 C558 1.500 . S
C557 C552 1.390 . S
C557 C556 1.361 . S
C557 H575 0.931 . S
C558 C556 1.500 . S
C558 C559 1.371 . S
C558 C560 1.365 . S
C559 C558 1.371 . S
C559 C569 1.386 . S
C559 H577 0.931 . S
C560 C558 1.365 . S
C560 C561 1.409 . S
C560 H578 0.929 . S
C561 C560 1.409 . S
C561 C562 1.380 . S
C561 H579 0.930 . S
C562 C561 1.380 . S
C562 C569 1.357 . S
C563 C554 1.511 . S
C563 C564 1.341 . S
C563 C565 1.371 . S
C564 C563 1.341 . S
C564 C568 1.394 . S
C564 H580 0.930 . S
C565 C563 1.371 . S
C565 C566 1.392 . S
C565 H581 0.931 . S
C566 C565 1.392 . S
C566 C567 1.331 . S
C566 H584 0.932 . S
C567 C566 1.331 . S
C567 C568 1.336 . S
C568 C564 1.394 . S
C568 C567 1.336 . S
C568 H583 0.929 . S
C569 C559 1.386 . S
C569 C562 1.357 . S
C569 H582 0.928 . S
H570 C546 0.931 . S
H571 C548 0.930 . S
H572 C550 0.929 . S
H573 C551 0.931 . S
H574 C553 0.930 . S
H575 C557 0.931 . S
H576 C555 0.931 . S
H577 C559 0.931 . S
H578 C560 0.929 . S
H579 C561 0.930 . S
H580 C564 0.930 . S
H581 C565 0.931 . S
H582 C569 0.928 . S
H583 C568 0.929 . S
H584 C566 0.932 . S
C585 C586 1.386 . S
C585 C587 1.397 . S
C585 H609 0.931 . S
C586 C585 1.386 . S
C586 C590 1.397 . S
C587 C585 1.397 . S
C587 C588 1.384 . S
C587 H610 0.930 . S
C588 C587 1.384 . S
C588 C589 1.377 . S
C588 C591 1.481 . S
C589 C588 1.377 . S
C589 C590 1.389 . S
C589 H611 0.929 1_565 S
C590 C586 1.397 . S
C590 C589 1.389 . S
C590 H612 0.931 1_565 S
C591 C588 1.481 . S
C591 C592 1.387 . S
C591 C596 1.390 . S
C592 C591 1.387 . S
C592 C593 1.401 . S
C592 H613 0.930 . S
C593 C592 1.401 . S
C593 C594 1.376 . S
C593 C602 1.511 . S
C594 C593 1.376 . S
C594 C595 1.392 . S
C594 H615 0.931 . S
C595 C594 1.392 . S
C595 C596 1.361 . S
C595 C597 1.500 . S
C596 C591 1.390 . S
C596 C595 1.361 . S
C596 H614 0.931 . S
C597 C595 1.500 . S
C597 C598 1.371 . S
C597 C599 1.365 . S
C598 C597 1.371 . S
C598 C608 1.386 . S
C598 H616 0.931 . S
C599 C597 1.365 . S
C599 C600 1.409 . S
C599 H617 0.929 . S
C600 C599 1.409 . S
C600 C601 1.380 . S
C600 H618 0.930 . S
C601 C600 1.380 . S
C601 C608 1.357 . S
C602 C593 1.511 . S
C602 C603 1.341 . S
C602 C604 1.371 . S
C603 C602 1.341 . S
C603 C607 1.394 . S
C603 H619 0.930 . S
C604 C602 1.371 . S
C604 C605 1.392 . S
C604 H620 0.931 . S
C605 C604 1.392 . S
C605 C606 1.331 . S
C605 H623 0.932 . S
C606 C605 1.331 . S
C606 C607 1.336 . S
C607 C603 1.394 . S
C607 C606 1.336 . S
C607 H622 0.929 . S
C608 C598 1.386 . S
C608 C601 1.357 . S
C608 H621 0.928 . S
H609 C585 0.931 . S
H610 C587 0.930 . S
H611 C589 0.929 1_545 S
H612 C590 0.931 1_545 S
H613 C592 0.930 . S
H614 C596 0.931 . S
H615 C594 0.931 . S
H616 C598 0.931 . S
H617 C599 0.929 . S
H618 C600 0.930 . S
H619 C603 0.930 . S
H620 C604 0.931 . S
H621 C608 0.928 . S
H622 C607 0.929 . S
H623 C605 0.932 . S
C624 C625 1.386 . S
C624 C626 1.397 . S
C624 H648 0.931 . S
C625 C624 1.386 . S
C625 C629 1.397 1_655 S
C626 C624 1.397 . S
C626 C627 1.384 1_655 S
C626 H649 0.930 . S
C627 C626 1.384 1_455 S
C627 C628 1.377 . S
C627 C630 1.481 . S
C628 C627 1.377 . S
C628 C629 1.389 . S
C628 H650 0.929 . S
C629 C625 1.397 1_455 S
C629 C628 1.389 . S
C629 H651 0.931 . S
C630 C627 1.481 . S
C630 C631 1.387 . S
C630 C635 1.390 . S
C631 C630 1.387 . S
C631 C632 1.401 . S
C631 H652 0.930 . S
C632 C631 1.401 . S
C632 C633 1.376 . S
C632 C641 1.511 . S
C633 C632 1.376 . S
C633 C634 1.392 . S
C633 H654 0.931 . S
C634 C633 1.392 . S
C634 C635 1.361 . S
C634 C636 1.500 . S
C635 C630 1.390 . S
C635 C634 1.361 . S
C635 H653 0.931 . S
C636 C634 1.500 . S
C636 C637 1.371 . S
C636 C638 1.365 . S
C637 C636 1.371 . S
C637 C647 1.386 . S
C637 H655 0.931 . S
C638 C636 1.365 . S
C638 C639 1.409 . S
C638 H656 0.929 . S
C639 C638 1.409 . S
C639 C640 1.380 . S
C639 H657 0.930 . S
C640 C639 1.380 . S
C640 C647 1.357 . S
C641 C632 1.511 . S
C641 C642 1.341 . S
C641 C643 1.371 . S
C642 C641 1.341 . S
C642 C646 1.394 . S
C642 H658 0.930 . S
C643 C641 1.371 . S
C643 C644 1.392 . S
C643 H659 0.931 . S
C644 C643 1.392 . S
C644 C645 1.331 . S
C644 H662 0.932 . S
C645 C644 1.331 . S
C645 C646 1.336 . S
C646 C642 1.394 . S
C646 C645 1.336 . S
C646 H661 0.929 . S
C647 C637 1.386 . S
C647 C640 1.357 . S
C647 H660 0.928 . S
H648 C624 0.931 . S
H649 C626 0.930 . S
H650 C628 0.929 . S
H651 C629 0.931 . S
H652 C631 0.930 . S
H653 C635 0.931 . S
H654 C633 0.931 . S
H655 C637 0.931 . S
H656 C638 0.929 . S
H657 C639 0.930 . S
H658 C642 0.930 . S
H659 C643 0.931 . S
H660 C647 0.928 . S
H661 C646 0.929 . S
H662 C644 0.932 . S
C663 C664 1.386 . S
C663 C665 1.397 . S
C663 H687 0.931 . S
C664 C663 1.386 . S
C664 C668 1.397 . S
C665 C663 1.397 . S
C665 C666 1.384 . S
C665 H688 0.930 . S
C666 C665 1.384 . S
C666 C667 1.377 . S
C666 C669 1.481 . S
C667 C666 1.377 . S
C667 C668 1.389 . S
C667 H689 0.929 . S
C668 C664 1.397 . S
C668 C667 1.389 . S
C668 H690 0.931 . S
C669 C666 1.481 . S
C669 C670 1.387 . S
C669 C674 1.390 . S
C670 C669 1.387 . S
C670 C671 1.401 . S
C670 H691 0.930 . S
C671 C670 1.401 . S
C671 C672 1.376 . S
C671 C680 1.511 . S
C672 C671 1.376 . S
C672 C673 1.392 . S
C672 H693 0.931 . S
C673 C672 1.392 . S
C673 C674 1.361 . S
C673 C675 1.500 . S
C674 C669 1.390 . S
C674 C673 1.361 . S
C674 H692 0.931 . S
C675 C673 1.500 . S
C675 C676 1.371 . S
C675 C677 1.365 . S
C676 C675 1.371 . S
C676 C686 1.386 . S
C676 H694 0.931 . S
C677 C675 1.365 . S
C677 C678 1.409 . S
C677 H695 0.929 . S
C678 C677 1.409 . S
C678 C679 1.380 . S
C678 H696 0.930 . S
C679 C678 1.380 . S
C679 C686 1.357 . S
C680 C671 1.511 . S
C680 C681 1.341 . S
C680 C682 1.371 . S
C681 C680 1.341 . S
C681 C685 1.394 . S
C681 H697 0.930 . S
C682 C680 1.371 . S
C682 C683 1.392 . S
C682 H698 0.931 . S
C683 C682 1.392 . S
C683 C684 1.331 . S
C683 H701 0.932 . S
C684 C683 1.331 . S
C684 C685 1.336 . S
C685 C681 1.394 . S
C685 C684 1.336 . S
C685 H700 0.929 . S
C686 C676 1.386 . S
C686 C679 1.357 . S
C686 H699 0.928 . S
H687 C663 0.931 . S
H688 C665 0.930 . S
H689 C667 0.929 . S
H690 C668 0.931 . S
H691 C670 0.930 . S
H692 C674 0.931 . S
H693 C672 0.931 . S
H694 C676 0.931 . S
H695 C677 0.929 . S
H696 C678 0.930 . S
H697 C681 0.930 . S
H698 C682 0.931 . S
H699 C686 0.928 . S
H700 C685 0.929 . S
H701 C683 0.932 . S
Tb702 C712 2.825 . S
Tb702 O713 2.347 1_565 S
Tb702 O716 2.366 1_565 S
Tb702 O721 2.418 . S
Tb702 O722 2.384 . S
Tb702 O725 2.479 . S
Tb702 O726 2.471 . S
Eu703 O714 2.418 . S
Eu703 O715 2.384 . S
Eu703 O718 2.479 . S
Eu703 O719 2.471 . S
Eu703 O720 2.347 1_545 S
Eu703 O723 2.366 1_545 S
Eu703 C733 2.825 . S
C704 O720 1.259 . S
C704 O721 1.265 1_554 S
C705 O722 1.255 1_554 S
C705 O723 1.265 . S
C706 C708 1.380 . S
C706 C709 1.374 1_565 S
C706 C712 1.507 . S
C707 C708 1.384 . S
C707 C711 1.366 1_565 S
C707 H734 0.930 . S
C708 C706 1.380 . S
C708 C707 1.384 . S
C708 H735 0.931 . S
C709 C706 1.374 1_545 S
C709 C710 1.390 . S
C709 H736 0.930 . S
C710 C709 1.390 . S
C710 C711 1.409 . S
C710 H737 0.930 . S
C711 C707 1.366 1_545 S
C711 C710 1.409 . S
C712 Tb702 2.825 . S
C712 C706 1.507 . S
C712 O725 1.238 . S
C712 O726 1.247 . S
O713 Tb702 2.347 1_545 S
O713 C717 1.259 . S
O714 Eu703 2.418 . S
O714 C717 1.265 1_554 S
O715 Eu703 2.384 . S
O715 C724 1.255 1_554 S
O716 Tb702 2.366 1_545 S
O716 C724 1.265 . S
C717 O713 1.259 . S
C717 O714 1.265 1_556 S
O718 Eu703 2.479 . S
O718 C733 1.238 . S
O719 Eu703 2.471 . S
O719 C733 1.247 . S
O720 Eu703 2.347 1_565 S
O720 C704 1.259 . S
O721 Tb702 2.418 . S
O721 C704 1.265 1_556 S
O722 Tb702 2.384 . S
O722 C705 1.255 1_556 S
O723 Eu703 2.366 1_565 S
O723 C705 1.265 . S
C724 O715 1.255 1_556 S
C724 O716 1.265 . S
O725 Tb702 2.479 . S
O725 C712 1.238 . S
O726 Tb702 2.471 . S
O726 C712 1.247 . S
C727 C730 1.380 . S
C727 C731 1.374 1_545 S
C727 C733 1.507 . S
C728 C729 1.381 1_565 S
C728 C732 1.396 . S
C729 C728 1.381 1_545 S
C729 C730 1.384 . S
C729 H738 0.930 . S
C730 C727 1.380 . S
C730 C729 1.384 . S
C730 H739 0.931 . S
C731 C727 1.374 1_565 S
C731 C732 1.390 . S
C731 H740 0.930 . S
C732 C728 1.396 . S
C732 C731 1.390 . S
C732 H741 0.930 . S
C733 Eu703 2.825 . S
C733 O718 1.238 . S
C733 O719 1.247 . S
C733 C727 1.507 . S
H734 C707 0.930 . S
H735 C708 0.931 . S
H736 C709 0.930 . S
H737 C710 0.930 . S
H738 C729 0.930 . S
H739 C730 0.931 . S
H740 C731 0.930 . S
H741 C732 0.930 . S
Tb742 C752 2.825 . S
Tb742 O753 2.347 1_455 S
Tb742 O756 2.366 1_455 S
Tb742 O761 2.418 . S
Tb742 O762 2.384 1_556 S
Tb742 O765 2.479 . S
Tb742 O766 2.471 1_455 S
Eu743 O754 2.418 . S
Eu743 O755 2.384 1_554 S
Eu743 O758 2.479 . S
Eu743 O759 2.471 1_655 S
Eu743 O760 2.347 1_655 S
Eu743 O763 2.366 1_655 S
Eu743 C773 2.825 . S
C744 O760 1.259 . S
C744 O761 1.265 1_554 S
C745 O762 1.255 . S
C745 O763 1.265 . S
C746 C748 1.380 . S
C746 C749 1.374 1_455 S
C746 C752 1.507 . S
C747 C748 1.384 . S
C747 C751 1.387 1_455 S
C747 H774 0.930 . S
C748 C746 1.380 . S
C748 C747 1.384 . S
C748 H775 0.931 . S
C749 C746 1.374 1_655 S
C749 C750 1.390 . S
C749 H776 0.930 . S
C750 C749 1.390 . S
C750 C751 1.391 . S
C750 H777 0.930 . S
C751 C747 1.387 1_655 S
C751 C750 1.391 . S
C752 Tb742 2.825 . S
C752 C746 1.507 . S
C752 O765 1.238 . S
C752 O766 1.247 1_455 S
O753 Tb742 2.347 1_655 S
O753 C757 1.259 . S
O754 Eu743 2.418 . S
O754 C757 1.265 1_554 S
O755 Eu743 2.384 1_556 S
O755 C764 1.255 . S
O756 Tb742 2.366 1_655 S
O756 C764 1.265 . S
C757 O753 1.259 . S
C757 O754 1.265 1_556 S
O758 Eu743 2.479 . S
O758 C773 1.238 . S
O759 Eu743 2.471 1_455 S
O759 C773 1.247 1_455 S
O760 Eu743 2.347 1_455 S
O760 C744 1.259 . S
O761 Tb742 2.418 . S
O761 C744 1.265 1_556 S
O762 Tb742 2.384 1_554 S
O762 C745 1.255 . S
O763 Eu743 2.366 1_455 S
O763 C745 1.265 . S
C764 O755 1.255 . S
C764 O756 1.265 . S
O765 Tb742 2.479 . S
O765 C752 1.238 . S
O766 Tb742 2.471 1_655 S
O766 C752 1.247 1_655 S
C767 C770 1.380 . S
C767 C771 1.374 1_655 S
C767 C773 1.507 . S
C768 C769 1.387 1_455 S
C768 C772 1.391 . S
C769 C768 1.387 1_655 S
C769 C770 1.384 . S
C769 H778 0.930 . S
C770 C767 1.380 . S
C770 C769 1.384 . S
C770 H779 0.931 . S
C771 C767 1.374 1_455 S
C771 C772 1.390 . S
C771 H780 0.930 . S
C772 C768 1.391 . S
C772 C771 1.390 . S
C772 H781 0.930 . S
C773 Eu743 2.825 . S
C773 O758 1.238 . S
C773 O759 1.247 1_655 S
C773 C767 1.507 . S
H774 C747 0.930 . S
H775 C748 0.931 . S
H776 C749 0.930 . S
H777 C750 0.930 . S
H778 C769 0.930 . S
H779 C770 0.931 . S
H780 C771 0.930 . S
H781 C772 0.930 . S
Tb782 C792 2.825 . S
Tb782 O793 2.347 . S
Tb782 O796 2.366 . S
Tb782 O801 2.418 . S
Tb782 O802 2.418 . S
Tb782 O805 2.479 . S
Tb782 O806 2.471 . S
Eu783 O794 2.418 . S
Eu783 O795 2.384 1_556 S
Eu783 O798 2.479 . S
Eu783 O799 2.471 . S
Eu783 O800 2.347 . S
Eu783 O803 2.366 . S
Eu783 C813 2.825 . S
C784 O800 1.259 . S
C784 O801 1.265 1_556 S
C785 O802 1.216 1_556 S
C785 O803 1.265 . S
C786 C788 1.380 . S
C786 C789 1.374 . S
C786 C792 1.507 . S
C787 C788 1.384 . S
C787 C791 1.387 . S
C787 H814 0.930 . S
C788 C786 1.380 . S
C788 C787 1.384 . S
C788 H815 0.931 . S
C789 C786 1.374 . S
C789 C790 1.390 . S
C789 H816 0.930 . S
C790 C789 1.390 . S
C790 C791 1.391 . S
C790 H817 0.930 . S
C791 C787 1.387 . S
C791 C790 1.391 . S
C792 Tb782 2.825 . S
C792 C786 1.507 . S
C792 O805 1.238 . S
C792 O806 1.247 . S
O793 Tb782 2.347 . S
O793 C797 1.259 . S
O794 Eu783 2.418 . S
O794 C797 1.265 1_556 S
O795 Eu783 2.384 1_554 S
O795 C804 1.255 . S
O796 Tb782 2.366 . S
O796 C804 1.265 . S
C797 O793 1.259 . S
C797 O794 1.265 1_554 S
O798 Eu783 2.479 . S
O798 C813 1.238 . S
O799 Eu783 2.471 . S
O799 C813 1.247 . S
O800 Eu783 2.347 . S
O800 C784 1.259 . S
O801 Tb782 2.418 . S
O801 C784 1.265 1_554 S
O802 Tb782 2.418 . S
O802 C785 1.216 1_554 S
O803 Eu783 2.366 . S
O803 C785 1.265 . S
C804 O795 1.255 . S
C804 O796 1.265 . S
O805 Tb782 2.479 . S
O805 C792 1.238 . S
O806 Tb782 2.471 . S
O806 C792 1.247 . S
C807 C810 1.380 . S
C807 C811 1.374 . S
C807 C813 1.507 . S
C808 C809 1.387 . S
C808 C812 1.391 . S
C809 C808 1.387 . S
C809 C810 1.384 . S
C809 H818 0.930 . S
C810 C807 1.380 . S
C810 C809 1.384 . S
C810 H819 0.931 . S
C811 C807 1.374 . S
C811 C812 1.390 . S
C811 H820 0.930 . S
C812 C808 1.391 . S
C812 C811 1.390 . S
C812 H821 0.930 . S
C813 Eu783 2.825 . S
C813 O798 1.238 . S
C813 O799 1.247 . S
C813 C807 1.507 . S
H814 C787 0.930 . S
H815 C788 0.931 . S
H816 C789 0.930 . S
H817 C790 0.930 . S
H818 C809 0.930 . S
H819 C810 0.931 . S
H820 C811 0.930 . S
H821 C812 0.930 . S
Tb822 C832 2.825 . S
Tb822 O833 2.347 . S
Tb822 O836 2.366 . S
Tb822 O841 2.418 . S
Tb822 O842 2.384 . S
Tb822 O845 2.479 . S
Tb822 O846 2.471 . S
Eu823 O834 2.418 . S
Eu823 O835 2.384 . S
Eu823 O838 2.479 . S
Eu823 O839 2.471 . S
Eu823 O840 2.347 . S
Eu823 O843 2.366 . S
Eu823 C853 2.825 . S
C824 O840 1.259 . S
C824 O841 1.265 . S
C825 O842 1.255 . S
C825 O843 1.265 . S
C826 C828 1.380 . S
C826 C829 1.374 . S
C826 C832 1.507 . S
C827 C828 1.384 . S
C827 C831 1.387 . S
C827 H854 0.930 . S
C828 C826 1.380 . S
C828 C827 1.384 . S
C828 H855 0.931 . S
C829 C826 1.374 . S
C829 C830 1.390 . S
C829 H856 0.930 . S
C830 C829 1.390 . S
C830 C831 1.391 . S
C830 H857 0.930 . S
C831 C827 1.387 . S
C831 C830 1.391 . S
C832 Tb822 2.825 . S
C832 C826 1.507 . S
C832 O845 1.238 . S
C832 O846 1.247 . S
O833 Tb822 2.347 . S
O833 C837 1.259 . S
O834 Eu823 2.418 . S
O834 C837 1.265 . S
O835 Eu823 2.384 . S
O835 C844 1.255 . S
O836 Tb822 2.366 . S
O836 C844 1.265 . S
C837 O833 1.259 . S
C837 O834 1.265 . S
O838 Eu823 2.479 . S
O838 C853 1.238 . S
O839 Eu823 2.471 . S
O839 C853 1.247 . S
O840 Eu823 2.347 . S
O840 C824 1.259 . S
O841 Tb822 2.418 . S
O841 C824 1.265 . S
O842 Tb822 2.384 . S
O842 C825 1.255 . S
O843 Eu823 2.366 . S
O843 C825 1.265 . S
C844 O835 1.255 . S
C844 O836 1.265 . S
O845 Tb822 2.479 . S
O845 C832 1.238 . S
O846 Tb822 2.471 . S
O846 C832 1.247 . S
C847 C850 1.380 . S
C847 C851 1.374 . S
C847 C853 1.507 . S
C848 C849 1.387 . S
C848 C852 1.391 . S
C849 C848 1.387 . S
C849 C850 1.384 . S
C849 H858 0.930 . S
C850 C847 1.380 . S
C850 C849 1.384 . S
C850 H859 0.931 . S
C851 C847 1.374 . S
C851 C852 1.390 . S
C851 H860 0.930 . S
C852 C848 1.391 . S
C852 C851 1.390 . S
C852 H861 0.930 . S
C853 Eu823 2.825 . S
C853 O838 1.238 . S
C853 O839 1.247 . S
C853 C847 1.507 . S
H854 C827 0.930 . S
H855 C828 0.931 . S
H856 C829 0.930 . S
H857 C830 0.930 . S
H858 C849 0.930 . S
H859 C850 0.931 . S
H860 C851 0.930 . S
H861 C852 0.930 . S
Tb862 C872 2.825 . S
Tb862 O873 2.347 . S
Tb862 O876 2.366 . S
Tb862 O881 2.418 . S
Tb862 O882 2.384 . S
Tb862 O885 2.479 . S
Tb862 O886 2.471 . S
Eu863 O874 2.418 . S
Eu863 O875 2.384 . S
Eu863 O878 2.479 . S
Eu863 O879 2.471 . S
Eu863 O880 2.347 . S
Eu863 O883 2.366 . S
Eu863 C893 2.825 . S
C864 O880 1.259 . S
C864 O881 1.265 . S
C865 O882 1.255 . S
C865 O883 1.265 . S
C866 C868 1.380 . S
C866 C869 1.374 . S
C866 C872 1.507 . S
C867 C868 1.384 . S
C867 C871 1.387 . S
C867 H894 0.930 . S
C868 C866 1.380 . S
C868 C867 1.384 . S
C868 H895 0.931 . S
C869 C866 1.374 . S
C869 C870 1.390 . S
C869 H896 0.930 . S
C870 C869 1.390 . S
C870 C871 1.391 . S
C870 H897 0.930 . S
C871 C867 1.387 . S
C871 C870 1.391 . S
C872 Tb862 2.825 . S
C872 C866 1.507 . S
C872 O885 1.238 . S
C872 O886 1.247 . S
O873 Tb862 2.347 . S
O873 C877 1.259 . S
O874 Eu863 2.418 . S
O874 C877 1.265 . S
O875 Eu863 2.384 . S
O875 C884 1.255 . S
O876 Tb862 2.366 . S
O876 C884 1.265 . S
C877 O873 1.259 . S
C877 O874 1.265 . S
O878 Eu863 2.479 . S
O878 C893 1.238 . S
O879 Eu863 2.471 . S
O879 C893 1.247 . S
O880 Eu863 2.347 . S
O880 C864 1.259 . S
O881 Tb862 2.418 . S
O881 C864 1.265 . S
O882 Tb862 2.384 . S
O882 C865 1.255 . S
O883 Eu863 2.366 . S
O883 C865 1.265 . S
C884 O875 1.255 . S
C884 O876 1.265 . S
O885 Tb862 2.479 . S
O885 C872 1.238 . S
O886 Tb862 2.471 . S
O886 C872 1.247 . S
C887 C890 1.380 . S
C887 C891 1.374 . S
C887 C893 1.507 . S
C888 C889 1.387 . S
C888 C892 1.391 . S
C889 C888 1.387 . S
C889 C890 1.384 . S
C889 H898 0.930 . S
C890 C887 1.380 . S
C890 C889 1.384 . S
C890 H899 0.931 . S
C891 C887 1.374 . S
C891 C892 1.390 . S
C891 H900 0.930 . S
C892 C888 1.391 . S
C892 C891 1.390 . S
C892 H901 0.930 . S
C893 Eu863 2.825 . S
C893 O878 1.238 . S
C893 O879 1.247 . S
C893 C887 1.507 . S
H894 C867 0.930 . S
H895 C868 0.931 . S
H896 C869 0.930 . S
H897 C870 0.930 . S
H898 C889 0.930 . S
H899 C890 0.931 . S
H900 C891 0.930 . S
H901 C892 0.930 . S
Tb902 C912 2.825 . S
Tb902 O913 2.347 . S
Tb902 O916 2.366 . S
Tb902 O921 2.418 . S
Tb902 O922 2.384 . S
Tb902 O925 2.479 . S
Tb902 O926 2.471 . S
Eu903 O914 2.418 . S
Eu903 O915 2.384 . S
Eu903 O918 2.479 . S
Eu903 O919 2.471 . S
Eu903 O920 2.347 . S
Eu903 O923 2.366 . S
Eu903 C933 2.825 . S
C904 O920 1.259 . S
C904 O921 1.265 . S
C905 O922 1.255 . S
C905 O923 1.265 . S
C906 C908 1.380 . S
C906 C909 1.374 . S
C906 C912 1.507 . S
C907 C908 1.384 . S
C907 C911 1.387 . S
C907 H934 0.930 . S
C908 C906 1.380 . S
C908 C907 1.384 . S
C908 H935 0.931 . S
C909 C906 1.374 . S
C909 C910 1.390 . S
C909 H936 0.930 . S
C910 C909 1.390 . S
C910 C911 1.391 . S
C910 H937 0.930 . S
C911 C907 1.387 . S
C911 C910 1.391 . S
C912 Tb902 2.825 . S
C912 C906 1.507 . S
C912 O925 1.238 . S
C912 O926 1.247 . S
O913 Tb902 2.347 . S
O913 C917 1.259 . S
O914 Eu903 2.418 . S
O914 C917 1.265 . S
O915 Eu903 2.384 . S
O915 C924 1.255 . S
O916 Tb902 2.366 . S
O916 C924 1.265 . S
C917 O913 1.259 . S
C917 O914 1.265 . S
O918 Eu903 2.479 . S
O918 C933 1.238 . S
O919 Eu903 2.471 . S
O919 C933 1.247 . S
O920 Eu903 2.347 . S
O920 C904 1.259 . S
O921 Tb902 2.418 . S
O921 C904 1.265 . S
O922 Tb902 2.384 . S
O922 C905 1.255 . S
O923 Eu903 2.366 . S
O923 C905 1.265 . S
C924 O915 1.255 . S
C924 O916 1.265 . S
O925 Tb902 2.479 . S
O925 C912 1.238 . S
O926 Tb902 2.471 . S
O926 C912 1.247 . S
C927 C930 1.380 . S
C927 C931 1.374 . S
C927 C933 1.507 . S
C928 C929 1.387 . S
C928 C932 1.391 . S
C929 C928 1.387 . S
C929 C930 1.384 . S
C929 H938 0.930 . S
C930 C927 1.380 . S
C930 C929 1.384 . S
C930 H939 0.931 . S
C931 C927 1.374 . S
C931 C932 1.390 . S
C931 H940 0.930 . S
C932 C928 1.391 . S
C932 C931 1.390 . S
C932 H941 0.930 . S
C933 Eu903 2.825 . S
C933 O918 1.238 . S
C933 O919 1.247 . S
C933 C927 1.507 . S
H934 C907 0.930 . S
H935 C908 0.931 . S
H936 C909 0.930 . S
H937 C910 0.930 . S
H938 C929 0.930 . S
H939 C930 0.931 . S
H940 C931 0.930 . S
H941 C932 0.930 . S
Tb942 C952 2.825 . S
Tb942 O953 2.347 . S
Tb942 O956 2.366 . S
Tb942 O961 2.418 . S
Tb942 O962 2.384 . S
Tb942 O965 2.479 . S
Tb942 O966 2.471 . S
Eu943 O954 2.418 . S
Eu943 O955 2.384 . S
Eu943 O958 2.479 . S
Eu943 O959 2.471 . S
Eu943 O960 2.347 . S
Eu943 O963 2.366 . S
Eu943 C973 2.825 . S
C944 O960 1.259 . S
C944 O961 1.265 . S
C945 O962 1.255 . S
C945 O963 1.265 . S
C946 C948 1.380 . S
C946 C949 1.374 . S
C946 C952 1.507 . S
C947 C948 1.384 . S
C947 C951 1.387 . S
C947 H974 0.930 . S
C948 C946 1.380 . S
C948 C947 1.384 . S
C948 H975 0.931 . S
C949 C946 1.374 . S
C949 C950 1.390 . S
C949 H976 0.930 . S
C950 C949 1.390 . S
C950 C951 1.391 . S
C950 H977 0.930 . S
C951 C947 1.387 . S
C951 C950 1.391 . S
C952 Tb942 2.825 . S
C952 C946 1.507 . S
C952 O965 1.238 . S
C952 O966 1.247 . S
O953 Tb942 2.347 . S
O953 C957 1.259 . S
O954 Eu943 2.418 . S
O954 C957 1.265 . S
O955 Eu943 2.384 . S
O955 C964 1.255 . S
O956 Tb942 2.366 . S
O956 C964 1.265 . S
C957 O953 1.259 . S
C957 O954 1.265 . S
O958 Eu943 2.479 . S
O958 C973 1.238 . S
O959 Eu943 2.471 . S
O959 C973 1.247 . S
O960 Eu943 2.347 . S
O960 C944 1.259 . S
O961 Tb942 2.418 . S
O961 C944 1.265 . S
O962 Tb942 2.384 . S
O962 C945 1.255 . S
O963 Eu943 2.366 . S
O963 C945 1.265 . S
C964 O955 1.255 . S
C964 O956 1.265 . S
O965 Tb942 2.479 . S
O965 C952 1.238 . S
O966 Tb942 2.471 . S
O966 C952 1.247 . S
C967 C970 1.380 . S
C967 C971 1.374 . S
C967 C973 1.507 . S
C968 C969 1.387 . S
C968 C972 1.391 . S
C969 C968 1.387 . S
C969 C970 1.384 . S
C969 H978 0.930 . S
C970 C967 1.380 . S
C970 C969 1.384 . S
C970 H979 0.931 . S
C971 C967 1.374 . S
C971 C972 1.390 . S
C971 H980 0.930 . S
C972 C968 1.391 . S
C972 C971 1.390 . S
C972 H981 0.930 . S
C973 Eu943 2.825 . S
C973 O958 1.238 . S
C973 O959 1.247 . S
C973 C967 1.507 . S
H974 C947 0.930 . S
H975 C948 0.931 . S
H976 C949 0.930 . S
H977 C950 0.930 . S
H978 C969 0.930 . S
H979 C970 0.931 . S
H980 C971 0.930 . S
H981 C972 0.930 . S
Tb982 C992 2.825 . S
Tb982 O993 2.347 . S
Tb982 O996 2.366 . S
Tb982 O1001 2.418 . S
Tb982 O1002 2.384 . S
Tb982 O1005 2.479 . S
Tb982 O1006 2.471 . S
Eu983 O994 2.418 . S
Eu983 O995 2.384 . S
Eu983 O998 2.479 . S
Eu983 O999 2.471 . S
Eu983 O1000 2.347 . S
Eu983 O1003 2.366 . S
Eu983 C1013 2.825 . S
C984 O1000 1.259 . S
C984 O1001 1.265 . S
C985 O1002 1.255 . S
C985 O1003 1.265 . S
C986 C988 1.380 . S
C986 C989 1.374 . S
C986 C992 1.507 . S
C987 C988 1.384 . S
C987 C991 1.387 . S
C987 H1014 0.930 . S
C988 C986 1.380 . S
C988 C987 1.384 . S
C988 H1015 0.931 . S
C989 C986 1.374 . S
C989 C990 1.390 . S
C989 H1016 0.930 . S
C990 C989 1.390 . S
C990 C991 1.391 . S
C990 H1017 0.930 . S
C991 C987 1.387 . S
C991 C990 1.391 . S
C992 Tb982 2.825 . S
C992 C986 1.507 . S
C992 O1005 1.238 . S
C992 O1006 1.247 . S
O993 Tb982 2.347 . S
O993 C997 1.259 . S
O994 Eu983 2.418 . S
O994 C997 1.265 . S
O995 Eu983 2.384 . S
O995 C1004 1.255 . S
O996 Tb982 2.366 . S
O996 C1004 1.265 . S
C997 O993 1.259 . S
C997 O994 1.265 . S
O998 Eu983 2.479 . S
O998 C1013 1.238 . S
O999 Eu983 2.471 . S
O999 C1013 1.247 . S
O1000 Eu983 2.347 . S
O1000 C984 1.259 . S
O1001 Tb982 2.418 . S
O1001 C984 1.265 . S
O1002 Tb982 2.384 . S
O1002 C985 1.255 . S
O1003 Eu983 2.366 . S
O1003 C985 1.265 . S
C1004 O995 1.255 . S
C1004 O996 1.265 . S
O1005 Tb982 2.479 . S
O1005 C992 1.238 . S
O1006 Tb982 2.471 . S
O1006 C992 1.247 . S
C1007 C1010 1.380 . S
C1007 C1011 1.374 . S
C1007 C1013 1.507 . S
C1008 C1009 1.387 . S
C1008 C1012 1.391 . S
C1009 C1008 1.387 . S
C1009 C1010 1.384 . S
C1009 H1018 0.930 . S
C1010 C1007 1.380 . S
C1010 C1009 1.384 . S
C1010 H1019 0.931 . S
C1011 C1007 1.374 . S
C1011 C1012 1.390 . S
C1011 H1020 0.930 . S
C1012 C1008 1.391 . S
C1012 C1011 1.390 . S
C1012 H1021 0.930 . S
C1013 Eu983 2.825 . S
C1013 O998 1.238 . S
C1013 O999 1.247 . S
C1013 C1007 1.507 . S
H1014 C987 0.930 . S
H1015 C988 0.931 . S
H1016 C989 0.930 . S
H1017 C990 0.930 . S
H1018 C1009 0.930 . S
H1019 C1010 0.931 . S
H1020 C1011 0.930 . S
H1021 C1012 0.930 . S
Tb1022 C1032 2.825 . S
Tb1022 O1033 2.347 . S
Tb1022 O1036 2.366 . S
Tb1022 O1041 2.418 . S
Tb1022 O1042 2.384 . S
Tb1022 O1045 2.479 . S
Tb1022 O1046 2.471 . S
Eu1023 O1034 2.418 . S
Eu1023 O1035 2.384 . S
Eu1023 O1038 2.479 . S
Eu1023 O1039 2.471 . S
Eu1023 O1040 2.347 . S
Eu1023 O1043 2.366 . S
Eu1023 C1053 2.825 . S
C1024 O1040 1.259 . S
C1024 O1041 1.265 . S
C1025 O1042 1.255 . S
C1025 O1043 1.265 . S
C1026 C1028 1.380 . S
C1026 C1029 1.374 . S
C1026 C1032 1.507 . S
C1027 C1028 1.384 . S
C1027 C1031 1.387 . S
C1027 H1054 0.930 . S
C1028 C1026 1.380 . S
C1028 C1027 1.384 . S
C1028 H1055 0.931 . S
C1029 C1026 1.374 . S
C1029 C1030 1.390 . S
C1029 H1056 0.930 . S
C1030 C1029 1.390 . S
C1030 C1031 1.391 . S
C1030 H1057 0.930 . S
C1031 C1027 1.387 . S
C1031 C1030 1.391 . S
C1032 Tb1022 2.825 . S
C1032 C1026 1.507 . S
C1032 O1045 1.238 . S
C1032 O1046 1.247 . S
O1033 Tb1022 2.347 . S
O1033 C1037 1.259 . S
O1034 Eu1023 2.418 . S
O1034 C1037 1.265 . S
O1035 Eu1023 2.384 . S
O1035 C1044 1.255 . S
O1036 Tb1022 2.366 . S
O1036 C1044 1.265 . S
C1037 O1033 1.259 . S
C1037 O1034 1.265 . S
O1038 Eu1023 2.479 . S
O1038 C1053 1.238 . S
O1039 Eu1023 2.471 . S
O1039 C1053 1.247 . S
O1040 Eu1023 2.347 . S
O1040 C1024 1.259 . S
O1041 Tb1022 2.418 . S
O1041 C1024 1.265 . S
O1042 Tb1022 2.384 . S
O1042 C1025 1.255 . S
O1043 Eu1023 2.366 . S
O1043 C1025 1.265 . S
C1044 O1035 1.255 . S
C1044 O1036 1.265 . S
O1045 Tb1022 2.479 . S
O1045 C1032 1.238 . S
O1046 Tb1022 2.471 . S
O1046 C1032 1.247 . S
C1047 C1050 1.380 . S
C1047 C1051 1.374 . S
C1047 C1053 1.507 . S
C1048 C1049 1.387 . S
C1048 C1052 1.391 . S
C1049 C1048 1.387 . S
C1049 C1050 1.384 . S
C1049 H1058 0.930 . S
C1050 C1047 1.380 . S
C1050 C1049 1.384 . S
C1050 H1059 0.931 . S
C1051 C1047 1.374 . S
C1051 C1052 1.390 . S
C1051 H1060 0.930 . S
C1052 C1048 1.391 . S
C1052 C1051 1.390 . S
C1052 H1061 0.930 . S
C1053 Eu1023 2.825 . S
C1053 O1038 1.238 . S
C1053 O1039 1.247 . S
C1053 C1047 1.507 . S
H1054 C1027 0.930 . S
H1055 C1028 0.931 . S
H1056 C1029 0.930 . S
H1057 C1030 0.930 . S
H1058 C1049 0.930 . S
H1059 C1050 0.931 . S
H1060 C1051 0.930 . S
H1061 C1052 0.930 . S
C528 C705 2.411 . S
C562 C745 2.201 . S
C484 C797 2.569 . S
C445 C757 2.166 . S
C785 C367 1.914 . S
C411 C717 2.321 . S
C724 C450 2.389 . S
C764 C372 2.162 . S
C406 C784 2.561 . S
C523 C744 2.157 . S
C567 C804 1.858 . S
C704 C489 2.294 . S
C825 C60 2.411 . S
C94 C865 2.201 . S
C16 C917 2.569 . S
C679 C877 2.167 . S
C601 C905 1.915 . S
C645 C837 2.321 . S
C684 C844 2.391 . S
C606 C884 2.162 . S
C904 C640 2.562 . S
C55 C864 2.157 . S
C924 C99 1.857 . S
C21 C824 2.293 . S
C945 C294 2.412 . S
C328 C985 2.201 . S
C1037 C250 2.569 . S
C997 C211 2.167 . S
C1025 C133 1.913 . S
C177 C957 2.320 . S
C216 C964 2.390 . S
C138 C1004 2.161 . S
C1024 C172 2.561 . S
C289 C984 2.158 . S
C333 C1044 1.858 . S
C255 C944 2.294 . S
C586 C728 1.559 . S
C768 C625 2.189 1_455 S
C664 C791 1.636 . S
C235 C751 2.179 1_455 S
C274 C808 1.627 . S
C711 C313 1.572 . S
C118 C848 1.555 . S
C157 C888 2.188 . S
C196 C911 1.636 . S
C469 C871 2.179 . S
C928 C508 1.626 . S
C547 C831 1.558 . S
C352 C968 1.555 . S
C391 C1008 2.189 . S
C1031 C430 1.636 . S
C1 C991 2.179 . S
C40 C1048 1.627 . S
C79 C951 1.559 . S
