# Generated by pormake.
# Topology rtl, (3,6)-cn, num edge types: 1
# Building blocks:
#     Node 0, Type 0, BuildingBlock: MIDCAF_clean_linker_0, # of connection points: 3
#     Node 1, Type 0, BuildingBlock: MIDCAF_clean_linker_0, # of connection points: 3
#     Node 2, Type 0, BuildingBlock: MIDCAF_clean_linker_0, # of connection points: 3
#     Node 3, Type 0, BuildingBlock: MIDCAF_clean_linker_0, # of connection points: 3
#     Node 4, Type 1, BuildingBlock: FUNLAD_clean_sbu_0, # of connection points: 6
#     Node 5, Type 1, BuildingBlock: FUNLAD_clean_sbu_0, # of connection points: 6
#     Edge 6, Type (0, 1), BuildingBlock: ZUJKAS_clean_linker_0, # of connection points: 2
#     Edge 7, Type (0, 1), BuildingBlock: ZUJKAS_clean_linker_0, # of connection points: 2
#     Edge 8, Type (0, 1), BuildingBlock: ZUJKAS_clean_linker_0, # of connection points: 2
#     Edge 9, Type (0, 1), BuildingBlock: ZUJKAS_clean_linker_0, # of connection points: 2
#     Edge 10, Type (0, 1), BuildingBlock: ZUJKAS_clean_linker_0, # of connection points: 2
#     Edge 11, Type (0, 1), BuildingBlock: ZUJKAS_clean_linker_0, # of connection points: 2
#     Edge 12, Type (0, 1), BuildingBlock: ZUJKAS_clean_linker_0, # of connection points: 2
#     Edge 13, Type (0, 1), BuildingBlock: ZUJKAS_clean_linker_0, # of connection points: 2
#     Edge 14, Type (0, 1), BuildingBlock: ZUJKAS_clean_linker_0, # of connection points: 2
#     Edge 15, Type (0, 1), BuildingBlock: ZUJKAS_clean_linker_0, # of connection points: 2
#     Edge 16, Type (0, 1), BuildingBlock: ZUJKAS_clean_linker_0, # of connection points: 2
#     Edge 17, Type (0, 1), BuildingBlock: ZUJKAS_clean_linker_0, # of connection points: 2
# Relax obj value: 0.029
# Max RMSD: 0.085
# Mean RMSD: 0.074
data_MOF--net-rtl--node1-FUNLAD_clean_sbu_0--node2-MIDCAF_clean_linker_0--edge1-ZUJKAS_clean_linker_0
_symmetry_space_group_name_H-M    P1
_symmetry_Int_Tables_number       1
_symmetry_cell_setting            triclinic
loop_
_symmetry_equiv_pos_as_xyz
'x, y, z'
_cell_length_a     59.330258
_cell_length_b     48.727136
_cell_length_c     35.244833
_cell_angle_alpha  89.76419
_cell_angle_beta   90.936591
_cell_angle_gamma 90.640409
loop_
_atom_site_label
_atom_site_type_symbol
_atom_site_fract_x
_atom_site_fract_y
_atom_site_fract_z
_atom_type_partial_charge
C0 C 0.08005 0.80068 0.11014 0.0
C1 C 0.09043 0.79559 0.14551 0.0
C2 C 0.10829 0.77691 0.14766 0.0
C3 C 0.11612 0.76433 0.11481 0.0
H4 H 0.16538 0.7125 0.07446 0.0
H5 H 0.19996 0.68591 0.07566 0.0
H6 H 0.20034 0.68627 0.95314 0.0
H7 H 0.16605 0.71309 0.95173 0.0
H8 H 0.13351 0.75168 0.90604 0.0
H9 H 0.1202 0.77199 0.8465 0.0
H10 H 0.06408 0.80753 0.90454 0.0
H11 H 0.07709 0.78709 0.96387 0.0
H12 H 0.07951 0.79294 0.05065 0.0
H13 H 0.06598 0.81459 0.10767 0.0
H14 H 0.11668 0.77267 0.17454 0.0
H15 H 0.13028 0.75056 0.11731 0.0
N16 N 0.13349 0.74182 0.04475 0.0
N17 N 0.13358 0.74087 0.97816 0.0
N18 N 0.10658 0.7665 0.00966 0.0
C19 C 0.14262 0.73269 0.01201 0.0
C20 C 0.1155 0.75769 0.97675 0.0
C21 C 0.11539 0.75871 0.04377 0.0
C22 C 0.16293 0.71516 0.013 0.0
C23 C 0.17275 0.70683 0.04774 0.0
C24 C 0.19252 0.69145 0.04846 0.0
C25 C 0.20296 0.68414 0.0145 0.0
C26 C 0.1929 0.69195 0.97981 0.0
C27 C 0.17313 0.70723 0.97905 0.0
C28 C 0.10648 0.7679 0.93989 0.0
C29 C 0.11818 0.76355 0.90608 0.0
C30 C 0.11064 0.7753 0.87197 0.0
C31 C 0.09116 0.79145 0.87087 0.0
C32 C 0.07903 0.79497 0.90437 0.0
C33 C 0.08661 0.78338 0.93847 0.0
C34 C 0.10617 0.77013 0.0792 0.0
C35 C 0.08778 0.78811 0.07743 0.0
C36 C 0.57321 0.71775 0.40039 0.0
C37 C 0.58568 0.72173 0.36725 0.0
C38 C 0.60496 0.73876 0.3687 0.0
C39 C 0.61201 0.75084 0.40287 0.0
H40 H 0.65854 0.80441 0.44976 0.0
H41 H 0.69342 0.83107 0.45225 0.0
H42 H 0.69356 0.82699 0.57469 0.0
H43 H 0.65884 0.79988 0.57239 0.0
H44 H 0.62275 0.763 0.61399 0.0
H45 H 0.60995 0.7392 0.6709 0.0
H46 H 0.56039 0.69462 0.60372 0.0
H47 H 0.57317 0.718 0.54688 0.0
H48 H 0.57056 0.72556 0.45971 0.0
H49 H 0.55841 0.70454 0.40029 0.0
H50 H 0.61477 0.74244 0.34349 0.0
H51 H 0.62722 0.76333 0.40314 0.0
N52 N 0.62668 0.77373 0.47521 0.0
N53 N 0.62628 0.77201 0.54174 0.0
N54 N 0.59964 0.7468 0.50613 0.0
C55 C 0.63552 0.78182 0.50926 0.0
C56 C 0.60827 0.75453 0.54041 0.0
C57 C 0.60867 0.7563 0.47341 0.0
C58 C 0.65588 0.79977 0.51087 0.0
C59 C 0.66587 0.80929 0.47728 0.0
C60 C 0.68584 0.82476 0.47868 0.0
C61 C 0.69631 0.83106 0.51366 0.0
C62 C 0.68607 0.82214 0.54727 0.0
C63 C 0.66608 0.8067 0.54591 0.0
C64 C 0.59919 0.74225 0.57567 0.0
C65 C 0.60899 0.74831 0.61134 0.0
C66 C 0.6016 0.73477 0.64402 0.0
C67 C 0.58434 0.71483 0.64168 0.0
C68 C 0.57401 0.70952 0.6063 0.0
C69 C 0.58131 0.72308 0.57372 0.0
C70 C 0.60002 0.74596 0.43638 0.0
C71 C 0.5803 0.72968 0.43455 0.0
C72 C 0.94064 0.21463 0.89446 0.0
C73 C 0.92806 0.21741 0.86059 0.0
C74 C 0.90784 0.23216 0.86101 0.0
C75 C 0.90009 0.24331 0.89485 0.0
H76 H 0.85216 0.29405 0.93941 0.0
H77 H 0.81805 0.32128 0.94047 0.0
H78 H 0.8199 0.31998 0.063 0.0
H79 H 0.85423 0.29309 0.06217 0.0
H80 H 0.88921 0.25483 0.10558 0.0
H81 H 0.90268 0.23185 0.16319 0.0
H82 H 0.95184 0.18856 0.09793 0.0
H83 H 0.93841 0.21111 0.04047 0.0
H84 H 0.94275 0.22246 0.95398 0.0
H85 H 0.95617 0.20314 0.89514 0.0
H86 H 0.8979 0.23484 0.83524 0.0
H87 H 0.88422 0.25409 0.89434 0.0
N88 N 0.88513 0.26595 0.96646 0.0
N89 N 0.88535 0.26375 0.03302 0.0
N90 N 0.91214 0.23964 0.99873 0.0
C91 C 0.87618 0.27352 8e-05 0.0
C92 C 0.90338 0.24679 0.03256 0.0
C93 C 0.9032 0.24911 0.96559 0.0
C94 C 0.85597 0.29119 0.00071 0.0
C95 C 0.84543 0.29966 0.96664 0.0
C96 C 0.82578 0.31517 0.9672 0.0
C97 C 0.81621 0.32267 0.00181 0.0
C98 C 0.82697 0.31475 0.03587 0.0
C99 C 0.84661 0.29917 0.03534 0.0
C100 C 0.91256 0.23469 0.06821 0.0
C101 C 0.903 0.24056 0.10351 0.0
C102 C 0.91076 0.22748 0.13658 0.0
C103 C 0.92816 0.2082 0.13499 0.0
C104 C 0.93813 0.20296 0.09994 0.0
C105 C 0.93047 0.21605 0.067 0.0
C106 C 0.91229 0.23966 0.92902 0.0
C107 C 0.93283 0.22555 0.92828 0.0
C108 C 0.44807 0.29335 0.60628 0.0
C109 C 0.43709 0.2892 0.64087 0.0
C110 C 0.419 0.27037 0.64232 0.0
C111 C 0.41146 0.25685 0.60948 0.0
H112 H 0.36081 0.20681 0.56848 0.0
H113 H 0.32551 0.18091 0.56937 0.0
H114 H 0.32518 0.17701 0.44696 0.0
H115 H 0.36066 0.20252 0.44588 0.0
H116 H 0.39041 0.2497 0.40265 0.0
H117 H 0.40315 0.27235 0.34505 0.0
H118 H 0.46669 0.29236 0.40063 0.0
H119 H 0.45361 0.27065 0.45861 0.0
H120 H 0.44923 0.28403 0.54726 0.0
H121 H 0.46233 0.30735 0.60442 0.0
H122 H 0.41014 0.26685 0.66855 0.0
H123 H 0.39705 0.24311 0.61138 0.0
N124 N 0.39403 0.23328 0.5393 0.0
N125 N 0.39345 0.23188 0.47274 0.0
N126 N 0.42144 0.25729 0.50501 0.0
C127 C 0.38444 0.22403 0.50637 0.0
C128 C 0.41204 0.24838 0.47187 0.0
C129 C 0.41257 0.24989 0.53885 0.0
C130 C 0.36359 0.20695 0.50708 0.0
C131 C 0.35334 0.20032 0.5417 0.0
C132 C 0.33301 0.18558 0.54225 0.0
C133 C 0.32248 0.17705 0.50823 0.0
C134 C 0.33297 0.18306 0.47368 0.0
C135 C 0.35328 0.19786 0.4731 0.0
C136 C 0.42087 0.25869 0.43539 0.0
C137 C 0.40721 0.25862 0.40243 0.0
C138 C 0.41457 0.27154 0.3693 0.0
C139 C 0.43586 0.28453 0.36828 0.0
C140 C 0.44997 0.2832 0.40066 0.0
C141 C 0.44252 0.27059 0.43388 0.0
C142 C 0.4219 0.26185 0.57451 0.0
C143 C 0.4406 0.27983 0.57352 0.0
C144 C 0.02195 0.96557 0.45297 0.0
N145 N 0.05874 0.02874 0.50662 0.0
C146 C 0.07677 0.01171 0.50675 0.0
C147 C 0.09867 0.02248 0.50683 0.0
C148 C 0.10208 0.05105 0.50689 0.0
C149 C 0.08316 0.06812 0.50671 0.0
C150 C 0.06155 0.05649 0.50653 0.0
Zn151 Zn 0.02691 0.01236 0.50674 0.0
C152 C 0.99677 0.03939 0.44998 0.0
N153 N 0.96046 0.97793 0.50708 0.0
C154 C 0.95772 0.95021 0.50904 0.0
C155 C 0.9424 0.99489 0.50562 0.0
C156 C 0.92051 0.98408 0.5062 0.0
C157 C 0.91717 0.95553 0.50842 0.0
C158 C 0.93614 0.93854 0.50978 0.0
Zn159 Zn 0.99229 0.99434 0.50682 0.0
O160 O 0.03595 0.98365 0.46479 0.0
C161 C 0.0225 0.9674 0.56363 0.0
O162 O 0.0021 0.96512 0.46603 0.0
H163 H 0.94496 0.01688 0.50419 0.0
H164 H 0.07416 0.98971 0.50693 0.0
H165 H 0.9723 0.9371 0.51006 0.0
O166 O 0.03663 0.98433 0.54983 0.0
O167 O 0.00228 0.96727 0.55112 0.0
H168 H 0.04699 0.06965 0.50629 0.0
O169 O 0.98298 0.02378 0.54759 0.0
O170 O 0.01736 0.04083 0.54867 0.0
O171 O 0.98282 0.0217 0.46254 0.0
O172 O 0.01672 0.04019 0.46367 0.0
C173 C 0.99725 0.04113 0.56056 0.0
H174 H 0.11279 0.00857 0.50741 0.0
H175 H 0.08501 0.09026 0.50625 0.0
H176 H 0.90637 0.99795 0.50553 0.0
H177 H 0.93433 0.91641 0.511 0.0
C178 C 0.49663 0.46597 0.95242 0.0
N179 N 0.55846 0.4786 0.00913 0.0
C180 C 0.56073 0.45085 0.00873 0.0
C181 C 0.58209 0.43919 0.00825 0.0
C182 C 0.60135 0.45621 0.0083 0.0
C183 C 0.59853 0.48478 0.00908 0.0
C184 C 0.57682 0.4956 0.00939 0.0
Zn185 Zn 0.52675 0.49461 0.00873 0.0
C186 C 0.52187 0.54032 0.95315 0.0
N187 N 0.46023 0.5272 0.00723 0.0
C188 C 0.44187 0.51019 0.00723 0.0
C189 C 0.45794 0.55495 0.0075 0.0
C190 C 0.43658 0.56661 0.00783 0.0
C191 C 0.41732 0.54959 0.008 0.0
C192 C 0.42016 0.521 0.0077 0.0
Zn193 Zn 0.49195 0.51122 0.00754 0.0
O194 O 0.51645 0.4661 0.96664 0.0
C195 C 0.49678 0.46541 0.06292 0.0
O196 O 0.48244 0.4833 0.96394 0.0
H197 H 0.47274 0.56811 0.0077 0.0
H198 H 0.54593 0.4377 0.00869 0.0
H199 H 0.44407 0.48819 0.00693 0.0
O200 O 0.51701 0.4665 0.05166 0.0
O201 O 0.48241 0.4819 0.04892 0.0
H202 H 0.57462 0.51761 0.0096 0.0
O203 O 0.50199 0.53889 0.05122 0.0
O204 O 0.53654 0.52332 0.05078 0.0
O205 O 0.50199 0.54019 0.96604 0.0
O206 O 0.53599 0.52295 0.96575 0.0
C207 C 0.52216 0.53976 0.06391 0.0
H208 H 0.5835 0.41704 0.0082 0.0
H209 H 0.61292 0.49864 0.00879 0.0
H210 H 0.43518 0.58875 0.00859 0.0
H211 H 0.40576 0.50714 0.00743 0.0
H212 H 0.3085 0.13277 0.46591 0.0
H213 H 0.27119 0.11064 0.46507 0.0
H214 H 0.24917 0.16646 0.55117 0.0
H215 H 0.28615 0.18911 0.55156 0.0
H216 H 0.24748 0.08544 0.52668 0.0
H217 H 0.20161 0.1742 0.46485 0.0
H218 H 0.2319 0.17133 0.46326 0.0
H219 H 0.21862 0.18205 0.50612 0.0
C220 C 0.29565 0.14044 0.48447 0.0
C221 C 0.30024 0.16276 0.50869 0.0
C222 C 0.27442 0.12769 0.4841 0.0
C223 C 0.25739 0.13719 0.50768 0.0
C224 C 0.26202 0.15911 0.53236 0.0
H225 H 0.11807 0.09473 0.54818 0.0
H226 H 0.15609 0.11465 0.54822 0.0
C227 C 0.28323 0.17182 0.53282 0.0
C228 C 0.23475 0.12415 0.50662 0.0
H229 H 0.17931 0.13704 0.48728 0.0
C230 C 0.23256 0.09661 0.51787 0.0
C231 C 0.21539 0.13887 0.49511 0.0
C232 C 0.21691 0.16818 0.48132 0.0
C233 C 0.21137 0.08355 0.51884 0.0
C234 C 0.19197 0.09833 0.50756 0.0
C235 C 0.19422 0.12581 0.49602 0.0
C236 C 0.16912 0.0858 0.50779 0.0
C237 C 0.20985 0.0543 0.53288 0.0
C238 C 0.16381 0.06315 0.48474 0.0
C239 C 0.14208 0.05176 0.48458 0.0
C240 C 0.12522 0.06298 0.50724 0.0
C241 C 0.1306 0.0858 0.5301 0.0
C242 C 0.15233 0.09712 0.5303 0.0
H243 H 0.22517 0.04835 0.54935 0.0
H244 H 0.19489 0.05122 0.55101 0.0
H245 H 0.20813 0.04032 0.5082 0.0
H246 H 0.17638 0.05451 0.46648 0.0
H247 H 0.13837 0.03449 0.46618 0.0
H248 H 0.21499 0.64031 0.05923 0.0
H249 H 0.2511 0.61624 0.06049 0.0
H250 H 0.27564 0.66963 0.97209 0.0
H251 H 0.2399 0.69409 0.97116 0.0
H252 H 0.27277 0.58909 0.99824 0.0
H253 H 0.32434 0.67503 0.05744 0.0
H254 H 0.29397 0.67385 0.06017 0.0
H255 H 0.30727 0.68396 0.01677 0.0
C256 C 0.22816 0.64705 0.0403 0.0
C257 C 0.22461 0.66913 0.01514 0.0
C258 C 0.2487 0.6332 0.04091 0.0
C259 C 0.26608 0.6414 0.0167 0.0
C260 C 0.26253 0.66324 0.99136 0.0
H261 H 0.40175 0.59375 0.96773 0.0
H262 H 0.36454 0.61464 0.97056 0.0
C263 C 0.24202 0.67701 0.99061 0.0
C264 C 0.28791 0.627 0.01745 0.0
H265 H 0.34427 0.637 0.03348 0.0
C266 C 0.28841 0.59942 0.00623 0.0
C267 C 0.30822 0.64063 0.02788 0.0
C268 C 0.30851 0.66993 0.04158 0.0
C269 C 0.30887 0.58532 0.00398 0.0
C270 C 0.32924 0.59909 0.01391 0.0
C271 C 0.32864 0.62654 0.02573 0.0
C272 C 0.35145 0.58565 0.01157 0.0
C273 C 0.30858 0.55613 0.98981 0.0
C274 C 0.35646 0.56249 0.03383 0.0
C275 C 0.37774 0.55052 0.0323 0.0
C276 C 0.39446 0.56167 0.00875 0.0
C277 C 0.38934 0.58486 0.98647 0.0
C278 C 0.36806 0.59674 0.98794 0.0
H279 H 0.29254 0.55096 0.97461 0.0
H280 H 0.32282 0.55254 0.97046 0.0
H281 H 0.31034 0.54193 0.01433 0.0
H282 H 0.34405 0.55398 0.0529 0.0
H283 H 0.38127 0.53294 0.05024 0.0
H284 H 0.73304 0.81996 0.55872 0.0
H285 H 0.76982 0.8431 0.55898 0.0
H286 H 0.74657 0.89799 0.47078 0.0
H287 H 0.70949 0.87544 0.47103 0.0
H288 H 0.79869 0.84752 0.49641 0.0
H289 H 0.77502 0.95006 0.55041 0.0
H290 H 0.75706 0.92012 0.55526 0.0
H291 H 0.75848 0.93792 0.51061 0.0
C292 C 0.73559 0.83729 0.53988 0.0
C293 C 0.7183 0.84594 0.51496 0.0
C294 C 0.75667 0.85036 0.53989 0.0
C295 C 0.76082 0.87242 0.51521 0.0
C296 C 0.74358 0.88127 0.49049 0.0
H297 H 0.88008 0.9707 0.4664 0.0
H298 H 0.84213 0.95048 0.46782 0.0
C299 C 0.72249 0.86819 0.4904 0.0
C300 C 0.78354 0.88522 0.51408 0.0
H301 H 0.81235 0.94541 0.52849 0.0
C302 C 0.80172 0.86889 0.50356 0.0
C303 C 0.78735 0.91313 0.52322 0.0
C304 C 0.76851 0.93134 0.53582 0.0
C305 C 0.82365 0.87981 0.50153 0.0
C306 C 0.82751 0.90767 0.51099 0.0
C307 C 0.80931 0.92406 0.52129 0.0
C308 C 0.8504 0.92012 0.51064 0.0
C309 C 0.84239 0.86157 0.48854 0.0
C310 C 0.86748 0.91001 0.53469 0.0
C311 C 0.88914 0.92152 0.53399 0.0
C312 C 0.89407 0.94353 0.50943 0.0
C313 C 0.87678 0.95392 0.48584 0.0
C314 C 0.85513 0.94234 0.48651 0.0
H315 H 0.83575 0.84339 0.47285 0.0
H316 H 0.8542 0.87301 0.46998 0.0
H317 H 0.85202 0.85407 0.51369 0.0
H318 H 0.86403 0.89329 0.55416 0.0
H319 H 0.90195 0.91341 0.55303 0.0
H320 H 0.80511 0.36577 0.04739 0.0
H321 H 0.76899 0.38964 0.04954 0.0
H322 H 0.74282 0.33835 0.95931 0.0
H323 H 0.7786 0.31402 0.9575 0.0
H324 H 0.74548 0.41819 0.98891 0.0
H325 H 0.69643 0.32971 0.04538 0.0
H326 H 0.72685 0.33131 0.0475 0.0
H327 H 0.7125 0.32241 0.00391 0.0
C328 C 0.79161 0.35947 0.02819 0.0
C329 C 0.79468 0.33793 0.00237 0.0
C330 C 0.77106 0.37322 0.02931 0.0
C331 C 0.75321 0.36549 0.00492 0.0
C332 C 0.75632 0.34435 0.97872 0.0
H333 H 0.61535 0.41332 0.96524 0.0
H334 H 0.65269 0.39262 0.96477 0.0
C335 C 0.77685 0.33066 0.97748 0.0
C336 C 0.73126 0.37951 0.00674 0.0
H337 H 0.67556 0.36837 0.02478 0.0
C338 C 0.73019 0.40741 0.99697 0.0
C339 C 0.7114 0.36531 0.01729 0.0
C340 C 0.71177 0.33559 0.02945 0.0
C341 C 0.70959 0.42135 0.99642 0.0
C342 C 0.68968 0.40707 0.00662 0.0
C343 C 0.69084 0.37924 0.01684 0.0
C344 C 0.66734 0.42038 0.00635 0.0
C345 C 0.70922 0.45098 0.98382 0.0
C346 C 0.66316 0.44277 0.03007 0.0
C347 C 0.64181 0.45464 0.03042 0.0
C348 C 0.6242 0.44413 0.00735 0.0
C349 C 0.62848 0.42168 0.98367 0.0
C350 C 0.64982 0.40991 0.98323 0.0
H351 H 0.72459 0.45675 0.96791 0.0
H352 H 0.69418 0.45513 0.9656 0.0
H353 H 0.70845 0.46435 0.00916 0.0
H354 H 0.6763 0.45077 0.04878 0.0
H355 H 0.63896 0.47164 0.04938 0.0
H356 H 0.08346 0.77521 0.21716 0.0
H357 H 0.07047 0.80037 0.27275 0.0
H358 H 0.06832 0.87493 0.20647 0.0
H359 H 0.08112 0.85003 0.15105 0.0
H360 H 0.08932 0.84466 0.31047 0.0
H361 H 0.00555 0.87169 0.25081 0.0
H362 H 0.02317 0.84615 0.22966 0.0
H363 H 0.0281 0.88207 0.22045 0.0
C364 C 0.08025 0.79698 0.21454 0.0
C365 C 0.08303 0.81058 0.17963 0.0
C366 C 0.07277 0.81128 0.24623 0.0
C367 C 0.06795 0.83938 0.24348 0.0
C368 C 0.07129 0.8531 0.20893 0.0
H369 H 0.06146 0.96398 0.4143 0.0
H370 H 0.07221 0.93113 0.36588 0.0
C371 C 0.07864 0.83884 0.17729 0.0
C372 C 0.05992 0.85469 0.27678 0.0
H373 H 0.01813 0.89712 0.30533 0.0
C374 C 0.07364 0.85589 0.30956 0.0
C375 C 0.03926 0.86893 0.2758 0.0
C376 C 0.02306 0.86694 0.24243 0.0
C377 C 0.06769 0.87191 0.3408 0.0
C378 C 0.04774 0.88755 0.33881 0.0
C379 C 0.03358 0.88542 0.30665 0.0
C380 C 0.04151 0.90687 0.36919 0.0
C381 C 0.08282 0.87185 0.37563 0.0
C382 C 0.0204 0.90462 0.38644 0.0
C383 C 0.01405 0.92362 0.41377 0.0
C384 C 0.0287 0.94527 0.42431 0.0
C385 C 0.04984 0.94745 0.40701 0.0
C386 C 0.0561 0.92854 0.37954 0.0
H387 H 0.09293 0.85282 0.37746 0.0
H388 H 0.09474 0.88951 0.37414 0.0
H389 H 0.07293 0.87371 0.40195 0.0
H390 H 0.00881 0.88817 0.37868 0.0
H391 H 0.99766 0.92135 0.42657 0.0
H392 H 0.57692 0.73335 0.71377 0.0
H393 H 0.56603 0.70606 0.7693 0.0
H394 H 0.56638 0.63257 0.70149 0.0
H395 H 0.57705 0.65963 0.64605 0.0
H396 H 0.52877 0.63596 0.74446 0.0
H397 H 0.60573 0.65524 0.83264 0.0
H398 H 0.59152 0.68569 0.81693 0.0
H399 H 0.60418 0.66361 0.78275 0.0
C400 C 0.57482 0.71135 0.71085 0.0
C401 C 0.57777 0.69863 0.67556 0.0
C402 C 0.56866 0.69579 0.74258 0.0
C403 C 0.56567 0.66724 0.73961 0.0
C404 C 0.56859 0.65457 0.7044 0.0
H405 H 0.56096 0.54215 0.91313 0.0
H406 H 0.57095 0.57408 0.86224 0.0
C407 C 0.57459 0.67008 0.67272 0.0
C408 C 0.55904 0.65041 0.7728 0.0
H409 H 0.57616 0.63011 0.86142 0.0
C410 C 0.5391 0.63471 0.77009 0.0
C411 C 0.57269 0.64861 0.80598 0.0
C412 C 0.59483 0.66397 0.80978 0.0
C413 C 0.53248 0.61711 0.79956 0.0
C414 C 0.54591 0.61568 0.83304 0.0
C415 C 0.56581 0.63145 0.83583 0.0
C416 C 0.54003 0.5971 0.86485 0.0
C417 C 0.51154 0.5996 0.79402 0.0
C418 C 0.5195 0.59975 0.88362 0.0
C419 C 0.51364 0.58139 0.91246 0.0
C420 C 0.52836 0.56024 0.9234 0.0
C421 C 0.54921 0.55815 0.90529 0.0
C422 C 0.55497 0.57641 0.87627 0.0
H423 H 0.50662 0.59783 0.76356 0.0
H424 H 0.51403 0.57864 0.80573 0.0
H425 H 0.49735 0.6091 0.80909 0.0
H426 H 0.50795 0.61597 0.87586 0.0
H427 H 0.49756 0.58375 0.92614 0.0
H428 H 0.93618 0.22811 0.20671 0.0
H429 H 0.94893 0.20234 0.2629 0.0
H430 H 0.94884 0.12789 0.19712 0.0
H431 H 0.93628 0.15342 0.14106 0.0
H432 H 0.92923 0.15865 0.30015 0.0
H433 H 0.01196 0.12885 0.24367 0.0
H434 H 0.99478 0.155 0.22167 0.0
H435 H 0.98889 0.11926 0.21277 0.0
C436 C 0.93885 0.20624 0.20432 0.0
C437 C 0.93549 0.19283 0.16939 0.0
C438 C 0.94618 0.19158 0.23636 0.0
C439 C 0.95029 0.16332 0.23394 0.0
C440 C 0.94641 0.14982 0.19934 0.0
H441 H 0.95695 0.0402 0.40981 0.0
H442 H 0.94592 0.07205 0.35928 0.0
C443 C 0.9392 0.16443 0.16735 0.0
C444 C 0.95819 0.14768 0.26766 0.0
H445 H 0.99949 0.10442 0.29857 0.0
C446 C 0.9447 0.14699 0.3 0.0
C447 C 0.97856 0.13286 0.26762 0.0
C448 C 0.99451 0.13422 0.23472 0.0
C449 C 0.95064 0.13106 0.33183 0.0
C450 C 0.97035 0.11499 0.33089 0.0
C451 C 0.98423 0.11647 0.29907 0.0
C452 C 0.97677 0.09615 0.36229 0.0
C453 C 0.93583 0.13175 0.3662 0.0
C454 C 0.99802 0.09865 0.38008 0.0
C455 C 0.00451 0.08024 0.40861 0.0
C456 C 0.98986 0.05894 0.41986 0.0
C457 C 0.96858 0.05648 0.40198 0.0
C458 C 0.96217 0.07481 0.37329 0.0
H459 H 0.9258 0.15085 0.36698 0.0
H460 H 0.92385 0.11412 0.3651 0.0
H461 H 0.94598 0.13024 0.39287 0.0
H462 H 0.00961 0.11487 0.37185 0.0
H463 H 0.02102 0.08273 0.42184 0.0
H464 H 0.44676 0.34394 0.64389 0.0
H465 H 0.4576 0.37116 0.69936 0.0
H466 H 0.45324 0.29889 0.77005 0.0
H467 H 0.44223 0.27141 0.71445 0.0
H468 H 0.43264 0.34352 0.80138 0.0
H469 H 0.51835 0.37202 0.75409 0.0
H470 H 0.49691 0.38059 0.7197 0.0
H471 H 0.50177 0.34518 0.73168 0.0
C472 C 0.4484 0.33374 0.67115 0.0
C473 C 0.44388 0.30547 0.67475 0.0
C474 C 0.45461 0.34933 0.70282 0.0
C475 C 0.45666 0.33694 0.73867 0.0
C476 C 0.45188 0.30879 0.74255 0.0
H477 H 0.52088 0.42205 0.92908 0.0
H478 H 0.51069 0.38897 0.87965 0.0
C479 C 0.44555 0.29316 0.71083 0.0
C480 C 0.46325 0.35365 0.77216 0.0
H481 H 0.50383 0.39789 0.80552 0.0
C482 C 0.4483 0.35523 0.8025 0.0
C483 C 0.48383 0.36856 0.7738 0.0
C484 C 0.50125 0.36632 0.74325 0.0
C485 C 0.45306 0.37203 0.83396 0.0
C486 C 0.47309 0.3881 0.8346 0.0
C487 C 0.48835 0.38583 0.80478 0.0
C488 C 0.4786 0.40751 0.86578 0.0
C489 C 0.43671 0.37219 0.86629 0.0
C490 C 0.46399 0.42903 0.87428 0.0
C491 C 0.46968 0.44788 0.90275 0.0
C492 C 0.49027 0.44578 0.92281 0.0
C493 C 0.50491 0.42428 0.9141 0.0
C494 C 0.49911 0.40534 0.88588 0.0
H495 H 0.42626 0.35313 0.86685 0.0
H496 H 0.44566 0.37434 0.89405 0.0
H497 H 0.42516 0.38979 0.86266 0.0
H498 H 0.44834 0.43153 0.85846 0.0
H499 H 0.45812 0.46432 0.90861 0.0
H500 H 0.61352 0.69473 0.31948 0.0
H501 H 0.60279 0.66647 0.26473 0.0
H502 H 0.53287 0.68546 0.28163 0.0
H503 H 0.54348 0.7142 0.33606 0.0
H504 H 0.57279 0.6201 0.26973 0.0
H505 H 0.54215 0.69819 0.16627 0.0
H506 H 0.56024 0.70683 0.2063 0.0
H507 H 0.53073 0.70033 0.2131 0.0
C508 C 0.59591 0.69341 0.31103 0.0
C509 C 0.57934 0.70673 0.33204 0.0
C510 C 0.58981 0.67713 0.27992 0.0
C511 C 0.56708 0.6741 0.26901 0.0
C512 C 0.55053 0.68787 0.2893 0.0
H513 H 0.49505 0.57494 0.10207 0.0
H514 H 0.50617 0.60739 0.15194 0.0
C515 C 0.5566 0.70406 0.32055 0.0
C516 C 0.56059 0.65496 0.23816 0.0
H517 H 0.53587 0.6515 0.15018 0.0
C518 C 0.56483 0.62693 0.24347 0.0
C519 C 0.55005 0.66401 0.20419 0.0
C520 C 0.54564 0.694 0.19681 0.0
C521 C 0.5585 0.60756 0.21586 0.0
C522 C 0.54813 0.6166 0.18167 0.0
C523 C 0.54386 0.64466 0.17639 0.0
C524 C 0.54156 0.5972 0.15108 0.0
C525 C 0.56245 0.57754 0.22402 0.0
C526 C 0.55784 0.58102 0.13371 0.0
C527 C 0.55153 0.56233 0.10542 0.0
C528 C 0.52885 0.55971 0.09366 0.0
C529 C 0.51265 0.57638 0.11058 0.0
C530 C 0.51897 0.59496 0.13901 0.0
H531 H 0.56462 0.57353 0.25491 0.0
H532 H 0.54825 0.56466 0.21305 0.0
H533 H 0.57807 0.57108 0.20983 0.0
H534 H 0.57544 0.58288 0.14199 0.0
H535 H 0.56446 0.55001 0.09271 0.0
H536 H 0.90228 0.18734 0.81073 0.0
H537 H 0.91511 0.16052 0.75683 0.0
H538 H 0.98325 0.18908 0.77756 0.0
H539 H 0.97057 0.21582 0.83171 0.0
H540 H 0.93751 0.17455 0.69068 0.0
H541 H 0.98942 0.10586 0.78204 0.0
H542 H 0.96915 0.12917 0.80118 0.0
H543 H 0.9963 0.14167 0.78661 0.0
C544 C 0.91994 0.18824 0.80346 0.0
C545 C 0.93546 0.2035 0.82563 0.0
C546 C 0.92725 0.17282 0.77277 0.0
C547 C 0.95019 0.17239 0.76371 0.0
C548 C 0.96556 0.1886 0.78468 0.0
H549 H 0.02412 0.0787 0.59764 0.0
H550 H 0.01287 0.11203 0.64533 0.0
C551 C 0.95829 0.2039 0.81552 0.0
C552 C 0.95803 0.15432 0.73303 0.0
H553 H 0.9916 0.09942 0.71577 0.0
C554 C 0.94934 0.15813 0.69612 0.0
C555 C 0.97342 0.13286 0.74029 0.0
C556 C 0.98249 0.1269 0.77971 0.0
C557 C 0.95577 0.14115 0.66618 0.0
C558 C 0.97106 0.11966 0.67353 0.0
C559 C 0.97993 0.11602 0.7103 0.0
C560 C 0.97763 0.10017 0.64371 0.0
C561 C 0.94632 0.14646 0.62687 0.0
C562 C 0.96154 0.08232 0.62735 0.0
C563 C 0.96791 0.06317 0.60026 0.0
C564 C 0.9905 0.06151 0.5891 0.0
C565 C 0.00658 0.07947 0.60556 0.0
C566 C 0.0002 0.09854 0.63278 0.0
H567 H 0.93931 0.16743 0.62413 0.0
H568 H 0.95949 0.14385 0.60517 0.0
H569 H 0.93253 0.13147 0.62074 0.0
H570 H 0.94411 0.08295 0.63594 0.0
H571 H 0.95512 0.04962 0.58819 0.0
H572 H 0.45891 0.33347 0.36748 0.0
H573 H 0.46874 0.36155 0.31279 0.0
H574 H 0.4371 0.30222 0.2381 0.0
H575 H 0.4282 0.27307 0.29272 0.0
H576 H 0.47695 0.32134 0.21042 0.0
H577 H 0.4243 0.40835 0.25432 0.0
H578 H 0.44448 0.39888 0.29034 0.0
H579 H 0.42251 0.37498 0.27652 0.0
C580 C 0.45436 0.32604 0.33944 0.0
C581 C 0.44269 0.30096 0.33459 0.0
C582 C 0.45971 0.34238 0.30821 0.0
C583 C 0.45317 0.3343 0.27148 0.0
C584 C 0.44207 0.30898 0.26629 0.0
H585 H 0.45405 0.45113 0.08364 0.0
H586 H 0.44286 0.41743 0.13152 0.0
C587 C 0.43686 0.29245 0.29756 0.0
C588 C 0.45795 0.3524 0.23863 0.0
H589 H 0.45077 0.41765 0.20545 0.0
C590 C 0.47109 0.34234 0.20912 0.0
C591 C 0.44989 0.3796 0.23661 0.0
C592 C 0.43431 0.39101 0.26594 0.0
C593 C 0.47702 0.35906 0.17822 0.0
C594 C 0.47008 0.38676 0.17739 0.0
C595 C 0.45634 0.39652 0.20632 0.0
C596 C 0.47698 0.40617 0.14708 0.0
C597 C 0.49043 0.34674 0.14664 0.0
C598 C 0.49989 0.41119 0.14009 0.0
C599 C 0.50634 0.43025 0.11247 0.0
C600 C 0.48999 0.44502 0.09184 0.0
C601 C 0.46706 0.44014 0.09913 0.0
C602 C 0.46063 0.42086 0.12644 0.0
H603 H 0.48809 0.32411 0.1454 0.0
H604 H 0.48555 0.35561 0.11866 0.0
H605 H 0.50862 0.35103 0.15185 0.0
H606 H 0.51283 0.40071 0.15641 0.0
H607 H 0.52414 0.4337 0.10772 0.0
H608 H 0.0485 0.79676 0.84102 0.0
H609 H 0.03682 0.82451 0.78618 0.0
H610 H 0.10618 0.8468 0.76638 0.0
H611 H 0.11798 0.81952 0.82152 0.0
H612 H 0.07541 0.89173 0.77109 0.0
H613 H 0.04509 0.81109 0.67082 0.0
H614 H 0.03428 0.80882 0.71812 0.0
H615 H 0.06379 0.8038 0.71047 0.0
C616 C 0.06127 0.80742 0.8248 0.0
C617 C 0.08416 0.80596 0.83557 0.0
C618 C 0.05459 0.82305 0.79333 0.0
C619 C 0.07067 0.83745 0.77209 0.0
C620 C 0.09355 0.83564 0.78231 0.0
H621 H 0.06502 0.95937 0.59213 0.0
H622 H 0.07665 0.92757 0.64231 0.0
C623 C 0.10026 0.81992 0.81365 0.0
C624 C 0.06353 0.85595 0.74088 0.0
H625 H 0.03805 0.85727 0.65339 0.0
C626 C 0.06734 0.88423 0.74524 0.0
C627 C 0.05285 0.84604 0.70746 0.0
C628 C 0.04887 0.81576 0.70111 0.0
C629 C 0.06048 0.90299 0.7172 0.0
C630 C 0.05 0.89309 0.68351 0.0
C631 C 0.04612 0.86478 0.67922 0.0
C632 C 0.04301 0.91183 0.65239 0.0
C633 C 0.06402 0.93327 0.72434 0.0
C634 C 0.02034 0.9129 0.64058 0.0
C635 C 0.01365 0.93088 0.61162 0.0
C636 C 0.02955 0.94808 0.59393 0.0
C637 C 0.05231 0.94661 0.60544 0.0
C638 C 0.05899 0.92854 0.63424 0.0
H639 H 0.06628 0.93771 0.75507 0.0
H640 H 0.07946 0.94035 0.70972 0.0
H641 H 0.04957 0.94534 0.71319 0.0
H642 H 0.00777 0.90005 0.6541 0.0
H643 H 0.996 0.93143 0.60332 0.0
loop_
_geom_bond_atom_site_label_1
_geom_bond_atom_site_label_2
_geom_bond_distance
_geom_bond_site_symmetry_2
_ccdc_geom_bond_type
C0 C1 1.384 . S
C0 H13 0.947 . S
C0 C35 1.382 . S
C1 C0 1.384 . S
C1 C2 1.378 . S
C2 C1 1.378 . S
C2 C3 1.378 . S
C2 H14 0.952 . S
C3 C2 1.378 . S
C3 H15 0.950 . S
C3 C34 1.383 . S
H4 C23 0.947 . S
H5 C24 0.946 . S
H6 C26 0.953 . S
H7 C27 0.945 . S
H8 C29 0.952 . S
H9 C30 0.949 . S
H10 C32 0.950 . S
H11 C33 0.948 . S
H12 C35 0.951 . S
H13 C0 0.947 . S
H14 C2 0.952 . S
H15 C3 0.950 . S
N16 C19 1.382 . S
N16 C21 1.363 . S
N17 C19 1.371 1_556 S
N17 C20 1.372 . S
N18 C20 1.361 1_554 S
N18 C21 1.377 . S
C19 N16 1.382 . S
C19 N17 1.371 1_554 S
C19 C22 1.480 . S
C20 N17 1.372 . S
C20 N18 1.361 1_556 S
C20 C28 1.457 . S
C21 N16 1.363 . S
C21 N18 1.377 . S
C21 C34 1.479 . S
C22 C19 1.480 . S
C22 C23 1.383 . S
C22 C27 1.385 1_554 S
C23 H4 0.947 . S
C23 C22 1.383 . S
C23 C24 1.388 . S
C24 H5 0.946 . S
C24 C23 1.388 . S
C24 C25 1.384 . S
C25 C24 1.384 . S
C25 C26 1.377 1_554 S
C26 H6 0.953 . S
C26 C25 1.377 1_556 S
C26 C27 1.369 . S
C27 H7 0.945 . S
C27 C22 1.385 1_556 S
C27 C26 1.369 . S
C28 C20 1.457 . S
C28 C29 1.372 . S
C28 C33 1.364 . S
C29 H8 0.952 . S
C29 C28 1.372 . S
C29 C30 1.389 . S
C30 H9 0.949 . S
C30 C29 1.389 . S
C30 C31 1.387 . S
C31 C30 1.387 . S
C31 C32 1.372 . S
C32 H10 0.950 . S
C32 C31 1.372 . S
C32 C33 1.379 . S
C33 H11 0.948 . S
C33 C28 1.364 . S
C33 C32 1.379 . S
C34 C3 1.383 . S
C34 C21 1.479 . S
C34 C35 1.398 . S
C35 C0 1.382 . S
C35 H12 0.951 . S
C35 C34 1.398 . S
C36 C37 1.384 . S
C36 H49 0.947 . S
C36 C71 1.382 . S
C37 C36 1.384 . S
C37 C38 1.378 . S
C38 C37 1.378 . S
C38 C39 1.378 . S
C38 H50 0.952 . S
C39 C38 1.378 . S
C39 H51 0.950 . S
C39 C70 1.383 . S
H40 C59 0.947 . S
H41 C60 0.946 . S
H42 C62 0.953 . S
H43 C63 0.945 . S
H44 C65 0.952 . S
H45 C66 0.949 . S
H46 C68 0.950 . S
H47 C69 0.948 . S
H48 C71 0.951 . S
H49 C36 0.947 . S
H50 C38 0.952 . S
H51 C39 0.950 . S
N52 C55 1.382 . S
N52 C57 1.363 . S
N53 C55 1.371 . S
N53 C56 1.372 . S
N54 C56 1.361 . S
N54 C57 1.377 . S
C55 N52 1.382 . S
C55 N53 1.371 . S
C55 C58 1.480 . S
C56 N53 1.372 . S
C56 N54 1.361 . S
C56 C64 1.457 . S
C57 N52 1.363 . S
C57 N54 1.377 . S
C57 C70 1.479 . S
C58 C55 1.480 . S
C58 C59 1.383 . S
C58 C63 1.385 . S
C59 H40 0.947 . S
C59 C58 1.383 . S
C59 C60 1.388 . S
C60 H41 0.946 . S
C60 C59 1.388 . S
C60 C61 1.384 . S
C61 C60 1.384 . S
C61 C62 1.377 . S
C62 H42 0.953 . S
C62 C61 1.377 . S
C62 C63 1.369 . S
C63 H43 0.945 . S
C63 C58 1.385 . S
C63 C62 1.369 . S
C64 C56 1.457 . S
C64 C65 1.372 . S
C64 C69 1.364 . S
C65 H44 0.952 . S
C65 C64 1.372 . S
C65 C66 1.389 . S
C66 H45 0.949 . S
C66 C65 1.389 . S
C66 C67 1.387 . S
C67 C66 1.387 . S
C67 C68 1.372 . S
C68 H46 0.950 . S
C68 C67 1.372 . S
C68 C69 1.379 . S
C69 H47 0.948 . S
C69 C64 1.364 . S
C69 C68 1.379 . S
C70 C39 1.383 . S
C70 C57 1.479 . S
C70 C71 1.398 . S
C71 C36 1.382 . S
C71 H48 0.951 . S
C71 C70 1.398 . S
C72 C73 1.384 . S
C72 H85 0.947 . S
C72 C107 1.382 . S
C73 C72 1.384 . S
C73 C74 1.378 . S
C74 C73 1.378 . S
C74 C75 1.378 . S
C74 H86 0.952 . S
C75 C74 1.378 . S
C75 H87 0.950 . S
C75 C106 1.383 . S
H76 C95 0.947 . S
H77 C96 0.946 . S
H78 C98 0.953 . S
H79 C99 0.945 . S
H80 C101 0.952 . S
H81 C102 0.949 . S
H82 C104 0.950 . S
H83 C105 0.948 . S
H84 C107 0.951 . S
H85 C72 0.947 . S
H86 C74 0.952 . S
H87 C75 0.950 . S
N88 C91 1.382 1_556 S
N88 C93 1.363 . S
N89 C91 1.371 . S
N89 C92 1.372 . S
N90 C92 1.361 . S
N90 C93 1.377 1_554 S
C91 N88 1.382 1_554 S
C91 N89 1.371 . S
C91 C94 1.480 . S
C92 N89 1.372 . S
C92 N90 1.361 . S
C92 C100 1.457 . S
C93 N88 1.363 . S
C93 N90 1.377 1_556 S
C93 C106 1.479 . S
C94 C91 1.480 . S
C94 C95 1.383 1_554 S
C94 C99 1.385 . S
C95 H76 0.947 . S
C95 C94 1.383 1_556 S
C95 C96 1.388 . S
C96 H77 0.946 . S
C96 C95 1.388 . S
C96 C97 1.384 1_556 S
C97 C96 1.384 1_554 S
C97 C98 1.377 . S
C98 H78 0.953 . S
C98 C97 1.377 . S
C98 C99 1.369 . S
C99 H79 0.945 . S
C99 C94 1.385 . S
C99 C98 1.369 . S
C100 C92 1.457 . S
C100 C101 1.372 . S
C100 C105 1.364 . S
C101 H80 0.952 . S
C101 C100 1.372 . S
C101 C102 1.389 . S
C102 H81 0.949 . S
C102 C101 1.389 . S
C102 C103 1.387 . S
C103 C102 1.387 . S
C103 C104 1.372 . S
C104 H82 0.950 . S
C104 C103 1.372 . S
C104 C105 1.379 . S
C105 H83 0.948 . S
C105 C100 1.364 . S
C105 C104 1.379 . S
C106 C75 1.383 . S
C106 C93 1.479 . S
C106 C107 1.398 . S
C107 C72 1.382 . S
C107 H84 0.951 . S
C107 C106 1.398 . S
C108 C109 1.384 . S
C108 H121 0.947 . S
C108 C143 1.382 . S
C109 C108 1.384 . S
C109 C110 1.378 . S
C110 C109 1.378 . S
C110 C111 1.378 . S
C110 H122 0.952 . S
C111 C110 1.378 . S
C111 H123 0.950 . S
C111 C142 1.383 . S
H112 C131 0.947 . S
H113 C132 0.946 . S
H114 C134 0.953 . S
H115 C135 0.945 . S
H116 C137 0.952 . S
H117 C138 0.949 . S
H118 C140 0.950 . S
H119 C141 0.948 . S
H120 C143 0.951 . S
H121 C108 0.947 . S
H122 C110 0.952 . S
H123 C111 0.950 . S
N124 C127 1.382 . S
N124 C129 1.363 . S
N125 C127 1.371 . S
N125 C128 1.372 . S
N126 C128 1.361 . S
N126 C129 1.377 . S
C127 N124 1.382 . S
C127 N125 1.371 . S
C127 C130 1.480 . S
C128 N125 1.372 . S
C128 N126 1.361 . S
C128 C136 1.457 . S
C129 N124 1.363 . S
C129 N126 1.377 . S
C129 C142 1.479 . S
C130 C127 1.480 . S
C130 C131 1.383 . S
C130 C135 1.385 . S
C131 H112 0.947 . S
C131 C130 1.383 . S
C131 C132 1.388 . S
C132 H113 0.946 . S
C132 C131 1.388 . S
C132 C133 1.384 . S
C133 C132 1.384 . S
C133 C134 1.377 . S
C134 H114 0.953 . S
C134 C133 1.377 . S
C134 C135 1.369 . S
C135 H115 0.945 . S
C135 C130 1.385 . S
C135 C134 1.369 . S
C136 C128 1.457 . S
C136 C137 1.372 . S
C136 C141 1.364 . S
C137 H116 0.952 . S
C137 C136 1.372 . S
C137 C138 1.389 . S
C138 H117 0.949 . S
C138 C137 1.389 . S
C138 C139 1.387 . S
C139 C138 1.387 . S
C139 C140 1.372 . S
C140 H118 0.950 . S
C140 C139 1.372 . S
C140 C141 1.379 . S
C141 H119 0.948 . S
C141 C136 1.364 . S
C141 C140 1.379 . S
C142 C111 1.383 . S
C142 C129 1.479 . S
C142 C143 1.398 . S
C143 C108 1.382 . S
C143 H120 0.951 . S
C143 C142 1.398 . S
C144 O160 1.251 . S
C144 O162 1.254 . S
N145 C146 1.333 . S
N145 C150 1.307 . S
N145 Zn151 2.020 . S
C146 N145 1.333 . S
C146 C147 1.379 . S
C146 H164 0.952 . S
C147 C146 1.379 . S
C147 C148 1.390 . S
C147 H174 0.949 . S
C148 C147 1.390 . S
C148 C149 1.357 . S
C149 C148 1.357 . S
C149 C150 1.370 . S
C149 H175 0.950 . S
C150 N145 1.307 . S
C150 C149 1.370 . S
C150 H168 0.948 . S
Zn151 N145 2.020 . S
Zn151 O160 2.039 1_545 S
Zn151 O166 2.034 1_545 S
Zn151 O170 2.025 . S
Zn151 O172 2.024 . S
C152 O171 1.246 . S
C152 O172 1.249 1_655 S
N153 C154 1.307 . S
N153 C155 1.333 . S
N153 Zn159 2.020 . S
C154 N153 1.307 . S
C154 C158 1.370 . S
C154 H165 0.948 . S
C155 N153 1.333 . S
C155 C156 1.379 . S
C155 H163 0.952 1_565 S
C156 C155 1.379 . S
C156 C157 1.390 . S
C156 H176 0.949 . S
C157 C156 1.390 . S
C157 C158 1.357 . S
C158 C154 1.370 . S
C158 C157 1.357 . S
C158 H177 0.950 . S
Zn159 N153 2.020 . S
Zn159 O162 2.025 1_655 S
Zn159 O167 2.024 1_655 S
Zn159 O169 2.039 1_565 S
Zn159 O171 2.034 1_565 S
O160 C144 1.251 . S
O160 Zn151 2.039 1_565 S
C161 O166 1.246 . S
C161 O167 1.249 . S
O162 C144 1.254 . S
O162 Zn159 2.025 1_455 S
H163 C155 0.952 1_545 S
H164 C146 0.952 . S
H165 C154 0.948 . S
O166 Zn151 2.034 1_565 S
O166 C161 1.246 . S
O167 Zn159 2.024 1_455 S
O167 C161 1.249 . S
H168 C150 0.948 . S
O169 Zn159 2.039 1_545 S
O169 C173 1.251 . S
O170 Zn151 2.025 . S
O170 C173 1.254 1_455 S
O171 C152 1.246 . S
O171 Zn159 2.034 1_545 S
O172 Zn151 2.024 . S
O172 C152 1.249 1_455 S
C173 O169 1.251 . S
C173 O170 1.254 1_655 S
H174 C147 0.949 . S
H175 C149 0.950 . S
H176 C156 0.949 . S
H177 C158 0.950 . S
C178 O194 1.251 . S
C178 O196 1.254 . S
N179 C180 1.333 1_554 S
N179 C184 1.307 . S
N179 Zn185 2.020 . S
C180 N179 1.333 1_556 S
C180 C181 1.379 . S
C180 H198 0.952 . S
C181 C180 1.379 . S
C181 C182 1.390 1_556 S
C181 H208 0.949 . S
C182 C181 1.390 1_554 S
C182 C183 1.357 . S
C183 C182 1.357 . S
C183 C184 1.370 . S
C183 H209 0.950 . S
C184 N179 1.307 . S
C184 C183 1.370 . S
C184 H202 0.948 . S
Zn185 N179 2.020 . S
Zn185 O194 2.039 1_554 S
Zn185 O200 2.034 . S
Zn185 O204 2.025 . S
Zn185 O206 2.024 1_554 S
C186 O205 1.246 . S
C186 O206 1.249 . S
N187 C188 1.307 1_554 S
N187 C189 1.333 . S
N187 Zn193 2.020 . S
C188 N187 1.307 1_556 S
C188 C192 1.370 . S
C188 H199 0.948 . S
C189 N187 1.333 . S
C189 C190 1.379 . S
C189 H197 0.952 . S
C190 C189 1.379 . S
C190 C191 1.390 . S
C190 H210 0.949 . S
C191 C190 1.390 . S
C191 C192 1.357 1_554 S
C192 C188 1.370 . S
C192 C191 1.357 1_556 S
C192 H211 0.950 . S
Zn193 N187 2.020 . S
Zn193 O196 2.025 1_554 S
Zn193 O201 2.024 . S
Zn193 O203 2.039 . S
Zn193 O205 2.034 1_554 S
O194 C178 1.251 . S
O194 Zn185 2.039 1_556 S
C195 O200 1.246 . S
C195 O201 1.249 . S
O196 C178 1.254 . S
O196 Zn193 2.025 1_556 S
H197 C189 0.952 . S
H198 C180 0.952 . S
H199 C188 0.948 . S
O200 Zn185 2.034 . S
O200 C195 1.246 . S
O201 Zn193 2.024 . S
O201 C195 1.249 . S
H202 C184 0.948 . S
O203 Zn193 2.039 . S
O203 C207 1.251 . S
O204 Zn185 2.025 . S
O204 C207 1.254 . S
O205 C186 1.246 . S
O205 Zn193 2.034 1_556 S
O206 Zn185 2.024 1_556 S
O206 C186 1.249 . S
C207 O203 1.251 . S
C207 O204 1.254 . S
H208 C181 0.949 . S
H209 C183 0.950 . S
H210 C190 0.949 . S
H211 C192 0.950 . S
H212 C220 0.929 . S
H213 C222 0.930 . S
H214 C224 0.930 . S
H215 C227 0.929 . S
H216 C230 0.930 . S
H217 C232 0.960 . S
H218 C232 0.960 . S
H219 C232 0.960 . S
C220 H212 0.929 . S
C220 C221 1.377 . S
C220 C222 1.384 . S
C221 C220 1.377 . S
C221 C227 1.390 . S
C222 H213 0.930 . S
C222 C220 1.384 . S
C222 C223 1.372 . S
C223 C222 1.372 . S
C223 C224 1.400 . S
C223 C228 1.490 . S
C224 H214 0.930 . S
C224 C223 1.400 . S
C224 C227 1.386 . S
H225 C241 0.930 . S
H226 C242 0.931 . S
C227 H215 0.929 . S
C227 C221 1.390 . S
C227 C224 1.386 . S
C228 C223 1.490 . S
C228 C230 1.395 . S
C228 C231 1.403 . S
H229 C235 0.930 . S
C230 H216 0.930 . S
C230 C228 1.395 . S
C230 C233 1.403 . S
C231 C228 1.403 . S
C231 C232 1.524 . S
C231 C235 1.400 . S
C232 H217 0.960 . S
C232 H218 0.960 . S
C232 H219 0.960 . S
C232 C231 1.524 . S
C233 C230 1.403 . S
C233 C234 1.392 . S
C233 C237 1.495 . S
C234 C233 1.392 . S
C234 C235 1.385 . S
C234 C236 1.478 . S
C235 H229 0.930 . S
C235 C231 1.400 . S
C235 C234 1.385 . S
C236 C234 1.478 . S
C236 C238 1.381 . S
C236 C242 1.383 . S
C237 C233 1.495 . S
C237 H243 0.959 . S
C237 H244 0.961 . S
C237 H245 0.960 . S
C238 C236 1.381 . S
C238 C239 1.394 . S
C238 H246 0.930 . S
C239 C238 1.394 . S
C239 C240 1.383 . S
C239 H247 0.929 . S
C240 C239 1.383 . S
C240 C241 1.377 . S
C241 H225 0.930 . S
C241 C240 1.377 . S
C241 C242 1.379 . S
C242 H226 0.931 . S
C242 C236 1.383 . S
C242 C241 1.379 . S
H243 C237 0.959 . S
H244 C237 0.961 . S
H245 C237 0.960 . S
H246 C238 0.930 . S
H247 C239 0.929 . S
H248 C256 0.929 . S
H249 C258 0.930 . S
H250 C260 0.930 . S
H251 C263 0.929 . S
H252 C266 0.930 1_556 S
H253 C268 0.960 . S
H254 C268 0.960 . S
H255 C268 0.960 . S
C256 H248 0.929 . S
C256 C257 1.377 . S
C256 C258 1.384 . S
C257 C256 1.377 . S
C257 C263 1.390 1_554 S
C258 H249 0.930 . S
C258 C256 1.384 . S
C258 C259 1.372 . S
C259 C258 1.372 . S
C259 C260 1.400 1_554 S
C259 C264 1.490 . S
C260 H250 0.930 . S
C260 C259 1.400 1_556 S
C260 C263 1.386 . S
H261 C277 0.930 . S
H262 C278 0.931 . S
C263 H251 0.929 . S
C263 C257 1.390 1_556 S
C263 C260 1.386 . S
C264 C259 1.490 . S
C264 C266 1.395 . S
C264 C267 1.403 . S
H265 C271 0.930 . S
C266 H252 0.930 1_554 S
C266 C264 1.395 . S
C266 C269 1.403 . S
C267 C264 1.403 . S
C267 C268 1.524 . S
C267 C271 1.400 . S
C268 H253 0.960 . S
C268 H254 0.960 . S
C268 H255 0.960 . S
C268 C267 1.524 . S
C269 C266 1.403 . S
C269 C270 1.392 . S
C269 C273 1.495 1_554 S
C270 C269 1.392 . S
C270 C271 1.385 . S
C270 C272 1.478 . S
C271 H265 0.930 . S
C271 C267 1.400 . S
C271 C270 1.385 . S
C272 C270 1.478 . S
C272 C274 1.381 . S
C272 C278 1.383 1_554 S
C273 C269 1.495 1_556 S
C273 H279 0.959 . S
C273 H280 0.961 . S
C273 H281 0.960 1_556 S
C274 C272 1.381 . S
C274 C275 1.394 . S
C274 H282 0.930 . S
C275 C274 1.394 . S
C275 C276 1.383 . S
C275 H283 0.929 . S
C276 C275 1.383 . S
C276 C277 1.377 1_554 S
C277 H261 0.930 . S
C277 C276 1.377 1_556 S
C277 C278 1.379 . S
C278 H262 0.931 . S
C278 C272 1.383 1_556 S
C278 C277 1.379 . S
H279 C273 0.959 . S
H280 C273 0.961 . S
H281 C273 0.960 1_554 S
H282 C274 0.930 . S
H283 C275 0.929 . S
H284 C292 0.929 . S
H285 C294 0.930 . S
H286 C296 0.930 . S
H287 C299 0.929 . S
H288 C302 0.930 . S
H289 C304 0.960 . S
H290 C304 0.960 . S
H291 C304 0.960 . S
C292 H284 0.929 . S
C292 C293 1.377 . S
C292 C294 1.384 . S
C293 C292 1.377 . S
C293 C299 1.390 . S
C294 H285 0.930 . S
C294 C292 1.384 . S
C294 C295 1.372 . S
C295 C294 1.372 . S
C295 C296 1.400 . S
C295 C300 1.490 . S
C296 H286 0.930 . S
C296 C295 1.400 . S
C296 C299 1.386 . S
H297 C313 0.930 . S
H298 C314 0.931 . S
C299 H287 0.929 . S
C299 C293 1.390 . S
C299 C296 1.386 . S
C300 C295 1.490 . S
C300 C302 1.395 . S
C300 C303 1.403 . S
H301 C307 0.930 . S
C302 H288 0.930 . S
C302 C300 1.395 . S
C302 C305 1.403 . S
C303 C300 1.403 . S
C303 C304 1.524 . S
C303 C307 1.400 . S
C304 H289 0.960 . S
C304 H290 0.960 . S
C304 H291 0.960 . S
C304 C303 1.524 . S
C305 C302 1.403 . S
C305 C306 1.392 . S
C305 C309 1.495 . S
C306 C305 1.392 . S
C306 C307 1.385 . S
C306 C308 1.478 . S
C307 H301 0.930 . S
C307 C303 1.400 . S
C307 C306 1.385 . S
C308 C306 1.478 . S
C308 C310 1.381 . S
C308 C314 1.383 . S
C309 C305 1.495 . S
C309 H315 0.959 . S
C309 H316 0.961 . S
C309 H317 0.960 . S
C310 C308 1.381 . S
C310 C311 1.394 . S
C310 H318 0.930 . S
C311 C310 1.394 . S
C311 C312 1.383 . S
C311 H319 0.929 . S
C312 C311 1.383 . S
C312 C313 1.377 . S
C313 H297 0.930 . S
C313 C312 1.377 . S
C313 C314 1.379 . S
C314 H298 0.931 . S
C314 C308 1.383 . S
C314 C313 1.379 . S
H315 C309 0.959 . S
H316 C309 0.961 . S
H317 C309 0.960 . S
H318 C310 0.930 . S
H319 C311 0.929 . S
H320 C328 0.929 . S
H321 C330 0.930 . S
H322 C332 0.930 . S
H323 C335 0.929 . S
H324 C338 0.930 . S
H325 C340 0.960 . S
H326 C340 0.960 1_554 S
H327 C340 0.960 . S
C328 H320 0.929 . S
C328 C329 1.377 . S
C328 C330 1.384 . S
C329 C328 1.377 . S
C329 C335 1.390 1_554 S
C330 H321 0.930 . S
C330 C328 1.384 . S
C330 C331 1.372 . S
C331 C330 1.372 . S
C331 C332 1.400 1_554 S
C331 C336 1.490 . S
C332 H322 0.930 . S
C332 C331 1.400 1_556 S
C332 C335 1.386 . S
H333 C349 0.930 . S
H334 C350 0.931 . S
C335 H323 0.929 . S
C335 C329 1.390 1_556 S
C335 C332 1.386 . S
C336 C331 1.490 . S
C336 C338 1.395 . S
C336 C339 1.403 1_554 S
H337 C343 0.936 . S
C338 H324 0.930 . S
C338 C336 1.395 . S
C338 C341 1.403 . S
C339 C336 1.403 1_556 S
C339 C340 1.524 . S
C339 C343 1.401 . S
C340 H325 0.960 . S
C340 H326 0.960 1_556 S
C340 H327 0.960 . S
C340 C339 1.524 . S
C341 C338 1.403 . S
C341 C342 1.392 . S
C341 C345 1.495 . S
C342 C341 1.392 . S
C342 C343 1.379 1_554 S
C342 C344 1.478 . S
C343 H337 0.936 . S
C343 C339 1.401 . S
C343 C342 1.379 1_556 S
C344 C342 1.478 . S
C344 C346 1.381 . S
C344 C350 1.383 1_554 S
C345 C341 1.495 . S
C345 H351 0.959 . S
C345 H352 0.961 . S
C345 H353 0.960 . S
C346 C344 1.381 . S
C346 C347 1.394 . S
C346 H354 0.930 . S
C347 C346 1.394 . S
C347 C348 1.383 . S
C347 H355 0.929 . S
C348 C347 1.383 . S
C348 C349 1.377 1_554 S
C349 H333 0.930 . S
C349 C348 1.377 1_556 S
C349 C350 1.379 . S
C350 H334 0.931 . S
C350 C344 1.383 1_556 S
C350 C349 1.379 . S
H351 C345 0.959 . S
H352 C345 0.961 . S
H353 C345 0.960 . S
H354 C346 0.930 . S
H355 C347 0.929 . S
H356 C364 0.929 . S
H357 C366 0.930 . S
H358 C368 0.930 . S
H359 C371 0.929 . S
H360 C374 0.930 . S
H361 C376 0.960 . S
H362 C376 0.960 . S
H363 C376 0.960 . S
C364 H356 0.929 . S
C364 C365 1.377 . S
C364 C366 1.384 . S
C365 C364 1.377 . S
C365 C371 1.390 . S
C366 H357 0.930 . S
C366 C364 1.384 . S
C366 C367 1.372 . S
C367 C366 1.372 . S
C367 C368 1.400 . S
C367 C372 1.490 . S
C368 H358 0.930 . S
C368 C367 1.400 . S
C368 C371 1.386 . S
H369 C385 0.930 . S
H370 C386 0.931 . S
C371 H359 0.929 . S
C371 C365 1.390 . S
C371 C368 1.386 . S
C372 C367 1.490 . S
C372 C374 1.395 . S
C372 C375 1.403 . S
H373 C379 0.930 . S
C374 H360 0.930 . S
C374 C372 1.395 . S
C374 C377 1.403 . S
C375 C372 1.403 . S
C375 C376 1.524 . S
C375 C379 1.400 . S
C376 H361 0.960 . S
C376 H362 0.960 . S
C376 H363 0.960 . S
C376 C375 1.524 . S
C377 C374 1.403 . S
C377 C378 1.392 . S
C377 C381 1.495 . S
C378 C377 1.392 . S
C378 C379 1.385 . S
C378 C380 1.478 . S
C379 H373 0.930 . S
C379 C375 1.400 . S
C379 C378 1.385 . S
C380 C378 1.478 . S
C380 C382 1.381 . S
C380 C386 1.383 . S
C381 C377 1.495 . S
C381 H387 0.959 . S
C381 H388 0.961 . S
C381 H389 0.960 . S
C382 C380 1.381 . S
C382 C383 1.394 . S
C382 H390 0.930 . S
C383 C382 1.394 . S
C383 C384 1.383 . S
C383 H391 0.929 . S
C384 C383 1.383 . S
C384 C385 1.377 . S
C385 H369 0.930 . S
C385 C384 1.377 . S
C385 C386 1.379 . S
C386 H370 0.931 . S
C386 C380 1.383 . S
C386 C385 1.379 . S
H387 C381 0.959 . S
H388 C381 0.961 . S
H389 C381 0.960 . S
H390 C382 0.930 . S
H391 C383 0.929 . S
H392 C400 0.929 . S
H393 C402 0.930 . S
H394 C404 0.930 . S
H395 C407 0.929 . S
H396 C410 0.930 . S
H397 C412 0.960 . S
H398 C412 0.960 . S
H399 C412 0.960 . S
C400 H392 0.929 . S
C400 C401 1.377 . S
C400 C402 1.384 . S
C401 C400 1.377 . S
C401 C407 1.390 . S
C402 H393 0.930 . S
C402 C400 1.384 . S
C402 C403 1.372 . S
C403 C402 1.372 . S
C403 C404 1.400 . S
C403 C408 1.490 . S
C404 H394 0.930 . S
C404 C403 1.400 . S
C404 C407 1.386 . S
H405 C421 0.930 . S
H406 C422 0.931 . S
C407 H395 0.929 . S
C407 C401 1.390 . S
C407 C404 1.386 . S
C408 C403 1.490 . S
C408 C410 1.395 . S
C408 C411 1.403 . S
H409 C415 0.930 . S
C410 H396 0.930 . S
C410 C408 1.395 . S
C410 C413 1.403 . S
C411 C408 1.403 . S
C411 C412 1.524 . S
C411 C415 1.400 . S
C412 H397 0.960 . S
C412 H398 0.960 . S
C412 H399 0.960 . S
C412 C411 1.524 . S
C413 C410 1.403 . S
C413 C414 1.392 . S
C413 C417 1.495 . S
C414 C413 1.392 . S
C414 C415 1.385 . S
C414 C416 1.478 . S
C415 H409 0.930 . S
C415 C411 1.400 . S
C415 C414 1.385 . S
C416 C414 1.478 . S
C416 C418 1.381 . S
C416 C422 1.383 . S
C417 C413 1.495 . S
C417 H423 0.959 . S
C417 H424 0.961 . S
C417 H425 0.960 . S
C418 C416 1.381 . S
C418 C419 1.394 . S
C418 H426 0.930 . S
C419 C418 1.394 . S
C419 C420 1.383 . S
C419 H427 0.929 . S
C420 C419 1.383 . S
C420 C421 1.377 . S
C421 H405 0.930 . S
C421 C420 1.377 . S
C421 C422 1.379 . S
C422 H406 0.931 . S
C422 C416 1.383 . S
C422 C421 1.379 . S
H423 C417 0.959 . S
H424 C417 0.961 . S
H425 C417 0.960 . S
H426 C418 0.930 . S
H427 C419 0.929 . S
H428 C436 0.929 . S
H429 C438 0.930 . S
H430 C440 0.930 . S
H431 C443 0.929 . S
H432 C446 0.930 . S
H433 C448 0.960 . S
H434 C448 0.960 . S
H435 C448 0.960 . S
C436 H428 0.929 . S
C436 C437 1.377 . S
C436 C438 1.384 . S
C437 C436 1.377 . S
C437 C443 1.390 . S
C438 H429 0.930 . S
C438 C436 1.384 . S
C438 C439 1.372 . S
C439 C438 1.372 . S
C439 C440 1.400 . S
C439 C444 1.490 . S
C440 H430 0.930 . S
C440 C439 1.400 . S
C440 C443 1.386 . S
H441 C457 0.930 . S
H442 C458 0.931 . S
C443 H431 0.929 . S
C443 C437 1.390 . S
C443 C440 1.386 . S
C444 C439 1.490 . S
C444 C446 1.395 . S
C444 C447 1.403 . S
H445 C451 0.930 . S
C446 H432 0.930 . S
C446 C444 1.395 . S
C446 C449 1.403 . S
C447 C444 1.403 . S
C447 C448 1.524 . S
C447 C451 1.400 . S
C448 H433 0.960 . S
C448 H434 0.960 . S
C448 H435 0.960 . S
C448 C447 1.524 . S
C449 C446 1.403 . S
C449 C450 1.392 . S
C449 C453 1.495 . S
C450 C449 1.392 . S
C450 C451 1.385 . S
C450 C452 1.478 . S
C451 H445 0.930 . S
C451 C447 1.400 . S
C451 C450 1.385 . S
C452 C450 1.478 . S
C452 C454 1.381 . S
C452 C458 1.383 . S
C453 C449 1.495 . S
C453 H459 0.959 . S
C453 H460 0.961 . S
C453 H461 0.960 . S
C454 C452 1.381 . S
C454 C455 1.394 . S
C454 H462 0.930 . S
C455 C454 1.394 . S
C455 C456 1.383 . S
C455 H463 0.929 1_655 S
C456 C455 1.383 . S
C456 C457 1.377 . S
C457 H441 0.930 . S
C457 C456 1.377 . S
C457 C458 1.379 . S
C458 H442 0.931 . S
C458 C452 1.383 . S
C458 C457 1.379 . S
H459 C453 0.959 . S
H460 C453 0.961 . S
H461 C453 0.960 . S
H462 C454 0.930 . S
H463 C455 0.929 1_455 S
H464 C472 0.929 . S
H465 C474 0.930 . S
H466 C476 0.930 . S
H467 C479 0.929 . S
H468 C482 0.930 . S
H469 C484 0.960 . S
H470 C484 0.960 . S
H471 C484 0.960 . S
C472 H464 0.929 . S
C472 C473 1.377 . S
C472 C474 1.384 . S
C473 C472 1.377 . S
C473 C479 1.390 . S
C474 H465 0.930 . S
C474 C472 1.384 . S
C474 C475 1.372 . S
C475 C474 1.372 . S
C475 C476 1.400 . S
C475 C480 1.490 . S
C476 H466 0.930 . S
C476 C475 1.400 . S
C476 C479 1.386 . S
H477 C493 0.930 . S
H478 C494 0.931 . S
C479 H467 0.929 . S
C479 C473 1.390 . S
C479 C476 1.386 . S
C480 C475 1.490 . S
C480 C482 1.395 . S
C480 C483 1.403 . S
H481 C487 0.930 . S
C482 H468 0.930 . S
C482 C480 1.395 . S
C482 C485 1.403 . S
C483 C480 1.403 . S
C483 C484 1.524 . S
C483 C487 1.400 . S
C484 H469 0.960 . S
C484 H470 0.960 . S
C484 H471 0.960 . S
C484 C483 1.524 . S
C485 C482 1.403 . S
C485 C486 1.392 . S
C485 C489 1.495 . S
C486 C485 1.392 . S
C486 C487 1.385 . S
C486 C488 1.478 . S
C487 H481 0.930 . S
C487 C483 1.400 . S
C487 C486 1.385 . S
C488 C486 1.478 . S
C488 C490 1.381 . S
C488 C494 1.383 . S
C489 C485 1.495 . S
C489 H495 0.959 . S
C489 H496 0.961 . S
C489 H497 0.960 . S
C490 C488 1.381 . S
C490 C491 1.394 . S
C490 H498 0.930 . S
C491 C490 1.394 . S
C491 C492 1.383 . S
C491 H499 0.929 . S
C492 C491 1.383 . S
C492 C493 1.377 . S
C493 H477 0.930 . S
C493 C492 1.377 . S
C493 C494 1.379 . S
C494 H478 0.931 . S
C494 C488 1.383 . S
C494 C493 1.379 . S
H495 C489 0.959 . S
H496 C489 0.961 . S
H497 C489 0.960 . S
H498 C490 0.930 . S
H499 C491 0.929 . S
H500 C508 0.929 . S
H501 C510 0.930 . S
H502 C512 0.930 . S
H503 C515 0.929 . S
H504 C518 0.930 . S
H505 C520 0.960 . S
H506 C520 0.960 . S
H507 C520 0.960 . S
C508 H500 0.929 . S
C508 C509 1.377 . S
C508 C510 1.384 . S
C509 C508 1.377 . S
C509 C515 1.390 . S
C510 H501 0.930 . S
C510 C508 1.384 . S
C510 C511 1.372 . S
C511 C510 1.372 . S
C511 C512 1.400 . S
C511 C516 1.490 . S
C512 H502 0.930 . S
C512 C511 1.400 . S
C512 C515 1.386 . S
H513 C529 0.930 . S
H514 C530 0.931 . S
C515 H503 0.929 . S
C515 C509 1.390 . S
C515 C512 1.386 . S
C516 C511 1.490 . S
C516 C518 1.395 . S
C516 C519 1.403 . S
H517 C523 0.930 . S
C518 H504 0.930 . S
C518 C516 1.395 . S
C518 C521 1.403 . S
C519 C516 1.403 . S
C519 C520 1.524 . S
C519 C523 1.400 . S
C520 H505 0.960 . S
C520 H506 0.960 . S
C520 H507 0.960 . S
C520 C519 1.524 . S
C521 C518 1.403 . S
C521 C522 1.392 . S
C521 C525 1.495 . S
C522 C521 1.392 . S
C522 C523 1.385 . S
C522 C524 1.478 . S
C523 H517 0.930 . S
C523 C519 1.400 . S
C523 C522 1.385 . S
C524 C522 1.478 . S
C524 C526 1.381 . S
C524 C530 1.383 . S
C525 C521 1.495 . S
C525 H531 0.959 . S
C525 H532 0.961 . S
C525 H533 0.960 . S
C526 C524 1.381 . S
C526 C527 1.394 . S
C526 H534 0.930 . S
C527 C526 1.394 . S
C527 C528 1.383 . S
C527 H535 0.929 . S
C528 C527 1.383 . S
C528 C529 1.377 . S
C529 H513 0.930 . S
C529 C528 1.377 . S
C529 C530 1.379 . S
C530 H514 0.931 . S
C530 C524 1.383 . S
C530 C529 1.379 . S
H531 C525 0.959 . S
H532 C525 0.961 . S
H533 C525 0.960 . S
H534 C526 0.930 . S
H535 C527 0.929 . S
H536 C544 0.929 . S
H537 C546 0.930 . S
H538 C548 0.930 . S
H539 C551 0.929 . S
H540 C554 0.930 . S
H541 C556 0.960 . S
H542 C556 0.960 . S
H543 C556 0.960 . S
C544 H536 0.929 . S
C544 C545 1.377 . S
C544 C546 1.384 . S
C545 C544 1.377 . S
C545 C551 1.390 . S
C546 H537 0.930 . S
C546 C544 1.384 . S
C546 C547 1.372 . S
C547 C546 1.372 . S
C547 C548 1.400 . S
C547 C552 1.490 . S
C548 H538 0.930 . S
C548 C547 1.400 . S
C548 C551 1.386 . S
H549 C565 0.930 . S
H550 C566 0.931 1_455 S
C551 H539 0.929 . S
C551 C545 1.390 . S
C551 C548 1.386 . S
C552 C547 1.490 . S
C552 C554 1.395 . S
C552 C555 1.403 . S
H553 C559 0.930 . S
C554 H540 0.930 . S
C554 C552 1.395 . S
C554 C557 1.403 . S
C555 C552 1.403 . S
C555 C556 1.524 . S
C555 C559 1.400 . S
C556 H541 0.960 . S
C556 H542 0.960 . S
C556 H543 0.960 . S
C556 C555 1.524 . S
C557 C554 1.403 . S
C557 C558 1.392 . S
C557 C561 1.495 . S
C558 C557 1.392 . S
C558 C559 1.385 . S
C558 C560 1.478 . S
C559 H553 0.930 . S
C559 C555 1.400 . S
C559 C558 1.385 . S
C560 C558 1.478 . S
C560 C562 1.381 . S
C560 C566 1.383 . S
C561 C557 1.495 . S
C561 H567 0.959 . S
C561 H568 0.961 . S
C561 H569 0.960 . S
C562 C560 1.381 . S
C562 C563 1.394 . S
C562 H570 0.930 . S
C563 C562 1.394 . S
C563 C564 1.383 . S
C563 H571 0.929 . S
C564 C563 1.383 . S
C564 C565 1.377 1_655 S
C565 H549 0.930 . S
C565 C564 1.377 1_455 S
C565 C566 1.379 1_455 S
C566 H550 0.931 1_655 S
C566 C560 1.383 . S
C566 C565 1.379 1_655 S
H567 C561 0.959 . S
H568 C561 0.961 . S
H569 C561 0.960 . S
H570 C562 0.930 . S
H571 C563 0.929 . S
H572 C580 0.929 . S
H573 C582 0.930 . S
H574 C584 0.930 . S
H575 C587 0.929 . S
H576 C590 0.930 . S
H577 C592 0.960 . S
H578 C592 0.960 . S
H579 C592 0.960 . S
C580 H572 0.929 . S
C580 C581 1.377 . S
C580 C582 1.384 . S
C581 C580 1.377 . S
C581 C587 1.390 . S
C582 H573 0.930 . S
C582 C580 1.384 . S
C582 C583 1.372 . S
C583 C582 1.372 . S
C583 C584 1.400 . S
C583 C588 1.490 . S
C584 H574 0.930 . S
C584 C583 1.400 . S
C584 C587 1.386 . S
H585 C601 0.930 . S
H586 C602 0.931 . S
C587 H575 0.929 . S
C587 C581 1.390 . S
C587 C584 1.386 . S
C588 C583 1.490 . S
C588 C590 1.395 . S
C588 C591 1.403 . S
H589 C595 0.930 . S
C590 H576 0.930 . S
C590 C588 1.395 . S
C590 C593 1.403 . S
C591 C588 1.403 . S
C591 C592 1.524 . S
C591 C595 1.400 . S
C592 H577 0.960 . S
C592 H578 0.960 . S
C592 H579 0.960 . S
C592 C591 1.524 . S
C593 C590 1.403 . S
C593 C594 1.392 . S
C593 C597 1.495 . S
C594 C593 1.392 . S
C594 C595 1.385 . S
C594 C596 1.478 . S
C595 H589 0.930 . S
C595 C591 1.400 . S
C595 C594 1.385 . S
C596 C594 1.478 . S
C596 C598 1.381 . S
C596 C602 1.383 . S
C597 C593 1.495 . S
C597 H603 0.959 . S
C597 H604 0.961 . S
C597 H605 0.960 . S
C598 C596 1.381 . S
C598 C599 1.394 . S
C598 H606 0.930 . S
C599 C598 1.394 . S
C599 C600 1.383 . S
C599 H607 0.929 . S
C600 C599 1.383 . S
C600 C601 1.377 . S
C601 H585 0.930 . S
C601 C600 1.377 . S
C601 C602 1.379 . S
C602 H586 0.931 . S
C602 C596 1.383 . S
C602 C601 1.379 . S
H603 C597 0.959 . S
H604 C597 0.961 . S
H605 C597 0.960 . S
H606 C598 0.930 . S
H607 C599 0.929 . S
H608 C616 0.929 . S
H609 C618 0.930 . S
H610 C620 0.930 . S
H611 C623 0.929 . S
H612 C626 0.930 . S
H613 C628 0.960 . S
H614 C628 0.960 . S
H615 C628 0.960 . S
C616 H608 0.929 . S
C616 C617 1.377 . S
C616 C618 1.384 . S
C617 C616 1.377 . S
C617 C623 1.390 . S
C618 H609 0.930 . S
C618 C616 1.384 . S
C618 C619 1.372 . S
C619 C618 1.372 . S
C619 C620 1.400 . S
C619 C624 1.490 . S
C620 H610 0.930 . S
C620 C619 1.400 . S
C620 C623 1.386 . S
H621 C637 0.930 . S
H622 C638 0.931 . S
C623 H611 0.929 . S
C623 C617 1.390 . S
C623 C620 1.386 . S
C624 C619 1.490 . S
C624 C626 1.395 . S
C624 C627 1.403 . S
H625 C631 0.930 . S
C626 H612 0.930 . S
C626 C624 1.395 . S
C626 C629 1.403 . S
C627 C624 1.403 . S
C627 C628 1.524 . S
C627 C631 1.400 . S
C628 H613 0.960 . S
C628 H614 0.960 . S
C628 H615 0.960 . S
C628 C627 1.524 . S
C629 C626 1.403 . S
C629 C630 1.392 . S
C629 C633 1.495 . S
C630 C629 1.392 . S
C630 C631 1.385 . S
C630 C632 1.478 . S
C631 H625 0.930 . S
C631 C627 1.400 . S
C631 C630 1.385 . S
C632 C630 1.478 . S
C632 C634 1.381 . S
C632 C638 1.383 . S
C633 C629 1.495 . S
C633 H639 0.959 . S
C633 H640 0.961 . S
C633 H641 0.960 . S
C634 C632 1.381 . S
C634 C635 1.394 . S
C634 H642 0.930 . S
C635 C634 1.394 . S
C635 C636 1.383 . S
C635 H643 0.929 . S
C636 C635 1.383 . S
C636 C637 1.377 . S
C637 H621 0.930 . S
C637 C636 1.377 . S
C637 C638 1.379 . S
C638 H622 0.931 . S
C638 C632 1.383 . S
C638 C637 1.379 . S
H639 C633 0.959 . S
H640 C633 0.961 . S
H641 C633 0.960 . S
H642 C634 0.930 . S
H643 C635 0.929 . S
C240 C148 1.634 . S
C221 C133 1.634 . S
C257 C25 1.530 . S
C276 C191 1.549 . S
C293 C61 1.596 . S
C312 C157 1.640 . S
C329 C97 1.560 . S
C348 C182 1.549 . S
C384 C144 1.612 . S
C365 C1 1.581 . S
C420 C186 1.701 . S
C401 C67 1.646 . S
C437 C103 1.597 . S
C456 C152 1.598 . S
C473 C109 1.687 . S
C492 C178 1.702 . S
C528 C207 1.702 . S
C509 C37 1.653 . S
C564 C173 1.609 . S
C545 C73 1.603 . S
C600 C195 1.702 . S
C581 C139 1.687 . S
C617 C31 1.563 . S
C636 C161 1.609 . S
