# Generated by pormake.
# Topology tsx, (6,3)-cn, num edge types: 1
# Building blocks:
#     Node 0, Type 0, BuildingBlock: MIDCAF_clean_sbu_0, # of connection points: 6
#     Node 1, Type 0, BuildingBlock: MIDCAF_clean_sbu_0, # of connection points: 6
#     Node 2, Type 1, BuildingBlock: PAMTOO_clean_linker_0, # of connection points: 3
#     Node 3, Type 1, BuildingBlock: PAMTOO_clean_linker_0, # of connection points: 3
#     Node 4, Type 1, BuildingBlock: PAMTOO_clean_linker_0, # of connection points: 3
#     Node 5, Type 1, BuildingBlock: PAMTOO_clean_linker_0, # of connection points: 3
#     Edge 6, Type (0, 1), BuildingBlock: CIFDUS_clean_linker_0, # of connection points: 2
#     Edge 7, Type (0, 1), BuildingBlock: CIFDUS_clean_linker_0, # of connection points: 2
#     Edge 8, Type (0, 1), BuildingBlock: CIFDUS_clean_linker_0, # of connection points: 2
#     Edge 9, Type (0, 1), BuildingBlock: CIFDUS_clean_linker_0, # of connection points: 2
#     Edge 10, Type (0, 1), BuildingBlock: CIFDUS_clean_linker_0, # of connection points: 2
#     Edge 11, Type (0, 1), BuildingBlock: CIFDUS_clean_linker_0, # of connection points: 2
#     Edge 12, Type (0, 1), BuildingBlock: CIFDUS_clean_linker_0, # of connection points: 2
#     Edge 13, Type (0, 1), BuildingBlock: CIFDUS_clean_linker_0, # of connection points: 2
#     Edge 14, Type (0, 1), BuildingBlock: CIFDUS_clean_linker_0, # of connection points: 2
#     Edge 15, Type (0, 1), BuildingBlock: CIFDUS_clean_linker_0, # of connection points: 2
#     Edge 16, Type (0, 1), BuildingBlock: CIFDUS_clean_linker_0, # of connection points: 2
#     Edge 17, Type (0, 1), BuildingBlock: CIFDUS_clean_linker_0, # of connection points: 2
# Relax obj value: 0.096
# Max RMSD: 0.164
# Mean RMSD: 0.127
data_MOF--net-tsx--node1-MIDCAF_clean_sbu_0--node2-PAMTOO_clean_linker_0--edge1-CIFDUS_clean_linker_0
_symmetry_space_group_name_H-M    P1
_symmetry_Int_Tables_number       1
_symmetry_cell_setting            triclinic
loop_
_symmetry_equiv_pos_as_xyz
'x, y, z'
_cell_length_a     16.928769
_cell_length_b     18.573941
_cell_length_c     30.333601
_cell_angle_alpha  81.785034
_cell_angle_beta   97.860574
_cell_angle_gamma 89.769004
loop_
_atom_site_label
_atom_site_type_symbol
_atom_site_fract_x
_atom_site_fract_y
_atom_site_fract_z
_atom_type_partial_charge
Zn0 Zn 0.96577 0.11769 0.94917 0.0
Zn1 Zn 0.22776 0.11929 0.05319 0.0
Zn2 Zn 0.09697 0.11635 1.00215 0.0
C3 C 0.18936 0.26289 0.02952 0.0
C4 C 0.26555 0.04201 0.98884 0.0
O5 O 1.00855 0.04795 0.03826 0.0
O6 O 0.90277 0.05215 0.98637 0.0
C7 C 0.98954 0.26105 0.95896 0.0
O8 O 0.13023 0.23377 0.00721 0.0
O9 O 0.24308 0.22293 0.05412 0.0
O10 O 0.29987 0.06773 0.0225 0.0
O11 O 0.1904 0.05537 0.97562 0.0
O12 O 0.93758 0.22148 0.94143 0.0
O13 O 0.05505 0.23263 0.98172 0.0
O14 O 0.12297 0.06668 0.9421 0.0
O15 O 1.00611 0.07914 0.89907 0.0
C16 C 0.07856 0.05909 0.90496 0.0
O17 O 0.0759 0.05843 0.0693 0.0
O18 O 0.19541 0.06549 0.10773 0.0
C19 C 0.93676 0.02849 0.0254 0.0
C20 C 0.12425 0.04524 0.10643 0.0
Zn21 Zn 0.63646 0.34789 0.57883 0.0
Zn22 Zn 0.43908 0.38743 0.44857 0.0
Zn23 Zn 0.55051 0.39656 0.51227 0.0
C24 C 0.57317 0.45332 0.41338 0.0
C25 C 0.38962 0.4838 0.5049 0.0
O26 O 0.51162 0.43681 0.57159 0.0
O27 O 0.55846 0.34422 0.62236 0.0
C28 C 0.65562 0.24093 0.53517 0.0
O29 O 0.59544 0.46097 0.45469 0.0
O30 O 0.51353 0.41503 0.40319 0.0
O31 O 0.37282 0.46495 0.46636 0.0
O32 O 0.45356 0.45941 0.53051 0.0
O33 O 0.6942 0.25957 0.5701 0.0
O34 O 0.59518 0.2808 0.51444 0.0
O35 O 0.65185 0.46188 0.49775 0.0
O36 O 0.69759 0.43883 0.56992 0.0
C37 C 0.70004 0.47589 0.53178 0.0
O38 O 0.51026 0.28335 0.51131 0.0
O39 O 0.40071 0.28679 0.46253 0.0
C40 C 0.51764 0.40279 0.6121 0.0
C41 C 0.44797 0.2519 0.49418 0.0
H42 H 0.19021 0.81551 0.38118 0.0
H43 H 1.00032 0.97824 0.35962 0.0
H44 H 0.08209 0.86885 0.49213 0.0
H45 H 0.90854 0.87991 0.46919 0.0
C46 C 0.90265 0.93502 0.44902 0.0
O47 O 0.97712 0.96211 0.44371 0.0
H48 H 0.8688 0.9305 0.41544 0.0
C49 C 0.14695 0.84768 0.39369 0.0
C50 C 0.1421 0.83669 0.43988 0.0
C51 C 0.09737 0.89957 0.36393 0.0
C52 C 0.03903 0.93736 0.38124 0.0
C53 C 0.03234 0.92482 0.42727 0.0
C54 C 0.08501 0.87576 0.45656 0.0
H55 H 0.22155 -0.00478 0.66509 0.0
H56 H 0.06479 0.81306 0.67939 0.0
H57 H 0.17216 0.86236 0.55964 0.0
H58 H 1.00148 0.82804 0.54004 0.0
C59 C 0.99428 0.80154 0.57421 0.0
O60 O 0.0684 0.78279 0.59861 0.0
H61 H 0.96223 0.84091 0.59038 0.0
C62 C 0.19434 0.9478 0.65291 0.0
C63 C 0.20471 0.93301 0.60967 0.0
C64 C 0.14343 0.90525 0.67867 0.0
C65 C 0.10478 0.8466 0.66076 0.0
C66 C 0.1139 0.83269 0.61764 0.0
C67 C 0.16534 0.87428 0.59284 0.0
H68 H 0.68572 0.52474 0.83132 0.0
H69 H 0.49602 0.68313 0.82179 0.0
H70 H 0.66256 0.63911 0.94315 0.0
H71 H 0.49706 0.66548 0.96147 0.0
C72 C 0.47226 0.69135 0.92699 0.0
O73 O 0.53414 0.71367 0.90333 0.0
H74 H 0.43616 0.65048 0.91008 0.0
C75 C 0.6564 0.56574 0.84593 0.0
C76 C 0.68447 0.57858 0.88989 0.0
C77 C 0.58859 0.60317 0.82125 0.0
C78 C 0.54902 0.65463 0.84034 0.0
C79 C 0.57542 0.66693 0.88436 0.0
C80 C 0.64311 0.62935 0.90902 0.0
H81 H 0.69358 0.70906 0.1783 0.0
H82 H 0.51307 0.55746 0.14085 0.0
H83 H 0.56067 0.73753 0.04459 0.0
H84 H 0.37915 0.6755 0.01924 0.0
C85 C 0.39438 0.64128 0.0525 0.0
O86 O 0.47471 0.62206 0.05856 0.0
H87 H 0.38031 0.67465 0.07831 0.0
C88 C 0.64813 0.69145 0.15362 0.0
C89 C 0.63256 0.73181 0.11015 0.0
C90 C 0.60547 0.62817 0.16522 0.0
C91 C 0.54658 0.60591 0.13276 0.0
C92 C 0.52975 0.64587 0.08975 0.0
C93 C 0.57284 0.70834 0.07848 0.0
H94 H 0.23748 0.33662 0.09759 0.0
H95 H 0.16965 0.36581 0.95397 0.0
H96 H 0.224 0.48889 0.94814 0.0
H97 H 0.30681 0.58145 0.98374 0.0
H98 H 0.37118 0.55014 0.1278 0.0
H99 H 0.30343 0.43403 0.13375 0.0
C100 C 0.23279 0.37073 0.06511 0.0
C101 C 0.19986 0.3424 0.02624 0.0
C102 C 0.26547 0.44021 0.06212 0.0
C103 C 0.19388 0.38688 0.98438 0.0
C104 C 0.22606 0.45676 0.98105 0.0
C105 C 0.30495 0.54944 0.0164 0.0
C106 C 0.34509 0.57355 0.05533 0.0
C107 C 0.26457 0.48295 0.01958 0.0
C108 C 0.34199 0.53197 0.09744 0.0
C109 C 0.30282 0.46589 0.10085 0.0
H110 H 0.21185 0.92356 0.95105 0.0
H111 H 0.42419 0.04324 0.98464 0.0
H112 H 0.50679 0.94628 0.96706 0.0
H113 H 0.51973 0.82295 0.94872 0.0
H114 H 0.30875 0.70202 0.91506 0.0
H115 H 0.22449 0.80367 0.92608 0.0
C116 C 0.27596 0.9292 0.95321 0.0
C117 C 0.31184 0.99055 0.96891 0.0
C118 C 0.3234 0.87259 0.94362 0.0
C119 C 0.39518 -0.00346 0.9725 0.0
C120 C 0.44254 0.94099 0.96269 0.0
C121 C 0.45526 0.81954 0.943 0.0
C122 C 0.42036 0.75579 0.93044 0.0
C123 C 0.40746 0.87804 0.94931 0.0
C124 C 0.33682 0.75112 0.92415 0.0
C125 C 0.2887 0.80912 0.93051 0.0
H126 H 0.77784 0.02196 0.02415 0.0
H127 H 0.99776 0.91266 0.08798 0.0
H128 H 0.92231 0.81323 0.12343 0.0
H129 H 0.79361 0.75146 0.12909 0.0
H130 H 0.57528 0.861 0.06186 0.0
H131 H 0.65037 0.9655 0.03422 0.0
C132 C 0.80935 0.97686 0.04639 0.0
C133 C 0.89331 0.97494 0.05368 0.0
C134 C 0.76575 0.9192 0.06527 0.0
C135 C 0.93321 0.91613 0.08248 0.0
C136 C 0.89 0.85886 0.10228 0.0
C137 C 0.76238 0.79874 0.10907 0.0
C138 C 0.6788 0.79785 0.0972 0.0
C139 C 0.80623 0.85891 0.09293 0.0
C140 C 0.63951 0.85947 0.07086 0.0
C141 C 0.6824 0.91951 0.05521 0.0
H142 H 0.89747 0.32694 0.00691 0.0
H143 H 0.03075 0.36599 0.89518 0.0
H144 H 0.9523 0.47797 0.86606 0.0
H145 H 0.82828 0.54918 0.86466 0.0
H146 H 0.69113 0.5056 0.97492 0.0
H147 H 0.78876 0.4119 0.01279 0.0
C148 C 0.91173 0.36211 0.97743 0.0
C149 C 0.97017 0.33922 0.95342 0.0
C150 C 0.864 0.42447 0.96001 0.0
C151 C 0.98707 0.38366 0.9146 0.0
C152 C 0.94121 0.44691 0.89758 0.0
C153 C 0.82081 0.5201 0.89742 0.0
C154 C 0.75195 0.53342 0.91663 0.0
C155 C 0.87668 0.46547 0.91869 0.0
C156 C 0.7435 0.49631 0.9594 0.0
C157 C 0.79912 0.4424 0.98096 0.0
H158 H 0.78394 0.52589 0.60213 0.0
H159 H 0.74148 0.56388 0.45699 0.0
H160 H 0.83181 0.66735 0.45702 0.0
H161 H 0.92074 0.74794 0.49946 0.0
H162 H 0.95588 0.70845 0.64453 0.0
H163 H 0.87035 0.60303 0.6434 0.0
C164 C 0.79439 0.55614 0.57021 0.0
C165 C 0.75582 0.53709 0.5295 0.0
C166 C 0.84517 0.61498 0.57066 0.0
C167 C 0.77006 0.57766 0.48874 0.0
C168 C 0.82177 0.6366 0.48883 0.0
C169 C 0.90966 0.71589 0.53068 0.0
C170 C 0.9447 0.73515 0.57214 0.0
C171 C 0.85929 0.65595 0.5297 0.0
C172 C 0.92992 0.69383 0.61242 0.0
C173 C 0.881 0.63395 0.61173 0.0
H174 H 0.77994 0.1483 0.57095 0.0
H175 H 0.59306 0.18974 0.45776 0.0
H176 H 0.65061 0.09596 0.4221 0.0
H177 H 0.76084 0.00968 0.4201 0.0
H178 H 0.94824 0.96999 0.53273 0.0
H179 H 0.88384 0.05583 0.57164 0.0
C180 C 0.75101 0.13623 0.53875 0.0
C181 C 0.68254 0.17653 0.51695 0.0
C182 C 0.78521 0.0832 0.51809 0.0
C183 C 0.64581 0.15977 0.47532 0.0
C184 C 0.67899 0.10639 0.45475 0.0
C185 C 0.78708 0.01961 0.45328 0.0
C186 C 0.85951 0.98448 0.47346 0.0
C187 C 0.74978 0.06909 0.4753 0.0
C188 C 0.89277 -0.00294 0.5166 0.0
C189 C 0.85598 0.04599 0.53875 0.0
H190 H 0.3251 0.16891 0.46537 0.0
H191 H 0.51927 0.17376 0.5731 0.0
H192 H 0.46389 0.07141 0.6175 0.0
H193 H 0.35103 0.99063 0.62965 0.0
H194 H 0.1556 0.98904 0.52236 0.0
H195 H 0.22067 0.07949 0.47412 0.0
C196 C 0.3563 0.14666 0.49816 0.0
C197 C 0.42581 0.17965 0.51592 0.0
C198 C 0.32307 0.08895 0.52407 0.0
C199 C 0.46572 0.1496 0.55839 0.0
C200 C 0.4336 0.09141 0.58413 0.0
C201 C 0.32317 0.0099 0.59561 0.0
C202 C 0.24848 0.98358 0.57976 0.0
C203 C 0.36073 0.06248 0.56799 0.0
C204 C 0.21337 0.0081 0.53533 0.0
C205 C 0.25035 0.06011 0.50773 0.0
H206 H 0.42795 0.6221 0.51247 0.0
H207 H 0.23527 0.47217 0.51822 0.0
H208 H 0.13854 0.57352 0.50778 0.0
H209 H 0.10801 0.70316 0.47971 0.0
H210 H 0.30034 0.85149 0.46446 0.0
H211 H 0.39802 0.75379 0.49633 0.0
C212 C 0.36509 0.612 0.51352 0.0
C213 C 0.3384 0.54026 0.51654 0.0
C214 C 0.30965 0.67065 0.50455 0.0
C215 C 0.25681 0.52722 0.51655 0.0
C216 C 0.20153 0.58516 0.50996 0.0
C217 C 0.17125 0.71416 0.48489 0.0
C218 C 0.19757 0.7837 0.46977 0.0
C219 C 0.22693 0.65695 0.50129 0.0
C220 C 0.27936 0.79795 0.47596 0.0
C221 C 0.33503 0.74208 0.49393 0.0
H222 H 0.22051 0.97445 0.17653 0.0
H223 H 0.97386 0.03798 0.13282 0.0
H224 H 0.94155 -0.00823 0.20814 0.0
H225 H 0.98719 0.94255 0.28829 0.0
H226 H 0.2395 0.89858 0.33096 0.0
H227 H 0.26534 0.9278 0.25424 0.0
C228 C 0.15934 0.97791 0.18321 0.0
C229 C 0.09956 0.00908 0.14897 0.0
C230 C 0.14239 0.95514 0.22674 0.0
C231 C 1.02072 0.01279 0.15829 0.0
C232 C 1.00256 0.9873 0.20155 0.0
C233 C 0.04789 0.9397 0.28094 0.0
C234 C 0.11089 0.91698 0.31593 0.0
C235 C 0.06348 0.95997 0.23641 0.0
C236 C 0.18901 0.91326 0.30517 0.0
C237 C 0.20431 0.93086 0.26112 0.0
H238 H 0.9922 0.99059 0.84339 0.0
H239 H 0.23182 0.05746 0.88285 0.0
H240 H 0.27516 0.01143 0.81778 0.0
H241 H 0.24165 0.95827 0.74669 0.0
H242 H 0.99718 0.90265 0.70658 0.0
H243 H 0.95934 0.93848 0.77461 0.0
C244 C 0.05416 -0.00501 0.83799 0.0
C245 C 0.1089 0.02667 0.86832 0.0
C246 C 0.07765 0.97075 0.8 0.0
C247 C 0.18886 0.0317 0.8607 0.0
C248 C 0.21333 0.00619 0.82314 0.0
C249 C 0.18014 0.95407 0.75286 0.0
C250 C 0.12281 0.92654 0.72149 0.0
C251 C 0.15783 0.97655 0.79208 0.0
C252 C 0.04336 0.92148 0.73032 0.0
C253 C 1.02124 0.94269 0.76918 0.0
H254 H 0.52272 0.54598 0.62088 0.0
H255 H 0.46521 0.33581 0.68757 0.0
H256 H 0.47324 0.38335 0.75895 0.0
H257 H 0.52144 0.47759 0.80437 0.0
H258 H 0.58501 0.68643 0.73934 0.0
H259 H 0.55034 0.64698 0.66531 0.0
C260 C 0.50881 0.51156 0.65071 0.0
C261 C 0.4939 0.43745 0.6492 0.0
C262 C 0.51715 0.53852 0.69212 0.0
C263 C 0.47694 0.39302 0.6881 0.0
C264 C 0.48245 0.41994 0.729 0.0
C265 C 0.52615 0.51465 0.77381 0.0
C266 C 0.55658 0.58412 0.77681 0.0
C267 C 0.50668 0.49137 0.73177 0.0
C268 C 0.56204 0.63245 0.73741 0.0
C269 C 0.54232 0.60985 0.69525 0.0
H270 H 0.60621 0.40129 0.33978 0.0
H271 H 0.61528 0.5963 0.40169 0.0
H272 H 0.63573 0.66878 0.33004 0.0
H273 H 0.62847 0.67774 0.24706 0.0
H274 H 0.61755 0.48069 0.18649 0.0
H275 H 0.62002 0.40806 0.26016 0.0
C276 C 0.6151 0.45944 0.33785 0.0
C277 C 0.60935 0.49352 0.3758 0.0
C278 C 0.62447 0.50056 0.29645 0.0
C279 C 0.62072 0.56878 0.37304 0.0
C280 C 0.63117 0.61028 0.33188 0.0
C281 C 0.62854 0.61886 0.25012 0.0
C282 C 0.62078 0.58488 0.21104 0.0
C283 C 0.62979 0.57705 0.2929 0.0
C284 C 0.62113 0.50843 0.21575 0.0
C285 C 0.62301 0.46674 0.25794 0.0
loop_
_geom_bond_atom_site_label_1
_geom_bond_atom_site_label_2
_geom_bond_distance
_geom_bond_site_symmetry_2
_ccdc_geom_bond_type
Zn0 O6 1.920 1_545 S
Zn0 O12 1.898 . S
Zn0 O15 1.905 1_545 S
Zn1 O9 1.908 . S
Zn1 O10 1.896 1_545 S
Zn1 O18 1.919 1_545 S
Zn2 O5 2.080 1_445 S
Zn2 O8 2.114 1_554 S
Zn2 O11 2.120 1_545 S
Zn2 O13 2.120 1_455 S
Zn2 O14 2.114 1_554 S
Zn2 O17 2.080 . S
C3 O8 1.166 1_554 S
C3 O9 1.182 . S
C4 O10 1.167 . S
C4 O11 1.299 . S
O5 Zn2 2.080 1_665 S
O5 C19 1.305 . S
O6 Zn0 1.920 1_565 S
O6 C19 1.234 1_556 S
C7 O12 1.167 . S
C7 O13 1.299 1_556 S
O8 Zn2 2.114 1_556 S
O8 C3 1.166 1_556 S
O9 Zn1 1.908 . S
O9 C3 1.182 . S
O10 Zn1 1.896 1_565 S
O10 C4 1.167 . S
O11 Zn2 2.120 1_565 S
O11 C4 1.299 . S
O12 Zn0 1.898 . S
O12 C7 1.167 . S
O13 Zn2 2.120 1_655 S
O13 C7 1.299 1_554 S
O14 Zn2 2.114 1_556 S
O14 C16 1.166 1_545 S
O15 Zn0 1.905 1_565 S
O15 C16 1.182 1_655 S
C16 O14 1.166 1_565 S
C16 O15 1.182 1_455 S
O17 Zn2 2.080 . S
O17 C20 1.305 1_545 S
O18 Zn1 1.919 1_565 S
O18 C20 1.234 . S
C19 O5 1.305 . S
C19 O6 1.234 1_554 S
C20 O17 1.305 1_565 S
C20 O18 1.234 . S
Zn21 O27 1.920 . S
Zn21 O33 1.898 . S
Zn21 O36 1.905 . S
Zn22 O30 1.905 . S
Zn22 O31 1.898 . S
Zn22 O39 1.920 . S
Zn23 O26 2.080 . S
Zn23 O29 2.114 . S
Zn23 O32 2.120 . S
Zn23 O34 2.120 . S
Zn23 O35 2.114 . S
Zn23 O38 2.080 . S
C24 O29 1.166 . S
C24 O30 1.182 . S
C25 O31 1.167 . S
C25 O32 1.299 . S
O26 Zn23 2.080 . S
O26 C40 1.305 . S
O27 Zn21 1.920 . S
O27 C40 1.234 . S
C28 O33 1.167 . S
C28 O34 1.299 . S
O29 Zn23 2.114 . S
O29 C24 1.166 . S
O30 Zn22 1.905 . S
O30 C24 1.182 . S
O31 Zn22 1.898 . S
O31 C25 1.167 . S
O32 Zn23 2.120 . S
O32 C25 1.299 . S
O33 Zn21 1.898 . S
O33 C28 1.167 . S
O34 Zn23 2.120 . S
O34 C28 1.299 . S
O35 Zn23 2.114 . S
O35 C37 1.166 . S
O36 Zn21 1.905 . S
O36 C37 1.182 . S
C37 O35 1.166 . S
C37 O36 1.182 . S
O38 Zn23 2.080 . S
O38 C41 1.305 . S
O39 Zn22 1.920 . S
O39 C41 1.234 . S
C40 O26 1.305 . S
C40 O27 1.234 . S
C41 O38 1.305 . S
C41 O39 1.234 . S
H42 C49 0.929 . S
H43 C52 0.930 . S
H44 C54 0.929 . S
H45 C46 0.969 . S
C46 H45 0.969 . S
C46 O47 1.550 1_655 S
C46 H48 0.973 . S
O47 C46 1.550 1_455 S
O47 C53 1.412 . S
H48 C46 0.973 . S
C49 H42 0.929 . S
C49 C50 1.400 . S
C49 C51 1.364 1_565 S
C50 C49 1.400 . S
C50 C54 1.377 . S
C51 C49 1.364 1_545 S
C51 C52 1.374 . S
C52 H43 0.930 . S
C52 C51 1.374 . S
C52 C53 1.383 . S
C53 O47 1.412 . S
C53 C52 1.383 . S
C53 C54 1.394 1_545 S
C54 H44 0.929 . S
C54 C50 1.377 . S
C54 C53 1.394 1_565 S
H55 C62 0.929 . S
H56 C65 0.930 1_565 S
H57 C67 0.929 . S
H58 C59 0.969 . S
C59 H58 0.969 . S
C59 O60 1.550 . S
C59 H61 0.973 . S
O60 C59 1.550 . S
O60 C66 1.412 1_565 S
H61 C59 0.973 . S
C62 H55 0.929 . S
C62 C63 1.400 . S
C62 C64 1.364 . S
C63 C62 1.400 . S
C63 C67 1.377 . S
C64 C62 1.364 . S
C64 C65 1.374 1_455 S
C65 H56 0.930 1_545 S
C65 C64 1.374 1_655 S
C65 C66 1.383 . S
C66 O60 1.412 1_545 S
C66 C65 1.383 . S
C66 C67 1.394 1_655 S
C67 H57 0.929 . S
C67 C63 1.377 . S
C67 C66 1.394 1_455 S
H68 C75 0.929 . S
H69 C78 0.930 . S
H70 C80 0.929 . S
H71 C72 0.969 . S
C72 H71 0.969 . S
C72 O73 1.550 . S
C72 H74 0.973 . S
O73 C72 1.550 . S
O73 C79 1.412 . S
H74 C72 0.973 . S
C75 H68 0.929 . S
C75 C76 1.400 . S
C75 C77 1.364 . S
C76 C75 1.400 . S
C76 C80 1.377 . S
C77 C75 1.364 . S
C77 C78 1.374 . S
C78 H69 0.930 . S
C78 C77 1.374 . S
C78 C79 1.383 . S
C79 O73 1.412 . S
C79 C78 1.383 . S
C79 C80 1.394 . S
C80 H70 0.929 . S
C80 C76 1.377 . S
C80 C79 1.394 . S
H81 C88 0.929 . S
H82 C91 0.930 . S
H83 C93 0.929 . S
H84 C85 0.969 . S
C85 H84 0.969 . S
C85 O86 1.550 . S
C85 H87 0.973 . S
O86 C85 1.550 . S
O86 C92 1.412 . S
H87 C85 0.973 . S
C88 H81 0.929 . S
C88 C89 1.400 . S
C88 C90 1.364 . S
C89 C88 1.400 . S
C89 C93 1.377 . S
C90 C88 1.364 . S
C90 C91 1.374 . S
C91 H82 0.930 . S
C91 C90 1.374 . S
C91 C92 1.383 . S
C92 O86 1.412 . S
C92 C91 1.383 . S
C92 C93 1.394 . S
C93 H83 0.929 . S
C93 C89 1.377 . S
C93 C92 1.394 . S
H94 C100 0.930 . S
H95 C103 0.930 . S
H96 C104 0.930 . S
H97 C105 0.930 1_556 S
H98 C108 0.930 . S
H99 C109 0.930 . S
C100 H94 0.930 . S
C100 C101 1.355 . S
C100 C102 1.415 . S
C101 C100 1.355 . S
C101 C103 1.419 1_554 S
C102 C100 1.415 . S
C102 C107 1.425 . S
C102 C109 1.409 . S
C103 H95 0.930 . S
C103 C101 1.419 1_556 S
C103 C104 1.362 . S
C104 H96 0.930 . S
C104 C103 1.362 . S
C104 C107 1.409 1_556 S
C105 H97 0.930 1_554 S
C105 C106 1.355 . S
C105 C107 1.415 . S
C106 C105 1.355 . S
C106 C108 1.419 . S
C107 C102 1.425 . S
C107 C104 1.409 1_554 S
C107 C105 1.415 . S
C108 H98 0.930 . S
C108 C106 1.419 . S
C108 C109 1.362 . S
C109 H99 0.930 . S
C109 C102 1.409 . S
C109 C108 1.362 . S
H110 C116 0.930 . S
H111 C119 0.930 . S
H112 C120 0.930 . S
H113 C121 0.930 1_554 S
H114 C124 0.930 . S
H115 C125 0.930 . S
C116 H110 0.930 . S
C116 C117 1.355 . S
C116 C118 1.415 . S
C117 C116 1.355 . S
C117 C119 1.419 1_556 S
C118 C116 1.415 . S
C118 C123 1.425 . S
C118 C125 1.409 . S
C119 H111 0.930 . S
C119 C117 1.419 1_554 S
C119 C120 1.362 . S
C120 H112 0.930 . S
C120 C119 1.362 . S
C120 C123 1.409 1_554 S
C121 H113 0.930 1_556 S
C121 C122 1.355 . S
C121 C123 1.415 . S
C122 C121 1.355 . S
C122 C124 1.419 . S
C123 C118 1.425 . S
C123 C120 1.409 1_556 S
C123 C121 1.415 . S
C124 H114 0.930 . S
C124 C122 1.419 . S
C124 C125 1.362 . S
C125 H115 0.930 . S
C125 C118 1.409 . S
C125 C124 1.362 . S
H126 C132 0.930 . S
H127 C135 0.930 . S
H128 C136 0.930 . S
H129 C137 0.930 . S
H130 C140 0.930 . S
H131 C141 0.930 . S
C132 H126 0.930 . S
C132 C133 1.355 . S
C132 C134 1.415 . S
C133 C132 1.355 . S
C133 C135 1.419 . S
C134 C132 1.415 . S
C134 C139 1.425 . S
C134 C141 1.409 . S
C135 H127 0.930 . S
C135 C133 1.419 . S
C135 C136 1.362 . S
C136 H128 0.930 . S
C136 C135 1.362 . S
C136 C139 1.409 . S
C137 H129 0.930 . S
C137 C138 1.355 . S
C137 C139 1.415 . S
C138 C137 1.355 . S
C138 C140 1.419 . S
C139 C134 1.425 . S
C139 C136 1.409 . S
C139 C137 1.415 . S
C140 H130 0.930 . S
C140 C138 1.419 . S
C140 C141 1.362 . S
C141 H131 0.930 . S
C141 C134 1.409 . S
C141 C140 1.362 . S
H142 C148 0.930 1_554 S
H143 C151 0.930 . S
H144 C152 0.930 . S
H145 C153 0.930 . S
H146 C156 0.930 . S
H147 C157 0.930 1_554 S
C148 H142 0.930 1_556 S
C148 C149 1.355 . S
C148 C150 1.415 . S
C149 C148 1.355 . S
C149 C151 1.419 . S
C150 C148 1.415 . S
C150 C155 1.425 . S
C150 C157 1.409 . S
C151 H143 0.930 . S
C151 C149 1.419 . S
C151 C152 1.362 . S
C152 H144 0.930 . S
C152 C151 1.362 . S
C152 C155 1.409 . S
C153 H145 0.930 . S
C153 C154 1.355 . S
C153 C155 1.415 . S
C154 C153 1.355 . S
C154 C156 1.419 . S
C155 C150 1.425 . S
C155 C152 1.409 . S
C155 C153 1.415 . S
C156 H146 0.930 . S
C156 C154 1.419 . S
C156 C157 1.362 . S
C157 H147 0.930 1_556 S
C157 C150 1.409 . S
C157 C156 1.362 . S
H158 C164 0.930 . S
H159 C167 0.930 . S
H160 C168 0.930 . S
H161 C169 0.930 . S
H162 C172 0.930 . S
H163 C173 0.930 . S
C164 H158 0.930 . S
C164 C165 1.355 . S
C164 C166 1.415 . S
C165 C164 1.355 . S
C165 C167 1.419 . S
C166 C164 1.415 . S
C166 C171 1.425 . S
C166 C173 1.409 . S
C167 H159 0.930 . S
C167 C165 1.419 . S
C167 C168 1.362 . S
C168 H160 0.930 . S
C168 C167 1.362 . S
C168 C171 1.409 . S
C169 H161 0.930 . S
C169 C170 1.355 . S
C169 C171 1.415 . S
C170 C169 1.355 . S
C170 C172 1.419 . S
C171 C166 1.425 . S
C171 C168 1.409 . S
C171 C169 1.415 . S
C172 H162 0.930 . S
C172 C170 1.419 . S
C172 C173 1.362 . S
C173 H163 0.930 . S
C173 C166 1.409 . S
C173 C172 1.362 . S
H174 C180 0.930 . S
H175 C183 0.930 . S
H176 C184 0.930 . S
H177 C185 0.930 . S
H178 C188 0.930 . S
H179 C189 0.930 . S
C180 H174 0.930 . S
C180 C181 1.355 . S
C180 C182 1.415 . S
C181 C180 1.355 . S
C181 C183 1.419 . S
C182 C180 1.415 . S
C182 C187 1.425 . S
C182 C189 1.409 . S
C183 H175 0.930 . S
C183 C181 1.419 . S
C183 C184 1.362 . S
C184 H176 0.930 . S
C184 C183 1.362 . S
C184 C187 1.409 . S
C185 H177 0.930 . S
C185 C186 1.355 . S
C185 C187 1.415 . S
C186 C185 1.355 . S
C186 C188 1.419 . S
C187 C182 1.425 . S
C187 C184 1.409 . S
C187 C185 1.415 . S
C188 H178 0.930 . S
C188 C186 1.419 . S
C188 C189 1.362 . S
C189 H179 0.930 . S
C189 C182 1.409 . S
C189 C188 1.362 . S
H190 C196 0.930 . S
H191 C199 0.930 . S
H192 C200 0.930 . S
H193 C201 0.930 . S
H194 C204 0.930 . S
H195 C205 0.930 . S
C196 H190 0.930 . S
C196 C197 1.355 . S
C196 C198 1.415 . S
C197 C196 1.355 . S
C197 C199 1.419 . S
C198 C196 1.415 . S
C198 C203 1.425 . S
C198 C205 1.409 . S
C199 H191 0.930 . S
C199 C197 1.419 . S
C199 C200 1.362 . S
C200 H192 0.930 . S
C200 C199 1.362 . S
C200 C203 1.409 . S
C201 H193 0.930 . S
C201 C202 1.355 . S
C201 C203 1.415 . S
C202 C201 1.355 . S
C202 C204 1.419 . S
C203 C198 1.425 . S
C203 C200 1.409 . S
C203 C201 1.415 . S
C204 H194 0.930 . S
C204 C202 1.419 . S
C204 C205 1.362 . S
C205 H195 0.930 . S
C205 C198 1.409 . S
C205 C204 1.362 . S
H206 C212 0.930 . S
H207 C215 0.930 . S
H208 C216 0.930 . S
H209 C217 0.930 . S
H210 C220 0.930 . S
H211 C221 0.930 . S
C212 H206 0.930 . S
C212 C213 1.355 . S
C212 C214 1.415 . S
C213 C212 1.355 . S
C213 C215 1.419 . S
C214 C212 1.415 . S
C214 C219 1.425 . S
C214 C221 1.409 . S
C215 H207 0.930 . S
C215 C213 1.419 . S
C215 C216 1.362 . S
C216 H208 0.930 . S
C216 C215 1.362 . S
C216 C219 1.409 . S
C217 H209 0.930 . S
C217 C218 1.355 . S
C217 C219 1.415 . S
C218 C217 1.355 . S
C218 C220 1.419 . S
C219 C214 1.425 . S
C219 C216 1.409 . S
C219 C217 1.415 . S
C220 H210 0.930 . S
C220 C218 1.419 . S
C220 C221 1.362 . S
C221 H211 0.930 . S
C221 C214 1.409 . S
C221 C220 1.362 . S
H222 C228 0.930 . S
H223 C231 0.930 . S
H224 C232 0.930 . S
H225 C233 0.930 1_655 S
H226 C236 0.930 . S
H227 C237 0.930 . S
C228 H222 0.930 . S
C228 C229 1.355 . S
C228 C230 1.415 . S
C229 C228 1.355 . S
C229 C231 1.419 1_455 S
C230 C228 1.415 . S
C230 C235 1.425 . S
C230 C237 1.409 . S
C231 H223 0.930 . S
C231 C229 1.419 1_655 S
C231 C232 1.362 . S
C232 H224 0.930 . S
C232 C231 1.362 . S
C232 C235 1.409 1_655 S
C233 H225 0.930 1_455 S
C233 C234 1.355 . S
C233 C235 1.415 1_545 S
C234 C233 1.355 . S
C234 C236 1.419 1_545 S
C235 C230 1.425 . S
C235 C232 1.409 1_455 S
C235 C233 1.415 1_565 S
C236 H226 0.930 . S
C236 C234 1.419 1_565 S
C236 C237 1.362 . S
C237 H227 0.930 . S
C237 C230 1.409 . S
C237 C236 1.362 . S
H238 C244 0.930 . S
H239 C247 0.930 . S
H240 C248 0.930 . S
H241 C249 0.930 1_565 S
H242 C252 0.930 . S
H243 C253 0.930 . S
C244 H238 0.930 . S
C244 C245 1.355 1_645 S
C244 C246 1.415 . S
C245 C244 1.355 1_465 S
C245 C247 1.419 . S
C246 C244 1.415 . S
C246 C251 1.425 1_655 S
C246 C253 1.409 . S
C247 H239 0.930 . S
C247 C245 1.419 . S
C247 C248 1.362 . S
C248 H240 0.930 . S
C248 C247 1.362 . S
C248 C251 1.409 1_565 S
C249 H241 0.930 1_545 S
C249 C250 1.355 . S
C249 C251 1.415 . S
C250 C249 1.355 . S
C250 C252 1.419 1_455 S
C251 C246 1.425 1_455 S
C251 C248 1.409 1_545 S
C251 C249 1.415 . S
C252 H242 0.930 . S
C252 C250 1.419 1_655 S
C252 C253 1.362 . S
C253 H243 0.930 . S
C253 C246 1.409 . S
C253 C252 1.362 . S
H254 C260 0.930 . S
H255 C263 0.930 . S
H256 C264 0.930 . S
H257 C265 0.930 . S
H258 C268 0.930 . S
H259 C269 0.930 . S
C260 H254 0.930 . S
C260 C261 1.355 . S
C260 C262 1.415 . S
C261 C260 1.355 . S
C261 C263 1.419 . S
C262 C260 1.415 . S
C262 C267 1.425 . S
C262 C269 1.409 . S
C263 H255 0.930 . S
C263 C261 1.419 . S
C263 C264 1.362 . S
C264 H256 0.930 . S
C264 C263 1.362 . S
C264 C267 1.409 . S
C265 H257 0.930 . S
C265 C266 1.355 . S
C265 C267 1.415 . S
C266 C265 1.355 . S
C266 C268 1.419 . S
C267 C262 1.425 . S
C267 C264 1.409 . S
C267 C265 1.415 . S
C268 H258 0.930 . S
C268 C266 1.419 . S
C268 C269 1.362 . S
C269 H259 0.930 . S
C269 C262 1.409 . S
C269 C268 1.362 . S
H270 C276 0.930 . S
H271 C279 0.930 . S
H272 C280 0.930 . S
H273 C281 0.930 . S
H274 C284 0.930 . S
H275 C285 0.930 . S
C276 H270 0.930 . S
C276 C277 1.355 . S
C276 C278 1.415 . S
C277 C276 1.355 . S
C277 C279 1.419 . S
C278 C276 1.415 . S
C278 C283 1.425 . S
C278 C285 1.409 . S
C279 H271 0.930 . S
C279 C277 1.419 . S
C279 C280 1.362 . S
C280 H272 0.930 . S
C280 C279 1.362 . S
C280 C283 1.409 . S
C281 H273 0.930 . S
C281 C282 1.355 . S
C281 C283 1.415 . S
C282 C281 1.355 . S
C282 C284 1.419 . S
C283 C278 1.425 . S
C283 C280 1.409 . S
C283 C281 1.415 . S
C284 H274 0.930 . S
C284 C282 1.419 . S
C284 C285 1.362 . S
C285 H275 0.930 . S
C285 C278 1.409 . S
C285 C284 1.362 . S
C106 C85 1.203 . S
C101 C3 1.235 . S
C117 C4 1.405 1_556 S
C122 C72 1.390 . S
C133 C19 1.562 . S
C138 C89 1.650 . S
C149 C7 1.194 . S
C154 C76 1.374 . S
C165 C37 1.118 . S
C170 C59 1.177 . S
C181 C28 1.401 . S
C186 C46 1.386 . S
C202 C63 1.641 . S
C197 C41 1.544 . S
C218 C50 1.339 . S
C213 C25 1.208 . S
C229 C20 1.407 . S
C234 C51 1.520 . S
C245 C16 1.438 . S
C250 C64 1.548 . S
C266 C77 1.507 . S
C261 C40 1.384 . S
C277 C24 1.329 . S
C282 C90 1.530 . S
