# Generated by pormake.
# Topology pth, (4,4)-cn, num edge types: 1
# Building blocks:
#     Node 0, Type 0, BuildingBlock: QUQFOY_clean_sbu_1, # of connection points: 4
#     Node 1, Type 0, BuildingBlock: QUQFOY_clean_sbu_1, # of connection points: 4
#     Node 2, Type 0, BuildingBlock: QUQFOY_clean_sbu_1, # of connection points: 4
#     Node 3, Type 1, BuildingBlock: NAWXER_clean_linker_0, # of connection points: 4
#     Node 4, Type 1, BuildingBlock: NAWXER_clean_linker_0, # of connection points: 4
#     Node 5, Type 1, BuildingBlock: NAWXER_clean_linker_0, # of connection points: 4
#     Edge 6, Type (0, 1), BuildingBlock: CIFDUS_clean_linker_0, # of connection points: 2
#     Edge 7, Type (0, 1), BuildingBlock: CIFDUS_clean_linker_0, # of connection points: 2
#     Edge 8, Type (0, 1), BuildingBlock: CIFDUS_clean_linker_0, # of connection points: 2
#     Edge 9, Type (0, 1), BuildingBlock: CIFDUS_clean_linker_0, # of connection points: 2
#     Edge 10, Type (0, 1), BuildingBlock: CIFDUS_clean_linker_0, # of connection points: 2
#     Edge 11, Type (0, 1), BuildingBlock: CIFDUS_clean_linker_0, # of connection points: 2
#     Edge 12, Type (0, 1), BuildingBlock: CIFDUS_clean_linker_0, # of connection points: 2
#     Edge 13, Type (0, 1), BuildingBlock: CIFDUS_clean_linker_0, # of connection points: 2
#     Edge 14, Type (0, 1), BuildingBlock: CIFDUS_clean_linker_0, # of connection points: 2
#     Edge 15, Type (0, 1), BuildingBlock: CIFDUS_clean_linker_0, # of connection points: 2
#     Edge 16, Type (0, 1), BuildingBlock: CIFDUS_clean_linker_0, # of connection points: 2
#     Edge 17, Type (0, 1), BuildingBlock: CIFDUS_clean_linker_0, # of connection points: 2
# Relax obj value: 0.023
# Max RMSD: 0.124
# Mean RMSD: 0.072
data_MOF--net-pth--node1-QUQFOY_clean_sbu_1--node2-NAWXER_clean_linker_0--edge1-CIFDUS_clean_linker_0
_symmetry_space_group_name_H-M    P1
_symmetry_Int_Tables_number       1
_symmetry_cell_setting            triclinic
loop_
_symmetry_equiv_pos_as_xyz
'x, y, z'
_cell_length_a     25.525941
_cell_length_b     27.205632
_cell_length_c     59.372981
_cell_angle_alpha  90.102079
_cell_angle_beta   89.967279
_cell_angle_gamma 120.14112
loop_
_atom_site_label
_atom_site_type_symbol
_atom_site_fract_x
_atom_site_fract_y
_atom_site_fract_z
_atom_type_partial_charge
O0 O 0.01782 0.07061 0.03064 0.0
Cd1 Cd 0.9561 0.01803 0.05415 0.0
Cd2 Cd 0.02977 0.97773 0.05522 0.0
O3 O 0.091 0.05461 0.04059 0.0
O4 O 0.91628 0.06017 0.06549 0.0
O5 O 0.974 0.0397 0.08676 0.0
C6 C 0.94275 0.06488 0.08455 0.0
C7 C 0.05135 0.93641 0.08541 0.0
C8 C 0.07253 0.0824 0.02912 0.0
C9 C 0.90893 0.9067 0.03298 0.0
O10 O 0.9636 0.91814 0.03446 0.0
O11 O 0.89252 0.93883 0.0424 0.0
O12 O 0.07598 0.94116 0.06597 0.0
O13 O 0.01764 0.9589 0.08819 0.0
O14 O 0.9416 0.03677 0.40069 0.0
Cd15 Cd 0.01544 0.05657 0.38062 0.0
Cd16 Cd 0.9683 0.94481 0.38267 0.0
O17 O 0.89493 0.94343 0.39789 0.0
O18 O 0.04175 0.13462 0.36967 0.0
O19 O 0.00755 0.06031 0.34695 0.0
C20 C 0.02692 0.11388 0.34962 0.0
C21 C 0.95899 0.88514 0.35291 0.0
C22 C 0.89652 0.98816 0.40514 0.0
C23 C 0.08799 0.0177 0.40577 0.0
O24 O 0.04253 0.96837 0.4029 0.0
O25 O 0.08931 0.06053 0.39663 0.0
O26 O 0.94456 0.86623 0.37321 0.0
O27 O 0.97584 0.93786 0.34925 0.0
O28 O 0.90031 0.95246 0.70076 0.0
Cd29 Cd 0.95862 0.94242 0.72163 0.0
Cd30 Cd 0.0215 0.05731 0.71889 0.0
O31 O 0.94422 0.04584 0.70303 0.0
O32 O 0.9117 0.8623 0.73223 0.0
O33 O 0.9409 0.93622 0.75493 0.0
C34 C 0.91201 0.88178 0.75205 0.0
C35 C 0.07088 0.12751 0.74635 0.0
C36 C 0.90141 0.99845 0.69593 0.0
C37 C 0.07688 0.99382 0.69751 0.0
O38 O 0.07793 0.04075 0.69968 0.0
O39 O 0.03505 0.94908 0.7067 0.0
O40 O 0.07129 0.14013 0.72541 0.0
O41 O 0.0399 0.07453 0.75196 0.0
C42 C 0.97604 0.32464 0.25332 0.0
C43 C 0.02904 0.34556 0.26639 0.0
C44 C 0.96739 0.36108 0.23911 0.0
C45 C 0.01182 0.41884 0.23766 0.0
C46 C 0.07424 0.40291 0.26414 0.0
C47 C 0.06548 0.43916 0.25008 0.0
C48 C 0.00119 0.46003 0.22518 0.0
C49 C 0.00625 0.34183 0.17256 0.0
C50 C 0.95184 0.31229 0.16029 0.0
C51 C 0.0172 0.38779 0.18639 0.0
C52 C 0.97388 0.40497 0.18828 0.0
C53 C 0.90846 0.3295 0.16244 0.0
C54 C 0.91962 0.37559 0.17612 0.0
C55 C 0.98512 0.45457 0.20217 0.0
C56 C 0.04522 0.69306 0.18184 0.0
C57 C -0.00224 0.68491 0.16751 0.0
C58 C 0.04236 0.64724 0.1935 0.0
C59 C 0.99212 0.5923 0.19098 0.0
C60 C 0.94775 0.62981 0.16481 0.0
C61 C 0.9453 0.58375 0.17626 0.0
C62 C 0.98908 0.54414 0.20369 0.0
C63 C 0.95251 0.64501 0.25465 0.0
C64 C 0.99188 0.66555 0.27319 0.0
C65 C 0.9557 0.60745 0.23938 0.0
C66 C -0.00053 0.59086 0.24199 0.0
C67 C 0.03577 0.64925 0.27579 0.0
C68 C 0.03953 0.61231 0.26034 0.0
C69 C -0.00028 0.54699 0.22712 0.0
H70 H 0.94009 0.28084 0.25485 0.0
H71 H 0.92509 0.34467 0.23001 0.0
H72 H 0.116 0.42017 0.27366 0.0
H73 H 0.10034 0.48357 0.24921 0.0
H74 H 0.04115 0.33052 0.17101 0.0
H75 H 0.05999 0.41059 0.19524 0.0
H76 H 0.86572 0.30733 0.15354 0.0
H77 H 0.88558 0.38813 0.17733 0.0
H78 H 0.08424 0.73503 0.18423 0.0
H79 H 0.07952 0.65469 0.20449 0.0
H80 H 0.91091 0.62227 0.15364 0.0
H81 H 0.90639 0.54167 0.17396 0.0
H82 H 0.91754 0.65607 0.25249 0.0
H83 H 0.92237 0.58983 0.22604 0.0
H84 H 0.06682 0.66465 0.28992 0.0
H85 H 0.07326 0.59983 0.26292 0.0
N86 N 0.00688 0.50555 0.23679 0.0
N87 N 0.98052 0.49732 0.19219 0.0
C88 C 0.7004 0.06077 0.51248 0.0
C89 C 0.68226 0.02148 0.49459 0.0
C90 C 0.65762 0.06 0.52742 0.0
C91 C 0.59601 0.01925 0.52501 0.0
C92 C 0.62058 0.98061 0.49236 0.0
C93 C 0.57802 0.97959 0.50738 0.0
C94 C 0.54895 0.02039 0.53918 0.0
C95 C 0.66655 0.99385 0.58961 0.0
C96 C 0.69252 0.0371 0.60598 0.0
C97 C 0.62178 0.99048 0.57505 0.0
C98 C 0.60251 0.03045 0.5766 0.0
C99 C 0.67346 0.07729 0.60726 0.0
C100 C 0.62867 0.07376 0.59281 0.0
C101 C 0.55185 0.02534 0.56286 0.0
C102 C 0.34895 0.98983 0.61185 0.0
C103 C 0.32535 0.02577 0.60762 0.0
C104 C 0.3901 0.9878 0.59698 0.0
C105 C 0.40875 0.02157 0.57753 0.0
C106 C 0.34378 0.05943 0.58801 0.0
C107 C 0.38555 0.05775 0.57322 0.0
C108 C 0.45627 0.02161 0.56325 0.0
C109 C 0.37411 0.0441 0.49174 0.0
C110 C 0.31289 1.00467 0.49603 0.0
C111 C 0.4192 0.04893 0.50634 0.0
C112 C 0.40431 0.01461 0.52559 0.0
C113 C 0.29789 0.97055 0.51545 0.0
C114 C 0.34325 0.97513 0.53 0.0
C115 C 0.45385 0.01767 0.53951 0.0
H116 H 0.74761 0.09256 0.5148 0.0
H117 H 0.67261 0.09222 0.54042 0.0
H118 H 0.60476 0.95039 0.47858 0.0
H119 H 0.53065 0.9482 0.50499 0.0
H120 H 0.68059 0.96244 0.58817 0.0
H121 H 0.60131 0.95599 0.56298 0.0
H122 H 0.69193 0.11058 0.61989 0.0
H123 H 0.61396 0.10468 0.59444 0.0
H124 H 0.3369 0.96423 0.62697 0.0
H125 H 0.40802 0.96014 0.60086 0.0
H126 H 0.32622 0.08733 0.58415 0.0
H127 H 0.40053 0.08554 0.5587 0.0
H128 H 0.3875 0.07024 0.47675 0.0
H129 H 0.46607 0.07917 0.50242 0.0
H130 H 0.25114 0.93998 0.51933 0.0
H131 H 0.33065 0.94704 0.54439 0.0
N132 N 0.50019 0.01701 0.52852 0.0
N133 N 0.50533 0.02551 0.57389 0.0
C134 C 0.32898 0.31576 0.85642 0.0
C135 C 0.29273 0.32961 0.84303 0.0
C136 C 0.37632 0.35738 0.86934 0.0
C137 C 0.38843 0.41374 0.86921 0.0
C138 C 0.30499 0.38619 0.84302 0.0
C139 C 0.35264 0.42785 0.85584 0.0
C140 C 0.43946 0.45847 0.88235 0.0
C141 C 0.3084 0.35178 0.93854 0.0
C142 C 0.32771 0.31734 0.94924 0.0
C143 C 0.34627 0.39414 0.92343 0.0
C144 C 0.40447 0.40355 0.91901 0.0
C145 C 0.38564 0.32606 0.94409 0.0
C146 C 0.42393 0.36932 0.92939 0.0
C147 C 0.44737 0.45274 0.90551 0.0
C148 C 0.62971 0.6896 0.93272 0.0
C149 C 0.6583 0.67756 0.95034 0.0
C150 C 0.59131 0.64688 0.91779 0.0
C151 C 0.58129 0.59139 0.92001 0.0
C152 C 0.6485 0.62209 0.95244 0.0
C153 C 0.61019 0.57942 0.93748 0.0
C154 C 0.53571 0.54448 0.90589 0.0
C155 C 0.68273 0.65338 0.85762 0.0
C156 C 0.66783 0.68521 0.8431 0.0
C157 C 0.63796 0.60956 0.87055 0.0
C158 C 0.57735 0.59642 0.86906 0.0
C159 C 0.60721 0.67224 0.84169 0.0
C160 C 0.56218 0.62768 0.85437 0.0
C161 C 0.52997 0.54914 0.88245 0.0
H162 H 0.32186 0.27303 0.85648 0.0
H163 H 0.40433 0.3457 0.87904 0.0
H164 H 0.27766 0.39835 0.83316 0.0
H165 H 0.36127 0.47111 0.85545 0.0
H166 H 0.26481 0.34744 0.94234 0.0
H167 H 0.33103 0.42099 0.91585 0.0
H168 H 0.40178 0.2998 0.95151 0.0
H169 H 0.46898 0.37634 0.9262 0.0
H170 H 0.63667 0.73199 0.93055 0.0
H171 H 0.56804 0.65696 0.90497 0.0
H172 H 0.66916 0.61123 0.96601 0.0
H173 H 0.60241 0.53676 0.93976 0.0
H174 H 0.7291 0.66253 0.85899 0.0
H175 H 0.65057 0.58542 0.88153 0.0
H176 H 0.59452 0.69581 0.83043 0.0
H177 H 0.51564 0.61797 0.85287 0.0
N178 N 0.48144 0.50639 0.87158 0.0
N179 N 0.49469 0.49607 0.91643 0.0
H180 H 0.89893 0.13704 0.08148 0.0
H181 H 0.98606 0.07836 0.12771 0.0
H182 H -0.00567 0.14813 0.15566 0.0
H183 H 0.98122 0.22908 0.1662 0.0
H184 H 0.89924 0.29035 0.11865 0.0
H185 H 0.88396 0.21588 0.09219 0.0
C186 C 0.91908 0.13893 0.09777 0.0
C187 C 0.9418 0.10245 0.10247 0.0
C188 C 0.92487 0.17989 0.11353 0.0
C189 C 0.96815 0.10589 0.12363 0.0
C190 C 0.9731 0.14594 0.1396 0.0
C191 C 0.96027 0.22633 0.15001 0.0
C192 C 0.94133 0.26543 0.14454 0.0
C193 C 0.95254 0.18384 0.13458 0.0
C194 C 0.91342 0.26049 0.12356 0.0
C195 C 0.905 0.21807 0.1083 0.0
H196 H 0.88834 0.07529 0.42367 0.0
H197 H 0.79707 0.89198 0.42107 0.0
H198 H 0.72311 0.88618 0.44868 0.0
H199 H 0.68694 0.93327 0.47461 0.0
H200 H 0.77762 0.11662 0.47639 0.0
H201 H 0.85024 0.1221 0.44841 0.0
C202 C 0.85208 0.03396 0.42898 0.0
C203 C 0.84842 0.98415 0.4203 0.0
C204 C 0.81014 0.03092 0.44497 0.0
C205 C 0.80099 0.93104 0.42742 0.0
C206 C 0.75881 0.92767 0.44329 0.0
C207 C 0.7222 0.97445 0.46873 0.0
C208 C 0.72691 0.02445 0.47776 0.0
C209 C 0.76334 0.97736 0.45234 0.0
C210 C 0.77352 0.07743 0.47012 0.0
C211 C 0.81477 0.08064 0.45394 0.0
H212 H 0.84782 0.89797 0.7847 0.0
H213 H 0.89447 0.77625 0.75939 0.0
H214 H 0.82583 0.70572 0.78654 0.0
H215 H 0.74726 0.6765 0.81559 0.0
H216 H 0.69351 0.79495 0.83868 0.0
H217 H 0.76968 0.86887 0.81425 0.0
C218 C 0.84364 0.8563 0.78547 0.0
C219 C 0.87641 0.8423 0.77028 0.0
C220 C 0.80217 0.81522 0.80049 0.0
C221 C 0.86975 0.78787 0.77102 0.0
C222 C 0.8304 0.74753 0.78646 0.0
C223 C 0.75279 0.71872 0.81541 0.0
C224 C 0.71512 0.73047 0.82889 0.0
C225 C 0.79555 0.76038 0.80097 0.0
C226 C 0.7219 0.78499 0.82831 0.0
C227 C 0.76551 0.82722 0.81442 0.0
H228 H 0.96643 0.87189 0.11627 0.0
H229 H 0.14485 0.91726 0.09264 0.0
H230 H 0.14561 0.84559 0.11726 0.0
H231 H 0.09194 0.76461 0.14303 0.0
H232 H 0.91033 0.71421 0.16433 0.0
H233 H 0.91397 0.79275 0.14298 0.0
C234 C 0.00596 0.86687 0.11692 0.0
C235 C 0.05576 0.90006 0.10286 0.0
C236 C 0.00496 0.82394 0.13038 0.0
C237 C 0.10615 0.89231 0.10342 0.0
C238 C 0.10644 0.85116 0.11739 0.0
C239 C 0.05348 0.77131 0.14317 0.0
C240 C 0.00089 0.73369 0.15516 0.0
C241 C 0.05553 0.81585 0.13053 0.0
C242 C 0.95104 0.74232 0.15501 0.0
C243 C 0.95324 0.78734 0.14291 0.0
H244 H 0.09668 0.93517 0.42811 0.0
H245 H 0.18962 0.11691 0.41815 0.0
H246 H 0.26666 0.12888 0.44552 0.0
H247 H 0.30578 0.08791 0.47304 0.0
H248 H 0.21358 0.90591 0.48215 0.0
H249 H 0.13708 0.89418 0.45473 0.0
C250 C 0.13392 0.97747 0.43179 0.0
C251 C 0.13725 0.02507 0.42106 0.0
C252 C 0.1777 0.98409 0.44763 0.0
C253 C 0.18593 0.0795 0.4261 0.0
C254 C 0.22989 0.08641 0.44182 0.0
C255 C 0.26929 0.0456 0.46889 0.0
C256 C 0.26544 0.99791 0.47976 0.0
C257 C 0.22595 0.03902 0.4528 0.0
C258 C 0.21718 0.94349 0.4744 0.0
C259 C 0.17369 0.93666 0.45854 0.0
H260 H 0.08992 0.11485 0.79076 0.0
H261 H 0.1375 0.24146 0.73892 0.0
H262 H 0.20823 0.31504 0.76445 0.0
H263 H 0.26181 0.34266 0.80046 0.0
H264 H 0.21398 0.21734 0.85282 0.0
H265 H 0.13892 0.14415 0.82801 0.0
C266 C 0.11523 0.15864 0.78514 0.0
C267 C 0.10852 0.17242 0.76289 0.0
C268 C 0.15646 0.20098 0.7999 0.0
C269 C 0.14179 0.22945 0.7559 0.0
C270 C 0.18247 0.27167 0.77049 0.0
C271 C 0.23426 0.29963 0.80667 0.0
C272 C 0.24401 0.2857 0.82849 0.0
C273 C 0.1909 0.2578 0.79238 0.0
C274 C 0.20837 0.22926 0.83598 0.0
C275 C 0.16509 0.18735 0.82185 0.0
H276 H 0.90306 0.08733 0.67434 0.0
H277 H 0.79525 0.90546 0.68292 0.0
H278 H 0.72166 0.90137 0.65567 0.0
H279 H 0.68856 0.94913 0.62899 0.0
H280 H 0.79743 0.13053 0.61974 0.0
H281 H 0.86988 0.13508 0.64772 0.0
C282 C 0.86321 0.04684 0.67042 0.0
C283 C 0.85471 0.99682 0.6807 0.0
C284 C 0.82143 0.04463 0.6545 0.0
C285 C 0.803 0.94465 0.67525 0.0
C286 C 0.76092 0.94221 0.65962 0.0
C287 C 0.72851 0.98955 0.63292 0.0
C288 C 0.73771 0.03937 0.62227 0.0
C289 C 0.76997 0.99184 0.64899 0.0
C290 C 0.7891 0.09161 0.62784 0.0
C291 C 0.83059 0.09424 0.64379 0.0
H292 H 0.79686 0.88174 0.01851 0.0
H293 H 0.9249 0.82217 0.01586 0.0
H294 H 0.85834 0.74578 0.99041 0.0
H295 H 0.76616 0.69838 0.96756 0.0
H296 H 0.63775 0.75736 0.97001 0.0
H297 H 0.70255 0.83196 0.99659 0.0
C298 C 0.80992 0.85172 1.01254 0.0
C299 C 0.86586 0.85783 0.01906 0.0
C300 C 0.77176 0.80817 0.99764 0.0
C301 C 0.88221 0.81867 1.01106 0.0
C302 C 0.84424 0.77496 0.99646 0.0
C303 C 0.752 0.72713 0.9741 0.0
C304 C 0.69734 0.72242 0.96672 0.0
C305 C 0.78927 0.76971 0.98944 0.0
C306 C 0.6801 0.7606 0.97513 0.0
C307 C 0.7169 0.80303 0.99046 0.0
H308 H 0.96079 0.78749 0.35823 0.0
H309 H 0.96268 0.90109 0.30723 0.0
H310 H 0.97161 0.84233 0.27784 0.0
H311 H 0.98185 0.75976 0.26684 0.0
H312 H 0.98515 0.64997 0.31846 0.0
H313 H 0.97174 0.70644 0.34746 0.0
C314 C 0.96253 0.79916 0.34067 0.0
C315 C 0.96058 0.8483 0.33489 0.0
C316 C 0.96924 0.76614 0.32401 0.0
C317 C 0.9639 0.86332 0.31209 0.0
C318 C 0.96914 0.82983 0.2953 0.0
C319 C 0.97942 0.74826 0.28445 0.0
C320 C 0.9847 0.70096 0.29055 0.0
C321 C 0.97236 0.78137 0.30109 0.0
C322 C 0.98197 0.68663 0.31341 0.0
C323 C 0.97394 0.71867 0.32997 0.0
H324 H 0.17004 0.08071 0.67505 0.0
H325 H 0.08423 0.89977 0.68628 0.0
H326 H 0.15291 0.89373 0.65925 0.0
H327 H 0.23449 0.93913 0.63139 0.0
H328 H 0.32189 0.12047 0.621 0.0
H329 H 0.25405 0.12658 0.64833 0.0
C330 C 0.16652 0.03993 0.67174 0.0
C331 C 0.12188 0.99076 0.68269 0.0
C332 C 0.20578 0.03664 0.65606 0.0
C333 C 0.11817 0.93835 0.67816 0.0
C334 C 0.15726 0.93479 0.66261 0.0
C335 C 0.23926 0.98014 0.63527 0.0
C336 C 0.28321 0.02921 0.62402 0.0
C337 C 0.20082 0.98358 0.65131 0.0
C338 C 0.28783 0.0818 0.62903 0.0
C339 C 0.24942 0.08547 0.64484 0.0
H340 H 0.19618 0.14289 0.02891 0.0
H341 H 0.03885 0.11865 0.99229 0.0
H342 H 0.10358 0.18702 0.96402 0.0
H343 H 0.20423 0.25227 0.9493 0.0
H344 H 0.36227 0.28419 0.98756 0.0
H345 H 0.29792 0.21313 0.0151 0.0
C346 C 0.17621 0.15273 0.01475 0.0
C347 C 0.11287 0.12572 1.01271 0.0
C348 C 0.21374 0.19298 0.99867 0.0
C349 C 0.08752 0.13913 0.99436 0.0
C350 C 0.12448 0.17806 0.9781 0.0
C351 C 0.22489 0.2446 0.9638 0.0
C352 C 0.28833 0.27372 0.9661 0.0
C353 C 0.18761 0.20521 0.98008 0.0
C354 C 0.31377 0.26176 0.9849 0.0
C355 C 0.27693 0.22144 1.00087 0.0
H356 H 0.065 0.22626 0.35113 0.0
H357 H 0.99194 0.08297 0.3057 0.0
H358 H 0.98728 0.14215 0.27561 0.0
H359 H 0.00059 0.23428 0.26271 0.0
H360 H 0.07126 0.37559 0.30917 0.0
H361 H 0.08053 0.31754 0.33823 0.0
C362 C 0.04843 0.20791 0.33462 0.0
C363 C 0.02872 0.15021 0.33072 0.0
C364 C 0.04531 0.24188 0.31755 0.0
C365 C 0.00747 0.1273 0.30917 0.0
C366 C 0.00459 0.16108 0.29198 0.0
C367 C 0.0179 0.25224 0.27921 0.0
C368 C 0.03553 0.30939 0.28365 0.0
C369 C 0.02269 0.21832 0.29606 0.0
C370 C 0.05835 0.33212 0.3051 0.0
C371 C 0.06332 0.29884 0.32183 0.0
loop_
_geom_bond_atom_site_label_1
_geom_bond_atom_site_label_2
_geom_bond_distance
_geom_bond_site_symmetry_2
_ccdc_geom_bond_type
O0 Cd1 2.223 1_455 S
O0 C8 1.315 . S
Cd1 O0 2.223 1_655 S
Cd1 O4 2.297 . S
Cd1 O5 2.439 . S
Cd1 O11 2.240 1_545 S
Cd2 O3 2.240 1_565 S
Cd2 O10 2.223 1_455 S
Cd2 O12 2.297 . S
Cd2 O13 2.439 . S
O3 Cd2 2.240 1_545 S
O3 C8 1.279 . S
O4 Cd1 2.297 . S
O4 C6 1.247 . S
O5 Cd1 2.439 . S
O5 C6 1.208 . S
C6 O4 1.247 . S
C6 O5 1.208 . S
C7 O12 1.247 . S
C7 O13 1.208 . S
C8 O0 1.315 . S
C8 O3 1.279 . S
C9 O10 1.315 . S
C9 O11 1.279 . S
O10 Cd2 2.223 1_655 S
O10 C9 1.315 . S
O11 Cd1 2.240 1_565 S
O11 C9 1.279 . S
O12 Cd2 2.297 . S
O12 C7 1.247 . S
O13 Cd2 2.439 . S
O13 C7 1.208 . S
O14 Cd15 2.223 1_655 S
O14 C22 1.315 . S
Cd15 O14 2.223 1_455 S
Cd15 O18 2.297 . S
Cd15 O19 2.439 . S
Cd15 O25 2.240 . S
Cd16 O17 2.240 . S
Cd16 O24 2.223 1_655 S
Cd16 O26 2.297 . S
Cd16 O27 2.439 . S
O17 Cd16 2.240 . S
O17 C22 1.279 1_565 S
O18 Cd15 2.297 . S
O18 C20 1.247 . S
O19 Cd15 2.439 . S
O19 C20 1.208 . S
C20 O18 1.247 . S
C20 O19 1.208 . S
C21 O26 1.247 . S
C21 O27 1.208 . S
C22 O14 1.315 . S
C22 O17 1.279 1_545 S
C23 O24 1.315 . S
C23 O25 1.279 1_565 S
O24 Cd16 2.223 1_455 S
O24 C23 1.315 . S
O25 Cd15 2.240 . S
O25 C23 1.279 1_545 S
O26 Cd16 2.297 . S
O26 C21 1.247 . S
O27 Cd16 2.439 . S
O27 C21 1.208 . S
O28 Cd29 2.223 . S
O28 C36 1.315 . S
Cd29 O28 2.223 . S
Cd29 O32 2.297 . S
Cd29 O33 2.439 . S
Cd29 O39 2.240 1_655 S
Cd30 O31 2.240 1_455 S
Cd30 O38 2.223 . S
Cd30 O40 2.297 . S
Cd30 O41 2.439 . S
O31 Cd30 2.240 1_655 S
O31 C36 1.279 1_545 S
O32 Cd29 2.297 . S
O32 C34 1.247 . S
O33 Cd29 2.439 . S
O33 C34 1.208 . S
C34 O32 1.247 . S
C34 O33 1.208 . S
C35 O40 1.247 . S
C35 O41 1.208 . S
C36 O28 1.315 . S
C36 O31 1.279 1_565 S
C37 O38 1.315 . S
C37 O39 1.279 1_545 S
O38 Cd30 2.223 . S
O38 C37 1.315 . S
O39 Cd29 2.240 1_455 S
O39 C37 1.279 1_565 S
O40 Cd30 2.297 . S
O40 C35 1.247 . S
O41 Cd30 2.439 . S
O41 C35 1.208 . S
C42 C43 1.384 1_655 S
C42 C44 1.384 . S
C42 H70 0.931 . S
C43 C42 1.384 1_455 S
C43 C46 1.382 . S
C44 C42 1.384 . S
C44 C45 1.381 1_655 S
C44 H71 0.930 . S
C45 C44 1.381 1_455 S
C45 C47 1.381 . S
C45 C48 1.487 . S
C46 C43 1.382 . S
C46 C47 1.387 . S
C46 H72 0.930 . S
C47 C45 1.381 . S
C47 C46 1.387 . S
C47 H73 0.931 . S
C48 C45 1.487 . S
C48 C55 1.399 1_455 S
C48 N86 1.343 . S
C49 C50 1.384 1_455 S
C49 C51 1.384 . S
C49 H74 0.931 . S
C50 C49 1.384 1_655 S
C50 C53 1.382 . S
C51 C49 1.384 . S
C51 C52 1.381 1_455 S
C51 H75 0.930 . S
C52 C51 1.381 1_655 S
C52 C54 1.381 . S
C52 C55 1.487 . S
C53 C50 1.382 . S
C53 C54 1.387 . S
C53 H76 0.930 . S
C54 C52 1.381 . S
C54 C53 1.387 . S
C54 H77 0.931 . S
C55 C48 1.399 1_655 S
C55 C52 1.487 . S
C55 N87 1.343 . S
C56 C57 1.384 1_455 S
C56 C58 1.384 . S
C56 H78 0.931 . S
C57 C56 1.384 1_655 S
C57 C60 1.382 . S
C58 C56 1.384 . S
C58 C59 1.381 1_455 S
C58 H79 0.930 . S
C59 C58 1.381 1_655 S
C59 C61 1.381 . S
C59 C62 1.487 . S
C60 C57 1.382 . S
C60 C61 1.387 . S
C60 H80 0.930 . S
C61 C59 1.381 . S
C61 C60 1.387 . S
C61 H81 0.931 . S
C62 C59 1.487 . S
C62 C69 1.399 1_655 S
C62 N87 1.343 . S
C63 C64 1.384 1_655 S
C63 C65 1.384 . S
C63 H82 0.931 . S
C64 C63 1.384 1_455 S
C64 C67 1.382 . S
C65 C63 1.384 . S
C65 C66 1.381 1_655 S
C65 H83 0.930 . S
C66 C65 1.381 1_455 S
C66 C68 1.381 . S
C66 C69 1.487 . S
C67 C64 1.382 . S
C67 C68 1.387 . S
C67 H84 0.930 . S
C68 C66 1.381 . S
C68 C67 1.387 . S
C68 H85 0.931 . S
C69 C62 1.399 1_455 S
C69 C66 1.487 . S
C69 N86 1.343 . S
H70 C42 0.931 . S
H71 C44 0.930 . S
H72 C46 0.930 . S
H73 C47 0.931 . S
H74 C49 0.931 . S
H75 C51 0.930 . S
H76 C53 0.930 . S
H77 C54 0.931 . S
H78 C56 0.931 . S
H79 C58 0.930 . S
H80 C60 0.930 . S
H81 C61 0.931 . S
H82 C63 0.931 . S
H83 C65 0.930 . S
H84 C67 0.930 . S
H85 C68 0.931 . S
N86 C48 1.343 . S
N86 C69 1.343 . S
N87 C55 1.343 . S
N87 C62 1.343 . S
C88 C89 1.384 1_545 S
C88 C90 1.384 . S
C88 H116 0.931 . S
C89 C88 1.384 1_565 S
C89 C92 1.382 . S
C90 C88 1.384 . S
C90 C91 1.381 1_545 S
C90 H117 0.930 . S
C91 C90 1.381 1_565 S
C91 C93 1.381 . S
C91 C94 1.487 . S
C92 C89 1.382 . S
C92 C93 1.387 . S
C92 H118 0.930 . S
C93 C91 1.381 . S
C93 C92 1.387 . S
C93 H119 0.931 . S
C94 C91 1.487 . S
C94 C101 1.399 1_565 S
C94 N132 1.343 . S
C95 C96 1.384 1_565 S
C95 C97 1.384 . S
C95 H120 0.931 . S
C96 C95 1.384 1_545 S
C96 C99 1.382 . S
C97 C95 1.384 . S
C97 C98 1.381 1_565 S
C97 H121 0.930 . S
C98 C97 1.381 1_545 S
C98 C100 1.381 . S
C98 C101 1.487 . S
C99 C96 1.382 . S
C99 C100 1.387 . S
C99 H122 0.930 . S
C100 C98 1.381 . S
C100 C99 1.387 . S
C100 H123 0.931 . S
C101 C94 1.399 1_545 S
C101 C98 1.487 . S
C101 N133 1.343 . S
C102 C103 1.384 1_565 S
C102 C104 1.384 . S
C102 H124 0.931 . S
C103 C102 1.384 1_545 S
C103 C106 1.382 . S
C104 C102 1.384 . S
C104 C105 1.381 1_565 S
C104 H125 0.930 . S
C105 C104 1.381 1_545 S
C105 C107 1.381 . S
C105 C108 1.487 . S
C106 C103 1.382 . S
C106 C107 1.387 . S
C106 H126 0.930 . S
C107 C105 1.381 . S
C107 C106 1.387 . S
C107 H127 0.931 . S
C108 C105 1.487 . S
C108 C115 1.399 1_545 S
C108 N133 1.343 . S
C109 C110 1.384 1_545 S
C109 C111 1.384 . S
C109 H128 0.931 . S
C110 C109 1.384 1_565 S
C110 C113 1.382 . S
C111 C109 1.384 . S
C111 C112 1.381 1_545 S
C111 H129 0.930 . S
C112 C111 1.381 1_565 S
C112 C114 1.381 . S
C112 C115 1.487 . S
C113 C110 1.382 . S
C113 C114 1.387 . S
C113 H130 0.930 . S
C114 C112 1.381 . S
C114 C113 1.387 . S
C114 H131 0.931 . S
C115 C108 1.399 1_565 S
C115 C112 1.487 . S
C115 N132 1.343 . S
H116 C88 0.931 . S
H117 C90 0.930 . S
H118 C92 0.930 . S
H119 C93 0.931 . S
H120 C95 0.931 . S
H121 C97 0.930 . S
H122 C99 0.930 . S
H123 C100 0.931 . S
H124 C102 0.931 . S
H125 C104 0.930 . S
H126 C106 0.930 . S
H127 C107 0.931 . S
H128 C109 0.931 . S
H129 C111 0.930 . S
H130 C113 0.930 . S
H131 C114 0.931 . S
N132 C94 1.343 . S
N132 C115 1.343 . S
N133 C101 1.343 . S
N133 C108 1.343 . S
C134 C135 1.384 . S
C134 C136 1.384 . S
C134 H162 0.931 . S
C135 C134 1.384 . S
C135 C138 1.382 . S
C136 C134 1.384 . S
C136 C137 1.381 . S
C136 H163 0.930 . S
C137 C136 1.381 . S
C137 C139 1.381 . S
C137 C140 1.487 . S
C138 C135 1.382 . S
C138 C139 1.387 . S
C138 H164 0.930 . S
C139 C137 1.381 . S
C139 C138 1.387 . S
C139 H165 0.931 . S
C140 C137 1.487 . S
C140 C147 1.399 . S
C140 N178 1.343 . S
C141 C142 1.384 . S
C141 C143 1.384 . S
C141 H166 0.931 . S
C142 C141 1.384 . S
C142 C145 1.382 . S
C143 C141 1.384 . S
C143 C144 1.381 . S
C143 H167 0.930 . S
C144 C143 1.381 . S
C144 C146 1.381 . S
C144 C147 1.487 . S
C145 C142 1.382 . S
C145 C146 1.387 . S
C145 H168 0.930 . S
C146 C144 1.381 . S
C146 C145 1.387 . S
C146 H169 0.931 . S
C147 C140 1.399 . S
C147 C144 1.487 . S
C147 N179 1.343 . S
C148 C149 1.384 . S
C148 C150 1.384 . S
C148 H170 0.931 . S
C149 C148 1.384 . S
C149 C152 1.382 . S
C150 C148 1.384 . S
C150 C151 1.381 . S
C150 H171 0.930 . S
C151 C150 1.381 . S
C151 C153 1.381 . S
C151 C154 1.487 . S
C152 C149 1.382 . S
C152 C153 1.387 . S
C152 H172 0.930 . S
C153 C151 1.381 . S
C153 C152 1.387 . S
C153 H173 0.931 . S
C154 C151 1.487 . S
C154 C161 1.399 . S
C154 N179 1.343 . S
C155 C156 1.384 . S
C155 C157 1.384 . S
C155 H174 0.931 . S
C156 C155 1.384 . S
C156 C159 1.382 . S
C157 C155 1.384 . S
C157 C158 1.381 . S
C157 H175 0.930 . S
C158 C157 1.381 . S
C158 C160 1.381 . S
C158 C161 1.487 . S
C159 C156 1.382 . S
C159 C160 1.387 . S
C159 H176 0.930 . S
C160 C158 1.381 . S
C160 C159 1.387 . S
C160 H177 0.931 . S
C161 C154 1.399 . S
C161 C158 1.487 . S
C161 N178 1.343 . S
H162 C134 0.931 . S
H163 C136 0.930 . S
H164 C138 0.930 . S
H165 C139 0.931 . S
H166 C141 0.931 . S
H167 C143 0.930 . S
H168 C145 0.930 . S
H169 C146 0.931 . S
H170 C148 0.931 . S
H171 C150 0.930 . S
H172 C152 0.930 . S
H173 C153 0.931 . S
H174 C155 0.931 . S
H175 C157 0.930 . S
H176 C159 0.930 . S
H177 C160 0.931 . S
N178 C140 1.343 . S
N178 C161 1.343 . S
N179 C147 1.343 . S
N179 C154 1.343 . S
H180 C186 0.930 . S
H181 C189 0.930 . S
H182 C190 0.930 . S
H183 C191 0.930 . S
H184 C194 0.930 . S
H185 C195 0.930 . S
C186 H180 0.930 . S
C186 C187 1.355 1_655 S
C186 C188 1.415 . S
C187 C186 1.355 1_455 S
C187 C189 1.419 . S
C188 C186 1.415 . S
C188 C193 1.425 1_655 S
C188 C195 1.409 . S
C189 H181 0.930 . S
C189 C187 1.419 . S
C189 C190 1.362 . S
C190 H182 0.930 . S
C190 C189 1.362 . S
C190 C193 1.409 . S
C191 H183 0.930 . S
C191 C192 1.355 1_455 S
C191 C193 1.415 . S
C192 C191 1.355 1_655 S
C192 C194 1.419 . S
C193 C188 1.425 1_455 S
C193 C190 1.409 . S
C193 C191 1.415 . S
C194 H184 0.930 . S
C194 C192 1.419 . S
C194 C195 1.362 . S
C195 H185 0.930 . S
C195 C188 1.409 . S
C195 C194 1.362 . S
H196 C202 0.930 . S
H197 C205 0.930 . S
H198 C206 0.930 . S
H199 C207 0.930 . S
H200 C210 0.930 . S
H201 C211 0.930 . S
C202 H196 0.930 . S
C202 C203 1.355 . S
C202 C204 1.415 . S
C203 C202 1.355 . S
C203 C205 1.419 1_545 S
C204 C202 1.415 . S
C204 C209 1.425 1_545 S
C204 C211 1.409 . S
C205 H197 0.930 . S
C205 C203 1.419 1_565 S
C205 C206 1.362 . S
C206 H198 0.930 . S
C206 C205 1.362 . S
C206 C209 1.409 . S
C207 H199 0.930 . S
C207 C208 1.356 1_565 S
C207 C209 1.415 . S
C208 C207 1.356 1_545 S
C208 C210 1.419 . S
C209 C204 1.425 1_565 S
C209 C206 1.409 . S
C209 C207 1.415 . S
C210 H200 0.930 . S
C210 C208 1.419 . S
C210 C211 1.362 . S
C211 H201 0.930 . S
C211 C204 1.409 . S
C211 C210 1.362 . S
H212 C218 0.930 . S
H213 C221 0.930 . S
H214 C222 0.930 . S
H215 C223 0.930 . S
H216 C226 0.930 . S
H217 C227 0.930 . S
C218 H212 0.930 . S
C218 C219 1.355 . S
C218 C220 1.415 . S
C219 C218 1.355 . S
C219 C221 1.419 . S
C220 C218 1.415 . S
C220 C225 1.425 . S
C220 C227 1.409 . S
C221 H213 0.930 . S
C221 C219 1.419 . S
C221 C222 1.362 . S
C222 H214 0.930 . S
C222 C221 1.362 . S
C222 C225 1.409 . S
C223 H215 0.930 . S
C223 C224 1.355 . S
C223 C225 1.415 . S
C224 C223 1.355 . S
C224 C226 1.419 . S
C225 C220 1.425 . S
C225 C222 1.409 . S
C225 C223 1.415 . S
C226 H216 0.930 . S
C226 C224 1.419 . S
C226 C227 1.362 . S
C227 H217 0.930 . S
C227 C220 1.409 . S
C227 C226 1.362 . S
H228 C234 0.930 . S
H229 C237 0.930 . S
H230 C238 0.930 . S
H231 C239 0.930 . S
H232 C242 0.930 . S
H233 C243 0.930 . S
C234 H228 0.930 . S
C234 C235 1.355 1_655 S
C234 C236 1.415 . S
C235 C234 1.355 1_455 S
C235 C237 1.419 . S
C236 C234 1.415 . S
C236 C241 1.425 1_655 S
C236 C243 1.409 . S
C237 H229 0.930 . S
C237 C235 1.419 . S
C237 C238 1.362 . S
C238 H230 0.930 . S
C238 C237 1.362 . S
C238 C241 1.409 . S
C239 H231 0.930 . S
C239 C240 1.355 1_455 S
C239 C241 1.415 . S
C240 C239 1.355 1_655 S
C240 C242 1.419 . S
C241 C236 1.425 1_455 S
C241 C238 1.409 . S
C241 C239 1.415 . S
C242 H232 0.930 . S
C242 C240 1.419 . S
C242 C243 1.362 . S
C243 H233 0.930 . S
C243 C236 1.409 . S
C243 C242 1.362 . S
H244 C250 0.930 . S
H245 C253 0.930 . S
H246 C254 0.930 . S
H247 C255 0.930 . S
H248 C258 0.930 . S
H249 C259 0.930 . S
C250 H244 0.930 . S
C250 C251 1.355 . S
C250 C252 1.415 . S
C251 C250 1.355 . S
C251 C253 1.419 1_565 S
C252 C250 1.415 . S
C252 C257 1.425 1_565 S
C252 C259 1.409 . S
C253 H245 0.930 . S
C253 C251 1.419 1_545 S
C253 C254 1.362 . S
C254 H246 0.930 . S
C254 C253 1.362 . S
C254 C257 1.409 . S
C255 H247 0.930 . S
C255 C256 1.341 1_545 S
C255 C257 1.415 . S
C256 C255 1.341 1_565 S
C256 C258 1.428 . S
C257 C252 1.425 1_545 S
C257 C254 1.409 . S
C257 C255 1.415 . S
C258 H248 0.930 . S
C258 C256 1.428 . S
C258 C259 1.362 . S
C259 H249 0.930 . S
C259 C252 1.409 . S
C259 C258 1.362 . S
H260 C266 0.930 . S
H261 C269 0.930 . S
H262 C270 0.930 . S
H263 C271 0.930 . S
H264 C274 0.930 . S
H265 C275 0.930 . S
C266 H260 0.930 . S
C266 C267 1.355 . S
C266 C268 1.415 . S
C267 C266 1.355 . S
C267 C269 1.419 . S
C268 C266 1.415 . S
C268 C273 1.425 . S
C268 C275 1.409 . S
C269 H261 0.930 . S
C269 C267 1.419 . S
C269 C270 1.362 . S
C270 H262 0.930 . S
C270 C269 1.362 . S
C270 C273 1.409 . S
C271 H263 0.930 . S
C271 C272 1.355 . S
C271 C273 1.415 . S
C272 C271 1.355 . S
C272 C274 1.419 . S
C273 C268 1.425 . S
C273 C270 1.409 . S
C273 C271 1.415 . S
C274 H264 0.930 . S
C274 C272 1.419 . S
C274 C275 1.362 . S
C275 H265 0.930 . S
C275 C268 1.409 . S
C275 C274 1.362 . S
H276 C282 0.930 . S
H277 C285 0.930 . S
H278 C286 0.930 . S
H279 C287 0.930 . S
H280 C290 0.930 . S
H281 C291 0.930 . S
C282 H276 0.930 . S
C282 C283 1.355 1_545 S
C282 C284 1.415 . S
C283 C282 1.355 1_565 S
C283 C285 1.419 . S
C284 C282 1.415 . S
C284 C289 1.425 1_545 S
C284 C291 1.409 . S
C285 H277 0.930 . S
C285 C283 1.419 . S
C285 C286 1.362 . S
C286 H278 0.930 . S
C286 C285 1.362 . S
C286 C289 1.409 . S
C287 H279 0.930 . S
C287 C288 1.354 1_565 S
C287 C289 1.415 . S
C288 C287 1.354 1_545 S
C288 C290 1.419 . S
C289 C284 1.425 1_565 S
C289 C286 1.409 . S
C289 C287 1.415 . S
C290 H280 0.930 . S
C290 C288 1.419 . S
C290 C291 1.362 . S
C291 H281 0.930 . S
C291 C284 1.409 . S
C291 C290 1.362 . S
H292 C298 0.930 . S
H293 C301 0.930 . S
H294 C302 0.930 . S
H295 C303 0.930 . S
H296 C306 0.930 . S
H297 C307 0.930 . S
C298 H292 0.930 . S
C298 C299 1.355 . S
C298 C300 1.415 . S
C299 C298 1.355 . S
C299 C301 1.419 . S
C300 C298 1.415 . S
C300 C305 1.425 . S
C300 C307 1.409 . S
C301 H293 0.930 . S
C301 C299 1.419 . S
C301 C302 1.362 . S
C302 H294 0.930 . S
C302 C301 1.362 . S
C302 C305 1.409 . S
C303 H295 0.930 . S
C303 C304 1.355 . S
C303 C305 1.415 . S
C304 C303 1.355 . S
C304 C306 1.419 . S
C305 C300 1.425 . S
C305 C302 1.409 . S
C305 C303 1.415 . S
C306 H296 0.930 . S
C306 C304 1.419 . S
C306 C307 1.362 . S
C307 H297 0.930 . S
C307 C300 1.409 . S
C307 C306 1.362 . S
H308 C314 0.931 1_655 S
H309 C317 0.930 . S
H310 C318 0.930 . S
H311 C319 0.930 . S
H312 C322 0.930 . S
H313 C323 0.930 . S
C314 H308 0.931 1_455 S
C314 C315 1.355 . S
C314 C316 1.414 1_455 S
C315 C314 1.355 . S
C315 C317 1.419 . S
C316 C314 1.414 1_655 S
C316 C321 1.425 1_655 S
C316 C323 1.410 . S
C317 H309 0.930 . S
C317 C315 1.419 . S
C317 C318 1.362 . S
C318 H310 0.930 . S
C318 C317 1.362 . S
C318 C321 1.409 . S
C319 H311 0.930 . S
C319 C320 1.355 1_455 S
C319 C321 1.415 . S
C320 C319 1.355 1_655 S
C320 C322 1.419 . S
C321 C316 1.425 1_455 S
C321 C318 1.409 . S
C321 C319 1.415 . S
C322 H312 0.930 . S
C322 C320 1.419 . S
C322 C323 1.362 . S
C323 H313 0.930 . S
C323 C316 1.410 . S
C323 C322 1.362 . S
H324 C330 0.930 . S
H325 C333 0.930 . S
H326 C334 0.930 . S
H327 C335 0.930 . S
H328 C338 0.930 . S
H329 C339 0.930 . S
C330 H324 0.930 . S
C330 C331 1.355 . S
C330 C332 1.415 . S
C331 C330 1.355 . S
C331 C333 1.419 1_545 S
C332 C330 1.415 . S
C332 C337 1.425 1_545 S
C332 C339 1.409 . S
C333 H325 0.930 . S
C333 C331 1.419 1_565 S
C333 C334 1.362 . S
C334 H326 0.930 . S
C334 C333 1.362 . S
C334 C337 1.409 . S
C335 H327 0.930 . S
C335 C336 1.359 1_565 S
C335 C337 1.415 . S
C336 C335 1.359 1_545 S
C336 C338 1.420 . S
C337 C332 1.425 1_565 S
C337 C334 1.409 . S
C337 C335 1.415 . S
C338 H328 0.930 . S
C338 C336 1.420 . S
C338 C339 1.362 . S
C339 H329 0.930 . S
C339 C332 1.409 . S
C339 C338 1.362 . S
H340 C346 0.930 1_554 S
H341 C349 0.930 . S
H342 C350 0.930 . S
H343 C351 0.930 . S
H344 C354 0.930 . S
H345 C355 0.930 . S
C346 H340 0.930 1_556 S
C346 C347 1.355 . S
C346 C348 1.415 . S
C347 C346 1.355 . S
C347 C349 1.419 . S
C348 C346 1.415 . S
C348 C353 1.425 . S
C348 C355 1.409 . S
C349 H341 0.930 . S
C349 C347 1.419 . S
C349 C350 1.362 . S
C350 H342 0.930 . S
C350 C349 1.362 . S
C350 C353 1.409 . S
C351 H343 0.930 . S
C351 C352 1.355 . S
C351 C353 1.415 . S
C352 C351 1.355 . S
C352 C354 1.419 . S
C353 C348 1.425 . S
C353 C350 1.409 . S
C353 C351 1.415 . S
C354 H344 0.930 . S
C354 C352 1.419 . S
C354 C355 1.362 . S
C355 H345 0.930 . S
C355 C348 1.409 . S
C355 C354 1.362 . S
H356 C362 0.930 . S
H357 C365 0.930 . S
H358 C366 0.930 . S
H359 C367 0.930 . S
H360 C370 0.930 . S
H361 C371 0.930 . S
C362 H356 0.930 . S
C362 C363 1.355 . S
C362 C364 1.415 . S
C363 C362 1.355 . S
C363 C365 1.419 1_655 S
C364 C362 1.415 . S
C364 C369 1.425 1_655 S
C364 C371 1.409 . S
C365 H357 0.930 . S
C365 C363 1.419 1_455 S
C365 C366 1.362 . S
C366 H358 0.930 . S
C366 C365 1.362 . S
C366 C369 1.409 . S
C367 H359 0.930 . S
C367 C368 1.360 . S
C367 C369 1.415 . S
C368 C367 1.360 . S
C368 C370 1.416 1_455 S
C369 C364 1.425 1_455 S
C369 C366 1.409 . S
C369 C367 1.415 . S
C370 H360 0.930 . S
C370 C368 1.416 1_655 S
C370 C371 1.362 . S
C371 H361 0.930 . S
C371 C364 1.409 . S
C371 C370 1.362 . S
C192 C50 1.480 . S
C187 C6 1.479 1_455 S
C203 C22 1.573 . S
C208 C89 1.592 1_545 S
C219 C34 1.244 . S
C224 C156 1.279 . S
C235 C7 1.443 . S
C240 C57 1.478 . S
C256 C110 1.598 . S
C251 C23 1.575 . S
C267 C35 1.242 . S
C272 C135 1.286 . S
C288 C96 1.590 . S
C283 C36 1.564 . S
C299 C9 1.744 1_556 S
C304 C149 1.806 . S
C320 C64 1.481 1_655 S
C315 C21 1.477 1_455 S
C336 C103 1.586 . S
C331 C37 1.577 . S
C352 C142 1.803 . S
C347 C8 1.752 1_556 S
C363 C20 1.472 1_655 S
C368 C43 1.474 . S
