# Generated by pormake.
# Topology apo, (3,6)-cn, num edge types: 1
# Building blocks:
#     Node 0, Type 0, BuildingBlock: BELTOD_clean_linker_0, # of connection points: 3
#     Node 1, Type 0, BuildingBlock: BELTOD_clean_linker_0, # of connection points: 3
#     Node 2, Type 0, BuildingBlock: BELTOD_clean_linker_0, # of connection points: 3
#     Node 3, Type 0, BuildingBlock: BELTOD_clean_linker_0, # of connection points: 3
#     Node 4, Type 0, BuildingBlock: BELTOD_clean_linker_0, # of connection points: 3
#     Node 5, Type 0, BuildingBlock: BELTOD_clean_linker_0, # of connection points: 3
#     Node 6, Type 0, BuildingBlock: BELTOD_clean_linker_0, # of connection points: 3
#     Node 7, Type 0, BuildingBlock: BELTOD_clean_linker_0, # of connection points: 3
#     Node 8, Type 1, BuildingBlock: KUMBUR_clean_sbu_1, # of connection points: 6
#     Node 9, Type 1, BuildingBlock: KUMBUR_clean_sbu_1, # of connection points: 6
#     Node 10, Type 1, BuildingBlock: KUMBUR_clean_sbu_1, # of connection points: 6
#     Node 11, Type 1, BuildingBlock: KUMBUR_clean_sbu_1, # of connection points: 6
#     Edge 12, Type (0, 1), BuildingBlock: MIFKUJ_clean_linker_0, # of connection points: 2
#     Edge 13, Type (0, 1), BuildingBlock: MIFKUJ_clean_linker_0, # of connection points: 2
#     Edge 14, Type (0, 1), BuildingBlock: MIFKUJ_clean_linker_0, # of connection points: 2
#     Edge 15, Type (0, 1), BuildingBlock: MIFKUJ_clean_linker_0, # of connection points: 2
#     Edge 16, Type (0, 1), BuildingBlock: MIFKUJ_clean_linker_0, # of connection points: 2
#     Edge 17, Type (0, 1), BuildingBlock: MIFKUJ_clean_linker_0, # of connection points: 2
#     Edge 18, Type (0, 1), BuildingBlock: MIFKUJ_clean_linker_0, # of connection points: 2
#     Edge 19, Type (0, 1), BuildingBlock: MIFKUJ_clean_linker_0, # of connection points: 2
#     Edge 20, Type (0, 1), BuildingBlock: MIFKUJ_clean_linker_0, # of connection points: 2
#     Edge 21, Type (0, 1), BuildingBlock: MIFKUJ_clean_linker_0, # of connection points: 2
#     Edge 22, Type (0, 1), BuildingBlock: MIFKUJ_clean_linker_0, # of connection points: 2
#     Edge 23, Type (0, 1), BuildingBlock: MIFKUJ_clean_linker_0, # of connection points: 2
#     Edge 24, Type (0, 1), BuildingBlock: MIFKUJ_clean_linker_0, # of connection points: 2
#     Edge 25, Type (0, 1), BuildingBlock: MIFKUJ_clean_linker_0, # of connection points: 2
#     Edge 26, Type (0, 1), BuildingBlock: MIFKUJ_clean_linker_0, # of connection points: 2
#     Edge 27, Type (0, 1), BuildingBlock: MIFKUJ_clean_linker_0, # of connection points: 2
#     Edge 28, Type (0, 1), BuildingBlock: MIFKUJ_clean_linker_0, # of connection points: 2
#     Edge 29, Type (0, 1), BuildingBlock: MIFKUJ_clean_linker_0, # of connection points: 2
#     Edge 30, Type (0, 1), BuildingBlock: MIFKUJ_clean_linker_0, # of connection points: 2
#     Edge 31, Type (0, 1), BuildingBlock: MIFKUJ_clean_linker_0, # of connection points: 2
#     Edge 32, Type (0, 1), BuildingBlock: MIFKUJ_clean_linker_0, # of connection points: 2
#     Edge 33, Type (0, 1), BuildingBlock: MIFKUJ_clean_linker_0, # of connection points: 2
#     Edge 34, Type (0, 1), BuildingBlock: MIFKUJ_clean_linker_0, # of connection points: 2
#     Edge 35, Type (0, 1), BuildingBlock: MIFKUJ_clean_linker_0, # of connection points: 2
# Relax obj value: 0.010
# Max RMSD: 0.099
# Mean RMSD: 0.073
data_MOF--net-apo--node1-KUMBUR_clean_sbu_1--node2-BELTOD_clean_linker_0--edge1-MIFKUJ_clean_linker_0
_symmetry_space_group_name_H-M    P1
_symmetry_Int_Tables_number       1
_symmetry_cell_setting            triclinic
loop_
_symmetry_equiv_pos_as_xyz
'x, y, z'
_cell_length_a     34.525394
_cell_length_b     61.453998
_cell_length_c     73.424939
_cell_angle_alpha  89.681182
_cell_angle_beta   89.982369
_cell_angle_gamma 90.244775
loop_
_atom_site_label
_atom_site_type_symbol
_atom_site_fract_x
_atom_site_fract_y
_atom_site_fract_z
_atom_type_partial_charge
P0 P 0.34001 0.36337 0.41318 0.0
H1 H 0.37882 0.33995 0.44236 0.0
H2 H 0.37635 0.34246 0.47538 0.0
H3 H 0.28664 0.39111 0.47103 0.0
H4 H 0.29023 0.38887 0.43769 0.0
H5 H 0.34644 0.31823 0.40166 0.0
H6 H 0.30245 0.29374 0.38582 0.0
H7 H 0.2128 0.34256 0.38783 0.0
H8 H 0.25704 0.36686 0.40428 0.0
H9 H 0.36637 0.40648 0.42457 0.0
H10 H 0.31244 0.37795 0.37735 0.0
O11 O 0.38426 0.35407 0.40854 0.0
H12 H 0.37355 0.44099 0.40808 0.0
H13 H 0.31927 0.41231 0.36092 0.0
C14 C 0.33527 0.36454 0.43759 0.0
C15 C 0.35861 0.35119 0.44848 0.0
C16 C 0.3569 0.35251 0.46743 0.0
C17 C 0.33137 0.36704 0.47595 0.0
C18 C 0.3071 0.37999 0.46494 0.0
C19 C 0.30893 0.37866 0.4459 0.0
C20 C 0.30531 0.34457 0.40371 0.0
C21 C 0.31726 0.32365 0.39883 0.0
C22 C 0.29207 0.30968 0.38965 0.0
C23 C 0.25431 0.31633 0.38515 0.0
C24 C 0.24167 0.3369 0.39104 0.0
C25 C 0.26695 0.35085 0.40037 0.0
C26 C 0.33764 0.3898 0.40246 0.0
C27 C 0.35499 0.4078 0.41087 0.0
C28 C 0.35946 0.42745 0.40136 0.0
C29 C 0.34685 0.42939 0.38321 0.0
C30 C 0.32862 0.41147 0.37499 0.0
C31 C 0.32452 0.39179 0.38444 0.0
P32 P 0.26206 0.10734 0.91447 0.0
H33 H 0.28969 0.06906 0.89533 0.0
H34 H 0.25821 0.04285 0.87537 0.0
H35 H 0.15091 0.07844 0.87981 0.0
H36 H 0.18269 0.10447 0.9002 0.0
H37 H 0.33807 0.1245 0.90452 0.0
H38 H 0.35895 0.15443 0.88508 0.0
H39 H 0.23946 0.1716 0.87523 0.0
H40 H 0.21865 0.14163 0.89532 0.0
H41 H 0.20253 0.08289 0.93421 0.0
H42 H 0.25955 0.14521 0.93839 0.0
O43 O 0.30154 0.09532 0.92285 0.0
H44 H 0.17085 0.08878 0.96341 0.0
H45 H 0.22916 0.15091 0.96803 0.0
C46 C 0.23832 0.08844 0.8995 0.0
C47 C 0.25935 0.07119 0.89209 0.0
C48 C 0.24136 0.05631 0.88053 0.0
C49 C 0.202 0.05852 0.876 0.0
C50 C 0.18112 0.0761 0.88323 0.0
C51 C 0.19925 0.09104 0.89481 0.0
C52 C 0.27679 0.13084 0.90139 0.0
C53 C 0.31625 0.13477 0.89836 0.0
C54 C 0.32818 0.15183 0.88705 0.0
C55 C 0.30089 0.16526 0.87835 0.0
C56 C 0.26124 0.16161 0.88176 0.0
C57 C 0.2493 0.14447 0.89318 0.0
C58 C 0.23252 0.1139 0.93385 0.0
C59 C 0.20747 0.09812 0.94119 0.0
C60 C 0.18981 0.10137 0.95806 0.0
C61 C 0.19756 0.12028 0.96816 0.0
C62 C 0.22198 0.13632 0.96053 0.0
C63 C 0.23941 0.1331 0.94355 0.0
P64 P 0.84679 0.1406 0.59518 0.0
H65 H 0.83774 0.1731 0.56671 0.0
H66 H 0.8346 0.17051 0.53358 0.0
H67 H 0.82854 0.1004 0.53799 0.0
H68 H 0.83263 0.10315 0.57106 0.0
H69 H 0.86135 0.16949 0.62554 0.0
H70 H 0.82004 0.19358 0.64318 0.0
H71 H 0.72264 0.17664 0.60906 0.0
H72 H 0.76446 0.15229 0.59144 0.0
H73 H 0.9032 0.10576 0.59763 0.0
H74 H 0.78802 0.11814 0.61771 0.0
O75 O 0.89205 0.15014 0.59628 0.0
H76 H 0.90497 0.07168 0.61485 0.0
H77 H 0.78943 0.08393 0.63488 0.0
C78 C 0.83526 0.13838 0.57136 0.0
C79 C 0.83486 0.15721 0.56054 0.0
C80 C 0.833 0.15568 0.54158 0.0
C81 C 0.83161 0.13522 0.53307 0.0
C82 C 0.83024 0.11639 0.54407 0.0
C83 C 0.83221 0.11796 0.56304 0.0
C84 C 0.81614 0.15952 0.60695 0.0
C85 C 0.83125 0.1712 0.62166 0.0
C86 C 0.80759 0.185 0.63173 0.0
C87 C 0.76813 0.18719 0.62743 0.0
C88 C 0.75292 0.17526 0.61273 0.0
C89 C 0.77679 0.16151 0.60256 0.0
C90 C 0.84588 0.11469 0.60671 0.0
C91 C 0.8782 0.10107 0.60568 0.0
C92 C 0.87903 0.0815 0.61541 0.0
C93 C 0.84741 0.07517 0.62633 0.0
C94 C 0.81445 0.08853 0.62682 0.0
C95 C 0.8136 0.10808 0.61697 0.0
P96 P 0.78094 0.39819 0.08689 0.0
H97 H 0.80496 0.43724 0.10619 0.0
H98 H 0.77094 0.4628 0.1255 0.0
H99 H 0.66598 0.42471 0.11988 0.0
H100 H 0.70014 0.39976 0.0996 0.0
H101 H 0.85563 0.37665 0.09111 0.0
H102 H 0.87751 0.34633 0.10994 0.0
H103 H 0.76092 0.33692 0.12989 0.0
H104 H 0.73904 0.36754 0.11097 0.0
H105 H 0.76575 0.42299 0.05412 0.0
H106 H 0.73522 0.35966 0.07535 0.0
O107 O 0.82097 0.41095 0.07971 0.0
H108 H 0.73432 0.41433 0.0254 0.0
H109 H 0.70206 0.35109 0.04685 0.0
C110 C 0.75498 0.41673 0.1013 0.0
C111 C 0.77455 0.43444 0.10898 0.0
C112 C 0.75506 0.44896 0.12026 0.0
C113 C 0.71561 0.44586 0.12442 0.0
C114 C 0.69617 0.42785 0.11681 0.0
C115 C 0.7157 0.41345 0.10531 0.0
C116 C 0.79574 0.37456 0.09977 0.0
C117 C 0.83463 0.36812 0.09949 0.0
C118 C 0.8472 0.3508 0.11033 0.0
C119 C 0.82103 0.3394 0.12154 0.0
C120 C 0.78174 0.3454 0.12136 0.0
C121 C 0.76924 0.36293 0.11061 0.0
C122 C 0.75341 0.39187 0.06675 0.0
C123 C 0.75179 0.40727 0.05266 0.0
C124 C 0.73342 0.40234 0.03626 0.0
C125 C 0.71567 0.38193 0.03367 0.0
C126 C 0.71603 0.36681 0.04818 0.0
C127 C 0.73478 0.37174 0.06459 0.0
P128 P 0.77097 0.60659 0.58539 0.0
H129 H 0.80115 0.62643 0.55232 0.0
H130 H 0.77295 0.63293 0.52225 0.0
H131 H 0.66248 0.60911 0.54185 0.0
H132 H 0.69063 0.60322 0.57196 0.0
H133 H 0.81378 0.60974 0.61907 0.0
H134 H 0.83477 0.64036 0.63773 0.0
H135 H 0.77782 0.68479 0.60068 0.0
H136 H 0.75729 0.65398 0.58193 0.0
H137 H 0.75913 0.55982 0.58304 0.0
H138 H 0.71577 0.6127 0.61545 0.0
O139 O 0.81189 0.59364 0.58027 0.0
H140 H 0.72125 0.53395 0.60116 0.0
H141 H 0.67726 0.58694 0.63354 0.0
C142 C 0.74818 0.61404 0.56425 0.0
C143 C 0.77074 0.62287 0.55017 0.0
C144 C 0.75464 0.62645 0.53298 0.0
C145 C 0.7156 0.62124 0.52957 0.0
C146 C 0.69258 0.61339 0.54402 0.0
C147 C 0.70874 0.60987 0.56125 0.0
C148 C 0.78419 0.6296 0.59912 0.0
C149 C 0.80573 0.62608 0.615 0.0
C150 C 0.81751 0.64359 0.6257 0.0
C151 C 0.80795 0.66503 0.6207 0.0
C152 C 0.78603 0.66849 0.60479 0.0
C153 C 0.77412 0.65089 0.5941 0.0
C154 C 0.74101 0.58804 0.59824 0.0
C155 C 0.74132 0.56585 0.59405 0.0
C156 C 0.71935 0.55111 0.60431 0.0
C157 C 0.69643 0.55837 0.61889 0.0
C158 C 0.69515 0.5808 0.62261 0.0
C159 C 0.7171 0.59554 0.61228 0.0
P160 P 0.82116 0.86495 0.09983 0.0
H161 H 0.84077 0.87329 0.13747 0.0
H162 H 0.85202 0.90658 0.1547 0.0
H163 H 0.82326 0.9449 0.1071 0.0
H164 H 0.81135 0.91138 0.09 0.0
H165 H 0.79793 0.82012 0.09392 0.0
H166 H 0.74757 0.79739 0.10762 0.0
H167 H 0.6997 0.854 0.13395 0.0
H168 H 0.75084 0.87652 0.12049 0.0
H169 H 0.88722 0.87165 0.07626 0.0
H170 H 0.76305 0.86934 0.07047 0.0
O171 O 0.85888 0.84948 0.10563 0.0
H172 H 0.89429 0.87743 0.04364 0.0
H173 H 0.76971 0.87589 0.03759 0.0
C174 C 0.82597 0.88988 0.11241 0.0
C175 C 0.83674 0.88886 0.13076 0.0
C176 C 0.84333 0.90791 0.14056 0.0
C177 C 0.83914 0.92841 0.13219 0.0
C178 C 0.82671 0.92938 0.11394 0.0
C179 C 0.82012 0.91022 0.10412 0.0
C180 C 0.77849 0.8499 0.10641 0.0
C181 C 0.77612 0.82769 0.10236 0.0
C182 C 0.74713 0.81472 0.11016 0.0
C183 C 0.71979 0.82378 0.12212 0.0
C184 C 0.72076 0.8464 0.12513 0.0
C185 C 0.74988 0.85935 0.11733 0.0
C186 C 0.8247 0.86967 0.07569 0.0
C187 C 0.86141 0.87243 0.06791 0.0
C188 C 0.86537 0.87598 0.04924 0.0
C189 C 0.83257 0.87718 0.03792 0.0
C190 C 0.7956 0.87475 0.04585 0.0
C191 C 0.79171 0.87109 0.06464 0.0
P192 P 0.25878 0.89149 0.42054 0.0
H193 H 0.29108 0.86752 0.45101 0.0
H194 H 0.26678 0.85875 0.48142 0.0
H195 H 0.15576 0.88621 0.46715 0.0
H196 H 0.18041 0.89503 0.43673 0.0
H197 H 0.30734 0.89083 0.38847 0.0
H198 H 0.32901 0.86209 0.36826 0.0
H199 H 0.26667 0.81471 0.40091 0.0
H200 H 0.24335 0.84396 0.42048 0.0
H201 H 0.2265 0.93335 0.43067 0.0
H202 H 0.22412 0.89161 0.38367 0.0
O203 O 0.29879 0.90524 0.42609 0.0
H204 H 0.19182 0.96133 0.41361 0.0
H205 H 0.19216 0.9199 0.36614 0.0
C206 C 0.23777 0.88213 0.44169 0.0
C207 C 0.26133 0.87138 0.45436 0.0
C208 C 0.24733 0.86631 0.47173 0.0
C209 C 0.20938 0.87193 0.47679 0.0
C210 C 0.18532 0.88198 0.46378 0.0
C211 C 0.19936 0.88695 0.44634 0.0
C212 C 0.27401 0.86954 0.40603 0.0
C213 C 0.29829 0.87424 0.39124 0.0
C214 C 0.31093 0.8577 0.37977 0.0
C215 C 0.30006 0.83591 0.38299 0.0
C216 C 0.27538 0.83127 0.39784 0.0
C217 C 0.26226 0.84798 0.40918 0.0
C218 C 0.22819 0.91044 0.40847 0.0
C219 C 0.21836 0.93018 0.41668 0.0
C220 C 0.19893 0.94629 0.4068 0.0
C221 C 0.18956 0.94315 0.38832 0.0
C222 C 0.19839 0.92296 0.38035 0.0
C223 C 0.21719 0.90673 0.39037 0.0
P224 P 0.33363 0.6385 0.90637 0.0
H225 H 0.31816 0.62633 0.86883 0.0
H226 H 0.32522 0.59231 0.85221 0.0
H227 H 0.35788 0.55959 0.90205 0.0
H228 H 0.3502 0.59364 0.91872 0.0
H229 H 0.33102 0.68514 0.89903 0.0
H230 H 0.28394 0.70822 0.88354 0.0
H231 H 0.20576 0.65339 0.87911 0.0
H232 H 0.25342 0.63029 0.89456 0.0
H233 H 0.39213 0.62727 0.93311 0.0
H234 H 0.2712 0.64451 0.93344 0.0
O235 O 0.37609 0.64997 0.90108 0.0
H236 H 0.3924 0.62614 0.96633 0.0
H237 H 0.27114 0.64329 0.96683 0.0
C238 C 0.33277 0.6125 0.89511 0.0
C239 C 0.32574 0.61173 0.87632 0.0
C240 C 0.32984 0.59226 0.8668 0.0
C241 C 0.34196 0.57327 0.87584 0.0
C242 C 0.34857 0.574 0.89473 0.0
C243 C 0.34398 0.59346 0.90429 0.0
C244 C 0.29608 0.65591 0.89752 0.0
C245 C 0.30362 0.67811 0.89488 0.0
C246 C 0.27653 0.69134 0.8861 0.0
C247 C 0.24125 0.68259 0.87988 0.0
C248 C 0.23297 0.66052 0.88342 0.0
C249 C 0.26008 0.64733 0.89232 0.0
C250 C 0.3318 0.63619 0.93083 0.0
C251 C 0.36553 0.63067 0.94036 0.0
C252 C 0.36558 0.6299 0.95937 0.0
C253 C 0.33182 0.63469 0.96924 0.0
C254 C 0.29774 0.63978 0.95961 0.0
C255 C 0.29768 0.6404 0.94053 0.0
Tb256 Tb 0.05569 0.13734 0.23533 0.0
C257 C 0.89329 0.10934 0.25589 0.0
N258 N 0.90579 0.13025 0.25426 0.0
C259 C 0.85012 0.1392 0.23631 0.0
C260 C 0.85913 0.10233 0.24719 0.0
C261 C 0.88445 0.14536 0.24502 0.0
C262 C 0.83754 0.11757 0.23728 0.0
C263 C 0.90343 0.07306 0.26799 0.0
C264 C 0.91548 0.0949 0.26602 0.0
C265 C 0.86997 0.0658 0.25893 0.0
C266 C 0.84784 0.0804 0.24858 0.0
Tb267 Tb 0.96143 0.13856 0.26926 0.0
N268 N 0.94782 0.10249 0.27456 0.0
C269 C 0.92463 0.05935 0.27949 0.0
C270 C 0.96591 0.08974 0.28727 0.0
C271 C 0.95547 0.06788 0.28948 0.0
H272 H 0.89417 0.16208 0.24427 0.0
H273 H 0.97062 0.05776 0.29924 0.0
H274 H 0.10797 0.09486 0.24884 0.0
H275 H 0.09362 0.22152 0.2234 0.0
H276 H 0.98741 0.09641 0.2963 0.0
H277 H 0.91632 0.04247 0.2814 0.0
H278 H 0.05112 0.18903 0.22257 0.0
H279 H 0.83342 0.15111 0.22885 0.0
H280 H 0.86051 0.04902 0.26015 0.0
H281 H 0.82188 0.07462 0.24185 0.0
H282 H 0.17331 0.08843 0.26129 0.0
H283 H 0.81109 0.11283 0.23039 0.0
H284 H 0.15988 0.21863 0.23606 0.0
N285 N 0.11555 0.12917 0.24668 0.0
C286 C 0.14078 0.14612 0.24797 0.0
C287 C 0.1644 0.10478 0.25776 0.0
C288 C 0.17875 0.14314 0.25452 0.0
C289 C 0.12714 0.10854 0.25098 0.0
C290 C 0.19025 0.12218 0.25966 0.0
N291 N 0.09199 0.16851 0.23576 0.0
C292 C 0.07967 0.18777 0.22844 0.0
C293 C 0.15425 0.1844 0.24257 0.0
C294 C 0.12881 0.16645 0.24209 0.0
C295 C 0.14113 0.20447 0.23599 0.0
C296 C 0.10376 0.20614 0.2288 0.0
H297 H 0.21919 0.11919 0.26476 0.0
H298 H 0.23337 0.15913 0.26048 0.0
H299 H 0.21184 0.19529 0.25006 0.0
O300 O 0.04636 0.14151 0.2071 0.0
O301 O 0.05837 0.1618 0.25707 0.0
O302 O 0.0079 0.1598 0.27836 0.0
O303 O 0.09157 0.12076 0.21695 0.0
O304 O 0.0048 0.15596 0.22678 0.0
O305 O 0.96982 0.16763 0.25214 0.0
O306 O 0.93924 0.13468 0.29596 0.0
O307 O 0.95821 0.12686 0.24091 0.0
O308 O 0.01604 0.10974 0.23758 0.0
O309 O 0.92303 0.16241 0.27911 0.0
O310 O 0.01661 0.12592 0.27999 0.0
O311 O 0.0437 0.11092 0.25447 0.0
C312 C 0.04078 0.1678 0.27216 0.0
C313 C 0.1035 0.13953 0.18945 0.0
C314 C 0.12343 0.14642 0.15807 0.0
C315 C 0.15487 0.15879 0.16444 0.0
C316 C 0.1359 0.15136 0.19546 0.0
C317 C 0.16114 0.16111 0.18305 0.0
C318 C 0.09764 0.1368 0.17065 0.0
C319 C 0.98114 0.16959 0.235 0.0
C320 C 0.0762 0.12979 0.20268 0.0
C321 C 0.20411 0.16107 0.25541 0.0
C322 C 0.19188 0.18166 0.24945 0.0
C323 C 0.97895 0.11107 0.23407 0.0
C324 C 0.89517 0.1609 0.30966 0.0
C325 C 0.87698 0.16165 0.34181 0.0
C326 C 0.85325 0.17967 0.33828 0.0
C327 C 0.87092 0.17882 0.30644 0.0
C328 C 0.89765 0.1521 0.32741 0.0
C329 C 0.85002 0.18805 0.32067 0.0
C330 C 0.04218 0.11314 0.2722 0.0
C331 C 0.91969 0.15261 0.29476 0.0
H332 H 0.17519 0.16619 0.15498 0.0
H333 H 0.14217 0.15282 0.2097 0.0
H334 H 0.1859 0.17028 0.18788 0.0
H335 H 0.07319 0.12733 0.16582 0.0
H336 H 0.83707 0.1872 0.34919 0.0
H337 H 0.86849 0.1859 0.29294 0.0
H338 H 0.91648 0.1384 0.33018 0.0
H339 H 0.83157 0.20192 0.31808 0.0
Tb340 Tb 0.46817 0.36141 0.73632 0.0
C341 C 0.6367 0.37937 0.75875 0.0
N342 N 0.6156 0.36075 0.76079 0.0
C343 C 0.66983 0.33981 0.75038 0.0
C344 C 0.67478 0.37894 0.75181 0.0
C345 C 0.63273 0.34102 0.75795 0.0
C346 C 0.6907 0.35889 0.74697 0.0
C347 C 0.64385 0.41787 0.76531 0.0
C348 C 0.62155 0.39862 0.76539 0.0
C349 C 0.68112 0.4177 0.75769 0.0
C350 C 0.69652 0.39828 0.75093 0.0
Tb351 Tb 0.55504 0.36531 0.773 0.0
N352 N 0.58561 0.39815 0.7729 0.0
C353 C 0.62859 0.43645 0.77358 0.0
C354 C 0.57159 0.41575 0.78205 0.0
C355 C 0.59253 0.43529 0.78222 0.0
H356 H 0.61846 0.32609 0.76192 0.0
H357 H 0.58099 0.44938 0.7891 0.0
H358 H 0.39842 0.38872 0.75673 0.0
H359 H 0.47739 0.27735 0.71482 0.0
H360 H 0.54411 0.41473 0.78904 0.0
H361 H 0.64486 0.45156 0.77382 0.0
H362 H 0.49529 0.31599 0.71421 0.0
H363 H 0.68272 0.32413 0.74769 0.0
H364 H 0.69873 0.43233 0.75754 0.0
H365 H 0.72588 0.39818 0.74573 0.0
H366 H 0.33588 0.38053 0.77159 0.0
H367 H 0.71981 0.35788 0.74153 0.0
H368 H 0.41878 0.26518 0.73139 0.0
N369 N 0.40947 0.35577 0.74981 0.0
C370 C 0.39554 0.33508 0.74947 0.0
C371 C 0.35254 0.36756 0.76557 0.0
C372 C 0.36011 0.32961 0.75789 0.0
C373 C 0.38816 0.37212 0.75727 0.0
C374 C 0.33861 0.34618 0.76605 0.0
N375 N 0.45139 0.32547 0.73293 0.0
C376 C 0.4714 0.31088 0.72263 0.0
C377 C 0.40492 0.2975 0.74091 0.0
C378 C 0.41768 0.31932 0.74111 0.0
C379 C 0.42735 0.28215 0.73175 0.0
C380 C 0.46046 0.28895 0.72239 0.0
H381 H 0.31119 0.34267 0.77264 0.0
H382 H 0.32072 0.30321 0.76465 0.0
H383 H 0.35999 0.27506 0.74978 0.0
O384 O 0.44506 0.35597 0.71017 0.0
O385 O 0.46181 0.35078 0.76486 0.0
O386 O 0.52005 0.33562 0.77227 0.0
O387 O 0.44389 0.38784 0.72211 0.0
O388 O 0.524 0.34672 0.7289 0.0
O389 O 0.55348 0.33586 0.75586 0.0
O390 O 0.53949 0.36449 0.80086 0.0
O391 O 0.54709 0.39165 0.75289 0.0
O392 O 0.52521 0.37327 0.728 0.0
O393 O 0.59828 0.35995 0.79247 0.0
O394 O 0.50072 0.38201 0.77959 0.0
O395 O 0.47014 0.39153 0.75233 0.0
C396 C 0.48204 0.33536 0.77274 0.0
C397 C 0.39677 0.38001 0.69938 0.0
C398 C 0.35928 0.38304 0.67127 0.0
C399 C 0.32752 0.39046 0.68141 0.0
C400 C 0.36468 0.38734 0.70931 0.0
C401 C 0.33018 0.39242 0.70033 0.0
C402 C 0.39375 0.37764 0.6804 0.0
C403 C 0.54805 0.33414 0.73812 0.0
C404 C 0.43454 0.37609 0.70808 0.0
C405 C 0.34764 0.30782 0.75807 0.0
C406 C 0.37007 0.29179 0.74965 0.0
C407 C 0.54317 0.38993 0.73518 0.0
C408 C 0.57993 0.34268 0.81948 0.0
C409 C 0.59768 0.332 0.85045 0.0
C410 C 0.6021 0.31047 0.84438 0.0
C411 C 0.58306 0.321 0.81386 0.0
C412 C 0.58649 0.34806 0.83777 0.0
C413 C 0.59419 0.30498 0.82631 0.0
C414 C 0.47717 0.39437 0.76987 0.0
C415 C 0.57458 0.36021 0.80612 0.0
H416 H 0.30059 0.39465 0.67471 0.0
H417 H 0.36641 0.3895 0.72388 0.0
H418 H 0.30554 0.39814 0.70803 0.0
H419 H 0.41868 0.37227 0.67266 0.0
H420 H 0.61232 0.29788 0.85353 0.0
H421 H 0.57822 0.31663 0.79976 0.0
H422 H 0.58351 0.36485 0.84198 0.0
H423 H 0.59751 0.28834 0.82186 0.0
Tb424 Tb 0.03498 0.86157 0.73375 0.0
C425 C 0.86571 0.84793 0.75906 0.0
N426 N 0.88774 0.86633 0.75937 0.0
C427 C 0.83423 0.88683 0.74742 0.0
C428 C 0.82744 0.84816 0.75237 0.0
C429 C 0.8716 0.88587 0.75472 0.0
C430 C 0.81224 0.86782 0.74597 0.0
C431 C 0.858 0.81004 0.7679 0.0
C432 C 0.88062 0.82913 0.76673 0.0
C433 C 0.82031 0.81 0.76074 0.0
C434 C 0.80505 0.82904 0.75302 0.0
Tb435 Tb 0.94874 0.86226 0.77132 0.0
N436 N 0.91721 0.82975 0.77348 0.0
C437 C 0.87367 0.79178 0.77665 0.0
C438 C 0.93186 0.81244 0.78295 0.0
C439 C 0.9106 0.79308 0.78439 0.0
H440 H 0.88671 0.90092 0.75716 0.0
H441 H 0.92258 0.77923 0.79157 0.0
H442 H 0.09918 0.83024 0.75473 0.0
H443 H 0.04551 0.94401 0.70748 0.0
H444 H 0.96002 0.81357 0.78927 0.0
H445 H 0.85721 0.77679 0.77784 0.0
H446 H 0.01646 0.90772 0.71069 0.0
H447 H 0.82205 0.90232 0.74338 0.0
H448 H 0.80244 0.79549 0.76149 0.0
H449 H 0.77551 0.82902 0.74807 0.0
H450 H 0.16339 0.8345 0.76885 0.0
H451 H 0.78301 0.86867 0.74065 0.0
H452 H 0.10871 0.95201 0.72178 0.0
N453 N 0.09506 0.86344 0.74662 0.0
C454 C 0.11401 0.88276 0.74491 0.0
C455 C 0.14968 0.84826 0.7623 0.0
C456 C 0.15121 0.88581 0.75239 0.0
C457 C 0.11284 0.84603 0.75461 0.0
C458 C 0.16885 0.86829 0.76132 0.0
N459 N 0.05976 0.8958 0.72873 0.0
C460 C 0.04254 0.91126 0.71807 0.0
C461 C 0.11409 0.91992 0.73379 0.0
C462 C 0.09551 0.89958 0.73586 0.0
C463 C 0.09533 0.93622 0.72384 0.0
C464 C 0.05959 0.93178 0.71579 0.0
H465 H 0.19742 0.86996 0.76727 0.0
H466 H 0.19806 0.90886 0.75638 0.0
H467 H 0.16589 0.93858 0.73986 0.0
O468 O 0.05396 0.86501 0.70669 0.0
O469 O 0.04434 0.87508 0.76108 0.0
O470 O 0.98652 0.89078 0.76887 0.0
O471 O 0.05709 0.83403 0.72035 0.0
O472 O 0.98188 0.87939 0.72629 0.0
O473 O 0.95212 0.89089 0.75306 0.0
O474 O 0.96275 0.86032 0.79918 0.0
O475 O 0.9522 0.83527 0.75181 0.0
O476 O 0.97585 0.85241 0.72652 0.0
O477 O 0.90882 0.874 0.79051 0.0
O478 O 0.00357 0.8464 0.77805 0.0
O479 O 0.02809 0.83247 0.75108 0.0
C480 C 0.02457 0.89095 0.76845 0.0
C481 C 0.10255 0.84129 0.69653 0.0
C482 C 0.14034 0.84105 0.66834 0.0
C483 C 0.17272 0.83397 0.67832 0.0
C484 C 0.13518 0.83417 0.70622 0.0
C485 C 0.1701 0.83061 0.69713 0.0
C486 C 0.10535 0.84478 0.67763 0.0
C487 C 0.95901 0.89272 0.73538 0.0
C488 C 0.06498 0.84492 0.70552 0.0
C489 C 0.1695 0.90616 0.75069 0.0
C490 C 0.15104 0.92314 0.74137 0.0
C491 C 0.956 0.8366 0.73407 0.0
C492 C 0.93622 0.8879 0.81731 0.0
C493 C 0.92941 0.9016 0.8483 0.0
C494 C 0.94466 0.92174 0.84242 0.0
C495 C 0.95116 0.9081 0.81171 0.0
C496 C 0.92551 0.88468 0.83556 0.0
C497 C 0.95554 0.92489 0.82426 0.0
C498 C 0.02343 0.83178 0.76893 0.0
C499 C 0.9313 0.87009 0.80428 0.0
H500 H 0.2002 0.83119 0.67162 0.0
H501 H 0.13373 0.8312 0.72072 0.0
H502 H 0.19521 0.82516 0.70467 0.0
H503 H 0.07997 0.85 0.67011 0.0
H504 H 0.94757 0.93523 0.85175 0.0
H505 H 0.9591 0.9109 0.79766 0.0
H506 H 0.9144 0.86892 0.83981 0.0
H507 H 0.96706 0.94047 0.81987 0.0
Tb508 Tb 0.44804 0.63834 0.23589 0.0
C509 C 0.62547 0.64492 0.2633 0.0
N510 N 0.59994 0.62846 0.26641 0.0
C511 C 0.65111 0.60236 0.2642 0.0
C512 C 0.66473 0.64065 0.25959 0.0
C513 C 0.61247 0.60747 0.26797 0.0
C514 C 0.67715 0.61898 0.25953 0.0
C515 C 0.63976 0.6835 0.26548 0.0
C516 C 0.61316 0.66608 0.26621 0.0
C517 C 0.6782 0.67954 0.26018 0.0
C518 C 0.69068 0.65814 0.25724 0.0
Tb519 Tb 0.53788 0.63894 0.27175 0.0
N520 N 0.57615 0.66917 0.27185 0.0
C521 C 0.62755 0.70404 0.27128 0.0
C522 C 0.56526 0.68855 0.27929 0.0
C523 C 0.59047 0.70644 0.27869 0.0
H524 H 0.5923 0.59464 0.27158 0.0
H525 H 0.58134 0.72202 0.28394 0.0
H526 H 0.3949 0.68284 0.24444 0.0
H527 H 0.41083 0.55281 0.23575 0.0
H528 H 0.5367 0.69026 0.28511 0.0
H529 H 0.64712 0.71786 0.27097 0.0
H530 H 0.45301 0.58453 0.23041 0.0
H531 H 0.66074 0.58563 0.26485 0.0
H532 H 0.69897 0.69276 0.25925 0.0
H533 H 0.72087 0.65522 0.25409 0.0
H534 H 0.3308 0.69074 0.25721 0.0
H535 H 0.70712 0.61499 0.25678 0.0
H536 H 0.3452 0.55787 0.24857 0.0
N537 N 0.38908 0.64835 0.24728 0.0
C538 C 0.36422 0.63163 0.25081 0.0
C539 C 0.34002 0.67403 0.25572 0.0
C540 C 0.32676 0.63548 0.25773 0.0
C541 C 0.37678 0.66942 0.24878 0.0
C542 C 0.3151 0.65699 0.26047 0.0
N543 N 0.41194 0.60749 0.23997 0.0
C544 C 0.42446 0.58706 0.2358 0.0
C545 C 0.35078 0.59284 0.25023 0.0
C546 C 0.37583 0.61058 0.24686 0.0
C547 C 0.36365 0.57187 0.24619 0.0
C548 C 0.40062 0.56897 0.23892 0.0
H549 H 0.28655 0.66063 0.26574 0.0
H550 H 0.27308 0.62047 0.26672 0.0
H551 H 0.2943 0.58311 0.26036 0.0
O552 O 0.42986 0.62695 0.2103 0.0
O553 O 0.44559 0.62315 0.26321 0.0
O554 O 0.50598 0.60891 0.26782 0.0
O555 O 0.42748 0.66106 0.21663 0.0
O556 O 0.49477 0.61634 0.22795 0.0
O557 O 0.54577 0.61526 0.24927 0.0
O558 O 0.51208 0.63279 0.29733 0.0
O559 O 0.53245 0.66602 0.25242 0.0
O560 O 0.50564 0.64964 0.22738 0.0
O561 O 0.5735 0.63668 0.29489 0.0
O562 O 0.48487 0.65678 0.27849 0.0
O563 O 0.45745 0.66828 0.25127 0.0
C564 C 0.46829 0.60763 0.26945 0.0
C565 C 0.38389 0.64785 0.19416 0.0
C566 C 0.35128 0.64841 0.16463 0.0
C567 C 0.31582 0.6518 0.17357 0.0
C568 C 0.34817 0.65103 0.20281 0.0
C569 C 0.31435 0.65301 0.19254 0.0
C570 C 0.38525 0.64637 0.17508 0.0
C571 C 0.52871 0.60922 0.23381 0.0
C572 C 0.42028 0.6462 0.2045 0.0
C573 C 0.30186 0.61783 0.26129 0.0
C574 C 0.31387 0.59656 0.2576 0.0
C575 C 0.52739 0.66476 0.23473 0.0
C576 C 0.55168 0.61335 0.3179 0.0
C577 C 0.57132 0.59962 0.34767 0.0
C578 C 0.5703 0.57831 0.34082 0.0
C579 C 0.55114 0.59204 0.31121 0.0
C580 C 0.56146 0.61707 0.33616 0.0
C581 C 0.55996 0.57458 0.3227 0.0
C582 C 0.46189 0.66956 0.26902 0.0
C583 C 0.54514 0.63198 0.30576 0.0
H584 H 0.28915 0.65323 0.1659 0.0
H585 H 0.34621 0.65207 0.21741 0.0
H586 H 0.28687 0.65549 0.19931 0.0
H587 H 0.41287 0.64399 0.16835 0.0
H588 H 0.57761 0.5646 0.34947 0.0
H589 H 0.54464 0.58902 0.29706 0.0
H590 H 0.56284 0.63361 0.34121 0.0
H591 H 0.55944 0.55814 0.31747 0.0
H592 H 0.13715 0.94019 0.36009 0.0
H593 H 0.11354 0.96952 0.3405 0.0
H594 H 0.17786 0.01633 0.37194 0.0
H595 H 0.20343 0.98714 0.39103 0.0
H596 H 0.09699 0.02793 0.36319 0.0
H597 H 0.21602 0.00345 0.33498 0.0
H598 H 0.25937 0.97564 0.32221 0.0
H599 H 0.17324 0.95902 0.2824 0.0
H600 H 0.12913 0.98654 0.29514 0.0
H601 H 0.07744 0.11864 0.30498 0.0
H602 H 0.10523 0.09034 0.32459 0.0
H603 H 0.07343 0.04156 0.28512 0.0
H604 H 0.04823 0.07001 0.26505 0.0
H605 H 0.13822 0.03069 0.29845 0.0
H606 H 0.01766 0.05183 0.32601 0.0
H607 H 0.97145 0.07912 0.33737 0.0
H608 H 0.055 0.10034 0.37691 0.0
H609 H 0.10143 0.07311 0.36583 0.0
C610 C 0.14667 0.95666 0.36281 0.0
C611 C 0.17248 0.96114 0.37719 0.0
C612 C 0.13284 0.97342 0.35166 0.0
C613 C 0.14406 0.99504 0.35478 0.0
C614 C 0.16871 0.99974 0.3694 0.0
C615 C 0.18309 0.98297 0.38038 0.0
C616 C 0.13119 0.01267 0.34238 0.0
C617 C 0.10625 0.02869 0.34908 0.0
C618 C 0.14252 0.01329 0.32388 0.0
C619 C 0.16915 0.99689 0.31613 0.0
C620 C 0.2062 0.99374 0.32361 0.0
C621 C 0.23093 0.97805 0.31636 0.0
C622 C 0.21903 0.96553 0.30153 0.0
C623 C 0.1824 0.96871 0.2939 0.0
C624 C 0.15754 0.98436 0.30112 0.0
C625 C 0.07689 0.10187 0.30049 0.0
C626 C 0.06082 0.09642 0.2836 0.0
C627 C 0.09241 0.08568 0.31173 0.0
C628 C 0.09058 0.06366 0.30659 0.0
C629 C 0.07523 0.05835 0.28946 0.0
C630 C 0.06081 0.07461 0.278 0.0
C631 C 0.10374 0.04609 0.31917 0.0
C632 C 0.12875 0.03 0.31253 0.0
C633 C 0.09175 0.04511 0.33763 0.0
C634 C 0.06299 0.06051 0.34507 0.0
C635 C 0.026 0.06225 0.3372 0.0
C636 C 0.99976 0.0777 0.34359 0.0
C637 C 0.01017 0.09142 0.35791 0.0
C638 C 0.04675 0.08961 0.36594 0.0
C639 C 0.073 0.07411 0.35965 0.0
H640 H 0.98992 0.10348 0.36275 0.0
H641 H 0.23822 0.9534 0.29594 0.0
H642 H 0.40578 0.54743 0.87825 0.0
H643 H 0.42266 0.51657 0.85892 0.0
H644 H 0.31467 0.52343 0.83001 0.0
H645 H 0.2975 0.55436 0.84937 0.0
H646 H 0.33503 0.47934 0.83818 0.0
H647 H 0.38935 0.54372 0.81071 0.0
H648 H 0.4272 0.57784 0.81047 0.0
H649 H 0.52962 0.54258 0.82539 0.0
H650 H 0.4922 0.50828 0.826 0.0
H651 H 0.4476 0.43185 0.75518 0.0
H652 H 0.41798 0.46227 0.77159 0.0
H653 H 0.4327 0.42769 0.82237 0.0
H654 H 0.46261 0.39748 0.80619 0.0
H655 H 0.45309 0.48709 0.80001 0.0
H656 H 0.35176 0.43837 0.84796 0.0
H657 H 0.3131 0.4045 0.84757 0.0
H658 H 0.30183 0.4095 0.78946 0.0
H659 H 0.34027 0.44339 0.78952 0.0
C660 C 0.38532 0.54213 0.868 0.0
C661 C 0.35034 0.55331 0.86529 0.0
C662 C 0.39511 0.5246 0.8569 0.0
C663 C 0.37003 0.51788 0.84296 0.0
C664 C 0.3344 0.52842 0.84068 0.0
C665 C 0.32475 0.54612 0.85167 0.0
C666 C 0.38201 0.50052 0.83025 0.0
C667 C 0.36076 0.48103 0.8298 0.0
C668 C 0.41522 0.50292 0.8191 0.0
C669 C 0.4379 0.52347 0.81854 0.0
C670 C 0.41988 0.54327 0.81407 0.0
C671 C 0.44126 0.56263 0.81385 0.0
C672 C 0.48077 0.56238 0.81795 0.0
C673 C 0.499 0.54275 0.82223 0.0
C674 C 0.47773 0.52334 0.8225 0.0
C675 C 0.44425 0.4307 0.76982 0.0
C676 C 0.45753 0.41233 0.77941 0.0
C677 C 0.42748 0.44808 0.77916 0.0
C678 C 0.42304 0.44713 0.79815 0.0
C679 C 0.43563 0.42865 0.80769 0.0
C680 C 0.45287 0.41146 0.79843 0.0
C681 C 0.40663 0.46573 0.80824 0.0
C682 C 0.42717 0.48545 0.80827 0.0
C683 C 0.37265 0.46358 0.81888 0.0
C684 C 0.34914 0.44333 0.81875 0.0
C685 C 0.34093 0.43226 0.83511 0.0
C686 C 0.31914 0.41303 0.83494 0.0
C687 C 0.3052 0.40478 0.81849 0.0
C688 C 0.31291 0.41579 0.80218 0.0
C689 C 0.33477 0.43499 0.80227 0.0
H690 H 0.28832 0.3899 0.81838 0.0
H691 H 0.49728 0.57739 0.81778 0.0
H692 H 0.65573 0.52211 0.60842 0.0
H693 H 0.6266 0.49424 0.62807 0.0
H694 H 0.66029 0.53081 0.67552 0.0
H695 H 0.69047 0.55838 0.656 0.0
H696 H 0.68127 0.48918 0.67839 0.0
H697 H 0.56566 0.52746 0.66225 0.0
H698 H 0.51783 0.5439 0.64146 0.0
H699 H 0.49572 0.48148 0.61758 0.0
H700 H 0.54386 0.46466 0.63806 0.0
H701 H 0.57174 0.42995 0.74461 0.0
H702 H 0.59792 0.45817 0.72455 0.0
H703 H 0.57221 0.41836 0.67788 0.0
H704 H 0.5476 0.38958 0.69798 0.0
H705 H 0.54658 0.46127 0.67428 0.0
H706 H 0.66249 0.4232 0.68937 0.0
H707 H 0.71548 0.40702 0.70733 0.0
H708 H 0.73866 0.46892 0.73197 0.0
H709 H 0.68547 0.48543 0.71432 0.0
C710 C 0.65683 0.52424 0.62304 0.0
C711 C 0.6755 0.54244 0.63065 0.0
C712 C 0.63982 0.50841 0.63424 0.0
C713 C 0.64101 0.51052 0.65326 0.0
C714 C 0.65892 0.52889 0.66087 0.0
C715 C 0.67589 0.54472 0.64969 0.0
C716 C 0.62596 0.49292 0.66527 0.0
C717 C 0.65158 0.48337 0.67775 0.0
C718 C 0.58765 0.48481 0.66391 0.0
C719 C 0.55869 0.49484 0.65157 0.0
C720 C 0.55087 0.51726 0.65246 0.0
C721 C 0.52364 0.52664 0.64075 0.0
C722 C 0.50384 0.51374 0.62818 0.0
C723 C 0.51114 0.49143 0.62732 0.0
C724 C 0.53837 0.48196 0.63898 0.0
C725 C 0.57258 0.42691 0.73016 0.0
C726 C 0.55844 0.40727 0.723 0.0
C727 C 0.58725 0.44316 0.71867 0.0
C728 C 0.58734 0.44025 0.69974 0.0
C729 C 0.57255 0.42086 0.69247 0.0
C730 C 0.55848 0.40445 0.704 0.0
C731 C 0.60185 0.45775 0.68754 0.0
C732 C 0.57617 0.46723 0.67501 0.0
C733 C 0.64017 0.46581 0.6888 0.0
C734 C 0.66976 0.45551 0.70063 0.0
C735 C 0.67843 0.43329 0.69885 0.0
C736 C 0.70872 0.4241 0.70886 0.0
C737 C 0.73064 0.437 0.72064 0.0
C738 C 0.72182 0.459 0.72273 0.0
C739 C 0.69159 0.46827 0.71275 0.0
H740 H 0.75434 0.42992 0.72825 0.0
H741 H 0.48276 0.52103 0.61913 0.0
H742 H 0.90139 0.93504 0.15433 0.0
H743 H 0.91782 0.96749 0.17165 0.0
H744 H 0.81695 1.00003 0.15032 0.0
H745 H 0.80022 0.96738 0.13282 0.0
H746 H 0.87983 0.02672 0.15022 0.0
H747 H 0.81669 0.98078 0.19369 0.0
H748 H 0.80366 0.94659 0.21037 0.0
H749 H 0.91948 0.9472 0.23166 0.0
H750 H 0.9334 0.98124 0.2149 0.0
H751 H 0.91202 0.11309 0.21413 0.0
H752 H 0.88074 0.08347 0.19728 0.0
H753 H 0.97303 0.04015 0.21308 0.0
H754 H 0.00351 0.06939 0.23037 0.0
H755 H 0.90423 0.02056 0.21665 0.0
H756 H 0.96942 0.06378 0.17041 0.0
H757 H 0.98363 0.09739 0.15309 0.0
H758 H 0.86432 0.10171 0.137 0.0
H759 H 0.84934 0.06823 0.1544 0.0
C760 C 0.88242 0.949 0.15344 0.0
C761 C 0.8492 0.94851 0.14237 0.0
C762 C 0.8919 0.96758 0.16334 0.0
C763 C 0.86824 0.98607 0.16256 0.0
C764 C 0.83552 0.9859 0.15119 0.0
C765 C 0.82605 0.96726 0.14119 0.0
C766 C 0.8781 0.00548 0.17364 0.0
C767 C 0.88443 0.0255 0.16481 0.0
C768 C 0.88456 0.00383 0.19265 0.0
C769 C 0.87614 0.98351 0.20295 0.0
C770 C 0.83945 0.97356 0.20185 0.0
C771 C 0.8319 0.95421 0.21132 0.0
C772 C 0.86074 0.94471 0.22205 0.0
C773 C 0.89716 0.95458 0.22335 0.0
C774 C 0.90488 0.97392 0.21389 0.0
C775 C 0.92534 0.09717 0.21412 0.0
C776 C 0.96006 0.0935 0.22362 0.0
C777 C 0.90764 0.08032 0.20438 0.0
C778 C 0.9247 0.05961 0.20379 0.0
C779 C 0.9593 0.05597 0.21335 0.0
C780 C 0.97686 0.07274 0.22311 0.0
C781 C 0.90707 0.04162 0.19315 0.0
C782 C 0.89913 0.02187 0.2021 0.0
C783 C 0.8992 0.04353 0.17428 0.0
C784 C 0.90819 0.06366 0.16386 0.0
C785 C 0.94617 0.072 0.1633 0.0
C786 C 0.95437 0.091 0.15344 0.0
C787 C 0.92488 0.10171 0.14399 0.0
C788 C 0.88713 0.09341 0.14435 0.0
C789 C 0.87877 0.07442 0.15419 0.0
H790 H 0.9313 0.1164 0.13635 0.0
H791 H 0.85485 0.92973 0.22936 0.0
H792 H 0.82473 0.07003 0.66179 0.0
H793 H 0.83432 0.03823 0.68147 0.0
H794 H 0.88615 0.00378 0.63669 0.0
H795 H 0.87587 0.03532 0.61682 0.0
H796 H 0.83686 0.9776 0.65783 0.0
H797 H 0.94265 0.02945 0.66688 0.0
H798 H 0.96888 0.06562 0.6747 0.0
H799 H 0.9147 0.06169 0.72728 0.0
H800 H 0.88775 0.02561 0.71966 0.0
H801 H 0.94874 0.89601 0.69866 0.0
H802 H 0.92287 0.92663 0.68153 0.0
H803 H 0.89953 0.96039 0.73175 0.0
H804 H 0.92899 0.93058 0.74889 0.0
H805 H 0.92681 0.98764 0.70983 0.0
H806 H 0.82618 0.93523 0.70359 0.0
H807 H 0.79756 0.8993 0.69704 0.0
H808 H 0.83534 0.90431 0.64145 0.0
H809 H 0.86478 0.94013 0.64772 0.0
C810 C 0.83744 0.05553 0.65604 0.0
C811 C 0.84979 0.05523 0.63778 0.0
C812 C 0.84313 0.03744 0.66733 0.0
C813 C 0.86134 0.01877 0.66057 0.0
C814 C 0.87212 0.01806 0.64217 0.0
C815 C 0.86653 0.03615 0.63088 0.0
C816 C 0.87148 1.00047 0.67288 0.0
C817 C 0.85665 0.97969 0.66917 0.0
C818 C 0.89623 0.00342 0.68801 0.0
C819 C 0.9129 0.02496 0.69264 0.0
C820 C 0.93615 0.03637 0.68006 0.0
C821 C 0.95117 0.05684 0.68446 0.0
C822 C 0.94338 0.06597 0.70146 0.0
C823 C 0.92067 0.05462 0.71411 0.0
C824 C 0.90555 0.03416 0.70976 0.0
C825 C 0.93815 0.90996 0.70608 0.0
C826 C 0.94067 0.91076 0.72516 0.0
C827 C 0.92283 0.92739 0.69625 0.0
C828 C 0.90821 0.94569 0.70531 0.0
C829 C 0.91032 0.94642 0.72441 0.0
C830 C 0.92675 0.92924 0.73423 0.0
C831 C 0.89259 0.96445 0.69476 0.0
C832 C 0.90647 0.9854 0.69873 0.0
C833 C 0.8663 0.96168 0.68011 0.0
C834 C 0.84787 0.94034 0.67616 0.0
C835 C 0.82852 0.92864 0.68998 0.0
C836 C 0.81216 0.90829 0.68632 0.0
C837 C 0.81465 0.89952 0.66884 0.0
C838 C 0.83342 0.91113 0.65498 0.0
C839 C 0.84991 0.93147 0.65857 0.0
H840 H 0.80201 0.88375 0.66604 0.0
H841 H 0.95501 0.08183 0.70484 0.0
H842 H 0.64026 0.46009 0.12201 0.0
H843 H 0.60786 0.48678 0.1411 0.0
H844 H 0.71245 0.49501 0.1725 0.0
H845 H 0.74417 0.46721 0.15437 0.0
H846 H 0.6544 0.49585 0.19443 0.0
H847 H 0.68326 0.53185 0.13791 0.0
H848 H 0.68312 0.5371 0.10459 0.0
H849 H 0.55881 0.53913 0.10466 0.0
H850 H 0.5582 0.5336 0.13797 0.0
H851 H 0.60567 0.5982 0.23318 0.0
H852 H 0.63681 0.56986 0.21534 0.0
H853 H 0.52814 0.55617 0.18878 0.0
H854 H 0.49684 0.58423 0.20676 0.0
H855 H 0.58801 0.55813 0.1648 0.0
H856 H 0.56113 0.52278 0.2223 0.0
H857 H 0.56373 0.51977 0.25578 0.0
H858 H 0.68803 0.5186 0.25383 0.0
H859 H 0.68615 0.52194 0.22034 0.0
C860 C 0.65624 0.46724 0.13317 0.0
C861 C 0.69509 0.46156 0.13646 0.0
C862 C 0.63779 0.48278 0.14394 0.0
C863 C 0.65794 0.49334 0.15801 0.0
C864 C 0.69631 0.48727 0.16165 0.0
C865 C 0.7146 0.47151 0.15108 0.0
C866 C 0.63932 0.51088 0.1688 0.0
C867 C 0.6403 0.50957 0.18791 0.0
C868 C 0.62039 0.52872 0.1604 0.0
C869 C 0.62068 0.53209 0.14039 0.0
C870 C 0.65589 0.53326 0.13079 0.0
C871 C 0.65595 0.53631 0.11192 0.0
C872 C 0.62098 0.53839 0.1025 0.0
C873 C 0.58587 0.53748 0.11196 0.0
C874 C 0.58565 0.5344 0.13084 0.0
C875 C 0.58811 0.5887 0.22407 0.0
C876 C 0.54828 0.59276 0.22229 0.0
C877 C 0.60607 0.57268 0.21363 0.0
C878 C 0.58457 0.56051 0.20104 0.0
C879 C 0.54519 0.56516 0.1986 0.0
C880 C 0.52726 0.58115 0.20905 0.0
C881 C 0.60309 0.543 0.19031 0.0
C882 C 0.60209 0.54434 0.17125 0.0
C883 C 0.62237 0.52536 0.19875 0.0
C884 C 0.6235 0.52278 0.21884 0.0
C885 C 0.58901 0.52199 0.22902 0.0
C886 C 0.59036 0.52022 0.248 0.0
C887 C 0.62603 0.51904 0.25693 0.0
C888 C 0.66042 0.51953 0.2469 0.0
C889 C 0.65924 0.52134 0.22791 0.0
H890 H 0.62701 0.51771 0.27163 0.0
H891 H 0.62108 0.54075 0.08789 0.0
H892 H 0.41464 0.45227 0.3816 0.0
H893 H 0.43002 0.48369 0.36243 0.0
H894 H 0.31353 0.48316 0.34112 0.0
H895 H 0.29827 0.45131 0.36006 0.0
H896 H 0.36131 0.48883 0.31441 0.0
H897 H 0.34593 0.52255 0.37198 0.0
H898 H 0.35562 0.52795 0.40491 0.0
H899 H 0.47694 0.53939 0.39597 0.0
H900 H 0.4681 0.53377 0.36302 0.0
H901 H 0.3965 0.60509 0.28542 0.0
H902 H 0.37044 0.57519 0.30407 0.0
H903 H 0.47712 0.53994 0.2975 0.0
H904 H 0.50234 0.56892 0.27782 0.0
H905 H 0.4278 0.55458 0.33813 0.0
H906 H 0.43911 0.51206 0.28015 0.0
H907 H 0.42449 0.50741 0.24752 0.0
H908 H 0.30314 0.51519 0.25846 0.0
H909 H 0.31728 0.52039 0.29112 0.0
C910 C 0.39211 0.45905 0.37305 0.0
C911 C 0.35515 0.44941 0.37244 0.0
C912 C 0.40093 0.47705 0.36208 0.0
C913 C 0.37279 0.48607 0.3505 0.0
C914 C 0.33574 0.47654 0.34995 0.0
C915 C 0.32702 0.45836 0.36078 0.0
C916 C 0.38261 0.50491 0.3385 0.0
C917 C 0.37542 0.50327 0.31972 0.0
C918 C 0.40096 0.5239 0.34527 0.0
C919 C 0.4064 0.52754 0.36505 0.0
C920 C 0.37473 0.52608 0.37706 0.0
C921 C 0.38006 0.52921 0.39573 0.0
C922 C 0.41689 0.53395 0.40255 0.0
C923 C 0.44844 0.5357 0.39069 0.0
C924 C 0.44328 0.53257 0.37201 0.0
C925 C 0.41412 0.59079 0.28764 0.0
C926 C 0.45164 0.58945 0.28025 0.0
C927 C 0.39926 0.57381 0.29836 0.0
C928 C 0.42185 0.55539 0.30202 0.0
C929 C 0.45918 0.55398 0.29466 0.0
C930 C 0.47369 0.57068 0.28362 0.0
C931 C 0.40736 0.53802 0.31426 0.0
C932 C 0.41349 0.54009 0.33302 0.0
C933 C 0.3876 0.5196 0.30756 0.0
C934 C 0.37929 0.51698 0.28795 0.0
C935 C 0.40941 0.51313 0.27553 0.0
C936 C 0.40119 0.51028 0.25706 0.0
C937 C 0.36291 0.51102 0.25091 0.0
C938 C 0.33277 0.51462 0.26324 0.0
C939 C 0.34088 0.51759 0.28171 0.0
H940 H 0.3566 0.50882 0.2366 0.0
H941 H 0.42092 0.53628 0.41701 0.0
H942 H 0.12969 0.04031 0.8795 0.0
H943 H 0.09982 0.01259 0.86017 0.0
H944 H 0.20183 0.012 0.82624 0.0
H945 H 0.23131 0.04017 0.8451 0.0
H946 H 0.13687 0.01136 0.80593 0.0
H947 H 0.18595 0.97264 0.85873 0.0
H948 H 0.19183 0.96489 0.89161 0.0
H949 H 0.0695 0.95248 0.89482 0.0
H950 H 0.06283 0.96045 0.86201 0.0
H951 H 0.09628 0.89016 0.78423 0.0
H952 H 0.12829 0.91965 0.80093 0.0
H953 H 0.03041 0.96132 0.7907 0.0
H954 H 0.9988 0.93219 0.7736 0.0
H955 H 0.09462 0.94081 0.83271 0.0
H956 H 0.05486 0.00235 0.78328 0.0
H957 H 0.05048 0.01056 0.75035 0.0
H958 H 0.15777 0.9773 0.74124 0.0
H959 H 0.16184 0.96811 0.77402 0.0
C960 C 0.14555 0.03448 0.86778 0.0
C961 C 0.18299 0.04236 0.86391 0.0
C962 C 0.12859 0.01849 0.85685 0.0
C963 C 0.14883 0.01001 0.84191 0.0
C964 C 0.18577 0.01823 0.83775 0.0
C965 C 0.20271 0.03421 0.84864 0.0
C966 C 0.13183 0.99242 0.83066 0.0
C967 C 0.12771 0.99596 0.81186 0.0
C968 C 0.11976 0.97227 0.83828 0.0
C969 C 0.12386 0.96734 0.85797 0.0
C970 C 0.16028 0.96841 0.86648 0.0
C971 C 0.16375 0.96395 0.8851 0.0
C972 C 0.13105 0.95825 0.89531 0.0
C973 C 0.09481 0.95693 0.88691 0.0
C974 C 0.09117 0.9614 0.8683 0.0
C975 C 0.082 0.90575 0.78523 0.0
C976 C 0.04511 0.90891 0.77763 0.0
C977 C 0.10016 0.92251 0.79486 0.0
C978 C 0.08181 0.94269 0.7969 0.0
C979 C 0.04529 0.94598 0.78904 0.0
C980 C 0.02714 0.92926 0.77944 0.0
C981 C 0.0997 0.95989 0.80815 0.0
C982 C 0.10386 0.95626 0.82691 0.0
C983 C 0.11166 0.97996 0.8006 0.0
C984 C 0.1085 0.98449 0.78093 0.0
C985 C 0.07725 0.99663 0.77417 0.0
C986 C 0.07473 0.00133 0.75556 0.0
C987 C 0.1037 0.99429 0.7437 0.0
C988 C 0.13513 0.98245 0.75042 0.0
C989 C 0.13741 0.97735 0.76897 0.0
H990 H 0.10189 0.99808 0.72931 0.0
H991 H 0.1338 0.95481 0.90972 0.0
H992 H 0.17043 0.15711 0.98484 0.0
H993 H 0.1504 0.16113 0.01659 0.0
H994 H 0.17025 0.09276 0.02599 0.0
H995 H 0.19095 0.08863 0.99442 0.0
H996 H 0.1034 0.10677 0.04262 0.0
H997 H 0.23726 0.12868 0.03856 0.0
H998 H 0.29263 0.14972 0.02643 0.0
H999 H 0.23776 0.2093 0.04218 0.0
H1000 H 0.18179 0.18862 0.05417 0.0
H1001 H 0.12157 0.10802 0.13975 0.0
H1002 H 0.12661 0.10308 0.10673 0.0
H1003 H 0.12082 0.17271 0.09897 0.0
H1004 H 0.11748 0.17759 0.13197 0.0
H1005 H 0.1785 0.15795 0.08103 0.0
H1006 H 0.04544 0.13589 0.08672 0.0
H1007 H 0.99102 0.11459 0.09945 0.0
H1008 H 0.04366 0.05545 0.0811 0.0
H1009 H 0.09874 0.07636 0.06852 0.0
C1010 C 0.17057 0.14292 0.99365 0.0
C1011 C 0.18245 0.12256 0.98705 0.0
C1012 C 0.15895 0.14523 0.01177 0.0
C1013 C 0.15914 0.12726 0.02367 0.0
C1014 C 0.16972 0.1068 0.01701 0.0
C1015 C 0.18143 0.10448 0.99892 0.0
C1016 C 0.15025 0.13 0.04328 0.0
C1017 C 0.11992 0.11784 0.05109 0.0
C1018 C 0.17148 0.14467 0.05423 0.0
C1019 C 0.20517 0.15712 0.04707 0.0
C1020 C 0.23687 0.14628 0.03929 0.0
C1021 C 0.26838 0.15814 0.03247 0.0
C1022 C 0.26866 0.18083 0.03349 0.0
C1023 C 0.23747 0.19172 0.04137 0.0
C1024 C 0.20586 0.17994 0.04819 0.0
C1025 C 0.12047 0.12216 0.1309 0.0
C1026 C 0.11909 0.14317 0.13827 0.0
C1027 C 0.1233 0.11937 0.11205 0.0
C1028 C 0.12388 0.13753 0.1003 0.0
C1029 C 0.12059 0.15845 0.10772 0.0
C1030 C 0.11846 0.16125 0.12653 0.0
C1031 C 0.1311 0.13499 0.08046 0.0
C1032 C 0.16148 0.14706 0.0726 0.0
C1033 C 0.10981 0.12027 0.06952 0.0
C1034 C 0.07638 0.10769 0.0768 0.0
C1035 C 0.04553 0.11833 0.08549 0.0
C1036 C 0.01456 0.10633 0.09268 0.0
C1037 C 0.01392 0.08368 0.09112 0.0
C1038 C 0.04421 0.07299 0.08232 0.0
C1039 C 0.0753 0.08491 0.07514 0.0
H1040 H 0.98993 0.07442 0.09671 0.0
H1041 H 0.29309 0.18998 0.0282 0.0
H1042 H 0.33804 0.33427 0.50126 0.0
H1043 H 0.34227 0.3375 0.53425 0.0
H1044 H 0.32655 0.40693 0.5298 0.0
H1045 H 0.32433 0.40397 0.4966 0.0
H1046 H 0.38223 0.39858 0.5531 0.0
H1047 H 0.25308 0.37225 0.54494 0.0
H1048 H 0.20162 0.34797 0.53352 0.0
H1049 H 0.25271 0.29395 0.56186 0.0
H1050 H 0.3048 0.31786 0.57327 0.0
H1051 H 0.33521 0.41423 0.64733 0.0
H1052 H 0.33056 0.41162 0.61407 0.0
H1053 H 0.3724 0.34567 0.61661 0.0
H1054 H 0.37776 0.34832 0.6499 0.0
H1055 H 0.30274 0.3527 0.59466 0.0
H1056 H 0.43233 0.37989 0.60242 0.0
H1057 H 0.48243 0.40488 0.61408 0.0
H1058 H 0.42775 0.45847 0.58669 0.0
H1059 H 0.37692 0.43381 0.57507 0.0
C1060 C 0.3357 0.35028 0.50724 0.0
C1061 C 0.33093 0.36887 0.4962 0.0
C1062 C 0.33768 0.35207 0.52617 0.0
C1063 C 0.33426 0.37243 0.53458 0.0
C1064 C 0.32915 0.39102 0.52364 0.0
C1065 C 0.32745 0.38927 0.50466 0.0
C1066 C 0.33703 0.37433 0.55475 0.0
C1067 C 0.36437 0.38879 0.56216 0.0
C1068 C 0.31434 0.36125 0.56664 0.0
C1069 C 0.28304 0.34682 0.55982 0.0
C1070 C 0.25351 0.35516 0.54863 0.0
C1071 C 0.2242 0.34147 0.54217 0.0
C1072 C 0.22395 0.31942 0.54692 0.0
C1073 C 0.25297 0.31103 0.55818 0.0
C1074 C 0.28237 0.32465 0.56465 0.0
C1075 C 0.34336 0.39918 0.64078 0.0
C1076 C 0.35674 0.38145 0.65115 0.0
C1077 C 0.34085 0.39775 0.62182 0.0
C1078 C 0.35117 0.37847 0.61293 0.0
C1079 C 0.36429 0.36068 0.62325 0.0
C1080 C 0.36749 0.36224 0.6422 0.0
C1081 C 0.34786 0.37686 0.59286 0.0
C1082 C 0.32043 0.3625 0.58552 0.0
C1083 C 0.37017 0.39015 0.58105 0.0
C1084 C 0.40057 0.40504 0.58805 0.0
C1085 C 0.43074 0.39704 0.59904 0.0
C1086 C 0.45932 0.41113 0.6056 0.0
C1087 C 0.45821 0.43325 0.60117 0.0
C1088 C 0.42853 0.44133 0.59013 0.0
C1089 C 0.39984 0.4273 0.58354 0.0
H1090 H 0.48043 0.44411 0.60623 0.0
H1091 H 0.20122 0.30885 0.54192 0.0
H1092 H 0.71682 0.34247 0.01625 0.0
H1093 H 0.69258 0.3339 0.98595 0.0
H1094 H 0.65393 0.40013 0.97926 0.0
H1095 H 0.67572 0.40848 0.01004 0.0
H1096 H 0.6032 0.37476 0.96463 0.0
H1097 H 0.74078 0.38123 0.96045 0.0
H1098 H 0.80893 0.37387 0.96831 0.0
H1099 H 0.79365 0.30668 0.95415 0.0
H1100 H 0.72521 0.31359 0.94644 0.0
H1101 H 0.63256 0.36904 0.86372 0.0
H1102 H 0.64786 0.37758 0.89542 0.0
H1103 H 0.59962 0.31606 0.91261 0.0
H1104 H 0.58214 0.30778 0.88113 0.0
H1105 H 0.69347 0.33981 0.92117 0.0
H1106 H 0.54867 0.33607 0.93058 0.0
H1107 H 0.48329 0.34725 0.9208 0.0
H1108 H 0.51806 0.41439 0.9227 0.0
H1109 H 0.58383 0.4035 0.93225 0.0
C1110 C 0.70242 0.35514 0.00855 0.0
C1111 C 0.69857 0.37625 0.01564 0.0
C1112 C 0.68904 0.35027 0.99106 0.0
C1113 C 0.6722 0.36649 0.98011 0.0
C1114 C 0.66709 0.38736 0.98736 0.0
C1115 C 0.67999 0.39218 0.00493 0.0
C1116 C 0.66073 0.36183 0.96098 0.0
C1117 C 0.62311 0.36715 0.9552 0.0
C1118 C 0.68662 0.35209 0.94845 0.0
C1119 C 0.72777 0.34788 0.95305 0.0
C1120 C 0.75187 0.36485 0.95915 0.0
C1121 C 0.79056 0.36077 0.96355 0.0
C1122 C 0.80558 0.33981 0.96178 0.0
C1123 C 0.78196 0.3229 0.95554 0.0
C1124 C 0.74322 0.32689 0.95114 0.0
C1125 C 0.62435 0.35749 0.87423 0.0
C1126 C 0.60606 0.33768 0.86978 0.0
C1127 C 0.63343 0.36236 0.89232 0.0
C1128 C 0.62462 0.34749 0.90627 0.0
C1129 C 0.60635 0.32779 0.90199 0.0
C1130 C 0.59678 0.32301 0.88395 0.0
C1131 C 0.636 0.35219 0.92524 0.0
C1132 C 0.67369 0.34714 0.93082 0.0
C1133 C 0.61056 0.36248 0.93747 0.0
C1134 C 0.57113 0.36898 0.93189 0.0
C1135 C 0.54243 0.35319 0.92872 0.0
C1136 C 0.5053 0.35947 0.92327 0.0
C1137 C 0.49656 0.38152 0.92107 0.0
C1138 C 0.52489 0.39732 0.92437 0.0
C1139 C 0.56207 0.39111 0.9298 0.0
H1140 H 0.4678 0.38635 0.91685 0.0
H1141 H 0.83555 0.33668 0.96519 0.0
H1142 H 0.7971 0.16111 0.5072 0.0
H1143 H 0.80657 0.1602 0.47424 0.0
H1144 H 0.88112 0.10446 0.4802 0.0
H1145 H 0.87316 0.10584 0.5132 0.0
H1146 H 0.91339 0.13297 0.45832 0.0
H1147 H 0.78863 0.09962 0.4626 0.0
H1148 H 0.72038 0.09603 0.4721 0.0
H1149 H 0.69231 0.15476 0.44313 0.0
H1150 H 0.76052 0.15887 0.43366 0.0
H1151 H 0.85302 0.12234 0.3552 0.0
H1152 H 0.84814 0.11158 0.38748 0.0
H1153 H 0.9023 0.17208 0.40303 0.0
H1154 H 0.90648 0.18294 0.37092 0.0
H1155 H 0.80603 0.13468 0.41344 0.0
H1156 H 0.95583 0.1628 0.44067 0.0
H1157 H 0.02454 0.16225 0.43135 0.0
H1158 H 0.00224 0.10684 0.39753 0.0
H1159 H 0.93358 0.10721 0.40644 0.0
C1160 C 0.81551 0.14865 0.50151 0.0
C1161 C 0.83433 0.13354 0.51289 0.0
C1162 C 0.82058 0.14801 0.48263 0.0
C1163 C 0.84427 0.13212 0.4747 0.0
C1164 C 0.86261 0.11682 0.48599 0.0
C1165 C 0.85768 0.1175 0.50487 0.0
C1166 C 0.85143 0.13215 0.45474 0.0
C1167 C 0.88986 0.13326 0.44853 0.0
C1168 C 0.82084 0.13206 0.4419 0.0
C1169 C 0.77976 0.12963 0.44753 0.0
C1170 C 0.76796 0.11185 0.45836 0.0
C1171 C 0.72927 0.10971 0.46372 0.0
C1172 C 0.70204 0.12517 0.45825 0.0
C1173 C 0.71344 0.1428 0.44737 0.0
C1174 C 0.7521 0.14503 0.44198 0.0
C1175 C 0.86459 0.13304 0.36555 0.0
C1176 C 0.88013 0.15342 0.36071 0.0
C1177 C 0.86162 0.12698 0.38392 0.0
C1178 C 0.87488 0.14103 0.39763 0.0
C1179 C 0.89218 0.16092 0.39268 0.0
C1180 C 0.89454 0.16712 0.37438 0.0
C1181 C 0.86786 0.13599 0.41714 0.0
C1182 C 0.82947 0.13414 0.42327 0.0
C1183 C 0.89844 0.13502 0.4299 0.0
C1184 C 0.93952 0.13518 0.42408 0.0
C1185 C 0.96563 0.15057 0.43117 0.0
C1186 C 0.00456 0.15032 0.42592 0.0
C1187 C 0.01775 0.13463 0.41372 0.0
C1188 C 0.99201 0.11917 0.40675 0.0
C1189 C 0.95304 0.11945 0.41184 0.0
H1190 H 0.04793 0.13437 0.40973 0.0
H1191 H 0.6721 0.12348 0.46241 0.0
H1192 H 0.88469 0.90392 0.02067 0.0
H1193 H 0.89642 0.90761 0.98813 0.0
H1194 H 0.80233 0.86315 0.97716 0.0
H1195 H 0.79176 0.8584 0.00992 0.0
H1196 H 0.86206 0.85332 0.95678 0.0
H1197 H 0.79431 0.91892 0.96927 0.0
H1198 H 0.77936 0.953 0.98533 0.0
H1199 H 0.8913 0.9787 0.97118 0.0
H1200 H 0.90715 0.94464 0.95525 0.0
H1201 H 0.86609 0.87917 0.86133 0.0
H1202 H 0.84582 0.87459 0.89304 0.0
H1203 H 0.94411 0.91254 0.91065 0.0
H1204 H 0.96516 0.91678 0.87908 0.0
H1205 H 0.87623 0.92546 0.92679 0.0
H1206 H 0.94412 0.85826 0.91566 0.0
H1207 H 0.9574 0.82413 0.89934 0.0
H1208 H 0.8418 0.80167 0.91046 0.0
H1209 H 0.82766 0.83581 0.92665 0.0
C1210 C 0.86656 0.89479 0.01139 0.0
C1211 C 0.83738 0.88076 0.01797 0.0
C1212 C 0.873 0.89715 0.99272 0.0
C1213 C 0.84993 0.88589 0.98014 0.0
C1214 C 0.82041 0.87207 0.98661 0.0
C1215 C 0.81415 0.86955 0.00534 0.0
C1216 C 0.85773 0.88803 0.96029 0.0
C1217 C 0.86441 0.8691 0.95015 0.0
C1218 C 0.86146 0.90861 0.95166 0.0
C1219 C 0.85201 0.92915 0.96118 0.0
C1220 C 0.81585 0.93178 0.9697 0.0
C1221 C 0.80719 0.9511 0.97876 0.0
C1222 C 0.83439 0.96799 0.97931 0.0
C1223 C 0.87027 0.9656 0.97076 0.0
C1224 C 0.87909 0.9463 0.96169 0.0
C1225 C 0.88375 0.88629 0.87195 0.0
C1226 C 0.9173 0.89837 0.86761 0.0
C1227 C 0.87199 0.88373 0.89006 0.0
C1228 C 0.89353 0.89317 0.90419 0.0
C1229 C 0.92697 0.90521 0.89994 0.0
C1230 C 0.93886 0.90769 0.88186 0.0
C1231 C 0.88106 0.89081 0.92344 0.0
C1232 C 0.87349 0.90971 0.93342 0.0
C1233 C 0.87619 0.87022 0.93186 0.0
C1234 C 0.88471 0.84968 0.92218 0.0
C1235 C 0.92143 0.84612 0.91449 0.0
C1236 C 0.92913 0.82676 0.90529 0.0
C1237 C 0.90042 0.81077 0.90381 0.0
C1238 C 0.86398 0.81408 0.91158 0.0
C1239 C 0.85612 0.83343 0.92078 0.0
H1240 H 0.90644 0.79578 0.89669 0.0
H1241 H 0.82763 0.98294 0.98633 0.0
H1242 H 0.75095 0.60937 0.49793 0.0
H1243 H 0.72416 0.60976 0.46725 0.0
H1244 H 0.61722 0.63609 0.48787 0.0
H1245 H 0.64398 0.63575 0.51877 0.0
H1246 H 0.60275 0.6037 0.46544 0.0
H1247 H 0.67976 0.66769 0.4626 0.0
H1248 H 0.73792 0.69066 0.46623 0.0
H1249 H 0.79978 0.65065 0.42842 0.0
H1250 H 0.74215 0.62722 0.42475 0.0
H1251 H 0.53513 0.6236 0.37381 0.0
H1252 H 0.55745 0.63041 0.40506 0.0
H1253 H 0.65969 0.59226 0.39493 0.0
H1254 H 0.63724 0.58512 0.36384 0.0
H1255 H 0.67255 0.63457 0.41208 0.0
H1256 H 0.59555 0.56874 0.41818 0.0
H1257 H 0.53649 0.5464 0.4151 0.0
H1258 H 0.4728 0.59249 0.44693 0.0
H1259 H 0.53156 0.6152 0.45009 0.0
C1260 C 0.72199 0.61565 0.49593 0.0
C1261 C 0.6997 0.62268 0.5108 0.0
C1262 C 0.70667 0.61584 0.47836 0.0
C1263 C 0.66885 0.62324 0.4752 0.0
C1264 C 0.64651 0.63036 0.48998 0.0
C1265 C 0.6618 0.63011 0.50763 0.0
C1266 C 0.65223 0.62249 0.45657 0.0
C1267 C 0.61764 0.61087 0.45384 0.0
C1268 C 0.67187 0.63157 0.44137 0.0
C1269 C 0.70668 0.64559 0.44351 0.0
C1270 C 0.70585 0.66368 0.45516 0.0
C1271 C 0.73872 0.6768 0.45721 0.0
C1272 C 0.77255 0.67209 0.44759 0.0
C1273 C 0.77356 0.65427 0.43587 0.0
C1274 C 0.74078 0.64107 0.43378 0.0
C1275 C 0.56234 0.61669 0.37831 0.0
C1276 C 0.5844 0.60373 0.36653 0.0
C1277 C 0.57499 0.62056 0.3961 0.0
C1278 C 0.61015 0.6118 0.40223 0.0
C1279 C 0.63248 0.59915 0.3904 0.0
C1280 C 0.61954 0.59497 0.37274 0.0
C1281 C 0.62361 0.61556 0.42107 0.0
C1282 C 0.65754 0.62773 0.42378 0.0
C1283 C 0.60318 0.60723 0.43627 0.0
C1284 C 0.56778 0.59378 0.43418 0.0
C1285 C 0.56885 0.57423 0.42435 0.0
C1286 C 0.53546 0.56147 0.42263 0.0
C1287 C 0.50086 0.56807 0.43075 0.0
C1288 C 0.49961 0.58743 0.44062 0.0
C1289 C 0.53295 0.60023 0.4424 0.0
H1290 H 0.47509 0.55815 0.42948 0.0
H1291 H 0.79796 0.68228 0.44919 0.0
H1292 H 0.36698 0.60567 0.99228 0.0
H1293 H 0.37196 0.60754 0.02545 0.0
H1294 H 0.30369 0.66616 0.02524 0.0
H1295 H 0.29941 0.6647 0.992 0.0
H1296 H 0.36754 0.67008 0.0467 0.0
H1297 H 0.26443 0.61801 0.03871 0.0
H1298 H 0.23392 0.5847 0.02669 0.0
H1299 H 0.32115 0.54574 0.05261 0.0
H1300 H 0.35249 0.57886 0.06458 0.0
H1301 H 0.31675 0.67546 0.14002 0.0
H1302 H 0.31628 0.67238 0.10682 0.0
H1303 H 0.38814 0.61528 0.11043 0.0
H1304 H 0.38853 0.61822 0.14376 0.0
H1305 H 0.32531 0.60971 0.08735 0.0
H1306 H 0.42862 0.66028 0.09526 0.0
H1307 H 0.46148 0.69283 0.10723 0.0
H1308 H 0.3766 0.73375 0.08168 0.0
H1309 H 0.34311 0.70134 0.06957 0.0
C1310 C 0.35306 0.61898 0.99929 0.0
C1311 C 0.33276 0.63503 0.98949 0.0
C1312 C 0.3557 0.61994 0.01826 0.0
C1313 C 0.33796 0.6369 0.02784 0.0
C1314 C 0.31753 0.6529 0.01812 0.0
C1315 C 0.3148 0.65192 0.99914 0.0
C1316 C 0.34135 0.63822 0.04796 0.0
C1317 C 0.3578 0.657 0.05559 0.0
C1318 C 0.32987 0.62086 0.05954 0.0
C1319 C 0.31102 0.60093 0.05239 0.0
C1320 C 0.27728 0.60235 0.04172 0.0
C1321 C 0.25981 0.5835 0.03494 0.0
C1322 C 0.27565 0.56312 0.03885 0.0
C1323 C 0.30894 0.56154 0.04958 0.0
C1324 C 0.32656 0.58034 0.05638 0.0
C1325 C 0.33244 0.66225 0.13373 0.0
C1326 C 0.35259 0.64704 0.14446 0.0
C1327 C 0.33236 0.66059 0.11477 0.0
C1328 C 0.35231 0.64366 0.10616 0.0
C1329 C 0.37259 0.62847 0.11682 0.0
C1330 C 0.373 0.63025 0.13581 0.0
C1331 C 0.3511 0.64164 0.08605 0.0
C1332 C 0.3351 0.62275 0.07843 0.0
C1333 C 0.36323 0.65882 0.07446 0.0
C1334 C 0.38315 0.67839 0.08167 0.0
C1335 C 0.41677 0.67622 0.09232 0.0
C1336 C 0.43555 0.69464 0.09911 0.0
C1337 C 0.42102 0.71537 0.09532 0.0
C1338 C 0.38778 0.71769 0.08464 0.0
C1339 C 0.36894 0.69929 0.07776 0.0
H1340 H 0.43559 0.72962 0.10062 0.0
H1341 H 0.26207 0.54854 0.03359 0.0
H1342 H 0.22175 0.83631 0.49863 0.0
H1343 H 0.20405 0.83162 0.53063 0.0
H1344 H 0.14834 0.89431 0.53007 0.0
H1345 H 0.16703 0.89942 0.49818 0.0
H1346 H 0.1931 0.89027 0.55929 0.0
H1347 H 0.09485 0.84745 0.53144 0.0
H1348 H 0.06717 0.81953 0.51122 0.0
H1349 H 0.12992 0.76982 0.53986 0.0
H1350 H 0.15845 0.79749 0.5601 0.0
H1351 H 0.11141 0.87474 0.64786 0.0
H1352 H 0.11718 0.88025 0.61489 0.0
H1353 H 0.18134 0.82044 0.61056 0.0
H1354 H 0.17507 0.81462 0.64341 0.0
H1355 H 0.12693 0.82443 0.58361 0.0
H1356 H 0.22796 0.86872 0.61019 0.0
H1357 H 0.25393 0.8972 0.63038 0.0
H1358 H 0.18276 0.94494 0.60384 0.0
H1359 H 0.15596 0.91665 0.58365 0.0
C1360 C 0.2057 0.8491 0.5053 0.0
C1361 C 0.19582 0.86824 0.49582 0.0
C1362 C 0.19527 0.84631 0.52357 0.0
C1363 C 0.17452 0.86252 0.53274 0.0
C1364 C 0.16422 0.88154 0.52327 0.0
C1365 C 0.17462 0.88435 0.50498 0.0
C1366 C 0.16516 0.85999 0.55241 0.0
C1367 C 0.178 0.87605 0.56456 0.0
C1368 C 0.146 0.84129 0.55936 0.0
C1369 C 0.12907 0.82458 0.54718 0.0
C1370 C 0.10303 0.83059 0.53333 0.0
C1371 C 0.08713 0.8148 0.52188 0.0
C1372 C 0.09685 0.79292 0.52423 0.0
C1373 C 0.12245 0.78678 0.53805 0.0
C1374 C 0.13847 0.80251 0.54952 0.0
C1375 C 0.12644 0.86267 0.63986 0.0
C1376 C 0.14303 0.84431 0.64828 0.0
C1377 C 0.12994 0.86592 0.62104 0.0
C1378 C 0.15004 0.85087 0.61029 0.0
C1379 C 0.16582 0.8323 0.6186 0.0
C1380 C 0.16251 0.82909 0.6374 0.0
C1381 C 0.15529 0.85456 0.59043 0.0
C1382 C 0.14172 0.83872 0.57828 0.0
C1383 C 0.1735 0.87353 0.58346 0.0
C1384 C 0.18964 0.89053 0.59556 0.0
C1385 C 0.21761 0.88525 0.60877 0.0
C1386 C 0.23252 0.90137 0.62019 0.0
C1387 C 0.21991 0.92285 0.61843 0.0
C1388 C 0.19244 0.92828 0.60521 0.0
C1389 C 0.1774 0.91222 0.59377 0.0
H1390 H 0.23151 0.93531 0.62728 0.0
H1391 H 0.08449 0.78072 0.51536 0.0
H1392 H 0.17582 0.30879 0.38819 0.0
H1393 H 0.13529 0.28555 0.36894 0.0
H1394 H 0.23558 0.26831 0.33716 0.0
H1395 H 0.27577 0.29208 0.35577 0.0
H1396 H 0.17704 0.27601 0.31537 0.0
H1397 H 0.19637 0.23384 0.36986 0.0
H1398 H 0.19461 0.22593 0.40281 0.0
H1399 H 0.07101 0.23348 0.40297 0.0
H1400 H 0.07212 0.24177 0.37005 0.0
H1401 H 0.11828 0.17442 0.2774 0.0
H1402 H 0.14966 0.20243 0.29571 0.0
H1403 H 0.03784 0.22555 0.31291 0.0
H1404 H 0.00616 0.1983 0.29355 0.0
H1405 H 0.09633 0.21679 0.34185 0.0
H1406 H 0.07807 0.25659 0.28629 0.0
H1407 H 0.08147 0.26267 0.25312 0.0
H1408 H 0.2054 0.2576 0.25495 0.0
H1409 H 0.20269 0.25108 0.28811 0.0
C1410 C 0.18917 0.30019 0.37701 0.0
C1411 C 0.22917 0.30218 0.37367 0.0
C1412 C 0.16602 0.28675 0.36611 0.0
C1413 C 0.18244 0.27494 0.35172 0.0
C1414 C 0.22222 0.27717 0.34821 0.0
C1415 C 0.24528 0.29061 0.35903 0.0
C1416 C 0.1585 0.26025 0.34021 0.0
C1417 C 0.15965 0.26298 0.3212 0.0
C1418 C 0.13507 0.24348 0.34775 0.0
C1419 C 0.13439 0.23871 0.36756 0.0
C1420 C 0.16887 0.23404 0.37697 0.0
C1421 C 0.16798 0.22944 0.39563 0.0
C1422 C 0.13274 0.22928 0.40499 0.0
C1423 C 0.0983 0.23367 0.39571 0.0
C1424 C 0.09904 0.23832 0.37705 0.0
C1425 C 0.10036 0.18598 0.28443 0.0
C1426 C 0.05981 0.18462 0.28346 0.0
C1427 C 0.11831 0.20174 0.29518 0.0
C1428 C 0.09602 0.21615 0.30553 0.0
C1429 C 0.05549 0.21458 0.30496 0.0
C1430 C 0.03751 0.19902 0.29393 0.0
C1431 C 0.11537 0.23251 0.31717 0.0
C1432 C 0.11341 0.23002 0.33613 0.0
C1433 C 0.13835 0.24935 0.30961 0.0
C1434 C 0.14015 0.25319 0.28966 0.0
C1435 C 0.10603 0.25657 0.2796 0.0
C1436 C 0.10783 0.26015 0.26081 0.0
C1437 C 0.14363 0.2606 0.25195 0.0
C1438 C 0.1777 0.25734 0.26185 0.0
C1439 C 0.17605 0.25369 0.28064 0.0
H1440 H 0.14497 0.26338 0.23739 0.0
H1441 H 0.1321 0.22569 0.41944 0.0
H1442 H 0.27319 0.20701 0.87453 0.0
H1443 H 0.29945 0.23619 0.85514 0.0
H1444 H 0.38517 0.19206 0.83417 0.0
H1445 H 0.35886 0.16287 0.85315 0.0
H1446 H 0.41689 0.22935 0.84723 0.0
H1447 H 0.31126 0.20913 0.80787 0.0
H1448 H 0.24274 0.20247 0.80019 0.0
H1449 H 0.21563 0.2689 0.81253 0.0
H1450 H 0.28393 0.27588 0.82056 0.0
H1451 H 0.506 0.29387 0.77915 0.0
H1452 H 0.47223 0.26537 0.79637 0.0
H1453 H 0.3796 0.31013 0.80816 0.0
H1454 H 0.41302 0.33848 0.79061 0.0
H1455 H 0.34902 0.27343 0.80046 0.0
H1456 H 0.45131 0.29402 0.84115 0.0
H1457 H 0.51648 0.30031 0.85393 0.0
H1458 H 0.54779 0.23436 0.84203 0.0
H1459 H 0.48297 0.22771 0.82909 0.0
C1460 C 0.29717 0.20343 0.86553 0.0
C1461 C 0.31425 0.18267 0.86559 0.0
C1462 C 0.31214 0.22013 0.85447 0.0
C1463 C 0.34431 0.2163 0.84323 0.0
C1464 C 0.36049 0.19541 0.84282 0.0
C1465 C 0.34555 0.17878 0.85378 0.0
C1466 C 0.36331 0.23428 0.83294 0.0
C1467 C 0.40224 0.2388 0.83678 0.0
C1468 C 0.34368 0.24714 0.81988 0.0
C1469 C 0.30264 0.24296 0.81501 0.0
C1470 C 0.29063 0.22227 0.80912 0.0
C1471 C 0.25184 0.21845 0.80467 0.0
C1472 C 0.22482 0.23524 0.80593 0.0
C1473 C 0.23657 0.2559 0.81159 0.0
C1474 C 0.27532 0.25981 0.81608 0.0
C1475 C 0.47853 0.29762 0.78552 0.0
C1476 C 0.46203 0.31833 0.78351 0.0
C1477 C 0.45928 0.28135 0.79543 0.0
C1478 C 0.42354 0.28562 0.80387 0.0
C1479 C 0.40708 0.30636 0.80182 0.0
C1480 C 0.42617 0.32256 0.79177 0.0
C1481 C 0.40308 0.26837 0.81458 0.0
C1482 C 0.36381 0.26401 0.81086 0.0
C1483 C 0.42225 0.25575 0.828 0.0
C1484 C 0.46237 0.26041 0.83406 0.0
C1485 C 0.47231 0.28097 0.84099 0.0
C1486 C 0.50911 0.28456 0.84836 0.0
C1487 C 0.53611 0.26768 0.84888 0.0
C1488 C 0.52676 0.24736 0.84168 0.0
C1489 C 0.49003 0.24368 0.83433 0.0
H1490 H 0.56423 0.27023 0.85498 0.0
H1491 H 0.1948 0.23225 0.80247 0.0
H1492 H 0.7848 0.22798 0.63992 0.0
H1493 H 0.74529 0.25079 0.65967 0.0
H1494 H 0.65551 0.20175 0.66006 0.0
H1495 H 0.69491 0.17884 0.64019 0.0
H1496 H 0.62478 0.24094 0.65638 0.0
H1497 H 0.71712 0.20809 0.69651 0.0
H1498 H 0.78237 0.19776 0.70701 0.0
H1499 H 0.81412 0.26518 0.71116 0.0
H1500 H 0.74921 0.27592 0.70042 0.0
H1501 H 0.57721 0.29521 0.75034 0.0
H1502 H 0.61158 0.26774 0.73241 0.0
H1503 H 0.60183 0.30846 0.68459 0.0
H1504 H 0.56781 0.33582 0.70234 0.0
H1505 H 0.67893 0.26959 0.71413 0.0
H1506 H 0.59128 0.28063 0.64835 0.0
H1507 H 0.52435 0.2877 0.63815 0.0
H1508 H 0.48009 0.25815 0.68702 0.0
H1509 H 0.54683 0.25155 0.69782 0.0
C1510 C 0.75669 0.22201 0.64426 0.0
C1511 C 0.74309 0.20153 0.63858 0.0
C1512 C 0.73415 0.23506 0.65557 0.0
C1513 C 0.69771 0.22783 0.66162 0.0
C1514 C 0.6836 0.20764 0.6556 0.0
C1515 C 0.70607 0.1946 0.6442 0.0
C1516 C 0.67435 0.24138 0.67418 0.0
C1517 C 0.63663 0.24713 0.66903 0.0
C1518 C 0.68947 0.24919 0.69086 0.0
C1519 C 0.72838 0.24279 0.69754 0.0
C1520 C 0.73809 0.22071 0.69956 0.0
C1521 C 0.77501 0.21478 0.70556 0.0
C1522 C 0.8024 0.23081 0.70972 0.0
C1523 C 0.79288 0.25279 0.70792 0.0
C1524 C 0.75602 0.2588 0.7019 0.0
C1525 C 0.58272 0.29833 0.73603 0.0
C1526 C 0.56996 0.31767 0.72775 0.0
C1527 C 0.60213 0.2826 0.72579 0.0
C1528 C 0.60872 0.28588 0.70708 0.0
C1529 C 0.59633 0.30532 0.69889 0.0
C1530 C 0.57708 0.32101 0.70909 0.0
C1531 C 0.62968 0.26944 0.69613 0.0
C1532 C 0.66702 0.26323 0.70155 0.0
C1533 C 0.61404 0.26092 0.67984 0.0
C1534 C 0.57396 0.26573 0.67391 0.0
C1535 C 0.56724 0.27581 0.65698 0.0
C1536 C 0.52938 0.27984 0.65116 0.0
C1537 C 0.49802 0.27357 0.66204 0.0
C1538 C 0.50446 0.26334 0.6788 0.0
C1539 C 0.54228 0.25958 0.68483 0.0
H1540 H 0.46871 0.27653 0.65745 0.0
H1541 H 0.83097 0.22618 0.71436 0.0
H1542 H 0.88458 0.33991 0.14355 0.0
H1543 H 0.90939 0.31052 0.16272 0.0
H1544 H 0.81469 0.26924 0.14585 0.0
H1545 H 0.78921 0.29891 0.12694 0.0
H1546 H 0.82668 0.26302 0.18024 0.0
H1547 H 0.90768 0.26402 0.12794 0.0
H1548 H 0.95067 0.27977 0.10446 0.0
H1549 H 0.0334 0.29717 0.14559 0.0
H1550 H 0.99062 0.28181 0.16936 0.0
H1551 H 0.98422 0.17361 0.19792 0.0
H1552 H 0.95414 0.20112 0.17876 0.0
H1553 H 0.90765 0.2324 0.22642 0.0
H1554 H 0.93688 0.2044 0.2458 0.0
H1555 H 0.96471 0.2418 0.17507 0.0
H1556 H 0.82587 0.25791 0.21717 0.0
H1557 H 0.77936 0.23773 0.23651 0.0
H1558 H 0.80703 0.17851 0.2087 0.0
H1559 H 0.85401 0.19827 0.1894 0.0
C1560 C 0.8691 0.32454 0.14389 0.0
C1561 C 0.83515 0.32164 0.13361 0.0
C1562 C 0.88335 0.30773 0.15484 0.0
C1563 C 0.86438 0.28747 0.1555 0.0
C1564 C 0.82992 0.28469 0.14556 0.0
C1565 C 0.81537 0.30164 0.13475 0.0
C1566 C 0.88074 0.26923 0.16645 0.0
C1567 C 0.85688 0.25842 0.1791 0.0
C1568 C 0.91989 0.26271 0.16469 0.0
C1569 C 0.94576 0.27196 0.15045 0.0
C1570 C 0.9349 0.27136 0.13199 0.0
C1571 C 0.95925 0.2802 0.11863 0.0
C1572 C 0.9947 0.28952 0.12354 0.0
C1573 C 0.00591 0.28998 0.14182 0.0
C1574 C 0.98163 0.28119 0.15524 0.0
C1575 C 0.96757 0.18628 0.20443 0.0
C1576 C 0.96302 0.18673 0.22349 0.0
C1577 C 0.95037 0.20208 0.19338 0.0
C1578 C 0.92828 0.21881 0.20106 0.0
C1579 C 0.9239 0.21944 0.2201 0.0
C1580 C 0.94087 0.20348 0.23119 0.0
C1581 C 0.91083 0.23582 0.18909 0.0
C1582 C 0.93453 0.24644 0.17625 0.0
C1583 C 0.87123 0.24156 0.19018 0.0
C1584 C 0.84368 0.22952 0.202 0.0
C1585 C 0.8221 0.24056 0.21526 0.0
C1586 C 0.79577 0.22918 0.22625 0.0
C1587 C 0.79049 0.2068 0.22396 0.0
C1588 C 0.81152 0.19577 0.21065 0.0
C1589 C 0.83811 0.20703 0.19973 0.0
H1590 H 0.76998 0.19803 0.23242 0.0
H1591 H 0.01352 0.29634 0.11317 0.0
H1592 H 0.83766 0.7042 0.60919 0.0
H1593 H 0.86128 0.73421 0.62802 0.0
H1594 H 0.83301 0.69756 0.67655 0.0
H1595 H 0.80832 0.66782 0.65785 0.0
H1596 H 0.81043 0.73901 0.67946 0.0
H1597 H 0.92629 0.70176 0.66138 0.0
H1598 H 0.97289 0.68607 0.63971 0.0
H1599 H 0.99009 0.74892 0.6151 0.0
H1600 H 0.94314 0.76494 0.63646 0.0
H1601 H 0.92373 0.79754 0.7442 0.0
H1602 H 0.895 0.76994 0.72451 0.0
H1603 H 0.92176 0.80937 0.67736 0.0
H1604 H 0.94952 0.83734 0.69701 0.0
H1605 H 0.94446 0.76742 0.67308 0.0
H1606 H 0.82959 0.80482 0.69093 0.0
H1607 H 0.77947 0.82043 0.71083 0.0
H1608 H 0.75963 0.75772 0.73526 0.0
H1609 H 0.80989 0.74175 0.71561 0.0
C1610 C 0.83609 0.70264 0.62387 0.0
C1611 C 0.82125 0.68359 0.63202 0.0
C1612 C 0.84997 0.7197 0.63461 0.0
C1613 C 0.84941 0.718 0.65369 0.0
C1614 C 0.83393 0.69918 0.66185 0.0
C1615 C 0.82008 0.68214 0.65114 0.0
C1616 C 0.8646 0.73586 0.66523 0.0
C1617 C 0.83992 0.74502 0.67825 0.0
C1618 C 0.90272 0.74411 0.66327 0.0
C1619 C 0.93087 0.73449 0.65039 0.0
C1620 C 0.93974 0.7122 0.65124 0.0
C1621 C 0.96627 0.70325 0.63903 0.0
C1622 C 0.98435 0.71647 0.626 0.0
C1623 C 0.976 0.73869 0.62518 0.0
C1624 C 0.94945 0.74771 0.63734 0.0
C1625 C 0.92269 0.8006 0.72971 0.0
C1626 C 0.93832 0.81983 0.72225 0.0
C1627 C 0.90643 0.78473 0.71844 0.0
C1628 C 0.9059 0.7877 0.69947 0.0
C1629 C 0.92177 0.80679 0.69196 0.0
C1630 C 0.93764 0.82275 0.70324 0.0
C1631 C 0.89032 0.77047 0.68741 0.0
C1632 C 0.91496 0.76142 0.6743 0.0
C1633 C 0.85216 0.76231 0.68928 0.0
C1634 C 0.82371 0.77213 0.70189 0.0
C1635 C 0.81491 0.79441 0.70071 0.0
C1636 C 0.78629 0.80329 0.71186 0.0
C1637 C 0.76621 0.79003 0.72421 0.0
C1638 C 0.77507 0.76794 0.72562 0.0
C1639 C 0.8036 0.75897 0.71448 0.0
H1640 H 0.74385 0.79689 0.73273 0.0
H1641 H 0.0049 0.70952 0.61657 0.0
H1642 H 0.69876 0.82729 0.15792 0.0
H1643 H 0.66099 0.8016 0.17614 0.0
H1644 H 0.64396 0.76126 0.12893 0.0
H1645 H 0.68055 0.7874 0.11034 0.0
H1646 H 0.57886 0.76244 0.15021 0.0
H1647 H 0.71493 0.74954 0.15874 0.0
H1648 H 0.78237 0.7597 0.16591 0.0
H1649 H 0.74778 0.77927 0.21954 0.0
H1650 H 0.67999 0.76951 0.21259 0.0
H1651 H 0.53737 0.66331 0.1978 0.0
H1652 H 0.56587 0.69133 0.17806 0.0
H1653 H 0.58422 0.73248 0.2247 0.0
H1654 H 0.55514 0.70479 0.24435 0.0
H1655 H 0.64785 0.73086 0.20337 0.0
H1656 H 0.51184 0.74235 0.19528 0.0
H1657 H 0.4446 0.73177 0.18816 0.0
H1658 H 0.47859 0.71471 0.13387 0.0
H1659 H 0.54624 0.7247 0.14076 0.0
C1660 C 0.68619 0.81328 0.15124 0.0
C1661 C 0.69295 0.80939 0.13264 0.0
C1662 C 0.66491 0.79846 0.16176 0.0
C1663 C 0.65025 0.77931 0.15398 0.0
C1664 C 0.65521 0.77587 0.13524 0.0
C1665 C 0.67642 0.79074 0.12467 0.0
C1666 C 0.63193 0.7623 0.16562 0.0
C1667 C 0.59406 0.75534 0.16171 0.0
C1668 C 0.65155 0.75329 0.18081 0.0
C1669 C 0.69234 0.75899 0.18508 0.0
C1670 C 0.72166 0.75615 0.17202 0.0
C1671 C 0.75995 0.76182 0.17605 0.0
C1672 C 0.76934 0.77018 0.19315 0.0
C1673 C 0.74046 0.77283 0.20628 0.0
C1674 C 0.7021 0.76721 0.20231 0.0
C1675 C 0.5474 0.67835 0.20385 0.0
C1676 C 0.54461 0.68166 0.22274 0.0
C1677 C 0.56359 0.69437 0.19254 0.0
C1678 C 0.57706 0.71404 0.1999 0.0
C1679 C 0.57425 0.71737 0.21874 0.0
C1680 C 0.55795 0.70142 0.23001 0.0
C1681 C 0.59468 0.73105 0.18805 0.0
C1682 C 0.63254 0.73797 0.1919 0.0
C1683 C 0.575 0.73996 0.17284 0.0
C1684 C 0.53424 0.73406 0.16861 0.0
C1685 C 0.50508 0.73614 0.18187 0.0
C1686 C 0.46686 0.73025 0.17787 0.0
C1687 C 0.45735 0.72247 0.16059 0.0
C1688 C 0.48602 0.72064 0.14726 0.0
C1689 C 0.52431 0.72641 0.15121 0.0
H1690 H 0.42775 0.71792 0.15751 0.0
H1691 H 0.799 0.77456 0.19625 0.0
H1692 H 0.26229 0.79863 0.37188 0.0
H1693 H 0.2869 0.77002 0.35198 0.0
H1694 H 0.39487 0.80481 0.34622 0.0
H1695 H 0.37147 0.83295 0.36669 0.0
H1696 H 0.36143 0.78989 0.31254 0.0
H1697 H 0.39343 0.76315 0.37316 0.0
H1698 H 0.37727 0.75218 0.40463 0.0
H1699 H 0.29832 0.70381 0.38446 0.0
H1700 H 0.31364 0.71471 0.35286 0.0
H1701 H 0.48228 0.71214 0.27096 0.0
H1702 H 0.45257 0.74013 0.28995 0.0
H1703 H 0.36567 0.69375 0.3076 0.0
H1704 H 0.39789 0.66538 0.28992 0.0
H1705 H 0.38383 0.71466 0.33483 0.0
H1706 H 0.35 0.73842 0.27508 0.0
H1707 H 0.36103 0.74865 0.24297 0.0
H1708 H 0.43418 0.80157 0.25971 0.0
H1709 H 0.42405 0.79146 0.29193 0.0
C1710 C 0.29148 0.8001 0.36663 0.0
C1711 C 0.31476 0.81825 0.37093 0.0
C1712 C 0.30537 0.78378 0.35513 0.0
C1713 C 0.34266 0.78535 0.34761 0.0
C1714 C 0.36588 0.8034 0.35177 0.0
C1715 C 0.35227 0.81955 0.36342 0.0
C1716 C 0.35783 0.76811 0.33551 0.0
C1717 C 0.36666 0.77345 0.31738 0.0
C1718 C 0.36329 0.74654 0.3417 0.0
C1719 C 0.35437 0.7399 0.36068 0.0
C1720 C 0.37239 0.7503 0.37545 0.0
C1721 C 0.36343 0.74407 0.3933 0.0
C1722 C 0.3367 0.72735 0.39654 0.0
C1723 C 0.31897 0.71678 0.38193 0.0
C1724 C 0.3278 0.72296 0.36405 0.0
C1725 C 0.45675 0.70809 0.27889 0.0
C1726 C 0.44197 0.68685 0.27897 0.0
C1727 C 0.43948 0.7241 0.28961 0.0
C1728 C 0.40615 0.71933 0.29999 0.0
C1729 C 0.39125 0.69798 0.29978 0.0
C1730 C 0.40941 0.68181 0.2896 0.0
C1731 C 0.38777 0.73628 0.31162 0.0
C1732 C 0.37834 0.73096 0.32975 0.0
C1733 C 0.38079 0.75775 0.30526 0.0
C1734 C 0.38649 0.76408 0.28591 0.0
C1735 C 0.36859 0.75218 0.27191 0.0
C1736 C 0.37468 0.75795 0.25369 0.0
C1737 C 0.39835 0.77572 0.24931 0.0
C1738 C 0.41588 0.7878 0.26313 0.0
C1739 C 0.40994 0.78207 0.28138 0.0
H1740 H 0.40306 0.78016 0.23519 0.0
H1741 H 0.3298 0.72255 0.41038 0.0
H1742 H 0.22035 0.72495 0.88579 0.0
H1743 H 0.18013 0.74814 0.86642 0.0
H1744 H 0.16082 0.69445 0.8299 0.0
H1745 H 0.20186 0.67128 0.84897 0.0
H1746 H 0.1803 0.73147 0.81157 0.0
H1747 H 0.08932 0.71114 0.85814 0.0
H1748 H 0.06562 0.70652 0.88962 0.0
H1749 H 0.07593 0.77535 0.89833 0.0
H1750 H 0.10022 0.78033 0.86698 0.0
H1751 H 0.04087 0.7901 0.75895 0.0
H1752 H 0.07396 0.76241 0.77734 0.0
H1753 H 0.08717 0.80873 0.82095 0.0
H1754 H 0.05249 0.83586 0.80303 0.0
H1755 H 0.06757 0.77253 0.83496 0.0
H1756 H 0.16312 0.7931 0.78976 0.0
H1757 H 0.18797 0.79836 0.75851 0.0
H1758 H 0.1709 0.73046 0.74755 0.0
H1759 H 0.14561 0.72481 0.77866 0.0
C1760 C 0.20751 0.71806 0.87365 0.0
C1761 C 0.21428 0.69624 0.86895 0.0
C1762 C 0.18429 0.73129 0.86266 0.0
C1763 C 0.1672 0.72298 0.84678 0.0
C1764 C 0.17362 0.70118 0.84212 0.0
C1765 C 0.19677 0.6879 0.85313 0.0
C1766 C 0.14369 0.73729 0.83477 0.0
C1767 C 0.15528 0.74022 0.81659 0.0
C1768 C 0.11155 0.74904 0.84142 0.0
C1769 C 0.09689 0.74607 0.86026 0.0
C1770 C 0.08682 0.72526 0.86682 0.0
C1771 C 0.07323 0.72259 0.88463 0.0
C1772 C 0.06936 0.74062 0.89598 0.0
C1773 C 0.07898 0.76139 0.88953 0.0
C1774 C 0.09262 0.76415 0.87174 0.0
C1775 C 0.05092 0.79427 0.77246 0.0
C1776 C 0.04411 0.81505 0.7796 0.0
C1777 C 0.07 0.77851 0.78294 0.0
C1778 C 0.08364 0.78351 0.8005 0.0
C1779 C 0.07687 0.80436 0.80752 0.0
C1780 C 0.05708 0.8199 0.79725 0.0
C1781 C 0.10463 0.76716 0.81179 0.0
C1782 C 0.0925 0.76377 0.82986 0.0
C1783 C 0.13654 0.75518 0.80509 0.0
C1784 C 0.15214 0.75857 0.78647 0.0
C1785 C 0.16447 0.77932 0.78065 0.0
C1786 C 0.17863 0.78237 0.76297 0.0
C1787 C 0.18086 0.76479 0.75105 0.0
C1788 C 0.16909 0.74408 0.7568 0.0
C1789 C 0.15489 0.74093 0.77445 0.0
H1790 H 0.19179 0.7672 0.73737 0.0
H1791 H 0.05882 0.73852 0.90976 0.0
loop_
_geom_bond_atom_site_label_1
_geom_bond_atom_site_label_2
_geom_bond_distance
_geom_bond_site_symmetry_2
_ccdc_geom_bond_type
P0 O11 1.490 . S
P0 C14 1.812 . S
P0 C20 1.803 . S
P0 C26 1.819 . S
H1 C15 0.941 . S
H2 C16 0.939 . S
H3 C18 0.940 . S
H4 C19 0.940 . S
H5 C21 0.939 . S
H6 C22 0.942 . S
H7 C24 0.940 . S
H8 C25 0.939 . S
H9 C27 0.941 . S
H10 C31 0.939 . S
O11 P0 1.490 . S
H12 C28 0.939 . S
H13 C30 0.940 . S
C14 P0 1.812 . S
C14 C15 1.389 . S
C14 C19 1.391 . S
C15 H1 0.941 . S
C15 C14 1.389 . S
C15 C16 1.397 . S
C16 H2 0.939 . S
C16 C15 1.397 . S
C16 C17 1.378 . S
C17 C16 1.378 . S
C17 C18 1.378 . S
C18 H3 0.940 . S
C18 C17 1.378 . S
C18 C19 1.396 . S
C19 H4 0.940 . S
C19 C14 1.391 . S
C19 C18 1.396 . S
C20 P0 1.803 . S
C20 C21 1.378 . S
C20 C25 1.400 . S
C21 H5 0.939 . S
C21 C20 1.378 . S
C21 C22 1.361 . S
C22 H6 0.942 . S
C22 C21 1.361 . S
C22 C23 1.369 . S
C23 C22 1.369 . S
C23 C24 1.404 . S
C24 H7 0.940 . S
C24 C23 1.404 . S
C24 C25 1.389 . S
C25 H8 0.939 . S
C25 C20 1.400 . S
C25 C24 1.389 . S
C26 P0 1.819 . S
C26 C27 1.391 . S
C26 C31 1.391 . S
C27 H9 0.941 . S
C27 C26 1.391 . S
C27 C28 1.396 . S
C28 H12 0.939 . S
C28 C27 1.396 . S
C28 C29 1.397 . S
C29 C28 1.397 . S
C29 C30 1.385 . S
C30 H13 0.940 . S
C30 C29 1.385 . S
C30 C31 1.388 . S
C31 H10 0.939 . S
C31 C26 1.391 . S
C31 C30 1.388 . S
P32 O43 1.490 . S
P32 C46 1.812 . S
P32 C52 1.803 . S
P32 C58 1.819 . S
H33 C47 0.941 . S
H34 C48 0.939 . S
H35 C50 0.940 . S
H36 C51 0.940 . S
H37 C53 0.939 . S
H38 C54 0.942 . S
H39 C56 0.940 . S
H40 C57 0.939 . S
H41 C59 0.941 . S
H42 C63 0.939 . S
O43 P32 1.490 . S
H44 C60 0.939 . S
H45 C62 0.940 . S
C46 P32 1.812 . S
C46 C47 1.389 . S
C46 C51 1.391 . S
C47 H33 0.941 . S
C47 C46 1.389 . S
C47 C48 1.397 . S
C48 H34 0.939 . S
C48 C47 1.397 . S
C48 C49 1.378 . S
C49 C48 1.378 . S
C49 C50 1.378 . S
C50 H35 0.940 . S
C50 C49 1.378 . S
C50 C51 1.396 . S
C51 H36 0.940 . S
C51 C46 1.391 . S
C51 C50 1.396 . S
C52 P32 1.803 . S
C52 C53 1.378 . S
C52 C57 1.400 . S
C53 H37 0.939 . S
C53 C52 1.378 . S
C53 C54 1.361 . S
C54 H38 0.942 . S
C54 C53 1.361 . S
C54 C55 1.369 . S
C55 C54 1.369 . S
C55 C56 1.404 . S
C56 H39 0.940 . S
C56 C55 1.404 . S
C56 C57 1.389 . S
C57 H40 0.939 . S
C57 C52 1.400 . S
C57 C56 1.389 . S
C58 P32 1.819 . S
C58 C59 1.391 . S
C58 C63 1.391 . S
C59 H41 0.941 . S
C59 C58 1.391 . S
C59 C60 1.396 . S
C60 H44 0.939 . S
C60 C59 1.396 . S
C60 C61 1.397 . S
C61 C60 1.397 . S
C61 C62 1.385 . S
C62 H45 0.940 . S
C62 C61 1.385 . S
C62 C63 1.388 . S
C63 H42 0.939 . S
C63 C58 1.391 . S
C63 C62 1.388 . S
P64 O75 1.490 . S
P64 C78 1.812 . S
P64 C84 1.803 . S
P64 C90 1.819 . S
H65 C79 0.941 . S
H66 C80 0.939 . S
H67 C82 0.940 . S
H68 C83 0.940 . S
H69 C85 0.939 . S
H70 C86 0.942 . S
H71 C88 0.940 . S
H72 C89 0.939 . S
H73 C91 0.941 . S
H74 C95 0.939 . S
O75 P64 1.490 . S
H76 C92 0.939 . S
H77 C94 0.940 . S
C78 P64 1.812 . S
C78 C79 1.389 . S
C78 C83 1.391 . S
C79 H65 0.941 . S
C79 C78 1.389 . S
C79 C80 1.397 . S
C80 H66 0.939 . S
C80 C79 1.397 . S
C80 C81 1.378 . S
C81 C80 1.378 . S
C81 C82 1.378 . S
C82 H67 0.940 . S
C82 C81 1.378 . S
C82 C83 1.396 . S
C83 H68 0.940 . S
C83 C78 1.391 . S
C83 C82 1.396 . S
C84 P64 1.803 . S
C84 C85 1.378 . S
C84 C89 1.400 . S
C85 H69 0.939 . S
C85 C84 1.378 . S
C85 C86 1.361 . S
C86 H70 0.942 . S
C86 C85 1.361 . S
C86 C87 1.369 . S
C87 C86 1.369 . S
C87 C88 1.404 . S
C88 H71 0.940 . S
C88 C87 1.404 . S
C88 C89 1.389 . S
C89 H72 0.939 . S
C89 C84 1.400 . S
C89 C88 1.389 . S
C90 P64 1.819 . S
C90 C91 1.391 . S
C90 C95 1.391 . S
C91 H73 0.941 . S
C91 C90 1.391 . S
C91 C92 1.396 . S
C92 H76 0.939 . S
C92 C91 1.396 . S
C92 C93 1.397 . S
C93 C92 1.397 . S
C93 C94 1.385 . S
C94 H77 0.940 . S
C94 C93 1.385 . S
C94 C95 1.388 . S
C95 H74 0.939 . S
C95 C90 1.391 . S
C95 C94 1.388 . S
P96 O107 1.490 . S
P96 C110 1.812 . S
P96 C116 1.803 . S
P96 C122 1.819 . S
H97 C111 0.941 . S
H98 C112 0.939 . S
H99 C114 0.940 . S
H100 C115 0.940 . S
H101 C117 0.939 . S
H102 C118 0.942 . S
H103 C120 0.940 . S
H104 C121 0.939 . S
H105 C123 0.941 . S
H106 C127 0.939 . S
O107 P96 1.490 . S
H108 C124 0.939 . S
H109 C126 0.940 . S
C110 P96 1.812 . S
C110 C111 1.389 . S
C110 C115 1.391 . S
C111 H97 0.941 . S
C111 C110 1.389 . S
C111 C112 1.397 . S
C112 H98 0.939 . S
C112 C111 1.397 . S
C112 C113 1.378 . S
C113 C112 1.378 . S
C113 C114 1.378 . S
C114 H99 0.940 . S
C114 C113 1.378 . S
C114 C115 1.396 . S
C115 H100 0.940 . S
C115 C110 1.391 . S
C115 C114 1.396 . S
C116 P96 1.803 . S
C116 C117 1.378 . S
C116 C121 1.400 . S
C117 H101 0.939 . S
C117 C116 1.378 . S
C117 C118 1.361 . S
C118 H102 0.942 . S
C118 C117 1.361 . S
C118 C119 1.369 . S
C119 C118 1.369 . S
C119 C120 1.404 . S
C120 H103 0.940 . S
C120 C119 1.404 . S
C120 C121 1.389 . S
C121 H104 0.939 . S
C121 C116 1.400 . S
C121 C120 1.389 . S
C122 P96 1.819 . S
C122 C123 1.391 . S
C122 C127 1.391 . S
C123 H105 0.941 . S
C123 C122 1.391 . S
C123 C124 1.396 . S
C124 H108 0.939 . S
C124 C123 1.396 . S
C124 C125 1.397 . S
C125 C124 1.397 . S
C125 C126 1.385 . S
C126 H109 0.940 . S
C126 C125 1.385 . S
C126 C127 1.388 . S
C127 H106 0.939 . S
C127 C122 1.391 . S
C127 C126 1.388 . S
P128 O139 1.490 . S
P128 C142 1.812 . S
P128 C148 1.803 . S
P128 C154 1.819 . S
H129 C143 0.941 . S
H130 C144 0.939 . S
H131 C146 0.940 . S
H132 C147 0.940 . S
H133 C149 0.939 . S
H134 C150 0.942 . S
H135 C152 0.940 . S
H136 C153 0.939 . S
H137 C155 0.941 . S
H138 C159 0.939 . S
O139 P128 1.490 . S
H140 C156 0.939 . S
H141 C158 0.940 . S
C142 P128 1.812 . S
C142 C143 1.389 . S
C142 C147 1.391 . S
C143 H129 0.941 . S
C143 C142 1.389 . S
C143 C144 1.397 . S
C144 H130 0.939 . S
C144 C143 1.397 . S
C144 C145 1.378 . S
C145 C144 1.378 . S
C145 C146 1.378 . S
C146 H131 0.940 . S
C146 C145 1.378 . S
C146 C147 1.396 . S
C147 H132 0.940 . S
C147 C142 1.391 . S
C147 C146 1.396 . S
C148 P128 1.803 . S
C148 C149 1.378 . S
C148 C153 1.400 . S
C149 H133 0.939 . S
C149 C148 1.378 . S
C149 C150 1.361 . S
C150 H134 0.942 . S
C150 C149 1.361 . S
C150 C151 1.369 . S
C151 C150 1.369 . S
C151 C152 1.404 . S
C152 H135 0.940 . S
C152 C151 1.404 . S
C152 C153 1.389 . S
C153 H136 0.939 . S
C153 C148 1.400 . S
C153 C152 1.389 . S
C154 P128 1.819 . S
C154 C155 1.391 . S
C154 C159 1.391 . S
C155 H137 0.941 . S
C155 C154 1.391 . S
C155 C156 1.396 . S
C156 H140 0.939 . S
C156 C155 1.396 . S
C156 C157 1.397 . S
C157 C156 1.397 . S
C157 C158 1.385 . S
C158 H141 0.940 . S
C158 C157 1.385 . S
C158 C159 1.388 . S
C159 H138 0.939 . S
C159 C154 1.391 . S
C159 C158 1.388 . S
P160 O171 1.490 . S
P160 C174 1.812 . S
P160 C180 1.803 . S
P160 C186 1.819 . S
H161 C175 0.941 . S
H162 C176 0.939 . S
H163 C178 0.940 . S
H164 C179 0.940 . S
H165 C181 0.939 . S
H166 C182 0.942 . S
H167 C184 0.940 . S
H168 C185 0.939 . S
H169 C187 0.941 . S
H170 C191 0.939 . S
O171 P160 1.490 . S
H172 C188 0.939 . S
H173 C190 0.940 . S
C174 P160 1.812 . S
C174 C175 1.389 . S
C174 C179 1.391 . S
C175 H161 0.941 . S
C175 C174 1.389 . S
C175 C176 1.397 . S
C176 H162 0.939 . S
C176 C175 1.397 . S
C176 C177 1.378 . S
C177 C176 1.378 . S
C177 C178 1.378 . S
C178 H163 0.940 . S
C178 C177 1.378 . S
C178 C179 1.396 . S
C179 H164 0.940 . S
C179 C174 1.391 . S
C179 C178 1.396 . S
C180 P160 1.803 . S
C180 C181 1.378 . S
C180 C185 1.400 . S
C181 H165 0.939 . S
C181 C180 1.378 . S
C181 C182 1.361 . S
C182 H166 0.942 . S
C182 C181 1.361 . S
C182 C183 1.369 . S
C183 C182 1.369 . S
C183 C184 1.404 . S
C184 H167 0.940 . S
C184 C183 1.404 . S
C184 C185 1.389 . S
C185 H168 0.939 . S
C185 C180 1.400 . S
C185 C184 1.389 . S
C186 P160 1.819 . S
C186 C187 1.391 . S
C186 C191 1.391 . S
C187 H169 0.941 . S
C187 C186 1.391 . S
C187 C188 1.396 . S
C188 H172 0.939 . S
C188 C187 1.396 . S
C188 C189 1.397 . S
C189 C188 1.397 . S
C189 C190 1.385 . S
C190 H173 0.940 . S
C190 C189 1.385 . S
C190 C191 1.388 . S
C191 H170 0.939 . S
C191 C186 1.391 . S
C191 C190 1.388 . S
P192 O203 1.490 . S
P192 C206 1.812 . S
P192 C212 1.803 . S
P192 C218 1.819 . S
H193 C207 0.941 . S
H194 C208 0.939 . S
H195 C210 0.940 . S
H196 C211 0.940 . S
H197 C213 0.939 . S
H198 C214 0.942 . S
H199 C216 0.940 . S
H200 C217 0.939 . S
H201 C219 0.941 . S
H202 C223 0.939 . S
O203 P192 1.490 . S
H204 C220 0.939 . S
H205 C222 0.940 . S
C206 P192 1.812 . S
C206 C207 1.389 . S
C206 C211 1.391 . S
C207 H193 0.941 . S
C207 C206 1.389 . S
C207 C208 1.397 . S
C208 H194 0.939 . S
C208 C207 1.397 . S
C208 C209 1.378 . S
C209 C208 1.378 . S
C209 C210 1.378 . S
C210 H195 0.940 . S
C210 C209 1.378 . S
C210 C211 1.396 . S
C211 H196 0.940 . S
C211 C206 1.391 . S
C211 C210 1.396 . S
C212 P192 1.803 . S
C212 C213 1.378 . S
C212 C217 1.400 . S
C213 H197 0.939 . S
C213 C212 1.378 . S
C213 C214 1.361 . S
C214 H198 0.942 . S
C214 C213 1.361 . S
C214 C215 1.369 . S
C215 C214 1.369 . S
C215 C216 1.404 . S
C216 H199 0.940 . S
C216 C215 1.404 . S
C216 C217 1.389 . S
C217 H200 0.939 . S
C217 C212 1.400 . S
C217 C216 1.389 . S
C218 P192 1.819 . S
C218 C219 1.391 . S
C218 C223 1.391 . S
C219 H201 0.941 . S
C219 C218 1.391 . S
C219 C220 1.396 . S
C220 H204 0.939 . S
C220 C219 1.396 . S
C220 C221 1.397 . S
C221 C220 1.397 . S
C221 C222 1.385 . S
C222 H205 0.940 . S
C222 C221 1.385 . S
C222 C223 1.388 . S
C223 H202 0.939 . S
C223 C218 1.391 . S
C223 C222 1.388 . S
P224 O235 1.490 . S
P224 C238 1.812 . S
P224 C244 1.803 . S
P224 C250 1.819 . S
H225 C239 0.941 . S
H226 C240 0.939 . S
H227 C242 0.940 . S
H228 C243 0.940 . S
H229 C245 0.939 . S
H230 C246 0.942 . S
H231 C248 0.940 . S
H232 C249 0.939 . S
H233 C251 0.941 . S
H234 C255 0.939 . S
O235 P224 1.490 . S
H236 C252 0.939 . S
H237 C254 0.940 . S
C238 P224 1.812 . S
C238 C239 1.389 . S
C238 C243 1.391 . S
C239 H225 0.941 . S
C239 C238 1.389 . S
C239 C240 1.397 . S
C240 H226 0.939 . S
C240 C239 1.397 . S
C240 C241 1.378 . S
C241 C240 1.378 . S
C241 C242 1.378 . S
C242 H227 0.940 . S
C242 C241 1.378 . S
C242 C243 1.396 . S
C243 H228 0.940 . S
C243 C238 1.391 . S
C243 C242 1.396 . S
C244 P224 1.803 . S
C244 C245 1.378 . S
C244 C249 1.400 . S
C245 H229 0.939 . S
C245 C244 1.378 . S
C245 C246 1.361 . S
C246 H230 0.942 . S
C246 C245 1.361 . S
C246 C247 1.369 . S
C247 C246 1.369 . S
C247 C248 1.404 . S
C248 H231 0.940 . S
C248 C247 1.404 . S
C248 C249 1.389 . S
C249 H232 0.939 . S
C249 C244 1.400 . S
C249 C248 1.389 . S
C250 P224 1.819 . S
C250 C251 1.391 . S
C250 C255 1.391 . S
C251 H233 0.941 . S
C251 C250 1.391 . S
C251 C252 1.396 . S
C252 H236 0.939 . S
C252 C251 1.396 . S
C252 C253 1.397 . S
C253 C252 1.397 . S
C253 C254 1.385 . S
C254 H237 0.940 . S
C254 C253 1.385 . S
C254 C255 1.388 . S
C255 H234 0.939 . S
C255 C250 1.391 . S
C255 C254 1.388 . S
Tb256 N285 2.617 . S
Tb256 N291 2.572 . S
Tb256 O300 2.465 . S
Tb256 O301 2.387 . S
Tb256 O303 2.428 . S
Tb256 O304 2.308 . S
Tb256 O308 2.349 . S
Tb256 O311 2.393 . S
Tb256 C320 2.802 . S
C257 N258 1.379 . S
C257 C260 1.416 . S
C257 C264 1.424 . S
N258 C257 1.379 . S
N258 C261 1.334 . S
N258 Tb267 2.617 . S
C259 C261 1.390 . S
C259 C262 1.339 . S
C259 H279 0.930 . S
C260 C257 1.416 . S
C260 C262 1.416 . S
C260 C266 1.448 . S
C261 N258 1.334 . S
C261 C259 1.390 . S
C261 H272 0.930 . S
C262 C259 1.339 . S
C262 C260 1.416 . S
C262 H283 0.930 . S
C263 C264 1.413 . S
C263 C265 1.427 . S
C263 C269 1.416 . S
C264 C257 1.424 . S
C264 C263 1.413 . S
C264 N268 1.361 . S
C265 C263 1.427 . S
C265 C266 1.328 . S
C265 H280 0.929 . S
C266 C260 1.448 . S
C266 C265 1.328 . S
C266 H281 0.930 . S
Tb267 N258 2.617 . S
Tb267 N268 2.572 . S
Tb267 O302 2.349 1_655 S
Tb267 O305 2.393 . S
Tb267 O306 2.465 . S
Tb267 O307 2.387 . S
Tb267 O309 2.428 . S
Tb267 O310 2.308 1_655 S
Tb267 C331 2.802 . S
N268 C264 1.361 . S
N268 Tb267 2.572 . S
N268 C270 1.340 . S
C269 C263 1.416 . S
C269 C271 1.332 . S
C269 H277 0.931 . S
C270 N268 1.340 . S
C270 C271 1.407 . S
C270 H276 0.930 . S
C271 C269 1.332 . S
C271 C270 1.407 . S
C271 H273 0.929 . S
H272 C261 0.930 . S
H273 C271 0.929 . S
H274 C289 0.930 . S
H275 C296 0.929 . S
H276 C270 0.930 . S
H277 C269 0.931 . S
H278 C292 0.930 . S
H279 C259 0.930 . S
H280 C265 0.929 . S
H281 C266 0.930 . S
H282 C287 0.930 . S
H283 C262 0.930 . S
H284 C295 0.931 . S
N285 Tb256 2.617 . S
N285 C286 1.379 . S
N285 C289 1.334 . S
C286 N285 1.379 . S
C286 C288 1.416 . S
C286 C294 1.424 . S
C287 H282 0.930 . S
C287 C289 1.390 . S
C287 C290 1.339 . S
C288 C286 1.416 . S
C288 C290 1.416 . S
C288 C321 1.448 . S
C289 H274 0.930 . S
C289 N285 1.334 . S
C289 C287 1.390 . S
C290 C287 1.339 . S
C290 C288 1.416 . S
C290 H297 0.930 . S
N291 Tb256 2.572 . S
N291 C292 1.340 . S
N291 C294 1.361 . S
C292 H278 0.930 . S
C292 N291 1.340 . S
C292 C296 1.407 . S
C293 C294 1.413 . S
C293 C295 1.416 . S
C293 C322 1.427 . S
C294 C286 1.424 . S
C294 N291 1.361 . S
C294 C293 1.413 . S
C295 H284 0.931 . S
C295 C293 1.416 . S
C295 C296 1.332 . S
C296 H275 0.929 . S
C296 C292 1.407 . S
C296 C295 1.332 . S
H297 C290 0.930 . S
H298 C321 0.930 . S
H299 C322 0.929 . S
O300 Tb256 2.465 . S
O300 C320 1.264 . S
O301 Tb256 2.387 . S
O301 C312 1.264 . S
O302 Tb267 2.349 1_455 S
O302 C312 1.243 . S
O303 Tb256 2.428 . S
O303 C320 1.256 . S
O304 Tb256 2.308 . S
O304 C319 1.266 1_455 S
O305 Tb267 2.393 . S
O305 C319 1.248 . S
O306 Tb267 2.465 . S
O306 C331 1.264 . S
O307 Tb267 2.387 . S
O307 C323 1.264 . S
O308 Tb256 2.349 . S
O308 C323 1.243 1_455 S
O309 Tb267 2.428 . S
O309 C331 1.256 . S
O310 Tb267 2.308 1_455 S
O310 C330 1.266 . S
O311 Tb256 2.393 . S
O311 C330 1.248 . S
C312 O301 1.264 . S
C312 O302 1.243 . S
C313 C316 1.399 . S
C313 C318 1.383 . S
C313 C320 1.496 . S
C314 C315 1.399 . S
C314 C318 1.389 . S
C315 C314 1.399 . S
C315 C317 1.380 . S
C315 H332 0.929 . S
C316 C313 1.399 . S
C316 C317 1.392 . S
C316 H333 0.929 . S
C317 C315 1.380 . S
C317 C316 1.392 . S
C317 H334 0.929 . S
C318 C313 1.383 . S
C318 C314 1.389 . S
C318 H335 0.931 . S
C319 O304 1.266 1_655 S
C319 O305 1.248 . S
C320 Tb256 2.802 . S
C320 O300 1.264 . S
C320 O303 1.256 . S
C320 C313 1.496 . S
C321 C288 1.448 . S
C321 H298 0.930 . S
C321 C322 1.328 . S
C322 C293 1.427 . S
C322 H299 0.929 . S
C322 C321 1.328 . S
C323 O307 1.264 . S
C323 O308 1.243 1_655 S
C324 C327 1.399 . S
C324 C328 1.383 . S
C324 C331 1.496 . S
C325 C326 1.399 . S
C325 C328 1.389 . S
C326 C325 1.399 . S
C326 C329 1.380 . S
C326 H336 0.929 . S
C327 C324 1.399 . S
C327 C329 1.392 . S
C327 H337 0.929 . S
C328 C324 1.383 . S
C328 C325 1.389 . S
C328 H338 0.931 . S
C329 C326 1.380 . S
C329 C327 1.392 . S
C329 H339 0.929 . S
C330 O310 1.266 . S
C330 O311 1.248 . S
C331 Tb267 2.802 . S
C331 O306 1.264 . S
C331 O309 1.256 . S
C331 C324 1.496 . S
H332 C315 0.929 . S
H333 C316 0.929 . S
H334 C317 0.929 . S
H335 C318 0.931 . S
H336 C326 0.929 . S
H337 C327 0.929 . S
H338 C328 0.931 . S
H339 C329 0.929 . S
Tb340 N369 2.617 . S
Tb340 N375 2.572 . S
Tb340 O384 2.465 . S
Tb340 O385 2.387 . S
Tb340 O387 2.428 . S
Tb340 O388 2.308 . S
Tb340 O392 2.349 . S
Tb340 O395 2.393 . S
Tb340 C404 2.802 . S
C341 N342 1.379 . S
C341 C344 1.416 . S
C341 C348 1.424 . S
N342 C341 1.379 . S
N342 C345 1.334 . S
N342 Tb351 2.617 . S
C343 C345 1.390 . S
C343 C346 1.339 . S
C343 H363 0.930 . S
C344 C341 1.416 . S
C344 C346 1.416 . S
C344 C350 1.448 . S
C345 N342 1.334 . S
C345 C343 1.390 . S
C345 H356 0.930 . S
C346 C343 1.339 . S
C346 C344 1.416 . S
C346 H367 0.930 . S
C347 C348 1.413 . S
C347 C349 1.427 . S
C347 C353 1.416 . S
C348 C341 1.424 . S
C348 C347 1.413 . S
C348 N352 1.361 . S
C349 C347 1.427 . S
C349 C350 1.328 . S
C349 H364 0.929 . S
C350 C344 1.448 . S
C350 C349 1.328 . S
C350 H365 0.930 . S
Tb351 N342 2.617 . S
Tb351 N352 2.572 . S
Tb351 O386 2.349 . S
Tb351 O389 2.393 . S
Tb351 O390 2.465 . S
Tb351 O391 2.387 . S
Tb351 O393 2.428 . S
Tb351 O394 2.308 . S
Tb351 C415 2.802 . S
N352 C348 1.361 . S
N352 Tb351 2.572 . S
N352 C354 1.340 . S
C353 C347 1.416 . S
C353 C355 1.332 . S
C353 H361 0.931 . S
C354 N352 1.340 . S
C354 C355 1.407 . S
C354 H360 0.930 . S
C355 C353 1.332 . S
C355 C354 1.407 . S
C355 H357 0.929 . S
H356 C345 0.930 . S
H357 C355 0.929 . S
H358 C373 0.930 . S
H359 C380 0.929 . S
H360 C354 0.930 . S
H361 C353 0.931 . S
H362 C376 0.930 . S
H363 C343 0.930 . S
H364 C349 0.929 . S
H365 C350 0.930 . S
H366 C371 0.930 . S
H367 C346 0.930 . S
H368 C379 0.931 . S
N369 Tb340 2.617 . S
N369 C370 1.379 . S
N369 C373 1.334 . S
C370 N369 1.379 . S
C370 C372 1.416 . S
C370 C378 1.424 . S
C371 H366 0.930 . S
C371 C373 1.390 . S
C371 C374 1.339 . S
C372 C370 1.416 . S
C372 C374 1.416 . S
C372 C405 1.448 . S
C373 H358 0.930 . S
C373 N369 1.334 . S
C373 C371 1.390 . S
C374 C371 1.339 . S
C374 C372 1.416 . S
C374 H381 0.930 . S
N375 Tb340 2.572 . S
N375 C376 1.340 . S
N375 C378 1.361 . S
C376 H362 0.930 . S
C376 N375 1.340 . S
C376 C380 1.407 . S
C377 C378 1.413 . S
C377 C379 1.416 . S
C377 C406 1.427 . S
C378 C370 1.424 . S
C378 N375 1.361 . S
C378 C377 1.413 . S
C379 H368 0.931 . S
C379 C377 1.416 . S
C379 C380 1.332 . S
C380 H359 0.929 . S
C380 C376 1.407 . S
C380 C379 1.332 . S
H381 C374 0.930 . S
H382 C405 0.930 . S
H383 C406 0.929 . S
O384 Tb340 2.465 . S
O384 C404 1.264 . S
O385 Tb340 2.387 . S
O385 C396 1.264 . S
O386 Tb351 2.349 . S
O386 C396 1.243 . S
O387 Tb340 2.428 . S
O387 C404 1.256 . S
O388 Tb340 2.308 . S
O388 C403 1.266 . S
O389 Tb351 2.393 . S
O389 C403 1.248 . S
O390 Tb351 2.465 . S
O390 C415 1.264 . S
O391 Tb351 2.387 . S
O391 C407 1.264 . S
O392 Tb340 2.349 . S
O392 C407 1.243 . S
O393 Tb351 2.428 . S
O393 C415 1.256 . S
O394 Tb351 2.308 . S
O394 C414 1.266 . S
O395 Tb340 2.393 . S
O395 C414 1.248 . S
C396 O385 1.264 . S
C396 O386 1.243 . S
C397 C400 1.399 . S
C397 C402 1.383 . S
C397 C404 1.496 . S
C398 C399 1.399 . S
C398 C402 1.389 . S
C399 C398 1.399 . S
C399 C401 1.380 . S
C399 H416 0.929 . S
C400 C397 1.399 . S
C400 C401 1.392 . S
C400 H417 0.929 . S
C401 C399 1.380 . S
C401 C400 1.392 . S
C401 H418 0.929 . S
C402 C397 1.383 . S
C402 C398 1.389 . S
C402 H419 0.931 . S
C403 O388 1.266 . S
C403 O389 1.248 . S
C404 Tb340 2.802 . S
C404 O384 1.264 . S
C404 O387 1.256 . S
C404 C397 1.496 . S
C405 C372 1.448 . S
C405 H382 0.930 . S
C405 C406 1.328 . S
C406 C377 1.427 . S
C406 H383 0.929 . S
C406 C405 1.328 . S
C407 O391 1.264 . S
C407 O392 1.243 . S
C408 C411 1.399 . S
C408 C412 1.383 . S
C408 C415 1.496 . S
C409 C410 1.399 . S
C409 C412 1.389 . S
C410 C409 1.399 . S
C410 C413 1.380 . S
C410 H420 0.929 . S
C411 C408 1.399 . S
C411 C413 1.392 . S
C411 H421 0.929 . S
C412 C408 1.383 . S
C412 C409 1.389 . S
C412 H422 0.931 . S
C413 C410 1.380 . S
C413 C411 1.392 . S
C413 H423 0.929 . S
C414 O394 1.266 . S
C414 O395 1.248 . S
C415 Tb351 2.802 . S
C415 O390 1.264 . S
C415 O393 1.256 . S
C415 C408 1.496 . S
H416 C399 0.929 . S
H417 C400 0.929 . S
H418 C401 0.929 . S
H419 C402 0.931 . S
H420 C410 0.929 . S
H421 C411 0.929 . S
H422 C412 0.931 . S
H423 C413 0.929 . S
Tb424 N453 2.617 . S
Tb424 N459 2.572 . S
Tb424 O468 2.465 . S
Tb424 O469 2.387 . S
Tb424 O471 2.428 . S
Tb424 O472 2.308 . S
Tb424 O476 2.349 . S
Tb424 O479 2.393 . S
Tb424 C488 2.802 . S
C425 N426 1.379 . S
C425 C428 1.416 . S
C425 C432 1.424 . S
N426 C425 1.379 . S
N426 C429 1.334 . S
N426 Tb435 2.617 . S
C427 C429 1.390 . S
C427 C430 1.339 . S
C427 H447 0.930 . S
C428 C425 1.416 . S
C428 C430 1.416 . S
C428 C434 1.448 . S
C429 N426 1.334 . S
C429 C427 1.390 . S
C429 H440 0.930 . S
C430 C427 1.339 . S
C430 C428 1.416 . S
C430 H451 0.930 . S
C431 C432 1.413 . S
C431 C433 1.427 . S
C431 C437 1.416 . S
C432 C425 1.424 . S
C432 C431 1.413 . S
C432 N436 1.361 . S
C433 C431 1.427 . S
C433 C434 1.328 . S
C433 H448 0.929 . S
C434 C428 1.448 . S
C434 C433 1.328 . S
C434 H449 0.930 . S
Tb435 N426 2.617 . S
Tb435 N436 2.572 . S
Tb435 O470 2.349 1_655 S
Tb435 O473 2.393 . S
Tb435 O474 2.465 . S
Tb435 O475 2.387 . S
Tb435 O477 2.428 . S
Tb435 O478 2.308 1_655 S
Tb435 C499 2.802 . S
N436 C432 1.361 . S
N436 Tb435 2.572 . S
N436 C438 1.340 . S
C437 C431 1.416 . S
C437 C439 1.332 . S
C437 H445 0.931 . S
C438 N436 1.340 . S
C438 C439 1.407 . S
C438 H444 0.930 . S
C439 C437 1.332 . S
C439 C438 1.407 . S
C439 H441 0.929 . S
H440 C429 0.930 . S
H441 C439 0.929 . S
H442 C457 0.930 . S
H443 C464 0.929 . S
H444 C438 0.930 . S
H445 C437 0.931 . S
H446 C460 0.930 . S
H447 C427 0.930 . S
H448 C433 0.929 . S
H449 C434 0.930 . S
H450 C455 0.930 . S
H451 C430 0.930 . S
H452 C463 0.931 . S
N453 Tb424 2.617 . S
N453 C454 1.379 . S
N453 C457 1.334 . S
C454 N453 1.379 . S
C454 C456 1.416 . S
C454 C462 1.424 . S
C455 H450 0.930 . S
C455 C457 1.390 . S
C455 C458 1.339 . S
C456 C454 1.416 . S
C456 C458 1.416 . S
C456 C489 1.448 . S
C457 H442 0.930 . S
C457 N453 1.334 . S
C457 C455 1.390 . S
C458 C455 1.339 . S
C458 C456 1.416 . S
C458 H465 0.930 . S
N459 Tb424 2.572 . S
N459 C460 1.340 . S
N459 C462 1.361 . S
C460 H446 0.930 . S
C460 N459 1.340 . S
C460 C464 1.407 . S
C461 C462 1.413 . S
C461 C463 1.416 . S
C461 C490 1.427 . S
C462 C454 1.424 . S
C462 N459 1.361 . S
C462 C461 1.413 . S
C463 H452 0.931 . S
C463 C461 1.416 . S
C463 C464 1.332 . S
C464 H443 0.929 . S
C464 C460 1.407 . S
C464 C463 1.332 . S
H465 C458 0.930 . S
H466 C489 0.930 . S
H467 C490 0.929 . S
O468 Tb424 2.465 . S
O468 C488 1.264 . S
O469 Tb424 2.387 . S
O469 C480 1.264 . S
O470 Tb435 2.349 1_455 S
O470 C480 1.243 . S
O471 Tb424 2.428 . S
O471 C488 1.256 . S
O472 Tb424 2.308 . S
O472 C487 1.266 1_455 S
O473 Tb435 2.393 . S
O473 C487 1.248 . S
O474 Tb435 2.465 . S
O474 C499 1.264 . S
O475 Tb435 2.387 . S
O475 C491 1.264 . S
O476 Tb424 2.349 . S
O476 C491 1.243 1_455 S
O477 Tb435 2.428 . S
O477 C499 1.256 . S
O478 Tb435 2.308 1_455 S
O478 C498 1.266 . S
O479 Tb424 2.393 . S
O479 C498 1.248 . S
C480 O469 1.264 . S
C480 O470 1.243 . S
C481 C484 1.399 . S
C481 C486 1.383 . S
C481 C488 1.496 . S
C482 C483 1.399 . S
C482 C486 1.389 . S
C483 C482 1.399 . S
C483 C485 1.380 . S
C483 H500 0.929 . S
C484 C481 1.399 . S
C484 C485 1.392 . S
C484 H501 0.929 . S
C485 C483 1.380 . S
C485 C484 1.392 . S
C485 H502 0.929 . S
C486 C481 1.383 . S
C486 C482 1.389 . S
C486 H503 0.931 . S
C487 O472 1.266 1_655 S
C487 O473 1.248 . S
C488 Tb424 2.802 . S
C488 O468 1.264 . S
C488 O471 1.256 . S
C488 C481 1.496 . S
C489 C456 1.448 . S
C489 H466 0.930 . S
C489 C490 1.328 . S
C490 C461 1.427 . S
C490 H467 0.929 . S
C490 C489 1.328 . S
C491 O475 1.264 . S
C491 O476 1.243 1_655 S
C492 C495 1.399 . S
C492 C496 1.383 . S
C492 C499 1.496 . S
C493 C494 1.399 . S
C493 C496 1.389 . S
C494 C493 1.399 . S
C494 C497 1.380 . S
C494 H504 0.929 . S
C495 C492 1.399 . S
C495 C497 1.392 . S
C495 H505 0.929 . S
C496 C492 1.383 . S
C496 C493 1.389 . S
C496 H506 0.931 . S
C497 C494 1.380 . S
C497 C495 1.392 . S
C497 H507 0.929 . S
C498 O478 1.266 . S
C498 O479 1.248 . S
C499 Tb435 2.802 . S
C499 O474 1.264 . S
C499 O477 1.256 . S
C499 C492 1.496 . S
H500 C483 0.929 . S
H501 C484 0.929 . S
H502 C485 0.929 . S
H503 C486 0.931 . S
H504 C494 0.929 . S
H505 C495 0.929 . S
H506 C496 0.931 . S
H507 C497 0.929 . S
Tb508 N537 2.617 . S
Tb508 N543 2.572 . S
Tb508 O552 2.465 . S
Tb508 O553 2.387 . S
Tb508 O555 2.428 . S
Tb508 O556 2.308 . S
Tb508 O560 2.349 . S
Tb508 O563 2.393 . S
Tb508 C572 2.802 . S
C509 N510 1.379 . S
C509 C512 1.416 . S
C509 C516 1.424 . S
N510 C509 1.379 . S
N510 C513 1.334 . S
N510 Tb519 2.617 . S
C511 C513 1.390 . S
C511 C514 1.339 . S
C511 H531 0.930 . S
C512 C509 1.416 . S
C512 C514 1.416 . S
C512 C518 1.448 . S
C513 N510 1.334 . S
C513 C511 1.390 . S
C513 H524 0.930 . S
C514 C511 1.339 . S
C514 C512 1.416 . S
C514 H535 0.930 . S
C515 C516 1.413 . S
C515 C517 1.427 . S
C515 C521 1.416 . S
C516 C509 1.424 . S
C516 C515 1.413 . S
C516 N520 1.361 . S
C517 C515 1.427 . S
C517 C518 1.328 . S
C517 H532 0.929 . S
C518 C512 1.448 . S
C518 C517 1.328 . S
C518 H533 0.930 . S
Tb519 N510 2.617 . S
Tb519 N520 2.572 . S
Tb519 O554 2.349 . S
Tb519 O557 2.393 . S
Tb519 O558 2.465 . S
Tb519 O559 2.387 . S
Tb519 O561 2.428 . S
Tb519 O562 2.308 . S
Tb519 C583 2.802 . S
N520 C516 1.361 . S
N520 Tb519 2.572 . S
N520 C522 1.340 . S
C521 C515 1.416 . S
C521 C523 1.332 . S
C521 H529 0.931 . S
C522 N520 1.340 . S
C522 C523 1.407 . S
C522 H528 0.930 . S
C523 C521 1.332 . S
C523 C522 1.407 . S
C523 H525 0.929 . S
H524 C513 0.930 . S
H525 C523 0.929 . S
H526 C541 0.930 . S
H527 C548 0.929 . S
H528 C522 0.930 . S
H529 C521 0.931 . S
H530 C544 0.930 . S
H531 C511 0.930 . S
H532 C517 0.929 . S
H533 C518 0.930 . S
H534 C539 0.930 . S
H535 C514 0.930 . S
H536 C547 0.931 . S
N537 Tb508 2.617 . S
N537 C538 1.379 . S
N537 C541 1.334 . S
C538 N537 1.379 . S
C538 C540 1.416 . S
C538 C546 1.424 . S
C539 H534 0.930 . S
C539 C541 1.390 . S
C539 C542 1.339 . S
C540 C538 1.416 . S
C540 C542 1.416 . S
C540 C573 1.448 . S
C541 H526 0.930 . S
C541 N537 1.334 . S
C541 C539 1.390 . S
C542 C539 1.339 . S
C542 C540 1.416 . S
C542 H549 0.930 . S
N543 Tb508 2.572 . S
N543 C544 1.340 . S
N543 C546 1.361 . S
C544 H530 0.930 . S
C544 N543 1.340 . S
C544 C548 1.407 . S
C545 C546 1.413 . S
C545 C547 1.416 . S
C545 C574 1.427 . S
C546 C538 1.424 . S
C546 N543 1.361 . S
C546 C545 1.413 . S
C547 H536 0.931 . S
C547 C545 1.416 . S
C547 C548 1.332 . S
C548 H527 0.929 . S
C548 C544 1.407 . S
C548 C547 1.332 . S
H549 C542 0.930 . S
H550 C573 0.930 . S
H551 C574 0.929 . S
O552 Tb508 2.465 . S
O552 C572 1.264 . S
O553 Tb508 2.387 . S
O553 C564 1.264 . S
O554 Tb519 2.349 . S
O554 C564 1.243 . S
O555 Tb508 2.428 . S
O555 C572 1.256 . S
O556 Tb508 2.308 . S
O556 C571 1.266 . S
O557 Tb519 2.393 . S
O557 C571 1.248 . S
O558 Tb519 2.465 . S
O558 C583 1.264 . S
O559 Tb519 2.387 . S
O559 C575 1.264 . S
O560 Tb508 2.349 . S
O560 C575 1.243 . S
O561 Tb519 2.428 . S
O561 C583 1.256 . S
O562 Tb519 2.308 . S
O562 C582 1.266 . S
O563 Tb508 2.393 . S
O563 C582 1.248 . S
C564 O553 1.264 . S
C564 O554 1.243 . S
C565 C568 1.399 . S
C565 C570 1.383 . S
C565 C572 1.496 . S
C566 C567 1.399 . S
C566 C570 1.389 . S
C567 C566 1.399 . S
C567 C569 1.380 . S
C567 H584 0.929 . S
C568 C565 1.399 . S
C568 C569 1.392 . S
C568 H585 0.929 . S
C569 C567 1.380 . S
C569 C568 1.392 . S
C569 H586 0.929 . S
C570 C565 1.383 . S
C570 C566 1.389 . S
C570 H587 0.931 . S
C571 O556 1.266 . S
C571 O557 1.248 . S
C572 Tb508 2.802 . S
C572 O552 1.264 . S
C572 O555 1.256 . S
C572 C565 1.496 . S
C573 C540 1.448 . S
C573 H550 0.930 . S
C573 C574 1.328 . S
C574 C545 1.427 . S
C574 H551 0.929 . S
C574 C573 1.328 . S
C575 O559 1.264 . S
C575 O560 1.243 . S
C576 C579 1.399 . S
C576 C580 1.383 . S
C576 C583 1.496 . S
C577 C578 1.399 . S
C577 C580 1.389 . S
C578 C577 1.399 . S
C578 C581 1.380 . S
C578 H588 0.929 . S
C579 C576 1.399 . S
C579 C581 1.392 . S
C579 H589 0.929 . S
C580 C576 1.383 . S
C580 C577 1.389 . S
C580 H590 0.931 . S
C581 C578 1.380 . S
C581 C579 1.392 . S
C581 H591 0.929 . S
C582 O562 1.266 . S
C582 O563 1.248 . S
C583 Tb519 2.802 . S
C583 O558 1.264 . S
C583 O561 1.256 . S
C583 C576 1.496 . S
H584 C567 0.929 . S
H585 C568 0.929 . S
H586 C569 0.929 . S
H587 C570 0.931 . S
H588 C578 0.929 . S
H589 C579 0.929 . S
H590 C580 0.931 . S
H591 C581 0.929 . S
H592 C610 0.951 . S
H593 C612 0.951 . S
H594 C614 0.950 1_545 S
H595 C615 0.950 . S
H596 C617 0.950 . S
H597 C620 0.950 . S
H598 C621 0.950 . S
H599 C623 0.950 . S
H600 C624 0.950 . S
H601 C625 0.951 . S
H602 C627 0.951 . S
H603 C629 0.950 . S
H604 C630 0.950 . S
H605 C632 0.950 . S
H606 C635 0.950 . S
H607 C636 0.950 1_655 S
H608 C638 0.950 . S
H609 C639 0.950 . S
C610 H592 0.951 . S
C610 C611 1.366 . S
C610 C612 1.388 . S
C611 C610 1.366 . S
C611 C615 1.385 . S
C612 H593 0.951 . S
C612 C610 1.388 . S
C612 C613 1.366 . S
C613 C612 1.366 . S
C613 C614 1.414 . S
C613 C616 1.499 1_565 S
C614 H594 0.950 1_565 S
C614 C613 1.414 . S
C614 C615 1.374 . S
C615 H595 0.950 . S
C615 C611 1.385 . S
C615 C614 1.374 . S
C616 C613 1.499 1_545 S
C616 C617 1.373 . S
C616 C618 1.389 . S
C617 H596 0.950 . S
C617 C616 1.373 . S
C617 C633 1.377 . S
C618 C616 1.389 . S
C618 C619 1.524 1_545 S
C618 C632 1.377 . S
C619 C618 1.524 1_565 S
C619 C620 1.397 . S
C619 C624 1.363 . S
C620 H597 0.950 . S
C620 C619 1.397 . S
C620 C621 1.334 . S
C621 H598 0.950 . S
C621 C620 1.334 . S
C621 C622 1.287 . S
C622 C621 1.287 . S
C622 C623 1.524 . S
C622 H641 0.913 . S
C623 H599 0.950 . S
C623 C622 1.524 . S
C623 C624 1.415 . S
C624 H600 0.950 . S
C624 C619 1.363 . S
C624 C623 1.415 . S
C625 H601 0.951 . S
C625 C626 1.366 . S
C625 C627 1.388 . S
C626 C625 1.366 . S
C626 C630 1.385 . S
C627 H602 0.951 . S
C627 C625 1.388 . S
C627 C628 1.366 . S
C628 C627 1.366 . S
C628 C629 1.414 . S
C628 C631 1.499 . S
C629 H603 0.950 . S
C629 C628 1.414 . S
C629 C630 1.374 . S
C630 H604 0.950 . S
C630 C626 1.385 . S
C630 C629 1.374 . S
C631 C628 1.499 . S
C631 C632 1.373 . S
C631 C633 1.389 . S
C632 H605 0.950 . S
C632 C618 1.377 . S
C632 C631 1.373 . S
C633 C617 1.377 . S
C633 C631 1.389 . S
C633 C634 1.524 . S
C634 C633 1.524 . S
C634 C635 1.397 . S
C634 C639 1.363 . S
C635 H606 0.950 . S
C635 C634 1.397 . S
C635 C636 1.334 . S
C636 H607 0.950 1_455 S
C636 C635 1.334 . S
C636 C637 1.287 . S
C637 C636 1.287 . S
C637 C638 1.524 . S
C637 H640 0.999 . S
C638 H608 0.950 . S
C638 C637 1.524 . S
C638 C639 1.415 . S
C639 H609 0.950 . S
C639 C634 1.363 . S
C639 C638 1.415 . S
H640 C637 0.999 . S
H641 C622 0.913 . S
H642 C660 0.951 . S
H643 C662 0.951 . S
H644 C664 0.950 . S
H645 C665 0.950 . S
H646 C667 0.950 . S
H647 C670 0.950 . S
H648 C671 0.950 . S
H649 C673 0.950 . S
H650 C674 0.950 . S
H651 C675 0.951 . S
H652 C677 0.951 . S
H653 C679 0.950 . S
H654 C680 0.950 . S
H655 C682 0.950 . S
H656 C685 0.950 . S
H657 C686 0.950 . S
H658 C688 0.950 . S
H659 C689 0.950 . S
C660 H642 0.951 . S
C660 C661 1.366 . S
C660 C662 1.388 . S
C661 C660 1.366 . S
C661 C665 1.385 . S
C662 H643 0.951 . S
C662 C660 1.388 . S
C662 C663 1.366 . S
C663 C662 1.366 . S
C663 C664 1.414 . S
C663 C666 1.499 . S
C664 H644 0.950 . S
C664 C663 1.414 . S
C664 C665 1.374 . S
C665 H645 0.950 . S
C665 C661 1.385 . S
C665 C664 1.374 . S
C666 C663 1.499 . S
C666 C667 1.373 . S
C666 C668 1.389 . S
C667 H646 0.950 . S
C667 C666 1.373 . S
C667 C683 1.377 . S
C668 C666 1.389 . S
C668 C669 1.524 . S
C668 C682 1.377 . S
C669 C668 1.524 . S
C669 C670 1.397 . S
C669 C674 1.363 . S
C670 H647 0.950 . S
C670 C669 1.397 . S
C670 C671 1.334 . S
C671 H648 0.950 . S
C671 C670 1.334 . S
C671 C672 1.287 . S
C672 C671 1.287 . S
C672 C673 1.524 . S
C672 H691 0.913 . S
C673 H649 0.950 . S
C673 C672 1.524 . S
C673 C674 1.415 . S
C674 H650 0.950 . S
C674 C669 1.363 . S
C674 C673 1.415 . S
C675 H651 0.951 . S
C675 C676 1.366 . S
C675 C677 1.388 . S
C676 C675 1.366 . S
C676 C680 1.385 . S
C677 H652 0.951 . S
C677 C675 1.388 . S
C677 C678 1.366 . S
C678 C677 1.366 . S
C678 C679 1.414 . S
C678 C681 1.499 . S
C679 H653 0.950 . S
C679 C678 1.414 . S
C679 C680 1.374 . S
C680 H654 0.950 . S
C680 C676 1.385 . S
C680 C679 1.374 . S
C681 C678 1.499 . S
C681 C682 1.373 . S
C681 C683 1.389 . S
C682 H655 0.950 . S
C682 C668 1.377 . S
C682 C681 1.373 . S
C683 C667 1.377 . S
C683 C681 1.389 . S
C683 C684 1.524 . S
C684 C683 1.524 . S
C684 C685 1.397 . S
C684 C689 1.363 . S
C685 H656 0.950 . S
C685 C684 1.397 . S
C685 C686 1.334 . S
C686 H657 0.950 . S
C686 C685 1.334 . S
C686 C687 1.287 . S
C687 C686 1.287 . S
C687 C688 1.524 . S
C687 H690 0.999 . S
C688 H658 0.950 . S
C688 C687 1.524 . S
C688 C689 1.415 . S
C689 H659 0.950 . S
C689 C684 1.363 . S
C689 C688 1.415 . S
H690 C687 0.999 . S
H691 C672 0.913 . S
H692 C710 0.951 . S
H693 C712 0.951 . S
H694 C714 0.950 . S
H695 C715 0.950 . S
H696 C717 0.950 . S
H697 C720 0.950 . S
H698 C721 0.950 . S
H699 C723 0.950 . S
H700 C724 0.950 . S
H701 C725 0.951 . S
H702 C727 0.951 . S
H703 C729 0.950 . S
H704 C730 0.950 . S
H705 C732 0.950 . S
H706 C735 0.950 . S
H707 C736 0.950 . S
H708 C738 0.950 . S
H709 C739 0.950 . S
C710 H692 0.951 . S
C710 C711 1.366 . S
C710 C712 1.388 . S
C711 C710 1.366 . S
C711 C715 1.385 . S
C712 H693 0.951 . S
C712 C710 1.388 . S
C712 C713 1.366 . S
C713 C712 1.366 . S
C713 C714 1.414 . S
C713 C716 1.499 . S
C714 H694 0.950 . S
C714 C713 1.414 . S
C714 C715 1.374 . S
C715 H695 0.950 . S
C715 C711 1.385 . S
C715 C714 1.374 . S
C716 C713 1.499 . S
C716 C717 1.373 . S
C716 C718 1.389 . S
C717 H696 0.950 . S
C717 C716 1.373 . S
C717 C733 1.377 . S
C718 C716 1.389 . S
C718 C719 1.524 . S
C718 C732 1.377 . S
C719 C718 1.524 . S
C719 C720 1.397 . S
C719 C724 1.363 . S
C720 H697 0.950 . S
C720 C719 1.397 . S
C720 C721 1.334 . S
C721 H698 0.950 . S
C721 C720 1.334 . S
C721 C722 1.287 . S
C722 C721 1.287 . S
C722 C723 1.524 . S
C722 H741 0.913 . S
C723 H699 0.950 . S
C723 C722 1.524 . S
C723 C724 1.415 . S
C724 H700 0.950 . S
C724 C719 1.363 . S
C724 C723 1.415 . S
C725 H701 0.951 . S
C725 C726 1.366 . S
C725 C727 1.388 . S
C726 C725 1.366 . S
C726 C730 1.385 . S
C727 H702 0.951 . S
C727 C725 1.388 . S
C727 C728 1.366 . S
C728 C727 1.366 . S
C728 C729 1.414 . S
C728 C731 1.499 . S
C729 H703 0.950 . S
C729 C728 1.414 . S
C729 C730 1.374 . S
C730 H704 0.950 . S
C730 C726 1.385 . S
C730 C729 1.374 . S
C731 C728 1.499 . S
C731 C732 1.373 . S
C731 C733 1.389 . S
C732 H705 0.950 . S
C732 C718 1.377 . S
C732 C731 1.373 . S
C733 C717 1.377 . S
C733 C731 1.389 . S
C733 C734 1.524 . S
C734 C733 1.524 . S
C734 C735 1.397 . S
C734 C739 1.363 . S
C735 H706 0.950 . S
C735 C734 1.397 . S
C735 C736 1.334 . S
C736 H707 0.950 . S
C736 C735 1.334 . S
C736 C737 1.287 . S
C737 C736 1.287 . S
C737 C738 1.524 . S
C737 H740 0.999 . S
C738 H708 0.950 . S
C738 C737 1.524 . S
C738 C739 1.415 . S
C739 H709 0.950 . S
C739 C734 1.363 . S
C739 C738 1.415 . S
H740 C737 0.999 . S
H741 C722 0.913 . S
H742 C760 0.951 . S
H743 C762 0.951 . S
H744 C764 0.950 1_545 S
H745 C765 0.950 . S
H746 C767 0.950 . S
H747 C770 0.950 . S
H748 C771 0.950 . S
H749 C773 0.950 . S
H750 C774 0.950 . S
H751 C775 0.951 . S
H752 C777 0.951 . S
H753 C779 0.950 . S
H754 C780 0.950 1_455 S
H755 C782 0.950 . S
H756 C785 0.950 . S
H757 C786 0.950 . S
H758 C788 0.950 . S
H759 C789 0.950 . S
C760 H742 0.951 . S
C760 C761 1.366 . S
C760 C762 1.388 . S
C761 C760 1.366 . S
C761 C765 1.385 . S
C762 H743 0.951 . S
C762 C760 1.388 . S
C762 C763 1.366 . S
C763 C762 1.366 . S
C763 C764 1.414 . S
C763 C766 1.499 1_565 S
C764 H744 0.950 1_565 S
C764 C763 1.414 . S
C764 C765 1.374 . S
C765 H745 0.950 . S
C765 C761 1.385 . S
C765 C764 1.374 . S
C766 C763 1.499 1_545 S
C766 C767 1.373 . S
C766 C768 1.389 . S
C767 H746 0.950 . S
C767 C766 1.373 . S
C767 C783 1.377 . S
C768 C766 1.389 . S
C768 C769 1.524 1_545 S
C768 C782 1.377 . S
C769 C768 1.524 1_565 S
C769 C770 1.397 . S
C769 C774 1.363 . S
C770 H747 0.950 . S
C770 C769 1.397 . S
C770 C771 1.334 . S
C771 H748 0.950 . S
C771 C770 1.334 . S
C771 C772 1.287 . S
C772 C771 1.287 . S
C772 C773 1.524 . S
C772 H791 0.913 . S
C773 H749 0.950 . S
C773 C772 1.524 . S
C773 C774 1.415 . S
C774 H750 0.950 . S
C774 C769 1.363 . S
C774 C773 1.415 . S
C775 H751 0.951 . S
C775 C776 1.366 . S
C775 C777 1.388 . S
C776 C775 1.366 . S
C776 C780 1.385 . S
C777 H752 0.951 . S
C777 C775 1.388 . S
C777 C778 1.366 . S
C778 C777 1.366 . S
C778 C779 1.414 . S
C778 C781 1.499 . S
C779 H753 0.950 . S
C779 C778 1.414 . S
C779 C780 1.374 . S
C780 H754 0.950 1_655 S
C780 C776 1.385 . S
C780 C779 1.374 . S
C781 C778 1.499 . S
C781 C782 1.373 . S
C781 C783 1.389 . S
C782 H755 0.950 . S
C782 C768 1.377 . S
C782 C781 1.373 . S
C783 C767 1.377 . S
C783 C781 1.389 . S
C783 C784 1.524 . S
C784 C783 1.524 . S
C784 C785 1.397 . S
C784 C789 1.363 . S
C785 H756 0.950 . S
C785 C784 1.397 . S
C785 C786 1.334 . S
C786 H757 0.950 . S
C786 C785 1.334 . S
C786 C787 1.287 . S
C787 C786 1.287 . S
C787 C788 1.524 . S
C787 H790 0.999 . S
C788 H758 0.950 . S
C788 C787 1.524 . S
C788 C789 1.415 . S
C789 H759 0.950 . S
C789 C784 1.363 . S
C789 C788 1.415 . S
H790 C787 0.999 . S
H791 C772 0.913 . S
H792 C810 0.951 . S
H793 C812 0.951 . S
H794 C814 0.950 . S
H795 C815 0.950 . S
H796 C817 0.950 . S
H797 C820 0.950 . S
H798 C821 0.950 . S
H799 C823 0.950 . S
H800 C824 0.950 . S
H801 C825 0.951 . S
H802 C827 0.951 . S
H803 C829 0.950 . S
H804 C830 0.950 . S
H805 C832 0.950 . S
H806 C835 0.950 . S
H807 C836 0.950 . S
H808 C838 0.950 . S
H809 C839 0.950 . S
C810 H792 0.951 . S
C810 C811 1.366 . S
C810 C812 1.388 . S
C811 C810 1.366 . S
C811 C815 1.385 . S
C812 H793 0.951 . S
C812 C810 1.388 . S
C812 C813 1.366 . S
C813 C812 1.366 . S
C813 C814 1.414 . S
C813 C816 1.499 1_545 S
C814 H794 0.950 . S
C814 C813 1.414 . S
C814 C815 1.374 . S
C815 H795 0.950 . S
C815 C811 1.385 . S
C815 C814 1.374 . S
C816 C813 1.499 1_565 S
C816 C817 1.373 . S
C816 C818 1.389 . S
C817 H796 0.950 . S
C817 C816 1.373 . S
C817 C833 1.377 . S
C818 C816 1.389 . S
C818 C819 1.524 1_565 S
C818 C832 1.377 . S
C819 C818 1.524 1_545 S
C819 C820 1.397 . S
C819 C824 1.363 . S
C820 H797 0.950 . S
C820 C819 1.397 . S
C820 C821 1.334 . S
C821 H798 0.950 . S
C821 C820 1.334 . S
C821 C822 1.287 . S
C822 C821 1.287 . S
C822 C823 1.524 . S
C822 H841 0.913 . S
C823 H799 0.950 . S
C823 C822 1.524 . S
C823 C824 1.415 . S
C824 H800 0.950 . S
C824 C819 1.363 . S
C824 C823 1.415 . S
C825 H801 0.951 . S
C825 C826 1.366 . S
C825 C827 1.388 . S
C826 C825 1.366 . S
C826 C830 1.385 . S
C827 H802 0.951 . S
C827 C825 1.388 . S
C827 C828 1.366 . S
C828 C827 1.366 . S
C828 C829 1.414 . S
C828 C831 1.499 . S
C829 H803 0.950 . S
C829 C828 1.414 . S
C829 C830 1.374 . S
C830 H804 0.950 . S
C830 C826 1.385 . S
C830 C829 1.374 . S
C831 C828 1.499 . S
C831 C832 1.373 . S
C831 C833 1.389 . S
C832 H805 0.950 . S
C832 C818 1.377 . S
C832 C831 1.373 . S
C833 C817 1.377 . S
C833 C831 1.389 . S
C833 C834 1.524 . S
C834 C833 1.524 . S
C834 C835 1.397 . S
C834 C839 1.363 . S
C835 H806 0.950 . S
C835 C834 1.397 . S
C835 C836 1.334 . S
C836 H807 0.950 . S
C836 C835 1.334 . S
C836 C837 1.287 . S
C837 C836 1.287 . S
C837 C838 1.524 . S
C837 H840 0.999 . S
C838 H808 0.950 . S
C838 C837 1.524 . S
C838 C839 1.415 . S
C839 H809 0.950 . S
C839 C834 1.363 . S
C839 C838 1.415 . S
H840 C837 0.999 . S
H841 C822 0.913 . S
H842 C860 0.951 . S
H843 C862 0.951 . S
H844 C864 0.950 . S
H845 C865 0.950 . S
H846 C867 0.950 . S
H847 C870 0.950 . S
H848 C871 0.950 . S
H849 C873 0.950 . S
H850 C874 0.950 . S
H851 C875 0.951 . S
H852 C877 0.951 . S
H853 C879 0.950 . S
H854 C880 0.950 . S
H855 C882 0.950 . S
H856 C885 0.950 . S
H857 C886 0.950 . S
H858 C888 0.950 . S
H859 C889 0.950 . S
C860 H842 0.951 . S
C860 C861 1.366 . S
C860 C862 1.388 . S
C861 C860 1.366 . S
C861 C865 1.385 . S
C862 H843 0.951 . S
C862 C860 1.388 . S
C862 C863 1.366 . S
C863 C862 1.366 . S
C863 C864 1.414 . S
C863 C866 1.499 . S
C864 H844 0.950 . S
C864 C863 1.414 . S
C864 C865 1.374 . S
C865 H845 0.950 . S
C865 C861 1.385 . S
C865 C864 1.374 . S
C866 C863 1.499 . S
C866 C867 1.373 . S
C866 C868 1.389 . S
C867 H846 0.950 . S
C867 C866 1.373 . S
C867 C883 1.377 . S
C868 C866 1.389 . S
C868 C869 1.524 . S
C868 C882 1.377 . S
C869 C868 1.524 . S
C869 C870 1.397 . S
C869 C874 1.363 . S
C870 H847 0.950 . S
C870 C869 1.397 . S
C870 C871 1.334 . S
C871 H848 0.950 . S
C871 C870 1.334 . S
C871 C872 1.287 . S
C872 C871 1.287 . S
C872 C873 1.524 . S
C872 H891 0.913 . S
C873 H849 0.950 . S
C873 C872 1.524 . S
C873 C874 1.415 . S
C874 H850 0.950 . S
C874 C869 1.363 . S
C874 C873 1.415 . S
C875 H851 0.951 . S
C875 C876 1.366 . S
C875 C877 1.388 . S
C876 C875 1.366 . S
C876 C880 1.385 . S
C877 H852 0.951 . S
C877 C875 1.388 . S
C877 C878 1.366 . S
C878 C877 1.366 . S
C878 C879 1.414 . S
C878 C881 1.499 . S
C879 H853 0.950 . S
C879 C878 1.414 . S
C879 C880 1.374 . S
C880 H854 0.950 . S
C880 C876 1.385 . S
C880 C879 1.374 . S
C881 C878 1.499 . S
C881 C882 1.373 . S
C881 C883 1.389 . S
C882 H855 0.950 . S
C882 C868 1.377 . S
C882 C881 1.373 . S
C883 C867 1.377 . S
C883 C881 1.389 . S
C883 C884 1.524 . S
C884 C883 1.524 . S
C884 C885 1.397 . S
C884 C889 1.363 . S
C885 H856 0.950 . S
C885 C884 1.397 . S
C885 C886 1.334 . S
C886 H857 0.950 . S
C886 C885 1.334 . S
C886 C887 1.287 . S
C887 C886 1.287 . S
C887 C888 1.524 . S
C887 H890 0.999 . S
C888 H858 0.950 . S
C888 C887 1.524 . S
C888 C889 1.415 . S
C889 H859 0.950 . S
C889 C884 1.363 . S
C889 C888 1.415 . S
H890 C887 0.999 . S
H891 C872 0.913 . S
H892 C910 0.951 . S
H893 C912 0.951 . S
H894 C914 0.950 . S
H895 C915 0.950 . S
H896 C917 0.950 . S
H897 C920 0.950 . S
H898 C921 0.950 . S
H899 C923 0.950 . S
H900 C924 0.950 . S
H901 C925 0.951 . S
H902 C927 0.951 . S
H903 C929 0.950 . S
H904 C930 0.950 . S
H905 C932 0.950 . S
H906 C935 0.950 . S
H907 C936 0.950 . S
H908 C938 0.950 . S
H909 C939 0.950 . S
C910 H892 0.951 . S
C910 C911 1.366 . S
C910 C912 1.388 . S
C911 C910 1.366 . S
C911 C915 1.385 . S
C912 H893 0.951 . S
C912 C910 1.388 . S
C912 C913 1.366 . S
C913 C912 1.366 . S
C913 C914 1.414 . S
C913 C916 1.499 . S
C914 H894 0.950 . S
C914 C913 1.414 . S
C914 C915 1.374 . S
C915 H895 0.950 . S
C915 C911 1.385 . S
C915 C914 1.374 . S
C916 C913 1.499 . S
C916 C917 1.373 . S
C916 C918 1.389 . S
C917 H896 0.950 . S
C917 C916 1.373 . S
C917 C933 1.377 . S
C918 C916 1.389 . S
C918 C919 1.524 . S
C918 C932 1.377 . S
C919 C918 1.524 . S
C919 C920 1.397 . S
C919 C924 1.363 . S
C920 H897 0.950 . S
C920 C919 1.397 . S
C920 C921 1.334 . S
C921 H898 0.950 . S
C921 C920 1.334 . S
C921 C922 1.287 . S
C922 C921 1.287 . S
C922 C923 1.524 . S
C922 H941 0.913 . S
C923 H899 0.950 . S
C923 C922 1.524 . S
C923 C924 1.415 . S
C924 H900 0.950 . S
C924 C919 1.363 . S
C924 C923 1.415 . S
C925 H901 0.951 . S
C925 C926 1.366 . S
C925 C927 1.388 . S
C926 C925 1.366 . S
C926 C930 1.385 . S
C927 H902 0.951 . S
C927 C925 1.388 . S
C927 C928 1.366 . S
C928 C927 1.366 . S
C928 C929 1.414 . S
C928 C931 1.499 . S
C929 H903 0.950 . S
C929 C928 1.414 . S
C929 C930 1.374 . S
C930 H904 0.950 . S
C930 C926 1.385 . S
C930 C929 1.374 . S
C931 C928 1.499 . S
C931 C932 1.373 . S
C931 C933 1.389 . S
C932 H905 0.950 . S
C932 C918 1.377 . S
C932 C931 1.373 . S
C933 C917 1.377 . S
C933 C931 1.389 . S
C933 C934 1.524 . S
C934 C933 1.524 . S
C934 C935 1.397 . S
C934 C939 1.363 . S
C935 H906 0.950 . S
C935 C934 1.397 . S
C935 C936 1.334 . S
C936 H907 0.950 . S
C936 C935 1.334 . S
C936 C937 1.287 . S
C937 C936 1.287 . S
C937 C938 1.524 . S
C937 H940 0.999 . S
C938 H908 0.950 . S
C938 C937 1.524 . S
C938 C939 1.415 . S
C939 H909 0.950 . S
C939 C934 1.363 . S
C939 C938 1.415 . S
H940 C937 0.999 . S
H941 C922 0.913 . S
H942 C960 0.951 . S
H943 C962 0.951 . S
H944 C964 0.950 . S
H945 C965 0.950 . S
H946 C967 0.950 1_545 S
H947 C970 0.950 . S
H948 C971 0.950 . S
H949 C973 0.950 . S
H950 C974 0.950 . S
H951 C975 0.951 . S
H952 C977 0.951 . S
H953 C979 0.950 . S
H954 C980 0.950 . S
H955 C982 0.950 . S
H956 C985 0.950 . S
H957 C986 0.950 . S
H958 C988 0.950 1_545 S
H959 C989 0.950 . S
C960 H942 0.951 . S
C960 C961 1.366 . S
C960 C962 1.388 . S
C961 C960 1.366 . S
C961 C965 1.385 . S
C962 H943 0.951 . S
C962 C960 1.388 . S
C962 C963 1.366 . S
C963 C962 1.366 . S
C963 C964 1.414 . S
C963 C966 1.499 1_545 S
C964 H944 0.950 . S
C964 C963 1.414 . S
C964 C965 1.374 . S
C965 H945 0.950 . S
C965 C961 1.385 . S
C965 C964 1.374 . S
C966 C963 1.499 1_565 S
C966 C967 1.373 . S
C966 C968 1.389 . S
C967 H946 0.950 1_565 S
C967 C966 1.373 . S
C967 C983 1.377 . S
C968 C966 1.389 . S
C968 C969 1.524 . S
C968 C982 1.377 . S
C969 C968 1.524 . S
C969 C970 1.397 . S
C969 C974 1.363 . S
C970 H947 0.950 . S
C970 C969 1.397 . S
C970 C971 1.334 . S
C971 H948 0.950 . S
C971 C970 1.334 . S
C971 C972 1.287 . S
C972 C971 1.287 . S
C972 C973 1.524 . S
C972 H991 0.913 . S
C973 H949 0.950 . S
C973 C972 1.524 . S
C973 C974 1.415 . S
C974 H950 0.950 . S
C974 C969 1.363 . S
C974 C973 1.415 . S
C975 H951 0.951 . S
C975 C976 1.366 . S
C975 C977 1.388 . S
C976 C975 1.366 . S
C976 C980 1.385 . S
C977 H952 0.951 . S
C977 C975 1.388 . S
C977 C978 1.366 . S
C978 C977 1.366 . S
C978 C979 1.414 . S
C978 C981 1.499 . S
C979 H953 0.950 . S
C979 C978 1.414 . S
C979 C980 1.374 . S
C980 H954 0.950 . S
C980 C976 1.385 . S
C980 C979 1.374 . S
C981 C978 1.499 . S
C981 C982 1.373 . S
C981 C983 1.389 . S
C982 H955 0.950 . S
C982 C968 1.377 . S
C982 C981 1.373 . S
C983 C967 1.377 . S
C983 C981 1.389 . S
C983 C984 1.524 . S
C984 C983 1.524 . S
C984 C985 1.397 . S
C984 C989 1.363 . S
C985 H956 0.950 . S
C985 C984 1.397 . S
C985 C986 1.334 . S
C986 H957 0.950 . S
C986 C985 1.334 . S
C986 C987 1.287 . S
C987 C986 1.287 . S
C987 C988 1.524 . S
C987 H990 0.999 1_565 S
C988 H958 0.950 1_565 S
C988 C987 1.524 . S
C988 C989 1.415 . S
C989 H959 0.950 . S
C989 C984 1.363 . S
C989 C988 1.415 . S
H990 C987 0.999 1_545 S
H991 C972 0.913 . S
H992 C1010 0.951 . S
H993 C1012 0.951 . S
H994 C1014 0.950 . S
H995 C1015 0.950 . S
H996 C1017 0.950 . S
H997 C1020 0.950 . S
H998 C1021 0.950 . S
H999 C1023 0.950 . S
H1000 C1024 0.950 . S
H1001 C1025 0.951 . S
H1002 C1027 0.951 . S
H1003 C1029 0.950 . S
H1004 C1030 0.950 . S
H1005 C1032 0.950 . S
H1006 C1035 0.950 . S
H1007 C1036 0.950 . S
H1008 C1038 0.950 . S
H1009 C1039 0.950 . S
C1010 H992 0.951 . S
C1010 C1011 1.366 . S
C1010 C1012 1.388 1_556 S
C1011 C1010 1.366 . S
C1011 C1015 1.385 . S
C1012 H993 0.951 . S
C1012 C1010 1.388 1_554 S
C1012 C1013 1.366 . S
C1013 C1012 1.366 . S
C1013 C1014 1.414 . S
C1013 C1016 1.499 . S
C1014 H994 0.950 . S
C1014 C1013 1.414 . S
C1014 C1015 1.374 1_554 S
C1015 H995 0.950 . S
C1015 C1011 1.385 . S
C1015 C1014 1.374 1_556 S
C1016 C1013 1.499 . S
C1016 C1017 1.373 . S
C1016 C1018 1.389 . S
C1017 H996 0.950 . S
C1017 C1016 1.373 . S
C1017 C1033 1.377 . S
C1018 C1016 1.389 . S
C1018 C1019 1.524 . S
C1018 C1032 1.377 . S
C1019 C1018 1.524 . S
C1019 C1020 1.397 . S
C1019 C1024 1.363 . S
C1020 H997 0.950 . S
C1020 C1019 1.397 . S
C1020 C1021 1.334 . S
C1021 H998 0.950 . S
C1021 C1020 1.334 . S
C1021 C1022 1.287 . S
C1022 C1021 1.287 . S
C1022 C1023 1.524 . S
C1022 H1041 0.913 . S
C1023 H999 0.950 . S
C1023 C1022 1.524 . S
C1023 C1024 1.415 . S
C1024 H1000 0.950 . S
C1024 C1019 1.363 . S
C1024 C1023 1.415 . S
C1025 H1001 0.951 . S
C1025 C1026 1.366 . S
C1025 C1027 1.388 . S
C1026 C1025 1.366 . S
C1026 C1030 1.385 . S
C1027 H1002 0.951 . S
C1027 C1025 1.388 . S
C1027 C1028 1.366 . S
C1028 C1027 1.366 . S
C1028 C1029 1.414 . S
C1028 C1031 1.499 . S
C1029 H1003 0.950 . S
C1029 C1028 1.414 . S
C1029 C1030 1.374 . S
C1030 H1004 0.950 . S
C1030 C1026 1.385 . S
C1030 C1029 1.374 . S
C1031 C1028 1.499 . S
C1031 C1032 1.373 . S
C1031 C1033 1.389 . S
C1032 H1005 0.950 . S
C1032 C1018 1.377 . S
C1032 C1031 1.373 . S
C1033 C1017 1.377 . S
C1033 C1031 1.389 . S
C1033 C1034 1.524 . S
C1034 C1033 1.524 . S
C1034 C1035 1.397 . S
C1034 C1039 1.363 . S
C1035 H1006 0.950 . S
C1035 C1034 1.397 . S
C1035 C1036 1.334 . S
C1036 H1007 0.950 . S
C1036 C1035 1.334 . S
C1036 C1037 1.287 . S
C1037 C1036 1.287 . S
C1037 C1038 1.524 . S
C1037 H1040 0.999 . S
C1038 H1008 0.950 . S
C1038 C1037 1.524 . S
C1038 C1039 1.415 . S
C1039 H1009 0.950 . S
C1039 C1034 1.363 . S
C1039 C1038 1.415 . S
H1040 C1037 0.999 . S
H1041 C1022 0.913 . S
H1042 C1060 0.951 . S
H1043 C1062 0.951 . S
H1044 C1064 0.950 . S
H1045 C1065 0.950 . S
H1046 C1067 0.950 . S
H1047 C1070 0.950 . S
H1048 C1071 0.950 . S
H1049 C1073 0.950 . S
H1050 C1074 0.950 . S
H1051 C1075 0.951 . S
H1052 C1077 0.951 . S
H1053 C1079 0.950 . S
H1054 C1080 0.950 . S
H1055 C1082 0.950 . S
H1056 C1085 0.950 . S
H1057 C1086 0.950 . S
H1058 C1088 0.950 . S
H1059 C1089 0.950 . S
C1060 H1042 0.951 . S
C1060 C1061 1.366 . S
C1060 C1062 1.388 . S
C1061 C1060 1.366 . S
C1061 C1065 1.385 . S
C1062 H1043 0.951 . S
C1062 C1060 1.388 . S
C1062 C1063 1.366 . S
C1063 C1062 1.366 . S
C1063 C1064 1.414 . S
C1063 C1066 1.499 . S
C1064 H1044 0.950 . S
C1064 C1063 1.414 . S
C1064 C1065 1.374 . S
C1065 H1045 0.950 . S
C1065 C1061 1.385 . S
C1065 C1064 1.374 . S
C1066 C1063 1.499 . S
C1066 C1067 1.373 . S
C1066 C1068 1.389 . S
C1067 H1046 0.950 . S
C1067 C1066 1.373 . S
C1067 C1083 1.377 . S
C1068 C1066 1.389 . S
C1068 C1069 1.524 . S
C1068 C1082 1.377 . S
C1069 C1068 1.524 . S
C1069 C1070 1.397 . S
C1069 C1074 1.363 . S
C1070 H1047 0.950 . S
C1070 C1069 1.397 . S
C1070 C1071 1.334 . S
C1071 H1048 0.950 . S
C1071 C1070 1.334 . S
C1071 C1072 1.287 . S
C1072 C1071 1.287 . S
C1072 C1073 1.524 . S
C1072 H1091 0.913 . S
C1073 H1049 0.950 . S
C1073 C1072 1.524 . S
C1073 C1074 1.415 . S
C1074 H1050 0.950 . S
C1074 C1069 1.363 . S
C1074 C1073 1.415 . S
C1075 H1051 0.951 . S
C1075 C1076 1.366 . S
C1075 C1077 1.388 . S
C1076 C1075 1.366 . S
C1076 C1080 1.385 . S
C1077 H1052 0.951 . S
C1077 C1075 1.388 . S
C1077 C1078 1.366 . S
C1078 C1077 1.366 . S
C1078 C1079 1.414 . S
C1078 C1081 1.499 . S
C1079 H1053 0.950 . S
C1079 C1078 1.414 . S
C1079 C1080 1.374 . S
C1080 H1054 0.950 . S
C1080 C1076 1.385 . S
C1080 C1079 1.374 . S
C1081 C1078 1.499 . S
C1081 C1082 1.373 . S
C1081 C1083 1.389 . S
C1082 H1055 0.950 . S
C1082 C1068 1.377 . S
C1082 C1081 1.373 . S
C1083 C1067 1.377 . S
C1083 C1081 1.389 . S
C1083 C1084 1.524 . S
C1084 C1083 1.524 . S
C1084 C1085 1.397 . S
C1084 C1089 1.363 . S
C1085 H1056 0.950 . S
C1085 C1084 1.397 . S
C1085 C1086 1.334 . S
C1086 H1057 0.950 . S
C1086 C1085 1.334 . S
C1086 C1087 1.287 . S
C1087 C1086 1.287 . S
C1087 C1088 1.524 . S
C1087 H1090 0.999 . S
C1088 H1058 0.950 . S
C1088 C1087 1.524 . S
C1088 C1089 1.415 . S
C1089 H1059 0.950 . S
C1089 C1084 1.363 . S
C1089 C1088 1.415 . S
H1090 C1087 0.999 . S
H1091 C1072 0.913 . S
H1092 C1110 0.951 . S
H1093 C1112 0.951 . S
H1094 C1114 0.950 . S
H1095 C1115 0.950 . S
H1096 C1117 0.950 . S
H1097 C1120 0.950 . S
H1098 C1121 0.950 . S
H1099 C1123 0.950 . S
H1100 C1124 0.950 . S
H1101 C1125 0.951 . S
H1102 C1127 0.951 . S
H1103 C1129 0.950 . S
H1104 C1130 0.950 . S
H1105 C1132 0.950 . S
H1106 C1135 0.950 . S
H1107 C1136 0.950 . S
H1108 C1138 0.950 . S
H1109 C1139 0.950 . S
C1110 H1092 0.951 . S
C1110 C1111 1.366 . S
C1110 C1112 1.388 1_554 S
C1111 C1110 1.366 . S
C1111 C1115 1.385 . S
C1112 H1093 0.951 . S
C1112 C1110 1.388 1_556 S
C1112 C1113 1.366 . S
C1113 C1112 1.366 . S
C1113 C1114 1.414 . S
C1113 C1116 1.499 . S
C1114 H1094 0.950 . S
C1114 C1113 1.414 . S
C1114 C1115 1.374 1_556 S
C1115 H1095 0.950 . S
C1115 C1111 1.385 . S
C1115 C1114 1.374 1_554 S
C1116 C1113 1.499 . S
C1116 C1117 1.373 . S
C1116 C1118 1.389 . S
C1117 H1096 0.950 . S
C1117 C1116 1.373 . S
C1117 C1133 1.377 . S
C1118 C1116 1.389 . S
C1118 C1119 1.524 . S
C1118 C1132 1.377 . S
C1119 C1118 1.524 . S
C1119 C1120 1.397 . S
C1119 C1124 1.363 . S
C1120 H1097 0.950 . S
C1120 C1119 1.397 . S
C1120 C1121 1.334 . S
C1121 H1098 0.950 . S
C1121 C1120 1.334 . S
C1121 C1122 1.287 . S
C1122 C1121 1.287 . S
C1122 C1123 1.524 . S
C1122 H1141 0.913 . S
C1123 H1099 0.950 . S
C1123 C1122 1.524 . S
C1123 C1124 1.415 . S
C1124 H1100 0.950 . S
C1124 C1119 1.363 . S
C1124 C1123 1.415 . S
C1125 H1101 0.951 . S
C1125 C1126 1.366 . S
C1125 C1127 1.388 . S
C1126 C1125 1.366 . S
C1126 C1130 1.385 . S
C1127 H1102 0.951 . S
C1127 C1125 1.388 . S
C1127 C1128 1.366 . S
C1128 C1127 1.366 . S
C1128 C1129 1.414 . S
C1128 C1131 1.499 . S
C1129 H1103 0.950 . S
C1129 C1128 1.414 . S
C1129 C1130 1.374 . S
C1130 H1104 0.950 . S
C1130 C1126 1.385 . S
C1130 C1129 1.374 . S
C1131 C1128 1.499 . S
C1131 C1132 1.373 . S
C1131 C1133 1.389 . S
C1132 H1105 0.950 . S
C1132 C1118 1.377 . S
C1132 C1131 1.373 . S
C1133 C1117 1.377 . S
C1133 C1131 1.389 . S
C1133 C1134 1.524 . S
C1134 C1133 1.524 . S
C1134 C1135 1.397 . S
C1134 C1139 1.363 . S
C1135 H1106 0.950 . S
C1135 C1134 1.397 . S
C1135 C1136 1.334 . S
C1136 H1107 0.950 . S
C1136 C1135 1.334 . S
C1136 C1137 1.287 . S
C1137 C1136 1.287 . S
C1137 C1138 1.524 . S
C1137 H1140 0.999 . S
C1138 H1108 0.950 . S
C1138 C1137 1.524 . S
C1138 C1139 1.415 . S
C1139 H1109 0.950 . S
C1139 C1134 1.363 . S
C1139 C1138 1.415 . S
H1140 C1137 0.999 . S
H1141 C1122 0.913 . S
H1142 C1160 0.951 . S
H1143 C1162 0.951 . S
H1144 C1164 0.950 . S
H1145 C1165 0.950 . S
H1146 C1167 0.950 . S
H1147 C1170 0.950 . S
H1148 C1171 0.950 . S
H1149 C1173 0.950 . S
H1150 C1174 0.950 . S
H1151 C1175 0.951 . S
H1152 C1177 0.951 . S
H1153 C1179 0.950 . S
H1154 C1180 0.950 . S
H1155 C1182 0.950 . S
H1156 C1185 0.950 . S
H1157 C1186 0.950 . S
H1158 C1188 0.950 . S
H1159 C1189 0.950 . S
C1160 H1142 0.951 . S
C1160 C1161 1.366 . S
C1160 C1162 1.388 . S
C1161 C1160 1.366 . S
C1161 C1165 1.385 . S
C1162 H1143 0.951 . S
C1162 C1160 1.388 . S
C1162 C1163 1.366 . S
C1163 C1162 1.366 . S
C1163 C1164 1.414 . S
C1163 C1166 1.499 . S
C1164 H1144 0.950 . S
C1164 C1163 1.414 . S
C1164 C1165 1.374 . S
C1165 H1145 0.950 . S
C1165 C1161 1.385 . S
C1165 C1164 1.374 . S
C1166 C1163 1.499 . S
C1166 C1167 1.373 . S
C1166 C1168 1.389 . S
C1167 H1146 0.950 . S
C1167 C1166 1.373 . S
C1167 C1183 1.377 . S
C1168 C1166 1.389 . S
C1168 C1169 1.524 . S
C1168 C1182 1.377 . S
C1169 C1168 1.524 . S
C1169 C1170 1.397 . S
C1169 C1174 1.363 . S
C1170 H1147 0.950 . S
C1170 C1169 1.397 . S
C1170 C1171 1.334 . S
C1171 H1148 0.950 . S
C1171 C1170 1.334 . S
C1171 C1172 1.287 . S
C1172 C1171 1.287 . S
C1172 C1173 1.524 . S
C1172 H1191 0.913 . S
C1173 H1149 0.950 . S
C1173 C1172 1.524 . S
C1173 C1174 1.415 . S
C1174 H1150 0.950 . S
C1174 C1169 1.363 . S
C1174 C1173 1.415 . S
C1175 H1151 0.951 . S
C1175 C1176 1.366 . S
C1175 C1177 1.388 . S
C1176 C1175 1.366 . S
C1176 C1180 1.385 . S
C1177 H1152 0.951 . S
C1177 C1175 1.388 . S
C1177 C1178 1.366 . S
C1178 C1177 1.366 . S
C1178 C1179 1.414 . S
C1178 C1181 1.499 . S
C1179 H1153 0.950 . S
C1179 C1178 1.414 . S
C1179 C1180 1.374 . S
C1180 H1154 0.950 . S
C1180 C1176 1.385 . S
C1180 C1179 1.374 . S
C1181 C1178 1.499 . S
C1181 C1182 1.373 . S
C1181 C1183 1.389 . S
C1182 H1155 0.950 . S
C1182 C1168 1.377 . S
C1182 C1181 1.373 . S
C1183 C1167 1.377 . S
C1183 C1181 1.389 . S
C1183 C1184 1.524 . S
C1184 C1183 1.524 . S
C1184 C1185 1.397 . S
C1184 C1189 1.363 . S
C1185 H1156 0.950 . S
C1185 C1184 1.397 . S
C1185 C1186 1.334 1_655 S
C1186 H1157 0.950 . S
C1186 C1185 1.334 1_455 S
C1186 C1187 1.287 . S
C1187 C1186 1.287 . S
C1187 C1188 1.524 . S
C1187 H1190 0.999 . S
C1188 H1158 0.950 . S
C1188 C1187 1.524 . S
C1188 C1189 1.415 1_455 S
C1189 H1159 0.950 . S
C1189 C1184 1.363 . S
C1189 C1188 1.415 1_655 S
H1190 C1187 0.999 . S
H1191 C1172 0.913 . S
H1192 C1210 0.951 . S
H1193 C1212 0.951 . S
H1194 C1214 0.950 . S
H1195 C1215 0.959 . S
H1196 C1217 0.950 . S
H1197 C1220 0.950 . S
H1198 C1221 0.950 . S
H1199 C1223 0.950 . S
H1200 C1224 0.950 . S
H1201 C1225 0.951 . S
H1202 C1227 0.951 . S
H1203 C1229 0.950 . S
H1204 C1230 0.950 . S
H1205 C1232 0.950 . S
H1206 C1235 0.950 . S
H1207 C1236 0.950 . S
H1208 C1238 0.950 . S
H1209 C1239 0.950 . S
C1210 H1192 0.951 . S
C1210 C1211 1.366 . S
C1210 C1212 1.388 1_554 S
C1211 C1210 1.366 . S
C1211 C1215 1.413 . S
C1212 H1193 0.951 . S
C1212 C1210 1.388 1_556 S
C1212 C1213 1.366 . S
C1213 C1212 1.366 . S
C1213 C1214 1.414 . S
C1213 C1216 1.499 . S
C1214 H1194 0.950 . S
C1214 C1213 1.414 . S
C1214 C1215 1.337 1_556 S
C1215 H1195 0.959 . S
C1215 C1211 1.413 . S
C1215 C1214 1.337 1_554 S
C1216 C1213 1.499 . S
C1216 C1217 1.373 . S
C1216 C1218 1.389 . S
C1217 H1196 0.950 . S
C1217 C1216 1.373 . S
C1217 C1233 1.377 . S
C1218 C1216 1.389 . S
C1218 C1219 1.524 . S
C1218 C1232 1.377 . S
C1219 C1218 1.524 . S
C1219 C1220 1.397 . S
C1219 C1224 1.363 . S
C1220 H1197 0.950 . S
C1220 C1219 1.397 . S
C1220 C1221 1.334 . S
C1221 H1198 0.950 . S
C1221 C1220 1.334 . S
C1221 C1222 1.287 . S
C1222 C1221 1.287 . S
C1222 C1223 1.524 . S
C1222 H1241 0.913 . S
C1223 H1199 0.950 . S
C1223 C1222 1.524 . S
C1223 C1224 1.415 . S
C1224 H1200 0.950 . S
C1224 C1219 1.363 . S
C1224 C1223 1.415 . S
C1225 H1201 0.951 . S
C1225 C1226 1.366 . S
C1225 C1227 1.388 . S
C1226 C1225 1.366 . S
C1226 C1230 1.385 . S
C1227 H1202 0.951 . S
C1227 C1225 1.388 . S
C1227 C1228 1.366 . S
C1228 C1227 1.366 . S
C1228 C1229 1.414 . S
C1228 C1231 1.499 . S
C1229 H1203 0.950 . S
C1229 C1228 1.414 . S
C1229 C1230 1.374 . S
C1230 H1204 0.950 . S
C1230 C1226 1.385 . S
C1230 C1229 1.374 . S
C1231 C1228 1.499 . S
C1231 C1232 1.373 . S
C1231 C1233 1.389 . S
C1232 H1205 0.950 . S
C1232 C1218 1.377 . S
C1232 C1231 1.373 . S
C1233 C1217 1.377 . S
C1233 C1231 1.389 . S
C1233 C1234 1.524 . S
C1234 C1233 1.524 . S
C1234 C1235 1.397 . S
C1234 C1239 1.363 . S
C1235 H1206 0.950 . S
C1235 C1234 1.397 . S
C1235 C1236 1.334 . S
C1236 H1207 0.950 . S
C1236 C1235 1.334 . S
C1236 C1237 1.287 . S
C1237 C1236 1.287 . S
C1237 C1238 1.524 . S
C1237 H1240 0.999 . S
C1238 H1208 0.950 . S
C1238 C1237 1.524 . S
C1238 C1239 1.415 . S
C1239 H1209 0.950 . S
C1239 C1234 1.363 . S
C1239 C1238 1.415 . S
H1240 C1237 0.999 . S
H1241 C1222 0.913 . S
H1242 C1260 0.951 . S
H1243 C1262 0.951 . S
H1244 C1264 0.950 . S
H1245 C1265 0.950 . S
H1246 C1267 0.950 . S
H1247 C1270 0.950 . S
H1248 C1271 0.950 . S
H1249 C1273 0.950 . S
H1250 C1274 0.950 . S
H1251 C1275 0.951 . S
H1252 C1277 0.951 . S
H1253 C1279 0.950 . S
H1254 C1280 0.950 . S
H1255 C1282 0.950 . S
H1256 C1285 0.950 . S
H1257 C1286 0.950 . S
H1258 C1288 0.950 . S
H1259 C1289 0.950 . S
C1260 H1242 0.951 . S
C1260 C1261 1.366 . S
C1260 C1262 1.388 . S
C1261 C1260 1.366 . S
C1261 C1265 1.385 . S
C1262 H1243 0.951 . S
C1262 C1260 1.388 . S
C1262 C1263 1.366 . S
C1263 C1262 1.366 . S
C1263 C1264 1.414 . S
C1263 C1266 1.499 . S
C1264 H1244 0.950 . S
C1264 C1263 1.414 . S
C1264 C1265 1.374 . S
C1265 H1245 0.950 . S
C1265 C1261 1.385 . S
C1265 C1264 1.374 . S
C1266 C1263 1.499 . S
C1266 C1267 1.373 . S
C1266 C1268 1.389 . S
C1267 H1246 0.950 . S
C1267 C1266 1.373 . S
C1267 C1283 1.377 . S
C1268 C1266 1.389 . S
C1268 C1269 1.524 . S
C1268 C1282 1.377 . S
C1269 C1268 1.524 . S
C1269 C1270 1.397 . S
C1269 C1274 1.363 . S
C1270 H1247 0.950 . S
C1270 C1269 1.397 . S
C1270 C1271 1.334 . S
C1271 H1248 0.950 . S
C1271 C1270 1.334 . S
C1271 C1272 1.287 . S
C1272 C1271 1.287 . S
C1272 C1273 1.524 . S
C1272 H1291 0.913 . S
C1273 H1249 0.950 . S
C1273 C1272 1.524 . S
C1273 C1274 1.415 . S
C1274 H1250 0.950 . S
C1274 C1269 1.363 . S
C1274 C1273 1.415 . S
C1275 H1251 0.951 . S
C1275 C1276 1.366 . S
C1275 C1277 1.388 . S
C1276 C1275 1.366 . S
C1276 C1280 1.385 . S
C1277 H1252 0.951 . S
C1277 C1275 1.388 . S
C1277 C1278 1.366 . S
C1278 C1277 1.366 . S
C1278 C1279 1.414 . S
C1278 C1281 1.499 . S
C1279 H1253 0.950 . S
C1279 C1278 1.414 . S
C1279 C1280 1.374 . S
C1280 H1254 0.950 . S
C1280 C1276 1.385 . S
C1280 C1279 1.374 . S
C1281 C1278 1.499 . S
C1281 C1282 1.373 . S
C1281 C1283 1.389 . S
C1282 H1255 0.950 . S
C1282 C1268 1.377 . S
C1282 C1281 1.373 . S
C1283 C1267 1.377 . S
C1283 C1281 1.389 . S
C1283 C1284 1.524 . S
C1284 C1283 1.524 . S
C1284 C1285 1.397 . S
C1284 C1289 1.363 . S
C1285 H1256 0.950 . S
C1285 C1284 1.397 . S
C1285 C1286 1.334 . S
C1286 H1257 0.950 . S
C1286 C1285 1.334 . S
C1286 C1287 1.287 . S
C1287 C1286 1.287 . S
C1287 C1288 1.524 . S
C1287 H1290 0.999 . S
C1288 H1258 0.950 . S
C1288 C1287 1.524 . S
C1288 C1289 1.415 . S
C1289 H1259 0.950 . S
C1289 C1284 1.363 . S
C1289 C1288 1.415 . S
H1290 C1287 0.999 . S
H1291 C1272 0.913 . S
H1292 C1310 0.951 . S
H1293 C1312 0.951 . S
H1294 C1314 0.950 . S
H1295 C1315 0.950 . S
H1296 C1317 0.950 . S
H1297 C1320 0.950 . S
H1298 C1321 0.950 . S
H1299 C1323 0.950 . S
H1300 C1324 0.950 . S
H1301 C1325 0.951 . S
H1302 C1327 0.951 . S
H1303 C1329 0.950 . S
H1304 C1330 0.950 . S
H1305 C1332 0.950 . S
H1306 C1335 0.950 . S
H1307 C1336 0.950 . S
H1308 C1338 0.950 . S
H1309 C1339 0.950 . S
C1310 H1292 0.951 . S
C1310 C1311 1.366 . S
C1310 C1312 1.388 1_556 S
C1311 C1310 1.366 . S
C1311 C1315 1.385 . S
C1312 H1293 0.951 . S
C1312 C1310 1.388 1_554 S
C1312 C1313 1.366 . S
C1313 C1312 1.366 . S
C1313 C1314 1.414 . S
C1313 C1316 1.499 . S
C1314 H1294 0.950 . S
C1314 C1313 1.414 . S
C1314 C1315 1.374 1_554 S
C1315 H1295 0.950 . S
C1315 C1311 1.385 . S
C1315 C1314 1.374 1_556 S
C1316 C1313 1.499 . S
C1316 C1317 1.373 . S
C1316 C1318 1.389 . S
C1317 H1296 0.950 . S
C1317 C1316 1.373 . S
C1317 C1333 1.377 . S
C1318 C1316 1.389 . S
C1318 C1319 1.524 . S
C1318 C1332 1.377 . S
C1319 C1318 1.524 . S
C1319 C1320 1.397 . S
C1319 C1324 1.363 . S
C1320 H1297 0.950 . S
C1320 C1319 1.397 . S
C1320 C1321 1.334 . S
C1321 H1298 0.950 . S
C1321 C1320 1.334 . S
C1321 C1322 1.287 . S
C1322 C1321 1.287 . S
C1322 C1323 1.524 . S
C1322 H1341 0.913 . S
C1323 H1299 0.950 . S
C1323 C1322 1.524 . S
C1323 C1324 1.415 . S
C1324 H1300 0.950 . S
C1324 C1319 1.363 . S
C1324 C1323 1.415 . S
C1325 H1301 0.951 . S
C1325 C1326 1.366 . S
C1325 C1327 1.388 . S
C1326 C1325 1.366 . S
C1326 C1330 1.385 . S
C1327 H1302 0.951 . S
C1327 C1325 1.388 . S
C1327 C1328 1.366 . S
C1328 C1327 1.366 . S
C1328 C1329 1.414 . S
C1328 C1331 1.499 . S
C1329 H1303 0.950 . S
C1329 C1328 1.414 . S
C1329 C1330 1.374 . S
C1330 H1304 0.950 . S
C1330 C1326 1.385 . S
C1330 C1329 1.374 . S
C1331 C1328 1.499 . S
C1331 C1332 1.373 . S
C1331 C1333 1.389 . S
C1332 H1305 0.950 . S
C1332 C1318 1.377 . S
C1332 C1331 1.373 . S
C1333 C1317 1.377 . S
C1333 C1331 1.389 . S
C1333 C1334 1.524 . S
C1334 C1333 1.524 . S
C1334 C1335 1.397 . S
C1334 C1339 1.363 . S
C1335 H1306 0.950 . S
C1335 C1334 1.397 . S
C1335 C1336 1.334 . S
C1336 H1307 0.950 . S
C1336 C1335 1.334 . S
C1336 C1337 1.287 . S
C1337 C1336 1.287 . S
C1337 C1338 1.524 . S
C1337 H1340 0.999 . S
C1338 H1308 0.950 . S
C1338 C1337 1.524 . S
C1338 C1339 1.415 . S
C1339 H1309 0.950 . S
C1339 C1334 1.363 . S
C1339 C1338 1.415 . S
H1340 C1337 0.999 . S
H1341 C1322 0.913 . S
H1342 C1360 0.951 . S
H1343 C1362 0.951 . S
H1344 C1364 0.950 . S
H1345 C1365 0.950 . S
H1346 C1367 0.950 . S
H1347 C1370 0.950 . S
H1348 C1371 0.950 . S
H1349 C1373 0.950 . S
H1350 C1374 0.950 . S
H1351 C1375 0.951 . S
H1352 C1377 0.951 . S
H1353 C1379 0.950 . S
H1354 C1380 0.950 . S
H1355 C1382 0.950 . S
H1356 C1385 0.950 . S
H1357 C1386 0.950 . S
H1358 C1388 0.950 . S
H1359 C1389 0.950 . S
C1360 H1342 0.951 . S
C1360 C1361 1.366 . S
C1360 C1362 1.388 . S
C1361 C1360 1.366 . S
C1361 C1365 1.385 . S
C1362 H1343 0.951 . S
C1362 C1360 1.388 . S
C1362 C1363 1.366 . S
C1363 C1362 1.366 . S
C1363 C1364 1.414 . S
C1363 C1366 1.499 . S
C1364 H1344 0.950 . S
C1364 C1363 1.414 . S
C1364 C1365 1.374 . S
C1365 H1345 0.950 . S
C1365 C1361 1.385 . S
C1365 C1364 1.374 . S
C1366 C1363 1.499 . S
C1366 C1367 1.373 . S
C1366 C1368 1.389 . S
C1367 H1346 0.950 . S
C1367 C1366 1.373 . S
C1367 C1383 1.377 . S
C1368 C1366 1.389 . S
C1368 C1369 1.524 . S
C1368 C1382 1.377 . S
C1369 C1368 1.524 . S
C1369 C1370 1.397 . S
C1369 C1374 1.363 . S
C1370 H1347 0.950 . S
C1370 C1369 1.397 . S
C1370 C1371 1.334 . S
C1371 H1348 0.950 . S
C1371 C1370 1.334 . S
C1371 C1372 1.287 . S
C1372 C1371 1.287 . S
C1372 C1373 1.524 . S
C1372 H1391 0.913 . S
C1373 H1349 0.950 . S
C1373 C1372 1.524 . S
C1373 C1374 1.415 . S
C1374 H1350 0.950 . S
C1374 C1369 1.363 . S
C1374 C1373 1.415 . S
C1375 H1351 0.951 . S
C1375 C1376 1.366 . S
C1375 C1377 1.388 . S
C1376 C1375 1.366 . S
C1376 C1380 1.385 . S
C1377 H1352 0.951 . S
C1377 C1375 1.388 . S
C1377 C1378 1.366 . S
C1378 C1377 1.366 . S
C1378 C1379 1.414 . S
C1378 C1381 1.499 . S
C1379 H1353 0.950 . S
C1379 C1378 1.414 . S
C1379 C1380 1.374 . S
C1380 H1354 0.950 . S
C1380 C1376 1.385 . S
C1380 C1379 1.374 . S
C1381 C1378 1.499 . S
C1381 C1382 1.373 . S
C1381 C1383 1.389 . S
C1382 H1355 0.950 . S
C1382 C1368 1.377 . S
C1382 C1381 1.373 . S
C1383 C1367 1.377 . S
C1383 C1381 1.389 . S
C1383 C1384 1.524 . S
C1384 C1383 1.524 . S
C1384 C1385 1.397 . S
C1384 C1389 1.363 . S
C1385 H1356 0.950 . S
C1385 C1384 1.397 . S
C1385 C1386 1.334 . S
C1386 H1357 0.950 . S
C1386 C1385 1.334 . S
C1386 C1387 1.287 . S
C1387 C1386 1.287 . S
C1387 C1388 1.524 . S
C1387 H1390 0.999 . S
C1388 H1358 0.950 . S
C1388 C1387 1.524 . S
C1388 C1389 1.415 . S
C1389 H1359 0.950 . S
C1389 C1384 1.363 . S
C1389 C1388 1.415 . S
H1390 C1387 0.999 . S
H1391 C1372 0.913 . S
H1392 C1410 0.951 . S
H1393 C1412 0.951 . S
H1394 C1414 0.950 . S
H1395 C1415 0.950 . S
H1396 C1417 0.950 . S
H1397 C1420 0.950 . S
H1398 C1421 0.950 . S
H1399 C1423 0.950 . S
H1400 C1424 0.950 . S
H1401 C1425 0.951 . S
H1402 C1427 0.951 . S
H1403 C1429 0.950 . S
H1404 C1430 0.950 . S
H1405 C1432 0.950 . S
H1406 C1435 0.950 . S
H1407 C1436 0.950 . S
H1408 C1438 0.950 . S
H1409 C1439 0.950 . S
C1410 H1392 0.951 . S
C1410 C1411 1.366 . S
C1410 C1412 1.388 . S
C1411 C1410 1.366 . S
C1411 C1415 1.385 . S
C1412 H1393 0.951 . S
C1412 C1410 1.388 . S
C1412 C1413 1.366 . S
C1413 C1412 1.366 . S
C1413 C1414 1.414 . S
C1413 C1416 1.499 . S
C1414 H1394 0.950 . S
C1414 C1413 1.414 . S
C1414 C1415 1.374 . S
C1415 H1395 0.950 . S
C1415 C1411 1.385 . S
C1415 C1414 1.374 . S
C1416 C1413 1.499 . S
C1416 C1417 1.373 . S
C1416 C1418 1.389 . S
C1417 H1396 0.950 . S
C1417 C1416 1.373 . S
C1417 C1433 1.377 . S
C1418 C1416 1.389 . S
C1418 C1419 1.524 . S
C1418 C1432 1.377 . S
C1419 C1418 1.524 . S
C1419 C1420 1.397 . S
C1419 C1424 1.363 . S
C1420 H1397 0.950 . S
C1420 C1419 1.397 . S
C1420 C1421 1.334 . S
C1421 H1398 0.950 . S
C1421 C1420 1.334 . S
C1421 C1422 1.287 . S
C1422 C1421 1.287 . S
C1422 C1423 1.524 . S
C1422 H1441 0.913 . S
C1423 H1399 0.950 . S
C1423 C1422 1.524 . S
C1423 C1424 1.415 . S
C1424 H1400 0.950 . S
C1424 C1419 1.363 . S
C1424 C1423 1.415 . S
C1425 H1401 0.951 . S
C1425 C1426 1.366 . S
C1425 C1427 1.388 . S
C1426 C1425 1.366 . S
C1426 C1430 1.385 . S
C1427 H1402 0.951 . S
C1427 C1425 1.388 . S
C1427 C1428 1.366 . S
C1428 C1427 1.366 . S
C1428 C1429 1.414 . S
C1428 C1431 1.499 . S
C1429 H1403 0.950 . S
C1429 C1428 1.414 . S
C1429 C1430 1.374 . S
C1430 H1404 0.950 . S
C1430 C1426 1.385 . S
C1430 C1429 1.374 . S
C1431 C1428 1.499 . S
C1431 C1432 1.373 . S
C1431 C1433 1.389 . S
C1432 H1405 0.950 . S
C1432 C1418 1.377 . S
C1432 C1431 1.373 . S
C1433 C1417 1.377 . S
C1433 C1431 1.389 . S
C1433 C1434 1.524 . S
C1434 C1433 1.524 . S
C1434 C1435 1.397 . S
C1434 C1439 1.363 . S
C1435 H1406 0.950 . S
C1435 C1434 1.397 . S
C1435 C1436 1.334 . S
C1436 H1407 0.950 . S
C1436 C1435 1.334 . S
C1436 C1437 1.287 . S
C1437 C1436 1.287 . S
C1437 C1438 1.524 . S
C1437 H1440 0.999 . S
C1438 H1408 0.950 . S
C1438 C1437 1.524 . S
C1438 C1439 1.415 . S
C1439 H1409 0.950 . S
C1439 C1434 1.363 . S
C1439 C1438 1.415 . S
H1440 C1437 0.999 . S
H1441 C1422 0.913 . S
H1442 C1460 0.951 . S
H1443 C1462 0.951 . S
H1444 C1464 0.950 . S
H1445 C1465 0.950 . S
H1446 C1467 0.950 . S
H1447 C1470 0.950 . S
H1448 C1471 0.950 . S
H1449 C1473 0.950 . S
H1450 C1474 0.950 . S
H1451 C1475 0.951 . S
H1452 C1477 0.951 . S
H1453 C1479 0.950 . S
H1454 C1480 0.950 . S
H1455 C1482 0.950 . S
H1456 C1485 0.950 . S
H1457 C1486 0.950 . S
H1458 C1488 0.950 . S
H1459 C1489 0.950 . S
C1460 H1442 0.951 . S
C1460 C1461 1.366 . S
C1460 C1462 1.388 . S
C1461 C1460 1.366 . S
C1461 C1465 1.385 . S
C1462 H1443 0.951 . S
C1462 C1460 1.388 . S
C1462 C1463 1.366 . S
C1463 C1462 1.366 . S
C1463 C1464 1.414 . S
C1463 C1466 1.499 . S
C1464 H1444 0.950 . S
C1464 C1463 1.414 . S
C1464 C1465 1.374 . S
C1465 H1445 0.950 . S
C1465 C1461 1.385 . S
C1465 C1464 1.374 . S
C1466 C1463 1.499 . S
C1466 C1467 1.373 . S
C1466 C1468 1.389 . S
C1467 H1446 0.950 . S
C1467 C1466 1.373 . S
C1467 C1483 1.377 . S
C1468 C1466 1.389 . S
C1468 C1469 1.524 . S
C1468 C1482 1.377 . S
C1469 C1468 1.524 . S
C1469 C1470 1.397 . S
C1469 C1474 1.363 . S
C1470 H1447 0.950 . S
C1470 C1469 1.397 . S
C1470 C1471 1.334 . S
C1471 H1448 0.950 . S
C1471 C1470 1.334 . S
C1471 C1472 1.287 . S
C1472 C1471 1.287 . S
C1472 C1473 1.524 . S
C1472 H1491 0.913 . S
C1473 H1449 0.950 . S
C1473 C1472 1.524 . S
C1473 C1474 1.415 . S
C1474 H1450 0.950 . S
C1474 C1469 1.363 . S
C1474 C1473 1.415 . S
C1475 H1451 0.951 . S
C1475 C1476 1.366 . S
C1475 C1477 1.388 . S
C1476 C1475 1.366 . S
C1476 C1480 1.385 . S
C1477 H1452 0.951 . S
C1477 C1475 1.388 . S
C1477 C1478 1.366 . S
C1478 C1477 1.366 . S
C1478 C1479 1.414 . S
C1478 C1481 1.499 . S
C1479 H1453 0.950 . S
C1479 C1478 1.414 . S
C1479 C1480 1.374 . S
C1480 H1454 0.950 . S
C1480 C1476 1.385 . S
C1480 C1479 1.374 . S
C1481 C1478 1.499 . S
C1481 C1482 1.373 . S
C1481 C1483 1.389 . S
C1482 H1455 0.950 . S
C1482 C1468 1.377 . S
C1482 C1481 1.373 . S
C1483 C1467 1.377 . S
C1483 C1481 1.389 . S
C1483 C1484 1.524 . S
C1484 C1483 1.524 . S
C1484 C1485 1.397 . S
C1484 C1489 1.363 . S
C1485 H1456 0.950 . S
C1485 C1484 1.397 . S
C1485 C1486 1.334 . S
C1486 H1457 0.950 . S
C1486 C1485 1.334 . S
C1486 C1487 1.287 . S
C1487 C1486 1.287 . S
C1487 C1488 1.524 . S
C1487 H1490 0.999 . S
C1488 H1458 0.950 . S
C1488 C1487 1.524 . S
C1488 C1489 1.415 . S
C1489 H1459 0.950 . S
C1489 C1484 1.363 . S
C1489 C1488 1.415 . S
H1490 C1487 0.999 . S
H1491 C1472 0.913 . S
H1492 C1510 0.951 . S
H1493 C1512 0.951 . S
H1494 C1514 0.950 . S
H1495 C1515 0.950 . S
H1496 C1517 0.950 . S
H1497 C1520 0.950 . S
H1498 C1521 0.950 . S
H1499 C1523 0.950 . S
H1500 C1524 0.950 . S
H1501 C1525 0.951 . S
H1502 C1527 0.951 . S
H1503 C1529 0.950 . S
H1504 C1530 0.950 . S
H1505 C1532 0.950 . S
H1506 C1535 0.950 . S
H1507 C1536 0.950 . S
H1508 C1538 0.950 . S
H1509 C1539 0.950 . S
C1510 H1492 0.951 . S
C1510 C1511 1.366 . S
C1510 C1512 1.388 . S
C1511 C1510 1.366 . S
C1511 C1515 1.385 . S
C1512 H1493 0.951 . S
C1512 C1510 1.388 . S
C1512 C1513 1.366 . S
C1513 C1512 1.366 . S
C1513 C1514 1.414 . S
C1513 C1516 1.499 . S
C1514 H1494 0.950 . S
C1514 C1513 1.414 . S
C1514 C1515 1.374 . S
C1515 H1495 0.950 . S
C1515 C1511 1.385 . S
C1515 C1514 1.374 . S
C1516 C1513 1.499 . S
C1516 C1517 1.373 . S
C1516 C1518 1.389 . S
C1517 H1496 0.950 . S
C1517 C1516 1.373 . S
C1517 C1533 1.377 . S
C1518 C1516 1.389 . S
C1518 C1519 1.524 . S
C1518 C1532 1.377 . S
C1519 C1518 1.524 . S
C1519 C1520 1.397 . S
C1519 C1524 1.363 . S
C1520 H1497 0.950 . S
C1520 C1519 1.397 . S
C1520 C1521 1.334 . S
C1521 H1498 0.950 . S
C1521 C1520 1.334 . S
C1521 C1522 1.287 . S
C1522 C1521 1.287 . S
C1522 C1523 1.524 . S
C1522 H1541 0.913 . S
C1523 H1499 0.950 . S
C1523 C1522 1.524 . S
C1523 C1524 1.415 . S
C1524 H1500 0.950 . S
C1524 C1519 1.363 . S
C1524 C1523 1.415 . S
C1525 H1501 0.951 . S
C1525 C1526 1.366 . S
C1525 C1527 1.388 . S
C1526 C1525 1.366 . S
C1526 C1530 1.385 . S
C1527 H1502 0.951 . S
C1527 C1525 1.388 . S
C1527 C1528 1.366 . S
C1528 C1527 1.366 . S
C1528 C1529 1.414 . S
C1528 C1531 1.499 . S
C1529 H1503 0.950 . S
C1529 C1528 1.414 . S
C1529 C1530 1.374 . S
C1530 H1504 0.950 . S
C1530 C1526 1.385 . S
C1530 C1529 1.374 . S
C1531 C1528 1.499 . S
C1531 C1532 1.373 . S
C1531 C1533 1.389 . S
C1532 H1505 0.950 . S
C1532 C1518 1.377 . S
C1532 C1531 1.373 . S
C1533 C1517 1.377 . S
C1533 C1531 1.389 . S
C1533 C1534 1.524 . S
C1534 C1533 1.524 . S
C1534 C1535 1.397 . S
C1534 C1539 1.363 . S
C1535 H1506 0.950 . S
C1535 C1534 1.397 . S
C1535 C1536 1.334 . S
C1536 H1507 0.950 . S
C1536 C1535 1.334 . S
C1536 C1537 1.287 . S
C1537 C1536 1.287 . S
C1537 C1538 1.524 . S
C1537 H1540 0.999 . S
C1538 H1508 0.950 . S
C1538 C1537 1.524 . S
C1538 C1539 1.415 . S
C1539 H1509 0.950 . S
C1539 C1534 1.363 . S
C1539 C1538 1.415 . S
H1540 C1537 0.999 . S
H1541 C1522 0.913 . S
H1542 C1560 0.951 . S
H1543 C1562 0.951 . S
H1544 C1564 0.950 . S
H1545 C1565 0.950 . S
H1546 C1567 0.950 . S
H1547 C1570 0.950 . S
H1548 C1571 0.950 . S
H1549 C1573 0.950 . S
H1550 C1574 0.950 . S
H1551 C1575 0.951 . S
H1552 C1577 0.951 . S
H1553 C1579 0.950 . S
H1554 C1580 0.950 . S
H1555 C1582 0.950 . S
H1556 C1585 0.950 . S
H1557 C1586 0.950 . S
H1558 C1588 0.950 . S
H1559 C1589 0.950 . S
C1560 H1542 0.951 . S
C1560 C1561 1.366 . S
C1560 C1562 1.388 . S
C1561 C1560 1.366 . S
C1561 C1565 1.385 . S
C1562 H1543 0.951 . S
C1562 C1560 1.388 . S
C1562 C1563 1.366 . S
C1563 C1562 1.366 . S
C1563 C1564 1.414 . S
C1563 C1566 1.499 . S
C1564 H1544 0.950 . S
C1564 C1563 1.414 . S
C1564 C1565 1.374 . S
C1565 H1545 0.950 . S
C1565 C1561 1.385 . S
C1565 C1564 1.374 . S
C1566 C1563 1.499 . S
C1566 C1567 1.373 . S
C1566 C1568 1.389 . S
C1567 H1546 0.950 . S
C1567 C1566 1.373 . S
C1567 C1583 1.377 . S
C1568 C1566 1.389 . S
C1568 C1569 1.524 . S
C1568 C1582 1.377 . S
C1569 C1568 1.524 . S
C1569 C1570 1.397 . S
C1569 C1574 1.363 . S
C1570 H1547 0.950 . S
C1570 C1569 1.397 . S
C1570 C1571 1.334 . S
C1571 H1548 0.950 . S
C1571 C1570 1.334 . S
C1571 C1572 1.287 . S
C1572 C1571 1.287 . S
C1572 C1573 1.524 1_655 S
C1572 H1591 0.913 1_655 S
C1573 H1549 0.950 . S
C1573 C1572 1.524 1_455 S
C1573 C1574 1.415 1_455 S
C1574 H1550 0.950 . S
C1574 C1569 1.363 . S
C1574 C1573 1.415 1_655 S
C1575 H1551 0.951 . S
C1575 C1576 1.366 . S
C1575 C1577 1.388 . S
C1576 C1575 1.366 . S
C1576 C1580 1.385 . S
C1577 H1552 0.951 . S
C1577 C1575 1.388 . S
C1577 C1578 1.366 . S
C1578 C1577 1.366 . S
C1578 C1579 1.414 . S
C1578 C1581 1.499 . S
C1579 H1553 0.950 . S
C1579 C1578 1.414 . S
C1579 C1580 1.374 . S
C1580 H1554 0.950 . S
C1580 C1576 1.385 . S
C1580 C1579 1.374 . S
C1581 C1578 1.499 . S
C1581 C1582 1.373 . S
C1581 C1583 1.389 . S
C1582 H1555 0.950 . S
C1582 C1568 1.377 . S
C1582 C1581 1.373 . S
C1583 C1567 1.377 . S
C1583 C1581 1.389 . S
C1583 C1584 1.524 . S
C1584 C1583 1.524 . S
C1584 C1585 1.397 . S
C1584 C1589 1.363 . S
C1585 H1556 0.950 . S
C1585 C1584 1.397 . S
C1585 C1586 1.334 . S
C1586 H1557 0.950 . S
C1586 C1585 1.334 . S
C1586 C1587 1.287 . S
C1587 C1586 1.287 . S
C1587 C1588 1.524 . S
C1587 H1590 0.999 . S
C1588 H1558 0.950 . S
C1588 C1587 1.524 . S
C1588 C1589 1.415 . S
C1589 H1559 0.950 . S
C1589 C1584 1.363 . S
C1589 C1588 1.415 . S
H1590 C1587 0.999 . S
H1591 C1572 0.913 1_455 S
H1592 C1610 0.951 . S
H1593 C1612 0.951 . S
H1594 C1614 0.950 . S
H1595 C1615 0.950 . S
H1596 C1617 0.950 . S
H1597 C1620 0.950 . S
H1598 C1621 0.950 . S
H1599 C1623 0.950 1_455 S
H1600 C1624 0.950 . S
H1601 C1625 0.951 . S
H1602 C1627 0.951 . S
H1603 C1629 0.950 . S
H1604 C1630 0.950 . S
H1605 C1632 0.950 . S
H1606 C1635 0.950 . S
H1607 C1636 0.950 . S
H1608 C1638 0.950 . S
H1609 C1639 0.950 . S
C1610 H1592 0.951 . S
C1610 C1611 1.366 . S
C1610 C1612 1.388 . S
C1611 C1610 1.366 . S
C1611 C1615 1.385 . S
C1612 H1593 0.951 . S
C1612 C1610 1.388 . S
C1612 C1613 1.366 . S
C1613 C1612 1.366 . S
C1613 C1614 1.414 . S
C1613 C1616 1.499 . S
C1614 H1594 0.950 . S
C1614 C1613 1.414 . S
C1614 C1615 1.374 . S
C1615 H1595 0.950 . S
C1615 C1611 1.385 . S
C1615 C1614 1.374 . S
C1616 C1613 1.499 . S
C1616 C1617 1.373 . S
C1616 C1618 1.389 . S
C1617 H1596 0.950 . S
C1617 C1616 1.373 . S
C1617 C1633 1.377 . S
C1618 C1616 1.389 . S
C1618 C1619 1.524 . S
C1618 C1632 1.377 . S
C1619 C1618 1.524 . S
C1619 C1620 1.397 . S
C1619 C1624 1.363 . S
C1620 H1597 0.950 . S
C1620 C1619 1.397 . S
C1620 C1621 1.334 . S
C1621 H1598 0.950 . S
C1621 C1620 1.334 . S
C1621 C1622 1.287 . S
C1622 C1621 1.287 . S
C1622 C1623 1.524 . S
C1622 H1641 0.913 1_655 S
C1623 H1599 0.950 1_655 S
C1623 C1622 1.524 . S
C1623 C1624 1.415 . S
C1624 H1600 0.950 . S
C1624 C1619 1.363 . S
C1624 C1623 1.415 . S
C1625 H1601 0.951 . S
C1625 C1626 1.366 . S
C1625 C1627 1.388 . S
C1626 C1625 1.366 . S
C1626 C1630 1.385 . S
C1627 H1602 0.951 . S
C1627 C1625 1.388 . S
C1627 C1628 1.366 . S
C1628 C1627 1.366 . S
C1628 C1629 1.414 . S
C1628 C1631 1.499 . S
C1629 H1603 0.950 . S
C1629 C1628 1.414 . S
C1629 C1630 1.374 . S
C1630 H1604 0.950 . S
C1630 C1626 1.385 . S
C1630 C1629 1.374 . S
C1631 C1628 1.499 . S
C1631 C1632 1.373 . S
C1631 C1633 1.389 . S
C1632 H1605 0.950 . S
C1632 C1618 1.377 . S
C1632 C1631 1.373 . S
C1633 C1617 1.377 . S
C1633 C1631 1.389 . S
C1633 C1634 1.524 . S
C1634 C1633 1.524 . S
C1634 C1635 1.397 . S
C1634 C1639 1.363 . S
C1635 H1606 0.950 . S
C1635 C1634 1.397 . S
C1635 C1636 1.334 . S
C1636 H1607 0.950 . S
C1636 C1635 1.334 . S
C1636 C1637 1.287 . S
C1637 C1636 1.287 . S
C1637 C1638 1.524 . S
C1637 H1640 0.999 . S
C1638 H1608 0.950 . S
C1638 C1637 1.524 . S
C1638 C1639 1.415 . S
C1639 H1609 0.950 . S
C1639 C1634 1.363 . S
C1639 C1638 1.415 . S
H1640 C1637 0.999 . S
H1641 C1622 0.913 1_455 S
H1642 C1660 0.951 . S
H1643 C1662 0.951 . S
H1644 C1664 0.950 . S
H1645 C1665 0.950 . S
H1646 C1667 0.950 . S
H1647 C1670 0.950 . S
H1648 C1671 0.950 . S
H1649 C1673 0.950 . S
H1650 C1674 0.950 . S
H1651 C1675 0.951 . S
H1652 C1677 0.951 . S
H1653 C1679 0.950 . S
H1654 C1680 0.950 . S
H1655 C1682 0.950 . S
H1656 C1685 0.950 . S
H1657 C1686 0.950 . S
H1658 C1688 0.950 . S
H1659 C1689 0.950 . S
C1660 H1642 0.951 . S
C1660 C1661 1.366 . S
C1660 C1662 1.388 . S
C1661 C1660 1.366 . S
C1661 C1665 1.385 . S
C1662 H1643 0.951 . S
C1662 C1660 1.388 . S
C1662 C1663 1.366 . S
C1663 C1662 1.366 . S
C1663 C1664 1.414 . S
C1663 C1666 1.499 . S
C1664 H1644 0.950 . S
C1664 C1663 1.414 . S
C1664 C1665 1.374 . S
C1665 H1645 0.950 . S
C1665 C1661 1.385 . S
C1665 C1664 1.374 . S
C1666 C1663 1.499 . S
C1666 C1667 1.373 . S
C1666 C1668 1.389 . S
C1667 H1646 0.950 . S
C1667 C1666 1.373 . S
C1667 C1683 1.377 . S
C1668 C1666 1.389 . S
C1668 C1669 1.524 . S
C1668 C1682 1.377 . S
C1669 C1668 1.524 . S
C1669 C1670 1.397 . S
C1669 C1674 1.363 . S
C1670 H1647 0.950 . S
C1670 C1669 1.397 . S
C1670 C1671 1.334 . S
C1671 H1648 0.950 . S
C1671 C1670 1.334 . S
C1671 C1672 1.287 . S
C1672 C1671 1.287 . S
C1672 C1673 1.524 . S
C1672 H1691 0.913 . S
C1673 H1649 0.950 . S
C1673 C1672 1.524 . S
C1673 C1674 1.415 . S
C1674 H1650 0.950 . S
C1674 C1669 1.363 . S
C1674 C1673 1.415 . S
C1675 H1651 0.951 . S
C1675 C1676 1.366 . S
C1675 C1677 1.388 . S
C1676 C1675 1.366 . S
C1676 C1680 1.385 . S
C1677 H1652 0.951 . S
C1677 C1675 1.388 . S
C1677 C1678 1.366 . S
C1678 C1677 1.366 . S
C1678 C1679 1.414 . S
C1678 C1681 1.499 . S
C1679 H1653 0.950 . S
C1679 C1678 1.414 . S
C1679 C1680 1.374 . S
C1680 H1654 0.950 . S
C1680 C1676 1.385 . S
C1680 C1679 1.374 . S
C1681 C1678 1.499 . S
C1681 C1682 1.373 . S
C1681 C1683 1.389 . S
C1682 H1655 0.950 . S
C1682 C1668 1.377 . S
C1682 C1681 1.373 . S
C1683 C1667 1.377 . S
C1683 C1681 1.389 . S
C1683 C1684 1.524 . S
C1684 C1683 1.524 . S
C1684 C1685 1.397 . S
C1684 C1689 1.363 . S
C1685 H1656 0.950 . S
C1685 C1684 1.397 . S
C1685 C1686 1.334 . S
C1686 H1657 0.950 . S
C1686 C1685 1.334 . S
C1686 C1687 1.287 . S
C1687 C1686 1.287 . S
C1687 C1688 1.524 . S
C1687 H1690 0.999 . S
C1688 H1658 0.950 . S
C1688 C1687 1.524 . S
C1688 C1689 1.415 . S
C1689 H1659 0.950 . S
C1689 C1684 1.363 . S
C1689 C1688 1.415 . S
H1690 C1687 0.999 . S
H1691 C1672 0.913 . S
H1692 C1710 0.951 . S
H1693 C1712 0.951 . S
H1694 C1714 0.950 . S
H1695 C1715 0.950 . S
H1696 C1717 0.950 . S
H1697 C1720 0.950 . S
H1698 C1721 0.950 . S
H1699 C1723 0.950 . S
H1700 C1724 0.950 . S
H1701 C1725 0.951 . S
H1702 C1727 0.951 . S
H1703 C1729 0.950 . S
H1704 C1730 0.950 . S
H1705 C1732 0.950 . S
H1706 C1735 0.950 . S
H1707 C1736 0.950 . S
H1708 C1738 0.950 . S
H1709 C1739 0.950 . S
C1710 H1692 0.951 . S
C1710 C1711 1.366 . S
C1710 C1712 1.388 . S
C1711 C1710 1.366 . S
C1711 C1715 1.385 . S
C1712 H1693 0.951 . S
C1712 C1710 1.388 . S
C1712 C1713 1.366 . S
C1713 C1712 1.366 . S
C1713 C1714 1.414 . S
C1713 C1716 1.499 . S
C1714 H1694 0.950 . S
C1714 C1713 1.414 . S
C1714 C1715 1.374 . S
C1715 H1695 0.950 . S
C1715 C1711 1.385 . S
C1715 C1714 1.374 . S
C1716 C1713 1.499 . S
C1716 C1717 1.373 . S
C1716 C1718 1.389 . S
C1717 H1696 0.950 . S
C1717 C1716 1.373 . S
C1717 C1733 1.377 . S
C1718 C1716 1.389 . S
C1718 C1719 1.524 . S
C1718 C1732 1.377 . S
C1719 C1718 1.524 . S
C1719 C1720 1.397 . S
C1719 C1724 1.363 . S
C1720 H1697 0.950 . S
C1720 C1719 1.397 . S
C1720 C1721 1.334 . S
C1721 H1698 0.950 . S
C1721 C1720 1.334 . S
C1721 C1722 1.287 . S
C1722 C1721 1.287 . S
C1722 C1723 1.524 . S
C1722 H1741 0.913 . S
C1723 H1699 0.950 . S
C1723 C1722 1.524 . S
C1723 C1724 1.415 . S
C1724 H1700 0.950 . S
C1724 C1719 1.363 . S
C1724 C1723 1.415 . S
C1725 H1701 0.951 . S
C1725 C1726 1.366 . S
C1725 C1727 1.388 . S
C1726 C1725 1.366 . S
C1726 C1730 1.385 . S
C1727 H1702 0.951 . S
C1727 C1725 1.388 . S
C1727 C1728 1.366 . S
C1728 C1727 1.366 . S
C1728 C1729 1.414 . S
C1728 C1731 1.499 . S
C1729 H1703 0.950 . S
C1729 C1728 1.414 . S
C1729 C1730 1.374 . S
C1730 H1704 0.950 . S
C1730 C1726 1.385 . S
C1730 C1729 1.374 . S
C1731 C1728 1.499 . S
C1731 C1732 1.373 . S
C1731 C1733 1.389 . S
C1732 H1705 0.950 . S
C1732 C1718 1.377 . S
C1732 C1731 1.373 . S
C1733 C1717 1.377 . S
C1733 C1731 1.389 . S
C1733 C1734 1.524 . S
C1734 C1733 1.524 . S
C1734 C1735 1.397 . S
C1734 C1739 1.363 . S
C1735 H1706 0.950 . S
C1735 C1734 1.397 . S
C1735 C1736 1.334 . S
C1736 H1707 0.950 . S
C1736 C1735 1.334 . S
C1736 C1737 1.287 . S
C1737 C1736 1.287 . S
C1737 C1738 1.524 . S
C1737 H1740 0.999 . S
C1738 H1708 0.950 . S
C1738 C1737 1.524 . S
C1738 C1739 1.415 . S
C1739 H1709 0.950 . S
C1739 C1734 1.363 . S
C1739 C1738 1.415 . S
H1740 C1737 0.999 . S
H1741 C1722 0.913 . S
H1742 C1760 0.951 . S
H1743 C1762 0.951 . S
H1744 C1764 0.950 . S
H1745 C1765 0.950 . S
H1746 C1767 0.950 . S
H1747 C1770 0.950 . S
H1748 C1771 0.950 . S
H1749 C1773 0.950 . S
H1750 C1774 0.950 . S
H1751 C1775 0.951 . S
H1752 C1777 0.951 . S
H1753 C1779 0.950 . S
H1754 C1780 0.950 . S
H1755 C1782 0.950 . S
H1756 C1785 0.950 . S
H1757 C1786 0.950 . S
H1758 C1788 0.950 . S
H1759 C1789 0.950 . S
C1760 H1742 0.951 . S
C1760 C1761 1.366 . S
C1760 C1762 1.388 . S
C1761 C1760 1.366 . S
C1761 C1765 1.385 . S
C1762 H1743 0.951 . S
C1762 C1760 1.388 . S
C1762 C1763 1.366 . S
C1763 C1762 1.366 . S
C1763 C1764 1.414 . S
C1763 C1766 1.499 . S
C1764 H1744 0.950 . S
C1764 C1763 1.414 . S
C1764 C1765 1.374 . S
C1765 H1745 0.950 . S
C1765 C1761 1.385 . S
C1765 C1764 1.374 . S
C1766 C1763 1.499 . S
C1766 C1767 1.373 . S
C1766 C1768 1.389 . S
C1767 H1746 0.950 . S
C1767 C1766 1.373 . S
C1767 C1783 1.377 . S
C1768 C1766 1.389 . S
C1768 C1769 1.524 . S
C1768 C1782 1.377 . S
C1769 C1768 1.524 . S
C1769 C1770 1.397 . S
C1769 C1774 1.363 . S
C1770 H1747 0.950 . S
C1770 C1769 1.397 . S
C1770 C1771 1.334 . S
C1771 H1748 0.950 . S
C1771 C1770 1.334 . S
C1771 C1772 1.287 . S
C1772 C1771 1.287 . S
C1772 C1773 1.524 . S
C1772 H1791 0.913 . S
C1773 H1749 0.950 . S
C1773 C1772 1.524 . S
C1773 C1774 1.415 . S
C1774 H1750 0.950 . S
C1774 C1769 1.363 . S
C1774 C1773 1.415 . S
C1775 H1751 0.951 . S
C1775 C1776 1.366 . S
C1775 C1777 1.388 . S
C1776 C1775 1.366 . S
C1776 C1780 1.385 . S
C1777 H1752 0.951 . S
C1777 C1775 1.388 . S
C1777 C1778 1.366 . S
C1778 C1777 1.366 . S
C1778 C1779 1.414 . S
C1778 C1781 1.499 . S
C1779 H1753 0.950 . S
C1779 C1778 1.414 . S
C1779 C1780 1.374 . S
C1780 H1754 0.950 . S
C1780 C1776 1.385 . S
C1780 C1779 1.374 . S
C1781 C1778 1.499 . S
C1781 C1782 1.373 . S
C1781 C1783 1.389 . S
C1782 H1755 0.950 . S
C1782 C1768 1.377 . S
C1782 C1781 1.373 . S
C1783 C1767 1.377 . S
C1783 C1781 1.389 . S
C1783 C1784 1.524 . S
C1784 C1783 1.524 . S
C1784 C1785 1.397 . S
C1784 C1789 1.363 . S
C1785 H1756 0.950 . S
C1785 C1784 1.397 . S
C1785 C1786 1.334 . S
C1786 H1757 0.950 . S
C1786 C1785 1.334 . S
C1786 C1787 1.287 . S
C1787 C1786 1.287 . S
C1787 C1788 1.524 . S
C1787 H1790 0.999 . S
C1788 H1758 0.950 . S
C1788 C1787 1.524 . S
C1788 C1789 1.415 . S
C1789 H1759 0.950 . S
C1789 C1784 1.363 . S
C1789 C1788 1.415 . S
H1790 C1787 0.999 . S
H1791 C1772 0.913 . S
C611 C221 1.468 . S
C626 C330 1.466 . S
C676 C414 1.468 . S
C661 C241 1.445 . S
C726 C407 1.473 . S
C711 C157 1.457 . S
C761 C177 1.432 . S
C776 C323 1.477 . S
C826 C487 1.467 . S
C811 C93 1.438 . S
C876 C571 1.470 . S
C861 C113 1.477 . S
C911 C29 1.421 . S
C926 C564 1.472 . S
C961 C49 1.468 . S
C976 C480 1.476 . S
C1026 C314 1.342 . S
C1011 C61 1.503 . S
C1076 C398 1.346 . S
C1061 C17 1.473 . S
C1126 C409 1.399 . S
C1111 C125 1.525 . S
C1176 C325 1.400 . S
C1161 C81 1.499 . S
C1226 C493 1.341 . S
C1211 C189 1.458 . S
C1261 C145 1.506 . S
C1276 C577 1.346 . S
C1326 C566 1.400 . S
C1311 C253 1.485 . S
C1361 C209 1.528 . S
C1376 C482 1.401 . S
C1426 C312 1.573 . S
C1411 C23 1.527 . S
C1476 C396 1.587 . S
C1461 C55 1.572 . S
C1511 C87 1.522 . S
C1526 C403 1.548 . S
C1576 C319 1.558 . S
C1561 C119 1.559 . S
C1626 C491 1.573 . S
C1611 C151 1.565 . S
C1661 C183 1.531 . S
C1676 C575 1.587 . S
C1711 C215 1.553 . S
C1726 C582 1.548 . S
C1761 C247 1.521 . S
C1776 C498 1.559 . S
