# Generated by pormake.
# Topology rtl, (3,6)-cn, num edge types: 1
# Building blocks:
#     Node 0, Type 0, BuildingBlock: INOVEN_clean_linker_0, # of connection points: 3
#     Node 1, Type 0, BuildingBlock: INOVEN_clean_linker_0, # of connection points: 3
#     Node 2, Type 0, BuildingBlock: INOVEN_clean_linker_0, # of connection points: 3
#     Node 3, Type 0, BuildingBlock: INOVEN_clean_linker_0, # of connection points: 3
#     Node 4, Type 1, BuildingBlock: FUNLAD_clean_sbu_0, # of connection points: 6
#     Node 5, Type 1, BuildingBlock: FUNLAD_clean_sbu_0, # of connection points: 6
#     Edge 6, Type (0, 1), BuildingBlock: XIVTED_clean_linker_0, # of connection points: 2
#     Edge 7, Type (0, 1), BuildingBlock: XIVTED_clean_linker_0, # of connection points: 2
#     Edge 8, Type (0, 1), BuildingBlock: XIVTED_clean_linker_0, # of connection points: 2
#     Edge 9, Type (0, 1), BuildingBlock: XIVTED_clean_linker_0, # of connection points: 2
#     Edge 10, Type (0, 1), BuildingBlock: XIVTED_clean_linker_0, # of connection points: 2
#     Edge 11, Type (0, 1), BuildingBlock: XIVTED_clean_linker_0, # of connection points: 2
#     Edge 12, Type (0, 1), BuildingBlock: XIVTED_clean_linker_0, # of connection points: 2
#     Edge 13, Type (0, 1), BuildingBlock: XIVTED_clean_linker_0, # of connection points: 2
#     Edge 14, Type (0, 1), BuildingBlock: XIVTED_clean_linker_0, # of connection points: 2
#     Edge 15, Type (0, 1), BuildingBlock: XIVTED_clean_linker_0, # of connection points: 2
#     Edge 16, Type (0, 1), BuildingBlock: XIVTED_clean_linker_0, # of connection points: 2
#     Edge 17, Type (0, 1), BuildingBlock: XIVTED_clean_linker_0, # of connection points: 2
# Relax obj value: 0.003
# Max RMSD: 0.044
# Mean RMSD: 0.028
data_MOF--net-rtl--node1-FUNLAD_clean_sbu_0--node2-INOVEN_clean_linker_0--edge1-XIVTED_clean_linker_0
_symmetry_space_group_name_H-M    P1
_symmetry_Int_Tables_number       1
_symmetry_cell_setting            triclinic
loop_
_symmetry_equiv_pos_as_xyz
'x, y, z'
_cell_length_a     40.699622
_cell_length_b     40.230639
_cell_length_c     21.332467
_cell_angle_alpha  91.376701
_cell_angle_beta   92.38761
_cell_angle_gamma 90.025531
loop_
_atom_site_label
_atom_site_type_symbol
_atom_site_fract_x
_atom_site_fract_y
_atom_site_fract_z
_atom_type_partial_charge
H0 H 0.1706 0.81496 0.89551 0.0
H1 H 0.10123 0.87207 -0.00027 0.0
H2 H 0.17468 0.81409 0.09768 0.0
N3 N 0.20169 0.78836 -0.00764 0.0
N4 N 0.21777 0.77898 0.03974 0.0
C5 C 0.1611 0.82322 0.93998 0.0
C6 C 0.13414 0.84488 0.94101 0.0
C7 C 0.17569 0.81172 -0.00395 0.0
C8 C 0.16357 0.82268 0.05397 0.0
C9 C 0.13635 0.84409 0.05529 0.0
C10 C 0.12173 0.85486 -0.00128 0.0
H11 H 0.6792 0.69465 0.64055 0.0
H12 H 0.6066 0.63495 0.538 0.0
H13 H 0.67648 0.69105 0.43823 0.0
N14 N 0.70664 0.71967 0.54174 0.0
N15 N 0.71428 0.73464 0.49389 0.0
C16 C 0.66835 0.68532 0.5963 0.0
C17 C 0.64121 0.66379 0.59576 0.0
C18 C 0.68077 0.69592 0.53971 0.0
C19 C 0.66681 0.68347 0.48225 0.0
C20 C 0.64 0.66151 0.48149 0.0
C21 C 0.62713 0.65218 0.53834 0.0
H22 H 0.82492 0.1961 0.88587 0.0
H23 H 0.8989 0.14093 0.98865 0.0
H24 H 0.82684 0.19677 0.08809 0.0
N25 N 0.79608 0.22199 0.98422 0.0
N26 N 0.78693 0.23714 0.03213 0.0
C27 C 0.83597 0.18815 0.93012 0.0
C28 C 0.86375 0.16749 0.93067 0.0
C29 C 0.82294 0.19947 0.98661 0.0
C30 C 0.83705 0.18874 0.04414 0.0
C31 C 0.86457 0.16773 0.04496 0.0
C32 C 0.87798 0.15764 0.98818 0.0
H33 H 0.32814 0.31041 0.39255 0.0
H34 H 0.38859 0.38155 0.49747 0.0
H35 H 0.32353 0.31822 0.59404 0.0
N36 N 0.29887 0.28561 0.4891 0.0
N37 N 0.28304 0.27783 0.5354 0.0
C38 C 0.33623 0.3219 0.43702 0.0
C39 C 0.36014 0.34704 0.43867 0.0
C40 C 0.32289 0.31126 0.49274 0.0
C41 C 0.3336 0.32615 0.5506 0.0
C42 C 0.35707 0.35174 0.55219 0.0
C43 C 0.37029 0.36189 0.49623 0.0
C44 C 0.03058 0.96737 0.40342 0.0
N45 N 0.05831 0.05647 0.49808 0.0
C46 C 0.09002 0.04582 0.49687 0.0
C47 C 0.1159 0.06874 0.50032 0.0
C48 C 0.10905 0.10286 0.50587 0.0
C49 C 0.07613 0.11312 0.50695 0.0
C50 C 0.05103 0.08943 0.50261 0.0
Zn51 Zn 0.0205 0.02279 0.4941 0.0
C52 C 0.96804 0.04171 0.39884 0.0
N53 N 0.94008 0.95417 0.48664 0.0
C54 C 0.94775 0.92139 0.49175 0.0
C55 C 0.90824 0.96438 0.48086 0.0
C56 C 0.88263 0.94118 0.48044 0.0
C57 C 0.8899 0.90728 0.48681 0.0
C58 C 0.92295 0.89747 0.49231 0.0
Zn59 Zn 0.97772 0.98804 0.48982 0.0
O60 O 0.04432 0.99379 0.42541 0.0
C61 C 0.03026 0.9694 0.58527 0.0
O62 O 0.00247 0.95928 0.42199 0.0
H63 H 0.90268 0.99056 0.47713 0.0
H64 H 0.09529 0.01951 0.49356 0.0
H65 H 0.97319 0.91373 0.49577 0.0
O66 O 0.04443 0.99491 0.56507 0.0
O67 O 0.00194 0.96126 0.56262 0.0
H68 H 0.02568 0.09742 0.50299 0.0
O69 O 0.95346 0.01721 0.55716 0.0
O70 O 0.99587 0.05101 0.56332 0.0
O71 O 0.95419 0.01566 0.41771 0.0
O72 O 0.99605 0.05022 0.42258 0.0
C73 C 0.96742 0.04317 0.58058 0.0
H74 H 0.141 0.05984 0.49981 0.0
H75 H 0.06982 0.13924 0.51039 0.0
H76 H 0.85741 0.94974 0.4765 0.0
H77 H 0.92958 0.87152 0.49648 0.0
C78 C 0.46763 0.47203 0.91753 0.0
N79 N 0.55706 0.45255 0.0162 0.0
C80 C 0.54897 0.41985 0.00805 0.0
C81 C 0.57343 0.39553 0.00799 0.0
C82 C 0.60654 0.40489 0.0172 0.0
C83 C 0.61422 0.43878 0.02567 0.0
C84 C 0.58899 0.46233 0.02463 0.0
Zn85 Zn 0.52033 0.48733 0.01659 0.0
C86 C 0.53325 0.54368 0.93404 0.0
N87 N 0.44261 0.55879 0.01722 0.0
C88 C 0.41056 0.54938 0.00896 0.0
C89 C 0.45102 0.59128 0.02745 0.0
C90 C 0.42677 0.6157 0.0306 0.0
C91 C 0.39353 0.6067 0.02238 0.0
C92 C 0.38551 0.57309 0.01097 0.0
Zn93 Zn 0.4792 0.52391 0.01607 0.0
O94 O 0.49478 0.46142 0.94098 0.0
C95 C 0.46651 0.46753 0.09879 0.0
O96 O 0.45546 0.49875 0.9393 0.0
H97 H 0.47662 0.59831 0.03344 0.0
H98 H 0.52344 0.41255 0.00192 0.0
H99 H 0.40439 0.52341 0.00122 0.0
O100 O 0.49484 0.45909 0.08124 0.0
O101 O 0.45346 0.49409 0.0784 0.0
H102 H 0.59494 0.48844 0.03069 0.0
O103 O 0.50346 0.5486 0.09315 0.0
O104 O 0.54495 0.51387 0.09205 0.0
O105 O 0.50553 0.553 0.95347 0.0
O106 O 0.54543 0.51629 0.95227 0.0
C107 C 0.53134 0.53948 0.11539 0.0
H108 H 0.56648 0.36963 0.00195 0.0
H109 H 0.6395 0.44701 0.03232 0.0
H110 H 0.43397 0.64142 0.03873 0.0
H111 H 0.36012 0.56514 0.00485 0.0
H112 H 0.24118 0.26388 0.62316 0.0
H113 H 0.16353 0.10619 0.43505 0.0
H114 H 0.27079 0.23295 0.43919 0.0
H115 H 0.11586 0.156 0.58777 0.0
H116 H 0.20719 0.14826 0.44279 0.0
H117 H 0.19889 0.22017 0.61793 0.0
C118 C 0.23868 0.24777 0.58182 0.0
C119 C 0.25915 0.25206 0.53163 0.0
C120 C 0.18716 0.14996 0.47458 0.0
C121 C 0.21139 0.20204 0.5251 0.0
C122 C 0.16238 0.12588 0.47043 0.0
C123 C 0.13602 0.12771 0.51071 0.0
C124 C 0.18578 0.17579 0.51987 0.0
C125 C 0.13557 0.1539 0.55536 0.0
C126 C 0.21463 0.22298 0.57869 0.0
C127 C 0.25529 0.23061 0.47884 0.0
N128 N 0.16012 0.17685 0.55888 0.0
N129 N 0.23187 0.20645 0.47705 0.0
H130 H 0.23179 0.74003 0.93795 0.0
H131 H 0.38799 0.6569 0.11009 0.0
H132 H 0.26063 0.76226 0.13112 0.0
H133 H 0.33987 0.61476 0.94254 0.0
H134 H 0.34507 0.69946 0.11421 0.0
H135 H 0.27487 0.69775 0.9342 0.0
C136 C 0.24734 0.73609 0.97953 0.0
C137 C 0.24291 0.75467 0.03514 0.0
C138 C 0.34387 0.68085 0.07665 0.0
C139 C 0.29215 0.7064 0.031 0.0
C140 C 0.36842 0.6567 0.07407 0.0
C141 C 0.36745 0.63231 0.02587 0.0
C142 C 0.31839 0.68087 0.03022 0.0
C143 C 0.34137 0.63296 0.98077 0.0
C144 C 0.27181 0.71186 0.97743 0.0
C145 C 0.26351 0.74839 0.08759 0.0
N146 N 0.31797 0.65697 0.98383 0.0
N147 N 0.2874 0.72486 0.08428 0.0
H148 H 0.75901 0.74936 0.58958 0.0
H149 H 0.83495 0.90131 0.40876 0.0
H150 H 0.72759 0.77462 0.40132 0.0
H151 H 0.88434 0.8562 0.56803 0.0
H152 H 0.79176 0.85895 0.41109 0.0
H153 H 0.80193 0.79206 0.58814 0.0
C154 C 0.76118 0.76396 0.54796 0.0
C155 C 0.73981 0.7587 0.49525 0.0
C156 C 0.81208 0.85832 0.44546 0.0
C157 C 0.78854 0.80755 0.49354 0.0
C158 C 0.83658 0.88258 0.44439 0.0
C159 C 0.86327 0.88217 0.48816 0.0
C160 C 0.81406 0.83374 0.49115 0.0
C161 C 0.86435 0.85718 0.53302 0.0
C162 C 0.78569 0.78824 0.54709 0.0
C163 C 0.74371 0.77813 0.4426 0.0
N164 N 0.84004 0.83404 0.53353 0.0
N165 N 0.7675 0.80186 0.44306 0.0
H166 H 0.76986 0.27744 0.12531 0.0
H167 H 0.61398 0.35186 0.93616 0.0
H168 H 0.74359 0.24879 0.93385 0.0
H169 H 0.65884 0.39989 0.10129 0.0
H170 H 0.65752 0.30983 0.9397 0.0
H171 H 0.72524 0.31856 0.12282 0.0
C172 C 0.75455 0.27987 0.08292 0.0
C173 C 0.76039 0.26002 0.0299 0.0
C174 C 0.65785 0.3296 0.97507 0.0
C175 C 0.70942 0.30652 0.02634 0.0
C176 C 0.63294 0.35346 0.97327 0.0
C177 C 0.63286 0.3794 0.01845 0.0
C178 C 0.68261 0.33144 0.02288 0.0
C179 C 0.65818 0.38049 0.06519 0.0
C180 C 0.72926 0.30329 0.08134 0.0
C181 C 0.73999 0.2638 0.97576 0.0
N182 N 0.68195 0.35677 0.06638 0.0
N183 N 0.71532 0.2866 0.97546 0.0
H184 H 0.1693 0.87568 0.15404 0.0
H185 H 0.00492 0.91411 0.33611 0.0
H186 H 0.07306 0.8409 0.09082 0.0
H187 H 0.09402 0.9717 0.36562 0.0
H188 H 0.03221 0.87968 0.25819 0.0
H189 H 0.14473 0.9031 0.24503 0.0
C190 C 0.14312 0.87331 0.16012 0.0
C191 C 0.12307 0.85624 0.11505 0.0
C192 C 0.04581 0.89979 0.28185 0.0
C193 C 0.0949 0.8875 0.21798 0.0
C194 C 0.03026 0.91948 0.32634 0.0
C195 C 0.04712 0.94604 0.357 0.0
C196 C 0.07857 0.90649 0.26819 0.0
C197 C 0.08 0.95168 0.34264 0.0
C198 C 0.12909 0.88915 0.21155 0.0
C199 C 0.08925 0.85408 0.12447 0.0
N200 N 0.09466 0.93208 0.29916 0.0
N201 N 0.0762 0.86965 0.17477 0.0
H202 H 0.57808 0.67023 0.63058 0.0
H203 H 0.59665 0.53663 0.89729 0.0
H204 H 0.67222 0.63116 0.69235 0.0
H205 H 0.51053 0.59827 0.8718 0.0
H206 H 0.62492 0.57044 0.82232 0.0
H207 H 0.55294 0.64431 0.7194 0.0
C208 C 0.59348 0.65655 0.66362 0.0
C209 C 0.62716 0.65269 0.65445 0.0
C210 C 0.59993 0.5767 0.83356 0.0
C211 C 0.59861 0.62242 0.7552 0.0
C212 C 0.58371 0.55731 0.87604 0.0
C213 C 0.55107 0.56447 0.89042 0.0
C214 C 0.58327 0.60318 0.80468 0.0
C215 C 0.53562 0.59174 0.8619 0.0
C216 C 0.57917 0.64175 0.71419 0.0
C217 C 0.64616 0.63477 0.69825 0.0
N218 N 0.55175 0.6099 0.81997 0.0
N219 N 0.63152 0.61983 0.7464 0.0
H220 H 0.92881 0.16938 0.08621 0.0
H221 H 0.90439 0.03738 0.35199 0.0
H222 H 0.8331 0.13587 0.13701 0.0
H223 H 0.99417 0.09319 0.3359 0.0
H224 H 0.87796 0.07185 0.2715 0.0
H225 H 0.95345 0.14102 0.17673 0.0
C226 C 0.913 0.15635 0.11706 0.0
C227 C 0.87895 0.15484 0.10433 0.0
C228 C 0.90338 0.07664 0.28589 0.0
C229 C 0.9069 0.12188 0.20715 0.0
C230 C 0.91855 0.05685 0.33151 0.0
C231 C 0.9516 0.06229 0.35041 0.0
C232 C 0.92151 0.10177 0.25846 0.0
C233 C 0.96867 0.08804 0.32264 0.0
C234 C 0.92702 0.14018 0.16863 0.0
C235 C 0.85945 0.13773 0.14561 0.0
N236 N 0.9535 0.10666 0.27776 0.0
N237 N 0.87376 0.12151 0.19484 0.0
H238 H 0.35295 0.41739 0.58268 0.0
H239 H 0.47864 0.40808 0.87641 0.0
H240 H 0.38752 0.32401 0.65489 0.0
H241 H 0.41595 0.49289 0.84271 0.0
H242 H 0.44831 0.37735 0.79195 0.0
H243 H 0.37792 0.44617 0.67518 0.0
C244 C 0.36549 0.40299 0.61866 0.0
C245 C 0.36822 0.36841 0.61165 0.0
C246 C 0.44115 0.40263 0.80335 0.0
C247 C 0.39741 0.40103 0.71658 0.0
C248 C 0.45856 0.42025 0.85118 0.0
C249 C 0.4499 0.45316 0.86636 0.0
C250 C 0.41523 0.41819 0.76996 0.0
C251 C 0.42351 0.46761 0.8325 0.0
C252 C 0.37974 0.41935 0.6713 0.0
C253 C 0.38477 0.35073 0.65913 0.0
N254 N 0.40728 0.45012 0.78559 0.0
N255 N 0.39916 0.36731 0.70942 0.0
H256 H 0.67151 0.63043 0.38565 0.0
H257 H 0.50506 0.58925 0.18643 0.0
H258 H 0.57535 0.66031 0.44306 0.0
H259 H 0.59509 0.53463 0.16165 0.0
H260 H 0.5324 0.62184 0.27124 0.0
H261 H 0.64579 0.60198 0.29289 0.0
C262 C 0.64504 0.63138 0.37811 0.0
C263 C 0.62543 0.64754 0.42191 0.0
C264 C 0.54618 0.60272 0.24727 0.0
C265 C 0.596 0.61514 0.3168 0.0
C266 C 0.5306 0.5841 0.19882 0.0
C267 C 0.54777 0.55902 0.16718 0.0
C268 C 0.57928 0.59651 0.26395 0.0
C269 C 0.58087 0.55355 0.18516 0.0
C270 C 0.6304 0.61496 0.32564 0.0
C271 C 0.59126 0.64785 0.41053 0.0
N272 N 0.59561 0.57221 0.23237 0.0
N273 N 0.57761 0.63185 0.35911 0.0
H274 H 0.92757 0.17062 0.89795 0.0
H275 H 0.90356 0.03914 0.61557 0.0
H276 H 0.8321 0.13536 0.83107 0.0
H277 H 0.99314 0.09519 0.65161 0.0
H278 H 0.87686 0.07351 0.69469 0.0
H279 H 0.95207 0.14323 0.80766 0.0
C280 C 0.91177 0.15739 0.86366 0.0
C281 C 0.87785 0.15507 0.87182 0.0
C282 C 0.90229 0.07841 0.68495 0.0
C283 C 0.90565 0.12326 0.76908 0.0
C284 C 0.91761 0.05869 0.64006 0.0
C285 C 0.95071 0.06415 0.6273 0.0
C286 C 0.92031 0.10352 0.71781 0.0
C287 C 0.96762 0.09 0.66011 0.0
C288 C 0.92571 0.14178 0.81219 0.0
C289 C 0.85835 0.1378 0.82613 0.0
N290 N 0.95231 0.10854 0.70419 0.0
N291 N 0.8726 0.12214 0.77701 0.0
H292 H 0.42464 0.34656 0.4115 0.0
H293 H 0.4022 0.47174 0.13174 0.0
H294 H 0.32892 0.37452 0.33659 0.0
H295 H 0.49136 0.41579 0.16639 0.0
H296 H 0.37482 0.4379 0.20804 0.0
H297 H 0.44977 0.37269 0.32283 0.0
C298 C 0.40896 0.35785 0.37566 0.0
C299 C 0.37478 0.35847 0.3809 0.0
C300 C 0.40029 0.4329 0.19847 0.0
C301 C 0.40319 0.38898 0.28035 0.0
C302 C 0.41598 0.45231 0.15526 0.0
C303 C 0.44918 0.44673 0.14305 0.0
C304 C 0.41807 0.40809 0.23027 0.0
C305 C 0.46578 0.42105 0.1745 0.0
C306 C 0.42324 0.37275 0.32518 0.0
C307 C 0.35539 0.37344 0.33367 0.0
N308 N 0.45014 0.40291 0.21708 0.0
N309 N 0.36992 0.38857 0.28562 0.0
H310 H 0.06927 0.84571 0.90379 0.0
H311 H 0.09429 0.9728 0.62993 0.0
H312 H 0.16519 0.8751 0.84651 0.0
H313 H 0.00347 0.91956 0.6516 0.0
H314 H 0.12054 0.93901 0.71165 0.0
H315 H 0.04435 0.87384 0.81324 0.0
C316 C 0.08505 0.85786 0.87165 0.0
C317 C 0.11926 0.85824 0.88247 0.0
C318 C 0.09492 0.93463 0.69822 0.0
C319 C 0.09103 0.89079 0.7795 0.0
C320 C 0.07987 0.95403 0.65188 0.0
C321 C 0.04659 0.9491 0.63419 0.0
C322 C 0.07645 0.91045 0.72758 0.0
C323 C 0.02916 0.92426 0.66387 0.0
C324 C 0.07087 0.87385 0.82001 0.0
C325 C 0.1387 0.87414 0.83945 0.0
N326 N 0.04423 0.90603 0.70943 0.0
N327 N 0.12428 0.89017 0.79014 0.0
loop_
_geom_bond_atom_site_label_1
_geom_bond_atom_site_label_2
_geom_bond_distance
_geom_bond_site_symmetry_2
_ccdc_geom_bond_type
H0 C5 0.929 . S
H1 C10 0.931 . S
H2 C8 0.930 . S
N3 N4 1.234 1_556 S
N3 C7 1.453 1_556 S
N4 N3 1.234 1_554 S
C5 H0 0.929 . S
C5 C6 1.373 . S
C5 C7 1.368 1_556 S
C6 C5 1.373 . S
C6 C10 1.397 1_556 S
C7 N3 1.453 1_554 S
C7 C5 1.368 1_554 S
C7 C8 1.373 . S
C8 H2 0.930 . S
C8 C7 1.373 . S
C8 C9 1.371 . S
C9 C8 1.371 . S
C9 C10 1.383 . S
C10 H1 0.931 . S
C10 C6 1.397 1_554 S
C10 C9 1.383 . S
H11 C16 0.929 . S
H12 C21 0.931 . S
H13 C19 0.930 . S
N14 N15 1.234 . S
N14 C18 1.453 . S
N15 N14 1.234 . S
C16 H11 0.929 . S
C16 C17 1.373 . S
C16 C18 1.368 . S
C17 C16 1.373 . S
C17 C21 1.397 . S
C18 N14 1.453 . S
C18 C16 1.368 . S
C18 C19 1.373 . S
C19 H13 0.930 . S
C19 C18 1.373 . S
C19 C20 1.371 . S
C20 C19 1.371 . S
C20 C21 1.383 . S
C21 H12 0.931 . S
C21 C17 1.397 . S
C21 C20 1.383 . S
H22 C27 0.929 . S
H23 C32 0.931 . S
H24 C30 0.930 . S
N25 N26 1.234 1_556 S
N25 C29 1.453 . S
N26 N25 1.234 1_554 S
C27 H22 0.929 . S
C27 C28 1.373 . S
C27 C29 1.368 . S
C28 C27 1.373 . S
C28 C32 1.397 1_556 S
C29 N25 1.453 . S
C29 C27 1.368 . S
C29 C30 1.373 1_556 S
C30 H24 0.930 . S
C30 C29 1.373 1_554 S
C30 C31 1.371 . S
C31 C30 1.371 . S
C31 C32 1.383 . S
C32 H23 0.931 . S
C32 C28 1.397 1_554 S
C32 C31 1.383 . S
H33 C38 0.929 . S
H34 C43 0.931 . S
H35 C41 0.930 . S
N36 N37 1.234 . S
N36 C40 1.453 . S
N37 N36 1.234 . S
C38 H33 0.929 . S
C38 C39 1.373 . S
C38 C40 1.368 . S
C39 C38 1.373 . S
C39 C43 1.397 . S
C40 N36 1.453 . S
C40 C38 1.368 . S
C40 C41 1.373 . S
C41 H35 0.930 . S
C41 C40 1.373 . S
C41 C42 1.371 . S
C42 C41 1.371 . S
C42 C43 1.383 . S
C43 H34 0.931 . S
C43 C39 1.397 . S
C43 C42 1.383 . S
C44 O60 1.251 1_565 S
C44 O62 1.254 . S
N45 C46 1.333 . S
N45 C50 1.307 . S
N45 Zn51 2.020 . S
C46 N45 1.333 . S
C46 C47 1.379 . S
C46 H64 0.952 . S
C47 C46 1.379 . S
C47 C48 1.390 . S
C47 H74 0.949 . S
C48 C47 1.390 . S
C48 C49 1.357 . S
C49 C48 1.357 . S
C49 C50 1.370 . S
C49 H75 0.950 . S
C50 N45 1.307 . S
C50 C49 1.370 . S
C50 H68 0.948 . S
Zn51 N45 2.020 . S
Zn51 O60 2.039 . S
Zn51 O66 2.019 1_545 S
Zn51 O70 2.025 1_455 S
Zn51 O72 2.024 1_455 S
C52 O71 1.246 . S
C52 O72 1.249 . S
N53 C54 1.307 . S
N53 C55 1.333 . S
N53 Zn59 2.020 . S
C54 N53 1.307 . S
C54 C58 1.370 . S
C54 H65 0.948 . S
C55 N53 1.333 . S
C55 C56 1.379 . S
C55 H63 0.952 . S
C56 C55 1.379 . S
C56 C57 1.390 . S
C56 H76 0.949 . S
C57 C56 1.390 . S
C57 C58 1.357 . S
C58 C54 1.370 . S
C58 C57 1.357 . S
C58 H77 0.950 . S
Zn59 N53 2.020 . S
Zn59 O62 2.025 1_655 S
Zn59 O67 2.024 1_655 S
Zn59 O69 2.039 1_565 S
Zn59 O71 2.034 1_565 S
O60 C44 1.251 1_545 S
O60 Zn51 2.039 . S
C61 O66 1.266 . S
C61 O67 1.249 . S
O62 C44 1.254 . S
O62 Zn59 2.025 1_455 S
H63 C55 0.952 . S
H64 C46 0.952 . S
H65 C54 0.948 . S
O66 Zn51 2.019 1_565 S
O66 C61 1.266 . S
O67 Zn59 2.024 1_455 S
O67 C61 1.249 . S
H68 C50 0.948 . S
O69 Zn59 2.039 1_545 S
O69 C73 1.251 . S
O70 Zn51 2.025 1_655 S
O70 C73 1.254 . S
O71 C52 1.246 . S
O71 Zn59 2.034 1_545 S
O72 Zn51 2.024 1_655 S
O72 C52 1.249 . S
C73 O69 1.251 . S
C73 O70 1.254 . S
H74 C47 0.949 . S
H75 C49 0.950 . S
H76 C56 0.949 . S
H77 C58 0.950 . S
C78 O94 1.251 . S
C78 O96 1.254 . S
N79 C80 1.333 . S
N79 C84 1.307 . S
N79 Zn85 2.020 . S
C80 N79 1.333 . S
C80 C81 1.379 . S
C80 H98 0.952 1_554 S
C81 C80 1.379 . S
C81 C82 1.390 . S
C81 H108 0.949 1_554 S
C82 C81 1.390 . S
C82 C83 1.357 . S
C83 C82 1.357 . S
C83 C84 1.370 . S
C83 H109 0.950 . S
C84 N79 1.307 . S
C84 C83 1.370 . S
C84 H102 0.948 . S
Zn85 N79 2.020 . S
Zn85 O94 2.039 1_554 S
Zn85 O100 2.034 . S
Zn85 O104 2.025 . S
Zn85 O106 2.024 1_554 S
C86 O105 1.246 . S
C86 O106 1.249 . S
N87 C88 1.307 . S
N87 C89 1.333 . S
N87 Zn93 2.020 . S
C88 N87 1.307 . S
C88 C92 1.370 . S
C88 H99 0.945 1_554 S
C89 N87 1.333 . S
C89 C90 1.379 . S
C89 H97 0.952 . S
C90 C89 1.379 . S
C90 C91 1.390 . S
C90 H110 0.949 . S
C91 C90 1.390 . S
C91 C92 1.357 . S
C92 C88 1.370 . S
C92 C91 1.357 . S
C92 H111 0.950 1_554 S
Zn93 N87 2.020 . S
Zn93 O96 2.025 1_554 S
Zn93 O101 2.024 . S
Zn93 O103 2.039 . S
Zn93 O105 2.034 1_554 S
O94 C78 1.251 . S
O94 Zn85 2.039 1_556 S
C95 O100 1.246 . S
C95 O101 1.249 . S
O96 C78 1.254 . S
O96 Zn93 2.025 1_556 S
H97 C89 0.952 . S
H98 C80 0.952 1_556 S
H99 C88 0.945 1_556 S
O100 Zn85 2.034 . S
O100 C95 1.246 . S
O101 Zn93 2.024 . S
O101 C95 1.249 . S
H102 C84 0.948 . S
O103 Zn93 2.039 . S
O103 C107 1.251 . S
O104 Zn85 2.025 . S
O104 C107 1.254 . S
O105 C86 1.246 . S
O105 Zn93 2.034 1_556 S
O106 Zn85 2.024 1_556 S
O106 C86 1.249 . S
C107 O103 1.251 . S
C107 O104 1.254 . S
H108 C81 0.949 1_556 S
H109 C83 0.950 . S
H110 C90 0.949 . S
H111 C92 0.950 1_556 S
H112 C118 0.930 . S
H113 C122 0.930 . S
H114 C127 0.929 . S
H115 C125 0.929 . S
H116 C120 0.929 . S
H117 C126 0.929 . S
C118 H112 0.930 . S
C118 C119 1.367 . S
C118 C126 1.378 . S
C119 C118 1.367 . S
C119 C127 1.433 . S
C120 H116 0.929 . S
C120 C122 1.378 . S
C120 C124 1.350 . S
C121 C124 1.463 . S
C121 C126 1.350 . S
C121 N129 1.427 . S
C122 H113 0.930 . S
C122 C120 1.378 . S
C122 C123 1.367 . S
C123 C122 1.367 . S
C123 C125 1.433 . S
C124 C120 1.350 . S
C124 C121 1.463 . S
C124 N128 1.427 . S
C125 H115 0.929 . S
C125 C123 1.433 . S
C125 N128 1.384 . S
C126 H117 0.929 . S
C126 C118 1.378 . S
C126 C121 1.350 . S
C127 H114 0.929 . S
C127 C119 1.433 . S
C127 N129 1.384 . S
N128 C124 1.427 . S
N128 C125 1.384 . S
N129 C121 1.427 . S
N129 C127 1.384 . S
H130 C136 0.930 . S
H131 C140 0.930 . S
H132 C145 0.929 . S
H133 C143 0.929 . S
H134 C138 0.929 . S
H135 C144 0.929 . S
C136 H130 0.930 . S
C136 C137 1.367 1_556 S
C136 C144 1.378 . S
C137 C136 1.367 1_554 S
C137 C145 1.433 . S
C138 H134 0.929 . S
C138 C140 1.378 . S
C138 C142 1.350 . S
C139 C142 1.463 . S
C139 C144 1.350 1_554 S
C139 N147 1.427 . S
C140 H131 0.930 . S
C140 C138 1.378 . S
C140 C141 1.367 . S
C141 C140 1.367 . S
C141 C143 1.433 1_554 S
C142 C138 1.350 . S
C142 C139 1.463 . S
C142 N146 1.427 1_554 S
C143 H133 0.929 . S
C143 C141 1.433 1_556 S
C143 N146 1.384 . S
C144 H135 0.929 . S
C144 C136 1.378 . S
C144 C139 1.350 1_556 S
C145 H132 0.929 . S
C145 C137 1.433 . S
C145 N147 1.384 . S
N146 C142 1.427 1_556 S
N146 C143 1.384 . S
N147 C139 1.427 . S
N147 C145 1.384 . S
H148 C154 0.930 . S
H149 C158 0.930 . S
H150 C163 0.929 . S
H151 C161 0.929 . S
H152 C156 0.929 . S
H153 C162 0.929 . S
C154 H148 0.930 . S
C154 C155 1.367 . S
C154 C162 1.378 . S
C155 C154 1.367 . S
C155 C163 1.433 . S
C156 H152 0.929 . S
C156 C158 1.378 . S
C156 C160 1.350 . S
C157 C160 1.463 . S
C157 C162 1.350 . S
C157 N165 1.427 . S
C158 H149 0.930 . S
C158 C156 1.378 . S
C158 C159 1.367 . S
C159 C158 1.367 . S
C159 C161 1.433 . S
C160 C156 1.350 . S
C160 C157 1.463 . S
C160 N164 1.427 . S
C161 H151 0.929 . S
C161 C159 1.433 . S
C161 N164 1.384 . S
C162 H153 0.929 . S
C162 C154 1.378 . S
C162 C157 1.350 . S
C163 H150 0.929 . S
C163 C155 1.433 . S
C163 N165 1.384 . S
N164 C160 1.427 . S
N164 C161 1.384 . S
N165 C157 1.427 . S
N165 C163 1.384 . S
H166 C172 0.930 . S
H167 C176 0.930 . S
H168 C181 0.929 . S
H169 C179 0.929 . S
H170 C174 0.929 . S
H171 C180 0.929 . S
C172 H166 0.930 . S
C172 C173 1.367 . S
C172 C180 1.378 . S
C173 C172 1.367 . S
C173 C181 1.433 1_554 S
C174 H170 0.929 . S
C174 C176 1.378 . S
C174 C178 1.350 1_556 S
C175 C178 1.463 . S
C175 C180 1.350 . S
C175 N183 1.427 1_554 S
C176 H167 0.930 . S
C176 C174 1.378 . S
C176 C177 1.367 1_556 S
C177 C176 1.367 1_554 S
C177 C179 1.433 . S
C178 C174 1.350 1_554 S
C178 C175 1.463 . S
C178 N182 1.427 . S
C179 H169 0.929 . S
C179 C177 1.433 . S
C179 N182 1.384 . S
C180 H171 0.929 . S
C180 C172 1.378 . S
C180 C175 1.350 . S
C181 H168 0.929 . S
C181 C173 1.433 1_556 S
C181 N183 1.384 . S
N182 C178 1.427 . S
N182 C179 1.384 . S
N183 C175 1.427 1_556 S
N183 C181 1.384 . S
H184 C190 0.930 . S
H185 C194 0.930 . S
H186 C199 0.929 . S
H187 C197 0.929 . S
H188 C192 0.929 . S
H189 C198 0.929 . S
C190 H184 0.930 . S
C190 C191 1.367 . S
C190 C198 1.378 . S
C191 C190 1.367 . S
C191 C199 1.433 . S
C192 H188 0.929 . S
C192 C194 1.378 . S
C192 C196 1.350 . S
C193 C196 1.463 . S
C193 C198 1.350 . S
C193 N201 1.427 . S
C194 H185 0.930 . S
C194 C192 1.378 . S
C194 C195 1.367 . S
C195 C194 1.367 . S
C195 C197 1.433 . S
C196 C192 1.350 . S
C196 C193 1.463 . S
C196 N200 1.427 . S
C197 H187 0.929 . S
C197 C195 1.433 . S
C197 N200 1.384 . S
C198 H189 0.929 . S
C198 C190 1.378 . S
C198 C193 1.350 . S
C199 H186 0.929 . S
C199 C191 1.433 . S
C199 N201 1.384 . S
N200 C196 1.427 . S
N200 C197 1.384 . S
N201 C193 1.427 . S
N201 C199 1.384 . S
H202 C208 0.930 . S
H203 C212 0.930 . S
H204 C217 0.929 . S
H205 C215 0.929 . S
H206 C210 0.929 . S
H207 C216 0.929 . S
C208 H202 0.930 . S
C208 C209 1.367 . S
C208 C216 1.378 . S
C209 C208 1.367 . S
C209 C217 1.433 . S
C210 H206 0.929 . S
C210 C212 1.378 . S
C210 C214 1.350 . S
C211 C214 1.463 . S
C211 C216 1.350 . S
C211 N219 1.427 . S
C212 H203 0.930 . S
C212 C210 1.378 . S
C212 C213 1.367 . S
C213 C212 1.367 . S
C213 C215 1.433 . S
C214 C210 1.350 . S
C214 C211 1.463 . S
C214 N218 1.427 . S
C215 H205 0.929 . S
C215 C213 1.433 . S
C215 N218 1.384 . S
C216 H207 0.929 . S
C216 C208 1.378 . S
C216 C211 1.350 . S
C217 H204 0.929 . S
C217 C209 1.433 . S
C217 N219 1.384 . S
N218 C214 1.427 . S
N218 C215 1.384 . S
N219 C211 1.427 . S
N219 C217 1.384 . S
H220 C226 0.930 . S
H221 C230 0.930 . S
H222 C235 0.929 . S
H223 C233 0.929 . S
H224 C228 0.929 . S
H225 C234 0.929 . S
C226 H220 0.930 . S
C226 C227 1.367 . S
C226 C234 1.378 . S
C227 C226 1.367 . S
C227 C235 1.433 . S
C228 H224 0.929 . S
C228 C230 1.378 . S
C228 C232 1.350 . S
C229 C232 1.463 . S
C229 C234 1.350 . S
C229 N237 1.427 . S
C230 H221 0.930 . S
C230 C228 1.378 . S
C230 C231 1.367 . S
C231 C230 1.367 . S
C231 C233 1.433 . S
C232 C228 1.350 . S
C232 C229 1.463 . S
C232 N236 1.427 . S
C233 H223 0.929 . S
C233 C231 1.433 . S
C233 N236 1.384 . S
C234 H225 0.929 . S
C234 C226 1.378 . S
C234 C229 1.350 . S
C235 H222 0.929 . S
C235 C227 1.433 . S
C235 N237 1.384 . S
N236 C232 1.427 . S
N236 C233 1.384 . S
N237 C229 1.427 . S
N237 C235 1.384 . S
H238 C244 0.930 . S
H239 C248 0.930 . S
H240 C253 0.929 . S
H241 C251 0.929 . S
H242 C246 0.929 . S
H243 C252 0.929 . S
C244 H238 0.930 . S
C244 C245 1.367 . S
C244 C252 1.378 . S
C245 C244 1.367 . S
C245 C253 1.433 . S
C246 H242 0.929 . S
C246 C248 1.378 . S
C246 C250 1.350 . S
C247 C250 1.463 . S
C247 C252 1.350 . S
C247 N255 1.427 . S
C248 H239 0.930 . S
C248 C246 1.378 . S
C248 C249 1.367 . S
C249 C248 1.367 . S
C249 C251 1.433 . S
C250 C246 1.350 . S
C250 C247 1.463 . S
C250 N254 1.427 . S
C251 H241 0.929 . S
C251 C249 1.433 . S
C251 N254 1.384 . S
C252 H243 0.929 . S
C252 C244 1.378 . S
C252 C247 1.350 . S
C253 H240 0.929 . S
C253 C245 1.433 . S
C253 N255 1.384 . S
N254 C250 1.427 . S
N254 C251 1.384 . S
N255 C247 1.427 . S
N255 C253 1.384 . S
H256 C262 0.930 . S
H257 C266 0.930 . S
H258 C271 0.929 . S
H259 C269 0.929 . S
H260 C264 0.929 . S
H261 C270 0.929 . S
C262 H256 0.930 . S
C262 C263 1.367 . S
C262 C270 1.378 . S
C263 C262 1.367 . S
C263 C271 1.433 . S
C264 H260 0.929 . S
C264 C266 1.378 . S
C264 C268 1.350 . S
C265 C268 1.463 . S
C265 C270 1.350 . S
C265 N273 1.427 . S
C266 H257 0.930 . S
C266 C264 1.378 . S
C266 C267 1.367 . S
C267 C266 1.367 . S
C267 C269 1.433 . S
C268 C264 1.350 . S
C268 C265 1.463 . S
C268 N272 1.427 . S
C269 H259 0.929 . S
C269 C267 1.433 . S
C269 N272 1.384 . S
C270 H261 0.929 . S
C270 C262 1.378 . S
C270 C265 1.350 . S
C271 H258 0.929 . S
C271 C263 1.433 . S
C271 N273 1.384 . S
N272 C268 1.427 . S
N272 C269 1.384 . S
N273 C265 1.427 . S
N273 C271 1.384 . S
H274 C280 0.930 . S
H275 C284 0.930 . S
H276 C289 0.929 . S
H277 C287 0.929 . S
H278 C282 0.929 . S
H279 C288 0.929 . S
C280 H274 0.930 . S
C280 C281 1.367 . S
C280 C288 1.378 . S
C281 C280 1.367 . S
C281 C289 1.433 . S
C282 H278 0.929 . S
C282 C284 1.378 . S
C282 C286 1.350 . S
C283 C286 1.463 . S
C283 C288 1.350 . S
C283 N291 1.427 . S
C284 H275 0.930 . S
C284 C282 1.378 . S
C284 C285 1.367 . S
C285 C284 1.367 . S
C285 C287 1.433 . S
C286 C282 1.350 . S
C286 C283 1.463 . S
C286 N290 1.427 . S
C287 H277 0.929 . S
C287 C285 1.433 . S
C287 N290 1.384 . S
C288 H279 0.929 . S
C288 C280 1.378 . S
C288 C283 1.350 . S
C289 H276 0.929 . S
C289 C281 1.433 . S
C289 N291 1.384 . S
N290 C286 1.427 . S
N290 C287 1.384 . S
N291 C283 1.427 . S
N291 C289 1.384 . S
H292 C298 0.930 . S
H293 C302 0.930 . S
H294 C307 0.929 . S
H295 C305 0.929 . S
H296 C300 0.929 . S
H297 C306 0.929 . S
C298 H292 0.930 . S
C298 C299 1.367 . S
C298 C306 1.378 . S
C299 C298 1.367 . S
C299 C307 1.433 . S
C300 H296 0.929 . S
C300 C302 1.378 . S
C300 C304 1.350 . S
C301 C304 1.463 . S
C301 C306 1.350 . S
C301 N309 1.427 . S
C302 H293 0.930 . S
C302 C300 1.378 . S
C302 C303 1.367 . S
C303 C302 1.367 . S
C303 C305 1.433 . S
C304 C300 1.350 . S
C304 C301 1.463 . S
C304 N308 1.427 . S
C305 H295 0.929 . S
C305 C303 1.433 . S
C305 N308 1.384 . S
C306 H297 0.929 . S
C306 C298 1.378 . S
C306 C301 1.350 . S
C307 H294 0.929 . S
C307 C299 1.433 . S
C307 N309 1.384 . S
N308 C304 1.427 . S
N308 C305 1.384 . S
N309 C301 1.427 . S
N309 C307 1.384 . S
H310 C316 0.930 . S
H311 C320 0.930 . S
H312 C325 0.929 . S
H313 C323 0.929 . S
H314 C318 0.929 . S
H315 C324 0.929 . S
C316 H310 0.930 . S
C316 C317 1.367 . S
C316 C324 1.378 . S
C317 C316 1.367 . S
C317 C325 1.433 . S
C318 H314 0.929 . S
C318 C320 1.378 . S
C318 C322 1.350 . S
C319 C322 1.463 . S
C319 C324 1.350 . S
C319 N327 1.427 . S
C320 H311 0.930 . S
C320 C318 1.378 . S
C320 C321 1.367 . S
C321 C320 1.367 . S
C321 C323 1.433 . S
C322 C318 1.350 . S
C322 C319 1.463 . S
C322 N326 1.427 . S
C323 H313 0.929 . S
C323 C321 1.433 . S
C323 N326 1.384 . S
C324 H315 0.929 . S
C324 C316 1.378 . S
C324 C319 1.350 . S
C325 H312 0.929 . S
C325 C317 1.433 . S
C325 N327 1.384 . S
N326 C322 1.427 . S
N326 C323 1.384 . S
N327 C319 1.427 . S
N327 C325 1.384 . S
C123 C48 1.506 . S
C119 N37 1.502 . S
C137 N4 1.508 . S
C141 C91 1.509 . S
C155 N15 1.501 . S
C159 C57 1.508 . S
C173 N26 1.500 . S
C177 C82 1.507 . S
C195 C44 1.564 . S
C191 C9 1.542 . S
C213 C86 1.541 . S
C209 C17 1.540 . S
C227 C31 1.536 . S
C231 C52 1.558 . S
C245 C42 1.519 . S
C249 C78 1.543 . S
C267 C107 1.468 . S
C263 C20 1.453 . S
C285 C73 1.451 . S
C281 C28 1.445 . S
C303 C95 1.465 . S
C299 C39 1.464 . S
C317 C6 1.446 . S
C321 C61 1.450 . S
