# Generated by pormake.
# Topology pts, (4,4)-cn, num edge types: 1
# Building blocks:
#     Node 0, Type 0, BuildingBlock: GIZVER_clean_linker_0, # of connection points: 4
#     Node 1, Type 0, BuildingBlock: GIZVER_clean_linker_0, # of connection points: 4
#     Node 2, Type 1, BuildingBlock: AZAVOO_clean_sbu_0, # of connection points: 4
#     Node 3, Type 1, BuildingBlock: AZAVOO_clean_sbu_0, # of connection points: 4
#     Edge 4, Type (0, 1), BuildingBlock: MIFKUJ_clean_linker_0, # of connection points: 2
#     Edge 5, Type (0, 1), BuildingBlock: MIFKUJ_clean_linker_0, # of connection points: 2
#     Edge 6, Type (0, 1), BuildingBlock: MIFKUJ_clean_linker_0, # of connection points: 2
#     Edge 7, Type (0, 1), BuildingBlock: MIFKUJ_clean_linker_0, # of connection points: 2
#     Edge 8, Type (0, 1), BuildingBlock: MIFKUJ_clean_linker_0, # of connection points: 2
#     Edge 9, Type (0, 1), BuildingBlock: MIFKUJ_clean_linker_0, # of connection points: 2
#     Edge 10, Type (0, 1), BuildingBlock: MIFKUJ_clean_linker_0, # of connection points: 2
#     Edge 11, Type (0, 1), BuildingBlock: MIFKUJ_clean_linker_0, # of connection points: 2
# Relax obj value: 0.014
# Max RMSD: 0.078
# Mean RMSD: 0.071
data_MOF--net-pts--node1-AZAVOO_clean_sbu_0--node2-GIZVER_clean_linker_0--edge1-MIFKUJ_clean_linker_0
_symmetry_space_group_name_H-M    P1
_symmetry_Int_Tables_number       1
_symmetry_cell_setting            triclinic
loop_
_symmetry_equiv_pos_as_xyz
'x, y, z'
_cell_length_a     33.232275
_cell_length_b     34.148494
_cell_length_c     43.614865
_cell_angle_alpha  90.287258
_cell_angle_beta   95.714923
_cell_angle_gamma 89.988764
loop_
_atom_site_label
_atom_site_type_symbol
_atom_site_fract_x
_atom_site_fract_y
_atom_site_fract_z
_atom_type_partial_charge
H0 H 0.5819 0.06231 0.04329 0.0
H1 H 0.56952 0.07957 0.94491 0.0
H2 H 0.67434 0.02186 0.98847 0.0
H3 H 0.53738 0.11391 0.01909 0.0
H4 H 0.53043 0.11927 0.97832 0.0
H5 H 0.48684 0.08099 0.04377 0.0
H6 H 0.38894 0.02385 0.9892 0.0
H7 H 0.491 0.06556 0.94591 0.0
C8 C 0.59296 0.05767 0.02101 0.0
C9 C 0.63049 0.03906 0.01915 0.0
C10 C 0.57048 0.07205 0.99427 0.0
C11 C 0.58572 0.06731 0.96544 0.0
C12 C 0.62272 0.04816 0.96331 0.0
C13 C 0.64454 0.03414 0.99012 0.0
C14 C 0.53346 0.09714 -0.00295 0.0
C15 C 0.49475 0.07353 0.99541 0.0
C16 C 0.47403 0.06896 0.02191 0.0
C17 C 0.43532 0.05188 0.01968 0.0
C18 C 0.41877 0.03708 0.99115 0.0
C19 C 0.43842 0.04203 0.96454 0.0
C20 C 0.47643 0.06032 0.96667 0.0
H21 H 0.08655 0.55967 0.45797 0.0
H22 H 0.09862 0.54923 0.55683 0.0
H23 H 0.03649 0.64773 0.51431 0.0
H24 H 0.13647 0.51483 0.48492 0.0
H25 H 0.13871 0.5083 0.52564 0.0
H26 H 0.09454 0.473 0.45079 0.0
H27 H 0.02797 0.38085 0.48922 0.0
H28 H 0.08294 0.47105 0.54838 0.0
C29 C 0.07956 0.57041 0.48025 0.0
C30 C 0.05979 0.60664 0.48255 0.0
C31 C 0.09287 0.54906 0.50693 0.0
C32 C 0.08651 0.56428 0.53611 0.0
C33 C 0.06654 0.60005 0.53853 0.0
C34 C 0.05206 0.62016 0.51186 0.0
C35 C 0.11753 0.51229 0.50447 0.0
C36 C 0.09064 0.47672 0.49997 0.0
C37 C 0.08218 0.46 0.47045 0.0
C38 C 0.05901 0.4257 0.46647 0.0
C39 C 0.04393 0.40853 0.49211 0.0
C40 C 0.05247 0.42437 0.52177 0.0
C41 C 0.07564 0.45879 0.52554 0.0
Mg42 Mg 0.06961 0.99388 0.26791 0.0
O43 O 1.00711 0.99799 0.23893 0.0
O44 O 0.96144 0.9918 0.27319 0.0
Mg45 Mg 0.99249 0.98155 0.32139 0.0
C46 C 0.97045 0.99705 0.24571 0.0
C47 C 0.14321 0.01519 0.23878 0.0
O48 O 0.15405 0.00323 0.267 0.0
O49 O 0.06109 0.05558 0.28691 0.0
O50 O 0.01537 0.04509 0.32029 0.0
O51 O 0.07043 0.92895 0.26148 0.0
O52 O 0.04463 0.95902 0.2999 0.0
C53 C 0.0388 0.0679 0.30716 0.0
C54 C 0.05144 0.92675 0.28592 0.0
O55 O 0.10562 0.01668 0.22971 0.0
Mg56 Mg 0.99432 0.0044 0.72754 0.0
O57 O 0.05966 0.00397 0.75261 0.0
O58 O 0.09956 0.98958 0.71557 0.0
Mg59 Mg 0.06295 0.98181 0.66909 0.0
C60 C 0.0947 0.99754 0.74362 0.0
C61 C 0.95734 0.01103 0.78997 0.0
O62 O 0.97225 0.9754 0.79159 0.0
O63 O 1.00689 0.06391 0.70678 0.0
O64 O 0.04666 0.04736 0.67042 0.0
O65 O 0.98703 0.94032 0.73541 0.0
O66 O 0.01265 0.96479 0.69495 0.0
C67 C 0.02748 0.07304 0.68466 0.0
C68 C 1.00396 0.93438 0.71038 0.0
O69 O 0.96528 0.03276 0.76773 0.0
H70 H 0.35652 0.07389 0.01714 0.0
H71 H 0.31165 0.07188 0.05776 0.0
H72 H 0.41036 0.03318 0.12227 0.0
H73 H 0.4556 0.03363 0.08085 0.0
H74 H 0.34429 0.99031 0.12744 0.0
H75 H 0.37164 0.12686 0.12573 0.0
H76 H 0.37919 0.19185 0.10262 0.0
H77 H 0.25347 0.19148 0.06847 0.0
H78 H 0.24526 0.12621 0.09099 0.0
H79 H 0.22485 0.01107 0.25233 0.0
H80 H 0.27732 0.02171 0.21805 0.0
H81 H 0.18635 0.04986 0.14395 0.0
H82 H 0.13319 0.0393 0.17834 0.0
H83 H 0.25289 0.10044 0.14759 0.0
H84 H 0.22803 0.96127 0.14643 0.0
H85 H 0.22125 0.89639 0.16994 0.0
H86 H 0.34415 0.90281 0.21069 0.0
H87 H 0.35149 0.96803 0.18776 0.0
C88 C 0.3688 0.06473 0.03992 0.0
C89 C 0.40954 0.05332 0.04567 0.0
C90 C 0.34314 0.06413 0.06328 0.0
C91 C 0.35764 0.05285 0.09322 0.0
C92 C 0.39854 0.04212 0.09933 0.0
C93 C 0.42439 0.04258 0.07576 0.0
C94 C 0.32917 0.05054 0.1174 0.0
C95 C 0.32494 0.01468 0.13233 0.0
C96 C 0.30321 0.08206 0.12333 0.0
C97 C 0.30791 0.12149 0.10991 0.0
C98 C 0.34565 0.14051 0.11312 0.0
C99 C 0.35004 0.17742 0.10015 0.0
C100 C 0.31685 0.19575 0.08405 0.0
C101 C 0.27916 0.17724 0.08095 0.0
C102 C 0.27461 0.1403 0.09385 0.0
C103 C 0.21582 0.01971 0.22879 0.0
C104 C 0.17471 0.02408 0.21802 0.0
C105 C 0.24596 0.02567 0.2092 0.0
C106 C 0.23575 0.03608 0.17837 0.0
C107 C 0.19485 0.04171 0.16769 0.0
C108 C 0.16453 0.03559 0.18732 0.0
C109 C 0.26781 0.04015 0.1572 0.0
C110 C 0.27262 0.07629 0.14289 0.0
C111 C 0.29448 0.00899 0.15198 0.0
C112 C 0.29016 0.96971 0.16565 0.0
C113 C 0.2535 0.94899 0.16061 0.0
C114 C 0.24958 0.91213 0.1738 0.0
C115 C 0.28221 0.89554 0.19187 0.0
C116 C 0.31888 0.91573 0.19672 0.0
C117 C 0.32295 0.95263 0.18362 0.0
H118 H 0.27911 0.86699 0.20206 0.0
H119 H 0.32031 0.22433 0.07401 0.0
H120 H 0.98022 0.38907 0.52854 0.0
H121 H 0.96823 0.33702 0.56475 0.0
H122 H 0.08762 0.35458 0.6112 0.0
H123 H 0.10006 0.40637 0.5747 0.0
H124 H 0.01504 0.27223 0.56438 0.0
H125 H 0.0859 0.31756 0.68661 0.0
H126 H 0.09154 0.37641 0.71979 0.0
H127 H 0.9839 0.42364 0.67104 0.0
H128 H 0.97725 0.36487 0.63789 0.0
H129 H 0.07849 0.10543 0.64649 0.0
H130 H 0.07754 0.17187 0.62635 0.0
H131 H 0.97823 0.20098 0.67884 0.0
H132 H 0.97946 0.13441 0.69974 0.0
H133 H 0.03169 0.26192 0.67827 0.0
H134 H 0.96073 0.17589 0.60393 0.0
H135 H 0.95126 0.11806 0.56989 0.0
H136 H 0.05072 0.15467 0.52113 0.0
H137 H 0.06125 0.21235 0.55521 0.0
C138 C 1.00351 0.38259 0.54699 0.0
C139 C 0.04128 0.40144 0.54852 0.0
C140 C 0.99659 0.35289 0.56769 0.0
C141 C 0.02711 0.34176 0.59053 0.0
C142 C 0.06352 0.36294 0.59391 0.0
C143 C 0.07055 0.39263 0.57307 0.0
C144 C 0.02345 0.3043 0.6071 0.0
C145 C 0.01837 0.27007 0.58927 0.0
C146 C 0.0277 0.30152 0.6396 0.0
C147 C 0.03134 0.33692 0.65955 0.0
C148 C 0.06336 0.34044 0.68303 0.0
C149 C 0.06673 0.3738 0.70183 0.0
C150 C 0.03817 0.4038 0.69746 0.0
C151 C 1.00611 0.40046 0.67432 0.0
C152 C 1.00258 0.36716 0.65547 0.0
C153 C 0.05655 0.12593 0.65398 0.0
C154 C 0.02866 0.11437 0.67443 0.0
C155 C 0.05608 0.16397 0.64242 0.0
C156 C 0.02733 0.19118 0.65064 0.0
C157 C 1.00058 0.18039 0.6721 0.0
C158 C 1.00124 0.14229 0.68393 0.0
C159 C 0.02393 0.22996 0.63535 0.0
C160 C 0.02794 0.26427 0.65336 0.0
C161 C 0.01827 0.23304 0.60285 0.0
C162 C 0.01203 0.19824 0.58237 0.0
C163 C 0.98082 0.17142 0.58614 0.0
C164 C 0.97523 0.13868 0.5668 0.0
C165 C 1.00045 0.13263 0.54342 0.0
C166 C 0.03126 0.15934 0.53929 0.0
C167 C 0.03705 0.19206 0.55861 0.0
H168 H 0.99605 0.10728 0.52846 0.0
H169 H 0.04084 0.42959 0.71204 0.0
H170 H 0.68014 0.97515 0.02785 0.0
H171 H 0.7364 0.96687 0.06729 0.0
H172 H 0.69929 0.07036 0.11423 0.0
H173 H 0.64468 0.08064 0.07326 0.0
H174 H 0.77456 0.07564 0.11057 0.0
H175 H 0.69291 0.97228 0.14328 0.0
H176 H 0.65036 0.913 0.13855 0.0
H177 H 0.74944 0.84679 0.10894 0.0
H178 H 0.79246 0.90581 0.1131 0.0
H179 H 0.89824 0.03161 0.25188 0.0
H180 H 0.84004 0.03742 0.21321 0.0
H181 H 0.90677 0.9793 0.14639 0.0
H182 H 0.966 0.97438 0.18494 0.0
H183 H 0.81802 0.9505 0.1608 0.0
H184 H 0.8982 0.0591 0.12845 0.0
H185 H 0.93848 0.11938 0.13788 0.0
H186 H 0.83727 0.17647 0.1729 0.0
H187 H 0.79658 0.11627 0.16412 0.0
C188 C 0.68365 0.99604 0.04669 0.0
C189 C 0.65806 0.02889 0.04707 0.0
C190 C 0.7157 0.99097 0.06954 0.0
C191 C 0.72223 0.01786 0.09399 0.0
C192 C 0.69511 0.04927 0.09555 0.0
C193 C 0.66343 0.05482 0.07231 0.0
C194 C 0.75906 0.01491 0.11638 0.0
C195 C 0.78355 0.04831 0.12181 0.0
C196 C 0.77159 0.97917 0.13079 0.0
C197 C 0.7458 0.94359 0.12824 0.0
C198 C 0.70554 0.94516 0.13553 0.0
C199 C 0.68135 0.91158 0.13299 0.0
C200 C 0.69716 0.87618 0.12338 0.0
C201 C 0.73722 0.87425 0.11636 0.0
C202 C 0.76154 0.90774 0.11884 0.0
C203 C 0.90069 0.02031 0.22888 0.0
C204 C 0.93663 0.00249 0.22139 0.0
C205 C 0.86744 0.02369 0.20686 0.0
C206 C 0.86919 0.00869 0.17709 0.0
C207 C 0.905 0.99102 0.16934 0.0
C208 C 0.93877 0.98843 0.19125 0.0
C209 C 0.83298 0.01098 0.15452 0.0
C210 C 0.8087 0.97759 0.14929 0.0
C211 C 0.82018 0.04681 0.14081 0.0
C212 C 0.84453 0.08305 0.14596 0.0
C213 C 0.88468 0.08437 0.13847 0.0
C214 C 0.90755 0.11855 0.14362 0.0
C215 C 0.89049 0.1517 0.15607 0.0
C216 C 0.85047 0.15076 0.16331 0.0
C217 C 0.82749 0.11662 0.15822 0.0
H218 H 0.90824 0.17814 0.16004 0.0
H219 H 0.67838 0.85022 0.12143 0.0
H220 H 0.11811 0.65635 0.55986 0.0
H221 H 0.10965 0.70267 0.60133 0.0
H222 H 1.00528 0.63818 0.62481 0.0
H223 H 0.01317 0.59235 0.58205 0.0
H224 H 0.98609 0.71018 0.61857 0.0
H225 H 0.09487 0.64832 0.67649 0.0
H226 H 0.16161 0.61729 0.68788 0.0
H227 H 0.22005 0.72531 0.66873 0.0
H228 H 0.15368 0.75689 0.65675 0.0
H229 H 0.9719 0.86607 0.72893 0.0
H230 H 0.98443 0.79963 0.71063 0.0
H231 H 0.07001 0.84518 0.65181 0.0
H232 H 0.05715 0.91159 0.66947 0.0
H233 H 0.09501 0.77396 0.68732 0.0
H234 H 0.98275 0.82858 0.61964 0.0
H235 H 0.91502 0.85817 0.60976 0.0
H236 H 0.86252 0.7594 0.65156 0.0
H237 H 0.9301 0.72948 0.66206 0.0
C238 C 0.09424 0.65137 0.57462 0.0
C239 C 0.06656 0.62076 0.56822 0.0
C240 C 0.08946 0.67775 0.59844 0.0
C241 C 0.05711 0.67378 0.61663 0.0
C242 C 0.0306 0.64176 0.61124 0.0
C243 C 0.03523 0.61544 0.58707 0.0
C244 C 0.04827 0.70607 0.63799 0.0
C245 C 0.0097 0.72331 0.63428 0.0
C246 C 0.07902 0.72372 0.65837 0.0
C247 C 0.11918 0.70495 0.6656 0.0
C248 C 0.12193 0.66542 0.6745 0.0
C249 C 0.15972 0.64773 0.6811 0.0
C250 C 0.19504 0.66931 0.67901 0.0
C251 C 0.19265 0.70864 0.67036 0.0
C252 C 0.15494 0.72648 0.66373 0.0
C253 C 0.99363 0.86192 0.71226 0.0
C254 C 0.01338 0.89418 0.7005 0.0
C255 C 1.00072 0.82397 0.70188 0.0
C256 C 0.02813 0.81762 0.67993 0.0
C257 C 0.04886 0.84956 0.66889 0.0
C258 C 0.04126 0.88756 0.67885 0.0
C259 C 0.03357 0.77811 0.66692 0.0
C260 C 0.07137 0.75984 0.67223 0.0
C261 C 1.00203 0.75914 0.64842 0.0
C262 C 0.96148 0.77707 0.642 0.0
C263 C 0.9568 0.81337 0.62699 0.0
C264 C 0.91844 0.83015 0.62122 0.0
C265 C 0.8845 0.81074 0.63013 0.0
C266 C 0.88885 0.77444 0.64474 0.0
C267 C 0.92716 0.75756 0.6506 0.0
H268 H 0.85482 0.82378 0.62563 0.0
H269 H 0.22427 0.65556 0.68412 0.0
H270 H 0.40954 0.97144 0.94326 0.0
H271 H 0.35611 0.9604 0.90123 0.0
H272 H 0.35743 0.0835 0.87921 0.0
H273 H 0.41203 0.09399 0.92031 0.0
H274 H 0.28408 0.98597 0.89944 0.0
H275 H 0.31585 0.10117 0.80728 0.0
H276 H 0.37411 0.13026 0.7848 0.0
H277 H 0.44487 0.02766 0.8087 0.0
H278 H 0.38689 0.99775 0.83096 0.0
H279 H 0.10259 0.02632 0.80315 0.0
H280 H 0.16495 0.03169 0.8381 0.0
H281 H 0.23212 0.97812 0.76929 0.0
H282 H 0.1707 0.97343 0.73428 0.0
H283 H 0.27266 0.03764 0.79291 0.0
H284 H 0.20686 0.9272 0.83294 0.0
H285 H 0.15112 0.89111 0.85333 0.0
H286 H 0.15371 0.97111 0.92978 0.0
H287 H 0.20914 0.00801 0.9096 0.0
C288 C 0.39949 0.9957 0.92852 0.0
C289 C 0.41519 0.03341 0.9346 0.0
C290 C 0.36863 0.98954 0.90479 0.0
C291 C 0.3525 0.02109 0.88699 0.0
C292 C 0.36972 0.05848 0.89211 0.0
C293 C 0.40107 0.06449 0.91553 0.0
C294 C 0.31539 0.01559 0.86525 0.0
C295 C 0.28176 0.99714 0.8761 0.0
C296 C 0.31216 0.02983 0.83467 0.0
C297 C 0.3471 0.04739 0.82104 0.0
C298 C 0.34378 0.08475 0.80762 0.0
C299 C 0.37677 0.1014 0.79494 0.0
C300 C 0.4132 0.08087 0.79541 0.0
C301 C 0.41668 0.04359 0.80846 0.0
C302 C 0.38378 0.0268 0.82115 0.0
C303 C 0.13062 0.01555 0.79556 0.0
C304 C 0.13153 0.99954 0.76586 0.0
C305 C 0.16626 0.01857 0.81556 0.0
C306 C 0.2033 0.00517 0.80637 0.0
C307 C 0.20407 0.98892 0.77687 0.0
C308 C 0.16873 0.98615 0.75688 0.0
C309 C 0.2415 0.00815 0.82718 0.0
C310 C 0.27516 0.02636 0.81623 0.0
C311 C 0.24516 0.9927 0.85736 0.0
C312 C 0.21186 0.97059 0.86958 0.0
C313 C 0.19533 0.93727 0.85397 0.0
C314 C 0.16383 0.91664 0.86551 0.0
C315 C 0.14881 0.92887 0.89279 0.0
C316 C 0.16533 0.96171 0.90862 0.0
C317 C 0.1968 0.98248 0.89716 0.0
H318 H 0.12443 0.91285 0.90169 0.0
H319 H 0.43871 0.09382 0.7856 0.0
H320 H 0.98979 0.39747 0.43559 0.0
H321 H 0.98541 0.34417 0.39774 0.0
H322 H 0.11451 0.34922 0.3942 0.0
H323 H 0.119 0.4028 0.43201 0.0
H324 H 0.06704 0.32425 0.33631 0.0
H325 H 0.08537 0.29537 0.44618 0.0
H326 H 0.06627 0.30346 0.4991 0.0
H327 H 0.94794 0.25791 0.47066 0.0
H328 H 0.96607 0.25032 0.41744 0.0
H329 H 0.09966 0.1213 0.30256 0.0
H330 H 0.10245 0.18906 0.32144 0.0
H331 H 0.98216 0.17705 0.34959 0.0
H332 H 0.97997 0.1092 0.33202 0.0
H333 H 0.02691 0.20778 0.39373 0.0
H334 H 1.00586 0.23379 0.28543 0.0
H335 H 0.01967 0.2297 0.23099 0.0
H336 H 0.13661 0.28145 0.25393 0.0
H337 H 0.12371 0.28539 0.30861 0.0
C338 C 0.01698 0.38827 0.42576 0.0
C339 C 0.05478 0.40384 0.43692 0.0
C340 C 0.01446 0.35786 0.40418 0.0
C341 C 0.04975 0.34234 0.39368 0.0
C342 C 0.08696 0.36082 0.40207 0.0
C343 C 0.08948 0.39146 0.42362 0.0
C344 C 0.04867 0.30303 0.37912 0.0
C345 C 0.05863 0.29862 0.34881 0.0
C346 C 0.03713 0.26982 0.39543 0.0
C347 C 0.02695 0.27264 0.42777 0.0
C348 C 0.05524 0.28721 0.4512 0.0
C349 C 0.04459 0.29172 0.48124 0.0
C350 C 1.00588 0.28133 0.48818 0.0
C351 C 0.97788 0.26604 0.46521 0.0
C352 C 0.98833 0.26161 0.43511 0.0
C353 C 0.07372 0.1333 0.31254 0.0
C354 C 0.03974 0.10982 0.31605 0.0
C355 C 0.07523 0.17212 0.32317 0.0
C356 C 0.0424 0.18839 0.33682 0.0
C357 C 0.008 0.16521 0.33936 0.0
C358 C 1.00678 0.12637 0.32928 0.0
C359 C 0.04451 0.22855 0.35036 0.0
C360 C 0.03515 0.23317 0.38087 0.0
C361 C 0.05613 0.26183 0.33401 0.0
C362 C 0.06398 0.2595 0.30116 0.0
C363 C 0.03466 0.244 0.27891 0.0
C364 C 0.04229 0.24177 0.248 0.0
C365 C 0.07904 0.2552 0.23902 0.0
C366 C 0.10819 0.271 0.26093 0.0
C367 C 0.10071 0.27327 0.29187 0.0
H368 H 0.08489 0.25346 0.21508 0.0
H369 H 0.9975 0.2852 0.51132 0.0
H370 H 0.65267 0.98407 0.93642 0.0
H371 H 0.70549 0.98431 0.90123 0.0
H372 H 0.69284 0.10933 0.89108 0.0
H373 H 0.64 0.10928 0.92666 0.0
H374 H 0.71533 0.0606 0.835 0.0
H375 H 0.755 0.08954 0.94303 0.0
H376 H 0.7523 0.07591 -0.00173 0.0
H377 H 0.80251 0.96165 0.98632 0.0
H378 H 0.80463 0.97427 0.93082 0.0
H379 H 0.91386 0.07963 0.78948 0.0
H380 H 0.85396 0.09291 0.81633 0.0
H381 H 0.86697 0.98022 0.86051 0.0
H382 H 0.92725 0.96731 0.83463 0.0
H383 H 0.84318 0.03048 0.89949 0.0
H384 H 0.80103 0.99666 0.79387 0.0
H385 H 0.79814 0.00314 0.7374 0.0
H386 H 0.75006 0.11935 0.74333 0.0
H387 H 0.75317 0.11373 0.79992 0.0
C388 C 0.65994 0.01135 0.92564 0.0
C389 C 0.64257 0.0467 0.93439 0.0
C390 C 0.69016 0.01148 0.90564 0.0
C391 C 0.70342 0.04692 0.89402 0.0
C392 C 0.68293 0.08171 0.89985 0.0
C393 C 0.65265 0.08162 0.92004 0.0
C394 C 0.74264 0.04808 0.88065 0.0
C395 C 0.74346 0.05478 0.84907 0.0
C396 C 0.77908 0.03968 0.89907 0.0
C397 C 0.7797 0.03276 0.93272 0.0
C398 C 0.76529 0.06144 0.95215 0.0
C399 C 0.76384 0.05389 0.9835 0.0
C400 C 0.77717 0.01792 0.99579 0.0
C401 C 0.79217 0.98949 0.97676 0.0
C402 C 0.79352 0.99684 0.94535 0.0
C403 C 0.9044 0.058 0.80536 0.0
C404 C 0.9252 0.02224 0.80967 0.0
C405 C 0.86991 0.06549 0.8205 0.0
C406 C 0.85532 0.03719 0.83993 0.0
C407 C 0.87741 0.00248 0.84554 0.0
C408 C 0.91196 0.99511 0.83065 0.0
C409 C 0.81624 0.0426 0.85346 0.0
C410 C 0.81534 0.03702 0.88528 0.0
C411 C 0.7797 0.05152 0.83512 0.0
C412 C 0.77781 0.05496 0.80113 0.0
C413 C 0.79015 0.02371 0.78314 0.0
C414 C 0.78842 0.02721 0.75112 0.0
C415 C 0.77406 0.06169 0.73679 0.0
C416 C 0.76127 0.0927 0.75447 0.0
C417 C 0.763 0.08938 0.78651 0.0
H418 H 0.77272 0.06433 0.712 0.0
H419 H 0.77595 0.0121 0.02006 0.0
H420 H 0.03484 0.58637 0.42197 0.0
H421 H 0.02167 0.63087 0.37786 0.0
H422 H 0.05042 0.72983 0.43769 0.0
H423 H 0.06626 0.68639 0.48092 0.0
H424 H 0.97069 0.73038 0.39326 0.0
H425 H 0.11981 0.70962 0.40314 0.0
H426 H 0.17883 0.66589 0.40249 0.0
H427 H 0.13458 0.62501 0.3121 0.0
H428 H 0.07499 0.6682 0.31246 0.0
H429 H 0.0258 0.91205 0.34208 0.0
H430 H 0.01424 0.84865 0.36471 0.0
H431 H 0.03776 0.79127 0.27989 0.0
H432 H 0.05102 0.85504 0.25744 0.0
H433 H 0.07753 0.7556 0.32408 0.0
H434 H 0.94054 0.791 0.30717 0.0
H435 H 0.87983 0.83266 0.30593 0.0
H436 H 0.8944 0.84156 0.40464 0.0
H437 H 0.95557 0.80046 0.4065 0.0
C438 C 0.03864 0.61757 0.42568 0.0
C439 C 0.05088 0.63264 0.4553 0.0
C440 C 0.03076 0.64289 0.40052 0.0
C441 C 0.03449 0.68354 0.40479 0.0
C442 C 0.04664 0.69855 0.43413 0.0
C443 C 0.05535 0.67349 0.45893 0.0
C444 C 0.0276 0.71132 0.37895 0.0
C445 C 0.9937 0.73588 0.37783 0.0
C446 C 0.05694 0.71731 0.3582 0.0
C447 C 0.09278 0.69165 0.358 0.0
C448 C 0.1225 0.69101 0.38328 0.0
C449 C 0.15608 0.66641 0.38293 0.0
C450 C 0.16038 0.64257 0.35732 0.0
C451 C 0.13116 0.6434 0.33196 0.0
C452 C 0.09749 0.66793 0.33222 0.0
C453 C 0.0278 0.88605 0.328 0.0
C454 C 0.03934 0.88858 0.29798 0.0
C455 C 0.02088 0.84967 0.34092 0.0
C456 C 0.02442 0.81498 0.32389 0.0
C457 C 0.03468 0.81754 0.29348 0.0
C458 C 0.04218 0.85401 0.28066 0.0
C459 C 0.02126 0.77634 0.33914 0.0
C460 C 0.05342 0.74967 0.33844 0.0
C461 C 0.98976 0.76803 0.35779 0.0
C462 C 0.95279 0.79266 0.35694 0.0
C463 C 0.93095 0.802 0.32862 0.0
C464 C 0.89643 0.82552 0.32781 0.0
C465 C 0.88328 0.83976 0.35519 0.0
C466 C 0.9046 0.83046 0.38345 0.0
C467 C 0.93917 0.80698 0.38439 0.0
H468 H 0.85655 0.85797 0.35451 0.0
H469 H 0.1864 0.62355 0.35709 0.0
loop_
_geom_bond_atom_site_label_1
_geom_bond_atom_site_label_2
_geom_bond_distance
_geom_bond_site_symmetry_2
_ccdc_geom_bond_type
H0 C8 0.930 . S
H1 C11 0.930 . S
H2 C13 0.919 1_565 S
H3 C14 0.970 . S
H4 C14 0.970 1_556 S
H5 C16 0.930 . S
H6 C18 0.931 . S
H7 C20 0.930 . S
C8 H0 0.930 . S
C8 C9 1.382 . S
C8 C10 1.426 . S
C9 C8 1.382 . S
C9 C13 1.396 . S
C10 C8 1.426 . S
C10 C11 1.375 1_554 S
C10 C14 1.532 . S
C11 H1 0.930 . S
C11 C10 1.375 1_556 S
C11 C12 1.416 . S
C12 C11 1.416 . S
C12 C13 1.376 1_556 S
C13 H2 0.919 1_545 S
C13 C9 1.396 . S
C13 C12 1.376 1_554 S
C14 H3 0.970 . S
C14 H4 0.970 1_554 S
C14 C10 1.532 . S
C14 C15 1.498 . S
C15 C14 1.498 . S
C15 C16 1.384 . S
C15 C20 1.403 1_554 S
C16 H5 0.930 . S
C16 C15 1.384 . S
C16 C17 1.407 . S
C17 C16 1.407 . S
C17 C18 1.357 1_544 S
C18 H6 0.931 . S
C18 C17 1.357 1_566 S
C18 C19 1.401 1_565 S
C19 C18 1.401 1_545 S
C19 C20 1.387 . S
C20 H7 0.930 . S
C20 C15 1.403 1_556 S
C20 C19 1.387 . S
H21 C29 0.930 . S
H22 C32 0.930 . S
H23 C34 0.930 . S
H24 C35 0.970 . S
H25 C35 0.970 . S
H26 C37 0.930 . S
H27 C39 0.930 . S
H28 C41 0.930 . S
C29 H21 0.930 . S
C29 C30 1.382 . S
C29 C31 1.426 . S
C30 C29 1.382 . S
C30 C34 1.389 . S
C31 C29 1.426 . S
C31 C32 1.375 . S
C31 C35 1.532 . S
C32 H22 0.930 . S
C32 C31 1.375 . S
C32 C33 1.416 . S
C33 C32 1.416 . S
C33 C34 1.371 . S
C34 H23 0.930 . S
C34 C30 1.389 . S
C34 C33 1.371 . S
C35 H24 0.970 . S
C35 H25 0.970 . S
C35 C31 1.532 . S
C35 C36 1.499 . S
C36 C35 1.499 . S
C36 C37 1.370 . S
C36 C41 1.415 . S
C37 H26 0.930 . S
C37 C36 1.370 . S
C37 C38 1.407 . S
C38 C37 1.407 . S
C38 C39 1.365 . S
C39 H27 0.930 . S
C39 C38 1.365 . S
C39 C40 1.393 . S
C40 C39 1.393 . S
C40 C41 1.387 . S
C41 H28 0.930 . S
C41 C36 1.415 . S
C41 C40 1.387 . S
Mg42 O43 2.028 . S
Mg42 O49 1.986 . S
Mg42 O51 2.114 1_545 S
Mg42 O52 2.251 1_545 S
Mg42 O55 2.010 . S
O43 Mg42 2.028 . S
O43 C46 1.250 1_455 S
O44 Mg45 2.028 . S
O44 C46 1.248 . S
Mg45 O44 2.028 . S
Mg45 O50 2.032 1_655 S
Mg45 O52 2.079 1_645 S
C46 O43 1.250 1_655 S
C46 O44 1.248 . S
C47 O48 1.264 . S
C47 O55 1.249 . S
O48 C47 1.264 . S
O49 Mg42 1.986 . S
O49 C53 1.246 . S
O50 Mg45 2.032 1_455 S
O50 C53 1.259 . S
O51 Mg42 2.114 1_565 S
O51 C54 1.252 . S
O52 Mg42 2.251 1_565 S
O52 Mg45 2.079 1_465 S
O52 C54 1.273 . S
C53 O49 1.246 . S
C53 O50 1.259 . S
C54 O51 1.252 . S
C54 O52 1.273 . S
O55 Mg42 2.010 . S
O55 C47 1.249 . S
Mg56 O57 2.028 1_655 S
Mg56 O63 1.986 . S
Mg56 O65 2.114 1_545 S
Mg56 O66 2.251 1_645 S
Mg56 O69 2.010 . S
O57 Mg56 2.028 1_455 S
O57 C60 1.250 . S
O58 Mg59 2.028 . S
O58 C60 1.248 . S
Mg59 O58 2.028 . S
Mg59 O64 2.032 . S
Mg59 O66 2.079 1_545 S
C60 O57 1.250 . S
C60 O58 1.248 . S
C61 O62 1.264 . S
C61 O69 1.249 . S
O62 C61 1.264 . S
O63 Mg56 1.986 . S
O63 C67 1.246 1_655 S
O64 Mg59 2.032 . S
O64 C67 1.259 . S
O65 Mg56 2.114 1_565 S
O65 C68 1.252 1_655 S
O66 Mg56 2.251 1_465 S
O66 Mg59 2.079 1_565 S
O66 C68 1.273 . S
C67 O63 1.246 1_455 S
C67 O64 1.259 . S
C68 O65 1.252 1_455 S
C68 O66 1.273 . S
O69 Mg56 2.010 . S
O69 C61 1.249 . S
H70 C88 0.951 . S
H71 C90 0.951 . S
H72 C92 0.950 . S
H73 C93 0.950 1_565 S
H74 C95 0.950 . S
H75 C98 0.950 . S
H76 C99 0.950 . S
H77 C101 0.950 . S
H78 C102 0.950 . S
H79 C103 0.951 . S
H80 C105 0.951 . S
H81 C107 0.950 . S
H82 C108 0.950 . S
H83 C110 0.950 . S
H84 C113 0.950 . S
H85 C114 0.950 . S
H86 C116 0.950 . S
H87 C117 0.950 . S
C88 H70 0.951 . S
C88 C89 1.366 . S
C88 C90 1.388 . S
C89 C88 1.366 . S
C89 C93 1.385 . S
C90 H71 0.951 . S
C90 C88 1.388 . S
C90 C91 1.366 . S
C91 C90 1.366 . S
C91 C92 1.414 . S
C91 C94 1.499 . S
C92 H72 0.950 . S
C92 C91 1.414 . S
C92 C93 1.374 . S
C93 H73 0.950 1_545 S
C93 C89 1.385 . S
C93 C92 1.374 . S
C94 C91 1.499 . S
C94 C95 1.373 1_545 S
C94 C96 1.389 . S
C95 H74 0.950 . S
C95 C94 1.373 1_565 S
C95 C111 1.377 . S
C96 C94 1.389 . S
C96 C97 1.524 . S
C96 C110 1.377 . S
C97 C96 1.524 . S
C97 C98 1.397 . S
C97 C102 1.363 . S
C98 H75 0.950 . S
C98 C97 1.397 . S
C98 C99 1.334 . S
C99 H76 0.950 . S
C99 C98 1.334 . S
C99 C100 1.287 . S
C100 C99 1.287 . S
C100 C101 1.524 . S
C100 H119 0.913 . S
C101 H77 0.950 . S
C101 C100 1.524 . S
C101 C102 1.415 . S
C102 H78 0.950 . S
C102 C97 1.363 . S
C102 C101 1.415 . S
C103 H79 0.951 . S
C103 C104 1.366 . S
C103 C105 1.388 . S
C104 C103 1.366 . S
C104 C108 1.385 . S
C105 H80 0.951 . S
C105 C103 1.388 . S
C105 C106 1.366 . S
C106 C105 1.366 . S
C106 C107 1.414 . S
C106 C109 1.499 . S
C107 H81 0.950 . S
C107 C106 1.414 . S
C107 C108 1.374 . S
C108 H82 0.950 . S
C108 C104 1.385 . S
C108 C107 1.374 . S
C109 C106 1.499 . S
C109 C110 1.373 . S
C109 C111 1.389 1_545 S
C110 H83 0.950 . S
C110 C96 1.377 . S
C110 C109 1.373 . S
C111 C95 1.377 . S
C111 C109 1.389 1_565 S
C111 C112 1.524 . S
C112 C111 1.524 . S
C112 C113 1.397 . S
C112 C117 1.363 . S
C113 H84 0.950 . S
C113 C112 1.397 . S
C113 C114 1.334 . S
C114 H85 0.950 . S
C114 C113 1.334 . S
C114 C115 1.287 . S
C115 C114 1.287 . S
C115 C116 1.524 . S
C115 H118 0.999 . S
C116 H86 0.950 . S
C116 C115 1.524 . S
C116 C117 1.415 . S
C117 H87 0.950 . S
C117 C112 1.363 . S
C117 C116 1.415 . S
H118 C115 0.999 . S
H119 C100 0.913 . S
H120 C138 0.951 . S
H121 C140 0.951 . S
H122 C142 0.950 . S
H123 C143 0.950 . S
H124 C145 0.950 . S
H125 C148 0.950 . S
H126 C149 0.950 . S
H127 C151 0.950 . S
H128 C152 0.950 . S
H129 C153 0.951 . S
H130 C155 0.951 . S
H131 C157 0.950 . S
H132 C158 0.950 . S
H133 C160 0.950 1_655 S
H134 C163 0.950 1_655 S
H135 C164 0.950 1_655 S
H136 C166 0.950 . S
H137 C167 0.950 . S
C138 H120 0.951 . S
C138 C139 1.366 1_655 S
C138 C140 1.388 . S
C139 C138 1.366 1_455 S
C139 C143 1.385 . S
C140 H121 0.951 . S
C140 C138 1.388 . S
C140 C141 1.366 1_655 S
C141 C140 1.366 1_455 S
C141 C142 1.414 . S
C141 C144 1.499 . S
C142 H122 0.950 . S
C142 C141 1.414 . S
C142 C143 1.374 . S
C143 H123 0.950 . S
C143 C139 1.385 . S
C143 C142 1.374 . S
C144 C141 1.499 . S
C144 C145 1.373 . S
C144 C146 1.389 . S
C145 H124 0.950 . S
C145 C144 1.373 . S
C145 C161 1.377 . S
C146 C144 1.389 . S
C146 C147 1.524 . S
C146 C160 1.377 . S
C147 C146 1.524 . S
C147 C148 1.397 . S
C147 C152 1.363 1_455 S
C148 H125 0.950 . S
C148 C147 1.397 . S
C148 C149 1.334 . S
C149 H126 0.950 . S
C149 C148 1.334 . S
C149 C150 1.287 1_455 S
C150 C149 1.287 1_655 S
C150 C151 1.524 . S
C150 H169 0.913 . S
C151 H127 0.950 . S
C151 C150 1.524 . S
C151 C152 1.415 . S
C152 H128 0.950 . S
C152 C147 1.363 1_655 S
C152 C151 1.415 . S
C153 H129 0.951 . S
C153 C154 1.366 . S
C153 C155 1.388 . S
C154 C153 1.366 . S
C154 C158 1.385 1_455 S
C155 H130 0.951 . S
C155 C153 1.388 . S
C155 C156 1.366 . S
C156 C155 1.366 . S
C156 C157 1.414 1_455 S
C156 C159 1.499 . S
C157 H131 0.950 . S
C157 C156 1.414 1_655 S
C157 C158 1.374 . S
C158 H132 0.950 . S
C158 C154 1.385 1_655 S
C158 C157 1.374 . S
C159 C156 1.499 . S
C159 C160 1.373 . S
C159 C161 1.389 . S
C160 H133 0.950 1_455 S
C160 C146 1.377 . S
C160 C159 1.373 . S
C161 C145 1.377 . S
C161 C159 1.389 . S
C161 C162 1.524 . S
C162 C161 1.524 . S
C162 C163 1.397 . S
C162 C167 1.363 . S
C163 H134 0.950 1_455 S
C163 C162 1.397 . S
C163 C164 1.334 . S
C164 H135 0.950 1_455 S
C164 C163 1.334 . S
C164 C165 1.287 . S
C165 C164 1.287 . S
C165 C166 1.524 . S
C165 H168 0.999 . S
C166 H136 0.950 . S
C166 C165 1.524 . S
C166 C167 1.415 . S
C167 H137 0.950 . S
C167 C162 1.363 . S
C167 C166 1.415 . S
H168 C165 0.999 . S
H169 C150 0.913 . S
H170 C188 0.951 . S
H171 C190 0.951 . S
H172 C192 0.950 . S
H173 C193 0.950 . S
H174 C195 0.950 . S
H175 C198 0.950 . S
H176 C199 0.950 . S
H177 C201 0.950 . S
H178 C202 0.950 . S
H179 C203 0.951 . S
H180 C205 0.951 . S
H181 C207 0.950 . S
H182 C208 0.950 . S
H183 C210 0.950 . S
H184 C213 0.950 . S
H185 C214 0.950 . S
H186 C216 0.950 . S
H187 C217 0.950 . S
C188 H170 0.951 . S
C188 C189 1.366 1_565 S
C188 C190 1.388 . S
C189 C188 1.366 1_545 S
C189 C193 1.385 . S
C190 H171 0.951 . S
C190 C188 1.388 . S
C190 C191 1.366 1_565 S
C191 C190 1.366 1_545 S
C191 C192 1.414 . S
C191 C194 1.499 . S
C192 H172 0.950 . S
C192 C191 1.414 . S
C192 C193 1.374 . S
C193 H173 0.950 . S
C193 C189 1.385 . S
C193 C192 1.374 . S
C194 C191 1.499 . S
C194 C195 1.373 . S
C194 C196 1.389 1_545 S
C195 H174 0.950 . S
C195 C194 1.373 . S
C195 C211 1.377 . S
C196 C194 1.389 1_565 S
C196 C197 1.524 . S
C196 C210 1.377 . S
C197 C196 1.524 . S
C197 C198 1.397 . S
C197 C202 1.363 . S
C198 H175 0.950 . S
C198 C197 1.397 . S
C198 C199 1.334 . S
C199 H176 0.950 . S
C199 C198 1.334 . S
C199 C200 1.287 . S
C200 C199 1.287 . S
C200 C201 1.524 . S
C200 H219 0.913 . S
C201 H177 0.950 . S
C201 C200 1.524 . S
C201 C202 1.415 . S
C202 H178 0.950 . S
C202 C197 1.363 . S
C202 C201 1.415 . S
C203 H179 0.951 . S
C203 C204 1.366 . S
C203 C205 1.388 . S
C204 C203 1.366 . S
C204 C208 1.385 1_545 S
C205 H180 0.951 . S
C205 C203 1.388 . S
C205 C206 1.366 . S
C206 C205 1.366 . S
C206 C207 1.414 1_545 S
C206 C209 1.499 . S
C207 H181 0.950 . S
C207 C206 1.414 1_565 S
C207 C208 1.374 . S
C208 H182 0.950 . S
C208 C204 1.385 1_565 S
C208 C207 1.374 . S
C209 C206 1.499 . S
C209 C210 1.373 1_545 S
C209 C211 1.389 . S
C210 H183 0.950 . S
C210 C196 1.377 . S
C210 C209 1.373 1_565 S
C211 C195 1.377 . S
C211 C209 1.389 . S
C211 C212 1.524 . S
C212 C211 1.524 . S
C212 C213 1.397 . S
C212 C217 1.363 . S
C213 H184 0.950 . S
C213 C212 1.397 . S
C213 C214 1.334 . S
C214 H185 0.950 . S
C214 C213 1.334 . S
C214 C215 1.287 . S
C215 C214 1.287 . S
C215 C216 1.524 . S
C215 H218 0.999 . S
C216 H186 0.950 . S
C216 C215 1.524 . S
C216 C217 1.415 . S
C217 H187 0.950 . S
C217 C212 1.363 . S
C217 C216 1.415 . S
H218 C215 0.999 . S
H219 C200 0.913 . S
H220 C238 0.951 . S
H221 C240 0.951 . S
H222 C242 0.950 . S
H223 C243 0.950 . S
H224 C245 0.950 . S
H225 C248 0.950 . S
H226 C249 0.950 . S
H227 C251 0.950 . S
H228 C252 0.950 . S
H229 C253 0.951 . S
H230 C255 0.951 . S
H231 C257 0.950 . S
H232 C258 0.950 . S
H233 C260 0.950 . S
H234 C263 0.950 . S
H235 C264 0.950 . S
H236 C266 0.950 . S
H237 C267 0.950 . S
C238 H220 0.951 . S
C238 C239 1.366 . S
C238 C240 1.388 . S
C239 C238 1.366 . S
C239 C243 1.385 1_455 S
C240 H221 0.951 . S
C240 C238 1.388 . S
C240 C241 1.366 . S
C241 C240 1.366 . S
C241 C242 1.414 1_455 S
C241 C244 1.499 . S
C242 H222 0.950 . S
C242 C241 1.414 1_655 S
C242 C243 1.374 . S
C243 H223 0.950 . S
C243 C239 1.385 1_655 S
C243 C242 1.374 . S
C244 C241 1.499 . S
C244 C245 1.373 1_455 S
C244 C246 1.389 . S
C245 H224 0.950 . S
C245 C244 1.373 1_655 S
C245 C261 1.377 . S
C246 C244 1.389 . S
C246 C247 1.524 . S
C246 C260 1.377 . S
C247 C246 1.524 . S
C247 C248 1.397 . S
C247 C252 1.363 . S
C248 H225 0.950 . S
C248 C247 1.397 . S
C248 C249 1.334 . S
C249 H226 0.950 . S
C249 C248 1.334 . S
C249 C250 1.287 . S
C250 C249 1.287 . S
C250 C251 1.524 . S
C250 H269 0.913 . S
C251 H227 0.950 . S
C251 C250 1.524 . S
C251 C252 1.415 . S
C252 H228 0.950 . S
C252 C247 1.363 . S
C252 C251 1.415 . S
C253 H229 0.951 . S
C253 C254 1.366 1_655 S
C253 C255 1.388 . S
C254 C253 1.366 1_455 S
C254 C258 1.385 . S
C255 H230 0.951 . S
C255 C253 1.388 . S
C255 C256 1.366 1_655 S
C256 C255 1.366 1_455 S
C256 C257 1.414 . S
C256 C259 1.499 . S
C257 H231 0.950 . S
C257 C256 1.414 . S
C257 C258 1.374 . S
C258 H232 0.950 . S
C258 C254 1.385 . S
C258 C257 1.374 . S
C259 C256 1.499 . S
C259 C260 1.373 . S
C259 C261 1.389 1_455 S
C260 H233 0.950 . S
C260 C246 1.377 . S
C260 C259 1.373 . S
C261 C245 1.377 . S
C261 C259 1.389 1_655 S
C261 C262 1.524 . S
C262 C261 1.524 . S
C262 C263 1.397 . S
C262 C267 1.363 . S
C263 H234 0.950 . S
C263 C262 1.397 . S
C263 C264 1.334 . S
C264 H235 0.950 . S
C264 C263 1.334 . S
C264 C265 1.287 . S
C265 C264 1.287 . S
C265 C266 1.524 . S
C265 H268 0.999 . S
C266 H236 0.950 . S
C266 C265 1.524 . S
C266 C267 1.415 . S
C267 H237 0.950 . S
C267 C262 1.363 . S
C267 C266 1.415 . S
H268 C265 0.999 . S
H269 C250 0.913 . S
H270 C288 0.951 . S
H271 C290 0.951 . S
H272 C292 0.950 . S
H273 C293 0.950 . S
H274 C295 0.950 . S
H275 C298 0.950 . S
H276 C299 0.950 . S
H277 C301 0.950 . S
H278 C302 0.950 . S
H279 C303 0.951 . S
H280 C305 0.951 . S
H281 C307 0.950 . S
H282 C308 0.950 . S
H283 C310 0.950 . S
H284 C313 0.950 . S
H285 C314 0.950 . S
H286 C316 0.950 . S
H287 C317 0.950 . S
C288 H270 0.951 . S
C288 C289 1.366 . S
C288 C290 1.388 . S
C289 C288 1.366 . S
C289 C293 1.385 . S
C290 H271 0.951 . S
C290 C288 1.388 . S
C290 C291 1.366 . S
C291 C290 1.366 . S
C291 C292 1.414 . S
C291 C294 1.499 . S
C292 H272 0.950 . S
C292 C291 1.414 . S
C292 C293 1.374 . S
C293 H273 0.950 . S
C293 C289 1.385 . S
C293 C292 1.374 . S
C294 C291 1.499 . S
C294 C295 1.373 1_545 S
C294 C296 1.389 . S
C295 H274 0.950 . S
C295 C294 1.373 1_565 S
C295 C311 1.377 . S
C296 C294 1.389 . S
C296 C297 1.524 . S
C296 C310 1.377 . S
C297 C296 1.524 . S
C297 C298 1.397 . S
C297 C302 1.363 . S
C298 H275 0.950 . S
C298 C297 1.397 . S
C298 C299 1.334 . S
C299 H276 0.950 . S
C299 C298 1.334 . S
C299 C300 1.287 . S
C300 C299 1.287 . S
C300 C301 1.524 . S
C300 H319 0.913 . S
C301 H277 0.950 . S
C301 C300 1.524 . S
C301 C302 1.415 . S
C302 H278 0.950 . S
C302 C297 1.363 . S
C302 C301 1.415 . S
C303 H279 0.951 . S
C303 C304 1.366 . S
C303 C305 1.388 . S
C304 C303 1.366 . S
C304 C308 1.385 . S
C305 H280 0.951 . S
C305 C303 1.388 . S
C305 C306 1.366 . S
C306 C305 1.366 . S
C306 C307 1.414 . S
C306 C309 1.499 . S
C307 H281 0.950 . S
C307 C306 1.414 . S
C307 C308 1.374 . S
C308 H282 0.950 . S
C308 C304 1.385 . S
C308 C307 1.374 . S
C309 C306 1.499 . S
C309 C310 1.373 . S
C309 C311 1.389 1_545 S
C310 H283 0.950 . S
C310 C296 1.377 . S
C310 C309 1.373 . S
C311 C295 1.377 . S
C311 C309 1.389 1_565 S
C311 C312 1.524 . S
C312 C311 1.524 . S
C312 C313 1.397 . S
C312 C317 1.363 . S
C313 H284 0.950 . S
C313 C312 1.397 . S
C313 C314 1.334 . S
C314 H285 0.950 . S
C314 C313 1.334 . S
C314 C315 1.287 . S
C315 C314 1.287 . S
C315 C316 1.524 . S
C315 H318 0.999 . S
C316 H286 0.950 . S
C316 C315 1.524 . S
C316 C317 1.415 . S
C317 H287 0.950 . S
C317 C312 1.363 . S
C317 C316 1.415 . S
H318 C315 0.999 . S
H319 C300 0.913 . S
H320 C338 0.951 . S
H321 C340 0.951 . S
H322 C342 0.950 . S
H323 C343 0.950 . S
H324 C345 0.950 . S
H325 C348 0.965 . S
H326 C349 0.950 . S
H327 C351 0.950 . S
H328 C352 0.950 . S
H329 C353 0.951 . S
H330 C355 0.951 . S
H331 C357 0.950 1_655 S
H332 C358 0.950 1_655 S
H333 C360 0.950 1_655 S
H334 C363 0.950 . S
H335 C364 0.950 . S
H336 C366 0.950 . S
H337 C367 0.950 . S
C338 H320 0.951 . S
C338 C339 1.366 1_655 S
C338 C340 1.388 . S
C339 C338 1.366 1_455 S
C339 C343 1.385 . S
C340 H321 0.951 . S
C340 C338 1.388 . S
C340 C341 1.366 1_655 S
C341 C340 1.366 1_455 S
C341 C342 1.414 . S
C341 C344 1.499 . S
C342 H322 0.950 . S
C342 C341 1.414 . S
C342 C343 1.374 . S
C343 H323 0.950 . S
C343 C339 1.385 . S
C343 C342 1.374 . S
C344 C341 1.499 . S
C344 C345 1.373 . S
C344 C346 1.389 . S
C345 H324 0.950 . S
C345 C344 1.373 . S
C345 C361 1.377 . S
C346 C344 1.389 . S
C346 C347 1.524 1_455 S
C346 C360 1.377 . S
C347 C346 1.524 1_655 S
C347 C348 1.392 1_655 S
C347 C352 1.363 . S
C348 H325 0.965 . S
C348 C347 1.392 1_455 S
C348 C349 1.324 1_455 S
C349 H326 0.950 . S
C349 C348 1.324 1_655 S
C349 C350 1.287 . S
C350 C349 1.287 . S
C350 C351 1.524 . S
C350 H369 0.913 . S
C351 H327 0.950 . S
C351 C350 1.524 . S
C351 C352 1.415 . S
C352 H328 0.950 . S
C352 C347 1.363 . S
C352 C351 1.415 . S
C353 H329 0.951 . S
C353 C354 1.366 . S
C353 C355 1.388 . S
C354 C353 1.366 . S
C354 C358 1.385 . S
C355 H330 0.951 . S
C355 C353 1.388 . S
C355 C356 1.366 . S
C356 C355 1.366 . S
C356 C357 1.414 . S
C356 C359 1.499 . S
C357 H331 0.950 1_455 S
C357 C356 1.414 . S
C357 C358 1.374 . S
C358 H332 0.950 1_455 S
C358 C354 1.385 . S
C358 C357 1.374 . S
C359 C356 1.499 . S
C359 C360 1.373 . S
C359 C361 1.389 . S
C360 H333 0.950 1_455 S
C360 C346 1.377 . S
C360 C359 1.373 . S
C361 C345 1.377 . S
C361 C359 1.389 . S
C361 C362 1.524 . S
C362 C361 1.524 . S
C362 C363 1.397 . S
C362 C367 1.363 . S
C363 H334 0.950 . S
C363 C362 1.397 . S
C363 C364 1.334 . S
C364 H335 0.950 . S
C364 C363 1.334 . S
C364 C365 1.287 . S
C365 C364 1.287 . S
C365 C366 1.524 . S
C365 H368 0.999 . S
C366 H336 0.950 . S
C366 C365 1.524 . S
C366 C367 1.415 . S
C367 H337 0.950 . S
C367 C362 1.363 . S
C367 C366 1.415 . S
H368 C365 0.999 . S
H369 C350 0.913 . S
H370 C388 0.951 . S
H371 C390 0.951 . S
H372 C392 0.950 . S
H373 C393 0.950 . S
H374 C395 0.950 . S
H375 C398 0.950 . S
H376 C399 0.950 . S
H377 C401 0.950 1_564 S
H378 C402 0.950 1_565 S
H379 C403 0.951 . S
H380 C405 0.951 . S
H381 C407 0.950 . S
H382 C408 0.950 . S
H383 C410 0.950 . S
H384 C413 0.950 . S
H385 C414 0.950 . S
H386 C416 0.950 . S
H387 C417 0.950 . S
C388 H370 0.951 . S
C388 C389 1.366 1_565 S
C388 C390 1.388 . S
C389 C388 1.366 1_545 S
C389 C393 1.385 . S
C390 H371 0.951 . S
C390 C388 1.388 . S
C390 C391 1.366 1_565 S
C391 C390 1.366 1_545 S
C391 C392 1.414 . S
C391 C394 1.499 . S
C392 H372 0.950 . S
C392 C391 1.414 . S
C392 C393 1.374 . S
C393 H373 0.950 . S
C393 C389 1.385 . S
C393 C392 1.374 . S
C394 C391 1.499 . S
C394 C395 1.373 . S
C394 C396 1.389 . S
C395 H374 0.950 . S
C395 C394 1.373 . S
C395 C411 1.377 . S
C396 C394 1.389 . S
C396 C397 1.524 . S
C396 C410 1.377 . S
C397 C396 1.524 . S
C397 C398 1.397 . S
C397 C402 1.363 . S
C398 H375 0.950 . S
C398 C397 1.397 . S
C398 C399 1.334 . S
C399 H376 0.950 . S
C399 C398 1.334 . S
C399 C400 1.287 1_556 S
C400 C399 1.287 1_554 S
C400 C401 1.524 1_554 S
C400 H419 0.913 . S
C401 H377 0.950 1_546 S
C401 C400 1.524 1_556 S
C401 C402 1.415 . S
C402 H378 0.950 1_545 S
C402 C397 1.363 . S
C402 C401 1.415 . S
C403 H379 0.951 . S
C403 C404 1.366 . S
C403 C405 1.388 . S
C404 C403 1.366 . S
C404 C408 1.385 1_545 S
C405 H380 0.951 . S
C405 C403 1.388 . S
C405 C406 1.366 . S
C406 C405 1.366 . S
C406 C407 1.414 1_545 S
C406 C409 1.499 . S
C407 H381 0.950 . S
C407 C406 1.414 1_565 S
C407 C408 1.374 . S
C408 H382 0.950 . S
C408 C404 1.385 1_565 S
C408 C407 1.374 . S
C409 C406 1.499 . S
C409 C410 1.373 . S
C409 C411 1.389 . S
C410 H383 0.950 . S
C410 C396 1.377 . S
C410 C409 1.373 . S
C411 C395 1.377 . S
C411 C409 1.389 . S
C411 C412 1.524 1_545 S
C412 C411 1.524 1_565 S
C412 C413 1.397 . S
C412 C417 1.363 1_565 S
C413 H384 0.950 . S
C413 C412 1.397 . S
C413 C414 1.334 . S
C414 H385 0.950 . S
C414 C413 1.334 . S
C414 C415 1.287 . S
C415 C414 1.287 . S
C415 C416 1.524 1_565 S
C415 H418 0.999 . S
C416 H386 0.950 . S
C416 C415 1.524 1_545 S
C416 C417 1.415 . S
C417 H387 0.950 . S
C417 C412 1.363 1_545 S
C417 C416 1.415 . S
H418 C415 0.999 . S
H419 C400 0.913 . S
H420 C438 0.951 . S
H421 C440 0.951 . S
H422 C442 0.950 . S
H423 C443 0.950 . S
H424 C445 0.950 1_655 S
H425 C448 0.950 . S
H426 C449 0.950 . S
H427 C451 0.950 . S
H428 C452 0.950 . S
H429 C453 0.951 . S
H430 C455 0.951 . S
H431 C457 0.950 . S
H432 C458 0.950 . S
H433 C460 0.950 . S
H434 C463 0.950 . S
H435 C464 0.950 . S
H436 C466 0.950 . S
H437 C467 0.950 . S
C438 H420 0.951 . S
C438 C439 1.366 . S
C438 C440 1.388 . S
C439 C438 1.366 . S
C439 C443 1.385 . S
C440 H421 0.951 . S
C440 C438 1.388 . S
C440 C441 1.366 . S
C441 C440 1.366 . S
C441 C442 1.414 . S
C441 C444 1.499 . S
C442 H422 0.950 . S
C442 C441 1.414 . S
C442 C443 1.374 . S
C443 H423 0.950 . S
C443 C439 1.385 . S
C443 C442 1.374 . S
C444 C441 1.499 . S
C444 C445 1.373 . S
C444 C446 1.389 . S
C445 H424 0.950 1_455 S
C445 C444 1.373 . S
C445 C461 1.377 . S
C446 C444 1.389 . S
C446 C447 1.524 . S
C446 C460 1.377 . S
C447 C446 1.524 . S
C447 C448 1.397 . S
C447 C452 1.363 . S
C448 H425 0.950 . S
C448 C447 1.397 . S
C448 C449 1.334 . S
C449 H426 0.950 . S
C449 C448 1.334 . S
C449 C450 1.287 . S
C450 C449 1.287 . S
C450 C451 1.524 . S
C450 H469 0.913 . S
C451 H427 0.950 . S
C451 C450 1.524 . S
C451 C452 1.415 . S
C452 H428 0.950 . S
C452 C447 1.363 . S
C452 C451 1.415 . S
C453 H429 0.951 . S
C453 C454 1.366 . S
C453 C455 1.388 . S
C454 C453 1.366 . S
C454 C458 1.385 . S
C455 H430 0.951 . S
C455 C453 1.388 . S
C455 C456 1.366 . S
C456 C455 1.366 . S
C456 C457 1.414 . S
C456 C459 1.499 . S
C457 H431 0.950 . S
C457 C456 1.414 . S
C457 C458 1.374 . S
C458 H432 0.950 . S
C458 C454 1.385 . S
C458 C457 1.374 . S
C459 C456 1.499 . S
C459 C460 1.373 . S
C459 C461 1.389 . S
C460 H433 0.950 . S
C460 C446 1.377 . S
C460 C459 1.373 . S
C461 C445 1.377 . S
C461 C459 1.389 . S
C461 C462 1.524 1_455 S
C462 C461 1.524 1_655 S
C462 C463 1.397 . S
C462 C467 1.363 . S
C463 H434 0.950 . S
C463 C462 1.397 . S
C463 C464 1.334 . S
C464 H435 0.950 . S
C464 C463 1.334 . S
C464 C465 1.287 . S
C465 C464 1.287 . S
C465 C466 1.524 . S
C465 H468 0.999 . S
C466 H436 0.950 . S
C466 C465 1.524 . S
C466 C467 1.415 . S
C467 H437 0.950 . S
C467 C462 1.363 . S
C467 C466 1.415 . S
H468 C465 0.999 . S
H469 C450 0.913 . S
C104 C47 1.296 . S
C89 C17 1.487 . S
C154 C67 1.534 . S
C139 C40 1.491 . S
C204 C46 1.509 . S
C189 C9 1.485 . S
C254 C68 1.562 . S
C239 C33 1.464 . S
C304 C60 1.496 . S
C289 C19 1.485 . S
C354 C53 1.544 . S
C339 C38 1.476 . S
C404 C61 1.292 . S
C389 C12 1.473 . S
C439 C30 1.495 . S
C454 C54 1.571 . S
