# Generated by pormake.
# Topology ptr, (4,4)-cn, num edge types: 1
# Building blocks:
#     Node 0, Type 0, BuildingBlock: CEKHIL_clean_sbu_0, # of connection points: 4
#     Node 1, Type 0, BuildingBlock: CEKHIL_clean_sbu_0, # of connection points: 4
#     Node 2, Type 0, BuildingBlock: CEKHIL_clean_sbu_0, # of connection points: 4
#     Node 3, Type 0, BuildingBlock: CEKHIL_clean_sbu_0, # of connection points: 4
#     Node 4, Type 0, BuildingBlock: CEKHIL_clean_sbu_0, # of connection points: 4
#     Node 5, Type 0, BuildingBlock: CEKHIL_clean_sbu_0, # of connection points: 4
#     Node 6, Type 0, BuildingBlock: CEKHIL_clean_sbu_0, # of connection points: 4
#     Node 7, Type 0, BuildingBlock: CEKHIL_clean_sbu_0, # of connection points: 4
#     Node 8, Type 0, BuildingBlock: CEKHIL_clean_sbu_0, # of connection points: 4
#     Node 9, Type 0, BuildingBlock: CEKHIL_clean_sbu_0, # of connection points: 4
#     Node 10, Type 0, BuildingBlock: CEKHIL_clean_sbu_0, # of connection points: 4
#     Node 11, Type 0, BuildingBlock: CEKHIL_clean_sbu_0, # of connection points: 4
#     Node 12, Type 0, BuildingBlock: CEKHIL_clean_sbu_0, # of connection points: 4
#     Node 13, Type 0, BuildingBlock: CEKHIL_clean_sbu_0, # of connection points: 4
#     Node 14, Type 0, BuildingBlock: CEKHIL_clean_sbu_0, # of connection points: 4
#     Node 15, Type 0, BuildingBlock: CEKHIL_clean_sbu_0, # of connection points: 4
#     Node 16, Type 0, BuildingBlock: CEKHIL_clean_sbu_0, # of connection points: 4
#     Node 17, Type 0, BuildingBlock: CEKHIL_clean_sbu_0, # of connection points: 4
#     Node 18, Type 1, BuildingBlock: MIFKUJ_clean_linker_1, # of connection points: 4
#     Node 19, Type 1, BuildingBlock: MIFKUJ_clean_linker_1, # of connection points: 4
#     Node 20, Type 1, BuildingBlock: MIFKUJ_clean_linker_1, # of connection points: 4
#     Node 21, Type 1, BuildingBlock: MIFKUJ_clean_linker_1, # of connection points: 4
#     Node 22, Type 1, BuildingBlock: MIFKUJ_clean_linker_1, # of connection points: 4
#     Node 23, Type 1, BuildingBlock: MIFKUJ_clean_linker_1, # of connection points: 4
#     Node 24, Type 1, BuildingBlock: MIFKUJ_clean_linker_1, # of connection points: 4
#     Node 25, Type 1, BuildingBlock: MIFKUJ_clean_linker_1, # of connection points: 4
#     Node 26, Type 1, BuildingBlock: MIFKUJ_clean_linker_1, # of connection points: 4
#     Node 27, Type 1, BuildingBlock: MIFKUJ_clean_linker_1, # of connection points: 4
#     Node 28, Type 1, BuildingBlock: MIFKUJ_clean_linker_1, # of connection points: 4
#     Node 29, Type 1, BuildingBlock: MIFKUJ_clean_linker_1, # of connection points: 4
#     Node 30, Type 1, BuildingBlock: MIFKUJ_clean_linker_1, # of connection points: 4
#     Node 31, Type 1, BuildingBlock: MIFKUJ_clean_linker_1, # of connection points: 4
#     Node 32, Type 1, BuildingBlock: MIFKUJ_clean_linker_1, # of connection points: 4
#     Node 33, Type 1, BuildingBlock: MIFKUJ_clean_linker_1, # of connection points: 4
#     Node 34, Type 1, BuildingBlock: MIFKUJ_clean_linker_1, # of connection points: 4
#     Node 35, Type 1, BuildingBlock: MIFKUJ_clean_linker_1, # of connection points: 4
#     Edge 36, Type (0, 1), BuildingBlock: TEMPAE_clean_linker_10, # of connection points: 2
#     Edge 37, Type (0, 1), BuildingBlock: TEMPAE_clean_linker_10, # of connection points: 2
#     Edge 38, Type (0, 1), BuildingBlock: TEMPAE_clean_linker_10, # of connection points: 2
#     Edge 39, Type (0, 1), BuildingBlock: TEMPAE_clean_linker_10, # of connection points: 2
#     Edge 40, Type (0, 1), BuildingBlock: TEMPAE_clean_linker_10, # of connection points: 2
#     Edge 41, Type (0, 1), BuildingBlock: TEMPAE_clean_linker_10, # of connection points: 2
#     Edge 42, Type (0, 1), BuildingBlock: TEMPAE_clean_linker_10, # of connection points: 2
#     Edge 43, Type (0, 1), BuildingBlock: TEMPAE_clean_linker_10, # of connection points: 2
#     Edge 44, Type (0, 1), BuildingBlock: TEMPAE_clean_linker_10, # of connection points: 2
#     Edge 45, Type (0, 1), BuildingBlock: TEMPAE_clean_linker_10, # of connection points: 2
#     Edge 46, Type (0, 1), BuildingBlock: TEMPAE_clean_linker_10, # of connection points: 2
#     Edge 47, Type (0, 1), BuildingBlock: TEMPAE_clean_linker_10, # of connection points: 2
#     Edge 48, Type (0, 1), BuildingBlock: TEMPAE_clean_linker_10, # of connection points: 2
#     Edge 49, Type (0, 1), BuildingBlock: TEMPAE_clean_linker_10, # of connection points: 2
#     Edge 50, Type (0, 1), BuildingBlock: TEMPAE_clean_linker_10, # of connection points: 2
#     Edge 51, Type (0, 1), BuildingBlock: TEMPAE_clean_linker_10, # of connection points: 2
#     Edge 52, Type (0, 1), BuildingBlock: TEMPAE_clean_linker_10, # of connection points: 2
#     Edge 53, Type (0, 1), BuildingBlock: TEMPAE_clean_linker_10, # of connection points: 2
#     Edge 54, Type (0, 1), BuildingBlock: TEMPAE_clean_linker_10, # of connection points: 2
#     Edge 55, Type (0, 1), BuildingBlock: TEMPAE_clean_linker_10, # of connection points: 2
#     Edge 56, Type (0, 1), BuildingBlock: TEMPAE_clean_linker_10, # of connection points: 2
#     Edge 57, Type (0, 1), BuildingBlock: TEMPAE_clean_linker_10, # of connection points: 2
#     Edge 58, Type (0, 1), BuildingBlock: TEMPAE_clean_linker_10, # of connection points: 2
#     Edge 59, Type (0, 1), BuildingBlock: TEMPAE_clean_linker_10, # of connection points: 2
#     Edge 60, Type (0, 1), BuildingBlock: TEMPAE_clean_linker_10, # of connection points: 2
#     Edge 61, Type (0, 1), BuildingBlock: TEMPAE_clean_linker_10, # of connection points: 2
#     Edge 62, Type (0, 1), BuildingBlock: TEMPAE_clean_linker_10, # of connection points: 2
#     Edge 63, Type (0, 1), BuildingBlock: TEMPAE_clean_linker_10, # of connection points: 2
#     Edge 64, Type (0, 1), BuildingBlock: TEMPAE_clean_linker_10, # of connection points: 2
#     Edge 65, Type (0, 1), BuildingBlock: TEMPAE_clean_linker_10, # of connection points: 2
#     Edge 66, Type (0, 1), BuildingBlock: TEMPAE_clean_linker_10, # of connection points: 2
#     Edge 67, Type (0, 1), BuildingBlock: TEMPAE_clean_linker_10, # of connection points: 2
#     Edge 68, Type (0, 1), BuildingBlock: TEMPAE_clean_linker_10, # of connection points: 2
#     Edge 69, Type (0, 1), BuildingBlock: TEMPAE_clean_linker_10, # of connection points: 2
#     Edge 70, Type (0, 1), BuildingBlock: TEMPAE_clean_linker_10, # of connection points: 2
#     Edge 71, Type (0, 1), BuildingBlock: TEMPAE_clean_linker_10, # of connection points: 2
#     Edge 72, Type (0, 1), BuildingBlock: TEMPAE_clean_linker_10, # of connection points: 2
#     Edge 73, Type (0, 1), BuildingBlock: TEMPAE_clean_linker_10, # of connection points: 2
#     Edge 74, Type (0, 1), BuildingBlock: TEMPAE_clean_linker_10, # of connection points: 2
#     Edge 75, Type (0, 1), BuildingBlock: TEMPAE_clean_linker_10, # of connection points: 2
#     Edge 76, Type (0, 1), BuildingBlock: TEMPAE_clean_linker_10, # of connection points: 2
#     Edge 77, Type (0, 1), BuildingBlock: TEMPAE_clean_linker_10, # of connection points: 2
#     Edge 78, Type (0, 1), BuildingBlock: TEMPAE_clean_linker_10, # of connection points: 2
#     Edge 79, Type (0, 1), BuildingBlock: TEMPAE_clean_linker_10, # of connection points: 2
#     Edge 80, Type (0, 1), BuildingBlock: TEMPAE_clean_linker_10, # of connection points: 2
#     Edge 81, Type (0, 1), BuildingBlock: TEMPAE_clean_linker_10, # of connection points: 2
#     Edge 82, Type (0, 1), BuildingBlock: TEMPAE_clean_linker_10, # of connection points: 2
#     Edge 83, Type (0, 1), BuildingBlock: TEMPAE_clean_linker_10, # of connection points: 2
#     Edge 84, Type (0, 1), BuildingBlock: TEMPAE_clean_linker_10, # of connection points: 2
#     Edge 85, Type (0, 1), BuildingBlock: TEMPAE_clean_linker_10, # of connection points: 2
#     Edge 86, Type (0, 1), BuildingBlock: TEMPAE_clean_linker_10, # of connection points: 2
#     Edge 87, Type (0, 1), BuildingBlock: TEMPAE_clean_linker_10, # of connection points: 2
#     Edge 88, Type (0, 1), BuildingBlock: TEMPAE_clean_linker_10, # of connection points: 2
#     Edge 89, Type (0, 1), BuildingBlock: TEMPAE_clean_linker_10, # of connection points: 2
#     Edge 90, Type (0, 1), BuildingBlock: TEMPAE_clean_linker_10, # of connection points: 2
#     Edge 91, Type (0, 1), BuildingBlock: TEMPAE_clean_linker_10, # of connection points: 2
#     Edge 92, Type (0, 1), BuildingBlock: TEMPAE_clean_linker_10, # of connection points: 2
#     Edge 93, Type (0, 1), BuildingBlock: TEMPAE_clean_linker_10, # of connection points: 2
#     Edge 94, Type (0, 1), BuildingBlock: TEMPAE_clean_linker_10, # of connection points: 2
#     Edge 95, Type (0, 1), BuildingBlock: TEMPAE_clean_linker_10, # of connection points: 2
#     Edge 96, Type (0, 1), BuildingBlock: TEMPAE_clean_linker_10, # of connection points: 2
#     Edge 97, Type (0, 1), BuildingBlock: TEMPAE_clean_linker_10, # of connection points: 2
#     Edge 98, Type (0, 1), BuildingBlock: TEMPAE_clean_linker_10, # of connection points: 2
#     Edge 99, Type (0, 1), BuildingBlock: TEMPAE_clean_linker_10, # of connection points: 2
#     Edge 100, Type (0, 1), BuildingBlock: TEMPAE_clean_linker_10, # of connection points: 2
#     Edge 101, Type (0, 1), BuildingBlock: TEMPAE_clean_linker_10, # of connection points: 2
#     Edge 102, Type (0, 1), BuildingBlock: TEMPAE_clean_linker_10, # of connection points: 2
#     Edge 103, Type (0, 1), BuildingBlock: TEMPAE_clean_linker_10, # of connection points: 2
#     Edge 104, Type (0, 1), BuildingBlock: TEMPAE_clean_linker_10, # of connection points: 2
#     Edge 105, Type (0, 1), BuildingBlock: TEMPAE_clean_linker_10, # of connection points: 2
#     Edge 106, Type (0, 1), BuildingBlock: TEMPAE_clean_linker_10, # of connection points: 2
#     Edge 107, Type (0, 1), BuildingBlock: TEMPAE_clean_linker_10, # of connection points: 2
# Relax obj value: 0.037
# Max RMSD: 0.119
# Mean RMSD: 0.059
data_MOF--net-ptr--node1-CEKHIL_clean_sbu_0--node2-MIFKUJ_clean_linker_1--edge1-TEMPAE_clean_linker_10
_symmetry_space_group_name_H-M    P1
_symmetry_Int_Tables_number       1
_symmetry_cell_setting            triclinic
loop_
_symmetry_equiv_pos_as_xyz
'x, y, z'
_cell_length_a     90.741008
_cell_length_b     89.753451
_cell_length_c     62.86565
_cell_angle_alpha  90.921148
_cell_angle_beta   89.487731
_cell_angle_gamma 120.95269
loop_
_atom_site_label
_atom_site_type_symbol
_atom_site_fract_x
_atom_site_fract_y
_atom_site_fract_z
_atom_type_partial_charge
Co0 Co 0.0062 0.34398 0.00927 0.0
O1 O 0.01195 0.33263 0.0305 0.0
O2 O 0.03067 0.35717 0.0148 0.0
C3 C 0.98917 0.31988 0.98984 0.0
O4 O 0.00508 0.35913 0.98622 0.0
Co5 Co 0.96842 0.33467 0.00322 0.0
O6 O 0.9775 0.34769 0.97636 0.0
C7 C 0.98857 0.35675 0.03964 0.0
C8 C 0.02778 0.34512 0.02832 0.0
C9 C 0.99351 0.3584 0.97379 0.0
O10 O 0.00216 0.35756 0.032 0.0
O11 O 0.97361 0.34719 0.03148 0.0
O12 O 0.00575 0.32796 0.98749 0.0
O13 O 0.98365 0.32565 0.00496 0.0
Co14 Co 0.65857 0.65795 0.01099 0.0
O15 O 0.67413 0.6686 0.98754 0.0
O16 O 0.67036 0.64558 0.00495 0.0
C17 C 0.666 0.68265 0.02909 0.0
O18 O 0.64419 0.64364 0.0362 0.0
Co19 Co 0.62931 0.66553 0.0203 0.0
O20 O 0.6264 0.65276 0.04688 0.0
C21 C 0.62565 0.64186 0.98489 0.0
C22 C 0.67822 0.65684 0.98999 0.0
C23 C 0.633 0.64334 0.04924 0.0
O24 O 0.63964 0.64263 0.99042 0.0
O25 O 0.61994 0.65077 0.99395 0.0
O26 O 0.67525 0.67548 0.03061 0.0
O27 O 0.65368 0.67565 0.01535 0.0
Co28 Co 0.34422 0.00335 0.01008 0.0
O29 O 0.33335 0.00874 0.9878 0.0
O30 O 0.35653 0.02815 0.00546 0.0
C31 C 0.31995 0.98523 0.02795 0.0
O32 O 0.35878 0.0028 0.03432 0.0
Co33 Co 0.33646 0.96569 0.01612 0.0
O34 O 0.34814 0.97504 0.04385 0.0
C35 C 0.35935 0.9869 0.9812 0.0
C36 C 0.3451 0.02491 0.99093 0.0
C37 C 0.35817 0.9913 0.04692 0.0
O38 O 0.35897 1.00022 0.98841 0.0
O39 O 0.35031 0.97173 0.98912 0.0
O40 O 0.32726 0.00194 0.03061 0.0
O41 O 0.32656 0.98017 0.01333 0.0
Co42 Co 0.99647 0.65924 0.01019 0.0
O43 O 0.98903 0.66949 0.9895 0.0
O44 O 0.97167 0.64565 0.00749 0.0
C45 C 0.01459 0.68405 0.02783 0.0
O46 O 0.99959 0.64514 0.03299 0.0
Co47 Co 0.03477 0.66947 0.01124 0.0
O48 O 0.02778 0.65523 0.03732 0.0
C49 C 0.01214 0.64616 0.97725 0.0
C50 C 0.97352 0.6569 0.99331 0.0
C51 C 0.0121 0.64516 0.04255 0.0
O52 O 0.99906 0.645 0.98697 0.0
O53 O 0.02764 0.65647 0.98333 0.0
O54 O 0.99824 0.6758 0.03206 0.0
O55 O 0.01908 0.67801 0.0119 0.0
Co56 Co 0.34524 0.34444 0.01189 0.0
O57 O 0.32831 0.33218 0.03353 0.0
O58 O 0.3333 0.35658 0.01868 0.0
C59 C 0.33863 0.32086 0.9917 0.0
O60 O 0.3609 0.36035 0.98854 0.0
Co61 Co 0.37471 0.3372 0.00289 0.0
O62 O 0.37892 0.35163 0.97747 0.0
C63 C 0.37712 0.3591 0.03987 0.0
C64 C 0.32444 0.34418 0.0321 0.0
C65 C 0.37253 0.3613 0.97577 0.0
O66 O 0.36312 0.35832 0.0343 0.0
O67 O 0.38326 0.35082 0.03017 0.0
O68 O 0.3297 0.32839 0.99014 0.0
O69 O 0.35018 0.32689 0.00643 0.0
Co70 Co 0.65846 0.00097 0.01135 0.0
O71 O 0.66961 0.99504 0.03261 0.0
O72 O 0.64612 0.97602 0.01512 0.0
C73 C 0.68241 0.01941 0.99317 0.0
O74 O 0.64368 0.00236 0.98802 0.0
Co75 Co 0.66678 0.03916 0.00912 0.0
O76 O 0.65089 0.0303 0.9845 0.0
C77 C 0.64468 0.01674 0.04344 0.0
C78 C 0.65774 0.97896 0.02926 0.0
C79 C 0.6421 0.01429 0.97908 0.0
O80 O 0.64403 0.00355 0.03409 0.0
O81 O 0.65443 0.03236 0.03715 0.0
O82 O 0.67498 0.00276 0.9899 0.0
O83 O 0.67624 0.02416 0.00867 0.0
Co84 Co 0.6743 0.68056 0.34014 0.0
O85 O 0.67859 0.6693 0.36313 0.0
O86 O 0.69848 0.69309 0.34702 0.0
C87 C 0.65756 0.65617 0.32096 0.0
O88 O 0.67512 0.69576 0.31576 0.0
Co89 Co 0.63768 0.67271 0.32915 0.0
O90 O 0.6486 0.68531 0.30259 0.0
C91 C 0.65621 0.69533 0.36618 0.0
C92 C 0.69465 0.68133 0.36131 0.0
C93 C 0.6648 0.69562 0.30172 0.0
O94 O 0.66976 0.69484 0.36132 0.0
O95 O 0.64198 0.68673 0.35606 0.0
O96 O 0.67419 0.66383 0.31979 0.0
O97 O 0.65165 0.66265 0.3347 0.0
Co98 Co 0.32519 0.99111 0.34759 0.0
O99 O 0.34121 0.00103 0.32435 0.0
O100 O 0.3359 0.97762 0.34206 0.0
C101 C 0.33357 0.01619 0.36535 0.0
O102 O 0.3102 0.97732 0.3727 0.0
Co103 Co 0.29705 1.00043 0.35605 0.0
O104 O 0.29303 0.98739 0.38268 0.0
C105 C 0.29259 0.97622 0.32094 0.0
C106 C 0.34439 0.98863 0.32708 0.0
C107 C 0.29906 0.97749 0.3854 0.0
O108 O 0.30618 0.97632 0.32682 0.0
O109 O 0.2874 0.9857 0.3297 0.0
O110 O 0.34216 0.00834 0.36726 0.0
O111 O 0.32133 0.00958 0.35148 0.0
Co112 Co 0.01295 0.33941 0.34455 0.0
O113 O 0.0022 0.34468 0.32195 0.0
O114 O 0.02532 0.36416 0.33966 0.0
C115 C 0.98857 0.32138 0.36226 0.0
O116 O 0.02745 0.33914 0.36913 0.0
Co117 Co 0.00526 0.30186 0.35158 0.0
O118 O 0.01766 0.31159 0.37871 0.0
C119 C 0.02882 0.32292 0.31716 0.0
C120 C 0.01401 0.36086 0.32494 0.0
C121 C 0.02745 0.3279 0.38166 0.0
O122 O 0.02771 0.3361 0.32306 0.0
O123 O 0.0204 0.308 0.32582 0.0
O124 O 0.99588 0.3381 0.36481 0.0
O125 O 0.9953 0.31622 0.34792 0.0
Co126 Co 0.66245 0.9892 0.34545 0.0
O127 O 0.65659 0.99969 0.32312 0.0
O128 O 0.638 0.97578 0.34007 0.0
C129 C 0.67946 0.01414 0.36357 0.0
O130 O 0.66332 0.97465 0.36951 0.0
Co131 Co 0.69992 0.99864 0.35401 0.0
O132 O 0.69044 0.98615 0.38107 0.0
C133 C 0.68042 0.97515 0.31796 0.0
C134 C 0.6408 0.98719 0.32568 0.0
C135 C 0.67438 0.97539 0.38284 0.0
O136 O 0.66676 0.97514 0.32369 0.0
O137 O 0.69497 0.98432 0.32725 0.0
O138 O 0.6629 0.00587 0.36626 0.0
O139 O 0.685 0.00774 0.34927 0.0
Co140 Co 0.01244 0.67926 0.34597 0.0
O141 O 0.995 0.66688 0.36708 0.0
O142 O 0.99982 0.69092 0.35142 0.0
C143 C 0.00696 0.65566 0.32648 0.0
O144 O 0.02852 0.69521 0.32288 0.0
Co145 Co 0.04274 0.67291 0.33915 0.0
O146 O 0.04726 0.68701 0.31334 0.0
C147 C 0.04359 0.69483 0.37529 0.0
C148 C 0.99083 0.67861 0.36488 0.0
C149 C 0.0406 0.69636 0.31079 0.0
O150 O 0.02957 0.69363 0.36891 0.0
O151 O 0.05028 0.68679 0.36633 0.0
O152 O 0.99773 0.66278 0.32394 0.0
O153 O 0.01808 0.6621 0.34167 0.0
Co154 Co 0.32685 0.33575 0.34428 0.0
O155 O 0.3388 0.33086 0.36561 0.0
O156 O 0.31434 0.31116 0.35044 0.0
C157 C 0.35024 0.35279 0.32439 0.0
O158 O 0.31126 0.33575 0.32103 0.0
Co159 Co 0.33508 0.37344 0.33721 0.0
O160 O 0.32099 0.36325 0.31123 0.0
C161 C 0.31361 0.35371 0.37377 0.0
C162 C 0.32667 0.3147 0.36373 0.0
C163 C 0.31092 0.34692 0.30873 0.0
O164 O 0.31351 0.34005 0.36696 0.0
O165 O 0.32243 0.36856 0.36497 0.0
O166 O 0.34248 0.33598 0.32251 0.0
O167 O 0.34462 0.3586 0.33936 0.0
Co168 Co 0.34098 0.01486 0.67332 0.0
O169 O 0.34692 0.00481 0.69612 0.0
O170 O 0.36542 0.02851 0.67867 0.0
C171 C 0.32421 0.98987 0.65523 0.0
O172 O 0.33985 0.02891 0.64876 0.0
Co173 Co 0.3031 0.00482 0.66575 0.0
O174 O 0.31234 0.01861 0.63958 0.0
C175 C 0.32283 0.02863 0.70118 0.0
C176 C 0.36266 0.01737 0.69341 0.0
C177 C 0.3284 0.02882 0.63666 0.0
O178 O 0.33657 0.02911 0.69473 0.0
O179 O 0.30807 0.01894 0.69262 0.0
O180 O 0.3408 0.99803 0.65304 0.0
O181 O 0.3185 0.99616 0.66948 0.0
Co182 Co 0.99184 0.32414 0.67502 0.0
O183 O 0.00797 0.33713 0.6528 0.0
O184 O 0.00486 0.31334 0.66728 0.0
C185 C 0.9975 0.34732 0.69547 0.0
O186 O 0.97735 0.30761 0.69868 0.0
Co187 Co 0.96095 0.32858 0.68656 0.0
O188 O 0.96056 0.31674 0.71309 0.0
C189 C 0.95898 0.30749 0.64877 0.0
C190 C 0.01286 0.32586 0.65378 0.0
C191 C 0.96714 0.30718 0.71333 0.0
O192 O 0.97372 0.3095 0.65322 0.0
O193 O 0.95214 0.31466 0.65947 0.0
O194 O 0.00747 0.34091 0.69622 0.0
O195 O 0.98543 0.34049 0.6814 0.0
Co196 Co 0.6758 0.66783 0.67655 0.0
O197 O 0.66456 0.67279 0.65427 0.0
O198 O 0.68827 0.69247 0.67083 0.0
C199 C 0.65189 0.6505 0.69549 0.0
O200 O 0.69081 0.66784 0.70059 0.0
Co201 Co 0.66762 0.63017 0.68395 0.0
O202 O 0.68165 0.64037 0.71 0.0
C203 C 0.68921 0.6499 0.64748 0.0
C204 C 0.67653 0.68897 0.65664 0.0
C205 C 0.69137 0.65672 0.71277 0.0
O206 O 0.68981 0.66373 0.65466 0.0
O207 O 0.67989 0.63497 0.65591 0.0
O208 O 0.65943 0.66728 0.69745 0.0
O209 O 0.65803 0.64489 0.68093 0.0
Co210 Co 0.33009 0.32423 0.67846 0.0
O211 O 0.32538 0.33669 0.65761 0.0
O212 O 0.30585 0.31158 0.67154 0.0
C213 C 0.34676 0.3478 0.69901 0.0
O214 O 0.3298 0.30794 0.70099 0.0
Co215 Co 0.36701 0.33234 0.68764 0.0
O216 O 0.35649 0.31873 0.71374 0.0
C217 C 0.34818 0.31077 0.65002 0.0
C218 C 0.30943 0.3243 0.65882 0.0
C219 C 0.34037 0.30798 0.71457 0.0
O220 O 0.33473 0.31129 0.65539 0.0
O221 O 0.36244 0.31895 0.66017 0.0
O222 O 0.33013 0.33962 0.70089 0.0
O223 O 0.35261 0.34218 0.68411 0.0
Co224 Co 0.67836 0.01366 0.6726 0.0
O225 O 0.66228 0.00331 0.69571 0.0
O226 O 0.6665 0.02611 0.6774 0.0
C227 C 0.67134 0.98875 0.65523 0.0
O228 O 0.6932 0.02774 0.64757 0.0
Co229 Co 0.70787 0.00621 0.66491 0.0
O230 O 0.71151 0.01896 0.63813 0.0
C231 C 0.71077 0.03009 0.69969 0.0
C232 C 0.65832 0.01509 0.69247 0.0
C233 C 0.70479 0.0282 0.63513 0.0
O234 O 0.69686 0.02923 0.69353 0.0
O235 O 0.71668 0.02115 0.69119 0.0
O236 O 0.66209 0.99585 0.65288 0.0
O237 O 0.68341 0.99597 0.66927 0.0
Co238 Co 0.99168 0.66621 0.67736 0.0
O239 O 0.0031 0.66085 0.69896 0.0
O240 O 0.97883 0.64156 0.68309 0.0
C241 C 0.0155 0.68334 0.6582 0.0
O242 O 0.97653 0.6666 0.65368 0.0
Co243 Co 1.00026 0.70401 0.67013 0.0
O244 O 0.98716 0.69415 0.64346 0.0
C245 C 0.97749 0.68393 0.70562 0.0
C246 C 0.99084 0.64477 0.69674 0.0
C247 C 0.97679 0.67788 0.64099 0.0
O248 O 0.97815 0.67048 0.69979 0.0
O249 O 0.98585 0.69865 0.69646 0.0
O250 O 0.00764 0.66655 0.65599 0.0
O251 O 0.00965 0.68907 0.67298 0.0
H252 H 0.15583 0.34677 0.205 0.0
H253 H 0.13392 0.34735 0.22662 0.0
H254 H 0.0949 0.31145 0.18256 0.0
H255 H 0.11682 0.30943 0.16234 0.0
H256 H 0.16258 0.32366 0.19818 0.0
H257 H 0.14851 0.35625 0.14996 0.0
H258 H 0.12905 0.36138 0.12889 0.0
H259 H 0.11219 0.3131 0.0946 0.0
H260 H 0.13206 0.30839 0.11532 0.0
H261 H 0.17976 0.30571 0.11725 0.0
H262 H 0.20483 0.3091 0.09798 0.0
H263 H 0.23753 0.35617 0.13404 0.0
H264 H 0.21247 0.35232 0.15363 0.0
H265 H 0.168 0.3295 0.11979 0.0
H266 H 0.18929 0.30234 0.16691 0.0
H267 H 0.21056 0.30095 0.18927 0.0
H268 H 0.21605 0.34415 0.22707 0.0
H269 H 0.19499 0.34555 0.20475 0.0
C270 C 0.1381 0.32815 0.18186 0.0
C271 C 0.14254 0.33889 0.20005 0.0
C272 C 0.12992 0.33944 0.21225 0.0
C273 C 0.11249 0.3296 0.20635 0.0
C274 C 0.1081 0.31908 0.18787 0.0
C275 C 0.12072 0.31814 0.17599 0.0
C276 C 0.15175 0.32719 0.16968 0.0
C277 C 0.16385 0.32515 0.18105 0.0
C278 C 0.15321 0.32862 0.14725 0.0
C279 C 0.1416 0.33187 0.1343 0.0
C280 C 0.14061 0.3468 0.13787 0.0
C281 C 0.12942 0.34967 0.12587 0.0
C282 C 0.11899 0.33763 0.11006 0.0
C283 C 0.1202 0.32278 0.10639 0.0
C284 C 0.13148 0.32 0.1183 0.0
C285 C 0.19431 0.32866 0.13697 0.0
C286 C 0.19236 0.3167 0.121 0.0
C287 C 0.2067 0.31874 0.10994 0.0
C288 C 0.22323 0.33293 0.11444 0.0
C289 C 0.22506 0.34493 0.13041 0.0
C290 C 0.21075 0.3428 0.14157 0.0
C291 C 0.17913 0.32672 0.14847 0.0
C292 C 0.16666 0.32798 0.13691 0.0
C293 C 0.17765 0.32515 0.17083 0.0
C294 C 0.19057 0.3241 0.18409 0.0
C295 C 0.19518 0.31159 0.17993 0.0
C296 C 0.2073 0.31078 0.19272 0.0
C297 C 0.21487 0.32234 0.21005 0.0
C298 C 0.21021 0.33483 0.21412 0.0
C299 C 0.19821 0.33569 0.20131 0.0
H300 H 0.70971 0.88632 0.18566 0.0
H301 H 0.70718 0.90777 0.20762 0.0
H302 H 0.65258 0.88041 0.1955 0.0
H303 H 0.65524 0.85916 0.17327 0.0
H304 H 0.68825 0.84745 0.19446 0.0
H305 H 0.70293 0.88974 0.1368 0.0
H306 H 0.69749 0.9094 0.11615 0.0
H307 H 0.64617 0.86707 0.10231 0.0
H308 H 0.65175 0.84742 0.12278 0.0
H309 H 0.65964 0.80718 0.11606 0.0
H310 H 0.65912 0.78292 0.09688 0.0
H311 H 0.70578 0.79411 0.12848 0.0
H312 H 0.70697 0.81904 0.14672 0.0
H313 H 0.67898 0.83978 0.11639 0.0
H314 H 0.65959 0.79869 0.17301 0.0
H315 H 0.65912 0.77628 0.19532 0.0
H316 H 0.71193 0.8117 0.213 0.0
H317 H 0.71224 0.83435 0.19104 0.0
C318 C 0.68267 0.87125 0.17789 0.0
C319 C 0.69726 0.88511 0.18754 0.0
C320 C 0.69581 0.89735 0.19994 0.0
C321 C 0.67968 0.89568 0.20318 0.0
C322 C 0.66513 0.88192 0.19324 0.0
C323 C 0.66664 0.86985 0.18056 0.0
C324 C 0.68393 0.85767 0.16595 0.0
C325 C 0.68662 0.84596 0.17733 0.0
C326 C 0.68095 0.8553 0.14383 0.0
C327 C 0.67773 0.86716 0.13129 0.0
C328 C 0.69053 0.88471 0.12928 0.0
C329 C 0.68744 0.89588 0.11743 0.0
C330 C 0.67141 0.88972 0.10765 0.0
C331 C 0.65859 0.87215 0.10979 0.0
C332 C 0.66178 0.86093 0.12136 0.0
C333 C 0.6832 0.81483 0.13312 0.0
C334 C 0.66989 0.80459 0.11872 0.0
C335 C 0.66954 0.79073 0.10785 0.0
C336 C 0.68235 0.78674 0.11145 0.0
C337 C 0.69571 0.79695 0.1257 0.0
C338 C 0.69628 0.81106 0.13621 0.0
C339 C 0.68341 0.82944 0.14483 0.0
C340 C 0.68092 0.84134 0.13347 0.0
C341 C 0.68595 0.83162 0.16712 0.0
C342 C 0.68596 0.81813 0.18038 0.0
C343 C 0.67107 0.80163 0.18168 0.0
C344 C 0.6708 0.78888 0.1944 0.0
C345 C 0.6855 0.79233 0.20576 0.0
C346 C 0.70049 0.80876 0.20426 0.0
C347 C 0.70064 0.82167 0.19186 0.0
H348 H 0.12338 0.83553 0.19718 0.0
H349 H 0.10148 0.81268 0.21971 0.0
H350 H 0.11039 0.77492 0.18818 0.0
H351 H 0.1325 0.79776 0.16617 0.0
H352 H 0.15674 0.84681 0.19564 0.0
H353 H 0.11092 0.82223 0.1422 0.0
H354 H 0.08782 0.79712 0.12298 0.0
H355 H 0.12434 0.78323 0.10047 0.0
H356 H 0.14738 0.80837 0.11953 0.0
H357 H 0.19111 0.85333 0.11429 0.0
H358 H 0.21596 0.87544 0.09442 0.0
H359 H 0.21361 0.91583 0.12954 0.0
H360 H 0.18814 0.89383 0.14848 0.0
H361 H 0.15967 0.84393 0.11696 0.0
H362 H 0.20312 0.86236 0.17248 0.0
H363 H 0.22677 0.88306 0.19566 0.0
H364 H 0.1968 0.90579 0.21513 0.0
H365 H 0.17301 0.88478 0.19245 0.0
C366 C 0.12943 0.81835 0.17973 0.0
C367 C 0.12052 0.8223 0.19501 0.0
C368 C 0.10802 0.80926 0.20786 0.0
C369 C 0.10416 0.79202 0.20559 0.0
C370 C 0.11286 0.78803 0.19001 0.0
C371 C 0.12548 0.80109 0.17737 0.0
C372 C 0.14366 0.83242 0.16729 0.0
C373 C 0.15719 0.84635 0.1784 0.0
C374 C 0.14463 0.83156 0.14486 0.0
C375 C 0.13082 0.81709 0.1323 0.0
C376 C 0.11394 0.81382 0.133 0.0
C377 C 0.1008 0.79954 0.12202 0.0
C378 C 0.10433 0.78823 0.11039 0.0
C379 C 0.12128 0.79167 0.1095 0.0
C380 C 0.13444 0.80607 0.12021 0.0
C381 C 0.18787 0.87184 0.13324 0.0
C382 C 0.1958 0.86692 0.11761 0.0
C383 C 0.21 0.87952 0.10632 0.0
C384 C 0.21669 0.89724 0.11068 0.0
C385 C 0.20877 0.90221 0.12616 0.0
C386 C 0.19431 0.88963 0.13709 0.0
C387 C 0.1728 0.85837 0.14533 0.0
C388 C 0.15912 0.84455 0.13417 0.0
C389 C 0.17183 0.85909 0.16777 0.0
C390 C 0.1864 0.87214 0.18077 0.0
C391 C 0.20172 0.87188 0.18166 0.0
C392 C 0.21515 0.88363 0.19486 0.0
C393 C 0.21353 0.89598 0.20698 0.0
C394 C 0.19834 0.89645 0.20574 0.0
C395 C 0.18477 0.88446 0.19292 0.0
H396 H 0.29087 0.17135 0.83231 0.0
H397 H 0.29105 0.19351 0.80947 0.0
H398 H 0.34612 0.22529 0.81654 0.0
H399 H 0.34582 0.20338 0.8396 0.0
H400 H 0.31533 0.1559 0.82437 0.0
H401 H 0.29629 0.18243 0.87776 0.0
H402 H 0.29776 0.20785 0.89503 0.0
H403 H 0.35126 0.22824 0.90969 0.0
H404 H 0.34971 0.20276 0.89245 0.0
H405 H 0.35322 0.15696 0.89608 0.0
H406 H 0.35827 0.13696 0.91665 0.0
H407 H 0.30633 0.09554 0.90372 0.0
H408 H 0.30142 0.11551 0.88301 0.0
H409 H 0.3275 0.16648 0.90178 0.0
H410 H 0.3489 0.14459 0.84614 0.0
H411 H 0.35134 0.12314 0.8241 0.0
H412 H 0.29675 0.09605 0.81206 0.0
H413 H 0.29442 0.11773 0.83382 0.0
C414 C 0.31834 0.18579 0.83755 0.0
C415 C 0.30293 0.18313 0.82895 0.0
C416 C 0.30304 0.19578 0.81604 0.0
C417 C 0.31861 0.21102 0.81123 0.0
C418 C 0.33398 0.21359 0.8199 0.0
C419 C 0.33382 0.20114 0.83306 0.0
C420 C 0.31857 0.1726 0.8511 0.0
C421 C 0.31749 0.15792 0.8414 0.0
C422 C 0.32207 0.17563 0.87308 0.0
C423 C 0.3229 0.19078 0.88389 0.0
C424 C 0.30832 0.19239 0.88471 0.0
C425 C 0.30915 0.20686 0.89458 0.0
C426 C 0.32463 0.22 0.90358 0.0
C427 C 0.33923 0.21836 0.90267 0.0
C428 C 0.33833 0.20379 0.89301 0.0
C429 C 0.32697 0.13768 0.88803 0.0
C430 C 0.34293 0.14359 0.89776 0.0
C431 C 0.34582 0.13216 0.90938 0.0
C432 C 0.33268 0.11474 0.91177 0.0
C433 C 0.31663 0.10894 0.90225 0.0
C434 C 0.31384 0.12029 0.89037 0.0
C435 C 0.32407 0.1496 0.87509 0.0
C436 C 0.32484 0.16414 0.88487 0.0
C437 C 0.32043 0.14652 0.85312 0.0
C438 C 0.32147 0.13266 0.84155 0.0
C439 C 0.33744 0.1339 0.83896 0.0
C440 C 0.33883 0.12172 0.82638 0.0
C441 C 0.32422 0.108 0.81648 0.0
C442 C 0.30815 0.10644 0.81971 0.0
C443 C 0.30681 0.11881 0.832 0.0
H444 H 0.82893 0.11806 0.82807 0.0
H445 H 0.80442 0.09767 0.80591 0.0
H446 H 0.77575 0.12101 0.82862 0.0
H447 H 0.80019 0.14114 0.85121 0.0
H448 H 0.84552 0.1563 0.82552 0.0
H449 H 0.81426 0.10859 0.87276 0.0
H450 H 0.78851 0.08733 0.89196 0.0
H451 H 0.78933 0.12873 0.92871 0.0
H452 H 0.81447 0.15015 0.90863 0.0
H453 H 0.85756 0.19018 0.90843 0.0
H454 H 0.88124 0.21467 0.92756 0.0
H455 H 0.91782 0.20853 0.89 0.0
H456 H 0.89419 0.18332 0.87174 0.0
H457 H 0.84549 0.15785 0.90444 0.0
H458 H 0.86648 0.20334 0.85219 0.0
H459 H 0.88764 0.22691 0.82976 0.0
H460 H 0.90399 0.19284 0.80405 0.0
H461 H 0.8825 0.16912 0.82621 0.0
C462 C 0.81627 0.13098 0.84129 0.0
C463 C 0.81729 0.11864 0.82843 0.0
C464 C 0.80331 0.10699 0.81592 0.0
C465 C 0.78826 0.10781 0.81572 0.0
C466 C 0.78724 0.12017 0.8286 0.0
C467 C 0.80112 0.1316 0.84146 0.0
C468 C 0.83133 0.14372 0.85385 0.0
C469 C 0.84566 0.15647 0.84279 0.0
C470 C 0.83114 0.14418 0.87635 0.0
C471 C 0.81614 0.13107 0.88884 0.0
C472 C 0.80875 0.11318 0.88463 0.0
C473 C 0.79413 0.10102 0.89568 0.0
C474 C 0.78699 0.10648 0.91165 0.0
C475 C 0.79468 0.12427 0.91644 0.0
C476 C 0.80905 0.13647 0.90503 0.0
C477 C 0.87403 0.18503 0.88833 0.0
C478 C 0.87064 0.19387 0.9045 0.0
C479 C 0.88414 0.20787 0.91537 0.0
C480 C 0.90123 0.21344 0.91003 0.0
C481 C 0.90469 0.2045 0.89417 0.0
C482 C 0.8912 0.19022 0.88366 0.0
C483 C 0.85961 0.1707 0.87611 0.0
C484 C 0.84542 0.15759 0.88718 0.0
C485 C 0.85959 0.17015 0.8536 0.0
C486 C 0.873 0.18455 0.84086 0.0
C487 C 0.87469 0.20099 0.84182 0.0
C488 C 0.88672 0.21438 0.82902 0.0
C489 C 0.89739 0.21161 0.81528 0.0
C490 C 0.89596 0.19527 0.81466 0.0
C491 C 0.88369 0.18175 0.82718 0.0
H492 H 0.80913 0.65933 0.81351 0.0
H493 H 0.7882 0.66108 0.79142 0.0
H494 H 0.79291 0.70315 0.83097 0.0
H495 H 0.81392 0.70121 0.85329 0.0
H496 H 0.84176 0.68178 0.82205 0.0
H497 H 0.78871 0.654 0.86005 0.0
H498 H 0.76378 0.65109 0.87864 0.0
H499 H 0.79712 0.68653 0.9277 0.0
H500 H 0.82205 0.69079 0.90777 0.0
H501 H 0.86357 0.68874 0.91033 0.0
H502 H 0.88191 0.68335 0.93284 0.0
H503 H 0.87936 0.64582 0.88663 0.0
H504 H 0.8595 0.64995 0.86539 0.0
H505 H 0.8324 0.66989 0.89917 0.0
H506 H 0.88614 0.69475 0.85937 0.0
H507 H 0.90904 0.694 0.83962 0.0
H508 H 0.87179 0.65949 0.79295 0.0
H509 H 0.84898 0.65891 0.81386 0.0
C510 C 0.81307 0.68008 0.83511 0.0
C511 C 0.80581 0.66906 0.81734 0.0
C512 C 0.79387 0.67013 0.80465 0.0
C513 C 0.78894 0.68234 0.80932 0.0
C514 C 0.79633 0.69352 0.82704 0.0
C515 C 0.80835 0.69245 0.83977 0.0
C516 C 0.82535 0.67825 0.84871 0.0
C517 C 0.83971 0.67909 0.83893 0.0
C518 C 0.82271 0.67498 0.87079 0.0
C519 C 0.80736 0.67297 0.88216 0.0
C520 C 0.7907 0.66154 0.87449 0.0
C521 C 0.77636 0.6596 0.88544 0.0
C522 C 0.7783 0.66856 0.90479 0.0
C523 C 0.79502 0.67972 0.91265 0.0
C524 C 0.80935 0.682 0.90137 0.0
C525 C 0.86037 0.67004 0.88587 0.0
C526 C 0.8668 0.67919 0.90515 0.0
C527 C 0.87754 0.67625 0.91792 0.0
C528 C 0.88245 0.6643 0.91156 0.0
C529 C 0.8758 0.65498 0.89232 0.0
C530 C 0.86464 0.65758 0.87986 0.0
C531 C 0.84887 0.67332 0.87252 0.0
C532 C 0.83464 0.6728 0.88236 0.0
C533 C 0.85143 0.67649 0.85037 0.0
C534 C 0.86573 0.67667 0.83834 0.0
C535 C 0.88289 0.68673 0.84513 0.0
C536 C 0.89604 0.68647 0.83359 0.0
C537 C 0.89239 0.67657 0.81464 0.0
C538 C 0.8752 0.66686 0.80773 0.0
C539 C 0.86208 0.66676 0.81953 0.0
H540 H 0.82094 0.68115 0.53724 0.0
H541 H 0.79815 0.68015 0.55922 0.0
H542 H 0.7601 0.63729 0.52106 0.0
H543 H 0.78305 0.63835 0.499 0.0
H544 H 0.82964 0.65751 0.53156 0.0
H545 H 0.80782 0.68519 0.48964 0.0
H546 H 0.78645 0.68825 0.47056 0.0
H547 H 0.78264 0.6506 0.42362 0.0
H548 H 0.80248 0.64609 0.44434 0.0
H549 H 0.84591 0.64083 0.44975 0.0
H550 H 0.87076 0.64413 0.43004 0.0
H551 H 0.90383 0.69143 0.46551 0.0
H552 H 0.87899 0.68764 0.48559 0.0
H553 H 0.8339 0.66462 0.4533 0.0
H554 H 0.85596 0.63703 0.4991 0.0
H555 H 0.87723 0.63532 0.52109 0.0
H556 H 0.88408 0.67923 0.55858 0.0
H557 H 0.86283 0.68075 0.53678 0.0
C558 C 0.80371 0.65984 0.51647 0.0
C559 C 0.80769 0.6715 0.53361 0.0
C560 C 0.79466 0.67091 0.54617 0.0
C561 C 0.77734 0.6586 0.54192 0.0
C562 C 0.77332 0.64703 0.52458 0.0
C563 C 0.78641 0.64759 0.51202 0.0
C564 C 0.81782 0.66044 0.50365 0.0
C565 C 0.8306 0.65917 0.51445 0.0
C566 C 0.81892 0.66241 0.48124 0.0
C567 C 0.80645 0.66498 0.4689 0.0
C568 C 0.80203 0.6772 0.47558 0.0
C569 C 0.79 0.67924 0.46427 0.0
C570 C 0.7826 0.66966 0.4454 0.0
C571 C 0.78757 0.6579 0.43833 0.0
C572 C 0.79919 0.65547 0.45004 0.0
C573 C 0.86065 0.6639 0.46923 0.0
C574 C 0.85854 0.65188 0.45325 0.0
C575 C 0.87276 0.65386 0.44192 0.0
C576 C 0.88935 0.66806 0.44616 0.0
C577 C 0.89133 0.68017 0.46207 0.0
C578 C 0.87713 0.67809 0.4735 0.0
C579 C 0.84562 0.66176 0.48131 0.0
C580 C 0.83272 0.66274 0.47036 0.0
C581 C 0.84453 0.65992 0.50364 0.0
C582 C 0.85782 0.65904 0.51628 0.0
C583 C 0.86217 0.64636 0.51196 0.0
C584 C 0.87431 0.64538 0.52455 0.0
C585 C 0.88223 0.65702 0.54174 0.0
C586 C 0.87796 0.66981 0.54578 0.0
C587 C 0.86587 0.67077 0.53325 0.0
H588 H 0.37482 0.21757 0.5237 0.0
H589 H 0.37217 0.23917 0.54514 0.0
H590 H 0.31864 0.21446 0.52788 0.0
H591 H 0.32145 0.19309 0.50596 0.0
H592 H 0.35298 0.17915 0.5285 0.0
H593 H 0.36697 0.22561 0.47973 0.0
H594 H 0.36102 0.24555 0.4608 0.0
H595 H 0.31859 0.20209 0.42846 0.0
H596 H 0.32393 0.18202 0.44826 0.0
H597 H 0.33038 0.14381 0.44631 0.0
H598 H 0.33081 0.12021 0.42686 0.0
H599 H 0.376 0.13056 0.46155 0.0
H600 H 0.37618 0.15485 0.48024 0.0
H601 H 0.34919 0.17643 0.44973 0.0
H602 H 0.33086 0.13012 0.498 0.0
H603 H 0.33141 0.10768 0.51889 0.0
H604 H 0.37612 0.14716 0.55264 0.0
H605 H 0.37583 0.16962 0.53127 0.0
C606 C 0.34835 0.20383 0.51326 0.0
C607 C 0.36255 0.21688 0.52446 0.0
C608 C 0.36106 0.22923 0.53653 0.0
C609 C 0.34523 0.22845 0.53799 0.0
C610 C 0.33096 0.21529 0.52692 0.0
C611 C 0.33255 0.20314 0.51447 0.0
C612 C 0.35006 0.19083 0.50048 0.0
C613 C 0.35241 0.17865 0.51125 0.0
C614 C 0.34862 0.18992 0.47805 0.0
C615 C 0.34566 0.20223 0.46585 0.0
C616 C 0.35615 0.22029 0.46893 0.0
C617 C 0.35283 0.2317 0.45802 0.0
C618 C 0.33928 0.2253 0.44334 0.0
C619 C 0.32911 0.20731 0.43972 0.0
C620 C 0.3322 0.19587 0.45098 0.0
C621 C 0.3531 0.15099 0.46501 0.0
C622 C 0.3406 0.14127 0.44948 0.0
C623 C 0.3408 0.12777 0.43843 0.0
C624 C 0.35337 0.12359 0.44289 0.0
C625 C 0.3661 0.1335 0.45803 0.0
C626 C 0.36615 0.14729 0.46874 0.0
C627 C 0.35207 0.16456 0.4777 0.0
C628 C 0.34985 0.17689 0.46696 0.0
C629 C 0.35302 0.16525 0.50024 0.0
C630 C 0.35346 0.15158 0.51282 0.0
C631 C 0.34098 0.13396 0.50961 0.0
C632 C 0.34131 0.12113 0.52155 0.0
C633 C 0.35388 0.12567 0.53727 0.0
C634 C 0.36627 0.1433 0.54063 0.0
C635 C 0.36609 0.15613 0.52848 0.0
H636 H 0.78993 0.16863 0.52574 0.0
H637 H 0.76773 0.14528 0.54746 0.0
H638 H 0.77617 0.10801 0.51377 0.0
H639 H 0.79862 0.13134 0.49261 0.0
H640 H 0.82359 0.17962 0.5233 0.0
H641 H 0.77681 0.15727 0.47083 0.0
H642 H 0.75274 0.13175 0.45337 0.0
H643 H 0.78778 0.11634 0.42954 0.0
H644 H 0.81181 0.14197 0.4467 0.0
H645 H 0.85648 0.18822 0.44048 0.0
H646 H 0.88156 0.21095 0.42152 0.0
H647 H 0.87914 0.25022 0.4592 0.0
H648 H 0.8535 0.22765 0.47727 0.0
H649 H 0.82468 0.17856 0.44435 0.0
H650 H 0.86994 0.19667 0.49694 0.0
H651 H 0.8943 0.21738 0.5192 0.0
H652 H 0.86376 0.23786 0.5444 0.0
H653 H 0.83938 0.21694 0.5225 0.0
C654 C 0.79576 0.15172 0.50729 0.0
C655 C 0.78693 0.15542 0.52297 0.0
C656 C 0.77425 0.14209 0.53533 0.0
C657 C 0.77014 0.12483 0.53214 0.0
C658 C 0.77884 0.12114 0.51628 0.0
C659 C 0.79165 0.13447 0.50414 0.0
C660 C 0.80983 0.16599 0.49492 0.0
C661 C 0.82366 0.17957 0.50604 0.0
C662 C 0.81025 0.16564 0.47243 0.0
C663 C 0.79605 0.15145 0.46003 0.0
C664 C 0.77931 0.14852 0.46156 0.0
C665 C 0.76562 0.13398 0.45165 0.0
C666 C 0.76846 0.12207 0.44033 0.0
C667 C 0.78528 0.12528 0.43837 0.0
C668 C 0.799 0.13996 0.44797 0.0
C669 C 0.85325 0.20615 0.46066 0.0
C670 C 0.86117 0.20171 0.44449 0.0
C671 C 0.8755 0.21466 0.43372 0.0
C672 C 0.88229 0.23224 0.43914 0.0
C673 C 0.87423 0.23672 0.45499 0.0
C674 C 0.85967 0.22381 0.4654 0.0
C675 C 0.83848 0.19234 0.47276 0.0
C676 C 0.82453 0.1788 0.46161 0.0
C677 C 0.83807 0.19252 0.49528 0.0
C678 C 0.85293 0.20536 0.5081 0.0
C679 C 0.86856 0.20568 0.50721 0.0
C680 C 0.88241 0.21745 0.51988 0.0
C681 C 0.88086 0.22922 0.53334 0.0
C682 C 0.86529 0.22903 0.53396 0.0
C683 C 0.85136 0.21705 0.5216 0.0
H684 H 0.97278 0.50869 0.15406 0.0
H685 H 0.97137 0.53031 0.13221 0.0
H686 H 0.01899 0.57067 0.15983 0.0
H687 H 0.02063 0.54906 0.18113 0.0
H688 H 0.9946 0.49804 0.15485 0.0
H689 H 0.9744 0.52212 0.20825 0.0
H690 H 0.97437 0.5462 0.2272 0.0
H691 H 0.02682 0.56605 0.24674 0.0
H692 H 0.02676 0.54187 0.22786 0.0
H693 H 0.03012 0.49484 0.22692 0.0
H694 H 0.03321 0.4736 0.24753 0.0
H695 H 0.98076 0.43444 0.23273 0.0
H696 H 0.9778 0.45566 0.21192 0.0
H697 H 0.00537 0.50565 0.23262 0.0
H698 H 0.02216 0.47669 0.18123 0.0
H699 H 0.02058 0.45288 0.15979 0.0
H700 H 0.97144 0.44113 0.13507 0.0
H701 H 0.9728 0.46459 0.15694 0.0
C702 C 0.99668 0.52724 0.1695 0.0
C703 C 0.98291 0.52219 0.15541 0.0
C704 C 0.9821 0.53454 0.14297 0.0
C705 C 0.99499 0.55219 0.14447 0.0
C706 C 0.0087 0.55722 0.15864 0.0
C707 C 0.00962 0.54486 0.17086 0.0
C708 C 0.99782 0.51406 0.18232 0.0
C709 C 0.99664 0.49954 0.17192 0.0
C710 C 1.00079 0.51612 0.20452 0.0
C711 C 1.00061 0.5303 0.21663 0.0
C712 C 0.98587 0.53165 0.21668 0.0
C713 C 0.98585 0.54534 0.22751 0.0
C714 C 1.00062 0.55798 0.2383 0.0
C715 C 0.01534 0.55655 0.23834 0.0
C716 C 0.01527 0.54271 0.22774 0.0
C717 C 0.00376 0.47678 0.21784 0.0
C718 C 0.0193 0.48168 0.22815 0.0
C719 C 0.02108 0.46955 0.23979 0.0
C720 C 0.00722 0.45241 0.24169 0.0
C721 C 0.9916 0.4476 0.2316 0.0
C722 C 0.98991 0.45966 0.21968 0.0
C723 C 0.00205 0.48958 0.20513 0.0
C724 C 0.00318 0.50406 0.21558 0.0
C725 C 0.99865 0.48722 0.18301 0.0
C726 C 0.9975 0.47233 0.17088 0.0
C727 C 0.01086 0.46875 0.17158 0.0
C728 C 0.00999 0.4552 0.15928 0.0
C729 C 0.99591 0.44524 0.14577 0.0
C730 C 0.98251 0.44873 0.14523 0.0
C731 C 0.98328 0.46211 0.1577 0.0
H732 H 0.49836 0.45275 0.16196 0.0
H733 H 0.47351 0.43152 0.14087 0.0
H734 H 0.44425 0.45393 0.16449 0.0
H735 H 0.46902 0.47486 0.18612 0.0
H736 H 0.51444 0.4913 0.16023 0.0
H737 H 0.48443 0.44237 0.20611 0.0
H738 H 0.45851 0.42028 0.22427 0.0
H739 H 0.45771 0.46029 0.26229 0.0
H740 H 0.48305 0.48254 0.24326 0.0
H741 H 0.52699 0.52326 0.24414 0.0
H742 H 0.55077 0.54779 0.26303 0.0
H743 H 0.58712 0.54165 0.22492 0.0
H744 H 0.56334 0.51646 0.20676 0.0
H745 H 0.51472 0.4907 0.23912 0.0
H746 H 0.54049 0.53916 0.19239 0.0
H747 H 0.56267 0.56276 0.17114 0.0
H748 H 0.56955 0.52565 0.13454 0.0
H749 H 0.54761 0.50207 0.15617 0.0
C750 C 0.48544 0.46526 0.17559 0.0
C751 C 0.48657 0.45302 0.16266 0.0
C752 C 0.47239 0.44088 0.15078 0.0
C753 C 0.45705 0.44113 0.15126 0.0
C754 C 0.45598 0.45352 0.16399 0.0
C755 C 0.47005 0.46543 0.17627 0.0
C756 C 0.50044 0.47798 0.18827 0.0
C757 C 0.51468 0.49107 0.17747 0.0
C758 C 0.50037 0.47779 0.21076 0.0
C759 C 0.48549 0.4642 0.22291 0.0
C760 C 0.47854 0.44647 0.21807 0.0
C761 C 0.46383 0.43384 0.22852 0.0
C762 C 0.45616 0.43868 0.2445 0.0
C763 C 0.46347 0.45631 0.24999 0.0
C764 C 0.47795 0.46898 0.23919 0.0
C765 C 0.54333 0.51815 0.22375 0.0
C766 C 0.54005 0.52691 0.24012 0.0
C767 C 0.55361 0.54095 0.25085 0.0
C768 C 0.57068 0.54661 0.24522 0.0
C769 C 0.57402 0.53758 0.22933 0.0
C770 C 0.56045 0.52326 0.21894 0.0
C771 C 0.52883 0.5043 0.21111 0.0
C772 C 0.51463 0.49093 0.22188 0.0
C773 C 0.52875 0.50443 0.18855 0.0
C774 C 0.54253 0.51885 0.17605 0.0
C775 C 0.54699 0.53612 0.18006 0.0
C776 C 0.55967 0.5496 0.16794 0.0
C777 C 0.56788 0.54602 0.15128 0.0
C778 C 0.56339 0.52875 0.14725 0.0
C779 C 0.55085 0.51529 0.15956 0.0
H780 H 0.53446 0.02618 0.16064 0.0
H781 H 0.55788 0.02848 0.13858 0.0
H782 H 0.54671 0.97827 0.1601 0.0
H783 H 0.523 0.97576 0.1817 0.0
H784 H 0.5016 0.00468 0.15824 0.0
H785 H 0.543 0.01981 0.21462 0.0
H786 H 0.56469 0.01753 0.23492 0.0
H787 H 0.52754 0.96378 0.24782 0.0
H788 H 0.50582 0.96617 0.22763 0.0
H789 H 0.45703 0.96563 0.22641 0.0
H790 H 0.43264 0.96324 0.24669 0.0
H791 H 0.45132 0.01747 0.23566 0.0
H792 H 0.47555 0.01976 0.21536 0.0
H793 H 0.49318 0.98874 0.23448 0.0
H794 H 0.45281 0.9732 0.17629 0.0
H795 H 0.43143 0.97485 0.15448 0.0
H796 H 0.46682 0.02966 0.14563 0.0
H797 H 0.48835 0.0279 0.16719 0.0
C798 C 0.52705 0.00089 0.17304 0.0
C799 C 0.53705 0.01566 0.16064 0.0
C800 C 0.55041 0.01696 0.14804 0.0
C801 C 0.55409 0.00355 0.14767 0.0
C802 C 0.54427 0.98889 0.16031 0.0
C803 C 0.53077 0.98749 0.17272 0.0
C804 C 0.51224 0.99916 0.18548 0.0
C805 C 0.49998 0.00151 0.175 0.0
C806 C 0.50977 0.99453 0.20722 0.0
C807 C 0.52284 0.99314 0.21957 0.0
C808 C 0.53954 0.00754 0.22182 0.0
C809 C 0.55187 0.00625 0.23347 0.0
C810 C 0.54777 0.99047 0.2429 0.0
C811 C 0.53105 0.97605 0.24058 0.0
C812 C 0.51864 0.97742 0.22918 0.0
C813 C 0.46801 0.99285 0.21936 0.0
C814 C 0.45582 0.97697 0.22838 0.0
C815 C 0.4419 0.9756 0.23982 0.0
C816 C 0.44015 0.99018 0.24273 0.0
C817 C 0.45244 0.00608 0.23378 0.0
C818 C 0.46621 0.00738 0.22211 0.0
C819 C 0.48276 0.99439 0.2072 0.0
C820 C 0.49495 0.99201 0.21774 0.0
C821 C 0.48526 0.9991 0.18558 0.0
C822 C 0.47213 1.00043 0.17332 0.0
C823 C 0.45593 0.98559 0.16975 0.0
C824 C 0.44377 0.98653 0.15728 0.0
C825 C 0.44753 0.00238 0.1484 0.0
C826 C 0.46361 0.01733 0.15241 0.0
C827 C 0.4759 0.01631 0.1646 0.0
H828 H 0.49438 0.02825 0.87034 0.0
H829 H 0.4711 0.02581 0.8927 0.0
H830 H 0.43432 0.98173 0.85496 0.0
H831 H 0.45772 0.98437 0.83247 0.0
H832 H 0.50419 0.00482 0.86445 0.0
H833 H 0.48019 0.03124 0.82269 0.0
H834 H 0.45798 0.0328 0.80333 0.0
H835 H 0.45639 0.99589 0.75684 0.0
H836 H 0.47708 0.9929 0.77769 0.0
H837 H 0.51802 0.99159 0.77731 0.0
H838 H 0.54156 0.99381 0.75602 0.0
H839 H 0.57793 0.0308 0.80166 0.0
H840 H 0.55444 0.03001 0.82136 0.0
H841 H 0.50805 0.01258 0.7863 0.0
H842 H 0.52499 0.98033 0.83406 0.0
H843 H 0.54616 0.97724 0.85482 0.0
H844 H 0.56232 0.02639 0.88614 0.0
H845 H 0.54087 0.0292 0.86596 0.0
C846 C 0.47778 0.00654 0.8497 0.0
C847 C 0.48129 0.01808 0.86686 0.0
C848 C 0.46798 0.01664 0.87965 0.0
C849 C 0.45087 0.00353 0.87566 0.0
C850 C 0.44734 0.99209 0.8583 0.0
C851 C 0.4607 0.99355 0.84547 0.0
C852 C 0.49215 0.00784 0.83678 0.0
C853 C 0.50503 0.00659 0.84735 0.0
C854 C 0.49311 0.00988 0.81439 0.0
C855 C 0.48007 0.01158 0.80208 0.0
C856 C 0.47473 0.02311 0.80865 0.0
C857 C 0.46221 0.02427 0.79722 0.0
C858 C 0.45516 0.01442 0.77841 0.0
C859 C 0.46102 0.00335 0.7715 0.0
C860 C 0.47314 0.00181 0.78329 0.0
C861 C 0.53433 0.01032 0.80129 0.0
C862 C 0.53108 1.00032 0.78261 0.0
C863 C 0.54463 0.00143 0.77057 0.0
C864 C 0.5618 0.01234 0.77713 0.0
C865 C 0.56499 0.0224 0.79582 0.0
C866 C 0.55145 0.02165 0.80748 0.0
C867 C 0.51981 0.00915 0.81392 0.0
C868 C 0.50698 0.01053 0.80334 0.0
C869 C 0.51869 0.00702 0.83624 0.0
C870 C 0.53144 0.00502 0.84848 0.0
C871 C 0.53308 0.9904 0.84544 0.0
C872 C 0.54512 0.98864 0.85724 0.0
C873 C 0.55586 0.00165 0.87187 0.0
C874 C 0.55424 0.01628 0.87479 0.0
C875 C 0.54198 0.01784 0.86339 0.0
H876 H 0.02807 0.53829 0.86503 0.0
H877 H 0.02692 0.5604 0.88691 0.0
H878 H 0.97866 0.54713 0.85779 0.0
H879 H 0.97972 0.52474 0.83605 0.0
H880 H 0.00694 0.50423 0.86448 0.0
H881 H 0.02369 0.55078 0.81543 0.0
H882 H 0.01986 0.57189 0.79579 0.0
H883 H 0.97683 0.53003 0.76227 0.0
H884 H 0.98003 0.50884 0.78271 0.0
H885 H 0.9836 0.4678 0.78296 0.0
H886 H 0.98436 0.44435 0.76339 0.0
H887 H 0.02938 0.45484 0.79856 0.0
H888 H 0.02931 0.47896 0.8172 0.0
H889 H 0.00336 0.50088 0.78571 0.0
H890 H 0.98099 0.45621 0.84034 0.0
H891 H 0.98095 0.43383 0.86243 0.0
H892 H 0.03253 0.47076 0.88318 0.0
H893 H 0.03237 0.49329 0.86158 0.0
C894 C 0.00404 0.52993 0.84883 0.0
C895 C 0.01721 0.5401 0.86337 0.0
C896 C 0.01653 0.5527 0.87587 0.0
C897 C 0.00267 0.55541 0.87408 0.0
C898 C 0.98955 0.54538 0.85934 0.0
C899 C 0.99016 0.53262 0.84694 0.0
C900 C 0.00475 0.51622 0.83618 0.0
C901 C 0.00637 0.50366 0.84723 0.0
C902 C 0.0035 0.51517 0.81367 0.0
C903 C 0.00192 0.52815 0.80094 0.0
C904 C 0.01325 0.54608 0.80413 0.0
C905 C 0.01112 0.55815 0.79285 0.0
C906 C 0.99798 0.55253 0.77768 0.0
C907 C 0.98705 0.53465 0.77391 0.0
C908 C 0.98892 0.52257 0.78553 0.0
C909 C 0.00619 0.47496 0.8019 0.0
C910 C 0.99376 0.46521 0.78632 0.0
C911 C 0.99416 0.45182 0.7752 0.0
C912 C 0.00683 0.4478 0.77971 0.0
C913 C 0.01937 0.45762 0.79507 0.0
C914 C 0.01922 0.47128 0.80582 0.0
C915 C 0.00548 0.48892 0.81406 0.0
C916 C 0.00391 0.50151 0.80295 0.0
C917 C 0.00651 0.48995 0.83652 0.0
C918 C 0.00669 0.47635 0.84935 0.0
C919 C 0.99229 0.45946 0.84963 0.0
C920 C 0.99226 0.44674 0.8622 0.0
C921 C 0.00676 0.45066 0.87434 0.0
C922 C 0.02127 0.46748 0.87381 0.0
C923 C 0.02115 0.48031 0.86161 0.0
H924 H 0.45498 0.5021 0.865 0.0
H925 H 0.43325 0.47907 0.88753 0.0
H926 H 0.44156 0.44145 0.85453 0.0
H927 H 0.46356 0.46446 0.8326 0.0
H928 H 0.48854 0.51319 0.86222 0.0
H929 H 0.44141 0.48958 0.81002 0.0
H930 H 0.41749 0.46384 0.79266 0.0
H931 H 0.45287 0.44867 0.76948 0.0
H932 H 0.47675 0.4745 0.78652 0.0
H933 H 0.52088 0.51995 0.77942 0.0
H934 H 0.54588 0.54211 0.75978 0.0
H935 H 0.54439 0.5824 0.79629 0.0
H936 H 0.5188 0.56039 0.81502 0.0
H937 H 0.48933 0.51072 0.78332 0.0
H938 H 0.53426 0.52857 0.83646 0.0
H939 H 0.55875 0.54913 0.85866 0.0
H940 H 0.52962 0.5719 0.88153 0.0
H941 H 0.50503 0.55106 0.85978 0.0
C942 C 0.4607 0.48498 0.84683 0.0
C943 C 0.45203 0.48887 0.86254 0.0
C944 C 0.43963 0.47574 0.87537 0.0
C945 C 0.43562 0.45848 0.87261 0.0
C946 C 0.44414 0.45458 0.8567 0.0
C947 C 0.45669 0.46773 0.84411 0.0
C948 C 0.47464 0.49908 0.83413 0.0
C949 C 0.48853 0.51285 0.84496 0.0
C950 C 0.47499 0.49833 0.81165 0.0
C951 C 0.4608 0.48388 0.79952 0.0
C952 C 0.44401 0.48081 0.80095 0.0
C953 C 0.4304 0.46616 0.79109 0.0
C954 C 0.4334 0.45428 0.77996 0.0
C955 C 0.45026 0.45758 0.77818 0.0
C956 C 0.46388 0.47237 0.7877 0.0
C957 C 0.5181 0.53843 0.79906 0.0
C958 C 0.52576 0.53354 0.78305 0.0
C959 C 0.54006 0.54617 0.77189 0.0
C960 C 0.54706 0.56386 0.77676 0.0
C961 C 0.5393 0.5688 0.79251 0.0
C962 C 0.52478 0.55621 0.8033 0.0
C963 C 0.50327 0.52496 0.81143 0.0
C964 C 0.48924 0.51128 0.80057 0.0
C965 C 0.50293 0.52554 0.83394 0.0
C966 C 0.51792 0.53839 0.84651 0.0
C967 C 0.53322 0.53806 0.84619 0.0
C968 C 0.54713 0.54974 0.85882 0.0
C969 C 0.546 0.56208 0.8716 0.0
C970 C 0.53079 0.56258 0.8716 0.0
C971 C 0.51677 0.55068 0.85933 0.0
H972 H 0.62717 0.83775 0.4947 0.0
H973 H 0.62834 0.86095 0.47302 0.0
H974 H 0.68099 0.89537 0.4921 0.0
H975 H 0.67966 0.8724 0.51419 0.0
H976 H 0.65041 0.824 0.49137 0.0
H977 H 0.632 0.85232 0.53926 0.0
H978 H 0.63347 0.87733 0.5576 0.0
H979 H 0.67914 0.88706 0.59053 0.0
H980 H 0.67837 0.86271 0.57121 0.0
H981 H 0.68544 0.82122 0.56264 0.0
H982 H 0.68997 0.80046 0.58227 0.0
H983 H 0.63787 0.75991 0.5683 0.0
H984 H 0.63349 0.78064 0.54843 0.0
H985 H 0.65869 0.83013 0.56965 0.0
H986 H 0.68183 0.80992 0.51299 0.0
H987 H 0.68376 0.78844 0.49036 0.0
H988 H 0.62964 0.7638 0.47619 0.0
H989 H 0.62783 0.78546 0.49862 0.0
C990 C 0.65331 0.85342 0.50607 0.0
C991 C 0.63891 0.85033 0.49427 0.0
C992 C 0.63955 0.86355 0.48203 0.0
C993 C 0.65474 0.87985 0.48101 0.0
C994 C 0.66916 0.88287 0.49269 0.0
C995 C 0.6684 0.86981 0.50527 0.0
C996 C 0.65281 0.83954 0.51906 0.0
C997 C 0.65184 0.82517 0.50854 0.0
C998 C 0.65502 0.84127 0.54142 0.0
C999 C 0.6553 0.85582 0.55344 0.0
C1000 C 0.64254 0.86 0.55009 0.0
C1001 C 0.64327 0.87416 0.56067 0.0
C1002 C 0.65644 0.88401 0.5753 0.0
C1003 C 0.66887 0.87955 0.57927 0.0
C1004 C 0.66838 0.86563 0.56831 0.0
C1005 C 0.65915 0.80243 0.55412 0.0
C1006 C 0.67501 0.80786 0.56387 0.0
C1007 C 0.6776 0.79601 0.57494 0.0
C1008 C 0.66426 0.77862 0.57678 0.0
C1009 C 0.64832 0.77327 0.56722 0.0
C1010 C 0.64582 0.78506 0.55585 0.0
C1011 C 0.65663 0.81489 0.54185 0.0
C1012 C 0.65699 0.82892 0.55253 0.0
C1013 C 0.65391 0.81295 0.51967 0.0
C1014 C 0.65469 0.79919 0.50743 0.0
C1015 C 0.67036 0.79976 0.50518 0.0
C1016 C 0.67146 0.78757 0.49225 0.0
C1017 C 0.65684 0.77451 0.48161 0.0
C1018 C 0.64105 0.77366 0.4844 0.0
C1019 C 0.64001 0.78603 0.49708 0.0
H1020 H 0.1628 0.78726 0.49728 0.0
H1021 H 0.13756 0.76628 0.47656 0.0
H1022 H 0.10837 0.78759 0.50375 0.0
H1023 H 0.13355 0.80828 0.52501 0.0
H1024 H 0.17847 0.82568 0.49694 0.0
H1025 H 0.15044 0.77596 0.54167 0.0
H1026 H 0.12491 0.75312 0.55966 0.0
H1027 H 0.12367 0.79177 0.60006 0.0
H1028 H 0.14866 0.81476 0.58126 0.0
H1029 H 0.19289 0.85632 0.58161 0.0
H1030 H 0.21707 0.88071 0.60017 0.0
H1031 H 0.25258 0.87517 0.55956 0.0
H1032 H 0.22842 0.85013 0.5417 0.0
H1033 H 0.18064 0.8237 0.57562 0.0
H1034 H 0.20522 0.87306 0.52975 0.0
H1035 H 0.22698 0.8969 0.50835 0.0
H1036 H 0.23322 0.86016 0.46998 0.0
H1037 H 0.21166 0.83636 0.49167 0.0
C1038 C 0.14995 0.79921 0.51266 0.0
C1039 C 0.15094 0.78733 0.49885 0.0
C1040 C 0.13655 0.77534 0.48718 0.0
C1041 C 0.12111 0.77535 0.48877 0.0
C1042 C 0.12017 0.78736 0.50241 0.0
C1043 C 0.13447 0.79912 0.51446 0.0
C1044 C 0.1652 0.8118 0.52506 0.0
C1045 C 0.17912 0.82515 0.51412 0.0
C1046 C 0.1657 0.81118 0.54749 0.0
C1047 C 0.15124 0.79716 0.55971 0.0
C1048 C 0.14457 0.77959 0.55417 0.0
C1049 C 0.13007 0.76654 0.56452 0.0
C1050 C 0.12234 0.77077 0.58107 0.0
C1051 C 0.12946 0.78823 0.58732 0.0
C1052 C 0.14374 0.80133 0.57664 0.0
C1053 C 0.20879 0.85154 0.55998 0.0
C1054 C 0.20586 0.86007 0.57697 0.0
C1055 C 0.21965 0.87402 0.58752 0.0
C1056 C 0.23658 0.87982 0.58109 0.0
C1057 C 0.23958 0.87098 0.5646 0.0
C1058 C 0.2258 0.85676 0.55438 0.0
C1059 C 0.19403 0.83785 0.54753 0.0
C1060 C 0.18014 0.82423 0.55844 0.0
C1061 C 0.19342 0.83836 0.52503 0.0
C1062 C 0.20694 0.85293 0.51246 0.0
C1063 C 0.21147 0.87016 0.51696 0.0
C1064 C 0.22392 0.88377 0.50475 0.0
C1065 C 0.23182 0.88038 0.48756 0.0
C1066 C 0.22727 0.86313 0.48308 0.0
C1067 C 0.21496 0.84955 0.49543 0.0
H1068 H 0.14409 0.32756 0.48381 0.0
H1069 H 0.12232 0.32828 0.46216 0.0
H1070 H 0.12927 0.37284 0.49828 0.0
H1071 H 0.15099 0.37187 0.52015 0.0
H1072 H 0.17756 0.3506 0.48957 0.0
H1073 H 0.12713 0.32095 0.53413 0.0
H1074 H 0.10191 0.31741 0.55301 0.0
H1075 H 0.13433 0.36499 0.58832 0.0
H1076 H 0.15956 0.36805 0.56982 0.0
H1077 H 0.22151 0.36759 0.54545 0.0
H1078 H 0.24149 0.36218 0.56496 0.0
H1079 H 0.19908 0.31293 0.58559 0.0
H1080 H 0.17918 0.31802 0.56519 0.0
H1081 H 0.17138 0.34375 0.5679 0.0
H1082 H 0.21999 0.37457 0.5073 0.0
H1083 H 0.24222 0.37317 0.4863 0.0
H1084 H 0.20915 0.31756 0.48013 0.0
H1085 H 0.18722 0.31893 0.50192 0.0
C1086 C 0.14914 0.34962 0.50364 0.0
C1087 C 0.14102 0.33756 0.48699 0.0
C1088 C 0.1286 0.33804 0.47457 0.0
C1089 C 0.12411 0.3507 0.47837 0.0
C1090 C 0.13231 0.36282 0.49505 0.0
C1091 C 0.14474 0.36231 0.50753 0.0
C1092 C 0.16216 0.34874 0.51686 0.0
C1093 C 0.17626 0.34926 0.50672 0.0
C1094 C 0.16042 0.34677 0.53918 0.0
C1095 C 0.14517 0.3448 0.55053 0.0
C1096 C 0.12876 0.33062 0.54592 0.0
C1097 C 0.11435 0.32868 0.55665 0.0
C1098 C 0.11603 0.34095 0.57217 0.0
C1099 C 0.13255 0.35516 0.57672 0.0
C1100 C 0.14699 0.35699 0.5661 0.0
C1101 C 0.1989 0.343 0.55336 0.0
C1102 C 0.21654 0.35546 0.55374 0.0
C1103 C 0.22792 0.35242 0.56502 0.0
C1104 C 0.22181 0.33707 0.57659 0.0
C1105 C 0.20409 0.32486 0.57678 0.0
C1106 C 0.19275 0.32777 0.56518 0.0
C1107 C 0.18683 0.34575 0.5406 0.0
C1108 C 0.17286 0.34549 0.55082 0.0
C1109 C 0.1885 0.34769 0.51829 0.0
C1110 C 0.20215 0.34682 0.50638 0.0
C1111 C 0.21769 0.36207 0.50174 0.0
C1112 C 0.23033 0.36125 0.48982 0.0
C1113 C 0.22736 0.34524 0.48179 0.0
C1114 C 0.21172 0.33001 0.48628 0.0
C1115 C 0.19925 0.33079 0.49866 0.0
C1116 C 0.00648 0.38286 0.06282 0.0
C1117 C 0.99041 0.36824 0.05789 0.0
C1118 C 0.00807 0.39494 0.07845 0.0
C1119 C 0.99328 0.39221 0.08961 0.0
C1120 C 0.9772 0.37703 0.08552 0.0
C1121 C 0.97593 0.36529 0.0696 0.0
C1122 C 0.02542 0.41106 0.08223 0.0
C1123 C 0.96119 0.37353 0.09735 0.0
C1124 C 0.99872 0.41916 0.13947 0.0
C1125 C 0.99549 0.43171 0.13155 0.0
C1126 C 0.99805 0.40616 0.12604 0.0
C1127 C 0.99432 0.40594 0.10417 0.0
C1128 C 0.99131 0.41877 0.09607 0.0
C1129 C 0.99183 0.43143 0.10989 0.0
C1130 C 1.0011 0.39255 0.13526 0.0
C1131 C 0.98754 0.41914 0.07279 0.0
H1132 H 0.01774 0.38527 0.05384 0.0
H1133 H 0.9635 0.35393 0.06608 0.0
H1134 H 0.02512 0.42263 0.07689 0.0
H1135 H 0.02851 0.4129 0.09945 0.0
H1136 H 0.03587 0.41055 0.07355 0.0
H1137 H 0.95008 0.36034 0.09384 0.0
H1138 H 0.96354 0.37487 0.11475 0.0
H1139 H 0.95772 0.38323 0.09282 0.0
H1140 H 1.00146 0.41933 0.15625 0.0
H1141 H 0.98957 0.44129 0.10371 0.0
H1142 H 0.01195 0.3926 0.12692 0.0
H1143 H 0.98957 0.37946 0.13279 0.0
H1144 H 0.00401 0.39464 0.15255 0.0
H1145 H 0.99811 0.41995 0.06289 0.0
H1146 H 0.98597 0.43029 0.06896 0.0
H1147 H 0.97559 0.40694 0.06822 0.0
C1148 C 0.63365 0.62041 0.07104 0.0
C1149 C 0.62629 0.63049 0.06665 0.0
C1150 C 0.62621 0.60706 0.08607 0.0
C1151 C 0.61095 0.60356 0.09669 0.0
C1152 C 0.60383 0.61408 0.09288 0.0
C1153 C 0.61165 0.62746 0.07806 0.0
C1154 C 0.63433 0.59631 0.09005 0.0
C1155 C 0.58749 0.6107 0.10374 0.0
C1156 C 0.5784 0.55824 0.11518 0.0
C1157 C 0.58026 0.56019 0.13733 0.0
C1158 C 0.58884 0.57208 0.10172 0.0
C1159 C 0.60157 0.58819 0.11062 0.0
C1160 C 0.60408 0.58996 0.13293 0.0
C1161 C 0.59327 0.57596 0.14605 0.0
C1162 C 0.5856 0.56972 0.07803 0.0
C1163 C 0.61772 0.60682 0.14298 0.0
H1164 H 0.64503 0.62272 0.06245 0.0
H1165 H 0.60583 0.63514 0.07487 0.0
H1166 H 0.63577 0.59528 0.10738 0.0
H1167 H 0.62588 0.58294 0.08372 0.0
H1168 H 0.64714 0.60187 0.08236 0.0
H1169 H 0.58404 0.62054 0.09972 0.0
H1170 H 0.57671 0.59768 0.09893 0.0
H1171 H 0.58883 0.61069 0.12125 0.0
H1172 H 0.56825 0.54611 0.10842 0.0
H1173 H 0.59484 0.57741 0.16318 0.0
H1174 H 0.59773 0.57368 0.06933 0.0
H1175 H 0.5808 0.57818 0.07266 0.0
H1176 H 0.57603 0.55606 0.07355 0.0
H1177 H 0.63022 0.61163 0.13479 0.0
H1178 H 0.61939 0.60544 0.16018 0.0
H1179 H 0.61415 0.61685 0.14122 0.0
C1180 C 0.38793 0.01005 0.06105 0.0
C1181 C 0.37086 0.99676 0.06428 0.0
C1182 C 0.40085 0.01299 0.07562 0.0
C1183 C 0.39647 0.00266 0.09406 0.0
C1184 C 0.37903 0.99018 0.09818 0.0
C1185 C 0.36647 0.9872 0.08308 0.0
C1186 C 0.41931 0.02621 0.07044 0.0
C1187 C 0.37374 0.97923 0.11792 0.0
C1188 C 0.42827 0.99164 0.11677 0.0
C1189 C 0.43492 0.00304 0.13426 0.0
C1190 C 0.41612 0.99177 0.10328 0.0
C1191 C 0.41018 0.00334 0.10765 0.0
C1192 C 0.41693 0.01496 0.12527 0.0
C1193 C 0.42939 0.01481 0.13826 0.0
C1194 C 0.40953 0.97939 0.08444 0.0
C1195 C 0.41067 0.02723 0.13068 0.0
H1196 H 0.39138 0.01736 0.04644 0.0
H1197 H 0.35324 0.97699 0.08566 0.0
H1198 H 0.42589 0.03463 0.08447 0.0
H1199 H 0.42624 0.01937 0.06615 0.0
H1200 H 0.42039 0.03455 0.05693 0.0
H1201 H 0.35958 0.97196 0.12024 0.0
H1202 H 0.37808 0.96973 0.11667 0.0
H1203 H 0.37991 0.98748 0.13222 0.0
H1204 H 0.43271 0.98268 0.11357 0.0
H1205 H 0.43451 0.02357 0.15187 0.0
H1206 H 0.41124 0.98665 0.06961 0.0
H1207 H 0.39557 0.97001 0.08633 0.0
H1208 H 0.4162 0.97197 0.08257 0.0
H1209 H 0.41227 0.03542 0.11681 0.0
H1210 H 0.41762 0.03584 0.14447 0.0
H1211 H 0.39675 0.01967 0.13446 0.0
C1212 C 0.37255 0.97524 0.95576 0.0
C1213 C 0.37141 0.98936 0.9636 0.0
C1214 C 0.38477 0.97754 0.94031 0.0
C1215 C 0.39616 0.99435 0.93244 0.0
C1216 C 0.39473 0.00857 0.93969 0.0
C1217 C 0.38238 0.00591 0.95518 0.0
C1218 C 0.38586 0.96203 0.93293 0.0
C1219 C 0.40662 0.0267 0.93162 0.0
C1220 C 0.43932 0.00295 0.91215 0.0
C1221 C 0.43686 0.0015 0.89004 0.0
C1222 C 0.42625 0.00087 0.92606 0.0
C1223 C 0.41027 0.9972 0.91769 0.0
C1224 C 0.40771 0.99581 0.89539 0.0
C1225 C 0.42104 0.99796 0.88182 0.0
C1226 C 0.42947 0.00239 0.94975 0.0
C1227 C 0.39086 0.99195 0.88589 0.0
H1228 H 0.36411 0.96237 0.96202 0.0
H1229 H 0.3816 0.01692 0.961 0.0
H1230 H 0.38526 0.96097 0.91532 0.0
H1231 H 0.39837 0.96374 0.93783 0.0
H1232 H 0.37538 0.94966 0.9396 0.0
H1233 H 0.40303 0.03611 0.93764 0.0
H1234 H 0.41998 0.03125 0.93668 0.0
H1235 H 0.40654 0.02671 0.91397 0.0
H1236 H 0.45141 0.00541 0.91864 0.0
H1237 H 0.41912 0.99701 0.86474 0.0
H1238 H 0.4203 0.98993 0.95745 0.0
H1239 H 0.42729 0.01251 0.95676 0.0
H1240 H 0.44275 0.00572 0.95365 0.0
H1241 H 0.38031 0.97921 0.89155 0.0
H1242 H 0.39104 0.99163 0.86822 0.0
H1243 H 0.38782 0.00192 0.89123 0.0
C1244 C 0.98922 0.36728 0.93809 0.0
C1245 C 0.99857 0.37158 0.9571 0.0
C1246 C 0.99217 0.38012 0.92337 0.0
C1247 C 0.00437 0.39774 0.92811 0.0
C1248 C 0.01433 0.40206 0.94692 0.0
C1249 C 0.01146 0.38886 0.96107 0.0
C1250 C 0.98164 0.37491 0.90321 0.0
C1251 C 0.0272 0.42071 0.95279 0.0
C1252 C 0.018 0.43157 0.88478 0.0
C1253 C 0.00647 0.43736 0.88816 0.0
C1254 C 0.01748 0.41861 0.8976 0.0
C1255 C 0.00545 0.4117 0.91449 0.0
C1256 C 0.99403 0.41784 0.91817 0.0
C1257 C 0.99454 0.43044 0.90477 0.0
C1258 C 0.02955 0.41209 0.89285 0.0
C1259 C 0.98126 0.41109 0.93627 0.0
H1260 H 0.97932 0.35389 0.93494 0.0
H1261 H 0.01859 0.39222 0.97587 0.0
H1262 H 0.97234 0.37943 0.90407 0.0
H1263 H 0.99005 0.38115 0.88924 0.0
H1264 H 0.97437 0.36061 0.90059 0.0
H1265 H 0.03496 0.42177 0.96692 0.0
H1266 H 0.03602 0.42738 0.93929 0.0
H1267 H 0.02032 0.42771 0.95633 0.0
H1268 H 0.02716 0.43693 0.87182 0.0
H1269 H 0.98573 0.43507 0.9074 0.0
H1270 H 0.02203 0.39797 0.88911 0.0
H1271 H 0.0375 0.41385 0.90702 0.0
H1272 H 0.03821 0.41891 0.87924 0.0
H1273 H 0.97199 0.39701 0.93389 0.0
H1274 H 0.97394 0.41789 0.93764 0.0
H1275 H 0.988 0.41268 0.95153 0.0
C1276 C 0.62324 0.62621 0.95058 0.0
C1277 C 0.61534 0.62985 0.96748 0.0
C1278 C 0.61345 0.61529 0.93361 0.0
C1279 C 0.59535 0.60752 0.93395 0.0
C1280 C 0.58732 0.61083 0.95127 0.0
C1281 C 0.59743 0.62213 0.96768 0.0
C1282 C 0.62246 0.61236 0.91516 0.0
C1283 C 0.56802 0.60248 0.95248 0.0
C1284 C 0.56732 0.59187 0.88474 0.0
C1285 C 0.56027 0.57389 0.88581 0.0
C1286 C 0.57965 0.60312 0.89957 0.0
C1287 C 0.58464 0.59611 0.91614 0.0
C1288 C 0.57795 0.57797 0.91681 0.0
C1289 C 0.56595 0.56707 0.90146 0.0
C1290 C 0.58678 0.62241 0.89805 0.0
C1291 C 0.58268 0.56998 0.93445 0.0
H1292 H 0.63711 0.63227 0.95035 0.0
H1293 H 0.59128 0.62477 0.98086 0.0
H1294 H 0.61752 0.59827 0.91297 0.0
H1295 H 0.61973 0.61698 0.90028 0.0
H1296 H 0.6366 0.61922 0.91744 0.0
H1297 H 0.56377 0.60576 0.96754 0.0
H1298 H 0.56339 0.60678 0.93897 0.0
H1299 H 0.56178 0.58814 0.95116 0.0
H1300 H 0.56296 0.59708 0.8725 0.0
H1301 H 0.56035 0.55312 0.90229 0.0
H1302 H 0.60099 0.62965 0.89944 0.0
H1303 H 0.58175 0.62678 0.91137 0.0
H1304 H 0.58324 0.62591 0.88284 0.0
H1305 H 0.59684 0.57665 0.93618 0.0
H1306 H 0.57754 0.55589 0.93166 0.0
H1307 H 0.57747 0.57163 0.94976 0.0
C1308 C 0.02301 0.6364 0.94655 0.0
C1309 C 0.00917 0.63417 0.9591 0.0
C1310 C 0.02081 0.62405 0.931 0.0
C1311 C 0.00439 0.60904 0.928 0.0
C1312 C 0.99018 0.60714 0.9398 0.0
C1313 C 0.99272 0.61976 0.95517 0.0
C1314 C 0.03626 0.62665 0.91855 0.0
C1315 C 0.97247 0.59129 0.93705 0.0
C1316 C 0.99837 0.58067 0.8794 0.0
C1317 C 0.00188 0.56849 0.88793 0.0
C1318 C 0.99873 0.59378 0.89232 0.0
C1319 C 0.00258 0.59457 0.91424 0.0
C1320 C 0.00557 0.58193 0.92301 0.0
C1321 C 0.00523 0.56909 0.90974 0.0
C1322 C 0.99554 0.60708 0.88242 0.0
C1323 C 0.00954 0.58221 0.94636 0.0
H1324 H 0.03573 0.64759 0.94925 0.0
H1325 H 0.98191 0.61793 0.96471 0.0
H1326 H 0.03953 0.61687 0.92341 0.0
H1327 H 0.03333 0.6247 0.90129 0.0
H1328 H 0.04769 0.6398 0.92117 0.0
H1329 H 0.96247 0.59272 0.94553 0.0
H1330 H 0.96904 0.5887 0.91995 0.0
H1331 H 0.97237 0.57976 0.94336 0.0
H1332 H 0.99586 0.58027 0.86251 0.0
H1333 H 0.00767 0.5595 0.91641 0.0
H1334 H 0.00743 0.62007 0.88328 0.0
H1335 H 0.98544 0.608 0.89138 0.0
H1336 H 0.99155 0.60395 0.8655 0.0
H1337 H 0.02177 0.59432 0.95032 0.0
H1338 H 0.01072 0.57094 0.95083 0.0
H1339 H 0.99929 0.58213 0.95621 0.0
C1340 C 0.37176 0.38446 0.95467 0.0
C1341 C 0.37962 0.37489 0.95923 0.0
C1342 C 0.37904 0.398 0.93988 0.0
C1343 C 0.39464 0.40219 0.92965 0.0
C1344 C 0.40246 0.39238 0.9339 0.0
C1345 C 0.39481 0.37881 0.94851 0.0
C1346 C 0.37021 0.40801 0.93547 0.0
C1347 C 0.41919 0.39653 0.92346 0.0
C1348 C 0.4109 0.42843 0.87914 0.0
C1349 C 0.42352 0.4447 0.88719 0.0
C1350 C 0.40066 0.41469 0.89286 0.0
C1351 C 0.40332 0.41723 0.91511 0.0
C1352 C 0.41557 0.43384 0.92332 0.0
C1353 C 0.42546 0.44741 0.90925 0.0
C1354 C 0.38752 0.39725 0.88351 0.0
C1355 C 0.41893 0.43704 0.94692 0.0
H1356 H 0.35997 0.38147 0.96276 0.0
H1357 H 0.40105 0.37156 0.95191 0.0
H1358 H 0.37846 0.4217 0.94088 0.0
H1359 H 0.36822 0.4082 0.91811 0.0
H1360 H 0.35758 0.4024 0.94363 0.0
H1361 H 0.42345 0.38746 0.92821 0.0
H1362 H 0.41785 0.39593 0.9059 0.0
H1363 H 0.42941 0.40996 0.92781 0.0
H1364 H 0.40928 0.42638 0.86207 0.0
H1365 H 0.43532 0.45994 0.91549 0.0
H1366 H 0.37499 0.39211 0.89176 0.0
H1367 H 0.39179 0.38782 0.88585 0.0
H1368 H 0.38559 0.39797 0.86622 0.0
H1369 H 0.40673 0.43255 0.95569 0.0
H1370 H 0.42788 0.45099 0.95082 0.0
H1371 H 0.4246 0.42947 0.95276 0.0
C1372 C 0.61864 0.0171 0.96367 0.0
C1373 C 0.62871 0.00941 0.9628 0.0
C1374 C 0.6063 0.01354 0.94807 0.0
C1375 C 0.60431 0.00239 0.93073 0.0
C1376 C 0.61428 0.99435 0.92989 0.0
C1377 C 0.62623 0.99776 0.94618 0.0
C1378 C 0.59563 0.02202 0.94995 0.0
C1379 C 0.61279 0.9827 0.91142 0.0
C1380 C 0.56315 0.98683 0.89953 0.0
C1381 C 0.56859 1.00004 0.88457 0.0
C1382 C 0.57485 0.98678 0.91399 0.0
C1383 C 0.5924 1.0001 0.91312 0.0
C1384 C 0.59808 0.01274 0.89699 0.0
C1385 C 0.58605 0.0127 0.88308 0.0
C1386 C 0.56821 0.97325 0.93115 0.0
C1387 C 0.61671 0.02694 0.8952 0.0
H1388 H 0.62041 0.02594 0.9767 0.0
H1389 H 0.63409 0.99188 0.94549 0.0
H1390 H 0.59885 0.03127 0.93676 0.0
H1391 H 0.58176 0.01208 0.94861 0.0
H1392 H 0.5978 0.02921 0.96526 0.0
H1393 H 0.62055 0.97652 0.91384 0.0
H1394 H 0.59918 0.97238 0.90891 0.0
H1395 H 0.61723 0.99043 0.89666 0.0
H1396 H 0.5496 0.97711 0.90068 0.0
H1397 H 0.5902 0.02285 0.87138 0.0
H1398 H 0.56844 0.97945 0.94666 0.0
H1399 H 0.57654 0.96765 0.93268 0.0
H1400 H 0.55483 0.96255 0.92798 0.0
H1401 H 0.62009 0.03631 0.90863 0.0
H1402 H 0.61941 0.03415 0.88008 0.0
H1403 H 0.62518 0.02144 0.89617 0.0
C1404 C 0.6182 0.99722 0.06453 0.0
C1405 C 0.63273 0.01373 0.06133 0.0
C1406 C 0.60571 0.99468 0.07974 0.0
C1407 C 0.6079 0.00896 0.09221 0.0
C1408 C 0.62296 0.02545 0.08984 0.0
C1409 C 0.63514 0.02766 0.07436 0.0
C1410 C 0.58977 0.97692 0.08171 0.0
C1411 C 0.62589 0.04094 0.10305 0.0
C1412 C 0.5685 0.00927 0.11221 0.0
C1413 C 0.56778 0.00464 0.13354 0.0
C1414 C 0.58132 0.01042 0.09855 0.0
C1415 C 0.59387 0.00705 0.10646 0.0
C1416 C 0.59318 0.00228 0.12798 0.0
C1417 C 0.58005 0.00102 0.14125 0.0
C1418 C 0.58148 0.01532 0.07563 0.0
C1419 C 0.60644 0.99879 0.13704 0.0
H1420 H 0.6162 0.98637 0.05454 0.0
H1421 H 0.6464 0.04043 0.07218 0.0
H1422 H 0.58745 0.97289 0.09858 0.0
H1423 H 0.57844 0.9774 0.07618 0.0
H1424 H 0.59067 0.96688 0.07218 0.0
H1425 H 0.63895 0.05243 0.10069 0.0
H1426 H 0.6163 0.04453 0.09871 0.0
H1427 H 0.62412 0.03769 0.12019 0.0
H1428 H 0.55887 0.01183 0.10615 0.0
H1429 H 0.57955 0.99753 0.15778 0.0
H1430 H 0.58103 0.00517 0.06487 0.0
H1431 H 0.59359 0.02765 0.0722 0.0
H1432 H 0.57048 0.01698 0.07182 0.0
H1433 H 0.60673 0.98834 0.12771 0.0
H1434 H 0.60389 0.99488 0.15398 0.0
H1435 H 0.6194 0.01061 0.13582 0.0
C1436 C 0.9915 0.62149 0.06708 0.0
C1437 C 0.00829 0.63219 0.05938 0.0
C1438 C 0.98775 0.60842 0.08192 0.0
C1439 C 1.00105 0.60586 0.08903 0.0
C1440 C 0.01804 0.61682 0.08165 0.0
C1441 C 0.02146 0.62987 0.06706 0.0
C1442 C 0.96953 0.59714 0.08969 0.0
C1443 C 0.03259 0.61446 0.0887 0.0
C1444 C 0.99815 0.58132 0.13908 0.0
C1445 C 0.99468 0.56527 0.13062 0.0
C1446 C 0.99936 0.59437 0.12584 0.0
C1447 C 0.9973 0.59138 0.10359 0.0
C1448 C 0.99319 0.57498 0.09506 0.0
C1449 C 0.99184 0.56209 0.1087 0.0
C1450 C 0.00349 0.61157 0.13559 0.0
C1451 C 0.99108 0.57132 0.07141 0.0
H1452 H 0.98124 0.62319 0.06134 0.0
H1453 H 0.03447 0.63799 0.06126 0.0
H1454 H 0.96443 0.58351 0.08435 0.0
H1455 H 0.9692 0.59719 0.10733 0.0
H1456 H 0.96089 0.60151 0.08373 0.0
H1457 H 0.04513 0.62428 0.08176 0.0
H1458 H 0.03371 0.6154 0.10629 0.0
H1459 H 0.02988 0.60133 0.08391 0.0
H1460 H 1.00014 0.58373 0.15607 0.0
H1461 H 0.98929 0.54976 0.10208 0.0
H1462 H 0.99444 0.6154 0.12969 0.0
H1463 H 0.01661 0.62181 0.13079 0.0
H1464 H 0.00287 0.61118 0.15325 0.0
H1465 H 0.98171 0.57447 0.06486 0.0
H1466 H 0.98667 0.55753 0.06747 0.0
H1467 H 0.00354 0.57971 0.0633 0.0
C1468 C 0.37923 0.37468 0.07424 0.0
C1469 C 0.38721 0.37079 0.05767 0.0
C1470 C 0.38895 0.38583 0.09111 0.0
C1471 C 0.40705 0.39356 0.09101 0.0
C1472 C 0.41514 0.38985 0.07413 0.0
C1473 C 0.40511 0.37836 0.05783 0.0
C1474 C 0.37987 0.38919 0.1091 0.0
C1475 C 0.43444 0.39813 0.07317 0.0
C1476 C 0.43666 0.4351 0.12158 0.0
C1477 C 0.4425 0.42885 0.13771 0.0
C1478 C 0.42446 0.42366 0.10674 0.0
C1479 C 0.41774 0.40556 0.10845 0.0
C1480 C 0.42285 0.39916 0.12557 0.0
C1481 C 0.43539 0.41093 0.13985 0.0
C1482 C 0.41961 0.43102 0.08848 0.0
C1483 C 0.4157 0.37995 0.12822 0.0
H1484 H 0.36538 0.36879 0.07419 0.0
H1485 H 0.41137 0.37557 0.04491 0.0
H1486 H 0.38285 0.38531 0.1244 0.0
H1487 H 0.38454 0.40328 0.11038 0.0
H1488 H 0.3657 0.38199 0.10694 0.0
H1489 H 0.43874 0.39432 0.05855 0.0
H1490 H 0.4407 0.41249 0.07368 0.0
H1491 H 0.43902 0.3943 0.0872 0.0
H1492 H 0.44231 0.449 0.11993 0.0
H1493 H 0.43989 0.40617 0.15247 0.0
H1494 H 0.40545 0.42425 0.08678 0.0
H1495 H 0.4248 0.4289 0.07342 0.0
H1496 H 0.42472 0.44517 0.09053 0.0
H1497 H 0.4015 0.37266 0.12674 0.0
H1498 H 0.4192 0.37699 0.14383 0.0
H1499 H 0.42079 0.37514 0.11544 0.0
C1500 C 0.64657 0.71388 0.38397 0.0
C1501 C 0.65708 0.70667 0.38404 0.0
C1502 C 0.64727 0.72482 0.40058 0.0
C1503 C 0.65845 0.72831 0.41795 0.0
C1504 C 0.66896 0.72089 0.41828 0.0
C1505 C 0.66831 0.71031 0.40114 0.0
C1506 C 0.63615 0.7328 0.3994 0.0
C1507 C 0.68076 0.72402 0.43676 0.0
C1508 C 0.6705 0.76908 0.45021 0.0
C1509 C 0.65824 0.76246 0.46654 0.0
C1510 C 0.67103 0.75804 0.43459 0.0
C1511 C 0.65921 0.73993 0.43558 0.0
C1512 C 0.64728 0.73312 0.45257 0.0
C1513 C 0.6468 0.74451 0.46774 0.0
C1514 C 0.68372 0.76584 0.41651 0.0
C1515 C 0.6347 0.71385 0.45439 0.0
H1516 H 0.63799 0.71123 0.37068 0.0
H1517 H 0.67636 0.70465 0.40131 0.0
H1518 H 0.62724 0.72867 0.41318 0.0
H1519 H 0.6443 0.74718 0.40024 0.0
H1520 H 0.62844 0.72909 0.38455 0.0
H1521 H 0.68775 0.71693 0.43483 0.0
H1522 H 0.6903 0.7381 0.43848 0.0
H1523 H 0.67323 0.71985 0.45176 0.0
H1524 H 0.67923 0.783 0.44919 0.0
H1525 H 0.63741 0.73942 0.48048 0.0
H1526 H 0.67668 0.76356 0.40132 0.0
H1527 H 0.69141 0.75947 0.41497 0.0
H1528 H 0.69263 0.78004 0.41869 0.0
H1529 H 0.62538 0.70935 0.44106 0.0
H1530 H 0.62743 0.71052 0.4696 0.0
H1531 H 0.64155 0.70659 0.4532 0.0
C1532 C 0.29856 0.95417 0.40762 0.0
C1533 C 0.29177 0.96469 0.40285 0.0
C1534 C 0.29061 0.94089 0.42268 0.0
C1535 C 0.27542 0.93794 0.43299 0.0
C1536 C 0.26886 0.94889 0.4288 0.0
C1537 C 0.27716 0.96218 0.41392 0.0
C1538 C 0.29813 0.92966 0.42703 0.0
C1539 C 0.25261 0.94609 0.43933 0.0
C1540 C 0.24212 0.89285 0.45148 0.0
C1541 C 0.24405 0.89468 0.47363 0.0
C1542 C 0.25265 0.90667 0.43805 0.0
C1543 C 0.26556 0.92268 0.44697 0.0
C1544 C 0.26802 0.9244 0.46929 0.0
C1545 C 0.25714 0.9104 0.48239 0.0
C1546 C 0.24947 0.90436 0.41435 0.0
C1547 C 0.28181 0.94117 0.47937 0.0
H1548 H 0.3099 0.95607 0.39929 0.0
H1549 H 0.27178 0.9702 0.41043 0.0
H1550 H 0.29945 0.92871 0.44441 0.0
H1551 H 0.28935 0.9163 0.42086 0.0
H1552 H 0.31092 0.93474 0.41944 0.0
H1553 H 0.24966 0.95626 0.43513 0.0
H1554 H 0.2416 0.93325 0.43441 0.0
H1555 H 0.25371 0.94601 0.45687 0.0
H1556 H 0.2319 0.88077 0.44468 0.0
H1557 H 0.25878 0.91178 0.49951 0.0
H1558 H 0.26154 0.90788 0.40574 0.0
H1559 H 0.24515 0.91318 0.40886 0.0
H1560 H 0.23956 0.89081 0.40987 0.0
H1561 H 0.29437 0.94557 0.47153 0.0
H1562 H 0.28315 0.93986 0.49668 0.0
H1563 H 0.27868 0.95147 0.47713 0.0
C1564 C 0.05375 0.35125 0.40074 0.0
C1565 C 0.04046 0.3338 0.39892 0.0
C1566 C 0.06744 0.3563 0.41502 0.0
C1567 C 0.0679 0.3436 0.42764 0.0
C1568 C 0.05404 0.3262 0.42674 0.0
C1569 C 0.0405 0.32155 0.41251 0.0
C1570 C 0.08183 0.37505 0.41582 0.0
C1571 C 0.05399 0.31223 0.4399 0.0
C1572 C 0.11007 0.3476 0.44311 0.0
C1573 C 0.11073 0.35094 0.46506 0.0
C1574 C 0.09659 0.34597 0.4306 0.0
C1575 C 0.08349 0.34792 0.44019 0.0
C1576 C 0.08457 0.35226 0.46211 0.0
C1577 C 0.09814 0.35364 0.47432 0.0
C1578 C 0.09596 0.34134 0.40728 0.0
C1579 C 0.07098 0.35466 0.47287 0.0
H1580 H 0.05384 0.36086 0.39045 0.0
H1581 H 0.03024 0.30807 0.41149 0.0
H1582 H 0.08519 0.37965 0.43255 0.0
H1583 H 0.09347 0.37626 0.40821 0.0
H1584 H 0.07844 0.38368 0.40744 0.0
H1585 H 0.0417 0.2996 0.43851 0.0
H1586 H 0.0646 0.3103 0.43462 0.0
H1587 H 0.05622 0.31622 0.45691 0.0
H1588 H 0.11997 0.34591 0.43572 0.0
H1589 H 0.09849 0.35616 0.49128 0.0
H1590 H 0.09444 0.35061 0.39744 0.0
H1591 H 0.08464 0.32821 0.40421 0.0
H1592 H 0.10769 0.34138 0.40198 0.0
H1593 H 0.06817 0.3632 0.46332 0.0
H1594 H 0.07489 0.36034 0.48913 0.0
H1595 H 0.05888 0.3419 0.47409 0.0
C1596 C 0.05263 0.31972 0.303 0.0
C1597 C 0.04084 0.32512 0.29997 0.0
C1598 C 0.06409 0.32142 0.28683 0.0
C1599 C 0.06324 0.32804 0.26687 0.0
C1600 C 0.0512 0.33337 0.26367 0.0
C1601 C 0.04033 0.33217 0.28048 0.0
C1602 C 0.07713 0.31615 0.29113 0.0
C1603 C 0.04949 0.33989 0.24239 0.0
C1604 C 0.10273 0.34479 0.2318 0.0
C1605 C 0.09904 0.3298 0.22004 0.0
C1606 C 0.09104 0.34455 0.24675 0.0
C1607 C 0.07492 0.32916 0.24941 0.0
C1608 C 0.07058 0.31436 0.23659 0.0
C1609 C 0.08278 0.31474 0.22237 0.0
C1610 C 0.09631 0.36049 0.26044 0.0
C1611 C 0.0533 0.29786 0.23851 0.0
H1612 H 0.05304 0.3144 0.3182 0.0
H1613 H 0.03105 0.33619 0.27819 0.0
H1614 H 0.07466 0.30506 0.28063 0.0
H1615 H 0.09026 0.32705 0.28749 0.0
H1616 H 0.07681 0.31231 0.30792 0.0
H1617 H 0.03954 0.3436 0.24257 0.0
H1618 H 0.06193 0.35131 0.23761 0.0
H1619 H 0.04604 0.32964 0.23004 0.0
H1620 H 0.11497 0.35669 0.22974 0.0
H1621 H 0.0797 0.30298 0.21367 0.0
H1622 H 0.09709 0.35748 0.27731 0.0
H1623 H 0.08657 0.3644 0.25958 0.0
H1624 H 0.10897 0.37168 0.2557 0.0
H1625 H 0.05254 0.29157 0.25386 0.0
H1626 H 0.05102 0.28844 0.22543 0.0
H1627 H 0.04283 0.30081 0.23841 0.0
C1628 C 0.66296 0.70629 0.26598 0.0
C1629 C 0.67149 0.70935 0.28548 0.0
C1630 C 0.66725 0.7199 0.25188 0.0
C1631 C 0.68007 0.73707 0.2577 0.0
C1632 C 0.68933 0.74009 0.27688 0.0
C1633 C 0.68506 0.72613 0.29044 0.0
C1634 C 0.65739 0.71605 0.23132 0.0
C1635 C 0.70287 0.75822 0.28384 0.0
C1636 C 0.69594 0.77249 0.21604 0.0
C1637 C 0.68489 0.77886 0.2196 0.0
C1638 C 0.69466 0.75894 0.2284 0.0
C1639 C 0.68231 0.75195 0.24494 0.0
C1640 C 0.67151 0.75878 0.24895 0.0
C1641 C 0.6728 0.77201 0.23605 0.0
C1642 C 0.70613 0.75176 0.22336 0.0
C1643 C 0.65841 0.75198 0.2667 0.0
H1644 H 0.65255 0.69329 0.26203 0.0
H1645 H 0.6916 0.72858 0.30558 0.0
H1646 H 0.64865 0.72126 0.23231 0.0
H1647 H 0.66631 0.72252 0.21784 0.0
H1648 H 0.64956 0.70188 0.22782 0.0
H1649 H 0.71021 0.75816 0.29786 0.0
H1650 H 0.71201 0.76512 0.2707 0.0
H1651 H 0.69663 0.76573 0.28807 0.0
H1652 H 0.70521 0.77777 0.20319 0.0
H1653 H 0.66436 0.77707 0.23883 0.0
H1654 H 0.69817 0.73795 0.21826 0.0
H1655 H 0.71328 0.75213 0.23778 0.0
H1656 H 0.71552 0.75908 0.21056 0.0
H1657 H 0.64859 0.73816 0.2635 0.0
H1658 H 0.65178 0.75944 0.26855 0.0
H1659 H 0.66472 0.75255 0.28198 0.0
C1660 C 0.28977 0.95982 0.28713 0.0
C1661 C 0.28212 0.96434 0.3035 0.0
C1662 C 0.27986 0.94887 0.27025 0.0
C1663 C 0.26188 0.94195 0.27011 0.0
C1664 C 0.25409 0.94622 0.28683 0.0
C1665 C 0.26434 0.95753 0.30317 0.0
C1666 C 0.28865 0.94492 0.25243 0.0
C1667 C 0.2349 0.93878 0.28754 0.0
C1668 C 0.23477 0.92584 0.22006 0.0
C1669 C 0.22727 0.90784 0.22178 0.0
C1670 C 0.24683 0.93719 0.23508 0.0
C1671 C 0.25106 0.93028 0.25252 0.0
C1672 C 0.24379 0.91208 0.254 0.0
C1673 C 0.2321 0.90107 0.23844 0.0
C1674 C 0.25462 0.95652 0.23269 0.0
C1675 C 0.24766 0.90419 0.27258 0.0
H1676 H 0.30354 0.96517 0.28729 0.0
H1677 H 0.25836 0.96085 0.31592 0.0
H1678 H 0.28329 0.93071 0.25107 0.0
H1679 H 0.28619 0.94919 0.23708 0.0
H1680 H 0.30276 0.95145 0.25483 0.0
H1681 H 0.23081 0.94287 0.3021 0.0
H1682 H 0.2308 0.94302 0.27344 0.0
H1683 H 0.22806 0.92438 0.28694 0.0
H1684 H 0.23104 0.931 0.20705 0.0
H1685 H 0.22614 0.88711 0.23977 0.0
H1686 H 0.2688 0.96333 0.2343 0.0
H1687 H 0.24979 0.96155 0.24551 0.0
H1688 H 0.25145 0.95985 0.2171 0.0
H1689 H 0.26174 0.91019 0.27454 0.0
H1690 H 0.24179 0.88991 0.27069 0.0
H1691 H 0.24266 0.90684 0.28745 0.0
C1692 C 0.66721 0.95913 0.28384 0.0
C1693 C 0.67932 0.9637 0.30013 0.0
C1694 C 0.66635 0.94842 0.26676 0.0
C1695 C 0.67756 0.94182 0.26632 0.0
C1696 C 0.68964 0.94623 0.28288 0.0
C1697 C 0.6905 0.95727 0.29944 0.0
C1698 C 0.65356 0.94427 0.24913 0.0
C1699 C 0.70156 0.93914 0.28324 0.0
C1700 C 0.66633 0.90087 0.23504 0.0
C1701 C 0.67793 0.9076 0.21804 0.0
C1702 C 0.66566 0.9119 0.25055 0.0
C1703 C 0.67666 0.93011 0.24875 0.0
C1704 C 0.68784 0.93699 0.23104 0.0
C1705 C 0.68849 0.92562 0.216 0.0
C1706 C 0.65383 0.90405 0.2694 0.0
C1707 C 0.6995 0.95634 0.22836 0.0
H1708 H 0.65863 0.96418 0.28427 0.0
H1709 H 0.69976 0.96062 0.31212 0.0
H1710 H 0.66036 0.94841 0.23365 0.0
H1711 H 0.64451 0.93004 0.24801 0.0
H1712 H 0.64603 0.95076 0.25161 0.0
H1713 H 0.70992 0.94351 0.29755 0.0
H1714 H 0.69396 0.92472 0.2829 0.0
H1715 H 0.70986 0.94334 0.26888 0.0
H1716 H 0.65829 0.8869 0.23668 0.0
H1717 H 0.69737 0.9308 0.20274 0.0
H1718 H 0.64569 0.90987 0.2715 0.0
H1719 H 0.66157 0.90694 0.28411 0.0
H1720 H 0.64534 0.88973 0.26774 0.0
H1721 H 0.69207 0.96298 0.2301 0.0
H1722 H 0.70604 0.95961 0.21264 0.0
H1723 H 0.70945 0.96159 0.24099 0.0
C1724 C 0.03984 0.71901 0.28854 0.0
C1725 C 0.04787 0.70977 0.29403 0.0
C1726 C 0.04722 0.73232 0.27343 0.0
C1727 C 0.06307 0.73662 0.26383 0.0
C1728 C 0.07108 0.72717 0.26907 0.0
C1729 C 0.06335 0.71383 0.28396 0.0
C1730 C 0.03819 0.74196 0.268 0.0
C1731 C 0.08808 0.73144 0.25932 0.0
C1732 C 0.07973 0.76187 0.21262 0.0
C1733 C 0.09205 0.77839 0.22035 0.0
C1734 C 0.06946 0.74834 0.22662 0.0
C1735 C 0.07177 0.75138 0.24885 0.0
C1736 C 0.08371 0.76823 0.25672 0.0
C1737 C 0.09365 0.78155 0.24236 0.0
C1738 C 0.05667 0.73064 0.21761 0.0
C1739 C 0.0867 0.77196 0.2803 0.0
H1740 H 0.02784 0.71593 0.29612 0.0
H1741 H 0.06971 0.70684 0.28809 0.0
H1742 H 0.04623 0.75579 0.27298 0.0
H1743 H 0.03639 0.7417 0.25054 0.0
H1744 H 0.02545 0.73636 0.27587 0.0
H1745 H 0.09249 0.72268 0.26486 0.0
H1746 H 0.08702 0.73045 0.24173 0.0
H1747 H 0.09805 0.74502 0.26343 0.0
H1748 H 0.07834 0.75945 0.1956 0.0
H1749 H 0.10327 0.79427 0.2484 0.0
H1750 H 0.044 0.72547 0.22547 0.0
H1751 H 0.06111 0.72145 0.22079 0.0
H1752 H 0.055 0.73092 0.20017 0.0
H1753 H 0.07433 0.76743 0.28869 0.0
H1754 H 0.09538 0.78602 0.28385 0.0
H1755 H 0.09251 0.76475 0.28688 0.0
C1756 C 0.2852 0.32317 0.28915 0.0
C1757 C 0.29752 0.34088 0.29194 0.0
C1758 C 0.27153 0.31769 0.27471 0.0
C1759 C 0.2701 0.33021 0.26295 0.0
C1760 C 0.28288 0.348 0.26506 0.0
C1761 C 0.29642 0.35308 0.27941 0.0
C1762 C 0.25829 0.29858 0.27265 0.0
C1763 C 0.28183 0.3618 0.25286 0.0
C1764 C 0.24132 0.32045 0.21485 0.0
C1765 C 0.22781 0.32177 0.22379 0.0
C1766 C 0.25474 0.32208 0.22761 0.0
C1767 C 0.25463 0.32515 0.24976 0.0
C1768 C 0.24049 0.32545 0.259 0.0
C1769 C 0.22726 0.32372 0.24591 0.0
C1770 C 0.26949 0.3215 0.21719 0.0
C1771 C 0.23981 0.32861 0.28256 0.0
H1772 H 0.28595 0.3136 0.29863 0.0
H1773 H 0.30589 0.36679 0.28124 0.0
H1774 H 0.24597 0.29603 0.27972 0.0
H1775 H 0.25582 0.29458 0.25565 0.0
H1776 H 0.26233 0.29037 0.28081 0.0
H1777 H 0.2933 0.37495 0.2554 0.0
H1778 H 0.28054 0.35871 0.23558 0.0
H1779 H 0.27026 0.36213 0.25793 0.0
H1780 H 0.24184 0.31897 0.19776 0.0
H1781 H 0.21664 0.32435 0.25296 0.0
H1782 H 0.27289 0.31324 0.22638 0.0
H1783 H 0.28099 0.33479 0.21697 0.0
H1784 H 0.26648 0.31647 0.20057 0.0
H1785 H 0.24217 0.31964 0.29185 0.0
H1786 H 0.22724 0.32689 0.2875 0.0
H1787 H 0.25007 0.34206 0.28675 0.0
C1788 C 0.29353 0.3367 0.40356 0.0
C1789 C 0.30224 0.35208 0.39185 0.0
C1790 C 0.28182 0.3347 0.41967 0.0
C1791 C 0.27859 0.3483 0.42398 0.0
C1792 C 0.28764 0.36399 0.41259 0.0
C1793 C 0.2994 0.36572 0.39679 0.0
C1794 C 0.27261 0.31789 0.43174 0.0
C1795 C 0.28447 0.37876 0.41658 0.0
C1796 C 0.23564 0.33821 0.44687 0.0
C1797 C 0.24017 0.34465 0.46771 0.0
C1798 C 0.24796 0.33894 0.43261 0.0
C1799 C 0.26512 0.34592 0.43954 0.0
C1800 C 0.26957 0.35175 0.46089 0.0
C1801 C 0.25707 0.35128 0.47466 0.0
C1802 C 0.24277 0.33293 0.40988 0.0
C1803 C 0.28762 0.3589 0.469 0.0
H1804 H 0.29569 0.32612 0.39998 0.0
H1805 H 0.30601 0.37767 0.38788 0.0
H1806 H 0.27398 0.32057 0.44912 0.0
H1807 H 0.25869 0.31096 0.42803 0.0
H1808 H 0.27757 0.30916 0.42771 0.0
H1809 H 0.29293 0.39029 0.40679 0.0
H1810 H 0.27089 0.37441 0.41289 0.0
H1811 H 0.28662 0.38274 0.4336 0.0
H1812 H 0.22257 0.33322 0.44152 0.0
H1813 H 0.26048 0.35615 0.49085 0.0
H1814 H 0.24622 0.32311 0.40538 0.0
H1815 H 0.24987 0.34408 0.39904 0.0
H1816 H 0.22877 0.32721 0.40726 0.0
H1817 H 0.29211 0.34978 0.4651 0.0
H1818 H 0.28856 0.36125 0.48648 0.0
H1819 H 0.29648 0.37135 0.46106 0.0
C1820 C 0.65495 0.94506 0.39532 0.0
C1821 C 0.66864 0.96197 0.39939 0.0
C1822 C 0.65117 0.93147 0.40928 0.0
C1823 C 0.66106 0.93499 0.42802 0.0
C1824 C 0.67414 0.95228 0.43289 0.0
C1825 C 0.67794 0.96551 0.41837 0.0
C1826 C 0.63735 0.91318 0.40328 0.0
C1827 C 0.68465 0.95667 0.45298 0.0
C1828 C 0.64533 0.90054 0.47089 0.0
C1829 C 0.65585 0.89358 0.46721 0.0
C1830 C 0.64687 0.91409 0.45832 0.0
C1831 C 0.65891 0.92045 0.44141 0.0
C1832 C 0.66927 0.91311 0.4374 0.0
C1833 C 0.66776 0.89991 0.45054 0.0
C1834 C 0.6359 0.92185 0.4634 0.0
C1835 C 0.68201 0.91923 0.41926 0.0
H1836 H 0.64782 0.94222 0.38058 0.0
H1837 H 0.68845 0.97861 0.42165 0.0
H1838 H 0.64335 0.90534 0.39957 0.0
H1839 H 0.62839 0.90689 0.41677 0.0
H1840 H 0.62985 0.91282 0.38921 0.0
H1841 H 0.69279 0.97092 0.45572 0.0
H1842 H 0.67613 0.9508 0.46696 0.0
H1843 H 0.69314 0.95117 0.45193 0.0
H1844 H 0.63619 0.89564 0.48392 0.0
H1845 H 0.67581 0.8944 0.44769 0.0
H1846 H 0.62819 0.9209 0.44929 0.0
H1847 H 0.64425 0.93586 0.46739 0.0
H1848 H 0.62703 0.91532 0.47694 0.0
H1849 H 0.67542 0.91829 0.40407 0.0
H1850 H 0.68844 0.91156 0.41764 0.0
H1851 H 0.69201 0.93309 0.42178 0.0
C1852 C 0.04438 0.70965 0.40982 0.0
C1853 C 0.05304 0.70668 0.39324 0.0
C1854 C 0.05352 0.72062 0.4271 0.0
C1855 C 0.07169 0.7291 0.42741 0.0
C1856 C 0.08045 0.72644 0.41041 0.0
C1857 C 0.07101 0.7151 0.3937 0.0
C1858 C 0.04375 0.72287 0.44519 0.0
C1859 C 0.09984 0.73554 0.40985 0.0
C1860 C 0.1002 0.7698 0.45993 0.0
C1861 C 0.10637 0.76328 0.47535 0.0
C1862 C 0.08806 0.75865 0.44483 0.0
C1863 C 0.08179 0.74059 0.44553 0.0
C1864 C 0.08711 0.73387 0.46207 0.0
C1865 C 0.09955 0.74536 0.47664 0.0
C1866 C 0.08298 0.76637 0.42723 0.0
C1867 C 0.08043 0.71466 0.46365 0.0
H1868 H 0.03048 0.70309 0.40951 0.0
H1869 H 0.07776 0.71302 0.38076 0.0
H1870 H 0.04635 0.71823 0.46016 0.0
H1871 H 0.04819 0.73682 0.44761 0.0
H1872 H 0.02967 0.71562 0.44236 0.0
H1873 H 0.10467 0.73271 0.39495 0.0
H1874 H 0.10551 0.74981 0.41133 0.0
H1875 H 0.1045 0.73143 0.42352 0.0
H1876 H 0.1056 0.78371 0.45895 0.0
H1877 H 0.1043 0.74039 0.48871 0.0
H1878 H 0.06884 0.75904 0.42506 0.0
H1879 H 0.08878 0.76541 0.41204 0.0
H1880 H 0.08734 0.78025 0.43038 0.0
H1881 H 0.06626 0.70706 0.46175 0.0
H1882 H 0.0838 0.71132 0.47909 0.0
H1883 H 0.08602 0.7106 0.45066 0.0
C1884 C 0.33642 0.04483 0.73504 0.0
C1885 C 0.32407 0.04012 0.71902 0.0
C1886 C 0.33737 0.05551 0.75221 0.0
C1887 C 0.32602 0.06193 0.753 0.0
C1888 C 0.31371 0.05738 0.73669 0.0
C1889 C 0.31275 0.04636 0.72005 0.0
C1890 C 0.35039 0.05979 0.76958 0.0
C1891 C 0.30164 0.0643 0.73668 0.0
C1892 C 0.31547 0.07807 0.80366 0.0
C1893 C 0.3259 0.09609 0.80153 0.0
C1894 C 0.31606 0.06672 0.78853 0.0
C1895 C 0.32702 0.07363 0.77064 0.0
C1896 C 0.33789 0.09184 0.76874 0.0
C1897 C 0.33731 0.10286 0.78435 0.0
C1898 C 0.30456 0.04737 0.79132 0.0
C1899 C 0.34948 0.09973 0.74968 0.0
H1900 H 0.3451 0.03991 0.73434 0.0
H1901 H 0.30331 0.04287 0.70757 0.0
H1902 H 0.35936 0.07404 0.77063 0.0
H1903 H 0.34378 0.05563 0.78518 0.0
H1904 H 0.35798 0.0534 0.76687 0.0
H1905 H 0.29312 0.05986 0.72251 0.0
H1906 H 0.2935 0.06005 0.75117 0.0
H1907 H 0.30913 0.07872 0.737 0.0
H1908 H 0.30673 0.07289 0.81706 0.0
H1909 H 0.34526 0.11683 0.78265 0.0
H1910 H 0.31206 0.04082 0.78934 0.0
H1911 H 0.29443 0.04201 0.77891 0.0
H1912 H 0.29824 0.04409 0.80717 0.0
H1913 H 0.3577 0.09401 0.74737 0.0
H1914 H 0.35788 0.11406 0.75127 0.0
H1915 H 0.34155 0.09673 0.73513 0.0
C1916 C 0.9563 0.27666 0.72412 0.0
C1917 C 0.96099 0.29371 0.72974 0.0
C1918 C 0.94745 0.26304 0.73853 0.0
C1919 C 0.94369 0.26671 0.75921 0.0
C1920 C 0.9496 0.28413 0.76543 0.0
C1921 C 0.95791 0.29739 0.75048 0.0
C1922 C 0.94102 0.24463 0.7311 0.0
C1923 C 0.94634 0.28866 0.78752 0.0
C1924 C 0.90305 0.23289 0.78688 0.0
C1925 C 0.90938 0.22553 0.80087 0.0
C1926 C 0.91408 0.24605 0.77297 0.0
C1927 C 0.93194 0.25228 0.77343 0.0
C1928 C 0.93841 0.24492 0.78764 0.0
C1929 C 0.92698 0.23144 0.80105 0.0
C1930 C 0.90659 0.25329 0.75776 0.0
C1931 C 0.9574 0.2515 0.78894 0.0
H1932 H 0.95854 0.2738 0.70799 0.0
H1933 H 0.96165 0.31061 0.75485 0.0
H1934 H 0.94428 0.23766 0.74282 0.0
H1935 H 0.9268 0.23753 0.72976 0.0
H1936 H 0.94644 0.2441 0.71538 0.0
H1937 H 0.95385 0.30288 0.79075 0.0
H1938 H 0.93249 0.2841 0.78938 0.0
H1939 H 0.94967 0.28203 0.79967 0.0
H1940 H 0.88939 0.22816 0.78665 0.0
H1941 H 0.93183 0.22574 0.812 0.0
H1942 H 0.91034 0.25227 0.74118 0.0
H1943 H 0.9118 0.26726 0.76134 0.0
H1944 H 0.89235 0.2464 0.75868 0.0
H1945 H 0.9623 0.25031 0.77317 0.0
H1946 H 0.96034 0.24432 0.80076 0.0
H1947 H 0.96449 0.2655 0.79341 0.0
C1948 C 0.70595 0.65085 0.74231 0.0
C1949 C 0.70475 0.66293 0.72962 0.0
C1950 C 0.71968 0.65607 0.75642 0.0
C1951 C 0.73254 0.67386 0.75812 0.0
C1952 C 0.73097 0.68627 0.7463 0.0
C1953 C 0.71712 0.68066 0.73211 0.0
C1954 C 0.72085 0.64239 0.76872 0.0
C1955 C 0.74428 0.70538 0.74794 0.0
C1956 C 0.76236 0.68418 0.80531 0.0
C1957 C 0.77574 0.68283 0.79595 0.0
C1958 C 0.74866 0.68239 0.79299 0.0
C1959 C 0.74828 0.67903 0.77085 0.0
C1960 C 0.76224 0.67866 0.76117 0.0
C1961 C 0.77582 0.68067 0.77381 0.0
C1962 C 0.73415 0.68314 0.80385 0.0
C1963 C 0.7624 0.67515 0.73761 0.0
H1964 H 0.69644 0.63714 0.74073 0.0
H1965 H 0.71631 0.69014 0.72251 0.0
H1966 H 0.73227 0.64189 0.76336 0.0
H1967 H 0.72249 0.64573 0.78594 0.0
H1968 H 0.70928 0.62925 0.76659 0.0
H1969 H 0.74006 0.71353 0.73998 0.0
H1970 H 0.74717 0.70955 0.76486 0.0
H1971 H 0.75642 0.70784 0.74039 0.0
H1972 H 0.76215 0.68581 0.82241 0.0
H1973 H 0.78631 0.68004 0.76638 0.0
H1974 H 0.72267 0.66987 0.80457 0.0
H1975 H 0.73054 0.69125 0.7947 0.0
H1976 H 0.73757 0.68846 0.82033 0.0
H1977 H 0.75196 0.66169 0.7338 0.0
H1978 H 0.7748 0.67667 0.73229 0.0
H1979 H 0.75995 0.68407 0.72835 0.0
C1980 C 0.69988 0.63641 0.62105 0.0
C1981 C 0.70049 0.65134 0.62938 0.0
C1982 C 0.7115 0.6376 0.60536 0.0
C1983 C 0.72407 0.65411 0.59774 0.0
C1984 C 0.72431 0.66917 0.60534 0.0
C1985 C 0.71251 0.66761 0.62107 0.0
C1986 C 0.71079 0.62122 0.59761 0.0
C1987 C 0.73748 0.687 0.59751 0.0
C1988 C 0.76577 0.65854 0.57816 0.0
C1989 C 0.76363 0.65756 0.55602 0.0
C1990 C 0.75306 0.65763 0.59184 0.0
C1991 C 0.7378 0.65568 0.58319 0.0
C1992 C 0.73556 0.65473 0.56085 0.0
C1993 C 0.7485 0.65563 0.5475 0.0
C1994 C 0.75589 0.65854 0.61559 0.0
C1995 C 0.71948 0.65271 0.55107 0.0
H1996 H 0.69058 0.62374 0.62717 0.0
H1997 H 0.71306 0.67923 0.62727 0.0
H1998 H 0.71042 0.62051 0.57998 0.0
H1999 H 0.72256 0.6214 0.6027 0.0
H2000 H 0.69942 0.6093 0.60387 0.0
H2001 H 0.73497 0.6972 0.6035 0.0
H2002 H 0.75046 0.69033 0.60285 0.0
H2003 H 0.73766 0.68715 0.57987 0.0
H2004 H 0.77732 0.65977 0.58484 0.0
H2005 H 0.74687 0.65504 0.53039 0.0
H2006 H 0.74574 0.6464 0.62302 0.0
H2007 H 0.75495 0.66942 0.62268 0.0
H2008 H 0.76862 0.66041 0.61972 0.0
H2009 H 0.70808 0.64045 0.55649 0.0
H2010 H 0.71987 0.65252 0.53341 0.0
H2011 H 0.71771 0.66352 0.55643 0.0
C2012 C 0.32147 0.04453 0.60973 0.0
C2013 C 0.33383 0.04209 0.6198 0.0
C2014 C 0.32626 0.05811 0.59546 0.0
C2015 C 0.34385 0.06947 0.59078 0.0
C2016 C 0.35638 0.0667 0.60012 0.0
C2017 C 0.35124 0.05312 0.61466 0.0
C2018 C 0.31248 0.06068 0.58601 0.0
C2019 C 0.37524 0.07836 0.5952 0.0
C2020 C 0.35114 0.09664 0.54176 0.0
C2021 C 0.35342 0.11206 0.55085 0.0
C2022 C 0.34907 0.08301 0.55459 0.0
C2023 C 0.34896 0.08474 0.57701 0.0
C2024 C 0.35193 0.10056 0.58624 0.0
C2025 C 0.35423 0.11406 0.57304 0.0
C2026 C 0.34626 0.06649 0.54413 0.0
C2027 C 0.35171 0.10288 0.61007 0.0
H2028 H 0.30798 0.03616 0.61353 0.0
H2029 H 0.36088 0.05132 0.62224 0.0
H2030 H 0.3145 0.07348 0.59118 0.0
H2031 H 0.31327 0.06072 0.56839 0.0
H2032 H 0.29934 0.05042 0.59082 0.0
H2033 H 0.38318 0.07351 0.60214 0.0
H2034 H 0.37732 0.07949 0.57774 0.0
H2035 H 0.37981 0.09161 0.60164 0.0
H2036 H 0.35074 0.09515 0.52459 0.0
H2037 H 0.35585 0.12591 0.58012 0.0
H2038 H 0.33276 0.05591 0.54657 0.0
H2039 H 0.35465 0.06237 0.55148 0.0
H2040 H 0.34886 0.068 0.52675 0.0
H2041 H 0.33858 0.09397 0.61624 0.0
H2042 H 0.35557 0.1164 0.61474 0.0
H2043 H 0.36047 0.09947 0.61788 0.0
C2044 C 0.95741 0.29404 0.61297 0.0
C2045 C 0.94908 0.29597 0.63077 0.0
C2046 C 0.94792 0.28348 0.59559 0.0
C2047 C 0.92973 0.27434 0.59638 0.0
C2048 C 0.92131 0.27593 0.61457 0.0
C2049 C 0.93108 0.28689 0.63141 0.0
C2050 C 0.95732 0.28236 0.57627 0.0
C2051 C 0.90194 0.26609 0.61624 0.0
C2052 C 0.90096 0.25896 0.54783 0.0
C2053 C 0.89511 0.24116 0.54756 0.0
C2054 C 0.91316 0.27016 0.56281 0.0
C2055 C 0.9193 0.26327 0.57817 0.0
C2056 C 0.91391 0.2454 0.5774 0.0
C2057 C 0.90197 0.23457 0.56193 0.0
C2058 C 0.91887 0.2892 0.56283 0.0
C2059 C 0.91992 0.23751 0.5937 0.0
H2060 H 0.97134 0.30112 0.61241 0.0
H2061 H 0.9246 0.28817 0.64526 0.0
H2062 H 0.95338 0.26864 0.57288 0.0
H2063 H 0.95384 0.28717 0.56215 0.0
H2064 H 0.97149 0.29008 0.5783 0.0
H2065 H 0.89743 0.26814 0.6319 0.0
H2066 H 0.89647 0.27028 0.60357 0.0
H2067 H 0.89674 0.25197 0.61387 0.0
H2068 H 0.89573 0.26404 0.53654 0.0
H2069 H 0.89733 0.22076 0.56176 0.0
H2070 H 0.93307 0.29732 0.56396 0.0
H2071 H 0.91345 0.29231 0.57693 0.0
H2072 H 0.91462 0.29285 0.54831 0.0
H2073 H 0.93411 0.24516 0.59516 0.0
H2074 H 0.91587 0.22383 0.58967 0.0
H2075 H 0.91452 0.23781 0.6095 0.0
C2076 C 0.33516 0.29534 0.61546 0.0
C2077 C 0.34701 0.29945 0.63195 0.0
C2078 C 0.33388 0.28429 0.59855 0.0
C2079 C 0.34438 0.27685 0.5985 0.0
C2080 C 0.35628 0.2809 0.61519 0.0
C2081 C 0.35758 0.29229 0.63155 0.0
C2082 C 0.32135 0.28059 0.58074 0.0
C2083 C 0.36745 0.27296 0.61598 0.0
C2084 C 0.33163 0.23491 0.56856 0.0
C2085 C 0.34356 0.24094 0.55187 0.0
C2086 C 0.33128 0.24654 0.58345 0.0
C2087 C 0.34291 0.26461 0.58127 0.0
C2088 C 0.35431 0.27079 0.56371 0.0
C2089 C 0.35466 0.25884 0.54936 0.0
C2090 C 0.31917 0.23942 0.60217 0.0
C2091 C 0.36664 0.28997 0.56058 0.0
H2092 H 0.32702 0.30091 0.61566 0.0
H2093 H 0.36663 0.29525 0.64438 0.0
H2094 H 0.32822 0.28409 0.56527 0.0
H2095 H 0.31165 0.2665 0.57997 0.0
H2096 H 0.31456 0.28788 0.58276 0.0
H2097 H 0.3758 0.27719 0.63031 0.0
H2098 H 0.35929 0.25858 0.61596 0.0
H2099 H 0.37576 0.2766 0.60165 0.0
H2100 H 0.32314 0.22104 0.57053 0.0
H2101 H 0.36379 0.26346 0.53631 0.0
H2102 H 0.31166 0.24597 0.60383 0.0
H2103 H 0.3267 0.24206 0.61702 0.0
H2104 H 0.31009 0.22518 0.60068 0.0
H2105 H 0.35978 0.29721 0.56207 0.0
H2106 H 0.37309 0.29272 0.54482 0.0
H2107 H 0.37665 0.29502 0.57313 0.0
C2108 C 0.72683 0.04444 0.60709 0.0
C2109 C 0.71173 0.04101 0.61769 0.0
C2110 C 0.73474 0.05777 0.59221 0.0
C2111 C 0.72728 0.06784 0.58753 0.0
C2112 C 0.71164 0.06398 0.59739 0.0
C2113 C 0.7041 0.05068 0.61248 0.0
C2114 C 0.75149 0.06155 0.58217 0.0
C2115 C 0.70316 0.07425 0.59248 0.0
C2116 C 0.75915 0.11318 0.56835 0.0
C2117 C 0.75768 0.11083 0.54622 0.0
C2118 C 0.7488 0.09945 0.58201 0.0
C2119 C 0.73655 0.08303 0.5733 0.0
C2120 C 0.73441 0.08084 0.55097 0.0
C2121 C 0.74511 0.09474 0.53767 0.0
C2122 C 0.75163 0.10227 0.60573 0.0
C2123 C 0.72129 0.06363 0.5411 0.0
H2124 H 0.73288 0.03709 0.61094 0.0
H2125 H 0.69238 0.04808 0.62045 0.0
H2126 H 0.7505 0.06125 0.56458 0.0
H2127 H 0.76189 0.07479 0.58691 0.0
H2128 H 0.75526 0.0521 0.58692 0.0
H2129 H 0.69023 0.06856 0.59988 0.0
H2130 H 0.71129 0.08779 0.59846 0.0
H2131 H 0.70188 0.07487 0.57503 0.0
H2132 H 0.76897 0.12555 0.575 0.0
H2133 H 0.74385 0.09297 0.52054 0.0
H2134 H 0.75677 0.09429 0.61176 0.0
H2135 H 0.73928 0.09803 0.61403 0.0
H2136 H 0.76079 0.1161 0.60999 0.0
H2137 H 0.72525 0.05397 0.54357 0.0
H2138 H 0.71983 0.06463 0.52374 0.0
H2139 H 0.7086 0.05858 0.54888 0.0
C2140 C 0.95056 0.65468 0.62156 0.0
C2141 C 0.96367 0.67215 0.62388 0.0
C2142 C 0.93707 0.64969 0.60697 0.0
C2143 C 0.93662 0.6625 0.59458 0.0
C2144 C 0.95023 0.67999 0.59613 0.0
C2145 C 0.96359 0.68457 0.61062 0.0
C2146 C 0.92294 0.63086 0.60547 0.0
C2147 C 0.95027 0.69409 0.58327 0.0
C2148 C 0.90783 0.65357 0.54665 0.0
C2149 C 0.89498 0.65607 0.5555 0.0
C2150 C 0.92096 0.65453 0.55941 0.0
C2151 C 0.9213 0.65819 0.58146 0.0
C2152 C 0.90784 0.65976 0.59062 0.0
C2153 C 0.89483 0.6586 0.57757 0.0
C2154 C 0.93493 0.65252 0.54909 0.0
C2155 C 0.90766 0.66364 0.61406 0.0
H2156 H 0.95053 0.64495 0.63158 0.0
H2157 H 0.97369 0.69808 0.61204 0.0
H2158 H 0.91102 0.62927 0.61269 0.0
H2159 H 0.92006 0.62658 0.58859 0.0
H2160 H 0.92634 0.62223 0.61383 0.0
H2161 H 0.9623 0.70687 0.58537 0.0
H2162 H 0.94866 0.69054 0.56611 0.0
H2163 H 0.93927 0.69552 0.58816 0.0
H2164 H 0.90806 0.65162 0.52962 0.0
H2165 H 0.88471 0.66009 0.58461 0.0
H2166 H 0.93766 0.64393 0.55863 0.0
H2167 H 0.94695 0.66539 0.54836 0.0
H2168 H 0.93146 0.64711 0.53265 0.0
H2169 H 0.90918 0.65427 0.62369 0.0
H2170 H 0.89561 0.66311 0.61898 0.0
H2171 H 0.91866 0.67682 0.61784 0.0
C2172 C 0.96609 0.67503 0.74248 0.0
C2173 C 0.96578 0.68221 0.72301 0.0
C2174 C 0.95523 0.67394 0.75925 0.0
C2175 C 0.94338 0.67952 0.75604 0.0
C2176 C 0.94282 0.68641 0.73616 0.0
C2177 C 0.95427 0.68799 0.72003 0.0
C2178 C 0.95664 0.66713 0.78047 0.0
C2179 C 0.92998 0.69194 0.7318 0.0
C2180 C 0.90301 0.66197 0.78955 0.0
C2181 C 0.90632 0.67671 0.80161 0.0
C2182 C 0.91513 0.66254 0.77509 0.0
C2183 C 0.93131 0.67799 0.77321 0.0
C2184 C 0.93526 0.69251 0.78641 0.0
C2185 C 0.92264 0.69181 0.80017 0.0
C2186 C 0.91025 0.64689 0.76098 0.0
C2187 C 0.95258 0.70905 0.78536 0.0
H2188 H 0.97513 0.6707 0.74473 0.0
H2189 H 0.95399 0.69341 0.70484 0.0
H2190 H 0.95957 0.67706 0.79309 0.0
H2191 H 0.94421 0.65544 0.78468 0.0
H2192 H 0.9668 0.66372 0.7805 0.0
H2193 H 0.9307 0.69626 0.71516 0.0
H2194 H 0.91674 0.68099 0.73483 0.0
H2195 H 0.93226 0.70275 0.7427 0.0
H2196 H 0.89072 0.65002 0.79099 0.0
H2197 H 0.92544 0.70335 0.80918 0.0
H2198 H 0.91999 0.64299 0.76208 0.0
H2199 H 0.9099 0.65025 0.74415 0.0
H2200 H 0.89749 0.63558 0.76515 0.0
H2201 H 0.96305 0.7061 0.78559 0.0
H2202 H 0.95453 0.7181 0.79876 0.0
H2203 H 0.9537 0.71576 0.77024 0.0
C2204 C 0.34321 0.29665 0.74937 0.0
C2205 C 0.334 0.29402 0.73051 0.0
C2206 C 0.33875 0.28293 0.76335 0.0
C2207 C 0.32496 0.26608 0.75814 0.0
C2208 C 0.31511 0.26351 0.73961 0.0
C2209 C 0.31965 0.27757 0.7261 0.0
C2210 C 0.34935 0.28631 0.78318 0.0
C2211 C 0.30046 0.24571 0.73334 0.0
C2212 C 0.33017 0.22971 0.77929 0.0
C2213 C 0.31909 0.22417 0.79685 0.0
C2214 C 0.33167 0.24289 0.76613 0.0
C2215 C 0.3221 0.25097 0.7709 0.0
C2216 C 0.31061 0.24517 0.7884 0.0
C2217 C 0.30912 0.2317 0.80109 0.0
C2218 C 0.34383 0.24844 0.74741 0.0
C2219 C 0.30038 0.25363 0.79417 0.0
H2220 H 0.3542 0.30939 0.75296 0.0
H2221 H 0.31253 0.27544 0.7115 0.0
H2222 H 0.34087 0.28068 0.79725 0.0
H2223 H 0.35701 0.27991 0.78156 0.0
H2224 H 0.3583 0.30041 0.7862 0.0
H2225 H 0.29295 0.2462 0.71979 0.0
H2226 H 0.30564 0.2373 0.72869 0.0
H2227 H 0.29166 0.23949 0.74699 0.0
H2228 H 0.33774 0.22374 0.77591 0.0
H2229 H 0.30063 0.22745 0.81477 0.0
H2230 H 0.35451 0.26202 0.74988 0.0
H2231 H 0.33705 0.24809 0.73264 0.0
H2232 H 0.3494 0.24003 0.74502 0.0
H2233 H 0.30927 0.26735 0.79904 0.0
H2234 H 0.29121 0.24689 0.80738 0.0
H2235 H 0.29311 0.25377 0.78017 0.0
C2236 C 0.73862 0.0501 0.71746 0.0
C2237 C 0.72069 0.04212 0.71726 0.0
C2238 C 0.74837 0.06117 0.73422 0.0
C2239 C 0.73994 0.06399 0.7515 0.0
C2240 C 0.72182 0.05605 0.75136 0.0
C2241 C 0.7124 0.04535 0.73404 0.0
C2242 C 0.76771 0.06974 0.73351 0.0
C2243 C 0.71239 0.05846 0.76973 0.0
C2244 C 0.76705 0.07835 0.80148 0.0
C2245 C 0.77412 0.09636 0.80111 0.0
C2246 C 0.75497 0.06749 0.78617 0.0
C2247 C 0.75026 0.07493 0.76984 0.0
C2248 C 0.75691 0.09308 0.76991 0.0
C2249 C 0.76867 0.10358 0.78571 0.0
C2250 C 0.74789 0.04816 0.78691 0.0
C2251 C 0.75245 0.10153 0.75255 0.0
H2252 H 0.74507 0.04776 0.70436 0.0
H2253 H 0.69851 0.0391 0.73395 0.0
H2254 H 0.7738 0.08403 0.73548 0.0
H2255 H 0.77216 0.06509 0.74684 0.0
H2256 H 0.7723 0.06699 0.71835 0.0
H2257 H 0.69832 0.05177 0.76691 0.0
H2258 H 0.71468 0.05328 0.78444 0.0
H2259 H 0.71736 0.07248 0.77261 0.0
H2260 H 0.77123 0.07281 0.81354 0.0
H2261 H 0.77428 0.11755 0.7854 0.0
H2262 H 0.75322 0.04421 0.7735 0.0
H2263 H 0.73371 0.04093 0.78508 0.0
H2264 H 0.75114 0.04426 0.80202 0.0
H2265 H 0.75809 0.10046 0.73728 0.0
H2266 H 0.75739 0.1155 0.75601 0.0
H2267 H 0.73834 0.09478 0.75033 0.0
C2268 C 0.05852 0.35963 0.04014 0.0
C2269 C 0.04175 0.3452 0.04038 0.0
C2270 C 0.0718 0.35956 0.05141 0.0
C2271 C 0.06824 0.34463 0.06293 0.0
C2272 C 0.05133 0.33004 0.0632 0.0
C2273 C 0.0383 0.33054 0.05203 0.0
C2274 C 0.08964 0.37542 0.05096 0.0
C2275 C 0.04702 0.3138 0.07512 0.0
C2276 C 0.10398 0.33602 0.07593 0.0
C2277 C 0.10667 0.34037 0.09767 0.0
C2278 C 0.09178 0.33769 0.06432 0.0
C2279 C 0.08214 0.34407 0.07461 0.0
C2280 C 0.08511 0.34895 0.09638 0.0
C2281 C 0.09726 0.34695 0.10767 0.0
C2282 C 0.08891 0.33223 0.04116 0.0
C2283 C 0.07514 0.35587 0.1079 0.0
H2284 H 0.06125 0.37101 0.03122 0.0
H2285 H 0.02538 0.3193 0.05222 0.0
H2286 H 0.09404 0.38023 0.06742 0.0
H2287 H 0.0988 0.372 0.04396 0.0
H2288 H 0.09023 0.38611 0.0416 0.0
H2289 H 0.03323 0.30356 0.07371 0.0
H2290 H 0.05489 0.30846 0.06895 0.0
H2291 H 0.05018 0.31694 0.09223 0.0
H2292 H 0.1114 0.33122 0.06795 0.0
H2293 H 0.09905 0.35014 0.12451 0.0
H2294 H 0.09052 0.34309 0.03124 0.0
H2295 H 0.07554 0.32127 0.03884 0.0
H2296 H 0.09788 0.32812 0.03531 0.0
H2297 H 0.07602 0.36692 0.09911 0.0
H2298 H 0.07986 0.36028 0.12439 0.0
H2299 H 0.06136 0.3456 0.10863 0.0
C2300 C 0.68519 0.70857 0.05163 0.0
C2301 C 0.66901 0.69753 0.04257 0.0
C2302 C 0.68841 0.72329 0.06357 0.0
C2303 C 0.67497 0.72673 0.06691 0.0
C2304 C 0.65846 0.71528 0.05834 0.0
C2305 C 0.65575 0.70094 0.04602 0.0
C2306 C 0.70626 0.73543 0.07209 0.0
C2307 C 0.6437 0.71828 0.06199 0.0
C2308 C 0.67798 0.75704 0.11167 0.0
C2309 C 0.68165 0.77185 0.10034 0.0
C2310 C 0.67605 0.74228 0.10104 0.0
C2311 C 0.67823 0.74261 0.07867 0.0
C2312 C 0.68257 0.75785 0.06733 0.0
C2313 C 0.68401 0.77225 0.07831 0.0
C2314 C 0.67106 0.72615 0.11359 0.0
C2315 C 0.68535 0.75881 0.04355 0.0
H2316 H 0.69548 0.70597 0.04887 0.0
H2317 H 0.64318 0.69234 0.03918 0.0
H2318 H 0.71156 0.74845 0.065 0.0
H2319 H 0.70583 0.73706 0.08956 0.0
H2320 H 0.71517 0.73067 0.06852 0.0
H2321 H 0.63141 0.70753 0.05541 0.0
H2322 H 0.642 0.71964 0.07927 0.0
H2323 H 0.64656 0.73056 0.05441 0.0
H2324 H 0.6761 0.75686 0.12874 0.0
H2325 H 0.68692 0.78383 0.0697 0.0
H2326 H 0.68031 0.72177 0.11059 0.0
H2327 H 0.65823 0.71547 0.10834 0.0
H2328 H 0.67057 0.72828 0.13098 0.0
H2329 H 0.69481 0.75494 0.03925 0.0
H2330 H 0.69002 0.77206 0.03743 0.0
H2331 H 0.67313 0.7496 0.0354 0.0
C2332 C 0.29403 0.97756 0.04996 0.0
C2333 C 0.30525 0.97281 0.04102 0.0
C2334 C 0.27954 0.96558 0.06158 0.0
C2335 C 0.27654 0.94867 0.06488 0.0
C2336 C 0.28815 0.94401 0.0564 0.0
C2337 C 0.30222 0.95605 0.04426 0.0
C2338 C 0.26721 0.97089 0.06988 0.0
C2339 C 0.2857 0.92628 0.06009 0.0
C2340 C 0.24684 0.92235 0.11011 0.0
C2341 C 0.23191 0.91054 0.09903 0.0
C2342 C 0.26154 0.93479 0.09919 0.0
C2343 C 0.26106 0.93568 0.07675 0.0
C2344 C 0.24583 0.92395 0.06557 0.0
C2345 C 0.2315 0.91135 0.07685 0.0
C2346 C 0.27765 0.94677 0.11162 0.0
C2347 C 0.24467 0.92475 0.04171 0.0
H2348 H 0.29632 0.99049 0.04733 0.0
H2349 H 0.31095 0.95239 0.03749 0.0
H2350 H 0.25425 0.96217 0.06305 0.0
H2351 H 0.266 0.96952 0.08741 0.0
H2352 H 0.27136 0.98451 0.06589 0.0
H2353 H 0.29646 0.92509 0.05353 0.0
H2354 H 0.2846 0.92361 0.07739 0.0
H2355 H 0.27357 0.91613 0.05255 0.0
H2356 H 0.24711 0.9216 0.12729 0.0
H2357 H 0.21986 0.90224 0.06837 0.0
H2358 H 0.28151 0.9605 0.10899 0.0
H2359 H 0.28836 0.94515 0.10592 0.0
H2360 H 0.27595 0.94425 0.12898 0.0
H2361 H 0.24796 0.93799 0.03705 0.0
H2362 H 0.23166 0.91523 0.03556 0.0
H2363 H 0.25411 0.9221 0.03388 0.0
C2364 C 0.33556 0.03491 0.95998 0.0
C2365 C 0.345 0.0389 0.9789 0.0
C2366 C 0.33449 0.04776 0.94887 0.0
C2367 C 0.34279 0.06497 0.95711 0.0
C2368 C 0.35252 0.06913 0.97608 0.0
C2369 C 0.35365 0.05606 0.98665 0.0
C2370 C 0.32426 0.04286 0.92849 0.0
C2371 C 0.36132 0.08725 0.98554 0.0
C2372 C 0.35006 0.10104 0.91964 0.0
C2373 C 0.3357 0.10254 0.92398 0.0
C2374 C 0.35265 0.08898 0.93044 0.0
C2375 C 0.34073 0.07841 0.94619 0.0
C2376 C 0.32643 0.0802 0.95098 0.0
C2377 C 0.324 0.09214 0.93967 0.0
C2378 C 0.36788 0.08725 0.92461 0.0
C2379 C 0.31357 0.06937 0.96789 0.0
H2380 H 0.32894 0.02168 0.95384 0.0
H2381 H 0.36089 0.05917 0.00133 0.0
H2382 H 0.31309 0.04461 0.93053 0.0
H2383 H 0.33228 0.05151 0.91546 0.0
H2384 H 0.31946 0.02917 0.92356 0.0
H2385 H 0.36877 0.08849 1.00006 0.0
H2386 H 0.37013 0.09678 0.97371 0.0
H2387 H 0.35158 0.09079 0.98972 0.0
H2388 H 0.35904 0.10898 0.90737 0.0
H2389 H 0.31298 0.09342 0.94318 0.0
H2390 H 0.36334 0.07393 0.9184 0.0
H2391 H 0.37576 0.08918 0.93893 0.0
H2392 H 0.37618 0.09673 0.91239 0.0
H2393 H 0.307 0.05542 0.96326 0.0
H2394 H 0.30369 0.073 0.97049 0.0
H2395 H 0.32026 0.07088 0.98317 0.0
C2396 C 0.98266 0.29427 0.96689 0.0
C2397 C 0.97732 0.30497 0.9763 0.0
C2398 C 0.97106 0.27927 0.95533 0.0
C2399 C 0.9539 0.27524 0.95266 0.0
C2400 C 0.94867 0.28641 0.96146 0.0
C2401 C 0.96038 0.301 0.97347 0.0
C2402 C 0.97699 0.26745 0.94662 0.0
C2403 C 0.93062 0.28282 0.95847 0.0
C2404 C 0.9263 0.24368 0.90895 0.0
C2405 C 0.91539 0.22886 0.9207 0.0
C2406 C 0.93907 0.25887 0.9191 0.0
C2407 C 0.94117 0.259 0.94142 0.0
C2408 C 0.93051 0.2438 0.95321 0.0
C2409 C 0.91756 0.22896 0.94271 0.0
C2410 C 0.9499 0.27493 0.90609 0.0
C2411 C 0.93261 0.24331 0.97694 0.0
H2412 H 0.99575 0.29729 0.96921 0.0
H2413 H 0.95627 0.30934 0.9806 0.0
H2414 H 0.96948 0.25451 0.95409 0.0
H2415 H 0.97462 0.26546 0.92924 0.0
H2416 H 0.99086 0.27268 0.94959 0.0
H2417 H 0.92901 0.29349 0.96495 0.0
H2418 H 0.92727 0.28101 0.94131 0.0
H2419 H 0.92134 0.27061 0.96655 0.0
H2420 H 0.92445 0.24353 0.89191 0.0
H2421 H 0.9091 0.21739 0.95168 0.0
H2422 H 0.96374 0.27978 0.90849 0.0
H2423 H 0.94759 0.28541 0.91146 0.0
H2424 H 0.947 0.27251 0.88881 0.0
H2425 H 0.94616 0.24766 0.98081 0.0
H2426 H 0.92418 0.23011 0.98345 0.0
H2427 H 0.92946 0.25238 0.9851 0.0
C2428 C 0.69444 0.66296 0.95597 0.0
C2429 C 0.69169 0.65678 0.9768 0.0
C2430 C 0.70783 0.66392 0.94357 0.0
C2431 C 0.71906 0.65916 0.95255 0.0
C2432 C 0.71623 0.65278 0.97357 0.0
C2433 C 0.70237 0.6514 0.98535 0.0
C2434 C 0.71009 0.67025 0.92099 0.0
C2435 C 0.72821 0.64805 0.9839 0.0
C2436 C 0.74752 0.65001 0.91673 0.0
C2437 C 0.76299 0.66615 0.91687 0.0
C2438 C 0.73304 0.64762 0.92797 0.0
C2439 C 0.73416 0.66152 0.94023 0.0
C2440 C 0.74973 0.67776 0.94071 0.0
C2441 C 0.76382 0.67996 0.92875 0.0
C2442 C 0.71652 0.63023 0.92668 0.0
C2443 C 0.75153 0.69281 0.95393 0.0
H2444 H 0.68607 0.66699 0.94933 0.0
H2445 H 0.7003 0.64677 0.00155 0.0
H2446 H 0.72236 0.68281 0.91953 0.0
H2447 H 0.71079 0.66086 0.90994 0.0
H2448 H 0.69944 0.67207 0.91586 0.0
H2449 H 0.72404 0.643 1.00023 0.0
H2450 H 0.72902 0.63808 0.97418 0.0
H2451 H 0.74135 0.65967 0.98476 0.0
H2452 H 0.74672 0.63911 0.90802 0.0
H2453 H 0.77549 0.69261 0.92867 0.0
H2454 H 0.70591 0.63197 0.92123 0.0
H2455 H 0.71297 0.62434 0.94266 0.0
H2456 H 0.71753 0.62101 0.91563 0.0
H2457 H 0.74249 0.6967 0.94813 0.0
H2458 H 0.76477 0.70431 0.95342 0.0
H2459 H 0.74814 0.68885 0.97074 0.0
C2460 C 0.96106 0.66087 0.96044 0.0
C2461 C 0.95887 0.65558 0.98164 0.0
C2462 C 0.94775 0.66082 0.94923 0.0
C2463 C 0.93207 0.65594 0.95974 0.0
C2464 C 0.92971 0.65036 0.98113 0.0
C2465 C 0.94309 0.64997 0.99175 0.0
C2466 C 0.95062 0.66634 0.92626 0.0
C2467 C 0.91338 0.64555 0.99306 0.0
C2468 C 0.90779 0.67584 0.93634 0.0
C2469 C 0.89467 0.66183 0.92473 0.0
C2470 C 0.91954 0.67386 0.94852 0.0
C2471 C 0.9186 0.65763 0.94859 0.0
C2472 C 0.90545 0.64341 0.93701 0.0
C2473 C 0.8935 0.6456 0.92551 0.0
C2474 C 0.93319 0.68928 0.96099 0.0
C2475 C 0.90428 0.62601 0.93628 0.0
H2476 H 0.97324 0.66507 0.95258 0.0
H2477 H 0.94148 0.646 0.00822 0.0
H2478 H 0.93991 0.65648 0.91625 0.0
H2479 H 0.95083 0.67874 0.92474 0.0
H2480 H 0.9629 0.66818 0.91989 0.0
H2481 H 0.91324 0.64072 0.00927 0.0
H2482 H 0.91198 0.6571 0.99453 0.0
H2483 H 0.90205 0.63542 0.98417 0.0
H2484 H 0.90919 0.68855 0.93561 0.0
H2485 H 0.88327 0.63455 0.91707 0.0
H2486 H 0.94602 0.69355 0.95404 0.0
H2487 H 0.9334 0.68561 0.97771 0.0
H2488 H 0.93112 0.70045 0.96098 0.0
H2489 H 0.91619 0.62749 0.92916 0.0
H2490 H 0.89311 0.61616 0.92683 0.0
H2491 H 0.90323 0.62107 0.95262 0.0
C2492 C 0.34392 0.29699 0.98224 0.0
C2493 C 0.33609 0.30652 0.97743 0.0
C2494 C 0.34148 0.28309 0.96924 0.0
C2495 C 0.33116 0.27875 0.95081 0.0
C2496 C 0.32338 0.28846 0.94568 0.0
C2497 C 0.32585 0.30219 0.95918 0.0
C2498 C 0.34984 0.27292 0.97538 0.0
C2499 C 0.31249 0.28434 0.92598 0.0
C2500 C 0.33892 0.25204 0.90989 0.0
C2501 C 0.3255 0.23519 0.9144 0.0
C2502 C 0.34047 0.26647 0.92096 0.0
C2503 C 0.32845 0.26391 0.93713 0.0
C2504 C 0.31461 0.24695 0.94134 0.0
C2505 C 0.31324 0.23278 0.92981 0.0
C2506 C 0.35524 0.28438 0.9158 0.0
C2507 C 0.30166 0.24368 0.95863 0.0
H2508 H 0.35181 0.30026 0.99638 0.0
H2509 H 0.31984 0.30959 0.95537 0.0
H2510 H 0.33987 0.25904 0.97747 0.0
H2511 H 0.35855 0.27352 0.9625 0.0
H2512 H 0.35735 0.27789 0.99034 0.0
H2513 H 0.30772 0.29342 0.92397 0.0
H2514 H 0.32004 0.28498 0.91168 0.0
H2515 H 0.30129 0.2709 0.92676 0.0
H2516 H 0.34828 0.2539 0.89777 0.0
H2517 H 0.30292 0.21973 0.93338 0.0
H2518 H 0.36421 0.28968 0.92949 0.0
H2519 H 0.35045 0.29334 0.91302 0.0
H2520 H 0.36252 0.28431 0.90153 0.0
H2521 H 0.30817 0.24719 0.97433 0.0
H2522 H 0.29106 0.22989 0.95899 0.0
H2523 H 0.29606 0.25199 0.95638 0.0
C2524 C 0.70806 0.02706 0.97075 0.0
C2525 C 0.69722 0.032 0.9804 0.0
C2526 C 0.72268 0.03908 0.95938 0.0
C2527 C 0.72621 0.05628 0.95708 0.0
C2528 C 0.715 0.06118 0.96631 0.0
C2529 C 0.70076 0.04904 0.97817 0.0
C2530 C 0.73455 0.03347 0.95024 0.0
C2531 C 0.71804 0.07925 0.96368 0.0
C2532 C 0.77189 0.09241 0.94536 0.0
C2533 C 0.77147 0.09364 0.92324 0.0
C2534 C 0.75729 0.08015 0.95656 0.0
C2535 C 0.74181 0.06924 0.94536 0.0
C2536 C 0.74129 0.07064 0.923 0.0
C2537 C 0.75623 0.08269 0.91216 0.0
C2538 C 0.75848 0.07875 0.98031 0.0
C2539 C 0.72494 0.05954 0.91058 0.0
H2540 H 0.70538 0.01391 0.9726 0.0
H2541 H 0.69229 0.05282 0.98548 0.0
H2542 H 0.73564 0.03525 0.93277 0.0
H2543 H 0.74763 0.04173 0.95699 0.0
H2544 H 0.73006 0.01966 0.95361 0.0
H2545 H 0.7076 0.08069 0.97086 0.0
H2546 H 0.73038 0.08891 0.97126 0.0
H2547 H 0.71907 0.08242 0.94654 0.0
H2548 H 0.78376 0.10086 0.95384 0.0
H2549 H 0.75595 0.0838 0.89503 0.0
H2550 H 0.75487 0.06531 0.98439 0.0
H2551 H 0.74929 0.08154 0.98859 0.0
H2552 H 0.77159 0.08787 0.98652 0.0
H2553 H 0.72062 0.0456 0.91235 0.0
H2554 H 0.72656 0.06263 0.89337 0.0
H2555 H 0.71457 0.06143 0.91699 0.0
C2556 C 0.66712 0.96863 0.05994 0.0
C2557 C 0.65785 0.96483 0.04091 0.0
C2558 C 0.66826 0.95574 0.0708 0.0
C2559 C 0.66022 0.93867 0.06219 0.0
C2560 C 0.65065 0.93467 0.04309 0.0
C2561 C 0.64942 0.94779 0.03277 0.0
C2562 C 0.67831 0.96046 0.09132 0.0
C2563 C 0.64213 0.91669 0.03325 0.0
C2564 C 0.67974 0.9122 0.07969 0.0
C2565 C 0.66809 0.90164 0.09532 0.0
C2566 C 0.677 0.92388 0.06826 0.0
C2567 C 0.66242 0.92524 0.07288 0.0
C2568 C 0.65052 0.91446 0.08852 0.0
C2569 C 0.65342 0.90267 0.09943 0.0
C2570 C 0.68986 0.93495 0.05148 0.0
C2571 C 0.63501 0.91575 0.09418 0.0
H2572 H 0.67355 0.98177 0.06639 0.0
H2573 H 0.64232 0.94483 0.018 0.0
H2574 H 0.67024 0.95158 0.10414 0.0
H2575 H 0.68961 0.95892 0.0893 0.0
H2576 H 0.6829 0.97405 0.09654 0.0
H2577 H 0.63472 0.91555 0.01872 0.0
H2578 H 0.65204 0.91341 0.02898 0.0
H2579 H 0.63333 0.90692 0.04487 0.0
H2580 H 0.69098 0.91127 0.07635 0.0
H2581 H 0.64447 0.89458 0.11164 0.0
H2582 H 0.69629 0.94884 0.05632 0.0
H2583 H 0.6832 0.93351 0.03619 0.0
H2584 H 0.69986 0.93148 0.04882 0.0
H2585 H 0.63924 0.92891 0.10071 0.0
H2586 H 0.62664 0.90598 0.1061 0.0
H2587 H 0.62729 0.91394 0.07973 0.0
C2588 C 0.02267 0.70327 0.06015 0.0
C2589 C 0.0273 0.69914 0.04057 0.0
C2590 C 0.03472 0.71759 0.07234 0.0
C2591 C 0.05168 0.72814 0.06458 0.0
C2592 C 0.05637 0.72405 0.04476 0.0
C2593 C 0.04415 0.70951 0.03308 0.0
C2594 C 0.02934 0.72139 0.09357 0.0
C2595 C 0.07427 0.73509 0.03584 0.0
C2596 C 0.0792 0.77437 0.08564 0.0
C2597 C 0.09038 0.77276 0.09932 0.0
C2598 C 0.0664 0.7599 0.07437 0.0
C2599 C 0.06461 0.74342 0.07717 0.0
C2600 C 0.0756 0.74166 0.09141 0.0
C2601 C 0.08846 0.7564 0.1022 0.0
C2602 C 0.05508 0.76233 0.05909 0.0
C2603 C 0.07391 0.72426 0.09509 0.0
H2604 H 0.00967 0.69522 0.06604 0.0
H2605 H 0.04777 0.7064 0.01791 0.0
H2606 H 0.03765 0.72133 0.10636 0.0
H2607 H 0.03102 0.73454 0.09354 0.0
H2608 H 0.01573 0.71179 0.09746 0.0
H2609 H 0.07575 0.73033 0.02 0.0
H2610 H 0.0774 0.74872 0.0343 0.0
H2611 H 0.08381 0.73522 0.04687 0.0
H2612 H 0.08077 0.78706 0.08333 0.0
H2613 H 0.097 0.75513 0.11299 0.0
H2614 H 0.04136 0.75358 0.06325 0.0
H2615 H 0.05694 0.75878 0.04272 0.0
H2616 H 0.05787 0.77592 0.05911 0.0
H2617 H 0.06057 0.71462 0.09995 0.0
H2618 H 0.08288 0.72496 0.10752 0.0
H2619 H 0.07655 0.71937 0.08009 0.0
C2620 C 0.30773 0.35751 0.04572 0.0
C2621 C 0.31021 0.34334 0.04471 0.0
C2622 C 0.29397 0.35657 0.05733 0.0
C2623 C 0.28233 0.34101 0.06788 0.0
C2624 C 0.28481 0.32668 0.06692 0.0
C2625 C 0.29879 0.32807 0.05548 0.0
C2626 C 0.29185 0.37219 0.05825 0.0
C2627 C 0.27256 0.30979 0.07774 0.0
C2628 C 0.25421 0.34124 0.11284 0.0
C2629 C 0.23849 0.33528 0.10243 0.0
C2630 C 0.26869 0.34352 0.1017 0.0
C2631 C 0.26737 0.33953 0.07968 0.0
C2632 C 0.25157 0.33355 0.06905 0.0
C2633 C 0.23736 0.33161 0.08052 0.0
C2634 C 0.28535 0.35001 0.11356 0.0
C2635 C 0.24962 0.32902 0.0456 0.0
H2636 H 0.31656 0.36936 0.03749 0.0
H2637 H 0.30058 0.31703 0.05467 0.0
H2638 H 0.27937 0.36885 0.0511 0.0
H2639 H 0.29168 0.37607 0.07505 0.0
H2640 H 0.3023 0.38348 0.04971 0.0
H2641 H 0.27635 0.2999 0.07552 0.0
H2642 H 0.272 0.31209 0.09504 0.0
H2643 H 0.25941 0.30443 0.07131 0.0
H2644 H 0.25516 0.34388 0.12981 0.0
H2645 H 0.22538 0.3273 0.07225 0.0
H2646 H 0.29585 0.3617 0.10571 0.0
H2647 H 0.28898 0.33994 0.11314 0.0
H2648 H 0.28448 0.35334 0.13044 0.0
H2649 H 0.259 0.34045 0.03632 0.0
H2650 H 0.23649 0.32464 0.03968 0.0
H2651 H 0.25245 0.31853 0.04247 0.0
C2652 C 0.72418 0.68638 0.36549 0.0
C2653 C 0.708 0.68108 0.37425 0.0
C2654 C 0.73651 0.68482 0.37697 0.0
C2655 C 0.73276 0.6784 0.39799 0.0
C2656 C 0.71664 0.67365 0.40717 0.0
C2657 C 0.70431 0.67473 0.39502 0.0
C2658 C 0.75332 0.68947 0.36636 0.0
C2659 C 0.71236 0.66734 0.42977 0.0
C2660 C 0.75659 0.65799 0.4216 0.0
C2661 C 0.76981 0.67195 0.43317 0.0
C2662 C 0.74469 0.66001 0.40979 0.0
C2663 C 0.74552 0.6762 0.41015 0.0
C2664 C 0.75854 0.69025 0.42208 0.0
C2665 C 0.7707 0.68806 0.43306 0.0
C2666 C 0.73124 0.64481 0.39684 0.0
C2667 C 0.75958 0.70759 0.42332 0.0
H2668 H 0.72694 0.69112 0.34933 0.0
H2669 H 0.69181 0.67073 0.40182 0.0
H2670 H 0.76425 0.69963 0.37578 0.0
H2671 H 0.75473 0.6779 0.36568 0.0
H2672 H 0.75424 0.69426 0.34993 0.0
H2673 H 0.6998 0.66544 0.43505 0.0
H2674 H 0.71193 0.65482 0.43119 0.0
H2675 H 0.72252 0.67679 0.44073 0.0
H2676 H 0.75538 0.64535 0.42184 0.0
H2677 H 0.78098 0.69912 0.44144 0.0
H2678 H 0.73178 0.64866 0.38003 0.0
H2679 H 0.71824 0.64082 0.40295 0.0
H2680 H 0.73294 0.63342 0.39726 0.0
H2681 H 0.76208 0.7134 0.4073 0.0
H2682 H 0.76989 0.7169 0.43425 0.0
H2683 H 0.74713 0.70579 0.42889 0.0
C2684 C 0.35416 0.04344 0.38485 0.0
C2685 C 0.33732 0.03155 0.37833 0.0
C2686 C 0.35803 0.05875 0.39592 0.0
C2687 C 0.34463 0.06186 0.40116 0.0
C2688 C 0.3275 0.0495 0.39531 0.0
C2689 C 0.3241 0.03464 0.38363 0.0
C2690 C 0.3765 0.07185 0.40138 0.0
C2691 C 0.31277 0.05208 0.40116 0.0
C2692 C 0.35101 0.09471 0.44437 0.0
C2693 C 0.35269 0.10847 0.43227 0.0
C2694 C 0.3487 0.07953 0.43447 0.0
C2695 C 0.34848 0.07833 0.41197 0.0
C2696 C 0.35089 0.09253 0.39972 0.0
C2697 C 0.35274 0.10736 0.41004 0.0
C2698 C 0.34577 0.06452 0.44807 0.0
C2699 C 0.35111 0.0919 0.37571 0.0
H2700 H 0.3644 0.04107 0.38059 0.0
H2701 H 0.31105 0.02536 0.37876 0.0
H2702 H 0.38055 0.08423 0.39316 0.0
H2703 H 0.37785 0.07472 0.41871 0.0
H2704 H 0.38536 0.06726 0.39667 0.0
H2705 H 0.30009 0.04061 0.39688 0.0
H2706 H 0.3129 0.05466 0.4185 0.0
H2707 H 0.3142 0.06357 0.39284 0.0
H2708 H 0.35082 0.09559 0.46159 0.0
H2709 H 0.35413 0.1181 0.40076 0.0
H2710 H 0.35496 0.06032 0.44368 0.0
H2711 H 0.33264 0.05327 0.44519 0.0
H2712 H 0.34717 0.06786 0.46531 0.0
H2713 H 0.36035 0.08808 0.37007 0.0
H2714 H 0.35466 0.10458 0.36862 0.0
H2715 H 0.33822 0.08193 0.36971 0.0
C2716 C 0.97007 0.29201 0.37771 0.0
C2717 C 0.97356 0.30898 0.37492 0.0
C2718 C 0.95554 0.27985 0.38907 0.0
C2719 C 0.94396 0.28466 0.39728 0.0
C2720 C 0.94748 0.30182 0.39458 0.0
C2721 C 0.9624 0.31387 0.38367 0.0
C2722 C 0.9525 0.26182 0.39213 0.0
C2723 C 0.93525 0.30732 0.40268 0.0
C2724 C 0.89825 0.24756 0.40637 0.0
C2725 C 0.89791 0.24588 0.42849 0.0
C2726 C 0.91305 0.26044 0.39606 0.0
C2727 C 0.92795 0.27154 0.40816 0.0
C2728 C 0.92766 0.26979 0.43054 0.0
C2729 C 0.91254 0.2571 0.44047 0.0
C2730 C 0.91273 0.26215 0.37224 0.0
C2731 C 0.9434 0.28108 0.44391 0.0
H2732 H 0.97876 0.28823 0.37109 0.0
H2733 H 0.96504 0.32697 0.38141 0.0
H2734 H 0.95071 0.25856 0.40927 0.0
H2735 H 0.94057 0.25214 0.3838 0.0
H2736 H 0.96331 0.26052 0.38596 0.0
H2737 H 0.93993 0.32119 0.39946 0.0
H2738 H 0.92251 0.2992 0.39501 0.0
H2739 H 0.93331 0.30523 0.42007 0.0
H2740 H 0.88686 0.23891 0.39719 0.0
H2741 H 0.91223 0.25565 0.45759 0.0
H2742 H 0.92219 0.25943 0.3646 0.0
H2743 H 0.91652 0.27565 0.3682 0.0
H2744 H 0.89985 0.25312 0.36534 0.0
H2745 H 0.95408 0.27925 0.43864 0.0
H2746 H 0.94103 0.27806 0.46111 0.0
H2747 H 0.94773 0.29498 0.44177 0.0
C2748 C 0.02338 0.3921 0.31959 0.0
C2749 C 0.01428 0.3748 0.31237 0.0
C2750 C 0.02288 0.40525 0.30833 0.0
C2751 C 0.01335 0.40102 0.28919 0.0
C2752 C 0.00454 0.38363 0.28154 0.0
C2753 C 0.00497 0.37071 0.29333 0.0
C2754 C 0.03223 0.42358 0.31717 0.0
C2755 C 0.9945 0.37863 0.261 0.0
C2756 C 0.99685 0.42968 0.26969 0.0
C2757 C 0.00904 0.43955 0.25415 0.0
C2758 C 0.99832 0.41737 0.28153 0.0
C2759 C 0.01213 0.41463 0.27742 0.0
C2760 C 0.02449 0.42458 0.26172 0.0
C2761 C 0.02287 0.43705 0.25041 0.0
C2762 C 0.98505 0.40725 0.29837 0.0
C2763 C 0.03921 0.42183 0.25661 0.0
H2764 H 0.03053 0.39531 0.33436 0.0
H2765 H 0.99802 0.35737 0.28759 0.0
H2766 H 0.0415 0.43261 0.30528 0.0
H2767 H 0.0229 0.42783 0.32053 0.0
H2768 H 0.03929 0.4248 0.33206 0.0
H2769 H 0.98912 0.36473 0.25668 0.0
H2770 H 0.98375 0.38111 0.26242 0.0
H2771 H 0.00287 0.38673 0.24782 0.0
H2772 H 0.98625 0.43174 0.27274 0.0
H2773 H 0.03223 0.44458 0.23826 0.0
H2774 H 0.99143 0.40884 0.31392 0.0
H2775 H 0.97808 0.39319 0.29423 0.0
H2776 H 0.97552 0.41145 0.30023 0.0
H2777 H 0.04693 0.42386 0.27111 0.0
H2778 H 0.04781 0.43074 0.2441 0.0
H2779 H 0.03413 0.40824 0.2511 0.0
C2780 C 0.65147 0.6297 0.3001 0.0
C2781 C 0.64602 0.64082 0.3078 0.0
C2782 C 0.64008 0.61426 0.28911 0.0
C2783 C 0.62302 0.61017 0.28529 0.0
C2784 C 0.61771 0.62175 0.2923 0.0
C2785 C 0.6292 0.63682 0.30374 0.0
C2786 C 0.64609 0.60205 0.28229 0.0
C2787 C 0.59977 0.61808 0.28805 0.0
C2788 C 0.59608 0.57662 0.24288 0.0
C2789 C 0.58489 0.56239 0.25534 0.0
C2790 C 0.60875 0.59224 0.25237 0.0
C2791 C 0.61045 0.59343 0.27481 0.0
C2792 C 0.59952 0.57883 0.28738 0.0
C2793 C 0.5867 0.56353 0.27748 0.0
C2794 C 0.61987 0.60764 0.23848 0.0
C2795 C 0.60116 0.57946 0.3113 0.0
H2796 H 0.66445 0.63275 0.30335 0.0
H2797 H 0.62501 0.64548 0.30954 0.0
H2798 H 0.63843 0.58951 0.29061 0.0
H2799 H 0.64401 0.59923 0.26498 0.0
H2800 H 0.65991 0.60741 0.28585 0.0
H2801 H 0.59811 0.62904 0.29311 0.0
H2802 H 0.59677 0.61547 0.27084 0.0
H2803 H 0.59027 0.60628 0.29669 0.0
H2804 H 0.5945 0.57572 0.22574 0.0
H2805 H 0.57803 0.55244 0.28704 0.0
H2806 H 0.63366 0.61264 0.24164 0.0
H2807 H 0.61746 0.61831 0.24232 0.0
H2808 H 0.61736 0.60437 0.22126 0.0
H2809 H 0.61461 0.58398 0.31588 0.0
H2810 H 0.59257 0.5666 0.31858 0.0
H2811 H 0.59791 0.58891 0.3181 0.0
C2812 C 0.36354 0.99692 0.29526 0.0
C2813 C 0.3574 0.98745 0.31407 0.0
C2814 C 0.37643 0.99654 0.28318 0.0
C2815 C 0.38354 0.98668 0.29029 0.0
C2816 C 0.37723 0.97691 0.30914 0.0
C2817 C 0.36412 0.97729 0.32072 0.0
C2818 C 0.38261 0.0069 0.26299 0.0
C2819 C 0.38466 0.96643 0.31738 0.0
C2820 C 0.40872 0.97568 0.25091 0.0
C2821 C 0.42564 0.98893 0.25523 0.0
C2822 C 0.39485 0.97474 0.26223 0.0
C2823 C 0.39806 0.98718 0.27845 0.0
C2824 C 0.41516 1.0004 0.28311 0.0
C2825 C 0.42874 0.00118 0.27133 0.0
C2826 C 0.37678 0.96063 0.25659 0.0
C2827 C 0.41913 0.01375 0.30049 0.0
H2828 H 0.3583 0.00469 0.28998 0.0
H2829 H 0.35945 0.96999 0.3353 0.0
H2830 H 0.39631 0.01726 0.26469 0.0
H2831 H 0.38179 0.9984 0.24947 0.0
H2832 H 0.37505 0.01305 0.259 0.0
H2833 H 0.37799 0.95915 0.33194 0.0
H2834 H 0.38377 0.95705 0.30501 0.0
H2835 H 0.39849 0.9752 0.32108 0.0
H2836 H 0.40632 0.96629 0.23834 0.0
H2837 H 0.44185 0.01132 0.27482 0.0
H2838 H 0.3693 0.96655 0.25135 0.0
H2839 H 0.3702 0.95275 0.27079 0.0
H2840 H 0.37649 0.95185 0.24372 0.0
H2841 H 0.41312 0.02147 0.29671 0.0
H2842 H 0.43316 0.02279 0.30262 0.0
H2843 H 0.41359 0.00718 0.3158 0.0
C2844 C 0.63039 0.99575 0.29419 0.0
C2845 C 0.6267 0.98633 0.31304 0.0
C2846 C 0.6173 0.99568 0.28238 0.0
C2847 C 0.60014 0.98623 0.28983 0.0
C2848 C 0.59631 0.97656 0.30877 0.0
C2849 C 0.60963 0.97658 0.32004 0.0
C2850 C 0.62187 0.00588 0.26205 0.0
C2851 C 0.57822 0.96655 0.3174 0.0
C2852 C 0.57047 0.00152 0.27098 0.0
C2853 C 0.5609 0.98913 0.25519 0.0
C2854 C 0.58305 1.00052 0.28265 0.0
C2855 C 0.58633 0.98697 0.27815 0.0
C2856 C 0.57669 0.97442 0.26219 0.0
C2857 C 0.56397 0.97557 0.25102 0.0
C2858 C 0.59286 0.014 0.29976 0.0
C2859 C 0.58002 0.95998 0.25666 0.0
H2860 H 0.64356 0.0032 0.28862 0.0
H2861 H 0.60674 0.96934 0.33466 0.0
H2862 H 0.61395 0.99734 0.24871 0.0
H2863 H 0.619 0.01646 0.26374 0.0
H2864 H 0.63566 0.01172 0.25782 0.0
H2865 H 0.57732 0.95941 0.33209 0.0
H2866 H 0.57361 0.97561 0.32102 0.0
H2867 H 0.56943 0.95709 0.30529 0.0
H2868 H 0.56798 0.01191 0.27436 0.0
H2869 H 0.55666 0.96606 0.23867 0.0
H2870 H 0.60673 0.02143 0.29572 0.0
H2871 H 0.59157 0.00755 0.31516 0.0
H2872 H 0.5883 0.02328 0.30186 0.0
H2873 H 0.5935 0.96557 0.25125 0.0
H2874 H 0.57131 0.95119 0.24395 0.0
H2875 H 0.57834 0.95217 0.27096 0.0
C2876 C 0.0134 0.63237 0.31847 0.0
C2877 C 0.00543 0.64153 0.31256 0.0
C2878 C 0.01211 0.61882 0.3057 0.0
C2879 C 0.00285 0.6145 0.28636 0.0
C2880 C 0.99489 0.62381 0.28019 0.0
C2881 C 0.99617 0.63717 0.29348 0.0
C2882 C 0.02061 0.60906 0.31297 0.0
C2883 C 0.98513 0.61972 0.25952 0.0
C2884 C 0.01407 0.58968 0.2465 0.0
C2885 C 1.00067 0.57256 0.24968 0.0
C2886 C 0.01458 0.60357 0.25774 0.0
C2887 C 1.00153 0.60017 0.27276 0.0
C2888 C 0.9878 0.58292 0.27575 0.0
C2889 C 0.98748 0.56932 0.26404 0.0
C2890 C 0.02928 0.62182 0.25389 0.0
C2891 C 0.97379 0.57877 0.29184 0.0
H2892 H 0.02052 0.63566 0.33326 0.0
H2893 H 0.99007 0.6443 0.28882 0.0
H2894 H 0.01089 0.59502 0.31426 0.0
H2895 H 0.03028 0.61033 0.30108 0.0
H2896 H 0.02708 0.61386 0.32861 0.0
H2897 H 0.97992 0.62835 0.25687 0.0
H2898 H 0.99367 0.62109 0.24601 0.0
H2899 H 0.97431 0.60604 0.2594 0.0
H2900 H 0.02415 0.59219 0.23518 0.0
H2901 H 0.97717 0.55605 0.26658 0.0
H2902 H 0.03724 0.62703 0.26846 0.0
H2903 H 0.02427 0.63047 0.2503 0.0
H2904 H 0.03765 0.62238 0.24054 0.0
H2905 H 0.97941 0.58223 0.30806 0.0
H2906 H 0.96361 0.56479 0.29152 0.0
H2907 H 0.96778 0.58661 0.28883 0.0
C2908 C 0.37533 0.359 0.30153 0.0
C2909 C 0.36484 0.36456 0.31077 0.0
C2910 C 0.39008 0.37053 0.28997 0.0
C2911 C 0.3941 0.38785 0.28713 0.0
C2912 C 0.38311 0.39329 0.29571 0.0
C2913 C 0.36875 0.38164 0.30771 0.0
C2914 C 0.40168 0.36436 0.28147 0.0
C2915 C 0.38669 0.41149 0.29251 0.0
C2916 C 0.44022 0.42372 0.2774 0.0
C2917 C 0.44042 0.42537 0.25529 0.0
C2918 C 0.42531 0.41124 0.2879 0.0
C2919 C 0.41017 0.40053 0.276 0.0
C2920 C 0.41033 0.40223 0.25363 0.0
C2921 C 0.42556 0.41451 0.24349 0.0
C2922 C 0.42576 0.40956 0.31171 0.0
C2923 C 0.39435 0.39135 0.24048 0.0
H2924 H 0.37235 0.3458 0.304 0.0
H2925 H 0.36056 0.38591 0.31469 0.0
H2926 H 0.40352 0.36648 0.26408 0.0
H2927 H 0.41454 0.37203 0.28899 0.0
H2928 H 0.3965 0.35037 0.28457 0.0
H2929 H 0.37617 0.41323 0.29876 0.0
H2930 H 0.39879 0.42098 0.3007 0.0
H2931 H 0.38845 0.41466 0.27534 0.0
H2932 H 0.4518 0.43209 0.28644 0.0
H2933 H 0.42578 0.41595 0.22638 0.0
H2934 H 0.42153 0.39595 0.31579 0.0
H2935 H 0.4167 0.41277 0.3195 0.0
H2936 H 0.43879 0.41825 0.31844 0.0
H2937 H 0.38952 0.37734 0.24269 0.0
H2938 H 0.39665 0.39425 0.22325 0.0
H2939 H 0.38405 0.39373 0.2459 0.0
C2940 C 0.31256 0.28493 0.37937 0.0
C2941 C 0.32743 0.30103 0.37559 0.0
C2942 C 0.31337 0.27198 0.39067 0.0
C2943 C 0.32949 0.27507 0.39782 0.0
C2944 C 0.34455 0.29125 0.39379 0.0
C2945 C 0.34329 0.30409 0.38298 0.0
C2946 C 0.297 0.25504 0.39511 0.0
C2947 C 0.36203 0.29494 0.4007 0.0
C2948 C 0.33346 0.24964 0.44287 0.0
C2949 C 0.33588 0.23743 0.4317 0.0
C2950 C 0.33068 0.26153 0.43204 0.0
C2951 C 0.33076 0.26147 0.4095 0.0
C2952 C 0.33306 0.24904 0.39816 0.0
C2953 C 0.3354 0.23703 0.40943 0.0
C2954 C 0.32792 0.27434 0.4447 0.0
C2955 C 0.33363 0.2488 0.37415 0.0
H2956 H 0.30026 0.28257 0.37375 0.0
H2957 H 0.35485 0.31647 0.37992 0.0
H2958 H 0.29763 0.24409 0.38771 0.0
H2959 H 0.29547 0.25278 0.4125 0.0
H2960 H 0.28546 0.25484 0.38895 0.0
H2961 H 0.37252 0.308 0.39579 0.0
H2962 H 0.3624 0.29412 0.41826 0.0
H2963 H 0.36456 0.28502 0.39378 0.0
H2964 H 0.33368 0.24981 0.46012 0.0
H2965 H 0.33739 0.22763 0.40082 0.0
H2966 H 0.31604 0.2738 0.43932 0.0
H2967 H 0.33878 0.28773 0.44199 0.0
H2968 H 0.32689 0.27179 0.46205 0.0
H2969 H 0.32175 0.24756 0.36752 0.0
H2970 H 0.33502 0.23799 0.36774 0.0
H2971 H 0.3446 0.26126 0.36845 0.0
C2972 C 0.68616 0.0345 0.39465 0.0
C2973 C 0.69145 0.02984 0.37597 0.0
C2974 C 0.69773 0.04939 0.40645 0.0
C2975 C 0.71484 0.05996 0.39912 0.0
C2976 C 0.72013 0.05539 0.38012 0.0
C2977 C 0.70842 0.04031 0.3689 0.0
C2978 C 0.69175 0.05372 0.42684 0.0
C2979 C 0.73818 0.06643 0.3716 0.0
C2980 C 0.74251 0.10707 0.417 0.0
C2981 C 0.75392 0.1061 0.43094 0.0
C2982 C 0.72935 0.09206 0.40695 0.0
C2983 C 0.72742 0.07571 0.41133 0.0
C2984 C 0.73849 0.07462 0.42613 0.0
C2985 C 0.75173 0.08987 0.4356 0.0
C2986 C 0.71799 0.09377 0.391 0.0
C2987 C 0.73667 0.05741 0.4315 0.0
H2988 H 0.67306 0.02638 0.40019 0.0
H2989 H 0.71254 0.03683 0.35439 0.0
H2990 H 0.69971 0.05403 0.44033 0.0
H2991 H 0.69342 0.06683 0.42588 0.0
H2992 H 0.67805 0.04417 0.43036 0.0
H2993 H 0.74006 0.06137 0.35621 0.0
H2994 H 0.74118 0.07995 0.36931 0.0
H2995 H 0.74756 0.06697 0.38325 0.0
H2996 H 0.74427 0.11966 0.41339 0.0
H2997 H 0.76045 0.08913 0.44664 0.0
H2998 H 0.70425 0.08484 0.39494 0.0
H2999 H 0.72023 0.09002 0.37493 0.0
H3000 H 0.72045 0.10723 0.39039 0.0
H3001 H 0.72319 0.04788 0.43595 0.0
H3002 H 0.74523 0.05861 0.44477 0.0
H3003 H 0.73985 0.05206 0.41734 0.0
C3004 C 0.97363 0.69173 0.37738 0.0
C3005 C 0.97628 0.67766 0.37688 0.0
C3006 C 0.95975 0.6908 0.38868 0.0
C3007 C 0.94815 0.67535 0.39946 0.0
C3008 C 0.95074 0.66109 0.39892 0.0
C3009 C 0.96484 0.66246 0.38777 0.0
C3010 C 0.95753 0.70636 0.38914 0.0
C3011 C 0.93854 0.64431 0.40997 0.0
C3012 C 0.92032 0.67628 0.44437 0.0
C3013 C 0.90452 0.67022 0.43408 0.0
C3014 C 0.93471 0.67834 0.43321 0.0
C3015 C 0.93323 0.674 0.41127 0.0
C3016 C 0.91736 0.66789 0.40077 0.0
C3017 C 0.90325 0.66618 0.41225 0.0
C3018 C 0.95144 0.68499 0.44494 0.0
C3019 C 0.91524 0.66297 0.37743 0.0
H3020 H 0.98247 0.70353 0.36906 0.0
H3021 H 0.96676 0.6515 0.38735 0.0
H3022 H 0.94494 0.70281 0.38214 0.0
H3023 H 0.95754 0.71056 0.40584 0.0
H3024 H 0.96783 0.7175 0.38025 0.0
H3025 H 0.94229 0.63439 0.40788 0.0
H3026 H 0.93809 0.64678 0.42725 0.0
H3027 H 0.92534 0.6389 0.40366 0.0
H3028 H 0.9214 0.67917 0.46128 0.0
H3029 H 0.89121 0.66178 0.40406 0.0
H3030 H 0.96189 0.69657 0.43687 0.0
H3031 H 0.95507 0.67492 0.44474 0.0
H3032 H 0.95068 0.68854 0.46176 0.0
H3033 H 0.92453 0.67426 0.36787 0.0
H3034 H 0.90205 0.65847 0.37161 0.0
H3035 H 0.91808 0.65247 0.37457 0.0
C3036 C 0.3737 0.01289 0.72738 0.0
C3037 C 0.37675 0.01859 0.70632 0.0
C3038 C 0.38673 0.01324 0.73964 0.0
C3039 C 0.403 0.01881 0.73031 0.0
C3040 C 0.40615 0.02466 0.70903 0.0
C3041 C 0.39305 0.02477 0.69739 0.0
C3042 C 0.38303 0.00746 0.76248 0.0
C3043 C 0.42312 0.03019 0.69831 0.0
C3044 C 0.44169 0.03125 0.76549 0.0
C3045 C 0.44178 0.01563 0.76606 0.0
C3046 C 0.42902 0.03241 0.75421 0.0
C3047 C 0.41644 0.01781 0.74255 0.0
C3048 C 0.41658 0.00212 0.74272 0.0
C3049 C 0.42899 0.00113 0.75476 0.0
C3050 C 0.42902 0.04924 0.75489 0.0
C3051 C 0.4036 0.98634 0.73014 0.0
H3052 H 0.36112 0.00825 0.73433 0.0
H3053 H 0.39534 0.02904 0.68103 0.0
H3054 H 0.38343 0.99541 0.76438 0.0
H3055 H 0.39304 0.01753 0.77308 0.0
H3056 H 0.37025 0.00492 0.76784 0.0
H3057 H 0.4236 0.03463 0.68178 0.0
H3058 H 0.4338 0.04087 0.70751 0.0
H3059 H 0.42538 0.01915 0.69786 0.0
H3060 H 0.4516 0.04269 0.77371 0.0
H3061 H 0.42852 0.98884 0.75539 0.0
H3062 H 0.41637 0.04683 0.76058 0.0
H3063 H 0.43099 0.05463 0.73867 0.0
H3064 H 0.43921 0.05915 0.76547 0.0
H3065 H 0.39049 0.98173 0.73632 0.0
H3066 H 0.40611 0.97548 0.73088 0.0
H3067 H 0.40379 0.98978 0.71322 0.0
C3068 C 0.98525 0.36299 0.71457 0.0
C3069 C 0.99945 0.3613 0.70996 0.0
C3070 C 0.98694 0.37673 0.72732 0.0
C3071 C 0.00335 0.3894 0.73507 0.0
C3072 C 0.01773 0.38763 0.73071 0.0
C3073 C 0.01556 0.37342 0.71843 0.0
C3074 C 0.9712 0.37787 0.7321 0.0
C3075 C 0.0355 0.4011 0.73832 0.0
C3076 C 0.0083 0.43338 0.74627 0.0
C3077 C 0.00688 0.43328 0.76845 0.0
C3078 C 0.00787 0.41944 0.73528 0.0
C3079 C 0.00549 0.40491 0.74677 0.0
C3080 C 0.00418 0.40484 0.76924 0.0
C3081 C 0.00511 0.41918 0.77986 0.0
C3082 C 0.00967 0.42015 0.71136 0.0
C3083 C 1.0012 0.38941 0.78197 0.0
H3084 H 0.97275 0.35356 0.70818 0.0
H3085 H 0.02657 0.37216 0.71475 0.0
H3086 H 0.97009 0.37944 0.74948 0.0
H3087 H 0.97238 0.38944 0.72433 0.0
H3088 H 0.95919 0.36618 0.72643 0.0
H3089 H 0.0452 0.39746 0.73434 0.0
H3090 H 0.03947 0.41376 0.73089 0.0
H3091 H 0.03547 0.40301 0.75579 0.0
H3092 H 0.00979 0.4444 0.73756 0.0
H3093 H 0.00392 0.41916 0.79704 0.0
H3094 H 0.9975 0.40993 0.70396 0.0
H3095 H 0.01989 0.41752 0.7064 0.0
H3096 H 0.01281 0.43294 0.70503 0.0
H3097 H 0.98869 0.37785 0.77743 0.0
H3098 H 1.00112 0.3917 0.79938 0.0
H3099 H 0.0113 0.38627 0.77837 0.0
C3100 C 0.63362 0.62157 0.71212 0.0
C3101 C 0.63722 0.63853 0.70891 0.0
C3102 C 0.61935 0.60979 0.72416 0.0
C3103 C 0.60813 0.61496 0.73263 0.0
C3104 C 0.61177 0.63213 0.72954 0.0
C3105 C 0.62644 0.64381 0.71795 0.0
C3106 C 0.61619 0.59176 0.72761 0.0
C3107 C 0.5999 0.638 0.73792 0.0
C3108 C 0.56245 0.57845 0.74341 0.0
C3109 C 0.56255 0.57717 0.76555 0.0
C3110 C 0.57709 0.59101 0.73255 0.0
C3111 C 0.59229 0.60218 0.74411 0.0
C3112 C 0.59244 0.60084 0.76652 0.0
C3113 C 0.57746 0.58846 0.77701 0.0
C3114 C 0.5763 0.5923 0.70871 0.0
C3115 C 0.60851 0.6122 0.77933 0.0
H3116 H 0.64203 0.61751 0.70529 0.0
H3117 H 0.62916 0.6569 0.71536 0.0
H3118 H 0.61472 0.58883 0.74484 0.0
H3119 H 0.60404 0.58201 0.71972 0.0
H3120 H 0.62678 0.5902 0.72122 0.0
H3121 H 0.60469 0.65185 0.73441 0.0
H3122 H 0.58698 0.6299 0.73069 0.0
H3123 H 0.59832 0.63621 0.75538 0.0
H3124 H 0.55083 0.56975 0.73464 0.0
H3125 H 0.57749 0.58732 0.79416 0.0
H3126 H 0.58549 0.58929 0.70089 0.0
H3127 H 0.58016 0.60577 0.70437 0.0
H3128 H 0.56325 0.58328 0.70226 0.0
H3129 H 0.61897 0.61011 0.77382 0.0
H3130 H 0.60648 0.60951 0.79663 0.0
H3131 H 0.61295 0.6261 0.77687 0.0
C3132 C 0.66659 0.69841 0.62552 0.0
C3133 C 0.67633 0.70273 0.64423 0.0
C3134 C 0.66543 0.71109 0.61412 0.0
C3135 C 0.67391 0.72844 0.62187 0.0
C3136 C 0.68393 0.73292 0.64063 0.0
C3137 C 0.68517 0.72003 0.65148 0.0
C3138 C 0.65491 0.70584 0.59395 0.0
C3139 C 0.69293 0.75122 0.64958 0.0
C3140 C 0.68111 0.76425 0.58399 0.0
C3141 C 0.66696 0.76606 0.5886 0.0
C3142 C 0.68358 0.75208 0.59471 0.0
C3143 C 0.67178 0.74173 0.61069 0.0
C3144 C 0.65763 0.74375 0.61566 0.0
C3145 C 0.65531 0.75577 0.6044 0.0
C3146 C 0.69861 0.75007 0.58866 0.0
C3147 C 0.64493 0.73318 0.63283 0.0
H3148 H 0.65983 0.68507 0.61979 0.0
H3149 H 0.69263 0.7234 0.66601 0.0
H3150 H 0.64379 0.70767 0.59608 0.0
H3151 H 0.66276 0.71424 0.58066 0.0
H3152 H 0.65001 0.69207 0.58937 0.0
H3153 H 0.70055 0.75268 0.66403 0.0
H3154 H 0.70163 0.7605 0.63747 0.0
H3155 H 0.6833 0.75491 0.65373 0.0
H3156 H 0.69005 0.77211 0.57165 0.0
H3157 H 0.64445 0.75729 0.6081 0.0
H3158 H 0.69388 0.73659 0.58296 0.0
H3159 H 0.70678 0.75234 0.60278 0.0
H3160 H 0.70668 0.7592 0.576 0.0
H3161 H 0.63832 0.71917 0.62853 0.0
H3162 H 0.63506 0.73684 0.63537 0.0
H3163 H 0.65177 0.73494 0.64806 0.0
C3164 C 0.31808 0.96344 0.63425 0.0
C3165 C 0.31252 0.97432 0.64246 0.0
C3166 C 0.30663 0.9479 0.62349 0.0
C3167 C 0.28939 0.94346 0.62042 0.0
C3168 C 0.28392 0.95479 0.62799 0.0
C3169 C 0.2955 0.96996 0.6392 0.0
C3170 C 0.31281 0.93596 0.61607 0.0
C3171 C 0.26577 0.95076 0.62454 0.0
C3172 C 0.26179 0.90991 0.57838 0.0
C3173 C 0.25099 0.89559 0.59096 0.0
C3174 C 0.27458 0.92554 0.58771 0.0
C3175 C 0.2768 0.92667 0.61007 0.0
C3176 C 0.2663 0.91198 0.62272 0.0
C3177 C 0.25335 0.89666 0.61302 0.0
C3178 C 0.28523 0.94103 0.57374 0.0
C3179 C 0.26851 0.91255 0.64656 0.0
H3180 H 0.33123 0.96677 0.63689 0.0
H3181 H 0.29121 0.97844 0.64539 0.0
H3182 H 0.3055 0.92336 0.62437 0.0
H3183 H 0.31041 0.93317 0.59879 0.0
H3184 H 0.32673 0.94154 0.61914 0.0
H3185 H 0.26395 0.96153 0.63003 0.0
H3186 H 0.2624 0.94818 0.60741 0.0
H3187 H 0.25663 0.93886 0.63327 0.0
H3188 H 0.25979 0.90906 0.56132 0.0
H3189 H 0.24498 0.8855 0.62267 0.0
H3190 H 0.29912 0.94625 0.57642 0.0
H3191 H 0.28266 0.95154 0.57797 0.0
H3192 H 0.28241 0.93779 0.55656 0.0
H3193 H 0.28212 0.91731 0.65058 0.0
H3194 H 0.26028 0.89962 0.65385 0.0
H3195 H 0.26517 0.92178 0.65382 0.0
C3196 C 0.03804 0.34314 0.62993 0.0
C3197 C 0.02732 0.32765 0.64074 0.0
C3198 C 0.05236 0.34543 0.61839 0.0
C3199 C 0.05591 0.33182 0.61739 0.0
C3200 C 0.04493 0.31601 0.6279 0.0
C3201 C 0.03083 0.31416 0.63957 0.0
C3202 C 0.06388 0.36255 0.60762 0.0
C3203 C 0.04818 0.30111 0.62696 0.0
C3204 C 0.08498 0.33252 0.57301 0.0
C3205 C 0.10065 0.3388 0.5837 0.0
C3206 C 0.07029 0.33008 0.58378 0.0
C3207 C 0.07133 0.33426 0.60573 0.0
C3208 C 0.08713 0.34079 0.61659 0.0
C3209 C 0.10155 0.34287 0.60549 0.0
C3210 C 0.05365 0.323 0.57169 0.0
C3211 C 0.0888 0.34555 0.63996 0.0
H3212 H 0.03545 0.35365 0.63085 0.0
H3213 H 0.02255 0.30214 0.64783 0.0
H3214 H 0.07705 0.36871 0.61427 0.0
H3215 H 0.06481 0.36039 0.59036 0.0
H3216 H 0.05918 0.37174 0.60965 0.0
H3217 H 0.03806 0.28946 0.63531 0.0
H3218 H 0.04877 0.29749 0.61015 0.0
H3219 H 0.06078 0.30514 0.6343 0.0
H3220 H 0.0842 0.32962 0.55611 0.0
H3221 H 0.11349 0.34746 0.614 0.0
H3222 H 0.04927 0.33248 0.57235 0.0
H3223 H 0.04349 0.3109 0.57919 0.0
H3224 H 0.05492 0.32013 0.55474 0.0
H3225 H 0.08499 0.35534 0.64286 0.0
H3226 H 0.1021 0.35089 0.64592 0.0
H3227 H 0.07999 0.33392 0.64936 0.0
C3228 C 0.28163 0.31013 0.63885 0.0
C3229 C 0.296 0.3252 0.64687 0.0
C3230 C 0.26911 0.31113 0.62697 0.0
C3231 C 0.27075 0.32752 0.6238 0.0
C3232 C 0.28509 0.34271 0.63235 0.0
C3233 C 0.29769 0.34139 0.64345 0.0
C3234 C 0.25429 0.29471 0.61754 0.0
C3235 C 0.28707 0.36037 0.62989 0.0
C3236 C 0.24835 0.33527 0.57827 0.0
C3237 C 0.23392 0.33389 0.58848 0.0
C3238 C 0.26014 0.33263 0.58941 0.0
C3239 C 0.25762 0.32892 0.61141 0.0
C3240 C 0.24299 0.32741 0.62177 0.0
C3241 C 0.2312 0.32973 0.6101 0.0
C3242 C 0.27538 0.33401 0.5777 0.0
C3243 C 0.24006 0.32389 0.64529 0.0
H3244 H 0.28042 0.29763 0.6414 0.0
H3245 H 0.30875 0.35303 0.64985 0.0
H3246 H 0.24194 0.29271 0.62379 0.0
H3247 H 0.2541 0.29593 0.60002 0.0
H3248 H 0.25507 0.28305 0.6211 0.0
H3249 H 0.29855 0.37078 0.63836 0.0
H3250 H 0.28821 0.3637 0.61281 0.0
H3251 H 0.2755 0.36018 0.63615 0.0
H3252 H 0.25034 0.33832 0.56148 0.0
H3253 H 0.22009 0.32878 0.61802 0.0
H3254 H 0.27607 0.32218 0.58028 0.0
H3255 H 0.28744 0.34523 0.58402 0.0
H3256 H 0.2748 0.33571 0.56032 0.0
H3257 H 0.23975 0.3117 0.64908 0.0
H3258 H 0.22787 0.32275 0.65085 0.0
H3259 H 0.25087 0.33455 0.65439 0.0
C3260 C 0.68217 0.97062 0.63926 0.0
C3261 C 0.66867 0.97373 0.64226 0.0
C3262 C 0.67981 0.95619 0.62741 0.0
C3263 C 0.66339 0.94432 0.6189 0.0
C3264 C 0.6497 0.94742 0.62184 0.0
C3265 C 0.65257 0.96226 0.63327 0.0
C3266 C 0.69485 0.95358 0.62415 0.0
C3267 C 0.63193 0.93484 0.6134 0.0
C3268 C 0.66084 0.91374 0.57472 0.0
C3269 C 0.65737 0.89908 0.58628 0.0
C3270 C 0.66267 0.92855 0.5851 0.0
C3271 C 0.66054 0.92844 0.60746 0.0
C3272 C 0.65648 0.91339 0.61906 0.0
C3273 C 0.65518 0.89894 0.60833 0.0
C3274 C 0.6674 0.94448 0.57226 0.0
C3275 C 0.65374 0.91264 0.64284 0.0
H3276 H 0.69467 0.97954 0.64606 0.0
H3277 H 0.64209 0.96462 0.63569 0.0
H3278 H 0.69224 0.94148 0.63201 0.0
H3279 H 0.69667 0.95208 0.60694 0.0
H3280 H 0.707 0.96458 0.63068 0.0
H3281 H 0.62273 0.93926 0.61681 0.0
H3282 H 0.63241 0.93309 0.59596 0.0
H3283 H 0.62696 0.92193 0.62067 0.0
H3284 H 0.66259 0.91374 0.55763 0.0
H3285 H 0.6524 0.88749 0.61713 0.0
H3286 H 0.68004 0.95543 0.57762 0.0
H3287 H 0.65784 0.94852 0.57485 0.0
H3288 H 0.66815 0.94228 0.55494 0.0
H3289 H 0.66588 0.9222 0.65091 0.0
H3290 H 0.64942 0.89955 0.64923 0.0
H3291 H 0.64401 0.9162 0.64696 0.0
C3292 C 0.04102 0.68976 0.63605 0.0
C3293 C 0.03036 0.69522 0.64499 0.0
C3294 C 0.05599 0.70142 0.62493 0.0
C3295 C 0.06006 0.71877 0.62222 0.0
C3296 C 0.04892 0.72412 0.63051 0.0
C3297 C 0.03434 0.71234 0.64208 0.0
C3298 C 0.06775 0.69535 0.61672 0.0
C3299 C 0.05255 0.74236 0.62744 0.0
C3300 C 0.10618 0.75506 0.61357 0.0
C3301 C 0.10663 0.75703 0.59149 0.0
C3302 C 0.09122 0.74228 0.62369 0.0
C3303 C 0.07628 0.73157 0.61146 0.0
C3304 C 0.07672 0.73354 0.58912 0.0
C3305 C 0.09199 0.74614 0.57936 0.0
C3306 C 0.09138 0.74034 0.64749 0.0
C3307 C 0.06095 0.72266 0.57561 0.0
H3308 H 0.038 0.67654 0.63842 0.0
H3309 H 0.02603 0.71655 0.64883 0.0
H3310 H 0.06989 0.69764 0.59939 0.0
H3311 H 0.08047 0.70295 0.62459 0.0
H3312 H 0.06252 0.68133 0.61966 0.0
H3313 H 0.04195 0.74405 0.63348 0.0
H3314 H 0.06454 0.75177 0.63591 0.0
H3315 H 0.05455 0.74568 0.61032 0.0
H3316 H 0.11759 0.76346 0.62287 0.0
H3317 H 0.09237 0.74781 0.56228 0.0
H3318 H 0.08709 0.72668 0.65139 0.0
H3319 H 0.08223 0.74348 0.65517 0.0
H3320 H 0.10432 0.74895 0.65447 0.0
H3321 H 0.05611 0.70865 0.57782 0.0
H3322 H 0.06351 0.72562 0.55841 0.0
H3323 H 0.05055 0.72499 0.5807 0.0
C3324 C 0.97584 0.61486 0.71203 0.0
C3325 C 0.991 0.63082 0.70874 0.0
C3326 C 0.97603 0.60163 0.7235 0.0
C3327 C 0.99183 0.6043 0.73132 0.0
C3328 C 0.00718 0.62034 0.72779 0.0
C3329 C 0.00654 0.63347 0.7168 0.0
C3330 C 0.95934 0.58486 0.72739 0.0
C3331 C 0.02433 0.62357 0.73543 0.0
C3332 C 0.99358 0.5778 0.77675 0.0
C3333 C 0.99574 0.56534 0.76579 0.0
C3334 C 0.99169 0.59019 0.76571 0.0
C3335 C 0.99242 0.59037 0.74318 0.0
C3336 C 0.99453 0.57774 0.73205 0.0
C3337 C 0.99596 0.56523 0.74351 0.0
C3338 C 0.98907 0.60318 0.77814 0.0
C3339 C 0.99577 0.57773 0.70809 0.0
H3340 H 0.96379 0.61281 0.70591 0.0
H3341 H 0.01831 0.64574 0.71413 0.0
H3342 H 0.95987 0.57381 0.7201 0.0
H3343 H 0.95735 0.58246 0.74473 0.0
H3344 H 0.94811 0.58501 0.72075 0.0
H3345 H 0.03514 0.63658 0.73086 0.0
H3346 H 0.02423 0.62258 0.753 0.0
H3347 H 0.02676 0.61352 0.7287 0.0
H3348 H 0.99326 0.57774 0.794 0.0
H3349 H 0.99772 0.55562 0.73507 0.0
H3350 H 0.97746 0.60299 0.77233 0.0
H3351 H 1.00018 0.61648 0.77569 0.0
H3352 H 0.98762 0.60053 0.79547 0.0
H3353 H 0.98418 0.57676 0.70091 0.0
H3354 H 0.99713 0.56685 0.70184 0.0
H3355 H 0.00702 0.59016 0.70279 0.0
C3356 C 0.35255 0.36703 0.73106 0.0
C3357 C 0.35845 0.36291 0.71248 0.0
C3358 C 0.36372 0.38159 0.74362 0.0
C3359 C 0.38104 0.39238 0.73718 0.0
C3360 C 0.38698 0.38827 0.71838 0.0
C3361 C 0.37566 0.37351 0.70639 0.0
C3362 C 0.35704 0.38541 0.76379 0.0
C3363 C 0.4053 0.39956 0.71081 0.0
C3364 C 0.40783 0.43929 0.75605 0.0
C3365 C 0.419 0.4383 0.77039 0.0
C3366 C 0.39498 0.42432 0.74559 0.0
C3367 C 0.39311 0.40799 0.74996 0.0
C3368 C 0.40387 0.40687 0.76521 0.0
C3369 C 0.41682 0.42208 0.77509 0.0
C3370 C 0.38395 0.42609 0.72918 0.0
C3371 C 0.40208 0.38967 0.77059 0.0
H3372 H 0.33926 0.35881 0.73585 0.0
H3373 H 0.38026 0.37044 0.69198 0.0
H3374 H 0.36479 0.3858 0.77758 0.0
H3375 H 0.35837 0.39838 0.76286 0.0
H3376 H 0.34333 0.37556 0.76679 0.0
H3377 H 0.40776 0.39476 0.69558 0.0
H3378 H 0.40823 0.41306 0.70856 0.0
H3379 H 0.41432 0.40005 0.72297 0.0
H3380 H 0.4096 0.45188 0.7524 0.0
H3381 H 0.42536 0.42134 0.78642 0.0
H3382 H 0.37015 0.41693 0.7325 0.0
H3383 H 0.38674 0.42267 0.71321 0.0
H3384 H 0.38624 0.43948 0.72869 0.0
H3385 H 0.38849 0.37995 0.77432 0.0
H3386 H 0.41021 0.39079 0.78434 0.0
H3387 H 0.40586 0.38464 0.75666 0.0
C3388 C 0.63468 0.02141 0.69593 0.0
C3389 C 0.64486 0.01567 0.70511 0.0
C3390 C 0.62117 0.02109 0.7074 0.0
C3391 C 0.61821 0.01546 0.72876 0.0
C3392 C 0.62884 0.01015 0.73828 0.0
C3393 C 0.64186 0.01003 0.72619 0.0
C3394 C 0.6098 0.02635 0.6965 0.0
C3395 C 0.62645 0.00459 0.76121 0.0
C3396 C 0.59231 0.02874 0.76356 0.0
C3397 C 0.57628 0.0132 0.76456 0.0
C3398 C 0.60613 0.02959 0.75226 0.0
C3399 C 0.60376 0.01473 0.74101 0.0
C3400 C 0.5876 0.99913 0.74154 0.0
C3401 C 0.57418 0.99846 0.75359 0.0
C3402 C 0.62331 0.04635 0.75248 0.0
C3403 C 0.58445 0.98311 0.72936 0.0
H3404 H 0.63693 0.02563 0.67955 0.0
H3405 H 0.64985 0.00573 0.73333 0.0
H3406 H 0.5963 0.01534 0.69654 0.0
H3407 H 0.61006 0.03729 0.70528 0.0
H3408 H 0.61377 0.03032 0.67978 0.0
H3409 H 0.63646 0.00188 0.76658 0.0
H3410 H 0.62684 0.01488 0.77166 0.0
H3411 H 0.61367 0.99271 0.76333 0.0
H3412 H 0.5941 0.04035 0.77149 0.0
H3413 H 0.56208 0.98627 0.75452 0.0
H3414 H 0.6269 0.05144 0.73612 0.0
H3415 H 0.63343 0.04397 0.75825 0.0
H3416 H 0.62324 0.05649 0.76279 0.0
H3417 H 0.58779 0.98624 0.71234 0.0
H3418 H 0.57088 0.97231 0.73043 0.0
H3419 H 0.59283 0.97855 0.7356 0.0
loop_
_geom_bond_atom_site_label_1
_geom_bond_atom_site_label_2
_geom_bond_distance
_geom_bond_site_symmetry_2
_ccdc_geom_bond_type
Co0 O1 2.216 . S
Co0 O2 2.091 . S
Co0 O4 2.004 1_554 S
Co0 O10 2.021 . S
Co0 O12 2.137 1_454 S
Co0 O13 2.244 1_455 S
O1 Co0 2.216 . S
O1 C8 1.247 . S
O2 Co0 2.091 . S
O2 C8 1.261 . S
C3 O12 1.247 . S
C3 O13 1.272 1_556 S
O4 Co0 2.004 1_556 S
O4 C9 1.259 . S
Co5 O6 2.061 1_554 S
Co5 O11 2.052 . S
Co5 O13 2.135 . S
O6 Co5 2.061 1_556 S
O6 C9 1.235 1_655 S
C7 O10 1.238 1_655 S
C7 O11 1.241 . S
C8 O1 1.247 . S
C8 O2 1.261 . S
C9 O4 1.259 . S
C9 O6 1.235 1_455 S
O10 Co0 2.021 . S
O10 C7 1.238 1_455 S
O11 Co5 2.052 . S
O11 C7 1.241 . S
O12 Co0 2.137 1_656 S
O12 C3 1.247 . S
O13 Co0 2.244 1_655 S
O13 C3 1.272 1_554 S
O13 Co5 2.135 . S
Co14 O15 2.216 1_554 S
Co14 O16 2.091 . S
Co14 O18 2.004 . S
Co14 O24 2.021 1_554 S
Co14 O26 2.137 . S
Co14 O27 2.244 . S
O15 Co14 2.216 1_556 S
O15 C22 1.247 . S
O16 Co14 2.091 . S
O16 C22 1.261 1_554 S
C17 O26 1.247 . S
C17 O27 1.272 . S
O18 Co14 2.004 . S
O18 C23 1.259 . S
Co19 O20 2.061 . S
Co19 O25 2.052 1_554 S
Co19 O27 2.135 . S
O20 Co19 2.061 . S
O20 C23 1.235 . S
C21 O24 1.238 . S
C21 O25 1.241 . S
C22 O15 1.247 . S
C22 O16 1.261 1_556 S
C23 O18 1.259 . S
C23 O20 1.235 . S
O24 Co14 2.021 1_556 S
O24 C21 1.238 . S
O25 Co19 2.052 1_556 S
O25 C21 1.241 . S
O26 Co14 2.137 . S
O26 C17 1.247 . S
O27 Co14 2.244 . S
O27 C17 1.272 . S
O27 Co19 2.135 . S
Co28 O29 2.216 1_554 S
Co28 O30 2.091 . S
Co28 O32 2.004 . S
Co28 O38 2.021 1_554 S
Co28 O40 2.141 1_545 S
Co28 O41 2.244 1_545 S
O29 Co28 2.216 1_556 S
O29 C36 1.247 . S
O30 Co28 2.091 . S
O30 C36 1.261 1_554 S
C31 O40 1.301 . S
C31 O41 1.272 . S
O32 Co28 2.004 . S
O32 C37 1.259 . S
Co33 O34 2.061 . S
Co33 O39 2.052 1_554 S
Co33 O41 2.135 . S
O34 Co33 2.061 . S
O34 C37 1.235 1_565 S
C35 O38 1.238 1_565 S
C35 O39 1.241 . S
C36 O29 1.247 . S
C36 O30 1.261 1_556 S
C37 O32 1.259 . S
C37 O34 1.235 1_545 S
O38 Co28 2.021 1_556 S
O38 C35 1.238 1_545 S
O39 Co33 2.052 1_556 S
O39 C35 1.241 . S
O40 Co28 2.141 1_565 S
O40 C31 1.301 . S
O41 Co28 2.244 1_565 S
O41 C31 1.272 . S
O41 Co33 2.135 . S
Co42 O43 2.216 1_554 S
Co42 O44 2.091 . S
Co42 O46 2.004 . S
Co42 O52 2.021 1_554 S
Co42 O54 2.137 1_655 S
Co42 O55 2.244 1_655 S
O43 Co42 2.216 1_556 S
O43 C50 1.247 . S
O44 Co42 2.091 . S
O44 C50 1.261 1_554 S
C45 O54 1.247 . S
C45 O55 1.272 . S
O46 Co42 2.004 . S
O46 C51 1.253 1_655 S
Co47 O48 2.061 . S
Co47 O53 2.052 1_554 S
Co47 O55 2.135 . S
O48 Co47 2.061 . S
O48 C51 1.241 . S
C49 O52 1.238 1_455 S
C49 O53 1.241 . S
C50 O43 1.247 . S
C50 O44 1.261 1_556 S
C51 O46 1.253 1_455 S
C51 O48 1.241 . S
O52 Co42 2.021 1_556 S
O52 C49 1.238 1_655 S
O53 Co47 2.052 1_556 S
O53 C49 1.241 . S
O54 Co42 2.137 1_455 S
O54 C45 1.247 . S
O55 Co42 2.244 1_455 S
O55 C45 1.272 . S
O55 Co47 2.135 . S
Co56 O57 2.216 . S
Co56 O58 2.091 . S
Co56 O60 2.004 1_554 S
Co56 O66 2.021 . S
Co56 O68 2.137 1_554 S
Co56 O69 2.243 . S
O57 Co56 2.216 . S
O57 C64 1.247 . S
O58 Co56 2.091 . S
O58 C64 1.261 . S
C59 O68 1.247 . S
C59 O69 1.275 1_556 S
O60 Co56 2.004 1_556 S
O60 C65 1.259 . S
Co61 O62 2.061 . S
Co61 O67 2.052 1_556 S
Co61 O69 2.135 1_556 S
O62 Co61 2.061 . S
O62 C65 1.235 . S
C63 O66 1.238 . S
C63 O67 1.241 . S
C64 O57 1.247 . S
C64 O58 1.261 . S
C65 O60 1.259 . S
C65 O62 1.235 . S
O66 Co56 2.021 . S
O66 C63 1.238 . S
O67 Co61 2.052 1_554 S
O67 C63 1.241 . S
O68 Co56 2.137 1_556 S
O68 C59 1.247 . S
O69 Co56 2.243 . S
O69 C59 1.275 1_554 S
O69 Co61 2.135 1_554 S
Co70 O71 2.216 . S
Co70 O72 2.091 . S
Co70 O74 2.004 1_554 S
Co70 O80 2.021 . S
Co70 O82 2.137 1_564 S
Co70 O83 2.244 1_565 S
O71 Co70 2.216 . S
O71 C78 1.247 . S
O72 Co70 2.091 . S
O72 C78 1.261 . S
C73 O82 1.247 . S
C73 O83 1.272 1_556 S
O74 Co70 2.004 1_556 S
O74 C79 1.253 1_565 S
Co75 O76 2.061 1_554 S
Co75 O81 2.052 . S
Co75 O83 2.135 . S
O76 Co75 2.061 1_556 S
O76 C79 1.241 . S
C77 O80 1.238 1_545 S
C77 O81 1.241 . S
C78 O71 1.247 . S
C78 O72 1.261 . S
C79 O74 1.253 1_545 S
C79 O76 1.241 . S
O80 Co70 2.021 . S
O80 C77 1.238 1_565 S
O81 Co75 2.052 . S
O81 C77 1.241 . S
O82 Co70 2.137 1_546 S
O82 C73 1.247 . S
O83 Co70 2.244 1_545 S
O83 C73 1.272 1_554 S
O83 Co75 2.135 . S
Co84 O85 2.216 . S
Co84 O86 2.091 . S
Co84 O88 2.004 . S
Co84 O94 2.021 . S
Co84 O96 2.137 . S
Co84 O97 2.244 . S
O85 Co84 2.216 . S
O85 C92 1.247 . S
O86 Co84 2.091 . S
O86 C92 1.261 . S
C87 O96 1.247 . S
C87 O97 1.272 . S
O88 Co84 2.004 . S
O88 C93 1.259 . S
Co89 O90 2.061 . S
Co89 O95 2.052 . S
Co89 O97 2.135 . S
O90 Co89 2.061 . S
O90 C93 1.235 . S
C91 O94 1.238 . S
C91 O95 1.241 . S
C92 O85 1.247 . S
C92 O86 1.261 . S
C93 O88 1.259 . S
C93 O90 1.235 . S
O94 Co84 2.021 . S
O94 C91 1.238 . S
O95 Co89 2.052 . S
O95 C91 1.241 . S
O96 Co84 2.137 . S
O96 C87 1.247 . S
O97 Co84 2.244 . S
O97 C87 1.272 . S
O97 Co89 2.135 . S
Co98 O99 2.231 . S
Co98 O100 2.091 . S
Co98 O102 2.004 . S
Co98 O108 2.021 . S
Co98 O110 2.137 1_565 S
Co98 O111 2.244 1_565 S
O99 Co98 2.231 . S
O99 C106 1.299 . S
O100 Co98 2.091 . S
O100 C106 1.261 . S
C101 O110 1.247 . S
C101 O111 1.272 . S
O102 Co98 2.004 . S
O102 C107 1.259 . S
Co103 O104 2.061 . S
Co103 O109 2.052 . S
Co103 O111 2.135 1_565 S
O104 Co103 2.061 . S
O104 C107 1.235 . S
C105 O108 1.238 . S
C105 O109 1.241 . S
C106 O99 1.299 . S
C106 O100 1.261 . S
C107 O102 1.259 . S
C107 O104 1.235 . S
O108 Co98 2.021 . S
O108 C105 1.238 . S
O109 Co103 2.052 . S
O109 C105 1.241 . S
O110 Co98 2.137 1_545 S
O110 C101 1.247 . S
O111 Co98 2.244 1_545 S
O111 C101 1.272 . S
O111 Co103 2.135 1_545 S
Co112 O113 2.216 . S
Co112 O114 2.091 . S
Co112 O116 2.004 . S
Co112 O122 2.021 . S
Co112 O124 2.137 1_455 S
Co112 O125 2.244 . S
O113 Co112 2.216 . S
O113 C120 1.247 . S
O114 Co112 2.091 . S
O114 C120 1.261 . S
C115 O124 1.247 . S
C115 O125 1.272 1_655 S
O116 Co112 2.004 . S
O116 C121 1.259 . S
Co117 O118 2.061 . S
Co117 O123 2.052 . S
Co117 O125 2.135 . S
O118 Co117 2.061 . S
O118 C121 1.235 . S
C119 O122 1.238 . S
C119 O123 1.241 . S
C120 O113 1.247 . S
C120 O114 1.261 . S
C121 O116 1.259 . S
C121 O118 1.235 . S
O122 Co112 2.021 . S
O122 C119 1.238 . S
O123 Co117 2.052 . S
O123 C119 1.241 . S
O124 Co112 2.137 1_655 S
O124 C115 1.247 . S
O125 Co112 2.244 . S
O125 C115 1.272 1_455 S
O125 Co117 2.135 . S
Co126 O127 2.216 . S
Co126 O128 2.091 . S
Co126 O130 2.004 . S
Co126 O136 2.021 . S
Co126 O138 2.137 1_565 S
Co126 O139 2.244 1_565 S
O127 Co126 2.216 . S
O127 C134 1.247 . S
O128 Co126 2.091 . S
O128 C134 1.261 . S
C129 O138 1.247 . S
C129 O139 1.272 . S
O130 Co126 2.004 . S
O130 C135 1.259 . S
Co131 O132 2.061 . S
Co131 O137 2.052 . S
Co131 O139 2.135 1_565 S
O132 Co131 2.061 . S
O132 C135 1.235 . S
C133 O136 1.238 . S
C133 O137 1.241 . S
C134 O127 1.247 . S
C134 O128 1.261 . S
C135 O130 1.259 . S
C135 O132 1.235 . S
O136 Co126 2.021 . S
O136 C133 1.238 . S
O137 Co131 2.052 . S
O137 C133 1.241 . S
O138 Co126 2.137 1_545 S
O138 C129 1.247 . S
O139 Co126 2.244 1_545 S
O139 C129 1.272 . S
O139 Co131 2.135 1_545 S
Co140 O141 2.216 1_455 S
Co140 O142 2.091 1_455 S
Co140 O144 2.004 . S
Co140 O150 2.021 . S
Co140 O152 2.137 1_455 S
Co140 O153 2.244 . S
O141 Co140 2.216 1_655 S
O141 C148 1.247 . S
O142 Co140 2.091 1_655 S
O142 C148 1.261 . S
C143 O152 1.247 1_455 S
C143 O153 1.272 . S
O144 Co140 2.004 . S
O144 C149 1.259 . S
Co145 O146 2.061 . S
Co145 O151 2.052 . S
Co145 O153 2.135 . S
O146 Co145 2.061 . S
O146 C149 1.235 . S
C147 O150 1.238 . S
C147 O151 1.241 . S
C148 O141 1.247 . S
C148 O142 1.261 . S
C149 O144 1.259 . S
C149 O146 1.235 . S
O150 Co140 2.021 . S
O150 C147 1.238 . S
O151 Co145 2.052 . S
O151 C147 1.241 . S
O152 Co140 2.137 1_655 S
O152 C143 1.247 1_655 S
O153 Co140 2.244 . S
O153 C143 1.272 . S
O153 Co145 2.135 . S
Co154 O155 2.216 . S
Co154 O156 2.091 . S
Co154 O158 2.004 . S
Co154 O164 2.021 . S
Co154 O166 2.137 . S
Co154 O167 2.244 . S
O155 Co154 2.216 . S
O155 C162 1.247 . S
O156 Co154 2.091 . S
O156 C162 1.261 . S
C157 O166 1.247 . S
C157 O167 1.272 . S
O158 Co154 2.004 . S
O158 C163 1.259 . S
Co159 O160 2.061 . S
Co159 O165 2.052 . S
Co159 O167 2.135 . S
O160 Co159 2.061 . S
O160 C163 1.235 . S
C161 O164 1.238 . S
C161 O165 1.241 . S
C162 O155 1.247 . S
C162 O156 1.261 . S
C163 O158 1.259 . S
C163 O160 1.235 . S
O164 Co154 2.021 . S
O164 C161 1.238 . S
O165 Co159 2.052 . S
O165 C161 1.241 . S
O166 Co154 2.137 . S
O166 C157 1.247 . S
O167 Co154 2.244 . S
O167 C157 1.272 . S
O167 Co159 2.135 . S
Co168 O169 2.216 . S
Co168 O170 2.091 . S
Co168 O172 2.004 . S
Co168 O178 2.021 . S
Co168 O180 2.137 1_545 S
Co168 O181 2.253 . S
O169 Co168 2.216 . S
O169 C176 1.247 . S
O170 Co168 2.091 . S
O170 C176 1.261 . S
C171 O180 1.247 . S
C171 O181 1.219 1_565 S
O172 Co168 2.004 . S
O172 C177 1.259 . S
Co173 O174 2.061 . S
Co173 O179 2.052 . S
Co173 O181 2.196 . S
O174 Co173 2.061 . S
O174 C177 1.235 . S
C175 O178 1.238 . S
C175 O179 1.241 . S
C176 O169 1.247 . S
C176 O170 1.261 . S
C177 O172 1.259 . S
C177 O174 1.235 . S
O178 Co168 2.021 . S
O178 C175 1.238 . S
O179 Co173 2.052 . S
O179 C175 1.241 . S
O180 Co168 2.137 1_565 S
O180 C171 1.247 . S
O181 Co168 2.253 . S
O181 C171 1.219 1_545 S
O181 Co173 2.196 . S
Co182 O183 2.216 1_655 S
Co182 O184 2.091 1_655 S
Co182 O186 2.004 . S
Co182 O192 2.021 . S
Co182 O194 2.137 1_655 S
Co182 O195 2.244 . S
O183 Co182 2.216 1_455 S
O183 C190 1.247 . S
O184 Co182 2.091 1_455 S
O184 C190 1.261 . S
C185 O194 1.247 1_655 S
C185 O195 1.272 . S
O186 Co182 2.004 . S
O186 C191 1.259 . S
Co187 O188 2.061 . S
Co187 O193 2.052 . S
Co187 O195 2.135 . S
O188 Co187 2.061 . S
O188 C191 1.235 . S
C189 O192 1.238 . S
C189 O193 1.241 . S
C190 O183 1.247 . S
C190 O184 1.261 . S
C191 O186 1.259 . S
C191 O188 1.235 . S
O192 Co182 2.021 . S
O192 C189 1.238 . S
O193 Co187 2.052 . S
O193 C189 1.241 . S
O194 Co182 2.137 1_455 S
O194 C185 1.247 1_455 S
O195 Co182 2.244 . S
O195 C185 1.272 . S
O195 Co187 2.135 . S
Co196 O197 2.216 . S
Co196 O198 2.091 . S
Co196 O200 2.004 . S
Co196 O206 2.021 . S
Co196 O208 2.137 . S
Co196 O209 2.244 . S
O197 Co196 2.216 . S
O197 C204 1.247 . S
O198 Co196 2.091 . S
O198 C204 1.261 . S
C199 O208 1.247 . S
C199 O209 1.272 . S
O200 Co196 2.004 . S
O200 C205 1.259 . S
Co201 O202 2.061 . S
Co201 O207 2.052 . S
Co201 O209 2.135 . S
O202 Co201 2.061 . S
O202 C205 1.235 . S
C203 O206 1.238 . S
C203 O207 1.241 . S
C204 O197 1.247 . S
C204 O198 1.261 . S
C205 O200 1.259 . S
C205 O202 1.235 . S
O206 Co196 2.021 . S
O206 C203 1.238 . S
O207 Co201 2.052 . S
O207 C203 1.241 . S
O208 Co196 2.137 . S
O208 C199 1.247 . S
O209 Co196 2.244 . S
O209 C199 1.272 . S
O209 Co201 2.135 . S
Co210 O211 2.216 . S
Co210 O212 2.091 . S
Co210 O214 2.004 . S
Co210 O220 2.021 . S
Co210 O222 2.137 . S
Co210 O223 2.244 . S
O211 Co210 2.216 . S
O211 C218 1.247 . S
O212 Co210 2.091 . S
O212 C218 1.261 . S
C213 O222 1.247 . S
C213 O223 1.272 . S
O214 Co210 2.004 . S
O214 C219 1.259 . S
Co215 O216 2.061 . S
Co215 O221 2.052 . S
Co215 O223 2.135 . S
O216 Co215 2.061 . S
O216 C219 1.235 . S
C217 O220 1.238 . S
C217 O221 1.241 . S
C218 O211 1.247 . S
C218 O212 1.261 . S
C219 O214 1.259 . S
C219 O216 1.235 . S
O220 Co210 2.021 . S
O220 C217 1.238 . S
O221 Co215 2.052 . S
O221 C217 1.241 . S
O222 Co210 2.137 . S
O222 C213 1.247 . S
O223 Co210 2.244 . S
O223 C213 1.272 . S
O223 Co215 2.135 . S
Co224 O225 2.216 . S
Co224 O226 2.091 . S
Co224 O228 2.004 . S
Co224 O234 2.021 . S
Co224 O236 2.137 1_545 S
Co224 O237 2.303 . S
O225 Co224 2.216 . S
O225 C232 1.247 . S
O226 Co224 2.091 . S
O226 C232 1.261 . S
C227 O236 1.247 . S
C227 O237 1.263 1_565 S
O228 Co224 2.004 . S
O228 C233 1.259 . S
Co229 O230 2.061 . S
Co229 O235 2.052 . S
Co229 O237 2.142 . S
O230 Co229 2.061 . S
O230 C233 1.235 . S
C231 O234 1.238 . S
C231 O235 1.241 . S
C232 O225 1.247 . S
C232 O226 1.261 . S
C233 O228 1.259 . S
C233 O230 1.235 . S
O234 Co224 2.021 . S
O234 C231 1.238 . S
O235 Co229 2.052 . S
O235 C231 1.241 . S
O236 Co224 2.137 1_565 S
O236 C227 1.247 . S
O237 Co224 2.303 . S
O237 C227 1.263 1_545 S
O237 Co229 2.142 . S
Co238 O239 2.216 . S
Co238 O240 2.091 . S
Co238 O242 2.004 . S
Co238 O248 2.021 . S
Co238 O250 2.137 1_655 S
Co238 O251 2.244 . S
O239 Co238 2.216 . S
O239 C246 1.247 . S
O240 Co238 2.091 . S
O240 C246 1.261 . S
C241 O250 1.247 . S
C241 O251 1.272 1_455 S
O242 Co238 2.004 . S
O242 C247 1.259 . S
Co243 O244 2.061 . S
Co243 O249 2.052 . S
Co243 O251 2.135 . S
O244 Co243 2.061 . S
O244 C247 1.235 . S
C245 O248 1.238 . S
C245 O249 1.241 . S
C246 O239 1.247 . S
C246 O240 1.261 . S
C247 O242 1.259 . S
C247 O244 1.235 . S
O248 Co238 2.021 . S
O248 C245 1.238 . S
O249 Co243 2.052 . S
O249 C245 1.241 . S
O250 Co238 2.137 1_455 S
O250 C241 1.247 . S
O251 Co238 2.244 . S
O251 C241 1.272 1_655 S
O251 Co243 2.135 . S
H252 C271 0.949 . S
H253 C272 0.950 . S
H254 C274 0.950 . S
H255 C275 0.950 . S
H256 C277 0.950 . S
H257 C280 0.950 . S
H258 C281 0.950 . S
H259 C283 0.951 . S
H260 C284 0.949 . S
H261 C286 0.949 . S
H262 C287 0.950 . S
H263 C289 0.950 . S
H264 C290 0.950 . S
H265 C292 0.950 . S
H266 C295 0.950 . S
H267 C296 0.950 . S
H268 C298 0.951 . S
H269 C299 0.949 . S
C270 C271 1.376 . S
C270 C275 1.386 . S
C270 C276 1.483 . S
C271 H252 0.949 . S
C271 C270 1.376 . S
C271 C272 1.397 . S
C272 H253 0.950 . S
C272 C271 1.397 . S
C272 C273 1.391 . S
C273 C272 1.391 . S
C273 C274 1.405 . S
C274 H254 0.950 . S
C274 C273 1.405 . S
C274 C275 1.367 . S
C275 H255 0.950 . S
C275 C270 1.386 . S
C275 C274 1.367 . S
C276 C270 1.483 . S
C276 C277 1.382 . S
C276 C278 1.403 . S
C277 H256 0.950 . S
C277 C276 1.382 . S
C277 C293 1.411 . S
C278 C276 1.403 . S
C278 C279 1.489 . S
C278 C292 1.411 . S
C279 C278 1.489 . S
C279 C280 1.383 . S
C279 C284 1.382 . S
C280 H257 0.950 . S
C280 C279 1.383 . S
C280 C281 1.395 . S
C281 H258 0.950 . S
C281 C280 1.395 . S
C281 C282 1.288 . S
C282 C281 1.288 . S
C282 C283 1.392 . S
C283 H259 0.951 . S
C283 C282 1.392 . S
C283 C284 1.392 . S
C284 H260 0.949 . S
C284 C279 1.382 . S
C284 C283 1.392 . S
C285 C286 1.376 . S
C285 C290 1.386 . S
C285 C291 1.483 . S
C286 H261 0.949 . S
C286 C285 1.376 . S
C286 C287 1.397 . S
C287 H262 0.950 . S
C287 C286 1.397 . S
C287 C288 1.391 . S
C288 C287 1.391 . S
C288 C289 1.405 . S
C289 H263 0.950 . S
C289 C288 1.405 . S
C289 C290 1.367 . S
C290 H264 0.950 . S
C290 C285 1.386 . S
C290 C289 1.367 . S
C291 C285 1.483 . S
C291 C292 1.382 . S
C291 C293 1.403 . S
C292 H265 0.950 . S
C292 C278 1.411 . S
C292 C291 1.382 . S
C293 C277 1.411 . S
C293 C291 1.403 . S
C293 C294 1.489 . S
C294 C293 1.489 . S
C294 C295 1.383 . S
C294 C299 1.382 . S
C295 H266 0.950 . S
C295 C294 1.383 . S
C295 C296 1.395 . S
C296 H267 0.950 . S
C296 C295 1.395 . S
C296 C297 1.288 . S
C297 C296 1.288 . S
C297 C298 1.392 . S
C298 H268 0.951 . S
C298 C297 1.392 . S
C298 C299 1.392 . S
C299 H269 0.949 . S
C299 C294 1.382 . S
C299 C298 1.392 . S
H300 C319 0.949 . S
H301 C320 0.950 . S
H302 C322 0.950 . S
H303 C323 0.950 . S
H304 C325 0.950 . S
H305 C328 0.950 . S
H306 C329 0.950 . S
H307 C331 0.951 . S
H308 C332 0.949 . S
H309 C334 0.949 . S
H310 C335 0.950 . S
H311 C337 0.950 . S
H312 C338 0.950 . S
H313 C340 0.950 . S
H314 C343 0.950 . S
H315 C344 0.950 . S
H316 C346 0.951 . S
H317 C347 0.949 . S
C318 C319 1.376 . S
C318 C323 1.386 . S
C318 C324 1.483 . S
C319 H300 0.949 . S
C319 C318 1.376 . S
C319 C320 1.397 . S
C320 H301 0.950 . S
C320 C319 1.397 . S
C320 C321 1.391 . S
C321 C320 1.391 . S
C321 C322 1.405 . S
C322 H302 0.950 . S
C322 C321 1.405 . S
C322 C323 1.367 . S
C323 H303 0.950 . S
C323 C318 1.386 . S
C323 C322 1.367 . S
C324 C318 1.483 . S
C324 C325 1.382 . S
C324 C326 1.403 . S
C325 H304 0.950 . S
C325 C324 1.382 . S
C325 C341 1.411 . S
C326 C324 1.403 . S
C326 C327 1.489 . S
C326 C340 1.411 . S
C327 C326 1.489 . S
C327 C328 1.383 . S
C327 C332 1.382 . S
C328 H305 0.950 . S
C328 C327 1.383 . S
C328 C329 1.395 . S
C329 H306 0.950 . S
C329 C328 1.395 . S
C329 C330 1.288 . S
C330 C329 1.288 . S
C330 C331 1.392 . S
C331 H307 0.951 . S
C331 C330 1.392 . S
C331 C332 1.392 . S
C332 H308 0.949 . S
C332 C327 1.382 . S
C332 C331 1.392 . S
C333 C334 1.376 . S
C333 C338 1.386 . S
C333 C339 1.483 . S
C334 H309 0.949 . S
C334 C333 1.376 . S
C334 C335 1.397 . S
C335 H310 0.950 . S
C335 C334 1.397 . S
C335 C336 1.391 . S
C336 C335 1.391 . S
C336 C337 1.405 . S
C337 H311 0.950 . S
C337 C336 1.405 . S
C337 C338 1.367 . S
C338 H312 0.950 . S
C338 C333 1.386 . S
C338 C337 1.367 . S
C339 C333 1.483 . S
C339 C340 1.382 . S
C339 C341 1.403 . S
C340 H313 0.950 . S
C340 C326 1.411 . S
C340 C339 1.382 . S
C341 C325 1.411 . S
C341 C339 1.403 . S
C341 C342 1.489 . S
C342 C341 1.489 . S
C342 C343 1.383 . S
C342 C347 1.382 . S
C343 H314 0.950 . S
C343 C342 1.383 . S
C343 C344 1.395 . S
C344 H315 0.950 . S
C344 C343 1.395 . S
C344 C345 1.288 . S
C345 C344 1.288 . S
C345 C346 1.392 . S
C346 H316 0.951 . S
C346 C345 1.392 . S
C346 C347 1.392 . S
C347 H317 0.949 . S
C347 C342 1.382 . S
C347 C346 1.392 . S
H348 C367 0.949 . S
H349 C368 0.950 . S
H350 C370 0.950 . S
H351 C371 0.950 . S
H352 C373 0.950 . S
H353 C376 0.950 . S
H354 C377 0.950 . S
H355 C379 0.951 . S
H356 C380 0.949 . S
H357 C382 0.949 . S
H358 C383 0.950 . S
H359 C385 0.950 . S
H360 C386 0.950 . S
H361 C388 0.950 . S
H362 C391 0.950 . S
H363 C392 0.950 . S
H364 C394 0.951 . S
H365 C395 0.949 . S
C366 C367 1.376 . S
C366 C371 1.386 . S
C366 C372 1.483 . S
C367 H348 0.949 . S
C367 C366 1.376 . S
C367 C368 1.397 . S
C368 H349 0.950 . S
C368 C367 1.397 . S
C368 C369 1.391 . S
C369 C368 1.391 . S
C369 C370 1.405 . S
C370 H350 0.950 . S
C370 C369 1.405 . S
C370 C371 1.367 . S
C371 H351 0.950 . S
C371 C366 1.386 . S
C371 C370 1.367 . S
C372 C366 1.483 . S
C372 C373 1.382 . S
C372 C374 1.403 . S
C373 H352 0.950 . S
C373 C372 1.382 . S
C373 C389 1.411 . S
C374 C372 1.403 . S
C374 C375 1.489 . S
C374 C388 1.411 . S
C375 C374 1.489 . S
C375 C376 1.383 . S
C375 C380 1.382 . S
C376 H353 0.950 . S
C376 C375 1.383 . S
C376 C377 1.395 . S
C377 H354 0.950 . S
C377 C376 1.395 . S
C377 C378 1.288 . S
C378 C377 1.288 . S
C378 C379 1.392 . S
C379 H355 0.951 . S
C379 C378 1.392 . S
C379 C380 1.392 . S
C380 H356 0.949 . S
C380 C375 1.382 . S
C380 C379 1.392 . S
C381 C382 1.376 . S
C381 C386 1.386 . S
C381 C387 1.483 . S
C382 H357 0.949 . S
C382 C381 1.376 . S
C382 C383 1.397 . S
C383 H358 0.950 . S
C383 C382 1.397 . S
C383 C384 1.391 . S
C384 C383 1.391 . S
C384 C385 1.405 . S
C385 H359 0.950 . S
C385 C384 1.405 . S
C385 C386 1.367 . S
C386 H360 0.950 . S
C386 C381 1.386 . S
C386 C385 1.367 . S
C387 C381 1.483 . S
C387 C388 1.382 . S
C387 C389 1.403 . S
C388 H361 0.950 . S
C388 C374 1.411 . S
C388 C387 1.382 . S
C389 C373 1.411 . S
C389 C387 1.403 . S
C389 C390 1.489 . S
C390 C389 1.489 . S
C390 C391 1.383 . S
C390 C395 1.382 . S
C391 H362 0.950 . S
C391 C390 1.383 . S
C391 C392 1.395 . S
C392 H363 0.950 . S
C392 C391 1.395 . S
C392 C393 1.288 . S
C393 C392 1.288 . S
C393 C394 1.392 . S
C394 H364 0.951 . S
C394 C393 1.392 . S
C394 C395 1.392 . S
C395 H365 0.949 . S
C395 C390 1.382 . S
C395 C394 1.392 . S
H396 C415 0.949 . S
H397 C416 0.950 . S
H398 C418 0.950 . S
H399 C419 0.950 . S
H400 C421 0.950 . S
H401 C424 0.950 . S
H402 C425 0.950 . S
H403 C427 0.951 . S
H404 C428 0.949 . S
H405 C430 0.949 . S
H406 C431 0.950 . S
H407 C433 0.950 . S
H408 C434 0.950 . S
H409 C436 0.950 . S
H410 C439 0.950 . S
H411 C440 0.950 . S
H412 C442 0.951 . S
H413 C443 0.949 . S
C414 C415 1.376 . S
C414 C419 1.386 . S
C414 C420 1.483 . S
C415 H396 0.949 . S
C415 C414 1.376 . S
C415 C416 1.397 . S
C416 H397 0.950 . S
C416 C415 1.397 . S
C416 C417 1.391 . S
C417 C416 1.391 . S
C417 C418 1.405 . S
C418 H398 0.950 . S
C418 C417 1.405 . S
C418 C419 1.367 . S
C419 H399 0.950 . S
C419 C414 1.386 . S
C419 C418 1.367 . S
C420 C414 1.483 . S
C420 C421 1.382 . S
C420 C422 1.403 . S
C421 H400 0.950 . S
C421 C420 1.382 . S
C421 C437 1.411 . S
C422 C420 1.403 . S
C422 C423 1.489 . S
C422 C436 1.411 . S
C423 C422 1.489 . S
C423 C424 1.383 . S
C423 C428 1.382 . S
C424 H401 0.950 . S
C424 C423 1.383 . S
C424 C425 1.395 . S
C425 H402 0.950 . S
C425 C424 1.395 . S
C425 C426 1.288 . S
C426 C425 1.288 . S
C426 C427 1.392 . S
C427 H403 0.951 . S
C427 C426 1.392 . S
C427 C428 1.392 . S
C428 H404 0.949 . S
C428 C423 1.382 . S
C428 C427 1.392 . S
C429 C430 1.376 . S
C429 C434 1.386 . S
C429 C435 1.483 . S
C430 H405 0.949 . S
C430 C429 1.376 . S
C430 C431 1.397 . S
C431 H406 0.950 . S
C431 C430 1.397 . S
C431 C432 1.391 . S
C432 C431 1.391 . S
C432 C433 1.405 . S
C433 H407 0.950 . S
C433 C432 1.405 . S
C433 C434 1.367 . S
C434 H408 0.950 . S
C434 C429 1.386 . S
C434 C433 1.367 . S
C435 C429 1.483 . S
C435 C436 1.382 . S
C435 C437 1.403 . S
C436 H409 0.950 . S
C436 C422 1.411 . S
C436 C435 1.382 . S
C437 C421 1.411 . S
C437 C435 1.403 . S
C437 C438 1.489 . S
C438 C437 1.489 . S
C438 C439 1.383 . S
C438 C443 1.382 . S
C439 H410 0.950 . S
C439 C438 1.383 . S
C439 C440 1.395 . S
C440 H411 0.950 . S
C440 C439 1.395 . S
C440 C441 1.288 . S
C441 C440 1.288 . S
C441 C442 1.392 . S
C442 H412 0.951 . S
C442 C441 1.392 . S
C442 C443 1.392 . S
C443 H413 0.949 . S
C443 C438 1.382 . S
C443 C442 1.392 . S
H444 C463 0.949 . S
H445 C464 0.950 . S
H446 C466 0.950 . S
H447 C467 0.950 . S
H448 C469 0.950 . S
H449 C472 0.950 . S
H450 C473 0.950 . S
H451 C475 0.951 . S
H452 C476 0.949 . S
H453 C478 0.949 . S
H454 C479 0.950 . S
H455 C481 0.950 . S
H456 C482 0.950 . S
H457 C484 0.950 . S
H458 C487 0.950 . S
H459 C488 0.950 . S
H460 C490 0.951 . S
H461 C491 0.949 . S
C462 C463 1.376 . S
C462 C467 1.386 . S
C462 C468 1.483 . S
C463 H444 0.949 . S
C463 C462 1.376 . S
C463 C464 1.397 . S
C464 H445 0.950 . S
C464 C463 1.397 . S
C464 C465 1.391 . S
C465 C464 1.391 . S
C465 C466 1.405 . S
C466 H446 0.950 . S
C466 C465 1.405 . S
C466 C467 1.367 . S
C467 H447 0.950 . S
C467 C462 1.386 . S
C467 C466 1.367 . S
C468 C462 1.483 . S
C468 C469 1.382 . S
C468 C470 1.403 . S
C469 H448 0.950 . S
C469 C468 1.382 . S
C469 C485 1.411 . S
C470 C468 1.403 . S
C470 C471 1.489 . S
C470 C484 1.411 . S
C471 C470 1.489 . S
C471 C472 1.383 . S
C471 C476 1.382 . S
C472 H449 0.950 . S
C472 C471 1.383 . S
C472 C473 1.395 . S
C473 H450 0.950 . S
C473 C472 1.395 . S
C473 C474 1.288 . S
C474 C473 1.288 . S
C474 C475 1.392 . S
C475 H451 0.951 . S
C475 C474 1.392 . S
C475 C476 1.392 . S
C476 H452 0.949 . S
C476 C471 1.382 . S
C476 C475 1.392 . S
C477 C478 1.376 . S
C477 C482 1.386 . S
C477 C483 1.483 . S
C478 H453 0.949 . S
C478 C477 1.376 . S
C478 C479 1.397 . S
C479 H454 0.950 . S
C479 C478 1.397 . S
C479 C480 1.391 . S
C480 C479 1.391 . S
C480 C481 1.405 . S
C481 H455 0.950 . S
C481 C480 1.405 . S
C481 C482 1.367 . S
C482 H456 0.950 . S
C482 C477 1.386 . S
C482 C481 1.367 . S
C483 C477 1.483 . S
C483 C484 1.382 . S
C483 C485 1.403 . S
C484 H457 0.950 . S
C484 C470 1.411 . S
C484 C483 1.382 . S
C485 C469 1.411 . S
C485 C483 1.403 . S
C485 C486 1.489 . S
C486 C485 1.489 . S
C486 C487 1.383 . S
C486 C491 1.382 . S
C487 H458 0.950 . S
C487 C486 1.383 . S
C487 C488 1.395 . S
C488 H459 0.950 . S
C488 C487 1.395 . S
C488 C489 1.288 . S
C489 C488 1.288 . S
C489 C490 1.392 . S
C490 H460 0.951 . S
C490 C489 1.392 . S
C490 C491 1.392 . S
C491 H461 0.949 . S
C491 C486 1.382 . S
C491 C490 1.392 . S
H492 C511 0.949 . S
H493 C512 0.950 . S
H494 C514 0.950 . S
H495 C515 0.950 . S
H496 C517 0.950 . S
H497 C520 0.950 . S
H498 C521 0.950 . S
H499 C523 0.951 . S
H500 C524 0.949 . S
H501 C526 0.949 . S
H502 C527 0.950 . S
H503 C529 0.950 . S
H504 C530 0.950 . S
H505 C532 0.950 . S
H506 C535 0.950 . S
H507 C536 0.950 . S
H508 C538 0.951 . S
H509 C539 0.949 . S
C510 C511 1.376 . S
C510 C515 1.386 . S
C510 C516 1.483 . S
C511 H492 0.949 . S
C511 C510 1.376 . S
C511 C512 1.397 . S
C512 H493 0.950 . S
C512 C511 1.397 . S
C512 C513 1.391 . S
C513 C512 1.391 . S
C513 C514 1.405 . S
C514 H494 0.950 . S
C514 C513 1.405 . S
C514 C515 1.367 . S
C515 H495 0.950 . S
C515 C510 1.386 . S
C515 C514 1.367 . S
C516 C510 1.483 . S
C516 C517 1.382 . S
C516 C518 1.403 . S
C517 H496 0.950 . S
C517 C516 1.382 . S
C517 C533 1.411 . S
C518 C516 1.403 . S
C518 C519 1.489 . S
C518 C532 1.411 . S
C519 C518 1.489 . S
C519 C520 1.383 . S
C519 C524 1.382 . S
C520 H497 0.950 . S
C520 C519 1.383 . S
C520 C521 1.395 . S
C521 H498 0.950 . S
C521 C520 1.395 . S
C521 C522 1.288 . S
C522 C521 1.288 . S
C522 C523 1.392 . S
C523 H499 0.951 . S
C523 C522 1.392 . S
C523 C524 1.392 . S
C524 H500 0.949 . S
C524 C519 1.382 . S
C524 C523 1.392 . S
C525 C526 1.376 . S
C525 C530 1.386 . S
C525 C531 1.483 . S
C526 H501 0.949 . S
C526 C525 1.376 . S
C526 C527 1.397 . S
C527 H502 0.950 . S
C527 C526 1.397 . S
C527 C528 1.391 . S
C528 C527 1.391 . S
C528 C529 1.405 . S
C529 H503 0.950 . S
C529 C528 1.405 . S
C529 C530 1.367 . S
C530 H504 0.950 . S
C530 C525 1.386 . S
C530 C529 1.367 . S
C531 C525 1.483 . S
C531 C532 1.382 . S
C531 C533 1.403 . S
C532 H505 0.950 . S
C532 C518 1.411 . S
C532 C531 1.382 . S
C533 C517 1.411 . S
C533 C531 1.403 . S
C533 C534 1.489 . S
C534 C533 1.489 . S
C534 C535 1.383 . S
C534 C539 1.382 . S
C535 H506 0.950 . S
C535 C534 1.383 . S
C535 C536 1.395 . S
C536 H507 0.950 . S
C536 C535 1.395 . S
C536 C537 1.288 . S
C537 C536 1.288 . S
C537 C538 1.392 . S
C538 H508 0.951 . S
C538 C537 1.392 . S
C538 C539 1.392 . S
C539 H509 0.949 . S
C539 C534 1.382 . S
C539 C538 1.392 . S
H540 C559 0.949 . S
H541 C560 0.950 . S
H542 C562 0.950 . S
H543 C563 0.950 . S
H544 C565 0.950 . S
H545 C568 0.950 . S
H546 C569 0.950 . S
H547 C571 0.951 . S
H548 C572 0.949 . S
H549 C574 0.949 . S
H550 C575 0.950 . S
H551 C577 0.950 . S
H552 C578 0.950 . S
H553 C580 0.950 . S
H554 C583 0.950 . S
H555 C584 0.950 . S
H556 C586 0.951 . S
H557 C587 0.949 . S
C558 C559 1.376 . S
C558 C563 1.386 . S
C558 C564 1.483 . S
C559 H540 0.949 . S
C559 C558 1.376 . S
C559 C560 1.397 . S
C560 H541 0.950 . S
C560 C559 1.397 . S
C560 C561 1.391 . S
C561 C560 1.391 . S
C561 C562 1.405 . S
C562 H542 0.950 . S
C562 C561 1.405 . S
C562 C563 1.367 . S
C563 H543 0.950 . S
C563 C558 1.386 . S
C563 C562 1.367 . S
C564 C558 1.483 . S
C564 C565 1.382 . S
C564 C566 1.403 . S
C565 H544 0.950 . S
C565 C564 1.382 . S
C565 C581 1.411 . S
C566 C564 1.403 . S
C566 C567 1.489 . S
C566 C580 1.411 . S
C567 C566 1.489 . S
C567 C568 1.383 . S
C567 C572 1.382 . S
C568 H545 0.950 . S
C568 C567 1.383 . S
C568 C569 1.395 . S
C569 H546 0.950 . S
C569 C568 1.395 . S
C569 C570 1.288 . S
C570 C569 1.288 . S
C570 C571 1.392 . S
C571 H547 0.951 . S
C571 C570 1.392 . S
C571 C572 1.392 . S
C572 H548 0.949 . S
C572 C567 1.382 . S
C572 C571 1.392 . S
C573 C574 1.376 . S
C573 C578 1.386 . S
C573 C579 1.483 . S
C574 H549 0.949 . S
C574 C573 1.376 . S
C574 C575 1.397 . S
C575 H550 0.950 . S
C575 C574 1.397 . S
C575 C576 1.391 . S
C576 C575 1.391 . S
C576 C577 1.405 . S
C577 H551 0.950 . S
C577 C576 1.405 . S
C577 C578 1.367 . S
C578 H552 0.950 . S
C578 C573 1.386 . S
C578 C577 1.367 . S
C579 C573 1.483 . S
C579 C580 1.382 . S
C579 C581 1.403 . S
C580 H553 0.950 . S
C580 C566 1.411 . S
C580 C579 1.382 . S
C581 C565 1.411 . S
C581 C579 1.403 . S
C581 C582 1.489 . S
C582 C581 1.489 . S
C582 C583 1.383 . S
C582 C587 1.382 . S
C583 H554 0.950 . S
C583 C582 1.383 . S
C583 C584 1.395 . S
C584 H555 0.950 . S
C584 C583 1.395 . S
C584 C585 1.288 . S
C585 C584 1.288 . S
C585 C586 1.392 . S
C586 H556 0.951 . S
C586 C585 1.392 . S
C586 C587 1.392 . S
C587 H557 0.949 . S
C587 C582 1.382 . S
C587 C586 1.392 . S
H588 C607 0.949 . S
H589 C608 0.950 . S
H590 C610 0.950 . S
H591 C611 0.950 . S
H592 C613 0.950 . S
H593 C616 0.950 . S
H594 C617 0.950 . S
H595 C619 0.951 . S
H596 C620 0.949 . S
H597 C622 0.949 . S
H598 C623 0.950 . S
H599 C625 0.950 . S
H600 C626 0.950 . S
H601 C628 0.950 . S
H602 C631 0.950 . S
H603 C632 0.950 . S
H604 C634 0.951 . S
H605 C635 0.949 . S
C606 C607 1.376 . S
C606 C611 1.386 . S
C606 C612 1.483 . S
C607 H588 0.949 . S
C607 C606 1.376 . S
C607 C608 1.397 . S
C608 H589 0.950 . S
C608 C607 1.397 . S
C608 C609 1.391 . S
C609 C608 1.391 . S
C609 C610 1.405 . S
C610 H590 0.950 . S
C610 C609 1.405 . S
C610 C611 1.367 . S
C611 H591 0.950 . S
C611 C606 1.386 . S
C611 C610 1.367 . S
C612 C606 1.483 . S
C612 C613 1.382 . S
C612 C614 1.403 . S
C613 H592 0.950 . S
C613 C612 1.382 . S
C613 C629 1.411 . S
C614 C612 1.403 . S
C614 C615 1.489 . S
C614 C628 1.411 . S
C615 C614 1.489 . S
C615 C616 1.383 . S
C615 C620 1.382 . S
C616 H593 0.950 . S
C616 C615 1.383 . S
C616 C617 1.395 . S
C617 H594 0.950 . S
C617 C616 1.395 . S
C617 C618 1.288 . S
C618 C617 1.288 . S
C618 C619 1.392 . S
C619 H595 0.951 . S
C619 C618 1.392 . S
C619 C620 1.392 . S
C620 H596 0.949 . S
C620 C615 1.382 . S
C620 C619 1.392 . S
C621 C622 1.376 . S
C621 C626 1.386 . S
C621 C627 1.483 . S
C622 H597 0.949 . S
C622 C621 1.376 . S
C622 C623 1.397 . S
C623 H598 0.950 . S
C623 C622 1.397 . S
C623 C624 1.391 . S
C624 C623 1.391 . S
C624 C625 1.405 . S
C625 H599 0.950 . S
C625 C624 1.405 . S
C625 C626 1.367 . S
C626 H600 0.950 . S
C626 C621 1.386 . S
C626 C625 1.367 . S
C627 C621 1.483 . S
C627 C628 1.382 . S
C627 C629 1.403 . S
C628 H601 0.950 . S
C628 C614 1.411 . S
C628 C627 1.382 . S
C629 C613 1.411 . S
C629 C627 1.403 . S
C629 C630 1.489 . S
C630 C629 1.489 . S
C630 C631 1.383 . S
C630 C635 1.382 . S
C631 H602 0.950 . S
C631 C630 1.383 . S
C631 C632 1.395 . S
C632 H603 0.950 . S
C632 C631 1.395 . S
C632 C633 1.288 . S
C633 C632 1.288 . S
C633 C634 1.392 . S
C634 H604 0.951 . S
C634 C633 1.392 . S
C634 C635 1.392 . S
C635 H605 0.949 . S
C635 C630 1.382 . S
C635 C634 1.392 . S
H636 C655 0.949 . S
H637 C656 0.950 . S
H638 C658 0.950 . S
H639 C659 0.950 . S
H640 C661 0.950 . S
H641 C664 0.950 . S
H642 C665 0.950 . S
H643 C667 0.951 . S
H644 C668 0.949 . S
H645 C670 0.949 . S
H646 C671 0.950 . S
H647 C673 0.950 . S
H648 C674 0.950 . S
H649 C676 0.950 . S
H650 C679 0.950 . S
H651 C680 0.950 . S
H652 C682 0.951 . S
H653 C683 0.949 . S
C654 C655 1.376 . S
C654 C659 1.386 . S
C654 C660 1.483 . S
C655 H636 0.949 . S
C655 C654 1.376 . S
C655 C656 1.397 . S
C656 H637 0.950 . S
C656 C655 1.397 . S
C656 C657 1.391 . S
C657 C656 1.391 . S
C657 C658 1.405 . S
C658 H638 0.950 . S
C658 C657 1.405 . S
C658 C659 1.367 . S
C659 H639 0.950 . S
C659 C654 1.386 . S
C659 C658 1.367 . S
C660 C654 1.483 . S
C660 C661 1.382 . S
C660 C662 1.403 . S
C661 H640 0.950 . S
C661 C660 1.382 . S
C661 C677 1.411 . S
C662 C660 1.403 . S
C662 C663 1.489 . S
C662 C676 1.411 . S
C663 C662 1.489 . S
C663 C664 1.383 . S
C663 C668 1.382 . S
C664 H641 0.950 . S
C664 C663 1.383 . S
C664 C665 1.395 . S
C665 H642 0.950 . S
C665 C664 1.395 . S
C665 C666 1.288 . S
C666 C665 1.288 . S
C666 C667 1.392 . S
C667 H643 0.951 . S
C667 C666 1.392 . S
C667 C668 1.392 . S
C668 H644 0.949 . S
C668 C663 1.382 . S
C668 C667 1.392 . S
C669 C670 1.376 . S
C669 C674 1.386 . S
C669 C675 1.483 . S
C670 H645 0.949 . S
C670 C669 1.376 . S
C670 C671 1.397 . S
C671 H646 0.950 . S
C671 C670 1.397 . S
C671 C672 1.391 . S
C672 C671 1.391 . S
C672 C673 1.405 . S
C673 H647 0.950 . S
C673 C672 1.405 . S
C673 C674 1.367 . S
C674 H648 0.950 . S
C674 C669 1.386 . S
C674 C673 1.367 . S
C675 C669 1.483 . S
C675 C676 1.382 . S
C675 C677 1.403 . S
C676 H649 0.950 . S
C676 C662 1.411 . S
C676 C675 1.382 . S
C677 C661 1.411 . S
C677 C675 1.403 . S
C677 C678 1.489 . S
C678 C677 1.489 . S
C678 C679 1.383 . S
C678 C683 1.382 . S
C679 H650 0.950 . S
C679 C678 1.383 . S
C679 C680 1.395 . S
C680 H651 0.950 . S
C680 C679 1.395 . S
C680 C681 1.288 . S
C681 C680 1.288 . S
C681 C682 1.392 . S
C682 H652 0.951 . S
C682 C681 1.392 . S
C682 C683 1.392 . S
C683 H653 0.949 . S
C683 C678 1.382 . S
C683 C682 1.392 . S
H684 C703 0.949 . S
H685 C704 0.950 . S
H686 C706 0.950 . S
H687 C707 0.950 . S
H688 C709 0.950 . S
H689 C712 0.950 . S
H690 C713 0.950 . S
H691 C715 0.951 . S
H692 C716 0.949 . S
H693 C718 0.949 . S
H694 C719 0.950 . S
H695 C721 0.950 . S
H696 C722 0.950 . S
H697 C724 0.950 . S
H698 C727 0.950 . S
H699 C728 0.950 . S
H700 C730 0.951 . S
H701 C731 0.949 . S
C702 C703 1.376 . S
C702 C707 1.386 1_655 S
C702 C708 1.483 . S
C703 H684 0.949 . S
C703 C702 1.376 . S
C703 C704 1.397 . S
C704 H685 0.950 . S
C704 C703 1.397 . S
C704 C705 1.391 . S
C705 C704 1.391 . S
C705 C706 1.405 1_655 S
C706 H686 0.950 . S
C706 C705 1.405 1_455 S
C706 C707 1.367 . S
C707 H687 0.950 . S
C707 C702 1.386 1_455 S
C707 C706 1.367 . S
C708 C702 1.483 . S
C708 C709 1.382 . S
C708 C710 1.403 1_655 S
C709 H688 0.950 . S
C709 C708 1.382 . S
C709 C725 1.411 . S
C710 C708 1.403 1_455 S
C710 C711 1.489 . S
C710 C724 1.411 . S
C711 C710 1.489 . S
C711 C712 1.383 1_455 S
C711 C716 1.382 . S
C712 H689 0.950 . S
C712 C711 1.383 1_655 S
C712 C713 1.395 . S
C713 H690 0.950 . S
C713 C712 1.395 . S
C713 C714 1.288 1_655 S
C714 C713 1.288 1_455 S
C714 C715 1.392 . S
C715 H691 0.951 . S
C715 C714 1.392 . S
C715 C716 1.392 . S
C716 H692 0.949 . S
C716 C711 1.382 . S
C716 C715 1.392 . S
C717 C718 1.376 . S
C717 C722 1.386 1_455 S
C717 C723 1.483 . S
C718 H693 0.949 . S
C718 C717 1.376 . S
C718 C719 1.397 . S
C719 H694 0.950 . S
C719 C718 1.397 . S
C719 C720 1.391 . S
C720 C719 1.391 . S
C720 C721 1.405 1_455 S
C721 H695 0.950 . S
C721 C720 1.405 1_655 S
C721 C722 1.367 . S
C722 H696 0.950 . S
C722 C717 1.386 1_655 S
C722 C721 1.367 . S
C723 C717 1.483 . S
C723 C724 1.382 . S
C723 C725 1.403 1_455 S
C724 H697 0.950 . S
C724 C710 1.411 . S
C724 C723 1.382 . S
C725 C709 1.411 . S
C725 C723 1.403 1_655 S
C725 C726 1.489 . S
C726 C725 1.489 . S
C726 C727 1.383 1_655 S
C726 C731 1.382 . S
C727 H698 0.950 . S
C727 C726 1.383 1_455 S
C727 C728 1.395 . S
C728 H699 0.950 . S
C728 C727 1.395 . S
C728 C729 1.288 1_455 S
C729 C728 1.288 1_655 S
C729 C730 1.392 . S
C730 H700 0.951 . S
C730 C729 1.392 . S
C730 C731 1.392 . S
C731 H701 0.949 . S
C731 C726 1.382 . S
C731 C730 1.392 . S
H732 C751 0.949 . S
H733 C752 0.950 . S
H734 C754 0.950 . S
H735 C755 0.950 . S
H736 C757 0.950 . S
H737 C760 0.950 . S
H738 C761 0.950 . S
H739 C763 0.951 . S
H740 C764 0.949 . S
H741 C766 0.949 . S
H742 C767 0.950 . S
H743 C769 0.950 . S
H744 C770 0.950 . S
H745 C772 0.950 . S
H746 C775 0.950 . S
H747 C776 0.950 . S
H748 C778 0.951 . S
H749 C779 0.949 . S
C750 C751 1.376 . S
C750 C755 1.386 . S
C750 C756 1.483 . S
C751 H732 0.949 . S
C751 C750 1.376 . S
C751 C752 1.397 . S
C752 H733 0.950 . S
C752 C751 1.397 . S
C752 C753 1.391 . S
C753 C752 1.391 . S
C753 C754 1.405 . S
C754 H734 0.950 . S
C754 C753 1.405 . S
C754 C755 1.367 . S
C755 H735 0.950 . S
C755 C750 1.386 . S
C755 C754 1.367 . S
C756 C750 1.483 . S
C756 C757 1.382 . S
C756 C758 1.403 . S
C757 H736 0.950 . S
C757 C756 1.382 . S
C757 C773 1.411 . S
C758 C756 1.403 . S
C758 C759 1.489 . S
C758 C772 1.411 . S
C759 C758 1.489 . S
C759 C760 1.383 . S
C759 C764 1.382 . S
C760 H737 0.950 . S
C760 C759 1.383 . S
C760 C761 1.395 . S
C761 H738 0.950 . S
C761 C760 1.395 . S
C761 C762 1.288 . S
C762 C761 1.288 . S
C762 C763 1.392 . S
C763 H739 0.951 . S
C763 C762 1.392 . S
C763 C764 1.392 . S
C764 H740 0.949 . S
C764 C759 1.382 . S
C764 C763 1.392 . S
C765 C766 1.376 . S
C765 C770 1.386 . S
C765 C771 1.483 . S
C766 H741 0.949 . S
C766 C765 1.376 . S
C766 C767 1.397 . S
C767 H742 0.950 . S
C767 C766 1.397 . S
C767 C768 1.391 . S
C768 C767 1.391 . S
C768 C769 1.405 . S
C769 H743 0.950 . S
C769 C768 1.405 . S
C769 C770 1.367 . S
C770 H744 0.950 . S
C770 C765 1.386 . S
C770 C769 1.367 . S
C771 C765 1.483 . S
C771 C772 1.382 . S
C771 C773 1.403 . S
C772 H745 0.950 . S
C772 C758 1.411 . S
C772 C771 1.382 . S
C773 C757 1.411 . S
C773 C771 1.403 . S
C773 C774 1.489 . S
C774 C773 1.489 . S
C774 C775 1.383 . S
C774 C779 1.382 . S
C775 H746 0.950 . S
C775 C774 1.383 . S
C775 C776 1.395 . S
C776 H747 0.950 . S
C776 C775 1.395 . S
C776 C777 1.288 . S
C777 C776 1.288 . S
C777 C778 1.392 . S
C778 H748 0.951 . S
C778 C777 1.392 . S
C778 C779 1.392 . S
C779 H749 0.949 . S
C779 C774 1.382 . S
C779 C778 1.392 . S
H780 C799 0.949 . S
H781 C800 0.950 . S
H782 C802 0.950 . S
H783 C803 0.950 . S
H784 C805 0.950 . S
H785 C808 0.950 . S
H786 C809 0.950 . S
H787 C811 0.951 . S
H788 C812 0.949 . S
H789 C814 0.949 . S
H790 C815 0.950 . S
H791 C817 0.950 . S
H792 C818 0.950 . S
H793 C820 0.950 . S
H794 C823 0.950 . S
H795 C824 0.950 . S
H796 C826 0.951 . S
H797 C827 0.949 . S
C798 C799 1.376 . S
C798 C803 1.386 1_545 S
C798 C804 1.483 . S
C799 H780 0.949 . S
C799 C798 1.376 . S
C799 C800 1.397 . S
C800 H781 0.950 . S
C800 C799 1.397 . S
C800 C801 1.391 . S
C801 C800 1.391 . S
C801 C802 1.405 1_545 S
C802 H782 0.950 . S
C802 C801 1.405 1_565 S
C802 C803 1.367 . S
C803 H783 0.950 . S
C803 C798 1.386 1_565 S
C803 C802 1.367 . S
C804 C798 1.483 . S
C804 C805 1.382 . S
C804 C806 1.403 1_545 S
C805 H784 0.950 . S
C805 C804 1.382 . S
C805 C821 1.411 . S
C806 C804 1.403 1_565 S
C806 C807 1.489 . S
C806 C820 1.411 . S
C807 C806 1.489 . S
C807 C808 1.383 1_565 S
C807 C812 1.382 . S
C808 H785 0.950 . S
C808 C807 1.383 1_545 S
C808 C809 1.395 . S
C809 H786 0.950 . S
C809 C808 1.395 . S
C809 C810 1.288 1_545 S
C810 C809 1.288 1_565 S
C810 C811 1.392 . S
C811 H787 0.951 . S
C811 C810 1.392 . S
C811 C812 1.392 . S
C812 H788 0.949 . S
C812 C807 1.382 . S
C812 C811 1.392 . S
C813 C814 1.376 . S
C813 C818 1.386 1_565 S
C813 C819 1.483 . S
C814 H789 0.949 . S
C814 C813 1.376 . S
C814 C815 1.397 . S
C815 H790 0.950 . S
C815 C814 1.397 . S
C815 C816 1.391 . S
C816 C815 1.391 . S
C816 C817 1.405 1_565 S
C817 H791 0.950 . S
C817 C816 1.405 1_545 S
C817 C818 1.367 . S
C818 H792 0.950 . S
C818 C813 1.386 1_545 S
C818 C817 1.367 . S
C819 C813 1.483 . S
C819 C820 1.382 . S
C819 C821 1.403 1_565 S
C820 H793 0.950 . S
C820 C806 1.411 . S
C820 C819 1.382 . S
C821 C805 1.411 . S
C821 C819 1.403 1_545 S
C821 C822 1.489 . S
C822 C821 1.489 . S
C822 C823 1.383 1_545 S
C822 C827 1.382 . S
C823 H794 0.950 . S
C823 C822 1.383 1_565 S
C823 C824 1.395 . S
C824 H795 0.950 . S
C824 C823 1.395 . S
C824 C825 1.288 1_565 S
C825 C824 1.288 1_545 S
C825 C826 1.392 . S
C826 H796 0.951 . S
C826 C825 1.392 . S
C826 C827 1.392 . S
C827 H797 0.949 . S
C827 C822 1.382 . S
C827 C826 1.392 . S
H828 C847 0.949 . S
H829 C848 0.950 . S
H830 C850 0.950 . S
H831 C851 0.950 . S
H832 C853 0.950 . S
H833 C856 0.950 . S
H834 C857 0.950 . S
H835 C859 0.951 . S
H836 C860 0.949 . S
H837 C862 0.949 . S
H838 C863 0.950 . S
H839 C865 0.950 . S
H840 C866 0.950 . S
H841 C868 0.950 . S
H842 C871 0.950 . S
H843 C872 0.950 . S
H844 C874 0.951 . S
H845 C875 0.949 . S
C846 C847 1.397 . S
C846 C851 1.376 1_545 S
C846 C852 1.501 . S
C847 H828 0.949 . S
C847 C846 1.397 . S
C847 C848 1.397 . S
C848 H829 0.950 . S
C848 C847 1.397 . S
C848 C849 1.391 1_545 S
C849 C848 1.391 1_565 S
C849 C850 1.405 . S
C850 H830 0.950 . S
C850 C849 1.405 . S
C850 C851 1.367 . S
C851 H831 0.950 . S
C851 C846 1.376 1_565 S
C851 C850 1.367 . S
C852 C846 1.501 . S
C852 C853 1.353 . S
C852 C854 1.400 1_545 S
C853 H832 0.950 . S
C853 C852 1.353 . S
C853 C869 1.442 . S
C854 C852 1.400 1_565 S
C854 C855 1.481 . S
C854 C868 1.433 . S
C855 C854 1.481 . S
C855 C856 1.358 1_565 S
C855 C860 1.394 . S
C856 H833 0.950 . S
C856 C855 1.358 1_545 S
C856 C857 1.395 . S
C857 H834 0.950 . S
C857 C856 1.395 . S
C857 C858 1.288 . S
C858 C857 1.288 . S
C858 C859 1.392 1_545 S
C859 H835 0.951 . S
C859 C858 1.392 1_565 S
C859 C860 1.392 . S
C860 H836 0.949 . S
C860 C855 1.394 . S
C860 C859 1.392 . S
C861 C862 1.384 . S
C861 C866 1.382 1_565 S
C861 C867 1.501 . S
C862 H837 0.949 . S
C862 C861 1.384 . S
C862 C863 1.397 . S
C863 H838 0.950 . S
C863 C862 1.397 . S
C863 C864 1.391 1_565 S
C864 C863 1.391 1_545 S
C864 C865 1.405 . S
C865 H839 0.950 . S
C865 C864 1.405 . S
C865 C866 1.367 . S
C866 H840 0.950 . S
C866 C861 1.382 1_545 S
C866 C865 1.367 . S
C867 C861 1.501 . S
C867 C868 1.360 . S
C867 C869 1.400 1_565 S
C868 H841 0.950 . S
C868 C854 1.433 . S
C868 C867 1.360 . S
C869 C853 1.442 . S
C869 C867 1.400 1_545 S
C869 C870 1.481 . S
C870 C869 1.481 . S
C870 C871 1.341 1_545 S
C870 C875 1.404 . S
C871 H842 0.950 . S
C871 C870 1.341 1_565 S
C871 C872 1.395 . S
C872 H843 0.950 . S
C872 C871 1.395 . S
C872 C873 1.288 . S
C873 C872 1.288 . S
C873 C874 1.392 1_565 S
C874 H844 0.951 . S
C874 C873 1.392 1_545 S
C874 C875 1.392 . S
C875 H845 0.949 . S
C875 C870 1.404 . S
C875 C874 1.392 . S
H876 C895 0.949 . S
H877 C896 0.950 . S
H878 C898 0.950 . S
H879 C899 0.950 . S
H880 C901 0.950 . S
H881 C904 0.950 . S
H882 C905 0.950 . S
H883 C907 0.951 . S
H884 C908 0.949 . S
H885 C910 0.949 . S
H886 C911 0.950 . S
H887 C913 0.950 . S
H888 C914 0.950 . S
H889 C916 0.950 . S
H890 C919 0.950 . S
H891 C920 0.950 . S
H892 C922 0.951 . S
H893 C923 0.949 . S
C894 C895 1.376 . S
C894 C899 1.386 1_455 S
C894 C900 1.483 . S
C895 H876 0.949 . S
C895 C894 1.376 . S
C895 C896 1.397 . S
C896 H877 0.950 . S
C896 C895 1.397 . S
C896 C897 1.391 . S
C897 C896 1.391 . S
C897 C898 1.405 1_455 S
C898 H878 0.950 . S
C898 C897 1.405 1_655 S
C898 C899 1.367 . S
C899 H879 0.950 . S
C899 C894 1.386 1_655 S
C899 C898 1.367 . S
C900 C894 1.483 . S
C900 C901 1.382 . S
C900 C902 1.403 1_455 S
C901 H880 0.950 . S
C901 C900 1.382 . S
C901 C917 1.411 . S
C902 C900 1.403 1_655 S
C902 C903 1.489 . S
C902 C916 1.411 . S
C903 C902 1.489 . S
C903 C904 1.383 1_655 S
C903 C908 1.382 . S
C904 H881 0.950 . S
C904 C903 1.383 1_455 S
C904 C905 1.395 . S
C905 H882 0.950 . S
C905 C904 1.395 . S
C905 C906 1.288 1_455 S
C906 C905 1.288 1_655 S
C906 C907 1.392 . S
C907 H883 0.951 . S
C907 C906 1.392 . S
C907 C908 1.392 . S
C908 H884 0.949 . S
C908 C903 1.382 . S
C908 C907 1.392 . S
C909 C910 1.376 . S
C909 C914 1.386 1_655 S
C909 C915 1.483 . S
C910 H885 0.949 . S
C910 C909 1.376 . S
C910 C911 1.397 . S
C911 H886 0.950 . S
C911 C910 1.397 . S
C911 C912 1.391 . S
C912 C911 1.391 . S
C912 C913 1.405 1_655 S
C913 H887 0.950 . S
C913 C912 1.405 1_455 S
C913 C914 1.367 . S
C914 H888 0.950 . S
C914 C909 1.386 1_455 S
C914 C913 1.367 . S
C915 C909 1.483 . S
C915 C916 1.382 . S
C915 C917 1.403 1_655 S
C916 H889 0.950 . S
C916 C902 1.411 . S
C916 C915 1.382 . S
C917 C901 1.411 . S
C917 C915 1.403 1_455 S
C917 C918 1.489 . S
C918 C917 1.489 . S
C918 C919 1.383 1_455 S
C918 C923 1.382 . S
C919 H890 0.950 . S
C919 C918 1.383 1_655 S
C919 C920 1.395 . S
C920 H891 0.950 . S
C920 C919 1.395 . S
C920 C921 1.288 1_655 S
C921 C920 1.288 1_455 S
C921 C922 1.392 . S
C922 H892 0.951 . S
C922 C921 1.392 . S
C922 C923 1.392 . S
C923 H893 0.949 . S
C923 C918 1.382 . S
C923 C922 1.392 . S
H924 C943 0.949 . S
H925 C944 0.950 . S
H926 C946 0.950 . S
H927 C947 0.950 . S
H928 C949 0.950 . S
H929 C952 0.950 . S
H930 C953 0.950 . S
H931 C955 0.951 . S
H932 C956 0.949 . S
H933 C958 0.949 . S
H934 C959 0.950 . S
H935 C961 0.950 . S
H936 C962 0.950 . S
H937 C964 0.950 . S
H938 C967 0.950 . S
H939 C968 0.950 . S
H940 C970 0.951 . S
H941 C971 0.949 . S
C942 C943 1.376 . S
C942 C947 1.386 . S
C942 C948 1.483 . S
C943 H924 0.949 . S
C943 C942 1.376 . S
C943 C944 1.397 . S
C944 H925 0.950 . S
C944 C943 1.397 . S
C944 C945 1.391 . S
C945 C944 1.391 . S
C945 C946 1.405 . S
C946 H926 0.950 . S
C946 C945 1.405 . S
C946 C947 1.367 . S
C947 H927 0.950 . S
C947 C942 1.386 . S
C947 C946 1.367 . S
C948 C942 1.483 . S
C948 C949 1.382 . S
C948 C950 1.403 . S
C949 H928 0.950 . S
C949 C948 1.382 . S
C949 C965 1.411 . S
C950 C948 1.403 . S
C950 C951 1.489 . S
C950 C964 1.411 . S
C951 C950 1.489 . S
C951 C952 1.383 . S
C951 C956 1.382 . S
C952 H929 0.950 . S
C952 C951 1.383 . S
C952 C953 1.395 . S
C953 H930 0.950 . S
C953 C952 1.395 . S
C953 C954 1.288 . S
C954 C953 1.288 . S
C954 C955 1.392 . S
C955 H931 0.951 . S
C955 C954 1.392 . S
C955 C956 1.392 . S
C956 H932 0.949 . S
C956 C951 1.382 . S
C956 C955 1.392 . S
C957 C958 1.376 . S
C957 C962 1.386 . S
C957 C963 1.483 . S
C958 H933 0.949 . S
C958 C957 1.376 . S
C958 C959 1.397 . S
C959 H934 0.950 . S
C959 C958 1.397 . S
C959 C960 1.391 . S
C960 C959 1.391 . S
C960 C961 1.405 . S
C961 H935 0.950 . S
C961 C960 1.405 . S
C961 C962 1.367 . S
C962 H936 0.950 . S
C962 C957 1.386 . S
C962 C961 1.367 . S
C963 C957 1.483 . S
C963 C964 1.382 . S
C963 C965 1.403 . S
C964 H937 0.950 . S
C964 C950 1.411 . S
C964 C963 1.382 . S
C965 C949 1.411 . S
C965 C963 1.403 . S
C965 C966 1.489 . S
C966 C965 1.489 . S
C966 C967 1.383 . S
C966 C971 1.382 . S
C967 H938 0.950 . S
C967 C966 1.383 . S
C967 C968 1.395 . S
C968 H939 0.950 . S
C968 C967 1.395 . S
C968 C969 1.288 . S
C969 C968 1.288 . S
C969 C970 1.392 . S
C970 H940 0.951 . S
C970 C969 1.392 . S
C970 C971 1.392 . S
C971 H941 0.949 . S
C971 C966 1.382 . S
C971 C970 1.392 . S
H972 C991 0.949 . S
H973 C992 0.950 . S
H974 C994 0.950 . S
H975 C995 0.950 . S
H976 C997 0.950 . S
H977 C1000 0.950 . S
H978 C1001 0.950 . S
H979 C1003 0.951 . S
H980 C1004 0.949 . S
H981 C1006 0.949 . S
H982 C1007 0.950 . S
H983 C1009 0.950 . S
H984 C1010 0.950 . S
H985 C1012 0.950 . S
H986 C1015 0.950 . S
H987 C1016 0.950 . S
H988 C1018 0.951 . S
H989 C1019 0.949 . S
C990 C991 1.376 . S
C990 C995 1.386 . S
C990 C996 1.483 . S
C991 H972 0.949 . S
C991 C990 1.376 . S
C991 C992 1.397 . S
C992 H973 0.950 . S
C992 C991 1.397 . S
C992 C993 1.391 . S
C993 C992 1.391 . S
C993 C994 1.405 . S
C994 H974 0.950 . S
C994 C993 1.405 . S
C994 C995 1.367 . S
C995 H975 0.950 . S
C995 C990 1.386 . S
C995 C994 1.367 . S
C996 C990 1.483 . S
C996 C997 1.382 . S
C996 C998 1.403 . S
C997 H976 0.950 . S
C997 C996 1.382 . S
C997 C1013 1.411 . S
C998 C996 1.403 . S
C998 C999 1.489 . S
C998 C1012 1.411 . S
C999 C998 1.489 . S
C999 C1000 1.383 . S
C999 C1004 1.382 . S
C1000 H977 0.950 . S
C1000 C999 1.383 . S
C1000 C1001 1.395 . S
C1001 H978 0.950 . S
C1001 C1000 1.395 . S
C1001 C1002 1.288 . S
C1002 C1001 1.288 . S
C1002 C1003 1.392 . S
C1003 H979 0.951 . S
C1003 C1002 1.392 . S
C1003 C1004 1.392 . S
C1004 H980 0.949 . S
C1004 C999 1.382 . S
C1004 C1003 1.392 . S
C1005 C1006 1.376 . S
C1005 C1010 1.386 . S
C1005 C1011 1.483 . S
C1006 H981 0.949 . S
C1006 C1005 1.376 . S
C1006 C1007 1.397 . S
C1007 H982 0.950 . S
C1007 C1006 1.397 . S
C1007 C1008 1.391 . S
C1008 C1007 1.391 . S
C1008 C1009 1.405 . S
C1009 H983 0.950 . S
C1009 C1008 1.405 . S
C1009 C1010 1.367 . S
C1010 H984 0.950 . S
C1010 C1005 1.386 . S
C1010 C1009 1.367 . S
C1011 C1005 1.483 . S
C1011 C1012 1.382 . S
C1011 C1013 1.403 . S
C1012 H985 0.950 . S
C1012 C998 1.411 . S
C1012 C1011 1.382 . S
C1013 C997 1.411 . S
C1013 C1011 1.403 . S
C1013 C1014 1.489 . S
C1014 C1013 1.489 . S
C1014 C1015 1.383 . S
C1014 C1019 1.382 . S
C1015 H986 0.950 . S
C1015 C1014 1.383 . S
C1015 C1016 1.395 . S
C1016 H987 0.950 . S
C1016 C1015 1.395 . S
C1016 C1017 1.288 . S
C1017 C1016 1.288 . S
C1017 C1018 1.392 . S
C1018 H988 0.951 . S
C1018 C1017 1.392 . S
C1018 C1019 1.392 . S
C1019 H989 0.949 . S
C1019 C1014 1.382 . S
C1019 C1018 1.392 . S
H1020 C1039 0.949 . S
H1021 C1040 0.950 . S
H1022 C1042 0.950 . S
H1023 C1043 0.950 . S
H1024 C1045 0.950 . S
H1025 C1048 0.950 . S
H1026 C1049 0.950 . S
H1027 C1051 0.951 . S
H1028 C1052 0.949 . S
H1029 C1054 0.949 . S
H1030 C1055 0.950 . S
H1031 C1057 0.950 . S
H1032 C1058 0.950 . S
H1033 C1060 0.950 . S
H1034 C1063 0.950 . S
H1035 C1064 0.950 . S
H1036 C1066 0.951 . S
H1037 C1067 0.949 . S
C1038 C1039 1.376 . S
C1038 C1043 1.386 . S
C1038 C1044 1.483 . S
C1039 H1020 0.949 . S
C1039 C1038 1.376 . S
C1039 C1040 1.397 . S
C1040 H1021 0.950 . S
C1040 C1039 1.397 . S
C1040 C1041 1.391 . S
C1041 C1040 1.391 . S
C1041 C1042 1.405 . S
C1042 H1022 0.950 . S
C1042 C1041 1.405 . S
C1042 C1043 1.367 . S
C1043 H1023 0.950 . S
C1043 C1038 1.386 . S
C1043 C1042 1.367 . S
C1044 C1038 1.483 . S
C1044 C1045 1.382 . S
C1044 C1046 1.403 . S
C1045 H1024 0.950 . S
C1045 C1044 1.382 . S
C1045 C1061 1.411 . S
C1046 C1044 1.403 . S
C1046 C1047 1.489 . S
C1046 C1060 1.411 . S
C1047 C1046 1.489 . S
C1047 C1048 1.383 . S
C1047 C1052 1.382 . S
C1048 H1025 0.950 . S
C1048 C1047 1.383 . S
C1048 C1049 1.395 . S
C1049 H1026 0.950 . S
C1049 C1048 1.395 . S
C1049 C1050 1.288 . S
C1050 C1049 1.288 . S
C1050 C1051 1.392 . S
C1051 H1027 0.951 . S
C1051 C1050 1.392 . S
C1051 C1052 1.392 . S
C1052 H1028 0.949 . S
C1052 C1047 1.382 . S
C1052 C1051 1.392 . S
C1053 C1054 1.376 . S
C1053 C1058 1.386 . S
C1053 C1059 1.483 . S
C1054 H1029 0.949 . S
C1054 C1053 1.376 . S
C1054 C1055 1.397 . S
C1055 H1030 0.950 . S
C1055 C1054 1.397 . S
C1055 C1056 1.391 . S
C1056 C1055 1.391 . S
C1056 C1057 1.405 . S
C1057 H1031 0.950 . S
C1057 C1056 1.405 . S
C1057 C1058 1.367 . S
C1058 H1032 0.950 . S
C1058 C1053 1.386 . S
C1058 C1057 1.367 . S
C1059 C1053 1.483 . S
C1059 C1060 1.382 . S
C1059 C1061 1.403 . S
C1060 H1033 0.950 . S
C1060 C1046 1.411 . S
C1060 C1059 1.382 . S
C1061 C1045 1.411 . S
C1061 C1059 1.403 . S
C1061 C1062 1.489 . S
C1062 C1061 1.489 . S
C1062 C1063 1.383 . S
C1062 C1067 1.382 . S
C1063 H1034 0.950 . S
C1063 C1062 1.383 . S
C1063 C1064 1.395 . S
C1064 H1035 0.950 . S
C1064 C1063 1.395 . S
C1064 C1065 1.288 . S
C1065 C1064 1.288 . S
C1065 C1066 1.392 . S
C1066 H1036 0.951 . S
C1066 C1065 1.392 . S
C1066 C1067 1.392 . S
C1067 H1037 0.949 . S
C1067 C1062 1.382 . S
C1067 C1066 1.392 . S
H1068 C1087 0.949 . S
H1069 C1088 0.950 . S
H1070 C1090 0.950 . S
H1071 C1091 0.950 . S
H1072 C1093 0.950 . S
H1073 C1096 0.950 . S
H1074 C1097 0.950 . S
H1075 C1099 0.951 . S
H1076 C1100 0.949 . S
H1077 C1102 0.949 . S
H1078 C1103 0.950 . S
H1079 C1105 0.950 . S
H1080 C1106 0.950 . S
H1081 C1108 0.950 . S
H1082 C1111 0.950 . S
H1083 C1112 0.950 . S
H1084 C1114 0.951 . S
H1085 C1115 0.949 . S
C1086 C1087 1.376 . S
C1086 C1091 1.386 . S
C1086 C1092 1.483 . S
C1087 H1068 0.949 . S
C1087 C1086 1.376 . S
C1087 C1088 1.397 . S
C1088 H1069 0.950 . S
C1088 C1087 1.397 . S
C1088 C1089 1.391 . S
C1089 C1088 1.391 . S
C1089 C1090 1.405 . S
C1090 H1070 0.950 . S
C1090 C1089 1.405 . S
C1090 C1091 1.367 . S
C1091 H1071 0.950 . S
C1091 C1086 1.386 . S
C1091 C1090 1.367 . S
C1092 C1086 1.483 . S
C1092 C1093 1.382 . S
C1092 C1094 1.403 . S
C1093 H1072 0.950 . S
C1093 C1092 1.382 . S
C1093 C1109 1.411 . S
C1094 C1092 1.403 . S
C1094 C1095 1.489 . S
C1094 C1108 1.411 . S
C1095 C1094 1.489 . S
C1095 C1096 1.383 . S
C1095 C1100 1.382 . S
C1096 H1073 0.950 . S
C1096 C1095 1.383 . S
C1096 C1097 1.395 . S
C1097 H1074 0.950 . S
C1097 C1096 1.395 . S
C1097 C1098 1.288 . S
C1098 C1097 1.288 . S
C1098 C1099 1.392 . S
C1099 H1075 0.951 . S
C1099 C1098 1.392 . S
C1099 C1100 1.392 . S
C1100 H1076 0.949 . S
C1100 C1095 1.382 . S
C1100 C1099 1.392 . S
C1101 C1102 1.376 . S
C1101 C1106 1.386 . S
C1101 C1107 1.483 . S
C1102 H1077 0.949 . S
C1102 C1101 1.376 . S
C1102 C1103 1.397 . S
C1103 H1078 0.950 . S
C1103 C1102 1.397 . S
C1103 C1104 1.391 . S
C1104 C1103 1.391 . S
C1104 C1105 1.405 . S
C1105 H1079 0.950 . S
C1105 C1104 1.405 . S
C1105 C1106 1.367 . S
C1106 H1080 0.950 . S
C1106 C1101 1.386 . S
C1106 C1105 1.367 . S
C1107 C1101 1.483 . S
C1107 C1108 1.382 . S
C1107 C1109 1.403 . S
C1108 H1081 0.950 . S
C1108 C1094 1.411 . S
C1108 C1107 1.382 . S
C1109 C1093 1.411 . S
C1109 C1107 1.403 . S
C1109 C1110 1.489 . S
C1110 C1109 1.489 . S
C1110 C1111 1.383 . S
C1110 C1115 1.382 . S
C1111 H1082 0.950 . S
C1111 C1110 1.383 . S
C1111 C1112 1.395 . S
C1112 H1083 0.950 . S
C1112 C1111 1.395 . S
C1112 C1113 1.288 . S
C1113 C1112 1.288 . S
C1113 C1114 1.392 . S
C1114 H1084 0.951 . S
C1114 C1113 1.392 . S
C1114 C1115 1.392 . S
C1115 H1085 0.949 . S
C1115 C1110 1.382 . S
C1115 C1114 1.392 . S
C1116 C1117 1.391 1_455 S
C1116 C1118 1.394 . S
C1116 H1132 0.931 . S
C1117 C1116 1.391 1_655 S
C1117 C1121 1.376 . S
C1118 C1116 1.394 . S
C1118 C1119 1.369 1_455 S
C1118 C1122 1.531 . S
C1119 C1118 1.369 1_655 S
C1119 C1120 1.410 . S
C1119 C1127 1.503 . S
C1120 C1119 1.410 . S
C1120 C1121 1.392 . S
C1120 C1123 1.511 . S
C1121 C1117 1.376 . S
C1121 C1120 1.392 . S
C1121 H1133 0.929 . S
C1122 C1118 1.531 . S
C1122 H1134 0.960 . S
C1122 H1135 0.962 . S
C1122 H1136 0.960 . S
C1123 C1120 1.511 . S
C1123 H1137 0.961 . S
C1123 H1138 0.961 . S
C1123 H1139 0.961 . S
C1124 C1125 1.370 1_455 S
C1124 C1126 1.363 . S
C1124 H1140 0.931 . S
C1125 C1124 1.370 1_655 S
C1125 C1129 1.408 . S
C1126 C1124 1.363 . S
C1126 C1127 1.370 1_455 S
C1126 C1130 1.524 . S
C1127 C1119 1.503 . S
C1127 C1126 1.370 1_655 S
C1127 C1128 1.403 . S
C1128 C1127 1.403 . S
C1128 C1129 1.404 . S
C1128 C1131 1.539 . S
C1129 C1125 1.408 . S
C1129 C1128 1.404 . S
C1129 H1141 0.930 . S
C1130 C1126 1.524 . S
C1130 H1142 0.956 . S
C1130 H1143 0.961 . S
C1130 H1144 0.961 . S
C1131 C1128 1.539 . S
C1131 H1145 0.958 . S
C1131 H1146 0.961 . S
C1131 H1147 0.960 . S
H1132 C1116 0.931 . S
H1133 C1121 0.929 . S
H1134 C1122 0.960 . S
H1135 C1122 0.962 . S
H1136 C1122 0.960 . S
H1137 C1123 0.961 . S
H1138 C1123 0.961 . S
H1139 C1123 0.961 . S
H1140 C1124 0.931 . S
H1141 C1129 0.930 . S
H1142 C1130 0.956 . S
H1143 C1130 0.961 . S
H1144 C1130 0.961 . S
H1145 C1131 0.958 . S
H1146 C1131 0.961 . S
H1147 C1131 0.960 . S
C1148 C1149 1.391 . S
C1148 C1150 1.394 . S
C1148 H1164 0.931 . S
C1149 C1148 1.391 . S
C1149 C1153 1.376 . S
C1150 C1148 1.394 . S
C1150 C1151 1.369 . S
C1150 C1154 1.531 . S
C1151 C1150 1.369 . S
C1151 C1152 1.410 . S
C1151 C1159 1.503 . S
C1152 C1151 1.410 . S
C1152 C1153 1.392 . S
C1152 C1155 1.511 . S
C1153 C1149 1.376 . S
C1153 C1152 1.392 . S
C1153 H1165 0.929 . S
C1154 C1150 1.531 . S
C1154 H1166 0.960 . S
C1154 H1167 0.962 . S
C1154 H1168 0.960 . S
C1155 C1152 1.511 . S
C1155 H1169 0.961 . S
C1155 H1170 0.961 . S
C1155 H1171 0.961 . S
C1156 C1157 1.370 . S
C1156 C1158 1.363 . S
C1156 H1172 0.931 . S
C1157 C1156 1.370 . S
C1157 C1161 1.408 . S
C1158 C1156 1.363 . S
C1158 C1159 1.370 . S
C1158 C1162 1.524 . S
C1159 C1151 1.503 . S
C1159 C1158 1.370 . S
C1159 C1160 1.403 . S
C1160 C1159 1.403 . S
C1160 C1161 1.404 . S
C1160 C1163 1.539 . S
C1161 C1157 1.408 . S
C1161 C1160 1.404 . S
C1161 H1173 0.930 . S
C1162 C1158 1.524 . S
C1162 H1174 0.956 . S
C1162 H1175 0.961 . S
C1162 H1176 0.961 . S
C1163 C1160 1.539 . S
C1163 H1177 0.958 . S
C1163 H1178 0.961 . S
C1163 H1179 0.960 . S
H1164 C1148 0.931 . S
H1165 C1153 0.929 . S
H1166 C1154 0.960 . S
H1167 C1154 0.962 . S
H1168 C1154 0.960 . S
H1169 C1155 0.961 . S
H1170 C1155 0.961 . S
H1171 C1155 0.961 . S
H1172 C1156 0.931 . S
H1173 C1161 0.930 . S
H1174 C1162 0.956 . S
H1175 C1162 0.961 . S
H1176 C1162 0.961 . S
H1177 C1163 0.958 . S
H1178 C1163 0.961 . S
H1179 C1163 0.960 . S
C1180 C1181 1.391 . S
C1180 C1182 1.394 . S
C1180 H1196 0.931 . S
C1181 C1180 1.391 . S
C1181 C1185 1.376 . S
C1182 C1180 1.394 . S
C1182 C1183 1.369 . S
C1182 C1186 1.531 . S
C1183 C1182 1.369 . S
C1183 C1184 1.410 . S
C1183 C1191 1.503 . S
C1184 C1183 1.410 . S
C1184 C1185 1.392 . S
C1184 C1187 1.511 . S
C1185 C1181 1.376 . S
C1185 C1184 1.392 . S
C1185 H1197 0.929 . S
C1186 C1182 1.531 . S
C1186 H1198 0.960 . S
C1186 H1199 0.962 1_545 S
C1186 H1200 0.960 . S
C1187 C1184 1.511 . S
C1187 H1201 0.961 . S
C1187 H1202 0.961 . S
C1187 H1203 0.961 . S
C1188 C1189 1.370 1_565 S
C1188 C1190 1.363 . S
C1188 H1204 0.931 . S
C1189 C1188 1.370 1_545 S
C1189 C1193 1.408 . S
C1190 C1188 1.363 . S
C1190 C1191 1.370 1_565 S
C1190 C1194 1.524 . S
C1191 C1183 1.503 . S
C1191 C1190 1.370 1_545 S
C1191 C1192 1.403 . S
C1192 C1191 1.403 . S
C1192 C1193 1.404 . S
C1192 C1195 1.539 . S
C1193 C1189 1.408 . S
C1193 C1192 1.404 . S
C1193 H1205 0.930 . S
C1194 C1190 1.524 . S
C1194 H1206 0.956 . S
C1194 H1207 0.961 . S
C1194 H1208 0.961 . S
C1195 C1192 1.539 . S
C1195 H1209 0.958 . S
C1195 H1210 0.961 . S
C1195 H1211 0.960 . S
H1196 C1180 0.931 . S
H1197 C1185 0.929 . S
H1198 C1186 0.960 . S
H1199 C1186 0.962 1_565 S
H1200 C1186 0.960 . S
H1201 C1187 0.961 . S
H1202 C1187 0.961 . S
H1203 C1187 0.961 . S
H1204 C1188 0.931 . S
H1205 C1193 0.930 . S
H1206 C1194 0.956 . S
H1207 C1194 0.961 . S
H1208 C1194 0.961 . S
H1209 C1195 0.958 . S
H1210 C1195 0.961 . S
H1211 C1195 0.960 . S
C1212 C1213 1.454 . S
C1212 C1214 1.394 . S
C1212 H1228 0.931 . S
C1213 C1212 1.454 . S
C1213 C1217 1.341 1_565 S
C1214 C1212 1.394 . S
C1214 C1215 1.369 . S
C1214 C1218 1.531 . S
C1215 C1214 1.369 . S
C1215 C1216 1.410 1_565 S
C1215 C1223 1.503 . S
C1216 C1215 1.410 1_545 S
C1216 C1217 1.392 . S
C1216 C1219 1.511 . S
C1217 C1213 1.341 1_545 S
C1217 C1216 1.392 . S
C1217 H1229 0.929 . S
C1218 C1214 1.531 . S
C1218 H1230 0.960 . S
C1218 H1231 0.962 . S
C1218 H1232 0.960 . S
C1219 C1216 1.511 . S
C1219 H1233 0.961 . S
C1219 H1234 0.961 . S
C1219 H1235 0.961 . S
C1220 C1221 1.370 1_545 S
C1220 C1222 1.363 . S
C1220 H1236 0.931 . S
C1221 C1220 1.370 1_565 S
C1221 C1225 1.408 . S
C1222 C1220 1.363 . S
C1222 C1223 1.370 1_545 S
C1222 C1226 1.524 . S
C1223 C1215 1.503 . S
C1223 C1222 1.370 1_565 S
C1223 C1224 1.403 . S
C1224 C1223 1.403 . S
C1224 C1225 1.404 . S
C1224 C1227 1.539 . S
C1225 C1221 1.408 . S
C1225 C1224 1.404 . S
C1225 H1237 0.930 . S
C1226 C1222 1.524 . S
C1226 H1238 0.956 . S
C1226 H1239 0.961 . S
C1226 H1240 0.961 . S
C1227 C1224 1.539 . S
C1227 H1241 0.958 . S
C1227 H1242 0.961 . S
C1227 H1243 0.960 . S
H1228 C1212 0.931 . S
H1229 C1217 0.929 . S
H1230 C1218 0.960 . S
H1231 C1218 0.962 . S
H1232 C1218 0.960 . S
H1233 C1219 0.961 . S
H1234 C1219 0.961 . S
H1235 C1219 0.961 . S
H1236 C1220 0.931 . S
H1237 C1225 0.930 . S
H1238 C1226 0.956 . S
H1239 C1226 0.961 . S
H1240 C1226 0.961 . S
H1241 C1227 0.958 . S
H1242 C1227 0.961 . S
H1243 C1227 0.960 . S
C1244 C1245 1.391 1_655 S
C1244 C1246 1.394 . S
C1244 H1260 0.931 . S
C1245 C1244 1.391 1_455 S
C1245 C1249 1.376 . S
C1246 C1244 1.394 . S
C1246 C1247 1.369 1_655 S
C1246 C1250 1.531 . S
C1247 C1246 1.369 1_455 S
C1247 C1248 1.410 . S
C1247 C1255 1.503 . S
C1248 C1247 1.410 . S
C1248 C1249 1.392 . S
C1248 C1251 1.511 . S
C1249 C1245 1.376 . S
C1249 C1248 1.392 . S
C1249 H1261 0.929 . S
C1250 C1246 1.531 . S
C1250 H1262 0.960 . S
C1250 H1263 0.962 . S
C1250 H1264 0.960 . S
C1251 C1248 1.511 . S
C1251 H1265 0.961 . S
C1251 H1266 0.961 . S
C1251 H1267 0.961 . S
C1252 C1253 1.370 . S
C1252 C1254 1.363 . S
C1252 H1268 0.931 . S
C1253 C1252 1.370 . S
C1253 C1257 1.408 1_455 S
C1254 C1252 1.363 . S
C1254 C1255 1.370 . S
C1254 C1258 1.524 . S
C1255 C1247 1.503 . S
C1255 C1254 1.370 . S
C1255 C1256 1.403 1_455 S
C1256 C1255 1.403 1_655 S
C1256 C1257 1.404 . S
C1256 C1259 1.539 . S
C1257 C1253 1.408 1_655 S
C1257 C1256 1.404 . S
C1257 H1269 0.930 . S
C1258 C1254 1.524 . S
C1258 H1270 0.956 . S
C1258 H1271 0.961 . S
C1258 H1272 0.961 . S
C1259 C1256 1.539 . S
C1259 H1273 0.958 . S
C1259 H1274 0.961 . S
C1259 H1275 0.960 . S
H1260 C1244 0.931 . S
H1261 C1249 0.929 . S
H1262 C1250 0.960 . S
H1263 C1250 0.962 . S
H1264 C1250 0.960 . S
H1265 C1251 0.961 . S
H1266 C1251 0.961 . S
H1267 C1251 0.961 . S
H1268 C1252 0.931 . S
H1269 C1257 0.930 . S
H1270 C1258 0.956 . S
H1271 C1258 0.961 . S
H1272 C1258 0.961 . S
H1273 C1259 0.958 . S
H1274 C1259 0.961 . S
H1275 C1259 0.960 . S
C1276 C1277 1.391 . S
C1276 C1278 1.394 . S
C1276 H1292 0.931 . S
C1277 C1276 1.391 . S
C1277 C1281 1.376 . S
C1278 C1276 1.394 . S
C1278 C1279 1.369 . S
C1278 C1282 1.531 . S
C1279 C1278 1.369 . S
C1279 C1280 1.410 . S
C1279 C1287 1.503 . S
C1280 C1279 1.410 . S
C1280 C1281 1.392 . S
C1280 C1283 1.511 . S
C1281 C1277 1.376 . S
C1281 C1280 1.392 . S
C1281 H1293 0.929 . S
C1282 C1278 1.531 . S
C1282 H1294 0.960 . S
C1282 H1295 0.962 . S
C1282 H1296 0.960 . S
C1283 C1280 1.511 . S
C1283 H1297 0.961 . S
C1283 H1298 0.961 . S
C1283 H1299 0.961 . S
C1284 C1285 1.370 . S
C1284 C1286 1.363 . S
C1284 H1300 0.931 . S
C1285 C1284 1.370 . S
C1285 C1289 1.408 . S
C1286 C1284 1.363 . S
C1286 C1287 1.370 . S
C1286 C1290 1.524 . S
C1287 C1279 1.503 . S
C1287 C1286 1.370 . S
C1287 C1288 1.403 . S
C1288 C1287 1.403 . S
C1288 C1289 1.404 . S
C1288 C1291 1.539 . S
C1289 C1285 1.408 . S
C1289 C1288 1.404 . S
C1289 H1301 0.930 . S
C1290 C1286 1.524 . S
C1290 H1302 0.956 . S
C1290 H1303 0.961 . S
C1290 H1304 0.961 . S
C1291 C1288 1.539 . S
C1291 H1305 0.958 . S
C1291 H1306 0.961 . S
C1291 H1307 0.960 . S
H1292 C1276 0.931 . S
H1293 C1281 0.929 . S
H1294 C1282 0.960 . S
H1295 C1282 0.962 . S
H1296 C1282 0.960 . S
H1297 C1283 0.961 . S
H1298 C1283 0.961 . S
H1299 C1283 0.961 . S
H1300 C1284 0.931 . S
H1301 C1289 0.930 . S
H1302 C1290 0.956 . S
H1303 C1290 0.961 . S
H1304 C1290 0.961 . S
H1305 C1291 0.958 . S
H1306 C1291 0.961 . S
H1307 C1291 0.960 . S
C1308 C1309 1.391 . S
C1308 C1310 1.394 . S
C1308 H1324 0.931 . S
C1309 C1308 1.391 . S
C1309 C1313 1.376 1_455 S
C1310 C1308 1.394 . S
C1310 C1311 1.369 . S
C1310 C1314 1.531 . S
C1311 C1310 1.369 . S
C1311 C1312 1.410 1_455 S
C1311 C1319 1.503 . S
C1312 C1311 1.410 1_655 S
C1312 C1313 1.392 . S
C1312 C1315 1.511 . S
C1313 C1309 1.376 1_655 S
C1313 C1312 1.392 . S
C1313 H1325 0.929 . S
C1314 C1310 1.531 . S
C1314 H1326 0.960 . S
C1314 H1327 0.962 . S
C1314 H1328 0.960 . S
C1315 C1312 1.511 . S
C1315 H1329 0.961 . S
C1315 H1330 0.961 . S
C1315 H1331 0.961 . S
C1316 C1317 1.370 1_655 S
C1316 C1318 1.363 . S
C1316 H1332 0.931 . S
C1317 C1316 1.370 1_455 S
C1317 C1321 1.408 . S
C1318 C1316 1.363 . S
C1318 C1319 1.370 1_655 S
C1318 C1322 1.524 . S
C1319 C1311 1.503 . S
C1319 C1318 1.370 1_455 S
C1319 C1320 1.403 . S
C1320 C1319 1.403 . S
C1320 C1321 1.404 . S
C1320 C1323 1.539 . S
C1321 C1317 1.408 . S
C1321 C1320 1.404 . S
C1321 H1333 0.930 . S
C1322 C1318 1.524 . S
C1322 H1334 0.956 . S
C1322 H1335 0.961 . S
C1322 H1336 0.961 . S
C1323 C1320 1.539 . S
C1323 H1337 0.958 . S
C1323 H1338 0.961 . S
C1323 H1339 0.960 . S
H1324 C1308 0.931 . S
H1325 C1313 0.929 . S
H1326 C1314 0.960 . S
H1327 C1314 0.962 . S
H1328 C1314 0.960 . S
H1329 C1315 0.961 . S
H1330 C1315 0.961 . S
H1331 C1315 0.961 . S
H1332 C1316 0.931 . S
H1333 C1321 0.930 . S
H1334 C1322 0.956 . S
H1335 C1322 0.961 . S
H1336 C1322 0.961 . S
H1337 C1323 0.958 . S
H1338 C1323 0.961 . S
H1339 C1323 0.960 . S
C1340 C1341 1.391 . S
C1340 C1342 1.394 . S
C1340 H1356 0.931 . S
C1341 C1340 1.391 . S
C1341 C1345 1.376 . S
C1342 C1340 1.394 . S
C1342 C1343 1.369 . S
C1342 C1346 1.531 . S
C1343 C1342 1.369 . S
C1343 C1344 1.410 . S
C1343 C1351 1.503 . S
C1344 C1343 1.410 . S
C1344 C1345 1.392 . S
C1344 C1347 1.511 . S
C1345 C1341 1.376 . S
C1345 C1344 1.392 . S
C1345 H1357 0.929 . S
C1346 C1342 1.531 . S
C1346 H1358 0.960 . S
C1346 H1359 0.962 . S
C1346 H1360 0.960 . S
C1347 C1344 1.511 . S
C1347 H1361 0.961 . S
C1347 H1362 0.961 . S
C1347 H1363 0.961 . S
C1348 C1349 1.370 . S
C1348 C1350 1.363 . S
C1348 H1364 0.931 . S
C1349 C1348 1.370 . S
C1349 C1353 1.408 . S
C1350 C1348 1.363 . S
C1350 C1351 1.370 . S
C1350 C1354 1.524 . S
C1351 C1343 1.503 . S
C1351 C1350 1.370 . S
C1351 C1352 1.403 . S
C1352 C1351 1.403 . S
C1352 C1353 1.404 . S
C1352 C1355 1.539 . S
C1353 C1349 1.408 . S
C1353 C1352 1.404 . S
C1353 H1365 0.930 . S
C1354 C1350 1.524 . S
C1354 H1366 0.956 . S
C1354 H1367 0.961 . S
C1354 H1368 0.961 . S
C1355 C1352 1.539 . S
C1355 H1369 0.958 . S
C1355 H1370 0.961 . S
C1355 H1371 0.960 . S
H1356 C1340 0.931 . S
H1357 C1345 0.929 . S
H1358 C1346 0.960 . S
H1359 C1346 0.962 . S
H1360 C1346 0.960 . S
H1361 C1347 0.961 . S
H1362 C1347 0.961 . S
H1363 C1347 0.961 . S
H1364 C1348 0.931 . S
H1365 C1353 0.930 . S
H1366 C1354 0.956 . S
H1367 C1354 0.961 . S
H1368 C1354 0.961 . S
H1369 C1355 0.958 . S
H1370 C1355 0.961 . S
H1371 C1355 0.960 . S
C1372 C1373 1.391 1_545 S
C1372 C1374 1.394 . S
C1372 H1388 0.931 . S
C1373 C1372 1.391 1_565 S
C1373 C1377 1.376 . S
C1374 C1372 1.394 . S
C1374 C1375 1.383 . S
C1374 C1378 1.531 . S
C1375 C1374 1.383 . S
C1375 C1376 1.379 1_545 S
C1375 C1383 1.534 1_545 S
C1376 C1375 1.379 1_565 S
C1376 C1377 1.392 . S
C1376 C1379 1.511 . S
C1377 C1373 1.376 . S
C1377 C1376 1.392 . S
C1377 H1389 0.929 . S
C1378 C1374 1.531 . S
C1378 H1390 0.960 . S
C1378 H1391 0.962 . S
C1378 H1392 0.960 . S
C1379 C1376 1.511 . S
C1379 H1393 0.961 . S
C1379 H1394 0.961 . S
C1379 H1395 0.961 . S
C1380 C1381 1.370 . S
C1380 C1382 1.363 . S
C1380 H1396 0.931 . S
C1381 C1380 1.370 . S
C1381 C1385 1.408 1_565 S
C1382 C1380 1.363 . S
C1382 C1383 1.386 . S
C1382 C1386 1.524 . S
C1383 C1375 1.534 1_565 S
C1383 C1382 1.386 . S
C1383 C1384 1.372 1_565 S
C1384 C1383 1.372 1_545 S
C1384 C1385 1.404 . S
C1384 C1387 1.539 . S
C1385 C1381 1.408 1_545 S
C1385 C1384 1.404 . S
C1385 H1397 0.930 . S
C1386 C1382 1.524 . S
C1386 H1398 0.956 . S
C1386 H1399 0.961 . S
C1386 H1400 0.961 . S
C1387 C1384 1.539 . S
C1387 H1401 0.958 . S
C1387 H1402 0.961 . S
C1387 H1403 0.960 . S
H1388 C1372 0.931 . S
H1389 C1377 0.929 . S
H1390 C1378 0.960 . S
H1391 C1378 0.962 . S
H1392 C1378 0.960 . S
H1393 C1379 0.961 . S
H1394 C1379 0.961 . S
H1395 C1379 0.961 . S
H1396 C1380 0.931 . S
H1397 C1385 0.930 . S
H1398 C1386 0.956 . S
H1399 C1386 0.961 . S
H1400 C1386 0.961 . S
H1401 C1387 0.958 . S
H1402 C1387 0.961 . S
H1403 C1387 0.960 . S
C1404 C1405 1.391 1_565 S
C1404 C1406 1.394 . S
C1404 H1420 0.931 . S
C1405 C1404 1.391 1_545 S
C1405 C1409 1.376 . S
C1406 C1404 1.394 . S
C1406 C1407 1.369 1_565 S
C1406 C1410 1.531 . S
C1407 C1406 1.369 1_545 S
C1407 C1408 1.410 . S
C1407 C1415 1.503 . S
C1408 C1407 1.410 . S
C1408 C1409 1.392 . S
C1408 C1411 1.511 . S
C1409 C1405 1.376 . S
C1409 C1408 1.392 . S
C1409 H1421 0.929 . S
C1410 C1406 1.531 . S
C1410 H1422 0.960 . S
C1410 H1423 0.962 . S
C1410 H1424 0.960 . S
C1411 C1408 1.511 . S
C1411 H1425 0.961 . S
C1411 H1426 0.961 . S
C1411 H1427 0.961 . S
C1412 C1413 1.370 1_565 S
C1412 C1414 1.363 . S
C1412 H1428 0.931 . S
C1413 C1412 1.370 1_545 S
C1413 C1417 1.408 . S
C1414 C1412 1.363 . S
C1414 C1415 1.370 1_565 S
C1414 C1418 1.524 . S
C1415 C1407 1.503 . S
C1415 C1414 1.370 1_545 S
C1415 C1416 1.403 . S
C1416 C1415 1.403 . S
C1416 C1417 1.404 . S
C1416 C1419 1.539 . S
C1417 C1413 1.408 . S
C1417 C1416 1.404 . S
C1417 H1429 0.930 . S
C1418 C1414 1.524 . S
C1418 H1430 0.956 . S
C1418 H1431 0.961 1_565 S
C1418 H1432 0.961 . S
C1419 C1416 1.539 . S
C1419 H1433 0.958 . S
C1419 H1434 0.961 . S
C1419 H1435 0.960 . S
H1420 C1404 0.931 . S
H1421 C1409 0.929 . S
H1422 C1410 0.960 . S
H1423 C1410 0.962 . S
H1424 C1410 0.960 . S
H1425 C1411 0.961 . S
H1426 C1411 0.961 . S
H1427 C1411 0.961 . S
H1428 C1412 0.931 . S
H1429 C1417 0.930 . S
H1430 C1418 0.956 . S
H1431 C1418 0.961 1_545 S
H1432 C1418 0.961 . S
H1433 C1419 0.958 . S
H1434 C1419 0.961 . S
H1435 C1419 0.960 . S
C1436 C1437 1.391 . S
C1436 C1438 1.394 . S
C1436 H1452 0.931 . S
C1437 C1436 1.391 . S
C1437 C1441 1.376 1_655 S
C1438 C1436 1.394 . S
C1438 C1439 1.369 . S
C1438 C1442 1.531 . S
C1439 C1438 1.369 . S
C1439 C1440 1.410 1_655 S
C1439 C1447 1.503 . S
C1440 C1439 1.410 1_455 S
C1440 C1441 1.392 . S
C1440 C1443 1.511 . S
C1441 C1437 1.376 1_455 S
C1441 C1440 1.392 . S
C1441 H1453 0.929 . S
C1442 C1438 1.531 . S
C1442 H1454 0.960 . S
C1442 H1455 0.962 . S
C1442 H1456 0.960 . S
C1443 C1440 1.511 . S
C1443 H1457 0.961 . S
C1443 H1458 0.961 . S
C1443 H1459 0.961 . S
C1444 C1445 1.370 1_455 S
C1444 C1446 1.363 . S
C1444 H1460 0.931 . S
C1445 C1444 1.370 1_655 S
C1445 C1449 1.408 . S
C1446 C1444 1.363 . S
C1446 C1447 1.370 1_455 S
C1446 C1450 1.524 . S
C1447 C1439 1.503 . S
C1447 C1446 1.370 1_655 S
C1447 C1448 1.403 . S
C1448 C1447 1.403 . S
C1448 C1449 1.404 . S
C1448 C1451 1.539 . S
C1449 C1445 1.408 . S
C1449 C1448 1.404 . S
C1449 H1461 0.930 . S
C1450 C1446 1.524 . S
C1450 H1462 0.956 1_455 S
C1450 H1463 0.961 . S
C1450 H1464 0.961 . S
C1451 C1448 1.539 . S
C1451 H1465 0.958 . S
C1451 H1466 0.961 . S
C1451 H1467 0.960 . S
H1452 C1436 0.931 . S
H1453 C1441 0.929 . S
H1454 C1442 0.960 . S
H1455 C1442 0.962 . S
H1456 C1442 0.960 . S
H1457 C1443 0.961 . S
H1458 C1443 0.961 . S
H1459 C1443 0.961 . S
H1460 C1444 0.931 . S
H1461 C1449 0.930 . S
H1462 C1450 0.956 1_655 S
H1463 C1450 0.961 . S
H1464 C1450 0.961 . S
H1465 C1451 0.958 . S
H1466 C1451 0.961 . S
H1467 C1451 0.960 . S
C1468 C1469 1.391 . S
C1468 C1470 1.394 . S
C1468 H1484 0.931 . S
C1469 C1468 1.391 . S
C1469 C1473 1.376 . S
C1470 C1468 1.394 . S
C1470 C1471 1.369 . S
C1470 C1474 1.531 . S
C1471 C1470 1.369 . S
C1471 C1472 1.410 . S
C1471 C1479 1.503 . S
C1472 C1471 1.410 . S
C1472 C1473 1.392 . S
C1472 C1475 1.511 . S
C1473 C1469 1.376 . S
C1473 C1472 1.392 . S
C1473 H1485 0.929 . S
C1474 C1470 1.531 . S
C1474 H1486 0.960 . S
C1474 H1487 0.962 . S
C1474 H1488 0.960 . S
C1475 C1472 1.511 . S
C1475 H1489 0.961 . S
C1475 H1490 0.961 . S
C1475 H1491 0.961 . S
C1476 C1477 1.370 . S
C1476 C1478 1.363 . S
C1476 H1492 0.931 . S
C1477 C1476 1.370 . S
C1477 C1481 1.408 . S
C1478 C1476 1.363 . S
C1478 C1479 1.370 . S
C1478 C1482 1.524 . S
C1479 C1471 1.503 . S
C1479 C1478 1.370 . S
C1479 C1480 1.403 . S
C1480 C1479 1.403 . S
C1480 C1481 1.404 . S
C1480 C1483 1.539 . S
C1481 C1477 1.408 . S
C1481 C1480 1.404 . S
C1481 H1493 0.930 . S
C1482 C1478 1.524 . S
C1482 H1494 0.956 . S
C1482 H1495 0.961 . S
C1482 H1496 0.961 . S
C1483 C1480 1.539 . S
C1483 H1497 0.958 . S
C1483 H1498 0.961 . S
C1483 H1499 0.960 . S
H1484 C1468 0.931 . S
H1485 C1473 0.929 . S
H1486 C1474 0.960 . S
H1487 C1474 0.962 . S
H1488 C1474 0.960 . S
H1489 C1475 0.961 . S
H1490 C1475 0.961 . S
H1491 C1475 0.961 . S
H1492 C1476 0.931 . S
H1493 C1481 0.930 . S
H1494 C1482 0.956 . S
H1495 C1482 0.961 . S
H1496 C1482 0.961 . S
H1497 C1483 0.958 . S
H1498 C1483 0.961 . S
H1499 C1483 0.960 . S
C1500 C1501 1.391 . S
C1500 C1502 1.394 . S
C1500 H1516 0.931 . S
C1501 C1500 1.391 . S
C1501 C1505 1.376 . S
C1502 C1500 1.394 . S
C1502 C1503 1.369 . S
C1502 C1506 1.531 . S
C1503 C1502 1.369 . S
C1503 C1504 1.410 . S
C1503 C1511 1.503 . S
C1504 C1503 1.410 . S
C1504 C1505 1.392 . S
C1504 C1507 1.511 . S
C1505 C1501 1.376 . S
C1505 C1504 1.392 . S
C1505 H1517 0.929 . S
C1506 C1502 1.531 . S
C1506 H1518 0.960 . S
C1506 H1519 0.962 . S
C1506 H1520 0.960 . S
C1507 C1504 1.511 . S
C1507 H1521 0.961 . S
C1507 H1522 0.961 . S
C1507 H1523 0.961 . S
C1508 C1509 1.370 . S
C1508 C1510 1.363 . S
C1508 H1524 0.931 . S
C1509 C1508 1.370 . S
C1509 C1513 1.408 . S
C1510 C1508 1.363 . S
C1510 C1511 1.370 . S
C1510 C1514 1.524 . S
C1511 C1503 1.503 . S
C1511 C1510 1.370 . S
C1511 C1512 1.403 . S
C1512 C1511 1.403 . S
C1512 C1513 1.404 . S
C1512 C1515 1.539 . S
C1513 C1509 1.408 . S
C1513 C1512 1.404 . S
C1513 H1525 0.930 . S
C1514 C1510 1.524 . S
C1514 H1526 0.956 . S
C1514 H1527 0.961 . S
C1514 H1528 0.961 . S
C1515 C1512 1.539 . S
C1515 H1529 0.958 . S
C1515 H1530 0.961 . S
C1515 H1531 0.960 . S
H1516 C1500 0.931 . S
H1517 C1505 0.929 . S
H1518 C1506 0.960 . S
H1519 C1506 0.962 . S
H1520 C1506 0.960 . S
H1521 C1507 0.961 . S
H1522 C1507 0.961 . S
H1523 C1507 0.961 . S
H1524 C1508 0.931 . S
H1525 C1513 0.930 . S
H1526 C1514 0.956 . S
H1527 C1514 0.961 . S
H1528 C1514 0.961 . S
H1529 C1515 0.958 . S
H1530 C1515 0.961 . S
H1531 C1515 0.960 . S
C1532 C1533 1.391 . S
C1532 C1534 1.394 . S
C1532 H1548 0.931 . S
C1533 C1532 1.391 . S
C1533 C1537 1.376 . S
C1534 C1532 1.394 . S
C1534 C1535 1.369 . S
C1534 C1538 1.531 . S
C1535 C1534 1.369 . S
C1535 C1536 1.410 . S
C1535 C1543 1.503 . S
C1536 C1535 1.410 . S
C1536 C1537 1.392 . S
C1536 C1539 1.511 . S
C1537 C1533 1.376 . S
C1537 C1536 1.392 . S
C1537 H1549 0.929 . S
C1538 C1534 1.531 . S
C1538 H1550 0.960 . S
C1538 H1551 0.962 . S
C1538 H1552 0.960 . S
C1539 C1536 1.511 . S
C1539 H1553 0.961 . S
C1539 H1554 0.961 . S
C1539 H1555 0.961 . S
C1540 C1541 1.370 . S
C1540 C1542 1.363 . S
C1540 H1556 0.931 . S
C1541 C1540 1.370 . S
C1541 C1545 1.408 . S
C1542 C1540 1.363 . S
C1542 C1543 1.370 . S
C1542 C1546 1.524 . S
C1543 C1535 1.503 . S
C1543 C1542 1.370 . S
C1543 C1544 1.403 . S
C1544 C1543 1.403 . S
C1544 C1545 1.404 . S
C1544 C1547 1.539 . S
C1545 C1541 1.408 . S
C1545 C1544 1.404 . S
C1545 H1557 0.930 . S
C1546 C1542 1.524 . S
C1546 H1558 0.956 . S
C1546 H1559 0.961 . S
C1546 H1560 0.961 . S
C1547 C1544 1.539 . S
C1547 H1561 0.958 . S
C1547 H1562 0.961 . S
C1547 H1563 0.960 . S
H1548 C1532 0.931 . S
H1549 C1537 0.929 . S
H1550 C1538 0.960 . S
H1551 C1538 0.962 . S
H1552 C1538 0.960 . S
H1553 C1539 0.961 . S
H1554 C1539 0.961 . S
H1555 C1539 0.961 . S
H1556 C1540 0.931 . S
H1557 C1545 0.930 . S
H1558 C1546 0.956 . S
H1559 C1546 0.961 . S
H1560 C1546 0.961 . S
H1561 C1547 0.958 . S
H1562 C1547 0.961 . S
H1563 C1547 0.960 . S
C1564 C1565 1.391 . S
C1564 C1566 1.394 . S
C1564 H1580 0.931 . S
C1565 C1564 1.391 . S
C1565 C1569 1.376 . S
C1566 C1564 1.394 . S
C1566 C1567 1.369 . S
C1566 C1570 1.531 . S
C1567 C1566 1.369 . S
C1567 C1568 1.410 . S
C1567 C1575 1.503 . S
C1568 C1567 1.410 . S
C1568 C1569 1.392 . S
C1568 C1571 1.511 . S
C1569 C1565 1.376 . S
C1569 C1568 1.392 . S
C1569 H1581 0.929 . S
C1570 C1566 1.531 . S
C1570 H1582 0.960 . S
C1570 H1583 0.962 . S
C1570 H1584 0.960 . S
C1571 C1568 1.511 . S
C1571 H1585 0.961 . S
C1571 H1586 0.961 . S
C1571 H1587 0.961 . S
C1572 C1573 1.370 . S
C1572 C1574 1.363 . S
C1572 H1588 0.931 . S
C1573 C1572 1.370 . S
C1573 C1577 1.408 . S
C1574 C1572 1.363 . S
C1574 C1575 1.370 . S
C1574 C1578 1.524 . S
C1575 C1567 1.503 . S
C1575 C1574 1.370 . S
C1575 C1576 1.403 . S
C1576 C1575 1.403 . S
C1576 C1577 1.404 . S
C1576 C1579 1.539 . S
C1577 C1573 1.408 . S
C1577 C1576 1.404 . S
C1577 H1589 0.930 . S
C1578 C1574 1.524 . S
C1578 H1590 0.956 . S
C1578 H1591 0.961 . S
C1578 H1592 0.961 . S
C1579 C1576 1.539 . S
C1579 H1593 0.958 . S
C1579 H1594 0.961 . S
C1579 H1595 0.960 . S
H1580 C1564 0.931 . S
H1581 C1569 0.929 . S
H1582 C1570 0.960 . S
H1583 C1570 0.962 . S
H1584 C1570 0.960 . S
H1585 C1571 0.961 . S
H1586 C1571 0.961 . S
H1587 C1571 0.961 . S
H1588 C1572 0.931 . S
H1589 C1577 0.930 . S
H1590 C1578 0.956 . S
H1591 C1578 0.961 . S
H1592 C1578 0.961 . S
H1593 C1579 0.958 . S
H1594 C1579 0.961 . S
H1595 C1579 0.960 . S
C1596 C1597 1.391 . S
C1596 C1598 1.394 . S
C1596 H1612 0.931 . S
C1597 C1596 1.391 . S
C1597 C1601 1.376 . S
C1598 C1596 1.394 . S
C1598 C1599 1.369 . S
C1598 C1602 1.531 . S
C1599 C1598 1.369 . S
C1599 C1600 1.410 . S
C1599 C1607 1.503 . S
C1600 C1599 1.410 . S
C1600 C1601 1.392 . S
C1600 C1603 1.511 . S
C1601 C1597 1.376 . S
C1601 C1600 1.392 . S
C1601 H1613 0.929 . S
C1602 C1598 1.531 . S
C1602 H1614 0.960 . S
C1602 H1615 0.962 . S
C1602 H1616 0.960 . S
C1603 C1600 1.511 . S
C1603 H1617 0.961 . S
C1603 H1618 0.961 . S
C1603 H1619 0.961 . S
C1604 C1605 1.370 . S
C1604 C1606 1.363 . S
C1604 H1620 0.931 . S
C1605 C1604 1.370 . S
C1605 C1609 1.408 . S
C1606 C1604 1.363 . S
C1606 C1607 1.370 . S
C1606 C1610 1.524 . S
C1607 C1599 1.503 . S
C1607 C1606 1.370 . S
C1607 C1608 1.403 . S
C1608 C1607 1.403 . S
C1608 C1609 1.404 . S
C1608 C1611 1.539 . S
C1609 C1605 1.408 . S
C1609 C1608 1.404 . S
C1609 H1621 0.930 . S
C1610 C1606 1.524 . S
C1610 H1622 0.956 . S
C1610 H1623 0.961 . S
C1610 H1624 0.961 . S
C1611 C1608 1.539 . S
C1611 H1625 0.958 . S
C1611 H1626 0.961 . S
C1611 H1627 0.960 . S
H1612 C1596 0.931 . S
H1613 C1601 0.929 . S
H1614 C1602 0.960 . S
H1615 C1602 0.962 . S
H1616 C1602 0.960 . S
H1617 C1603 0.961 . S
H1618 C1603 0.961 . S
H1619 C1603 0.961 . S
H1620 C1604 0.931 . S
H1621 C1609 0.930 . S
H1622 C1610 0.956 . S
H1623 C1610 0.961 . S
H1624 C1610 0.961 . S
H1625 C1611 0.958 . S
H1626 C1611 0.961 . S
H1627 C1611 0.960 . S
C1628 C1629 1.391 . S
C1628 C1630 1.394 . S
C1628 H1644 0.931 . S
C1629 C1628 1.391 . S
C1629 C1633 1.376 . S
C1630 C1628 1.394 . S
C1630 C1631 1.369 . S
C1630 C1634 1.531 . S
C1631 C1630 1.369 . S
C1631 C1632 1.410 . S
C1631 C1639 1.503 . S
C1632 C1631 1.410 . S
C1632 C1633 1.392 . S
C1632 C1635 1.511 . S
C1633 C1629 1.376 . S
C1633 C1632 1.392 . S
C1633 H1645 0.929 . S
C1634 C1630 1.531 . S
C1634 H1646 0.960 . S
C1634 H1647 0.962 . S
C1634 H1648 0.960 . S
C1635 C1632 1.511 . S
C1635 H1649 0.961 . S
C1635 H1650 0.961 . S
C1635 H1651 0.961 . S
C1636 C1637 1.370 . S
C1636 C1638 1.363 . S
C1636 H1652 0.931 . S
C1637 C1636 1.370 . S
C1637 C1641 1.408 . S
C1638 C1636 1.363 . S
C1638 C1639 1.370 . S
C1638 C1642 1.524 . S
C1639 C1631 1.503 . S
C1639 C1638 1.370 . S
C1639 C1640 1.403 . S
C1640 C1639 1.403 . S
C1640 C1641 1.404 . S
C1640 C1643 1.539 . S
C1641 C1637 1.408 . S
C1641 C1640 1.404 . S
C1641 H1653 0.930 . S
C1642 C1638 1.524 . S
C1642 H1654 0.956 . S
C1642 H1655 0.961 . S
C1642 H1656 0.961 . S
C1643 C1640 1.539 . S
C1643 H1657 0.958 . S
C1643 H1658 0.961 . S
C1643 H1659 0.960 . S
H1644 C1628 0.931 . S
H1645 C1633 0.929 . S
H1646 C1634 0.960 . S
H1647 C1634 0.962 . S
H1648 C1634 0.960 . S
H1649 C1635 0.961 . S
H1650 C1635 0.961 . S
H1651 C1635 0.961 . S
H1652 C1636 0.931 . S
H1653 C1641 0.930 . S
H1654 C1642 0.956 . S
H1655 C1642 0.961 . S
H1656 C1642 0.961 . S
H1657 C1643 0.958 . S
H1658 C1643 0.961 . S
H1659 C1643 0.960 . S
C1660 C1661 1.391 . S
C1660 C1662 1.394 . S
C1660 H1676 0.931 . S
C1661 C1660 1.391 . S
C1661 C1665 1.376 . S
C1662 C1660 1.394 . S
C1662 C1663 1.369 . S
C1662 C1666 1.531 . S
C1663 C1662 1.369 . S
C1663 C1664 1.410 . S
C1663 C1671 1.503 . S
C1664 C1663 1.410 . S
C1664 C1665 1.392 . S
C1664 C1667 1.511 . S
C1665 C1661 1.376 . S
C1665 C1664 1.392 . S
C1665 H1677 0.929 . S
C1666 C1662 1.531 . S
C1666 H1678 0.960 . S
C1666 H1679 0.962 . S
C1666 H1680 0.960 . S
C1667 C1664 1.511 . S
C1667 H1681 0.961 . S
C1667 H1682 0.961 . S
C1667 H1683 0.961 . S
C1668 C1669 1.370 . S
C1668 C1670 1.363 . S
C1668 H1684 0.931 . S
C1669 C1668 1.370 . S
C1669 C1673 1.408 . S
C1670 C1668 1.363 . S
C1670 C1671 1.370 . S
C1670 C1674 1.524 . S
C1671 C1663 1.503 . S
C1671 C1670 1.370 . S
C1671 C1672 1.403 . S
C1672 C1671 1.403 . S
C1672 C1673 1.404 . S
C1672 C1675 1.539 . S
C1673 C1669 1.408 . S
C1673 C1672 1.404 . S
C1673 H1685 0.930 . S
C1674 C1670 1.524 . S
C1674 H1686 0.956 . S
C1674 H1687 0.961 . S
C1674 H1688 0.961 . S
C1675 C1672 1.539 . S
C1675 H1689 0.958 . S
C1675 H1690 0.961 . S
C1675 H1691 0.960 . S
H1676 C1660 0.931 . S
H1677 C1665 0.929 . S
H1678 C1666 0.960 . S
H1679 C1666 0.962 . S
H1680 C1666 0.960 . S
H1681 C1667 0.961 . S
H1682 C1667 0.961 . S
H1683 C1667 0.961 . S
H1684 C1668 0.931 . S
H1685 C1673 0.930 . S
H1686 C1674 0.956 . S
H1687 C1674 0.961 . S
H1688 C1674 0.961 . S
H1689 C1675 0.958 . S
H1690 C1675 0.961 . S
H1691 C1675 0.960 . S
C1692 C1693 1.391 . S
C1692 C1694 1.394 . S
C1692 H1708 0.931 . S
C1693 C1692 1.391 . S
C1693 C1697 1.376 . S
C1694 C1692 1.394 . S
C1694 C1695 1.369 . S
C1694 C1698 1.531 . S
C1695 C1694 1.369 . S
C1695 C1696 1.410 . S
C1695 C1703 1.503 . S
C1696 C1695 1.410 . S
C1696 C1697 1.392 . S
C1696 C1699 1.511 . S
C1697 C1693 1.376 . S
C1697 C1696 1.392 . S
C1697 H1709 0.929 . S
C1698 C1694 1.531 . S
C1698 H1710 0.960 . S
C1698 H1711 0.962 . S
C1698 H1712 0.960 . S
C1699 C1696 1.511 . S
C1699 H1713 0.961 . S
C1699 H1714 0.961 . S
C1699 H1715 0.961 . S
C1700 C1701 1.370 . S
C1700 C1702 1.363 . S
C1700 H1716 0.931 . S
C1701 C1700 1.370 . S
C1701 C1705 1.408 . S
C1702 C1700 1.363 . S
C1702 C1703 1.370 . S
C1702 C1706 1.524 . S
C1703 C1695 1.503 . S
C1703 C1702 1.370 . S
C1703 C1704 1.403 . S
C1704 C1703 1.403 . S
C1704 C1705 1.404 . S
C1704 C1707 1.539 . S
C1705 C1701 1.408 . S
C1705 C1704 1.404 . S
C1705 H1717 0.930 . S
C1706 C1702 1.524 . S
C1706 H1718 0.956 . S
C1706 H1719 0.961 . S
C1706 H1720 0.961 . S
C1707 C1704 1.539 . S
C1707 H1721 0.958 . S
C1707 H1722 0.961 . S
C1707 H1723 0.960 . S
H1708 C1692 0.931 . S
H1709 C1697 0.929 . S
H1710 C1698 0.960 . S
H1711 C1698 0.962 . S
H1712 C1698 0.960 . S
H1713 C1699 0.961 . S
H1714 C1699 0.961 . S
H1715 C1699 0.961 . S
H1716 C1700 0.931 . S
H1717 C1705 0.930 . S
H1718 C1706 0.956 . S
H1719 C1706 0.961 . S
H1720 C1706 0.961 . S
H1721 C1707 0.958 . S
H1722 C1707 0.961 . S
H1723 C1707 0.960 . S
C1724 C1725 1.391 . S
C1724 C1726 1.394 . S
C1724 H1740 0.931 . S
C1725 C1724 1.391 . S
C1725 C1729 1.376 . S
C1726 C1724 1.394 . S
C1726 C1727 1.369 . S
C1726 C1730 1.531 . S
C1727 C1726 1.369 . S
C1727 C1728 1.410 . S
C1727 C1735 1.503 . S
C1728 C1727 1.410 . S
C1728 C1729 1.392 . S
C1728 C1731 1.511 . S
C1729 C1725 1.376 . S
C1729 C1728 1.392 . S
C1729 H1741 0.929 . S
C1730 C1726 1.531 . S
C1730 H1742 0.960 . S
C1730 H1743 0.962 . S
C1730 H1744 0.960 . S
C1731 C1728 1.511 . S
C1731 H1745 0.961 . S
C1731 H1746 0.961 . S
C1731 H1747 0.961 . S
C1732 C1733 1.370 . S
C1732 C1734 1.363 . S
C1732 H1748 0.931 . S
C1733 C1732 1.370 . S
C1733 C1737 1.408 . S
C1734 C1732 1.363 . S
C1734 C1735 1.370 . S
C1734 C1738 1.524 . S
C1735 C1727 1.503 . S
C1735 C1734 1.370 . S
C1735 C1736 1.403 . S
C1736 C1735 1.403 . S
C1736 C1737 1.404 . S
C1736 C1739 1.539 . S
C1737 C1733 1.408 . S
C1737 C1736 1.404 . S
C1737 H1749 0.930 . S
C1738 C1734 1.524 . S
C1738 H1750 0.956 . S
C1738 H1751 0.961 . S
C1738 H1752 0.961 . S
C1739 C1736 1.539 . S
C1739 H1753 0.958 . S
C1739 H1754 0.961 . S
C1739 H1755 0.960 . S
H1740 C1724 0.931 . S
H1741 C1729 0.929 . S
H1742 C1730 0.960 . S
H1743 C1730 0.962 . S
H1744 C1730 0.960 . S
H1745 C1731 0.961 . S
H1746 C1731 0.961 . S
H1747 C1731 0.961 . S
H1748 C1732 0.931 . S
H1749 C1737 0.930 . S
H1750 C1738 0.956 . S
H1751 C1738 0.961 . S
H1752 C1738 0.961 . S
H1753 C1739 0.958 . S
H1754 C1739 0.961 . S
H1755 C1739 0.960 . S
C1756 C1757 1.391 . S
C1756 C1758 1.394 . S
C1756 H1772 0.931 . S
C1757 C1756 1.391 . S
C1757 C1761 1.376 . S
C1758 C1756 1.394 . S
C1758 C1759 1.369 . S
C1758 C1762 1.531 . S
C1759 C1758 1.369 . S
C1759 C1760 1.410 . S
C1759 C1767 1.503 . S
C1760 C1759 1.410 . S
C1760 C1761 1.392 . S
C1760 C1763 1.511 . S
C1761 C1757 1.376 . S
C1761 C1760 1.392 . S
C1761 H1773 0.929 . S
C1762 C1758 1.531 . S
C1762 H1774 0.960 . S
C1762 H1775 0.962 . S
C1762 H1776 0.960 . S
C1763 C1760 1.511 . S
C1763 H1777 0.961 . S
C1763 H1778 0.961 . S
C1763 H1779 0.961 . S
C1764 C1765 1.370 . S
C1764 C1766 1.363 . S
C1764 H1780 0.931 . S
C1765 C1764 1.370 . S
C1765 C1769 1.408 . S
C1766 C1764 1.363 . S
C1766 C1767 1.370 . S
C1766 C1770 1.524 . S
C1767 C1759 1.503 . S
C1767 C1766 1.370 . S
C1767 C1768 1.403 . S
C1768 C1767 1.403 . S
C1768 C1769 1.404 . S
C1768 C1771 1.539 . S
C1769 C1765 1.408 . S
C1769 C1768 1.404 . S
C1769 H1781 0.930 . S
C1770 C1766 1.524 . S
C1770 H1782 0.956 . S
C1770 H1783 0.961 . S
C1770 H1784 0.961 . S
C1771 C1768 1.539 . S
C1771 H1785 0.958 . S
C1771 H1786 0.961 . S
C1771 H1787 0.960 . S
H1772 C1756 0.931 . S
H1773 C1761 0.929 . S
H1774 C1762 0.960 . S
H1775 C1762 0.962 . S
H1776 C1762 0.960 . S
H1777 C1763 0.961 . S
H1778 C1763 0.961 . S
H1779 C1763 0.961 . S
H1780 C1764 0.931 . S
H1781 C1769 0.930 . S
H1782 C1770 0.956 . S
H1783 C1770 0.961 . S
H1784 C1770 0.961 . S
H1785 C1771 0.958 . S
H1786 C1771 0.961 . S
H1787 C1771 0.960 . S
C1788 C1789 1.391 . S
C1788 C1790 1.394 . S
C1788 H1804 0.931 . S
C1789 C1788 1.391 . S
C1789 C1793 1.376 . S
C1790 C1788 1.394 . S
C1790 C1791 1.369 . S
C1790 C1794 1.531 . S
C1791 C1790 1.369 . S
C1791 C1792 1.410 . S
C1791 C1799 1.503 . S
C1792 C1791 1.410 . S
C1792 C1793 1.392 . S
C1792 C1795 1.511 . S
C1793 C1789 1.376 . S
C1793 C1792 1.392 . S
C1793 H1805 0.929 . S
C1794 C1790 1.531 . S
C1794 H1806 0.960 . S
C1794 H1807 0.962 . S
C1794 H1808 0.960 . S
C1795 C1792 1.511 . S
C1795 H1809 0.961 . S
C1795 H1810 0.961 . S
C1795 H1811 0.961 . S
C1796 C1797 1.370 . S
C1796 C1798 1.363 . S
C1796 H1812 0.931 . S
C1797 C1796 1.370 . S
C1797 C1801 1.408 . S
C1798 C1796 1.363 . S
C1798 C1799 1.370 . S
C1798 C1802 1.524 . S
C1799 C1791 1.503 . S
C1799 C1798 1.370 . S
C1799 C1800 1.403 . S
C1800 C1799 1.403 . S
C1800 C1801 1.404 . S
C1800 C1803 1.539 . S
C1801 C1797 1.408 . S
C1801 C1800 1.404 . S
C1801 H1813 0.930 . S
C1802 C1798 1.524 . S
C1802 H1814 0.956 . S
C1802 H1815 0.961 . S
C1802 H1816 0.961 . S
C1803 C1800 1.539 . S
C1803 H1817 0.958 . S
C1803 H1818 0.961 . S
C1803 H1819 0.960 . S
H1804 C1788 0.931 . S
H1805 C1793 0.929 . S
H1806 C1794 0.960 . S
H1807 C1794 0.962 . S
H1808 C1794 0.960 . S
H1809 C1795 0.961 . S
H1810 C1795 0.961 . S
H1811 C1795 0.961 . S
H1812 C1796 0.931 . S
H1813 C1801 0.930 . S
H1814 C1802 0.956 . S
H1815 C1802 0.961 . S
H1816 C1802 0.961 . S
H1817 C1803 0.958 . S
H1818 C1803 0.961 . S
H1819 C1803 0.960 . S
C1820 C1821 1.391 . S
C1820 C1822 1.394 . S
C1820 H1836 0.931 . S
C1821 C1820 1.391 . S
C1821 C1825 1.376 . S
C1822 C1820 1.394 . S
C1822 C1823 1.369 . S
C1822 C1826 1.531 . S
C1823 C1822 1.369 . S
C1823 C1824 1.410 . S
C1823 C1831 1.503 . S
C1824 C1823 1.410 . S
C1824 C1825 1.392 . S
C1824 C1827 1.511 . S
C1825 C1821 1.376 . S
C1825 C1824 1.392 . S
C1825 H1837 0.929 . S
C1826 C1822 1.531 . S
C1826 H1838 0.960 . S
C1826 H1839 0.962 . S
C1826 H1840 0.960 . S
C1827 C1824 1.511 . S
C1827 H1841 0.961 . S
C1827 H1842 0.961 . S
C1827 H1843 0.961 . S
C1828 C1829 1.370 . S
C1828 C1830 1.363 . S
C1828 H1844 0.931 . S
C1829 C1828 1.370 . S
C1829 C1833 1.408 . S
C1830 C1828 1.363 . S
C1830 C1831 1.370 . S
C1830 C1834 1.524 . S
C1831 C1823 1.503 . S
C1831 C1830 1.370 . S
C1831 C1832 1.403 . S
C1832 C1831 1.403 . S
C1832 C1833 1.404 . S
C1832 C1835 1.539 . S
C1833 C1829 1.408 . S
C1833 C1832 1.404 . S
C1833 H1845 0.930 . S
C1834 C1830 1.524 . S
C1834 H1846 0.956 . S
C1834 H1847 0.961 . S
C1834 H1848 0.961 . S
C1835 C1832 1.539 . S
C1835 H1849 0.958 . S
C1835 H1850 0.961 . S
C1835 H1851 0.960 . S
H1836 C1820 0.931 . S
H1837 C1825 0.929 . S
H1838 C1826 0.960 . S
H1839 C1826 0.962 . S
H1840 C1826 0.960 . S
H1841 C1827 0.961 . S
H1842 C1827 0.961 . S
H1843 C1827 0.961 . S
H1844 C1828 0.931 . S
H1845 C1833 0.930 . S
H1846 C1834 0.956 . S
H1847 C1834 0.961 . S
H1848 C1834 0.961 . S
H1849 C1835 0.958 . S
H1850 C1835 0.961 . S
H1851 C1835 0.960 . S
C1852 C1853 1.391 . S
C1852 C1854 1.394 . S
C1852 H1868 0.931 . S
C1853 C1852 1.391 . S
C1853 C1857 1.376 . S
C1854 C1852 1.394 . S
C1854 C1855 1.369 . S
C1854 C1858 1.531 . S
C1855 C1854 1.369 . S
C1855 C1856 1.410 . S
C1855 C1863 1.503 . S
C1856 C1855 1.410 . S
C1856 C1857 1.392 . S
C1856 C1859 1.511 . S
C1857 C1853 1.376 . S
C1857 C1856 1.392 . S
C1857 H1869 0.929 . S
C1858 C1854 1.531 . S
C1858 H1870 0.960 . S
C1858 H1871 0.962 . S
C1858 H1872 0.960 . S
C1859 C1856 1.511 . S
C1859 H1873 0.961 . S
C1859 H1874 0.961 . S
C1859 H1875 0.961 . S
C1860 C1861 1.370 . S
C1860 C1862 1.363 . S
C1860 H1876 0.931 . S
C1861 C1860 1.370 . S
C1861 C1865 1.408 . S
C1862 C1860 1.363 . S
C1862 C1863 1.370 . S
C1862 C1866 1.524 . S
C1863 C1855 1.503 . S
C1863 C1862 1.370 . S
C1863 C1864 1.403 . S
C1864 C1863 1.403 . S
C1864 C1865 1.404 . S
C1864 C1867 1.539 . S
C1865 C1861 1.408 . S
C1865 C1864 1.404 . S
C1865 H1877 0.930 . S
C1866 C1862 1.524 . S
C1866 H1878 0.956 . S
C1866 H1879 0.961 . S
C1866 H1880 0.961 . S
C1867 C1864 1.539 . S
C1867 H1881 0.958 . S
C1867 H1882 0.961 . S
C1867 H1883 0.960 . S
H1868 C1852 0.931 . S
H1869 C1857 0.929 . S
H1870 C1858 0.960 . S
H1871 C1858 0.962 . S
H1872 C1858 0.960 . S
H1873 C1859 0.961 . S
H1874 C1859 0.961 . S
H1875 C1859 0.961 . S
H1876 C1860 0.931 . S
H1877 C1865 0.930 . S
H1878 C1866 0.956 . S
H1879 C1866 0.961 . S
H1880 C1866 0.961 . S
H1881 C1867 0.958 . S
H1882 C1867 0.961 . S
H1883 C1867 0.960 . S
C1884 C1885 1.391 . S
C1884 C1886 1.394 . S
C1884 H1900 0.931 . S
C1885 C1884 1.391 . S
C1885 C1889 1.376 . S
C1886 C1884 1.394 . S
C1886 C1887 1.369 . S
C1886 C1890 1.531 . S
C1887 C1886 1.369 . S
C1887 C1888 1.410 . S
C1887 C1895 1.503 . S
C1888 C1887 1.410 . S
C1888 C1889 1.392 . S
C1888 C1891 1.511 . S
C1889 C1885 1.376 . S
C1889 C1888 1.392 . S
C1889 H1901 0.929 . S
C1890 C1886 1.531 . S
C1890 H1902 0.960 . S
C1890 H1903 0.962 . S
C1890 H1904 0.960 . S
C1891 C1888 1.511 . S
C1891 H1905 0.961 . S
C1891 H1906 0.961 . S
C1891 H1907 0.961 . S
C1892 C1893 1.370 . S
C1892 C1894 1.363 . S
C1892 H1908 0.931 . S
C1893 C1892 1.370 . S
C1893 C1897 1.408 . S
C1894 C1892 1.363 . S
C1894 C1895 1.370 . S
C1894 C1898 1.524 . S
C1895 C1887 1.503 . S
C1895 C1894 1.370 . S
C1895 C1896 1.403 . S
C1896 C1895 1.403 . S
C1896 C1897 1.404 . S
C1896 C1899 1.539 . S
C1897 C1893 1.408 . S
C1897 C1896 1.404 . S
C1897 H1909 0.930 . S
C1898 C1894 1.524 . S
C1898 H1910 0.956 . S
C1898 H1911 0.961 . S
C1898 H1912 0.961 . S
C1899 C1896 1.539 . S
C1899 H1913 0.958 . S
C1899 H1914 0.961 . S
C1899 H1915 0.960 . S
H1900 C1884 0.931 . S
H1901 C1889 0.929 . S
H1902 C1890 0.960 . S
H1903 C1890 0.962 . S
H1904 C1890 0.960 . S
H1905 C1891 0.961 . S
H1906 C1891 0.961 . S
H1907 C1891 0.961 . S
H1908 C1892 0.931 . S
H1909 C1897 0.930 . S
H1910 C1898 0.956 . S
H1911 C1898 0.961 . S
H1912 C1898 0.961 . S
H1913 C1899 0.958 . S
H1914 C1899 0.961 . S
H1915 C1899 0.960 . S
C1916 C1917 1.391 . S
C1916 C1918 1.394 . S
C1916 H1932 0.931 . S
C1917 C1916 1.391 . S
C1917 C1921 1.376 . S
C1918 C1916 1.394 . S
C1918 C1919 1.369 . S
C1918 C1922 1.531 . S
C1919 C1918 1.369 . S
C1919 C1920 1.410 . S
C1919 C1927 1.503 . S
C1920 C1919 1.410 . S
C1920 C1921 1.392 . S
C1920 C1923 1.511 . S
C1921 C1917 1.376 . S
C1921 C1920 1.392 . S
C1921 H1933 0.929 . S
C1922 C1918 1.531 . S
C1922 H1934 0.960 . S
C1922 H1935 0.962 . S
C1922 H1936 0.960 . S
C1923 C1920 1.511 . S
C1923 H1937 0.961 . S
C1923 H1938 0.961 . S
C1923 H1939 0.961 . S
C1924 C1925 1.370 . S
C1924 C1926 1.363 . S
C1924 H1940 0.931 . S
C1925 C1924 1.370 . S
C1925 C1929 1.408 . S
C1926 C1924 1.363 . S
C1926 C1927 1.370 . S
C1926 C1930 1.524 . S
C1927 C1919 1.503 . S
C1927 C1926 1.370 . S
C1927 C1928 1.403 . S
C1928 C1927 1.403 . S
C1928 C1929 1.404 . S
C1928 C1931 1.539 . S
C1929 C1925 1.408 . S
C1929 C1928 1.404 . S
C1929 H1941 0.930 . S
C1930 C1926 1.524 . S
C1930 H1942 0.956 . S
C1930 H1943 0.961 . S
C1930 H1944 0.961 . S
C1931 C1928 1.539 . S
C1931 H1945 0.958 . S
C1931 H1946 0.961 . S
C1931 H1947 0.960 . S
H1932 C1916 0.931 . S
H1933 C1921 0.929 . S
H1934 C1922 0.960 . S
H1935 C1922 0.962 . S
H1936 C1922 0.960 . S
H1937 C1923 0.961 . S
H1938 C1923 0.961 . S
H1939 C1923 0.961 . S
H1940 C1924 0.931 . S
H1941 C1929 0.930 . S
H1942 C1930 0.956 . S
H1943 C1930 0.961 . S
H1944 C1930 0.961 . S
H1945 C1931 0.958 . S
H1946 C1931 0.961 . S
H1947 C1931 0.960 . S
C1948 C1949 1.391 . S
C1948 C1950 1.394 . S
C1948 H1964 0.931 . S
C1949 C1948 1.391 . S
C1949 C1953 1.376 . S
C1950 C1948 1.394 . S
C1950 C1951 1.369 . S
C1950 C1954 1.531 . S
C1951 C1950 1.369 . S
C1951 C1952 1.410 . S
C1951 C1959 1.503 . S
C1952 C1951 1.410 . S
C1952 C1953 1.392 . S
C1952 C1955 1.511 . S
C1953 C1949 1.376 . S
C1953 C1952 1.392 . S
C1953 H1965 0.929 . S
C1954 C1950 1.531 . S
C1954 H1966 0.960 . S
C1954 H1967 0.962 . S
C1954 H1968 0.960 . S
C1955 C1952 1.511 . S
C1955 H1969 0.961 . S
C1955 H1970 0.961 . S
C1955 H1971 0.961 . S
C1956 C1957 1.370 . S
C1956 C1958 1.363 . S
C1956 H1972 0.931 . S
C1957 C1956 1.370 . S
C1957 C1961 1.408 . S
C1958 C1956 1.363 . S
C1958 C1959 1.370 . S
C1958 C1962 1.524 . S
C1959 C1951 1.503 . S
C1959 C1958 1.370 . S
C1959 C1960 1.403 . S
C1960 C1959 1.403 . S
C1960 C1961 1.404 . S
C1960 C1963 1.539 . S
C1961 C1957 1.408 . S
C1961 C1960 1.404 . S
C1961 H1973 0.930 . S
C1962 C1958 1.524 . S
C1962 H1974 0.956 . S
C1962 H1975 0.961 . S
C1962 H1976 0.961 . S
C1963 C1960 1.539 . S
C1963 H1977 0.958 . S
C1963 H1978 0.961 . S
C1963 H1979 0.960 . S
H1964 C1948 0.931 . S
H1965 C1953 0.929 . S
H1966 C1954 0.960 . S
H1967 C1954 0.962 . S
H1968 C1954 0.960 . S
H1969 C1955 0.961 . S
H1970 C1955 0.961 . S
H1971 C1955 0.961 . S
H1972 C1956 0.931 . S
H1973 C1961 0.930 . S
H1974 C1962 0.956 . S
H1975 C1962 0.961 . S
H1976 C1962 0.961 . S
H1977 C1963 0.958 . S
H1978 C1963 0.961 . S
H1979 C1963 0.960 . S
C1980 C1981 1.391 . S
C1980 C1982 1.394 . S
C1980 H1996 0.931 . S
C1981 C1980 1.391 . S
C1981 C1985 1.376 . S
C1982 C1980 1.394 . S
C1982 C1983 1.369 . S
C1982 C1986 1.531 . S
C1983 C1982 1.369 . S
C1983 C1984 1.410 . S
C1983 C1991 1.503 . S
C1984 C1983 1.410 . S
C1984 C1985 1.392 . S
C1984 C1987 1.511 . S
C1985 C1981 1.376 . S
C1985 C1984 1.392 . S
C1985 H1997 0.929 . S
C1986 C1982 1.531 . S
C1986 H1998 0.960 . S
C1986 H1999 0.962 . S
C1986 H2000 0.960 . S
C1987 C1984 1.511 . S
C1987 H2001 0.961 . S
C1987 H2002 0.961 . S
C1987 H2003 0.961 . S
C1988 C1989 1.370 . S
C1988 C1990 1.363 . S
C1988 H2004 0.931 . S
C1989 C1988 1.370 . S
C1989 C1993 1.408 . S
C1990 C1988 1.363 . S
C1990 C1991 1.370 . S
C1990 C1994 1.524 . S
C1991 C1983 1.503 . S
C1991 C1990 1.370 . S
C1991 C1992 1.403 . S
C1992 C1991 1.403 . S
C1992 C1993 1.404 . S
C1992 C1995 1.539 . S
C1993 C1989 1.408 . S
C1993 C1992 1.404 . S
C1993 H2005 0.930 . S
C1994 C1990 1.524 . S
C1994 H2006 0.956 . S
C1994 H2007 0.961 . S
C1994 H2008 0.961 . S
C1995 C1992 1.539 . S
C1995 H2009 0.958 . S
C1995 H2010 0.961 . S
C1995 H2011 0.960 . S
H1996 C1980 0.931 . S
H1997 C1985 0.929 . S
H1998 C1986 0.960 . S
H1999 C1986 0.962 . S
H2000 C1986 0.960 . S
H2001 C1987 0.961 . S
H2002 C1987 0.961 . S
H2003 C1987 0.961 . S
H2004 C1988 0.931 . S
H2005 C1993 0.930 . S
H2006 C1994 0.956 . S
H2007 C1994 0.961 . S
H2008 C1994 0.961 . S
H2009 C1995 0.958 . S
H2010 C1995 0.961 . S
H2011 C1995 0.960 . S
C2012 C2013 1.391 . S
C2012 C2014 1.394 . S
C2012 H2028 0.931 . S
C2013 C2012 1.391 . S
C2013 C2017 1.376 . S
C2014 C2012 1.394 . S
C2014 C2015 1.369 . S
C2014 C2018 1.531 . S
C2015 C2014 1.369 . S
C2015 C2016 1.410 . S
C2015 C2023 1.503 . S
C2016 C2015 1.410 . S
C2016 C2017 1.392 . S
C2016 C2019 1.511 . S
C2017 C2013 1.376 . S
C2017 C2016 1.392 . S
C2017 H2029 0.929 . S
C2018 C2014 1.531 . S
C2018 H2030 0.960 . S
C2018 H2031 0.962 . S
C2018 H2032 0.960 . S
C2019 C2016 1.511 . S
C2019 H2033 0.961 . S
C2019 H2034 0.961 . S
C2019 H2035 0.961 . S
C2020 C2021 1.370 . S
C2020 C2022 1.363 . S
C2020 H2036 0.931 . S
C2021 C2020 1.370 . S
C2021 C2025 1.408 . S
C2022 C2020 1.363 . S
C2022 C2023 1.370 . S
C2022 C2026 1.524 . S
C2023 C2015 1.503 . S
C2023 C2022 1.370 . S
C2023 C2024 1.403 . S
C2024 C2023 1.403 . S
C2024 C2025 1.404 . S
C2024 C2027 1.539 . S
C2025 C2021 1.408 . S
C2025 C2024 1.404 . S
C2025 H2037 0.930 . S
C2026 C2022 1.524 . S
C2026 H2038 0.956 . S
C2026 H2039 0.961 . S
C2026 H2040 0.961 . S
C2027 C2024 1.539 . S
C2027 H2041 0.958 . S
C2027 H2042 0.961 . S
C2027 H2043 0.960 . S
H2028 C2012 0.931 . S
H2029 C2017 0.929 . S
H2030 C2018 0.960 . S
H2031 C2018 0.962 . S
H2032 C2018 0.960 . S
H2033 C2019 0.961 . S
H2034 C2019 0.961 . S
H2035 C2019 0.961 . S
H2036 C2020 0.931 . S
H2037 C2025 0.930 . S
H2038 C2026 0.956 . S
H2039 C2026 0.961 . S
H2040 C2026 0.961 . S
H2041 C2027 0.958 . S
H2042 C2027 0.961 . S
H2043 C2027 0.960 . S
C2044 C2045 1.391 . S
C2044 C2046 1.394 . S
C2044 H2060 0.931 . S
C2045 C2044 1.391 . S
C2045 C2049 1.376 . S
C2046 C2044 1.394 . S
C2046 C2047 1.369 . S
C2046 C2050 1.531 . S
C2047 C2046 1.369 . S
C2047 C2048 1.410 . S
C2047 C2055 1.503 . S
C2048 C2047 1.410 . S
C2048 C2049 1.392 . S
C2048 C2051 1.511 . S
C2049 C2045 1.376 . S
C2049 C2048 1.392 . S
C2049 H2061 0.929 . S
C2050 C2046 1.531 . S
C2050 H2062 0.960 . S
C2050 H2063 0.962 . S
C2050 H2064 0.960 . S
C2051 C2048 1.511 . S
C2051 H2065 0.961 . S
C2051 H2066 0.961 . S
C2051 H2067 0.961 . S
C2052 C2053 1.370 . S
C2052 C2054 1.363 . S
C2052 H2068 0.931 . S
C2053 C2052 1.370 . S
C2053 C2057 1.408 . S
C2054 C2052 1.363 . S
C2054 C2055 1.370 . S
C2054 C2058 1.524 . S
C2055 C2047 1.503 . S
C2055 C2054 1.370 . S
C2055 C2056 1.403 . S
C2056 C2055 1.403 . S
C2056 C2057 1.404 . S
C2056 C2059 1.539 . S
C2057 C2053 1.408 . S
C2057 C2056 1.404 . S
C2057 H2069 0.930 . S
C2058 C2054 1.524 . S
C2058 H2070 0.956 . S
C2058 H2071 0.961 . S
C2058 H2072 0.961 . S
C2059 C2056 1.539 . S
C2059 H2073 0.958 . S
C2059 H2074 0.961 . S
C2059 H2075 0.960 . S
H2060 C2044 0.931 . S
H2061 C2049 0.929 . S
H2062 C2050 0.960 . S
H2063 C2050 0.962 . S
H2064 C2050 0.960 . S
H2065 C2051 0.961 . S
H2066 C2051 0.961 . S
H2067 C2051 0.961 . S
H2068 C2052 0.931 . S
H2069 C2057 0.930 . S
H2070 C2058 0.956 . S
H2071 C2058 0.961 . S
H2072 C2058 0.961 . S
H2073 C2059 0.958 . S
H2074 C2059 0.961 . S
H2075 C2059 0.960 . S
C2076 C2077 1.391 . S
C2076 C2078 1.394 . S
C2076 H2092 0.931 . S
C2077 C2076 1.391 . S
C2077 C2081 1.376 . S
C2078 C2076 1.394 . S
C2078 C2079 1.369 . S
C2078 C2082 1.531 . S
C2079 C2078 1.369 . S
C2079 C2080 1.410 . S
C2079 C2087 1.503 . S
C2080 C2079 1.410 . S
C2080 C2081 1.392 . S
C2080 C2083 1.511 . S
C2081 C2077 1.376 . S
C2081 C2080 1.392 . S
C2081 H2093 0.929 . S
C2082 C2078 1.531 . S
C2082 H2094 0.960 . S
C2082 H2095 0.962 . S
C2082 H2096 0.960 . S
C2083 C2080 1.511 . S
C2083 H2097 0.961 . S
C2083 H2098 0.961 . S
C2083 H2099 0.961 . S
C2084 C2085 1.370 . S
C2084 C2086 1.363 . S
C2084 H2100 0.931 . S
C2085 C2084 1.370 . S
C2085 C2089 1.408 . S
C2086 C2084 1.363 . S
C2086 C2087 1.370 . S
C2086 C2090 1.524 . S
C2087 C2079 1.503 . S
C2087 C2086 1.370 . S
C2087 C2088 1.403 . S
C2088 C2087 1.403 . S
C2088 C2089 1.404 . S
C2088 C2091 1.539 . S
C2089 C2085 1.408 . S
C2089 C2088 1.404 . S
C2089 H2101 0.930 . S
C2090 C2086 1.524 . S
C2090 H2102 0.956 . S
C2090 H2103 0.961 . S
C2090 H2104 0.961 . S
C2091 C2088 1.539 . S
C2091 H2105 0.958 . S
C2091 H2106 0.961 . S
C2091 H2107 0.960 . S
H2092 C2076 0.931 . S
H2093 C2081 0.929 . S
H2094 C2082 0.960 . S
H2095 C2082 0.962 . S
H2096 C2082 0.960 . S
H2097 C2083 0.961 . S
H2098 C2083 0.961 . S
H2099 C2083 0.961 . S
H2100 C2084 0.931 . S
H2101 C2089 0.930 . S
H2102 C2090 0.956 . S
H2103 C2090 0.961 . S
H2104 C2090 0.961 . S
H2105 C2091 0.958 . S
H2106 C2091 0.961 . S
H2107 C2091 0.960 . S
C2108 C2109 1.391 . S
C2108 C2110 1.394 . S
C2108 H2124 0.931 . S
C2109 C2108 1.391 . S
C2109 C2113 1.376 . S
C2110 C2108 1.394 . S
C2110 C2111 1.369 . S
C2110 C2114 1.531 . S
C2111 C2110 1.369 . S
C2111 C2112 1.410 . S
C2111 C2119 1.503 . S
C2112 C2111 1.410 . S
C2112 C2113 1.392 . S
C2112 C2115 1.511 . S
C2113 C2109 1.376 . S
C2113 C2112 1.392 . S
C2113 H2125 0.929 . S
C2114 C2110 1.531 . S
C2114 H2126 0.960 . S
C2114 H2127 0.962 . S
C2114 H2128 0.960 . S
C2115 C2112 1.511 . S
C2115 H2129 0.961 . S
C2115 H2130 0.961 . S
C2115 H2131 0.961 . S
C2116 C2117 1.370 . S
C2116 C2118 1.363 . S
C2116 H2132 0.931 . S
C2117 C2116 1.370 . S
C2117 C2121 1.408 . S
C2118 C2116 1.363 . S
C2118 C2119 1.370 . S
C2118 C2122 1.524 . S
C2119 C2111 1.503 . S
C2119 C2118 1.370 . S
C2119 C2120 1.403 . S
C2120 C2119 1.403 . S
C2120 C2121 1.404 . S
C2120 C2123 1.539 . S
C2121 C2117 1.408 . S
C2121 C2120 1.404 . S
C2121 H2133 0.930 . S
C2122 C2118 1.524 . S
C2122 H2134 0.956 . S
C2122 H2135 0.961 . S
C2122 H2136 0.961 . S
C2123 C2120 1.539 . S
C2123 H2137 0.958 . S
C2123 H2138 0.961 . S
C2123 H2139 0.960 . S
H2124 C2108 0.931 . S
H2125 C2113 0.929 . S
H2126 C2114 0.960 . S
H2127 C2114 0.962 . S
H2128 C2114 0.960 . S
H2129 C2115 0.961 . S
H2130 C2115 0.961 . S
H2131 C2115 0.961 . S
H2132 C2116 0.931 . S
H2133 C2121 0.930 . S
H2134 C2122 0.956 . S
H2135 C2122 0.961 . S
H2136 C2122 0.961 . S
H2137 C2123 0.958 . S
H2138 C2123 0.961 . S
H2139 C2123 0.960 . S
C2140 C2141 1.391 . S
C2140 C2142 1.394 . S
C2140 H2156 0.931 . S
C2141 C2140 1.391 . S
C2141 C2145 1.376 . S
C2142 C2140 1.394 . S
C2142 C2143 1.369 . S
C2142 C2146 1.531 . S
C2143 C2142 1.369 . S
C2143 C2144 1.410 . S
C2143 C2151 1.503 . S
C2144 C2143 1.410 . S
C2144 C2145 1.392 . S
C2144 C2147 1.511 . S
C2145 C2141 1.376 . S
C2145 C2144 1.392 . S
C2145 H2157 0.929 . S
C2146 C2142 1.531 . S
C2146 H2158 0.960 . S
C2146 H2159 0.962 . S
C2146 H2160 0.960 . S
C2147 C2144 1.511 . S
C2147 H2161 0.961 . S
C2147 H2162 0.961 . S
C2147 H2163 0.961 . S
C2148 C2149 1.370 . S
C2148 C2150 1.363 . S
C2148 H2164 0.931 . S
C2149 C2148 1.370 . S
C2149 C2153 1.408 . S
C2150 C2148 1.363 . S
C2150 C2151 1.370 . S
C2150 C2154 1.524 . S
C2151 C2143 1.503 . S
C2151 C2150 1.370 . S
C2151 C2152 1.403 . S
C2152 C2151 1.403 . S
C2152 C2153 1.404 . S
C2152 C2155 1.539 . S
C2153 C2149 1.408 . S
C2153 C2152 1.404 . S
C2153 H2165 0.930 . S
C2154 C2150 1.524 . S
C2154 H2166 0.956 . S
C2154 H2167 0.961 . S
C2154 H2168 0.961 . S
C2155 C2152 1.539 . S
C2155 H2169 0.958 . S
C2155 H2170 0.961 . S
C2155 H2171 0.960 . S
H2156 C2140 0.931 . S
H2157 C2145 0.929 . S
H2158 C2146 0.960 . S
H2159 C2146 0.962 . S
H2160 C2146 0.960 . S
H2161 C2147 0.961 . S
H2162 C2147 0.961 . S
H2163 C2147 0.961 . S
H2164 C2148 0.931 . S
H2165 C2153 0.930 . S
H2166 C2154 0.956 . S
H2167 C2154 0.961 . S
H2168 C2154 0.961 . S
H2169 C2155 0.958 . S
H2170 C2155 0.961 . S
H2171 C2155 0.960 . S
C2172 C2173 1.391 . S
C2172 C2174 1.394 . S
C2172 H2188 0.931 . S
C2173 C2172 1.391 . S
C2173 C2177 1.376 . S
C2174 C2172 1.394 . S
C2174 C2175 1.369 . S
C2174 C2178 1.531 . S
C2175 C2174 1.369 . S
C2175 C2176 1.410 . S
C2175 C2183 1.503 . S
C2176 C2175 1.410 . S
C2176 C2177 1.392 . S
C2176 C2179 1.511 . S
C2177 C2173 1.376 . S
C2177 C2176 1.392 . S
C2177 H2189 0.929 . S
C2178 C2174 1.531 . S
C2178 H2190 0.960 . S
C2178 H2191 0.962 . S
C2178 H2192 0.960 . S
C2179 C2176 1.511 . S
C2179 H2193 0.961 . S
C2179 H2194 0.961 . S
C2179 H2195 0.961 . S
C2180 C2181 1.370 . S
C2180 C2182 1.363 . S
C2180 H2196 0.931 . S
C2181 C2180 1.370 . S
C2181 C2185 1.408 . S
C2182 C2180 1.363 . S
C2182 C2183 1.370 . S
C2182 C2186 1.524 . S
C2183 C2175 1.503 . S
C2183 C2182 1.370 . S
C2183 C2184 1.403 . S
C2184 C2183 1.403 . S
C2184 C2185 1.404 . S
C2184 C2187 1.539 . S
C2185 C2181 1.408 . S
C2185 C2184 1.404 . S
C2185 H2197 0.930 . S
C2186 C2182 1.524 . S
C2186 H2198 0.956 . S
C2186 H2199 0.961 . S
C2186 H2200 0.961 . S
C2187 C2184 1.539 . S
C2187 H2201 0.958 . S
C2187 H2202 0.961 . S
C2187 H2203 0.960 . S
H2188 C2172 0.931 . S
H2189 C2177 0.929 . S
H2190 C2178 0.960 . S
H2191 C2178 0.962 . S
H2192 C2178 0.960 . S
H2193 C2179 0.961 . S
H2194 C2179 0.961 . S
H2195 C2179 0.961 . S
H2196 C2180 0.931 . S
H2197 C2185 0.930 . S
H2198 C2186 0.956 . S
H2199 C2186 0.961 . S
H2200 C2186 0.961 . S
H2201 C2187 0.958 . S
H2202 C2187 0.961 . S
H2203 C2187 0.960 . S
C2204 C2205 1.391 . S
C2204 C2206 1.394 . S
C2204 H2220 0.931 . S
C2205 C2204 1.391 . S
C2205 C2209 1.376 . S
C2206 C2204 1.394 . S
C2206 C2207 1.369 . S
C2206 C2210 1.531 . S
C2207 C2206 1.369 . S
C2207 C2208 1.410 . S
C2207 C2215 1.503 . S
C2208 C2207 1.410 . S
C2208 C2209 1.392 . S
C2208 C2211 1.511 . S
C2209 C2205 1.376 . S
C2209 C2208 1.392 . S
C2209 H2221 0.929 . S
C2210 C2206 1.531 . S
C2210 H2222 0.960 . S
C2210 H2223 0.962 . S
C2210 H2224 0.960 . S
C2211 C2208 1.511 . S
C2211 H2225 0.961 . S
C2211 H2226 0.961 . S
C2211 H2227 0.961 . S
C2212 C2213 1.370 . S
C2212 C2214 1.363 . S
C2212 H2228 0.931 . S
C2213 C2212 1.370 . S
C2213 C2217 1.408 . S
C2214 C2212 1.363 . S
C2214 C2215 1.370 . S
C2214 C2218 1.524 . S
C2215 C2207 1.503 . S
C2215 C2214 1.370 . S
C2215 C2216 1.403 . S
C2216 C2215 1.403 . S
C2216 C2217 1.404 . S
C2216 C2219 1.539 . S
C2217 C2213 1.408 . S
C2217 C2216 1.404 . S
C2217 H2229 0.930 . S
C2218 C2214 1.524 . S
C2218 H2230 0.956 . S
C2218 H2231 0.961 . S
C2218 H2232 0.961 . S
C2219 C2216 1.539 . S
C2219 H2233 0.958 . S
C2219 H2234 0.961 . S
C2219 H2235 0.960 . S
H2220 C2204 0.931 . S
H2221 C2209 0.929 . S
H2222 C2210 0.960 . S
H2223 C2210 0.962 . S
H2224 C2210 0.960 . S
H2225 C2211 0.961 . S
H2226 C2211 0.961 . S
H2227 C2211 0.961 . S
H2228 C2212 0.931 . S
H2229 C2217 0.930 . S
H2230 C2218 0.956 . S
H2231 C2218 0.961 . S
H2232 C2218 0.961 . S
H2233 C2219 0.958 . S
H2234 C2219 0.961 . S
H2235 C2219 0.960 . S
C2236 C2237 1.391 . S
C2236 C2238 1.394 . S
C2236 H2252 0.931 . S
C2237 C2236 1.391 . S
C2237 C2241 1.376 . S
C2238 C2236 1.394 . S
C2238 C2239 1.369 . S
C2238 C2242 1.531 . S
C2239 C2238 1.369 . S
C2239 C2240 1.410 . S
C2239 C2247 1.503 . S
C2240 C2239 1.410 . S
C2240 C2241 1.392 . S
C2240 C2243 1.511 . S
C2241 C2237 1.376 . S
C2241 C2240 1.392 . S
C2241 H2253 0.929 . S
C2242 C2238 1.531 . S
C2242 H2254 0.960 . S
C2242 H2255 0.962 . S
C2242 H2256 0.960 . S
C2243 C2240 1.511 . S
C2243 H2257 0.961 . S
C2243 H2258 0.961 . S
C2243 H2259 0.961 . S
C2244 C2245 1.370 . S
C2244 C2246 1.363 . S
C2244 H2260 0.931 . S
C2245 C2244 1.370 . S
C2245 C2249 1.408 . S
C2246 C2244 1.363 . S
C2246 C2247 1.370 . S
C2246 C2250 1.524 . S
C2247 C2239 1.503 . S
C2247 C2246 1.370 . S
C2247 C2248 1.403 . S
C2248 C2247 1.403 . S
C2248 C2249 1.404 . S
C2248 C2251 1.539 . S
C2249 C2245 1.408 . S
C2249 C2248 1.404 . S
C2249 H2261 0.930 . S
C2250 C2246 1.524 . S
C2250 H2262 0.956 . S
C2250 H2263 0.961 . S
C2250 H2264 0.961 . S
C2251 C2248 1.539 . S
C2251 H2265 0.958 . S
C2251 H2266 0.961 . S
C2251 H2267 0.960 . S
H2252 C2236 0.931 . S
H2253 C2241 0.929 . S
H2254 C2242 0.960 . S
H2255 C2242 0.962 . S
H2256 C2242 0.960 . S
H2257 C2243 0.961 . S
H2258 C2243 0.961 . S
H2259 C2243 0.961 . S
H2260 C2244 0.931 . S
H2261 C2249 0.930 . S
H2262 C2250 0.956 . S
H2263 C2250 0.961 . S
H2264 C2250 0.961 . S
H2265 C2251 0.958 . S
H2266 C2251 0.961 . S
H2267 C2251 0.960 . S
C2268 C2269 1.391 . S
C2268 C2270 1.394 . S
C2268 H2284 0.931 . S
C2269 C2268 1.391 . S
C2269 C2273 1.376 . S
C2270 C2268 1.394 . S
C2270 C2271 1.369 . S
C2270 C2274 1.531 . S
C2271 C2270 1.369 . S
C2271 C2272 1.410 . S
C2271 C2279 1.503 . S
C2272 C2271 1.410 . S
C2272 C2273 1.392 . S
C2272 C2275 1.511 . S
C2273 C2269 1.376 . S
C2273 C2272 1.392 . S
C2273 H2285 0.929 . S
C2274 C2270 1.531 . S
C2274 H2286 0.960 . S
C2274 H2287 0.962 . S
C2274 H2288 0.960 . S
C2275 C2272 1.511 . S
C2275 H2289 0.961 . S
C2275 H2290 0.961 . S
C2275 H2291 0.961 . S
C2276 C2277 1.370 . S
C2276 C2278 1.363 . S
C2276 H2292 0.931 . S
C2277 C2276 1.370 . S
C2277 C2281 1.408 . S
C2278 C2276 1.363 . S
C2278 C2279 1.370 . S
C2278 C2282 1.524 . S
C2279 C2271 1.503 . S
C2279 C2278 1.370 . S
C2279 C2280 1.403 . S
C2280 C2279 1.403 . S
C2280 C2281 1.404 . S
C2280 C2283 1.539 . S
C2281 C2277 1.408 . S
C2281 C2280 1.404 . S
C2281 H2293 0.930 . S
C2282 C2278 1.524 . S
C2282 H2294 0.956 . S
C2282 H2295 0.961 . S
C2282 H2296 0.961 . S
C2283 C2280 1.539 . S
C2283 H2297 0.958 . S
C2283 H2298 0.961 . S
C2283 H2299 0.960 . S
H2284 C2268 0.931 . S
H2285 C2273 0.929 . S
H2286 C2274 0.960 . S
H2287 C2274 0.962 . S
H2288 C2274 0.960 . S
H2289 C2275 0.961 . S
H2290 C2275 0.961 . S
H2291 C2275 0.961 . S
H2292 C2276 0.931 . S
H2293 C2281 0.930 . S
H2294 C2282 0.956 . S
H2295 C2282 0.961 . S
H2296 C2282 0.961 . S
H2297 C2283 0.958 . S
H2298 C2283 0.961 . S
H2299 C2283 0.960 . S
C2300 C2301 1.391 . S
C2300 C2302 1.394 . S
C2300 H2316 0.931 . S
C2301 C2300 1.391 . S
C2301 C2305 1.376 . S
C2302 C2300 1.394 . S
C2302 C2303 1.369 . S
C2302 C2306 1.531 . S
C2303 C2302 1.369 . S
C2303 C2304 1.410 . S
C2303 C2311 1.503 . S
C2304 C2303 1.410 . S
C2304 C2305 1.392 . S
C2304 C2307 1.511 . S
C2305 C2301 1.376 . S
C2305 C2304 1.392 . S
C2305 H2317 0.929 . S
C2306 C2302 1.531 . S
C2306 H2318 0.960 . S
C2306 H2319 0.962 . S
C2306 H2320 0.960 . S
C2307 C2304 1.511 . S
C2307 H2321 0.961 . S
C2307 H2322 0.961 . S
C2307 H2323 0.961 . S
C2308 C2309 1.370 . S
C2308 C2310 1.363 . S
C2308 H2324 0.931 . S
C2309 C2308 1.370 . S
C2309 C2313 1.408 . S
C2310 C2308 1.363 . S
C2310 C2311 1.370 . S
C2310 C2314 1.524 . S
C2311 C2303 1.503 . S
C2311 C2310 1.370 . S
C2311 C2312 1.403 . S
C2312 C2311 1.403 . S
C2312 C2313 1.404 . S
C2312 C2315 1.539 . S
C2313 C2309 1.408 . S
C2313 C2312 1.404 . S
C2313 H2325 0.930 . S
C2314 C2310 1.524 . S
C2314 H2326 0.956 . S
C2314 H2327 0.961 . S
C2314 H2328 0.961 . S
C2315 C2312 1.539 . S
C2315 H2329 0.958 . S
C2315 H2330 0.961 . S
C2315 H2331 0.960 . S
H2316 C2300 0.931 . S
H2317 C2305 0.929 . S
H2318 C2306 0.960 . S
H2319 C2306 0.962 . S
H2320 C2306 0.960 . S
H2321 C2307 0.961 . S
H2322 C2307 0.961 . S
H2323 C2307 0.961 . S
H2324 C2308 0.931 . S
H2325 C2313 0.930 . S
H2326 C2314 0.956 . S
H2327 C2314 0.961 . S
H2328 C2314 0.961 . S
H2329 C2315 0.958 . S
H2330 C2315 0.961 . S
H2331 C2315 0.960 . S
C2332 C2333 1.391 . S
C2332 C2334 1.394 . S
C2332 H2348 0.931 . S
C2333 C2332 1.391 . S
C2333 C2337 1.376 . S
C2334 C2332 1.394 . S
C2334 C2335 1.369 . S
C2334 C2338 1.531 . S
C2335 C2334 1.369 . S
C2335 C2336 1.410 . S
C2335 C2343 1.503 . S
C2336 C2335 1.410 . S
C2336 C2337 1.392 . S
C2336 C2339 1.511 . S
C2337 C2333 1.376 . S
C2337 C2336 1.392 . S
C2337 H2349 0.929 . S
C2338 C2334 1.531 . S
C2338 H2350 0.960 . S
C2338 H2351 0.962 . S
C2338 H2352 0.960 . S
C2339 C2336 1.511 . S
C2339 H2353 0.961 . S
C2339 H2354 0.961 . S
C2339 H2355 0.961 . S
C2340 C2341 1.370 . S
C2340 C2342 1.363 . S
C2340 H2356 0.931 . S
C2341 C2340 1.370 . S
C2341 C2345 1.408 . S
C2342 C2340 1.363 . S
C2342 C2343 1.370 . S
C2342 C2346 1.524 . S
C2343 C2335 1.503 . S
C2343 C2342 1.370 . S
C2343 C2344 1.403 . S
C2344 C2343 1.403 . S
C2344 C2345 1.404 . S
C2344 C2347 1.539 . S
C2345 C2341 1.408 . S
C2345 C2344 1.404 . S
C2345 H2357 0.930 . S
C2346 C2342 1.524 . S
C2346 H2358 0.956 . S
C2346 H2359 0.961 . S
C2346 H2360 0.961 . S
C2347 C2344 1.539 . S
C2347 H2361 0.958 . S
C2347 H2362 0.961 . S
C2347 H2363 0.960 . S
H2348 C2332 0.931 . S
H2349 C2337 0.929 . S
H2350 C2338 0.960 . S
H2351 C2338 0.962 . S
H2352 C2338 0.960 . S
H2353 C2339 0.961 . S
H2354 C2339 0.961 . S
H2355 C2339 0.961 . S
H2356 C2340 0.931 . S
H2357 C2345 0.930 . S
H2358 C2346 0.956 . S
H2359 C2346 0.961 . S
H2360 C2346 0.961 . S
H2361 C2347 0.958 . S
H2362 C2347 0.961 . S
H2363 C2347 0.960 . S
C2364 C2365 1.391 . S
C2364 C2366 1.394 . S
C2364 H2380 0.931 . S
C2365 C2364 1.391 . S
C2365 C2369 1.376 . S
C2366 C2364 1.394 . S
C2366 C2367 1.369 . S
C2366 C2370 1.531 . S
C2367 C2366 1.369 . S
C2367 C2368 1.410 . S
C2367 C2375 1.503 . S
C2368 C2367 1.410 . S
C2368 C2369 1.392 . S
C2368 C2371 1.511 . S
C2369 C2365 1.376 . S
C2369 C2368 1.392 . S
C2369 H2381 0.929 1_556 S
C2370 C2366 1.531 . S
C2370 H2382 0.960 . S
C2370 H2383 0.962 . S
C2370 H2384 0.960 . S
C2371 C2368 1.511 . S
C2371 H2385 0.961 1_556 S
C2371 H2386 0.961 . S
C2371 H2387 0.957 1_556 S
C2372 C2373 1.370 . S
C2372 C2374 1.363 . S
C2372 H2388 0.931 . S
C2373 C2372 1.370 . S
C2373 C2377 1.408 . S
C2374 C2372 1.363 . S
C2374 C2375 1.370 . S
C2374 C2378 1.524 . S
C2375 C2367 1.503 . S
C2375 C2374 1.370 . S
C2375 C2376 1.403 . S
C2376 C2375 1.403 . S
C2376 C2377 1.404 . S
C2376 C2379 1.539 . S
C2377 C2373 1.408 . S
C2377 C2376 1.404 . S
C2377 H2389 0.930 . S
C2378 C2374 1.524 . S
C2378 H2390 0.956 . S
C2378 H2391 0.961 . S
C2378 H2392 0.961 . S
C2379 C2376 1.539 . S
C2379 H2393 0.958 . S
C2379 H2394 0.961 . S
C2379 H2395 0.960 . S
H2380 C2364 0.931 . S
H2381 C2369 0.929 1_554 S
H2382 C2370 0.960 . S
H2383 C2370 0.962 . S
H2384 C2370 0.960 . S
H2385 C2371 0.961 1_554 S
H2386 C2371 0.961 . S
H2387 C2371 0.957 1_554 S
H2388 C2372 0.931 . S
H2389 C2377 0.930 . S
H2390 C2378 0.956 . S
H2391 C2378 0.961 . S
H2392 C2378 0.961 . S
H2393 C2379 0.958 . S
H2394 C2379 0.961 . S
H2395 C2379 0.960 . S
C2396 C2397 1.391 . S
C2396 C2398 1.394 . S
C2396 H2412 0.951 . S
C2397 C2396 1.391 . S
C2397 C2401 1.376 . S
C2398 C2396 1.394 . S
C2398 C2399 1.369 . S
C2398 C2402 1.531 . S
C2399 C2398 1.369 . S
C2399 C2400 1.410 . S
C2399 C2407 1.503 . S
C2400 C2399 1.410 . S
C2400 C2401 1.392 . S
C2400 C2403 1.511 . S
C2401 C2397 1.376 . S
C2401 C2400 1.392 . S
C2401 H2413 0.929 . S
C2402 C2398 1.531 . S
C2402 H2414 0.960 . S
C2402 H2415 0.962 . S
C2402 H2416 0.910 1_556 S
C2403 C2400 1.511 . S
C2403 H2417 0.961 . S
C2403 H2418 0.961 . S
C2403 H2419 0.961 . S
C2404 C2405 1.370 . S
C2404 C2406 1.363 . S
C2404 H2420 0.931 . S
C2405 C2404 1.370 . S
C2405 C2409 1.408 . S
C2406 C2404 1.363 . S
C2406 C2407 1.370 . S
C2406 C2410 1.524 . S
C2407 C2399 1.503 . S
C2407 C2406 1.370 . S
C2407 C2408 1.403 . S
C2408 C2407 1.403 . S
C2408 C2409 1.404 . S
C2408 C2411 1.539 . S
C2409 C2405 1.408 . S
C2409 C2408 1.404 . S
C2409 H2421 0.930 . S
C2410 C2406 1.524 . S
C2410 H2422 0.956 . S
C2410 H2423 0.961 . S
C2410 H2424 0.961 . S
C2411 C2408 1.539 . S
C2411 H2425 0.958 . S
C2411 H2426 0.961 . S
C2411 H2427 0.960 . S
H2412 C2396 0.951 . S
H2413 C2401 0.929 . S
H2414 C2402 0.960 . S
H2415 C2402 0.962 . S
H2416 C2402 0.910 1_554 S
H2417 C2403 0.961 . S
H2418 C2403 0.961 . S
H2419 C2403 0.961 . S
H2420 C2404 0.931 . S
H2421 C2409 0.930 . S
H2422 C2410 0.956 . S
H2423 C2410 0.961 . S
H2424 C2410 0.961 . S
H2425 C2411 0.958 . S
H2426 C2411 0.961 . S
H2427 C2411 0.960 . S
C2428 C2429 1.391 . S
C2428 C2430 1.394 . S
C2428 H2444 0.931 . S
C2429 C2428 1.391 . S
C2429 C2433 1.376 . S
C2430 C2428 1.394 . S
C2430 C2431 1.369 . S
C2430 C2434 1.531 . S
C2431 C2430 1.369 . S
C2431 C2432 1.410 . S
C2431 C2439 1.503 . S
C2432 C2431 1.410 . S
C2432 C2433 1.392 . S
C2432 C2435 1.511 . S
C2433 C2429 1.376 . S
C2433 C2432 1.392 . S
C2433 H2445 0.929 1_556 S
C2434 C2430 1.531 . S
C2434 H2446 0.960 . S
C2434 H2447 0.962 . S
C2434 H2448 0.960 . S
C2435 C2432 1.511 . S
C2435 H2449 0.961 1_556 S
C2435 H2450 0.961 . S
C2435 H2451 0.971 . S
C2436 C2437 1.370 . S
C2436 C2438 1.363 . S
C2436 H2452 0.931 . S
C2437 C2436 1.370 . S
C2437 C2441 1.408 . S
C2438 C2436 1.363 . S
C2438 C2439 1.370 . S
C2438 C2442 1.524 . S
C2439 C2431 1.503 . S
C2439 C2438 1.370 . S
C2439 C2440 1.403 . S
C2440 C2439 1.403 . S
C2440 C2441 1.404 . S
C2440 C2443 1.539 . S
C2441 C2437 1.408 . S
C2441 C2440 1.404 . S
C2441 H2453 0.930 . S
C2442 C2438 1.524 . S
C2442 H2454 0.956 . S
C2442 H2455 0.961 . S
C2442 H2456 0.961 . S
C2443 C2440 1.539 . S
C2443 H2457 0.958 . S
C2443 H2458 0.961 . S
C2443 H2459 0.960 . S
H2444 C2428 0.931 . S
H2445 C2433 0.929 1_554 S
H2446 C2434 0.960 . S
H2447 C2434 0.962 . S
H2448 C2434 0.960 . S
H2449 C2435 0.961 1_554 S
H2450 C2435 0.961 . S
H2451 C2435 0.971 . S
H2452 C2436 0.931 . S
H2453 C2441 0.930 . S
H2454 C2442 0.956 . S
H2455 C2442 0.961 . S
H2456 C2442 0.961 . S
H2457 C2443 0.958 . S
H2458 C2443 0.961 . S
H2459 C2443 0.960 . S
C2460 C2461 1.391 . S
C2460 C2462 1.394 . S
C2460 H2476 0.931 . S
C2461 C2460 1.391 . S
C2461 C2465 1.376 . S
C2462 C2460 1.394 . S
C2462 C2463 1.369 . S
C2462 C2466 1.531 . S
C2463 C2462 1.369 . S
C2463 C2464 1.410 . S
C2463 C2471 1.503 . S
C2464 C2463 1.410 . S
C2464 C2465 1.392 . S
C2464 C2467 1.511 . S
C2465 C2461 1.376 . S
C2465 C2464 1.392 . S
C2465 H2477 0.929 1_556 S
C2466 C2462 1.531 . S
C2466 H2478 0.960 . S
C2466 H2479 0.962 . S
C2466 H2480 0.960 . S
C2467 C2464 1.511 . S
C2467 H2481 0.961 1_556 S
C2467 H2482 0.961 . S
C2467 H2483 0.961 . S
C2468 C2469 1.370 . S
C2468 C2470 1.363 . S
C2468 H2484 0.931 . S
C2469 C2468 1.370 . S
C2469 C2473 1.408 . S
C2470 C2468 1.363 . S
C2470 C2471 1.370 . S
C2470 C2474 1.524 . S
C2471 C2463 1.503 . S
C2471 C2470 1.370 . S
C2471 C2472 1.403 . S
C2472 C2471 1.403 . S
C2472 C2473 1.404 . S
C2472 C2475 1.539 . S
C2473 C2469 1.408 . S
C2473 C2472 1.404 . S
C2473 H2485 0.930 . S
C2474 C2470 1.524 . S
C2474 H2486 0.956 . S
C2474 H2487 0.961 . S
C2474 H2488 0.961 . S
C2475 C2472 1.539 . S
C2475 H2489 0.958 . S
C2475 H2490 0.961 . S
C2475 H2491 0.960 . S
H2476 C2460 0.931 . S
H2477 C2465 0.929 1_554 S
H2478 C2466 0.960 . S
H2479 C2466 0.962 . S
H2480 C2466 0.960 . S
H2481 C2467 0.961 1_554 S
H2482 C2467 0.961 . S
H2483 C2467 0.961 . S
H2484 C2468 0.931 . S
H2485 C2473 0.930 . S
H2486 C2474 0.956 . S
H2487 C2474 0.961 . S
H2488 C2474 0.961 . S
H2489 C2475 0.958 . S
H2490 C2475 0.961 . S
H2491 C2475 0.960 . S
C2492 C2493 1.391 . S
C2492 C2494 1.394 . S
C2492 H2508 0.931 1_556 S
C2493 C2492 1.391 . S
C2493 C2497 1.376 . S
C2494 C2492 1.394 . S
C2494 C2495 1.369 . S
C2494 C2498 1.531 . S
C2495 C2494 1.369 . S
C2495 C2496 1.410 . S
C2495 C2503 1.503 . S
C2496 C2495 1.410 . S
C2496 C2497 1.392 . S
C2496 C2499 1.511 . S
C2497 C2493 1.376 . S
C2497 C2496 1.392 . S
C2497 H2509 0.929 . S
C2498 C2494 1.531 . S
C2498 H2510 0.960 . S
C2498 H2511 0.962 . S
C2498 H2512 0.960 1_556 S
C2499 C2496 1.511 . S
C2499 H2513 0.961 . S
C2499 H2514 0.961 . S
C2499 H2515 0.961 . S
C2500 C2501 1.370 . S
C2500 C2502 1.363 . S
C2500 H2516 0.931 . S
C2501 C2500 1.370 . S
C2501 C2505 1.408 . S
C2502 C2500 1.363 . S
C2502 C2503 1.370 . S
C2502 C2506 1.524 . S
C2503 C2495 1.503 . S
C2503 C2502 1.370 . S
C2503 C2504 1.403 . S
C2504 C2503 1.403 . S
C2504 C2505 1.404 . S
C2504 C2507 1.539 . S
C2505 C2501 1.408 . S
C2505 C2504 1.404 . S
C2505 H2517 0.930 . S
C2506 C2502 1.524 . S
C2506 H2518 0.956 . S
C2506 H2519 0.961 . S
C2506 H2520 0.961 . S
C2507 C2504 1.539 . S
C2507 H2521 0.958 . S
C2507 H2522 0.961 . S
C2507 H2523 0.960 . S
H2508 C2492 0.931 1_554 S
H2509 C2497 0.929 . S
H2510 C2498 0.960 . S
H2511 C2498 0.962 . S
H2512 C2498 0.960 1_554 S
H2513 C2499 0.961 . S
H2514 C2499 0.961 . S
H2515 C2499 0.961 . S
H2516 C2500 0.931 . S
H2517 C2505 0.930 . S
H2518 C2506 0.956 . S
H2519 C2506 0.961 . S
H2520 C2506 0.961 . S
H2521 C2507 0.958 . S
H2522 C2507 0.961 . S
H2523 C2507 0.960 . S
C2524 C2525 1.391 . S
C2524 C2526 1.394 . S
C2524 H2540 0.931 1_556 S
C2525 C2524 1.391 . S
C2525 C2529 1.376 . S
C2526 C2524 1.394 . S
C2526 C2527 1.369 . S
C2526 C2530 1.531 . S
C2527 C2526 1.369 . S
C2527 C2528 1.410 . S
C2527 C2535 1.503 . S
C2528 C2527 1.410 . S
C2528 C2529 1.392 . S
C2528 C2531 1.511 . S
C2529 C2525 1.376 . S
C2529 C2528 1.392 . S
C2529 H2541 0.929 . S
C2530 C2526 1.531 . S
C2530 H2542 0.960 . S
C2530 H2543 0.960 1_556 S
C2530 H2544 0.960 1_556 S
C2531 C2528 1.511 . S
C2531 H2545 0.961 . S
C2531 H2546 0.961 . S
C2531 H2547 0.961 . S
C2532 C2533 1.370 . S
C2532 C2534 1.363 . S
C2532 H2548 0.931 . S
C2533 C2532 1.370 . S
C2533 C2537 1.408 . S
C2534 C2532 1.363 . S
C2534 C2535 1.370 . S
C2534 C2538 1.524 . S
C2535 C2527 1.503 . S
C2535 C2534 1.370 . S
C2535 C2536 1.403 . S
C2536 C2535 1.403 . S
C2536 C2537 1.404 . S
C2536 C2539 1.539 . S
C2537 C2533 1.408 . S
C2537 C2536 1.404 . S
C2537 H2549 0.930 . S
C2538 C2534 1.524 . S
C2538 H2550 0.956 . S
C2538 H2551 0.961 . S
C2538 H2552 0.961 . S
C2539 C2536 1.539 . S
C2539 H2553 0.958 . S
C2539 H2554 0.961 . S
C2539 H2555 0.960 . S
H2540 C2524 0.931 1_554 S
H2541 C2529 0.929 . S
H2542 C2530 0.960 . S
H2543 C2530 0.960 1_554 S
H2544 C2530 0.960 1_554 S
H2545 C2531 0.961 . S
H2546 C2531 0.961 . S
H2547 C2531 0.961 . S
H2548 C2532 0.931 . S
H2549 C2537 0.930 . S
H2550 C2538 0.956 . S
H2551 C2538 0.961 . S
H2552 C2538 0.961 . S
H2553 C2539 0.958 . S
H2554 C2539 0.961 . S
H2555 C2539 0.960 . S
C2556 C2557 1.391 . S
C2556 C2558 1.394 . S
C2556 H2572 0.931 . S
C2557 C2556 1.391 . S
C2557 C2561 1.376 . S
C2558 C2556 1.394 . S
C2558 C2559 1.369 . S
C2558 C2562 1.531 . S
C2559 C2558 1.369 . S
C2559 C2560 1.410 . S
C2559 C2567 1.503 . S
C2560 C2559 1.410 . S
C2560 C2561 1.392 . S
C2560 C2563 1.511 . S
C2561 C2557 1.376 . S
C2561 C2560 1.392 . S
C2561 H2573 0.929 . S
C2562 C2558 1.531 . S
C2562 H2574 0.960 . S
C2562 H2575 0.962 . S
C2562 H2576 0.960 . S
C2563 C2560 1.511 . S
C2563 H2577 0.961 . S
C2563 H2578 0.961 . S
C2563 H2579 0.961 . S
C2564 C2565 1.370 . S
C2564 C2566 1.363 . S
C2564 H2580 0.931 . S
C2565 C2564 1.370 . S
C2565 C2569 1.408 . S
C2566 C2564 1.363 . S
C2566 C2567 1.370 . S
C2566 C2570 1.524 . S
C2567 C2559 1.503 . S
C2567 C2566 1.370 . S
C2567 C2568 1.403 . S
C2568 C2567 1.403 . S
C2568 C2569 1.404 . S
C2568 C2571 1.539 . S
C2569 C2565 1.408 . S
C2569 C2568 1.404 . S
C2569 H2581 0.930 . S
C2570 C2566 1.524 . S
C2570 H2582 0.956 . S
C2570 H2583 0.961 . S
C2570 H2584 0.961 . S
C2571 C2568 1.539 . S
C2571 H2585 0.958 . S
C2571 H2586 0.961 . S
C2571 H2587 0.960 . S
H2572 C2556 0.931 . S
H2573 C2561 0.929 . S
H2574 C2562 0.960 . S
H2575 C2562 0.962 . S
H2576 C2562 0.960 . S
H2577 C2563 0.961 . S
H2578 C2563 0.961 . S
H2579 C2563 0.961 . S
H2580 C2564 0.931 . S
H2581 C2569 0.930 . S
H2582 C2570 0.956 . S
H2583 C2570 0.961 . S
H2584 C2570 0.961 . S
H2585 C2571 0.958 . S
H2586 C2571 0.961 . S
H2587 C2571 0.960 . S
C2588 C2589 1.391 . S
C2588 C2590 1.394 . S
C2588 H2604 0.931 . S
C2589 C2588 1.391 . S
C2589 C2593 1.376 . S
C2590 C2588 1.394 . S
C2590 C2591 1.369 . S
C2590 C2594 1.531 . S
C2591 C2590 1.369 . S
C2591 C2592 1.410 . S
C2591 C2599 1.503 . S
C2592 C2591 1.410 . S
C2592 C2593 1.392 . S
C2592 C2595 1.511 . S
C2593 C2589 1.376 . S
C2593 C2592 1.392 . S
C2593 H2605 0.929 . S
C2594 C2590 1.531 . S
C2594 H2606 0.960 . S
C2594 H2607 0.962 . S
C2594 H2608 0.960 . S
C2595 C2592 1.511 . S
C2595 H2609 0.961 . S
C2595 H2610 0.961 . S
C2595 H2611 0.961 . S
C2596 C2597 1.370 . S
C2596 C2598 1.363 . S
C2596 H2612 0.931 . S
C2597 C2596 1.370 . S
C2597 C2601 1.408 . S
C2598 C2596 1.363 . S
C2598 C2599 1.370 . S
C2598 C2602 1.524 . S
C2599 C2591 1.503 . S
C2599 C2598 1.370 . S
C2599 C2600 1.403 . S
C2600 C2599 1.403 . S
C2600 C2601 1.404 . S
C2600 C2603 1.539 . S
C2601 C2597 1.408 . S
C2601 C2600 1.404 . S
C2601 H2613 0.930 . S
C2602 C2598 1.524 . S
C2602 H2614 0.956 . S
C2602 H2615 0.961 . S
C2602 H2616 0.961 . S
C2603 C2600 1.539 . S
C2603 H2617 0.958 . S
C2603 H2618 0.961 . S
C2603 H2619 0.960 . S
H2604 C2588 0.931 . S
H2605 C2593 0.929 . S
H2606 C2594 0.960 . S
H2607 C2594 0.962 . S
H2608 C2594 0.960 . S
H2609 C2595 0.961 . S
H2610 C2595 0.961 . S
H2611 C2595 0.961 . S
H2612 C2596 0.931 . S
H2613 C2601 0.930 . S
H2614 C2602 0.956 . S
H2615 C2602 0.961 . S
H2616 C2602 0.961 . S
H2617 C2603 0.958 . S
H2618 C2603 0.961 . S
H2619 C2603 0.960 . S
C2620 C2621 1.391 . S
C2620 C2622 1.394 . S
C2620 H2636 0.931 . S
C2621 C2620 1.391 . S
C2621 C2625 1.376 . S
C2622 C2620 1.394 . S
C2622 C2623 1.369 . S
C2622 C2626 1.531 . S
C2623 C2622 1.369 . S
C2623 C2624 1.410 . S
C2623 C2631 1.503 . S
C2624 C2623 1.410 . S
C2624 C2625 1.392 . S
C2624 C2627 1.511 . S
C2625 C2621 1.376 . S
C2625 C2624 1.392 . S
C2625 H2637 0.929 . S
C2626 C2622 1.531 . S
C2626 H2638 0.960 . S
C2626 H2639 0.962 . S
C2626 H2640 0.960 . S
C2627 C2624 1.511 . S
C2627 H2641 0.961 . S
C2627 H2642 0.961 . S
C2627 H2643 0.961 . S
C2628 C2629 1.370 . S
C2628 C2630 1.363 . S
C2628 H2644 0.931 . S
C2629 C2628 1.370 . S
C2629 C2633 1.408 . S
C2630 C2628 1.363 . S
C2630 C2631 1.370 . S
C2630 C2634 1.524 . S
C2631 C2623 1.503 . S
C2631 C2630 1.370 . S
C2631 C2632 1.403 . S
C2632 C2631 1.403 . S
C2632 C2633 1.404 . S
C2632 C2635 1.539 . S
C2633 C2629 1.408 . S
C2633 C2632 1.404 . S
C2633 H2645 0.930 . S
C2634 C2630 1.524 . S
C2634 H2646 0.956 . S
C2634 H2647 0.961 . S
C2634 H2648 0.961 . S
C2635 C2632 1.539 . S
C2635 H2649 0.958 . S
C2635 H2650 0.961 . S
C2635 H2651 0.960 . S
H2636 C2620 0.931 . S
H2637 C2625 0.929 . S
H2638 C2626 0.960 . S
H2639 C2626 0.962 . S
H2640 C2626 0.960 . S
H2641 C2627 0.961 . S
H2642 C2627 0.961 . S
H2643 C2627 0.961 . S
H2644 C2628 0.931 . S
H2645 C2633 0.930 . S
H2646 C2634 0.956 . S
H2647 C2634 0.961 . S
H2648 C2634 0.961 . S
H2649 C2635 0.958 . S
H2650 C2635 0.961 . S
H2651 C2635 0.960 . S
C2652 C2653 1.391 . S
C2652 C2654 1.394 . S
C2652 H2668 0.931 . S
C2653 C2652 1.391 . S
C2653 C2657 1.376 . S
C2654 C2652 1.394 . S
C2654 C2655 1.369 . S
C2654 C2658 1.531 . S
C2655 C2654 1.369 . S
C2655 C2656 1.410 . S
C2655 C2663 1.503 . S
C2656 C2655 1.410 . S
C2656 C2657 1.392 . S
C2656 C2659 1.511 . S
C2657 C2653 1.376 . S
C2657 C2656 1.392 . S
C2657 H2669 0.929 . S
C2658 C2654 1.531 . S
C2658 H2670 0.960 . S
C2658 H2671 0.962 . S
C2658 H2672 0.960 . S
C2659 C2656 1.511 . S
C2659 H2673 0.961 . S
C2659 H2674 0.961 . S
C2659 H2675 0.961 . S
C2660 C2661 1.370 . S
C2660 C2662 1.363 . S
C2660 H2676 0.931 . S
C2661 C2660 1.370 . S
C2661 C2665 1.408 . S
C2662 C2660 1.363 . S
C2662 C2663 1.370 . S
C2662 C2666 1.524 . S
C2663 C2655 1.503 . S
C2663 C2662 1.370 . S
C2663 C2664 1.403 . S
C2664 C2663 1.403 . S
C2664 C2665 1.404 . S
C2664 C2667 1.539 . S
C2665 C2661 1.408 . S
C2665 C2664 1.404 . S
C2665 H2677 0.930 . S
C2666 C2662 1.524 . S
C2666 H2678 0.956 . S
C2666 H2679 0.961 . S
C2666 H2680 0.961 . S
C2667 C2664 1.539 . S
C2667 H2681 0.958 . S
C2667 H2682 0.961 . S
C2667 H2683 0.960 . S
H2668 C2652 0.931 . S
H2669 C2657 0.929 . S
H2670 C2658 0.960 . S
H2671 C2658 0.962 . S
H2672 C2658 0.960 . S
H2673 C2659 0.961 . S
H2674 C2659 0.961 . S
H2675 C2659 0.961 . S
H2676 C2660 0.931 . S
H2677 C2665 0.930 . S
H2678 C2666 0.956 . S
H2679 C2666 0.961 . S
H2680 C2666 0.961 . S
H2681 C2667 0.958 . S
H2682 C2667 0.961 . S
H2683 C2667 0.960 . S
C2684 C2685 1.391 . S
C2684 C2686 1.394 . S
C2684 H2700 0.931 . S
C2685 C2684 1.391 . S
C2685 C2689 1.376 . S
C2686 C2684 1.394 . S
C2686 C2687 1.369 . S
C2686 C2690 1.531 . S
C2687 C2686 1.369 . S
C2687 C2688 1.410 . S
C2687 C2695 1.503 . S
C2688 C2687 1.410 . S
C2688 C2689 1.392 . S
C2688 C2691 1.511 . S
C2689 C2685 1.376 . S
C2689 C2688 1.392 . S
C2689 H2701 0.929 . S
C2690 C2686 1.531 . S
C2690 H2702 0.960 . S
C2690 H2703 0.962 . S
C2690 H2704 0.960 . S
C2691 C2688 1.511 . S
C2691 H2705 0.961 . S
C2691 H2706 0.961 . S
C2691 H2707 0.961 . S
C2692 C2693 1.370 . S
C2692 C2694 1.363 . S
C2692 H2708 0.931 . S
C2693 C2692 1.370 . S
C2693 C2697 1.408 . S
C2694 C2692 1.363 . S
C2694 C2695 1.370 . S
C2694 C2698 1.524 . S
C2695 C2687 1.503 . S
C2695 C2694 1.370 . S
C2695 C2696 1.403 . S
C2696 C2695 1.403 . S
C2696 C2697 1.404 . S
C2696 C2699 1.539 . S
C2697 C2693 1.408 . S
C2697 C2696 1.404 . S
C2697 H2709 0.930 . S
C2698 C2694 1.524 . S
C2698 H2710 0.956 . S
C2698 H2711 0.961 . S
C2698 H2712 0.961 . S
C2699 C2696 1.539 . S
C2699 H2713 0.958 . S
C2699 H2714 0.961 . S
C2699 H2715 0.960 . S
H2700 C2684 0.931 . S
H2701 C2689 0.929 . S
H2702 C2690 0.960 . S
H2703 C2690 0.962 . S
H2704 C2690 0.960 . S
H2705 C2691 0.961 . S
H2706 C2691 0.961 . S
H2707 C2691 0.961 . S
H2708 C2692 0.931 . S
H2709 C2697 0.930 . S
H2710 C2698 0.956 . S
H2711 C2698 0.961 . S
H2712 C2698 0.961 . S
H2713 C2699 0.958 . S
H2714 C2699 0.961 . S
H2715 C2699 0.960 . S
C2716 C2717 1.391 . S
C2716 C2718 1.394 . S
C2716 H2732 0.931 . S
C2717 C2716 1.391 . S
C2717 C2721 1.376 . S
C2718 C2716 1.394 . S
C2718 C2719 1.369 . S
C2718 C2722 1.531 . S
C2719 C2718 1.369 . S
C2719 C2720 1.410 . S
C2719 C2727 1.503 . S
C2720 C2719 1.410 . S
C2720 C2721 1.392 . S
C2720 C2723 1.511 . S
C2721 C2717 1.376 . S
C2721 C2720 1.392 . S
C2721 H2733 0.929 . S
C2722 C2718 1.531 . S
C2722 H2734 0.960 . S
C2722 H2735 0.962 . S
C2722 H2736 0.960 . S
C2723 C2720 1.511 . S
C2723 H2737 0.961 . S
C2723 H2738 0.961 . S
C2723 H2739 0.961 . S
C2724 C2725 1.370 . S
C2724 C2726 1.363 . S
C2724 H2740 0.931 . S
C2725 C2724 1.370 . S
C2725 C2729 1.408 . S
C2726 C2724 1.363 . S
C2726 C2727 1.370 . S
C2726 C2730 1.524 . S
C2727 C2719 1.503 . S
C2727 C2726 1.370 . S
C2727 C2728 1.403 . S
C2728 C2727 1.403 . S
C2728 C2729 1.404 . S
C2728 C2731 1.539 . S
C2729 C2725 1.408 . S
C2729 C2728 1.404 . S
C2729 H2741 0.930 . S
C2730 C2726 1.524 . S
C2730 H2742 0.956 . S
C2730 H2743 0.961 . S
C2730 H2744 0.961 . S
C2731 C2728 1.539 . S
C2731 H2745 0.958 . S
C2731 H2746 0.961 . S
C2731 H2747 0.960 . S
H2732 C2716 0.931 . S
H2733 C2721 0.929 . S
H2734 C2722 0.960 . S
H2735 C2722 0.962 . S
H2736 C2722 0.960 . S
H2737 C2723 0.961 . S
H2738 C2723 0.961 . S
H2739 C2723 0.961 . S
H2740 C2724 0.931 . S
H2741 C2729 0.930 . S
H2742 C2730 0.956 . S
H2743 C2730 0.961 . S
H2744 C2730 0.961 . S
H2745 C2731 0.958 . S
H2746 C2731 0.961 . S
H2747 C2731 0.960 . S
C2748 C2749 1.391 . S
C2748 C2750 1.394 . S
C2748 H2764 0.931 . S
C2749 C2748 1.391 . S
C2749 C2753 1.376 . S
C2750 C2748 1.394 . S
C2750 C2751 1.369 . S
C2750 C2754 1.531 . S
C2751 C2750 1.369 . S
C2751 C2752 1.410 . S
C2751 C2759 1.503 . S
C2752 C2751 1.410 . S
C2752 C2753 1.392 . S
C2752 C2755 1.511 . S
C2753 C2749 1.376 . S
C2753 C2752 1.392 . S
C2753 H2765 0.929 . S
C2754 C2750 1.531 . S
C2754 H2766 0.960 . S
C2754 H2767 0.962 . S
C2754 H2768 0.960 . S
C2755 C2752 1.511 . S
C2755 H2769 0.961 . S
C2755 H2770 0.961 . S
C2755 H2771 0.961 . S
C2756 C2757 1.370 1_655 S
C2756 C2758 1.363 . S
C2756 H2772 0.931 . S
C2757 C2756 1.370 1_455 S
C2757 C2761 1.408 . S
C2758 C2756 1.363 . S
C2758 C2759 1.370 1_655 S
C2758 C2762 1.524 . S
C2759 C2751 1.503 . S
C2759 C2758 1.370 1_455 S
C2759 C2760 1.403 . S
C2760 C2759 1.403 . S
C2760 C2761 1.404 . S
C2760 C2763 1.539 . S
C2761 C2757 1.408 . S
C2761 C2760 1.404 . S
C2761 H2773 0.930 . S
C2762 C2758 1.524 . S
C2762 H2774 0.956 . S
C2762 H2775 0.961 . S
C2762 H2776 0.961 . S
C2763 C2760 1.539 . S
C2763 H2777 0.958 . S
C2763 H2778 0.961 . S
C2763 H2779 0.960 . S
H2764 C2748 0.931 . S
H2765 C2753 0.929 . S
H2766 C2754 0.960 . S
H2767 C2754 0.962 . S
H2768 C2754 0.960 . S
H2769 C2755 0.961 . S
H2770 C2755 0.961 . S
H2771 C2755 0.961 . S
H2772 C2756 0.931 . S
H2773 C2761 0.930 . S
H2774 C2762 0.956 . S
H2775 C2762 0.961 . S
H2776 C2762 0.961 . S
H2777 C2763 0.958 . S
H2778 C2763 0.961 . S
H2779 C2763 0.960 . S
C2780 C2781 1.391 . S
C2780 C2782 1.394 . S
C2780 H2796 0.931 . S
C2781 C2780 1.391 . S
C2781 C2785 1.376 . S
C2782 C2780 1.394 . S
C2782 C2783 1.369 . S
C2782 C2786 1.531 . S
C2783 C2782 1.369 . S
C2783 C2784 1.410 . S
C2783 C2791 1.503 . S
C2784 C2783 1.410 . S
C2784 C2785 1.392 . S
C2784 C2787 1.511 . S
C2785 C2781 1.376 . S
C2785 C2784 1.392 . S
C2785 H2797 0.929 . S
C2786 C2782 1.531 . S
C2786 H2798 0.960 . S
C2786 H2799 0.962 . S
C2786 H2800 0.960 . S
C2787 C2784 1.511 . S
C2787 H2801 0.961 . S
C2787 H2802 0.961 . S
C2787 H2803 0.961 . S
C2788 C2789 1.370 . S
C2788 C2790 1.363 . S
C2788 H2804 0.931 . S
C2789 C2788 1.370 . S
C2789 C2793 1.408 . S
C2790 C2788 1.363 . S
C2790 C2791 1.370 . S
C2790 C2794 1.524 . S
C2791 C2783 1.503 . S
C2791 C2790 1.370 . S
C2791 C2792 1.403 . S
C2792 C2791 1.403 . S
C2792 C2793 1.404 . S
C2792 C2795 1.539 . S
C2793 C2789 1.408 . S
C2793 C2792 1.404 . S
C2793 H2805 0.930 . S
C2794 C2790 1.524 . S
C2794 H2806 0.956 . S
C2794 H2807 0.961 . S
C2794 H2808 0.961 . S
C2795 C2792 1.539 . S
C2795 H2809 0.958 . S
C2795 H2810 0.961 . S
C2795 H2811 0.960 . S
H2796 C2780 0.931 . S
H2797 C2785 0.929 . S
H2798 C2786 0.960 . S
H2799 C2786 0.962 . S
H2800 C2786 0.960 . S
H2801 C2787 0.961 . S
H2802 C2787 0.961 . S
H2803 C2787 0.961 . S
H2804 C2788 0.931 . S
H2805 C2793 0.930 . S
H2806 C2794 0.956 . S
H2807 C2794 0.961 . S
H2808 C2794 0.961 . S
H2809 C2795 0.958 . S
H2810 C2795 0.961 . S
H2811 C2795 0.960 . S
C2812 C2813 1.391 . S
C2812 C2814 1.394 . S
C2812 H2828 0.931 . S
C2813 C2812 1.391 . S
C2813 C2817 1.376 . S
C2814 C2812 1.394 . S
C2814 C2815 1.369 . S
C2814 C2818 1.535 . S
C2815 C2814 1.369 . S
C2815 C2816 1.410 . S
C2815 C2823 1.503 . S
C2816 C2815 1.410 . S
C2816 C2817 1.392 . S
C2816 C2819 1.489 . S
C2817 C2813 1.376 . S
C2817 C2816 1.392 . S
C2817 H2829 0.929 . S
C2818 C2814 1.535 . S
C2818 H2830 0.957 1_565 S
C2818 H2831 1.006 . S
C2818 H2832 0.918 1_565 S
C2819 C2816 1.489 . S
C2819 H2833 0.984 . S
C2819 H2834 1.006 . S
C2819 H2835 0.919 1_565 S
C2820 C2821 1.370 . S
C2820 C2822 1.363 . S
C2820 H2836 0.931 . S
C2821 C2820 1.370 . S
C2821 C2825 1.408 1_565 S
C2822 C2820 1.363 . S
C2822 C2823 1.370 . S
C2822 C2826 1.524 . S
C2823 C2815 1.503 . S
C2823 C2822 1.370 . S
C2823 C2824 1.403 1_565 S
C2824 C2823 1.403 1_545 S
C2824 C2825 1.404 . S
C2824 C2827 1.539 . S
C2825 C2821 1.408 1_545 S
C2825 C2824 1.404 . S
C2825 H2837 0.930 . S
C2826 C2822 1.524 . S
C2826 H2838 0.956 . S
C2826 H2839 0.961 . S
C2826 H2840 0.961 . S
C2827 C2824 1.539 . S
C2827 H2841 0.958 . S
C2827 H2842 0.961 . S
C2827 H2843 0.960 . S
H2828 C2812 0.931 . S
H2829 C2817 0.929 . S
H2830 C2818 0.957 1_545 S
H2831 C2818 1.006 . S
H2832 C2818 0.918 1_545 S
H2833 C2819 0.984 . S
H2834 C2819 1.006 . S
H2835 C2819 0.919 1_545 S
H2836 C2820 0.931 . S
H2837 C2825 0.930 . S
H2838 C2826 0.956 . S
H2839 C2826 0.961 . S
H2840 C2826 0.961 . S
H2841 C2827 0.958 . S
H2842 C2827 0.961 . S
H2843 C2827 0.960 . S
C2844 C2845 1.391 . S
C2844 C2846 1.394 . S
C2844 H2860 0.931 . S
C2845 C2844 1.391 . S
C2845 C2849 1.376 . S
C2846 C2844 1.394 . S
C2846 C2847 1.369 . S
C2846 C2850 1.531 . S
C2847 C2846 1.369 . S
C2847 C2848 1.410 . S
C2847 C2855 1.503 . S
C2848 C2847 1.410 . S
C2848 C2849 1.392 . S
C2848 C2851 1.511 1_565 S
C2849 C2845 1.376 . S
C2849 C2848 1.392 . S
C2849 H2861 0.929 1_565 S
C2850 C2846 1.531 . S
C2850 H2862 0.960 . S
C2850 H2863 0.962 . S
C2850 H2864 0.960 . S
C2851 C2848 1.511 1_545 S
C2851 H2865 0.961 . S
C2851 H2866 0.961 . S
C2851 H2867 0.961 1_545 S
C2852 C2853 1.370 1_545 S
C2852 C2854 1.363 . S
C2852 H2868 0.931 . S
C2853 C2852 1.370 1_565 S
C2853 C2857 1.408 . S
C2854 C2852 1.363 . S
C2854 C2855 1.370 1_545 S
C2854 C2858 1.524 . S
C2855 C2847 1.503 . S
C2855 C2854 1.370 1_565 S
C2855 C2856 1.403 . S
C2856 C2855 1.403 . S
C2856 C2857 1.404 . S
C2856 C2859 1.539 . S
C2857 C2853 1.408 . S
C2857 C2856 1.404 . S
C2857 H2869 0.930 . S
C2858 C2854 1.524 . S
C2858 H2870 0.956 . S
C2858 H2871 0.961 . S
C2858 H2872 0.961 . S
C2859 C2856 1.539 . S
C2859 H2873 0.958 . S
C2859 H2874 0.961 . S
C2859 H2875 0.960 . S
H2860 C2844 0.931 . S
H2861 C2849 0.929 1_545 S
H2862 C2850 0.960 . S
H2863 C2850 0.962 . S
H2864 C2850 0.960 . S
H2865 C2851 0.961 . S
H2866 C2851 0.961 . S
H2867 C2851 0.961 1_565 S
H2868 C2852 0.931 . S
H2869 C2857 0.930 . S
H2870 C2858 0.956 . S
H2871 C2858 0.961 . S
H2872 C2858 0.961 . S
H2873 C2859 0.958 . S
H2874 C2859 0.961 . S
H2875 C2859 0.960 . S
C2876 C2877 1.391 . S
C2876 C2878 1.394 . S
C2876 H2892 0.931 . S
C2877 C2876 1.391 . S
C2877 C2881 1.362 1_455 S
C2878 C2876 1.394 . S
C2878 C2879 1.369 . S
C2878 C2882 1.531 . S
C2879 C2878 1.369 . S
C2879 C2880 1.410 1_455 S
C2879 C2887 1.503 . S
C2880 C2879 1.410 1_655 S
C2880 C2881 1.377 . S
C2880 C2883 1.511 . S
C2881 C2877 1.362 1_655 S
C2881 C2880 1.377 . S
C2881 H2893 0.961 . S
C2882 C2878 1.531 . S
C2882 H2894 0.960 . S
C2882 H2895 0.962 . S
C2882 H2896 0.960 . S
C2883 C2880 1.511 . S
C2883 H2897 0.961 . S
C2883 H2898 0.961 . S
C2883 H2899 0.961 . S
C2884 C2885 1.370 . S
C2884 C2886 1.363 . S
C2884 H2900 0.931 . S
C2885 C2884 1.370 . S
C2885 C2889 1.408 1_455 S
C2886 C2884 1.363 . S
C2886 C2887 1.370 . S
C2886 C2890 1.524 . S
C2887 C2879 1.503 . S
C2887 C2886 1.370 . S
C2887 C2888 1.403 1_455 S
C2888 C2887 1.403 1_655 S
C2888 C2889 1.404 . S
C2888 C2891 1.539 . S
C2889 C2885 1.408 1_655 S
C2889 C2888 1.404 . S
C2889 H2901 0.930 . S
C2890 C2886 1.524 . S
C2890 H2902 0.956 . S
C2890 H2903 0.961 . S
C2890 H2904 0.961 . S
C2891 C2888 1.539 . S
C2891 H2905 0.958 . S
C2891 H2906 0.961 . S
C2891 H2907 0.960 . S
H2892 C2876 0.931 . S
H2893 C2881 0.961 . S
H2894 C2882 0.960 . S
H2895 C2882 0.962 . S
H2896 C2882 0.960 . S
H2897 C2883 0.961 . S
H2898 C2883 0.961 . S
H2899 C2883 0.961 . S
H2900 C2884 0.931 . S
H2901 C2889 0.930 . S
H2902 C2890 0.956 . S
H2903 C2890 0.961 . S
H2904 C2890 0.961 . S
H2905 C2891 0.958 . S
H2906 C2891 0.961 . S
H2907 C2891 0.960 . S
C2908 C2909 1.391 . S
C2908 C2910 1.394 . S
C2908 H2924 0.931 . S
C2909 C2908 1.391 . S
C2909 C2913 1.376 . S
C2910 C2908 1.394 . S
C2910 C2911 1.369 . S
C2910 C2914 1.531 . S
C2911 C2910 1.369 . S
C2911 C2912 1.410 . S
C2911 C2919 1.503 . S
C2912 C2911 1.410 . S
C2912 C2913 1.392 . S
C2912 C2915 1.511 . S
C2913 C2909 1.376 . S
C2913 C2912 1.392 . S
C2913 H2925 0.929 . S
C2914 C2910 1.531 . S
C2914 H2926 0.960 . S
C2914 H2927 0.962 . S
C2914 H2928 0.960 . S
C2915 C2912 1.511 . S
C2915 H2929 0.961 . S
C2915 H2930 0.961 . S
C2915 H2931 0.961 . S
C2916 C2917 1.370 . S
C2916 C2918 1.363 . S
C2916 H2932 0.931 . S
C2917 C2916 1.370 . S
C2917 C2921 1.408 . S
C2918 C2916 1.363 . S
C2918 C2919 1.370 . S
C2918 C2922 1.524 . S
C2919 C2911 1.503 . S
C2919 C2918 1.370 . S
C2919 C2920 1.403 . S
C2920 C2919 1.403 . S
C2920 C2921 1.404 . S
C2920 C2923 1.539 . S
C2921 C2917 1.408 . S
C2921 C2920 1.404 . S
C2921 H2933 0.930 . S
C2922 C2918 1.524 . S
C2922 H2934 0.956 . S
C2922 H2935 0.961 . S
C2922 H2936 0.961 . S
C2923 C2920 1.539 . S
C2923 H2937 0.958 . S
C2923 H2938 0.961 . S
C2923 H2939 0.960 . S
H2924 C2908 0.931 . S
H2925 C2913 0.929 . S
H2926 C2914 0.960 . S
H2927 C2914 0.962 . S
H2928 C2914 0.960 . S
H2929 C2915 0.961 . S
H2930 C2915 0.961 . S
H2931 C2915 0.961 . S
H2932 C2916 0.931 . S
H2933 C2921 0.930 . S
H2934 C2922 0.956 . S
H2935 C2922 0.961 . S
H2936 C2922 0.961 . S
H2937 C2923 0.958 . S
H2938 C2923 0.961 . S
H2939 C2923 0.960 . S
C2940 C2941 1.391 . S
C2940 C2942 1.394 . S
C2940 H2956 0.931 . S
C2941 C2940 1.391 . S
C2941 C2945 1.376 . S
C2942 C2940 1.394 . S
C2942 C2943 1.369 . S
C2942 C2946 1.531 . S
C2943 C2942 1.369 . S
C2943 C2944 1.410 . S
C2943 C2951 1.503 . S
C2944 C2943 1.410 . S
C2944 C2945 1.392 . S
C2944 C2947 1.511 . S
C2945 C2941 1.376 . S
C2945 C2944 1.392 . S
C2945 H2957 0.929 . S
C2946 C2942 1.531 . S
C2946 H2958 0.960 . S
C2946 H2959 0.962 . S
C2946 H2960 0.960 . S
C2947 C2944 1.511 . S
C2947 H2961 0.961 . S
C2947 H2962 0.961 . S
C2947 H2963 0.961 . S
C2948 C2949 1.370 . S
C2948 C2950 1.363 . S
C2948 H2964 0.931 . S
C2949 C2948 1.370 . S
C2949 C2953 1.408 . S
C2950 C2948 1.363 . S
C2950 C2951 1.370 . S
C2950 C2954 1.524 . S
C2951 C2943 1.503 . S
C2951 C2950 1.370 . S
C2951 C2952 1.403 . S
C2952 C2951 1.403 . S
C2952 C2953 1.404 . S
C2952 C2955 1.539 . S
C2953 C2949 1.408 . S
C2953 C2952 1.404 . S
C2953 H2965 0.930 . S
C2954 C2950 1.524 . S
C2954 H2966 0.956 . S
C2954 H2967 0.961 . S
C2954 H2968 0.961 . S
C2955 C2952 1.539 . S
C2955 H2969 0.958 . S
C2955 H2970 0.961 . S
C2955 H2971 0.960 . S
H2956 C2940 0.931 . S
H2957 C2945 0.929 . S
H2958 C2946 0.960 . S
H2959 C2946 0.962 . S
H2960 C2946 0.960 . S
H2961 C2947 0.961 . S
H2962 C2947 0.961 . S
H2963 C2947 0.961 . S
H2964 C2948 0.931 . S
H2965 C2953 0.930 . S
H2966 C2954 0.956 . S
H2967 C2954 0.961 . S
H2968 C2954 0.961 . S
H2969 C2955 0.958 . S
H2970 C2955 0.961 . S
H2971 C2955 0.960 . S
C2972 C2973 1.391 . S
C2972 C2974 1.394 . S
C2972 H2988 0.931 . S
C2973 C2972 1.391 . S
C2973 C2977 1.376 . S
C2974 C2972 1.394 . S
C2974 C2975 1.369 . S
C2974 C2978 1.531 . S
C2975 C2974 1.369 . S
C2975 C2976 1.410 . S
C2975 C2983 1.503 . S
C2976 C2975 1.410 . S
C2976 C2977 1.392 . S
C2976 C2979 1.511 . S
C2977 C2973 1.376 . S
C2977 C2976 1.392 . S
C2977 H2989 0.929 . S
C2978 C2974 1.531 . S
C2978 H2990 0.960 . S
C2978 H2991 0.962 . S
C2978 H2992 0.960 . S
C2979 C2976 1.511 . S
C2979 H2993 0.961 . S
C2979 H2994 0.961 . S
C2979 H2995 0.961 . S
C2980 C2981 1.370 . S
C2980 C2982 1.363 . S
C2980 H2996 0.931 . S
C2981 C2980 1.370 . S
C2981 C2985 1.408 . S
C2982 C2980 1.363 . S
C2982 C2983 1.370 . S
C2982 C2986 1.524 . S
C2983 C2975 1.503 . S
C2983 C2982 1.370 . S
C2983 C2984 1.403 . S
C2984 C2983 1.403 . S
C2984 C2985 1.404 . S
C2984 C2987 1.539 . S
C2985 C2981 1.408 . S
C2985 C2984 1.404 . S
C2985 H2997 0.930 . S
C2986 C2982 1.524 . S
C2986 H2998 0.956 . S
C2986 H2999 0.961 . S
C2986 H3000 0.961 . S
C2987 C2984 1.539 . S
C2987 H3001 0.958 . S
C2987 H3002 0.961 . S
C2987 H3003 0.960 . S
H2988 C2972 0.931 . S
H2989 C2977 0.929 . S
H2990 C2978 0.960 . S
H2991 C2978 0.962 . S
H2992 C2978 0.960 . S
H2993 C2979 0.961 . S
H2994 C2979 0.961 . S
H2995 C2979 0.961 . S
H2996 C2980 0.931 . S
H2997 C2985 0.930 . S
H2998 C2986 0.956 . S
H2999 C2986 0.961 . S
H3000 C2986 0.961 . S
H3001 C2987 0.958 . S
H3002 C2987 0.961 . S
H3003 C2987 0.960 . S
C3004 C3005 1.391 . S
C3004 C3006 1.394 . S
C3004 H3020 0.931 . S
C3005 C3004 1.391 . S
C3005 C3009 1.376 . S
C3006 C3004 1.394 . S
C3006 C3007 1.369 . S
C3006 C3010 1.531 . S
C3007 C3006 1.369 . S
C3007 C3008 1.410 . S
C3007 C3015 1.503 . S
C3008 C3007 1.410 . S
C3008 C3009 1.392 . S
C3008 C3011 1.511 . S
C3009 C3005 1.376 . S
C3009 C3008 1.392 . S
C3009 H3021 0.929 . S
C3010 C3006 1.531 . S
C3010 H3022 0.960 . S
C3010 H3023 0.962 . S
C3010 H3024 0.960 . S
C3011 C3008 1.511 . S
C3011 H3025 0.961 . S
C3011 H3026 0.961 . S
C3011 H3027 0.961 . S
C3012 C3013 1.370 . S
C3012 C3014 1.363 . S
C3012 H3028 0.931 . S
C3013 C3012 1.370 . S
C3013 C3017 1.408 . S
C3014 C3012 1.363 . S
C3014 C3015 1.370 . S
C3014 C3018 1.524 . S
C3015 C3007 1.503 . S
C3015 C3014 1.370 . S
C3015 C3016 1.403 . S
C3016 C3015 1.403 . S
C3016 C3017 1.404 . S
C3016 C3019 1.539 . S
C3017 C3013 1.408 . S
C3017 C3016 1.404 . S
C3017 H3029 0.930 . S
C3018 C3014 1.524 . S
C3018 H3030 0.956 . S
C3018 H3031 0.961 . S
C3018 H3032 0.961 . S
C3019 C3016 1.539 . S
C3019 H3033 0.958 . S
C3019 H3034 0.961 . S
C3019 H3035 0.960 . S
H3020 C3004 0.931 . S
H3021 C3009 0.929 . S
H3022 C3010 0.960 . S
H3023 C3010 0.962 . S
H3024 C3010 0.960 . S
H3025 C3011 0.961 . S
H3026 C3011 0.961 . S
H3027 C3011 0.961 . S
H3028 C3012 0.931 . S
H3029 C3017 0.930 . S
H3030 C3018 0.956 . S
H3031 C3018 0.961 . S
H3032 C3018 0.961 . S
H3033 C3019 0.958 . S
H3034 C3019 0.961 . S
H3035 C3019 0.960 . S
C3036 C3037 1.391 . S
C3036 C3038 1.394 . S
C3036 H3052 0.931 . S
C3037 C3036 1.391 . S
C3037 C3041 1.376 . S
C3038 C3036 1.394 . S
C3038 C3039 1.369 . S
C3038 C3042 1.531 1_545 S
C3039 C3038 1.369 . S
C3039 C3040 1.410 . S
C3039 C3047 1.503 . S
C3040 C3039 1.410 . S
C3040 C3041 1.392 . S
C3040 C3043 1.511 . S
C3041 C3037 1.376 . S
C3041 C3040 1.392 . S
C3041 H3053 0.929 . S
C3042 C3038 1.531 1_565 S
C3042 H3054 0.960 . S
C3042 H3055 0.962 1_565 S
C3042 H3056 0.960 . S
C3043 C3040 1.511 . S
C3043 H3057 0.961 . S
C3043 H3058 0.961 . S
C3043 H3059 0.959 1_545 S
C3044 C3045 1.370 . S
C3044 C3046 1.363 . S
C3044 H3060 0.931 . S
C3045 C3044 1.370 . S
C3045 C3049 1.408 1_545 S
C3046 C3044 1.363 . S
C3046 C3047 1.370 . S
C3046 C3050 1.524 . S
C3047 C3039 1.503 . S
C3047 C3046 1.370 . S
C3047 C3048 1.403 1_545 S
C3048 C3047 1.403 1_565 S
C3048 C3049 1.404 . S
C3048 C3051 1.539 . S
C3049 C3045 1.408 1_565 S
C3049 C3048 1.404 . S
C3049 H3061 0.930 . S
C3050 C3046 1.524 . S
C3050 H3062 0.956 . S
C3050 H3063 0.961 . S
C3050 H3064 0.961 . S
C3051 C3048 1.539 . S
C3051 H3065 0.958 . S
C3051 H3066 0.961 . S
C3051 H3067 0.960 . S
H3052 C3036 0.931 . S
H3053 C3041 0.929 . S
H3054 C3042 0.960 . S
H3055 C3042 0.962 1_545 S
H3056 C3042 0.960 . S
H3057 C3043 0.961 . S
H3058 C3043 0.961 . S
H3059 C3043 0.959 1_565 S
H3060 C3044 0.931 . S
H3061 C3049 0.930 . S
H3062 C3050 0.956 . S
H3063 C3050 0.961 . S
H3064 C3050 0.961 . S
H3065 C3051 0.958 . S
H3066 C3051 0.961 . S
H3067 C3051 0.960 . S
C3068 C3069 1.391 . S
C3068 C3070 1.394 . S
C3068 H3084 0.931 . S
C3069 C3068 1.391 . S
C3069 C3073 1.376 1_655 S
C3070 C3068 1.394 . S
C3070 C3071 1.369 . S
C3070 C3074 1.531 . S
C3071 C3070 1.369 . S
C3071 C3072 1.410 1_655 S
C3071 C3079 1.503 . S
C3072 C3071 1.410 1_455 S
C3072 C3073 1.392 . S
C3072 C3075 1.511 . S
C3073 C3069 1.376 1_455 S
C3073 C3072 1.392 . S
C3073 H3085 0.929 . S
C3074 C3070 1.531 . S
C3074 H3086 0.960 . S
C3074 H3087 0.962 . S
C3074 H3088 0.960 . S
C3075 C3072 1.511 . S
C3075 H3089 0.961 . S
C3075 H3090 0.961 . S
C3075 H3091 0.961 . S
C3076 C3077 1.370 . S
C3076 C3078 1.363 . S
C3076 H3092 0.931 . S
C3077 C3076 1.370 . S
C3077 C3081 1.400 1_655 S
C3078 C3076 1.363 . S
C3078 C3079 1.370 . S
C3078 C3082 1.524 . S
C3079 C3071 1.503 . S
C3079 C3078 1.370 . S
C3079 C3080 1.408 . S
C3080 C3079 1.408 . S
C3080 C3081 1.430 1_655 S
C3080 C3083 1.514 1_655 S
C3081 C3077 1.400 1_455 S
C3081 C3080 1.430 1_455 S
C3081 H3093 0.932 . S
C3082 C3078 1.524 . S
C3082 H3094 0.956 . S
C3082 H3095 0.961 . S
C3082 H3096 0.961 . S
C3083 C3080 1.514 1_455 S
C3083 H3097 0.958 1_455 S
C3083 H3098 0.961 . S
C3083 H3099 0.960 . S
H3084 C3068 0.931 . S
H3085 C3073 0.929 . S
H3086 C3074 0.960 . S
H3087 C3074 0.962 . S
H3088 C3074 0.960 . S
H3089 C3075 0.961 . S
H3090 C3075 0.961 . S
H3091 C3075 0.961 . S
H3092 C3076 0.931 . S
H3093 C3081 0.932 . S
H3094 C3082 0.956 . S
H3095 C3082 0.961 . S
H3096 C3082 0.961 . S
H3097 C3083 0.958 1_655 S
H3098 C3083 0.961 . S
H3099 C3083 0.960 . S
C3100 C3101 1.391 . S
C3100 C3102 1.394 . S
C3100 H3116 0.931 . S
C3101 C3100 1.391 . S
C3101 C3105 1.376 . S
C3102 C3100 1.394 . S
C3102 C3103 1.369 . S
C3102 C3106 1.531 . S
C3103 C3102 1.369 . S
C3103 C3104 1.410 . S
C3103 C3111 1.503 . S
C3104 C3103 1.410 . S
C3104 C3105 1.392 . S
C3104 C3107 1.511 . S
C3105 C3101 1.376 . S
C3105 C3104 1.392 . S
C3105 H3117 0.929 . S
C3106 C3102 1.531 . S
C3106 H3118 0.960 . S
C3106 H3119 0.962 . S
C3106 H3120 0.960 . S
C3107 C3104 1.511 . S
C3107 H3121 0.961 . S
C3107 H3122 0.961 . S
C3107 H3123 0.961 . S
C3108 C3109 1.370 . S
C3108 C3110 1.363 . S
C3108 H3124 0.931 . S
C3109 C3108 1.370 . S
C3109 C3113 1.408 . S
C3110 C3108 1.363 . S
C3110 C3111 1.370 . S
C3110 C3114 1.524 . S
C3111 C3103 1.503 . S
C3111 C3110 1.370 . S
C3111 C3112 1.403 . S
C3112 C3111 1.403 . S
C3112 C3113 1.404 . S
C3112 C3115 1.539 . S
C3113 C3109 1.408 . S
C3113 C3112 1.404 . S
C3113 H3125 0.930 . S
C3114 C3110 1.524 . S
C3114 H3126 0.956 . S
C3114 H3127 0.961 . S
C3114 H3128 0.961 . S
C3115 C3112 1.539 . S
C3115 H3129 0.958 . S
C3115 H3130 0.961 . S
C3115 H3131 0.960 . S
H3116 C3100 0.931 . S
H3117 C3105 0.929 . S
H3118 C3106 0.960 . S
H3119 C3106 0.962 . S
H3120 C3106 0.960 . S
H3121 C3107 0.961 . S
H3122 C3107 0.961 . S
H3123 C3107 0.961 . S
H3124 C3108 0.931 . S
H3125 C3113 0.930 . S
H3126 C3114 0.956 . S
H3127 C3114 0.961 . S
H3128 C3114 0.961 . S
H3129 C3115 0.958 . S
H3130 C3115 0.961 . S
H3131 C3115 0.960 . S
C3132 C3133 1.391 . S
C3132 C3134 1.394 . S
C3132 H3148 0.931 . S
C3133 C3132 1.391 . S
C3133 C3137 1.376 . S
C3134 C3132 1.394 . S
C3134 C3135 1.369 . S
C3134 C3138 1.531 . S
C3135 C3134 1.369 . S
C3135 C3136 1.410 . S
C3135 C3143 1.503 . S
C3136 C3135 1.410 . S
C3136 C3137 1.392 . S
C3136 C3139 1.511 . S
C3137 C3133 1.376 . S
C3137 C3136 1.392 . S
C3137 H3149 0.929 . S
C3138 C3134 1.531 . S
C3138 H3150 0.960 . S
C3138 H3151 0.962 . S
C3138 H3152 0.960 . S
C3139 C3136 1.511 . S
C3139 H3153 0.961 . S
C3139 H3154 0.961 . S
C3139 H3155 0.961 . S
C3140 C3141 1.370 . S
C3140 C3142 1.363 . S
C3140 H3156 0.931 . S
C3141 C3140 1.370 . S
C3141 C3145 1.408 . S
C3142 C3140 1.363 . S
C3142 C3143 1.370 . S
C3142 C3146 1.524 . S
C3143 C3135 1.503 . S
C3143 C3142 1.370 . S
C3143 C3144 1.403 . S
C3144 C3143 1.403 . S
C3144 C3145 1.404 . S
C3144 C3147 1.539 . S
C3145 C3141 1.408 . S
C3145 C3144 1.404 . S
C3145 H3157 0.930 . S
C3146 C3142 1.524 . S
C3146 H3158 0.956 . S
C3146 H3159 0.961 . S
C3146 H3160 0.961 . S
C3147 C3144 1.539 . S
C3147 H3161 0.958 . S
C3147 H3162 0.961 . S
C3147 H3163 0.960 . S
H3148 C3132 0.931 . S
H3149 C3137 0.929 . S
H3150 C3138 0.960 . S
H3151 C3138 0.962 . S
H3152 C3138 0.960 . S
H3153 C3139 0.961 . S
H3154 C3139 0.961 . S
H3155 C3139 0.961 . S
H3156 C3140 0.931 . S
H3157 C3145 0.930 . S
H3158 C3146 0.956 . S
H3159 C3146 0.961 . S
H3160 C3146 0.961 . S
H3161 C3147 0.958 . S
H3162 C3147 0.961 . S
H3163 C3147 0.960 . S
C3164 C3165 1.391 . S
C3164 C3166 1.394 . S
C3164 H3180 0.931 . S
C3165 C3164 1.391 . S
C3165 C3169 1.376 . S
C3166 C3164 1.394 . S
C3166 C3167 1.369 . S
C3166 C3170 1.531 . S
C3167 C3166 1.369 . S
C3167 C3168 1.410 . S
C3167 C3175 1.503 . S
C3168 C3167 1.410 . S
C3168 C3169 1.392 . S
C3168 C3171 1.511 . S
C3169 C3165 1.376 . S
C3169 C3168 1.392 . S
C3169 H3181 0.929 . S
C3170 C3166 1.531 . S
C3170 H3182 0.960 . S
C3170 H3183 0.962 . S
C3170 H3184 0.960 . S
C3171 C3168 1.511 . S
C3171 H3185 0.961 . S
C3171 H3186 0.961 . S
C3171 H3187 0.961 . S
C3172 C3173 1.370 . S
C3172 C3174 1.363 . S
C3172 H3188 0.931 . S
C3173 C3172 1.370 . S
C3173 C3177 1.408 . S
C3174 C3172 1.363 . S
C3174 C3175 1.370 . S
C3174 C3178 1.524 . S
C3175 C3167 1.503 . S
C3175 C3174 1.370 . S
C3175 C3176 1.403 . S
C3176 C3175 1.403 . S
C3176 C3177 1.404 . S
C3176 C3179 1.539 . S
C3177 C3173 1.408 . S
C3177 C3176 1.404 . S
C3177 H3189 0.930 . S
C3178 C3174 1.524 . S
C3178 H3190 0.956 . S
C3178 H3191 0.961 . S
C3178 H3192 0.961 . S
C3179 C3176 1.539 . S
C3179 H3193 0.958 . S
C3179 H3194 0.961 . S
C3179 H3195 0.960 . S
H3180 C3164 0.931 . S
H3181 C3169 0.929 . S
H3182 C3170 0.960 . S
H3183 C3170 0.962 . S
H3184 C3170 0.960 . S
H3185 C3171 0.961 . S
H3186 C3171 0.961 . S
H3187 C3171 0.961 . S
H3188 C3172 0.931 . S
H3189 C3177 0.930 . S
H3190 C3178 0.956 . S
H3191 C3178 0.961 . S
H3192 C3178 0.961 . S
H3193 C3179 0.958 . S
H3194 C3179 0.961 . S
H3195 C3179 0.960 . S
C3196 C3197 1.391 . S
C3196 C3198 1.394 . S
C3196 H3212 0.931 . S
C3197 C3196 1.391 . S
C3197 C3201 1.376 . S
C3198 C3196 1.394 . S
C3198 C3199 1.369 . S
C3198 C3202 1.531 . S
C3199 C3198 1.369 . S
C3199 C3200 1.410 . S
C3199 C3207 1.503 . S
C3200 C3199 1.410 . S
C3200 C3201 1.392 . S
C3200 C3203 1.511 . S
C3201 C3197 1.376 . S
C3201 C3200 1.392 . S
C3201 H3213 0.929 . S
C3202 C3198 1.531 . S
C3202 H3214 0.960 . S
C3202 H3215 0.962 . S
C3202 H3216 0.960 . S
C3203 C3200 1.511 . S
C3203 H3217 0.961 . S
C3203 H3218 0.961 . S
C3203 H3219 0.961 . S
C3204 C3205 1.370 . S
C3204 C3206 1.363 . S
C3204 H3220 0.931 . S
C3205 C3204 1.370 . S
C3205 C3209 1.408 . S
C3206 C3204 1.363 . S
C3206 C3207 1.370 . S
C3206 C3210 1.524 . S
C3207 C3199 1.503 . S
C3207 C3206 1.370 . S
C3207 C3208 1.403 . S
C3208 C3207 1.403 . S
C3208 C3209 1.404 . S
C3208 C3211 1.539 . S
C3209 C3205 1.408 . S
C3209 C3208 1.404 . S
C3209 H3221 0.930 . S
C3210 C3206 1.524 . S
C3210 H3222 0.956 . S
C3210 H3223 0.961 . S
C3210 H3224 0.961 . S
C3211 C3208 1.539 . S
C3211 H3225 0.958 . S
C3211 H3226 0.961 . S
C3211 H3227 0.960 . S
H3212 C3196 0.931 . S
H3213 C3201 0.929 . S
H3214 C3202 0.960 . S
H3215 C3202 0.962 . S
H3216 C3202 0.960 . S
H3217 C3203 0.961 . S
H3218 C3203 0.961 . S
H3219 C3203 0.961 . S
H3220 C3204 0.931 . S
H3221 C3209 0.930 . S
H3222 C3210 0.956 . S
H3223 C3210 0.961 . S
H3224 C3210 0.961 . S
H3225 C3211 0.958 . S
H3226 C3211 0.961 . S
H3227 C3211 0.960 . S
C3228 C3229 1.391 . S
C3228 C3230 1.394 . S
C3228 H3244 0.931 . S
C3229 C3228 1.391 . S
C3229 C3233 1.376 . S
C3230 C3228 1.394 . S
C3230 C3231 1.369 . S
C3230 C3234 1.531 . S
C3231 C3230 1.369 . S
C3231 C3232 1.410 . S
C3231 C3239 1.503 . S
C3232 C3231 1.410 . S
C3232 C3233 1.392 . S
C3232 C3235 1.511 . S
C3233 C3229 1.376 . S
C3233 C3232 1.392 . S
C3233 H3245 0.929 . S
C3234 C3230 1.531 . S
C3234 H3246 0.960 . S
C3234 H3247 0.962 . S
C3234 H3248 0.960 . S
C3235 C3232 1.511 . S
C3235 H3249 0.961 . S
C3235 H3250 0.961 . S
C3235 H3251 0.961 . S
C3236 C3237 1.370 . S
C3236 C3238 1.363 . S
C3236 H3252 0.931 . S
C3237 C3236 1.370 . S
C3237 C3241 1.408 . S
C3238 C3236 1.363 . S
C3238 C3239 1.370 . S
C3238 C3242 1.524 . S
C3239 C3231 1.503 . S
C3239 C3238 1.370 . S
C3239 C3240 1.403 . S
C3240 C3239 1.403 . S
C3240 C3241 1.404 . S
C3240 C3243 1.539 . S
C3241 C3237 1.408 . S
C3241 C3240 1.404 . S
C3241 H3253 0.930 . S
C3242 C3238 1.524 . S
C3242 H3254 0.956 . S
C3242 H3255 0.961 . S
C3242 H3256 0.961 . S
C3243 C3240 1.539 . S
C3243 H3257 0.958 . S
C3243 H3258 0.961 . S
C3243 H3259 0.960 . S
H3244 C3228 0.931 . S
H3245 C3233 0.929 . S
H3246 C3234 0.960 . S
H3247 C3234 0.962 . S
H3248 C3234 0.960 . S
H3249 C3235 0.961 . S
H3250 C3235 0.961 . S
H3251 C3235 0.961 . S
H3252 C3236 0.931 . S
H3253 C3241 0.930 . S
H3254 C3242 0.956 . S
H3255 C3242 0.961 . S
H3256 C3242 0.961 . S
H3257 C3243 0.958 . S
H3258 C3243 0.961 . S
H3259 C3243 0.960 . S
C3260 C3261 1.391 . S
C3260 C3262 1.394 . S
C3260 H3276 0.931 . S
C3261 C3260 1.391 . S
C3261 C3265 1.376 . S
C3262 C3260 1.394 . S
C3262 C3263 1.369 . S
C3262 C3266 1.531 . S
C3263 C3262 1.369 . S
C3263 C3264 1.410 . S
C3263 C3271 1.503 . S
C3264 C3263 1.410 . S
C3264 C3265 1.392 . S
C3264 C3267 1.511 . S
C3265 C3261 1.376 . S
C3265 C3264 1.392 . S
C3265 H3277 0.929 . S
C3266 C3262 1.531 . S
C3266 H3278 0.960 . S
C3266 H3279 0.962 . S
C3266 H3280 0.960 . S
C3267 C3264 1.511 . S
C3267 H3281 0.961 . S
C3267 H3282 0.961 . S
C3267 H3283 0.961 . S
C3268 C3269 1.370 . S
C3268 C3270 1.363 . S
C3268 H3284 0.931 . S
C3269 C3268 1.370 . S
C3269 C3273 1.408 . S
C3270 C3268 1.363 . S
C3270 C3271 1.370 . S
C3270 C3274 1.524 . S
C3271 C3263 1.503 . S
C3271 C3270 1.370 . S
C3271 C3272 1.403 . S
C3272 C3271 1.403 . S
C3272 C3273 1.404 . S
C3272 C3275 1.539 . S
C3273 C3269 1.408 . S
C3273 C3272 1.404 . S
C3273 H3285 0.930 . S
C3274 C3270 1.524 . S
C3274 H3286 0.956 . S
C3274 H3287 0.961 . S
C3274 H3288 0.961 . S
C3275 C3272 1.539 . S
C3275 H3289 0.958 . S
C3275 H3290 0.961 . S
C3275 H3291 0.960 . S
H3276 C3260 0.931 . S
H3277 C3265 0.929 . S
H3278 C3266 0.960 . S
H3279 C3266 0.962 . S
H3280 C3266 0.960 . S
H3281 C3267 0.961 . S
H3282 C3267 0.961 . S
H3283 C3267 0.961 . S
H3284 C3268 0.931 . S
H3285 C3273 0.930 . S
H3286 C3274 0.956 . S
H3287 C3274 0.961 . S
H3288 C3274 0.961 . S
H3289 C3275 0.958 . S
H3290 C3275 0.961 . S
H3291 C3275 0.960 . S
C3292 C3293 1.391 . S
C3292 C3294 1.394 . S
C3292 H3308 0.931 . S
C3293 C3292 1.391 . S
C3293 C3297 1.376 . S
C3294 C3292 1.394 . S
C3294 C3295 1.369 . S
C3294 C3298 1.531 . S
C3295 C3294 1.369 . S
C3295 C3296 1.410 . S
C3295 C3303 1.503 . S
C3296 C3295 1.410 . S
C3296 C3297 1.392 . S
C3296 C3299 1.511 . S
C3297 C3293 1.376 . S
C3297 C3296 1.392 . S
C3297 H3309 0.929 . S
C3298 C3294 1.531 . S
C3298 H3310 0.960 . S
C3298 H3311 0.962 . S
C3298 H3312 0.960 . S
C3299 C3296 1.511 . S
C3299 H3313 0.961 . S
C3299 H3314 0.961 . S
C3299 H3315 0.961 . S
C3300 C3301 1.370 . S
C3300 C3302 1.363 . S
C3300 H3316 0.931 . S
C3301 C3300 1.370 . S
C3301 C3305 1.408 . S
C3302 C3300 1.363 . S
C3302 C3303 1.370 . S
C3302 C3306 1.524 . S
C3303 C3295 1.503 . S
C3303 C3302 1.370 . S
C3303 C3304 1.403 . S
C3304 C3303 1.403 . S
C3304 C3305 1.404 . S
C3304 C3307 1.539 . S
C3305 C3301 1.408 . S
C3305 C3304 1.404 . S
C3305 H3317 0.930 . S
C3306 C3302 1.524 . S
C3306 H3318 0.956 . S
C3306 H3319 0.961 . S
C3306 H3320 0.961 . S
C3307 C3304 1.539 . S
C3307 H3321 0.958 . S
C3307 H3322 0.961 . S
C3307 H3323 0.960 . S
H3308 C3292 0.931 . S
H3309 C3297 0.929 . S
H3310 C3298 0.960 . S
H3311 C3298 0.962 . S
H3312 C3298 0.960 . S
H3313 C3299 0.961 . S
H3314 C3299 0.961 . S
H3315 C3299 0.961 . S
H3316 C3300 0.931 . S
H3317 C3305 0.930 . S
H3318 C3306 0.956 . S
H3319 C3306 0.961 . S
H3320 C3306 0.961 . S
H3321 C3307 0.958 . S
H3322 C3307 0.961 . S
H3323 C3307 0.960 . S
C3324 C3325 1.391 . S
C3324 C3326 1.394 . S
C3324 H3340 0.931 . S
C3325 C3324 1.391 . S
C3325 C3329 1.376 1_655 S
C3326 C3324 1.394 . S
C3326 C3327 1.369 . S
C3326 C3330 1.531 . S
C3327 C3326 1.369 . S
C3327 C3328 1.410 1_655 S
C3327 C3335 1.503 . S
C3328 C3327 1.410 1_455 S
C3328 C3329 1.392 . S
C3328 C3331 1.511 . S
C3329 C3325 1.376 1_455 S
C3329 C3328 1.392 . S
C3329 H3341 0.929 . S
C3330 C3326 1.531 . S
C3330 H3342 0.960 . S
C3330 H3343 0.962 . S
C3330 H3344 0.960 . S
C3331 C3328 1.511 . S
C3331 H3345 0.961 . S
C3331 H3346 0.961 . S
C3331 H3347 0.961 . S
C3332 C3333 1.370 . S
C3332 C3334 1.363 . S
C3332 H3348 0.924 1_655 S
C3333 C3332 1.370 . S
C3333 C3337 1.408 . S
C3334 C3332 1.363 . S
C3334 C3335 1.370 . S
C3334 C3338 1.529 1_655 S
C3335 C3327 1.503 . S
C3335 C3334 1.370 . S
C3335 C3336 1.403 . S
C3336 C3335 1.403 . S
C3336 C3337 1.404 . S
C3336 C3339 1.539 . S
C3337 C3333 1.408 . S
C3337 C3336 1.404 . S
C3337 H3349 0.930 . S
C3338 C3334 1.529 1_455 S
C3338 H3350 0.938 1_455 S
C3338 H3351 0.966 . S
C3338 H3352 0.968 . S
C3339 C3336 1.539 . S
C3339 H3353 0.958 . S
C3339 H3354 0.961 . S
C3339 H3355 0.960 . S
H3340 C3324 0.931 . S
H3341 C3329 0.929 . S
H3342 C3330 0.960 . S
H3343 C3330 0.962 . S
H3344 C3330 0.960 . S
H3345 C3331 0.961 . S
H3346 C3331 0.961 . S
H3347 C3331 0.961 . S
H3348 C3332 0.924 1_455 S
H3349 C3337 0.930 . S
H3350 C3338 0.938 1_655 S
H3351 C3338 0.966 . S
H3352 C3338 0.968 . S
H3353 C3339 0.958 . S
H3354 C3339 0.961 . S
H3355 C3339 0.960 . S
C3356 C3357 1.391 . S
C3356 C3358 1.394 . S
C3356 H3372 0.931 . S
C3357 C3356 1.391 . S
C3357 C3361 1.376 . S
C3358 C3356 1.394 . S
C3358 C3359 1.369 . S
C3358 C3362 1.531 . S
C3359 C3358 1.369 . S
C3359 C3360 1.410 . S
C3359 C3367 1.503 . S
C3360 C3359 1.410 . S
C3360 C3361 1.392 . S
C3360 C3363 1.511 . S
C3361 C3357 1.376 . S
C3361 C3360 1.392 . S
C3361 H3373 0.929 . S
C3362 C3358 1.531 . S
C3362 H3374 0.960 . S
C3362 H3375 0.962 . S
C3362 H3376 0.960 . S
C3363 C3360 1.511 . S
C3363 H3377 0.961 . S
C3363 H3378 0.961 . S
C3363 H3379 0.961 . S
C3364 C3365 1.370 . S
C3364 C3366 1.363 . S
C3364 H3380 0.931 . S
C3365 C3364 1.370 . S
C3365 C3369 1.408 . S
C3366 C3364 1.363 . S
C3366 C3367 1.370 . S
C3366 C3370 1.524 . S
C3367 C3359 1.503 . S
C3367 C3366 1.370 . S
C3367 C3368 1.403 . S
C3368 C3367 1.403 . S
C3368 C3369 1.404 . S
C3368 C3371 1.539 . S
C3369 C3365 1.408 . S
C3369 C3368 1.404 . S
C3369 H3381 0.930 . S
C3370 C3366 1.524 . S
C3370 H3382 0.956 . S
C3370 H3383 0.961 . S
C3370 H3384 0.961 . S
C3371 C3368 1.539 . S
C3371 H3385 0.958 . S
C3371 H3386 0.961 . S
C3371 H3387 0.960 . S
H3372 C3356 0.931 . S
H3373 C3361 0.929 . S
H3374 C3362 0.960 . S
H3375 C3362 0.962 . S
H3376 C3362 0.960 . S
H3377 C3363 0.961 . S
H3378 C3363 0.961 . S
H3379 C3363 0.961 . S
H3380 C3364 0.931 . S
H3381 C3369 0.930 . S
H3382 C3370 0.956 . S
H3383 C3370 0.961 . S
H3384 C3370 0.961 . S
H3385 C3371 0.958 . S
H3386 C3371 0.961 . S
H3387 C3371 0.960 . S
C3388 C3389 1.391 . S
C3388 C3390 1.394 . S
C3388 H3404 0.931 . S
C3389 C3388 1.391 . S
C3389 C3393 1.376 . S
C3390 C3388 1.394 . S
C3390 C3391 1.369 . S
C3390 C3394 1.531 . S
C3391 C3390 1.369 . S
C3391 C3392 1.410 . S
C3391 C3399 1.503 . S
C3392 C3391 1.410 . S
C3392 C3393 1.392 . S
C3392 C3395 1.520 . S
C3393 C3389 1.376 . S
C3393 C3392 1.392 . S
C3393 H3405 0.929 . S
C3394 C3390 1.531 . S
C3394 H3406 0.960 1_545 S
C3394 H3407 0.962 . S
C3394 H3408 0.949 1_545 S
C3395 C3392 1.520 . S
C3395 H3409 0.962 . S
C3395 H3410 1.007 . S
C3395 H3411 0.910 1_545 S
C3396 C3397 1.370 . S
C3396 C3398 1.363 . S
C3396 H3412 0.931 . S
C3397 C3396 1.370 . S
C3397 C3401 1.408 1_545 S
C3398 C3396 1.363 . S
C3398 C3399 1.370 . S
C3398 C3402 1.524 . S
C3399 C3391 1.503 . S
C3399 C3398 1.370 . S
C3399 C3400 1.403 1_545 S
C3400 C3399 1.403 1_565 S
C3400 C3401 1.404 . S
C3400 C3403 1.539 . S
C3401 C3397 1.408 1_565 S
C3401 C3400 1.404 . S
C3401 H3413 0.930 . S
C3402 C3398 1.524 . S
C3402 H3414 0.956 . S
C3402 H3415 0.961 . S
C3402 H3416 0.961 . S
C3403 C3400 1.539 . S
C3403 H3417 0.958 . S
C3403 H3418 0.961 . S
C3403 H3419 0.960 . S
H3404 C3388 0.931 . S
H3405 C3393 0.929 . S
H3406 C3394 0.960 1_565 S
H3407 C3394 0.962 . S
H3408 C3394 0.949 1_565 S
H3409 C3395 0.962 . S
H3410 C3395 1.007 . S
H3411 C3395 0.910 1_565 S
H3412 C3396 0.931 . S
H3413 C3401 0.930 . S
H3414 C3402 0.956 . S
H3415 C3402 0.961 . S
H3416 C3402 0.961 . S
H3417 C3403 0.958 . S
H3418 C3403 0.961 . S
H3419 C3403 0.960 . S
C1117 C7 1.436 . S
C1125 C729 1.478 . S
C1149 C23 1.596 . S
C1157 C777 1.603 . S
C1189 C825 1.499 . S
C1181 C37 1.496 . S
C1213 C35 1.462 . S
C1221 C849 1.499 . S
C1245 C9 1.454 . S
C1253 C921 1.505 . S
C1277 C21 1.581 . S
C1285 C969 1.605 . S
C1309 C49 1.433 . S
C1317 C897 1.482 . S
C1349 C945 1.598 . S
C1341 C65 1.586 . S
C1381 C873 1.510 . S
C1373 C79 1.479 1_565 S
C1405 C77 1.466 . S
C1413 C801 1.477 . S
C1445 C705 1.522 . S
C1437 C51 1.492 1_655 S
C1469 C63 1.568 . S
C1477 C753 1.614 . S
C1501 C91 1.615 . S
C1509 C1017 1.682 . S
C1533 C107 1.657 . S
C1541 C1065 1.659 . S
C1573 C1089 1.645 . S
C1565 C121 1.666 . S
C1597 C119 1.582 . S
C1605 C273 1.634 . S
C1629 C93 1.650 . S
C1637 C345 1.659 . S
C1661 C105 1.616 . S
C1669 C393 1.641 . S
C1693 C133 1.557 . S
C1701 C321 1.601 . S
C1725 C149 1.636 . S
C1733 C369 1.638 . S
C1765 C297 1.627 . S
C1757 C163 1.663 . S
C1797 C1113 1.681 . S
C1789 C161 1.696 . S
C1829 C993 1.646 . S
C1821 C135 1.646 . S
C1861 C1041 1.688 . S
C1853 C147 1.635 . S
C1885 C175 1.559 . S
C1893 C441 1.592 . S
C1917 C191 1.640 . S
C1925 C489 1.634 . S
C1949 C205 1.650 . S
C1957 C513 1.644 . S
C1981 C203 1.701 . S
C1989 C561 1.701 . S
C2021 C633 1.658 . S
C2013 C177 1.660 . S
C2053 C681 1.682 . S
C2045 C189 1.665 . S
C2085 C609 1.695 . S
C2077 C217 1.643 . S
C2117 C657 1.669 . S
C2109 C233 1.668 . S
C2141 C247 1.657 . S
C2149 C585 1.617 . S
C2181 C537 1.601 . S
C2173 C245 1.572 . S
C2205 C219 1.671 . S
C2213 C417 1.668 . S
C2245 C465 1.648 . S
C2237 C231 1.641 . S
C2277 C282 1.605 . S
C2269 C8 1.601 . S
C2301 C17 1.518 . S
C2309 C336 1.504 . S
C2341 C384 1.583 . S
C2333 C31 1.615 . S
C2373 C432 1.604 . S
C2365 C36 1.611 . S
C2405 C480 1.564 . S
C2397 C3 1.592 . S
C2437 C522 1.534 . S
C2429 C22 1.524 . S
C2461 C50 1.617 . S
C2469 C528 1.605 . S
C2493 C59 1.505 . S
C2501 C426 1.496 . S
C2525 C73 1.564 . S
C2533 C474 1.558 . S
C2557 C78 1.640 . S
C2565 C330 1.597 . S
C2597 C378 1.540 . S
C2589 C45 1.584 . S
C2621 C64 1.528 . S
C2629 C288 1.525 . S
C2661 C570 1.574 . S
C2653 C92 1.577 . S
C2685 C101 1.650 . S
C2693 C624 1.616 . S
C2717 C115 1.655 . S
C2725 C672 1.637 . S
C2757 C720 1.445 . S
C2749 C120 1.438 . S
C2781 C87 1.575 . S
C2789 C768 1.552 . S
C2813 C106 1.412 . S
C2821 C816 1.411 . S
C2845 C134 1.412 . S
C2853 C810 1.421 . S
C2877 C143 1.430 . S
C2885 C714 1.434 . S
C2917 C762 1.553 . S
C2909 C157 1.576 . S
C2941 C162 1.585 . S
C2949 C618 1.554 . S
C2973 C129 1.654 . S
C2981 C666 1.607 . S
C3013 C576 1.640 . S
C3005 C148 1.639 . S
C3045 C858 1.431 . S
C3037 C176 1.429 . S
C3069 C185 1.421 . S
C3077 C912 1.422 . S
C3101 C199 1.580 . S
C3109 C960 1.561 . S
C3141 C1008 1.567 . S
C3133 C204 1.575 . S
C3173 C1056 1.626 . S
C3165 C171 1.655 . S
C3197 C190 1.638 . S
C3205 C1098 1.648 . S
C3229 C218 1.581 . S
C3237 C1104 1.577 . S
C3261 C227 1.640 . S
C3269 C1002 1.614 . S
C3301 C1050 1.614 . S
C3293 C241 1.638 . S
C3333 C906 1.437 . S
C3325 C246 1.422 . S
C3365 C954 1.537 . S
C3357 C213 1.582 . S
C3389 C232 1.420 . S
C3397 C864 1.417 . S
