# Generated by pormake.
# Topology pyr, (3,6)-cn, num edge types: 1
# Building blocks:
#     Node 0, Type 0, BuildingBlock: VETTIZ_charged_linker_0, # of connection points: 3
#     Node 1, Type 0, BuildingBlock: VETTIZ_charged_linker_0, # of connection points: 3
#     Node 2, Type 0, BuildingBlock: VETTIZ_charged_linker_0, # of connection points: 3
#     Node 3, Type 0, BuildingBlock: VETTIZ_charged_linker_0, # of connection points: 3
#     Node 4, Type 0, BuildingBlock: VETTIZ_charged_linker_0, # of connection points: 3
#     Node 5, Type 0, BuildingBlock: VETTIZ_charged_linker_0, # of connection points: 3
#     Node 6, Type 0, BuildingBlock: VETTIZ_charged_linker_0, # of connection points: 3
#     Node 7, Type 0, BuildingBlock: VETTIZ_charged_linker_0, # of connection points: 3
#     Node 8, Type 1, BuildingBlock: GEDQOX_clean_sbu_0, # of connection points: 6
#     Node 9, Type 1, BuildingBlock: GEDQOX_clean_sbu_0, # of connection points: 6
#     Node 10, Type 1, BuildingBlock: GEDQOX_clean_sbu_0, # of connection points: 6
#     Node 11, Type 1, BuildingBlock: GEDQOX_clean_sbu_0, # of connection points: 6
#     Edge 12, Type (0, 1), BuildingBlock: MIFKUJ_clean_linker_0, # of connection points: 2
#     Edge 13, Type (0, 1), BuildingBlock: MIFKUJ_clean_linker_0, # of connection points: 2
#     Edge 14, Type (0, 1), BuildingBlock: MIFKUJ_clean_linker_0, # of connection points: 2
#     Edge 15, Type (0, 1), BuildingBlock: MIFKUJ_clean_linker_0, # of connection points: 2
#     Edge 16, Type (0, 1), BuildingBlock: MIFKUJ_clean_linker_0, # of connection points: 2
#     Edge 17, Type (0, 1), BuildingBlock: MIFKUJ_clean_linker_0, # of connection points: 2
#     Edge 18, Type (0, 1), BuildingBlock: MIFKUJ_clean_linker_0, # of connection points: 2
#     Edge 19, Type (0, 1), BuildingBlock: MIFKUJ_clean_linker_0, # of connection points: 2
#     Edge 20, Type (0, 1), BuildingBlock: MIFKUJ_clean_linker_0, # of connection points: 2
#     Edge 21, Type (0, 1), BuildingBlock: MIFKUJ_clean_linker_0, # of connection points: 2
#     Edge 22, Type (0, 1), BuildingBlock: MIFKUJ_clean_linker_0, # of connection points: 2
#     Edge 23, Type (0, 1), BuildingBlock: MIFKUJ_clean_linker_0, # of connection points: 2
#     Edge 24, Type (0, 1), BuildingBlock: MIFKUJ_clean_linker_0, # of connection points: 2
#     Edge 25, Type (0, 1), BuildingBlock: MIFKUJ_clean_linker_0, # of connection points: 2
#     Edge 26, Type (0, 1), BuildingBlock: MIFKUJ_clean_linker_0, # of connection points: 2
#     Edge 27, Type (0, 1), BuildingBlock: MIFKUJ_clean_linker_0, # of connection points: 2
#     Edge 28, Type (0, 1), BuildingBlock: MIFKUJ_clean_linker_0, # of connection points: 2
#     Edge 29, Type (0, 1), BuildingBlock: MIFKUJ_clean_linker_0, # of connection points: 2
#     Edge 30, Type (0, 1), BuildingBlock: MIFKUJ_clean_linker_0, # of connection points: 2
#     Edge 31, Type (0, 1), BuildingBlock: MIFKUJ_clean_linker_0, # of connection points: 2
#     Edge 32, Type (0, 1), BuildingBlock: MIFKUJ_clean_linker_0, # of connection points: 2
#     Edge 33, Type (0, 1), BuildingBlock: MIFKUJ_clean_linker_0, # of connection points: 2
#     Edge 34, Type (0, 1), BuildingBlock: MIFKUJ_clean_linker_0, # of connection points: 2
#     Edge 35, Type (0, 1), BuildingBlock: MIFKUJ_clean_linker_0, # of connection points: 2
# Relax obj value: 0.082
# Max RMSD: 0.146
# Mean RMSD: 0.059
data_MOF--net-pyr--node1-GEDQOX_clean_sbu_0--node2-VETTIZ_charged_linker_0--edge1-MIFKUJ_clean_linker_0
_symmetry_space_group_name_H-M    P1
_symmetry_Int_Tables_number       1
_symmetry_cell_setting            triclinic
loop_
_symmetry_equiv_pos_as_xyz
'x, y, z'
_cell_length_a     61.074357
_cell_length_b     60.680852
_cell_length_c     53.88426
_cell_angle_alpha  89.023722
_cell_angle_beta   93.192007
_cell_angle_gamma 90.495925
loop_
_atom_site_label
_atom_site_type_symbol
_atom_site_fract_x
_atom_site_fract_y
_atom_site_fract_z
_atom_type_partial_charge
C0 C 0.16402 0.12874 0.22659 0.0
C1 C 0.14465 0.13553 0.23851 0.0
C2 C 0.13433 0.15455 0.2275 0.0
C3 C 0.1618 0.15963 0.19576 0.0
C4 C 0.17216 0.1409 0.20549 0.0
C5 C 0.19226 0.13611 0.19057 0.0
H6 H 0.26076 0.16037 0.09397 0.0
C7 C 0.17419 0.16884 0.17388 0.0
C8 C 0.1923 0.15485 0.17062 0.0
H9 H 0.26626 0.10646 0.14734 0.0
H10 H 0.23427 0.1192 0.1668 0.0
H11 H 0.2452 0.19935 0.13703 0.0
H12 H 0.20314 0.16039 0.08667 0.0
H13 H 0.19877 0.18933 0.08434 0.0
H14 H 0.22417 0.17815 0.0751 0.0
H15 H 0.24801 0.20087 0.10397 0.0
H16 H 0.22621 0.21501 0.11796 0.0
C17 C 0.21285 0.1373 0.20844 0.0
C18 C 0.1888 0.11337 0.17855 0.0
C19 C 0.14546 0.2408 0.12909 0.0
C20 C 0.15181 0.25478 0.10886 0.0
C21 C 0.17101 0.24732 0.09746 0.0
C22 C 0.1828 0.22776 0.10533 0.0
C23 C 0.17612 0.21435 0.12538 0.0
C24 C 0.15757 0.22123 0.13683 0.0
C25 C 0.15244 0.20532 0.1579 0.0
C26 C 0.17069 0.18797 0.1576 0.0
C27 C 0.18501 0.19296 0.13826 0.0
C28 C 0.15387 0.21834 0.18237 0.0
C29 C 0.1296 0.19494 0.15161 0.0
C30 C 0.25517 0.1511 0.10976 0.0
C31 C 0.26736 0.13189 0.11861 0.0
C32 C 0.25851 0.12121 0.13964 0.0
C33 C 0.23939 0.12866 0.15112 0.0
C34 C 0.22778 0.1476 0.14229 0.0
C35 C 0.23583 0.15865 0.12186 0.0
C36 C 0.22149 0.17899 0.11554 0.0
C37 C 0.20354 0.17817 0.13488 0.0
C38 C 0.20728 0.15936 0.15084 0.0
C39 C 0.23596 0.19977 0.11866 0.0
C40 C 0.21134 0.17673 0.08889 0.0
H41 H 0.13344 0.18047 0.20029 0.0
H42 H 0.17288 0.11438 0.23362 0.0
H43 H 0.17191 0.11197 0.16983 0.0
H44 H 0.19997 0.1106 0.16355 0.0
H45 H 0.19099 0.09989 0.19266 0.0
H46 H 0.2123 0.15214 0.22021 0.0
H47 H 0.21393 0.12256 0.22095 0.0
H48 H 0.22813 0.13879 0.19854 0.0
H49 H 0.13113 0.24476 0.13897 0.0
H50 H 0.1774 0.25663 0.08219 0.0
H51 H 0.19695 0.22369 0.09538 0.0
H52 H 0.16811 0.22991 0.18276 0.0
H53 H 0.13885 0.22822 0.18433 0.0
H54 H 0.15658 0.20767 0.19902 0.0
H55 H 0.12722 0.19194 0.13132 0.0
H56 H 0.1275 0.17861 0.16055 0.0
H57 H 0.11626 0.20596 0.15689 0.0
H58 H 0.11927 0.16051 0.23447 0.0
C59 C 0.14259 0.16633 0.20691 0.0
C60 C 0.27683 0.787 0.68213 0.0
C61 C 0.26549 0.80555 0.68985 0.0
C62 C 0.27492 0.8181 0.70958 0.0
C63 C 0.30667 0.79424 0.71266 0.0
C64 C 0.29732 0.78182 0.69357 0.0
C65 C 0.31192 0.76339 0.68652 0.0
H66 H 0.40812 0.70926 0.70217 0.0
C67 C 0.32849 0.78491 0.71975 0.0
C68 C 0.33167 0.76691 0.7044 0.0
H69 H 0.35346 0.69627 0.6497 0.0
H70 H 0.33351 0.72615 0.66598 0.0
H71 H 0.40731 0.76153 0.6946 0.0
H72 H 0.37848 0.71978 0.74972 0.0
H73 H 0.39129 0.7424 0.76474 0.0
H74 H 0.40757 0.72357 0.7482 0.0
H75 H 0.42355 0.7489 0.71964 0.0
H76 H 0.41031 0.77506 0.72315 0.0
C77 C 0.31761 0.76716 0.65905 0.0
C78 C 0.30001 0.74127 0.69176 0.0
C79 C 0.37618 0.81971 0.78892 0.0
C80 C 0.39764 0.81573 0.79862 0.0
C81 C 0.40969 0.79854 0.78879 0.0
C82 C 0.4004 0.78536 0.76972 0.0
C83 C 0.3789 0.78958 0.76016 0.0
C84 C 0.36725 0.80664 0.76968 0.0
C85 C 0.3451 0.80953 0.75647 0.0
C86 C 0.34514 0.79111 0.73779 0.0
C87 C 0.36493 0.77937 0.74009 0.0
C88 C 0.3445 0.83262 0.74364 0.0
C89 C 0.32741 0.80577 0.77563 0.0
C90 C 0.3919 0.71293 0.69412 0.0
C91 C 0.38235 0.70014 0.6747 0.0
C92 C 0.36109 0.70546 0.66497 0.0
C93 C 0.34955 0.723 0.67432 0.0
C94 C 0.3593 0.73563 0.6936 0.0
C95 C 0.38011 0.73053 0.70323 0.0
C96 C 0.38783 0.74601 0.72355 0.0
C97 C 0.36816 0.76113 0.7245 0.0
C98 C 0.35156 0.75493 0.70686 0.0
C99 C 0.40842 0.7585 0.71505 0.0
C100 C 0.39168 0.73236 0.7479 0.0
H101 H 0.30169 0.82284 0.73578 0.0
H102 H 0.27004 0.77675 0.6673 0.0
H103 H 0.29035 0.74236 0.70861 0.0
H104 H 0.31141 0.72749 0.69583 0.0
H105 H 0.28846 0.73681 0.67595 0.0
H106 H 0.31864 0.78507 0.65438 0.0
H107 H 0.30493 0.75976 0.64608 0.0
H108 H 0.33385 0.76067 0.655 0.0
H109 H 0.36671 0.83312 0.79576 0.0
H110 H 0.42627 0.79522 0.796 0.0
H111 H 0.41034 0.77247 0.76307 0.0
H112 H 0.3611 0.83786 0.73822 0.0
H113 H 0.33853 0.84531 0.75618 0.0
H114 H 0.33432 0.83295 0.72603 0.0
H115 H 0.33187 0.79165 0.78831 0.0
H116 H 0.31118 0.80146 0.76696 0.0
H117 H 0.32574 0.82055 0.78723 0.0
H118 H 0.2668 0.83265 0.71577 0.0
C119 C 0.29535 0.81251 0.72106 0.0
C120 C 0.6668 0.32984 0.90059 0.0
C121 C 0.64574 0.32143 0.89426 0.0
C122 C 0.63283 0.33184 0.87505 0.0
C123 C 0.66221 0.35789 0.86809 0.0
C124 C 0.67463 0.34808 0.88737 0.0
C125 C 0.69671 0.35897 0.8915 0.0
H126 H 0.76885 0.43834 0.8596 0.0
C127 C 0.67541 0.3759 0.85756 0.0
C128 C 0.69557 0.37676 0.8713 0.0
H129 H 0.7767 0.38803 0.91731 0.0
H130 H 0.7407 0.37391 0.90643 0.0
H131 H 0.71782 0.4498 0.86727 0.0
H132 H 0.7481 0.40485 0.81863 0.0
H133 H 0.726 0.41727 0.80169 0.0
H134 H 0.74864 0.43413 0.81336 0.0
H135 H 0.73352 0.45899 0.84179 0.0
H136 H 0.70477 0.45235 0.83739 0.0
C137 C 0.69797 0.36885 0.91789 0.0
C138 C 0.71458 0.34168 0.8871 0.0
C139 C 0.64549 0.41781 0.7811 0.0
C140 C 0.65387 0.43489 0.76636 0.0
C141 C 0.67461 0.44401 0.77328 0.0
C142 C 0.68681 0.43609 0.7944 0.0
C143 C 0.67825 0.41878 0.80871 0.0
C144 C 0.65783 0.41009 0.80201 0.0
C145 C 0.65125 0.39174 0.81916 0.0
C146 C 0.67121 0.39058 0.83712 0.0
C147 C 0.68703 0.4064 0.83095 0.0
C148 C 0.63048 0.39898 0.83212 0.0
C149 C 0.64824 0.37048 0.80373 0.0
C150 C 0.76291 0.42419 0.86981 0.0
C151 C 0.77571 0.41455 0.88964 0.0
C152 C 0.76712 0.39621 0.90242 0.0
C153 C 0.74619 0.38787 0.89593 0.0
C154 C 0.73362 0.39775 0.87625 0.0
C155 C 0.74207 0.41548 0.86338 0.0
C156 C 0.72659 0.42327 0.84237 0.0
C157 C 0.70731 0.4076 0.84517 0.0
C158 C 0.71155 0.39276 0.86511 0.0
C159 C 0.72035 0.44743 0.8472 0.0
C160 C 0.73781 0.41992 0.81763 0.0
H161 H 0.63043 0.35693 0.8473 0.0
H162 H 0.67703 0.32232 0.91541 0.0
H163 H 0.70888 0.32994 0.87242 0.0
H164 H 0.72972 0.34909 0.88021 0.0
H165 H 0.71877 0.3319 0.9043 0.0
H166 H 0.68178 0.37547 0.92253 0.0
H167 H 0.70278 0.35616 0.93221 0.0
H168 H 0.70936 0.38303 0.91972 0.0
H169 H 0.6298 0.41015 0.77616 0.0
H170 H 0.68137 0.45734 0.76242 0.0
H171 H 0.70246 0.44369 0.79871 0.0
H172 H 0.63013 0.41719 0.83422 0.0
H173 H 0.61529 0.39409 0.82124 0.0
H174 H 0.62988 0.39232 0.8513 0.0
H175 H 0.66096 0.36952 0.78979 0.0
H176 H 0.65017 0.35523 0.81505 0.0
H177 H 0.63194 0.37012 0.7935 0.0
H178 H 0.61667 0.32551 0.86961 0.0
C179 C 0.64094 0.34999 0.86197 0.0
C180 C 0.88665 0.79985 0.32796 0.0
C181 C 0.88743 0.80355 0.35369 0.0
C182 C 0.8746 0.79008 0.36891 0.0
C183 C 0.86051 0.76996 0.3329 0.0
C184 C 0.87319 0.78306 0.31803 0.0
C185 C 0.87067 0.7769 0.29111 0.0
H186 H 0.82592 0.70924 0.20339 0.0
C187 C 0.84836 0.75407 0.31678 0.0
C188 C 0.85424 0.75808 0.29224 0.0
H189 H 0.87392 0.76096 0.19383 0.0
H190 H 0.87206 0.77072 0.23707 0.0
H191 H 0.84693 0.69021 0.24915 0.0
H192 H 0.79444 0.73684 0.24111 0.0
H193 H 0.78737 0.71734 0.26386 0.0
H194 H 0.79166 0.7084 0.23278 0.0
H195 H 0.81912 0.68157 0.24244 0.0
H196 H 0.83035 0.68437 0.27396 0.0
C197 C 0.89324 0.76911 0.28295 0.0
C198 C 0.86114 0.79693 0.27607 0.0
C199 C 0.79585 0.69842 0.35375 0.0
C200 C 0.78279 0.68139 0.34316 0.0
C201 C 0.78356 0.67751 0.31749 0.0
C202 C 0.79653 0.69064 0.30253 0.0
C203 C 0.80918 0.70777 0.31327 0.0
C204 C 0.80896 0.71128 0.3385 0.0
C205 C 0.8241 0.72985 0.34663 0.0
C206 C 0.83313 0.73701 0.322 0.0
C207 C 0.82417 0.72408 0.3026 0.0
C208 C 0.84218 0.72025 0.36494 0.0
C209 C 0.81016 0.7481 0.35763 0.0
C210 C 0.83549 0.72316 0.21035 0.0
C211 C 0.84987 0.73455 0.19516 0.0
C212 C 0.86266 0.75203 0.20522 0.0
C213 C 0.86166 0.75752 0.23034 0.0
C214 C 0.84796 0.74519 0.24559 0.0
C215 C 0.83498 0.72854 0.23538 0.0
C216 C 0.8224 0.71623 0.25441 0.0
C217 C 0.82998 0.72817 0.27784 0.0
C218 C 0.84487 0.74514 0.27263 0.0
C219 C 0.82985 0.69179 0.25505 0.0
C220 C 0.79764 0.71964 0.24779 0.0
H221 H 0.85178 0.76372 0.3712 0.0
H222 H 0.89605 0.81005 0.31567 0.0
H223 H 0.84853 0.80534 0.28656 0.0
H224 H 0.85263 0.79228 0.2583 0.0
H225 H 0.87418 0.8092 0.27227 0.0
H226 H 0.90259 0.76054 0.29854 0.0
H227 H 0.90339 0.78326 0.27685 0.0
H228 H 0.89185 0.75688 0.268 0.0
H229 H 0.79565 0.70194 0.37337 0.0
H230 H 0.7742 0.66418 0.30887 0.0
H231 H 0.7962 0.68686 0.28316 0.0
H232 H 0.84633 0.70312 0.35995 0.0
H233 H 0.83675 0.71975 0.38428 0.0
H234 H 0.85785 0.72943 0.36451 0.0
H235 H 0.7943 0.75003 0.34666 0.0
H236 H 0.81805 0.76452 0.35705 0.0
H237 H 0.80641 0.74402 0.37712 0.0
H238 H 0.87508 0.79237 0.38882 0.0
C239 C 0.86115 0.77336 0.35866 0.0
C240 C 0.85755 0.77408 0.89298 0.0
C241 C 0.87678 0.76293 0.88493 0.0
C242 C 0.88608 0.77305 0.86388 0.0
C243 C 0.85943 0.80363 0.86064 0.0
C244 C 0.84926 0.79422 0.88064 0.0
C245 C 0.82907 0.8082 0.88605 0.0
H246 H 0.76399 0.90234 0.86114 0.0
C247 C 0.84745 0.82462 0.8517 0.0
C248 C 0.82929 0.8276 0.86674 0.0
H249 H 0.75237 0.85089 0.91518 0.0
H250 H 0.78481 0.83163 0.90316 0.0
H251 H 0.77815 0.86726 0.81612 0.0
H252 H 0.81982 0.9034 0.86927 0.0
H253 H 0.8283 0.90689 0.83857 0.0
H254 H 0.80209 0.9173 0.8464 0.0
H255 H 0.77854 0.89689 0.81641 0.0
H256 H 0.7993 0.88182 0.80163 0.0
C257 C 0.80841 0.79373 0.88186 0.0
C258 C 0.83191 0.81664 0.91281 0.0
C259 C 0.87802 0.86954 0.77747 0.0
C260 C 0.87245 0.88968 0.76433 0.0
C261 C 0.85403 0.90075 0.77344 0.0
C262 C 0.84191 0.89244 0.79363 0.0
C263 C 0.84763 0.87241 0.8061 0.0
C264 C 0.86567 0.86146 0.79789 0.0
C265 C 0.86994 0.84062 0.81349 0.0
C266 C 0.85169 0.84058 0.83214 0.0
C267 C 0.83821 0.85937 0.82791 0.0
C268 C 0.86758 0.82068 0.79597 0.0
C269 C 0.89292 0.84296 0.82684 0.0
C270 C 0.76825 0.88698 0.87063 0.0
C271 C 0.75451 0.87874 0.88963 0.0
C272 C 0.76162 0.85822 0.90055 0.0
C273 C 0.78082 0.84682 0.8935 0.0
C274 C 0.79402 0.85518 0.87456 0.0
C275 C 0.78735 0.87502 0.86331 0.0
C276 C 0.80271 0.88125 0.84277 0.0
C277 C 0.81962 0.8624 0.84344 0.0
C278 C 0.8148 0.84675 0.86256 0.0
C279 C 0.78904 0.88201 0.81782 0.0
C280 C 0.81381 0.90348 0.8494 0.0
H281 H 0.8864 0.79872 0.83653 0.0
H282 H 0.84917 0.76744 0.90864 0.0
H283 H 0.84802 0.82513 0.91576 0.0
H284 H 0.81915 0.82862 0.91688 0.0
H285 H 0.83125 0.80275 0.92647 0.0
H286 H 0.80842 0.78567 0.86348 0.0
H287 H 0.80778 0.78061 0.89645 0.0
H288 H 0.79321 0.80341 0.88184 0.0
H289 H 0.89169 0.85991 0.77196 0.0
H290 H 0.84883 0.91634 0.76525 0.0
H291 H 0.82836 0.90214 0.79895 0.0
H292 H 0.85399 0.82334 0.78163 0.0
H293 H 0.88284 0.81811 0.78614 0.0
H294 H 0.8632 0.80526 0.80574 0.0
H295 H 0.89584 0.86018 0.83307 0.0
H296 H 0.89487 0.83275 0.84395 0.0
H297 H 0.90606 0.83882 0.81429 0.0
H298 H 0.89987 0.76559 0.85566 0.0
C299 C 0.87788 0.79272 0.8522 0.0
C300 C 0.73918 0.22437 0.32258 0.0
C301 C 0.75013 0.2058 0.3143 0.0
C302 C 0.74074 0.19407 0.29394 0.0
C303 C 0.70979 0.21888 0.29102 0.0
C304 C 0.71912 0.23056 0.31073 0.0
C305 C 0.70511 0.24955 0.31758 0.0
H306 H 0.61125 0.30757 0.29992 0.0
C307 C 0.68863 0.22928 0.28333 0.0
C308 C 0.68581 0.2473 0.29872 0.0
H309 H 0.66509 0.31749 0.35438 0.0
H310 H 0.68454 0.28751 0.33766 0.0
H311 H 0.61115 0.25328 0.30443 0.0
H312 H 0.6416 0.29826 0.2535 0.0
H313 H 0.63063 0.27579 0.23663 0.0
H314 H 0.61249 0.2936 0.25221 0.0
H315 H 0.59555 0.27019 0.28233 0.0
H316 H 0.60625 0.24402 0.27379 0.0
C317 C 0.69826 0.24552 0.34459 0.0
C318 C 0.71823 0.27118 0.31353 0.0
C319 C 0.64085 0.19518 0.21421 0.0
C320 C 0.62038 0.20055 0.20268 0.0
C321 C 0.60965 0.21965 0.21006 0.0
C322 C 0.61898 0.23284 0.22917 0.0
C323 C 0.63932 0.22692 0.24089 0.0
C324 C 0.64997 0.2085 0.23303 0.0
C325 C 0.67163 0.2048 0.24693 0.0
C326 C 0.67222 0.22387 0.26472 0.0
C327 C 0.65322 0.23676 0.26134 0.0
C328 C 0.67053 0.18223 0.26077 0.0
C329 C 0.68993 0.20676 0.22815 0.0
C330 C 0.62719 0.30319 0.30828 0.0
C331 C 0.63666 0.31511 0.32845 0.0
C332 C 0.65755 0.30895 0.33858 0.0
C333 C 0.66879 0.29134 0.32896 0.0
C334 C 0.65911 0.2795 0.30901 0.0
C335 C 0.6387 0.2855 0.29886 0.0
C336 C 0.63116 0.27088 0.27762 0.0
C337 C 0.65032 0.25506 0.27698 0.0
C338 C 0.66658 0.26025 0.2955 0.0
C339 C 0.60982 0.25898 0.28467 0.0
C340 C 0.62864 0.28526 0.25366 0.0
H341 H 0.71437 0.19074 0.26706 0.0
H342 H 0.74602 0.2339 0.338 0.0
H343 H 0.72873 0.26984 0.2974 0.0
H344 H 0.7076 0.28548 0.30892 0.0
H345 H 0.72914 0.27501 0.33011 0.0
H346 H 0.69591 0.22762 0.34853 0.0
H347 H 0.71099 0.25175 0.35831 0.0
H348 H 0.68235 0.25299 0.34821 0.0
H349 H 0.64971 0.18086 0.20861 0.0
H350 H 0.59384 0.22411 0.20139 0.0
H351 H 0.60996 0.24703 0.23422 0.0
H352 H 0.65392 0.17924 0.26771 0.0
H353 H 0.67409 0.16849 0.24827 0.0
H354 H 0.68176 0.18118 0.27751 0.0
H355 H 0.68538 0.21871 0.21287 0.0
H356 H 0.70554 0.21325 0.23659 0.0
H357 H 0.69295 0.19065 0.21954 0.0
H358 H 0.74862 0.17952 0.28739 0.0
C359 C 0.7207 0.20052 0.28226 0.0
C360 C 0.36924 0.59918 0.24151 0.0
C361 C 0.35964 0.58252 0.25578 0.0
C362 C 0.33808 0.57546 0.24912 0.0
C363 C 0.3363 0.60146 0.21427 0.0
C364 C 0.35735 0.60841 0.2211 0.0
C365 C 0.36506 0.62695 0.20494 0.0
H366 H 0.34325 0.70234 0.11382 0.0
C367 C 0.32853 0.61483 0.19231 0.0
C368 C 0.34534 0.62982 0.18691 0.0
H369 H 0.40228 0.69513 0.16139 0.0
H370 H 0.38742 0.66248 0.18015 0.0
H371 H 0.30859 0.69012 0.15493 0.0
H372 H 0.33923 0.65176 0.10044 0.0
H373 H 0.31348 0.63942 0.10399 0.0
H374 H 0.31508 0.66752 0.09254 0.0
H375 H 0.30353 0.69356 0.12193 0.0
H376 H 0.28834 0.67376 0.13939 0.0
C377 C 0.3692 0.64743 0.22151 0.0
C378 C 0.38542 0.61903 0.19173 0.0
C379 C 0.25275 0.60162 0.15065 0.0
C380 C 0.24171 0.61094 0.12936 0.0
C381 C 0.25234 0.62769 0.11596 0.0
C382 C 0.27331 0.6352 0.1237 0.0
C383 C 0.284 0.62583 0.14501 0.0
C384 C 0.27387 0.60914 0.15795 0.0
C385 C 0.28822 0.60056 0.17957 0.0
C386 C 0.3086 0.61483 0.17736 0.0
C387 C 0.30585 0.62979 0.15725 0.0
C388 C 0.27663 0.60497 0.20382 0.0
C389 C 0.29289 0.57594 0.17518 0.0
C390 C 0.35307 0.69357 0.12807 0.0
C391 C 0.37382 0.70161 0.13645 0.0
C392 C 0.38604 0.68964 0.15503 0.0
C393 C 0.3774 0.6706 0.16586 0.0
C394 C 0.35627 0.66333 0.1581 0.0
C395 C 0.34465 0.67445 0.13913 0.0
C396 C 0.32262 0.66396 0.13303 0.0
C397 C 0.32264 0.64529 0.15222 0.0
C398 C 0.34234 0.64512 0.16685 0.0
C399 C 0.3047 0.68117 0.13736 0.0
C400 C 0.32238 0.6553 0.10609 0.0
H401 H 0.31006 0.57871 0.22415 0.0
H402 H 0.38557 0.60534 0.2465 0.0
H403 H 0.38383 0.60127 0.18707 0.0
H404 H 0.3875 0.62756 0.17372 0.0
H405 H 0.40064 0.62107 0.20377 0.0
H406 H 0.35783 0.64755 0.23694 0.0
H407 H 0.3862 0.64761 0.22997 0.0
H408 H 0.36606 0.66318 0.21142 0.0
H409 H 0.24514 0.58883 0.16154 0.0
H410 H 0.24462 0.63484 0.09916 0.0
H411 H 0.28041 0.64799 0.1127 0.0
H412 H 0.26792 0.62102 0.20254 0.0
H413 H 0.26432 0.5919 0.20746 0.0
H414 H 0.28818 0.60635 0.22022 0.0
H415 H 0.29565 0.57311 0.15525 0.0
H416 H 0.30791 0.57004 0.18543 0.0
H417 H 0.27885 0.56538 0.18034 0.0
H418 H 0.33035 0.56264 0.25989 0.0
C419 C 0.32639 0.58477 0.22836 0.0
C420 C 0.13267 0.21967 0.68627 0.0
C421 C 0.13409 0.21606 0.66068 0.0
C422 C 0.1486 0.22919 0.64718 0.0
C423 C 0.15968 0.24912 0.68438 0.0
C424 C 0.14563 0.23616 0.69771 0.0
C425 C 0.14633 0.24201 0.72478 0.0
H426 H 0.18708 0.30758 0.81702 0.0
C427 C 0.17065 0.26485 0.70164 0.0
C428 C 0.16301 0.26071 0.7254 0.0
H429 H 0.13896 0.25538 0.8225 0.0
H430 H 0.14197 0.24735 0.77887 0.0
H431 H 0.16714 0.32798 0.77065 0.0
H432 H 0.22012 0.28206 0.77994 0.0
H433 H 0.22786 0.30294 0.759 0.0
H434 H 0.22156 0.3101 0.79009 0.0
H435 H 0.19477 0.33708 0.77779 0.0
H436 H 0.18405 0.33404 0.74617 0.0
C437 C 0.12326 0.24992 0.731 0.0
C438 C 0.15465 0.22171 0.74024 0.0
C439 C 0.224 0.32177 0.66918 0.0
C440 C 0.23548 0.33941 0.68052 0.0
C441 C 0.23322 0.34334 0.7059 0.0
C442 C 0.21996 0.32963 0.71998 0.0
C443 C 0.20865 0.31193 0.70847 0.0
C444 C 0.21053 0.30843 0.68341 0.0
C445 C 0.19642 0.28953 0.67412 0.0
C446 C 0.18599 0.28212 0.69784 0.0
C447 C 0.19344 0.29513 0.71787 0.0
C448 C 0.17926 0.29876 0.65441 0.0
C449 C 0.21161 0.27165 0.66442 0.0
C450 C 0.17765 0.29398 0.80905 0.0
C451 C 0.1631 0.28178 0.82328 0.0
C452 C 0.15044 0.26483 0.8119 0.0
C453 C 0.15216 0.2603 0.78659 0.0
C454 C 0.16642 0.27311 0.77248 0.0
C455 C 0.1789 0.28956 0.78385 0.0
C456 C 0.19224 0.3024 0.76596 0.0
C457 C 0.18611 0.29071 0.74196 0.0
C458 C 0.17099 0.27358 0.74578 0.0
C459 C 0.18435 0.32667 0.76511 0.0
C460 C 0.21678 0.29944 0.77409 0.0
H461 H 0.1721 0.25501 0.64756 0.0
H462 H 0.1216 0.21 0.69719 0.0
H463 H 0.16763 0.21303 0.73061 0.0
H464 H 0.16238 0.22611 0.7585 0.0
H465 H 0.14112 0.20973 0.74307 0.0
H466 H 0.11553 0.25967 0.71522 0.0
H467 H 0.11225 0.23573 0.73474 0.0
H468 H 0.12363 0.26109 0.74698 0.0
H469 H 0.22531 0.3186 0.64959 0.0
H470 H 0.24207 0.35681 0.71495 0.0
H471 H 0.21907 0.33334 0.73927 0.0
H472 H 0.17419 0.31567 0.65917 0.0
H473 H 0.18604 0.29968 0.63571 0.0
H474 H 0.16384 0.28911 0.65331 0.0
H475 H 0.22726 0.27075 0.67598 0.0
H476 H 0.20451 0.25488 0.66548 0.0
H477 H 0.21576 0.27533 0.64496 0.0
H478 H 0.1504 0.22648 0.62759 0.0
C479 C 0.16135 0.24567 0.65887 0.0
Nd480 Nd 0.03228 0.9933 0.50652 0.0
Nd481 Nd 0.99599 0.02455 0.49935 0.0
C482 C 0.06107 0.96113 0.51246 0.0
C483 C 0.06673 0.93983 0.52433 0.0
C484 C 0.05784 0.93299 0.54669 0.0
C485 C 0.06701 0.91517 0.56035 0.0
C486 C 0.08531 0.90407 0.55194 0.0
C487 C 0.09314 0.91024 0.52871 0.0
C488 C 0.08389 0.92789 0.51506 0.0
C489 C 0.04176 0.03473 0.5239 0.0
C490 C 0.99241 0.98828 0.54729 0.0
C491 C 0.96542 0.05495 0.50115 0.0
C492 C 0.95175 0.06962 0.48492 0.0
C493 C 0.95997 0.08035 0.46405 0.0
C494 C 0.9464 0.09418 0.44904 0.0
C495 C 0.92441 0.09741 0.45459 0.0
C496 C 0.91632 0.08644 0.47544 0.0
C497 C 0.92988 0.07275 0.49045 0.0
C498 C 0.99264 0.98942 0.46792 0.0
C499 C 0.03524 0.02868 0.4585 0.0
O500 O 0.0462 0.96175 0.49397 0.0
O501 O 0.06039 0.97798 0.52718 0.0
O502 O 0.05484 0.02365 0.51085 0.0
O503 O 0.0244 0.02408 0.52724 0.0
O504 O 0.0113 0.98036 0.53994 0.0
O505 O 0.98354 1.00549 0.53485 0.0
O506 O 0.98648 0.05936 0.50359 0.0
O507 O 0.96103 0.03387 0.49965 0.0
O508 O 0.98823 0.0095 0.46087 0.0
O509 O 0.99801 0.98841 0.49076 0.0
O510 O 0.02032 0.03984 0.47038 0.0
O511 O 0.04021 0.00836 0.46686 0.0
H512 H 0.04458 0.94208 0.55415 0.0
H513 H 0.06033 0.91065 0.57794 0.0
H514 H 0.10738 0.90244 0.52173 0.0
H515 H 0.09108 0.93309 0.49795 0.0
H516 H 0.97681 0.07806 0.45938 0.0
H517 H 0.9532 0.1025 0.43324 0.0
H518 H 0.89938 0.08815 0.47999 0.0
H519 H 0.92323 0.06448 0.50639 0.0
Nd520 Nd 0.51088 0.99728 0.01881 0.0
Nd521 Nd 0.51123 0.01971 0.9801 0.0
C522 C 0.51166 0.96447 0.0521 0.0
C523 C 0.49841 0.94448 0.05659 0.0
C524 C 0.49655 0.92756 0.03908 0.0
C525 C 0.48415 0.90866 0.04373 0.0
C526 C 0.47328 0.90628 0.06595 0.0
C527 C 0.475 0.92334 0.08334 0.0
C528 C 0.48751 0.9422 0.07873 0.0
C529 C 0.47517 0.02719 0.02312 0.0
C530 C 0.48356 0.97771 0.97035 0.0
C531 C 0.51292 0.05147 0.94565 0.0
C532 C 0.523 0.07357 0.94478 0.0
C533 C 0.52041 0.08876 0.96379 0.0
C534 C 0.53141 0.10904 0.96352 0.0
C535 C 0.54529 0.1144 0.94434 0.0
C536 C 0.5476 0.0993 0.92518 0.0
C537 C 0.53652 0.07909 0.92539 0.0
C538 C 0.5464 0.98875 0.97763 0.0
C539 C 0.53669 0.04045 0.02821 0.0
O540 O 0.52306 0.96476 0.03239 0.0
O541 O 0.50246 0.98334 0.05562 0.0
O542 O 0.49076 0.02291 0.03979 0.0
O543 O 0.47972 0.01685 1.00322 0.0
O544 O 0.49419 0.9725 0.9914 0.0
O545 O 0.48506 0.99786 0.96192 0.0
O546 O 0.49658 0.0487 0.95991 0.0
O547 O 0.5265 0.0351 0.94749 0.0
O548 O 0.52995 0.99105 0.96148 0.0
O549 O 0.54236 1.001 0.99617 0.0
O550 O 0.52446 0.04544 0.00825 0.0
O551 O 0.53745 0.01987 0.0355 0.0
H552 H 0.50479 0.92878 0.02181 0.0
H553 H 0.48345 0.89573 0.0301 0.0
H554 H 0.46658 0.9222 0.10048 0.0
H555 H 0.48867 0.95504 0.09249 0.0
H556 H 0.51021 0.08485 0.9791 0.0
H557 H 0.52947 0.1203 0.97862 0.0
H558 H 0.55797 0.10314 0.91 0.0
H559 H 0.53876 0.06759 0.91059 0.0
Nd560 Nd 0.48996 0.48931 0.50544 0.0
Nd561 Nd 0.53021 0.51926 0.5085 0.0
C562 C 0.45021 0.47209 0.49975 0.0
C563 C 0.43249 0.4661 0.51596 0.0
C564 C 0.41059 0.46785 0.50694 0.0
C565 C 0.39364 0.46114 0.52181 0.0
C566 C 0.39843 0.45242 0.5458 0.0
C567 C 0.42037 0.45127 0.55502 0.0
C568 C 0.43727 0.45819 0.54027 0.0
C569 C 0.52008 0.47891 0.54358 0.0
C570 C 0.48969 0.53406 0.53931 0.0
C571 C 0.56979 0.53677 0.51503 0.0
C572 C 0.5888 0.54251 0.50055 0.0
C573 C 0.60995 0.53735 0.51022 0.0
C574 C 0.62831 0.54401 0.49758 0.0
C575 C 0.6258 0.5561 0.47511 0.0
C576 C 0.60449 0.56072 0.46519 0.0
C577 C 0.58618 0.55389 0.47771 0.0
C578 C 0.49968 0.52982 0.47083 0.0
C579 C 0.53047 0.4747 0.47423 0.0
O580 O 0.45419 0.49317 0.49685 0.0
O581 O 0.46803 0.46029 0.50257 0.0
O582 O 0.50812 0.46423 0.53189 0.0
O583 O 0.51442 0.49795 0.53665 0.0
O584 O 0.4778 0.52005 0.52554 0.0
O585 O 0.51128 0.53409 0.53937 0.0
O586 O 0.56579 0.51576 0.51861 0.0
O587 O 0.55202 0.54839 0.51044 0.0
O588 O 0.51118 0.54451 0.48309 0.0
O589 O 0.50573 0.51076 0.47725 0.0
O590 O 0.54236 0.48895 0.48768 0.0
O591 O 0.5089 0.47424 0.47467 0.0
H592 H 0.40664 0.47404 0.48826 0.0
H593 H 0.37685 0.46208 0.51427 0.0
H594 H 0.42444 0.44484 0.57357 0.0
H595 H 0.45407 0.45701 0.54772 0.0
H596 H 0.61227 0.52847 0.52778 0.0
H597 H 0.64445 0.53989 0.50555 0.0
H598 H 0.60191 0.5703 0.44815 0.0
H599 H 0.57 0.55799 0.46978 0.0
Nd600 Nd 0.9952 0.50552 0.02038 0.0
Nd601 Nd 0.02866 0.51323 0.98368 0.0
C602 C 0.9582 0.50436 0.04334 0.0
C603 C 0.9454 0.52321 0.05089 0.0
C604 C 0.92346 0.52085 0.0569 0.0
C605 C 0.91163 0.53933 0.06364 0.0
C606 C 0.92169 0.56029 0.06443 0.0
C607 C 0.94354 0.56251 0.05786 0.0
C608 C 0.95526 0.54418 0.05123 0.0
C609 C 0.03179 0.52717 0.03899 0.0
C610 C 0.99083 0.55226 0.98289 0.0
C611 C 0.0669 0.51668 0.9635 0.0
C612 C 0.08394 0.50013 0.96028 0.0
C613 C 0.08945 0.48471 0.97933 0.0
C614 C 0.10188 0.46624 0.97451 0.0
C615 C 0.10895 0.46281 0.95053 0.0
C616 C 0.10508 0.47932 0.93214 0.0
C617 C 0.09256 0.49776 0.93696 0.0
C618 C 0.99213 0.49177 0.96478 0.0
C619 C 0.03201 0.46554 0.01961 0.0
O620 O 0.95895 0.50205 0.01931 0.0
O621 O 0.97745 0.50229 0.055 0.0
O622 O 0.02177 0.51194 0.05124 0.0
O623 O 0.02197 0.53112 0.01823 0.0
O624 O 0.98168 0.53832 0.99894 0.0
O625 O 0.01055 0.54719 0.9752 0.0
O626 O 0.06388 0.52242 0.98637 0.0
O627 O 0.04848 0.5134 0.95044 0.0
O628 O 1.0026 0.50662 0.95233 0.0
O629 O 1.00169 0.48779 0.98572 0.0
O630 O 0.04148 0.47969 1.00402 0.0
O631 O 0.01232 0.47077 0.02733 0.0
H632 H 0.91556 0.5048 0.05648 0.0
H633 H 0.89481 0.53717 0.06867 0.0
H634 H 0.95159 0.57849 0.05779 0.0
H635 H 0.97213 0.54638 0.04639 0.0
H636 H 0.08333 0.48631 0.99768 0.0
H637 H 0.10472 0.45403 0.98919 0.0
H638 H 0.11088 0.47752 0.91367 0.0
H639 H 0.08865 0.50955 0.92208 0.0
H640 H 0.11694 0.15208 0.27419 0.0
H641 H 0.09944 0.13412 0.30829 0.0
H642 H 0.13215 0.07363 0.29372 0.0
H643 H 0.14893 0.0914 0.25789 0.0
H644 H 0.09563 0.06036 0.30978 0.0
H645 H 0.14381 0.11345 0.34853 0.0
H646 H 0.16042 0.15002 0.35648 0.0
H647 H 0.09768 0.17526 0.37375 0.0
H648 H 0.08064 0.13889 0.36562 0.0
H649 H 0.06587 0.01053 0.42753 0.0
H650 H 0.08434 0.02695 0.3923 0.0
H651 H 0.04998 0.08763 0.40128 0.0
H652 H 0.03167 0.07123 0.43677 0.0
H653 H 0.08822 0.10003 0.3884 0.0
H654 H 0.04036 0.04611 0.34954 0.0
H655 H 0.0246 0.00904 0.34245 0.0
H656 H 0.08805 0.98477 0.3265 0.0
H657 H 0.10424 0.02165 0.3338 0.0
C658 C 0.12051 0.13484 0.27748 0.0
C659 C 0.13474 0.1237 0.26181 0.0
C660 C 0.1105 0.12441 0.29803 0.0
C661 C 0.11426 0.10207 0.30515 0.0
C662 C 0.12848 0.09077 0.28964 0.0
C663 C 0.13845 0.10123 0.26879 0.0
C664 C 0.10332 0.09089 0.32815 0.0
C665 C 0.09447 0.06918 0.32697 0.0
C666 C 0.10077 0.10164 0.35134 0.0
C667 C 0.11092 0.1235 0.35623 0.0
C668 C 0.13354 0.12684 0.35388 0.0
C669 C 0.14303 0.14753 0.35843 0.0
C670 C 0.1301 0.16497 0.36555 0.0
C671 C 0.10767 0.16174 0.3682 0.0
C672 C 0.09809 0.14109 0.36364 0.0
C673 C 0.06201 0.02737 0.42213 0.0
C674 C 0.04675 0.03912 0.43577 0.0
C675 C 0.07269 0.03694 0.40141 0.0
C676 C 0.06884 0.05894 0.39276 0.0
C677 C 0.05378 0.07076 0.40662 0.0
C678 C 0.04302 0.06116 0.4273 0.0
C679 C 0.08044 0.0696 0.36997 0.0
C680 C 0.0894 0.09123 0.3712 0.0
C681 C 0.08322 0.05871 0.34694 0.0
C682 C 0.07355 0.03658 0.34247 0.0
C683 C 0.05098 0.03283 0.34468 0.0
C684 C 0.04196 0.01186 0.3406 0.0
C685 C 0.05533 0.99455 0.33409 0.0
C686 C 0.07773 0.99818 0.33158 0.0
C687 C 0.08683 0.01912 0.33567 0.0
H688 H 0.04832 0.97832 0.33095 0.0
H689 H 0.13748 0.18097 0.36907 0.0
H690 H 0.38015 0.82655 0.84217 0.0
H691 H 0.39499 0.85231 0.87336 0.0
H692 H 0.45171 0.86349 0.83033 0.0
H693 H 0.43723 0.83704 0.79959 0.0
H694 H 0.46434 0.8638 0.87691 0.0
H695 H 0.40717 0.89939 0.82775 0.0
H696 H 0.37007 0.90383 0.80791 0.0
H697 H 0.34273 0.90349 0.87963 0.0
H698 H 0.37966 0.89872 0.8999 0.0
H699 H 0.46172 0.98322 0.92512 0.0
H700 H 0.44691 0.9546 0.89754 0.0
H701 H 0.46501 0.90489 0.95293 0.0
H702 H 0.48017 0.93347 0.98057 0.0
H703 H 0.41561 0.9245 0.89941 0.0
H704 H 0.48351 0.85942 0.92264 0.0
H705 H 0.52239 0.85867 0.93778 0.0
H706 H 0.53158 0.92448 0.90951 0.0
H707 H 0.49296 0.92542 0.89365 0.0
C708 C 0.39587 0.83439 0.83952 0.0
C709 C 0.40748 0.82996 0.81841 0.0
C710 C 0.40432 0.84915 0.8573 0.0
C711 C 0.42427 0.86025 0.85397 0.0
C712 C 0.43628 0.8552 0.83333 0.0
C713 C 0.428 0.84011 0.81575 0.0
C714 C 0.43208 0.8778 0.87138 0.0
C715 C 0.45364 0.877 0.8819 0.0
C716 C 0.41837 0.89544 0.87743 0.0
C717 C 0.39616 0.89848 0.86533 0.0
C718 C 0.39323 0.90012 0.83928 0.0
C719 C 0.37224 0.90271 0.82796 0.0
C720 C 0.35405 0.90389 0.8425 0.0
C721 C 0.35683 0.90254 0.86839 0.0
C722 C 0.37779 0.89991 0.87981 0.0
C723 C 0.46237 0.96623 0.93158 0.0
C724 C 0.47229 0.96061 0.95498 0.0
C725 C 0.45384 0.94988 0.91578 0.0
C726 C 0.45512 0.92758 0.92301 0.0
C727 C 0.46417 0.92197 0.94681 0.0
C728 C 0.47273 0.93834 0.96263 0.0
C729 C 0.44768 0.91025 0.90525 0.0
C730 C 0.42622 0.91115 0.89461 0.0
C731 C 0.46176 0.89323 0.89838 0.0
C732 C 0.48523 0.89257 0.90725 0.0
C733 C 0.49386 0.87367 0.91952 0.0
C734 C 0.51587 0.87321 0.92821 0.0
C735 C 0.52944 0.89153 0.92466 0.0
C736 C 0.52106 0.91031 0.91228 0.0
C737 C 0.49911 0.9108 0.90343 0.0
H738 H 0.54645 0.89118 0.93147 0.0
H739 H 0.33781 0.90589 0.83369 0.0
H740 H 0.60965 0.44153 0.76024 0.0
H741 H 0.58826 0.44982 0.72168 0.0
H742 H 0.64781 0.45465 0.68238 0.0
H743 H 0.6693 0.44535 0.72074 0.0
H744 H 0.58546 0.48301 0.6902 0.0
H745 H 0.63814 0.43485 0.62384 0.0
H746 H 0.66335 0.40323 0.62521 0.0
H747 H 0.63156 0.37575 0.68788 0.0
H748 H 0.60598 0.40703 0.68667 0.0
H749 H 0.54743 0.50813 0.56734 0.0
H750 H 0.5718 0.50147 0.60415 0.0
H751 H 0.55147 0.43318 0.6055 0.0
H752 H 0.52755 0.43965 0.56805 0.0
H753 H 0.59391 0.4362 0.61675 0.0
H754 H 0.52964 0.47133 0.64379 0.0
H755 H 0.50143 0.50019 0.64348 0.0
H756 H 0.55094 0.54868 0.66235 0.0
H757 H 0.5795 0.52014 0.66242 0.0
C758 C 0.61822 0.44428 0.74338 0.0
C759 C 0.64118 0.44248 0.74352 0.0
C760 C 0.60597 0.44921 0.72138 0.0
C761 C 0.61639 0.45252 0.69905 0.0
C762 C 0.63938 0.45179 0.69931 0.0
C763 C 0.65167 0.44671 0.72132 0.0
C764 C 0.60303 0.45599 0.67545 0.0
C765 C 0.58739 0.47284 0.67411 0.0
C766 C 0.6052 0.44243 0.6546 0.0
C767 C 0.62033 0.42341 0.65532 0.0
C768 C 0.63649 0.42202 0.63786 0.0
C769 C 0.65085 0.40416 0.63861 0.0
C770 C 0.64911 0.38753 0.65668 0.0
C771 C 0.63295 0.38868 0.67396 0.0
C772 C 0.61853 0.40648 0.67327 0.0
C773 C 0.54828 0.49166 0.5754 0.0
C774 C 0.53549 0.47442 0.56504 0.0
C775 C 0.56214 0.4879 0.59648 0.0
C776 C 0.56316 0.46693 0.60788 0.0
C777 C 0.55089 0.44951 0.59707 0.0
C778 C 0.53719 0.45322 0.57576 0.0
C779 C 0.5765 0.46334 0.63145 0.0
C780 C 0.59211 0.44648 0.63278 0.0
C781 C 0.57389 0.4765 0.65254 0.0
C782 C 0.55672 0.49363 0.65289 0.0
C783 C 0.53452 0.48817 0.64773 0.0
C784 C 0.51847 0.50447 0.64761 0.0
C785 C 0.5244 0.52626 0.65283 0.0
C786 C 0.54638 0.53179 0.65827 0.0
C787 C 0.5625 0.51556 0.65838 0.0
H788 H 0.51195 0.53886 0.65269 0.0
H789 H 0.66024 0.37374 0.65724 0.0
H790 H 0.88915 0.72585 0.17649 0.0
H791 H 0.89558 0.70162 0.14229 0.0
H792 H 0.82593 0.69788 0.12402 0.0
H793 H 0.8194 0.72195 0.15884 0.0
H794 H 0.84064 0.65883 0.13122 0.0
H795 H 0.86305 0.7179 0.08106 0.0
H796 H 0.88153 0.75245 0.06921 0.0
H797 H 0.94433 0.72249 0.08476 0.0
H798 H 0.92628 0.68785 0.09711 0.0
H799 H 0.87968 0.57342 0.05093 0.0
H800 H 0.86157 0.60729 0.06325 0.0
H801 H 0.91928 0.62499 0.10853 0.0
H802 H 0.93726 0.59137 0.09663 0.0
H803 H 0.90279 0.65943 0.07589 0.0
H804 H 0.87767 0.60435 0.13579 0.0
H805 H 0.85852 0.56996 0.14704 0.0
H806 H 0.7991 0.59369 0.10985 0.0
H807 H 0.81802 0.62812 0.0981 0.0
C808 C 0.87526 0.72066 0.16456 0.0
C809 C 0.85378 0.72563 0.17042 0.0
C810 C 0.87895 0.70677 0.1449 0.0
C811 C 0.86123 0.69788 0.13048 0.0
C812 C 0.83984 0.70446 0.13493 0.0
C813 C 0.83613 0.71822 0.15477 0.0
C814 C 0.86502 0.67908 0.11402 0.0
C815 C 0.85375 0.6592 0.11844 0.0
C816 C 0.88219 0.67938 0.09744 0.0
C817 C 0.89325 0.70024 0.09012 0.0
C818 C 0.8808 0.7187 0.08214 0.0
C819 C 0.89121 0.73831 0.0753 0.0
C820 C 0.91408 0.73967 0.07625 0.0
C821 C 0.9266 0.72141 0.08402 0.0
C822 C 0.91629 0.70176 0.0909 0.0
C823 C 0.88836 0.58447 0.0637 0.0
C824 C 0.90994 0.57989 0.07266 0.0
C825 C 0.87807 0.6038 0.07059 0.0
C826 C 0.88924 0.61869 0.08653 0.0
C827 C 0.91053 0.61383 0.09592 0.0
C828 C 0.92078 0.59465 0.08908 0.0
C829 C 0.87902 0.63935 0.09397 0.0
C830 C 0.88911 0.65942 0.08786 0.0
C831 C 0.86063 0.63931 0.1087 0.0
C832 C 0.84932 0.61864 0.11577 0.0
C833 C 0.86058 0.60213 0.12981 0.0
C834 C 0.84976 0.58266 0.13632 0.0
C835 C 0.82763 0.5796 0.12908 0.0
C836 C 0.81626 0.59605 0.11538 0.0
C837 C 0.82701 0.61554 0.1088 0.0
H838 H 0.81928 0.56452 0.13415 0.0
H839 H 0.92211 0.75487 0.07094 0.0
H840 H 0.30364 0.1093 0.14175 0.0
H841 H 0.33589 0.09301 0.12486 0.0
H842 H 0.31455 0.11583 0.05165 0.0
H843 H 0.28175 0.13222 0.06865 0.0
H844 H 0.33333 0.07604 0.04516 0.0
H845 H 0.36199 0.13825 0.09037 0.0
H846 H 0.36844 0.16204 0.12675 0.0
H847 H 0.39801 0.10799 0.16833 0.0
H848 H 0.39149 0.0838 0.13228 0.0
H849 H 0.43703 0.04226 0.99363 0.0
H850 H 0.40368 0.06026 0.00677 0.0
H851 H 0.42785 0.05456 0.08314 0.0
H852 H 0.46138 0.0379 0.06985 0.0
H853 H 0.40684 0.08702 0.08662 0.0
H854 H 0.37656 0.02382 0.04409 0.0
H855 H 0.36934 0.99864 0.00905 0.0
H856 H 0.34229 0.05203 0.96423 0.0
H857 H 0.34956 0.07758 0.99895 0.0
C858 C 0.30535 0.11104 0.12194 0.0
C859 C 0.28889 0.12258 0.10713 0.0
C860 C 0.32452 0.10161 0.11206 0.0
C861 C 0.32899 0.10276 0.08641 0.0
C862 C 0.31253 0.11416 0.07143 0.0
C863 C 0.29337 0.12392 0.08142 0.0
C864 C 0.35036 0.09228 0.07575 0.0
C865 C 0.34934 0.07885 0.05429 0.0
C866 C 0.37209 0.09467 0.08705 0.0
C867 C 0.37607 0.10916 0.1087 0.0
C868 C 0.36974 0.1314 0.10732 0.0
C869 C 0.37342 0.14497 0.12788 0.0
C870 C 0.38357 0.13652 0.14985 0.0
C871 C 0.39012 0.11451 0.1513 0.0
C872 C 0.38645 0.10086 0.13081 0.0
C873 C 0.43538 0.04467 0.01329 0.0
C874 C 0.45285 0.03798 0.03029 0.0
C875 C 0.41565 0.05503 0.02114 0.0
C876 C 0.4116 0.05906 0.04666 0.0
C877 C 0.42924 0.05233 0.06342 0.0
C878 C 0.44896 0.04237 0.05558 0.0
C879 C 0.38997 0.07031 0.05611 0.0
C880 C 0.39091 0.084 0.07741 0.0
C881 C 0.36814 0.06786 0.04487 0.0
C882 C 0.36384 0.05264 0.02399 0.0
C883 C 0.36919 0.0302 0.0267 0.0
C884 C 0.36507 0.01587 0.00692 0.0
C885 C 0.35543 0.02375 0.9844 0.0
C886 C 0.34981 0.04597 0.98166 0.0
C887 C 0.35391 0.06038 1.00138 0.0
H888 H 0.35225 0.01262 0.96911 0.0
H889 H 0.38641 0.14705 0.16574 0.0
H890 H 0.22913 0.82332 0.70966 0.0
H891 H 0.19562 0.83625 0.68742 0.0
H892 H 0.22013 0.81507 0.61822 0.0
H893 H 0.25416 0.80341 0.64001 0.0
H894 H 0.20426 0.85382 0.61188 0.0
H895 H 0.17804 0.78704 0.64826 0.0
H896 H 0.1714 0.76007 0.6818 0.0
H897 H 0.13317 0.80762 0.71817 0.0
H898 H 0.13984 0.835 0.685 0.0
H899 H 0.10625 0.86651 0.53851 0.0
H900 H 0.13359 0.84558 0.56372 0.0
H901 H 0.12016 0.88386 0.62768 0.0
H902 H 0.09354 0.9056 0.60248 0.0
H903 H 0.12908 0.83523 0.63644 0.0
H904 H 0.15832 0.90236 0.59989 0.0
H905 H 0.16424 0.92787 0.56474 0.0
H906 H 0.19665 0.87677 0.52698 0.0
H907 H 0.19055 0.85084 0.56176 0.0
C908 C 0.22747 0.82153 0.68969 0.0
C909 C 0.24443 0.81228 0.67669 0.0
C910 C 0.20813 0.82866 0.67702 0.0
C911 C 0.20517 0.82638 0.65114 0.0
C912 C 0.22195 0.81693 0.63819 0.0
C913 C 0.24136 0.81004 0.65077 0.0
C914 C 0.18517 0.83491 0.63731 0.0
C915 C 0.18786 0.8494 0.6171 0.0
C916 C 0.16368 0.82955 0.64428 0.0
C917 C 0.15963 0.81314 0.66426 0.0
C918 C 0.16837 0.79181 0.66351 0.0
C919 C 0.16457 0.77643 0.68244 0.0
C920 C 0.15192 0.78214 0.70213 0.0
C921 C 0.14299 0.80323 0.70291 0.0
C922 C 0.14676 0.81868 0.68404 0.0
C923 C 0.1089 0.87037 0.558 0.0
C924 C 0.09793 0.88807 0.56829 0.0
C925 C 0.12439 0.85825 0.57241 0.0
C926 C 0.12897 0.86336 0.59745 0.0
C927 C 0.11675 0.87965 0.60838 0.0
C928 C 0.10145 0.89201 0.5939 0.0
C929 C 0.1484 0.85383 0.61117 0.0
C930 C 0.14556 0.83936 0.6313 0.0
C931 C 0.1698 0.85895 0.60402 0.0
C932 C 0.17375 0.87461 0.58328 0.0
C933 C 0.16653 0.89651 0.58399 0.0
C934 C 0.16994 0.91105 0.56415 0.0
C935 C 0.18076 0.90393 0.5436 0.0
C936 C 0.18824 0.88226 0.54289 0.0
C937 C 0.18481 0.86763 0.56266 0.0
H938 H 0.18339 0.91521 0.52826 0.0
H939 H 0.149 0.77021 0.71677 0.0
H940 H 0.79521 0.41749 0.93658 0.0
H941 H 0.83221 0.42997 0.94844 0.0
H942 H 0.84333 0.44542 0.87167 0.0
H943 H 0.8068 0.43141 0.85938 0.0
H944 H 0.8777 0.42647 0.89152 0.0
H945 H 0.8335 0.48595 0.91586 0.0
H946 H 0.80361 0.5041 0.93645 0.0
H947 H 0.83069 0.48194 0.0077 0.0
H948 H 0.86059 0.46338 0.9875 0.0
H949 H 0.97086 0.49689 0.91934 0.0
H950 H 0.93443 0.48281 0.90602 0.0
H951 H 0.92874 0.45143 0.9778 0.0
H952 H 0.96543 0.46496 0.99104 0.0
H953 H 0.8921 0.47908 0.96011 0.0
H954 H 0.93676 0.41964 0.93361 0.0
H955 H 0.96696 0.4036 0.91153 0.0
H956 H 0.93891 0.42899 0.8421 0.0
H957 H 0.90869 0.44547 0.86384 0.0
C958 C 0.80556 0.42327 0.92211 0.0
C959 C 0.79794 0.42333 0.89697 0.0
C960 C 0.82666 0.43075 0.929 0.0
C961 C 0.8405 0.439 0.91102 0.0
C962 C 0.83294 0.43922 0.88592 0.0
C963 C 0.81192 0.43143 0.87895 0.0
C964 C 0.86301 0.44686 0.91837 0.0
C965 C 0.88076 0.43824 0.90627 0.0
C966 C 0.86714 0.46195 0.93791 0.0
C967 C 0.84917 0.47309 0.95013 0.0
C968 C 0.83299 0.48479 0.9359 0.0
C969 C 0.81606 0.49518 0.94751 0.0
C970 C 0.81522 0.49413 0.97336 0.0
C971 C 0.83134 0.48272 0.98767 0.0
C972 C 0.8483 0.47228 0.97615 0.0
C973 C 0.96193 0.48679 0.93218 0.0
C974 C 0.97087 0.48208 0.95625 0.0
C975 C 0.94117 0.47878 0.92455 0.0
C976 C 0.92896 0.46614 0.94096 0.0
C977 C 0.93794 0.46122 0.96493 0.0
C978 C 0.95886 0.46892 0.97242 0.0
C979 C 0.90654 0.45861 0.93333 0.0
C980 C 0.88888 0.46734 0.94536 0.0
C981 C 0.90248 0.44394 0.91349 0.0
C982 C 0.92059 0.43398 0.90039 0.0
C983 C 0.93714 0.42198 0.91366 0.0
C984 C 0.95423 0.41277 0.9012 0.0
C985 C 0.95489 0.41533 0.87544 0.0
C986 C 0.9384 0.42705 0.86207 0.0
C987 C 0.92128 0.43631 0.87444 0.0
H988 H 0.96813 0.40818 0.86582 0.0
H989 H 0.8021 0.50219 0.98231 0.0
H990 H 0.79035 0.6662 0.39128 0.0
H991 H 0.76579 0.64385 0.41594 0.0
H992 H 0.71805 0.6426 0.35382 0.0
H993 H 0.74169 0.66609 0.32979 0.0
H994 H 0.69819 0.64944 0.39333 0.0
H995 H 0.75278 0.59783 0.37106 0.0
H996 H 0.79015 0.58333 0.36831 0.0
H997 H 0.79884 0.58184 0.44795 0.0
H998 H 0.7616 0.59662 0.45116 0.0
H999 H 0.63182 0.55939 0.42515 0.0
H1000 H 0.66118 0.5791 0.40494 0.0
H1001 H 0.69334 0.59226 0.47644 0.0
H1002 H 0.66363 0.57337 0.49699 0.0
H1003 H 0.722 0.5796 0.43545 0.0
H1004 H 0.66552 0.63078 0.45594 0.0
H1005 H 0.62719 0.64311 0.45656 0.0
H1006 H 0.62156 0.64318 0.37677 0.0
H1007 H 0.65977 0.63049 0.3757 0.0
C1008 C 0.7745 0.66141 0.38299 0.0
C1009 C 0.76809 0.66783 0.35845 0.0
C1010 C 0.76061 0.64836 0.397 0.0
C1011 C 0.74022 0.64122 0.3866 0.0
C1012 C 0.73374 0.6478 0.36223 0.0
C1013 C 0.74743 0.66105 0.34838 0.0
C1014 C 0.72525 0.62729 0.40105 0.0
C1015 C 0.70344 0.63408 0.4023 0.0
C1016 C 0.73212 0.60743 0.41323 0.0
C1017 C 0.75451 0.59857 0.41134 0.0
C1018 C 0.76273 0.59459 0.38798 0.0
C1019 C 0.78387 0.58628 0.38634 0.0
C1020 C 0.79689 0.58173 0.40794 0.0
C1021 C 0.78876 0.58542 0.43123 0.0
C1022 C 0.76763 0.59374 0.43298 0.0
C1023 C 0.64514 0.56641 0.43663 0.0
C1024 C 0.64518 0.56507 0.46272 0.0
C1025 C 0.66198 0.57748 0.42503 0.0
C1026 C 0.67924 0.5872 0.43928 0.0
C1027 C 0.68013 0.58475 0.4652 0.0
C1028 C 0.66316 0.57388 0.47687 0.0
C1029 C 0.69512 0.60168 0.42715 0.0
C1030 C 0.71698 0.59504 0.42649 0.0
C1031 C 0.68829 0.62153 0.41515 0.0
C1032 C 0.66543 0.62949 0.41575 0.0
C1033 C 0.65605 0.63325 0.43854 0.0
C1034 C 0.63436 0.64033 0.43897 0.0
C1035 C 0.62193 0.64388 0.41672 0.0
C1036 C 0.6312 0.64041 0.39399 0.0
C1037 C 0.65288 0.63329 0.39346 0.0
H1038 H 0.60514 0.64935 0.41709 0.0
H1039 H 0.81325 0.5753 0.40662 0.0
H1040 H 0.11602 0.2776 0.12913 0.0
H1041 H 0.09678 0.31097 0.11511 0.0
H1042 H 0.13787 0.31704 0.05318 0.0
H1043 H 0.15723 0.28381 0.06691 0.0
H1044 H 0.13161 0.35701 0.06426 0.0
H1045 H 0.07665 0.3011 0.05187 0.0
H1046 H 0.05279 0.27001 0.06347 0.0
H1047 H 0.02499 0.3095 0.11893 0.0
H1048 H 0.04887 0.34076 0.10785 0.0
H1049 H 0.06738 0.44343 0.99991 0.0
H1050 H 0.08639 0.40956 0.01364 0.0
H1051 H 0.04334 0.40236 0.07384 0.0
H1052 H 0.02394 0.43601 0.05949 0.0
H1053 H 0.05084 0.36301 0.06406 0.0
H1054 H 0.10474 0.42007 0.07411 0.0
H1055 H 0.12879 0.45076 0.06201 0.0
H1056 H 0.15992 0.40878 0.01147 0.0
H1057 H 0.13538 0.3781 0.02234 0.0
C1058 C 0.12123 0.28555 0.11235 0.0
C1059 C 0.13898 0.27653 0.09974 0.0
C1060 C 0.10975 0.30523 0.10403 0.0
C1061 C 0.11496 0.31753 0.08233 0.0
C1062 C 0.13277 0.30877 0.06988 0.0
C1063 C 0.1442 0.28908 0.0781 0.0
C1064 C 0.10239 0.33916 0.07287 0.0
C1065 C 0.11389 0.35793 0.06404 0.0
C1066 C 0.07905 0.34186 0.07249 0.0
C1067 C 0.06471 0.32316 0.07922 0.0
C1068 C 0.06555 0.30309 0.06666 0.0
C1069 C 0.05201 0.28545 0.07312 0.0
C1070 C 0.03743 0.28776 0.09198 0.0
C1071 C 0.03632 0.30773 0.10436 0.0
C1072 C 0.04984 0.32541 0.09799 0.0
C1073 C 0.06196 0.43493 0.01628 0.0
C1074 C 0.04387 0.44355 0.02842 0.0
C1075 C 0.07315 0.41511 0.02445 0.0
C1076 C 0.06739 0.40252 0.04575 0.0
C1077 C 0.04896 0.41093 0.05758 0.0
C1078 C 0.03762 0.43067 0.04922 0.0
C1079 C 0.08005 0.38099 0.05542 0.0
C1080 C 0.06857 0.3622 0.06431 0.0
C1081 C 0.10344 0.37828 0.05577 0.0
C1082 C 0.11793 0.39684 0.04878 0.0
C1083 C 0.11647 0.41746 0.06012 0.0
C1084 C 0.13017 0.43488 0.05341 0.0
C1085 C 0.14575 0.43176 0.03579 0.0
C1086 C 0.14767 0.41121 0.02488 0.0
C1087 C 0.13378 0.39384 0.0312 0.0
H1088 H 0.15643 0.4452 0.03066 0.0
H1089 H 0.02696 0.27409 0.09695 0.0
H1090 H 0.66816 0.28337 0.90441 0.0
H1091 H 0.65347 0.24831 0.91951 0.0
H1092 H 0.59031 0.27825 0.92603 0.0
H1093 H 0.60498 0.31352 0.91124 0.0
H1094 H 0.6021 0.24753 0.96528 0.0
H1095 H 0.5981 0.25284 0.87536 0.0
H1096 H 0.61348 0.25907 0.83445 0.0
H1097 H 0.65813 0.20549 0.84892 0.0
H1098 H 0.64322 0.19917 0.89011 0.0
H1099 H 0.52965 0.15543 0.95309 0.0
H1100 H 0.54936 0.1906 0.95072 0.0
H1101 H 0.6081 0.15631 0.93348 0.0
H1102 H 0.58837 0.12115 0.9355 0.0
H1103 H 0.6008 0.18893 0.90206 0.0
H1104 H 0.60278 0.18086 0.99033 0.0
H1105 H 0.58786 0.1744 0.03144 0.0
H1106 H 0.54802 0.23214 0.02124 0.0
H1107 H 0.56244 0.23877 0.97988 0.0
C1108 C 0.65129 0.28263 0.90964 0.0
C1109 C 0.63764 0.30111 0.90644 0.0
C1110 C 0.64292 0.26259 0.91816 0.0
C1111 C 0.62078 0.2607 0.92363 0.0
C1112 C 0.60744 0.27942 0.92189 0.0
C1113 C 0.61578 0.29946 0.91323 0.0
C1114 C 0.611 0.23881 0.92865 0.0
C1115 C 0.60164 0.2347 0.95148 0.0
C1116 C 0.61088 0.22203 0.91076 0.0
C1117 C 0.61972 0.2257 0.88592 0.0
C1118 C 0.61132 0.2425 0.8699 0.0
C1119 C 0.61993 0.24603 0.84665 0.0
C1120 C 0.63682 0.23272 0.83912 0.0
C1121 C 0.64508 0.21582 0.8548 0.0
C1122 C 0.63655 0.21225 0.87809 0.0
C1123 C 0.54684 0.1554 0.94913 0.0
C1124 C 0.55746 0.1356 0.94432 0.0
C1125 C 0.55811 0.17549 0.94787 0.0
C1126 C 0.58027 0.17607 0.94215 0.0
C1127 C 0.591 0.15624 0.93788 0.0
C1128 C 0.57971 0.1362 0.93894 0.0
C1129 C 0.59181 0.19742 0.93882 0.0
C1130 C 0.60143 0.20154 0.91613 0.0
C1131 C 0.59224 0.21408 0.95695 0.0
C1132 C 0.58357 0.21021 0.98188 0.0
C1133 C 0.59071 0.19209 0.99675 0.0
C1134 C 0.58236 0.18841 0.02012 0.0
C1135 C 0.56697 0.20283 0.02892 0.0
C1136 C 0.55993 0.22098 0.01439 0.0
C1137 C 0.5682 0.22472 0.99099 0.0
H1138 H 0.56053 0.19997 0.04702 0.0
H1139 H 0.64346 0.23548 0.82111 0.0
H1140 H 0.87707 0.83193 0.39007 0.0
H1141 H 0.89887 0.86279 0.40653 0.0
H1142 H 0.9501 0.8479 0.35759 0.0
H1143 H 0.92877 0.81632 0.34174 0.0
H1144 H 0.96726 0.8591 0.40241 0.0
H1145 H 0.91486 0.88923 0.3427 0.0
H1146 H 0.87813 0.89522 0.32249 0.0
H1147 H 0.85655 0.92351 0.38934 0.0
H1148 H 0.89308 0.91739 0.41008 0.0
H1149 H 0.98009 0.98824 0.4186 0.0
H1150 H 0.96695 0.95611 0.395 0.0
H1151 H 0.97733 0.91497 0.4607 0.0
H1152 H 0.99121 0.94676 0.48396 0.0
H1153 H 0.93235 0.93269 0.40101 0.0
H1154 H 0.98599 0.86255 0.44688 0.0
H1155 H 0.02386 0.85746 0.46425 0.0
H1156 H 0.04592 0.91096 0.41857 0.0
H1157 H 1.00825 0.91618 0.40066 0.0
C1158 C 0.89312 0.83495 0.38308 0.0
C1159 C 0.90111 0.82172 0.36448 0.0
C1160 C 0.90547 0.85275 0.39233 0.0
C1161 C 0.92594 0.85786 0.38296 0.0
C1162 C 0.93429 0.84432 0.36495 0.0
C1163 C 0.92198 0.82642 0.35576 0.0
C1164 C 0.93828 0.87767 0.39161 0.0
C1165 C 0.95971 0.87522 0.40204 0.0
C1166 C 0.92862 0.8988 0.39046 0.0
C1167 C 0.90667 0.90271 0.37799 0.0
C1168 C 0.90225 0.89661 0.35314 0.0
C1169 C 0.88146 0.90004 0.34158 0.0
C1170 C 0.86501 0.90971 0.35463 0.0
C1171 C 0.86931 0.91601 0.37926 0.0
C1172 C 0.89006 0.91259 0.39091 0.0
C1173 C 0.97987 0.97224 0.42783 0.0
C1174 C 0.98654 0.96994 0.45307 0.0
C1175 C 0.97233 0.95393 0.41438 0.0
C1176 C 0.97128 0.93307 0.426 0.0
C1177 C 0.9784 0.93075 0.45114 0.0
C1178 C 0.98619 0.94898 0.46448 0.0
C1179 C 0.96119 0.91409 0.41252 0.0
C1180 C 0.9401 0.91666 0.40117 0.0
C1181 C 0.9714 0.89322 0.41233 0.0
C1182 C 0.99424 0.88984 0.42255 0.0
C1183 C 0.99894 0.87313 0.44041 0.0
C1184 C 0.02037 0.87025 0.45039 0.0
C1185 C 0.03727 0.88391 0.44257 0.0
C1186 C 0.0328 0.90043 0.42467 0.0
C1187 C 0.0114 0.90337 0.41462 0.0
H1188 H 0.05384 0.88168 0.45036 0.0
H1189 H 0.84892 0.91234 0.34566 0.0
H1190 H 0.366 0.66008 0.65954 0.0
H1191 H 0.385 0.63111 0.63876 0.0
H1192 H 0.44529 0.66865 0.64587 0.0
H1193 H 0.42607 0.69831 0.66554 0.0
H1194 H 0.43976 0.65372 0.60073 0.0
H1195 H 0.4361 0.62134 0.68182 0.0
H1196 H 0.41856 0.60881 0.71975 0.0
H1197 H 0.37762 0.56403 0.67682 0.0
H1198 H 0.39471 0.57651 0.63856 0.0
H1199 H 0.50875 0.56771 0.56588 0.0
H1200 H 0.49088 0.59463 0.59093 0.0
H1201 H 0.42832 0.56322 0.57418 0.0
H1202 H 0.44609 0.53609 0.54891 0.0
H1203 H 0.43574 0.57457 0.62488 0.0
H1204 H 0.43952 0.60818 0.54365 0.0
H1205 H 0.45811 0.62051 0.50634 0.0
H1206 H 0.50022 0.66299 0.55092 0.0
H1207 H 0.48209 0.65065 0.58858 0.0
C1208 C 0.38329 0.66226 0.65662 0.0
C1209 C 0.39446 0.68163 0.6641 0.0
C1210 C 0.39422 0.64551 0.645 0.0
C1211 C 0.41666 0.64755 0.64096 0.0
C1212 C 0.42797 0.66667 0.64883 0.0
C1213 C 0.417 0.68353 0.66031 0.0
C1214 C 0.42801 0.63022 0.62744 0.0
C1215 C 0.43917 0.63647 0.60631 0.0
C1216 C 0.42684 0.6076 0.6343 0.0
C1217 C 0.41656 0.60001 0.65729 0.0
C1218 C 0.42324 0.60894 0.68043 0.0
C1219 C 0.4134 0.60183 0.702 0.0
C1220 C 0.39695 0.58568 0.70069 0.0
C1221 C 0.39035 0.57656 0.67781 0.0
C1222 C 0.40012 0.58363 0.65618 0.0
C1223 C 0.4912 0.5664 0.56756 0.0
C1224 C 0.47882 0.5498 0.55525 0.0
C1225 C 0.48102 0.58186 0.58187 0.0
C1226 C 0.45827 0.58102 0.58422 0.0
C1227 C 0.44591 0.56414 0.57255 0.0
C1228 C 0.45607 0.54873 0.55804 0.0
C1229 C 0.44741 0.59816 0.59834 0.0
C1230 C 0.43634 0.59186 0.61948 0.0
C1231 C 0.44879 0.62075 0.59162 0.0
C1232 C 0.45959 0.62833 0.56897 0.0
C1233 C 0.45286 0.62002 0.54553 0.0
C1234 C 0.4633 0.62703 0.52431 0.0
C1235 C 0.48038 0.64248 0.52626 0.0
C1236 C 0.48701 0.651 0.54944 0.0
C1237 C 0.47665 0.64401 0.57072 0.0
H1238 H 0.48843 0.64789 0.50981 0.0
H1239 H 0.38935 0.58019 0.71741 0.0
H1240 H 0.86032 0.92239 0.7277 0.0
H1241 H 0.88019 0.93811 0.69393 0.0
H1242 H 0.93421 0.89479 0.71238 0.0
H1243 H 0.91482 0.87969 0.74754 0.0
H1244 H 0.95313 0.92894 0.69622 0.0
H1245 H 0.89195 0.8921 0.65591 0.0
H1246 H 0.85308 0.88254 0.64644 0.0
H1247 H 0.83946 0.94992 0.62588 0.0
H1248 H 0.87821 0.95993 0.63551 0.0
H1249 H 1.0054 0.95331 0.58009 0.0
H1250 H 0.98662 0.93668 0.61505 0.0
H1251 H 0.93329 0.98198 0.60176 0.0
H1252 H 0.95195 0.99844 0.56665 0.0
H1253 H 0.9145 0.94599 0.61502 0.0
H1254 H 0.97652 0.9823 0.65545 0.0
H1255 H 0.01573 0.99087 0.66417 0.0
H1256 H 0.02809 0.92299 0.68346 0.0
H1257 H 0.98899 0.91397 0.67457 0.0
C1258 C 0.87649 0.91601 0.72527 0.0
C1259 C 0.88528 0.89924 0.74172 0.0
C1260 C 0.88802 0.92504 0.70497 0.0
C1261 C 0.90914 0.91779 0.69905 0.0
C1262 C 0.91812 0.90118 0.71549 0.0
C1263 C 0.90661 0.89219 0.736 0.0
C1264 C 0.9216 0.92751 0.67636 0.0
C1265 C 0.94445 0.93225 0.67848 0.0
C1266 C 0.91121 0.93272 0.65246 0.0
C1267 C 0.88793 0.9268 0.64668 0.0
C1268 C 0.88063 0.9049 0.64953 0.0
C1269 C 0.85863 0.8994 0.64411 0.0
C1270 C 0.8438 0.91563 0.63563 0.0
C1271 C 0.85096 0.93738 0.63249 0.0
C1272 C 0.87294 0.94297 0.63791 0.0
C1273 C 0.9897 0.95995 0.58449 0.0
C1274 C 0.98069 0.97769 0.56979 0.0
C1275 C 0.97879 0.95034 0.60504 0.0
C1276 C 0.9581 0.95782 0.61238 0.0
C1277 C 0.94901 0.97536 0.59743 0.0
C1278 C 0.95996 0.98503 0.57698 0.0
C1279 C 0.94595 0.94751 0.63494 0.0
C1280 C 0.92315 0.94267 0.63278 0.0
C1281 C 0.95643 0.94206 0.6587 0.0
C1282 C 0.97989 0.94743 0.6641 0.0
C1283 C 0.98764 0.96918 0.6614 0.0
C1284 C 1.00983 0.97412 0.66639 0.0
C1285 C 0.0244 0.95747 0.67429 0.0
C1286 C 0.01679 0.93586 0.67729 0.0
C1287 C 0.99462 0.93083 0.6723 0.0
H1288 H 0.04158 0.96133 0.67814 0.0
H1289 H 0.82677 0.91134 0.63145 0.0
H1290 H 0.60193 0.21196 0.15669 0.0
H1291 H 0.58846 0.18697 0.12377 0.0
H1292 H 0.60288 0.13113 0.17245 0.0
H1293 H 0.61663 0.15592 0.20503 0.0
H1294 H 0.61803 0.12441 0.12841 0.0
H1295 H 0.5494 0.15054 0.1583 0.0
H1296 H 0.52269 0.17903 0.16781 0.0
H1297 H 0.51943 0.20089 0.09148 0.0
H1298 H 0.54631 0.17266 0.08159 0.0
H1299 H 0.55826 0.03622 0.07384 0.0
H1300 H 0.57353 0.0656 0.10009 0.0
H1301 H 0.55513 0.11376 0.04302 0.0
H1302 H 0.53939 0.08444 0.01687 0.0
H1303 H 0.54364 0.12741 0.08668 0.0
H1304 H 0.60915 0.09972 0.05551 0.0
H1305 H 0.63593 0.07166 0.04501 0.0
H1306 H 0.64581 0.05358 0.12219 0.0
H1307 H 0.61885 0.08133 0.13313 0.0
C1308 C 0.60194 0.19436 0.16038 0.0
C1309 C 0.61041 0.18586 0.18335 0.0
C1310 C 0.59427 0.1801 0.14159 0.0
C1311 C 0.59461 0.15713 0.14563 0.0
C1312 C 0.6026 0.14874 0.16879 0.0
C1313 C 0.61043 0.16293 0.18741 0.0
C1314 C 0.58725 0.14159 0.12575 0.0
C1315 C 0.60168 0.12494 0.11946 0.0
C1316 C 0.56625 0.14279 0.11331 0.0
C1317 C 0.55004 0.15967 0.11927 0.0
C1318 C 0.54311 0.16153 0.14359 0.0
C1319 C 0.52791 0.17761 0.14904 0.0
C1320 C 0.51942 0.1918 0.13028 0.0
C1321 C 0.52605 0.18991 0.10601 0.0
C1322 C 0.54124 0.17387 0.10046 0.0
C1323 C 0.55766 0.05302 0.06675 0.0
C1324 C 0.5476 0.05799 0.04326 0.0
C1325 C 0.56647 0.06983 0.08175 0.0
C1326 C 0.56568 0.09191 0.07345 0.0
C1327 C 0.55593 0.09686 0.04984 0.0
C1328 C 0.54701 0.08007 0.03487 0.0
C1329 C 0.5742 0.10981 0.08993 0.0
C1330 C 0.56006 0.12696 0.09547 0.0
C1331 C 0.59553 0.10917 0.10159 0.0
C1332 C 0.61184 0.09251 0.09511 0.0
C1333 C 0.61691 0.08966 0.07023 0.0
C1334 C 0.63215 0.07383 0.0642 0.0
C1335 C 0.64254 0.06082 0.08292 0.0
C1336 C 0.63774 0.06366 0.10771 0.0
C1337 C 0.6225 0.07946 0.11384 0.0
H1338 H 0.65432 0.04857 0.07821 0.0
H1339 H 0.50765 0.20424 0.13454 0.0
H1340 H 0.40207 0.56892 0.25878 0.0
H1341 H 0.42414 0.55791 0.29605 0.0
H1342 H 0.3678 0.56489 0.3401 0.0
H1343 H 0.34554 0.57573 0.30267 0.0
H1344 H 0.43467 0.58164 0.33499 0.0
H1345 H 0.3735 0.53023 0.39126 0.0
H1346 H 0.34201 0.50501 0.38372 0.0
H1347 H 0.36583 0.48808 0.31307 0.0
H1348 H 0.39759 0.51295 0.32033 0.0
H1349 H 0.4812 0.56937 0.45754 0.0
H1350 H 0.45505 0.57706 0.42235 0.0
H1351 H 0.45645 0.50863 0.40185 0.0
H1352 H 0.48177 0.50077 0.43752 0.0
H1353 H 0.41672 0.52242 0.39528 0.0
H1354 H 0.48705 0.55006 0.37243 0.0
H1355 H 0.52094 0.57234 0.37739 0.0
H1356 H 0.48291 0.63158 0.37607 0.0
H1357 H 0.44878 0.60962 0.3714 0.0
C1358 C 0.39434 0.5679 0.27639 0.0
C1359 C 0.37212 0.57327 0.27787 0.0
C1360 C 0.40697 0.56165 0.29766 0.0
C1361 C 0.39767 0.56063 0.32089 0.0
C1362 C 0.37528 0.56532 0.32234 0.0
C1363 C 0.36257 0.57146 0.30096 0.0
C1364 C 0.41177 0.55578 0.34363 0.0
C1365 C 0.43071 0.56869 0.34817 0.0
C1366 C 0.40676 0.53876 0.36073 0.0
C1367 C 0.38778 0.52367 0.35623 0.0
C1368 C 0.37203 0.52109 0.37414 0.0
C1369 C 0.35414 0.50685 0.36992 0.0
C1370 C 0.35188 0.49502 0.34789 0.0
C1371 C 0.36755 0.49733 0.33008 0.0
C1372 C 0.38548 0.51152 0.33422 0.0
C1373 C 0.47582 0.55601 0.44553 0.0
C1374 C 0.48364 0.53455 0.45003 0.0
C1375 C 0.46095 0.5604 0.42541 0.0
C1376 C 0.45405 0.5435 0.40916 0.0
C1377 C 0.46151 0.52196 0.41407 0.0
C1378 C 0.47608 0.5175 0.43438 0.0
C1379 C 0.43964 0.54825 0.38659 0.0
C1380 C 0.42061 0.53542 0.38214 0.0
C1381 C 0.44487 0.56495 0.36917 0.0
C1382 C 0.46537 0.57819 0.37181 0.0
C1383 C 0.48592 0.56783 0.37335 0.0
C1384 C 0.50517 0.5804 0.37609 0.0
C1385 C 0.50408 0.60336 0.37711 0.0
C1386 C 0.48373 0.6138 0.37532 0.0
C1387 C 0.46443 0.6013 0.3726 0.0
H1388 H 0.519 0.61306 0.37925 0.0
H1389 H 0.33801 0.48401 0.34465 0.0
H1390 H 0.12399 0.28964 0.84327 0.0
H1391 H 0.11859 0.31345 0.87846 0.0
H1392 H 0.18839 0.31512 0.89552 0.0
H1393 H 0.19391 0.29126 0.86031 0.0
H1394 H 0.13101 0.32161 0.93078 0.0
H1395 H 0.20211 0.36779 0.89125 0.0
H1396 H 0.22343 0.3699 0.85362 0.0
H1397 H 0.1661 0.35147 0.80869 0.0
H1398 H 0.14457 0.34922 0.84603 0.0
H1399 H 0.13685 0.4357 0.97884 0.0
H1400 H 0.14902 0.39859 0.96839 0.0
H1401 H 0.11375 0.40418 0.89711 0.0
H1402 H 0.10071 0.44037 0.90762 0.0
H1403 H 0.15977 0.39216 0.89717 0.0
H1404 H 0.09218 0.3767 0.93829 0.0
H1405 H 0.06849 0.37503 0.97382 0.0
H1406 H 0.11477 0.33301 0.01393 0.0
H1407 H 0.13919 0.33507 0.97897 0.0
C1408 C 0.13809 0.29414 0.85526 0.0
C1409 C 0.1594 0.28904 0.84879 0.0
C1410 C 0.13497 0.30773 0.87543 0.0
C1411 C 0.15313 0.31632 0.88927 0.0
C1412 C 0.1742 0.30874 0.88493 0.0
C1413 C 0.17732 0.29523 0.86474 0.0
C1414 C 0.15053 0.33688 0.9031 0.0
C1415 C 0.13761 0.33703 0.92384 0.0
C1416 C 0.15904 0.35697 0.89387 0.0
C1417 C 0.17187 0.35812 0.87138 0.0
C1418 C 0.19413 0.36415 0.87331 0.0
C1419 C 0.20624 0.36534 0.85205 0.0
C1420 C 0.19617 0.36071 0.82878 0.0
C1421 C 0.17395 0.3549 0.82671 0.0
C1422 C 0.1618 0.35361 0.84791 0.0
C1423 C 0.13154 0.4289 0.96106 0.0
C1424 C 0.11796 0.44113 0.944 0.0
C1425 C 0.13851 0.40778 0.95518 0.0
C1426 C 0.13217 0.39878 0.9321 0.0
C1427 C 0.11883 0.41097 0.91502 0.0
C1428 C 0.11164 0.43181 0.92096 0.0
C1429 C 0.13998 0.37707 0.9247 0.0
C1430 C 0.15387 0.37673 0.90493 0.0
C1431 C 0.13218 0.357 0.93485 0.0
C1432 C 0.11773 0.35635 0.95612 0.0
C1433 C 0.09756 0.36747 0.95485 0.0
C1434 C 0.08396 0.3664 0.97487 0.0
C1435 C 0.09015 0.35395 0.99612 0.0
C1436 C 0.11003 0.34267 0.99747 0.0
C1437 C 0.12379 0.34386 0.97759 0.0
H1438 H 0.07946 0.3529 0.01143 0.0
H1439 H 0.20557 0.36175 0.81236 0.0
H1440 H 0.74455 0.92443 0.8944 0.0
H1441 H 0.71176 0.94239 0.90927 0.0
H1442 H 0.68136 0.87902 0.91926 0.0
H1443 H 0.71422 0.86105 0.90509 0.0
H1444 H 0.64913 0.90758 0.90026 0.0
H1445 H 0.70184 0.91288 0.9697 0.0
H1446 H 0.73699 0.9237 0.99097 0.0
H1447 H 0.72431 0.99164 0.97225 0.0
H1448 H 0.6892 0.98118 0.95056 0.0
H1449 H 0.55299 0.94718 0.95791 0.0
H1450 H 0.58599 0.92903 0.94559 0.0
H1451 H 0.62427 0.98643 0.96628 0.0
H1452 H 0.59115 1.00357 0.98124 0.0
H1453 H 0.65351 0.96111 0.96864 0.0
H1454 H 0.6042 0.95832 0.89628 0.0
H1455 H 0.57003 0.94981 0.87153 0.0
H1456 H 0.57706 0.88113 0.89049 0.0
H1457 H 0.61119 0.88925 0.91549 0.0
C1458 C 0.73102 0.91405 0.89967 0.0
C1459 C 0.73312 0.89071 0.89818 0.0
C1460 C 0.71183 0.92458 0.90854 0.0
C1461 C 0.69299 0.91264 0.91606 0.0
C1462 C 0.69491 0.88939 0.914 0.0
C1463 C 0.71426 0.87886 0.90577 0.0
C1464 C 0.67172 0.92397 0.92584 0.0
C1465 C 0.65036 0.91909 0.91545 0.0
C1466 C 0.67197 0.93991 0.94525 0.0
C1467 C 0.693 0.94622 0.9583 0.0
C1468 C 0.70663 0.9301 0.96995 0.0
C1469 C 0.72653 0.93618 0.98211 0.0
C1470 C 0.73291 0.95834 0.9829 0.0
C1471 C 0.71936 0.97447 0.97159 0.0
C1472 C 0.69946 0.96848 0.95937 0.0
C1473 C 0.5684 0.95607 0.96022 0.0
C1474 C 0.56847 0.97722 0.9712 0.0
C1475 C 0.58787 0.94562 0.95231 0.0
C1476 C 0.60903 0.95596 0.95321 0.0
C1477 C 0.60907 0.97716 0.96454 0.0
C1478 C 0.58963 0.98729 0.97339 0.0
C1479 C 0.63052 0.94492 0.94299 0.0
C1480 C 0.65204 0.94974 0.95336 0.0
C1481 C 0.6305 0.92939 0.92297 0.0
C1482 C 0.6101 0.92442 0.90792 0.0
C1483 C 0.59841 0.94142 0.89521 0.0
C1484 C 0.57907 0.93666 0.88113 0.0
C1485 C 0.57139 0.91495 0.87944 0.0
C1486 C 0.58305 0.89793 0.89179 0.0
C1487 C 0.60239 0.9026 0.90591 0.0
H1488 H 0.5564 0.91131 0.86858 0.0
H1489 H 0.74832 0.96301 0.99233 0.0
H1490 H 0.78682 0.19005 0.29373 0.0
H1491 H 0.81961 0.17469 0.31548 0.0
H1492 H 0.79311 0.18889 0.38595 0.0
H1493 H 0.76018 0.204 0.3644 0.0
H1494 H 0.83715 0.19884 0.38541 0.0
H1495 H 0.78866 0.13805 0.36325 0.0
H1496 H 0.76593 0.11528 0.33422 0.0
H1497 H 0.82241 0.10159 0.29319 0.0
H1498 H 0.84542 0.12455 0.3218 0.0
H1499 H 0.89343 0.12599 0.46935 0.0
H1500 H 0.86719 0.14721 0.44321 0.0
H1501 H 0.89632 0.12364 0.37761 0.0
H1502 H 0.92197 0.10138 0.4037 0.0
H1503 H 0.8536 0.12005 0.37251 0.0
H1504 H 0.90304 0.17793 0.39712 0.0
H1505 H 0.92578 0.20062 0.42621 0.0
H1506 H 0.86826 0.22001 0.46238 0.0
H1507 H 0.84519 0.19719 0.43373 0.0
C1508 C 0.78796 0.18988 0.31386 0.0
C1509 C 0.7708 0.19809 0.32734 0.0
C1510 C 0.80674 0.18119 0.32624 0.0
C1511 C 0.80866 0.18046 0.35232 0.0
C1512 C 0.79195 0.18936 0.36581 0.0
C1513 C 0.77317 0.19804 0.35346 0.0
C1514 C 0.82756 0.16948 0.36561 0.0
C1515 C 0.84071 0.18158 0.38275 0.0
C1516 C 0.8325 0.14713 0.3616 0.0
C1517 C 0.8187 0.13321 0.34449 0.0
C1518 C 0.79619 0.13032 0.34792 0.0
C1519 C 0.78327 0.11736 0.33156 0.0
C1520 C 0.79271 0.10705 0.31183 0.0
C1521 C 0.81511 0.10962 0.30845 0.0
C1522 C 0.82811 0.1226 0.32474 0.0
C1523 C 0.89424 0.12523 0.44936 0.0
C1524 C 0.90973 0.11184 0.43864 0.0
C1525 C 0.87941 0.13765 0.43442 0.0
C1526 C 0.87994 0.13726 0.40843 0.0
C1527 C 0.89566 0.12427 0.39764 0.0
C1528 C 0.91044 0.1117 0.41259 0.0
C1529 C 0.86319 0.14933 0.3926 0.0
C1530 C 0.85034 0.13741 0.37498 0.0
C1531 C 0.85859 0.17186 0.39616 0.0
C1532 C 0.8724 0.18571 0.41337 0.0
C1533 C 0.89525 0.18691 0.41139 0.0
C1534 C 0.9082 0.19982 0.42778 0.0
C1535 C 0.89847 0.21172 0.44616 0.0
C1536 C 0.87577 0.21078 0.44814 0.0
C1537 C 0.86275 0.19788 0.4318 0.0
H1538 H 0.90853 0.2217 0.45884 0.0
H1539 H 0.78267 0.09702 0.29918 0.0
H1540 H 0.20768 0.63525 0.10798 0.0
H1541 H 0.1721 0.62202 0.09164 0.0
H1542 H 0.18876 0.55594 0.11635 0.0
H1543 H 0.22507 0.56875 0.13104 0.0
H1544 H 0.1705 0.55408 0.07262 0.0
H1545 H 0.15205 0.59015 0.1468 0.0
H1546 H 0.15091 0.62062 0.1764 0.0
H1547 H 0.11639 0.66069 0.12091 0.0
H1548 H 0.11758 0.63056 0.09086 0.0
H1549 H 0.06073 0.51092 0.07452 0.0
H1550 H 0.09654 0.52633 0.08806 0.0
H1551 H 0.08659 0.58075 0.03628 0.0
H1552 H 0.05089 0.565 0.02203 0.0
H1553 H 0.10071 0.58955 0.09193 0.0
H1554 H 0.11989 0.55118 0.01808 0.0
H1555 H 0.12216 0.51958 0.99025 0.0
H1556 H 0.15499 0.48185 0.0491 0.0
H1557 H 0.15279 0.51317 0.07728 0.0
C1558 C 0.20395 0.61784 0.10972 0.0
C1559 C 0.2194 0.60309 0.1208 0.0
C1560 C 0.18338 0.61035 0.10068 0.0
C1561 C 0.17755 0.58801 0.10306 0.0
C1562 C 0.19283 0.57327 0.11434 0.0
C1563 C 0.21353 0.58069 0.12303 0.0
C1564 C 0.15584 0.57985 0.09304 0.0
C1565 C 0.15527 0.56173 0.07715 0.0
C1566 C 0.13589 0.59004 0.09846 0.0
C1567 C 0.1351 0.60817 0.1165 0.0
C1568 C 0.14436 0.60552 0.14085 0.0
C1569 C 0.14368 0.62272 0.15772 0.0
C1570 C 0.13363 0.6426 0.15052 0.0
C1571 C 0.12419 0.6453 0.12645 0.0
C1572 C 0.12485 0.62816 0.1095 0.0
C1573 C 0.06617 0.52618 0.06604 0.0
C1574 C 0.05308 0.53687 0.04733 0.0
C1575 C 0.08661 0.53489 0.07372 0.0
C1576 C 0.09411 0.55461 0.06312 0.0
C1577 C 0.081 0.56549 0.04462 0.0
C1578 C 0.0607 0.55651 0.03653 0.0
C1579 C 0.11559 0.56387 0.07178 0.0
C1580 C 0.11605 0.58209 0.08743 0.0
C1581 C 0.1354 0.55357 0.06654 0.0
C1582 C 0.13592 0.53442 0.04988 0.0
C1583 C 0.12727 0.53601 0.02519 0.0
C1584 C 0.12859 0.51814 0.00932 0.0
C1585 C 0.13847 0.49857 0.01795 0.0
C1586 C 0.14714 0.49689 0.04245 0.0
C1587 C 0.14592 0.51472 0.05836 0.0
H1588 H 0.13958 0.48478 0.00562 0.0
H1589 H 0.13312 0.65589 0.16361 0.0
H1590 H 0.26877 0.32589 0.65331 0.0
H1591 H 0.29486 0.34905 0.63144 0.0
H1592 H 0.26144 0.40734 0.65326 0.0
H1593 H 0.23556 0.38421 0.67574 0.0
H1594 H 0.2743 0.40164 0.59764 0.0
H1595 H 0.30137 0.40371 0.68377 0.0
H1596 H 0.31196 0.3867 0.72451 0.0
H1597 H 0.3605 0.34801 0.69093 0.0
H1598 H 0.34993 0.36454 0.64988 0.0
H1599 H 0.35972 0.47188 0.55579 0.0
H1600 H 0.33035 0.45624 0.58006 0.0
H1601 H 0.36782 0.39667 0.59263 0.0
H1602 H 0.39733 0.41251 0.56916 0.0
H1603 H 0.35078 0.40705 0.63343 0.0
H1604 H 0.32358 0.40148 0.54803 0.0
H1605 H 0.31292 0.41546 0.50587 0.0
H1606 H 0.26499 0.45741 0.53577 0.0
H1607 H 0.27557 0.44387 0.57817 0.0
C1608 C 0.26692 0.34363 0.65324 0.0
C1609 C 0.25028 0.35336 0.66616 0.0
C1610 C 0.28178 0.35679 0.64084 0.0
C1611 C 0.27998 0.37981 0.64086 0.0
C1612 C 0.26298 0.38958 0.65309 0.0
C1613 C 0.24835 0.37642 0.66595 0.0
C1614 C 0.29648 0.39351 0.6288 0.0
C1615 C 0.29095 0.40326 0.60558 0.0
C1616 C 0.3182 0.39503 0.63905 0.0
C1617 C 0.3247 0.38519 0.66373 0.0
C1618 C 0.31415 0.39141 0.68503 0.0
C1619 C 0.32018 0.38189 0.70819 0.0
C1620 C 0.33685 0.36624 0.7103 0.0
C1621 C 0.34757 0.36012 0.68926 0.0
C1622 C 0.34158 0.36957 0.66605 0.0
C1623 C 0.3616 0.45547 0.56381 0.0
C1624 C 0.38074 0.44338 0.5607 0.0
C1625 C 0.34484 0.44653 0.57758 0.0
C1626 C 0.34677 0.42517 0.58794 0.0
C1627 C 0.36598 0.41321 0.58493 0.0
C1628 C 0.38283 0.42225 0.57153 0.0
C1629 C 0.32886 0.41502 0.60183 0.0
C1630 C 0.33411 0.40583 0.62548 0.0
C1631 C 0.30695 0.41375 0.59174 0.0
C1632 C 0.30055 0.42186 0.56628 0.0
C1633 C 0.31089 0.41381 0.54563 0.0
C1634 C 0.30484 0.42164 0.52169 0.0
C1635 C 0.28834 0.43737 0.51815 0.0
C1636 C 0.2778 0.44526 0.53854 0.0
C1637 C 0.28381 0.43751 0.56253 0.0
H1638 H 0.28368 0.4434 0.49961 0.0
H1639 H 0.34151 0.35889 0.72825 0.0
H1640 H 0.92005 0.74649 0.88294 0.0
H1641 H 0.93674 0.71263 0.89859 0.0
H1642 H 0.87728 0.69445 0.93291 0.0
H1643 H 0.85978 0.72861 0.91632 0.0
H1644 H 0.91147 0.68045 0.96444 0.0
H1645 H 0.8973 0.66835 0.87737 0.0
H1646 H 0.89854 0.67656 0.83249 0.0
H1647 H 0.96894 0.67644 0.83886 0.0
H1648 H 0.96812 0.66851 0.88386 0.0
H1649 H 0.94984 0.56934 0.99475 0.0
H1650 H 0.93052 0.60264 0.97966 0.0
H1651 H 0.98412 0.61924 0.93412 0.0
H1652 H 1.00322 0.58556 0.94882 0.0
H1653 H 0.95169 0.63373 0.90807 0.0
H1654 H 0.96738 0.64874 0.99356 0.0
H1655 H 0.96828 0.64184 0.03884 0.0
H1656 H 0.89795 0.63783 0.03593 0.0
H1657 H 0.89665 0.64463 0.99064 0.0
C1658 C 0.9098 0.73544 0.89319 0.0
C1659 C 0.88763 0.74127 0.89711 0.0
C1660 C 0.91983 0.71548 0.90256 0.0
C1661 C 0.90873 0.6996 0.91696 0.0
C1662 C 0.88685 0.70559 0.92188 0.0
C1663 C 0.87662 0.72563 0.9122 0.0
C1664 C 0.92002 0.67736 0.92649 0.0
C1665 C 0.91987 0.67023 0.95174 0.0
C1666 C 0.93208 0.66334 0.91105 0.0
C1667 C 0.93264 0.66804 0.88402 0.0
C1668 C 0.91304 0.67023 0.86923 0.0
C1669 C 0.91367 0.67481 0.84376 0.0
C1670 C 0.93381 0.67707 0.83284 0.0
C1671 C 0.95336 0.67471 0.84735 0.0
C1672 C 0.95282 0.67015 0.87284 0.0
C1673 C 0.95778 0.57997 0.98156 0.0
C1674 C 0.97865 0.5739 0.97349 0.0
C1675 C 0.94654 0.59963 0.97288 0.0
C1676 C 0.95539 0.61489 0.95558 0.0
C1677 C 0.97617 0.60864 0.94731 0.0
C1678 C 0.98741 0.58896 0.956 0.0
C1679 C 0.94321 0.63675 0.94608 0.0
C1680 C 0.94324 0.64386 0.9208 0.0
C1681 C 0.93132 0.65091 0.96155 0.0
C1682 C 0.93193 0.64699 0.98873 0.0
C1683 C 0.95212 0.64629 1.00259 0.0
C1684 C 0.95271 0.64242 0.02825 0.0
C1685 C 0.93321 0.63937 0.04026 0.0
C1686 C 0.91306 0.6402 0.02664 0.0
C1687 C 0.91237 0.64411 1.00098 0.0
H1688 H 0.93379 0.6365 0.06012 0.0
H1689 H 0.93426 0.68062 0.81312 0.0
H1690 H 0.37154 0.71761 0.08835 0.0
H1691 H 0.38531 0.75313 0.0732 0.0
H1692 H 0.4095 0.76884 0.14762 0.0
H1693 H 0.39506 0.73396 0.16299 0.0
H1694 H 0.38943 0.80325 0.1261 0.0
H1695 H 0.44362 0.75078 0.1035 0.0
H1696 H 0.4567 0.71768 0.08311 0.0
H1697 H 0.43371 0.74386 0.01192 0.0
H1698 H 0.42023 0.77701 0.03196 0.0
H1699 H 0.4713 0.88393 0.1103 0.0
H1700 H 0.45097 0.85014 0.1189 0.0
H1701 H 0.42693 0.84799 0.04219 0.0
H1702 H 0.44681 0.88221 0.03347 0.0
H1703 H 0.44319 0.80773 0.06043 0.0
H1704 H 0.3926 0.86231 0.08356 0.0
H1705 H 0.38079 0.89556 0.10467 0.0
H1706 H 0.39804 0.86544 0.17567 0.0
H1707 H 0.41027 0.83211 0.15498 0.0
C1708 C 0.37965 0.72872 0.10148 0.0
C1709 C 0.38237 0.72288 0.12684 0.0
C1710 C 0.38766 0.74892 0.09278 0.0
C1711 C 0.39862 0.76353 0.10926 0.0
C1712 C 0.40113 0.75781 0.13457 0.0
C1713 C 0.39309 0.73773 0.14328 0.0
C1714 C 0.40759 0.78484 0.10039 0.0
C1715 C 0.40129 0.80421 0.11186 0.0
C1716 C 0.42259 0.78615 0.08131 0.0
C1717 C 0.43068 0.76624 0.06926 0.0
C1718 C 0.44119 0.74939 0.08352 0.0
C1719 C 0.44871 0.73064 0.07203 0.0
C1720 C 0.44598 0.72863 0.04624 0.0
C1721 C 0.43577 0.74541 0.0319 0.0
C1722 C 0.4282 0.76419 0.04331 0.0
C1723 C 0.46141 0.87653 0.09531 0.0
C1724 C 0.46062 0.88587 0.07121 0.0
C1725 C 0.44988 0.85715 0.10024 0.0
C1726 C 0.43732 0.84671 0.08121 0.0
C1727 C 0.43655 0.85583 0.05711 0.0
C1728 C 0.448 0.87532 0.05217 0.0
C1729 C 0.42541 0.826 0.08659 0.0
C1730 C 0.4311 0.80678 0.07444 0.0
C1731 C 0.40995 0.82479 0.10516 0.0
C1732 C 0.4025 0.84476 0.1177 0.0
C1733 C 0.39403 0.86283 0.10367 0.0
C1734 C 0.38724 0.88169 0.11556 0.0
C1735 C 0.38871 0.88263 0.14149 0.0
C1736 C 0.39693 0.86469 0.15559 0.0
C1737 C 0.40376 0.8458 0.14379 0.0
H1738 H 0.38344 0.89724 0.15066 0.0
H1739 H 0.45182 0.7141 0.03737 0.0
H1740 H 0.11351 0.21727 0.61418 0.0
H1741 H 0.09453 0.18715 0.59236 0.0
H1742 H 0.10518 0.14496 0.65711 0.0
H1743 H 0.12517 0.17466 0.67862 0.0
H1744 H 0.11581 0.12434 0.6178 0.0
H1745 H 0.05381 0.16576 0.63929 0.0
H1746 H 0.03087 0.19874 0.64229 0.0
H1747 H 0.02503 0.20465 0.56268 0.0
H1748 H 0.0482 0.17187 0.5592 0.0
H1749 H 0.01934 0.05615 0.55853 0.0
H1750 H 0.03196 0.0881 0.5828 0.0
H1751 H 0.09072 0.09159 0.54194 0.0
H1752 H 0.07844 0.05943 0.51808 0.0
H1753 H 0.04294 0.13029 0.57273 0.0
H1754 H 0.13379 0.10325 0.581 0.0
H1755 H 0.15527 0.069 0.58084 0.0
H1756 H 0.10058 0.03223 0.60716 0.0
H1757 H 0.0789 0.06629 0.60781 0.0
C1758 C 0.11188 0.20156 0.62377 0.0
C1759 C 0.12098 0.19835 0.64811 0.0
C1760 C 0.10076 0.18444 0.61137 0.0
C1761 C 0.09824 0.16385 0.62318 0.0
C1762 C 0.10688 0.16073 0.64766 0.0
C1763 C 0.11815 0.1778 0.66001 0.0
C1764 C 0.08786 0.14517 0.60947 0.0
C1765 C 0.09984 0.12565 0.60805 0.0
C1766 C 0.06689 0.14675 0.59698 0.0
C1767 C 0.0529 0.16645 0.599 0.0
C1768 C 0.04777 0.17418 0.62242 0.0
C1769 C 0.0347 0.19283 0.62421 0.0
C1770 C 0.02654 0.20381 0.60269 0.0
C1771 C 0.03138 0.19614 0.57934 0.0
C1772 C 0.04446 0.17751 0.57744 0.0
C1773 C 0.03487 0.06387 0.55465 0.0
C1774 C 0.04811 0.05519 0.53675 0.0
C1775 C 0.04201 0.08213 0.56843 0.0
C1776 C 0.06244 0.09194 0.56445 0.0
C1777 C 0.0751 0.08397 0.54563 0.0
C1778 C 0.06806 0.06565 0.532 0.0
C1779 C 0.07111 0.10974 0.58077 0.0
C1780 C 0.05886 0.12904 0.58262 0.0
C1781 C 0.09163 0.10783 0.59413 0.0
C1782 C 0.10467 0.0873 0.59424 0.0
C1783 C 0.1264 0.08787 0.58687 0.0
C1784 C 0.13859 0.06849 0.58667 0.0
C1785 C 0.12927 0.04844 0.59391 0.0
C1786 C 0.10776 0.04775 0.60147 0.0
C1787 C 0.0955 0.06709 0.60174 0.0
H1788 H 0.13873 0.03346 0.59371 0.0
H1789 H 0.01642 0.21824 0.60412 0.0
H1790 H 0.59296 0.3174 0.33761 0.0
H1791 H 0.57456 0.34624 0.35969 0.0
H1792 H 0.63528 0.38294 0.36727 0.0
H1793 H 0.65367 0.35446 0.34487 0.0
H1794 H 0.6159 0.37787 0.4115 0.0
H1795 H 0.5946 0.40081 0.3279 0.0
H1796 H 0.57864 0.39602 0.28527 0.0
H1797 H 0.51634 0.37935 0.31402 0.0
H1798 H 0.53201 0.38374 0.35687 0.0
H1799 H 0.57365 0.47442 0.46271 0.0
H1800 H 0.59136 0.44886 0.43566 0.0
H1801 H 0.52977 0.41468 0.42174 0.0
H1802 H 0.51185 0.44047 0.44817 0.0
H1803 H 0.54986 0.4189 0.38007 0.0
H1804 H 0.57051 0.39424 0.46305 0.0
H1805 H 0.58579 0.39787 0.50613 0.0
H1806 H 0.64841 0.41612 0.47927 0.0
H1807 H 0.63342 0.41288 0.43599 0.0
C1808 C 0.6023 0.33182 0.34351 0.0
C1809 C 0.62484 0.33352 0.33962 0.0
C1810 C 0.59177 0.34826 0.35622 0.0
C1811 C 0.60357 0.36673 0.36516 0.0
C1812 C 0.6259 0.36876 0.36069 0.0
C1813 C 0.6364 0.35241 0.34794 0.0
C1814 C 0.59297 0.38343 0.38024 0.0
C1815 C 0.60165 0.3871 0.4045 0.0
C1816 C 0.57402 0.39498 0.37135 0.0
C1817 C 0.56454 0.3924 0.3456 0.0
C1818 C 0.57754 0.39594 0.32514 0.0
C1819 C 0.56854 0.39333 0.30094 0.0
C1820 C 0.5465 0.38733 0.29694 0.0
C1821 C 0.53341 0.38398 0.31715 0.0
C1822 C 0.54234 0.38654 0.34139 0.0
C1823 C 0.56386 0.46148 0.45387 0.0
C1824 C 0.54134 0.45944 0.45771 0.0
C1825 C 0.57403 0.44682 0.43847 0.0
C1826 C 0.56196 0.42963 0.4269 0.0
C1827 C 0.53943 0.42779 0.43043 0.0
C1828 C 0.52922 0.44253 0.44564 0.0
C1829 C 0.57281 0.41339 0.41136 0.0
C1830 C 0.56416 0.40975 0.38705 0.0
C1831 C 0.59169 0.40168 0.42028 0.0
C1832 C 0.60078 0.40354 0.44628 0.0
C1833 C 0.5875 0.39918 0.46633 0.0
C1834 C 0.59611 0.40115 0.49078 0.0
C1835 C 0.61804 0.40728 0.49543 0.0
C1836 C 0.63142 0.4114 0.47563 0.0
C1837 C 0.62288 0.40949 0.45114 0.0
H1838 H 0.62468 0.40879 0.51438 0.0
H1839 H 0.53956 0.38532 0.27819 0.0
loop_
_geom_bond_atom_site_label_1
_geom_bond_atom_site_label_2
_geom_bond_distance
_geom_bond_site_symmetry_2
_ccdc_geom_bond_type
C0 C1 1.391 . S
C0 C4 1.391 . S
C0 H42 0.948 . S
C1 C0 1.391 . S
C1 C2 1.391 . S
C2 C1 1.391 . S
C2 H58 0.947 . S
C2 C59 1.392 . S
C3 C4 1.391 . S
C3 C7 1.397 . S
C3 C59 1.419 . S
C4 C0 1.391 . S
C4 C3 1.391 . S
C4 C5 1.399 . S
C5 C4 1.399 . S
C5 C8 1.396 . S
C5 C17 1.453 . S
C5 C18 1.684 . S
H6 C30 0.948 . S
C7 C3 1.397 . S
C7 C8 1.394 . S
C7 C26 1.723 . S
C8 C5 1.396 . S
C8 C7 1.394 . S
C8 C38 1.723 . S
H9 C32 0.947 . S
H10 C33 0.948 . S
H11 C39 0.982 . S
H12 C40 0.979 . S
H13 C40 0.980 . S
H14 C40 0.983 . S
H15 C39 0.979 . S
H16 C39 0.977 . S
C17 C5 1.453 . S
C17 H46 0.982 . S
C17 H47 0.979 . S
C17 H48 0.977 . S
C18 C5 1.684 . S
C18 H43 0.979 . S
C18 H44 0.980 . S
C18 H45 0.983 . S
C19 C20 1.391 . S
C19 C24 1.391 . S
C19 H49 0.948 . S
C20 C19 1.391 . S
C20 C21 1.391 . S
C21 C20 1.391 . S
C21 C22 1.392 . S
C21 H50 0.947 . S
C22 C21 1.392 . S
C22 C23 1.419 . S
C22 H51 0.948 . S
C23 C22 1.419 . S
C23 C24 1.391 . S
C23 C27 1.397 . S
C24 C19 1.391 . S
C24 C23 1.391 . S
C24 C25 1.399 . S
C25 C24 1.399 . S
C25 C26 1.396 . S
C25 C28 1.453 . S
C25 C29 1.684 . S
C26 C7 1.723 . S
C26 C25 1.396 . S
C26 C27 1.394 . S
C27 C23 1.397 . S
C27 C26 1.394 . S
C27 C37 1.723 . S
C28 C25 1.453 . S
C28 H52 0.982 . S
C28 H53 0.979 . S
C28 H54 0.977 . S
C29 C25 1.684 . S
C29 H55 0.979 . S
C29 H56 0.980 . S
C29 H57 0.983 . S
C30 H6 0.948 . S
C30 C31 1.391 . S
C30 C35 1.391 . S
C31 C30 1.391 . S
C31 C32 1.391 . S
C32 H9 0.947 . S
C32 C31 1.391 . S
C32 C33 1.392 . S
C33 H10 0.948 . S
C33 C32 1.392 . S
C33 C34 1.419 . S
C34 C33 1.419 . S
C34 C35 1.391 . S
C34 C38 1.397 . S
C35 C30 1.391 . S
C35 C34 1.391 . S
C35 C36 1.399 . S
C36 C35 1.399 . S
C36 C37 1.396 . S
C36 C39 1.453 . S
C36 C40 1.684 . S
C37 C27 1.723 . S
C37 C36 1.396 . S
C37 C38 1.394 . S
C38 C8 1.723 . S
C38 C34 1.397 . S
C38 C37 1.394 . S
C39 H11 0.982 . S
C39 H15 0.979 . S
C39 H16 0.977 . S
C39 C36 1.453 . S
C40 H12 0.979 . S
C40 H13 0.980 . S
C40 H14 0.983 . S
C40 C36 1.684 . S
H41 C59 0.948 . S
H42 C0 0.948 . S
H43 C18 0.979 . S
H44 C18 0.980 . S
H45 C18 0.983 . S
H46 C17 0.982 . S
H47 C17 0.979 . S
H48 C17 0.977 . S
H49 C19 0.948 . S
H50 C21 0.947 . S
H51 C22 0.948 . S
H52 C28 0.982 . S
H53 C28 0.979 . S
H54 C28 0.977 . S
H55 C29 0.979 . S
H56 C29 0.980 . S
H57 C29 0.983 . S
H58 C2 0.947 . S
C59 C2 1.392 . S
C59 C3 1.419 . S
C59 H41 0.948 . S
C60 C61 1.391 . S
C60 C64 1.391 . S
C60 H102 0.948 . S
C61 C60 1.391 . S
C61 C62 1.391 . S
C62 C61 1.391 . S
C62 H118 0.947 . S
C62 C119 1.392 . S
C63 C64 1.391 . S
C63 C67 1.397 . S
C63 C119 1.419 . S
C64 C60 1.391 . S
C64 C63 1.391 . S
C64 C65 1.399 . S
C65 C64 1.399 . S
C65 C68 1.396 . S
C65 C77 1.453 . S
C65 C78 1.684 . S
H66 C90 0.948 . S
C67 C63 1.397 . S
C67 C68 1.394 . S
C67 C86 1.723 . S
C68 C65 1.396 . S
C68 C67 1.394 . S
C68 C98 1.723 . S
H69 C92 0.947 . S
H70 C93 0.948 . S
H71 C99 0.982 . S
H72 C100 0.979 . S
H73 C100 0.980 . S
H74 C100 0.983 . S
H75 C99 0.979 . S
H76 C99 0.977 . S
C77 C65 1.453 . S
C77 H106 0.982 . S
C77 H107 0.979 . S
C77 H108 0.977 . S
C78 C65 1.684 . S
C78 H103 0.979 . S
C78 H104 0.980 . S
C78 H105 0.983 . S
C79 C80 1.391 . S
C79 C84 1.391 . S
C79 H109 0.948 . S
C80 C79 1.391 . S
C80 C81 1.391 . S
C81 C80 1.391 . S
C81 C82 1.392 . S
C81 H110 0.947 . S
C82 C81 1.392 . S
C82 C83 1.419 . S
C82 H111 0.948 . S
C83 C82 1.419 . S
C83 C84 1.391 . S
C83 C87 1.397 . S
C84 C79 1.391 . S
C84 C83 1.391 . S
C84 C85 1.399 . S
C85 C84 1.399 . S
C85 C86 1.396 . S
C85 C88 1.453 . S
C85 C89 1.684 . S
C86 C67 1.723 . S
C86 C85 1.396 . S
C86 C87 1.394 . S
C87 C83 1.397 . S
C87 C86 1.394 . S
C87 C97 1.723 . S
C88 C85 1.453 . S
C88 H112 0.982 . S
C88 H113 0.979 . S
C88 H114 0.977 . S
C89 C85 1.684 . S
C89 H115 0.979 . S
C89 H116 0.980 . S
C89 H117 0.983 . S
C90 H66 0.948 . S
C90 C91 1.391 . S
C90 C95 1.391 . S
C91 C90 1.391 . S
C91 C92 1.391 . S
C92 H69 0.947 . S
C92 C91 1.391 . S
C92 C93 1.392 . S
C93 H70 0.948 . S
C93 C92 1.392 . S
C93 C94 1.419 . S
C94 C93 1.419 . S
C94 C95 1.391 . S
C94 C98 1.397 . S
C95 C90 1.391 . S
C95 C94 1.391 . S
C95 C96 1.399 . S
C96 C95 1.399 . S
C96 C97 1.396 . S
C96 C99 1.453 . S
C96 C100 1.684 . S
C97 C87 1.723 . S
C97 C96 1.396 . S
C97 C98 1.394 . S
C98 C68 1.723 . S
C98 C94 1.397 . S
C98 C97 1.394 . S
C99 H71 0.982 . S
C99 H75 0.979 . S
C99 H76 0.977 . S
C99 C96 1.453 . S
C100 H72 0.979 . S
C100 H73 0.980 . S
C100 H74 0.983 . S
C100 C96 1.684 . S
H101 C119 0.948 . S
H102 C60 0.948 . S
H103 C78 0.979 . S
H104 C78 0.980 . S
H105 C78 0.983 . S
H106 C77 0.982 . S
H107 C77 0.979 . S
H108 C77 0.977 . S
H109 C79 0.948 . S
H110 C81 0.947 . S
H111 C82 0.948 . S
H112 C88 0.982 . S
H113 C88 0.979 . S
H114 C88 0.977 . S
H115 C89 0.979 . S
H116 C89 0.980 . S
H117 C89 0.983 . S
H118 C62 0.947 . S
C119 C62 1.392 . S
C119 C63 1.419 . S
C119 H101 0.948 . S
C120 C121 1.391 . S
C120 C124 1.391 . S
C120 H162 0.948 . S
C121 C120 1.391 . S
C121 C122 1.391 . S
C122 C121 1.391 . S
C122 H178 0.947 . S
C122 C179 1.392 . S
C123 C124 1.391 . S
C123 C127 1.397 . S
C123 C179 1.419 . S
C124 C120 1.391 . S
C124 C123 1.391 . S
C124 C125 1.399 . S
C125 C124 1.399 . S
C125 C128 1.396 . S
C125 C137 1.453 . S
C125 C138 1.684 . S
H126 C150 0.948 . S
C127 C123 1.397 . S
C127 C128 1.394 . S
C127 C146 1.723 . S
C128 C125 1.396 . S
C128 C127 1.394 . S
C128 C158 1.723 . S
H129 C152 0.947 . S
H130 C153 0.948 . S
H131 C159 0.982 . S
H132 C160 0.979 . S
H133 C160 0.980 . S
H134 C160 0.983 . S
H135 C159 0.979 . S
H136 C159 0.977 . S
C137 C125 1.453 . S
C137 H166 0.982 . S
C137 H167 0.979 . S
C137 H168 0.977 . S
C138 C125 1.684 . S
C138 H163 0.979 . S
C138 H164 0.980 . S
C138 H165 0.983 . S
C139 C140 1.391 . S
C139 C144 1.391 . S
C139 H169 0.948 . S
C140 C139 1.391 . S
C140 C141 1.391 . S
C141 C140 1.391 . S
C141 C142 1.392 . S
C141 H170 0.947 . S
C142 C141 1.392 . S
C142 C143 1.419 . S
C142 H171 0.948 . S
C143 C142 1.419 . S
C143 C144 1.391 . S
C143 C147 1.397 . S
C144 C139 1.391 . S
C144 C143 1.391 . S
C144 C145 1.399 . S
C145 C144 1.399 . S
C145 C146 1.396 . S
C145 C148 1.453 . S
C145 C149 1.684 . S
C146 C127 1.723 . S
C146 C145 1.396 . S
C146 C147 1.394 . S
C147 C143 1.397 . S
C147 C146 1.394 . S
C147 C157 1.723 . S
C148 C145 1.453 . S
C148 H172 0.982 . S
C148 H173 0.979 . S
C148 H174 0.977 . S
C149 C145 1.684 . S
C149 H175 0.979 . S
C149 H176 0.980 . S
C149 H177 0.983 . S
C150 H126 0.948 . S
C150 C151 1.391 . S
C150 C155 1.391 . S
C151 C150 1.391 . S
C151 C152 1.391 . S
C152 H129 0.947 . S
C152 C151 1.391 . S
C152 C153 1.392 . S
C153 H130 0.948 . S
C153 C152 1.392 . S
C153 C154 1.419 . S
C154 C153 1.419 . S
C154 C155 1.391 . S
C154 C158 1.397 . S
C155 C150 1.391 . S
C155 C154 1.391 . S
C155 C156 1.399 . S
C156 C155 1.399 . S
C156 C157 1.396 . S
C156 C159 1.453 . S
C156 C160 1.684 . S
C157 C147 1.723 . S
C157 C156 1.396 . S
C157 C158 1.394 . S
C158 C128 1.723 . S
C158 C154 1.397 . S
C158 C157 1.394 . S
C159 H131 0.982 . S
C159 H135 0.979 . S
C159 H136 0.977 . S
C159 C156 1.453 . S
C160 H132 0.979 . S
C160 H133 0.980 . S
C160 H134 0.983 . S
C160 C156 1.684 . S
H161 C179 0.948 . S
H162 C120 0.948 . S
H163 C138 0.979 . S
H164 C138 0.980 . S
H165 C138 0.983 . S
H166 C137 0.982 . S
H167 C137 0.979 . S
H168 C137 0.977 . S
H169 C139 0.948 . S
H170 C141 0.947 . S
H171 C142 0.948 . S
H172 C148 0.982 . S
H173 C148 0.979 . S
H174 C148 0.977 . S
H175 C149 0.979 . S
H176 C149 0.980 . S
H177 C149 0.983 . S
H178 C122 0.947 . S
C179 C122 1.392 . S
C179 C123 1.419 . S
C179 H161 0.948 . S
C180 C181 1.391 . S
C180 C184 1.391 . S
C180 H222 0.948 . S
C181 C180 1.391 . S
C181 C182 1.391 . S
C182 C181 1.391 . S
C182 H238 0.947 . S
C182 C239 1.392 . S
C183 C184 1.391 . S
C183 C187 1.397 . S
C183 C239 1.419 . S
C184 C180 1.391 . S
C184 C183 1.391 . S
C184 C185 1.399 . S
C185 C184 1.399 . S
C185 C188 1.396 . S
C185 C197 1.453 . S
C185 C198 1.684 . S
H186 C210 0.948 . S
C187 C183 1.397 . S
C187 C188 1.394 . S
C187 C206 1.723 . S
C188 C185 1.396 . S
C188 C187 1.394 . S
C188 C218 1.723 . S
H189 C212 0.947 . S
H190 C213 0.948 . S
H191 C219 0.982 . S
H192 C220 0.979 . S
H193 C220 0.980 . S
H194 C220 0.983 . S
H195 C219 0.979 . S
H196 C219 0.977 . S
C197 C185 1.453 . S
C197 H226 0.982 . S
C197 H227 0.979 . S
C197 H228 0.977 . S
C198 C185 1.684 . S
C198 H223 0.979 . S
C198 H224 0.980 . S
C198 H225 0.983 . S
C199 C200 1.391 . S
C199 C204 1.391 . S
C199 H229 0.948 . S
C200 C199 1.391 . S
C200 C201 1.391 . S
C201 C200 1.391 . S
C201 C202 1.392 . S
C201 H230 0.947 . S
C202 C201 1.392 . S
C202 C203 1.419 . S
C202 H231 0.948 . S
C203 C202 1.419 . S
C203 C204 1.391 . S
C203 C207 1.397 . S
C204 C199 1.391 . S
C204 C203 1.391 . S
C204 C205 1.399 . S
C205 C204 1.399 . S
C205 C206 1.396 . S
C205 C208 1.453 . S
C205 C209 1.684 . S
C206 C187 1.723 . S
C206 C205 1.396 . S
C206 C207 1.394 . S
C207 C203 1.397 . S
C207 C206 1.394 . S
C207 C217 1.723 . S
C208 C205 1.453 . S
C208 H232 0.982 . S
C208 H233 0.979 . S
C208 H234 0.977 . S
C209 C205 1.684 . S
C209 H235 0.979 . S
C209 H236 0.980 . S
C209 H237 0.983 . S
C210 H186 0.948 . S
C210 C211 1.391 . S
C210 C215 1.391 . S
C211 C210 1.391 . S
C211 C212 1.391 . S
C212 H189 0.947 . S
C212 C211 1.391 . S
C212 C213 1.392 . S
C213 H190 0.948 . S
C213 C212 1.392 . S
C213 C214 1.419 . S
C214 C213 1.419 . S
C214 C215 1.391 . S
C214 C218 1.397 . S
C215 C210 1.391 . S
C215 C214 1.391 . S
C215 C216 1.399 . S
C216 C215 1.399 . S
C216 C217 1.396 . S
C216 C219 1.453 . S
C216 C220 1.684 . S
C217 C207 1.723 . S
C217 C216 1.396 . S
C217 C218 1.394 . S
C218 C188 1.723 . S
C218 C214 1.397 . S
C218 C217 1.394 . S
C219 H191 0.982 . S
C219 H195 0.979 . S
C219 H196 0.977 . S
C219 C216 1.453 . S
C220 H192 0.979 . S
C220 H193 0.980 . S
C220 H194 0.983 . S
C220 C216 1.684 . S
H221 C239 0.948 . S
H222 C180 0.948 . S
H223 C198 0.979 . S
H224 C198 0.980 . S
H225 C198 0.983 . S
H226 C197 0.982 . S
H227 C197 0.979 . S
H228 C197 0.977 . S
H229 C199 0.948 . S
H230 C201 0.947 . S
H231 C202 0.948 . S
H232 C208 0.982 . S
H233 C208 0.979 . S
H234 C208 0.977 . S
H235 C209 0.979 . S
H236 C209 0.980 . S
H237 C209 0.983 . S
H238 C182 0.947 . S
C239 C182 1.392 . S
C239 C183 1.419 . S
C239 H221 0.948 . S
C240 C241 1.391 . S
C240 C244 1.391 . S
C240 H282 0.948 . S
C241 C240 1.391 . S
C241 C242 1.391 . S
C242 C241 1.391 . S
C242 H298 0.947 . S
C242 C299 1.392 . S
C243 C244 1.391 . S
C243 C247 1.397 . S
C243 C299 1.419 . S
C244 C240 1.391 . S
C244 C243 1.391 . S
C244 C245 1.399 . S
C245 C244 1.399 . S
C245 C248 1.396 . S
C245 C257 1.453 . S
C245 C258 1.684 . S
H246 C270 0.948 . S
C247 C243 1.397 . S
C247 C248 1.394 . S
C247 C266 1.723 . S
C248 C245 1.396 . S
C248 C247 1.394 . S
C248 C278 1.723 . S
H249 C272 0.947 . S
H250 C273 0.948 . S
H251 C279 0.982 . S
H252 C280 0.979 . S
H253 C280 0.980 . S
H254 C280 0.983 . S
H255 C279 0.979 . S
H256 C279 0.977 . S
C257 C245 1.453 . S
C257 H286 0.982 . S
C257 H287 0.979 . S
C257 H288 0.977 . S
C258 C245 1.684 . S
C258 H283 0.979 . S
C258 H284 0.980 . S
C258 H285 0.983 . S
C259 C260 1.391 . S
C259 C264 1.391 . S
C259 H289 0.948 . S
C260 C259 1.391 . S
C260 C261 1.391 . S
C261 C260 1.391 . S
C261 C262 1.392 . S
C261 H290 0.947 . S
C262 C261 1.392 . S
C262 C263 1.419 . S
C262 H291 0.948 . S
C263 C262 1.419 . S
C263 C264 1.391 . S
C263 C267 1.397 . S
C264 C259 1.391 . S
C264 C263 1.391 . S
C264 C265 1.399 . S
C265 C264 1.399 . S
C265 C266 1.396 . S
C265 C268 1.453 . S
C265 C269 1.684 . S
C266 C247 1.723 . S
C266 C265 1.396 . S
C266 C267 1.394 . S
C267 C263 1.397 . S
C267 C266 1.394 . S
C267 C277 1.723 . S
C268 C265 1.453 . S
C268 H292 0.982 . S
C268 H293 0.979 . S
C268 H294 0.977 . S
C269 C265 1.684 . S
C269 H295 0.979 . S
C269 H296 0.980 . S
C269 H297 0.983 . S
C270 H246 0.948 . S
C270 C271 1.391 . S
C270 C275 1.391 . S
C271 C270 1.391 . S
C271 C272 1.391 . S
C272 H249 0.947 . S
C272 C271 1.391 . S
C272 C273 1.392 . S
C273 H250 0.948 . S
C273 C272 1.392 . S
C273 C274 1.419 . S
C274 C273 1.419 . S
C274 C275 1.391 . S
C274 C278 1.397 . S
C275 C270 1.391 . S
C275 C274 1.391 . S
C275 C276 1.399 . S
C276 C275 1.399 . S
C276 C277 1.396 . S
C276 C279 1.453 . S
C276 C280 1.684 . S
C277 C267 1.723 . S
C277 C276 1.396 . S
C277 C278 1.394 . S
C278 C248 1.723 . S
C278 C274 1.397 . S
C278 C277 1.394 . S
C279 H251 0.982 . S
C279 H255 0.979 . S
C279 H256 0.977 . S
C279 C276 1.453 . S
C280 H252 0.979 . S
C280 H253 0.980 . S
C280 H254 0.983 . S
C280 C276 1.684 . S
H281 C299 0.948 . S
H282 C240 0.948 . S
H283 C258 0.979 . S
H284 C258 0.980 . S
H285 C258 0.983 . S
H286 C257 0.982 . S
H287 C257 0.979 . S
H288 C257 0.977 . S
H289 C259 0.948 . S
H290 C261 0.947 . S
H291 C262 0.948 . S
H292 C268 0.982 . S
H293 C268 0.979 . S
H294 C268 0.977 . S
H295 C269 0.979 . S
H296 C269 0.980 . S
H297 C269 0.983 . S
H298 C242 0.947 . S
C299 C242 1.392 . S
C299 C243 1.419 . S
C299 H281 0.948 . S
C300 C301 1.391 . S
C300 C304 1.391 . S
C300 H342 0.948 . S
C301 C300 1.391 . S
C301 C302 1.391 . S
C302 C301 1.391 . S
C302 H358 0.947 . S
C302 C359 1.392 . S
C303 C304 1.391 . S
C303 C307 1.397 . S
C303 C359 1.419 . S
C304 C300 1.391 . S
C304 C303 1.391 . S
C304 C305 1.399 . S
C305 C304 1.399 . S
C305 C308 1.396 . S
C305 C317 1.453 . S
C305 C318 1.684 . S
H306 C330 0.948 . S
C307 C303 1.397 . S
C307 C308 1.394 . S
C307 C326 1.723 . S
C308 C305 1.396 . S
C308 C307 1.394 . S
C308 C338 1.723 . S
H309 C332 0.947 . S
H310 C333 0.948 . S
H311 C339 0.982 . S
H312 C340 0.979 . S
H313 C340 0.980 . S
H314 C340 0.983 . S
H315 C339 0.979 . S
H316 C339 0.977 . S
C317 C305 1.453 . S
C317 H346 0.982 . S
C317 H347 0.979 . S
C317 H348 0.977 . S
C318 C305 1.684 . S
C318 H343 0.979 . S
C318 H344 0.980 . S
C318 H345 0.983 . S
C319 C320 1.391 . S
C319 C324 1.391 . S
C319 H349 0.948 . S
C320 C319 1.391 . S
C320 C321 1.391 . S
C321 C320 1.391 . S
C321 C322 1.392 . S
C321 H350 0.947 . S
C322 C321 1.392 . S
C322 C323 1.419 . S
C322 H351 0.948 . S
C323 C322 1.419 . S
C323 C324 1.391 . S
C323 C327 1.397 . S
C324 C319 1.391 . S
C324 C323 1.391 . S
C324 C325 1.399 . S
C325 C324 1.399 . S
C325 C326 1.396 . S
C325 C328 1.453 . S
C325 C329 1.684 . S
C326 C307 1.723 . S
C326 C325 1.396 . S
C326 C327 1.394 . S
C327 C323 1.397 . S
C327 C326 1.394 . S
C327 C337 1.723 . S
C328 C325 1.453 . S
C328 H352 0.982 . S
C328 H353 0.979 . S
C328 H354 0.977 . S
C329 C325 1.684 . S
C329 H355 0.979 . S
C329 H356 0.980 . S
C329 H357 0.983 . S
C330 H306 0.948 . S
C330 C331 1.391 . S
C330 C335 1.391 . S
C331 C330 1.391 . S
C331 C332 1.391 . S
C332 H309 0.947 . S
C332 C331 1.391 . S
C332 C333 1.392 . S
C333 H310 0.948 . S
C333 C332 1.392 . S
C333 C334 1.419 . S
C334 C333 1.419 . S
C334 C335 1.391 . S
C334 C338 1.397 . S
C335 C330 1.391 . S
C335 C334 1.391 . S
C335 C336 1.399 . S
C336 C335 1.399 . S
C336 C337 1.396 . S
C336 C339 1.453 . S
C336 C340 1.684 . S
C337 C327 1.723 . S
C337 C336 1.396 . S
C337 C338 1.394 . S
C338 C308 1.723 . S
C338 C334 1.397 . S
C338 C337 1.394 . S
C339 H311 0.982 . S
C339 H315 0.979 . S
C339 H316 0.977 . S
C339 C336 1.453 . S
C340 H312 0.979 . S
C340 H313 0.980 . S
C340 H314 0.983 . S
C340 C336 1.684 . S
H341 C359 0.948 . S
H342 C300 0.948 . S
H343 C318 0.979 . S
H344 C318 0.980 . S
H345 C318 0.983 . S
H346 C317 0.982 . S
H347 C317 0.979 . S
H348 C317 0.977 . S
H349 C319 0.948 . S
H350 C321 0.947 . S
H351 C322 0.948 . S
H352 C328 0.982 . S
H353 C328 0.979 . S
H354 C328 0.977 . S
H355 C329 0.979 . S
H356 C329 0.980 . S
H357 C329 0.983 . S
H358 C302 0.947 . S
C359 C302 1.392 . S
C359 C303 1.419 . S
C359 H341 0.948 . S
C360 C361 1.391 . S
C360 C364 1.391 . S
C360 H402 0.948 . S
C361 C360 1.391 . S
C361 C362 1.391 . S
C362 C361 1.391 . S
C362 H418 0.947 . S
C362 C419 1.392 . S
C363 C364 1.391 . S
C363 C367 1.397 . S
C363 C419 1.419 . S
C364 C360 1.391 . S
C364 C363 1.391 . S
C364 C365 1.399 . S
C365 C364 1.399 . S
C365 C368 1.396 . S
C365 C377 1.453 . S
C365 C378 1.684 . S
H366 C390 0.948 . S
C367 C363 1.397 . S
C367 C368 1.394 . S
C367 C386 1.723 . S
C368 C365 1.396 . S
C368 C367 1.394 . S
C368 C398 1.723 . S
H369 C392 0.947 . S
H370 C393 0.948 . S
H371 C399 0.982 . S
H372 C400 0.979 . S
H373 C400 0.980 . S
H374 C400 0.983 . S
H375 C399 0.979 . S
H376 C399 0.977 . S
C377 C365 1.453 . S
C377 H406 0.982 . S
C377 H407 0.979 . S
C377 H408 0.977 . S
C378 C365 1.684 . S
C378 H403 0.979 . S
C378 H404 0.980 . S
C378 H405 0.983 . S
C379 C380 1.391 . S
C379 C384 1.391 . S
C379 H409 0.948 . S
C380 C379 1.391 . S
C380 C381 1.391 . S
C381 C380 1.391 . S
C381 C382 1.392 . S
C381 H410 0.947 . S
C382 C381 1.392 . S
C382 C383 1.419 . S
C382 H411 0.948 . S
C383 C382 1.419 . S
C383 C384 1.391 . S
C383 C387 1.397 . S
C384 C379 1.391 . S
C384 C383 1.391 . S
C384 C385 1.399 . S
C385 C384 1.399 . S
C385 C386 1.396 . S
C385 C388 1.453 . S
C385 C389 1.684 . S
C386 C367 1.723 . S
C386 C385 1.396 . S
C386 C387 1.394 . S
C387 C383 1.397 . S
C387 C386 1.394 . S
C387 C397 1.723 . S
C388 C385 1.453 . S
C388 H412 0.982 . S
C388 H413 0.979 . S
C388 H414 0.977 . S
C389 C385 1.684 . S
C389 H415 0.979 . S
C389 H416 0.980 . S
C389 H417 0.983 . S
C390 H366 0.948 . S
C390 C391 1.391 . S
C390 C395 1.391 . S
C391 C390 1.391 . S
C391 C392 1.391 . S
C392 H369 0.947 . S
C392 C391 1.391 . S
C392 C393 1.392 . S
C393 H370 0.948 . S
C393 C392 1.392 . S
C393 C394 1.419 . S
C394 C393 1.419 . S
C394 C395 1.391 . S
C394 C398 1.397 . S
C395 C390 1.391 . S
C395 C394 1.391 . S
C395 C396 1.399 . S
C396 C395 1.399 . S
C396 C397 1.396 . S
C396 C399 1.453 . S
C396 C400 1.684 . S
C397 C387 1.723 . S
C397 C396 1.396 . S
C397 C398 1.394 . S
C398 C368 1.723 . S
C398 C394 1.397 . S
C398 C397 1.394 . S
C399 H371 0.982 . S
C399 H375 0.979 . S
C399 H376 0.977 . S
C399 C396 1.453 . S
C400 H372 0.979 . S
C400 H373 0.980 . S
C400 H374 0.983 . S
C400 C396 1.684 . S
H401 C419 0.948 . S
H402 C360 0.948 . S
H403 C378 0.979 . S
H404 C378 0.980 . S
H405 C378 0.983 . S
H406 C377 0.982 . S
H407 C377 0.979 . S
H408 C377 0.977 . S
H409 C379 0.948 . S
H410 C381 0.947 . S
H411 C382 0.948 . S
H412 C388 0.982 . S
H413 C388 0.979 . S
H414 C388 0.977 . S
H415 C389 0.979 . S
H416 C389 0.980 . S
H417 C389 0.983 . S
H418 C362 0.947 . S
C419 C362 1.392 . S
C419 C363 1.419 . S
C419 H401 0.948 . S
C420 C421 1.391 . S
C420 C424 1.391 . S
C420 H462 0.948 . S
C421 C420 1.391 . S
C421 C422 1.391 . S
C422 C421 1.391 . S
C422 H478 0.947 . S
C422 C479 1.392 . S
C423 C424 1.391 . S
C423 C427 1.397 . S
C423 C479 1.419 . S
C424 C420 1.391 . S
C424 C423 1.391 . S
C424 C425 1.399 . S
C425 C424 1.399 . S
C425 C428 1.396 . S
C425 C437 1.453 . S
C425 C438 1.684 . S
H426 C450 0.948 . S
C427 C423 1.397 . S
C427 C428 1.394 . S
C427 C446 1.723 . S
C428 C425 1.396 . S
C428 C427 1.394 . S
C428 C458 1.723 . S
H429 C452 0.947 . S
H430 C453 0.948 . S
H431 C459 0.982 . S
H432 C460 0.979 . S
H433 C460 0.980 . S
H434 C460 0.983 . S
H435 C459 0.979 . S
H436 C459 0.977 . S
C437 C425 1.453 . S
C437 H466 0.982 . S
C437 H467 0.979 . S
C437 H468 0.977 . S
C438 C425 1.684 . S
C438 H463 0.979 . S
C438 H464 0.980 . S
C438 H465 0.983 . S
C439 C440 1.391 . S
C439 C444 1.391 . S
C439 H469 0.948 . S
C440 C439 1.391 . S
C440 C441 1.391 . S
C441 C440 1.391 . S
C441 C442 1.392 . S
C441 H470 0.947 . S
C442 C441 1.392 . S
C442 C443 1.419 . S
C442 H471 0.948 . S
C443 C442 1.419 . S
C443 C444 1.391 . S
C443 C447 1.397 . S
C444 C439 1.391 . S
C444 C443 1.391 . S
C444 C445 1.399 . S
C445 C444 1.399 . S
C445 C446 1.396 . S
C445 C448 1.453 . S
C445 C449 1.684 . S
C446 C427 1.723 . S
C446 C445 1.396 . S
C446 C447 1.394 . S
C447 C443 1.397 . S
C447 C446 1.394 . S
C447 C457 1.723 . S
C448 C445 1.453 . S
C448 H472 0.982 . S
C448 H473 0.979 . S
C448 H474 0.977 . S
C449 C445 1.684 . S
C449 H475 0.979 . S
C449 H476 0.980 . S
C449 H477 0.983 . S
C450 H426 0.948 . S
C450 C451 1.391 . S
C450 C455 1.391 . S
C451 C450 1.391 . S
C451 C452 1.391 . S
C452 H429 0.947 . S
C452 C451 1.391 . S
C452 C453 1.392 . S
C453 H430 0.948 . S
C453 C452 1.392 . S
C453 C454 1.419 . S
C454 C453 1.419 . S
C454 C455 1.391 . S
C454 C458 1.397 . S
C455 C450 1.391 . S
C455 C454 1.391 . S
C455 C456 1.399 . S
C456 C455 1.399 . S
C456 C457 1.396 . S
C456 C459 1.453 . S
C456 C460 1.684 . S
C457 C447 1.723 . S
C457 C456 1.396 . S
C457 C458 1.394 . S
C458 C428 1.723 . S
C458 C454 1.397 . S
C458 C457 1.394 . S
C459 H431 0.982 . S
C459 H435 0.979 . S
C459 H436 0.977 . S
C459 C456 1.453 . S
C460 H432 0.979 . S
C460 H433 0.980 . S
C460 H434 0.983 . S
C460 C456 1.684 . S
H461 C479 0.948 . S
H462 C420 0.948 . S
H463 C438 0.979 . S
H464 C438 0.980 . S
H465 C438 0.983 . S
H466 C437 0.982 . S
H467 C437 0.979 . S
H468 C437 0.977 . S
H469 C439 0.948 . S
H470 C441 0.947 . S
H471 C442 0.948 . S
H472 C448 0.982 . S
H473 C448 0.979 . S
H474 C448 0.977 . S
H475 C449 0.979 . S
H476 C449 0.980 . S
H477 C449 0.983 . S
H478 C422 0.947 . S
C479 C422 1.392 . S
C479 C423 1.419 . S
C479 H461 0.948 . S
Nd480 C482 2.836 . S
Nd480 O500 2.500 . S
Nd480 O501 2.492 . S
Nd480 O502 2.487 1_565 S
Nd480 O503 2.682 1_565 S
Nd480 O504 2.410 . S
Nd480 O509 2.414 1_455 S
Nd480 O511 2.424 1_565 S
Nd481 C491 2.836 . S
Nd481 O503 2.414 1_655 S
Nd481 O505 2.424 1_545 S
Nd481 O506 2.500 . S
Nd481 O507 2.492 . S
Nd481 O508 2.487 1_545 S
Nd481 O509 2.682 1_545 S
Nd481 O510 2.410 . S
C482 Nd480 2.836 . S
C482 C483 1.498 . S
C482 O500 1.258 . S
C482 O501 1.239 . S
C483 C482 1.498 . S
C483 C484 1.366 . S
C483 C488 1.407 . S
C484 C483 1.366 . S
C484 C485 1.392 . S
C484 H512 0.930 . S
C485 C484 1.392 . S
C485 C486 1.398 . S
C485 H513 0.929 . S
C486 C485 1.398 . S
C486 C487 1.352 . S
C487 C486 1.352 . S
C487 C488 1.384 . S
C487 H514 0.930 . S
C488 C483 1.407 . S
C488 C487 1.384 . S
C488 H515 0.929 . S
C489 O502 1.241 . S
C489 O503 1.273 . S
C490 O504 1.251 1_655 S
C490 O505 1.268 . S
C491 Nd481 2.836 . S
C491 C492 1.498 . S
C491 O506 1.258 . S
C491 O507 1.239 . S
C492 C491 1.498 . S
C492 C493 1.366 . S
C492 C497 1.407 . S
C493 C492 1.366 . S
C493 C494 1.392 . S
C493 H516 0.930 . S
C494 C493 1.392 . S
C494 C495 1.398 . S
C494 H517 0.929 . S
C495 C494 1.398 . S
C495 C496 1.352 . S
C496 C495 1.352 . S
C496 C497 1.384 . S
C496 H518 0.930 . S
C497 C492 1.407 . S
C497 C496 1.384 . S
C497 H519 0.929 . S
C498 O508 1.241 . S
C498 O509 1.273 . S
C499 O510 1.251 1_455 S
C499 O511 1.268 . S
O500 Nd480 2.500 . S
O500 C482 1.258 . S
O501 Nd480 2.492 . S
O501 C482 1.239 . S
O502 Nd480 2.487 1_545 S
O502 C489 1.241 . S
O503 Nd480 2.682 1_545 S
O503 Nd481 2.414 1_455 S
O503 C489 1.273 . S
O504 Nd480 2.410 . S
O504 C490 1.251 1_455 S
O505 Nd481 2.424 1_565 S
O505 C490 1.268 . S
O506 Nd481 2.500 . S
O506 C491 1.258 . S
O507 Nd481 2.492 . S
O507 C491 1.239 . S
O508 Nd481 2.487 1_565 S
O508 C498 1.241 . S
O509 Nd480 2.414 1_655 S
O509 Nd481 2.682 1_565 S
O509 C498 1.273 . S
O510 Nd481 2.410 . S
O510 C499 1.251 1_655 S
O511 Nd480 2.424 1_545 S
O511 C499 1.268 . S
H512 C484 0.930 . S
H513 C485 0.929 . S
H514 C487 0.930 . S
H515 C488 0.929 . S
H516 C493 0.930 . S
H517 C494 0.929 . S
H518 C496 0.930 . S
H519 C497 0.929 . S
Nd520 C522 2.836 . S
Nd520 O540 2.500 . S
Nd520 O541 2.492 . S
Nd520 O542 2.487 1_565 S
Nd520 O543 2.682 1_565 S
Nd520 O544 2.410 1_554 S
Nd520 O549 2.414 1_554 S
Nd520 O551 2.424 1_565 S
Nd521 C531 2.836 . S
Nd521 O543 2.414 1_556 S
Nd521 O545 2.424 1_545 S
Nd521 O546 2.500 . S
Nd521 O547 2.492 . S
Nd521 O548 2.487 1_545 S
Nd521 O549 2.682 1_545 S
Nd521 O550 2.410 1_556 S
C522 Nd520 2.836 . S
C522 C523 1.498 . S
C522 O540 1.258 . S
C522 O541 1.239 . S
C523 C522 1.498 . S
C523 C524 1.366 . S
C523 C528 1.407 . S
C524 C523 1.366 . S
C524 C525 1.392 . S
C524 H552 0.930 . S
C525 C524 1.392 . S
C525 C526 1.398 . S
C525 H553 0.929 . S
C526 C525 1.398 . S
C526 C527 1.352 . S
C527 C526 1.352 . S
C527 C528 1.384 . S
C527 H554 0.930 . S
C528 C523 1.407 . S
C528 C527 1.384 . S
C528 H555 0.929 . S
C529 O542 1.241 . S
C529 O543 1.273 . S
C530 O544 1.251 . S
C530 O545 1.268 . S
C531 Nd521 2.836 . S
C531 C532 1.498 . S
C531 O546 1.258 . S
C531 O547 1.239 . S
C532 C531 1.498 . S
C532 C533 1.366 . S
C532 C537 1.407 . S
C533 C532 1.366 . S
C533 C534 1.392 . S
C533 H556 0.930 . S
C534 C533 1.392 . S
C534 C535 1.398 . S
C534 H557 0.929 . S
C535 C534 1.398 . S
C535 C536 1.352 . S
C536 C535 1.352 . S
C536 C537 1.384 . S
C536 H558 0.930 . S
C537 C532 1.407 . S
C537 C536 1.384 . S
C537 H559 0.929 . S
C538 O548 1.241 . S
C538 O549 1.273 . S
C539 O550 1.251 . S
C539 O551 1.268 . S
O540 Nd520 2.500 . S
O540 C522 1.258 . S
O541 Nd520 2.492 . S
O541 C522 1.239 . S
O542 Nd520 2.487 1_545 S
O542 C529 1.241 . S
O543 Nd520 2.682 1_545 S
O543 Nd521 2.414 1_554 S
O543 C529 1.273 . S
O544 Nd520 2.410 1_556 S
O544 C530 1.251 . S
O545 Nd521 2.424 1_565 S
O545 C530 1.268 . S
O546 Nd521 2.500 . S
O546 C531 1.258 . S
O547 Nd521 2.492 . S
O547 C531 1.239 . S
O548 Nd521 2.487 1_565 S
O548 C538 1.241 . S
O549 Nd520 2.414 1_556 S
O549 Nd521 2.682 1_565 S
O549 C538 1.273 . S
O550 Nd521 2.410 1_554 S
O550 C539 1.251 . S
O551 Nd520 2.424 1_545 S
O551 C539 1.268 . S
H552 C524 0.930 . S
H553 C525 0.929 . S
H554 C527 0.930 . S
H555 C528 0.929 . S
H556 C533 0.930 . S
H557 C534 0.929 . S
H558 C536 0.930 . S
H559 C537 0.929 . S
Nd560 C562 2.836 . S
Nd560 O580 2.500 . S
Nd560 O581 2.492 . S
Nd560 O582 2.487 . S
Nd560 O583 2.682 . S
Nd560 O584 2.410 . S
Nd560 O589 2.414 . S
Nd560 O591 2.424 . S
Nd561 C571 2.836 . S
Nd561 O583 2.414 . S
Nd561 O585 2.424 . S
Nd561 O586 2.500 . S
Nd561 O587 2.492 . S
Nd561 O588 2.487 . S
Nd561 O589 2.682 . S
Nd561 O590 2.410 . S
C562 Nd560 2.836 . S
C562 C563 1.498 . S
C562 O580 1.258 . S
C562 O581 1.239 . S
C563 C562 1.498 . S
C563 C564 1.366 . S
C563 C568 1.407 . S
C564 C563 1.366 . S
C564 C565 1.392 . S
C564 H592 0.930 . S
C565 C564 1.392 . S
C565 C566 1.398 . S
C565 H593 0.929 . S
C566 C565 1.398 . S
C566 C567 1.352 . S
C567 C566 1.352 . S
C567 C568 1.384 . S
C567 H594 0.930 . S
C568 C563 1.407 . S
C568 C567 1.384 . S
C568 H595 0.929 . S
C569 O582 1.241 . S
C569 O583 1.273 . S
C570 O584 1.251 . S
C570 O585 1.268 . S
C571 Nd561 2.836 . S
C571 C572 1.498 . S
C571 O586 1.258 . S
C571 O587 1.239 . S
C572 C571 1.498 . S
C572 C573 1.366 . S
C572 C577 1.407 . S
C573 C572 1.366 . S
C573 C574 1.392 . S
C573 H596 0.930 . S
C574 C573 1.392 . S
C574 C575 1.398 . S
C574 H597 0.929 . S
C575 C574 1.398 . S
C575 C576 1.352 . S
C576 C575 1.352 . S
C576 C577 1.384 . S
C576 H598 0.930 . S
C577 C572 1.407 . S
C577 C576 1.384 . S
C577 H599 0.929 . S
C578 O588 1.241 . S
C578 O589 1.273 . S
C579 O590 1.251 . S
C579 O591 1.268 . S
O580 Nd560 2.500 . S
O580 C562 1.258 . S
O581 Nd560 2.492 . S
O581 C562 1.239 . S
O582 Nd560 2.487 . S
O582 C569 1.241 . S
O583 Nd560 2.682 . S
O583 Nd561 2.414 . S
O583 C569 1.273 . S
O584 Nd560 2.410 . S
O584 C570 1.251 . S
O585 Nd561 2.424 . S
O585 C570 1.268 . S
O586 Nd561 2.500 . S
O586 C571 1.258 . S
O587 Nd561 2.492 . S
O587 C571 1.239 . S
O588 Nd561 2.487 . S
O588 C578 1.241 . S
O589 Nd560 2.414 . S
O589 Nd561 2.682 . S
O589 C578 1.273 . S
O590 Nd561 2.410 . S
O590 C579 1.251 . S
O591 Nd560 2.424 . S
O591 C579 1.268 . S
H592 C564 0.930 . S
H593 C565 0.929 . S
H594 C567 0.930 . S
H595 C568 0.929 . S
H596 C573 0.930 . S
H597 C574 0.929 . S
H598 C576 0.930 . S
H599 C577 0.929 . S
Nd600 C602 2.836 . S
Nd600 O620 2.500 . S
Nd600 O621 2.492 . S
Nd600 O622 2.487 1_655 S
Nd600 O623 2.682 1_655 S
Nd600 O624 2.410 . S
Nd600 O629 2.414 1_554 S
Nd600 O631 2.424 1_655 S
Nd601 C611 2.836 . S
Nd601 O623 2.414 1_556 S
Nd601 O625 2.424 1_455 S
Nd601 O626 2.500 . S
Nd601 O627 2.492 . S
Nd601 O628 2.487 1_455 S
Nd601 O629 2.682 1_455 S
Nd601 O630 2.410 . S
C602 Nd600 2.836 . S
C602 C603 1.498 . S
C602 O620 1.258 . S
C602 O621 1.239 . S
C603 C602 1.498 . S
C603 C604 1.366 . S
C603 C608 1.407 . S
C604 C603 1.366 . S
C604 C605 1.392 . S
C604 H632 0.930 . S
C605 C604 1.392 . S
C605 C606 1.398 . S
C605 H633 0.929 . S
C606 C605 1.398 . S
C606 C607 1.352 . S
C607 C606 1.352 . S
C607 C608 1.384 . S
C607 H634 0.930 . S
C608 C603 1.407 . S
C608 C607 1.384 . S
C608 H635 0.929 . S
C609 O622 1.241 . S
C609 O623 1.273 . S
C610 O624 1.251 1_556 S
C610 O625 1.268 . S
C611 Nd601 2.836 . S
C611 C612 1.498 . S
C611 O626 1.258 . S
C611 O627 1.239 . S
C612 C611 1.498 . S
C612 C613 1.366 . S
C612 C617 1.407 . S
C613 C612 1.366 . S
C613 C614 1.392 . S
C613 H636 0.930 . S
C614 C613 1.392 . S
C614 C615 1.398 . S
C614 H637 0.929 . S
C615 C614 1.398 . S
C615 C616 1.352 . S
C616 C615 1.352 . S
C616 C617 1.384 . S
C616 H638 0.930 . S
C617 C612 1.407 . S
C617 C616 1.384 . S
C617 H639 0.929 . S
C618 O628 1.241 . S
C618 O629 1.273 . S
C619 O630 1.251 1_554 S
C619 O631 1.268 . S
O620 Nd600 2.500 . S
O620 C602 1.258 . S
O621 Nd600 2.492 . S
O621 C602 1.239 . S
O622 Nd600 2.487 1_455 S
O622 C609 1.241 . S
O623 Nd600 2.682 1_455 S
O623 Nd601 2.414 1_554 S
O623 C609 1.273 . S
O624 Nd600 2.410 . S
O624 C610 1.251 1_554 S
O625 Nd601 2.424 1_655 S
O625 C610 1.268 . S
O626 Nd601 2.500 . S
O626 C611 1.258 . S
O627 Nd601 2.492 . S
O627 C611 1.239 . S
O628 Nd601 2.487 1_655 S
O628 C618 1.241 . S
O629 Nd600 2.414 1_556 S
O629 Nd601 2.682 1_655 S
O629 C618 1.273 . S
O630 Nd601 2.410 . S
O630 C619 1.251 1_556 S
O631 Nd600 2.424 1_455 S
O631 C619 1.268 . S
H632 C604 0.930 . S
H633 C605 0.929 . S
H634 C607 0.930 . S
H635 C608 0.929 . S
H636 C613 0.930 . S
H637 C614 0.929 . S
H638 C616 0.930 . S
H639 C617 0.929 . S
H640 C658 0.951 . S
H641 C660 0.951 . S
H642 C662 0.950 . S
H643 C663 0.950 . S
H644 C665 0.950 . S
H645 C668 0.950 . S
H646 C669 0.950 . S
H647 C671 0.950 . S
H648 C672 0.950 . S
H649 C673 0.951 . S
H650 C675 0.951 . S
H651 C677 0.950 . S
H652 C678 0.950 . S
H653 C680 0.950 . S
H654 C683 0.950 . S
H655 C684 0.950 . S
H656 C686 0.950 . S
H657 C687 0.950 . S
C658 H640 0.951 . S
C658 C659 1.366 . S
C658 C660 1.388 . S
C659 C658 1.366 . S
C659 C663 1.385 . S
C660 H641 0.951 . S
C660 C658 1.388 . S
C660 C661 1.366 . S
C661 C660 1.366 . S
C661 C662 1.414 . S
C661 C664 1.499 . S
C662 H642 0.950 . S
C662 C661 1.414 . S
C662 C663 1.374 . S
C663 H643 0.950 . S
C663 C659 1.385 . S
C663 C662 1.374 . S
C664 C661 1.499 . S
C664 C665 1.373 . S
C664 C666 1.389 . S
C665 H644 0.950 . S
C665 C664 1.373 . S
C665 C681 1.377 . S
C666 C664 1.389 . S
C666 C667 1.524 . S
C666 C680 1.377 . S
C667 C666 1.524 . S
C667 C668 1.397 . S
C667 C672 1.363 . S
C668 H645 0.950 . S
C668 C667 1.397 . S
C668 C669 1.334 . S
C669 H646 0.950 . S
C669 C668 1.334 . S
C669 C670 1.287 . S
C670 C669 1.287 . S
C670 C671 1.524 . S
C670 H689 0.913 . S
C671 H647 0.950 . S
C671 C670 1.524 . S
C671 C672 1.415 . S
C672 H648 0.950 . S
C672 C667 1.363 . S
C672 C671 1.415 . S
C673 H649 0.951 . S
C673 C674 1.366 . S
C673 C675 1.388 . S
C674 C673 1.366 . S
C674 C678 1.385 . S
C675 H650 0.951 . S
C675 C673 1.388 . S
C675 C676 1.366 . S
C676 C675 1.366 . S
C676 C677 1.414 . S
C676 C679 1.499 . S
C677 H651 0.950 . S
C677 C676 1.414 . S
C677 C678 1.374 . S
C678 H652 0.950 . S
C678 C674 1.385 . S
C678 C677 1.374 . S
C679 C676 1.499 . S
C679 C680 1.373 . S
C679 C681 1.389 . S
C680 H653 0.950 . S
C680 C666 1.377 . S
C680 C679 1.373 . S
C681 C665 1.377 . S
C681 C679 1.389 . S
C681 C682 1.524 . S
C682 C681 1.524 . S
C682 C683 1.397 . S
C682 C687 1.363 . S
C683 H654 0.950 . S
C683 C682 1.397 . S
C683 C684 1.334 1_545 S
C684 H655 0.950 . S
C684 C683 1.334 1_565 S
C684 C685 1.287 . S
C685 C684 1.287 . S
C685 C686 1.524 . S
C685 H688 0.999 . S
C686 H656 0.950 . S
C686 C685 1.524 . S
C686 C687 1.415 1_565 S
C687 H657 0.950 . S
C687 C682 1.363 . S
C687 C686 1.415 1_545 S
H688 C685 0.999 . S
H689 C670 0.913 . S
H690 C708 0.951 . S
H691 C710 0.951 . S
H692 C712 0.950 . S
H693 C713 0.950 . S
H694 C715 0.950 . S
H695 C718 0.950 . S
H696 C719 0.950 . S
H697 C721 0.950 . S
H698 C722 0.950 . S
H699 C723 0.951 . S
H700 C725 0.951 . S
H701 C727 0.950 . S
H702 C728 0.950 . S
H703 C730 0.950 . S
H704 C733 0.950 . S
H705 C734 0.950 . S
H706 C736 0.950 . S
H707 C737 0.950 . S
C708 H690 0.951 . S
C708 C709 1.366 . S
C708 C710 1.388 . S
C709 C708 1.366 . S
C709 C713 1.385 . S
C710 H691 0.951 . S
C710 C708 1.388 . S
C710 C711 1.366 . S
C711 C710 1.366 . S
C711 C712 1.414 . S
C711 C714 1.499 . S
C712 H692 0.950 . S
C712 C711 1.414 . S
C712 C713 1.374 . S
C713 H693 0.950 . S
C713 C709 1.385 . S
C713 C712 1.374 . S
C714 C711 1.499 . S
C714 C715 1.373 . S
C714 C716 1.389 . S
C715 H694 0.950 . S
C715 C714 1.373 . S
C715 C731 1.377 . S
C716 C714 1.389 . S
C716 C717 1.524 . S
C716 C730 1.377 . S
C717 C716 1.524 . S
C717 C718 1.397 . S
C717 C722 1.363 . S
C718 H695 0.950 . S
C718 C717 1.397 . S
C718 C719 1.334 . S
C719 H696 0.950 . S
C719 C718 1.334 . S
C719 C720 1.287 . S
C720 C719 1.287 . S
C720 C721 1.524 . S
C720 H739 0.913 . S
C721 H697 0.950 . S
C721 C720 1.524 . S
C721 C722 1.415 . S
C722 H698 0.950 . S
C722 C717 1.363 . S
C722 C721 1.415 . S
C723 H699 0.951 . S
C723 C724 1.366 . S
C723 C725 1.388 . S
C724 C723 1.366 . S
C724 C728 1.385 . S
C725 H700 0.951 . S
C725 C723 1.388 . S
C725 C726 1.366 . S
C726 C725 1.366 . S
C726 C727 1.414 . S
C726 C729 1.499 . S
C727 H701 0.950 . S
C727 C726 1.414 . S
C727 C728 1.374 . S
C728 H702 0.950 . S
C728 C724 1.385 . S
C728 C727 1.374 . S
C729 C726 1.499 . S
C729 C730 1.373 . S
C729 C731 1.389 . S
C730 H703 0.950 . S
C730 C716 1.377 . S
C730 C729 1.373 . S
C731 C715 1.377 . S
C731 C729 1.389 . S
C731 C732 1.524 . S
C732 C731 1.524 . S
C732 C733 1.397 . S
C732 C737 1.363 . S
C733 H704 0.950 . S
C733 C732 1.397 . S
C733 C734 1.334 . S
C734 H705 0.950 . S
C734 C733 1.334 . S
C734 C735 1.287 . S
C735 C734 1.287 . S
C735 C736 1.524 . S
C735 H738 0.999 . S
C736 H706 0.950 . S
C736 C735 1.524 . S
C736 C737 1.415 . S
C737 H707 0.950 . S
C737 C732 1.363 . S
C737 C736 1.415 . S
H738 C735 0.999 . S
H739 C720 0.913 . S
H740 C758 0.951 . S
H741 C760 0.951 . S
H742 C762 0.950 . S
H743 C763 0.950 . S
H744 C765 0.950 . S
H745 C768 0.950 . S
H746 C769 0.950 . S
H747 C771 0.950 . S
H748 C772 0.950 . S
H749 C773 0.951 . S
H750 C775 0.951 . S
H751 C777 0.950 . S
H752 C778 0.950 . S
H753 C780 0.950 . S
H754 C783 0.950 . S
H755 C784 0.950 . S
H756 C786 0.950 . S
H757 C787 0.950 . S
C758 H740 0.951 . S
C758 C759 1.366 . S
C758 C760 1.388 . S
C759 C758 1.366 . S
C759 C763 1.385 . S
C760 H741 0.951 . S
C760 C758 1.388 . S
C760 C761 1.366 . S
C761 C760 1.366 . S
C761 C762 1.414 . S
C761 C764 1.499 . S
C762 H742 0.950 . S
C762 C761 1.414 . S
C762 C763 1.374 . S
C763 H743 0.950 . S
C763 C759 1.385 . S
C763 C762 1.374 . S
C764 C761 1.499 . S
C764 C765 1.373 . S
C764 C766 1.389 . S
C765 H744 0.950 . S
C765 C764 1.373 . S
C765 C781 1.377 . S
C766 C764 1.389 . S
C766 C767 1.524 . S
C766 C780 1.377 . S
C767 C766 1.524 . S
C767 C768 1.397 . S
C767 C772 1.363 . S
C768 H745 0.950 . S
C768 C767 1.397 . S
C768 C769 1.334 . S
C769 H746 0.950 . S
C769 C768 1.334 . S
C769 C770 1.287 . S
C770 C769 1.287 . S
C770 C771 1.524 . S
C770 H789 0.913 . S
C771 H747 0.950 . S
C771 C770 1.524 . S
C771 C772 1.415 . S
C772 H748 0.950 . S
C772 C767 1.363 . S
C772 C771 1.415 . S
C773 H749 0.951 . S
C773 C774 1.366 . S
C773 C775 1.388 . S
C774 C773 1.366 . S
C774 C778 1.385 . S
C775 H750 0.951 . S
C775 C773 1.388 . S
C775 C776 1.366 . S
C776 C775 1.366 . S
C776 C777 1.414 . S
C776 C779 1.499 . S
C777 H751 0.950 . S
C777 C776 1.414 . S
C777 C778 1.374 . S
C778 H752 0.950 . S
C778 C774 1.385 . S
C778 C777 1.374 . S
C779 C776 1.499 . S
C779 C780 1.373 . S
C779 C781 1.389 . S
C780 H753 0.950 . S
C780 C766 1.377 . S
C780 C779 1.373 . S
C781 C765 1.377 . S
C781 C779 1.389 . S
C781 C782 1.524 . S
C782 C781 1.524 . S
C782 C783 1.397 . S
C782 C787 1.363 . S
C783 H754 0.950 . S
C783 C782 1.397 . S
C783 C784 1.334 . S
C784 H755 0.950 . S
C784 C783 1.334 . S
C784 C785 1.287 . S
C785 C784 1.287 . S
C785 C786 1.524 . S
C785 H788 0.999 . S
C786 H756 0.950 . S
C786 C785 1.524 . S
C786 C787 1.415 . S
C787 H757 0.950 . S
C787 C782 1.363 . S
C787 C786 1.415 . S
H788 C785 0.999 . S
H789 C770 0.913 . S
H790 C808 0.951 . S
H791 C810 0.951 . S
H792 C812 0.950 . S
H793 C813 0.950 . S
H794 C815 0.950 . S
H795 C818 0.950 . S
H796 C819 0.950 . S
H797 C821 0.950 . S
H798 C822 0.950 . S
H799 C823 0.951 . S
H800 C825 0.951 . S
H801 C827 0.950 . S
H802 C828 0.950 . S
H803 C830 0.950 . S
H804 C833 0.950 . S
H805 C834 0.950 . S
H806 C836 0.950 . S
H807 C837 0.950 . S
C808 H790 0.951 . S
C808 C809 1.366 . S
C808 C810 1.388 . S
C809 C808 1.366 . S
C809 C813 1.385 . S
C810 H791 0.951 . S
C810 C808 1.388 . S
C810 C811 1.366 . S
C811 C810 1.366 . S
C811 C812 1.414 . S
C811 C814 1.499 . S
C812 H792 0.950 . S
C812 C811 1.414 . S
C812 C813 1.374 . S
C813 H793 0.950 . S
C813 C809 1.385 . S
C813 C812 1.374 . S
C814 C811 1.499 . S
C814 C815 1.373 . S
C814 C816 1.389 . S
C815 H794 0.950 . S
C815 C814 1.373 . S
C815 C831 1.377 . S
C816 C814 1.389 . S
C816 C817 1.524 . S
C816 C830 1.377 . S
C817 C816 1.524 . S
C817 C818 1.397 . S
C817 C822 1.363 . S
C818 H795 0.950 . S
C818 C817 1.397 . S
C818 C819 1.334 . S
C819 H796 0.950 . S
C819 C818 1.334 . S
C819 C820 1.287 . S
C820 C819 1.287 . S
C820 C821 1.524 . S
C820 H839 0.913 . S
C821 H797 0.950 . S
C821 C820 1.524 . S
C821 C822 1.415 . S
C822 H798 0.950 . S
C822 C817 1.363 . S
C822 C821 1.415 . S
C823 H799 0.951 . S
C823 C824 1.366 . S
C823 C825 1.388 . S
C824 C823 1.366 . S
C824 C828 1.385 . S
C825 H800 0.951 . S
C825 C823 1.388 . S
C825 C826 1.366 . S
C826 C825 1.366 . S
C826 C827 1.414 . S
C826 C829 1.499 . S
C827 H801 0.950 . S
C827 C826 1.414 . S
C827 C828 1.374 . S
C828 H802 0.950 . S
C828 C824 1.385 . S
C828 C827 1.374 . S
C829 C826 1.499 . S
C829 C830 1.373 . S
C829 C831 1.389 . S
C830 H803 0.950 . S
C830 C816 1.377 . S
C830 C829 1.373 . S
C831 C815 1.377 . S
C831 C829 1.389 . S
C831 C832 1.524 . S
C832 C831 1.524 . S
C832 C833 1.397 . S
C832 C837 1.363 . S
C833 H804 0.950 . S
C833 C832 1.397 . S
C833 C834 1.334 . S
C834 H805 0.950 . S
C834 C833 1.334 . S
C834 C835 1.287 . S
C835 C834 1.287 . S
C835 C836 1.524 . S
C835 H838 0.999 . S
C836 H806 0.950 . S
C836 C835 1.524 . S
C836 C837 1.415 . S
C837 H807 0.950 . S
C837 C832 1.363 . S
C837 C836 1.415 . S
H838 C835 0.999 . S
H839 C820 0.913 . S
H840 C858 0.951 . S
H841 C860 0.951 . S
H842 C862 0.950 . S
H843 C863 0.950 . S
H844 C865 0.950 . S
H845 C868 0.950 . S
H846 C869 0.950 . S
H847 C871 0.950 . S
H848 C872 0.950 . S
H849 C873 0.951 . S
H850 C875 0.951 . S
H851 C877 0.950 . S
H852 C878 0.950 . S
H853 C880 0.950 . S
H854 C883 0.950 . S
H855 C884 0.950 . S
H856 C886 0.950 . S
H857 C887 0.950 1_554 S
C858 H840 0.951 . S
C858 C859 1.366 . S
C858 C860 1.388 . S
C859 C858 1.366 . S
C859 C863 1.385 . S
C860 H841 0.951 . S
C860 C858 1.388 . S
C860 C861 1.366 . S
C861 C860 1.366 . S
C861 C862 1.414 . S
C861 C864 1.499 . S
C862 H842 0.950 . S
C862 C861 1.414 . S
C862 C863 1.374 . S
C863 H843 0.950 . S
C863 C859 1.385 . S
C863 C862 1.374 . S
C864 C861 1.499 . S
C864 C865 1.373 . S
C864 C866 1.389 . S
C865 H844 0.950 . S
C865 C864 1.373 . S
C865 C881 1.377 . S
C866 C864 1.389 . S
C866 C867 1.524 . S
C866 C880 1.377 . S
C867 C866 1.524 . S
C867 C868 1.397 . S
C867 C872 1.363 . S
C868 H845 0.950 . S
C868 C867 1.397 . S
C868 C869 1.334 . S
C869 H846 0.950 . S
C869 C868 1.334 . S
C869 C870 1.287 . S
C870 C869 1.287 . S
C870 C871 1.524 . S
C870 H889 0.913 . S
C871 H847 0.950 . S
C871 C870 1.524 . S
C871 C872 1.415 . S
C872 H848 0.950 . S
C872 C867 1.363 . S
C872 C871 1.415 . S
C873 H849 0.951 . S
C873 C874 1.366 . S
C873 C875 1.388 . S
C874 C873 1.366 . S
C874 C878 1.385 . S
C875 H850 0.951 . S
C875 C873 1.388 . S
C875 C876 1.366 . S
C876 C875 1.366 . S
C876 C877 1.414 . S
C876 C879 1.499 . S
C877 H851 0.950 . S
C877 C876 1.414 . S
C877 C878 1.374 . S
C878 H852 0.950 . S
C878 C874 1.385 . S
C878 C877 1.374 . S
C879 C876 1.499 . S
C879 C880 1.373 . S
C879 C881 1.389 . S
C880 H853 0.950 . S
C880 C866 1.377 . S
C880 C879 1.373 . S
C881 C865 1.377 . S
C881 C879 1.389 . S
C881 C882 1.556 . S
C882 C881 1.556 . S
C882 C883 1.373 1_554 S
C882 C887 1.355 1_554 S
C883 H854 0.950 . S
C883 C882 1.373 1_556 S
C883 C884 1.334 . S
C884 H855 0.950 . S
C884 C883 1.334 . S
C884 C885 1.287 . S
C885 C884 1.287 . S
C885 C886 1.524 . S
C885 H888 0.999 . S
C886 H856 0.950 . S
C886 C885 1.524 . S
C886 C887 1.415 . S
C887 H857 0.950 1_556 S
C887 C882 1.355 1_556 S
C887 C886 1.415 . S
H888 C885 0.999 . S
H889 C870 0.913 . S
H890 C908 0.951 . S
H891 C910 0.951 . S
H892 C912 0.950 . S
H893 C913 0.950 . S
H894 C915 0.950 . S
H895 C918 0.950 . S
H896 C919 0.950 . S
H897 C921 0.950 . S
H898 C922 0.950 . S
H899 C923 0.951 . S
H900 C925 0.951 . S
H901 C927 0.950 . S
H902 C928 0.950 . S
H903 C930 0.950 . S
H904 C933 0.950 . S
H905 C934 0.950 . S
H906 C936 0.950 . S
H907 C937 0.950 . S
C908 H890 0.951 . S
C908 C909 1.366 . S
C908 C910 1.388 . S
C909 C908 1.366 . S
C909 C913 1.385 . S
C910 H891 0.951 . S
C910 C908 1.388 . S
C910 C911 1.366 . S
C911 C910 1.366 . S
C911 C912 1.414 . S
C911 C914 1.499 . S
C912 H892 0.950 . S
C912 C911 1.414 . S
C912 C913 1.374 . S
C913 H893 0.950 . S
C913 C909 1.385 . S
C913 C912 1.374 . S
C914 C911 1.499 . S
C914 C915 1.373 . S
C914 C916 1.389 . S
C915 H894 0.950 . S
C915 C914 1.373 . S
C915 C931 1.377 . S
C916 C914 1.389 . S
C916 C917 1.524 . S
C916 C930 1.377 . S
C917 C916 1.524 . S
C917 C918 1.397 . S
C917 C922 1.363 . S
C918 H895 0.950 . S
C918 C917 1.397 . S
C918 C919 1.334 . S
C919 H896 0.950 . S
C919 C918 1.334 . S
C919 C920 1.287 . S
C920 C919 1.287 . S
C920 C921 1.524 . S
C920 H939 0.913 . S
C921 H897 0.950 . S
C921 C920 1.524 . S
C921 C922 1.415 . S
C922 H898 0.950 . S
C922 C917 1.363 . S
C922 C921 1.415 . S
C923 H899 0.951 . S
C923 C924 1.366 . S
C923 C925 1.388 . S
C924 C923 1.366 . S
C924 C928 1.385 . S
C925 H900 0.951 . S
C925 C923 1.388 . S
C925 C926 1.366 . S
C926 C925 1.366 . S
C926 C927 1.414 . S
C926 C929 1.499 . S
C927 H901 0.950 . S
C927 C926 1.414 . S
C927 C928 1.374 . S
C928 H902 0.950 . S
C928 C924 1.385 . S
C928 C927 1.374 . S
C929 C926 1.499 . S
C929 C930 1.373 . S
C929 C931 1.389 . S
C930 H903 0.950 . S
C930 C916 1.377 . S
C930 C929 1.373 . S
C931 C915 1.377 . S
C931 C929 1.389 . S
C931 C932 1.524 . S
C932 C931 1.524 . S
C932 C933 1.397 . S
C932 C937 1.363 . S
C933 H904 0.950 . S
C933 C932 1.397 . S
C933 C934 1.334 . S
C934 H905 0.950 . S
C934 C933 1.334 . S
C934 C935 1.287 . S
C935 C934 1.287 . S
C935 C936 1.524 . S
C935 H938 0.999 . S
C936 H906 0.950 . S
C936 C935 1.524 . S
C936 C937 1.415 . S
C937 H907 0.950 . S
C937 C932 1.363 . S
C937 C936 1.415 . S
H938 C935 0.999 . S
H939 C920 0.913 . S
H940 C958 0.951 . S
H941 C960 0.951 . S
H942 C962 0.950 . S
H943 C963 0.950 . S
H944 C965 0.950 . S
H945 C968 0.950 . S
H946 C969 0.950 . S
H947 C971 0.950 . S
H948 C972 0.950 . S
H949 C973 0.951 . S
H950 C975 0.951 . S
H951 C977 0.950 . S
H952 C978 0.950 1_554 S
H953 C980 0.950 . S
H954 C983 0.950 . S
H955 C984 0.950 . S
H956 C986 0.950 . S
H957 C987 0.950 . S
C958 H940 0.951 . S
C958 C959 1.366 . S
C958 C960 1.388 . S
C959 C958 1.366 . S
C959 C963 1.385 . S
C960 H941 0.951 . S
C960 C958 1.388 . S
C960 C961 1.366 . S
C961 C960 1.366 . S
C961 C962 1.414 . S
C961 C964 1.499 . S
C962 H942 0.950 . S
C962 C961 1.414 . S
C962 C963 1.374 . S
C963 H943 0.950 . S
C963 C959 1.385 . S
C963 C962 1.374 . S
C964 C961 1.499 . S
C964 C965 1.373 . S
C964 C966 1.389 . S
C965 H944 0.950 . S
C965 C964 1.373 . S
C965 C981 1.377 . S
C966 C964 1.389 . S
C966 C967 1.524 . S
C966 C980 1.377 . S
C967 C966 1.524 . S
C967 C968 1.397 . S
C967 C972 1.363 . S
C968 H945 0.950 . S
C968 C967 1.397 . S
C968 C969 1.334 . S
C969 H946 0.950 . S
C969 C968 1.334 . S
C969 C970 1.287 . S
C970 C969 1.287 . S
C970 C971 1.524 1_556 S
C970 H989 0.913 . S
C971 H947 0.950 . S
C971 C970 1.524 1_554 S
C971 C972 1.415 1_554 S
C972 H948 0.950 . S
C972 C967 1.363 . S
C972 C971 1.415 1_556 S
C973 H949 0.951 . S
C973 C974 1.366 . S
C973 C975 1.388 . S
C974 C973 1.366 . S
C974 C978 1.385 . S
C975 H950 0.951 . S
C975 C973 1.388 . S
C975 C976 1.366 . S
C976 C975 1.366 . S
C976 C977 1.414 . S
C976 C979 1.499 . S
C977 H951 0.950 . S
C977 C976 1.414 . S
C977 C978 1.374 . S
C978 H952 0.950 1_556 S
C978 C974 1.385 . S
C978 C977 1.374 . S
C979 C976 1.499 . S
C979 C980 1.373 . S
C979 C981 1.389 . S
C980 H953 0.950 . S
C980 C966 1.377 . S
C980 C979 1.373 . S
C981 C965 1.377 . S
C981 C979 1.389 . S
C981 C982 1.524 . S
C982 C981 1.524 . S
C982 C983 1.397 . S
C982 C987 1.363 . S
C983 H954 0.950 . S
C983 C982 1.397 . S
C983 C984 1.334 . S
C984 H955 0.950 . S
C984 C983 1.334 . S
C984 C985 1.287 . S
C985 C984 1.287 . S
C985 C986 1.524 . S
C985 H988 0.999 . S
C986 H956 0.950 . S
C986 C985 1.524 . S
C986 C987 1.415 . S
C987 H957 0.950 . S
C987 C982 1.363 . S
C987 C986 1.415 . S
H988 C985 0.999 . S
H989 C970 0.913 . S
H990 C1008 0.951 . S
H991 C1010 0.951 . S
H992 C1012 0.950 . S
H993 C1013 0.950 . S
H994 C1015 0.950 . S
H995 C1018 0.950 . S
H996 C1019 0.950 . S
H997 C1021 0.950 . S
H998 C1022 0.950 . S
H999 C1023 0.951 . S
H1000 C1025 0.951 . S
H1001 C1027 0.950 . S
H1002 C1028 0.950 . S
H1003 C1030 0.950 . S
H1004 C1033 0.950 . S
H1005 C1034 0.950 . S
H1006 C1036 0.950 . S
H1007 C1037 0.950 . S
C1008 H990 0.951 . S
C1008 C1009 1.366 . S
C1008 C1010 1.388 . S
C1009 C1008 1.366 . S
C1009 C1013 1.385 . S
C1010 H991 0.951 . S
C1010 C1008 1.388 . S
C1010 C1011 1.366 . S
C1011 C1010 1.366 . S
C1011 C1012 1.414 . S
C1011 C1014 1.499 . S
C1012 H992 0.950 . S
C1012 C1011 1.414 . S
C1012 C1013 1.374 . S
C1013 H993 0.950 . S
C1013 C1009 1.385 . S
C1013 C1012 1.374 . S
C1014 C1011 1.499 . S
C1014 C1015 1.373 . S
C1014 C1016 1.389 . S
C1015 H994 0.950 . S
C1015 C1014 1.373 . S
C1015 C1031 1.377 . S
C1016 C1014 1.389 . S
C1016 C1017 1.524 . S
C1016 C1030 1.377 . S
C1017 C1016 1.524 . S
C1017 C1018 1.397 . S
C1017 C1022 1.363 . S
C1018 H995 0.950 . S
C1018 C1017 1.397 . S
C1018 C1019 1.334 . S
C1019 H996 0.950 . S
C1019 C1018 1.334 . S
C1019 C1020 1.287 . S
C1020 C1019 1.287 . S
C1020 C1021 1.524 . S
C1020 H1039 0.913 . S
C1021 H997 0.950 . S
C1021 C1020 1.524 . S
C1021 C1022 1.415 . S
C1022 H998 0.950 . S
C1022 C1017 1.363 . S
C1022 C1021 1.415 . S
C1023 H999 0.951 . S
C1023 C1024 1.366 . S
C1023 C1025 1.388 . S
C1024 C1023 1.366 . S
C1024 C1028 1.385 . S
C1025 H1000 0.951 . S
C1025 C1023 1.388 . S
C1025 C1026 1.366 . S
C1026 C1025 1.366 . S
C1026 C1027 1.414 . S
C1026 C1029 1.499 . S
C1027 H1001 0.950 . S
C1027 C1026 1.414 . S
C1027 C1028 1.374 . S
C1028 H1002 0.950 . S
C1028 C1024 1.385 . S
C1028 C1027 1.374 . S
C1029 C1026 1.499 . S
C1029 C1030 1.373 . S
C1029 C1031 1.389 . S
C1030 H1003 0.950 . S
C1030 C1016 1.377 . S
C1030 C1029 1.373 . S
C1031 C1015 1.377 . S
C1031 C1029 1.389 . S
C1031 C1032 1.524 . S
C1032 C1031 1.524 . S
C1032 C1033 1.397 . S
C1032 C1037 1.363 . S
C1033 H1004 0.950 . S
C1033 C1032 1.397 . S
C1033 C1034 1.334 . S
C1034 H1005 0.950 . S
C1034 C1033 1.334 . S
C1034 C1035 1.287 . S
C1035 C1034 1.287 . S
C1035 C1036 1.524 . S
C1035 H1038 0.999 . S
C1036 H1006 0.950 . S
C1036 C1035 1.524 . S
C1036 C1037 1.415 . S
C1037 H1007 0.950 . S
C1037 C1032 1.363 . S
C1037 C1036 1.415 . S
H1038 C1035 0.999 . S
H1039 C1020 0.913 . S
H1040 C1058 0.951 . S
H1041 C1060 0.951 . S
H1042 C1062 0.950 . S
H1043 C1063 0.950 . S
H1044 C1065 0.950 . S
H1045 C1068 0.950 . S
H1046 C1069 0.950 . S
H1047 C1071 0.950 . S
H1048 C1072 0.950 . S
H1049 C1073 0.955 1_556 S
H1050 C1075 0.951 1_556 S
H1051 C1077 0.950 . S
H1052 C1078 0.950 . S
H1053 C1080 0.950 . S
H1054 C1083 0.950 . S
H1055 C1084 0.943 1_554 S
H1056 C1086 0.950 . S
H1057 C1087 0.950 . S
C1058 H1040 0.951 . S
C1058 C1059 1.366 . S
C1058 C1060 1.388 . S
C1059 C1058 1.366 . S
C1059 C1063 1.385 . S
C1060 H1041 0.951 . S
C1060 C1058 1.388 . S
C1060 C1061 1.366 . S
C1061 C1060 1.366 . S
C1061 C1062 1.414 . S
C1061 C1064 1.499 . S
C1062 H1042 0.950 . S
C1062 C1061 1.414 . S
C1062 C1063 1.374 . S
C1063 H1043 0.950 . S
C1063 C1059 1.385 . S
C1063 C1062 1.374 . S
C1064 C1061 1.499 . S
C1064 C1065 1.373 . S
C1064 C1066 1.389 . S
C1065 H1044 0.950 . S
C1065 C1064 1.373 . S
C1065 C1081 1.377 . S
C1066 C1064 1.389 . S
C1066 C1067 1.524 . S
C1066 C1080 1.377 . S
C1067 C1066 1.524 . S
C1067 C1068 1.397 . S
C1067 C1072 1.363 . S
C1068 H1045 0.950 . S
C1068 C1067 1.397 . S
C1068 C1069 1.334 . S
C1069 H1046 0.950 . S
C1069 C1068 1.334 . S
C1069 C1070 1.287 . S
C1070 C1069 1.287 . S
C1070 C1071 1.524 . S
C1070 H1089 0.913 . S
C1071 H1047 0.950 . S
C1071 C1070 1.524 . S
C1071 C1072 1.415 . S
C1072 H1048 0.950 . S
C1072 C1067 1.363 . S
C1072 C1071 1.415 . S
C1073 H1049 0.955 1_554 S
C1073 C1074 1.362 . S
C1073 C1075 1.387 . S
C1074 C1073 1.362 . S
C1074 C1078 1.385 . S
C1075 H1050 0.951 1_554 S
C1075 C1073 1.387 . S
C1075 C1076 1.366 . S
C1076 C1075 1.366 . S
C1076 C1077 1.414 . S
C1076 C1079 1.499 . S
C1077 H1051 0.950 . S
C1077 C1076 1.414 . S
C1077 C1078 1.374 . S
C1078 H1052 0.950 . S
C1078 C1074 1.385 . S
C1078 C1077 1.374 . S
C1079 C1076 1.499 . S
C1079 C1080 1.373 . S
C1079 C1081 1.389 . S
C1080 H1053 0.950 . S
C1080 C1066 1.377 . S
C1080 C1079 1.373 . S
C1081 C1065 1.377 . S
C1081 C1079 1.389 . S
C1081 C1082 1.524 . S
C1082 C1081 1.524 . S
C1082 C1083 1.397 . S
C1082 C1087 1.363 1_554 S
C1083 H1054 0.950 . S
C1083 C1082 1.397 . S
C1083 C1084 1.313 1_554 S
C1084 H1055 0.943 1_556 S
C1084 C1083 1.313 1_556 S
C1084 C1085 1.317 . S
C1085 C1084 1.317 . S
C1085 C1086 1.524 . S
C1085 H1088 0.999 . S
C1086 H1056 0.950 . S
C1086 C1085 1.524 . S
C1086 C1087 1.415 . S
C1087 H1057 0.950 . S
C1087 C1082 1.363 1_556 S
C1087 C1086 1.415 . S
H1088 C1085 0.999 . S
H1089 C1070 0.913 . S
H1090 C1108 0.951 . S
H1091 C1110 0.951 . S
H1092 C1112 0.950 . S
H1093 C1113 0.950 . S
H1094 C1115 0.950 . S
H1095 C1118 0.950 . S
H1096 C1119 0.950 . S
H1097 C1121 0.950 . S
H1098 C1122 0.950 . S
H1099 C1123 0.951 . S
H1100 C1125 0.951 . S
H1101 C1127 0.950 . S
H1102 C1128 0.950 . S
H1103 C1130 0.950 . S
H1104 C1133 0.950 . S
H1105 C1134 0.950 . S
H1106 C1136 0.950 . S
H1107 C1137 0.950 . S
C1108 H1090 0.951 . S
C1108 C1109 1.366 . S
C1108 C1110 1.388 . S
C1109 C1108 1.366 . S
C1109 C1113 1.385 . S
C1110 H1091 0.951 . S
C1110 C1108 1.388 . S
C1110 C1111 1.366 . S
C1111 C1110 1.366 . S
C1111 C1112 1.414 . S
C1111 C1114 1.499 . S
C1112 H1092 0.950 . S
C1112 C1111 1.414 . S
C1112 C1113 1.374 . S
C1113 H1093 0.950 . S
C1113 C1109 1.385 . S
C1113 C1112 1.374 . S
C1114 C1111 1.499 . S
C1114 C1115 1.373 . S
C1114 C1116 1.389 . S
C1115 H1094 0.950 . S
C1115 C1114 1.373 . S
C1115 C1131 1.377 . S
C1116 C1114 1.389 . S
C1116 C1117 1.524 . S
C1116 C1130 1.377 . S
C1117 C1116 1.524 . S
C1117 C1118 1.397 . S
C1117 C1122 1.363 . S
C1118 H1095 0.950 . S
C1118 C1117 1.397 . S
C1118 C1119 1.334 . S
C1119 H1096 0.950 . S
C1119 C1118 1.334 . S
C1119 C1120 1.287 . S
C1120 C1119 1.287 . S
C1120 C1121 1.524 . S
C1120 H1139 0.913 . S
C1121 H1097 0.950 . S
C1121 C1120 1.524 . S
C1121 C1122 1.415 . S
C1122 H1098 0.950 . S
C1122 C1117 1.363 . S
C1122 C1121 1.415 . S
C1123 H1099 0.951 . S
C1123 C1124 1.366 . S
C1123 C1125 1.388 . S
C1124 C1123 1.366 . S
C1124 C1128 1.385 . S
C1125 H1100 0.951 . S
C1125 C1123 1.388 . S
C1125 C1126 1.366 . S
C1126 C1125 1.366 . S
C1126 C1127 1.414 . S
C1126 C1129 1.499 . S
C1127 H1101 0.950 . S
C1127 C1126 1.414 . S
C1127 C1128 1.374 . S
C1128 H1102 0.950 . S
C1128 C1124 1.385 . S
C1128 C1127 1.374 . S
C1129 C1126 1.499 . S
C1129 C1130 1.373 . S
C1129 C1131 1.389 . S
C1130 H1103 0.950 . S
C1130 C1116 1.377 . S
C1130 C1129 1.373 . S
C1131 C1115 1.377 . S
C1131 C1129 1.389 . S
C1131 C1132 1.524 . S
C1132 C1131 1.524 . S
C1132 C1133 1.397 . S
C1132 C1137 1.363 . S
C1133 H1104 0.950 . S
C1133 C1132 1.397 . S
C1133 C1134 1.334 . S
C1134 H1105 0.950 . S
C1134 C1133 1.334 . S
C1134 C1135 1.287 . S
C1135 C1134 1.287 . S
C1135 C1136 1.524 . S
C1135 H1138 0.999 . S
C1136 H1106 0.950 . S
C1136 C1135 1.524 . S
C1136 C1137 1.415 . S
C1137 H1107 0.950 . S
C1137 C1132 1.363 . S
C1137 C1136 1.415 . S
H1138 C1135 0.999 . S
H1139 C1120 0.913 . S
H1140 C1158 0.951 . S
H1141 C1160 0.951 . S
H1142 C1162 0.950 . S
H1143 C1163 0.950 . S
H1144 C1165 0.950 . S
H1145 C1168 0.950 . S
H1146 C1169 0.950 . S
H1147 C1171 0.950 . S
H1148 C1172 0.950 . S
H1149 C1173 0.951 1_455 S
H1150 C1175 0.951 . S
H1151 C1177 0.950 . S
H1152 C1178 0.950 . S
H1153 C1180 0.950 . S
H1154 C1183 0.950 . S
H1155 C1184 0.954 . S
H1156 C1186 0.950 . S
H1157 C1187 0.950 . S
C1158 H1140 0.951 . S
C1158 C1159 1.366 . S
C1158 C1160 1.388 . S
C1159 C1158 1.366 . S
C1159 C1163 1.385 . S
C1160 H1141 0.951 . S
C1160 C1158 1.388 . S
C1160 C1161 1.366 . S
C1161 C1160 1.366 . S
C1161 C1162 1.414 . S
C1161 C1164 1.499 . S
C1162 H1142 0.950 . S
C1162 C1161 1.414 . S
C1162 C1163 1.374 . S
C1163 H1143 0.950 . S
C1163 C1159 1.385 . S
C1163 C1162 1.374 . S
C1164 C1161 1.499 . S
C1164 C1165 1.373 . S
C1164 C1166 1.389 . S
C1165 H1144 0.950 . S
C1165 C1164 1.373 . S
C1165 C1181 1.377 . S
C1166 C1164 1.389 . S
C1166 C1167 1.524 . S
C1166 C1180 1.377 . S
C1167 C1166 1.524 . S
C1167 C1168 1.397 . S
C1167 C1172 1.363 . S
C1168 H1145 0.950 . S
C1168 C1167 1.397 . S
C1168 C1169 1.334 . S
C1169 H1146 0.950 . S
C1169 C1168 1.334 . S
C1169 C1170 1.287 . S
C1170 C1169 1.287 . S
C1170 C1171 1.524 . S
C1170 H1189 0.913 . S
C1171 H1147 0.950 . S
C1171 C1170 1.524 . S
C1171 C1172 1.415 . S
C1172 H1148 0.950 . S
C1172 C1167 1.363 . S
C1172 C1171 1.415 . S
C1173 H1149 0.951 1_655 S
C1173 C1174 1.366 . S
C1173 C1175 1.388 . S
C1174 C1173 1.366 . S
C1174 C1178 1.385 . S
C1175 H1150 0.951 . S
C1175 C1173 1.388 . S
C1175 C1176 1.366 . S
C1176 C1175 1.366 . S
C1176 C1177 1.414 . S
C1176 C1179 1.499 . S
C1177 H1151 0.950 . S
C1177 C1176 1.414 . S
C1177 C1178 1.374 . S
C1178 H1152 0.950 . S
C1178 C1174 1.385 . S
C1178 C1177 1.374 . S
C1179 C1176 1.499 . S
C1179 C1180 1.373 . S
C1179 C1181 1.389 . S
C1180 H1153 0.950 . S
C1180 C1166 1.377 . S
C1180 C1179 1.373 . S
C1181 C1165 1.377 . S
C1181 C1179 1.389 . S
C1181 C1182 1.524 . S
C1182 C1181 1.524 . S
C1182 C1183 1.397 . S
C1182 C1187 1.363 . S
C1183 H1154 0.950 . S
C1183 C1182 1.397 . S
C1183 C1184 1.334 . S
C1184 H1155 0.954 . S
C1184 C1183 1.334 . S
C1184 C1185 1.287 1_655 S
C1185 C1184 1.287 1_455 S
C1185 C1186 1.524 . S
C1185 H1188 0.999 . S
C1186 H1156 0.950 . S
C1186 C1185 1.524 . S
C1186 C1187 1.415 1_455 S
C1187 H1157 0.950 . S
C1187 C1182 1.363 . S
C1187 C1186 1.415 1_655 S
H1188 C1185 0.999 . S
H1189 C1170 0.913 . S
H1190 C1208 0.951 . S
H1191 C1210 0.951 . S
H1192 C1212 0.950 . S
H1193 C1213 0.950 . S
H1194 C1215 0.950 . S
H1195 C1218 0.950 . S
H1196 C1219 0.950 . S
H1197 C1221 0.950 . S
H1198 C1222 0.950 . S
H1199 C1223 0.951 . S
H1200 C1225 0.951 . S
H1201 C1227 0.950 . S
H1202 C1228 0.950 . S
H1203 C1230 0.950 . S
H1204 C1233 0.950 . S
H1205 C1234 0.950 . S
H1206 C1236 0.950 . S
H1207 C1237 0.950 . S
C1208 H1190 0.951 . S
C1208 C1209 1.366 . S
C1208 C1210 1.388 . S
C1209 C1208 1.366 . S
C1209 C1213 1.385 . S
C1210 H1191 0.951 . S
C1210 C1208 1.388 . S
C1210 C1211 1.366 . S
C1211 C1210 1.366 . S
C1211 C1212 1.414 . S
C1211 C1214 1.499 . S
C1212 H1192 0.950 . S
C1212 C1211 1.414 . S
C1212 C1213 1.374 . S
C1213 H1193 0.950 . S
C1213 C1209 1.385 . S
C1213 C1212 1.374 . S
C1214 C1211 1.499 . S
C1214 C1215 1.373 . S
C1214 C1216 1.389 . S
C1215 H1194 0.950 . S
C1215 C1214 1.373 . S
C1215 C1231 1.377 . S
C1216 C1214 1.389 . S
C1216 C1217 1.524 . S
C1216 C1230 1.377 . S
C1217 C1216 1.524 . S
C1217 C1218 1.397 . S
C1217 C1222 1.363 . S
C1218 H1195 0.950 . S
C1218 C1217 1.397 . S
C1218 C1219 1.334 . S
C1219 H1196 0.950 . S
C1219 C1218 1.334 . S
C1219 C1220 1.287 . S
C1220 C1219 1.287 . S
C1220 C1221 1.524 . S
C1220 H1239 0.913 . S
C1221 H1197 0.950 . S
C1221 C1220 1.524 . S
C1221 C1222 1.415 . S
C1222 H1198 0.950 . S
C1222 C1217 1.363 . S
C1222 C1221 1.415 . S
C1223 H1199 0.951 . S
C1223 C1224 1.366 . S
C1223 C1225 1.388 . S
C1224 C1223 1.366 . S
C1224 C1228 1.385 . S
C1225 H1200 0.951 . S
C1225 C1223 1.388 . S
C1225 C1226 1.366 . S
C1226 C1225 1.366 . S
C1226 C1227 1.414 . S
C1226 C1229 1.499 . S
C1227 H1201 0.950 . S
C1227 C1226 1.414 . S
C1227 C1228 1.374 . S
C1228 H1202 0.950 . S
C1228 C1224 1.385 . S
C1228 C1227 1.374 . S
C1229 C1226 1.499 . S
C1229 C1230 1.373 . S
C1229 C1231 1.389 . S
C1230 H1203 0.950 . S
C1230 C1216 1.377 . S
C1230 C1229 1.373 . S
C1231 C1215 1.377 . S
C1231 C1229 1.389 . S
C1231 C1232 1.524 . S
C1232 C1231 1.524 . S
C1232 C1233 1.397 . S
C1232 C1237 1.363 . S
C1233 H1204 0.950 . S
C1233 C1232 1.397 . S
C1233 C1234 1.334 . S
C1234 H1205 0.950 . S
C1234 C1233 1.334 . S
C1234 C1235 1.287 . S
C1235 C1234 1.287 . S
C1235 C1236 1.524 . S
C1235 H1238 0.999 . S
C1236 H1206 0.950 . S
C1236 C1235 1.524 . S
C1236 C1237 1.415 . S
C1237 H1207 0.950 . S
C1237 C1232 1.363 . S
C1237 C1236 1.415 . S
H1238 C1235 0.999 . S
H1239 C1220 0.913 . S
H1240 C1258 0.951 . S
H1241 C1260 0.951 . S
H1242 C1262 0.950 . S
H1243 C1263 0.950 . S
H1244 C1265 0.950 . S
H1245 C1268 0.950 . S
H1246 C1269 0.950 . S
H1247 C1271 0.950 . S
H1248 C1272 0.950 . S
H1249 C1273 0.951 . S
H1250 C1275 0.951 . S
H1251 C1277 0.950 . S
H1252 C1278 0.950 . S
H1253 C1280 0.950 . S
H1254 C1283 0.950 . S
H1255 C1284 0.950 . S
H1256 C1286 0.950 . S
H1257 C1287 0.950 . S
C1258 H1240 0.951 . S
C1258 C1259 1.366 . S
C1258 C1260 1.388 . S
C1259 C1258 1.366 . S
C1259 C1263 1.385 . S
C1260 H1241 0.951 . S
C1260 C1258 1.388 . S
C1260 C1261 1.366 . S
C1261 C1260 1.366 . S
C1261 C1262 1.414 . S
C1261 C1264 1.499 . S
C1262 H1242 0.950 . S
C1262 C1261 1.414 . S
C1262 C1263 1.374 . S
C1263 H1243 0.950 . S
C1263 C1259 1.385 . S
C1263 C1262 1.374 . S
C1264 C1261 1.499 . S
C1264 C1265 1.373 . S
C1264 C1266 1.389 . S
C1265 H1244 0.950 . S
C1265 C1264 1.373 . S
C1265 C1281 1.377 . S
C1266 C1264 1.389 . S
C1266 C1267 1.524 . S
C1266 C1280 1.377 . S
C1267 C1266 1.524 . S
C1267 C1268 1.397 . S
C1267 C1272 1.363 . S
C1268 H1245 0.950 . S
C1268 C1267 1.397 . S
C1268 C1269 1.334 . S
C1269 H1246 0.950 . S
C1269 C1268 1.334 . S
C1269 C1270 1.287 . S
C1270 C1269 1.287 . S
C1270 C1271 1.524 . S
C1270 H1289 0.913 . S
C1271 H1247 0.950 . S
C1271 C1270 1.524 . S
C1271 C1272 1.415 . S
C1272 H1248 0.950 . S
C1272 C1267 1.363 . S
C1272 C1271 1.415 . S
C1273 H1249 0.951 . S
C1273 C1274 1.366 . S
C1273 C1275 1.388 . S
C1274 C1273 1.366 . S
C1274 C1278 1.385 . S
C1275 H1250 0.951 . S
C1275 C1273 1.388 . S
C1275 C1276 1.366 . S
C1276 C1275 1.366 . S
C1276 C1277 1.414 . S
C1276 C1279 1.499 . S
C1277 H1251 0.950 . S
C1277 C1276 1.414 . S
C1277 C1278 1.374 . S
C1278 H1252 0.950 . S
C1278 C1274 1.385 . S
C1278 C1277 1.374 . S
C1279 C1276 1.499 . S
C1279 C1280 1.373 . S
C1279 C1281 1.389 . S
C1280 H1253 0.950 . S
C1280 C1266 1.377 . S
C1280 C1279 1.373 . S
C1281 C1265 1.377 . S
C1281 C1279 1.389 . S
C1281 C1282 1.524 . S
C1282 C1281 1.524 . S
C1282 C1283 1.397 . S
C1282 C1287 1.363 . S
C1283 H1254 0.950 . S
C1283 C1282 1.397 . S
C1283 C1284 1.334 1_655 S
C1284 H1255 0.950 . S
C1284 C1283 1.334 1_455 S
C1284 C1285 1.287 . S
C1285 C1284 1.287 . S
C1285 C1286 1.524 . S
C1285 H1288 0.999 . S
C1286 H1256 0.950 . S
C1286 C1285 1.524 . S
C1286 C1287 1.415 1_455 S
C1287 H1257 0.950 . S
C1287 C1282 1.363 . S
C1287 C1286 1.415 1_655 S
H1288 C1285 0.999 . S
H1289 C1270 0.913 . S
H1290 C1308 0.951 . S
H1291 C1310 0.951 . S
H1292 C1312 0.950 . S
H1293 C1313 0.950 . S
H1294 C1315 0.950 . S
H1295 C1318 0.950 . S
H1296 C1319 0.950 . S
H1297 C1321 0.950 . S
H1298 C1322 0.950 . S
H1299 C1323 0.951 . S
H1300 C1325 0.951 . S
H1301 C1327 0.950 . S
H1302 C1328 0.950 . S
H1303 C1330 0.950 . S
H1304 C1333 0.950 . S
H1305 C1334 0.950 . S
H1306 C1336 0.950 . S
H1307 C1337 0.950 . S
C1308 H1290 0.951 . S
C1308 C1309 1.366 . S
C1308 C1310 1.388 . S
C1309 C1308 1.366 . S
C1309 C1313 1.385 . S
C1310 H1291 0.951 . S
C1310 C1308 1.388 . S
C1310 C1311 1.366 . S
C1311 C1310 1.366 . S
C1311 C1312 1.414 . S
C1311 C1314 1.499 . S
C1312 H1292 0.950 . S
C1312 C1311 1.414 . S
C1312 C1313 1.374 . S
C1313 H1293 0.950 . S
C1313 C1309 1.385 . S
C1313 C1312 1.374 . S
C1314 C1311 1.499 . S
C1314 C1315 1.373 . S
C1314 C1316 1.389 . S
C1315 H1294 0.950 . S
C1315 C1314 1.373 . S
C1315 C1331 1.377 . S
C1316 C1314 1.389 . S
C1316 C1317 1.524 . S
C1316 C1330 1.377 . S
C1317 C1316 1.524 . S
C1317 C1318 1.397 . S
C1317 C1322 1.363 . S
C1318 H1295 0.950 . S
C1318 C1317 1.397 . S
C1318 C1319 1.334 . S
C1319 H1296 0.950 . S
C1319 C1318 1.334 . S
C1319 C1320 1.287 . S
C1320 C1319 1.287 . S
C1320 C1321 1.524 . S
C1320 H1339 0.913 . S
C1321 H1297 0.950 . S
C1321 C1320 1.524 . S
C1321 C1322 1.415 . S
C1322 H1298 0.950 . S
C1322 C1317 1.363 . S
C1322 C1321 1.415 . S
C1323 H1299 0.951 . S
C1323 C1324 1.366 . S
C1323 C1325 1.388 . S
C1324 C1323 1.366 . S
C1324 C1328 1.385 . S
C1325 H1300 0.951 . S
C1325 C1323 1.388 . S
C1325 C1326 1.366 . S
C1326 C1325 1.366 . S
C1326 C1327 1.414 . S
C1326 C1329 1.499 . S
C1327 H1301 0.950 . S
C1327 C1326 1.414 . S
C1327 C1328 1.374 . S
C1328 H1302 0.950 . S
C1328 C1324 1.385 . S
C1328 C1327 1.374 . S
C1329 C1326 1.499 . S
C1329 C1330 1.373 . S
C1329 C1331 1.389 . S
C1330 H1303 0.950 . S
C1330 C1316 1.377 . S
C1330 C1329 1.373 . S
C1331 C1315 1.377 . S
C1331 C1329 1.389 . S
C1331 C1332 1.524 . S
C1332 C1331 1.524 . S
C1332 C1333 1.397 . S
C1332 C1337 1.363 . S
C1333 H1304 0.950 . S
C1333 C1332 1.397 . S
C1333 C1334 1.334 . S
C1334 H1305 0.950 . S
C1334 C1333 1.334 . S
C1334 C1335 1.287 . S
C1335 C1334 1.287 . S
C1335 C1336 1.524 . S
C1335 H1338 0.999 . S
C1336 H1306 0.950 . S
C1336 C1335 1.524 . S
C1336 C1337 1.415 . S
C1337 H1307 0.950 . S
C1337 C1332 1.363 . S
C1337 C1336 1.415 . S
H1338 C1335 0.999 . S
H1339 C1320 0.913 . S
H1340 C1358 0.951 . S
H1341 C1360 0.951 . S
H1342 C1362 0.950 . S
H1343 C1363 0.950 . S
H1344 C1365 0.950 . S
H1345 C1368 0.950 . S
H1346 C1369 0.950 . S
H1347 C1371 0.950 . S
H1348 C1372 0.950 . S
H1349 C1373 0.951 . S
H1350 C1375 0.951 . S
H1351 C1377 0.950 . S
H1352 C1378 0.950 . S
H1353 C1380 0.950 . S
H1354 C1383 0.950 . S
H1355 C1384 0.950 . S
H1356 C1386 0.950 . S
H1357 C1387 0.950 . S
C1358 H1340 0.951 . S
C1358 C1359 1.366 . S
C1358 C1360 1.388 . S
C1359 C1358 1.366 . S
C1359 C1363 1.385 . S
C1360 H1341 0.951 . S
C1360 C1358 1.388 . S
C1360 C1361 1.366 . S
C1361 C1360 1.366 . S
C1361 C1362 1.414 . S
C1361 C1364 1.499 . S
C1362 H1342 0.950 . S
C1362 C1361 1.414 . S
C1362 C1363 1.374 . S
C1363 H1343 0.950 . S
C1363 C1359 1.385 . S
C1363 C1362 1.374 . S
C1364 C1361 1.499 . S
C1364 C1365 1.373 . S
C1364 C1366 1.389 . S
C1365 H1344 0.950 . S
C1365 C1364 1.373 . S
C1365 C1381 1.377 . S
C1366 C1364 1.389 . S
C1366 C1367 1.524 . S
C1366 C1380 1.377 . S
C1367 C1366 1.524 . S
C1367 C1368 1.397 . S
C1367 C1372 1.363 . S
C1368 H1345 0.950 . S
C1368 C1367 1.397 . S
C1368 C1369 1.334 . S
C1369 H1346 0.950 . S
C1369 C1368 1.334 . S
C1369 C1370 1.287 . S
C1370 C1369 1.287 . S
C1370 C1371 1.524 . S
C1370 H1389 0.913 . S
C1371 H1347 0.950 . S
C1371 C1370 1.524 . S
C1371 C1372 1.415 . S
C1372 H1348 0.950 . S
C1372 C1367 1.363 . S
C1372 C1371 1.415 . S
C1373 H1349 0.951 . S
C1373 C1374 1.366 . S
C1373 C1375 1.388 . S
C1374 C1373 1.366 . S
C1374 C1378 1.385 . S
C1375 H1350 0.951 . S
C1375 C1373 1.388 . S
C1375 C1376 1.366 . S
C1376 C1375 1.366 . S
C1376 C1377 1.414 . S
C1376 C1379 1.499 . S
C1377 H1351 0.950 . S
C1377 C1376 1.414 . S
C1377 C1378 1.374 . S
C1378 H1352 0.950 . S
C1378 C1374 1.385 . S
C1378 C1377 1.374 . S
C1379 C1376 1.499 . S
C1379 C1380 1.373 . S
C1379 C1381 1.389 . S
C1380 H1353 0.950 . S
C1380 C1366 1.377 . S
C1380 C1379 1.373 . S
C1381 C1365 1.377 . S
C1381 C1379 1.389 . S
C1381 C1382 1.524 . S
C1382 C1381 1.524 . S
C1382 C1383 1.397 . S
C1382 C1387 1.363 . S
C1383 H1354 0.950 . S
C1383 C1382 1.397 . S
C1383 C1384 1.334 . S
C1384 H1355 0.950 . S
C1384 C1383 1.334 . S
C1384 C1385 1.287 . S
C1385 C1384 1.287 . S
C1385 C1386 1.524 . S
C1385 H1388 0.999 . S
C1386 H1356 0.950 . S
C1386 C1385 1.524 . S
C1386 C1387 1.415 . S
C1387 H1357 0.950 . S
C1387 C1382 1.363 . S
C1387 C1386 1.415 . S
H1388 C1385 0.999 . S
H1389 C1370 0.913 . S
H1390 C1408 0.951 . S
H1391 C1410 0.951 . S
H1392 C1412 0.950 . S
H1393 C1413 0.950 . S
H1394 C1415 0.950 . S
H1395 C1418 0.950 . S
H1396 C1419 0.950 . S
H1397 C1421 0.950 . S
H1398 C1422 0.950 . S
H1399 C1423 0.951 . S
H1400 C1425 0.951 . S
H1401 C1427 0.950 . S
H1402 C1428 0.950 . S
H1403 C1430 0.950 . S
H1404 C1433 0.950 . S
H1405 C1434 0.950 . S
H1406 C1436 0.950 . S
H1407 C1437 0.950 . S
C1408 H1390 0.951 . S
C1408 C1409 1.366 . S
C1408 C1410 1.388 . S
C1409 C1408 1.366 . S
C1409 C1413 1.385 . S
C1410 H1391 0.951 . S
C1410 C1408 1.388 . S
C1410 C1411 1.366 . S
C1411 C1410 1.366 . S
C1411 C1412 1.414 . S
C1411 C1414 1.499 . S
C1412 H1392 0.950 . S
C1412 C1411 1.414 . S
C1412 C1413 1.374 . S
C1413 H1393 0.950 . S
C1413 C1409 1.385 . S
C1413 C1412 1.374 . S
C1414 C1411 1.499 . S
C1414 C1415 1.373 . S
C1414 C1416 1.389 . S
C1415 H1394 0.950 . S
C1415 C1414 1.373 . S
C1415 C1431 1.377 . S
C1416 C1414 1.389 . S
C1416 C1417 1.524 . S
C1416 C1430 1.377 . S
C1417 C1416 1.524 . S
C1417 C1418 1.397 . S
C1417 C1422 1.363 . S
C1418 H1395 0.950 . S
C1418 C1417 1.397 . S
C1418 C1419 1.334 . S
C1419 H1396 0.950 . S
C1419 C1418 1.334 . S
C1419 C1420 1.287 . S
C1420 C1419 1.287 . S
C1420 C1421 1.524 . S
C1420 H1439 0.913 . S
C1421 H1397 0.950 . S
C1421 C1420 1.524 . S
C1421 C1422 1.415 . S
C1422 H1398 0.950 . S
C1422 C1417 1.363 . S
C1422 C1421 1.415 . S
C1423 H1399 0.951 . S
C1423 C1424 1.366 . S
C1423 C1425 1.388 . S
C1424 C1423 1.366 . S
C1424 C1428 1.385 . S
C1425 H1400 0.951 . S
C1425 C1423 1.388 . S
C1425 C1426 1.366 . S
C1426 C1425 1.366 . S
C1426 C1427 1.414 . S
C1426 C1429 1.499 . S
C1427 H1401 0.950 . S
C1427 C1426 1.414 . S
C1427 C1428 1.374 . S
C1428 H1402 0.950 . S
C1428 C1424 1.385 . S
C1428 C1427 1.374 . S
C1429 C1426 1.499 . S
C1429 C1430 1.373 . S
C1429 C1431 1.389 . S
C1430 H1403 0.950 . S
C1430 C1416 1.377 . S
C1430 C1429 1.373 . S
C1431 C1415 1.377 . S
C1431 C1429 1.389 . S
C1431 C1432 1.524 . S
C1432 C1431 1.524 . S
C1432 C1433 1.397 . S
C1432 C1437 1.363 . S
C1433 H1404 0.950 . S
C1433 C1432 1.397 . S
C1433 C1434 1.334 . S
C1434 H1405 0.950 . S
C1434 C1433 1.334 . S
C1434 C1435 1.287 . S
C1435 C1434 1.287 . S
C1435 C1436 1.524 . S
C1435 H1438 0.999 . S
C1436 H1406 0.950 . S
C1436 C1435 1.524 . S
C1436 C1437 1.415 . S
C1437 H1407 0.950 . S
C1437 C1432 1.363 . S
C1437 C1436 1.415 . S
H1438 C1435 0.999 . S
H1439 C1420 0.913 . S
H1440 C1458 0.951 . S
H1441 C1460 0.951 . S
H1442 C1462 0.950 . S
H1443 C1463 0.950 . S
H1444 C1465 0.950 . S
H1445 C1468 0.950 . S
H1446 C1469 0.950 . S
H1447 C1471 0.950 . S
H1448 C1472 0.950 . S
H1449 C1473 0.951 . S
H1450 C1475 0.951 . S
H1451 C1477 0.950 . S
H1452 C1478 0.950 . S
H1453 C1480 0.950 . S
H1454 C1483 0.950 . S
H1455 C1484 0.950 . S
H1456 C1486 0.950 . S
H1457 C1487 0.950 . S
C1458 H1440 0.951 . S
C1458 C1459 1.366 . S
C1458 C1460 1.388 . S
C1459 C1458 1.366 . S
C1459 C1463 1.385 . S
C1460 H1441 0.951 . S
C1460 C1458 1.388 . S
C1460 C1461 1.366 . S
C1461 C1460 1.366 . S
C1461 C1462 1.414 . S
C1461 C1464 1.499 . S
C1462 H1442 0.950 . S
C1462 C1461 1.414 . S
C1462 C1463 1.374 . S
C1463 H1443 0.950 . S
C1463 C1459 1.385 . S
C1463 C1462 1.374 . S
C1464 C1461 1.499 . S
C1464 C1465 1.373 . S
C1464 C1466 1.389 . S
C1465 H1444 0.950 . S
C1465 C1464 1.373 . S
C1465 C1481 1.377 . S
C1466 C1464 1.389 . S
C1466 C1467 1.524 . S
C1466 C1480 1.377 . S
C1467 C1466 1.524 . S
C1467 C1468 1.397 . S
C1467 C1472 1.363 . S
C1468 H1445 0.950 . S
C1468 C1467 1.397 . S
C1468 C1469 1.334 1_556 S
C1469 H1446 0.950 . S
C1469 C1468 1.334 1_554 S
C1469 C1470 1.287 . S
C1470 C1469 1.287 . S
C1470 C1471 1.524 . S
C1470 H1489 0.913 . S
C1471 H1447 0.950 . S
C1471 C1470 1.524 . S
C1471 C1472 1.415 1_554 S
C1472 H1448 0.950 . S
C1472 C1467 1.363 . S
C1472 C1471 1.415 1_556 S
C1473 H1449 0.951 . S
C1473 C1474 1.366 . S
C1473 C1475 1.388 . S
C1474 C1473 1.366 . S
C1474 C1478 1.385 . S
C1475 H1450 0.951 . S
C1475 C1473 1.388 . S
C1475 C1476 1.366 . S
C1476 C1475 1.366 . S
C1476 C1477 1.414 . S
C1476 C1479 1.499 . S
C1477 H1451 0.950 . S
C1477 C1476 1.414 . S
C1477 C1478 1.374 . S
C1478 H1452 0.950 . S
C1478 C1474 1.385 . S
C1478 C1477 1.374 . S
C1479 C1476 1.499 . S
C1479 C1480 1.373 . S
C1479 C1481 1.389 . S
C1480 H1453 0.950 . S
C1480 C1466 1.377 . S
C1480 C1479 1.373 . S
C1481 C1465 1.377 . S
C1481 C1479 1.389 . S
C1481 C1482 1.524 . S
C1482 C1481 1.524 . S
C1482 C1483 1.397 . S
C1482 C1487 1.363 . S
C1483 H1454 0.950 . S
C1483 C1482 1.397 . S
C1483 C1484 1.334 . S
C1484 H1455 0.950 . S
C1484 C1483 1.334 . S
C1484 C1485 1.287 . S
C1485 C1484 1.287 . S
C1485 C1486 1.524 . S
C1485 H1488 0.999 . S
C1486 H1456 0.950 . S
C1486 C1485 1.524 . S
C1486 C1487 1.415 . S
C1487 H1457 0.950 . S
C1487 C1482 1.363 . S
C1487 C1486 1.415 . S
H1488 C1485 0.999 . S
H1489 C1470 0.913 . S
H1490 C1508 0.951 . S
H1491 C1510 0.951 . S
H1492 C1512 0.950 . S
H1493 C1513 0.950 . S
H1494 C1515 0.950 . S
H1495 C1518 0.950 . S
H1496 C1519 0.950 . S
H1497 C1521 0.950 . S
H1498 C1522 0.950 . S
H1499 C1523 0.951 . S
H1500 C1525 0.951 . S
H1501 C1527 0.950 . S
H1502 C1528 0.950 . S
H1503 C1530 0.950 . S
H1504 C1533 0.950 . S
H1505 C1534 0.950 . S
H1506 C1536 0.950 . S
H1507 C1537 0.950 . S
C1508 H1490 0.951 . S
C1508 C1509 1.366 . S
C1508 C1510 1.388 . S
C1509 C1508 1.366 . S
C1509 C1513 1.385 . S
C1510 H1491 0.951 . S
C1510 C1508 1.388 . S
C1510 C1511 1.366 . S
C1511 C1510 1.366 . S
C1511 C1512 1.414 . S
C1511 C1514 1.499 . S
C1512 H1492 0.950 . S
C1512 C1511 1.414 . S
C1512 C1513 1.374 . S
C1513 H1493 0.950 . S
C1513 C1509 1.385 . S
C1513 C1512 1.374 . S
C1514 C1511 1.499 . S
C1514 C1515 1.373 . S
C1514 C1516 1.389 . S
C1515 H1494 0.950 . S
C1515 C1514 1.373 . S
C1515 C1531 1.377 . S
C1516 C1514 1.389 . S
C1516 C1517 1.524 . S
C1516 C1530 1.377 . S
C1517 C1516 1.524 . S
C1517 C1518 1.397 . S
C1517 C1522 1.363 . S
C1518 H1495 0.950 . S
C1518 C1517 1.397 . S
C1518 C1519 1.334 . S
C1519 H1496 0.950 . S
C1519 C1518 1.334 . S
C1519 C1520 1.287 . S
C1520 C1519 1.287 . S
C1520 C1521 1.524 . S
C1520 H1539 0.913 . S
C1521 H1497 0.950 . S
C1521 C1520 1.524 . S
C1521 C1522 1.415 . S
C1522 H1498 0.950 . S
C1522 C1517 1.363 . S
C1522 C1521 1.415 . S
C1523 H1499 0.951 . S
C1523 C1524 1.366 . S
C1523 C1525 1.388 . S
C1524 C1523 1.366 . S
C1524 C1528 1.385 . S
C1525 H1500 0.951 . S
C1525 C1523 1.388 . S
C1525 C1526 1.366 . S
C1526 C1525 1.366 . S
C1526 C1527 1.414 . S
C1526 C1529 1.499 . S
C1527 H1501 0.950 . S
C1527 C1526 1.414 . S
C1527 C1528 1.374 . S
C1528 H1502 0.950 . S
C1528 C1524 1.385 . S
C1528 C1527 1.374 . S
C1529 C1526 1.499 . S
C1529 C1530 1.373 . S
C1529 C1531 1.389 . S
C1530 H1503 0.950 . S
C1530 C1516 1.377 . S
C1530 C1529 1.373 . S
C1531 C1515 1.377 . S
C1531 C1529 1.389 . S
C1531 C1532 1.524 . S
C1532 C1531 1.524 . S
C1532 C1533 1.397 . S
C1532 C1537 1.363 . S
C1533 H1504 0.950 . S
C1533 C1532 1.397 . S
C1533 C1534 1.334 . S
C1534 H1505 0.950 . S
C1534 C1533 1.334 . S
C1534 C1535 1.287 . S
C1535 C1534 1.287 . S
C1535 C1536 1.524 . S
C1535 H1538 0.999 . S
C1536 H1506 0.950 . S
C1536 C1535 1.524 . S
C1536 C1537 1.415 . S
C1537 H1507 0.950 . S
C1537 C1532 1.363 . S
C1537 C1536 1.415 . S
H1538 C1535 0.999 . S
H1539 C1520 0.913 . S
H1540 C1558 0.951 . S
H1541 C1560 0.951 . S
H1542 C1562 0.950 . S
H1543 C1563 0.950 . S
H1544 C1565 0.950 . S
H1545 C1568 0.950 . S
H1546 C1569 0.950 . S
H1547 C1571 0.950 . S
H1548 C1572 0.950 . S
H1549 C1573 0.951 . S
H1550 C1575 0.951 . S
H1551 C1577 0.950 . S
H1552 C1578 0.950 . S
H1553 C1580 0.950 . S
H1554 C1583 0.952 . S
H1555 C1584 0.950 . S
H1556 C1586 0.950 . S
H1557 C1587 0.950 . S
C1558 H1540 0.951 . S
C1558 C1559 1.366 . S
C1558 C1560 1.388 . S
C1559 C1558 1.366 . S
C1559 C1563 1.385 . S
C1560 H1541 0.951 . S
C1560 C1558 1.388 . S
C1560 C1561 1.366 . S
C1561 C1560 1.366 . S
C1561 C1562 1.414 . S
C1561 C1564 1.499 . S
C1562 H1542 0.950 . S
C1562 C1561 1.414 . S
C1562 C1563 1.374 . S
C1563 H1543 0.950 . S
C1563 C1559 1.385 . S
C1563 C1562 1.374 . S
C1564 C1561 1.499 . S
C1564 C1565 1.373 . S
C1564 C1566 1.389 . S
C1565 H1544 0.950 . S
C1565 C1564 1.373 . S
C1565 C1581 1.377 . S
C1566 C1564 1.389 . S
C1566 C1567 1.524 . S
C1566 C1580 1.377 . S
C1567 C1566 1.524 . S
C1567 C1568 1.397 . S
C1567 C1572 1.363 . S
C1568 H1545 0.950 . S
C1568 C1567 1.397 . S
C1568 C1569 1.334 . S
C1569 H1546 0.950 . S
C1569 C1568 1.334 . S
C1569 C1570 1.287 . S
C1570 C1569 1.287 . S
C1570 C1571 1.524 . S
C1570 H1589 0.913 . S
C1571 H1547 0.950 . S
C1571 C1570 1.524 . S
C1571 C1572 1.415 . S
C1572 H1548 0.950 . S
C1572 C1567 1.363 . S
C1572 C1571 1.415 . S
C1573 H1549 0.951 . S
C1573 C1574 1.366 . S
C1573 C1575 1.388 . S
C1574 C1573 1.366 . S
C1574 C1578 1.385 . S
C1575 H1550 0.951 . S
C1575 C1573 1.388 . S
C1575 C1576 1.366 . S
C1576 C1575 1.366 . S
C1576 C1577 1.414 . S
C1576 C1579 1.499 . S
C1577 H1551 0.950 . S
C1577 C1576 1.414 . S
C1577 C1578 1.374 . S
C1578 H1552 0.950 . S
C1578 C1574 1.385 . S
C1578 C1577 1.374 . S
C1579 C1576 1.499 . S
C1579 C1580 1.373 . S
C1579 C1581 1.389 . S
C1580 H1553 0.950 . S
C1580 C1566 1.377 . S
C1580 C1579 1.373 . S
C1581 C1565 1.377 . S
C1581 C1579 1.389 . S
C1581 C1582 1.524 . S
C1582 C1581 1.524 . S
C1582 C1583 1.397 1_554 S
C1582 C1587 1.363 . S
C1583 H1554 0.952 . S
C1583 C1582 1.397 1_556 S
C1583 C1584 1.334 . S
C1584 H1555 0.950 . S
C1584 C1583 1.334 . S
C1584 C1585 1.287 . S
C1585 C1584 1.287 . S
C1585 C1586 1.524 . S
C1585 H1588 0.999 . S
C1586 H1556 0.950 . S
C1586 C1585 1.524 . S
C1586 C1587 1.415 1_556 S
C1587 H1557 0.950 . S
C1587 C1582 1.363 . S
C1587 C1586 1.415 1_554 S
H1588 C1585 0.999 . S
H1589 C1570 0.913 . S
H1590 C1608 0.951 . S
H1591 C1610 0.951 . S
H1592 C1612 0.950 . S
H1593 C1613 0.950 . S
H1594 C1615 0.950 . S
H1595 C1618 0.950 . S
H1596 C1619 0.950 . S
H1597 C1621 0.950 . S
H1598 C1622 0.950 . S
H1599 C1623 0.951 . S
H1600 C1625 0.951 . S
H1601 C1627 0.950 . S
H1602 C1628 0.950 . S
H1603 C1630 0.950 . S
H1604 C1633 0.950 . S
H1605 C1634 0.950 . S
H1606 C1636 0.950 . S
H1607 C1637 0.950 . S
C1608 H1590 0.951 . S
C1608 C1609 1.366 . S
C1608 C1610 1.388 . S
C1609 C1608 1.366 . S
C1609 C1613 1.385 . S
C1610 H1591 0.951 . S
C1610 C1608 1.388 . S
C1610 C1611 1.366 . S
C1611 C1610 1.366 . S
C1611 C1612 1.414 . S
C1611 C1614 1.499 . S
C1612 H1592 0.950 . S
C1612 C1611 1.414 . S
C1612 C1613 1.374 . S
C1613 H1593 0.950 . S
C1613 C1609 1.385 . S
C1613 C1612 1.374 . S
C1614 C1611 1.499 . S
C1614 C1615 1.373 . S
C1614 C1616 1.389 . S
C1615 H1594 0.950 . S
C1615 C1614 1.373 . S
C1615 C1631 1.377 . S
C1616 C1614 1.389 . S
C1616 C1617 1.524 . S
C1616 C1630 1.377 . S
C1617 C1616 1.524 . S
C1617 C1618 1.397 . S
C1617 C1622 1.363 . S
C1618 H1595 0.950 . S
C1618 C1617 1.397 . S
C1618 C1619 1.334 . S
C1619 H1596 0.950 . S
C1619 C1618 1.334 . S
C1619 C1620 1.287 . S
C1620 C1619 1.287 . S
C1620 C1621 1.524 . S
C1620 H1639 0.913 . S
C1621 H1597 0.950 . S
C1621 C1620 1.524 . S
C1621 C1622 1.415 . S
C1622 H1598 0.950 . S
C1622 C1617 1.363 . S
C1622 C1621 1.415 . S
C1623 H1599 0.951 . S
C1623 C1624 1.366 . S
C1623 C1625 1.388 . S
C1624 C1623 1.366 . S
C1624 C1628 1.385 . S
C1625 H1600 0.951 . S
C1625 C1623 1.388 . S
C1625 C1626 1.366 . S
C1626 C1625 1.366 . S
C1626 C1627 1.414 . S
C1626 C1629 1.499 . S
C1627 H1601 0.950 . S
C1627 C1626 1.414 . S
C1627 C1628 1.374 . S
C1628 H1602 0.950 . S
C1628 C1624 1.385 . S
C1628 C1627 1.374 . S
C1629 C1626 1.499 . S
C1629 C1630 1.373 . S
C1629 C1631 1.389 . S
C1630 H1603 0.950 . S
C1630 C1616 1.377 . S
C1630 C1629 1.373 . S
C1631 C1615 1.377 . S
C1631 C1629 1.389 . S
C1631 C1632 1.524 . S
C1632 C1631 1.524 . S
C1632 C1633 1.397 . S
C1632 C1637 1.363 . S
C1633 H1604 0.950 . S
C1633 C1632 1.397 . S
C1633 C1634 1.334 . S
C1634 H1605 0.950 . S
C1634 C1633 1.334 . S
C1634 C1635 1.287 . S
C1635 C1634 1.287 . S
C1635 C1636 1.524 . S
C1635 H1638 0.999 . S
C1636 H1606 0.950 . S
C1636 C1635 1.524 . S
C1636 C1637 1.415 . S
C1637 H1607 0.950 . S
C1637 C1632 1.363 . S
C1637 C1636 1.415 . S
H1638 C1635 0.999 . S
H1639 C1620 0.913 . S
H1640 C1658 0.951 . S
H1641 C1660 0.951 . S
H1642 C1662 0.950 . S
H1643 C1663 0.950 . S
H1644 C1665 0.950 . S
H1645 C1668 0.950 . S
H1646 C1669 0.950 . S
H1647 C1671 0.950 . S
H1648 C1672 0.950 . S
H1649 C1673 0.951 . S
H1650 C1675 0.951 . S
H1651 C1677 0.950 . S
H1652 C1678 0.950 . S
H1653 C1680 0.950 . S
H1654 C1683 0.950 . S
H1655 C1684 0.950 . S
H1656 C1686 0.950 . S
H1657 C1687 0.950 1_556 S
C1658 H1640 0.951 . S
C1658 C1659 1.366 . S
C1658 C1660 1.388 . S
C1659 C1658 1.366 . S
C1659 C1663 1.385 . S
C1660 H1641 0.951 . S
C1660 C1658 1.388 . S
C1660 C1661 1.366 . S
C1661 C1660 1.366 . S
C1661 C1662 1.414 . S
C1661 C1664 1.499 . S
C1662 H1642 0.950 . S
C1662 C1661 1.414 . S
C1662 C1663 1.374 . S
C1663 H1643 0.950 . S
C1663 C1659 1.385 . S
C1663 C1662 1.374 . S
C1664 C1661 1.499 . S
C1664 C1665 1.373 . S
C1664 C1666 1.389 . S
C1665 H1644 0.950 . S
C1665 C1664 1.373 . S
C1665 C1681 1.377 . S
C1666 C1664 1.389 . S
C1666 C1667 1.524 . S
C1666 C1680 1.377 . S
C1667 C1666 1.524 . S
C1667 C1668 1.397 . S
C1667 C1672 1.363 . S
C1668 H1645 0.950 . S
C1668 C1667 1.397 . S
C1668 C1669 1.334 . S
C1669 H1646 0.950 . S
C1669 C1668 1.334 . S
C1669 C1670 1.287 . S
C1670 C1669 1.287 . S
C1670 C1671 1.524 . S
C1670 H1689 0.913 . S
C1671 H1647 0.950 . S
C1671 C1670 1.524 . S
C1671 C1672 1.415 . S
C1672 H1648 0.950 . S
C1672 C1667 1.363 . S
C1672 C1671 1.415 . S
C1673 H1649 0.951 . S
C1673 C1674 1.366 . S
C1673 C1675 1.388 . S
C1674 C1673 1.366 . S
C1674 C1678 1.385 . S
C1675 H1650 0.951 . S
C1675 C1673 1.388 . S
C1675 C1676 1.366 . S
C1676 C1675 1.366 . S
C1676 C1677 1.414 . S
C1676 C1679 1.499 . S
C1677 H1651 0.950 . S
C1677 C1676 1.414 . S
C1677 C1678 1.374 . S
C1678 H1652 0.950 . S
C1678 C1674 1.385 . S
C1678 C1677 1.374 . S
C1679 C1676 1.499 . S
C1679 C1680 1.373 . S
C1679 C1681 1.389 . S
C1680 H1653 0.950 . S
C1680 C1666 1.377 . S
C1680 C1679 1.373 . S
C1681 C1665 1.377 . S
C1681 C1679 1.389 . S
C1681 C1682 1.524 1_556 S
C1682 C1681 1.524 1_554 S
C1682 C1683 1.397 . S
C1682 C1687 1.363 . S
C1683 H1654 0.950 . S
C1683 C1682 1.397 . S
C1683 C1684 1.334 . S
C1684 H1655 0.950 . S
C1684 C1683 1.334 . S
C1684 C1685 1.287 . S
C1685 C1684 1.287 . S
C1685 C1686 1.524 . S
C1685 H1688 0.999 . S
C1686 H1656 0.950 . S
C1686 C1685 1.524 . S
C1686 C1687 1.415 . S
C1687 H1657 0.950 1_554 S
C1687 C1682 1.363 . S
C1687 C1686 1.415 . S
H1688 C1685 0.999 . S
H1689 C1670 0.913 . S
H1690 C1708 0.951 . S
H1691 C1710 0.951 . S
H1692 C1712 0.950 . S
H1693 C1713 0.950 . S
H1694 C1715 0.950 . S
H1695 C1718 0.950 . S
H1696 C1719 0.950 . S
H1697 C1721 0.950 . S
H1698 C1722 0.950 . S
H1699 C1723 0.951 . S
H1700 C1725 0.951 . S
H1701 C1727 0.950 . S
H1702 C1728 0.950 . S
H1703 C1730 0.950 . S
H1704 C1733 0.950 . S
H1705 C1734 0.950 . S
H1706 C1736 0.950 . S
H1707 C1737 0.950 . S
C1708 H1690 0.951 . S
C1708 C1709 1.366 . S
C1708 C1710 1.388 . S
C1709 C1708 1.366 . S
C1709 C1713 1.385 . S
C1710 H1691 0.951 . S
C1710 C1708 1.388 . S
C1710 C1711 1.366 . S
C1711 C1710 1.366 . S
C1711 C1712 1.414 . S
C1711 C1714 1.499 . S
C1712 H1692 0.950 . S
C1712 C1711 1.414 . S
C1712 C1713 1.374 . S
C1713 H1693 0.950 . S
C1713 C1709 1.385 . S
C1713 C1712 1.374 . S
C1714 C1711 1.499 . S
C1714 C1715 1.373 . S
C1714 C1716 1.389 . S
C1715 H1694 0.950 . S
C1715 C1714 1.373 . S
C1715 C1731 1.377 . S
C1716 C1714 1.389 . S
C1716 C1717 1.524 . S
C1716 C1730 1.377 . S
C1717 C1716 1.524 . S
C1717 C1718 1.397 . S
C1717 C1722 1.363 . S
C1718 H1695 0.950 . S
C1718 C1717 1.397 . S
C1718 C1719 1.334 . S
C1719 H1696 0.950 . S
C1719 C1718 1.334 . S
C1719 C1720 1.287 . S
C1720 C1719 1.287 . S
C1720 C1721 1.524 . S
C1720 H1739 0.913 . S
C1721 H1697 0.950 . S
C1721 C1720 1.524 . S
C1721 C1722 1.415 . S
C1722 H1698 0.950 . S
C1722 C1717 1.363 . S
C1722 C1721 1.415 . S
C1723 H1699 0.951 . S
C1723 C1724 1.366 . S
C1723 C1725 1.388 . S
C1724 C1723 1.366 . S
C1724 C1728 1.385 . S
C1725 H1700 0.951 . S
C1725 C1723 1.388 . S
C1725 C1726 1.366 . S
C1726 C1725 1.366 . S
C1726 C1727 1.414 . S
C1726 C1729 1.499 . S
C1727 H1701 0.950 . S
C1727 C1726 1.414 . S
C1727 C1728 1.374 . S
C1728 H1702 0.950 . S
C1728 C1724 1.385 . S
C1728 C1727 1.374 . S
C1729 C1726 1.499 . S
C1729 C1730 1.373 . S
C1729 C1731 1.389 . S
C1730 H1703 0.950 . S
C1730 C1716 1.377 . S
C1730 C1729 1.373 . S
C1731 C1715 1.377 . S
C1731 C1729 1.389 . S
C1731 C1732 1.524 . S
C1732 C1731 1.524 . S
C1732 C1733 1.397 . S
C1732 C1737 1.363 . S
C1733 H1704 0.950 . S
C1733 C1732 1.397 . S
C1733 C1734 1.334 . S
C1734 H1705 0.950 . S
C1734 C1733 1.334 . S
C1734 C1735 1.287 . S
C1735 C1734 1.287 . S
C1735 C1736 1.524 . S
C1735 H1738 0.999 . S
C1736 H1706 0.950 . S
C1736 C1735 1.524 . S
C1736 C1737 1.415 . S
C1737 H1707 0.950 . S
C1737 C1732 1.363 . S
C1737 C1736 1.415 . S
H1738 C1735 0.999 . S
H1739 C1720 0.913 . S
H1740 C1758 0.951 . S
H1741 C1760 0.951 . S
H1742 C1762 0.950 . S
H1743 C1763 0.950 . S
H1744 C1765 0.950 . S
H1745 C1768 0.950 . S
H1746 C1769 0.950 . S
H1747 C1771 0.927 1_655 S
H1748 C1772 0.950 . S
H1749 C1773 0.951 . S
H1750 C1775 0.951 . S
H1751 C1777 0.950 . S
H1752 C1778 0.950 . S
H1753 C1780 0.950 . S
H1754 C1783 0.950 . S
H1755 C1784 0.950 . S
H1756 C1786 0.950 . S
H1757 C1787 0.950 . S
C1758 H1740 0.951 . S
C1758 C1759 1.366 . S
C1758 C1760 1.388 . S
C1759 C1758 1.366 . S
C1759 C1763 1.385 . S
C1760 H1741 0.951 . S
C1760 C1758 1.388 . S
C1760 C1761 1.366 . S
C1761 C1760 1.366 . S
C1761 C1762 1.414 . S
C1761 C1764 1.499 . S
C1762 H1742 0.950 . S
C1762 C1761 1.414 . S
C1762 C1763 1.374 . S
C1763 H1743 0.950 . S
C1763 C1759 1.385 . S
C1763 C1762 1.374 . S
C1764 C1761 1.499 . S
C1764 C1765 1.373 . S
C1764 C1766 1.389 . S
C1765 H1744 0.950 . S
C1765 C1764 1.373 . S
C1765 C1781 1.377 . S
C1766 C1764 1.389 . S
C1766 C1767 1.524 . S
C1766 C1780 1.377 . S
C1767 C1766 1.524 . S
C1767 C1768 1.397 . S
C1767 C1772 1.363 . S
C1768 H1745 0.950 . S
C1768 C1767 1.397 . S
C1768 C1769 1.334 . S
C1769 H1746 0.950 . S
C1769 C1768 1.334 . S
C1769 C1770 1.287 . S
C1770 C1769 1.287 . S
C1770 C1771 1.524 . S
C1770 H1789 0.913 . S
C1771 H1747 0.927 1_455 S
C1771 C1770 1.524 . S
C1771 C1772 1.415 . S
C1772 H1748 0.950 . S
C1772 C1767 1.363 . S
C1772 C1771 1.415 . S
C1773 H1749 0.951 . S
C1773 C1774 1.366 . S
C1773 C1775 1.388 . S
C1774 C1773 1.366 . S
C1774 C1778 1.385 . S
C1775 H1750 0.951 . S
C1775 C1773 1.388 . S
C1775 C1776 1.366 . S
C1776 C1775 1.366 . S
C1776 C1777 1.414 . S
C1776 C1779 1.499 . S
C1777 H1751 0.950 . S
C1777 C1776 1.414 . S
C1777 C1778 1.374 . S
C1778 H1752 0.950 . S
C1778 C1774 1.385 . S
C1778 C1777 1.374 . S
C1779 C1776 1.499 . S
C1779 C1780 1.373 . S
C1779 C1781 1.389 . S
C1780 H1753 0.950 . S
C1780 C1766 1.377 . S
C1780 C1779 1.373 . S
C1781 C1765 1.377 . S
C1781 C1779 1.389 . S
C1781 C1782 1.524 . S
C1782 C1781 1.524 . S
C1782 C1783 1.397 . S
C1782 C1787 1.363 . S
C1783 H1754 0.950 . S
C1783 C1782 1.397 . S
C1783 C1784 1.334 . S
C1784 H1755 0.950 . S
C1784 C1783 1.334 . S
C1784 C1785 1.287 . S
C1785 C1784 1.287 . S
C1785 C1786 1.524 . S
C1785 H1788 0.999 . S
C1786 H1756 0.950 . S
C1786 C1785 1.524 . S
C1786 C1787 1.415 . S
C1787 H1757 0.950 . S
C1787 C1782 1.363 . S
C1787 C1786 1.415 . S
H1788 C1785 0.999 . S
H1789 C1770 0.913 . S
H1790 C1808 0.951 . S
H1791 C1810 0.951 . S
H1792 C1812 0.950 . S
H1793 C1813 0.950 . S
H1794 C1815 0.950 . S
H1795 C1818 0.950 . S
H1796 C1819 0.950 . S
H1797 C1821 0.950 . S
H1798 C1822 0.950 . S
H1799 C1823 0.951 . S
H1800 C1825 0.951 . S
H1801 C1827 0.950 . S
H1802 C1828 0.950 . S
H1803 C1830 0.950 . S
H1804 C1833 0.950 . S
H1805 C1834 0.950 . S
H1806 C1836 0.950 . S
H1807 C1837 0.950 . S
C1808 H1790 0.951 . S
C1808 C1809 1.366 . S
C1808 C1810 1.388 . S
C1809 C1808 1.366 . S
C1809 C1813 1.385 . S
C1810 H1791 0.951 . S
C1810 C1808 1.388 . S
C1810 C1811 1.366 . S
C1811 C1810 1.366 . S
C1811 C1812 1.414 . S
C1811 C1814 1.499 . S
C1812 H1792 0.950 . S
C1812 C1811 1.414 . S
C1812 C1813 1.374 . S
C1813 H1793 0.950 . S
C1813 C1809 1.385 . S
C1813 C1812 1.374 . S
C1814 C1811 1.499 . S
C1814 C1815 1.373 . S
C1814 C1816 1.389 . S
C1815 H1794 0.950 . S
C1815 C1814 1.373 . S
C1815 C1831 1.377 . S
C1816 C1814 1.389 . S
C1816 C1817 1.524 . S
C1816 C1830 1.377 . S
C1817 C1816 1.524 . S
C1817 C1818 1.397 . S
C1817 C1822 1.363 . S
C1818 H1795 0.950 . S
C1818 C1817 1.397 . S
C1818 C1819 1.334 . S
C1819 H1796 0.950 . S
C1819 C1818 1.334 . S
C1819 C1820 1.287 . S
C1820 C1819 1.287 . S
C1820 C1821 1.524 . S
C1820 H1839 0.913 . S
C1821 H1797 0.950 . S
C1821 C1820 1.524 . S
C1821 C1822 1.415 . S
C1822 H1798 0.950 . S
C1822 C1817 1.363 . S
C1822 C1821 1.415 . S
C1823 H1799 0.951 . S
C1823 C1824 1.366 . S
C1823 C1825 1.388 . S
C1824 C1823 1.366 . S
C1824 C1828 1.385 . S
C1825 H1800 0.951 . S
C1825 C1823 1.388 . S
C1825 C1826 1.366 . S
C1826 C1825 1.366 . S
C1826 C1827 1.414 . S
C1826 C1829 1.499 . S
C1827 H1801 0.950 . S
C1827 C1826 1.414 . S
C1827 C1828 1.374 . S
C1828 H1802 0.950 . S
C1828 C1824 1.385 . S
C1828 C1827 1.374 . S
C1829 C1826 1.499 . S
C1829 C1830 1.373 . S
C1829 C1831 1.389 . S
C1830 H1803 0.950 . S
C1830 C1816 1.377 . S
C1830 C1829 1.373 . S
C1831 C1815 1.377 . S
C1831 C1829 1.389 . S
C1831 C1832 1.524 . S
C1832 C1831 1.524 . S
C1832 C1833 1.397 . S
C1832 C1837 1.363 . S
C1833 H1804 0.950 . S
C1833 C1832 1.397 . S
C1833 C1834 1.334 . S
C1834 H1805 0.950 . S
C1834 C1833 1.334 . S
C1834 C1835 1.287 . S
C1835 C1834 1.287 . S
C1835 C1836 1.524 . S
C1835 H1838 0.999 . S
C1836 H1806 0.950 . S
C1836 C1835 1.524 . S
C1836 C1837 1.415 . S
C1837 H1807 0.950 . S
C1837 C1832 1.363 . S
C1837 C1836 1.415 . S
H1838 C1835 0.999 . S
H1839 C1820 0.913 . S
C659 C1 2.902 . S
C674 C499 2.912 . S
C709 C80 2.459 . S
C724 C530 2.473 . S
C774 C569 1.291 . S
C759 C140 1.313 . S
C809 C211 0.382 . S
C824 C606 0.392 . S
C874 C529 2.843 . S
C859 C31 2.884 . S
C924 C486 1.617 . S
C909 C61 1.577 . S
C974 C618 1.324 . S
C959 C151 1.325 . S
C1024 C575 0.910 . S
C1009 C200 0.899 . S
C1059 C20 2.278 . S
C1074 C619 2.279 . S
C1124 C535 1.276 . S
C1109 C121 1.243 . S
C1159 C181 0.577 . S
C1174 C498 0.604 . S
C1209 C91 2.600 . S
C1224 C570 2.614 . S
C1274 C490 2.912 . S
C1259 C260 2.920 . S
C1309 C320 2.459 . S
C1324 C539 2.473 . S
C1359 C361 1.338 . S
C1374 C578 1.291 . S
C1409 C451 0.380 . S
C1424 C615 0.391 . S
C1459 C271 2.917 . S
C1474 C538 2.843 . S
C1524 C495 1.617 . S
C1509 C301 1.578 . S
C1574 C609 1.323 . S
C1559 C380 1.346 . S
C1624 C566 0.909 . S
C1609 C440 0.900 . S
C1659 C241 2.236 . S
C1674 C610 2.280 . S
C1724 C526 1.276 . S
C1709 C391 1.254 . S
C1774 C489 0.606 . S
C1759 C421 0.576 . S
C1809 C331 2.600 . S
C1824 C579 2.614 . S
