# Generated by pormake.
# Topology rtl, (3,6)-cn, num edge types: 1
# Building blocks:
#     Node 0, Type 0, BuildingBlock: BETDIP_clean_linker_0, # of connection points: 3
#     Node 1, Type 0, BuildingBlock: BETDIP_clean_linker_0, # of connection points: 3
#     Node 2, Type 0, BuildingBlock: BETDIP_clean_linker_0, # of connection points: 3
#     Node 3, Type 0, BuildingBlock: BETDIP_clean_linker_0, # of connection points: 3
#     Node 4, Type 1, BuildingBlock: KUMJIN_clean_sbu_1, # of connection points: 6
#     Node 5, Type 1, BuildingBlock: KUMJIN_clean_sbu_1, # of connection points: 6
#     Edge 6, Type (0, 1), BuildingBlock: CIFDUS_clean_linker_0, # of connection points: 2
#     Edge 7, Type (0, 1), BuildingBlock: CIFDUS_clean_linker_0, # of connection points: 2
#     Edge 8, Type (0, 1), BuildingBlock: CIFDUS_clean_linker_0, # of connection points: 2
#     Edge 9, Type (0, 1), BuildingBlock: CIFDUS_clean_linker_0, # of connection points: 2
#     Edge 10, Type (0, 1), BuildingBlock: CIFDUS_clean_linker_0, # of connection points: 2
#     Edge 11, Type (0, 1), BuildingBlock: CIFDUS_clean_linker_0, # of connection points: 2
#     Edge 12, Type (0, 1), BuildingBlock: CIFDUS_clean_linker_0, # of connection points: 2
#     Edge 13, Type (0, 1), BuildingBlock: CIFDUS_clean_linker_0, # of connection points: 2
#     Edge 14, Type (0, 1), BuildingBlock: CIFDUS_clean_linker_0, # of connection points: 2
#     Edge 15, Type (0, 1), BuildingBlock: CIFDUS_clean_linker_0, # of connection points: 2
#     Edge 16, Type (0, 1), BuildingBlock: CIFDUS_clean_linker_0, # of connection points: 2
#     Edge 17, Type (0, 1), BuildingBlock: CIFDUS_clean_linker_0, # of connection points: 2
# Relax obj value: 0.053
# Max RMSD: 0.227
# Mean RMSD: 0.165
data_MOF--net-rtl--node1-KUMJIN_clean_sbu_1--node2-BETDIP_clean_linker_0--edge1-CIFDUS_clean_linker_0
_symmetry_space_group_name_H-M    P1
_symmetry_Int_Tables_number       1
_symmetry_cell_setting            triclinic
loop_
_symmetry_equiv_pos_as_xyz
'x, y, z'
_cell_length_a     31.266349
_cell_length_b     31.464066
_cell_length_c     24.255939
_cell_angle_alpha  76.351316
_cell_angle_beta   100.60461
_cell_angle_gamma 91.150081
loop_
_atom_site_label
_atom_site_type_symbol
_atom_site_fract_x
_atom_site_fract_y
_atom_site_fract_z
_atom_type_partial_charge
H0 H 0.24664 0.83592 0.93659 0.0
H1 H 0.26002 0.83482 0.11583 0.0
H2 H 0.1898 0.94069 0.988 0.0
H3 H 0.34605 0.81201 0.06248 0.0
C4 C 0.32543 0.78399 0.06039 0.0
C5 C 0.24222 0.85281 0.96929 0.0
C6 C 0.21683 0.89184 0.95396 0.0
C7 C 0.25974 0.83342 0.02732 0.0
C8 C 0.25061 0.85233 0.07108 0.0
C9 C 0.22459 0.89072 0.05685 0.0
C10 C 0.21022 0.91142 0.99834 0.0
N11 N 0.27984 0.79113 0.04149 0.0
H12 H 0.68055 0.75225 0.74131 0.0
H13 H 0.67929 0.7556 0.56264 0.0
H14 H 0.62533 0.64804 0.67017 0.0
H15 H 0.73378 0.79508 0.56612 0.0
C16 C 0.74367 0.8043 0.60669 0.0
C17 C 0.67245 0.73754 0.7047 0.0
C18 C 0.64554 0.70093 0.70777 0.0
C19 C 0.68879 0.75504 0.6536 0.0
C20 C 0.67243 0.73896 0.60388 0.0
C21 C 0.64648 0.70149 0.60759 0.0
C22 C 0.63921 0.68012 0.66241 0.0
N23 N 0.72152 0.78777 0.65366 0.0
H24 H 0.75761 0.19293 0.98897 0.0
H25 H 0.78521 0.17286 0.17145 0.0
H26 H 0.85041 0.09152 0.09193 0.0
H27 H 0.68513 0.20106 0.08766 0.0
C28 C 0.70569 0.22943 0.08592 0.0
C29 C 0.77551 0.1742 0.0295 0.0
C30 C 0.80411 0.13911 0.03228 0.0
C31 C 0.76984 0.18676 0.07932 0.0
C32 C 0.79042 0.16281 0.1334 0.0
C33 C 0.8189 0.12755 0.13833 0.0
C34 C 0.82598 0.11645 0.08763 0.0
N35 N 0.74827 0.22701 0.07452 0.0
H36 H 0.34594 0.28296 0.36373 0.0
H37 H 0.3245 0.27479 0.53554 0.0
H38 H 0.43154 0.34748 0.47579 0.0
H39 H 0.30373 0.20819 0.53188 0.0
C40 C 0.28572 0.21142 0.48829 0.0
C41 C 0.35547 0.29108 0.40521 0.0
C42 C 0.3907 0.31895 0.41414 0.0
C43 C 0.33324 0.27253 0.45029 0.0
C44 C 0.34459 0.28497 0.50332 0.0
C45 C 0.38056 0.31157 0.51421 0.0
C46 C 0.40358 0.32748 0.46908 0.0
N47 N 0.29947 0.24196 0.44158 0.0
Eu48 Eu 0.03851 0.97118 0.51722 0.0
C49 C 0.9459 0.15464 0.50969 0.0
N50 N 0.98478 0.13575 0.53882 0.0
C51 C 0.01929 0.20501 0.51848 0.0
C52 C 0.94245 0.19983 0.4831 0.0
C53 C 0.02091 0.16036 0.54493 0.0
C54 C 0.97989 0.22485 0.48727 0.0
C55 C 0.86907 0.1474 0.47366 0.0
C56 C 0.9097 0.12854 0.50464 0.0
C57 C 0.86535 0.19251 0.44859 0.0
C58 C 0.902 0.21858 0.45292 0.0
Eu59 Eu 0.98451 0.06053 0.58344 0.0
N60 N 0.91458 0.08461 0.52745 0.0
C61 C 0.83346 0.12026 0.46763 0.0
C62 C 0.88013 0.05797 0.51938 0.0
C63 C 0.83914 0.07532 0.49018 0.0
H64 H 0.05076 0.14592 0.57136 0.0
H65 H 0.81196 0.05389 0.48473 0.0
H66 H 0.97752 0.8814 0.51685 0.0
H67 H 0.21481 0.97507 0.5831 0.0
H68 H 0.88361 0.02327 0.53452 0.0
H69 H 0.80171 0.13353 0.4446 0.0
H70 H 0.14158 1.00419 0.5326 0.0
H71 H 0.04829 0.2242 0.52293 0.0
H72 H 0.83439 0.20742 0.42483 0.0
H73 H 0.89875 0.25322 0.43251 0.0
H74 H 0.9804 0.80341 0.56755 0.0
H75 H 0.97863 0.25952 0.46705 0.0
H76 H 0.22401 0.89887 0.64172 0.0
N77 N 0.03904 0.89526 0.56211 0.0
C78 C 0.07764 0.87756 0.59418 0.0
C79 C 0.00764 0.82403 0.57671 0.0
C80 C 0.08192 0.83248 0.62125 0.0
C81 C 1.0054 0.86857 0.54976 0.0
C82 C 0.0458 0.80604 0.61372 0.0
N83 N 0.10946 0.94625 0.56578 0.0
C84 C 0.14518 0.97133 0.55925 0.0
C85 C 0.15533 0.88529 0.62385 0.0
C86 C 0.11402 0.90357 0.59524 0.0
C87 C 0.19175 0.91172 0.62035 0.0
C88 C 0.1867 0.95477 0.58735 0.0
H89 H 0.04782 0.77131 0.63363 0.0
H90 H 0.12634 0.78026 0.67353 0.0
H91 H 0.1906 0.82657 0.67605 0.0
O92 O 0.06396 0.9901 0.43268 0.0
O93 O 0.07235 0.97844 0.6062 0.0
O94 O 0.01388 0.99587 0.64112 0.0
O95 O 0.04004 0.92579 0.46568 0.0
O96 O 0.06492 0.04094 0.50073 0.0
O97 O 0.05651 0.06538 0.58115 0.0
O98 O 0.9424 0.06855 0.64329 0.0
O99 O 0.98334 0.07253 0.48722 0.0
O100 O 0.97354 1.0042 0.47021 0.0
O101 O 0.00977 0.09107 0.65457 0.0
O102 O 0.95056 0.99686 0.59695 0.0
O103 O 0.97181 0.95052 0.544 0.0
C104 C 0.05453 0.98232 0.64977 0.0
C105 C 0.06266 0.93205 0.37613 0.0
C106 C 0.09981 0.92295 0.29861 0.0
C107 C 0.07936 0.88235 0.30039 0.0
C108 C 0.03999 0.89346 0.3716 0.0
C109 C 0.04897 0.86856 0.33507 0.0
C110 C 0.09242 0.94753 0.3384 0.0
C111 C 0.07699 0.06542 0.53819 0.0
C112 C 0.05726 0.95052 0.4256 0.0
C113 C 0.12257 0.81471 0.65221 0.0
C114 C 0.15919 0.84105 0.65348 0.0
C115 C 0.96666 0.04677 0.45372 0.0
C116 C 0.96708 0.10008 0.72576 0.0
C117 C 0.93144 0.0943 0.80846 0.0
C118 C 0.96194 0.12283 0.82917 0.0
C119 C 0.99666 0.12918 0.74686 0.0
C120 C 0.93383 0.08289 0.75642 0.0
C121 C 0.99407 0.14039 0.79832 0.0
C122 C 0.94639 0.96122 0.57738 0.0
C123 C 0.97337 0.08575 0.67424 0.0
H124 H 0.08618 0.86114 0.27359 0.0
H125 H 0.01625 0.88102 0.39844 0.0
H126 H 0.0326 0.83803 0.3341 0.0
H127 H 0.10954 0.97758 0.34025 0.0
H128 H 0.96014 0.13239 0.86881 0.0
H129 H 0.02217 0.14301 0.72381 0.0
H130 H 0.91036 0.06081 0.74034 0.0
H131 H 0.017 0.16284 0.81433 0.0
Eu132 Eu 0.46816 0.49453 0.99733 0.0
C133 C 0.65354 0.56217 0.10073 0.0
N134 N 0.63459 0.52368 0.1201 0.0
C135 C 0.70334 0.48572 0.13861 0.0
C136 C 0.69795 0.56349 0.09643 0.0
C137 C 0.65935 0.48641 0.14275 0.0
C138 C 0.72253 0.52432 0.11409 0.0
C139 C 0.64747 0.6412 0.06746 0.0
C140 C 0.62848 0.6005 0.08575 0.0
C141 C 0.69136 0.64256 0.06149 0.0
C142 C 0.71646 0.60377 0.07558 0.0
Eu143 Eu 0.5592 0.52707 0.12053 0.0
N144 N 0.58552 0.59792 0.0891 0.0
C145 C 0.62184 0.6793 0.05637 0.0
C146 C 0.56174 0.63488 0.08365 0.0
C147 C 0.57904 0.67614 0.06588 0.0
H148 H 0.64535 0.45777 0.16621 0.0
H149 H 0.55962 0.70543 0.06046 0.0
H150 H 0.38728 0.57059 0.96953 0.0
H151 H 0.46949 0.31943 0.0994 0.0
H152 H 0.5301 0.63255 0.09526 0.0
H153 H 0.63521 0.71125 0.04251 0.0
H154 H 0.50213 0.39031 0.06716 0.0
H155 H 0.72255 0.45567 0.15536 0.0
H156 H 0.70634 0.67348 0.04663 0.0
H157 H 0.75039 0.60536 0.07133 0.0
H158 H 0.30942 0.57295 0.9747 0.0
H159 H 0.75666 0.52385 0.11113 0.0
H160 H 0.38991 0.31512 0.09445 0.0
N161 N 0.39413 0.50161 1.00197 0.0
C162 C 0.37383 0.46335 0.01893 0.0
C163 C 0.32718 0.54195 0.98739 0.0
C164 C 0.329 0.46317 0.02091 0.0
C165 C 0.37151 0.54056 0.98543 0.0
C166 C 0.3058 0.50312 0.0051 0.0
N167 N 0.44234 0.42589 0.04068 0.0
C168 C 0.46767 0.38895 0.06305 0.0
C169 C 0.37832 0.38456 0.05779 0.0
C170 C 0.39843 0.42438 0.03782 0.0
C171 C 0.40416 0.34635 0.07904 0.0
C172 C 0.44908 0.34865 0.08205 0.0
H173 H 0.27143 0.50434 0.00655 0.0
H174 H 0.27448 0.42271 0.0413 0.0
H175 H 0.31751 0.35393 0.07287 0.0
O176 O 0.47037 0.45566 0.93222 0.0
O177 O 0.45466 0.48322 0.08924 0.0
O178 O 0.52115 0.46638 0.14886 0.0
O179 O 0.42539 0.51173 0.91416 0.0
O180 O 0.53575 0.46397 0.01216 0.0
O181 O 0.56924 0.45841 0.10737 0.0
O182 O 0.54925 0.56008 0.18878 0.0
O183 O 0.57251 0.54806 0.02893 0.0
O184 O 0.50906 0.55102 0.96078 0.0
O185 O 0.60031 0.50987 0.20486 0.0
O186 O 0.4911 0.5595 0.09838 0.0
O187 O 0.46698 0.56565 1.00083 0.0
C188 C 0.47856 0.46419 0.13937 0.0
C189 C 0.42025 0.47347 0.83777 0.0
C190 C 0.41739 0.43797 0.75779 0.0
C191 C 0.38082 0.46423 0.72772 0.0
C192 C 0.38354 0.49927 0.80632 0.0
C193 C 0.3641 0.49463 0.75181 0.0
C194 C 0.43731 0.44239 0.81326 0.0
C195 C 0.56404 0.44538 0.05851 0.0
C196 C 0.43913 0.47975 0.89587 0.0
C197 C 0.3089 0.42342 0.03972 0.0
C198 C 0.33341 0.38423 0.0577 0.0
C199 C 0.55019 0.56046 0.97592 0.0
C200 C 0.59857 0.54433 0.28306 0.0
C201 C 0.608 0.58805 0.35468 0.0
C202 C 0.63879 0.55702 0.39082 0.0
C203 C 0.62944 0.51369 0.32019 0.0
C204 C 0.58776 0.58186 0.3005 0.0
C205 C 0.64933 0.52008 0.37367 0.0
C206 C 0.46862 0.57996 0.04783 0.0
C207 C 0.58314 0.53948 0.22384 0.0
H208 H 0.36543 0.46149 0.68487 0.0
H209 H 0.36957 0.52322 0.82387 0.0
H210 H 0.33602 0.51483 0.72798 0.0
H211 H 0.46571 0.42236 0.83653 0.0
H212 H 0.65494 0.56162 0.43249 0.0
H213 H 0.63906 0.48509 0.30742 0.0
H214 H 0.56483 0.60636 0.27194 0.0
H215 H 0.6734 0.49658 0.40165 0.0
H216 H 0.2319 0.19541 0.56288 0.0
H217 H 0.25025 0.16919 0.40249 0.0
H218 H 0.18746 0.12037 0.40343 0.0
H219 H 0.12716 0.0846 0.45207 0.0
H220 H 0.11605 0.10924 0.61698 0.0
H221 H 0.17471 0.16006 0.61086 0.0
C222 C 0.2218 0.17939 0.52771 0.0
C223 C 0.24517 0.18619 0.48247 0.0
C224 C 0.18639 0.15139 0.52903 0.0
C225 C 0.23206 0.16516 0.43723 0.0
C226 C 0.19641 0.13697 0.43811 0.0
C227 C 0.13767 0.10105 0.48662 0.0
C228 C 0.11573 0.09386 0.534 0.0
C229 C 0.17329 0.12965 0.48411 0.0
C230 C 0.1308 0.11486 0.57892 0.0
C231 C 0.16483 0.14389 0.57587 0.0
H232 H 0.40009 0.77127 0.02614 0.0
H233 H 0.29621 0.70124 0.09924 0.0
H234 H 0.33171 0.63119 0.10347 0.0
H235 H 0.39411 0.58999 0.08766 0.0
H236 H 0.48824 0.66162 0.99519 0.0
H237 H 0.45563 0.73088 0.99798 0.0
C238 C 0.38533 0.74062 0.04307 0.0
C239 C 0.34606 0.74128 0.0631 0.0
C240 C 0.40461 0.70081 0.04236 0.0
C241 C 0.32666 0.70145 0.08392 0.0
C242 C 0.34694 0.66146 0.08631 0.0
C243 C 0.40712 0.62089 0.0679 0.0
C244 C 0.4447 0.62101 0.04357 0.0
C245 C 0.38611 0.66072 0.06581 0.0
C246 C 0.46027 0.66096 0.01589 0.0
C247 C 0.44153 0.70051 0.01725 0.0
H248 H 0.76881 0.87961 0.64138 0.0
H249 H 0.81576 0.77251 0.58458 0.0
H250 H 0.88384 0.80995 0.57268 0.0
H251 H 0.92568 0.8767 0.56698 0.0
H252 H 0.88122 0.98269 0.62863 0.0
H253 H 0.81654 0.94299 0.64822 0.0
C254 C 0.79451 0.86411 0.62795 0.0
C255 C 0.78746 0.82336 0.61389 0.0
C256 C 0.83344 0.88636 0.61989 0.0
C257 C 0.82065 0.8039 0.59564 0.0
C258 C 0.85942 0.82545 0.58835 0.0
C259 C 0.90246 0.89129 0.58481 0.0
C260 C 0.90862 0.93372 0.59359 0.0
C261 C 0.86554 0.86744 0.59823 0.0
C262 C 0.87756 0.95078 0.619 0.0
C263 C 0.84027 0.92787 0.63095 0.0
H264 H 0.62783 0.26397 0.02706 0.0
H265 H 0.74178 0.29053 0.14244 0.0
H266 H 0.70807 0.35957 0.1455 0.0
H267 H 0.6447 0.40979 0.11799 0.0
H268 H 0.53691 0.38989 0.98855 0.0
H269 H 0.56944 0.32044 0.98849 0.0
C270 C 0.64515 0.28503 0.05275 0.0
C271 C 0.68663 0.2721 0.08536 0.0
C272 C 0.62647 0.32542 0.05216 0.0
C273 C 0.70952 0.29987 0.11743 0.0
C274 C 0.69026 0.33921 0.11921 0.0
C275 C 0.62811 0.39086 0.0898 0.0
C276 C 0.58724 0.40501 0.05546 0.0
C277 C 0.64841 0.35203 0.08724 0.0
C278 C 0.56773 0.37974 0.01709 0.0
C279 C 0.58636 0.33986 0.01675 0.0
H280 H 0.24788 0.92979 0.1509 0.0
H281 H 0.14252 0.87037 0.05578 0.0
H282 H 0.09262 0.88835 0.11267 0.0
H283 H 0.07812 0.91864 0.18878 0.0
H284 H 0.18349 0.95845 0.30558 0.0
H285 H 0.23295 0.95634 0.23743 0.0
C286 C 0.21403 0.92083 0.14316 0.0
C287 C 0.19846 0.8996 0.09825 0.0
C288 C 0.18522 0.92975 0.17825 0.0
C289 C 0.15482 0.88752 0.08912 0.0
C290 C 0.1262 0.89804 0.12134 0.0
C291 C 0.11207 0.92665 0.1999 0.0
C292 C 0.12731 0.93686 0.25329 0.0
C293 C 0.14091 0.91921 0.16555 0.0
C294 C 0.17084 0.94958 0.26526 0.0
C295 C 0.19932 0.94737 0.22686 0.0
H296 H 0.67421 0.67703 0.82487 0.0
H297 H 0.55953 0.68481 0.69317 0.0
H298 H 0.51931 0.64186 0.76312 0.0
H299 H 0.51728 0.59912 0.86179 0.0
H300 H 0.6358 0.58205 0.98788 0.0
H301 H 0.6723 0.63353 0.92273 0.0
C302 C 0.64009 0.67049 0.8121 0.0
C303 C 0.62001 0.68427 0.75414 0.0
C304 C 0.61718 0.64466 0.85236 0.0
C305 C 0.57577 0.67475 0.73787 0.0
C306 C 0.5527 0.64991 0.77774 0.0
C307 C 0.55102 0.60676 0.87515 0.0
C308 C 0.57273 0.58872 0.93192 0.0
C309 C 0.57324 0.634 0.8351 0.0
C310 C 0.61696 0.59798 0.94692 0.0
C311 C 0.63843 0.62676 0.90872 0.0
H312 H 0.85552 0.16382 0.22669 0.0
H313 H 0.83964 0.03978 0.17952 0.0
H314 H 0.88329 1.00325 0.27272 0.0
H315 H 0.92655 0.00684 0.36838 0.0
H316 H 0.94671 0.13322 0.40816 0.0
H317 H 0.89893 0.16772 0.31926 0.0
C318 C 0.8608 0.12865 0.23697 0.0
C319 C 0.84393 0.10468 0.19602 0.0
C320 C 0.88619 0.10796 0.29025 0.0
C321 C 0.85239 0.05922 0.20995 0.0
C322 C 0.87723 0.03823 0.26343 0.0
C323 C 0.92046 0.0419 0.35761 0.0
C324 C 0.93911 0.06698 0.3967 0.0
C325 C 0.89452 0.06231 0.304 0.0
C326 C 0.93148 0.11254 0.38089 0.0
C327 C 0.90454 0.13261 0.32924 0.0
H328 H 0.42854 0.38209 0.53968 0.0
H329 H 0.36331 0.26832 0.62199 0.0
H330 H 0.37634 0.29314 0.71088 0.0
H331 H 0.39751 0.35302 0.76081 0.0
H332 H 0.47087 0.45979 0.68116 0.0
H333 H 0.46694 0.42891 0.59713 0.0
C334 C 0.41844 0.36098 0.57682 0.0
C335 C 0.39346 0.32362 0.57171 0.0
C336 C 0.42843 0.37373 0.62933 0.0
C337 C 0.38048 0.29846 0.62212 0.0
C338 C 0.38869 0.31214 0.67394 0.0
C339 C 0.41459 0.36814 0.72635 0.0
C340 C 0.4342 0.40875 0.72677 0.0
C341 C 0.41148 0.35051 0.6775 0.0
C342 C 0.45591 0.42835 0.68181 0.0
C343 C 0.45283 0.41116 0.63324 0.0
H344 H 0.66091 0.72355 0.49329 0.0
H345 H 0.57795 0.64364 0.59995 0.0
H346 H 0.5533 0.60619 0.52605 0.0
H347 H 0.56162 0.58862 0.43615 0.0
H348 H 0.6371 0.67123 0.32417 0.0
H349 H 0.65329 0.71858 0.39227 0.0
C350 C 0.63697 0.69869 0.50102 0.0
C351 C 0.62536 0.68447 0.55605 0.0
C352 C 0.61948 0.67873 0.4558 0.0
C353 C 0.59222 0.65313 0.56175 0.0
C354 C 0.57632 0.63217 0.51818 0.0
C355 C 0.57994 0.61819 0.42554 0.0
C356 C 0.59887 0.62621 0.37625 0.0
C357 C 0.59085 0.64362 0.46591 0.0
C358 C 0.62247 0.66445 0.36239 0.0
C359 C 0.63249 0.69089 0.4019 0.0
H360 H 0.84124 0.06321 0.01792 0.0
H361 H 0.78984 0.19163 0.9202 0.0
H362 H 0.81136 0.17882 0.83594 0.0
H363 H 0.85882 0.14061 0.79437 0.0
H364 H 0.92665 0.02252 0.89638 0.0
H365 H 0.88536 0.02185 0.97346 0.0
C366 C 0.83504 0.08907 0.97894 0.0
C367 C 0.81395 0.12885 0.97792 0.0
C368 C 0.85096 0.08334 0.93037 0.0
C369 C 0.80496 0.16023 0.9246 0.0
C370 C 0.81786 0.15328 0.87541 0.0
C371 C 0.86301 0.11374 0.83252 0.0
C372 C 0.8953 0.08169 0.83988 0.0
C373 C 0.84253 0.11606 0.87846 0.0
C374 C 0.90137 0.04725 0.88964 0.0
C375 C 0.87839 0.04745 0.93411 0.0
H376 H 0.35592 0.35746 0.30167 0.0
H377 H 0.47854 0.33062 0.42037 0.0
H378 H 0.51616 0.37411 0.34763 0.0
H379 H 0.51478 0.41987 0.24958 0.0
H380 H 0.39115 0.4518 0.13472 0.0
H381 H 0.35431 0.40466 0.20468 0.0
C382 C 0.39099 0.36031 0.31126 0.0
C383 C 0.41411 0.34063 0.36671 0.0
C384 C 0.41265 0.38575 0.26916 0.0
C385 C 0.45958 0.34562 0.37841 0.0
C386 C 0.4813 0.37046 0.33667 0.0
C387 C 0.4798 0.41648 0.23973 0.0
C388 C 0.45625 0.43794 0.18522 0.0
C389 C 0.4582 0.39087 0.28187 0.0
C390 C 0.41071 0.43403 0.17452 0.0
C391 C 0.38932 0.40748 0.21519 0.0
H392 H 0.1347 0.92971 0.91728 0.0
H393 H 0.2445 0.89245 0.85233 0.0
H394 H 0.20433 0.91672 0.75362 0.0
H395 H 0.13823 0.94906 0.68552 0.0
H396 H 0.02917 0.98722 0.75051 0.0
H397 H 0.06985 0.96416 0.84913 0.0
C398 C 0.15053 0.92769 0.88178 0.0
C399 C 0.19308 0.90924 0.89304 0.0
C400 C 0.12738 0.94222 0.82481 0.0
C401 C 0.21186 0.90595 0.84567 0.0
C402 C 0.18893 0.92012 0.78895 0.0
C403 C 0.12303 0.95186 0.72104 0.0
C404 C 0.08009 0.96901 0.71 0.0
C405 C 0.14659 0.93815 0.77797 0.0
C406 C 0.06176 0.97354 0.75721 0.0
C407 C 0.08508 0.96037 0.81384 0.0
loop_
_geom_bond_atom_site_label_1
_geom_bond_atom_site_label_2
_geom_bond_distance
_geom_bond_site_symmetry_2
_ccdc_geom_bond_type
H0 C5 0.930 . S
H1 C8 0.930 . S
H2 C10 0.930 . S
H3 C4 1.016 . S
C4 H3 1.016 . S
C4 N11 1.286 . S
C5 H0 0.930 . S
C5 C6 1.397 . S
C5 C7 1.361 1_556 S
C6 C5 1.397 . S
C6 C10 1.390 1_556 S
C7 C5 1.361 1_554 S
C7 C8 1.393 . S
C7 N11 1.413 . S
C8 H1 0.930 . S
C8 C7 1.393 . S
C8 C9 1.399 . S
C9 C8 1.399 . S
C9 C10 1.381 . S
C10 H2 0.930 . S
C10 C6 1.390 1_554 S
C10 C9 1.381 . S
N11 C4 1.286 . S
N11 C7 1.413 . S
H12 C17 0.930 . S
H13 C20 0.930 . S
H14 C22 0.930 . S
H15 C16 1.016 . S
C16 H15 1.016 . S
C16 N23 1.286 . S
C17 H12 0.930 . S
C17 C18 1.397 . S
C17 C19 1.361 . S
C18 C17 1.397 . S
C18 C22 1.390 . S
C19 C17 1.361 . S
C19 C20 1.393 . S
C19 N23 1.413 . S
C20 H13 0.930 . S
C20 C19 1.393 . S
C20 C21 1.399 . S
C21 C20 1.399 . S
C21 C22 1.381 . S
C22 H14 0.930 . S
C22 C18 1.390 . S
C22 C21 1.381 . S
N23 C16 1.286 . S
N23 C19 1.413 . S
H24 C29 0.930 1_556 S
H25 C32 0.930 . S
H26 C34 0.930 . S
H27 C28 1.016 . S
C28 H27 1.016 . S
C28 N35 1.286 . S
C29 H24 0.930 1_554 S
C29 C30 1.397 . S
C29 C31 1.361 . S
C30 C29 1.397 . S
C30 C34 1.390 . S
C31 C29 1.361 . S
C31 C32 1.393 . S
C31 N35 1.413 . S
C32 H25 0.930 . S
C32 C31 1.393 . S
C32 C33 1.399 . S
C33 C32 1.399 . S
C33 C34 1.381 . S
C34 H26 0.930 . S
C34 C30 1.390 . S
C34 C33 1.381 . S
N35 C28 1.286 . S
N35 C31 1.413 . S
H36 C41 0.930 . S
H37 C44 0.930 . S
H38 C46 0.930 . S
H39 C40 1.016 . S
C40 H39 1.016 . S
C40 N47 1.286 . S
C41 H36 0.930 . S
C41 C42 1.397 . S
C41 C43 1.361 . S
C42 C41 1.397 . S
C42 C46 1.390 . S
C43 C41 1.361 . S
C43 C44 1.393 . S
C43 N47 1.413 . S
C44 H37 0.930 . S
C44 C43 1.393 . S
C44 C45 1.399 . S
C45 C44 1.399 . S
C45 C46 1.381 . S
C46 H38 0.930 . S
C46 C42 1.390 . S
C46 C45 1.381 . S
N47 C40 1.286 . S
N47 C43 1.413 . S
Eu48 N77 2.600 . S
Eu48 N83 2.562 . S
Eu48 O92 2.462 . S
Eu48 O93 2.373 . S
Eu48 O95 2.432 . S
Eu48 O96 2.291 1_565 S
Eu48 O100 2.335 1_465 S
Eu48 O103 2.372 1_455 S
Eu48 C112 2.787 . S
C49 N50 1.365 . S
C49 C52 1.405 . S
C49 C56 1.448 . S
N50 C49 1.365 . S
N50 C53 1.319 1_655 S
N50 Eu59 2.600 . S
C51 C53 1.397 . S
C51 C54 1.367 1_455 S
C51 H71 0.931 . S
C52 C49 1.405 . S
C52 C54 1.403 . S
C52 C58 1.439 . S
C53 N50 1.319 1_455 S
C53 C51 1.397 . S
C53 H64 0.930 . S
C54 C51 1.367 1_655 S
C54 C52 1.403 . S
C54 H75 0.929 . S
C55 C56 1.430 . S
C55 C57 1.387 . S
C55 C61 1.404 . S
C56 C49 1.448 . S
C56 C55 1.430 . S
C56 N60 1.351 . S
C57 C55 1.387 . S
C57 C58 1.374 . S
C57 H72 0.931 . S
C58 C52 1.439 . S
C58 C57 1.374 . S
C58 H73 0.931 . S
Eu59 N50 2.600 . S
Eu59 N60 2.562 . S
Eu59 O94 2.335 1_655 S
Eu59 O97 2.372 1_655 S
Eu59 O98 2.462 . S
Eu59 O99 2.373 . S
Eu59 O101 2.432 . S
Eu59 O102 2.291 1_545 S
Eu59 C123 2.787 . S
N60 C56 1.351 . S
N60 Eu59 2.562 . S
N60 C62 1.325 . S
C61 C55 1.404 . S
C61 C63 1.366 . S
C61 H69 0.930 . S
C62 N60 1.325 . S
C62 C63 1.416 . S
C62 H68 0.929 . S
C63 C61 1.366 . S
C63 C62 1.416 . S
C63 H65 0.930 . S
H64 C53 0.930 . S
H65 C63 0.930 . S
H66 C81 0.930 1_655 S
H67 C88 0.930 . S
H68 C62 0.929 . S
H69 C61 0.930 . S
H70 C84 0.929 . S
H71 C51 0.931 . S
H72 C57 0.931 . S
H73 C58 0.931 . S
H74 C79 0.931 1_655 S
H75 C54 0.929 . S
H76 C87 0.930 . S
N77 Eu48 2.600 . S
N77 C78 1.365 . S
N77 C81 1.319 . S
C78 N77 1.365 . S
C78 C80 1.405 . S
C78 C86 1.448 . S
C79 H74 0.931 1_455 S
C79 C81 1.397 . S
C79 C82 1.367 . S
C80 C78 1.405 . S
C80 C82 1.403 . S
C80 C113 1.439 . S
C81 H66 0.930 1_455 S
C81 N77 1.319 . S
C81 C79 1.397 . S
C82 C79 1.367 . S
C82 C80 1.403 . S
C82 H89 0.929 . S
N83 Eu48 2.562 . S
N83 C84 1.325 . S
N83 C86 1.351 . S
C84 H70 0.929 . S
C84 N83 1.325 . S
C84 C88 1.416 . S
C85 C86 1.430 . S
C85 C87 1.404 . S
C85 C114 1.387 . S
C86 C78 1.448 . S
C86 N83 1.351 . S
C86 C85 1.430 . S
C87 H76 0.930 . S
C87 C85 1.404 . S
C87 C88 1.366 . S
C88 H67 0.930 . S
C88 C84 1.416 . S
C88 C87 1.366 . S
H89 C82 0.929 . S
H90 C113 0.931 . S
H91 C114 0.931 . S
O92 Eu48 2.462 . S
O92 C112 1.252 . S
O93 Eu48 2.373 . S
O93 C104 1.249 . S
O94 Eu59 2.335 1_455 S
O94 C104 1.264 1_545 S
O95 Eu48 2.432 . S
O95 C112 1.268 . S
O96 Eu48 2.291 1_545 S
O96 C111 1.255 . S
O97 Eu59 2.372 1_455 S
O97 C111 1.257 . S
O98 Eu59 2.462 . S
O98 C123 1.252 . S
O99 Eu59 2.373 . S
O99 C115 1.249 . S
O100 Eu48 2.335 1_645 S
O100 C115 1.264 . S
O101 Eu59 2.432 . S
O101 C123 1.268 . S
O102 Eu59 2.291 1_565 S
O102 C122 1.255 . S
O103 Eu48 2.372 1_655 S
O103 C122 1.257 . S
C104 O93 1.249 . S
C104 O94 1.264 1_565 S
C105 C108 1.382 . S
C105 C110 1.390 . S
C105 C112 1.506 . S
C106 C107 1.398 . S
C106 C110 1.392 . S
C107 C106 1.398 . S
C107 C109 1.372 . S
C107 H124 0.931 . S
C108 C105 1.382 . S
C108 C109 1.390 . S
C108 H125 0.931 . S
C109 C107 1.372 . S
C109 C108 1.390 . S
C109 H126 0.929 . S
C110 C105 1.390 . S
C110 C106 1.392 . S
C110 H127 0.930 . S
C111 O96 1.255 . S
C111 O97 1.257 . S
C112 Eu48 2.787 . S
C112 O92 1.252 . S
C112 O95 1.268 . S
C112 C105 1.506 . S
C113 C80 1.439 . S
C113 H90 0.931 . S
C113 C114 1.374 . S
C114 C85 1.387 . S
C114 H91 0.931 . S
C114 C113 1.374 . S
C115 O99 1.249 . S
C115 O100 1.264 . S
C116 C119 1.382 . S
C116 C120 1.390 . S
C116 C123 1.506 . S
C117 C118 1.398 . S
C117 C120 1.392 . S
C118 C117 1.398 . S
C118 C121 1.372 . S
C118 H128 0.931 . S
C119 C116 1.382 . S
C119 C121 1.390 . S
C119 H129 0.931 . S
C120 C116 1.390 . S
C120 C117 1.392 . S
C120 H130 0.930 . S
C121 C118 1.372 . S
C121 C119 1.390 . S
C121 H131 0.929 . S
C122 O102 1.255 . S
C122 O103 1.257 . S
C123 Eu59 2.787 . S
C123 O98 1.252 . S
C123 O101 1.268 . S
C123 C116 1.506 . S
H124 C107 0.931 . S
H125 C108 0.931 . S
H126 C109 0.929 . S
H127 C110 0.930 . S
H128 C118 0.931 . S
H129 C119 0.931 . S
H130 C120 0.930 . S
H131 C121 0.929 . S
Eu132 N161 2.600 . S
Eu132 N167 2.562 . S
Eu132 O176 2.462 1_554 S
Eu132 O177 2.373 . S
Eu132 O179 2.432 1_554 S
Eu132 O180 2.291 . S
Eu132 O184 2.335 1_554 S
Eu132 O187 2.372 . S
Eu132 C196 2.787 1_554 S
C133 N134 1.365 . S
C133 C136 1.405 . S
C133 C140 1.448 . S
N134 C133 1.365 . S
N134 C137 1.319 . S
N134 Eu143 2.600 . S
C135 C137 1.397 . S
C135 C138 1.367 . S
C135 H155 0.931 . S
C136 C133 1.405 . S
C136 C138 1.403 . S
C136 C142 1.439 . S
C137 N134 1.319 . S
C137 C135 1.397 . S
C137 H148 0.930 . S
C138 C135 1.367 . S
C138 C136 1.403 . S
C138 H159 0.929 . S
C139 C140 1.430 . S
C139 C141 1.387 . S
C139 C145 1.404 . S
C140 C133 1.448 . S
C140 C139 1.430 . S
C140 N144 1.351 . S
C141 C139 1.387 . S
C141 C142 1.374 . S
C141 H156 0.931 . S
C142 C136 1.439 . S
C142 C141 1.374 . S
C142 H157 0.931 . S
Eu143 N134 2.600 . S
Eu143 N144 2.562 . S
Eu143 O178 2.335 . S
Eu143 O181 2.372 . S
Eu143 O182 2.462 . S
Eu143 O183 2.373 . S
Eu143 O185 2.432 . S
Eu143 O186 2.291 . S
Eu143 C207 2.787 . S
N144 C140 1.351 . S
N144 Eu143 2.562 . S
N144 C146 1.325 . S
C145 C139 1.404 . S
C145 C147 1.366 . S
C145 H153 0.930 . S
C146 N144 1.325 . S
C146 C147 1.416 . S
C146 H152 0.929 . S
C147 C145 1.366 . S
C147 C146 1.416 . S
C147 H149 0.930 . S
H148 C137 0.930 . S
H149 C147 0.930 . S
H150 C165 0.930 . S
H151 C172 0.930 . S
H152 C146 0.929 . S
H153 C145 0.930 . S
H154 C168 0.929 . S
H155 C135 0.931 . S
H156 C141 0.931 . S
H157 C142 0.931 . S
H158 C163 0.931 . S
H159 C138 0.929 . S
H160 C171 0.930 . S
N161 Eu132 2.600 . S
N161 C162 1.365 . S
N161 C165 1.319 1_554 S
C162 N161 1.365 . S
C162 C164 1.405 . S
C162 C170 1.448 . S
C163 H158 0.931 . S
C163 C165 1.397 . S
C163 C166 1.367 1_556 S
C164 C162 1.405 . S
C164 C166 1.403 . S
C164 C197 1.439 . S
C165 H150 0.930 . S
C165 N161 1.319 1_556 S
C165 C163 1.397 . S
C166 C163 1.367 1_554 S
C166 C164 1.403 . S
C166 H173 0.929 . S
N167 Eu132 2.562 . S
N167 C168 1.325 . S
N167 C170 1.351 . S
C168 H154 0.929 . S
C168 N167 1.325 . S
C168 C172 1.416 . S
C169 C170 1.430 . S
C169 C171 1.404 . S
C169 C198 1.387 . S
C170 C162 1.448 . S
C170 N167 1.351 . S
C170 C169 1.430 . S
C171 H160 0.930 . S
C171 C169 1.404 . S
C171 C172 1.366 . S
C172 H151 0.930 . S
C172 C168 1.416 . S
C172 C171 1.366 . S
H173 C166 0.929 . S
H174 C197 0.931 . S
H175 C198 0.931 . S
O176 Eu132 2.462 1_556 S
O176 C196 1.252 . S
O177 Eu132 2.373 . S
O177 C188 1.249 . S
O178 Eu143 2.335 . S
O178 C188 1.264 . S
O179 Eu132 2.432 1_556 S
O179 C196 1.268 . S
O180 Eu132 2.291 . S
O180 C195 1.255 . S
O181 Eu143 2.372 . S
O181 C195 1.257 . S
O182 Eu143 2.462 . S
O182 C207 1.252 . S
O183 Eu143 2.373 . S
O183 C199 1.249 1_554 S
O184 Eu132 2.335 1_556 S
O184 C199 1.264 . S
O185 Eu143 2.432 . S
O185 C207 1.268 . S
O186 Eu143 2.291 . S
O186 C206 1.255 . S
O187 Eu132 2.372 . S
O187 C206 1.257 . S
C188 O177 1.249 . S
C188 O178 1.264 . S
C189 C192 1.382 . S
C189 C194 1.390 . S
C189 C196 1.506 . S
C190 C191 1.398 . S
C190 C194 1.392 . S
C191 C190 1.398 . S
C191 C193 1.372 . S
C191 H208 0.931 . S
C192 C189 1.382 . S
C192 C193 1.390 . S
C192 H209 0.931 . S
C193 C191 1.372 . S
C193 C192 1.390 . S
C193 H210 0.929 . S
C194 C189 1.390 . S
C194 C190 1.392 . S
C194 H211 0.930 . S
C195 O180 1.255 . S
C195 O181 1.257 . S
C196 Eu132 2.787 1_556 S
C196 O176 1.252 . S
C196 O179 1.268 . S
C196 C189 1.506 . S
C197 C164 1.439 . S
C197 H174 0.931 . S
C197 C198 1.374 . S
C198 C169 1.387 . S
C198 H175 0.931 . S
C198 C197 1.374 . S
C199 O183 1.249 1_556 S
C199 O184 1.264 . S
C200 C203 1.382 . S
C200 C204 1.390 . S
C200 C207 1.506 . S
C201 C202 1.398 . S
C201 C204 1.392 . S
C202 C201 1.398 . S
C202 C205 1.372 . S
C202 H212 0.931 . S
C203 C200 1.382 . S
C203 C205 1.390 . S
C203 H213 0.931 . S
C204 C200 1.390 . S
C204 C201 1.392 . S
C204 H214 0.930 . S
C205 C202 1.372 . S
C205 C203 1.390 . S
C205 H215 0.929 . S
C206 O186 1.255 . S
C206 O187 1.257 . S
C207 Eu143 2.787 . S
C207 O182 1.252 . S
C207 O185 1.268 . S
C207 C200 1.506 . S
H208 C191 0.931 . S
H209 C192 0.931 . S
H210 C193 0.929 . S
H211 C194 0.930 . S
H212 C202 0.931 . S
H213 C203 0.931 . S
H214 C204 0.930 . S
H215 C205 0.929 . S
H216 C222 0.930 . S
H217 C225 0.930 . S
H218 C226 0.930 . S
H219 C227 0.930 . S
H220 C230 0.930 . S
H221 C231 0.930 . S
C222 H216 0.930 . S
C222 C223 1.355 . S
C222 C224 1.415 . S
C223 C222 1.355 . S
C223 C225 1.419 . S
C224 C222 1.415 . S
C224 C229 1.425 . S
C224 C231 1.409 . S
C225 H217 0.930 . S
C225 C223 1.419 . S
C225 C226 1.362 . S
C226 H218 0.930 . S
C226 C225 1.362 . S
C226 C229 1.409 . S
C227 H219 0.930 . S
C227 C228 1.355 . S
C227 C229 1.415 . S
C228 C227 1.355 . S
C228 C230 1.419 . S
C229 C224 1.425 . S
C229 C226 1.409 . S
C229 C227 1.415 . S
C230 H220 0.930 . S
C230 C228 1.419 . S
C230 C231 1.362 . S
C231 H221 0.930 . S
C231 C224 1.409 . S
C231 C230 1.362 . S
H232 C238 0.930 . S
H233 C241 0.930 . S
H234 C242 0.930 . S
H235 C243 0.930 . S
H236 C246 0.930 . S
H237 C247 0.930 . S
C238 H232 0.930 . S
C238 C239 1.355 . S
C238 C240 1.415 . S
C239 C238 1.355 . S
C239 C241 1.419 . S
C240 C238 1.415 . S
C240 C245 1.425 . S
C240 C247 1.409 . S
C241 H233 0.930 . S
C241 C239 1.419 . S
C241 C242 1.362 . S
C242 H234 0.930 . S
C242 C241 1.362 . S
C242 C245 1.409 . S
C243 H235 0.930 . S
C243 C244 1.355 . S
C243 C245 1.415 . S
C244 C243 1.355 . S
C244 C246 1.419 . S
C245 C240 1.425 . S
C245 C242 1.409 . S
C245 C243 1.415 . S
C246 H236 0.930 . S
C246 C244 1.419 . S
C246 C247 1.362 . S
C247 H237 0.930 . S
C247 C240 1.409 . S
C247 C246 1.362 . S
H248 C254 0.930 . S
H249 C257 0.930 . S
H250 C258 0.930 . S
H251 C259 0.930 . S
H252 C262 0.930 . S
H253 C263 0.930 . S
C254 H248 0.930 . S
C254 C255 1.355 . S
C254 C256 1.415 . S
C255 C254 1.355 . S
C255 C257 1.419 . S
C256 C254 1.415 . S
C256 C261 1.425 . S
C256 C263 1.409 . S
C257 H249 0.930 . S
C257 C255 1.419 . S
C257 C258 1.362 . S
C258 H250 0.930 . S
C258 C257 1.362 . S
C258 C261 1.409 . S
C259 H251 0.930 . S
C259 C260 1.355 . S
C259 C261 1.415 . S
C260 C259 1.355 . S
C260 C262 1.419 . S
C261 C256 1.425 . S
C261 C258 1.409 . S
C261 C259 1.415 . S
C262 H252 0.930 . S
C262 C260 1.419 . S
C262 C263 1.362 . S
C263 H253 0.930 . S
C263 C256 1.409 . S
C263 C262 1.362 . S
H264 C270 0.930 . S
H265 C273 0.930 . S
H266 C274 0.930 . S
H267 C275 0.930 . S
H268 C278 0.930 . S
H269 C279 0.930 1_556 S
C270 H264 0.930 . S
C270 C271 1.355 . S
C270 C272 1.415 . S
C271 C270 1.355 . S
C271 C273 1.419 . S
C272 C270 1.415 . S
C272 C277 1.425 . S
C272 C279 1.409 . S
C273 H265 0.930 . S
C273 C271 1.419 . S
C273 C274 1.362 . S
C274 H266 0.930 . S
C274 C273 1.362 . S
C274 C277 1.409 . S
C275 H267 0.930 . S
C275 C276 1.355 . S
C275 C277 1.415 . S
C276 C275 1.355 . S
C276 C278 1.419 . S
C277 C272 1.425 . S
C277 C274 1.409 . S
C277 C275 1.415 . S
C278 H268 0.930 . S
C278 C276 1.419 . S
C278 C279 1.362 . S
C279 H269 0.930 1_554 S
C279 C272 1.409 . S
C279 C278 1.362 . S
H280 C286 0.930 . S
H281 C289 0.930 . S
H282 C290 0.930 . S
H283 C291 0.930 . S
H284 C294 0.930 . S
H285 C295 0.930 . S
C286 H280 0.930 . S
C286 C287 1.355 . S
C286 C288 1.415 . S
C287 C286 1.355 . S
C287 C289 1.419 . S
C288 C286 1.415 . S
C288 C293 1.425 . S
C288 C295 1.409 . S
C289 H281 0.930 . S
C289 C287 1.419 . S
C289 C290 1.362 . S
C290 H282 0.930 . S
C290 C289 1.362 . S
C290 C293 1.409 . S
C291 H283 0.930 . S
C291 C292 1.355 . S
C291 C293 1.415 . S
C292 C291 1.355 . S
C292 C294 1.419 . S
C293 C288 1.425 . S
C293 C290 1.409 . S
C293 C291 1.415 . S
C294 H284 0.930 . S
C294 C292 1.419 . S
C294 C295 1.362 . S
C295 H285 0.930 . S
C295 C288 1.409 . S
C295 C294 1.362 . S
H296 C302 0.930 . S
H297 C305 0.930 . S
H298 C306 0.930 . S
H299 C307 0.930 . S
H300 C310 0.930 . S
H301 C311 0.930 . S
C302 H296 0.930 . S
C302 C303 1.355 . S
C302 C304 1.415 . S
C303 C302 1.355 . S
C303 C305 1.419 . S
C304 C302 1.415 . S
C304 C309 1.425 . S
C304 C311 1.409 . S
C305 H297 0.930 . S
C305 C303 1.419 . S
C305 C306 1.362 . S
C306 H298 0.930 . S
C306 C305 1.362 . S
C306 C309 1.409 . S
C307 H299 0.930 . S
C307 C308 1.355 . S
C307 C309 1.415 . S
C308 C307 1.355 . S
C308 C310 1.419 . S
C309 C304 1.425 . S
C309 C306 1.409 . S
C309 C307 1.415 . S
C310 H300 0.930 . S
C310 C308 1.419 . S
C310 C311 1.362 . S
C311 H301 0.930 . S
C311 C304 1.409 . S
C311 C310 1.362 . S
H312 C318 0.930 . S
H313 C321 0.930 . S
H314 C322 0.930 . S
H315 C323 0.930 . S
H316 C326 0.930 . S
H317 C327 0.930 . S
C318 H312 0.930 . S
C318 C319 1.355 . S
C318 C320 1.415 . S
C319 C318 1.355 . S
C319 C321 1.419 . S
C320 C318 1.415 . S
C320 C325 1.425 . S
C320 C327 1.409 . S
C321 H313 0.930 . S
C321 C319 1.419 . S
C321 C322 1.362 . S
C322 H314 0.930 . S
C322 C321 1.362 . S
C322 C325 1.409 . S
C323 H315 0.930 . S
C323 C324 1.355 . S
C323 C325 1.415 . S
C324 C323 1.355 . S
C324 C326 1.419 . S
C325 C320 1.425 . S
C325 C322 1.409 . S
C325 C323 1.415 . S
C326 H316 0.930 . S
C326 C324 1.419 . S
C326 C327 1.362 . S
C327 H317 0.930 . S
C327 C320 1.409 . S
C327 C326 1.362 . S
H328 C334 0.930 . S
H329 C337 0.930 . S
H330 C338 0.930 . S
H331 C339 0.930 . S
H332 C342 0.930 . S
H333 C343 0.930 . S
C334 H328 0.930 . S
C334 C335 1.355 . S
C334 C336 1.415 . S
C335 C334 1.355 . S
C335 C337 1.419 . S
C336 C334 1.415 . S
C336 C341 1.425 . S
C336 C343 1.409 . S
C337 H329 0.930 . S
C337 C335 1.419 . S
C337 C338 1.362 . S
C338 H330 0.930 . S
C338 C337 1.362 . S
C338 C341 1.409 . S
C339 H331 0.930 . S
C339 C340 1.355 . S
C339 C341 1.415 . S
C340 C339 1.355 . S
C340 C342 1.419 . S
C341 C336 1.425 . S
C341 C338 1.409 . S
C341 C339 1.415 . S
C342 H332 0.930 . S
C342 C340 1.419 . S
C342 C343 1.362 . S
C343 H333 0.930 . S
C343 C336 1.409 . S
C343 C342 1.362 . S
H344 C350 0.930 . S
H345 C353 0.930 . S
H346 C354 0.930 . S
H347 C355 0.930 . S
H348 C358 0.930 . S
H349 C359 0.930 . S
C350 H344 0.930 . S
C350 C351 1.355 . S
C350 C352 1.415 . S
C351 C350 1.355 . S
C351 C353 1.419 . S
C352 C350 1.415 . S
C352 C357 1.425 . S
C352 C359 1.409 . S
C353 H345 0.930 . S
C353 C351 1.419 . S
C353 C354 1.362 . S
C354 H346 0.930 . S
C354 C353 1.362 . S
C354 C357 1.409 . S
C355 H347 0.930 . S
C355 C356 1.355 . S
C355 C357 1.415 . S
C356 C355 1.355 . S
C356 C358 1.419 . S
C357 C352 1.425 . S
C357 C354 1.409 . S
C357 C355 1.415 . S
C358 H348 0.930 . S
C358 C356 1.419 . S
C358 C359 1.362 . S
C359 H349 0.930 . S
C359 C352 1.409 . S
C359 C358 1.362 . S
H360 C366 0.930 1_554 S
H361 C369 0.930 . S
H362 C370 0.930 . S
H363 C371 0.930 . S
H364 C374 0.930 . S
H365 C375 0.930 . S
C366 H360 0.930 1_556 S
C366 C367 1.355 . S
C366 C368 1.415 . S
C367 C366 1.355 . S
C367 C369 1.419 . S
C368 C366 1.415 . S
C368 C373 1.425 . S
C368 C375 1.409 . S
C369 H361 0.930 . S
C369 C367 1.419 . S
C369 C370 1.362 . S
C370 H362 0.930 . S
C370 C369 1.362 . S
C370 C373 1.409 . S
C371 H363 0.930 . S
C371 C372 1.355 . S
C371 C373 1.415 . S
C372 C371 1.355 . S
C372 C374 1.419 . S
C373 C368 1.425 . S
C373 C370 1.409 . S
C373 C371 1.415 . S
C374 H364 0.930 . S
C374 C372 1.419 . S
C374 C375 1.362 . S
C375 H365 0.930 . S
C375 C368 1.409 . S
C375 C374 1.362 . S
H376 C382 0.930 . S
H377 C385 0.930 . S
H378 C386 0.930 . S
H379 C387 0.930 . S
H380 C390 0.930 . S
H381 C391 0.930 . S
C382 H376 0.930 . S
C382 C383 1.355 . S
C382 C384 1.415 . S
C383 C382 1.355 . S
C383 C385 1.419 . S
C384 C382 1.415 . S
C384 C389 1.425 . S
C384 C391 1.409 . S
C385 H377 0.930 . S
C385 C383 1.419 . S
C385 C386 1.362 . S
C386 H378 0.930 . S
C386 C385 1.362 . S
C386 C389 1.409 . S
C387 H379 0.930 . S
C387 C388 1.355 . S
C387 C389 1.415 . S
C388 C387 1.355 . S
C388 C390 1.419 . S
C389 C384 1.425 . S
C389 C386 1.409 . S
C389 C387 1.415 . S
C390 H380 0.930 . S
C390 C388 1.419 . S
C390 C391 1.362 . S
C391 H381 0.930 . S
C391 C384 1.409 . S
C391 C390 1.362 . S
H392 C398 0.930 . S
H393 C401 0.930 . S
H394 C402 0.930 . S
H395 C403 0.930 . S
H396 C406 0.930 . S
H397 C407 0.930 . S
C398 H392 0.930 . S
C398 C399 1.355 . S
C398 C400 1.415 . S
C399 C398 1.355 . S
C399 C401 1.419 . S
C400 C398 1.415 . S
C400 C405 1.425 . S
C400 C407 1.409 . S
C401 H393 0.930 . S
C401 C399 1.419 . S
C401 C402 1.362 . S
C402 H394 0.930 . S
C402 C401 1.362 . S
C402 C405 1.409 . S
C403 H395 0.930 . S
C403 C404 1.355 . S
C403 C405 1.415 . S
C404 C403 1.355 . S
C404 C406 1.419 . S
C405 C400 1.425 . S
C405 C402 1.409 . S
C405 C403 1.415 . S
C406 H396 0.930 . S
C406 C404 1.419 . S
C406 C407 1.362 . S
C407 H397 0.930 . S
C407 C400 1.409 . S
C407 C406 1.362 . S
C228 C111 1.622 . S
C223 C40 1.662 . S
C239 C4 1.638 . S
C244 C206 1.634 . S
C255 C16 1.614 . S
C260 C122 1.671 . S
C271 C28 1.596 . S
C276 C195 1.619 . S
C292 C106 1.480 . S
C287 C9 1.588 . S
C308 C199 1.687 . S
C303 C18 1.680 . S
C319 C33 1.618 . S
C324 C115 1.638 . S
C335 C45 1.604 . S
C340 C190 1.409 . S
C356 C201 1.380 . S
C351 C21 1.549 . S
C372 C117 1.422 . S
C367 C30 1.549 1_556 S
C388 C188 1.618 . S
C383 C42 1.619 . S
C399 C6 1.564 . S
C404 C104 1.589 . S
