# Generated by pormake.
# Topology tsx, (6,3)-cn, num edge types: 1
# Building blocks:
#     Node 0, Type 0, BuildingBlock: VOLQOD_clean_sbu_1, # of connection points: 6
#     Node 1, Type 0, BuildingBlock: VOLQOD_clean_sbu_1, # of connection points: 6
#     Node 2, Type 1, BuildingBlock: ESEHIV_clean_linker_0, # of connection points: 3
#     Node 3, Type 1, BuildingBlock: ESEHIV_clean_linker_0, # of connection points: 3
#     Node 4, Type 1, BuildingBlock: ESEHIV_clean_linker_0, # of connection points: 3
#     Node 5, Type 1, BuildingBlock: ESEHIV_clean_linker_0, # of connection points: 3
#     Edge 6, Type (0, 1), BuildingBlock: XUDNAN_clean_linker_2, # of connection points: 2
#     Edge 7, Type (0, 1), BuildingBlock: XUDNAN_clean_linker_2, # of connection points: 2
#     Edge 8, Type (0, 1), BuildingBlock: XUDNAN_clean_linker_2, # of connection points: 2
#     Edge 9, Type (0, 1), BuildingBlock: XUDNAN_clean_linker_2, # of connection points: 2
#     Edge 10, Type (0, 1), BuildingBlock: XUDNAN_clean_linker_2, # of connection points: 2
#     Edge 11, Type (0, 1), BuildingBlock: XUDNAN_clean_linker_2, # of connection points: 2
#     Edge 12, Type (0, 1), BuildingBlock: XUDNAN_clean_linker_2, # of connection points: 2
#     Edge 13, Type (0, 1), BuildingBlock: XUDNAN_clean_linker_2, # of connection points: 2
#     Edge 14, Type (0, 1), BuildingBlock: XUDNAN_clean_linker_2, # of connection points: 2
#     Edge 15, Type (0, 1), BuildingBlock: XUDNAN_clean_linker_2, # of connection points: 2
#     Edge 16, Type (0, 1), BuildingBlock: XUDNAN_clean_linker_2, # of connection points: 2
#     Edge 17, Type (0, 1), BuildingBlock: XUDNAN_clean_linker_2, # of connection points: 2
# Relax obj value: 0.075
# Max RMSD: 0.108
# Mean RMSD: 0.082
data_MOF--net-tsx--node1-VOLQOD_clean_sbu_1--node2-ESEHIV_clean_linker_0--edge1-XUDNAN_clean_linker_2
_symmetry_space_group_name_H-M    P1
_symmetry_Int_Tables_number       1
_symmetry_cell_setting            triclinic
loop_
_symmetry_equiv_pos_as_xyz
'x, y, z'
_cell_length_a     19.385727
_cell_length_b     20.110239
_cell_length_c     37.953429
_cell_angle_alpha  90.593635
_cell_angle_beta   89.839091
_cell_angle_gamma 90.385446
loop_
_atom_site_label
_atom_site_type_symbol
_atom_site_fract_x
_atom_site_fract_y
_atom_site_fract_z
_atom_type_partial_charge
O0 O 0.11369 -0.0015 0.08152 0.0
Zn1 Zn 0.13534 0.98812 0.02966 0.0
O2 O 0.05181 0.99218 1.00137 0.0
Zn3 Zn 0.04324 0.91033 0.97423 0.0
Zn4 Zn 0.97269 0.00082 0.03292 0.0
Zn5 Zn 0.05558 0.06772 0.96877 0.0
O6 O 0.05336 0.92716 0.92261 0.0
O7 O 0.06792 0.03629 0.9178 0.0
O8 O 0.18781 0.9024 0.02248 0.0
O9 O 0.11874 0.8474 0.98585 0.0
O10 O 0.95404 0.86296 0.98398 0.0
O11 O 0.911 0.9206 0.02903 0.0
O12 O 0.91407 0.07712 0.0182 0.0
O13 O 0.19715 0.06402 0.01719 0.0
O14 O 0.96654 0.11984 0.9714 0.0
O15 O 0.13629 0.12823 0.98143 0.0
C16 C 0.05873 0.00857 0.09924 0.0
C17 C 0.06463 0.9783 0.90393 0.0
C18 C 0.90815 0.87154 0.00761 0.0
C19 C 0.17311 0.85049 1.00447 0.0
C20 C 0.91596 0.11828 0.99294 0.0
C21 C 0.19024 0.11704 0.99955 0.0
O22 O 0.00029 0.012 0.08411 0.0
O23 O 0.49936 0.469 0.58515 0.0
Zn24 Zn 0.5326 0.48752 0.53541 0.0
O25 O 0.45709 0.5068 0.50298 0.0
Zn26 Zn 0.45128 0.4395 0.46533 0.0
Zn27 Zn 0.37173 0.50725 0.5302 0.0
Zn28 Zn 0.47188 0.59316 0.48102 0.0
O29 O 0.45045 0.48022 0.41663 0.0
O30 O 0.47829 0.58547 0.42806 0.0
O31 O 0.58749 0.40905 0.51762 0.0
O32 O 0.53483 0.38158 0.46729 0.0
O33 O 0.36778 0.37919 0.472 0.0
O34 O 0.31326 0.42886 0.51642 0.0
O35 O 0.31831 0.59149 0.52281 0.0
O36 O 0.59448 0.5679 0.53994 0.0
O37 O 0.39045 0.65192 0.49055 0.0
O38 O 0.55617 0.64003 0.50056 0.0
C39 C 0.44108 0.47804 0.59997 0.0
C40 C 0.46529 0.53864 0.40615 0.0
C41 C 0.31767 0.38188 0.4938 0.0
C42 C 0.58282 0.37378 0.48964 0.0
C43 C 0.33331 0.64505 0.50678 0.0
C44 C 0.59868 0.62358 0.52438 0.0
O45 O 0.38897 0.49629 0.58222 0.0
H46 H 0.91622 0.08874 0.35323 0.0
H47 H 0.0841 0.95405 0.36985 0.0
H48 H 0.96001 0.01726 0.45741 0.0
C49 C 0.94685 0.05895 0.37083 0.0
C50 C 0.92964 0.05592 0.4069 0.0
C51 C 0.00396 0.02384 0.35743 0.0
C52 C 0.04227 0.98386 0.38031 0.0
C53 C 0.02561 0.98024 0.41627 0.0
C54 C 0.97053 0.01764 0.42936 0.0
H55 H 0.96624 0.89258 0.65463 0.0
H56 H 0.11514 0.04489 0.63233 0.0
H57 H 0.97126 0.98179 0.55194 0.0
C58 C 0.9888 0.92741 0.63618 0.0
C59 C 0.96098 0.93306 0.60221 0.0
C60 C 0.0438 0.96773 0.64725 0.0
C61 C 0.07269 0.01337 0.62374 0.0
C62 C 0.04788 0.0174 0.58895 0.0
C63 C 0.99223 0.9768 0.57823 0.0
H64 H 0.40959 0.52386 0.86875 0.0
H65 H 0.54934 0.35995 0.85564 0.0
H66 H 0.51696 0.44801 0.95831 0.0
C67 C 0.44509 0.48843 0.87992 0.0
C68 C 0.45931 0.49116 0.91617 0.0
C69 C 0.4773 0.44147 0.85777 0.0
C70 C 0.52504 0.3971 0.87233 0.0
C71 C 0.53876 0.39863 0.90878 0.0
C72 C 0.5062 0.44625 0.93029 0.0
H73 H 0.41624 0.46331 0.14433 0.0
H74 H 0.56217 0.62561 0.13993 0.0
H75 H 0.50803 0.51649 0.04571 0.0
C76 C 0.45008 0.49584 0.1295 0.0
C77 C 0.4591 0.48449 0.09327 0.0
C78 C 0.48576 0.54817 0.14655 0.0
C79 C 0.53127 0.58796 0.12666 0.0
C80 C 0.54028 0.57679 0.09025 0.0
C81 C 0.50239 0.52583 0.07376 0.0
H82 H 0.17404 0.25179 0.00451 0.0
H83 H 0.32769 0.09613 0.00493 0.0
H84 H 0.41651 0.17787 0.0229 0.0
H85 H 0.29582 0.39259 0.97734 0.0
H86 H 0.25309 0.4507 0.0063 0.0
H87 H 0.2045 0.38438 0.98555 0.0
H88 H 0.16166 0.34596 0.0468 0.0
H89 H 0.21038 0.41149 0.06783 0.0
H90 H 0.2238 0.32632 0.08033 0.0
H91 H 0.48384 0.27032 0.04897 0.0
H92 H 0.52695 0.37049 0.08051 0.0
H93 H 0.32963 0.46618 0.06617 0.0
C94 C 0.22703 0.23577 0.00693 0.0
C95 C 0.24454 0.16809 1.00297 0.0
C96 C 0.31367 0.14801 0.00763 0.0
C97 C 0.36442 0.19405 0.01772 0.0
C98 C 0.34503 0.25989 0.02311 0.0
C99 C 0.27824 0.28114 0.01753 0.0
C100 C 0.26947 0.35287 0.02937 0.0
C101 C 0.25484 0.39775 0.99774 0.0
C102 C 0.213 0.35948 0.05777 0.0
C103 C 0.34037 0.36701 0.0444 0.0
C104 C 0.3836 0.31321 0.03964 0.0
C105 C 0.45078 0.31303 0.05253 0.0
C106 C 0.47456 0.36955 0.07063 0.0
C107 C 0.43091 0.42471 0.076 0.0
C108 C 0.36328 0.42385 0.06258 0.0
H109 H 0.15651 0.73377 0.96818 0.0
H110 H 0.30064 0.84039 0.03589 0.0
H111 H 0.38631 0.75127 0.02645 0.0
H112 H 0.20854 0.56387 0.99285 0.0
H113 H 0.19868 0.53232 0.94849 0.0
H114 H 0.14453 0.59886 0.9643 0.0
H115 H 0.18241 0.67333 0.91263 0.0
H116 H 0.23577 0.6075 0.89579 0.0
H117 H 0.27302 0.68819 0.90496 0.0
H118 H 0.46083 0.65724 1.00349 0.0
H119 H 0.51742 0.56881 0.96836 0.0
H120 H 0.32334 0.5254 0.91602 0.0
C121 C 0.20543 0.73792 0.98176 0.0
C122 C 0.22177 0.79411 1.00283 0.0
C123 C 0.28679 0.79766 0.01975 0.0
C124 C 0.33571 0.7472 0.01461 0.0
C125 C 0.31847 0.69343 0.99277 0.0
C126 C 0.25459 0.6884 0.97684 0.0
C127 C 0.25052 0.62923 0.95204 0.0
C128 C 0.19743 0.57801 0.96521 0.0
C129 C 0.23453 0.6509 0.91413 0.0
C130 C 0.32314 0.60337 0.95517 0.0
C131 C 0.36132 0.64008 0.97929 0.0
C132 C 0.4311 0.6277 0.9849 0.0
C133 C 0.46278 0.57738 0.96485 0.0
C134 C 0.42476 0.54066 0.93929 0.0
C135 C 0.35381 0.55314 0.93509 0.0
H136 H 0.79389 0.87973 0.05013 0.0
H137 H 0.89565 0.75132 0.97359 0.0
H138 H 0.80651 0.66531 0.98308 0.0
H139 H 0.75095 0.75688 0.11028 0.0
H140 H 0.66798 0.79041 0.12214 0.0
H141 H 0.73543 0.84487 0.10683 0.0
H142 H 0.6554 0.88761 0.05747 0.0
H143 H 0.58739 0.83354 0.07281 0.0
H144 H 0.61546 0.82885 0.02754 0.0
H145 H 0.7152 0.5893 0.00554 0.0
H146 H 0.62476 0.52912 0.03772 0.0
H147 H 0.57748 0.70889 0.09741 0.0
C148 C 0.79696 0.83393 0.03496 0.0
C149 C 0.85184 0.82222 0.01115 0.0
C150 C 0.85401 0.76153 0.9919 0.0
C151 C 0.80359 0.71238 0.99707 0.0
C152 C 0.75098 0.7251 0.02121 0.0
C153 C 0.74682 0.78458 0.03958 0.0
C154 C 0.68684 0.7844 0.06522 0.0
C155 C 0.71183 0.79473 0.10336 0.0
C156 C 0.63309 0.8367 0.05514 0.0
C157 C 0.65942 0.71462 0.05926 0.0
C158 C 0.69687 0.68151 0.03358 0.0
C159 C 0.68439 0.61512 0.0251 0.0
C160 C 0.63241 0.58148 0.04346 0.0
C161 C 0.59295 0.61438 0.06988 0.0
C162 C 0.60653 0.68214 0.07748 0.0
H163 H 0.89107 0.20181 0.93724 0.0
H164 H 0.80211 0.13004 0.03511 0.0
H165 H 0.69575 0.19173 0.02313 0.0
H166 H 0.81566 0.36732 0.94205 0.0
H167 H 0.80117 0.3712 0.89522 0.0
H168 H 0.87158 0.32302 0.91204 0.0
H169 H 0.82484 0.2192 0.87861 0.0
H170 H 0.75375 0.26682 0.8621 0.0
H171 H 0.73744 0.19169 0.88633 0.0
H172 H 0.59765 0.25657 0.99998 0.0
H173 H 0.51599 0.32841 0.96881 0.0
H174 H 0.66767 0.36026 0.88618 0.0
C175 C 0.8496 0.1997 0.95638 0.0
C176 C 0.85513 0.16093 0.98713 0.0
C177 C 0.79932 0.15927 0.01135 0.0
C178 C 0.7385 0.19401 0.00477 0.0
C179 C 0.7342 0.2304 0.9739 0.0
C180 C 0.78832 0.23417 0.95024 0.0
C181 C 0.76982 0.27688 0.919 0.0
C182 C 0.81738 0.33825 0.91698 0.0
C183 C 0.77157 0.2362 0.88447 0.0
C184 C 0.69674 0.29614 0.9288 0.0
C185 C 0.67732 0.26853 0.96054 0.0
C186 C 0.61238 0.2789 0.97522 0.0
C187 C 0.56646 0.31984 0.95735 0.0
C188 C 0.58578 0.35025 0.92522 0.0
C189 C 0.65142 0.33727 0.91053 0.0
H190 H 0.71322 0.68267 0.49422 0.0
H191 H 0.58665 0.67827 0.58855 0.0
H192 H 0.66037 0.76474 0.61599 0.0
H193 H 0.87378 0.69743 0.53992 0.0
H194 H 0.91402 0.75172 0.50831 0.0
H195 H 0.84773 0.69419 0.49436 0.0
H196 H 0.77812 0.79195 0.46863 0.0
H197 H 0.84421 0.84967 0.48284 0.0
H198 H 0.7561 0.86159 0.49667 0.0
H199 H 0.74578 0.84865 0.63359 0.0
H200 H 0.848 0.91871 0.64402 0.0
H201 H 0.92777 0.86496 0.54056 0.0
C202 C 0.7011 0.70072 0.52048 0.0
C203 C 0.64436 0.67475 0.53942 0.0
C204 C 0.63006 0.69808 0.57387 0.0
C205 C 0.67126 0.7473 0.5895 0.0
C206 C 0.72701 0.77202 0.5704 0.0
C207 C 0.74286 0.74923 0.53686 0.0
C208 C 0.80938 0.78091 0.52365 0.0
C209 C 0.86448 0.7279 0.51613 0.0
C210 C 0.79613 0.82356 0.49101 0.0
C211 C 0.82858 0.824 0.55527 0.0
C212 C 0.77935 0.8188 0.58151 0.0
C213 C 0.78506 0.85286 0.6134 0.0
C214 C 0.84363 0.89213 0.61915 0.0
C215 C 0.89663 0.89616 0.59343 0.0
C216 C 0.88816 0.86279 0.5607 0.0
H217 H 0.67816 0.36566 0.43715 0.0
H218 H 0.59674 0.26192 0.52786 0.0
H219 H 0.67281 0.16626 0.51449 0.0
H220 H 0.69919 0.22548 0.37957 0.0
H221 H 0.78008 0.25352 0.36127 0.0
H222 H 0.71832 0.3132 0.37734 0.0
H223 H 0.81033 0.36452 0.41914 0.0
H224 H 0.87261 0.30564 0.40281 0.0
H225 H 0.85513 0.31158 0.44941 0.0
H226 H 0.75133 0.08032 0.48897 0.0
H227 H 0.84111 0.01497 0.45903 0.0
H228 H 0.88154 0.17997 0.38859 0.0
C229 C 0.67698 0.32278 0.45419 0.0
C230 C 0.63212 0.32025 0.48342 0.0
C231 C 0.63144 0.26416 0.50547 0.0
C232 C 0.67394 0.20974 0.49793 0.0
C233 C 0.7173 0.21322 0.46863 0.0
C234 C 0.72032 0.2688 0.44755 0.0
C235 C 0.77409 0.26106 0.41879 0.0
C236 C 0.74091 0.26345 0.38207 0.0
C237 C 0.83144 0.31382 0.4228 0.0
C238 C 0.80034 0.19214 0.4268 0.0
C239 C 0.76603 0.16516 0.45529 0.0
C240 C 0.77959 0.10139 0.46709 0.0
C241 C 0.83112 0.06487 0.44998 0.0
C242 C 0.86987 0.09275 0.42189 0.0
C243 C 0.85308 0.15693 0.40984 0.0
H244 H 0.21954 0.36297 0.54429 0.0
H245 H 0.30536 0.27209 0.44981 0.0
H246 H 0.23339 0.17181 0.45989 0.0
H247 H 0.22772 0.22438 0.59506 0.0
H248 H 0.14937 0.23971 0.61941 0.0
H249 H 0.19704 0.30817 0.60118 0.0
H250 H 0.08846 0.34618 0.56731 0.0
H251 H 0.04004 0.27802 0.58576 0.0
H252 H 0.04408 0.28814 0.53866 0.0
H253 H 0.16035 0.07633 0.48444 0.0
H254 H 0.09843 -0.00469 0.52221 0.0
H255 H 0.06706 0.14934 0.6012 0.0
C256 C 0.22198 0.32295 0.52503 0.0
C257 C 0.26781 0.32577 0.49608 0.0
C258 C 0.27024 0.27138 0.47205 0.0
C259 C 0.22945 0.21424 0.47753 0.0
C260 C 0.18652 0.2124 0.5071 0.0
C261 C 0.18253 0.26566 0.53034 0.0
C262 C 0.13877 0.24938 0.56215 0.0
C263 C 0.18076 0.25577 0.59644 0.0
C264 C 0.07399 0.29302 0.56353 0.0
C265 C 0.12054 0.17782 0.55393 0.0
C266 C 0.14707 0.15746 0.52173 0.0
C267 C 0.13887 0.09213 0.5095 0.0
C268 C 0.10369 0.0465 0.53103 0.0
C269 C 0.07855 0.06636 0.56457 0.0
C270 C 0.08615 0.13301 0.57571 0.0
H271 H 0.34476 0.76222 0.47117 0.0
H272 H 0.20423 0.6485 0.53684 0.0
H273 H 0.11362 0.7319 0.52707 0.0
H274 H 0.27755 0.9313 0.49603 0.0
H275 H 0.28949 0.96085 0.45175 0.0
H276 H 0.34669 0.89899 0.46913 0.0
H277 H 0.31815 0.82136 0.41604 0.0
H278 H 0.26054 0.88251 0.39878 0.0
H279 H 0.22946 0.7995 0.40722 0.0
H280 H 0.03422 0.81822 0.50348 0.0
H281 H 0.9722 0.89995 0.46769 0.0
H282 H 0.16504 0.9581 0.41798 0.0
C283 C 0.29558 0.7556 0.48431 0.0
C284 C 0.2817 0.69879 0.50482 0.0
C285 C 0.21622 0.69168 0.52109 0.0
C286 C 0.16448 0.73895 0.51582 0.0
C287 C 0.17931 0.7933 0.49454 0.0
C288 C 0.24351 0.80217 0.47931 0.0
C289 C 0.24436 0.861 0.45476 0.0
C290 C 0.29238 0.91631 0.46877 0.0
C291 C 0.26427 0.83978 0.41698 0.0
C292 C 0.16968 0.88166 0.45709 0.0
C293 C 0.13331 0.84299 0.48074 0.0
C294 C 0.06242 0.84968 0.48543 0.0
C295 C 0.02768 0.89636 0.46498 0.0
C296 C 0.06385 0.93546 0.44 0.0
C297 C 0.13596 0.92871 0.43668 0.0
H298 H 0.95247 0.01071 0.14787 0.0
H299 H 0.17565 0.02286 0.13885 0.0
H300 H 0.18472 0.033 0.20341 0.0
H301 H 0.93481 0.12743 0.22133 0.0
H302 H 0.86676 0.08051 0.24217 0.0
H303 H 0.87702 0.07706 0.19499 0.0
H304 H 0.8856 0.94868 0.19725 0.0
H305 H 0.87525 0.95172 0.2444 0.0
H306 H 0.94924 0.91124 0.2252 0.0
H307 H 0.17063 0.03902 0.26868 0.0
H308 H 0.13426 0.03793 0.33097 0.0
H309 H 0.92032 0.01976 0.29853 0.0
C310 C 0.00323 0.01606 0.15943 0.0
C311 C 0.06336 0.01614 0.13814 0.0
C312 C 0.1288 0.02258 0.15446 0.0
C313 C 0.13453 0.02857 0.19116 0.0
C314 C 0.07442 0.02797 0.21132 0.0
C315 C 0.00999 0.02177 0.19613 0.0
C316 C 0.9538 0.02022 0.22407 0.0
C317 C 0.90524 0.07987 0.22041 0.0
C318 C 0.91362 0.95402 0.22264 0.0
C319 C -0.00314 0.02601 0.25729 0.0
C320 C 0.06627 0.03078 0.24923 0.0
C321 C 0.11643 0.03532 0.27533 0.0
C322 C 0.09526 0.03429 0.31064 0.0
C323 C 0.02449 0.02845 0.31969 0.0
C324 C 0.97471 0.02499 0.29251 0.0
H325 H 0.05051 0.06976 0.85046 0.0
H326 H 0.10371 0.86423 0.87061 0.0
H327 H 0.11829 0.84415 0.80703 0.0
H328 H 0.94934 0.03597 0.77567 0.0
H329 H 0.97538 0.10886 0.75166 0.0
H330 H 0.97703 0.10991 0.79906 0.0
H331 H 0.10615 0.14393 0.79771 0.0
H332 H 0.10492 0.14263 0.75021 0.0
H333 H 0.16676 0.09325 0.77356 0.0
H334 H 0.11699 0.84223 0.74196 0.0
H335 H 0.09489 0.85809 0.67853 0.0
H336 H 0.0428 0.06418 0.69882 0.0
C337 C 0.06643 0.02094 0.84147 0.0
C338 C 0.07613 0.96864 0.86558 0.0
C339 C 0.0957 0.90506 0.85272 0.0
C340 C 0.10464 0.8932 0.81661 0.0
C341 C 0.09387 0.94536 0.79352 0.0
C342 C 0.07505 0.00797 0.80528 0.0
C343 C 0.06115 0.05352 0.77447 0.0
C344 C 0.98628 0.0785 0.77527 0.0
C345 C 0.11284 0.11179 0.77397 0.0
C346 C 0.07333 0.00611 0.74371 0.0
C347 C 0.09311 0.94425 0.75542 0.0
C348 C 0.10266 0.89069 0.73238 0.0
C349 C 0.09009 0.90007 0.69647 0.0
C350 C 0.06834 0.96248 0.68396 0.0
C351 C 0.06125 0.01653 0.70775 0.0
H352 H 0.5432 0.45831 0.64942 0.0
H353 H 0.32102 0.47411 0.63791 0.0
H354 H 0.30675 0.45936 0.70185 0.0
H355 H 0.54081 0.33391 0.71915 0.0
H356 H 0.61306 0.37054 0.74219 0.0
H357 H 0.60632 0.37861 0.69508 0.0
H358 H 0.61453 0.50679 0.70144 0.0
H359 H 0.62147 0.49912 0.74852 0.0
H360 H 0.55466 0.54976 0.72994 0.0
H361 H 0.31586 0.4478 0.76691 0.0
H362 H 0.34823 0.44269 0.82962 0.0
H363 H 0.56447 0.43491 0.80014 0.0
C364 C 0.49149 0.45801 0.66029 0.0
C365 C 0.43321 0.46729 0.63847 0.0
C366 C 0.36654 0.46725 0.65392 0.0
C367 C 0.35781 0.45865 0.69026 0.0
C368 C 0.41619 0.45009 0.71097 0.0
C369 C 0.48178 0.44973 0.69666 0.0
C370 C 0.5359 0.44235 0.7252 0.0
C371 C 0.57641 0.37748 0.72009 0.0
C372 C 0.58449 0.50313 0.72633 0.0
C373 C 0.49044 0.43951 0.75778 0.0
C374 C 0.42154 0.44364 0.74883 0.0
C375 C 0.36961 0.44429 0.77424 0.0
C376 C 0.38852 0.44164 0.80979 0.0
C377 C 0.45882 0.43856 0.81977 0.0
C378 C 0.51032 0.43644 0.79329 0.0
H379 H 0.46467 0.44932 0.35046 0.0
H380 H 0.46918 0.66074 0.37502 0.0
H381 H 0.47119 0.6857 0.31158 0.0
H382 H 0.58104 0.45752 0.2768 0.0
H383 H 0.53639 0.39442 0.25147 0.0
H384 H 0.53313 0.39299 0.29888 0.0
H385 H 0.39955 0.39351 0.29673 0.0
H386 H 0.40241 0.39522 0.2493 0.0
H387 H 0.35612 0.45857 0.27336 0.0
H388 H 0.47284 0.6882 0.24559 0.0
H389 H 0.4785 0.66789 0.18145 0.0
H390 H 0.47697 0.45496 0.19941 0.0
C391 C 0.46574 0.50088 0.34252 0.0
C392 C 0.46657 0.55305 0.36785 0.0
C393 C 0.46865 0.61984 0.35624 0.0
C394 C 0.46959 0.63459 0.32021 0.0
C395 C 0.46876 0.58209 0.296 0.0
C396 C 0.46725 0.51657 0.3066 0.0
C397 C 0.4687 0.46953 0.2751 0.0
C398 C 0.53369 0.42607 0.2756 0.0
C399 C 0.40276 0.42669 0.27354 0.0
C400 C 0.47122 0.51889 0.24518 0.0
C401 C 0.47089 0.58353 0.25785 0.0
C402 C 0.47337 0.63778 0.23536 0.0
C403 C 0.47694 0.62571 0.19894 0.0
C404 C 0.47842 0.55986 0.18524 0.0
C405 C 0.475 0.50589 0.20887 0.0
loop_
_geom_bond_atom_site_label_1
_geom_bond_atom_site_label_2
_geom_bond_distance
_geom_bond_site_symmetry_2
_ccdc_geom_bond_type
O0 Zn1 1.953 . S
O0 C16 1.225 1_565 S
Zn1 O0 1.953 . S
Zn1 O2 1.944 1_564 S
Zn1 O8 1.919 . S
Zn1 O13 1.924 1_565 S
O2 Zn1 1.944 1_546 S
O2 Zn3 1.928 1_445 S
O2 Zn4 1.945 1_456 S
O2 Zn5 1.949 . S
Zn3 O2 1.928 1_665 S
Zn3 O6 1.933 . S
Zn3 O9 1.941 1_655 S
Zn3 O10 1.965 . S
Zn4 O2 1.945 1_654 S
Zn4 O11 1.938 1_545 S
Zn4 O12 1.906 . S
Zn4 O22 1.953 . S
Zn5 O2 1.949 . S
Zn5 O7 1.932 . S
Zn5 O14 1.977 1_455 S
Zn5 O15 1.910 . S
O6 Zn3 1.933 . S
O6 C17 1.226 1_665 S
O7 Zn5 1.932 . S
O7 C17 1.307 . S
O8 Zn1 1.919 . S
O8 C19 1.253 1_554 S
O9 Zn3 1.941 1_455 S
O9 C19 1.283 . S
O10 Zn3 1.965 . S
O10 C18 1.303 1_556 S
O11 Zn4 1.938 1_565 S
O11 C18 1.247 . S
O12 Zn4 1.906 . S
O12 C20 1.304 1_554 S
O13 Zn1 1.924 1_545 S
O13 C21 1.311 . S
O14 Zn5 1.977 1_655 S
O14 C20 1.272 . S
O15 Zn5 1.910 . S
O15 C21 1.231 1_556 S
C16 O0 1.225 1_545 S
C16 O22 1.298 1_455 S
C17 O6 1.226 1_445 S
C17 O7 1.307 . S
C18 O10 1.303 1_554 S
C18 O11 1.247 . S
C19 O8 1.253 1_556 S
C19 O9 1.283 . S
C20 O12 1.304 1_556 S
C20 O14 1.272 . S
C21 O13 1.311 . S
C21 O15 1.231 1_554 S
O22 Zn4 1.953 . S
O22 C16 1.298 1_655 S
O23 Zn24 1.953 . S
O23 C39 1.225 . S
Zn24 O23 1.953 . S
Zn24 O25 1.949 . S
Zn24 O31 1.919 . S
Zn24 O36 1.924 . S
O25 Zn24 1.949 . S
O25 Zn26 1.923 . S
O25 Zn27 1.950 . S
O25 Zn28 1.945 . S
Zn26 O25 1.923 . S
Zn26 O29 1.933 . S
Zn26 O32 1.941 . S
Zn26 O33 1.965 . S
Zn27 O25 1.950 . S
Zn27 O34 1.938 . S
Zn27 O35 1.906 . S
Zn27 O45 1.953 . S
Zn28 O25 1.945 . S
Zn28 O30 1.932 . S
Zn28 O37 1.977 . S
Zn28 O38 1.910 . S
O29 Zn26 1.933 . S
O29 C40 1.226 . S
O30 Zn28 1.932 . S
O30 C40 1.307 . S
O31 Zn24 1.919 . S
O31 C42 1.253 . S
O32 Zn26 1.941 . S
O32 C42 1.283 . S
O33 Zn26 1.965 . S
O33 C41 1.303 . S
O34 Zn27 1.938 . S
O34 C41 1.247 . S
O35 Zn27 1.906 . S
O35 C43 1.304 . S
O36 Zn24 1.924 . S
O36 C44 1.311 . S
O37 Zn28 1.977 . S
O37 C43 1.272 . S
O38 Zn28 1.910 . S
O38 C44 1.231 . S
C39 O23 1.225 . S
C39 O45 1.298 . S
C40 O29 1.226 . S
C40 O30 1.307 . S
C41 O33 1.303 . S
C41 O34 1.247 . S
C42 O31 1.253 . S
C42 O32 1.283 . S
C43 O35 1.304 . S
C43 O37 1.272 . S
C44 O36 1.311 . S
C44 O38 1.231 . S
O45 Zn27 1.953 . S
O45 C39 1.298 . S
H46 C49 0.931 . S
H47 C52 0.928 . S
H48 C54 0.930 1_545 S
C49 H46 0.931 . S
C49 C50 1.413 . S
C49 C51 1.357 1_545 S
C50 C49 1.413 . S
C50 C54 1.422 1_645 S
C51 C49 1.357 1_565 S
C51 C52 1.376 1_655 S
C52 H47 0.928 . S
C52 C51 1.376 1_455 S
C52 C53 1.404 . S
C53 C52 1.404 . S
C53 C54 1.398 . S
C54 H48 0.930 1_565 S
C54 C50 1.422 1_465 S
C54 C53 1.398 . S
H55 C58 0.931 . S
H56 C61 0.928 . S
H57 C63 0.930 . S
C58 H55 0.931 . S
C58 C59 1.413 . S
C58 C60 1.360 1_665 S
C59 C58 1.413 . S
C59 C63 1.429 1_665 S
C60 C58 1.360 1_445 S
C60 C61 1.372 . S
C61 H56 0.928 . S
C61 C60 1.372 . S
C61 C62 1.404 . S
C62 C61 1.404 . S
C62 C63 1.391 . S
C63 H57 0.930 . S
C63 C59 1.429 1_445 S
C63 C62 1.391 . S
H64 C67 0.931 . S
H65 C70 0.928 . S
H66 C72 0.930 . S
C67 H64 0.931 . S
C67 C68 1.413 . S
C67 C69 1.360 . S
C68 C67 1.413 . S
C68 C72 1.429 . S
C69 C67 1.360 . S
C69 C70 1.372 . S
C70 H65 0.928 . S
C70 C69 1.372 . S
C70 C71 1.404 . S
C71 C70 1.404 . S
C71 C72 1.391 . S
C72 H66 0.930 . S
C72 C68 1.429 . S
C72 C71 1.391 . S
H73 C76 0.931 . S
H74 C79 0.928 . S
H75 C81 0.930 . S
C76 H73 0.931 . S
C76 C77 1.413 . S
C76 C78 1.360 . S
C77 C76 1.413 . S
C77 C81 1.429 . S
C78 C76 1.360 . S
C78 C79 1.372 . S
C79 H74 0.928 . S
C79 C78 1.372 . S
C79 C80 1.404 . S
C80 C79 1.404 . S
C80 C81 1.391 . S
C81 H75 0.930 . S
C81 C77 1.429 . S
C81 C80 1.391 . S
H82 C94 0.930 . S
H83 C96 0.930 . S
H84 C97 0.930 . S
H85 C101 0.959 1_556 S
H86 C101 0.959 . S
H87 C101 0.961 1_556 S
H88 C102 0.960 . S
H89 C102 0.961 . S
H90 C102 0.959 . S
H91 C105 0.929 . S
H92 C106 0.931 . S
H93 C108 0.930 . S
C94 H82 0.930 . S
C94 C95 1.399 . S
C94 C99 1.399 . S
C95 C94 1.399 . S
C95 C96 1.376 . S
C96 H83 0.930 . S
C96 C95 1.376 . S
C96 C97 1.388 . S
C97 H84 0.930 . S
C97 C96 1.388 . S
C97 C98 1.390 . S
C98 C97 1.390 . S
C98 C99 1.394 . S
C98 C104 1.465 . S
C99 C94 1.399 . S
C99 C98 1.394 . S
C99 C100 1.516 . S
C100 C99 1.516 . S
C100 C101 1.502 . S
C100 C102 1.561 . S
C100 C103 1.526 . S
C101 H85 0.959 1_554 S
C101 H86 0.959 . S
C101 H87 0.961 1_554 S
C101 C100 1.502 . S
C102 H88 0.960 . S
C102 H89 0.961 . S
C102 H90 0.959 . S
C102 C100 1.561 . S
C103 C100 1.526 . S
C103 C104 1.396 . S
C103 C108 1.390 . S
C104 C98 1.465 . S
C104 C103 1.396 . S
C104 C105 1.399 . S
C105 H91 0.929 . S
C105 C104 1.399 . S
C105 C106 1.385 . S
C106 H92 0.931 . S
C106 C105 1.385 . S
C106 C107 1.389 . S
C107 C106 1.389 . S
C107 C108 1.387 . S
C108 H93 0.930 . S
C108 C103 1.390 . S
C108 C107 1.387 . S
H109 C121 0.930 . S
H110 C123 0.930 1_554 S
H111 C124 0.930 . S
H112 C128 0.959 . S
H113 C128 0.959 . S
H114 C128 0.961 . S
H115 C129 0.960 . S
H116 C129 0.961 . S
H117 C129 0.959 . S
H118 C132 0.929 . S
H119 C133 0.931 . S
H120 C135 0.930 . S
C121 H109 0.930 . S
C121 C122 1.399 . S
C121 C126 1.399 . S
C122 C121 1.399 . S
C122 C123 1.376 . S
C123 H110 0.930 1_556 S
C123 C122 1.376 . S
C123 C124 1.388 . S
C124 H111 0.930 . S
C124 C123 1.388 . S
C124 C125 1.390 . S
C125 C124 1.390 . S
C125 C126 1.394 . S
C125 C131 1.465 . S
C126 C121 1.399 . S
C126 C125 1.394 . S
C126 C127 1.516 . S
C127 C126 1.516 . S
C127 C128 1.502 . S
C127 C129 1.561 . S
C127 C130 1.526 . S
C128 H112 0.959 . S
C128 H113 0.959 . S
C128 H114 0.961 . S
C128 C127 1.502 . S
C129 H115 0.960 . S
C129 H116 0.961 . S
C129 H117 0.959 . S
C129 C127 1.561 . S
C130 C127 1.526 . S
C130 C131 1.396 . S
C130 C135 1.390 . S
C131 C125 1.465 . S
C131 C130 1.396 . S
C131 C132 1.399 . S
C132 H118 0.929 . S
C132 C131 1.399 . S
C132 C133 1.385 . S
C133 H119 0.931 . S
C133 C132 1.385 . S
C133 C134 1.389 . S
C134 C133 1.389 . S
C134 C135 1.387 . S
C135 H120 0.930 . S
C135 C130 1.390 . S
C135 C134 1.387 . S
H136 C148 0.930 . S
H137 C150 0.930 . S
H138 C151 0.930 . S
H139 C155 0.959 . S
H140 C155 0.959 . S
H141 C155 0.961 . S
H142 C156 0.960 . S
H143 C156 0.961 . S
H144 C156 0.959 . S
H145 C159 0.929 . S
H146 C160 0.931 . S
H147 C162 0.930 . S
C148 H136 0.930 . S
C148 C149 1.399 . S
C148 C153 1.399 . S
C149 C148 1.399 . S
C149 C150 1.376 . S
C150 H137 0.930 . S
C150 C149 1.376 . S
C150 C151 1.388 . S
C151 H138 0.930 . S
C151 C150 1.388 . S
C151 C152 1.390 . S
C152 C151 1.390 . S
C152 C153 1.394 . S
C152 C158 1.465 . S
C153 C148 1.399 . S
C153 C152 1.394 . S
C153 C154 1.516 . S
C154 C153 1.516 . S
C154 C155 1.502 . S
C154 C156 1.561 1_554 S
C154 C157 1.526 . S
C155 H139 0.959 . S
C155 H140 0.959 . S
C155 H141 0.961 . S
C155 C154 1.502 . S
C156 H142 0.960 . S
C156 H143 0.961 . S
C156 H144 0.959 . S
C156 C154 1.561 1_556 S
C157 C154 1.526 . S
C157 C158 1.396 . S
C157 C162 1.390 . S
C158 C152 1.465 . S
C158 C157 1.396 . S
C158 C159 1.399 . S
C159 H145 0.929 . S
C159 C158 1.399 . S
C159 C160 1.385 . S
C160 H146 0.931 . S
C160 C159 1.385 . S
C160 C161 1.389 . S
C161 C160 1.389 . S
C161 C162 1.387 . S
C162 H147 0.930 . S
C162 C157 1.390 . S
C162 C161 1.387 . S
H163 C175 0.930 . S
H164 C177 0.928 1_554 S
H165 C178 0.930 1_554 S
H166 C182 0.959 . S
H167 C182 0.959 . S
H168 C182 0.961 . S
H169 C183 0.960 . S
H170 C183 0.961 . S
H171 C183 0.959 . S
H172 C186 0.929 . S
H173 C187 0.931 . S
H174 C189 0.930 . S
C175 H163 0.930 . S
C175 C176 1.399 . S
C175 C180 1.399 . S
C176 C175 1.399 . S
C176 C177 1.378 . S
C177 H164 0.928 1_556 S
C177 C176 1.378 . S
C177 C178 1.389 . S
C178 H165 0.930 1_556 S
C178 C177 1.389 . S
C178 C179 1.390 . S
C179 C178 1.390 . S
C179 C180 1.394 . S
C179 C185 1.465 . S
C180 C175 1.399 . S
C180 C179 1.394 . S
C180 C181 1.516 . S
C181 C180 1.516 . S
C181 C182 1.502 . S
C181 C183 1.561 . S
C181 C184 1.526 . S
C182 H166 0.959 . S
C182 H167 0.959 . S
C182 H168 0.961 . S
C182 C181 1.502 . S
C183 H169 0.960 . S
C183 H170 0.961 . S
C183 H171 0.959 . S
C183 C181 1.561 . S
C184 C181 1.526 . S
C184 C185 1.396 . S
C184 C189 1.390 . S
C185 C179 1.465 . S
C185 C184 1.396 . S
C185 C186 1.399 . S
C186 H172 0.929 . S
C186 C185 1.399 . S
C186 C187 1.385 . S
C187 H173 0.931 . S
C187 C186 1.385 . S
C187 C188 1.389 . S
C188 C187 1.389 . S
C188 C189 1.387 . S
C189 H174 0.930 . S
C189 C184 1.390 . S
C189 C188 1.387 . S
H190 C202 0.930 . S
H191 C204 0.930 . S
H192 C205 0.930 . S
H193 C209 0.959 . S
H194 C209 0.959 . S
H195 C209 0.961 . S
H196 C210 0.960 . S
H197 C210 0.961 . S
H198 C210 0.959 . S
H199 C213 0.929 . S
H200 C214 0.931 . S
H201 C216 0.930 . S
C202 H190 0.930 . S
C202 C203 1.399 . S
C202 C207 1.399 . S
C203 C202 1.399 . S
C203 C204 1.376 . S
C204 H191 0.930 . S
C204 C203 1.376 . S
C204 C205 1.388 . S
C205 H192 0.930 . S
C205 C204 1.388 . S
C205 C206 1.390 . S
C206 C205 1.390 . S
C206 C207 1.394 . S
C206 C212 1.465 . S
C207 C202 1.399 . S
C207 C206 1.394 . S
C207 C208 1.516 . S
C208 C207 1.516 . S
C208 C209 1.502 . S
C208 C210 1.561 . S
C208 C211 1.526 . S
C209 H193 0.959 . S
C209 H194 0.959 . S
C209 H195 0.961 . S
C209 C208 1.502 . S
C210 H196 0.960 . S
C210 H197 0.961 . S
C210 H198 0.959 . S
C210 C208 1.561 . S
C211 C208 1.526 . S
C211 C212 1.396 . S
C211 C216 1.390 . S
C212 C206 1.465 . S
C212 C211 1.396 . S
C212 C213 1.399 . S
C213 H199 0.929 . S
C213 C212 1.399 . S
C213 C214 1.385 . S
C214 H200 0.931 . S
C214 C213 1.385 . S
C214 C215 1.389 . S
C215 C214 1.389 . S
C215 C216 1.387 . S
C216 H201 0.930 . S
C216 C211 1.390 . S
C216 C215 1.387 . S
H217 C229 0.930 . S
H218 C231 0.930 . S
H219 C232 0.930 . S
H220 C236 0.959 . S
H221 C236 0.959 . S
H222 C236 0.961 . S
H223 C237 0.960 . S
H224 C237 0.961 . S
H225 C237 0.959 . S
H226 C240 0.929 . S
H227 C241 0.931 . S
H228 C243 0.930 . S
C229 H217 0.930 . S
C229 C230 1.399 . S
C229 C234 1.399 . S
C230 C229 1.399 . S
C230 C231 1.376 . S
C231 H218 0.930 . S
C231 C230 1.376 . S
C231 C232 1.388 . S
C232 H219 0.930 . S
C232 C231 1.388 . S
C232 C233 1.390 . S
C233 C232 1.390 . S
C233 C234 1.394 . S
C233 C239 1.465 . S
C234 C229 1.399 . S
C234 C233 1.394 . S
C234 C235 1.516 . S
C235 C234 1.516 . S
C235 C236 1.502 . S
C235 C237 1.561 . S
C235 C238 1.526 . S
C236 H220 0.959 . S
C236 H221 0.959 . S
C236 H222 0.961 . S
C236 C235 1.502 . S
C237 H223 0.960 . S
C237 H224 0.961 . S
C237 H225 0.959 . S
C237 C235 1.561 . S
C238 C235 1.526 . S
C238 C239 1.396 . S
C238 C243 1.390 . S
C239 C233 1.465 . S
C239 C238 1.396 . S
C239 C240 1.399 . S
C240 H226 0.929 . S
C240 C239 1.399 . S
C240 C241 1.385 . S
C241 H227 0.931 . S
C241 C240 1.385 . S
C241 C242 1.389 . S
C242 C241 1.389 . S
C242 C243 1.387 . S
C243 H228 0.930 . S
C243 C238 1.390 . S
C243 C242 1.387 . S
H244 C256 0.930 . S
H245 C258 0.930 . S
H246 C259 0.930 . S
H247 C263 0.959 . S
H248 C263 0.959 . S
H249 C263 0.961 . S
H250 C264 0.960 . S
H251 C264 0.961 . S
H252 C264 0.959 . S
H253 C267 0.929 . S
H254 C268 0.931 . S
H255 C270 0.930 . S
C256 H244 0.930 . S
C256 C257 1.399 . S
C256 C261 1.399 . S
C257 C256 1.399 . S
C257 C258 1.376 . S
C258 H245 0.930 . S
C258 C257 1.376 . S
C258 C259 1.388 . S
C259 H246 0.930 . S
C259 C258 1.388 . S
C259 C260 1.390 . S
C260 C259 1.390 . S
C260 C261 1.394 . S
C260 C266 1.465 . S
C261 C256 1.399 . S
C261 C260 1.394 . S
C261 C262 1.516 . S
C262 C261 1.516 . S
C262 C263 1.502 . S
C262 C264 1.561 . S
C262 C265 1.526 . S
C263 H247 0.959 . S
C263 H248 0.959 . S
C263 H249 0.961 . S
C263 C262 1.502 . S
C264 H250 0.960 . S
C264 H251 0.961 . S
C264 H252 0.959 . S
C264 C262 1.561 . S
C265 C262 1.526 . S
C265 C266 1.396 . S
C265 C270 1.390 . S
C266 C260 1.465 . S
C266 C265 1.396 . S
C266 C267 1.399 . S
C267 H253 0.929 . S
C267 C266 1.399 . S
C267 C268 1.385 . S
C268 H254 0.931 . S
C268 C267 1.385 . S
C268 C269 1.389 . S
C269 C268 1.389 . S
C269 C270 1.387 . S
C270 H255 0.930 . S
C270 C265 1.390 . S
C270 C269 1.387 . S
H271 C283 0.930 . S
H272 C285 0.930 . S
H273 C286 0.930 . S
H274 C290 0.959 . S
H275 C290 0.959 . S
H276 C290 0.961 . S
H277 C291 0.960 . S
H278 C291 0.961 . S
H279 C291 0.959 . S
H280 C294 0.929 . S
H281 C295 0.931 . S
H282 C297 0.930 . S
C283 H271 0.930 . S
C283 C284 1.399 . S
C283 C288 1.399 . S
C284 C283 1.399 . S
C284 C285 1.376 . S
C285 H272 0.930 . S
C285 C284 1.376 . S
C285 C286 1.388 . S
C286 H273 0.930 . S
C286 C285 1.388 . S
C286 C287 1.390 . S
C287 C286 1.390 . S
C287 C288 1.394 . S
C287 C293 1.465 . S
C288 C283 1.399 . S
C288 C287 1.394 . S
C288 C289 1.516 . S
C289 C288 1.516 . S
C289 C290 1.502 . S
C289 C291 1.561 . S
C289 C292 1.526 . S
C290 H274 0.959 . S
C290 H275 0.959 . S
C290 H276 0.961 . S
C290 C289 1.502 . S
C291 H277 0.960 . S
C291 H278 0.961 . S
C291 H279 0.959 . S
C291 C289 1.561 . S
C292 C289 1.526 . S
C292 C293 1.396 . S
C292 C297 1.390 . S
C293 C287 1.465 . S
C293 C292 1.396 . S
C293 C294 1.399 . S
C294 H280 0.929 . S
C294 C293 1.399 . S
C294 C295 1.385 . S
C295 H281 0.931 . S
C295 C294 1.385 . S
C295 C296 1.389 . S
C296 C295 1.389 . S
C296 C297 1.387 . S
C297 H282 0.930 . S
C297 C292 1.390 . S
C297 C296 1.387 . S
H298 C310 0.930 . S
H299 C312 0.930 . S
H300 C313 0.930 . S
H301 C317 0.959 . S
H302 C317 0.959 . S
H303 C317 0.961 . S
H304 C318 0.960 . S
H305 C318 0.961 . S
H306 C318 0.959 1_455 S
H307 C321 0.929 . S
H308 C322 0.931 . S
H309 C324 0.930 . S
C310 H298 0.930 . S
C310 C311 1.399 1_665 S
C310 C315 1.399 . S
C311 C310 1.399 1_445 S
C311 C312 1.376 . S
C312 H299 0.930 . S
C312 C311 1.376 . S
C312 C313 1.388 . S
C313 H300 0.930 . S
C313 C312 1.388 . S
C313 C314 1.390 . S
C314 C313 1.390 . S
C314 C315 1.394 1_445 S
C314 C320 1.465 . S
C315 C310 1.399 . S
C315 C314 1.394 1_665 S
C315 C316 1.516 . S
C316 C315 1.516 . S
C316 C317 1.502 . S
C316 C318 1.561 . S
C316 C319 1.526 . S
C317 H301 0.959 . S
C317 H302 0.959 . S
C317 H303 0.961 . S
C317 C316 1.502 . S
C318 H304 0.960 . S
C318 H305 0.961 . S
C318 H306 0.959 1_655 S
C318 C316 1.561 . S
C319 C316 1.526 . S
C319 C320 1.396 1_665 S
C319 C324 1.390 . S
C320 C314 1.465 . S
C320 C319 1.396 1_445 S
C320 C321 1.399 . S
C321 H307 0.929 . S
C321 C320 1.399 . S
C321 C322 1.385 . S
C322 H308 0.931 . S
C322 C321 1.385 . S
C322 C323 1.389 . S
C323 C322 1.389 . S
C323 C324 1.387 1_445 S
C324 H309 0.930 . S
C324 C319 1.390 . S
C324 C323 1.387 1_665 S
H325 C337 0.930 . S
H326 C339 0.930 . S
H327 C340 0.930 . S
H328 C344 0.959 . S
H329 C344 0.959 . S
H330 C344 0.961 . S
H331 C345 0.960 . S
H332 C345 0.961 . S
H333 C345 0.959 . S
H334 C348 0.929 . S
H335 C349 0.931 . S
H336 C351 0.930 . S
C337 H325 0.930 . S
C337 C338 1.409 1_655 S
C337 C342 1.399 1_655 S
C338 C337 1.409 1_455 S
C338 C339 1.364 1_545 S
C339 H326 0.930 . S
C339 C338 1.364 1_565 S
C339 C340 1.388 . S
C340 H327 0.930 . S
C340 C339 1.388 . S
C340 C341 1.390 . S
C341 C340 1.390 . S
C341 C342 1.394 1_565 S
C341 C347 1.465 . S
C342 C337 1.399 1_455 S
C342 C341 1.394 1_545 S
C342 C343 1.516 1_455 S
C343 C342 1.516 1_655 S
C343 C344 1.502 . S
C343 C345 1.561 1_655 S
C343 C346 1.526 1_655 S
C344 H328 0.959 . S
C344 H329 0.959 . S
C344 H330 0.961 . S
C344 C343 1.502 . S
C345 H331 0.960 . S
C345 H332 0.961 . S
C345 H333 0.959 . S
C345 C343 1.561 1_455 S
C346 C343 1.526 1_455 S
C346 C347 1.396 1_545 S
C346 C351 1.390 1_455 S
C347 C341 1.465 . S
C347 C346 1.396 1_565 S
C347 C348 1.399 . S
C348 H334 0.929 . S
C348 C347 1.399 . S
C348 C349 1.385 . S
C349 H335 0.931 . S
C349 C348 1.385 . S
C349 C350 1.389 . S
C350 C349 1.389 . S
C350 C351 1.387 1_465 S
C351 H336 0.930 . S
C351 C346 1.390 1_655 S
C351 C350 1.387 1_645 S
H352 C364 0.930 . S
H353 C366 0.930 . S
H354 C367 0.930 . S
H355 C371 0.959 . S
H356 C371 0.959 . S
H357 C371 0.961 . S
H358 C372 0.960 . S
H359 C372 0.961 . S
H360 C372 0.959 . S
H361 C375 0.929 . S
H362 C376 0.931 . S
H363 C378 0.930 . S
C364 H352 0.930 . S
C364 C365 1.399 . S
C364 C369 1.399 . S
C365 C364 1.399 . S
C365 C366 1.376 . S
C366 H353 0.930 . S
C366 C365 1.376 . S
C366 C367 1.388 . S
C367 H354 0.930 . S
C367 C366 1.388 . S
C367 C368 1.390 . S
C368 C367 1.390 . S
C368 C369 1.394 . S
C368 C374 1.465 . S
C369 C364 1.399 . S
C369 C368 1.394 . S
C369 C370 1.516 . S
C370 C369 1.516 . S
C370 C371 1.502 . S
C370 C372 1.561 . S
C370 C373 1.526 . S
C371 H355 0.959 . S
C371 H356 0.959 . S
C371 H357 0.961 . S
C371 C370 1.502 . S
C372 H358 0.960 . S
C372 H359 0.961 . S
C372 H360 0.959 . S
C372 C370 1.561 . S
C373 C370 1.526 . S
C373 C374 1.396 . S
C373 C378 1.390 . S
C374 C368 1.465 . S
C374 C373 1.396 . S
C374 C375 1.399 . S
C375 H361 0.929 . S
C375 C374 1.399 . S
C375 C376 1.385 . S
C376 H362 0.931 . S
C376 C375 1.385 . S
C376 C377 1.389 . S
C377 C376 1.389 . S
C377 C378 1.387 . S
C378 H363 0.930 . S
C378 C373 1.390 . S
C378 C377 1.387 . S
H379 C391 0.930 . S
H380 C393 0.930 . S
H381 C394 0.930 . S
H382 C398 0.959 . S
H383 C398 0.959 . S
H384 C398 0.961 . S
H385 C399 0.960 . S
H386 C399 0.961 . S
H387 C399 0.959 . S
H388 C402 0.929 . S
H389 C403 0.931 . S
H390 C405 0.930 . S
C391 H379 0.930 . S
C391 C392 1.399 . S
C391 C396 1.399 . S
C392 C391 1.399 . S
C392 C393 1.376 . S
C393 H380 0.930 . S
C393 C392 1.376 . S
C393 C394 1.388 . S
C394 H381 0.930 . S
C394 C393 1.388 . S
C394 C395 1.390 . S
C395 C394 1.390 . S
C395 C396 1.394 . S
C395 C401 1.465 . S
C396 C391 1.399 . S
C396 C395 1.394 . S
C396 C397 1.516 . S
C397 C396 1.516 . S
C397 C398 1.502 . S
C397 C399 1.561 . S
C397 C400 1.526 . S
C398 H382 0.959 . S
C398 H383 0.959 . S
C398 H384 0.961 . S
C398 C397 1.502 . S
C399 H385 0.960 . S
C399 H386 0.961 . S
C399 H387 0.959 . S
C399 C397 1.561 . S
C400 C397 1.526 . S
C400 C401 1.396 . S
C400 C405 1.390 . S
C401 C395 1.465 . S
C401 C400 1.396 . S
C401 C402 1.399 . S
C402 H388 0.929 . S
C402 C401 1.399 . S
C402 C403 1.385 . S
C403 H389 0.931 . S
C403 C402 1.385 . S
C403 C404 1.389 . S
C404 C403 1.389 . S
C404 C405 1.387 . S
C405 H390 0.930 . S
C405 C400 1.390 . S
C405 C404 1.387 . S
C107 C77 1.409 . S
C95 C21 1.417 . S
C122 C19 1.423 . S
C134 C68 1.420 . S
C149 C18 1.406 . S
C161 C80 1.383 . S
C176 C20 1.414 . S
C188 C71 1.414 . S
C203 C44 1.430 . S
C215 C59 1.402 . S
C230 C42 1.403 . S
C242 C50 1.428 . S
C269 C62 1.399 . S
C257 C41 1.397 . S
C296 C53 1.416 . S
C284 C43 1.411 . S
C311 C16 1.487 . S
C323 C51 1.487 1_445 S
C338 C17 1.462 . S
C350 C60 1.462 1_565 S
C377 C69 1.488 . S
C365 C39 1.488 . S
C392 C40 1.455 . S
C404 C78 1.456 . S
