# Generated by pormake.
# Topology ptr, (4,4)-cn, num edge types: 1
# Building blocks:
#     Node 0, Type 0, BuildingBlock: QUQFOY_clean_sbu_1, # of connection points: 4
#     Node 1, Type 0, BuildingBlock: QUQFOY_clean_sbu_1, # of connection points: 4
#     Node 2, Type 0, BuildingBlock: QUQFOY_clean_sbu_1, # of connection points: 4
#     Node 3, Type 0, BuildingBlock: QUQFOY_clean_sbu_1, # of connection points: 4
#     Node 4, Type 0, BuildingBlock: QUQFOY_clean_sbu_1, # of connection points: 4
#     Node 5, Type 0, BuildingBlock: QUQFOY_clean_sbu_1, # of connection points: 4
#     Node 6, Type 0, BuildingBlock: QUQFOY_clean_sbu_1, # of connection points: 4
#     Node 7, Type 0, BuildingBlock: QUQFOY_clean_sbu_1, # of connection points: 4
#     Node 8, Type 0, BuildingBlock: QUQFOY_clean_sbu_1, # of connection points: 4
#     Node 9, Type 0, BuildingBlock: QUQFOY_clean_sbu_1, # of connection points: 4
#     Node 10, Type 0, BuildingBlock: QUQFOY_clean_sbu_1, # of connection points: 4
#     Node 11, Type 0, BuildingBlock: QUQFOY_clean_sbu_1, # of connection points: 4
#     Node 12, Type 0, BuildingBlock: QUQFOY_clean_sbu_1, # of connection points: 4
#     Node 13, Type 0, BuildingBlock: QUQFOY_clean_sbu_1, # of connection points: 4
#     Node 14, Type 0, BuildingBlock: QUQFOY_clean_sbu_1, # of connection points: 4
#     Node 15, Type 0, BuildingBlock: QUQFOY_clean_sbu_1, # of connection points: 4
#     Node 16, Type 0, BuildingBlock: QUQFOY_clean_sbu_1, # of connection points: 4
#     Node 17, Type 0, BuildingBlock: QUQFOY_clean_sbu_1, # of connection points: 4
#     Node 18, Type 1, BuildingBlock: MUDLON_clean_linker_0, # of connection points: 4
#     Node 19, Type 1, BuildingBlock: MUDLON_clean_linker_0, # of connection points: 4
#     Node 20, Type 1, BuildingBlock: MUDLON_clean_linker_0, # of connection points: 4
#     Node 21, Type 1, BuildingBlock: MUDLON_clean_linker_0, # of connection points: 4
#     Node 22, Type 1, BuildingBlock: MUDLON_clean_linker_0, # of connection points: 4
#     Node 23, Type 1, BuildingBlock: MUDLON_clean_linker_0, # of connection points: 4
#     Node 24, Type 1, BuildingBlock: MUDLON_clean_linker_0, # of connection points: 4
#     Node 25, Type 1, BuildingBlock: MUDLON_clean_linker_0, # of connection points: 4
#     Node 26, Type 1, BuildingBlock: MUDLON_clean_linker_0, # of connection points: 4
#     Node 27, Type 1, BuildingBlock: MUDLON_clean_linker_0, # of connection points: 4
#     Node 28, Type 1, BuildingBlock: MUDLON_clean_linker_0, # of connection points: 4
#     Node 29, Type 1, BuildingBlock: MUDLON_clean_linker_0, # of connection points: 4
#     Node 30, Type 1, BuildingBlock: MUDLON_clean_linker_0, # of connection points: 4
#     Node 31, Type 1, BuildingBlock: MUDLON_clean_linker_0, # of connection points: 4
#     Node 32, Type 1, BuildingBlock: MUDLON_clean_linker_0, # of connection points: 4
#     Node 33, Type 1, BuildingBlock: MUDLON_clean_linker_0, # of connection points: 4
#     Node 34, Type 1, BuildingBlock: MUDLON_clean_linker_0, # of connection points: 4
#     Node 35, Type 1, BuildingBlock: MUDLON_clean_linker_0, # of connection points: 4
#     Edge 36, Type (0, 1), None
#     Edge 37, Type (0, 1), None
#     Edge 38, Type (0, 1), None
#     Edge 39, Type (0, 1), None
#     Edge 40, Type (0, 1), None
#     Edge 41, Type (0, 1), None
#     Edge 42, Type (0, 1), None
#     Edge 43, Type (0, 1), None
#     Edge 44, Type (0, 1), None
#     Edge 45, Type (0, 1), None
#     Edge 46, Type (0, 1), None
#     Edge 47, Type (0, 1), None
#     Edge 48, Type (0, 1), None
#     Edge 49, Type (0, 1), None
#     Edge 50, Type (0, 1), None
#     Edge 51, Type (0, 1), None
#     Edge 52, Type (0, 1), None
#     Edge 53, Type (0, 1), None
#     Edge 54, Type (0, 1), None
#     Edge 55, Type (0, 1), None
#     Edge 56, Type (0, 1), None
#     Edge 57, Type (0, 1), None
#     Edge 58, Type (0, 1), None
#     Edge 59, Type (0, 1), None
#     Edge 60, Type (0, 1), None
#     Edge 61, Type (0, 1), None
#     Edge 62, Type (0, 1), None
#     Edge 63, Type (0, 1), None
#     Edge 64, Type (0, 1), None
#     Edge 65, Type (0, 1), None
#     Edge 66, Type (0, 1), None
#     Edge 67, Type (0, 1), None
#     Edge 68, Type (0, 1), None
#     Edge 69, Type (0, 1), None
#     Edge 70, Type (0, 1), None
#     Edge 71, Type (0, 1), None
#     Edge 72, Type (0, 1), None
#     Edge 73, Type (0, 1), None
#     Edge 74, Type (0, 1), None
#     Edge 75, Type (0, 1), None
#     Edge 76, Type (0, 1), None
#     Edge 77, Type (0, 1), None
#     Edge 78, Type (0, 1), None
#     Edge 79, Type (0, 1), None
#     Edge 80, Type (0, 1), None
#     Edge 81, Type (0, 1), None
#     Edge 82, Type (0, 1), None
#     Edge 83, Type (0, 1), None
#     Edge 84, Type (0, 1), None
#     Edge 85, Type (0, 1), None
#     Edge 86, Type (0, 1), None
#     Edge 87, Type (0, 1), None
#     Edge 88, Type (0, 1), None
#     Edge 89, Type (0, 1), None
#     Edge 90, Type (0, 1), None
#     Edge 91, Type (0, 1), None
#     Edge 92, Type (0, 1), None
#     Edge 93, Type (0, 1), None
#     Edge 94, Type (0, 1), None
#     Edge 95, Type (0, 1), None
#     Edge 96, Type (0, 1), None
#     Edge 97, Type (0, 1), None
#     Edge 98, Type (0, 1), None
#     Edge 99, Type (0, 1), None
#     Edge 100, Type (0, 1), None
#     Edge 101, Type (0, 1), None
#     Edge 102, Type (0, 1), None
#     Edge 103, Type (0, 1), None
#     Edge 104, Type (0, 1), None
#     Edge 105, Type (0, 1), None
#     Edge 106, Type (0, 1), None
#     Edge 107, Type (0, 1), None
# Relax obj value: 0.010
# Max RMSD: 0.042
# Mean RMSD: 0.039
data_MOF--net-ptr--node1-QUQFOY_clean_sbu_1--node2-MUDLON_clean_linker_0--edge1-none
_symmetry_space_group_name_H-M    P1
_symmetry_Int_Tables_number       1
_symmetry_cell_setting            triclinic
loop_
_symmetry_equiv_pos_as_xyz
'x, y, z'
_cell_length_a     64.079312
_cell_length_b     64.116489
_cell_length_c     36.720625
_cell_angle_alpha  89.840088
_cell_angle_beta   90.045206
_cell_angle_gamma 119.96828
loop_
_atom_site_label
_atom_site_type_symbol
_atom_site_fract_x
_atom_site_fract_y
_atom_site_fract_z
_atom_type_partial_charge
O0 O 0.0283 0.39965 0.08302 0.0
Cd1 Cd 0.03934 0.38578 0.04132 0.0
Cd2 Cd 0.99282 0.36527 0.02661 0.0
O3 O 0.98925 0.37449 0.07937 0.0
O4 O 0.07094 0.39087 0.05947 0.0
O5 O 0.03879 0.3548 0.05282 0.0
C6 C 0.06069 0.36788 0.06408 0.0
C7 C 0.97322 0.32664 1.00224 0.0
C8 C 1.00724 0.39105 0.09624 0.0
C9 C 0.02634 0.40174 0.97334 0.0
O10 O 1.00535 0.3917 0.98716 0.0
O11 O 0.04297 0.39958 0.9888 0.0
O12 O 0.96212 0.33863 1.00652 0.0
O13 O 0.99495 0.3359 1.01453 0.0
O14 O 0.62645 0.63393 0.08041 0.0
Cd15 Cd 0.64037 0.66041 0.04104 0.0
Cd16 Cd 0.6663 0.63987 0.02629 0.0
O17 O 0.65612 0.62596 0.07873 0.0
O18 O 0.63643 0.6871 0.06118 0.0
O19 O 0.67193 0.68972 0.0531 0.0
C20 C 0.65952 0.69904 0.0654 0.0
C21 C 0.70552 0.65773 1.00353 0.0
C22 C 0.63734 0.62381 0.09417 0.0
C23 C 0.62895 0.63475 0.97137 0.0
O24 O 0.64139 0.62611 0.98455 0.0
O25 O 0.62753 0.6513 0.98829 0.0
O26 O 0.69274 0.63473 1.00807 0.0
O27 O 0.69675 0.67083 1.01488 0.0
O28 O 0.41006 0.02589 0.98387 0.0
Cd29 Cd 0.39541 0.03709 0.02426 0.0
Cd30 Cd 0.37237 0.99048 0.03916 0.0
O31 O 0.38181 0.98766 0.98602 0.0
O32 O 0.39735 0.06756 1.00617 0.0
O33 O 0.36314 0.03308 1.01207 0.0
C34 C 0.37432 0.05526 1.00141 0.0
C35 C 0.33345 0.96974 0.06333 0.0
C36 C 0.39988 1.0049 0.97011 0.0
C37 C 0.40925 0.02298 0.09286 0.0
O38 O 0.39859 1.00208 0.07888 0.0
O39 O 0.40803 0.04014 0.07736 0.0
O40 O 0.3458 0.9591 0.05823 0.0
O41 O 0.34254 0.9917 0.05215 0.0
O42 O 0.00935 0.62693 0.9862 0.0
Cd43 Cd 0.99826 0.64071 0.02788 0.0
Cd44 Cd 0.04539 0.66231 0.04294 0.0
O45 O 0.04832 0.65265 0.99006 0.0
O46 O 0.96684 0.63709 1.01078 0.0
O47 O 1.0003 0.67223 1.01602 0.0
C48 C 0.9781 0.6601 1.00573 0.0
C49 C 0.06349 0.70143 0.06582 0.0
C50 C 0.0305 0.63589 0.97314 0.0
C51 C 0.01237 0.62576 0.09645 0.0
O52 O 0.03346 0.63626 0.08292 0.0
O53 O 0.99549 0.62736 0.08064 0.0
O54 O 0.0758 0.69066 0.06133 0.0
O55 O 0.04139 0.69052 0.05486 0.0
O56 O 0.40951 0.39051 0.98595 0.0
Cd57 Cd 0.3954 0.36415 0.02542 0.0
Cd58 Cd 0.36991 0.38544 0.04021 0.0
O59 O 0.38021 0.39903 0.98751 0.0
O60 O 0.3998 0.33756 1.00576 0.0
O61 O 0.36411 0.33458 1.01304 0.0
C62 C 0.37674 0.32541 1.00121 0.0
C63 C 0.33043 0.36543 0.06234 0.0
C64 C 0.39888 0.40088 0.97212 0.0
C65 C 0.40702 0.39034 0.0951 0.0
O66 O 0.39483 0.3993 0.08197 0.0
O67 O 0.40807 0.37357 0.07822 0.0
O68 O 0.34188 0.38847 0.05755 0.0
O69 O 0.34076 0.3536 0.05176 0.0
O70 O 0.63132 1.00073 0.08128 0.0
Cd71 Cd 0.6445 0.98901 0.03974 0.0
Cd72 Cd 0.66828 0.03643 0.0242 0.0
O73 O 0.65781 0.03947 0.07665 0.0
O74 O 0.6416 0.95806 0.05751 0.0
O75 O 0.6764 0.99179 0.05063 0.0
C76 C 0.6647 0.96972 0.06171 0.0
C77 C 0.70774 0.05576 1.00225 0.0
C78 C 0.64077 0.02199 0.09387 0.0
C79 C 0.63136 1.00356 0.97015 0.0
O80 O 0.6433 0.02481 0.98275 0.0
O81 O 0.63088 0.98602 0.98733 0.0
O82 O 0.69628 0.0674 1.00649 0.0
O83 O 0.69738 0.03367 1.01322 0.0
O84 O 0.69454 0.73209 0.41602 0.0
Cd85 Cd 0.70564 0.71832 0.37428 0.0
Cd86 Cd 0.65917 0.69786 0.35942 0.0
O87 O 0.65549 0.70695 0.41219 0.0
O88 O 0.73717 0.72333 0.39255 0.0
O89 O 0.705 0.68729 0.38569 0.0
C90 C 0.72688 0.70032 0.39709 0.0
C91 C 0.63962 0.65923 0.33505 0.0
C92 C 0.67346 0.72346 0.42917 0.0
C93 C 0.69277 0.73446 0.30636 0.0
O94 O 0.67176 0.72436 0.32008 0.0
O95 O 0.70937 0.73226 0.32183 0.0
O96 O 0.62851 0.67121 0.33924 0.0
O97 O 0.66135 0.66851 0.34735 0.0
O98 O 0.29929 0.96846 0.41409 0.0
Cd99 Cd 0.31309 0.99346 0.37239 0.0
Cd100 Cd 0.33407 0.9679 0.3578 0.0
O101 O 0.32476 0.95493 0.41056 0.0
O102 O 0.30765 0.0197 0.39055 0.0
O103 O 0.3439 0.02395 0.38403 0.0
C104 C 0.33063 0.03255 0.3953 0.0
C105 C 0.37284 0.98716 0.33363 0.0
C106 C 0.30805 0.95616 0.42739 0.0
C107 C 0.29757 0.96476 0.3044 0.0
O108 O 0.30781 0.95398 0.31822 0.0
O109 O 0.29944 0.98337 0.31988 0.0
O110 O 0.36092 0.96407 0.33788 0.0
O111 O 0.36342 0.9995 0.34583 0.0
O112 O 0.07618 0.3586 0.31927 0.0
Cd113 Cd 0.06155 0.36986 0.35949 0.0
Cd114 Cd 0.03801 0.32292 0.37442 0.0
O115 O 0.04773 0.32043 0.32122 0.0
O116 O 0.06423 0.40077 0.3417 0.0
O117 O 0.02967 0.3666 0.34674 0.0
C118 C 0.04122 0.38885 0.3365 0.0
C119 C 0.99871 0.30407 0.39736 0.0
C120 C 0.06592 0.33763 0.30544 0.0
C121 C 0.07464 0.35506 0.42854 0.0
O122 O 0.06389 0.3341 0.4147 0.0
O123 O 0.07374 0.37231 0.41273 0.0
O124 O 0.00973 0.29208 0.39219 0.0
O125 O 0.00947 0.32632 0.38709 0.0
O126 O 0.67499 0.9591 0.31678 0.0
Cd127 Cd 0.66399 0.97298 0.35853 0.0
Cd128 Cd 0.71074 0.99408 0.3735 0.0
O129 O 0.71398 0.9847 0.32069 0.0
O130 O 0.63303 0.97016 0.34108 0.0
O131 O 0.66688 1.00491 0.34705 0.0
C132 C 0.64473 0.99321 0.33636 0.0
C133 C 0.73083 0.03282 0.39773 0.0
C134 C 0.69614 0.96801 0.30371 0.0
C135 C 0.67737 0.95734 0.42663 0.0
O136 O 0.69838 0.96767 0.4129 0.0
O137 O 0.6606 0.95928 0.41118 0.0
O138 O 0.74172 0.02064 0.39328 0.0
O139 O 0.70903 0.02366 0.38582 0.0
O140 O 0.07049 0.72346 0.31908 0.0
Cd141 Cd 0.0566 0.69848 0.36071 0.0
Cd142 Cd 0.03554 0.72425 0.37535 0.0
O143 O 0.04512 0.73712 0.32246 0.0
O144 O 0.06241 0.67235 0.34288 0.0
O145 O 0.02602 0.66778 0.34894 0.0
C146 C 0.03946 0.65931 0.33799 0.0
C147 C 0.9965 0.70269 0.39855 0.0
C148 C 0.06186 0.73587 0.30576 0.0
C149 C 0.07195 0.72747 0.42884 0.0
O150 O 0.06166 0.73826 0.41521 0.0
O151 O 0.07012 0.7089 0.41322 0.0
O152 O 1.00699 0.72575 0.39415 0.0
O153 O 1.00762 0.69178 0.38719 0.0
O154 O 0.29736 0.33371 0.41568 0.0
Cd155 Cd 0.31062 0.32203 0.3742 0.0
Cd156 Cd 0.33443 0.36947 0.35877 0.0
O157 O 0.32385 0.37247 0.41119 0.0
O158 O 0.30758 0.29101 0.39188 0.0
O159 O 0.34245 0.32469 0.38519 0.0
C160 C 0.33068 0.30259 0.39615 0.0
C161 C 0.3739 0.38868 0.33685 0.0
C162 C 0.30676 0.35496 0.42832 0.0
C163 C 0.29761 0.33667 0.30458 0.0
O164 O 0.30951 0.35791 0.31723 0.0
O165 O 0.29709 0.31912 0.32173 0.0
O166 O 0.36252 0.4004 0.34109 0.0
O167 O 0.36347 0.36659 0.34785 0.0
O168 O 0.36004 0.06435 0.74784 0.0
Cd169 Cd 0.37115 0.0507 0.70605 0.0
Cd170 Cd 0.32426 0.02972 0.69127 0.0
O171 O 0.32099 0.03919 0.7441 0.0
O172 O 0.40312 0.05645 0.72378 0.0
O173 O 0.37136 0.0201 0.71766 0.0
C174 C 0.39328 0.03351 0.72857 0.0
C175 C 0.30667 0.99069 0.66843 0.0
C176 C 0.33897 0.05573 0.76102 0.0
C177 C 0.35744 0.06609 0.63769 0.0
O178 O 0.33634 0.05579 0.65121 0.0
O179 O 0.37419 0.0643 0.65353 0.0
O180 O 0.29416 1.00127 0.67264 0.0
O181 O 0.32871 1.00173 0.67974 0.0
O182 O 0.96024 0.30159 0.74682 0.0
Cd183 Cd 0.97422 0.32802 0.70738 0.0
Cd184 Cd 1.00013 0.30737 0.69279 0.0
O185 O 0.98989 0.29358 0.7453 0.0
O186 O 0.97025 0.35473 0.7274 0.0
O187 O 1.00576 0.35734 0.71953 0.0
C188 C 0.99334 0.36666 0.73175 0.0
C189 C 0.03936 0.3251 0.6701 0.0
C190 C 0.97112 0.29148 0.76069 0.0
C191 C 0.96283 0.30226 0.63775 0.0
O192 O 0.97524 0.2936 0.65103 0.0
O193 O 0.96144 0.31884 0.65459 0.0
O194 O 0.02653 0.30211 0.67473 0.0
O195 O 0.03064 0.33827 0.68131 0.0
O196 O 0.74208 0.69115 0.65283 0.0
Cd197 Cd 0.72753 0.7025 0.69303 0.0
Cd198 Cd 0.70407 0.6556 0.70819 0.0
O199 O 0.71364 0.65298 0.65497 0.0
O200 O 0.73019 0.73336 0.6751 0.0
O201 O 0.69563 0.69921 0.68034 0.0
C202 C 0.70717 0.72143 0.66996 0.0
C203 C 0.6648 0.63677 0.73119 0.0
C204 C 0.73179 0.67016 0.63908 0.0
C205 C 0.7408 0.68787 0.76209 0.0
O206 O 0.73004 0.66688 0.74835 0.0
O207 O 0.73982 0.70507 0.74624 0.0
O208 O 0.67582 0.62478 0.72608 0.0
O209 O 0.67553 0.659 0.72088 0.0
O210 O 0.34094 0.29168 0.65069 0.0
Cd211 Cd 0.33 0.30568 0.69238 0.0
Cd212 Cd 0.37677 0.3268 0.7072 0.0
O213 O 0.37993 0.3173 0.65442 0.0
O214 O 0.29902 0.30285 0.67502 0.0
O215 O 0.33289 0.33761 0.68081 0.0
C216 C 0.31072 0.3259 0.67024 0.0
C217 C 0.3969 0.36555 0.73139 0.0
C218 C 0.36207 0.30055 0.63757 0.0
C219 C 0.34349 0.29018 0.76052 0.0
O220 O 0.36447 0.30047 0.74669 0.0
O221 O 0.3267 0.29209 0.7451 0.0
O222 O 0.40778 0.35337 0.72689 0.0
O223 O 0.3751 0.35641 0.7195 0.0
O224 O 0.74324 0.0578 0.65181 0.0
Cd225 Cd 0.72915 0.03144 0.69126 0.0
Cd226 Cd 0.70362 0.05266 0.70603 0.0
O227 O 0.71392 0.0663 0.65335 0.0
O228 O 0.73358 1.00487 0.67159 0.0
O229 O 0.69787 1.00186 0.67892 0.0
C230 C 0.71052 0.9927 0.66707 0.0
C231 C 0.66413 0.03253 0.72813 0.0
C232 C 0.73261 0.06817 0.63798 0.0
C233 C 0.74079 0.05765 0.76089 0.0
O234 O 0.72855 0.06657 0.74778 0.0
O235 O 0.74186 0.04089 0.74402 0.0
O236 O 0.67552 0.05557 0.72338 0.0
O237 O 0.67454 0.02077 0.71755 0.0
O238 O 0.96299 0.66584 0.75094 0.0
Cd239 Cd 0.97639 0.65422 0.70949 0.0
Cd240 Cd 0.99999 0.70131 0.69416 0.0
O241 O 0.98952 0.70457 0.74642 0.0
O242 O 0.97433 0.62377 0.72756 0.0
O243 O 1.0087 0.65792 0.72013 0.0
C244 C 0.99744 0.63588 0.73149 0.0
C245 C 0.03907 0.72273 0.67108 0.0
C246 C 0.97241 0.6871 0.76355 0.0
C247 C 0.96303 0.66824 0.6401 0.0
O248 O 0.9749 0.68941 0.65291 0.0
O249 O 0.96258 0.65068 0.65709 0.0
O250 O 0.02619 0.73288 0.67538 0.0
O251 O 0.03049 0.70097 0.68288 0.0
H252 H 0.28418 0.36537 0.1962 0.0
N253 N 0.25242 0.3224 0.16407 0.0
H254 H 0.30273 0.37098 0.25566 0.0
H255 H 0.24582 0.28846 0.21234 0.0
H256 H 0.26489 0.29393 0.27234 0.0
H257 H 0.27174 0.30047 0.12769 0.0
H258 H 0.30479 0.31826 0.08359 0.0
H259 H 0.27177 0.36759 0.13375 0.0
H260 H 0.30488 0.38559 0.09007 0.0
H261 H 0.24512 0.35901 0.188 0.0
H262 H 0.21096 0.29011 0.13428 0.0
H263 H 0.20759 0.35963 0.18635 0.0
H264 H 0.17328 0.29105 0.13097 0.0
H265 H 0.12213 0.36266 0.21166 0.0
H266 H 0.10847 0.36778 0.27119 0.0
H267 H 0.04347 0.29883 0.25965 0.0
H268 H 0.05718 0.29415 0.19942 0.0
H269 H 0.06527 0.30286 0.11158 0.0
H270 H 0.04921 0.32056 0.06816 0.0
H271 H 0.09816 0.39117 0.11095 0.0
H272 H 0.11303 0.37347 0.15494 0.0
H273 H 0.14252 0.3643 0.15185 0.0
H274 H 0.18005 0.36383 0.14869 0.0
H275 H 0.1415 0.28712 0.16884 0.0
N276 N 0.09717 0.32525 0.16442 0.0
H277 H 0.10361 0.28762 0.17039 0.0
C278 C 0.26335 0.32638 0.19973 0.0
C279 C 0.27955 0.34962 0.21259 0.0
C280 C 0.29023 0.35282 0.24682 0.0
C281 C 0.28528 0.3329 0.26891 0.0
C282 C 0.26909 0.30966 0.25605 0.0
C283 C 0.25817 0.30649 0.22185 0.0
C284 C 0.26935 0.33261 0.1343 0.0
C285 C 0.27857 0.3189 0.11892 0.0
C286 C 0.29744 0.32912 0.09369 0.0
C287 C 0.30762 0.35343 0.08346 0.0
C288 C 0.29749 0.36683 0.09737 0.0
C289 C 0.27852 0.35654 0.12251 0.0
C290 C 0.23088 0.32425 0.16161 0.0
C291 C 0.22964 0.34403 0.17557 0.0
C292 C 0.20805 0.34448 0.17427 0.0
C293 C 0.18723 0.32534 0.15864 0.0
C294 C 0.18875 0.3059 0.14385 0.0
C295 C 0.21031 0.30539 0.14543 0.0
C296 C 0.09051 0.32805 0.20087 0.0
C297 C 0.10495 0.34864 0.22181 0.0
C298 C 0.0971 0.35151 0.25599 0.0
C299 C 0.07479 0.33375 0.27018 0.0
C300 C 0.06074 0.31284 0.24962 0.0
C301 C 0.06851 0.31012 0.21523 0.0
C302 C 0.09062 0.3367 0.13624 0.0
C303 C 0.0728 0.3222 0.11102 0.0
C304 C 0.06367 0.33232 0.08627 0.0
C305 C 0.07257 0.35729 0.08591 0.0
C306 C 0.09118 0.37192 0.11008 0.0
C307 C 0.09984 0.36174 0.13533 0.0
C308 C 0.11992 0.32582 0.16097 0.0
C309 C 0.14186 0.34727 0.15511 0.0
C310 C 0.16357 0.34703 0.15368 0.0
C311 C 0.16397 0.32545 0.15855 0.0
C312 C 0.14196 0.30404 0.1643 0.0
C313 C 0.12026 0.30428 0.16542 0.0
H314 H 0.7359 0.76726 0.19911 0.0
N315 N 0.70577 0.778 0.16499 0.0
H316 H 0.73102 0.74896 0.25961 0.0
H317 H 0.66956 0.76801 0.21371 0.0
H318 H 0.66428 0.74943 0.27345 0.0
H319 H 0.6572 0.74586 0.15882 0.0
H320 H 0.63796 0.71337 0.11518 0.0
H321 H 0.72644 0.76782 0.11033 0.0
H322 H 0.70718 0.73414 0.06724 0.0
H323 H 0.74361 0.82191 0.17095 0.0
H324 H 0.66698 0.78472 0.1518 0.0
H325 H 0.74439 0.86044 0.16921 0.0
H326 H 0.66775 0.82281 0.1486 0.0
H327 H 0.74348 0.96379 0.21057 0.0
H328 H 0.73856 0.97777 0.27049 0.0
H329 H 0.66132 0.93863 0.25577 0.0
H330 H 0.66639 0.92526 0.1964 0.0
H331 H 0.66355 0.90987 0.13454 0.0
H332 H 0.64495 0.92436 0.09086 0.0
H333 H 0.71213 0.99155 0.08136 0.0
H334 H 0.73052 0.97693 0.12551 0.0
H335 H 0.74142 0.92701 0.13355 0.0
H336 H 0.74053 0.88841 0.1307 0.0
H337 H 0.67215 0.85434 0.18714 0.0
N338 N 0.70911 0.93618 0.16334 0.0
H339 H 0.67277 0.89247 0.18851 0.0
C340 C 0.70308 0.76883 0.20168 0.0
C341 C 0.72039 0.76363 0.2155 0.0
C342 C 0.71759 0.75323 0.25005 0.0
C343 C 0.69718 0.74759 0.2713 0.0
C344 C 0.68013 0.75338 0.25773 0.0
C345 C 0.6831 0.76399 0.22341 0.0
C346 C 0.69341 0.75977 0.13754 0.0
C347 C 0.6683 0.74417 0.13826 0.0
C348 C 0.65723 0.72541 0.11319 0.0
C349 C 0.67102 0.72125 0.08759 0.0
C350 C 0.69606 0.73699 0.08649 0.0
C351 C 0.70707 0.75619 0.11105 0.0
C352 C 0.70542 0.80029 0.16128 0.0
C353 C 0.72703 0.82206 0.16581 0.0
C354 C 0.72744 0.84407 0.16461 0.0
C355 C 0.70611 0.84482 0.15874 0.0
C356 C 0.68447 0.82297 0.15371 0.0
C357 C 0.68407 0.80097 0.15517 0.0
C358 C 0.70543 0.94341 0.19894 0.0
C359 C 0.72553 0.95822 0.22049 0.0
C360 C 0.72267 0.96619 0.25464 0.0
C361 C 0.69954 0.95928 0.26802 0.0
C362 C 0.67941 0.94421 0.2465 0.0
C363 C 0.6823 0.93649 0.21232 0.0
C364 C 0.6985 0.94248 0.13363 0.0
C365 C 0.67444 0.92754 0.12266 0.0
C366 C 0.6638 0.93585 0.0975 0.0
C367 C 0.67699 0.95919 0.08276 0.0
C368 C 0.70143 0.97348 0.09214 0.0
C369 C 0.71199 0.9652 0.11739 0.0
C370 C 0.70738 0.91286 0.1614 0.0
C371 C 0.72621 0.91113 0.14506 0.0
C372 C 0.72572 0.88908 0.14373 0.0
C373 C 0.70632 0.86819 0.15887 0.0
C374 C 0.68725 0.86991 0.17477 0.0
C375 C 0.6877 0.89193 0.17588 0.0
H376 H 0.10616 0.74883 0.19998 0.0
N377 N 0.09541 0.78022 0.16514 0.0
H378 H 0.092 0.73054 0.2593 0.0
H379 H 0.06721 0.7872 0.21105 0.0
H380 H 0.0524 0.76843 0.27104 0.0
H381 H 0.05467 0.75973 0.12735 0.0
H382 H 0.04069 0.72629 0.08437 0.0
H383 H 0.1224 0.76125 0.13795 0.0
H384 H 0.10859 0.7278 0.09538 0.0
H385 H 0.13892 0.78795 0.19202 0.0
H386 H 0.10496 0.82125 0.13307 0.0
H387 H 0.17722 0.82526 0.18944 0.0
H388 H 0.14372 0.85874 0.12918 0.0
H389 H 0.26575 0.90882 0.21086 0.0
H390 H 0.28421 0.92201 0.27056 0.0
H391 H 0.28189 0.9879 0.25836 0.0
H392 H 0.26367 0.97458 0.19791 0.0
H393 H 0.26427 0.96631 0.10999 0.0
H394 H 0.2981 0.98188 0.06687 0.0
H395 H 0.31884 0.93232 0.11075 0.0
H396 H 0.28613 0.91787 0.15446 0.0
H397 H 0.24727 0.88874 0.15185 0.0
H398 H 0.20899 0.85147 0.14973 0.0
H399 H 0.17168 0.89116 0.16686 0.0
N400 N 0.25419 0.9344 0.16314 0.0
H401 H 0.21037 0.92876 0.16771 0.0
C402 C 0.08789 0.76964 0.20097 0.0
C403 C 0.0947 0.75353 0.21524 0.0
C404 C 0.08648 0.74299 0.2494 0.0
C405 C 0.07103 0.74801 0.27007 0.0
C406 C 0.06427 0.76416 0.25586 0.0
C407 C 0.07272 0.77492 0.22168 0.0
C408 C 0.08943 0.76297 0.13611 0.0
C409 C 0.06668 0.75315 0.11983 0.0
C410 C 0.05876 0.73404 0.09528 0.0
C411 C 0.07347 0.72424 0.08661 0.0
C412 C 0.09679 0.7349 0.10147 0.0
C413 C 0.10473 0.75408 0.12596 0.0
C414 C 0.11879 0.80177 0.16299 0.0
C415 C 0.13961 0.8032 0.17832 0.0
C416 C 0.16172 0.82464 0.17651 0.0
C417 C 0.16366 0.84513 0.15913 0.0
C418 C 0.14288 0.84349 0.14329 0.0
C419 C 0.12074 0.82205 0.14526 0.0
C420 C 0.26352 0.94087 0.19967 0.0
C421 C 0.26915 0.92607 0.22089 0.0
C422 C 0.27969 0.93366 0.2552 0.0
C423 C 0.28464 0.95609 0.26925 0.0
C424 C 0.27828 0.97051 0.24844 0.0
C425 C 0.26793 0.96298 0.21392 0.0
C426 C 0.27225 0.94067 0.13518 0.0
C427 C 0.27589 0.95854 0.10976 0.0
C428 C 0.29519 0.96739 0.08519 0.0
C429 C 0.31103 0.95819 0.08522 0.0
C430 C 0.30675 0.93953 0.10961 0.0
C431 C 0.28783 0.93112 0.13469 0.0
C432 C 0.23184 0.91185 0.15963 0.0
C433 C 0.23103 0.8897 0.15468 0.0
C434 C 0.20895 0.86817 0.15382 0.0
C435 C 0.18714 0.86819 0.15823 0.0
C436 C 0.18802 0.8904 0.1628 0.0
C437 C 0.21012 0.91192 0.16346 0.0
H438 H 0.36773 0.25729 0.85279 0.0
N439 N 0.33135 0.2464 0.90158 0.0
H440 H 0.37264 0.27596 0.79323 0.0
H441 H 0.30066 0.2565 0.86778 0.0
H442 H 0.30518 0.27493 0.80743 0.0
H443 H 0.31032 0.25637 0.95593 0.0
H444 H 0.32922 0.29007 0.99901 0.0
H445 H 0.37988 0.27858 0.90843 0.0
H446 H 0.39878 0.31113 0.9521 0.0
H447 H 0.37035 0.23977 0.91307 0.0
H448 H 0.29344 0.20245 0.89686 0.0
H449 H 0.36964 0.20168 0.91603 0.0
H450 H 0.29268 0.16392 0.89842 0.0
H451 H 0.37004 0.09876 0.86771 0.0
H452 H 0.37433 0.08517 0.80812 0.0
H453 H 0.29692 0.04624 0.79542 0.0
H454 H 0.29279 0.06046 0.85565 0.0
H455 H 0.30743 0.04701 0.93932 0.0
H456 H 0.32674 0.03264 0.98224 0.0
H457 H 0.39309 0.10059 0.97251 0.0
H458 H 0.37363 0.11479 0.92997 0.0
H459 H 0.36381 0.13164 0.87584 0.0
H460 H 0.36455 0.16983 0.87754 0.0
H461 H 0.29716 0.13619 0.9366 0.0
N462 N 0.32782 0.08806 0.90211 0.0
H463 H 0.29613 0.09753 0.93347 0.0
C464 C 0.33386 0.25568 0.86499 0.0
C465 C 0.35396 0.261 0.84322 0.0
C466 C 0.3567 0.27167 0.809 0.0
C467 C 0.33934 0.27706 0.79557 0.0
C468 C 0.31885 0.27097 0.81688 0.0
C469 C 0.31625 0.2605 0.85133 0.0
C470 C 0.34354 0.26454 0.92922 0.0
C471 C 0.32969 0.26805 0.95545 0.0
C472 C 0.3405 0.28727 0.98 0.0
C473 C 0.36552 0.30311 0.97916 0.0
C474 C 0.37952 0.299 0.95388 0.0
C475 C 0.36864 0.2802 0.92882 0.0
C476 C 0.33178 0.22414 0.90508 0.0
C477 C 0.35321 0.22349 0.9103 0.0
C478 C 0.35284 0.20149 0.91163 0.0
C479 C 0.33111 0.1796 0.90739 0.0
C480 C 0.3097 0.18033 0.9024 0.0
C481 C 0.31009 0.20234 0.9013 0.0
C482 C 0.33099 0.08075 0.86626 0.0
C483 C 0.35393 0.08754 0.85219 0.0
C484 C 0.35636 0.07968 0.81788 0.0
C485 C 0.33595 0.0646 0.79685 0.0
C486 C 0.313 0.05783 0.81087 0.0
C487 C 0.3106 0.06594 0.8452 0.0
C488 C 0.33897 0.08184 0.93119 0.0
C489 C 0.32598 0.05895 0.94711 0.0
C490 C 0.33707 0.0508 0.97163 0.0
C491 C 0.36153 0.06541 0.98064 0.0
C492 C 0.37423 0.08886 0.96616 0.0
C493 C 0.36308 0.09702 0.94168 0.0
C494 C 0.32967 0.11144 0.90427 0.0
C495 C 0.34912 0.13228 0.88912 0.0
C496 C 0.34965 0.15434 0.89042 0.0
C497 C 0.33088 0.1562 0.90714 0.0
C498 C 0.31173 0.13541 0.92294 0.0
C499 C 0.31117 0.11333 0.92145 0.0
H500 H 0.75419 0.10074 0.86792 0.0
N501 N 0.78586 0.08965 0.90111 0.0
H502 H 0.7356 0.08727 0.80862 0.0
H503 H 0.79251 0.06196 0.85395 0.0
H504 H 0.77346 0.04787 0.79413 0.0
H505 H 0.7665 0.04879 0.93867 0.0
H506 H 0.7334 0.03401 0.9826 0.0
H507 H 0.76651 0.11584 0.92995 0.0
H508 H 0.73334 0.10119 0.97341 0.0
H509 H 0.79331 0.13342 0.87603 0.0
H510 H 0.8272 0.09876 0.93142 0.0
H511 H 0.83075 0.1716 0.87809 0.0
H512 H 0.86482 0.13738 0.93496 0.0
H513 H 0.91446 0.25841 0.85344 0.0
H514 H 0.9278 0.27694 0.79369 0.0
H515 H 0.9947 0.27677 0.80751 0.0
H516 H 0.98125 0.25852 0.86801 0.0
H517 H 0.97134 0.258 0.95668 0.0
H518 H 0.98578 0.29154 1.00002 0.0
H519 H 0.9372 0.31239 0.95261 0.0
H520 H 0.92393 0.28003 0.90871 0.0
H521 H 0.89486 0.24113 0.91474 0.0
H522 H 0.85756 0.20297 0.91723 0.0
H523 H 0.89685 0.16557 0.89703 0.0
N524 N 0.94045 0.24798 0.90206 0.0
H525 H 0.93454 0.20415 0.89599 0.0
C526 C 0.77499 0.0825 0.86547 0.0
C527 C 0.75881 0.08946 0.85204 0.0
C528 C 0.7481 0.08167 0.81792 0.0
C529 C 0.75304 0.06648 0.7965 0.0
C530 C 0.76925 0.05954 0.8099 0.0
C531 C 0.78017 0.06759 0.844 0.0
C532 C 0.7689 0.08325 0.93073 0.0
C533 C 0.75966 0.06048 0.94681 0.0
C534 C 0.74077 0.05211 0.97193 0.0
C535 C 0.73058 0.06636 0.98133 0.0
C536 C 0.74074 0.08974 0.96674 0.0
C537 C 0.75974 0.09814 0.94172 0.0
C538 C 0.80743 0.11297 0.90328 0.0
C539 C 0.80872 0.13394 0.88887 0.0
C540 C 0.83024 0.15598 0.89039 0.0
C541 C 0.85094 0.15768 0.90664 0.0
C542 C 0.84941 0.13674 0.92168 0.0
C543 C 0.8279 0.11467 0.91994 0.0
C544 C 0.94702 0.25728 0.86546 0.0
C545 C 0.93197 0.2623 0.84375 0.0
C546 C 0.93964 0.27288 0.80942 0.0
C547 C 0.9624 0.27845 0.79582 0.0
C548 C 0.97707 0.27267 0.81708 0.0
C549 C 0.96946 0.2623 0.85164 0.0
C550 C 0.94629 0.2661 0.92971 0.0
C551 C 0.96357 0.26961 0.95613 0.0
C552 C 0.97176 0.28873 0.98083 0.0
C553 C 0.96245 0.30446 0.97995 0.0
C554 C 0.94445 0.30036 0.95443 0.0
C555 C 0.93674 0.28166 0.92922 0.0
C556 C 0.91784 0.22566 0.90552 0.0
C557 C 0.89575 0.2249 0.91132 0.0
C558 C 0.87418 0.20288 0.91237 0.0
C559 C 0.87406 0.18108 0.90723 0.0
C560 C 0.8962 0.1819 0.9017 0.0
C561 C 0.91778 0.20394 0.9009 0.0
H562 H 0.77544 0.73136 0.86815 0.0
N563 N 0.78451 0.70035 0.90315 0.0
H564 H 0.75702 0.72664 0.8079 0.0
H565 H 0.77224 0.66301 0.85584 0.0
H566 H 0.75342 0.65785 0.79629 0.0
H567 H 0.75191 0.65216 0.91223 0.0
H568 H 0.71941 0.63445 0.95625 0.0
H569 H 0.7752 0.72269 0.95628 0.0
H570 H 0.74151 0.70499 0.99974 0.0
H571 H 0.82865 0.73771 0.89641 0.0
H572 H 0.79056 0.66121 0.91664 0.0
H573 H 0.86691 0.73793 0.89811 0.0
H574 H 0.82841 0.66142 0.92001 0.0
H575 H 0.96933 0.73576 0.85538 0.0
H576 H 0.98271 0.72999 0.79544 0.0
H577 H 0.94311 0.65299 0.81261 0.0
H578 H 0.93042 0.6589 0.87204 0.0
H579 H 0.91663 0.65694 0.93456 0.0
H580 H 0.93223 0.63935 0.97826 0.0
H581 H 0.99899 0.70717 0.98432 0.0
H582 H 0.98327 0.72451 0.94015 0.0
H583 H 0.93326 0.73482 0.93289 0.0
H584 H 0.89479 0.73418 0.93613 0.0
H585 H 0.85987 0.66496 0.88257 0.0
N586 N 0.94201 0.70205 0.90388 0.0
H587 H 0.89788 0.66529 0.88104 0.0
C588 C 0.77506 0.69754 0.86668 0.0
C589 C 0.77087 0.71542 0.85232 0.0
C590 C 0.76038 0.71268 0.81792 0.0
C591 C 0.75359 0.6918 0.79734 0.0
C592 C 0.75825 0.67409 0.81151 0.0
C593 C 0.76899 0.67699 0.8457 0.0
C594 C 0.76648 0.68889 0.93127 0.0
C595 C 0.75055 0.66387 0.93197 0.0
C596 C 0.73176 0.65368 0.95726 0.0
C597 C 0.72793 0.6683 0.98165 0.0
C598 C 0.74409 0.69324 0.98146 0.0
C599 C 0.7633 0.70337 0.95668 0.0
C600 C 0.80661 0.69963 0.90666 0.0
C601 C 0.82855 0.72104 0.90178 0.0
C602 C 0.85041 0.72112 0.903 0.0
C603 C 0.85087 0.69968 0.9093 0.0
C604 C 0.82883 0.67823 0.91459 0.0
C605 C 0.80697 0.67815 0.91304 0.0
C606 C 0.94877 0.69789 0.86823 0.0
C607 C 0.96351 0.71767 0.84598 0.0
C608 C 0.97114 0.71434 0.81182 0.0
C609 C 0.96392 0.69102 0.79912 0.0
C610 C 0.9489 0.6712 0.82133 0.0
C611 C 0.94155 0.67457 0.85553 0.0
C612 C 0.94895 0.69209 0.93375 0.0
C613 C 0.93445 0.66818 0.9457 0.0
C614 C 0.9434 0.65812 0.97086 0.0
C615 C 0.96694 0.67179 0.98464 0.0
C616 C 0.98079 0.69611 0.9743 0.0
C617 C 0.97187 0.70607 0.94904 0.0
C618 C 0.9187 0.70034 0.9065 0.0
C619 C 0.91721 0.71945 0.92215 0.0
C620 C 0.89523 0.71912 0.92367 0.0
C621 C 0.87414 0.69959 0.90934 0.0
C622 C 0.87559 0.68019 0.89428 0.0
C623 C 0.89755 0.68046 0.89306 0.0
H624 H 0.72278 0.6265 0.53315 0.0
N625 N 0.76278 0.65747 0.49804 0.0
H626 H 0.70918 0.63131 0.59341 0.0
H627 H 0.7878 0.69499 0.54513 0.0
H628 H 0.77426 0.70021 0.60464 0.0
H629 H 0.77882 0.70574 0.48843 0.0
H630 H 0.76423 0.72352 0.44418 0.0
H631 H 0.73101 0.63516 0.44501 0.0
H632 H 0.71522 0.65295 0.4013 0.0
H633 H 0.76903 0.61969 0.50332 0.0
H634 H 0.80825 0.69653 0.48642 0.0
H635 H 0.80693 0.61912 0.50237 0.0
H636 H 0.84578 0.69602 0.4841 0.0
H637 H 0.91197 0.62078 0.54655 0.0
H638 H 0.93083 0.62568 0.60665 0.0
H639 H 0.96784 0.70292 0.59229 0.0
H640 H 0.94953 0.69789 0.53287 0.0
H641 H 0.93627 0.70085 0.47096 0.0
H642 H 0.96941 0.72068 0.42774 0.0
H643 H 0.97266 0.65519 0.4184 0.0
H644 H 0.93949 0.6355 0.46205 0.0
H645 H 0.87731 0.6232 0.46817 0.0
H646 H 0.83944 0.62382 0.46459 0.0
H647 H 0.8724 0.69108 0.52351 0.0
N648 N 0.91834 0.65526 0.4994 0.0
H649 H 0.91005 0.69076 0.5257 0.0
C650 C 0.75614 0.66038 0.53444 0.0
C651 C 0.73414 0.6425 0.54889 0.0
C652 C 0.72645 0.64528 0.5833 0.0
C653 C 0.74056 0.66621 0.60379 0.0
C654 C 0.76285 0.68393 0.5895 0.0
C655 C 0.77063 0.681 0.55531 0.0
C656 C 0.75636 0.66896 0.46974 0.0
C657 C 0.76569 0.69402 0.46877 0.0
C658 C 0.75718 0.70426 0.44335 0.0
C659 C 0.73863 0.68966 0.41907 0.0
C660 C 0.72964 0.66468 0.4195 0.0
C661 C 0.73861 0.6545 0.44442 0.0
C662 C 0.7855 0.65798 0.49472 0.0
C663 C 0.78575 0.63636 0.49885 0.0
C664 C 0.80744 0.63609 0.49811 0.0
C665 C 0.82951 0.65755 0.49316 0.0
C666 C 0.82921 0.67919 0.4885 0.0
C667 C 0.80752 0.67945 0.48947 0.0
C668 C 0.92912 0.65885 0.53513 0.0
C669 C 0.92409 0.63872 0.55661 0.0
C670 C 0.93489 0.64156 0.59086 0.0
C671 C 0.95079 0.66469 0.6044 0.0
C672 C 0.95557 0.68482 0.58294 0.0
C673 C 0.94503 0.68196 0.54871 0.0
C674 C 0.93543 0.66658 0.47005 0.0
C675 C 0.94374 0.69056 0.45922 0.0
C676 C 0.96275 0.70192 0.43435 0.0
C677 C 0.97381 0.68958 0.41974 0.0
C678 C 0.96457 0.66524 0.42908 0.0
C679 C 0.94564 0.65394 0.45404 0.0
C680 C 0.89655 0.65671 0.49736 0.0
C681 C 0.87631 0.63811 0.48012 0.0
C682 C 0.85465 0.63843 0.47834 0.0
C683 C 0.85276 0.65746 0.4939 0.0
C684 C 0.8732 0.67628 0.51079 0.0
C685 C 0.89485 0.67599 0.51239 0.0
H686 H 0.40247 0.10106 0.53265 0.0
N687 N 0.37215 0.11067 0.49675 0.0
H688 H 0.39682 0.0823 0.59289 0.0
H689 H 0.33415 0.09829 0.54302 0.0
H690 H 0.32812 0.07924 0.60257 0.0
H691 H 0.324 0.07841 0.48628 0.0
H692 H 0.30678 0.04628 0.44182 0.0
H693 H 0.39513 0.10166 0.44422 0.0
H694 H 0.3779 0.06837 0.40029 0.0
H695 H 0.4098 0.1546 0.50327 0.0
H696 H 0.33327 0.11715 0.48344 0.0
H697 H 0.41037 0.19303 0.50202 0.0
H698 H 0.33379 0.15518 0.48081 0.0
H699 H 0.4093 0.2963 0.54428 0.0
H700 H 0.40446 0.3104 0.60414 0.0
H701 H 0.32717 0.27077 0.59001 0.0
H702 H 0.33217 0.25728 0.53068 0.0
H703 H 0.32928 0.24245 0.46854 0.0
H704 H 0.31076 0.25717 0.42509 0.0
H705 H 0.37811 0.32421 0.41575 0.0
H706 H 0.39641 0.30935 0.45966 0.0
H707 H 0.40727 0.2596 0.46723 0.0
H708 H 0.40646 0.22106 0.46374 0.0
H709 H 0.33799 0.18652 0.51988 0.0
N710 N 0.37487 0.26851 0.49727 0.0
H711 H 0.33854 0.22463 0.52193 0.0
C712 C 0.36874 0.10092 0.53315 0.0
C713 C 0.38633 0.09652 0.54805 0.0
C714 C 0.38307 0.08584 0.58245 0.0
C715 C 0.36195 0.07914 0.60251 0.0
C716 C 0.34454 0.08403 0.58779 0.0
C717 C 0.34793 0.0949 0.55358 0.0
C718 C 0.361 0.09292 0.4683 0.0
C719 C 0.33596 0.07714 0.46687 0.0
C720 C 0.32605 0.05856 0.44133 0.0
C721 C 0.34096 0.05481 0.41737 0.0
C722 C 0.36593 0.07088 0.41823 0.0
C723 C 0.37579 0.08987 0.44328 0.0
C724 C 0.37167 0.13288 0.49322 0.0
C725 C 0.3932 0.15468 0.49808 0.0
C726 C 0.39348 0.17663 0.49717 0.0
C727 C 0.37211 0.17729 0.49127 0.0
C728 C 0.35055 0.1554 0.48592 0.0
C729 C 0.35028 0.13346 0.48706 0.0
C730 C 0.37123 0.27564 0.53295 0.0
C731 C 0.39136 0.29062 0.55433 0.0
C732 C 0.38854 0.29867 0.58844 0.0
C733 C 0.36542 0.29168 0.60196 0.0
C734 C 0.34526 0.27642 0.58063 0.0
C735 C 0.3481 0.26861 0.54649 0.0
C736 C 0.36429 0.27496 0.46768 0.0
C737 C 0.34022 0.26013 0.45674 0.0
C738 C 0.32963 0.26857 0.43172 0.0
C739 C 0.34289 0.29194 0.41709 0.0
C740 C 0.36735 0.30613 0.42645 0.0
C741 C 0.37786 0.29771 0.45156 0.0
C742 C 0.37319 0.24523 0.49501 0.0
C743 C 0.39206 0.24363 0.47855 0.0
C744 C 0.39161 0.22161 0.47684 0.0
C745 C 0.37221 0.20061 0.49172 0.0
C746 C 0.35309 0.20219 0.50772 0.0
C747 C 0.3535 0.22418 0.50923 0.0
H748 H 0.78992 0.10123 0.54611 0.0
N749 N 0.76443 0.11198 0.49703 0.0
H750 H 0.77607 0.08252 0.60563 0.0
H751 H 0.72356 0.10183 0.53056 0.0
H752 H 0.70958 0.08338 0.59086 0.0
H753 H 0.73357 0.10203 0.44243 0.0
H754 H 0.71876 0.06826 0.39948 0.0
H755 H 0.78064 0.07966 0.49066 0.0
H756 H 0.767 0.04704 0.44712 0.0
H757 H 0.80996 0.11844 0.48526 0.0
H758 H 0.77065 0.15599 0.50209 0.0
H759 H 0.8474 0.15646 0.48219 0.0
H760 H 0.80847 0.19443 0.5005 0.0
H761 H 0.95083 0.25927 0.53102 0.0
H762 H 0.9687 0.27278 0.59068 0.0
H763 H 0.93029 0.3118 0.60331 0.0
H764 H 0.91196 0.29765 0.54304 0.0
H765 H 0.93946 0.31114 0.45945 0.0
H766 H 0.97314 0.326 0.41657 0.0
H767 H 0.97274 0.25861 0.42611 0.0
H768 H 0.93902 0.2439 0.4686 0.0
H769 H 0.91193 0.22639 0.52206 0.0
H770 H 0.87445 0.18824 0.52038 0.0
H771 H 0.84052 0.22216 0.46235 0.0
N772 N 0.91939 0.27009 0.49656 0.0
H773 H 0.87817 0.26077 0.46553 0.0
C774 C 0.75764 0.10275 0.53363 0.0
C775 C 0.7724 0.09748 0.55555 0.0
C776 C 0.76443 0.08679 0.58974 0.0
C777 C 0.74163 0.08133 0.60299 0.0
C778 C 0.72724 0.08739 0.58155 0.0
C779 C 0.73516 0.09787 0.54712 0.0
C780 C 0.75848 0.09378 0.46949 0.0
C781 C 0.7412 0.0903 0.4431 0.0
C782 C 0.73279 0.07104 0.41863 0.0
C783 C 0.74189 0.05513 0.41971 0.0
C784 C 0.75992 0.05921 0.44516 0.0
C785 C 0.76785 0.07806 0.47015 0.0
C786 C 0.78715 0.1342 0.49356 0.0
C787 C 0.80918 0.13476 0.48816 0.0
C788 C 0.83084 0.15671 0.48677 0.0
C789 C 0.8311 0.17864 0.49116 0.0
C790 C 0.80902 0.178 0.49637 0.0
C791 C 0.78737 0.15604 0.49751 0.0
C792 C 0.92982 0.27731 0.53246 0.0
C793 C 0.94594 0.27047 0.54656 0.0
C794 C 0.95623 0.2783 0.5809 0.0
C795 C 0.95093 0.29339 0.60192 0.0
C796 C 0.93477 0.3002 0.58786 0.0
C797 C 0.92426 0.29212 0.55351 0.0
C798 C 0.93675 0.27655 0.46748 0.0
C799 C 0.94633 0.29942 0.45162 0.0
C800 C 0.96558 0.30786 0.42713 0.0
C801 C 0.97578 0.29356 0.41809 0.0
C802 C 0.96534 0.2701 0.4325 0.0
C803 C 0.94601 0.26165 0.45694 0.0
C804 C 0.89789 0.24671 0.49419 0.0
C805 C 0.89655 0.22581 0.509 0.0
C806 C 0.875 0.20377 0.50771 0.0
C807 C 0.85431 0.202 0.49131 0.0
C808 C 0.8559 0.22285 0.47577 0.0
C809 C 0.87745 0.24492 0.47729 0.0
H810 H 0.03631 0.5937 0.19048 0.0
N811 N 0.9984 0.58091 0.23706 0.0
H812 H 0.04204 0.6129 0.13112 0.0
H813 H 0.96765 0.59011 0.20154 0.0
H814 H 0.973 0.60903 0.14146 0.0
H815 H 0.9753 0.58977 0.28954 0.0
H816 H 0.99234 0.62319 0.33324 0.0
H817 H 0.0465 0.61338 0.24748 0.0
H818 H 0.06355 0.64567 0.29174 0.0
H819 H 0.03756 0.57474 0.24949 0.0
H820 H 0.96083 0.53683 0.23143 0.0
H821 H 0.03725 0.53681 0.25256 0.0
H822 H 0.96047 0.49851 0.2331 0.0
H823 H 0.03829 0.4342 0.20286 0.0
H824 H 0.04261 0.42068 0.1432 0.0
H825 H 0.96518 0.38143 0.13071 0.0
H826 H 0.96104 0.39558 0.19097 0.0
H827 H 0.97498 0.3821 0.27441 0.0
H828 H 0.99372 0.36708 0.31723 0.0
H829 H 0.06083 0.43436 0.30785 0.0
H830 H 0.04188 0.44923 0.26542 0.0
H831 H 0.03232 0.46702 0.21244 0.0
H832 H 0.03286 0.50513 0.21426 0.0
H833 H 0.96479 0.47085 0.27151 0.0
N834 N 0.99604 0.42319 0.23741 0.0
H835 H 0.96397 0.43231 0.26822 0.0
C836 C 1.00156 0.59063 0.20067 0.0
C837 C 0.02238 0.59693 0.1801 0.0
C838 C 0.0256 0.6079 0.14599 0.0
C839 C 1.00801 0.61262 0.13153 0.0
C840 C 0.98688 0.60563 0.15171 0.0
C841 C 0.98379 0.59485 0.18601 0.0
C842 C 0.00948 0.59868 0.26548 0.0
C843 C 0.99463 0.60167 0.29045 0.0
C844 C 1.00438 0.62073 0.31536 0.0
C845 C 0.02932 0.63696 0.31614 0.0
C846 C 0.04431 0.63328 0.29228 0.0
C847 C 0.0345 0.6146 0.26686 0.0
C848 C 0.99904 0.55877 0.24057 0.0
C849 C 0.02055 0.55835 0.24633 0.0
C850 C 0.0204 0.53646 0.24774 0.0
C851 C 0.99884 0.51447 0.24304 0.0
C852 C 0.97737 0.51499 0.23747 0.0
C853 C 0.97753 0.53688 0.2363 0.0
C854 C 0.99923 0.41603 0.20148 0.0
C855 C 0.02219 0.42295 0.18734 0.0
C856 C 0.02463 0.41512 0.15301 0.0
C857 C 1.00423 0.39995 0.13203 0.0
C858 C 0.98127 0.39309 0.14612 0.0
C859 C 0.97886 0.40116 0.18046 0.0
C860 C 1.00691 0.41665 0.26647 0.0
C861 C 0.99358 0.39376 0.28226 0.0
C862 C 1.00435 0.38524 0.30671 0.0
C863 C 0.02885 0.39945 0.31578 0.0
C864 C 0.04193 0.42292 0.30144 0.0
C865 C 0.03108 0.43146 0.27703 0.0
C866 C 0.99786 0.44654 0.23993 0.0
C867 C 0.01746 0.46753 0.22538 0.0
C868 C 0.01786 0.48953 0.22673 0.0
C869 C 0.99883 0.49117 0.24293 0.0
C870 C 0.97956 0.47025 0.25824 0.0
C871 C 0.97912 0.44823 0.25666 0.0
H872 H 0.64763 0.59095 0.20146 0.0
N873 N 0.60677 0.58025 0.23548 0.0
H874 H 0.66106 0.60925 0.14098 0.0
H875 H 0.58061 0.59036 0.18673 0.0
H876 H 0.59392 0.60894 0.12701 0.0
H877 H 0.59033 0.61238 0.24171 0.0
H878 H 0.60365 0.64489 0.28533 0.0
H879 H 0.63765 0.5904 0.29016 0.0
H880 H 0.65214 0.62409 0.33322 0.0
H881 H 0.60071 0.53635 0.22937 0.0
H882 H 0.56126 0.57352 0.24853 0.0
H883 H 0.56295 0.49783 0.23068 0.0
H884 H 0.52392 0.53544 0.25127 0.0
H885 H 0.45854 0.39445 0.18837 0.0
H886 H 0.43959 0.38046 0.12846 0.0
H887 H 0.40178 0.41992 0.14287 0.0
H888 H 0.42027 0.4333 0.20225 0.0
H889 H 0.43268 0.44851 0.26422 0.0
H890 H 0.39958 0.43405 0.30779 0.0
H891 H 0.39943 0.36677 0.31725 0.0
H892 H 0.43246 0.38137 0.27323 0.0
H893 H 0.49327 0.43118 0.26558 0.0
H894 H 0.53099 0.46974 0.26887 0.0
H895 H 0.49695 0.50407 0.21225 0.0
N896 N 0.4519 0.42217 0.2355 0.0
H897 H 0.45943 0.46597 0.21042 0.0
C898 C 0.61328 0.58946 0.19882 0.0
C899 C 0.63577 0.59462 0.18505 0.0
C900 C 0.64337 0.60502 0.15051 0.0
C901 C 0.62863 0.6107 0.12924 0.0
C902 C 0.60581 0.60496 0.14277 0.0
C903 C 0.59816 0.59435 0.17707 0.0
C904 C 0.61265 0.59846 0.26298 0.0
C905 C 0.60313 0.61406 0.26226 0.0
C906 C 0.61087 0.63284 0.28731 0.0
C907 C 0.62886 0.637 0.31289 0.0
C908 C 0.63814 0.62124 0.31399 0.0
C909 C 0.62991 0.60203 0.28944 0.0
C910 C 0.58414 0.55796 0.23908 0.0
C911 C 0.58399 0.5362 0.23443 0.0
C912 C 0.56237 0.5142 0.23538 0.0
C913 C 0.54029 0.51345 0.2411 0.0
C914 C 0.5405 0.53528 0.24627 0.0
C915 C 0.5621 0.55727 0.24507 0.0
C916 C 0.44103 0.415 0.19985 0.0
C917 C 0.44622 0.4001 0.17838 0.0
C918 C 0.43536 0.39212 0.14424 0.0
C919 C 0.4192 0.3991 0.13078 0.0
C920 C 0.41424 0.41427 0.15221 0.0
C921 C 0.42489 0.42201 0.18638 0.0
C922 C 0.43495 0.41586 0.26513 0.0
C923 C 0.42587 0.43083 0.27607 0.0
C924 C 0.40692 0.42253 0.30116 0.0
C925 C 0.39672 0.39918 0.31586 0.0
C926 C 0.40682 0.38485 0.3065 0.0
C927 C 0.42568 0.39312 0.28132 0.0
C928 C 0.47352 0.44545 0.23759 0.0
C929 C 0.494 0.44711 0.25411 0.0
C930 C 0.51557 0.46914 0.2557 0.0
C931 C 0.51712 0.49008 0.24066 0.0
C932 C 0.49641 0.48844 0.22455 0.0
C933 C 0.47484 0.46645 0.22317 0.0
H934 H 0.59904 0.99362 0.20251 0.0
N935 N 0.6103 0.03668 0.23436 0.0
H936 H 0.61177 0.98783 0.14306 0.0
H937 H 0.63754 0.07048 0.18588 0.0
H938 H 0.65094 0.06484 0.12587 0.0
H939 H 0.65155 0.05837 0.27083 0.0
H940 H 0.66658 0.04038 0.31507 0.0
H941 H 0.58417 0.99154 0.26476 0.0
H942 H 0.59905 0.97336 0.30856 0.0
H943 H 0.56641 1.00022 0.21009 0.0
H944 H 0.60118 0.069 0.2642 0.0
H945 H 0.52831 0.99967 0.21167 0.0
H946 H 0.56258 0.06811 0.26746 0.0
H947 H 0.44143 0.99775 0.18488 0.0
H948 H 0.42301 0.99337 0.12522 0.0
H949 H 0.42427 0.06081 0.14035 0.0
H950 H 0.4423 0.06474 0.20078 0.0
H951 H 0.44187 0.05417 0.289 0.0
H952 H 0.40803 0.03478 0.33202 0.0
H953 H 0.38726 0.96579 0.28372 0.0
H954 H 0.41988 0.98517 0.24012 0.0
H955 H 0.45865 0.99472 0.24642 0.0
H956 H 0.49668 0.99532 0.24948 0.0
H957 H 0.53461 0.07208 0.22978 0.0
N958 N 0.45213 0.03372 0.23416 0.0
H959 H 0.49614 0.07145 0.22836 0.0
C960 C 0.6172 0.0326 0.19875 0.0
C961 C 0.61012 0.00932 0.18603 0.0
C962 C 0.61747 0.00602 0.15179 0.0
C963 C 0.63237 0.02587 0.12955 0.0
C964 C 0.63948 0.04916 0.14228 0.0
C965 C 0.63183 0.05242 0.17649 0.0
C966 C 0.6169 0.02638 0.2642 0.0
C967 C 0.63984 0.03997 0.27963 0.0
C968 C 0.64836 0.02964 0.30493 0.0
C969 C 0.63408 1.00536 0.3152 0.0
C970 C 0.61054 0.9921 0.30124 0.0
C971 C 0.602 1.0025 0.27602 0.0
C972 C 0.58695 0.03491 0.23669 0.0
C973 C 0.56593 0.01519 0.22258 0.0
C974 C 0.54392 0.01478 0.22384 0.0
C975 C 0.54224 0.03388 0.23961 0.0
C976 C 0.56319 0.05328 0.25449 0.0
C977 C 0.58525 0.05376 0.25295 0.0
C978 C 0.44302 0.03152 0.19755 0.0
C979 C 0.43777 0.0116 0.1755 0.0
C980 C 0.42727 0.00916 0.14124 0.0
C981 C 0.42205 0.0267 0.12804 0.0
C982 C 0.42809 0.04701 0.14963 0.0
C983 C 0.43834 0.04928 0.18413 0.0
C984 C 0.43383 0.02126 0.26161 0.0
C985 C 0.43021 0.03482 0.28818 0.0
C986 C 0.41092 0.02373 0.3127 0.0
C987 C 0.39514 0.99873 0.31149 0.0
C988 C 0.39934 0.98503 0.28581 0.0
C989 C 0.41819 0.99618 0.26076 0.0
C990 C 0.47437 0.03322 0.23754 0.0
C991 C 0.47496 0.0118 0.24323 0.0
C992 C 0.49693 0.01211 0.2446 0.0
C993 C 0.51886 0.03374 0.23981 0.0
C994 C 0.51819 0.05513 0.23424 0.0
C995 C 0.49621 0.05482 0.2332 0.0
H996 H 0.39119 0.961 0.86462 0.0
N997 N 0.4309 0.99217 0.82913 0.0
H998 H 0.37759 0.96583 0.92483 0.0
H999 H 0.45568 0.03001 0.87573 0.0
H1000 H 0.44213 0.03527 0.93526 0.0
H1001 H 0.44664 0.04028 0.81855 0.0
H1002 H 0.43125 0.05746 0.77447 0.0
H1003 H 0.39877 0.96921 0.77683 0.0
H1004 H 0.38226 0.98637 0.73329 0.0
H1005 H 0.43726 0.95451 0.83512 0.0
H1006 H 0.47624 0.03117 0.81662 0.0
H1007 H 0.47514 0.95396 0.8338 0.0
H1008 H 0.51379 0.03068 0.81371 0.0
H1009 H 0.57952 0.95529 0.87799 0.0
H1010 H 0.59866 0.96078 0.93795 0.0
H1011 H 0.63635 0.03784 0.92128 0.0
H1012 H 0.61776 0.0322 0.86187 0.0
H1013 H 0.6053 0.0344 0.79943 0.0
H1014 H 0.63842 0.05252 0.75581 0.0
H1015 H 0.63863 0.98534 0.74932 0.0
H1016 H 0.60555 0.96742 0.79337 0.0
H1017 H 0.54468 0.95695 0.79968 0.0
H1018 H 0.50702 0.95792 0.79608 0.0
H1019 H 0.54116 0.02639 0.85177 0.0
N1020 N 0.58607 0.98921 0.82971 0.0
H1021 H 0.57866 0.02574 0.85375 0.0
C1022 C 0.42429 0.99513 0.86551 0.0
C1023 C 0.40244 0.97712 0.88017 0.0
C1024 C 0.39474 0.97992 0.91455 0.0
C1025 C 0.4087 1.001 0.93481 0.0
C1026 C 0.43084 0.01887 0.92031 0.0
C1027 C 0.43863 0.01592 0.88612 0.0
C1028 C 0.42418 1.00332 0.80071 0.0
C1029 C 0.43332 0.02834 0.79927 0.0
C1030 C 0.42437 0.03821 0.77396 0.0
C1031 C 0.40557 0.02329 0.75025 0.0
C1032 C 0.39684 0.99836 0.75105 0.0
C1033 C 0.40622 0.98854 0.77587 0.0
C1034 C 0.45363 0.9927 0.82571 0.0
C1035 C 0.45393 0.97115 0.8302 0.0
C1036 C 0.47562 0.97089 0.82921 0.0
C1037 C 0.49765 0.99229 0.82356 0.0
C1038 C 0.49728 0.01389 0.81862 0.0
C1039 C 0.47558 0.01415 0.81991 0.0
C1040 C 0.59698 0.99321 0.86539 0.0
C1041 C 0.59185 0.97332 0.8875 0.0
C1042 C 0.60281 0.9765 0.92168 0.0
C1043 C 0.61898 0.99975 0.93453 0.0
C1044 C 0.62387 0.01967 0.91245 0.0
C1045 C 0.61316 0.01645 0.87825 0.0
C1046 C 0.60302 0.99949 0.79998 0.0
C1047 C 0.61211 0.0234 0.78821 0.0
C1048 C 0.63109 0.03376 0.7631 0.0
C1049 C 0.64131 0.02044 0.7492 0.0
C1050 C 0.63121 0.99613 0.75942 0.0
C1051 C 0.61233 0.98584 0.78461 0.0
C1052 C 0.56451 0.99103 0.82721 0.0
C1053 C 0.544 0.97222 0.81086 0.0
C1054 C 0.52245 0.97274 0.8091 0.0
C1055 C 0.52089 0.99216 0.82387 0.0
C1056 C 0.54165 0.01126 0.8397 0.0
C1057 C 0.56323 0.01079 0.84119 0.0
H1058 H 1.00068 0.59283 0.8661 0.0
N1059 N 0.04337 0.60382 0.83286 0.0
H1060 H 0.99566 0.60632 0.92538 0.0
H1061 H 0.0778 0.6316 0.87995 0.0
H1062 H 0.07293 0.64571 0.93979 0.0
H1063 H 0.064 0.64465 0.7951 0.0
H1064 H 0.04496 0.65867 0.75107 0.0
H1065 H 0.99782 0.57683 0.8043 0.0
H1066 H 0.97863 0.59067 0.76071 0.0
H1067 H 1.00743 0.56018 0.85901 0.0
H1068 H 0.0754 0.5946 0.80213 0.0
H1069 H 1.00669 0.522 0.85691 0.0
H1070 H 0.07438 0.55594 0.79867 0.0
H1071 H 1.0029 0.4349 0.88041 0.0
H1072 H 0.99763 0.41635 0.94016 0.0
H1073 H 0.06465 0.41639 0.92668 0.0
H1074 H 0.06953 0.43467 0.86616 0.0
H1075 H 0.06019 0.43516 0.7775 0.0
H1076 H 0.04104 0.40161 0.73416 0.0
H1077 H 0.97162 0.38107 0.78117 0.0
H1078 H 0.99075 0.41342 0.82506 0.0
H1079 H 1.00069 0.45234 0.8196 0.0
H1080 H 1.00169 0.49058 0.81729 0.0
H1081 H 0.07846 0.52774 0.83664 0.0
N1082 N 0.03935 0.4453 0.83195 0.0
H1083 H 0.07742 0.48907 0.83761 0.0
C1084 C 0.03973 0.61108 0.86847 0.0
C1085 C 0.01661 0.60413 0.88194 0.0
C1086 C 0.01375 0.61194 0.91606 0.0
C1087 C 0.0339 0.62711 0.93748 0.0
C1088 C 0.05702 0.63405 0.92403 0.0
C1089 C 0.05985 0.626 0.88992 0.0
C1090 C 0.03243 0.60985 0.80328 0.0
C1091 C 0.04551 0.63263 0.78705 0.0
C1092 C 0.03459 0.64056 0.76186 0.0
C1093 C 0.0102 0.62585 0.75253 0.0
C1094 C 0.99744 0.60248 0.7673 0.0
C1095 C 1.00843 0.59453 0.7924 0.0
C1096 C 0.04172 0.58052 0.83098 0.0
C1097 C 0.0222 0.55961 0.84586 0.0
C1098 C 0.02167 0.53757 0.84433 0.0
C1099 C 0.04049 0.53579 0.82764 0.0
C1100 C 0.05976 0.55666 0.81225 0.0
C1101 C 0.06032 0.57874 0.81397 0.0
C1102 C 0.03657 0.43597 0.86855 0.0
C1103 C 0.01649 0.43098 0.89017 0.0
C1104 C 0.01354 0.42039 0.9245 0.0
C1105 C 0.03069 0.41478 0.9382 0.0
C1106 C 0.05115 0.42053 0.91703 0.0
C1107 C 0.05395 0.43091 0.88247 0.0
C1108 C 0.02706 0.42721 0.80427 0.0
C1109 C 0.0408 0.42362 0.77796 0.0
C1110 C 0.02985 0.40449 0.75325 0.0
C1111 C 1.00479 0.38885 0.75403 0.0
C1112 C 0.99092 0.39304 0.77943 0.0
C1113 C 1.00192 0.41173 0.80464 0.0
C1114 C 0.03915 0.46767 0.82847 0.0
C1115 C 0.01785 0.46853 0.82288 0.0
C1116 C 0.01839 0.4906 0.82192 0.0
C1117 C 0.04013 0.51235 0.8269 0.0
C1118 C 0.06142 0.51144 0.83214 0.0
C1119 C 0.06088 0.48935 0.83288 0.0
H1120 H 0.45602 0.43371 0.87996 0.0
N1121 N 0.43052 0.44455 0.83102 0.0
H1122 H 0.44225 0.41507 0.93954 0.0
H1123 H 0.38974 0.43451 0.86472 0.0
H1124 H 0.37584 0.41614 0.92508 0.0
H1125 H 0.39963 0.43467 0.77647 0.0
H1126 H 0.38484 0.40099 0.73337 0.0
H1127 H 0.44671 0.41222 0.82446 0.0
H1128 H 0.43308 0.37969 0.78077 0.0
H1129 H 0.47604 0.45103 0.81921 0.0
H1130 H 0.43671 0.48855 0.83603 0.0
H1131 H 0.51346 0.48905 0.81603 0.0
H1132 H 0.47452 0.527 0.83433 0.0
H1133 H 0.61692 0.5919 0.86452 0.0
H1134 H 0.63482 0.60537 0.92415 0.0
H1135 H 0.59635 0.64428 0.93712 0.0
H1136 H 0.57797 0.63018 0.87686 0.0
H1137 H 0.60553 0.64381 0.79327 0.0
H1138 H 0.63925 0.65871 0.75048 0.0
H1139 H 0.63874 0.59125 0.75972 0.0
H1140 H 0.60497 0.57649 0.80212 0.0
H1141 H 0.578 0.55902 0.85573 0.0
H1142 H 0.54053 0.52086 0.85412 0.0
H1143 H 0.50653 0.55471 0.79612 0.0
N1144 N 0.58541 0.60271 0.83024 0.0
H1145 H 0.54416 0.59335 0.79923 0.0
C1146 C 0.42376 0.43531 0.86763 0.0
C1147 C 0.43854 0.43001 0.88948 0.0
C1148 C 0.43061 0.41936 0.92371 0.0
C1149 C 0.40786 0.41399 0.93707 0.0
C1150 C 0.39346 0.42008 0.91569 0.0
C1151 C 0.40133 0.43052 0.88122 0.0
C1152 C 0.42454 0.42638 0.80343 0.0
C1153 C 0.40726 0.42294 0.77707 0.0
C1154 C 0.39886 0.40373 0.7525 0.0
C1155 C 0.40797 0.38783 0.75346 0.0
C1156 C 0.42599 0.39186 0.77889 0.0
C1157 C 0.43391 0.41066 0.80398 0.0
C1158 C 0.45323 0.46677 0.82751 0.0
C1159 C 0.47526 0.46734 0.82208 0.0
C1160 C 0.4969 0.4893 0.82062 0.0
C1161 C 0.49715 0.51123 0.82498 0.0
C1162 C 0.47508 0.51057 0.83023 0.0
C1163 C 0.45343 0.48861 0.83143 0.0
C1164 C 0.59586 0.6099 0.86612 0.0
C1165 C 0.61202 0.60307 0.88012 0.0
C1166 C 0.62233 0.61087 0.91445 0.0
C1167 C 0.61702 0.62592 0.93556 0.0
C1168 C 0.60083 0.63271 0.9216 0.0
C1169 C 0.5903 0.62467 0.88726 0.0
C1170 C 0.60276 0.60918 0.80114 0.0
C1171 C 0.61238 0.63208 0.78539 0.0
C1172 C 0.63166 0.64055 0.76095 0.0
C1173 C 0.64184 0.62624 0.75187 0.0
C1174 C 0.63136 0.60275 0.76616 0.0
C1175 C 0.61199 0.59427 0.79054 0.0
C1176 C 0.56392 0.57932 0.82787 0.0
C1177 C 0.56261 0.55842 0.84268 0.0
C1178 C 0.54106 0.53638 0.84144 0.0
C1179 C 0.52035 0.53459 0.82508 0.0
C1180 C 0.52193 0.55543 0.80952 0.0
C1181 C 0.54346 0.5775 0.81099 0.0
H1182 H 0.70139 0.92419 0.51884 0.0
N1183 N 0.66511 0.91355 0.56769 0.0
H1184 H 0.70636 0.9429 0.45926 0.0
H1185 H 0.63447 0.92372 0.53385 0.0
H1186 H 0.63905 0.94216 0.47351 0.0
H1187 H 0.64412 0.9235 0.62215 0.0
H1188 H 0.66303 0.95725 0.66514 0.0
H1189 H 0.7136 0.94593 0.57418 0.0
H1190 H 0.73252 0.97853 0.61777 0.0
H1191 H 0.70418 0.90715 0.57994 0.0
H1192 H 0.62736 0.86952 0.56266 0.0
H1193 H 0.70362 0.86916 0.5836 0.0
H1194 H 0.62677 0.83109 0.56483 0.0
H1195 H 0.70431 0.76611 0.5362 0.0
H1196 H 0.70873 0.75268 0.47654 0.0
H1197 H 0.63136 0.71398 0.46332 0.0
H1198 H 0.6271 0.72804 0.5236 0.0
H1199 H 0.64096 0.71444 0.60749 0.0
H1200 H 0.65969 0.69956 0.65055 0.0
H1201 H 0.72673 0.76689 0.64117 0.0
H1202 H 0.70779 0.78163 0.5985 0.0
H1203 H 0.69836 0.79909 0.54487 0.0
H1204 H 0.69901 0.83724 0.54598 0.0
H1205 H 0.63102 0.80352 0.60346 0.0
N1206 N 0.66201 0.75546 0.5703 0.0
H1207 H 0.63007 0.76488 0.60083 0.0
C1208 C 0.6676 0.92274 0.53105 0.0
C1209 C 0.68766 0.92797 0.50926 0.0
C1210 C 0.69044 0.93866 0.47504 0.0
C1211 C 0.67315 0.94416 0.46163 0.0
C1212 C 0.65267 0.93813 0.48294 0.0
C1213 C 0.65004 0.92764 0.51739 0.0
C1214 C 0.6773 0.93178 0.59521 0.0
C1215 C 0.66348 0.93524 0.62154 0.0
C1216 C 0.67429 0.95449 0.64604 0.0
C1217 C 0.6993 0.9704 0.64506 0.0
C1218 C 0.71327 0.96635 0.61966 0.0
C1219 C 0.70239 0.94752 0.59464 0.0
C1220 C 0.66563 0.89135 0.57137 0.0
C1221 C 0.68709 0.89082 0.57705 0.0
C1222 C 0.68681 0.86888 0.5788 0.0
C1223 C 0.66516 0.84693 0.57446 0.0
C1224 C 0.64373 0.84754 0.56892 0.0
C1225 C 0.64403 0.86949 0.56746 0.0
C1226 C 0.66527 0.7482 0.53448 0.0
C1227 C 0.68824 0.75498 0.52055 0.0
C1228 C 0.69074 0.74721 0.48621 0.0
C1229 C 0.67038 0.73225 0.46501 0.0
C1230 C 0.64741 0.72549 0.47891 0.0
C1231 C 0.64493 0.7335 0.51326 0.0
C1232 C 0.67286 0.74901 0.59952 0.0
C1233 C 0.65954 0.72615 0.61539 0.0
C1234 C 0.67031 0.7177 0.63999 0.0
C1235 C 0.69479 0.73197 0.64913 0.0
C1236 C 0.70784 0.75542 0.63471 0.0
C1237 C 0.697 0.76388 0.61016 0.0
C1238 C 0.66392 0.77886 0.57251 0.0
C1239 C 0.68354 0.79972 0.55771 0.0
C1240 C 0.684 0.82175 0.55866 0.0
C1241 C 0.66503 0.82357 0.57471 0.0
C1242 C 0.64575 0.80278 0.59028 0.0
C1243 C 0.64524 0.78071 0.5891 0.0
H1244 H 0.30336 0.90512 0.52205 0.0
N1245 N 0.27558 0.9123 0.56853 0.0
H1246 H 0.31762 0.92361 0.46177 0.0
H1247 H 0.26495 0.94395 0.53423 0.0
H1248 H 0.27856 0.96195 0.47459 0.0
H1249 H 0.24819 0.93073 0.5961 0.0
H1250 H 0.26164 0.96394 0.63896 0.0
H1251 H 0.31638 0.93314 0.6062 0.0
H1252 H 0.33001 0.96641 0.64946 0.0
H1253 H 0.26606 0.87109 0.59993 0.0
H1254 H 0.2321 0.90466 0.54169 0.0
H1255 H 0.22735 0.83349 0.60315 0.0
H1256 H 0.19388 0.86728 0.54361 0.0
H1257 H 0.10693 0.7177 0.53411 0.0
H1258 H 0.08793 0.7043 0.47419 0.0
H1259 H 0.08565 0.77026 0.46291 0.0
H1260 H 0.10495 0.78356 0.5221 0.0
H1261 H 0.08499 0.77426 0.57882 0.0
H1262 H 0.05293 0.75995 0.62356 0.0
H1263 H 0.07478 0.71109 0.66685 0.0
H1264 H 0.10796 0.72651 0.62259 0.0
H1265 H 0.16084 0.76371 0.56357 0.0
H1266 H 0.19951 0.80134 0.56471 0.0
H1267 H 0.16212 0.84082 0.58313 0.0
N1268 N 0.11701 0.75796 0.56907 0.0
H1269 H 0.12387 0.80355 0.5807 0.0
C1270 C 0.28302 0.92297 0.53273 0.0
C1271 C 0.29787 0.91747 0.51163 0.0
C1272 C 0.306 0.92805 0.47727 0.0
C1273 C 0.29918 0.94421 0.46325 0.0
C1274 C 0.28408 0.94948 0.48434 0.0
C1275 C 0.27621 0.93913 0.51869 0.0
C1276 C 0.28141 0.92946 0.59765 0.0
C1277 C 0.26589 0.93803 0.60803 0.0
C1278 C 0.27362 0.95709 0.63269 0.0
C1279 C 0.29697 0.96796 0.64751 0.0
C1280 C 0.31192 0.95848 0.63861 0.0
C1281 C 0.3042 0.93948 0.61388 0.0
C1282 C 0.25223 0.89072 0.57044 0.0
C1283 C 0.25029 0.87033 0.58778 0.0
C1284 C 0.22819 0.84883 0.58935 0.0
C1285 C 0.20744 0.84726 0.57351 0.0
C1286 C 0.20936 0.86785 0.55653 0.0
C1287 C 0.23143 0.88934 0.55511 0.0
C1288 C 0.10722 0.75148 0.53278 0.0
C1289 C 0.10251 0.7293 0.51842 0.0
C1290 C 0.0917 0.72172 0.48421 0.0
C1291 C 0.08513 0.73614 0.46381 0.0
C1292 C 0.09032 0.75861 0.47797 0.0
C1293 C 0.10135 0.76626 0.51198 0.0
C1294 C 0.09933 0.75175 0.59759 0.0
C1295 C 0.08367 0.76118 0.59864 0.0
C1296 C 0.06514 0.75287 0.62435 0.0
C1297 C 0.06135 0.73444 0.64889 0.0
C1298 C 0.07733 0.72541 0.64845 0.0
C1299 C 0.09624 0.73416 0.6232 0.0
C1300 C 0.13935 0.78053 0.57225 0.0
C1301 C 0.16108 0.78051 0.56809 0.0
C1302 C 0.18315 0.80204 0.56895 0.0
C1303 C 0.184 0.82419 0.57403 0.0
C1304 C 0.16218 0.82416 0.57866 0.0
C1305 C 0.14012 0.80264 0.57761 0.0
H1306 H 0.26449 0.3264 0.53651 0.0
N1307 N 0.27603 0.36942 0.56875 0.0
H1308 H 0.27736 0.32071 0.4771 0.0
H1309 H 0.3035 0.40332 0.52055 0.0
H1310 H 0.31705 0.39778 0.46059 0.0
H1311 H 0.31734 0.39111 0.60509 0.0
H1312 H 0.33248 0.3731 0.64909 0.0
H1313 H 0.25001 0.32423 0.59899 0.0
H1314 H 0.265 0.30602 0.64256 0.0
H1315 H 0.23199 0.33303 0.5448 0.0
H1316 H 0.26716 0.40185 0.59877 0.0
H1317 H 0.19394 0.3326 0.54682 0.0
H1318 H 0.22864 0.40111 0.60242 0.0
H1319 H 0.10558 0.32981 0.5225 0.0
H1320 H 0.08681 0.32475 0.46295 0.0
H1321 H 0.09116 0.3939 0.47428 0.0
H1322 H 0.10955 0.39853 0.53454 0.0
H1323 H 0.10899 0.38989 0.62238 0.0
H1324 H 0.07531 0.37236 0.66586 0.0
H1325 H 0.05337 0.30162 0.62337 0.0
H1326 H 0.08587 0.31915 0.57933 0.0
H1327 H 0.12449 0.32819 0.58211 0.0
H1328 H 0.16243 0.3285 0.58492 0.0
H1329 H 0.20073 0.40521 0.56479 0.0
N1330 N 0.11831 0.36733 0.56962 0.0
H1331 H 0.1624 0.40486 0.56356 0.0
C1332 C 0.28287 0.3654 0.53306 0.0
C1333 C 0.27568 0.34214 0.52016 0.0
C1334 C 0.28314 0.3389 0.48596 0.0
C1335 C 0.29824 0.3588 0.46393 0.0
C1336 C 0.30543 0.38206 0.47683 0.0
C1337 C 0.2977 0.38527 0.511 0.0
C1338 C 0.2827 0.3591 0.59847 0.0
C1339 C 0.30566 0.37269 0.61383 0.0
C1340 C 0.31425 0.36234 0.63899 0.0
C1341 C 0.30001 0.33804 0.64918 0.0
C1342 C 0.27646 0.32478 0.63529 0.0
C1343 C 0.26785 0.33519 0.61021 0.0
C1344 C 0.25271 0.36773 0.57129 0.0
C1345 C 0.23161 0.34804 0.55735 0.0
C1346 C 0.20963 0.34769 0.55886 0.0
C1347 C 0.20809 0.36686 0.57468 0.0
C1348 C 0.22914 0.38623 0.58941 0.0
C1349 C 0.25115 0.38663 0.58763 0.0
C1350 C 0.10878 0.36452 0.5332 0.0
C1351 C 0.1025 0.34388 0.51231 0.0
C1352 C 0.09179 0.34105 0.47811 0.0
C1353 C 0.08736 0.35889 0.46385 0.0
C1354 C 0.09433 0.37984 0.48437 0.0
C1355 C 0.10481 0.38252 0.51877 0.0
C1356 C 0.10036 0.35597 0.59787 0.0
C1357 C 0.09714 0.37056 0.62302 0.0
C1358 C 0.07793 0.36053 0.64781 0.0
C1359 C 0.0618 0.33558 0.64826 0.0
C1360 C 0.06569 0.32086 0.62416 0.0
C1361 C 0.08449 0.33095 0.59888 0.0
C1362 C 0.14045 0.36668 0.57301 0.0
C1363 C 0.14088 0.34518 0.57879 0.0
C1364 C 0.16278 0.34533 0.58002 0.0
C1365 C 0.18478 0.36687 0.57503 0.0
C1366 C 0.18426 0.38833 0.5694 0.0
C1367 C 0.16235 0.38818 0.56848 0.0
loop_
_geom_bond_atom_site_label_1
_geom_bond_atom_site_label_2
_geom_bond_distance
_geom_bond_site_symmetry_2
_ccdc_geom_bond_type
O0 Cd1 2.223 . S
O0 C8 1.315 . S
Cd1 O0 2.223 . S
Cd1 O4 2.297 . S
Cd1 O5 2.439 . S
Cd1 O11 2.240 1_554 S
Cd2 O3 2.240 1_655 S
Cd2 O10 2.223 1_554 S
Cd2 O12 2.297 1_554 S
Cd2 O13 2.439 1_554 S
O3 Cd2 2.240 1_455 S
O3 C8 1.279 . S
O4 Cd1 2.297 . S
O4 C6 1.247 . S
O5 Cd1 2.439 . S
O5 C6 1.208 . S
C6 O4 1.247 . S
C6 O5 1.208 . S
C7 O12 1.247 . S
C7 O13 1.208 . S
C8 O0 1.315 . S
C8 O3 1.279 . S
C9 O10 1.268 1_455 S
C9 O11 1.328 . S
O10 Cd2 2.223 1_556 S
O10 C9 1.268 1_655 S
O11 Cd1 2.240 1_556 S
O11 C9 1.328 . S
O12 Cd2 2.297 1_556 S
O12 C7 1.247 . S
O13 Cd2 2.439 1_556 S
O13 C7 1.208 . S
O14 Cd15 2.223 . S
O14 C22 1.315 . S
Cd15 O14 2.223 . S
Cd15 O18 2.297 . S
Cd15 O19 2.439 . S
Cd15 O25 2.240 1_554 S
Cd16 O17 2.240 . S
Cd16 O24 2.223 1_554 S
Cd16 O26 2.297 1_554 S
Cd16 O27 2.439 1_554 S
O17 Cd16 2.240 . S
O17 C22 1.279 . S
O18 Cd15 2.297 . S
O18 C20 1.247 . S
O19 Cd15 2.439 . S
O19 C20 1.208 . S
C20 O18 1.247 . S
C20 O19 1.208 . S
C21 O26 1.247 . S
C21 O27 1.208 . S
C22 O14 1.315 . S
C22 O17 1.279 . S
C23 O24 1.315 . S
C23 O25 1.279 . S
O24 Cd16 2.223 1_556 S
O24 C23 1.315 . S
O25 Cd15 2.240 1_556 S
O25 C23 1.279 . S
O26 Cd16 2.297 1_556 S
O26 C21 1.247 . S
O27 Cd16 2.439 1_556 S
O27 C21 1.208 . S
O28 Cd29 2.223 1_556 S
O28 C36 1.315 . S
Cd29 O28 2.223 1_554 S
Cd29 O32 2.297 1_554 S
Cd29 O33 2.439 1_554 S
Cd29 O39 2.240 . S
Cd30 O31 2.240 1_564 S
Cd30 O38 2.223 . S
Cd30 O40 2.297 . S
Cd30 O41 2.439 . S
O31 Cd30 2.240 1_546 S
O31 C36 1.279 . S
O32 Cd29 2.297 1_556 S
O32 C34 1.247 . S
O33 Cd29 2.439 1_556 S
O33 C34 1.208 . S
C34 O32 1.247 . S
C34 O33 1.208 . S
C35 O40 1.247 . S
C35 O41 1.208 . S
C36 O28 1.315 . S
C36 O31 1.279 . S
C37 O38 1.273 1_545 S
C37 O39 1.322 . S
O38 Cd30 2.223 . S
O38 C37 1.273 1_565 S
O39 Cd29 2.240 . S
O39 C37 1.322 . S
O40 Cd30 2.297 . S
O40 C35 1.247 . S
O41 Cd30 2.439 . S
O41 C35 1.208 . S
O42 Cd43 2.223 1_556 S
O42 C50 1.280 1_655 S
Cd43 O42 2.223 1_554 S
Cd43 O46 2.297 1_554 S
Cd43 O47 2.439 1_554 S
Cd43 O53 2.240 1_655 S
Cd44 O45 2.240 1_554 S
Cd44 O52 2.223 . S
Cd44 O54 2.297 . S
Cd44 O55 2.439 . S
O45 Cd44 2.240 1_556 S
O45 C50 1.281 . S
O46 Cd43 2.297 1_556 S
O46 C48 1.247 . S
O47 Cd43 2.439 1_556 S
O47 C48 1.208 . S
C48 O46 1.247 . S
C48 O47 1.208 . S
C49 O54 1.247 . S
C49 O55 1.208 . S
C50 O42 1.280 1_455 S
C50 O45 1.281 . S
C51 O52 1.315 . S
C51 O53 1.279 . S
O52 Cd44 2.223 . S
O52 C51 1.315 . S
O53 Cd43 2.240 1_455 S
O53 C51 1.279 . S
O54 Cd44 2.297 . S
O54 C49 1.247 . S
O55 Cd44 2.439 . S
O55 C49 1.208 . S
O56 Cd57 2.223 1_556 S
O56 C64 1.315 . S
Cd57 O56 2.223 1_554 S
Cd57 O60 2.297 1_554 S
Cd57 O61 2.439 1_554 S
Cd57 O67 2.240 . S
Cd58 O59 2.240 1_554 S
Cd58 O66 2.223 . S
Cd58 O68 2.297 . S
Cd58 O69 2.439 . S
O59 Cd58 2.240 1_556 S
O59 C64 1.279 . S
O60 Cd57 2.297 1_556 S
O60 C62 1.247 . S
O61 Cd57 2.439 1_556 S
O61 C62 1.208 . S
C62 O60 1.247 . S
C62 O61 1.208 . S
C63 O68 1.247 . S
C63 O69 1.208 . S
C64 O56 1.315 . S
C64 O59 1.279 . S
C65 O66 1.315 . S
C65 O67 1.279 . S
O66 Cd58 2.223 . S
O66 C65 1.315 . S
O67 Cd57 2.240 . S
O67 C65 1.279 . S
O68 Cd58 2.297 . S
O68 C63 1.247 . S
O69 Cd58 2.439 . S
O69 C63 1.208 . S
O70 Cd71 2.223 . S
O70 C78 1.284 1_565 S
Cd71 O70 2.223 . S
Cd71 O74 2.297 . S
Cd71 O75 2.439 . S
Cd71 O81 2.240 1_564 S
Cd72 O73 2.240 . S
Cd72 O80 2.223 1_554 S
Cd72 O82 2.297 1_554 S
Cd72 O83 2.439 1_554 S
O73 Cd72 2.240 . S
O73 C78 1.281 . S
O74 Cd71 2.297 . S
O74 C76 1.247 . S
O75 Cd71 2.439 . S
O75 C76 1.208 . S
C76 O74 1.247 . S
C76 O75 1.208 . S
C77 O82 1.247 . S
C77 O83 1.208 . S
C78 O70 1.284 1_545 S
C78 O73 1.281 . S
C79 O80 1.315 . S
C79 O81 1.279 . S
O80 Cd72 2.223 1_556 S
O80 C79 1.315 . S
O81 Cd71 2.240 1_546 S
O81 C79 1.279 . S
O82 Cd72 2.297 1_556 S
O82 C77 1.247 . S
O83 Cd72 2.439 1_556 S
O83 C77 1.208 . S
O84 Cd85 2.223 . S
O84 C92 1.315 . S
Cd85 O84 2.223 . S
Cd85 O88 2.297 . S
Cd85 O89 2.439 . S
Cd85 O95 2.240 . S
Cd86 O87 2.240 . S
Cd86 O94 2.223 . S
Cd86 O96 2.297 . S
Cd86 O97 2.439 . S
O87 Cd86 2.240 . S
O87 C92 1.279 . S
O88 Cd85 2.297 . S
O88 C90 1.247 . S
O89 Cd85 2.439 . S
O89 C90 1.208 . S
C90 O88 1.247 . S
C90 O89 1.208 . S
C91 O96 1.247 . S
C91 O97 1.208 . S
C92 O84 1.315 . S
C92 O87 1.279 . S
C93 O94 1.315 . S
C93 O95 1.279 . S
O94 Cd86 2.223 . S
O94 C93 1.315 . S
O95 Cd85 2.240 . S
O95 C93 1.279 . S
O96 Cd86 2.297 . S
O96 C91 1.247 . S
O97 Cd86 2.439 . S
O97 C91 1.208 . S
O98 Cd99 2.223 . S
O98 C106 1.315 . S
Cd99 O98 2.223 . S
Cd99 O102 2.297 1_565 S
Cd99 O103 2.439 1_565 S
Cd99 O109 2.240 . S
Cd100 O101 2.240 . S
Cd100 O108 2.223 . S
Cd100 O110 2.297 . S
Cd100 O111 2.439 . S
O101 Cd100 2.240 . S
O101 C106 1.279 . S
O102 Cd99 2.297 1_545 S
O102 C104 1.247 . S
O103 Cd99 2.439 1_545 S
O103 C104 1.208 . S
C104 O102 1.247 . S
C104 O103 1.208 . S
C105 O110 1.247 . S
C105 O111 1.208 . S
C106 O98 1.315 . S
C106 O101 1.279 . S
C107 O108 1.315 . S
C107 O109 1.279 . S
O108 Cd100 2.223 . S
O108 C107 1.315 . S
O109 Cd99 2.240 . S
O109 C107 1.279 . S
O110 Cd100 2.297 . S
O110 C105 1.247 . S
O111 Cd100 2.439 . S
O111 C105 1.208 . S
O112 Cd113 2.223 . S
O112 C120 1.315 . S
Cd113 O112 2.223 . S
Cd113 O116 2.297 . S
Cd113 O117 2.439 . S
Cd113 O123 2.240 . S
Cd114 O115 2.240 . S
Cd114 O122 2.223 . S
Cd114 O124 2.297 1_455 S
Cd114 O125 2.439 1_455 S
O115 Cd114 2.240 . S
O115 C120 1.279 . S
O116 Cd113 2.297 . S
O116 C118 1.247 . S
O117 Cd113 2.439 . S
O117 C118 1.208 . S
C118 O116 1.247 . S
C118 O117 1.208 . S
C119 O124 1.247 . S
C119 O125 1.208 . S
C120 O112 1.315 . S
C120 O115 1.279 . S
C121 O122 1.315 . S
C121 O123 1.279 . S
O122 Cd114 2.223 . S
O122 C121 1.315 . S
O123 Cd113 2.240 . S
O123 C121 1.279 . S
O124 Cd114 2.297 1_655 S
O124 C119 1.247 . S
O125 Cd114 2.439 1_655 S
O125 C119 1.208 . S
O126 Cd127 2.223 . S
O126 C134 1.315 . S
Cd127 O126 2.223 . S
Cd127 O130 2.297 . S
Cd127 O131 2.439 . S
Cd127 O137 2.240 . S
Cd128 O129 2.240 . S
Cd128 O136 2.223 . S
Cd128 O138 2.297 1_565 S
Cd128 O139 2.439 1_565 S
O129 Cd128 2.240 . S
O129 C134 1.279 . S
O130 Cd127 2.297 . S
O130 C132 1.247 . S
O131 Cd127 2.439 . S
O131 C132 1.208 . S
C132 O130 1.247 . S
C132 O131 1.208 . S
C133 O138 1.247 . S
C133 O139 1.208 . S
C134 O126 1.315 . S
C134 O129 1.279 . S
C135 O136 1.315 . S
C135 O137 1.279 . S
O136 Cd128 2.223 . S
O136 C135 1.315 . S
O137 Cd127 2.240 . S
O137 C135 1.279 . S
O138 Cd128 2.297 1_545 S
O138 C133 1.247 . S
O139 Cd128 2.439 1_545 S
O139 C133 1.208 . S
O140 Cd141 2.223 . S
O140 C148 1.315 . S
Cd141 O140 2.223 . S
Cd141 O144 2.297 . S
Cd141 O145 2.439 . S
Cd141 O151 2.240 . S
Cd142 O143 2.240 . S
Cd142 O150 2.223 . S
Cd142 O152 2.297 1_455 S
Cd142 O153 2.439 1_455 S
O143 Cd142 2.240 . S
O143 C148 1.279 . S
O144 Cd141 2.297 . S
O144 C146 1.247 . S
O145 Cd141 2.439 . S
O145 C146 1.208 . S
C146 O144 1.247 . S
C146 O145 1.208 . S
C147 O152 1.247 . S
C147 O153 1.208 . S
C148 O140 1.315 . S
C148 O143 1.279 . S
C149 O150 1.315 . S
C149 O151 1.279 . S
O150 Cd142 2.223 . S
O150 C149 1.315 . S
O151 Cd141 2.240 . S
O151 C149 1.279 . S
O152 Cd142 2.297 1_655 S
O152 C147 1.247 . S
O153 Cd142 2.439 1_655 S
O153 C147 1.208 . S
O154 Cd155 2.223 . S
O154 C162 1.315 . S
Cd155 O154 2.223 . S
Cd155 O158 2.297 . S
Cd155 O159 2.439 . S
Cd155 O165 2.240 . S
Cd156 O157 2.240 . S
Cd156 O164 2.223 . S
Cd156 O166 2.297 . S
Cd156 O167 2.439 . S
O157 Cd156 2.240 . S
O157 C162 1.279 . S
O158 Cd155 2.297 . S
O158 C160 1.247 . S
O159 Cd155 2.439 . S
O159 C160 1.208 . S
C160 O158 1.247 . S
C160 O159 1.208 . S
C161 O166 1.247 . S
C161 O167 1.208 . S
C162 O154 1.315 . S
C162 O157 1.279 . S
C163 O164 1.315 . S
C163 O165 1.279 . S
O164 Cd156 2.223 . S
O164 C163 1.315 . S
O165 Cd155 2.240 . S
O165 C163 1.279 . S
O166 Cd156 2.297 . S
O166 C161 1.247 . S
O167 Cd156 2.439 . S
O167 C161 1.208 . S
O168 Cd169 2.223 . S
O168 C176 1.315 . S
Cd169 O168 2.223 . S
Cd169 O172 2.297 . S
Cd169 O173 2.439 . S
Cd169 O179 2.240 . S
Cd170 O171 2.240 . S
Cd170 O178 2.223 . S
Cd170 O180 2.297 1_545 S
Cd170 O181 2.439 1_545 S
O171 Cd170 2.240 . S
O171 C176 1.279 . S
O172 Cd169 2.297 . S
O172 C174 1.247 . S
O173 Cd169 2.439 . S
O173 C174 1.208 . S
C174 O172 1.247 . S
C174 O173 1.208 . S
C175 O180 1.247 . S
C175 O181 1.208 . S
C176 O168 1.315 . S
C176 O171 1.279 . S
C177 O178 1.315 . S
C177 O179 1.279 . S
O178 Cd170 2.223 . S
O178 C177 1.315 . S
O179 Cd169 2.240 . S
O179 C177 1.279 . S
O180 Cd170 2.297 1_565 S
O180 C175 1.247 . S
O181 Cd170 2.439 1_565 S
O181 C175 1.208 . S
O182 Cd183 2.223 . S
O182 C190 1.315 . S
Cd183 O182 2.223 . S
Cd183 O186 2.297 . S
Cd183 O187 2.439 . S
Cd183 O193 2.240 . S
Cd184 O185 2.240 . S
Cd184 O192 2.223 . S
Cd184 O194 2.297 1_655 S
Cd184 O195 2.439 1_655 S
O185 Cd184 2.240 . S
O185 C190 1.279 . S
O186 Cd183 2.297 . S
O186 C188 1.247 . S
O187 Cd183 2.439 . S
O187 C188 1.208 . S
C188 O186 1.247 . S
C188 O187 1.208 . S
C189 O194 1.247 . S
C189 O195 1.208 . S
C190 O182 1.315 . S
C190 O185 1.279 . S
C191 O192 1.315 . S
C191 O193 1.279 . S
O192 Cd184 2.223 . S
O192 C191 1.315 . S
O193 Cd183 2.240 . S
O193 C191 1.279 . S
O194 Cd184 2.297 1_455 S
O194 C189 1.247 . S
O195 Cd184 2.439 1_455 S
O195 C189 1.208 . S
O196 Cd197 2.223 . S
O196 C204 1.315 . S
Cd197 O196 2.223 . S
Cd197 O200 2.297 . S
Cd197 O201 2.439 . S
Cd197 O207 2.240 . S
Cd198 O199 2.240 . S
Cd198 O206 2.223 . S
Cd198 O208 2.297 . S
Cd198 O209 2.439 . S
O199 Cd198 2.240 . S
O199 C204 1.279 . S
O200 Cd197 2.297 . S
O200 C202 1.247 . S
O201 Cd197 2.439 . S
O201 C202 1.208 . S
C202 O200 1.247 . S
C202 O201 1.208 . S
C203 O208 1.247 . S
C203 O209 1.208 . S
C204 O196 1.315 . S
C204 O199 1.279 . S
C205 O206 1.315 . S
C205 O207 1.279 . S
O206 Cd198 2.223 . S
O206 C205 1.315 . S
O207 Cd197 2.240 . S
O207 C205 1.279 . S
O208 Cd198 2.297 . S
O208 C203 1.247 . S
O209 Cd198 2.439 . S
O209 C203 1.208 . S
O210 Cd211 2.223 . S
O210 C218 1.315 . S
Cd211 O210 2.223 . S
Cd211 O214 2.297 . S
Cd211 O215 2.439 . S
Cd211 O221 2.240 . S
Cd212 O213 2.240 . S
Cd212 O220 2.223 . S
Cd212 O222 2.297 . S
Cd212 O223 2.439 . S
O213 Cd212 2.240 . S
O213 C218 1.279 . S
O214 Cd211 2.297 . S
O214 C216 1.247 . S
O215 Cd211 2.439 . S
O215 C216 1.208 . S
C216 O214 1.247 . S
C216 O215 1.208 . S
C217 O222 1.247 . S
C217 O223 1.208 . S
C218 O210 1.315 . S
C218 O213 1.279 . S
C219 O220 1.315 . S
C219 O221 1.279 . S
O220 Cd212 2.223 . S
O220 C219 1.315 . S
O221 Cd211 2.240 . S
O221 C219 1.279 . S
O222 Cd212 2.297 . S
O222 C217 1.247 . S
O223 Cd212 2.439 . S
O223 C217 1.208 . S
O224 Cd225 2.223 . S
O224 C232 1.315 . S
Cd225 O224 2.223 . S
Cd225 O228 2.297 1_545 S
Cd225 O229 2.439 1_545 S
Cd225 O235 2.240 . S
Cd226 O227 2.240 . S
Cd226 O234 2.223 . S
Cd226 O236 2.297 . S
Cd226 O237 2.439 . S
O227 Cd226 2.240 . S
O227 C232 1.279 . S
O228 Cd225 2.297 1_565 S
O228 C230 1.247 . S
O229 Cd225 2.439 1_565 S
O229 C230 1.208 . S
C230 O228 1.247 . S
C230 O229 1.208 . S
C231 O236 1.247 . S
C231 O237 1.208 . S
C232 O224 1.315 . S
C232 O227 1.279 . S
C233 O234 1.315 . S
C233 O235 1.279 . S
O234 Cd226 2.223 . S
O234 C233 1.315 . S
O235 Cd225 2.240 . S
O235 C233 1.279 . S
O236 Cd226 2.297 . S
O236 C231 1.247 . S
O237 Cd226 2.439 . S
O237 C231 1.208 . S
O238 Cd239 2.223 . S
O238 C246 1.315 . S
Cd239 O238 2.223 . S
Cd239 O242 2.297 . S
Cd239 O243 2.439 . S
Cd239 O249 2.240 . S
Cd240 O241 2.240 . S
Cd240 O248 2.223 . S
Cd240 O250 2.297 1_655 S
Cd240 O251 2.439 1_655 S
O241 Cd240 2.240 . S
O241 C246 1.279 . S
O242 Cd239 2.297 . S
O242 C244 1.247 . S
O243 Cd239 2.439 . S
O243 C244 1.208 . S
C244 O242 1.247 . S
C244 O243 1.208 . S
C245 O250 1.247 . S
C245 O251 1.208 . S
C246 O238 1.315 . S
C246 O241 1.279 . S
C247 O248 1.315 . S
C247 O249 1.279 . S
O248 Cd240 2.223 . S
O248 C247 1.315 . S
O249 Cd239 2.240 . S
O249 C247 1.279 . S
O250 Cd240 2.297 1_455 S
O250 C245 1.247 . S
O251 Cd240 2.439 1_455 S
O251 C245 1.208 . S
H252 C279 0.929 . S
N253 C278 1.433 . S
N253 C284 1.435 . S
N253 C290 1.423 . S
H254 C280 0.930 . S
H255 C283 0.931 . S
H256 C282 0.929 . S
H257 C285 0.930 . S
H258 C286 0.932 . S
H259 C289 0.929 . S
H260 C288 0.931 . S
H261 C291 0.929 . S
H262 C295 0.932 . S
H263 C292 0.931 . S
H264 C294 0.929 . S
H265 C297 0.929 . S
H266 C298 0.930 . S
H267 C300 0.929 . S
H268 C301 0.931 . S
H269 C303 0.930 . S
H270 C304 0.932 . S
H271 C306 0.931 . S
H272 C307 0.929 . S
H273 C309 0.929 . S
H274 C310 0.931 . S
H275 C312 0.929 . S
N276 C296 1.433 . S
N276 C302 1.435 . S
N276 C308 1.423 . S
H277 C313 0.932 . S
C278 N253 1.433 . S
C278 C279 1.363 . S
C278 C283 1.370 . S
C279 H252 0.929 . S
C279 C278 1.363 . S
C279 C280 1.385 . S
C280 H254 0.930 . S
C280 C279 1.385 . S
C280 C281 1.357 . S
C281 C280 1.357 . S
C281 C282 1.406 . S
C282 H256 0.929 . S
C282 C281 1.406 . S
C282 C283 1.391 . S
C283 H255 0.931 . S
C283 C278 1.370 . S
C283 C282 1.391 . S
C284 N253 1.435 . S
C284 C285 1.358 . S
C284 C289 1.371 . S
C285 H257 0.930 . S
C285 C284 1.358 . S
C285 C286 1.405 . S
C286 H258 0.932 . S
C286 C285 1.405 . S
C286 C287 1.383 . S
C287 C286 1.383 . S
C287 C288 1.393 . S
C288 H260 0.931 . S
C288 C287 1.393 . S
C288 C289 1.382 . S
C289 H259 0.929 . S
C289 C284 1.371 . S
C289 C288 1.382 . S
C290 N253 1.423 . S
C290 C291 1.362 . S
C290 C295 1.388 . S
C291 H261 0.929 . S
C291 C290 1.362 . S
C291 C292 1.376 . S
C292 H263 0.931 . S
C292 C291 1.376 . S
C292 C293 1.396 . S
C293 C292 1.396 . S
C293 C294 1.348 . S
C293 C311 1.472 . S
C294 H264 0.929 . S
C294 C293 1.348 . S
C294 C295 1.443 . S
C295 H262 0.932 . S
C295 C290 1.388 . S
C295 C294 1.443 . S
C296 N276 1.433 . S
C296 C297 1.363 . S
C296 C301 1.370 . S
C297 H265 0.929 . S
C297 C296 1.363 . S
C297 C298 1.385 . S
C298 H266 0.930 . S
C298 C297 1.385 . S
C298 C299 1.357 . S
C299 C298 1.357 . S
C299 C300 1.406 . S
C300 H267 0.929 . S
C300 C299 1.406 . S
C300 C301 1.391 . S
C301 H268 0.931 . S
C301 C296 1.370 . S
C301 C300 1.391 . S
C302 N276 1.435 . S
C302 C303 1.358 . S
C302 C307 1.371 . S
C303 H269 0.930 . S
C303 C302 1.358 . S
C303 C304 1.405 . S
C304 H270 0.932 . S
C304 C303 1.405 . S
C304 C305 1.383 . S
C305 C304 1.383 . S
C305 C306 1.393 . S
C306 H271 0.931 . S
C306 C305 1.393 . S
C306 C307 1.382 . S
C307 H272 0.929 . S
C307 C302 1.371 . S
C307 C306 1.382 . S
C308 N276 1.423 . S
C308 C309 1.362 . S
C308 C313 1.388 . S
C309 H273 0.929 . S
C309 C308 1.362 . S
C309 C310 1.376 . S
C310 H274 0.931 . S
C310 C309 1.376 . S
C310 C311 1.396 . S
C311 C293 1.472 . S
C311 C310 1.396 . S
C311 C312 1.348 . S
C312 H275 0.929 . S
C312 C311 1.348 . S
C312 C313 1.443 . S
C313 H277 0.932 . S
C313 C308 1.388 . S
C313 C312 1.443 . S
H314 C341 0.929 . S
N315 C340 1.433 . S
N315 C346 1.435 . S
N315 C352 1.423 . S
H316 C342 0.930 . S
H317 C345 0.931 . S
H318 C344 0.929 . S
H319 C347 0.930 . S
H320 C348 0.932 . S
H321 C351 0.929 . S
H322 C350 0.931 . S
H323 C353 0.929 . S
H324 C357 0.932 . S
H325 C354 0.931 . S
H326 C356 0.929 . S
H327 C359 0.929 . S
H328 C360 0.930 . S
H329 C362 0.929 . S
H330 C363 0.931 . S
H331 C365 0.930 . S
H332 C366 0.932 . S
H333 C368 0.931 . S
H334 C369 0.929 . S
H335 C371 0.929 . S
H336 C372 0.931 . S
H337 C374 0.929 . S
N338 C358 1.433 . S
N338 C364 1.435 . S
N338 C370 1.423 . S
H339 C375 0.932 . S
C340 N315 1.433 . S
C340 C341 1.363 . S
C340 C345 1.370 . S
C341 H314 0.929 . S
C341 C340 1.363 . S
C341 C342 1.385 . S
C342 H316 0.930 . S
C342 C341 1.385 . S
C342 C343 1.357 . S
C343 C342 1.357 . S
C343 C344 1.406 . S
C344 H318 0.929 . S
C344 C343 1.406 . S
C344 C345 1.391 . S
C345 H317 0.931 . S
C345 C340 1.370 . S
C345 C344 1.391 . S
C346 N315 1.435 . S
C346 C347 1.358 . S
C346 C351 1.371 . S
C347 H319 0.930 . S
C347 C346 1.358 . S
C347 C348 1.405 . S
C348 H320 0.932 . S
C348 C347 1.405 . S
C348 C349 1.383 . S
C349 C348 1.383 . S
C349 C350 1.393 . S
C350 H322 0.931 . S
C350 C349 1.393 . S
C350 C351 1.382 . S
C351 H321 0.929 . S
C351 C346 1.371 . S
C351 C350 1.382 . S
C352 N315 1.423 . S
C352 C353 1.362 . S
C352 C357 1.388 . S
C353 H323 0.929 . S
C353 C352 1.362 . S
C353 C354 1.376 . S
C354 H325 0.931 . S
C354 C353 1.376 . S
C354 C355 1.396 . S
C355 C354 1.396 . S
C355 C356 1.348 . S
C355 C373 1.472 . S
C356 H326 0.929 . S
C356 C355 1.348 . S
C356 C357 1.443 . S
C357 H324 0.932 . S
C357 C352 1.388 . S
C357 C356 1.443 . S
C358 N338 1.433 . S
C358 C359 1.363 . S
C358 C363 1.370 . S
C359 H327 0.929 . S
C359 C358 1.363 . S
C359 C360 1.385 . S
C360 H328 0.930 . S
C360 C359 1.385 . S
C360 C361 1.357 . S
C361 C360 1.357 . S
C361 C362 1.406 . S
C362 H329 0.929 . S
C362 C361 1.406 . S
C362 C363 1.391 . S
C363 H330 0.931 . S
C363 C358 1.370 . S
C363 C362 1.391 . S
C364 N338 1.435 . S
C364 C365 1.358 . S
C364 C369 1.371 . S
C365 H331 0.930 . S
C365 C364 1.358 . S
C365 C366 1.405 . S
C366 H332 0.932 . S
C366 C365 1.405 . S
C366 C367 1.383 . S
C367 C366 1.383 . S
C367 C368 1.393 . S
C368 H333 0.931 . S
C368 C367 1.393 . S
C368 C369 1.382 . S
C369 H334 0.929 . S
C369 C364 1.371 . S
C369 C368 1.382 . S
C370 N338 1.423 . S
C370 C371 1.362 . S
C370 C375 1.388 . S
C371 H335 0.929 . S
C371 C370 1.362 . S
C371 C372 1.376 . S
C372 H336 0.931 . S
C372 C371 1.376 . S
C372 C373 1.396 . S
C373 C355 1.472 . S
C373 C372 1.396 . S
C373 C374 1.348 . S
C374 H337 0.929 . S
C374 C373 1.348 . S
C374 C375 1.443 . S
C375 H339 0.932 . S
C375 C370 1.388 . S
C375 C374 1.443 . S
H376 C403 0.929 . S
N377 C402 1.433 . S
N377 C408 1.435 . S
N377 C414 1.423 . S
H378 C404 0.930 . S
H379 C407 0.931 . S
H380 C406 0.929 . S
H381 C409 0.930 . S
H382 C410 0.932 . S
H383 C413 0.929 . S
H384 C412 0.931 . S
H385 C415 0.929 . S
H386 C419 0.932 . S
H387 C416 0.931 . S
H388 C418 0.929 . S
H389 C421 0.929 . S
H390 C422 0.930 . S
H391 C424 0.929 . S
H392 C425 0.931 . S
H393 C427 0.930 . S
H394 C428 0.932 . S
H395 C430 0.931 . S
H396 C431 0.929 . S
H397 C433 0.929 . S
H398 C434 0.931 . S
H399 C436 0.929 . S
N400 C420 1.433 . S
N400 C426 1.435 . S
N400 C432 1.423 . S
H401 C437 0.932 . S
C402 N377 1.433 . S
C402 C403 1.363 . S
C402 C407 1.370 . S
C403 H376 0.929 . S
C403 C402 1.363 . S
C403 C404 1.385 . S
C404 H378 0.930 . S
C404 C403 1.385 . S
C404 C405 1.357 . S
C405 C404 1.357 . S
C405 C406 1.406 . S
C406 H380 0.929 . S
C406 C405 1.406 . S
C406 C407 1.391 . S
C407 H379 0.931 . S
C407 C402 1.370 . S
C407 C406 1.391 . S
C408 N377 1.435 . S
C408 C409 1.358 . S
C408 C413 1.371 . S
C409 H381 0.930 . S
C409 C408 1.358 . S
C409 C410 1.405 . S
C410 H382 0.932 . S
C410 C409 1.405 . S
C410 C411 1.383 . S
C411 C410 1.383 . S
C411 C412 1.393 . S
C412 H384 0.931 . S
C412 C411 1.393 . S
C412 C413 1.382 . S
C413 H383 0.929 . S
C413 C408 1.371 . S
C413 C412 1.382 . S
C414 N377 1.423 . S
C414 C415 1.362 . S
C414 C419 1.388 . S
C415 H385 0.929 . S
C415 C414 1.362 . S
C415 C416 1.376 . S
C416 H387 0.931 . S
C416 C415 1.376 . S
C416 C417 1.396 . S
C417 C416 1.396 . S
C417 C418 1.348 . S
C417 C435 1.472 . S
C418 H388 0.929 . S
C418 C417 1.348 . S
C418 C419 1.443 . S
C419 H386 0.932 . S
C419 C414 1.388 . S
C419 C418 1.443 . S
C420 N400 1.433 . S
C420 C421 1.363 . S
C420 C425 1.370 . S
C421 H389 0.929 . S
C421 C420 1.363 . S
C421 C422 1.385 . S
C422 H390 0.930 . S
C422 C421 1.385 . S
C422 C423 1.357 . S
C423 C422 1.357 . S
C423 C424 1.406 . S
C424 H391 0.929 . S
C424 C423 1.406 . S
C424 C425 1.391 . S
C425 H392 0.931 . S
C425 C420 1.370 . S
C425 C424 1.391 . S
C426 N400 1.435 . S
C426 C427 1.358 . S
C426 C431 1.371 . S
C427 H393 0.930 . S
C427 C426 1.358 . S
C427 C428 1.405 . S
C428 H394 0.932 . S
C428 C427 1.405 . S
C428 C429 1.383 . S
C429 C428 1.383 . S
C429 C430 1.393 . S
C430 H395 0.931 . S
C430 C429 1.393 . S
C430 C431 1.382 . S
C431 H396 0.929 . S
C431 C426 1.371 . S
C431 C430 1.382 . S
C432 N400 1.423 . S
C432 C433 1.362 . S
C432 C437 1.388 . S
C433 H397 0.929 . S
C433 C432 1.362 . S
C433 C434 1.376 . S
C434 H398 0.931 . S
C434 C433 1.376 . S
C434 C435 1.396 . S
C435 C417 1.472 . S
C435 C434 1.396 . S
C435 C436 1.348 . S
C436 H399 0.929 . S
C436 C435 1.348 . S
C436 C437 1.443 . S
C437 H401 0.932 . S
C437 C432 1.388 . S
C437 C436 1.443 . S
H438 C465 0.929 . S
N439 C464 1.433 . S
N439 C470 1.435 . S
N439 C476 1.423 . S
H440 C466 0.930 . S
H441 C469 0.931 . S
H442 C468 0.929 . S
H443 C471 0.930 . S
H444 C472 0.932 . S
H445 C475 0.929 . S
H446 C474 0.931 . S
H447 C477 0.929 . S
H448 C481 0.932 . S
H449 C478 0.931 . S
H450 C480 0.929 . S
H451 C483 0.929 . S
H452 C484 0.930 . S
H453 C486 0.929 . S
H454 C487 0.931 . S
H455 C489 0.930 . S
H456 C490 0.932 . S
H457 C492 0.931 . S
H458 C493 0.929 . S
H459 C495 0.929 . S
H460 C496 0.931 . S
H461 C498 0.929 . S
N462 C482 1.433 . S
N462 C488 1.435 . S
N462 C494 1.423 . S
H463 C499 0.932 . S
C464 N439 1.433 . S
C464 C465 1.363 . S
C464 C469 1.370 . S
C465 H438 0.929 . S
C465 C464 1.363 . S
C465 C466 1.385 . S
C466 H440 0.930 . S
C466 C465 1.385 . S
C466 C467 1.357 . S
C467 C466 1.357 . S
C467 C468 1.406 . S
C468 H442 0.929 . S
C468 C467 1.406 . S
C468 C469 1.391 . S
C469 H441 0.931 . S
C469 C464 1.370 . S
C469 C468 1.391 . S
C470 N439 1.435 . S
C470 C471 1.358 . S
C470 C475 1.371 . S
C471 H443 0.930 . S
C471 C470 1.358 . S
C471 C472 1.405 . S
C472 H444 0.932 . S
C472 C471 1.405 . S
C472 C473 1.383 . S
C473 C472 1.383 . S
C473 C474 1.393 . S
C474 H446 0.931 . S
C474 C473 1.393 . S
C474 C475 1.382 . S
C475 H445 0.929 . S
C475 C470 1.371 . S
C475 C474 1.382 . S
C476 N439 1.423 . S
C476 C477 1.362 . S
C476 C481 1.388 . S
C477 H447 0.929 . S
C477 C476 1.362 . S
C477 C478 1.376 . S
C478 H449 0.931 . S
C478 C477 1.376 . S
C478 C479 1.396 . S
C479 C478 1.396 . S
C479 C480 1.348 . S
C479 C497 1.472 . S
C480 H450 0.929 . S
C480 C479 1.348 . S
C480 C481 1.443 . S
C481 H448 0.932 . S
C481 C476 1.388 . S
C481 C480 1.443 . S
C482 N462 1.433 . S
C482 C483 1.363 . S
C482 C487 1.370 . S
C483 H451 0.929 . S
C483 C482 1.363 . S
C483 C484 1.385 . S
C484 H452 0.930 . S
C484 C483 1.385 . S
C484 C485 1.357 . S
C485 C484 1.357 . S
C485 C486 1.406 . S
C486 H453 0.929 . S
C486 C485 1.406 . S
C486 C487 1.391 . S
C487 H454 0.931 . S
C487 C482 1.370 . S
C487 C486 1.391 . S
C488 N462 1.435 . S
C488 C489 1.358 . S
C488 C493 1.371 . S
C489 H455 0.930 . S
C489 C488 1.358 . S
C489 C490 1.405 . S
C490 H456 0.932 . S
C490 C489 1.405 . S
C490 C491 1.383 . S
C491 C490 1.383 . S
C491 C492 1.393 . S
C492 H457 0.931 . S
C492 C491 1.393 . S
C492 C493 1.382 . S
C493 H458 0.929 . S
C493 C488 1.371 . S
C493 C492 1.382 . S
C494 N462 1.423 . S
C494 C495 1.362 . S
C494 C499 1.388 . S
C495 H459 0.929 . S
C495 C494 1.362 . S
C495 C496 1.376 . S
C496 H460 0.931 . S
C496 C495 1.376 . S
C496 C497 1.396 . S
C497 C479 1.472 . S
C497 C496 1.396 . S
C497 C498 1.348 . S
C498 H461 0.929 . S
C498 C497 1.348 . S
C498 C499 1.443 . S
C499 H463 0.932 . S
C499 C494 1.388 . S
C499 C498 1.443 . S
H500 C527 0.929 . S
N501 C526 1.433 . S
N501 C532 1.435 . S
N501 C538 1.423 . S
H502 C528 0.930 . S
H503 C531 0.931 . S
H504 C530 0.929 . S
H505 C533 0.930 . S
H506 C534 0.932 . S
H507 C537 0.929 . S
H508 C536 0.931 . S
H509 C539 0.929 . S
H510 C543 0.932 . S
H511 C540 0.931 . S
H512 C542 0.929 . S
H513 C545 0.929 . S
H514 C546 0.930 . S
H515 C548 0.929 . S
H516 C549 0.931 . S
H517 C551 0.930 . S
H518 C552 0.932 . S
H519 C554 0.931 . S
H520 C555 0.929 . S
H521 C557 0.929 . S
H522 C558 0.931 . S
H523 C560 0.929 . S
N524 C544 1.433 . S
N524 C550 1.435 . S
N524 C556 1.423 . S
H525 C561 0.932 . S
C526 N501 1.433 . S
C526 C527 1.363 . S
C526 C531 1.370 . S
C527 H500 0.929 . S
C527 C526 1.363 . S
C527 C528 1.385 . S
C528 H502 0.930 . S
C528 C527 1.385 . S
C528 C529 1.357 . S
C529 C528 1.357 . S
C529 C530 1.406 . S
C530 H504 0.929 . S
C530 C529 1.406 . S
C530 C531 1.391 . S
C531 H503 0.931 . S
C531 C526 1.370 . S
C531 C530 1.391 . S
C532 N501 1.435 . S
C532 C533 1.358 . S
C532 C537 1.371 . S
C533 H505 0.930 . S
C533 C532 1.358 . S
C533 C534 1.405 . S
C534 H506 0.932 . S
C534 C533 1.405 . S
C534 C535 1.383 . S
C535 C534 1.383 . S
C535 C536 1.393 . S
C536 H508 0.931 . S
C536 C535 1.393 . S
C536 C537 1.382 . S
C537 H507 0.929 . S
C537 C532 1.371 . S
C537 C536 1.382 . S
C538 N501 1.423 . S
C538 C539 1.362 . S
C538 C543 1.388 . S
C539 H509 0.929 . S
C539 C538 1.362 . S
C539 C540 1.376 . S
C540 H511 0.931 . S
C540 C539 1.376 . S
C540 C541 1.396 . S
C541 C540 1.396 . S
C541 C542 1.348 . S
C541 C559 1.472 . S
C542 H512 0.929 . S
C542 C541 1.348 . S
C542 C543 1.443 . S
C543 H510 0.932 . S
C543 C538 1.388 . S
C543 C542 1.443 . S
C544 N524 1.433 . S
C544 C545 1.363 . S
C544 C549 1.370 . S
C545 H513 0.929 . S
C545 C544 1.363 . S
C545 C546 1.385 . S
C546 H514 0.930 . S
C546 C545 1.385 . S
C546 C547 1.357 . S
C547 C546 1.357 . S
C547 C548 1.406 . S
C548 H515 0.929 . S
C548 C547 1.406 . S
C548 C549 1.391 . S
C549 H516 0.931 . S
C549 C544 1.370 . S
C549 C548 1.391 . S
C550 N524 1.435 . S
C550 C551 1.358 . S
C550 C555 1.371 . S
C551 H517 0.930 . S
C551 C550 1.358 . S
C551 C552 1.405 . S
C552 H518 0.932 . S
C552 C551 1.405 . S
C552 C553 1.383 . S
C553 C552 1.383 . S
C553 C554 1.393 . S
C554 H519 0.931 . S
C554 C553 1.393 . S
C554 C555 1.382 . S
C555 H520 0.929 . S
C555 C550 1.371 . S
C555 C554 1.382 . S
C556 N524 1.423 . S
C556 C557 1.362 . S
C556 C561 1.388 . S
C557 H521 0.929 . S
C557 C556 1.362 . S
C557 C558 1.376 . S
C558 H522 0.931 . S
C558 C557 1.376 . S
C558 C559 1.396 . S
C559 C541 1.472 . S
C559 C558 1.396 . S
C559 C560 1.348 . S
C560 H523 0.929 . S
C560 C559 1.348 . S
C560 C561 1.443 . S
C561 H525 0.932 . S
C561 C556 1.388 . S
C561 C560 1.443 . S
H562 C589 0.929 . S
N563 C588 1.433 . S
N563 C594 1.435 . S
N563 C600 1.423 . S
H564 C590 0.930 . S
H565 C593 0.931 . S
H566 C592 0.929 . S
H567 C595 0.930 . S
H568 C596 0.932 . S
H569 C599 0.929 . S
H570 C598 0.931 . S
H571 C601 0.929 . S
H572 C605 0.932 . S
H573 C602 0.931 . S
H574 C604 0.929 . S
H575 C607 0.929 . S
H576 C608 0.930 . S
H577 C610 0.929 . S
H578 C611 0.931 . S
H579 C613 0.930 . S
H580 C614 0.932 . S
H581 C616 0.931 . S
H582 C617 0.929 . S
H583 C619 0.929 . S
H584 C620 0.931 . S
H585 C622 0.929 . S
N586 C606 1.433 . S
N586 C612 1.435 . S
N586 C618 1.423 . S
H587 C623 0.932 . S
C588 N563 1.433 . S
C588 C589 1.363 . S
C588 C593 1.370 . S
C589 H562 0.929 . S
C589 C588 1.363 . S
C589 C590 1.385 . S
C590 H564 0.930 . S
C590 C589 1.385 . S
C590 C591 1.357 . S
C591 C590 1.357 . S
C591 C592 1.406 . S
C592 H566 0.929 . S
C592 C591 1.406 . S
C592 C593 1.391 . S
C593 H565 0.931 . S
C593 C588 1.370 . S
C593 C592 1.391 . S
C594 N563 1.435 . S
C594 C595 1.358 . S
C594 C599 1.371 . S
C595 H567 0.930 . S
C595 C594 1.358 . S
C595 C596 1.405 . S
C596 H568 0.932 . S
C596 C595 1.405 . S
C596 C597 1.383 . S
C597 C596 1.383 . S
C597 C598 1.393 . S
C598 H570 0.931 . S
C598 C597 1.393 . S
C598 C599 1.382 . S
C599 H569 0.929 . S
C599 C594 1.371 . S
C599 C598 1.382 . S
C600 N563 1.423 . S
C600 C601 1.362 . S
C600 C605 1.388 . S
C601 H571 0.929 . S
C601 C600 1.362 . S
C601 C602 1.376 . S
C602 H573 0.931 . S
C602 C601 1.376 . S
C602 C603 1.396 . S
C603 C602 1.396 . S
C603 C604 1.348 . S
C603 C621 1.472 . S
C604 H574 0.929 . S
C604 C603 1.348 . S
C604 C605 1.443 . S
C605 H572 0.932 . S
C605 C600 1.388 . S
C605 C604 1.443 . S
C606 N586 1.433 . S
C606 C607 1.363 . S
C606 C611 1.370 . S
C607 H575 0.929 . S
C607 C606 1.363 . S
C607 C608 1.385 . S
C608 H576 0.930 . S
C608 C607 1.385 . S
C608 C609 1.357 . S
C609 C608 1.357 . S
C609 C610 1.406 . S
C610 H577 0.929 . S
C610 C609 1.406 . S
C610 C611 1.391 . S
C611 H578 0.931 . S
C611 C606 1.370 . S
C611 C610 1.391 . S
C612 N586 1.435 . S
C612 C613 1.358 . S
C612 C617 1.371 . S
C613 H579 0.930 . S
C613 C612 1.358 . S
C613 C614 1.405 . S
C614 H580 0.932 . S
C614 C613 1.405 . S
C614 C615 1.383 . S
C615 C614 1.383 . S
C615 C616 1.393 . S
C616 H581 0.931 . S
C616 C615 1.393 . S
C616 C617 1.382 . S
C617 H582 0.929 . S
C617 C612 1.371 . S
C617 C616 1.382 . S
C618 N586 1.423 . S
C618 C619 1.362 . S
C618 C623 1.388 . S
C619 H583 0.929 . S
C619 C618 1.362 . S
C619 C620 1.376 . S
C620 H584 0.931 . S
C620 C619 1.376 . S
C620 C621 1.396 . S
C621 C603 1.472 . S
C621 C620 1.396 . S
C621 C622 1.348 . S
C622 H585 0.929 . S
C622 C621 1.348 . S
C622 C623 1.443 . S
C623 H587 0.932 . S
C623 C618 1.388 . S
C623 C622 1.443 . S
H624 C651 0.929 . S
N625 C650 1.433 . S
N625 C656 1.435 . S
N625 C662 1.423 . S
H626 C652 0.930 . S
H627 C655 0.931 . S
H628 C654 0.929 . S
H629 C657 0.930 . S
H630 C658 0.932 . S
H631 C661 0.929 . S
H632 C660 0.931 . S
H633 C663 0.929 . S
H634 C667 0.932 . S
H635 C664 0.931 . S
H636 C666 0.929 . S
H637 C669 0.929 . S
H638 C670 0.930 . S
H639 C672 0.929 . S
H640 C673 0.931 . S
H641 C675 0.930 . S
H642 C676 0.932 . S
H643 C678 0.931 . S
H644 C679 0.929 . S
H645 C681 0.929 . S
H646 C682 0.931 . S
H647 C684 0.929 . S
N648 C668 1.433 . S
N648 C674 1.435 . S
N648 C680 1.423 . S
H649 C685 0.932 . S
C650 N625 1.433 . S
C650 C651 1.363 . S
C650 C655 1.370 . S
C651 H624 0.929 . S
C651 C650 1.363 . S
C651 C652 1.385 . S
C652 H626 0.930 . S
C652 C651 1.385 . S
C652 C653 1.357 . S
C653 C652 1.357 . S
C653 C654 1.406 . S
C654 H628 0.929 . S
C654 C653 1.406 . S
C654 C655 1.391 . S
C655 H627 0.931 . S
C655 C650 1.370 . S
C655 C654 1.391 . S
C656 N625 1.435 . S
C656 C657 1.358 . S
C656 C661 1.371 . S
C657 H629 0.930 . S
C657 C656 1.358 . S
C657 C658 1.405 . S
C658 H630 0.932 . S
C658 C657 1.405 . S
C658 C659 1.383 . S
C659 C658 1.383 . S
C659 C660 1.393 . S
C660 H632 0.931 . S
C660 C659 1.393 . S
C660 C661 1.382 . S
C661 H631 0.929 . S
C661 C656 1.371 . S
C661 C660 1.382 . S
C662 N625 1.423 . S
C662 C663 1.362 . S
C662 C667 1.388 . S
C663 H633 0.929 . S
C663 C662 1.362 . S
C663 C664 1.376 . S
C664 H635 0.931 . S
C664 C663 1.376 . S
C664 C665 1.396 . S
C665 C664 1.396 . S
C665 C666 1.348 . S
C665 C683 1.472 . S
C666 H636 0.929 . S
C666 C665 1.348 . S
C666 C667 1.443 . S
C667 H634 0.932 . S
C667 C662 1.388 . S
C667 C666 1.443 . S
C668 N648 1.433 . S
C668 C669 1.363 . S
C668 C673 1.370 . S
C669 H637 0.929 . S
C669 C668 1.363 . S
C669 C670 1.385 . S
C670 H638 0.930 . S
C670 C669 1.385 . S
C670 C671 1.357 . S
C671 C670 1.357 . S
C671 C672 1.406 . S
C672 H639 0.929 . S
C672 C671 1.406 . S
C672 C673 1.391 . S
C673 H640 0.931 . S
C673 C668 1.370 . S
C673 C672 1.391 . S
C674 N648 1.435 . S
C674 C675 1.358 . S
C674 C679 1.371 . S
C675 H641 0.930 . S
C675 C674 1.358 . S
C675 C676 1.405 . S
C676 H642 0.932 . S
C676 C675 1.405 . S
C676 C677 1.383 . S
C677 C676 1.383 . S
C677 C678 1.393 . S
C678 H643 0.931 . S
C678 C677 1.393 . S
C678 C679 1.382 . S
C679 H644 0.929 . S
C679 C674 1.371 . S
C679 C678 1.382 . S
C680 N648 1.423 . S
C680 C681 1.362 . S
C680 C685 1.388 . S
C681 H645 0.929 . S
C681 C680 1.362 . S
C681 C682 1.376 . S
C682 H646 0.931 . S
C682 C681 1.376 . S
C682 C683 1.396 . S
C683 C665 1.472 . S
C683 C682 1.396 . S
C683 C684 1.348 . S
C684 H647 0.929 . S
C684 C683 1.348 . S
C684 C685 1.443 . S
C685 H649 0.932 . S
C685 C680 1.388 . S
C685 C684 1.443 . S
H686 C713 0.929 . S
N687 C712 1.433 . S
N687 C718 1.435 . S
N687 C724 1.423 . S
H688 C714 0.930 . S
H689 C717 0.931 . S
H690 C716 0.929 . S
H691 C719 0.930 . S
H692 C720 0.932 . S
H693 C723 0.929 . S
H694 C722 0.931 . S
H695 C725 0.929 . S
H696 C729 0.932 . S
H697 C726 0.931 . S
H698 C728 0.929 . S
H699 C731 0.929 . S
H700 C732 0.930 . S
H701 C734 0.929 . S
H702 C735 0.931 . S
H703 C737 0.930 . S
H704 C738 0.932 . S
H705 C740 0.931 . S
H706 C741 0.929 . S
H707 C743 0.929 . S
H708 C744 0.931 . S
H709 C746 0.929 . S
N710 C730 1.433 . S
N710 C736 1.435 . S
N710 C742 1.423 . S
H711 C747 0.932 . S
C712 N687 1.433 . S
C712 C713 1.363 . S
C712 C717 1.370 . S
C713 H686 0.929 . S
C713 C712 1.363 . S
C713 C714 1.385 . S
C714 H688 0.930 . S
C714 C713 1.385 . S
C714 C715 1.357 . S
C715 C714 1.357 . S
C715 C716 1.406 . S
C716 H690 0.929 . S
C716 C715 1.406 . S
C716 C717 1.391 . S
C717 H689 0.931 . S
C717 C712 1.370 . S
C717 C716 1.391 . S
C718 N687 1.435 . S
C718 C719 1.358 . S
C718 C723 1.371 . S
C719 H691 0.930 . S
C719 C718 1.358 . S
C719 C720 1.405 . S
C720 H692 0.932 . S
C720 C719 1.405 . S
C720 C721 1.383 . S
C721 C720 1.383 . S
C721 C722 1.393 . S
C722 H694 0.931 . S
C722 C721 1.393 . S
C722 C723 1.382 . S
C723 H693 0.929 . S
C723 C718 1.371 . S
C723 C722 1.382 . S
C724 N687 1.423 . S
C724 C725 1.362 . S
C724 C729 1.388 . S
C725 H695 0.929 . S
C725 C724 1.362 . S
C725 C726 1.376 . S
C726 H697 0.931 . S
C726 C725 1.376 . S
C726 C727 1.396 . S
C727 C726 1.396 . S
C727 C728 1.348 . S
C727 C745 1.472 . S
C728 H698 0.929 . S
C728 C727 1.348 . S
C728 C729 1.443 . S
C729 H696 0.932 . S
C729 C724 1.388 . S
C729 C728 1.443 . S
C730 N710 1.433 . S
C730 C731 1.363 . S
C730 C735 1.370 . S
C731 H699 0.929 . S
C731 C730 1.363 . S
C731 C732 1.385 . S
C732 H700 0.930 . S
C732 C731 1.385 . S
C732 C733 1.357 . S
C733 C732 1.357 . S
C733 C734 1.406 . S
C734 H701 0.929 . S
C734 C733 1.406 . S
C734 C735 1.391 . S
C735 H702 0.931 . S
C735 C730 1.370 . S
C735 C734 1.391 . S
C736 N710 1.435 . S
C736 C737 1.358 . S
C736 C741 1.371 . S
C737 H703 0.930 . S
C737 C736 1.358 . S
C737 C738 1.405 . S
C738 H704 0.932 . S
C738 C737 1.405 . S
C738 C739 1.383 . S
C739 C738 1.383 . S
C739 C740 1.393 . S
C740 H705 0.931 . S
C740 C739 1.393 . S
C740 C741 1.382 . S
C741 H706 0.929 . S
C741 C736 1.371 . S
C741 C740 1.382 . S
C742 N710 1.423 . S
C742 C743 1.362 . S
C742 C747 1.388 . S
C743 H707 0.929 . S
C743 C742 1.362 . S
C743 C744 1.376 . S
C744 H708 0.931 . S
C744 C743 1.376 . S
C744 C745 1.396 . S
C745 C727 1.472 . S
C745 C744 1.396 . S
C745 C746 1.348 . S
C746 H709 0.929 . S
C746 C745 1.348 . S
C746 C747 1.443 . S
C747 H711 0.932 . S
C747 C742 1.388 . S
C747 C746 1.443 . S
H748 C775 0.929 . S
N749 C774 1.433 . S
N749 C780 1.435 . S
N749 C786 1.423 . S
H750 C776 0.930 . S
H751 C779 0.931 . S
H752 C778 0.929 . S
H753 C781 0.930 . S
H754 C782 0.932 . S
H755 C785 0.929 . S
H756 C784 0.931 . S
H757 C787 0.929 . S
H758 C791 0.932 . S
H759 C788 0.931 . S
H760 C790 0.929 . S
H761 C793 0.929 . S
H762 C794 0.930 . S
H763 C796 0.929 . S
H764 C797 0.931 . S
H765 C799 0.930 . S
H766 C800 0.932 . S
H767 C802 0.931 . S
H768 C803 0.929 . S
H769 C805 0.929 . S
H770 C806 0.931 . S
H771 C808 0.929 . S
N772 C792 1.433 . S
N772 C798 1.435 . S
N772 C804 1.423 . S
H773 C809 0.932 . S
C774 N749 1.433 . S
C774 C775 1.363 . S
C774 C779 1.370 . S
C775 H748 0.929 . S
C775 C774 1.363 . S
C775 C776 1.385 . S
C776 H750 0.930 . S
C776 C775 1.385 . S
C776 C777 1.357 . S
C777 C776 1.357 . S
C777 C778 1.406 . S
C778 H752 0.929 . S
C778 C777 1.406 . S
C778 C779 1.391 . S
C779 H751 0.931 . S
C779 C774 1.370 . S
C779 C778 1.391 . S
C780 N749 1.435 . S
C780 C781 1.358 . S
C780 C785 1.371 . S
C781 H753 0.930 . S
C781 C780 1.358 . S
C781 C782 1.405 . S
C782 H754 0.932 . S
C782 C781 1.405 . S
C782 C783 1.383 . S
C783 C782 1.383 . S
C783 C784 1.393 . S
C784 H756 0.931 . S
C784 C783 1.393 . S
C784 C785 1.382 . S
C785 H755 0.929 . S
C785 C780 1.371 . S
C785 C784 1.382 . S
C786 N749 1.423 . S
C786 C787 1.362 . S
C786 C791 1.388 . S
C787 H757 0.929 . S
C787 C786 1.362 . S
C787 C788 1.376 . S
C788 H759 0.931 . S
C788 C787 1.376 . S
C788 C789 1.396 . S
C789 C788 1.396 . S
C789 C790 1.348 . S
C789 C807 1.472 . S
C790 H760 0.929 . S
C790 C789 1.348 . S
C790 C791 1.443 . S
C791 H758 0.932 . S
C791 C786 1.388 . S
C791 C790 1.443 . S
C792 N772 1.433 . S
C792 C793 1.363 . S
C792 C797 1.370 . S
C793 H761 0.929 . S
C793 C792 1.363 . S
C793 C794 1.385 . S
C794 H762 0.930 . S
C794 C793 1.385 . S
C794 C795 1.357 . S
C795 C794 1.357 . S
C795 C796 1.406 . S
C796 H763 0.929 . S
C796 C795 1.406 . S
C796 C797 1.391 . S
C797 H764 0.931 . S
C797 C792 1.370 . S
C797 C796 1.391 . S
C798 N772 1.435 . S
C798 C799 1.358 . S
C798 C803 1.371 . S
C799 H765 0.930 . S
C799 C798 1.358 . S
C799 C800 1.405 . S
C800 H766 0.932 . S
C800 C799 1.405 . S
C800 C801 1.383 . S
C801 C800 1.383 . S
C801 C802 1.393 . S
C802 H767 0.931 . S
C802 C801 1.393 . S
C802 C803 1.382 . S
C803 H768 0.929 . S
C803 C798 1.371 . S
C803 C802 1.382 . S
C804 N772 1.423 . S
C804 C805 1.362 . S
C804 C809 1.388 . S
C805 H769 0.929 . S
C805 C804 1.362 . S
C805 C806 1.376 . S
C806 H770 0.931 . S
C806 C805 1.376 . S
C806 C807 1.396 . S
C807 C789 1.472 . S
C807 C806 1.396 . S
C807 C808 1.348 . S
C808 H771 0.929 . S
C808 C807 1.348 . S
C808 C809 1.443 . S
C809 H773 0.932 . S
C809 C804 1.388 . S
C809 C808 1.443 . S
H810 C837 0.929 . S
N811 C836 1.433 . S
N811 C842 1.435 . S
N811 C848 1.423 . S
H812 C838 0.930 . S
H813 C841 0.931 1_655 S
H814 C840 0.932 . S
H815 C843 0.930 1_655 S
H816 C844 0.932 1_655 S
H817 C847 0.929 . S
H818 C846 0.931 . S
H819 C849 0.929 . S
H820 C853 0.932 . S
H821 C850 0.931 . S
H822 C852 0.929 . S
H823 C855 0.929 . S
H824 C856 0.930 . S
H825 C858 0.937 . S
H826 C859 0.930 1_655 S
H827 C861 0.930 1_655 S
H828 C862 0.932 1_655 S
H829 C864 0.931 . S
H830 C865 0.929 . S
H831 C867 0.929 . S
H832 C868 0.931 . S
H833 C870 0.929 . S
N834 C854 1.433 . S
N834 C860 1.435 . S
N834 C866 1.423 . S
H835 C871 0.932 . S
C836 N811 1.433 . S
C836 C837 1.363 . S
C836 C841 1.370 . S
C837 H810 0.929 . S
C837 C836 1.363 . S
C837 C838 1.385 . S
C838 H812 0.930 . S
C838 C837 1.385 . S
C838 C839 1.357 . S
C839 C838 1.357 . S
C839 C840 1.408 1_455 S
C840 H814 0.932 . S
C840 C839 1.408 1_655 S
C840 C841 1.388 1_655 S
C841 H813 0.931 1_455 S
C841 C836 1.370 . S
C841 C840 1.388 1_455 S
C842 N811 1.435 . S
C842 C843 1.358 . S
C842 C847 1.371 . S
C843 H815 0.930 1_455 S
C843 C842 1.358 . S
C843 C844 1.405 . S
C844 H816 0.932 1_455 S
C844 C843 1.405 . S
C844 C845 1.383 . S
C845 C844 1.383 . S
C845 C846 1.393 . S
C846 H818 0.931 . S
C846 C845 1.393 . S
C846 C847 1.382 . S
C847 H817 0.929 . S
C847 C842 1.371 . S
C847 C846 1.382 . S
C848 N811 1.423 . S
C848 C849 1.362 . S
C848 C853 1.388 . S
C849 H819 0.929 . S
C849 C848 1.362 . S
C849 C850 1.376 . S
C850 H821 0.931 . S
C850 C849 1.376 . S
C850 C851 1.396 . S
C851 C850 1.396 . S
C851 C852 1.348 . S
C851 C869 1.472 . S
C852 H822 0.929 . S
C852 C851 1.348 . S
C852 C853 1.443 . S
C853 H820 0.932 . S
C853 C848 1.388 . S
C853 C852 1.443 . S
C854 N834 1.433 . S
C854 C855 1.363 . S
C854 C859 1.370 . S
C855 H823 0.929 . S
C855 C854 1.363 . S
C855 C856 1.385 . S
C856 H824 0.930 . S
C856 C855 1.385 . S
C856 C857 1.357 . S
C857 C856 1.357 . S
C857 C858 1.399 1_455 S
C858 H825 0.937 . S
C858 C857 1.399 1_655 S
C858 C859 1.391 1_655 S
C859 H826 0.930 1_455 S
C859 C854 1.370 . S
C859 C858 1.391 1_455 S
C860 N834 1.435 . S
C860 C861 1.358 . S
C860 C865 1.371 . S
C861 H827 0.930 1_455 S
C861 C860 1.358 . S
C861 C862 1.405 . S
C862 H828 0.932 1_455 S
C862 C861 1.405 . S
C862 C863 1.383 . S
C863 C862 1.383 . S
C863 C864 1.393 . S
C864 H829 0.931 . S
C864 C863 1.393 . S
C864 C865 1.382 . S
C865 H830 0.929 . S
C865 C860 1.371 . S
C865 C864 1.382 . S
C866 N834 1.423 . S
C866 C867 1.362 . S
C866 C871 1.388 . S
C867 H831 0.929 . S
C867 C866 1.362 . S
C867 C868 1.376 . S
C868 H832 0.931 . S
C868 C867 1.376 . S
C868 C869 1.396 . S
C869 C851 1.472 . S
C869 C868 1.396 . S
C869 C870 1.348 . S
C870 H833 0.929 . S
C870 C869 1.348 . S
C870 C871 1.443 . S
C871 H835 0.932 . S
C871 C866 1.388 . S
C871 C870 1.443 . S
H872 C899 0.929 . S
N873 C898 1.433 . S
N873 C904 1.435 . S
N873 C910 1.423 . S
H874 C900 0.930 . S
H875 C903 0.931 . S
H876 C902 0.929 . S
H877 C905 0.930 . S
H878 C906 0.932 . S
H879 C909 0.929 . S
H880 C908 0.931 . S
H881 C911 0.929 . S
H882 C915 0.932 . S
H883 C912 0.931 . S
H884 C914 0.929 . S
H885 C917 0.929 . S
H886 C918 0.930 . S
H887 C920 0.929 . S
H888 C921 0.931 . S
H889 C923 0.930 . S
H890 C924 0.932 . S
H891 C926 0.931 . S
H892 C927 0.929 . S
H893 C929 0.929 . S
H894 C930 0.931 . S
H895 C932 0.929 . S
N896 C916 1.433 . S
N896 C922 1.435 . S
N896 C928 1.423 . S
H897 C933 0.932 . S
C898 N873 1.433 . S
C898 C899 1.363 . S
C898 C903 1.370 . S
C899 H872 0.929 . S
C899 C898 1.363 . S
C899 C900 1.385 . S
C900 H874 0.930 . S
C900 C899 1.385 . S
C900 C901 1.357 . S
C901 C900 1.357 . S
C901 C902 1.406 . S
C902 H876 0.929 . S
C902 C901 1.406 . S
C902 C903 1.391 . S
C903 H875 0.931 . S
C903 C898 1.370 . S
C903 C902 1.391 . S
C904 N873 1.435 . S
C904 C905 1.358 . S
C904 C909 1.371 . S
C905 H877 0.930 . S
C905 C904 1.358 . S
C905 C906 1.405 . S
C906 H878 0.932 . S
C906 C905 1.405 . S
C906 C907 1.383 . S
C907 C906 1.383 . S
C907 C908 1.393 . S
C908 H880 0.931 . S
C908 C907 1.393 . S
C908 C909 1.382 . S
C909 H879 0.929 . S
C909 C904 1.371 . S
C909 C908 1.382 . S
C910 N873 1.423 . S
C910 C911 1.362 . S
C910 C915 1.388 . S
C911 H881 0.929 . S
C911 C910 1.362 . S
C911 C912 1.376 . S
C912 H883 0.931 . S
C912 C911 1.376 . S
C912 C913 1.396 . S
C913 C912 1.396 . S
C913 C914 1.348 . S
C913 C931 1.472 . S
C914 H884 0.929 . S
C914 C913 1.348 . S
C914 C915 1.443 . S
C915 H882 0.932 . S
C915 C910 1.388 . S
C915 C914 1.443 . S
C916 N896 1.433 . S
C916 C917 1.363 . S
C916 C921 1.370 . S
C917 H885 0.929 . S
C917 C916 1.363 . S
C917 C918 1.385 . S
C918 H886 0.930 . S
C918 C917 1.385 . S
C918 C919 1.357 . S
C919 C918 1.357 . S
C919 C920 1.406 . S
C920 H887 0.929 . S
C920 C919 1.406 . S
C920 C921 1.391 . S
C921 H888 0.931 . S
C921 C916 1.370 . S
C921 C920 1.391 . S
C922 N896 1.435 . S
C922 C923 1.358 . S
C922 C927 1.371 . S
C923 H889 0.930 . S
C923 C922 1.358 . S
C923 C924 1.405 . S
C924 H890 0.932 . S
C924 C923 1.405 . S
C924 C925 1.383 . S
C925 C924 1.383 . S
C925 C926 1.393 . S
C926 H891 0.931 . S
C926 C925 1.393 . S
C926 C927 1.382 . S
C927 H892 0.929 . S
C927 C922 1.371 . S
C927 C926 1.382 . S
C928 N896 1.423 . S
C928 C929 1.362 . S
C928 C933 1.388 . S
C929 H893 0.929 . S
C929 C928 1.362 . S
C929 C930 1.376 . S
C930 H894 0.931 . S
C930 C929 1.376 . S
C930 C931 1.396 . S
C931 C913 1.472 . S
C931 C930 1.396 . S
C931 C932 1.348 . S
C932 H895 0.929 . S
C932 C931 1.348 . S
C932 C933 1.443 . S
C933 H897 0.932 . S
C933 C928 1.388 . S
C933 C932 1.443 . S
H934 C961 0.929 . S
N935 C960 1.433 . S
N935 C966 1.435 . S
N935 C972 1.423 . S
H936 C962 0.930 . S
H937 C965 0.931 . S
H938 C964 0.929 . S
H939 C967 0.930 . S
H940 C968 0.932 . S
H941 C971 0.929 . S
H942 C970 0.931 . S
H943 C973 0.929 . S
H944 C977 0.932 1_545 S
H945 C974 0.931 . S
H946 C976 0.929 . S
H947 C979 0.929 . S
H948 C980 0.930 . S
H949 C982 0.929 . S
H950 C983 0.931 . S
H951 C985 0.930 . S
H952 C986 0.932 . S
H953 C988 0.931 . S
H954 C989 0.929 . S
H955 C991 0.929 . S
H956 C992 0.931 . S
H957 C994 0.929 . S
N958 C978 1.433 . S
N958 C984 1.435 . S
N958 C990 1.423 . S
H959 C995 0.932 1_545 S
C960 N935 1.433 . S
C960 C961 1.363 . S
C960 C965 1.370 1_565 S
C961 H934 0.929 . S
C961 C960 1.363 . S
C961 C962 1.385 . S
C962 H936 0.930 . S
C962 C961 1.385 . S
C962 C963 1.357 1_565 S
C963 C962 1.357 1_545 S
C963 C964 1.406 . S
C964 H938 0.929 . S
C964 C963 1.406 . S
C964 C965 1.391 . S
C965 H937 0.931 . S
C965 C960 1.370 1_545 S
C965 C964 1.391 . S
C966 N935 1.435 . S
C966 C967 1.358 1_565 S
C966 C971 1.371 . S
C967 H939 0.930 . S
C967 C966 1.358 1_545 S
C967 C968 1.405 . S
C968 H940 0.932 . S
C968 C967 1.405 . S
C968 C969 1.383 1_545 S
C969 C968 1.383 1_565 S
C969 C970 1.393 . S
C970 H942 0.931 . S
C970 C969 1.393 . S
C970 C971 1.382 . S
C971 H941 0.929 . S
C971 C966 1.371 . S
C971 C970 1.382 . S
C972 N935 1.423 . S
C972 C973 1.362 . S
C972 C977 1.388 . S
C973 H943 0.929 . S
C973 C972 1.362 . S
C973 C974 1.376 . S
C974 H945 0.931 . S
C974 C973 1.376 . S
C974 C975 1.396 . S
C975 C974 1.396 . S
C975 C976 1.348 . S
C975 C993 1.472 . S
C976 H946 0.929 . S
C976 C975 1.348 . S
C976 C977 1.443 . S
C977 H944 0.932 1_565 S
C977 C972 1.388 . S
C977 C976 1.443 . S
C978 N958 1.433 . S
C978 C979 1.363 . S
C978 C983 1.370 1_565 S
C979 H947 0.929 . S
C979 C978 1.363 . S
C979 C980 1.385 . S
C980 H948 0.930 . S
C980 C979 1.385 . S
C980 C981 1.357 1_565 S
C981 C980 1.357 1_545 S
C981 C982 1.406 . S
C982 H949 0.929 . S
C982 C981 1.406 . S
C982 C983 1.391 . S
C983 H950 0.931 . S
C983 C978 1.370 1_545 S
C983 C982 1.391 . S
C984 N958 1.435 . S
C984 C985 1.358 1_565 S
C984 C989 1.371 . S
C985 H951 0.930 . S
C985 C984 1.358 1_545 S
C985 C986 1.405 . S
C986 H952 0.932 . S
C986 C985 1.405 . S
C986 C987 1.383 1_545 S
C987 C986 1.383 1_565 S
C987 C988 1.393 . S
C988 H953 0.931 . S
C988 C987 1.393 . S
C988 C989 1.382 . S
C989 H954 0.929 . S
C989 C984 1.371 . S
C989 C988 1.382 . S
C990 N958 1.423 . S
C990 C991 1.362 . S
C990 C995 1.388 . S
C991 H955 0.929 . S
C991 C990 1.362 . S
C991 C992 1.376 . S
C992 H956 0.931 . S
C992 C991 1.376 . S
C992 C993 1.396 . S
C993 C975 1.472 . S
C993 C992 1.396 . S
C993 C994 1.348 . S
C994 H957 0.929 . S
C994 C993 1.348 . S
C994 C995 1.443 . S
C995 H959 0.932 1_565 S
C995 C990 1.388 . S
C995 C994 1.443 . S
H996 C1023 0.929 . S
N997 C1022 1.433 . S
N997 C1028 1.435 . S
N997 C1034 1.423 . S
H998 C1024 0.930 . S
H999 C1027 0.931 . S
H1000 C1026 0.929 . S
H1001 C1029 0.930 . S
H1002 C1030 0.932 . S
H1003 C1033 0.904 1_565 S
H1004 C1032 0.908 1_565 S
H1005 C1035 0.929 . S
H1006 C1039 0.932 . S
H1007 C1036 0.931 . S
H1008 C1038 0.929 . S
H1009 C1041 0.929 . S
H1010 C1042 0.930 . S
H1011 C1044 0.929 . S
H1012 C1045 0.931 . S
H1013 C1047 0.930 . S
H1014 C1048 0.932 . S
H1015 C1050 0.914 1_565 S
H1016 C1051 0.924 1_565 S
H1017 C1053 0.929 . S
H1018 C1054 0.931 . S
H1019 C1056 0.929 . S
N1020 C1040 1.433 . S
N1020 C1046 1.435 . S
N1020 C1052 1.423 . S
H1021 C1057 0.932 . S
C1022 N997 1.433 . S
C1022 C1023 1.363 1_545 S
C1022 C1027 1.370 . S
C1023 H996 0.929 . S
C1023 C1022 1.363 1_565 S
C1023 C1024 1.385 . S
C1024 H998 0.930 . S
C1024 C1023 1.385 . S
C1024 C1025 1.357 1_565 S
C1025 C1024 1.357 1_545 S
C1025 C1026 1.406 . S
C1026 H1000 0.929 . S
C1026 C1025 1.406 . S
C1026 C1027 1.391 . S
C1027 H999 0.931 . S
C1027 C1022 1.370 . S
C1027 C1026 1.391 . S
C1028 N997 1.435 . S
C1028 C1029 1.358 . S
C1028 C1033 1.383 . S
C1029 H1001 0.930 . S
C1029 C1028 1.358 . S
C1029 C1030 1.405 . S
C1030 H1002 0.932 . S
C1030 C1029 1.405 . S
C1030 C1031 1.383 . S
C1031 C1030 1.383 . S
C1031 C1032 1.393 . S
C1032 H1004 0.908 1_545 S
C1032 C1031 1.393 . S
C1032 C1033 1.396 . S
C1033 H1003 0.904 1_545 S
C1033 C1028 1.383 . S
C1033 C1032 1.396 . S
C1034 N997 1.423 . S
C1034 C1035 1.362 1_545 S
C1034 C1039 1.388 . S
C1035 H1005 0.929 . S
C1035 C1034 1.362 1_565 S
C1035 C1036 1.376 . S
C1036 H1007 0.931 . S
C1036 C1035 1.376 . S
C1036 C1037 1.401 . S
C1037 C1036 1.401 . S
C1037 C1038 1.334 1_565 S
C1037 C1055 1.472 . S
C1038 H1008 0.929 . S
C1038 C1037 1.334 1_545 S
C1038 C1039 1.443 . S
C1039 H1006 0.932 . S
C1039 C1034 1.388 . S
C1039 C1038 1.443 . S
C1040 N1020 1.433 . S
C1040 C1041 1.363 1_545 S
C1040 C1045 1.370 . S
C1041 H1009 0.929 . S
C1041 C1040 1.363 1_565 S
C1041 C1042 1.385 . S
C1042 H1010 0.930 . S
C1042 C1041 1.385 . S
C1042 C1043 1.357 1_565 S
C1043 C1042 1.357 1_545 S
C1043 C1044 1.406 . S
C1044 H1011 0.929 . S
C1044 C1043 1.406 . S
C1044 C1045 1.391 . S
C1045 H1012 0.931 . S
C1045 C1040 1.370 . S
C1045 C1044 1.391 . S
C1046 N1020 1.435 . S
C1046 C1047 1.358 . S
C1046 C1051 1.379 . S
C1047 H1013 0.930 . S
C1047 C1046 1.358 . S
C1047 C1048 1.405 . S
C1048 H1014 0.932 . S
C1048 C1047 1.405 . S
C1048 C1049 1.383 . S
C1049 C1048 1.383 . S
C1049 C1050 1.393 . S
C1050 H1015 0.914 1_545 S
C1050 C1049 1.393 . S
C1050 C1051 1.380 . S
C1051 H1016 0.924 1_545 S
C1051 C1046 1.379 . S
C1051 C1050 1.380 . S
C1052 N1020 1.423 . S
C1052 C1053 1.362 1_545 S
C1052 C1057 1.388 . S
C1053 H1017 0.929 . S
C1053 C1052 1.362 1_565 S
C1053 C1054 1.376 . S
C1054 H1018 0.931 . S
C1054 C1053 1.376 . S
C1054 C1055 1.410 . S
C1055 C1037 1.472 . S
C1055 C1054 1.410 . S
C1055 C1056 1.343 1_565 S
C1056 H1019 0.929 . S
C1056 C1055 1.343 1_545 S
C1056 C1057 1.443 . S
C1057 H1021 0.932 . S
C1057 C1052 1.388 . S
C1057 C1056 1.443 . S
H1058 C1085 0.929 . S
N1059 C1084 1.433 . S
N1059 C1090 1.435 . S
N1059 C1096 1.423 . S
H1060 C1086 0.930 . S
H1061 C1089 0.931 . S
H1062 C1088 0.929 . S
H1063 C1091 0.930 . S
H1064 C1092 0.932 . S
H1065 C1095 0.929 . S
H1066 C1094 0.931 . S
H1067 C1097 0.929 . S
H1068 C1101 0.932 1_455 S
H1069 C1098 0.931 . S
H1070 C1100 0.929 . S
H1071 C1103 0.929 . S
H1072 C1104 0.930 . S
H1073 C1106 0.929 . S
H1074 C1107 0.931 . S
H1075 C1109 0.930 . S
H1076 C1110 0.932 . S
H1077 C1112 0.931 . S
H1078 C1113 0.929 . S
H1079 C1115 0.929 . S
H1080 C1116 0.931 . S
H1081 C1118 0.929 . S
N1082 C1102 1.433 . S
N1082 C1108 1.435 . S
N1082 C1114 1.423 . S
H1083 C1119 0.932 1_455 S
C1084 N1059 1.433 . S
C1084 C1085 1.363 . S
C1084 C1089 1.370 1_655 S
C1085 H1058 0.929 . S
C1085 C1084 1.363 . S
C1085 C1086 1.385 . S
C1086 H1060 0.930 . S
C1086 C1085 1.385 . S
C1086 C1087 1.357 1_655 S
C1087 C1086 1.357 1_455 S
C1087 C1088 1.406 . S
C1088 H1062 0.929 . S
C1088 C1087 1.406 . S
C1088 C1089 1.391 . S
C1089 H1061 0.931 . S
C1089 C1084 1.370 1_455 S
C1089 C1088 1.391 . S
C1090 N1059 1.435 . S
C1090 C1091 1.358 1_655 S
C1090 C1095 1.371 . S
C1091 H1063 0.930 . S
C1091 C1090 1.358 1_455 S
C1091 C1092 1.405 . S
C1092 H1064 0.932 . S
C1092 C1091 1.405 . S
C1092 C1093 1.383 1_455 S
C1093 C1092 1.383 1_655 S
C1093 C1094 1.393 . S
C1094 H1066 0.931 . S
C1094 C1093 1.393 . S
C1094 C1095 1.382 . S
C1095 H1065 0.929 . S
C1095 C1090 1.371 . S
C1095 C1094 1.382 . S
C1096 N1059 1.423 . S
C1096 C1097 1.362 . S
C1096 C1101 1.388 . S
C1097 H1067 0.929 . S
C1097 C1096 1.362 . S
C1097 C1098 1.376 . S
C1098 H1069 0.931 . S
C1098 C1097 1.376 . S
C1098 C1099 1.396 . S
C1099 C1098 1.396 . S
C1099 C1100 1.348 . S
C1099 C1117 1.472 . S
C1100 H1070 0.929 . S
C1100 C1099 1.348 . S
C1100 C1101 1.443 . S
C1101 H1068 0.932 1_655 S
C1101 C1096 1.388 . S
C1101 C1100 1.443 . S
C1102 N1082 1.433 . S
C1102 C1103 1.363 . S
C1102 C1107 1.370 1_655 S
C1103 H1071 0.929 . S
C1103 C1102 1.363 . S
C1103 C1104 1.385 . S
C1104 H1072 0.930 . S
C1104 C1103 1.385 . S
C1104 C1105 1.357 1_655 S
C1105 C1104 1.357 1_455 S
C1105 C1106 1.406 . S
C1106 H1073 0.929 . S
C1106 C1105 1.406 . S
C1106 C1107 1.391 . S
C1107 H1074 0.931 . S
C1107 C1102 1.370 1_455 S
C1107 C1106 1.391 . S
C1108 N1082 1.435 . S
C1108 C1109 1.358 1_655 S
C1108 C1113 1.371 . S
C1109 H1075 0.930 . S
C1109 C1108 1.358 1_455 S
C1109 C1110 1.405 . S
C1110 H1076 0.932 . S
C1110 C1109 1.405 . S
C1110 C1111 1.383 1_455 S
C1111 C1110 1.383 1_655 S
C1111 C1112 1.393 . S
C1112 H1077 0.931 . S
C1112 C1111 1.393 . S
C1112 C1113 1.382 . S
C1113 H1078 0.929 . S
C1113 C1108 1.371 . S
C1113 C1112 1.382 . S
C1114 N1082 1.423 . S
C1114 C1115 1.362 . S
C1114 C1119 1.388 . S
C1115 H1079 0.929 . S
C1115 C1114 1.362 . S
C1115 C1116 1.376 . S
C1116 H1080 0.931 . S
C1116 C1115 1.376 . S
C1116 C1117 1.396 . S
C1117 C1099 1.472 . S
C1117 C1116 1.396 . S
C1117 C1118 1.348 . S
C1118 H1081 0.929 . S
C1118 C1117 1.348 . S
C1118 C1119 1.443 . S
C1119 H1083 0.932 1_655 S
C1119 C1114 1.388 . S
C1119 C1118 1.443 . S
H1120 C1147 0.929 . S
N1121 C1146 1.433 . S
N1121 C1152 1.435 . S
N1121 C1158 1.423 . S
H1122 C1148 0.930 . S
H1123 C1151 0.931 . S
H1124 C1150 0.929 . S
H1125 C1153 0.930 . S
H1126 C1154 0.932 . S
H1127 C1157 0.929 . S
H1128 C1156 0.931 . S
H1129 C1159 0.929 . S
H1130 C1163 0.932 . S
H1131 C1160 0.931 . S
H1132 C1162 0.929 . S
H1133 C1165 0.929 . S
H1134 C1166 0.930 . S
H1135 C1168 0.929 . S
H1136 C1169 0.931 . S
H1137 C1171 0.930 . S
H1138 C1172 0.932 . S
H1139 C1174 0.931 . S
H1140 C1175 0.929 . S
H1141 C1177 0.929 . S
H1142 C1178 0.931 . S
H1143 C1180 0.929 . S
N1144 C1164 1.433 . S
N1144 C1170 1.435 . S
N1144 C1176 1.423 . S
H1145 C1181 0.932 . S
C1146 N1121 1.433 . S
C1146 C1147 1.363 . S
C1146 C1151 1.370 . S
C1147 H1120 0.929 . S
C1147 C1146 1.363 . S
C1147 C1148 1.385 . S
C1148 H1122 0.930 . S
C1148 C1147 1.385 . S
C1148 C1149 1.357 . S
C1149 C1148 1.357 . S
C1149 C1150 1.406 . S
C1150 H1124 0.929 . S
C1150 C1149 1.406 . S
C1150 C1151 1.391 . S
C1151 H1123 0.931 . S
C1151 C1146 1.370 . S
C1151 C1150 1.391 . S
C1152 N1121 1.435 . S
C1152 C1153 1.358 . S
C1152 C1157 1.371 . S
C1153 H1125 0.930 . S
C1153 C1152 1.358 . S
C1153 C1154 1.405 . S
C1154 H1126 0.932 . S
C1154 C1153 1.405 . S
C1154 C1155 1.383 . S
C1155 C1154 1.383 . S
C1155 C1156 1.393 . S
C1156 H1128 0.931 . S
C1156 C1155 1.393 . S
C1156 C1157 1.382 . S
C1157 H1127 0.929 . S
C1157 C1152 1.371 . S
C1157 C1156 1.382 . S
C1158 N1121 1.423 . S
C1158 C1159 1.362 . S
C1158 C1163 1.388 . S
C1159 H1129 0.929 . S
C1159 C1158 1.362 . S
C1159 C1160 1.376 . S
C1160 H1131 0.931 . S
C1160 C1159 1.376 . S
C1160 C1161 1.396 . S
C1161 C1160 1.396 . S
C1161 C1162 1.348 . S
C1161 C1179 1.472 . S
C1162 H1132 0.929 . S
C1162 C1161 1.348 . S
C1162 C1163 1.443 . S
C1163 H1130 0.932 . S
C1163 C1158 1.388 . S
C1163 C1162 1.443 . S
C1164 N1144 1.433 . S
C1164 C1165 1.363 . S
C1164 C1169 1.370 . S
C1165 H1133 0.929 . S
C1165 C1164 1.363 . S
C1165 C1166 1.385 . S
C1166 H1134 0.930 . S
C1166 C1165 1.385 . S
C1166 C1167 1.357 . S
C1167 C1166 1.357 . S
C1167 C1168 1.406 . S
C1168 H1135 0.929 . S
C1168 C1167 1.406 . S
C1168 C1169 1.391 . S
C1169 H1136 0.931 . S
C1169 C1164 1.370 . S
C1169 C1168 1.391 . S
C1170 N1144 1.435 . S
C1170 C1171 1.358 . S
C1170 C1175 1.371 . S
C1171 H1137 0.930 . S
C1171 C1170 1.358 . S
C1171 C1172 1.405 . S
C1172 H1138 0.932 . S
C1172 C1171 1.405 . S
C1172 C1173 1.383 . S
C1173 C1172 1.383 . S
C1173 C1174 1.393 . S
C1174 H1139 0.931 . S
C1174 C1173 1.393 . S
C1174 C1175 1.382 . S
C1175 H1140 0.929 . S
C1175 C1170 1.371 . S
C1175 C1174 1.382 . S
C1176 N1144 1.423 . S
C1176 C1177 1.362 . S
C1176 C1181 1.388 . S
C1177 H1141 0.929 . S
C1177 C1176 1.362 . S
C1177 C1178 1.376 . S
C1178 H1142 0.931 . S
C1178 C1177 1.376 . S
C1178 C1179 1.396 . S
C1179 C1161 1.472 . S
C1179 C1178 1.396 . S
C1179 C1180 1.348 . S
C1180 H1143 0.929 . S
C1180 C1179 1.348 . S
C1180 C1181 1.443 . S
C1181 H1145 0.932 . S
C1181 C1176 1.388 . S
C1181 C1180 1.443 . S
H1182 C1209 0.929 . S
N1183 C1208 1.433 . S
N1183 C1214 1.435 . S
N1183 C1220 1.423 . S
H1184 C1210 0.930 . S
H1185 C1213 0.931 . S
H1186 C1212 0.929 . S
H1187 C1215 0.930 . S
H1188 C1216 0.932 . S
H1189 C1219 0.929 . S
H1190 C1218 0.931 . S
H1191 C1221 0.929 . S
H1192 C1225 0.932 . S
H1193 C1222 0.931 . S
H1194 C1224 0.929 . S
H1195 C1227 0.929 . S
H1196 C1228 0.930 . S
H1197 C1230 0.929 . S
H1198 C1231 0.931 . S
H1199 C1233 0.930 . S
H1200 C1234 0.932 . S
H1201 C1236 0.931 . S
H1202 C1237 0.929 . S
H1203 C1239 0.929 . S
H1204 C1240 0.931 . S
H1205 C1242 0.929 . S
N1206 C1226 1.433 . S
N1206 C1232 1.435 . S
N1206 C1238 1.423 . S
H1207 C1243 0.932 . S
C1208 N1183 1.433 . S
C1208 C1209 1.363 . S
C1208 C1213 1.370 . S
C1209 H1182 0.929 . S
C1209 C1208 1.363 . S
C1209 C1210 1.385 . S
C1210 H1184 0.930 . S
C1210 C1209 1.385 . S
C1210 C1211 1.357 . S
C1211 C1210 1.357 . S
C1211 C1212 1.406 . S
C1212 H1186 0.929 . S
C1212 C1211 1.406 . S
C1212 C1213 1.391 . S
C1213 H1185 0.931 . S
C1213 C1208 1.370 . S
C1213 C1212 1.391 . S
C1214 N1183 1.435 . S
C1214 C1215 1.358 . S
C1214 C1219 1.371 . S
C1215 H1187 0.930 . S
C1215 C1214 1.358 . S
C1215 C1216 1.405 . S
C1216 H1188 0.932 . S
C1216 C1215 1.405 . S
C1216 C1217 1.383 . S
C1217 C1216 1.383 . S
C1217 C1218 1.393 . S
C1218 H1190 0.931 . S
C1218 C1217 1.393 . S
C1218 C1219 1.382 . S
C1219 H1189 0.929 . S
C1219 C1214 1.371 . S
C1219 C1218 1.382 . S
C1220 N1183 1.423 . S
C1220 C1221 1.362 . S
C1220 C1225 1.388 . S
C1221 H1191 0.929 . S
C1221 C1220 1.362 . S
C1221 C1222 1.376 . S
C1222 H1193 0.931 . S
C1222 C1221 1.376 . S
C1222 C1223 1.396 . S
C1223 C1222 1.396 . S
C1223 C1224 1.348 . S
C1223 C1241 1.472 . S
C1224 H1194 0.929 . S
C1224 C1223 1.348 . S
C1224 C1225 1.443 . S
C1225 H1192 0.932 . S
C1225 C1220 1.388 . S
C1225 C1224 1.443 . S
C1226 N1206 1.433 . S
C1226 C1227 1.363 . S
C1226 C1231 1.370 . S
C1227 H1195 0.929 . S
C1227 C1226 1.363 . S
C1227 C1228 1.385 . S
C1228 H1196 0.930 . S
C1228 C1227 1.385 . S
C1228 C1229 1.357 . S
C1229 C1228 1.357 . S
C1229 C1230 1.406 . S
C1230 H1197 0.929 . S
C1230 C1229 1.406 . S
C1230 C1231 1.391 . S
C1231 H1198 0.931 . S
C1231 C1226 1.370 . S
C1231 C1230 1.391 . S
C1232 N1206 1.435 . S
C1232 C1233 1.358 . S
C1232 C1237 1.371 . S
C1233 H1199 0.930 . S
C1233 C1232 1.358 . S
C1233 C1234 1.405 . S
C1234 H1200 0.932 . S
C1234 C1233 1.405 . S
C1234 C1235 1.383 . S
C1235 C1234 1.383 . S
C1235 C1236 1.393 . S
C1236 H1201 0.931 . S
C1236 C1235 1.393 . S
C1236 C1237 1.382 . S
C1237 H1202 0.929 . S
C1237 C1232 1.371 . S
C1237 C1236 1.382 . S
C1238 N1206 1.423 . S
C1238 C1239 1.362 . S
C1238 C1243 1.388 . S
C1239 H1203 0.929 . S
C1239 C1238 1.362 . S
C1239 C1240 1.376 . S
C1240 H1204 0.931 . S
C1240 C1239 1.376 . S
C1240 C1241 1.396 . S
C1241 C1223 1.472 . S
C1241 C1240 1.396 . S
C1241 C1242 1.348 . S
C1242 H1205 0.929 . S
C1242 C1241 1.348 . S
C1242 C1243 1.443 . S
C1243 H1207 0.932 . S
C1243 C1238 1.388 . S
C1243 C1242 1.443 . S
H1244 C1271 0.929 . S
N1245 C1270 1.433 . S
N1245 C1276 1.435 . S
N1245 C1282 1.423 . S
H1246 C1272 0.930 . S
H1247 C1275 0.931 . S
H1248 C1274 0.929 . S
H1249 C1277 0.930 . S
H1250 C1278 0.932 . S
H1251 C1281 0.929 . S
H1252 C1280 0.931 . S
H1253 C1283 0.929 . S
H1254 C1287 0.932 . S
H1255 C1284 0.931 . S
H1256 C1286 0.929 . S
H1257 C1289 0.929 . S
H1258 C1290 0.930 . S
H1259 C1292 0.929 . S
H1260 C1293 0.931 . S
H1261 C1295 0.930 . S
H1262 C1296 0.932 . S
H1263 C1298 0.931 . S
H1264 C1299 0.929 . S
H1265 C1301 0.929 . S
H1266 C1302 0.931 . S
H1267 C1304 0.929 . S
N1268 C1288 1.433 . S
N1268 C1294 1.435 . S
N1268 C1300 1.423 . S
H1269 C1305 0.932 . S
C1270 N1245 1.433 . S
C1270 C1271 1.363 . S
C1270 C1275 1.370 . S
C1271 H1244 0.929 . S
C1271 C1270 1.363 . S
C1271 C1272 1.385 . S
C1272 H1246 0.930 . S
C1272 C1271 1.385 . S
C1272 C1273 1.357 . S
C1273 C1272 1.357 . S
C1273 C1274 1.406 . S
C1274 H1248 0.929 . S
C1274 C1273 1.406 . S
C1274 C1275 1.391 . S
C1275 H1247 0.931 . S
C1275 C1270 1.370 . S
C1275 C1274 1.391 . S
C1276 N1245 1.435 . S
C1276 C1277 1.358 . S
C1276 C1281 1.371 . S
C1277 H1249 0.930 . S
C1277 C1276 1.358 . S
C1277 C1278 1.405 . S
C1278 H1250 0.932 . S
C1278 C1277 1.405 . S
C1278 C1279 1.383 . S
C1279 C1278 1.383 . S
C1279 C1280 1.393 . S
C1280 H1252 0.931 . S
C1280 C1279 1.393 . S
C1280 C1281 1.382 . S
C1281 H1251 0.929 . S
C1281 C1276 1.371 . S
C1281 C1280 1.382 . S
C1282 N1245 1.423 . S
C1282 C1283 1.362 . S
C1282 C1287 1.388 . S
C1283 H1253 0.929 . S
C1283 C1282 1.362 . S
C1283 C1284 1.376 . S
C1284 H1255 0.931 . S
C1284 C1283 1.376 . S
C1284 C1285 1.396 . S
C1285 C1284 1.396 . S
C1285 C1286 1.348 . S
C1285 C1303 1.472 . S
C1286 H1256 0.929 . S
C1286 C1285 1.348 . S
C1286 C1287 1.443 . S
C1287 H1254 0.932 . S
C1287 C1282 1.388 . S
C1287 C1286 1.443 . S
C1288 N1268 1.433 . S
C1288 C1289 1.363 . S
C1288 C1293 1.370 . S
C1289 H1257 0.929 . S
C1289 C1288 1.363 . S
C1289 C1290 1.385 . S
C1290 H1258 0.930 . S
C1290 C1289 1.385 . S
C1290 C1291 1.357 . S
C1291 C1290 1.357 . S
C1291 C1292 1.406 . S
C1292 H1259 0.929 . S
C1292 C1291 1.406 . S
C1292 C1293 1.391 . S
C1293 H1260 0.931 . S
C1293 C1288 1.370 . S
C1293 C1292 1.391 . S
C1294 N1268 1.435 . S
C1294 C1295 1.358 . S
C1294 C1299 1.371 . S
C1295 H1261 0.930 . S
C1295 C1294 1.358 . S
C1295 C1296 1.405 . S
C1296 H1262 0.932 . S
C1296 C1295 1.405 . S
C1296 C1297 1.383 . S
C1297 C1296 1.383 . S
C1297 C1298 1.393 . S
C1298 H1263 0.931 . S
C1298 C1297 1.393 . S
C1298 C1299 1.382 . S
C1299 H1264 0.929 . S
C1299 C1294 1.371 . S
C1299 C1298 1.382 . S
C1300 N1268 1.423 . S
C1300 C1301 1.362 . S
C1300 C1305 1.388 . S
C1301 H1265 0.929 . S
C1301 C1300 1.362 . S
C1301 C1302 1.376 . S
C1302 H1266 0.931 . S
C1302 C1301 1.376 . S
C1302 C1303 1.396 . S
C1303 C1285 1.472 . S
C1303 C1302 1.396 . S
C1303 C1304 1.348 . S
C1304 H1267 0.929 . S
C1304 C1303 1.348 . S
C1304 C1305 1.443 . S
C1305 H1269 0.932 . S
C1305 C1300 1.388 . S
C1305 C1304 1.443 . S
H1306 C1333 0.929 . S
N1307 C1332 1.433 . S
N1307 C1338 1.435 . S
N1307 C1344 1.423 . S
H1308 C1334 0.930 . S
H1309 C1337 0.931 . S
H1310 C1336 0.929 . S
H1311 C1339 0.930 . S
H1312 C1340 0.932 . S
H1313 C1343 0.929 . S
H1314 C1342 0.931 . S
H1315 C1345 0.929 . S
H1316 C1349 0.932 . S
H1317 C1346 0.931 . S
H1318 C1348 0.929 . S
H1319 C1351 0.929 . S
H1320 C1352 0.930 . S
H1321 C1354 0.929 . S
H1322 C1355 0.931 . S
H1323 C1357 0.930 . S
H1324 C1358 0.932 . S
H1325 C1360 0.931 . S
H1326 C1361 0.929 . S
H1327 C1363 0.929 . S
H1328 C1364 0.931 . S
H1329 C1366 0.929 . S
N1330 C1350 1.433 . S
N1330 C1356 1.435 . S
N1330 C1362 1.423 . S
H1331 C1367 0.932 . S
C1332 N1307 1.433 . S
C1332 C1333 1.363 . S
C1332 C1337 1.370 . S
C1333 H1306 0.929 . S
C1333 C1332 1.363 . S
C1333 C1334 1.385 . S
C1334 H1308 0.930 . S
C1334 C1333 1.385 . S
C1334 C1335 1.357 . S
C1335 C1334 1.357 . S
C1335 C1336 1.406 . S
C1336 H1310 0.929 . S
C1336 C1335 1.406 . S
C1336 C1337 1.391 . S
C1337 H1309 0.931 . S
C1337 C1332 1.370 . S
C1337 C1336 1.391 . S
C1338 N1307 1.435 . S
C1338 C1339 1.358 . S
C1338 C1343 1.371 . S
C1339 H1311 0.930 . S
C1339 C1338 1.358 . S
C1339 C1340 1.405 . S
C1340 H1312 0.932 . S
C1340 C1339 1.405 . S
C1340 C1341 1.383 . S
C1341 C1340 1.383 . S
C1341 C1342 1.393 . S
C1342 H1314 0.931 . S
C1342 C1341 1.393 . S
C1342 C1343 1.382 . S
C1343 H1313 0.929 . S
C1343 C1338 1.371 . S
C1343 C1342 1.382 . S
C1344 N1307 1.423 . S
C1344 C1345 1.362 . S
C1344 C1349 1.388 . S
C1345 H1315 0.929 . S
C1345 C1344 1.362 . S
C1345 C1346 1.376 . S
C1346 H1317 0.931 . S
C1346 C1345 1.376 . S
C1346 C1347 1.396 . S
C1347 C1346 1.396 . S
C1347 C1348 1.348 . S
C1347 C1365 1.472 . S
C1348 H1318 0.929 . S
C1348 C1347 1.348 . S
C1348 C1349 1.443 . S
C1349 H1316 0.932 . S
C1349 C1344 1.388 . S
C1349 C1348 1.443 . S
C1350 N1330 1.433 . S
C1350 C1351 1.363 . S
C1350 C1355 1.370 . S
C1351 H1319 0.929 . S
C1351 C1350 1.363 . S
C1351 C1352 1.385 . S
C1352 H1320 0.930 . S
C1352 C1351 1.385 . S
C1352 C1353 1.357 . S
C1353 C1352 1.357 . S
C1353 C1354 1.406 . S
C1354 H1321 0.929 . S
C1354 C1353 1.406 . S
C1354 C1355 1.391 . S
C1355 H1322 0.931 . S
C1355 C1350 1.370 . S
C1355 C1354 1.391 . S
C1356 N1330 1.435 . S
C1356 C1357 1.358 . S
C1356 C1361 1.371 . S
C1357 H1323 0.930 . S
C1357 C1356 1.358 . S
C1357 C1358 1.405 . S
C1358 H1324 0.932 . S
C1358 C1357 1.405 . S
C1358 C1359 1.383 . S
C1359 C1358 1.383 . S
C1359 C1360 1.393 . S
C1360 H1325 0.931 . S
C1360 C1359 1.393 . S
C1360 C1361 1.382 . S
C1361 H1326 0.929 . S
C1361 C1356 1.371 . S
C1361 C1360 1.382 . S
C1362 N1330 1.423 . S
C1362 C1363 1.362 . S
C1362 C1367 1.388 . S
C1363 H1327 0.929 . S
C1363 C1362 1.362 . S
C1363 C1364 1.376 . S
C1364 H1328 0.931 . S
C1364 C1363 1.376 . S
C1364 C1365 1.396 . S
C1365 C1347 1.472 . S
C1365 C1364 1.396 . S
C1365 C1366 1.348 . S
C1366 H1329 0.929 . S
C1366 C1365 1.348 . S
C1366 C1367 1.443 . S
C1367 H1331 0.932 . S
C1367 C1362 1.388 . S
C1367 C1366 1.443 . S
C8 C857 1.711 . S
C22 C901 1.805 . S
C981 C37 1.711 . S
C36 C1025 1.806 . S
C9 C1105 1.712 . S
C23 C1167 1.712 . S
C50 C1087 1.729 . S
C1149 C64 1.712 . S
C1043 C79 1.805 . S
C78 C963 1.727 . S
C839 C51 1.711 . S
C65 C919 1.805 . S
C92 C1229 1.712 . S
C106 C1273 1.806 . S
C1353 C121 1.711 . S
C120 C299 1.711 . S
C93 C343 1.806 . S
C107 C423 1.712 . S
C134 C361 1.806 . S
C148 C405 1.712 . S
C281 C163 1.712 . S
C1335 C162 1.711 . S
C1211 C135 1.711 . S
C1291 C149 1.804 . S
C176 C485 1.711 . S
C190 C547 1.711 . S
C205 C591 1.805 . S
C204 C653 1.806 . S
C715 C177 1.806 . S
C795 C191 1.711 . S
C733 C218 1.806 . S
C777 C232 1.711 . S
C247 C671 1.806 . S
C609 C246 1.804 . S
C219 C467 1.711 . S
C529 C233 1.711 . S
C305 C6 1.438 . S
C20 C349 1.483 . S
C429 C35 1.437 . S
C491 C34 1.437 . S
C553 C7 1.436 . S
C597 C21 1.482 . S
C48 C615 1.482 . S
C62 C473 1.436 . S
C77 C535 1.436 . S
C76 C367 1.483 . S
C411 C49 1.437 . S
C63 C287 1.437 . S
C659 C90 1.483 . S
C104 C721 1.484 . S
C119 C801 1.437 . S
C863 C118 1.437 . S
C91 C907 1.482 . S
C105 C987 1.436 . S
C132 C969 1.437 . S
C146 C845 1.437 . S
C925 C161 1.483 . S
C160 C739 1.483 . S
C133 C783 1.437 . S
C677 C147 1.483 . S
C1031 C174 1.483 . S
C188 C1111 1.437 . S
C203 C1173 1.438 . S
C1235 C202 1.437 . S
C1279 C175 1.482 . S
C189 C1359 1.436 . S
C216 C1341 1.437 . S
C230 C1217 1.436 . S
C1297 C245 1.483 . S
C1093 C244 1.437 . S
C1155 C217 1.437 . S
C231 C1049 1.483 . S
