# Generated by pormake.
# Topology rtl, (3,6)-cn, num edge types: 1
# Building blocks:
#     Node 0, Type 0, BuildingBlock: CUQRIR_clean_linker_1, # of connection points: 3
#     Node 1, Type 0, BuildingBlock: CUQRIR_clean_linker_1, # of connection points: 3
#     Node 2, Type 0, BuildingBlock: CUQRIR_clean_linker_1, # of connection points: 3
#     Node 3, Type 0, BuildingBlock: CUQRIR_clean_linker_1, # of connection points: 3
#     Node 4, Type 1, BuildingBlock: FUNLAD_clean_sbu_0, # of connection points: 6
#     Node 5, Type 1, BuildingBlock: FUNLAD_clean_sbu_0, # of connection points: 6
#     Edge 6, Type (0, 1), BuildingBlock: UVAHIK_clean_linker_0, # of connection points: 2
#     Edge 7, Type (0, 1), BuildingBlock: UVAHIK_clean_linker_0, # of connection points: 2
#     Edge 8, Type (0, 1), BuildingBlock: UVAHIK_clean_linker_0, # of connection points: 2
#     Edge 9, Type (0, 1), BuildingBlock: UVAHIK_clean_linker_0, # of connection points: 2
#     Edge 10, Type (0, 1), BuildingBlock: UVAHIK_clean_linker_0, # of connection points: 2
#     Edge 11, Type (0, 1), BuildingBlock: UVAHIK_clean_linker_0, # of connection points: 2
#     Edge 12, Type (0, 1), BuildingBlock: UVAHIK_clean_linker_0, # of connection points: 2
#     Edge 13, Type (0, 1), BuildingBlock: UVAHIK_clean_linker_0, # of connection points: 2
#     Edge 14, Type (0, 1), BuildingBlock: UVAHIK_clean_linker_0, # of connection points: 2
#     Edge 15, Type (0, 1), BuildingBlock: UVAHIK_clean_linker_0, # of connection points: 2
#     Edge 16, Type (0, 1), BuildingBlock: UVAHIK_clean_linker_0, # of connection points: 2
#     Edge 17, Type (0, 1), BuildingBlock: UVAHIK_clean_linker_0, # of connection points: 2
# Relax obj value: 0.003
# Max RMSD: 0.054
# Mean RMSD: 0.042
data_MOF--net-rtl--node1-FUNLAD_clean_sbu_0--node2-CUQRIR_clean_linker_1--edge1-UVAHIK_clean_linker_0
_symmetry_space_group_name_H-M    P1
_symmetry_Int_Tables_number       1
_symmetry_cell_setting            triclinic
loop_
_symmetry_equiv_pos_as_xyz
'x, y, z'
_cell_length_a     48.770111
_cell_length_b     48.722224
_cell_length_c     25.537509
_cell_angle_alpha  90.017716
_cell_angle_beta   91.01326
_cell_angle_gamma 90.029039
loop_
_atom_site_label
_atom_site_type_symbol
_atom_site_fract_x
_atom_site_fract_y
_atom_site_fract_z
_atom_type_partial_charge
C0 C 0.19779 0.81171 0.97557 0.0
N1 N 0.17801 0.82909 0.9917 0.0
N2 N 0.20794 0.79693 0.01648 0.0
C3 C 0.20551 0.80748 0.91935 0.0
C4 C 0.19347 0.80586 0.05796 0.0
N5 N 0.17512 0.82523 0.04277 0.0
C6 C 0.19854 0.79705 0.11375 0.0
H7 H 0.21295 0.78627 0.91277 0.0
H8 H 0.22216 0.82202 0.90956 0.0
H9 H 0.1878 0.81152 0.8926 0.0
H10 H 0.21997 0.78993 0.11976 0.0
H11 H 0.18448 0.77989 0.123 0.0
H12 H 0.19443 0.81416 0.14121 0.0
C13 C 0.68187 0.69958 0.55539 0.0
N14 N 0.66478 0.67931 0.53902 0.0
N15 N 0.6967 0.70915 0.51492 0.0
C16 C 0.6843 0.70961 0.61099 0.0
C17 C 0.68819 0.69381 0.47349 0.0
N18 N 0.66897 0.6755 0.48832 0.0
C19 C 0.69895 0.69625 0.41884 0.0
H20 H 0.66538 0.72094 0.62097 0.0
H21 H 0.70207 0.72349 0.61709 0.0
H22 H 0.6861 0.69185 0.63805 0.0
H23 H 0.71393 0.67953 0.41228 0.0
H24 H 0.70941 0.71612 0.4124 0.0
H25 H 0.68197 0.69385 0.38968 0.0
C26 C 0.80289 0.18982 0.04614 0.0
N27 N 0.82104 0.17052 0.03102 0.0
N28 N 0.78821 0.19925 0.00437 0.0
C29 C 0.79821 0.19806 0.10206 0.0
C30 C 0.798 0.18482 0.96335 0.0
N31 N 0.8178 0.16718 0.97969 0.0
C32 C 0.78987 0.1896 0.90698 0.0
H33 H 0.80244 0.18066 0.12903 0.0
H34 H 0.77684 0.20519 0.10743 0.0
H35 H 0.8124 0.21507 0.11261 0.0
H36 H 0.78239 0.21088 0.90088 0.0
H37 H 0.77312 0.17517 0.896 0.0
H38 H 0.80738 0.18578 0.88082 0.0
C39 C 0.30485 0.30263 0.461 0.0
N40 N 0.32462 0.32049 0.47664 0.0
N41 N 0.2964 0.28739 0.50201 0.0
C42 C 0.29359 0.30044 0.40594 0.0
C43 C 0.31186 0.29649 0.54303 0.0
N44 N 0.32922 0.31642 0.52743 0.0
C45 C 0.30984 0.28631 0.59844 0.0
H46 H 0.27882 0.31741 0.39894 0.0
H47 H 0.28275 0.28075 0.39906 0.0
H48 H 0.31035 0.3026 0.3774 0.0
H49 H 0.32882 0.27494 0.60908 0.0
H50 H 0.29209 0.27245 0.60374 0.0
H51 H 0.30827 0.30402 0.62559 0.0
C52 C 0.02532 0.96881 0.43542 0.0
N53 N 0.04339 0.043 0.51194 0.0
C54 C 0.07017 0.03518 0.51283 0.0
C55 C 0.09099 0.05484 0.51238 0.0
C56 C 0.08424 0.08287 0.51074 0.0
C57 C 0.0564 0.09033 0.50997 0.0
C58 C 0.03623 0.06998 0.51068 0.0
Zn59 Zn 0.01352 0.01359 0.51172 0.0
C60 C 0.96944 0.02536 0.43297 0.0
N61 N 0.95144 0.95183 0.51053 0.0
C62 C 0.95843 0.92481 0.51085 0.0
C63 C 0.92471 0.95981 0.51025 0.0
C64 C 0.90377 0.94029 0.5105 0.0
C65 C 0.91033 0.9122 0.51077 0.0
C66 C 0.93813 0.90457 0.51087 0.0
Zn67 Zn 0.98138 0.98118 0.51087 0.0
O68 O 0.03426 0.99175 0.45226 0.0
C69 C 0.02556 0.96953 0.58968 0.0
O70 O 0.00346 0.95895 0.45417 0.0
H71 H 0.91959 0.98141 0.51006 0.0
H72 H 0.07541 0.01363 0.51387 0.0
H73 H 0.97981 0.91891 0.51103 0.0
O74 O 0.03528 0.99144 0.57038 0.0
O75 O 0.00277 0.96033 0.57223 0.0
H76 H 0.01481 0.07574 0.5099 0.0
O77 O 0.95978 0.00387 0.56762 0.0
O78 O 0.9923 0.03497 0.57118 0.0
O79 O 0.96046 0.00251 0.44952 0.0
O80 O 0.99129 0.03529 0.45311 0.0
C81 C 0.96949 0.02588 0.58718 0.0
H82 H 0.11215 0.04812 0.51381 0.0
H83 H 0.0502 0.11165 0.50801 0.0
H84 H 0.88267 0.94717 0.51121 0.0
H85 H 0.94417 0.8832 0.51036 0.0
C86 C 0.46938 0.46916 0.93008 0.0
N87 N 0.54309 0.45164 0.00926 0.0
C88 C 0.53528 0.42487 0.01157 0.0
C89 C 0.55489 0.40401 0.01127 0.0
C90 C 0.58285 0.41071 0.00827 0.0
C91 C 0.59029 0.43856 0.00603 0.0
C92 C 0.57 0.45877 0.00669 0.0
Zn93 Zn 0.51368 0.4815 0.00867 0.0
C94 C 0.52535 0.52575 0.93178 0.0
N95 N 0.45176 0.54333 0.00659 0.0
C96 C 0.4248 0.53627 0.00298 0.0
C97 C 0.45963 0.57007 0.00996 0.0
C98 C 0.44005 0.59095 0.01006 0.0
C99 C 0.41203 0.58431 0.00636 0.0
C100 C 0.40453 0.55651 0.00267 0.0
Zn101 Zn 0.48115 0.51346 0.00731 0.0
O102 O 0.4913 0.45966 0.95066 0.0
C103 C 0.46918 0.46949 0.08418 0.0
O104 O 0.46012 0.49204 0.94595 0.0
H105 H 0.48117 0.57525 0.01283 0.0
H106 H 0.51377 0.41964 0.01358 0.0
H107 H 0.419 0.51488 1.00029 0.0
O108 O 0.4922 0.46069 0.06868 0.0
O109 O 0.45919 0.4912 0.06398 0.0
H110 H 0.57575 0.48018 0.00481 0.0
O111 O 0.50278 0.53421 0.06874 0.0
O112 O 0.53578 0.50366 0.06668 0.0
O113 O 0.50342 0.53538 0.95063 0.0
O114 O 0.53455 0.50293 0.94866 0.0
C115 C 0.52576 0.52542 0.08601 0.0
H116 H 0.54819 0.38287 0.01387 0.0
H117 H 0.61154 0.44472 0.00298 0.0
H118 H 0.44682 0.61204 0.01378 0.0
H119 H 0.38322 0.55041 0.99902 0.0
C120 C 0.27873 0.24189 0.47698 0.0
C121 C 0.2751 0.26708 0.50238 0.0
C122 C 0.25801 0.22207 0.47748 0.0
C123 C 0.19763 0.20031 0.55126 0.0
H124 H 0.17806 0.16108 0.42384 0.0
C125 C 0.10339 0.12876 0.53789 0.0
C126 C 0.1061 0.10416 0.50963 0.0
C127 C 0.12394 0.14874 0.53679 0.0
C128 C 0.1835 0.17159 0.45993 0.0
H129 H 0.24759 0.29173 0.54802 0.0
H130 H 0.2111 0.25703 0.54935 0.0
H131 H 0.21423 0.19563 0.42243 0.0
H132 H 0.13251 0.0815 0.45753 0.0
H133 H 0.16865 0.11595 0.45686 0.0
H134 H 0.16714 0.17613 0.58897 0.0
C135 C 0.22993 0.25243 0.52928 0.0
C136 C 0.2042 0.19141 0.45907 0.0
C137 C 0.25061 0.27228 0.52842 0.0
C138 C 0.12988 0.10004 0.48028 0.0
C139 C 0.15046 0.11998 0.47932 0.0
C140 C 0.17702 0.18039 0.55221 0.0
C141 C 0.2334 0.22711 0.50377 0.0
C142 C 0.21146 0.20601 0.5047 0.0
C143 C 0.14774 0.14458 0.50754 0.0
C144 C 0.16968 0.1658 0.50654 0.0
H145 H 0.29766 0.23763 0.45699 0.0
H146 H 0.26141 0.20265 0.45799 0.0
H147 H 0.20304 0.21095 0.58723 0.0
H148 H 0.0855 0.13249 0.56137 0.0
H149 H 0.12102 0.16757 0.55851 0.0
C150 C 0.22336 0.74999 0.03734 0.0
C151 C 0.2286 0.77588 0.0157 0.0
C152 C 0.24335 0.72947 0.0365 0.0
C153 C 0.30477 0.70756 0.9666 0.0
H154 H 0.31919 0.6639 0.09098 0.0
C155 C 0.39518 0.63128 0.98064 0.0
C156 C 0.39083 0.60626 0.00668 0.0
C157 C 0.37546 0.65205 0.98163 0.0
C158 C 0.31518 0.67564 0.05568 0.0
H159 H 0.25857 0.80091 0.9766 0.0
H160 H 0.29363 0.7649 0.97441 0.0
H161 H 0.28462 0.69999 0.09294 0.0
H162 H 0.36221 0.58362 0.05441 0.0
H163 H 0.32748 0.61946 0.05468 0.0
H164 H 0.33502 0.68305 0.92902 0.0
C165 C 0.27404 0.76038 0.99178 0.0
C166 C 0.29542 0.69637 0.05688 0.0
C167 C 0.25408 0.78095 0.99301 0.0
C168 C 0.36615 0.60248 0.03341 0.0
C169 C 0.34637 0.62321 0.03419 0.0
C170 C 0.32442 0.68672 0.96527 0.0
C171 C 0.26888 0.73443 0.0136 0.0
C172 C 0.29001 0.71255 0.01237 0.0
C173 C 0.35081 0.6483 0.00846 0.0
C174 C 0.32988 0.67049 0.0098 0.0
H175 H 0.20367 0.74559 0.05434 0.0
H176 H 0.23865 0.70957 0.05299 0.0
H177 H 0.30078 0.71947 0.93147 0.0
H178 H 0.41379 0.63479 0.9591 0.0
H179 H 0.37972 0.67121 0.96186 0.0
C180 C 0.71349 0.75481 0.49008 0.0
C181 C 0.71767 0.7298 0.51603 0.0
C182 C 0.73418 0.77466 0.48993 0.0
C183 C 0.79654 0.79705 0.56117 0.0
H184 H 0.81353 0.83355 0.43078 0.0
C185 C 0.89135 0.86703 0.54114 0.0
C186 C 0.8883 0.89107 0.51113 0.0
C187 C 0.87053 0.84731 0.5418 0.0
C188 C 0.80883 0.82383 0.46768 0.0
H189 H 0.7461 0.70558 0.56235 0.0
H190 H 0.78254 0.74037 0.56267 0.0
H191 H 0.77686 0.79957 0.43248 0.0
H192 H 0.86103 0.91295 0.45765 0.0
H193 H 0.82446 0.87901 0.46006 0.0
H194 H 0.82827 0.82147 0.59658 0.0
C195 C 0.76329 0.74479 0.54262 0.0
C196 C 0.78784 0.80433 0.4686 0.0
C197 C 0.74263 0.72491 0.54238 0.0
C198 C 0.86395 0.89486 0.48172 0.0
C199 C 0.8431 0.8752 0.48255 0.0
C200 C 0.81744 0.81668 0.56034 0.0
C201 C 0.75934 0.76983 0.51612 0.0
C202 C 0.78149 0.79071 0.51533 0.0
C203 C 0.84612 0.85118 0.51261 0.0
C204 C 0.82387 0.83029 0.51355 0.0
H205 H 0.69422 0.75883 0.4698 0.0
H206 H 0.73043 0.79386 0.46971 0.0
H207 H 0.79187 0.78714 0.59792 0.0
H208 H 0.90969 0.86357 0.56473 0.0
H209 H 0.8737 0.82891 0.56489 0.0
C210 C 0.77313 0.24598 0.02675 0.0
C211 C 0.76764 0.2204 0.00365 0.0
C212 C 0.75307 0.26641 0.0269 0.0
C213 C 0.69005 0.28916 0.95891 0.0
H214 H 0.67779 0.32997 0.08677 0.0
C215 C 0.59931 0.36427 0.97957 0.0
C216 C 0.60407 0.3888 0.00734 0.0
C217 C 0.61917 0.34362 0.97891 0.0
C218 C 0.68118 0.31904 0.05053 0.0
H219 H 0.73719 0.19591 0.96258 0.0
H220 H 0.70195 0.2318 0.96212 0.0
H221 H 0.71273 0.29424 0.08561 0.0
H222 H 0.63352 0.41067 0.0565 0.0
H223 H 0.66845 0.37507 0.05398 0.0
H224 H 0.65878 0.31413 0.92356 0.0
C225 C 0.72181 0.23613 0.97993 0.0
C226 C 0.70116 0.29852 0.04993 0.0
C227 C 0.74186 0.21563 0.98016 0.0
C228 C 0.62925 0.39219 0.03423 0.0
C229 C 0.64916 0.37159 0.03337 0.0
C230 C 0.67017 0.3098 0.95939 0.0
C231 C 0.72717 0.2617 0.00356 0.0
C232 C 0.70582 0.28337 0.00413 0.0
C233 C 0.64435 0.34702 0.0058 0.0
C234 C 0.66548 0.32501 0.00522 0.0
H235 H 0.79305 0.25015 0.04439 0.0
H236 H 0.75793 0.28603 0.04473 0.0
H237 H 0.69342 0.27804 0.92285 0.0
H238 H 0.5803 0.36107 0.95785 0.0
H239 H 0.61463 0.32484 0.95776 0.0
C240 C 0.1592 0.86866 0.08083 0.0
C241 C 0.15689 0.84012 0.076 0.0
C242 C 0.14336 0.88283 0.11709 0.0
C243 C 0.10469 0.87066 0.2388 0.0
H244 H 0.07853 0.94477 0.21431 0.0
C245 C 0.03268 0.9269 0.38057 0.0
C246 C 0.03988 0.95403 0.3936 0.0
C247 C 0.04619 0.91305 0.34062 0.0
C248 C 0.08587 0.92413 0.22175 0.0
H249 H 0.13562 0.80397 0.10238 0.0
H250 H 0.10715 0.82859 0.16476 0.0
H251 H 0.10234 0.92047 0.14495 0.0
H252 H 0.0668 0.98795 0.37469 0.0
H253 H 0.09021 0.96377 0.30459 0.0
H254 H 0.08786 0.87428 0.31537 0.0
C255 C 0.12173 0.84012 0.14203 0.0
C256 C 0.09957 0.91021 0.18209 0.0
C257 C 0.13779 0.826 0.1062 0.0
C258 C 0.06081 0.96704 0.36568 0.0
C259 C 0.07409 0.95329 0.32532 0.0
C260 C 0.09075 0.88447 0.27818 0.0
C261 C 0.12471 0.86866 0.1488 0.0
C262 C 0.10928 0.88331 0.19018 0.0
C263 C 0.06695 0.92614 0.31246 0.0
C264 C 0.08132 0.91139 0.27017 0.0
H265 H 0.17402 0.87978 0.05792 0.0
H266 H 0.14647 0.90472 0.12151 0.0
H267 H 0.11236 0.85023 0.247 0.0
H268 H 0.01664 0.9163 0.40131 0.0
H269 H 0.04014 0.8922 0.33128 0.0
C270 C 0.62709 0.67395 0.6011 0.0
C271 C 0.64805 0.66233 0.57153 0.0
C272 C 0.6125 0.65784 0.63631 0.0
C273 C 0.62023 0.5962 0.71694 0.0
H274 H 0.54156 0.60224 0.73282 0.0
C275 C 0.56112 0.52838 0.86255 0.0
C276 C 0.53954 0.54071 0.88971 0.0
C277 C 0.57384 0.54226 0.82166 0.0
C278 C 0.56359 0.60054 0.72935 0.0
H279 H 0.66992 0.62505 0.55377 0.0
H280 H 0.64441 0.59658 0.61551 0.0
H281 H 0.56406 0.62804 0.66388 0.0
H282 H 0.51473 0.57748 0.8958 0.0
H283 H 0.53734 0.60192 0.8256 0.0
H284 H 0.62 0.56931 0.78308 0.0
C285 C 0.63932 0.61813 0.61182 0.0
C286 C 0.57643 0.61525 0.68969 0.0
C287 C 0.65373 0.63424 0.57633 0.0
C288 C 0.53118 0.56732 0.87547 0.0
C289 C 0.54403 0.58127 0.83489 0.0
C290 C 0.60743 0.58167 0.75686 0.0
C291 C 0.61881 0.62986 0.64273 0.0
C292 C 0.60491 0.61332 0.68322 0.0
C293 C 0.56542 0.56887 0.80723 0.0
C294 C 0.57896 0.58376 0.76379 0.0
H295 H 0.62237 0.69558 0.59745 0.0
H296 H 0.59692 0.66748 0.65976 0.0
H297 H 0.64227 0.59463 0.7134 0.0
H298 H 0.56794 0.50783 0.87236 0.0
H299 H 0.59 0.53193 0.80083 0.0
C300 C 0.85879 0.16893 0.09594 0.0
C301 C 0.83936 0.1552 0.06457 0.0
C302 C 0.87471 0.15448 0.13257 0.0
C303 C 0.89561 0.08404 0.17415 0.0
H304 H 0.90761 0.1199 0.30825 0.0
C305 C 0.93394 0.02708 0.36078 0.0
C306 C 0.95495 0.04005 0.38999 0.0
C307 C 0.92074 0.04081 0.31939 0.0
C308 C 0.90463 0.10971 0.27086 0.0
H309 H 0.82154 0.11587 0.04507 0.0
H310 H 0.84885 0.09034 0.11005 0.0
H311 H 0.88355 0.14422 0.2381 0.0
H312 H 0.97843 0.07766 0.39888 0.0
H313 H 0.95511 0.10169 0.3271 0.0
H314 H 0.91616 0.04921 0.20794 0.0
C315 C 0.85232 0.11218 0.10597 0.0
C316 C 0.89095 0.12368 0.23047 0.0
C317 C 0.83662 0.12668 0.06891 0.0
C318 C 0.96232 0.06709 0.37718 0.0
C319 C 0.94891 0.0809 0.33621 0.0
C320 C 0.90907 0.06995 0.21483 0.0
C321 C 0.87123 0.12599 0.13899 0.0
C322 C 0.88631 0.11108 0.1815 0.0
C323 C 0.92805 0.06789 0.3068 0.0
C324 C 0.91375 0.08268 0.26354 0.0
H325 H 0.86127 0.19095 0.09254 0.0
H326 H 0.88951 0.16572 0.1563 0.0
H327 H 0.89274 0.0738 0.13682 0.0
H328 H 0.92783 0.00623 0.36959 0.0
H329 H 0.90455 0.03038 0.29768 0.0
C330 C 0.34131 0.3609 0.56689 0.0
C331 C 0.34666 0.33285 0.56078 0.0
C332 C 0.35607 0.3763 0.60402 0.0
C333 C 0.39655 0.36688 0.72659 0.0
H334 H 0.41538 0.44344 0.70639 0.0
C335 C 0.46398 0.42727 0.87418 0.0
C336 C 0.45528 0.45386 0.88736 0.0
C337 C 0.45118 0.41288 0.83326 0.0
C338 C 0.41003 0.42213 0.71269 0.0
H339 H 0.37232 0.29902 0.5855 0.0
H340 H 0.39876 0.32589 0.64978 0.0
H341 H 0.39362 0.41771 0.63482 0.0
H342 H 0.42633 0.48621 0.86779 0.0
H343 H 0.40398 0.46099 0.79605 0.0
H344 H 0.41316 0.37127 0.80426 0.0
C345 C 0.38268 0.33598 0.62724 0.0
C346 C 0.39757 0.40737 0.67172 0.0
C347 C 0.36775 0.3206 0.59039 0.0
C348 C 0.43348 0.46574 0.85866 0.0
C349 C 0.42081 0.4514 0.81737 0.0
C350 C 0.40917 0.38157 0.76732 0.0
C351 C 0.37659 0.36389 0.63543 0.0
C352 C 0.39063 0.37955 0.6782 0.0
C353 C 0.42951 0.42479 0.80431 0.0
C354 C 0.41601 0.40935 0.76088 0.0
H355 H 0.32493 0.37055 0.54442 0.0
H356 H 0.35062 0.39764 0.6095 0.0
H357 H 0.39096 0.34569 0.73348 0.0
H358 H 0.48074 0.41751 0.89543 0.0
H359 H 0.45852 0.39252 0.82379 0.0
C360 C 0.62565 0.65977 0.44791 0.0
C361 C 0.65404 0.65686 0.45482 0.0
C362 C 0.61147 0.64372 0.41099 0.0
C363 C 0.62392 0.60358 0.29048 0.0
H364 H 0.54899 0.57942 0.30945 0.0
C365 C 0.56738 0.53242 0.14332 0.0
C366 C 0.54046 0.53996 0.12896 0.0
C367 C 0.58115 0.54581 0.18442 0.0
C368 C 0.56986 0.5862 0.30353 0.0
H369 H 0.68986 0.63417 0.43176 0.0
H370 H 0.66519 0.60541 0.36801 0.0
H371 H 0.5732 0.60308 0.38077 0.0
H372 H 0.50685 0.56741 0.14665 0.0
H373 H 0.53092 0.59069 0.21868 0.0
H374 H 0.6206 0.58645 0.21341 0.0
C375 C 0.65383 0.62062 0.38965 0.0
C376 C 0.58374 0.5998 0.34433 0.0
C377 C 0.66796 0.63688 0.42622 0.0
C378 C 0.52759 0.56115 0.15669 0.0
C379 C 0.54129 0.57435 0.19816 0.0
C380 C 0.61013 0.58978 0.24994 0.0
C381 C 0.62549 0.62426 0.38066 0.0
C382 C 0.61092 0.60878 0.33824 0.0
C383 C 0.56822 0.56685 0.21238 0.0
C384 C 0.58292 0.58108 0.25591 0.0
H385 H 0.6147 0.67525 0.46966 0.0
H386 H 0.58975 0.64732 0.40487 0.0
H387 H 0.64461 0.61069 0.28384 0.0
H388 H 0.57788 0.51617 0.12279 0.0
H389 H 0.60182 0.53945 0.19479 0.0
C390 C 0.82222 0.1304 0.91432 0.0
C391 C 0.83446 0.15013 0.94713 0.0
C392 C 0.83808 0.11552 0.87921 0.0
C393 C 0.9009 0.12125 0.80446 0.0
H394 H 0.89168 0.04308 0.78186 0.0
C395 C 0.96745 0.06125 0.65838 0.0
C396 C 0.95466 0.04026 0.62916 0.0
C397 C 0.95371 0.07407 0.69929 0.0
C398 C 0.89427 0.06498 0.78717 0.0
H399 H 0.87254 0.16963 0.97041 0.0
H400 H 0.90056 0.14366 0.90869 0.0
H401 H 0.86613 0.06586 0.85068 0.0
H402 H 0.91721 0.01662 0.6193 0.0
H403 H 0.89299 0.0395 0.68939 0.0
H404 H 0.92836 0.12069 0.74014 0.0
C405 C 0.87873 0.13969 0.90999 0.0
C406 C 0.87972 0.07797 0.8268 0.0
C407 C 0.86286 0.15434 0.94546 0.0
C408 C 0.92772 0.03261 0.64128 0.0
C409 C 0.9139 0.0456 0.68182 0.0
C410 C 0.91525 0.10832 0.76449 0.0
C411 C 0.86643 0.12037 0.87603 0.0
C412 C 0.8828 0.10625 0.8357 0.0
C413 C 0.92676 0.06639 0.71161 0.0
C414 C 0.91202 0.08004 0.75511 0.0
H415 H 0.8003 0.12695 0.91531 0.0
H416 H 0.82802 0.10091 0.85329 0.0
H417 H 0.90338 0.14316 0.80995 0.0
H418 H 0.98827 0.06749 0.65023 0.0
H419 H 0.96442 0.08971 0.72178 0.0
C420 C 0.36805 0.3355 0.43853 0.0
C421 C 0.33972 0.33884 0.44384 0.0
C422 C 0.38237 0.35136 0.40249 0.0
C423 C 0.37033 0.39186 0.2815 0.0
H424 H 0.44554 0.41514 0.30558 0.0
C425 C 0.4275 0.46268 0.13861 0.0
C426 C 0.45438 0.455 0.12607 0.0
C427 C 0.41362 0.44933 0.17865 0.0
C428 C 0.4246 0.40859 0.29823 0.0
H429 H 0.30419 0.36209 0.41879 0.0
H430 H 0.32913 0.39048 0.3565 0.0
H431 H 0.42111 0.39159 0.3751 0.0
H432 H 0.48781 0.42731 0.14594 0.0
H433 H 0.46354 0.40407 0.21612 0.0
H434 H 0.3738 0.4091 0.2048 0.0
C435 C 0.34031 0.37509 0.37875 0.0
C436 C 0.41059 0.39507 0.338 0.0
C437 C 0.32602 0.35904 0.41447 0.0
C438 C 0.4671 0.43369 0.15457 0.0
C439 C 0.45329 0.42051 0.19499 0.0
C440 C 0.38425 0.40557 0.24197 0.0
C441 C 0.36858 0.37105 0.37144 0.0
C442 C 0.3833 0.38641 0.33006 0.0
C443 C 0.42639 0.42816 0.20738 0.0
C444 C 0.41157 0.41396 0.2498 0.0
H445 H 0.37883 0.31985 0.46085 0.0
H446 H 0.40403 0.34744 0.39764 0.0
H447 H 0.34955 0.38501 0.27348 0.0
H448 H 0.41712 0.47903 0.11745 0.0
H449 H 0.39299 0.45581 0.18762 0.0
C450 C 0.17302 0.86642 0.92738 0.0
C451 C 0.16107 0.84635 0.95897 0.0
C452 C 0.15693 0.88134 0.89168 0.0
C453 C 0.09414 0.8751 0.81282 0.0
H454 H 0.10278 0.95333 0.79089 0.0
C455 C 0.02756 0.93444 0.66145 0.0
C456 C 0.04033 0.95541 0.63302 0.0
C457 C 0.04124 0.92181 0.70357 0.0
C458 C 0.10034 0.93141 0.79603 0.0
H459 H 0.12324 0.82634 0.9796 0.0
H460 H 0.0948 0.85242 0.91684 0.0
H461 H 0.12839 0.93077 0.8616 0.0
H462 H 0.07766 0.97925 0.62594 0.0
H463 H 0.10178 0.95672 0.6982 0.0
H464 H 0.0668 0.87542 0.74648 0.0
C465 C 0.1166 0.85661 0.91954 0.0
C466 C 0.11493 0.91854 0.83674 0.0
C467 C 0.1327 0.8419 0.95561 0.0
C468 C 0.06717 0.96326 0.64723 0.0
C469 C 0.08093 0.95048 0.68901 0.0
C470 C 0.07976 0.88789 0.77181 0.0
C471 C 0.12863 0.87621 0.88667 0.0
C472 C 0.11208 0.89023 0.84538 0.0
C473 C 0.0681 0.92969 0.71796 0.0
C474 C 0.08279 0.9162 0.76264 0.0
H475 H 0.19492 0.87004 0.92967 0.0
H476 H 0.1668 0.89617 0.86663 0.0
H477 H 0.09185 0.85316 0.81807 0.0
H478 H 0.00681 0.92804 0.6517 0.0
H479 H 0.03055 0.90616 0.72534 0.0
loop_
_geom_bond_atom_site_label_1
_geom_bond_atom_site_label_2
_geom_bond_distance
_geom_bond_site_symmetry_2
_ccdc_geom_bond_type
C0 N1 1.317 . S
C0 N2 1.348 1_556 S
C0 C3 1.485 . S
N1 C0 1.317 . S
N1 N5 1.370 1_556 S
N2 C0 1.348 1_554 S
N2 C4 1.346 . S
C3 C0 1.485 . S
C3 H7 0.960 . S
C3 H8 0.961 . S
C3 H9 0.960 . S
C4 N2 1.346 . S
C4 N5 1.307 . S
C4 C6 1.486 . S
N5 N1 1.370 1_554 S
N5 C4 1.307 . S
C6 C4 1.486 . S
C6 H10 0.960 . S
C6 H11 0.960 . S
C6 H12 0.959 . S
H7 C3 0.960 . S
H8 C3 0.961 . S
H9 C3 0.960 . S
H10 C6 0.960 . S
H11 C6 0.960 . S
H12 C6 0.959 . S
C13 N14 1.317 . S
C13 N15 1.348 . S
C13 C16 1.485 . S
N14 C13 1.317 . S
N14 N18 1.370 . S
N15 C13 1.348 . S
N15 C17 1.346 . S
C16 C13 1.485 . S
C16 H20 0.960 . S
C16 H21 0.961 . S
C16 H22 0.960 . S
C17 N15 1.346 . S
C17 N18 1.307 . S
C17 C19 1.486 . S
N18 N14 1.370 . S
N18 C17 1.307 . S
C19 C17 1.486 . S
C19 H23 0.960 . S
C19 H24 0.960 . S
C19 H25 0.959 . S
H20 C16 0.960 . S
H21 C16 0.961 . S
H22 C16 0.960 . S
H23 C19 0.960 . S
H24 C19 0.960 . S
H25 C19 0.959 . S
C26 N27 1.317 . S
C26 N28 1.348 . S
C26 C29 1.485 . S
N27 C26 1.317 . S
N27 N31 1.370 1_554 S
N28 C26 1.348 . S
N28 C30 1.346 1_554 S
C29 C26 1.485 . S
C29 H33 0.960 . S
C29 H34 0.961 . S
C29 H35 0.960 . S
C30 N28 1.346 1_556 S
C30 N31 1.307 . S
C30 C32 1.486 . S
N31 N27 1.370 1_556 S
N31 C30 1.307 . S
C32 C30 1.486 . S
C32 H36 0.960 . S
C32 H37 0.960 . S
C32 H38 0.959 . S
H33 C29 0.960 . S
H34 C29 0.961 . S
H35 C29 0.960 . S
H36 C32 0.960 . S
H37 C32 0.960 . S
H38 C32 0.959 . S
C39 N40 1.317 . S
C39 N41 1.348 . S
C39 C42 1.485 . S
N40 C39 1.317 . S
N40 N44 1.370 . S
N41 C39 1.348 . S
N41 C43 1.346 . S
C42 C39 1.485 . S
C42 H46 0.960 . S
C42 H47 0.961 . S
C42 H48 0.960 . S
C43 N41 1.346 . S
C43 N44 1.307 . S
C43 C45 1.486 . S
N44 N40 1.370 . S
N44 C43 1.307 . S
C45 C43 1.486 . S
C45 H49 0.960 . S
C45 H50 0.960 . S
C45 H51 0.959 . S
H46 C42 0.960 . S
H47 C42 0.961 . S
H48 C42 0.960 . S
H49 C45 0.960 . S
H50 C45 0.960 . S
H51 C45 0.959 . S
C52 O68 1.251 . S
C52 O70 1.254 . S
N53 C54 1.333 . S
N53 C58 1.307 . S
N53 Zn59 2.020 . S
C54 N53 1.333 . S
C54 C55 1.379 . S
C54 H72 0.952 . S
C55 C54 1.379 . S
C55 C56 1.390 . S
C55 H82 0.949 . S
C56 C55 1.390 . S
C56 C57 1.357 . S
C57 C56 1.357 . S
C57 C58 1.370 . S
C57 H83 0.950 . S
C58 N53 1.307 . S
C58 C57 1.370 . S
C58 H76 0.948 . S
Zn59 N53 2.020 . S
Zn59 O68 2.039 1_545 S
Zn59 O74 2.034 1_545 S
Zn59 O78 2.025 1_455 S
Zn59 O80 2.024 1_455 S
C60 O79 1.246 . S
C60 O80 1.249 . S
N61 C62 1.307 . S
N61 C63 1.333 . S
N61 Zn67 2.020 . S
C62 N61 1.307 . S
C62 C66 1.370 . S
C62 H73 0.948 . S
C63 N61 1.333 . S
C63 C64 1.379 . S
C63 H71 0.952 . S
C64 C63 1.379 . S
C64 C65 1.390 . S
C64 H84 0.949 . S
C65 C64 1.390 . S
C65 C66 1.357 . S
C66 C62 1.370 . S
C66 C65 1.357 . S
C66 H85 0.950 . S
Zn67 N61 2.020 . S
Zn67 O70 2.025 1_655 S
Zn67 O75 2.024 1_655 S
Zn67 O77 2.039 1_565 S
Zn67 O79 2.034 1_565 S
O68 C52 1.251 . S
O68 Zn59 2.039 1_565 S
C69 O74 1.246 . S
C69 O75 1.249 . S
O70 C52 1.254 . S
O70 Zn67 2.025 1_455 S
H71 C63 0.952 . S
H72 C54 0.952 . S
H73 C62 0.948 . S
O74 Zn59 2.034 1_565 S
O74 C69 1.246 . S
O75 Zn67 2.024 1_455 S
O75 C69 1.249 . S
H76 C58 0.948 . S
O77 Zn67 2.039 1_545 S
O77 C81 1.251 . S
O78 Zn59 2.025 1_655 S
O78 C81 1.254 . S
O79 C60 1.246 . S
O79 Zn67 2.034 1_545 S
O80 Zn59 2.024 1_655 S
O80 C60 1.249 . S
C81 O77 1.251 . S
C81 O78 1.254 . S
H82 C55 0.949 . S
H83 C57 0.950 . S
H84 C64 0.949 . S
H85 C66 0.950 . S
C86 O102 1.251 . S
C86 O104 1.254 . S
N87 C88 1.333 1_554 S
N87 C92 1.307 . S
N87 Zn93 2.020 . S
C88 N87 1.333 1_556 S
C88 C89 1.379 . S
C88 H106 0.952 . S
C89 C88 1.379 . S
C89 C90 1.390 1_556 S
C89 H116 0.949 . S
C90 C89 1.390 1_554 S
C90 C91 1.357 . S
C91 C90 1.357 . S
C91 C92 1.370 . S
C91 H117 0.950 . S
C92 N87 1.307 . S
C92 C91 1.370 . S
C92 H110 0.948 . S
Zn93 N87 2.020 . S
Zn93 O102 2.039 1_554 S
Zn93 O108 2.034 . S
Zn93 O112 2.025 . S
Zn93 O114 2.024 1_554 S
C94 O113 1.246 . S
C94 O114 1.249 . S
N95 C96 1.307 1_554 S
N95 C97 1.333 . S
N95 Zn101 2.020 . S
C96 N95 1.307 1_556 S
C96 C100 1.370 . S
C96 H107 0.948 . S
C97 N95 1.333 . S
C97 C98 1.379 . S
C97 H105 0.952 . S
C98 C97 1.379 . S
C98 C99 1.390 . S
C98 H118 0.949 . S
C99 C98 1.390 . S
C99 C100 1.357 1_554 S
C100 C96 1.370 . S
C100 C99 1.357 1_556 S
C100 H119 0.950 . S
Zn101 N95 2.020 . S
Zn101 O104 2.025 1_554 S
Zn101 O109 2.024 . S
Zn101 O111 2.039 . S
Zn101 O113 2.034 1_554 S
O102 C86 1.251 . S
O102 Zn93 2.039 1_556 S
C103 O108 1.246 . S
C103 O109 1.249 . S
O104 C86 1.254 . S
O104 Zn101 2.025 1_556 S
H105 C97 0.952 . S
H106 C88 0.952 . S
H107 C96 0.948 . S
O108 Zn93 2.034 . S
O108 C103 1.246 . S
O109 Zn101 2.024 . S
O109 C103 1.249 . S
H110 C92 0.948 . S
O111 Zn101 2.039 . S
O111 C115 1.251 . S
O112 Zn93 2.025 . S
O112 C115 1.254 . S
O113 C94 1.246 . S
O113 Zn101 2.034 1_556 S
O114 Zn93 2.024 1_556 S
O114 C94 1.249 . S
C115 O111 1.251 . S
C115 O112 1.254 . S
H116 C89 0.949 . S
H117 C91 0.950 . S
H118 C98 0.949 . S
H119 C100 0.950 . S
C120 C121 1.349 . S
C120 C122 1.327 . S
C120 H145 0.950 . S
C121 C120 1.349 . S
C121 C137 1.349 . S
C122 C120 1.327 . S
C122 C141 1.429 . S
C122 H146 0.950 . S
C123 C140 1.574 . S
C123 C142 1.368 . S
C123 H147 0.949 . S
H124 C128 0.949 . S
C125 C126 1.349 . S
C125 C127 1.327 . S
C125 H148 0.950 . S
C126 C125 1.349 . S
C126 C138 1.349 . S
C127 C125 1.327 . S
C127 C143 1.429 . S
C127 H149 0.950 . S
C128 H124 0.949 . S
C128 C136 1.574 . S
C128 C144 1.368 . S
H129 C137 0.950 . S
H130 C135 0.950 . S
H131 C136 0.949 . S
H132 C138 0.950 . S
H133 C139 0.950 . S
H134 C140 0.949 . S
C135 H130 0.950 . S
C135 C137 1.327 . S
C135 C141 1.429 . S
C136 C128 1.574 . S
C136 H131 0.949 . S
C136 C142 1.368 . S
C137 C121 1.349 . S
C137 H129 0.950 . S
C137 C135 1.327 . S
C138 C126 1.349 . S
C138 H132 0.950 . S
C138 C139 1.327 . S
C139 H133 0.950 . S
C139 C138 1.327 . S
C139 C143 1.429 . S
C140 C123 1.574 . S
C140 H134 0.949 . S
C140 C144 1.368 . S
C141 C122 1.429 . S
C141 C135 1.429 . S
C141 C142 1.523 . S
C142 C123 1.368 . S
C142 C136 1.368 . S
C142 C141 1.523 . S
C143 C127 1.429 . S
C143 C139 1.429 . S
C143 C144 1.523 . S
C144 C128 1.368 . S
C144 C140 1.368 . S
C144 C143 1.523 . S
H145 C120 0.950 . S
H146 C122 0.950 . S
H147 C123 0.949 . S
H148 C125 0.950 . S
H149 C127 0.950 . S
C150 C151 1.349 . S
C150 C152 1.327 . S
C150 H175 0.950 . S
C151 C150 1.349 . S
C151 C167 1.349 1_554 S
C152 C150 1.327 . S
C152 C171 1.429 . S
C152 H176 0.950 . S
C153 C170 1.574 . S
C153 C172 1.368 1_556 S
C153 H177 0.949 . S
H154 C158 0.949 . S
C155 C156 1.349 1_556 S
C155 C157 1.327 . S
C155 H178 0.950 . S
C156 C155 1.349 1_554 S
C156 C168 1.349 . S
C157 C155 1.327 . S
C157 C173 1.429 1_556 S
C157 H179 0.950 . S
C158 H154 0.949 . S
C158 C166 1.574 . S
C158 C174 1.368 . S
H159 C167 0.950 . S
H160 C165 0.950 . S
H161 C166 0.949 . S
H162 C168 0.950 . S
H163 C169 0.950 . S
H164 C170 0.949 . S
C165 H160 0.950 . S
C165 C167 1.327 . S
C165 C171 1.429 1_556 S
C166 C158 1.574 . S
C166 H161 0.949 . S
C166 C172 1.368 . S
C167 C151 1.349 1_556 S
C167 H159 0.950 . S
C167 C165 1.327 . S
C168 C156 1.349 . S
C168 H162 0.950 . S
C168 C169 1.327 . S
C169 H163 0.950 . S
C169 C168 1.327 . S
C169 C173 1.429 . S
C170 C153 1.574 . S
C170 H164 0.949 . S
C170 C174 1.368 1_556 S
C171 C152 1.429 . S
C171 C165 1.429 1_554 S
C171 C172 1.523 . S
C172 C153 1.368 1_554 S
C172 C166 1.368 . S
C172 C171 1.523 . S
C173 C157 1.429 1_554 S
C173 C169 1.429 . S
C173 C174 1.523 . S
C174 C158 1.368 . S
C174 C170 1.368 1_554 S
C174 C173 1.523 . S
H175 C150 0.950 . S
H176 C152 0.950 . S
H177 C153 0.949 . S
H178 C155 0.950 . S
H179 C157 0.950 . S
C180 C181 1.349 . S
C180 C182 1.327 . S
C180 H205 0.950 . S
C181 C180 1.349 . S
C181 C197 1.349 . S
C182 C180 1.327 . S
C182 C201 1.429 . S
C182 H206 0.950 . S
C183 C200 1.574 . S
C183 C202 1.368 . S
C183 H207 0.949 . S
H184 C188 0.949 . S
C185 C186 1.349 . S
C185 C187 1.327 . S
C185 H208 0.950 . S
C186 C185 1.349 . S
C186 C198 1.349 . S
C187 C185 1.327 . S
C187 C203 1.429 . S
C187 H209 0.950 . S
C188 H184 0.949 . S
C188 C196 1.574 . S
C188 C204 1.368 . S
H189 C197 0.950 . S
H190 C195 0.950 . S
H191 C196 0.949 . S
H192 C198 0.950 . S
H193 C199 0.950 . S
H194 C200 0.949 . S
C195 H190 0.950 . S
C195 C197 1.327 . S
C195 C201 1.429 . S
C196 C188 1.574 . S
C196 H191 0.949 . S
C196 C202 1.368 . S
C197 C181 1.349 . S
C197 H189 0.950 . S
C197 C195 1.327 . S
C198 C186 1.349 . S
C198 H192 0.950 . S
C198 C199 1.327 . S
C199 H193 0.950 . S
C199 C198 1.327 . S
C199 C203 1.429 . S
C200 C183 1.574 . S
C200 H194 0.949 . S
C200 C204 1.368 . S
C201 C182 1.429 . S
C201 C195 1.429 . S
C201 C202 1.523 . S
C202 C183 1.368 . S
C202 C196 1.368 . S
C202 C201 1.523 . S
C203 C187 1.429 . S
C203 C199 1.429 . S
C203 C204 1.523 . S
C204 C188 1.368 . S
C204 C200 1.368 . S
C204 C203 1.523 . S
H205 C180 0.950 . S
H206 C182 0.950 . S
H207 C183 0.949 . S
H208 C185 0.950 . S
H209 C187 0.950 . S
C210 C211 1.349 . S
C210 C212 1.327 . S
C210 H235 0.950 . S
C211 C210 1.349 . S
C211 C227 1.349 1_554 S
C212 C210 1.327 . S
C212 C231 1.429 . S
C212 H236 0.950 . S
C213 C230 1.574 . S
C213 C232 1.368 1_556 S
C213 H237 0.949 . S
H214 C218 0.949 . S
C215 C216 1.349 1_556 S
C215 C217 1.327 . S
C215 H238 0.950 . S
C216 C215 1.349 1_554 S
C216 C228 1.349 . S
C217 C215 1.327 . S
C217 C233 1.429 1_556 S
C217 H239 0.950 . S
C218 H214 0.949 . S
C218 C226 1.574 . S
C218 C234 1.368 . S
H219 C227 0.950 . S
H220 C225 0.950 . S
H221 C226 0.949 . S
H222 C228 0.950 . S
H223 C229 0.950 . S
H224 C230 0.949 . S
C225 H220 0.950 . S
C225 C227 1.327 . S
C225 C231 1.429 1_556 S
C226 C218 1.574 . S
C226 H221 0.949 . S
C226 C232 1.368 . S
C227 C211 1.349 1_556 S
C227 H219 0.950 . S
C227 C225 1.327 . S
C228 C216 1.349 . S
C228 H222 0.950 . S
C228 C229 1.327 . S
C229 H223 0.950 . S
C229 C228 1.327 . S
C229 C233 1.429 . S
C230 C213 1.574 . S
C230 H224 0.949 . S
C230 C234 1.368 1_556 S
C231 C212 1.429 . S
C231 C225 1.429 1_554 S
C231 C232 1.523 . S
C232 C213 1.368 1_554 S
C232 C226 1.368 . S
C232 C231 1.523 . S
C233 C217 1.429 1_554 S
C233 C229 1.429 . S
C233 C234 1.523 . S
C234 C218 1.368 . S
C234 C230 1.368 1_554 S
C234 C233 1.523 . S
H235 C210 0.950 . S
H236 C212 0.950 . S
H237 C213 0.949 . S
H238 C215 0.950 . S
H239 C217 0.950 . S
C240 C241 1.349 . S
C240 C242 1.327 . S
C240 H265 0.950 . S
C241 C240 1.349 . S
C241 C257 1.349 . S
C242 C240 1.327 . S
C242 C261 1.429 . S
C242 H266 0.950 . S
C243 C260 1.574 . S
C243 C262 1.368 . S
C243 H267 0.949 . S
H244 C248 0.949 . S
C245 C246 1.349 . S
C245 C247 1.327 . S
C245 H268 0.950 . S
C246 C245 1.349 . S
C246 C258 1.349 . S
C247 C245 1.327 . S
C247 C263 1.429 . S
C247 H269 0.950 . S
C248 H244 0.949 . S
C248 C256 1.574 . S
C248 C264 1.368 . S
H249 C257 0.950 . S
H250 C255 0.950 . S
H251 C256 0.949 . S
H252 C258 0.950 . S
H253 C259 0.950 . S
H254 C260 0.949 . S
C255 H250 0.950 . S
C255 C257 1.327 . S
C255 C261 1.429 . S
C256 C248 1.574 . S
C256 H251 0.949 . S
C256 C262 1.368 . S
C257 C241 1.349 . S
C257 H249 0.950 . S
C257 C255 1.327 . S
C258 C246 1.349 . S
C258 H252 0.950 . S
C258 C259 1.327 . S
C259 H253 0.950 . S
C259 C258 1.327 . S
C259 C263 1.429 . S
C260 C243 1.574 . S
C260 H254 0.949 . S
C260 C264 1.368 . S
C261 C242 1.429 . S
C261 C255 1.429 . S
C261 C262 1.523 . S
C262 C243 1.368 . S
C262 C256 1.368 . S
C262 C261 1.523 . S
C263 C247 1.429 . S
C263 C259 1.429 . S
C263 C264 1.523 . S
C264 C248 1.368 . S
C264 C260 1.368 . S
C264 C263 1.523 . S
H265 C240 0.950 . S
H266 C242 0.950 . S
H267 C243 0.949 . S
H268 C245 0.950 . S
H269 C247 0.950 . S
C270 C271 1.349 . S
C270 C272 1.327 . S
C270 H295 0.950 . S
C271 C270 1.349 . S
C271 C287 1.349 . S
C272 C270 1.327 . S
C272 C291 1.429 . S
C272 H296 0.950 . S
C273 C290 1.574 . S
C273 C292 1.368 . S
C273 H297 0.949 . S
H274 C278 0.949 . S
C275 C276 1.349 . S
C275 C277 1.327 . S
C275 H298 0.950 . S
C276 C275 1.349 . S
C276 C288 1.349 . S
C277 C275 1.327 . S
C277 C293 1.429 . S
C277 H299 0.950 . S
C278 H274 0.949 . S
C278 C286 1.574 . S
C278 C294 1.368 . S
H279 C287 0.950 . S
H280 C285 0.950 . S
H281 C286 0.949 . S
H282 C288 0.950 . S
H283 C289 0.950 . S
H284 C290 0.949 . S
C285 H280 0.950 . S
C285 C287 1.327 . S
C285 C291 1.429 . S
C286 C278 1.574 . S
C286 H281 0.949 . S
C286 C292 1.368 . S
C287 C271 1.349 . S
C287 H279 0.950 . S
C287 C285 1.327 . S
C288 C276 1.349 . S
C288 H282 0.950 . S
C288 C289 1.327 . S
C289 H283 0.950 . S
C289 C288 1.327 . S
C289 C293 1.429 . S
C290 C273 1.574 . S
C290 H284 0.949 . S
C290 C294 1.368 . S
C291 C272 1.429 . S
C291 C285 1.429 . S
C291 C292 1.523 . S
C292 C273 1.368 . S
C292 C286 1.368 . S
C292 C291 1.523 . S
C293 C277 1.429 . S
C293 C289 1.429 . S
C293 C294 1.523 . S
C294 C278 1.368 . S
C294 C290 1.368 . S
C294 C293 1.523 . S
H295 C270 0.950 . S
H296 C272 0.950 . S
H297 C273 0.949 . S
H298 C275 0.950 . S
H299 C277 0.950 . S
C300 C301 1.349 . S
C300 C302 1.327 . S
C300 H325 0.950 . S
C301 C300 1.349 . S
C301 C317 1.349 . S
C302 C300 1.327 . S
C302 C321 1.429 . S
C302 H326 0.950 . S
C303 C320 1.574 . S
C303 C322 1.368 . S
C303 H327 0.949 . S
H304 C308 0.949 . S
C305 C306 1.349 . S
C305 C307 1.327 . S
C305 H328 0.950 . S
C306 C305 1.349 . S
C306 C318 1.349 . S
C307 C305 1.327 . S
C307 C323 1.429 . S
C307 H329 0.950 . S
C308 H304 0.949 . S
C308 C316 1.574 . S
C308 C324 1.368 . S
H309 C317 0.950 . S
H310 C315 0.950 . S
H311 C316 0.949 . S
H312 C318 0.950 . S
H313 C319 0.950 . S
H314 C320 0.949 . S
C315 H310 0.950 . S
C315 C317 1.327 . S
C315 C321 1.429 . S
C316 C308 1.574 . S
C316 H311 0.949 . S
C316 C322 1.368 . S
C317 C301 1.349 . S
C317 H309 0.950 . S
C317 C315 1.327 . S
C318 C306 1.349 . S
C318 H312 0.950 . S
C318 C319 1.327 . S
C319 H313 0.950 . S
C319 C318 1.327 . S
C319 C323 1.429 . S
C320 C303 1.574 . S
C320 H314 0.949 . S
C320 C324 1.368 . S
C321 C302 1.429 . S
C321 C315 1.429 . S
C321 C322 1.523 . S
C322 C303 1.368 . S
C322 C316 1.368 . S
C322 C321 1.523 . S
C323 C307 1.429 . S
C323 C319 1.429 . S
C323 C324 1.523 . S
C324 C308 1.368 . S
C324 C320 1.368 . S
C324 C323 1.523 . S
H325 C300 0.950 . S
H326 C302 0.950 . S
H327 C303 0.949 . S
H328 C305 0.950 . S
H329 C307 0.950 . S
C330 C331 1.349 . S
C330 C332 1.327 . S
C330 H355 0.950 . S
C331 C330 1.349 . S
C331 C347 1.349 . S
C332 C330 1.327 . S
C332 C351 1.429 . S
C332 H356 0.950 . S
C333 C350 1.574 . S
C333 C352 1.368 . S
C333 H357 0.949 . S
H334 C338 0.949 . S
C335 C336 1.349 . S
C335 C337 1.327 . S
C335 H358 0.950 . S
C336 C335 1.349 . S
C336 C348 1.349 . S
C337 C335 1.327 . S
C337 C353 1.429 . S
C337 H359 0.950 . S
C338 H334 0.949 . S
C338 C346 1.574 . S
C338 C354 1.368 . S
H339 C347 0.950 . S
H340 C345 0.950 . S
H341 C346 0.949 . S
H342 C348 0.950 . S
H343 C349 0.950 . S
H344 C350 0.949 . S
C345 H340 0.950 . S
C345 C347 1.327 . S
C345 C351 1.429 . S
C346 C338 1.574 . S
C346 H341 0.949 . S
C346 C352 1.368 . S
C347 C331 1.349 . S
C347 H339 0.950 . S
C347 C345 1.327 . S
C348 C336 1.349 . S
C348 H342 0.950 . S
C348 C349 1.327 . S
C349 H343 0.950 . S
C349 C348 1.327 . S
C349 C353 1.429 . S
C350 C333 1.574 . S
C350 H344 0.949 . S
C350 C354 1.368 . S
C351 C332 1.429 . S
C351 C345 1.429 . S
C351 C352 1.523 . S
C352 C333 1.368 . S
C352 C346 1.368 . S
C352 C351 1.523 . S
C353 C337 1.429 . S
C353 C349 1.429 . S
C353 C354 1.523 . S
C354 C338 1.368 . S
C354 C350 1.368 . S
C354 C353 1.523 . S
H355 C330 0.950 . S
H356 C332 0.950 . S
H357 C333 0.949 . S
H358 C335 0.950 . S
H359 C337 0.950 . S
C360 C361 1.349 . S
C360 C362 1.327 . S
C360 H385 0.950 . S
C361 C360 1.349 . S
C361 C377 1.349 . S
C362 C360 1.327 . S
C362 C381 1.429 . S
C362 H386 0.950 . S
C363 C380 1.574 . S
C363 C382 1.368 . S
C363 H387 0.949 . S
H364 C368 0.949 . S
C365 C366 1.349 . S
C365 C367 1.327 . S
C365 H388 0.950 . S
C366 C365 1.349 . S
C366 C378 1.349 . S
C367 C365 1.327 . S
C367 C383 1.429 . S
C367 H389 0.950 . S
C368 H364 0.949 . S
C368 C376 1.574 . S
C368 C384 1.368 . S
H369 C377 0.950 . S
H370 C375 0.950 . S
H371 C376 0.949 . S
H372 C378 0.950 . S
H373 C379 0.950 . S
H374 C380 0.949 . S
C375 H370 0.950 . S
C375 C377 1.327 . S
C375 C381 1.429 . S
C376 C368 1.574 . S
C376 H371 0.949 . S
C376 C382 1.368 . S
C377 C361 1.349 . S
C377 H369 0.950 . S
C377 C375 1.327 . S
C378 C366 1.349 . S
C378 H372 0.950 . S
C378 C379 1.327 . S
C379 H373 0.950 . S
C379 C378 1.327 . S
C379 C383 1.429 . S
C380 C363 1.574 . S
C380 H374 0.949 . S
C380 C384 1.368 . S
C381 C362 1.429 . S
C381 C375 1.429 . S
C381 C382 1.523 . S
C382 C363 1.368 . S
C382 C376 1.368 . S
C382 C381 1.523 . S
C383 C367 1.429 . S
C383 C379 1.429 . S
C383 C384 1.523 . S
C384 C368 1.368 . S
C384 C380 1.368 . S
C384 C383 1.523 . S
H385 C360 0.950 . S
H386 C362 0.950 . S
H387 C363 0.949 . S
H388 C365 0.950 . S
H389 C367 0.950 . S
C390 C391 1.349 . S
C390 C392 1.327 . S
C390 H415 0.950 . S
C391 C390 1.349 . S
C391 C407 1.349 . S
C392 C390 1.327 . S
C392 C411 1.429 . S
C392 H416 0.950 . S
C393 C410 1.574 . S
C393 C412 1.368 . S
C393 H417 0.949 . S
H394 C398 0.949 . S
C395 C396 1.349 . S
C395 C397 1.327 . S
C395 H418 0.950 . S
C396 C395 1.349 . S
C396 C408 1.349 . S
C397 C395 1.327 . S
C397 C413 1.429 . S
C397 H419 0.950 . S
C398 H394 0.949 . S
C398 C406 1.574 . S
C398 C414 1.368 . S
H399 C407 0.950 . S
H400 C405 0.950 . S
H401 C406 0.949 . S
H402 C408 0.950 . S
H403 C409 0.950 . S
H404 C410 0.949 . S
C405 H400 0.950 . S
C405 C407 1.327 . S
C405 C411 1.429 . S
C406 C398 1.574 . S
C406 H401 0.949 . S
C406 C412 1.368 . S
C407 C391 1.349 . S
C407 H399 0.950 . S
C407 C405 1.327 . S
C408 C396 1.349 . S
C408 H402 0.950 . S
C408 C409 1.327 . S
C409 H403 0.950 . S
C409 C408 1.327 . S
C409 C413 1.429 . S
C410 C393 1.574 . S
C410 H404 0.949 . S
C410 C414 1.368 . S
C411 C392 1.429 . S
C411 C405 1.429 . S
C411 C412 1.523 . S
C412 C393 1.368 . S
C412 C406 1.368 . S
C412 C411 1.523 . S
C413 C397 1.429 . S
C413 C409 1.429 . S
C413 C414 1.523 . S
C414 C398 1.368 . S
C414 C410 1.368 . S
C414 C413 1.523 . S
H415 C390 0.950 . S
H416 C392 0.950 . S
H417 C393 0.949 . S
H418 C395 0.950 . S
H419 C397 0.950 . S
C420 C421 1.349 . S
C420 C422 1.327 . S
C420 H445 0.950 . S
C421 C420 1.349 . S
C421 C437 1.349 . S
C422 C420 1.327 . S
C422 C441 1.429 . S
C422 H446 0.950 . S
C423 C440 1.574 . S
C423 C442 1.368 . S
C423 H447 0.949 . S
H424 C428 0.949 . S
C425 C426 1.349 . S
C425 C427 1.327 . S
C425 H448 0.950 . S
C426 C425 1.349 . S
C426 C438 1.349 . S
C427 C425 1.327 . S
C427 C443 1.429 . S
C427 H449 0.950 . S
C428 H424 0.949 . S
C428 C436 1.574 . S
C428 C444 1.368 . S
H429 C437 0.950 . S
H430 C435 0.950 . S
H431 C436 0.949 . S
H432 C438 0.950 . S
H433 C439 0.950 . S
H434 C440 0.949 . S
C435 H430 0.950 . S
C435 C437 1.327 . S
C435 C441 1.429 . S
C436 C428 1.574 . S
C436 H431 0.949 . S
C436 C442 1.368 . S
C437 C421 1.349 . S
C437 H429 0.950 . S
C437 C435 1.327 . S
C438 C426 1.349 . S
C438 H432 0.950 . S
C438 C439 1.327 . S
C439 H433 0.950 . S
C439 C438 1.327 . S
C439 C443 1.429 . S
C440 C423 1.574 . S
C440 H434 0.949 . S
C440 C444 1.368 . S
C441 C422 1.429 . S
C441 C435 1.429 . S
C441 C442 1.523 . S
C442 C423 1.368 . S
C442 C436 1.368 . S
C442 C441 1.523 . S
C443 C427 1.429 . S
C443 C439 1.429 . S
C443 C444 1.523 . S
C444 C428 1.368 . S
C444 C440 1.368 . S
C444 C443 1.523 . S
H445 C420 0.950 . S
H446 C422 0.950 . S
H447 C423 0.949 . S
H448 C425 0.950 . S
H449 C427 0.950 . S
C450 C451 1.349 . S
C450 C452 1.327 . S
C450 H475 0.950 . S
C451 C450 1.349 . S
C451 C467 1.349 . S
C452 C450 1.327 . S
C452 C471 1.429 . S
C452 H476 0.950 . S
C453 C470 1.574 . S
C453 C472 1.368 . S
C453 H477 0.949 . S
H454 C458 0.949 . S
C455 C456 1.349 . S
C455 C457 1.327 . S
C455 H478 0.950 . S
C456 C455 1.349 . S
C456 C468 1.349 . S
C457 C455 1.327 . S
C457 C473 1.429 . S
C457 H479 0.950 . S
C458 H454 0.949 . S
C458 C466 1.574 . S
C458 C474 1.368 . S
H459 C467 0.950 . S
H460 C465 0.950 . S
H461 C466 0.949 . S
H462 C468 0.950 . S
H463 C469 0.950 . S
H464 C470 0.949 . S
C465 H460 0.950 . S
C465 C467 1.327 . S
C465 C471 1.429 . S
C466 C458 1.574 . S
C466 H461 0.949 . S
C466 C472 1.368 . S
C467 C451 1.349 . S
C467 H459 0.950 . S
C467 C465 1.327 . S
C468 C456 1.349 . S
C468 H462 0.950 . S
C468 C469 1.327 . S
C469 H463 0.950 . S
C469 C468 1.327 . S
C469 C473 1.429 . S
C470 C453 1.574 . S
C470 H464 0.949 . S
C470 C474 1.368 . S
C471 C452 1.429 . S
C471 C465 1.429 . S
C471 C472 1.523 . S
C472 C453 1.368 . S
C472 C466 1.368 . S
C472 C471 1.523 . S
C473 C457 1.429 . S
C473 C469 1.429 . S
C473 C474 1.523 . S
C474 C458 1.368 . S
C474 C470 1.368 . S
C474 C473 1.523 . S
H475 C450 0.950 . S
H476 C452 0.950 . S
H477 C453 0.949 . S
H478 C455 0.950 . S
H479 C457 0.950 . S
C126 C56 1.519 . S
C121 N41 1.521 . S
C151 N2 1.521 . S
C156 C99 1.519 . S
C181 N15 1.520 . S
C186 C65 1.519 . S
C211 N28 1.520 . S
C216 C90 1.519 . S
C246 C52 1.523 . S
C241 N5 1.518 . S
C276 C94 1.519 . S
C271 N14 1.515 . S
C301 N27 1.513 . S
C306 C60 1.518 . S
C331 N44 1.516 . S
C336 C86 1.522 . S
C366 C115 1.522 . S
C361 N18 1.515 . S
C396 C81 1.523 . S
C391 N31 1.517 . S
C426 C103 1.519 . S
C421 N40 1.517 . S
C451 N1 1.515 . S
C456 C69 1.518 . S
