# Generated by pormake.
# Topology tsx, (6,3)-cn, num edge types: 1
# Building blocks:
#     Node 0, Type 0, BuildingBlock: VOLQOD_clean_sbu_1, # of connection points: 6
#     Node 1, Type 0, BuildingBlock: VOLQOD_clean_sbu_1, # of connection points: 6
#     Node 2, Type 1, BuildingBlock: BETDAH_clean_linker_0, # of connection points: 3
#     Node 3, Type 1, BuildingBlock: BETDAH_clean_linker_0, # of connection points: 3
#     Node 4, Type 1, BuildingBlock: BETDAH_clean_linker_0, # of connection points: 3
#     Node 5, Type 1, BuildingBlock: BETDAH_clean_linker_0, # of connection points: 3
#     Edge 6, Type (0, 1), BuildingBlock: TEMPAE_clean_linker_10, # of connection points: 2
#     Edge 7, Type (0, 1), BuildingBlock: TEMPAE_clean_linker_10, # of connection points: 2
#     Edge 8, Type (0, 1), BuildingBlock: TEMPAE_clean_linker_10, # of connection points: 2
#     Edge 9, Type (0, 1), BuildingBlock: TEMPAE_clean_linker_10, # of connection points: 2
#     Edge 10, Type (0, 1), BuildingBlock: TEMPAE_clean_linker_10, # of connection points: 2
#     Edge 11, Type (0, 1), BuildingBlock: TEMPAE_clean_linker_10, # of connection points: 2
#     Edge 12, Type (0, 1), BuildingBlock: TEMPAE_clean_linker_10, # of connection points: 2
#     Edge 13, Type (0, 1), BuildingBlock: TEMPAE_clean_linker_10, # of connection points: 2
#     Edge 14, Type (0, 1), BuildingBlock: TEMPAE_clean_linker_10, # of connection points: 2
#     Edge 15, Type (0, 1), BuildingBlock: TEMPAE_clean_linker_10, # of connection points: 2
#     Edge 16, Type (0, 1), BuildingBlock: TEMPAE_clean_linker_10, # of connection points: 2
#     Edge 17, Type (0, 1), BuildingBlock: TEMPAE_clean_linker_10, # of connection points: 2
# Relax obj value: 0.053
# Max RMSD: 0.112
# Mean RMSD: 0.100
data_MOF--net-tsx--node1-VOLQOD_clean_sbu_1--node2-BETDAH_clean_linker_0--edge1-TEMPAE_clean_linker_10
_symmetry_space_group_name_H-M    P1
_symmetry_Int_Tables_number       1
_symmetry_cell_setting            triclinic
loop_
_symmetry_equiv_pos_as_xyz
'x, y, z'
_cell_length_a     21.427473
_cell_length_b     22.210852
_cell_length_c     37.750994
_cell_angle_alpha  90.259308
_cell_angle_beta   97.822792
_cell_angle_gamma 90.33952
loop_
_atom_site_label
_atom_site_type_symbol
_atom_site_fract_x
_atom_site_fract_y
_atom_site_fract_z
_atom_type_partial_charge
O0 O 0.04895 0.98308 0.09348 0.0
Zn1 Zn 0.07335 0.98404 0.04307 0.0
O2 O 0.00076 -0.00109 0.0067 0.0
Zn3 Zn 0.98203 0.92854 0.97553 0.0
Zn4 Zn 0.92958 0.01791 0.03121 0.0
Zn5 Zn 0.01698 0.067 0.97722 0.0
O6 O 0.98052 0.9501 0.92298 0.0
O7 O 0.02118 0.04239 0.92655 0.0
O8 O 0.11678 0.90731 0.03159 0.0
O9 O 0.05361 0.86985 0.98502 0.0
O10 O 0.90007 0.88792 0.98467 0.0
O11 O 0.86695 0.95089 0.024 0.0
O12 O 0.88694 0.09451 0.01378 0.0
O13 O 0.13722 0.05124 0.04263 0.0
O14 O 0.94881 0.12864 0.97574 0.0
O15 O 0.09753 0.10765 0.99671 0.0
C16 C 0.00134 0.00612 0.10531 0.0
C17 C 0.00208 0.99598 0.90826 0.0
C18 C 0.86027 0.90279 0.0054 0.0
C19 C 0.10382 0.86725 0.00734 0.0
C20 C 0.90045 0.13391 0.99164 0.0
C21 C 0.14035 0.09693 0.02265 0.0
O22 O 0.95458 0.02542 0.08411 0.0
O23 O 0.54634 0.49702 0.58698 0.0
Zn24 Zn 0.56548 0.49756 0.5358 0.0
O25 O 0.49082 0.51834 0.50235 0.0
Zn26 Zn 0.46967 0.45444 0.46735 0.0
Zn27 Zn 0.41986 0.52977 0.52869 0.0
Zn28 Zn 0.50655 0.59159 0.47697 0.0
O29 O 0.46099 0.48491 0.41651 0.0
O30 O 0.50203 0.57679 0.42419 0.0
O31 O 0.60197 0.41827 0.52194 0.0
O32 O 0.53932 0.39454 0.47194 0.0
O33 O 0.39259 0.40825 0.47694 0.0
O34 O 0.3591 0.45997 0.52098 0.0
O35 O 0.37554 0.60739 0.51514 0.0
O36 O 0.63315 0.56051 0.53465 0.0
O37 O 0.44151 0.65363 0.48348 0.0
O38 O 0.59165 0.62622 0.49414 0.0
C39 C 0.49887 0.5157 0.60084 0.0
C40 C 0.48019 0.53366 0.4038 0.0
C41 C 0.35439 0.41503 0.4997 0.0
C42 C 0.58728 0.38405 0.49481 0.0
C43 C 0.39147 0.65322 0.49821 0.0
C44 C 0.63698 0.6088 0.517 0.0
O45 O 0.44888 0.53253 0.58138 0.0
H46 H 0.09161 0.97288 0.36944 0.0
H47 H 0.90349 0.02977 0.38049 0.0
H48 H 0.0179 0.94506 0.46846 0.0
C49 C 0.05429 0.97901 0.38585 0.0
C50 C 0.06213 0.95726 0.42094 0.0
C51 C 0.99722 0.0049 0.37094 0.0
C52 C 0.94824 0.01109 0.39203 0.0
C53 C 0.95654 0.99038 0.42758 0.0
C54 C 0.01306 0.96324 0.44161 0.0
N55 N 0.90756 0.99197 0.44918 0.0
C56 C 0.86534 0.03897 0.44885 0.0
H57 H 0.95337 0.90495 0.64557 0.0
H58 H 0.11769 0.01342 0.63711 0.0
H59 H 0.03709 0.90366 0.54829 0.0
C60 C 0.98841 0.92171 0.62982 0.0
C61 C 0.98846 0.90039 0.5948 0.0
C62 C 0.03464 0.96235 0.64541 0.0
C63 C 0.08143 0.98236 0.62535 0.0
C64 C 0.08196 0.96085 0.59024 0.0
C65 C 0.03619 0.91953 0.57542 0.0
N66 N 0.12923 0.97817 0.56954 0.0
C67 C 0.14865 0.03736 0.56664 0.0
H68 H 0.60235 0.44885 0.86535 0.0
H69 H 0.50012 0.61026 0.88228 0.0
H70 H 0.61164 0.52473 0.97096 0.0
C71 C 0.58761 0.4825 0.88334 0.0
C72 C 0.61063 0.48006 0.9199 0.0
C73 C 0.54793 0.52921 0.86943 0.0
C74 C 0.53063 0.57387 0.89268 0.0
C75 C 0.55396 0.57201 0.92934 0.0
C76 C 0.59444 0.5258 0.94261 0.0
N77 N 0.53863 0.61661 0.9535 0.0
C78 C 0.47897 0.64109 0.95192 0.0
H79 H 0.4442 0.4278 0.15142 0.0
H80 H 0.49412 0.60479 0.11831 0.0
H81 H 0.41451 0.47459 0.04006 0.0
C82 C 0.44876 0.4598 0.13028 0.0
C83 C 0.42786 0.4438 0.09472 0.0
C84 C 0.47245 0.51774 0.139 0.0
C85 C 0.47695 0.5596 0.11165 0.0
C86 C 0.45691 0.54338 0.07579 0.0
C87 C 0.43194 0.48593 0.06762 0.0
N88 N 0.45805 0.58467 0.04747 0.0
C89 C 0.5051 0.62752 0.0468 0.0
C90 C 0.18771 0.19792 0.01497 0.0
C91 C 0.1923 0.141 0.03103 0.0
C92 C 0.23274 0.24279 0.02513 0.0
C93 C 0.2842 0.23019 0.05163 0.0
C94 C 0.2911 0.17192 0.06659 0.0
C95 C 0.24467 0.12802 0.05632 0.0
C96 C 0.22339 0.30465 0.0088 0.0
C97 C 0.34616 0.15668 0.09439 0.0
C98 C 0.41291 0.34894 0.05856 0.0
C99 C 0.39629 0.38525 0.08619 0.0
C100 C 0.37918 0.29591 0.04834 0.0
C101 C 0.32703 0.27993 0.06575 0.0
C102 C 0.31158 0.31543 0.09451 0.0
C103 C 0.34671 0.36754 0.10452 0.0
C104 C 0.39772 0.25841 0.01805 0.0
C105 C 0.25573 0.30035 0.11341 0.0
H106 H 0.14749 0.20839 0.99536 0.0
H107 H 0.24885 0.08393 0.06858 0.0
H108 H 0.21538 0.33777 0.02979 0.0
H109 H 0.26623 0.3192 0.99759 0.0
H110 H 0.18264 0.30612 0.98721 0.0
H111 H 0.34892 0.10763 0.09998 0.0
H112 H 0.39101 0.17169 0.08554 0.0
H113 H 0.34161 0.18083 0.11969 0.0
H114 H 0.45171 0.36254 0.04464 0.0
H115 H 0.33354 0.39601 0.12568 0.0
H116 H 0.36173 0.26305 0.99417 0.0
H117 H 0.39969 0.21007 0.02536 0.0
H118 H 0.44413 0.27234 0.01068 0.0
H119 H 0.21162 0.30476 0.09447 0.0
H120 H 0.2527 0.33031 0.13675 0.0
H121 H 0.25839 0.25306 0.12275 0.0
C122 C 0.14535 0.78688 0.9703 0.0
C123 C 0.15201 0.8217 0.00176 0.0
C124 C 0.1951 0.7516 0.96139 0.0
C125 C 0.2527 0.75059 0.98466 0.0
C126 C 0.2584 0.78243 0.01753 0.0
C127 C 0.20807 0.81779 0.02564 0.0
C128 C 0.18723 0.71825 0.9261 0.0
C129 C 0.31882 0.78159 0.04333 0.0
C130 C 0.376 0.63266 0.9728 0.0
C131 C 0.41868 0.66622 0.95594 0.0
C132 C 0.32105 0.65917 0.98193 0.0
C133 C 0.30859 0.72034 0.97341 0.0
C134 C 0.35086 0.75359 0.95507 0.0
C135 C 0.40585 0.72608 0.94675 0.0
C136 C 0.2777 0.62247 0.00184 0.0
C137 C 0.33904 0.81876 0.94527 0.0
H138 H 0.10229 0.78941 0.95164 0.0
H139 H 0.21361 0.84412 0.05013 0.0
H140 H 0.21799 0.73912 0.90811 0.0
H141 H 0.202 0.6707 0.93003 0.0
H142 H 0.13783 0.71905 0.91259 0.0
H143 H 0.31365 0.80386 0.06916 0.0
H144 H 0.33452 0.7346 0.04868 0.0
H145 H 0.35657 0.80515 0.0313 0.0
H146 H 0.38665 0.58622 0.97988 0.0
H147 H 0.4397 0.75182 0.93401 0.0
H148 H 0.22889 0.62362 0.98763 0.0
H149 H 0.27666 0.64225 0.0288 0.0
H150 H 0.29275 0.57479 0.00501 0.0
H151 H 0.29162 0.82371 0.92965 0.0
H152 H 0.37468 0.83713 0.92936 0.0
H153 H 0.34001 0.84631 0.96993 0.0
C154 C 0.78683 0.8169 0.98495 0.0
C155 C 0.80647 0.86259 0.00982 0.0
C156 C 0.73615 0.77863 0.98978 0.0
C157 C 0.70544 0.78568 0.02048 0.0
C158 C 0.72518 0.83161 0.04562 0.0
C159 C 0.77502 0.86971 0.03985 0.0
C160 C 0.71552 0.73062 0.96214 0.0
C161 C 0.69431 0.83995 0.07899 0.0
C162 C 0.54134 0.72258 0.02373 0.0
C163 C 0.55505 0.66878 0.04204 0.0
C164 C 0.58997 0.7604 0.01555 0.0
C165 C 0.65343 0.74442 0.02697 0.0
C166 C 0.66711 0.69031 0.04615 0.0
C167 C 0.61748 0.65269 0.05317 0.0
C168 C 0.57347 0.81712 0.99454 0.0
C169 C 0.73405 0.67232 0.05938 0.0
H170 H 0.81074 0.81132 0.96164 0.0
H171 H 0.79013 0.90454 0.05941 0.0
H172 H 0.7219 0.6854 0.97442 0.0
H173 H 0.66462 0.73544 0.95221 0.0
H174 H 0.74243 0.7327 0.93901 0.0
H175 H 0.71545 0.87782 0.09595 0.0
H176 H 0.64328 0.84866 0.07168 0.0
H177 H 0.69877 0.79813 0.09509 0.0
H178 H 0.49262 0.7345 0.01525 0.0
H179 H 0.62744 0.61055 0.06716 0.0
H180 H 0.59749 0.81764 0.9703 0.0
H181 H 0.59033 0.85711 0.01088 0.0
H182 H 0.52192 0.82141 0.98621 0.0
H183 H 0.76127 0.66813 0.03653 0.0
H184 H 0.73653 0.62892 0.074 0.0
H185 H 0.75734 0.70775 0.07745 0.0
C186 C 0.86714 0.2249 0.95542 0.0
C187 C 0.85894 0.18653 0.98387 0.0
C188 C 0.82707 0.27386 0.94695 0.0
C189 C 0.77795 0.28501 0.9676 0.0
C190 C 0.77018 0.24735 0.99683 0.0
C191 C 0.81063 0.19832 0.00453 0.0
C192 C 0.83642 0.31285 0.91538 0.0
C193 C 0.71859 0.25835 0.0196 0.0
C194 C 0.70537 0.44048 0.95899 0.0
C195 C 0.65176 0.42973 0.93398 0.0
C196 C 0.7461 0.39341 0.97102 0.0
C197 C 0.73303 0.3345 0.95745 0.0
C198 C 0.67828 0.32317 0.93284 0.0
C199 C 0.63813 0.37087 0.92158 0.0
C200 C 0.80389 0.40697 0.99751 0.0
C201 C 0.66288 0.2609 0.91774 0.0
H202 H 0.90429 0.21613 0.9393 0.0
H203 H 0.80425 0.16915 0.02671 0.0
H204 H 0.79403 0.31016 0.89495 0.0
H205 H 0.84247 0.36063 0.92389 0.0
H206 H 0.87806 0.29918 0.90273 0.0
H207 H 0.72097 0.22681 0.0425 0.0
H208 H 0.72169 0.30516 0.03011 0.0
H209 H 0.6719 0.25316 0.0031 0.0
H210 H 0.71641 0.48595 0.96846 0.0
H211 H 0.59607 0.36211 0.90279 0.0
H212 H 0.84687 0.39896 0.98482 0.0
H213 H 0.80585 0.37635 0.02077 0.0
H214 H 0.80491 0.45424 0.00733 0.0
H215 H 0.70087 0.24556 0.90264 0.0
H216 H 0.61751 0.25942 0.89957 0.0
H217 H 0.6603 0.22842 0.93973 0.0
C218 C 0.70491 0.69342 0.5008 0.0
C219 C 0.69398 0.64703 0.52435 0.0
C220 C 0.756 0.73314 0.50888 0.0
C221 C 0.79644 0.72672 0.5415 0.0
C222 C 0.787 0.67874 0.56478 0.0
C223 C 0.73606 0.63918 0.5558 0.0
C224 C 0.76531 0.78325 0.48316 0.0
C225 C 0.82889 0.67088 0.59999 0.0
C226 C 0.95395 0.80799 0.55872 0.0
C227 C 0.93885 0.85768 0.57893 0.0
C228 C 0.90766 0.76569 0.54538 0.0
C229 C 0.8452 0.77307 0.55284 0.0
C230 C 0.82942 0.82386 0.57247 0.0
C231 C 0.87634 0.86577 0.58502 0.0
C232 C 0.92588 0.71244 0.52409 0.0
C233 C 0.76326 0.83325 0.58098 0.0
H234 H 0.67296 0.69932 0.47623 0.0
H235 H 0.72791 0.60345 0.57413 0.0
H236 H 0.75554 0.82721 0.49528 0.0
H237 H 0.8149 0.78453 0.47772 0.0
H238 H 0.73386 0.77825 0.45737 0.0
H239 H 0.81771 0.62906 0.61395 0.0
H240 H 0.87907 0.66965 0.59572 0.0
H241 H 0.82328 0.7099 0.61773 0.0
H242 H 0.00226 0.80125 0.55412 0.0
H243 H 0.86412 0.9048 0.59993 0.0
H244 H 0.89389 0.70851 0.49847 0.0
H245 H 0.92087 0.67037 0.5392 0.0
H246 H 0.97518 0.71587 0.51819 0.0
H247 H 0.72956 0.8344 0.55594 0.0
H248 H 0.75867 0.87568 0.59608 0.0
H249 H 0.74928 0.79503 0.59709 0.0
C250 C 0.68393 0.32144 0.51126 0.0
C251 C 0.62736 0.33187 0.48878 0.0
C252 C 0.72308 0.27334 0.50469 0.0
C253 C 0.70511 0.23481 0.47502 0.0
C254 C 0.64787 0.24471 0.45247 0.0
C255 C 0.60973 0.29306 0.45961 0.0
C256 C 0.78385 0.26395 0.52934 0.0
C257 C 0.62705 0.20441 0.42065 0.0
C258 C 0.83133 0.14348 0.43828 0.0
C259 C 0.82307 0.08735 0.45353 0.0
C260 C 0.79304 0.19213 0.445 0.0
C261 C 0.74596 0.18386 0.46756 0.0
C262 C 0.73747 0.1267 0.48274 0.0
C263 C 0.77639 0.07896 0.47551 0.0
C264 C 0.80329 0.25238 0.4283 0.0
C265 C 0.68776 0.11617 0.50686 0.0
H266 H 0.698 0.3512 0.5338 0.0
H267 H 0.56608 0.30055 0.44208 0.0
H268 H 0.78427 0.21832 0.5412 0.0
H269 H 0.82435 0.26674 0.51396 0.0
H270 H 0.79086 0.29772 0.55134 0.0
H271 H 0.58101 0.21812 0.40582 0.0
H272 H 0.66283 0.20526 0.40199 0.0
H273 H 0.623 0.15718 0.42955 0.0
H274 H 0.86818 0.14946 0.42152 0.0
H275 H 0.77092 0.03523 0.48745 0.0
H276 H 0.8153 0.28688 0.44951 0.0
H277 H 0.75928 0.26702 0.41173 0.0
H278 H 0.84162 0.25113 0.41123 0.0
H279 H 0.69624 0.1465 0.53047 0.0
H280 H 0.68713 0.06891 0.51633 0.0
H281 H 0.64054 0.12699 0.49248 0.0
C282 C 0.31057 0.31162 0.48556 0.0
C283 C 0.30963 0.36563 0.50493 0.0
C284 C 0.27743 0.2606 0.49468 0.0
C285 C 0.2422 0.26369 0.52374 0.0
C286 C 0.23751 0.31908 0.54182 0.0
C287 C 0.27133 0.36941 0.53223 0.0
C288 C 0.2833 0.20239 0.47458 0.0
C289 C 0.19975 0.32432 0.57266 0.0
C290 C 0.13167 0.13241 0.53407 0.0
C291 C 0.16935 0.09691 0.55879 0.0
C292 C 0.15389 0.18797 0.52312 0.0
C293 C 0.21531 0.2077 0.53717 0.0
C294 C 0.25275 0.17223 0.56293 0.0
C295 C 0.22919 0.11698 0.57341 0.0
C296 C 0.11259 0.22451 0.49572 0.0
C297 C 0.31847 0.19166 0.57852 0.0
H298 H 0.33968 0.30819 0.4643 0.0
H299 H 0.26985 0.41098 0.54723 0.0
H300 H 0.31042 0.16949 0.49249 0.0
H301 H 0.23612 0.18238 0.46592 0.0
H302 H 0.30758 0.20879 0.45066 0.0
H303 H 0.1947 0.37184 0.58108 0.0
H304 H 0.15213 0.30435 0.56539 0.0
H305 H 0.22343 0.29883 0.59584 0.0
H306 H 0.08545 0.11603 0.52265 0.0
H307 H 0.25818 0.08876 0.59233 0.0
H308 H 0.13391 0.22634 0.47056 0.0
H309 H 0.10914 0.27151 0.5053 0.0
H310 H 0.06433 0.20524 0.48964 0.0
H311 H 0.34885 0.1941 0.55699 0.0
H312 H 0.34026 0.16024 0.59938 0.0
H313 H 0.31749 0.23732 0.59046 0.0
C314 C 0.28821 0.70224 0.50285 0.0
C315 C 0.34944 0.70594 0.49377 0.0
C316 C 0.24541 0.74925 0.49473 0.0
C317 C 0.26455 0.80111 0.47732 0.0
C318 C 0.32751 0.80701 0.47047 0.0
C319 C 0.36921 0.75915 0.4786 0.0
C320 C 0.17872 0.74199 0.5029 0.0
C321 C 0.3499 0.86267 0.45302 0.0
C322 C 0.13639 0.87424 0.41371 0.0
C323 C 0.11818 0.92167 0.4345 0.0
C324 C 0.18511 0.83568 0.42718 0.0
C325 C 0.21676 0.84521 0.4622 0.0
C326 C 0.20036 0.89459 0.48284 0.0
C327 C 0.15051 0.93193 0.46886 0.0
C328 C 0.20106 0.78333 0.40439 0.0
C329 C 0.23345 0.907 0.52007 0.0
H330 H 0.27275 0.66159 0.51495 0.0
H331 H 0.41684 0.76287 0.47213 0.0
H332 H 0.165 0.7819 0.51777 0.0
H333 H 0.1459 0.73888 0.47753 0.0
H334 H 0.17266 0.70106 0.51893 0.0
H335 H 0.40183 0.86325 0.45334 0.0
H336 H 0.32723 0.86477 0.42482 0.0
H337 H 0.336 0.90372 0.46681 0.0
H338 H 0.11072 0.86578 0.38736 0.0
H339 H 0.1364 0.96879 0.4849 0.0
H340 H 0.19186 0.74031 0.41766 0.0
H341 H 0.25183 0.78453 0.40138 0.0
H342 H 0.17318 0.78345 0.37733 0.0
H343 H 0.20973 0.88111 0.53954 0.0
H344 H 0.23126 0.95552 0.52701 0.0
H345 H 0.2836 0.89333 0.52313 0.0
C346 C 0.95902 0.05242 0.1576 0.0
C347 C -0.00057 0.0109 0.14435 0.0
C348 C 0.95534 0.05713 0.19435 0.0
C349 C 0.99204 0.01858 0.21846 0.0
C350 C 0.03297 0.97656 0.2053 0.0
C351 C 0.03666 0.97365 0.16843 0.0
C352 C 0.91222 0.10337 0.20737 0.0
C353 C 0.07222 0.93406 0.23013 0.0
C354 C 0.03065 0.05487 0.31747 0.0
C355 C 0.98785 0.01774 0.33217 0.0
C356 C 0.03052 0.05789 0.28032 0.0
C357 C 0.9875 0.02177 0.25746 0.0
C358 C 0.94243 0.98612 0.27217 0.0
C359 C 0.94283 0.98494 0.30941 0.0
C360 C 0.07828 0.09761 0.26569 0.0
C361 C 0.89626 0.94645 0.24878 0.0
H362 H 0.93047 0.08178 0.13919 0.0
H363 H 0.06772 0.9413 0.15838 0.0
H364 H 0.87585 0.08068 0.22094 0.0
H365 H 0.93949 0.13364 0.22731 0.0
H366 H 0.88821 0.13117 0.18526 0.0
H367 H 0.10095 0.90345 0.21563 0.0
H368 H 0.10427 0.96003 0.25025 0.0
H369 H 0.04115 0.9064 0.24492 0.0
H370 H 0.0657 0.07993 0.3352 0.0
H371 H 0.91048 0.95543 0.32087 0.0
H372 H 0.05493 0.12585 0.24365 0.0
H373 H 0.1133 0.06923 0.25443 0.0
H374 H 0.10375 0.12753 0.28656 0.0
H375 H 0.87012 0.97307 0.22688 0.0
H376 H 0.86176 0.92441 0.26409 0.0
H377 H 0.92227 0.91094 0.23621 0.0
C378 C 0.99509 0.94238 0.84907 0.0
C379 C 0.00713 0.99524 0.86938 0.0
C380 C 0.002 0.94098 0.81258 0.0
C381 C 0.02109 0.99377 0.79591 0.0
C382 C 0.03299 0.04732 0.81618 0.0
C383 C 0.02599 0.04739 0.85262 0.0
C384 C 0.98896 0.88292 0.79184 0.0
C385 C 0.05296 0.1046 0.79934 0.0
C386 C 0.08809 0.97134 0.70847 0.0
C387 C 0.03456 0.98016 0.68333 0.0
C388 C 0.08499 0.97743 0.74529 0.0
C389 C 0.02712 0.9931 0.75706 0.0
C390 C 0.97393 0.00528 0.7316 0.0
C391 C 0.97828 -0.0015 0.69507 0.0
C392 C 0.14275 0.96414 0.77161 0.0
C393 C 0.91161 0.02287 0.74297 0.0
H394 H 0.98082 0.90181 0.86173 0.0
H395 H 0.03539 0.08857 0.86798 0.0
H396 H 0.9503 0.88958 0.76952 0.0
H397 H 0.0313 0.86933 0.77989 0.0
H398 H 0.97553 0.84559 0.80884 0.0
H399 H 0.06085 0.14238 0.81885 0.0
H400 H 0.09707 0.09699 0.78766 0.0
H401 H 0.0164 0.11811 0.77717 0.0
H402 H 0.13144 0.95656 0.69945 0.0
H403 H 0.93693 0.00565 0.67559 0.0
H404 H 0.13439 0.92302 0.78691 0.0
H405 H 0.15239 0.00161 0.79115 0.0
H406 H 0.18519 0.95704 0.75819 0.0
H407 H 0.89256 0.98482 0.75724 0.0
H408 H 0.87624 0.03517 0.71987 0.0
H409 H 0.91806 0.06156 0.76183 0.0
C410 C 0.55786 0.50649 0.66268 0.0
C411 C 0.50179 0.51919 0.6403 0.0
C412 C 0.56125 0.51073 0.70001 0.0
C413 C 0.50721 0.52787 0.71535 0.0
C414 C 0.4505 0.54077 0.69298 0.0
C415 C 0.44847 0.53636 0.65575 0.0
C416 C 0.62264 0.49665 0.72306 0.0
C417 C 0.39187 0.5589 0.70838 0.0
C418 C 0.50653 0.47954 0.81144 0.0
C419 C 0.52811 0.53185 0.83029 0.0
C420 C 0.49722 0.47831 0.77398 0.0
C421 C 0.5099 0.53067 0.7549 0.0
C422 C 0.52859 0.58454 0.77377 0.0
C423 C 0.53736 0.58452 0.81133 0.0
C424 C 0.47653 0.42019 0.75486 0.0
C425 C 0.54236 0.64131 0.75433 0.0
H426 H 0.59935 0.49344 0.65105 0.0
H427 H 0.40485 0.54629 0.63875 0.0
H428 H 0.63825 0.53586 0.74041 0.0
H429 H 0.6159 0.45825 0.74087 0.0
H430 H 0.66066 0.48515 0.70695 0.0
H431 H 0.35177 0.5684 0.68729 0.0
H432 H 0.37764 0.5225 0.72571 0.0
H433 H 0.40154 0.59964 0.7254 0.0
H434 H 0.49873 0.43894 0.82612 0.0
H435 H 0.55453 0.62486 0.82585 0.0
H436 H 0.51502 0.40297 0.74076 0.0
H437 H 0.43518 0.42803 0.73437 0.0
H438 H 0.46408 0.38491 0.77351 0.0
H439 H 0.58446 0.63446 0.74065 0.0
H440 H 0.55127 0.68056 0.77271 0.0
H441 H 0.50243 0.65199 0.73344 0.0
C442 C 0.44309 0.50064 0.34095 0.0
C443 C 0.47992 0.53947 0.36471 0.0
C444 C 0.44462 0.50405 0.30397 0.0
C445 C 0.48481 0.54661 0.29049 0.0
C446 C 0.52159 0.58639 0.31427 0.0
C447 C 0.51832 0.58268 0.35109 0.0
C448 C 0.40388 0.46145 0.27936 0.0
C449 C 0.56568 0.63167 0.30095 0.0
C450 C 0.52848 0.50133 0.20028 0.0
C451 C 0.48561 0.53484 0.1771 0.0
C452 C 0.5316 0.5077 0.23745 0.0
C453 C 0.48977 0.54752 0.25159 0.0
C454 C 0.44879 0.58388 0.2282 0.0
C455 C 0.44754 0.57737 0.19109 0.0
C456 C 0.57694 0.46909 0.26149 0.0
C457 C 0.40304 0.62636 0.2422 0.0
H458 H 0.41303 0.46743 0.35125 0.0
H459 H 0.54726 0.61263 0.3693 0.0
H460 H 0.37419 0.48717 0.25834 0.0
H461 H 0.43407 0.43116 0.26568 0.0
H462 H 0.37269 0.43337 0.29388 0.0
H463 H 0.58913 0.66106 0.32274 0.0
H464 H 0.60249 0.60777 0.28843 0.0
H465 H 0.53964 0.66046 0.28007 0.0
H466 H 0.55763 0.46825 0.18927 0.0
H467 H 0.41375 0.60254 0.17302 0.0
H468 H 0.55029 0.43422 0.27425 0.0
H469 H 0.60319 0.49674 0.2832 0.0
H470 H 0.61134 0.44618 0.24657 0.0
H471 H 0.36634 0.59991 0.25346 0.0
H472 H 0.37947 0.65609 0.22093 0.0
H473 H 0.42741 0.65483 0.2641 0.0
loop_
_geom_bond_atom_site_label_1
_geom_bond_atom_site_label_2
_geom_bond_distance
_geom_bond_site_symmetry_2
_ccdc_geom_bond_type
O0 Zn1 1.953 . S
O0 C16 1.225 1_565 S
Zn1 O0 1.953 . S
Zn1 O2 1.949 1_565 S
Zn1 O8 1.919 . S
Zn1 O13 1.924 1_565 S
O2 Zn1 1.949 1_545 S
O2 Zn3 1.923 1_444 S
O2 Zn4 1.950 1_455 S
O2 Zn5 1.945 1_554 S
Zn3 O2 1.923 1_666 S
Zn3 O6 1.933 . S
Zn3 O9 1.941 1_655 S
Zn3 O10 1.965 . S
Zn4 O2 1.950 1_655 S
Zn4 O11 1.938 1_545 S
Zn4 O12 1.906 . S
Zn4 O22 1.953 . S
Zn5 O2 1.945 1_556 S
Zn5 O7 1.932 . S
Zn5 O14 1.977 1_455 S
Zn5 O15 1.910 . S
O6 Zn3 1.933 . S
O6 C17 1.226 1_565 S
O7 Zn5 1.932 . S
O7 C17 1.307 1_455 S
O8 Zn1 1.919 . S
O8 C19 1.253 1_554 S
O9 Zn3 1.941 1_455 S
O9 C19 1.283 . S
O10 Zn3 1.965 . S
O10 C18 1.303 1_556 S
O11 Zn4 1.938 1_565 S
O11 C18 1.247 . S
O12 Zn4 1.906 . S
O12 C20 1.304 1_554 S
O13 Zn1 1.924 1_545 S
O13 C21 1.311 . S
O14 Zn5 1.977 1_655 S
O14 C20 1.272 . S
O15 Zn5 1.910 . S
O15 C21 1.231 1_556 S
C16 O0 1.225 1_545 S
C16 O22 1.298 1_455 S
C17 O6 1.226 1_545 S
C17 O7 1.307 1_655 S
C18 O10 1.303 1_554 S
C18 O11 1.247 . S
C19 O8 1.253 1_556 S
C19 O9 1.283 . S
C20 O12 1.304 1_556 S
C20 O14 1.272 . S
C21 O13 1.311 . S
C21 O15 1.231 1_554 S
O22 Zn4 1.953 . S
O22 C16 1.298 1_655 S
O23 Zn24 1.953 . S
O23 C39 1.225 . S
Zn24 O23 1.953 . S
Zn24 O25 1.949 . S
Zn24 O31 1.919 . S
Zn24 O36 1.924 . S
O25 Zn24 1.949 . S
O25 Zn26 1.923 . S
O25 Zn27 1.950 . S
O25 Zn28 1.945 . S
Zn26 O25 1.923 . S
Zn26 O29 1.933 . S
Zn26 O32 1.941 . S
Zn26 O33 1.965 . S
Zn27 O25 1.950 . S
Zn27 O34 1.938 . S
Zn27 O35 1.906 . S
Zn27 O45 1.953 . S
Zn28 O25 1.945 . S
Zn28 O30 1.932 . S
Zn28 O37 1.977 . S
Zn28 O38 1.910 . S
O29 Zn26 1.933 . S
O29 C40 1.226 . S
O30 Zn28 1.932 . S
O30 C40 1.307 . S
O31 Zn24 1.919 . S
O31 C42 1.253 . S
O32 Zn26 1.941 . S
O32 C42 1.283 . S
O33 Zn26 1.965 . S
O33 C41 1.303 . S
O34 Zn27 1.938 . S
O34 C41 1.247 . S
O35 Zn27 1.906 . S
O35 C43 1.304 . S
O36 Zn24 1.924 . S
O36 C44 1.311 . S
O37 Zn28 1.977 . S
O37 C43 1.272 . S
O38 Zn28 1.910 . S
O38 C44 1.231 . S
C39 O23 1.225 . S
C39 O45 1.298 . S
C40 O29 1.226 . S
C40 O30 1.307 . S
C41 O33 1.303 . S
C41 O34 1.247 . S
C42 O31 1.253 . S
C42 O32 1.283 . S
C43 O35 1.304 . S
C43 O37 1.272 . S
C44 O36 1.311 . S
C44 O38 1.231 . S
O45 Zn27 1.953 . S
O45 C39 1.298 . S
H46 C49 0.929 . S
H47 C52 0.929 . S
H48 C54 0.930 . S
C49 H46 0.929 . S
C49 C50 1.398 . S
C49 C51 1.385 1_565 S
C50 C49 1.398 . S
C50 C54 1.407 . S
C51 C49 1.385 1_545 S
C51 C52 1.402 1_455 S
C52 H47 0.929 . S
C52 C51 1.402 1_655 S
C52 C53 1.382 . S
C53 C52 1.382 . S
C53 C54 1.392 1_645 S
C53 N55 1.420 . S
C54 H48 0.930 . S
C54 C50 1.407 . S
C54 C53 1.392 1_465 S
N55 C53 1.420 . S
N55 C56 1.244 . S
C56 N55 1.244 . S
H57 C60 0.929 . S
H58 C63 0.929 . S
H59 C65 0.930 . S
C60 H57 0.929 . S
C60 C61 1.398 . S
C60 C62 1.396 1_565 S
C61 C60 1.398 . S
C61 C65 1.407 . S
C62 C60 1.396 1_545 S
C62 C63 1.394 1_655 S
C63 H58 0.929 . S
C63 C62 1.394 1_455 S
C63 C64 1.382 . S
C64 C63 1.382 . S
C64 C65 1.392 1_445 S
C64 N66 1.420 . S
C65 H59 0.930 . S
C65 C61 1.407 . S
C65 C64 1.392 1_665 S
N66 C64 1.420 . S
N66 C67 1.244 . S
C67 N66 1.244 . S
H68 C71 0.929 . S
H69 C74 0.929 . S
H70 C76 0.930 . S
C71 H68 0.929 . S
C71 C72 1.398 . S
C71 C73 1.396 . S
C72 C71 1.398 . S
C72 C76 1.407 . S
C73 C71 1.396 . S
C73 C74 1.394 . S
C74 H69 0.929 . S
C74 C73 1.394 . S
C74 C75 1.382 . S
C75 C74 1.382 . S
C75 C76 1.392 . S
C75 N77 1.420 . S
C76 H70 0.930 . S
C76 C72 1.407 . S
C76 C75 1.392 . S
N77 C75 1.420 . S
N77 C78 1.244 . S
C78 N77 1.244 . S
H79 C82 0.929 . S
H80 C85 0.929 . S
H81 C87 0.930 . S
C82 H79 0.929 . S
C82 C83 1.398 . S
C82 C84 1.396 . S
C83 C82 1.398 . S
C83 C87 1.407 . S
C84 C82 1.396 . S
C84 C85 1.394 . S
C85 H80 0.929 . S
C85 C84 1.394 . S
C85 C86 1.382 . S
C86 C85 1.382 . S
C86 C87 1.392 . S
C86 N88 1.420 . S
C87 H81 0.930 . S
C87 C83 1.407 . S
C87 C86 1.392 . S
N88 C86 1.420 . S
N88 C89 1.244 . S
C89 N88 1.244 . S
C90 C91 1.391 . S
C90 C92 1.394 . S
C90 H106 0.931 . S
C91 C90 1.391 . S
C91 C95 1.376 . S
C92 C90 1.394 . S
C92 C93 1.369 . S
C92 C96 1.531 . S
C93 C92 1.369 . S
C93 C94 1.410 . S
C93 C101 1.503 . S
C94 C93 1.410 . S
C94 C95 1.392 . S
C94 C97 1.511 . S
C95 C91 1.376 . S
C95 C94 1.392 . S
C95 H107 0.929 . S
C96 C92 1.531 . S
C96 H108 0.960 . S
C96 H109 0.962 . S
C96 H110 0.960 . S
C97 C94 1.511 . S
C97 H111 0.961 . S
C97 H112 0.961 . S
C97 H113 0.961 . S
C98 C99 1.370 . S
C98 C100 1.363 . S
C98 H114 0.931 . S
C99 C98 1.370 . S
C99 C103 1.408 . S
C100 C98 1.363 . S
C100 C101 1.370 . S
C100 C104 1.524 . S
C101 C93 1.503 . S
C101 C100 1.370 . S
C101 C102 1.403 . S
C102 C101 1.403 . S
C102 C103 1.404 . S
C102 C105 1.539 . S
C103 C99 1.408 . S
C103 C102 1.404 . S
C103 H115 0.930 . S
C104 C100 1.524 . S
C104 H116 0.956 1_554 S
C104 H117 0.961 . S
C104 H118 0.961 1_554 S
C105 C102 1.539 . S
C105 H119 0.958 . S
C105 H120 0.961 . S
C105 H121 0.960 . S
H106 C90 0.931 . S
H107 C95 0.929 . S
H108 C96 0.960 . S
H109 C96 0.962 . S
H110 C96 0.960 . S
H111 C97 0.961 . S
H112 C97 0.961 . S
H113 C97 0.961 . S
H114 C98 0.931 . S
H115 C103 0.930 . S
H116 C104 0.956 1_556 S
H117 C104 0.961 . S
H118 C104 0.961 1_556 S
H119 C105 0.958 . S
H120 C105 0.961 . S
H121 C105 0.960 . S
C122 C123 1.391 . S
C122 C124 1.394 . S
C122 H138 0.931 . S
C123 C122 1.391 . S
C123 C127 1.376 . S
C124 C122 1.394 . S
C124 C125 1.369 . S
C124 C128 1.531 . S
C125 C124 1.369 . S
C125 C126 1.410 . S
C125 C133 1.503 . S
C126 C125 1.410 . S
C126 C127 1.392 . S
C126 C129 1.511 . S
C127 C123 1.376 . S
C127 C126 1.392 . S
C127 H139 0.921 1_556 S
C128 C124 1.531 . S
C128 H140 0.960 . S
C128 H141 0.962 . S
C128 H142 0.960 . S
C129 C126 1.511 . S
C129 H143 0.961 1_556 S
C129 H144 0.961 . S
C129 H145 0.961 . S
C130 C131 1.370 . S
C130 C132 1.363 . S
C130 H146 0.931 . S
C131 C130 1.370 . S
C131 C135 1.408 . S
C132 C130 1.363 . S
C132 C133 1.370 . S
C132 C136 1.524 1_556 S
C133 C125 1.503 . S
C133 C132 1.370 . S
C133 C134 1.403 . S
C134 C133 1.403 . S
C134 C135 1.404 . S
C134 C137 1.539 . S
C135 C131 1.408 . S
C135 C134 1.404 . S
C135 H147 0.930 . S
C136 C132 1.524 1_554 S
C136 H148 0.956 . S
C136 H149 0.961 . S
C136 H150 0.961 . S
C137 C134 1.539 . S
C137 H151 0.958 . S
C137 H152 0.961 . S
C137 H153 0.960 . S
H138 C122 0.931 . S
H139 C127 0.921 1_554 S
H140 C128 0.960 . S
H141 C128 0.962 . S
H142 C128 0.960 . S
H143 C129 0.961 1_554 S
H144 C129 0.961 . S
H145 C129 0.961 . S
H146 C130 0.931 . S
H147 C135 0.930 . S
H148 C136 0.956 . S
H149 C136 0.961 . S
H150 C136 0.961 . S
H151 C137 0.958 . S
H152 C137 0.961 . S
H153 C137 0.960 . S
C154 C155 1.391 . S
C154 C156 1.394 . S
C154 H170 0.931 . S
C155 C154 1.391 . S
C155 C159 1.376 . S
C156 C154 1.394 . S
C156 C157 1.369 . S
C156 C160 1.531 . S
C157 C156 1.369 . S
C157 C158 1.410 . S
C157 C165 1.503 . S
C158 C157 1.410 . S
C158 C159 1.392 . S
C158 C161 1.511 . S
C159 C155 1.376 . S
C159 C158 1.392 . S
C159 H171 0.937 . S
C160 C156 1.531 . S
C160 H172 0.960 . S
C160 H173 0.962 . S
C160 H174 0.960 . S
C161 C158 1.511 . S
C161 H175 0.961 1_554 S
C161 H176 0.961 . S
C161 H177 0.961 . S
C162 C163 1.370 . S
C162 C164 1.363 . S
C162 H178 0.931 . S
C163 C162 1.370 . S
C163 C167 1.408 . S
C164 C162 1.363 . S
C164 C165 1.370 . S
C164 C168 1.524 1_554 S
C165 C157 1.503 . S
C165 C164 1.370 . S
C165 C166 1.403 . S
C166 C165 1.403 . S
C166 C167 1.404 . S
C166 C169 1.539 . S
C167 C163 1.408 . S
C167 C166 1.404 . S
C167 H179 0.930 . S
C168 C164 1.524 1_556 S
C168 H180 0.956 . S
C168 H181 0.961 . S
C168 H182 0.961 . S
C169 C166 1.539 . S
C169 H183 0.958 . S
C169 H184 0.961 . S
C169 H185 0.960 . S
H170 C154 0.931 . S
H171 C159 0.937 . S
H172 C160 0.960 . S
H173 C160 0.962 . S
H174 C160 0.960 . S
H175 C161 0.961 1_556 S
H176 C161 0.961 . S
H177 C161 0.961 . S
H178 C162 0.931 . S
H179 C167 0.930 . S
H180 C168 0.956 . S
H181 C168 0.961 . S
H182 C168 0.961 . S
H183 C169 0.958 . S
H184 C169 0.961 . S
H185 C169 0.960 . S
C186 C187 1.391 . S
C186 C188 1.394 . S
C186 H202 0.931 . S
C187 C186 1.391 . S
C187 C191 1.376 . S
C188 C186 1.394 . S
C188 C189 1.369 . S
C188 C192 1.531 . S
C189 C188 1.369 . S
C189 C190 1.410 . S
C189 C197 1.503 . S
C190 C189 1.410 . S
C190 C191 1.392 . S
C190 C193 1.511 . S
C191 C187 1.376 . S
C191 C190 1.392 . S
C191 H203 0.929 . S
C192 C188 1.531 . S
C192 H204 0.960 . S
C192 H205 0.962 . S
C192 H206 0.960 . S
C193 C190 1.511 . S
C193 H207 0.961 . S
C193 H208 0.961 . S
C193 H209 0.961 . S
C194 C195 1.370 . S
C194 C196 1.363 . S
C194 H210 0.931 . S
C195 C194 1.370 . S
C195 C199 1.408 . S
C196 C194 1.363 . S
C196 C197 1.370 . S
C196 C200 1.524 1_556 S
C197 C189 1.503 . S
C197 C196 1.370 . S
C197 C198 1.403 . S
C198 C197 1.403 . S
C198 C199 1.404 . S
C198 C201 1.539 . S
C199 C195 1.408 . S
C199 C198 1.404 . S
C199 H211 0.930 . S
C200 C196 1.524 1_554 S
C200 H212 0.956 . S
C200 H213 0.961 . S
C200 H214 0.961 . S
C201 C198 1.539 . S
C201 H215 0.958 . S
C201 H216 0.961 . S
C201 H217 0.960 . S
H202 C186 0.931 . S
H203 C191 0.929 . S
H204 C192 0.960 . S
H205 C192 0.962 . S
H206 C192 0.960 . S
H207 C193 0.961 . S
H208 C193 0.961 . S
H209 C193 0.961 . S
H210 C194 0.931 . S
H211 C199 0.930 . S
H212 C200 0.956 . S
H213 C200 0.961 . S
H214 C200 0.961 . S
H215 C201 0.958 . S
H216 C201 0.961 . S
H217 C201 0.960 . S
C218 C219 1.391 . S
C218 C220 1.394 . S
C218 H234 0.931 . S
C219 C218 1.391 . S
C219 C223 1.376 . S
C220 C218 1.394 . S
C220 C221 1.369 . S
C220 C224 1.531 . S
C221 C220 1.369 . S
C221 C222 1.410 . S
C221 C229 1.503 . S
C222 C221 1.410 . S
C222 C223 1.392 . S
C222 C225 1.511 . S
C223 C219 1.376 . S
C223 C222 1.392 . S
C223 H235 0.929 . S
C224 C220 1.531 . S
C224 H236 0.960 . S
C224 H237 0.962 . S
C224 H238 0.960 . S
C225 C222 1.511 . S
C225 H239 0.961 . S
C225 H240 0.961 . S
C225 H241 0.961 . S
C226 C227 1.370 . S
C226 C228 1.363 . S
C226 H242 0.931 . S
C227 C226 1.370 . S
C227 C231 1.408 . S
C228 C226 1.363 . S
C228 C229 1.370 . S
C228 C232 1.524 . S
C229 C221 1.503 . S
C229 C228 1.370 . S
C229 C230 1.403 . S
C230 C229 1.403 . S
C230 C231 1.404 . S
C230 C233 1.539 . S
C231 C227 1.408 . S
C231 C230 1.404 . S
C231 H243 0.930 . S
C232 C228 1.524 . S
C232 H244 0.956 . S
C232 H245 0.961 . S
C232 H246 0.961 . S
C233 C230 1.539 . S
C233 H247 0.958 . S
C233 H248 0.961 . S
C233 H249 0.960 . S
H234 C218 0.931 . S
H235 C223 0.929 . S
H236 C224 0.960 . S
H237 C224 0.962 . S
H238 C224 0.960 . S
H239 C225 0.961 . S
H240 C225 0.961 . S
H241 C225 0.961 . S
H242 C226 0.931 . S
H243 C231 0.930 . S
H244 C232 0.956 . S
H245 C232 0.961 . S
H246 C232 0.961 . S
H247 C233 0.958 . S
H248 C233 0.961 . S
H249 C233 0.960 . S
C250 C251 1.391 . S
C250 C252 1.394 . S
C250 H266 0.931 . S
C251 C250 1.391 . S
C251 C255 1.376 . S
C252 C250 1.394 . S
C252 C253 1.369 . S
C252 C256 1.531 . S
C253 C252 1.369 . S
C253 C254 1.410 . S
C253 C261 1.503 . S
C254 C253 1.410 . S
C254 C255 1.392 . S
C254 C257 1.511 . S
C255 C251 1.376 . S
C255 C254 1.392 . S
C255 H267 0.929 . S
C256 C252 1.531 . S
C256 H268 0.960 . S
C256 H269 0.962 . S
C256 H270 0.960 . S
C257 C254 1.511 . S
C257 H271 0.961 . S
C257 H272 0.961 . S
C257 H273 0.961 . S
C258 C259 1.370 . S
C258 C260 1.363 . S
C258 H274 0.931 . S
C259 C258 1.370 . S
C259 C263 1.408 . S
C260 C258 1.363 . S
C260 C261 1.370 . S
C260 C264 1.524 . S
C261 C253 1.503 . S
C261 C260 1.370 . S
C261 C262 1.403 . S
C262 C261 1.403 . S
C262 C263 1.404 . S
C262 C265 1.539 . S
C263 C259 1.408 . S
C263 C262 1.404 . S
C263 H275 0.930 . S
C264 C260 1.524 . S
C264 H276 0.956 . S
C264 H277 0.961 . S
C264 H278 0.961 . S
C265 C262 1.539 . S
C265 H279 0.958 . S
C265 H280 0.961 . S
C265 H281 0.960 . S
H266 C250 0.931 . S
H267 C255 0.929 . S
H268 C256 0.960 . S
H269 C256 0.962 . S
H270 C256 0.960 . S
H271 C257 0.961 . S
H272 C257 0.961 . S
H273 C257 0.961 . S
H274 C258 0.931 . S
H275 C263 0.930 . S
H276 C264 0.956 . S
H277 C264 0.961 . S
H278 C264 0.961 . S
H279 C265 0.958 . S
H280 C265 0.961 . S
H281 C265 0.960 . S
C282 C283 1.391 . S
C282 C284 1.394 . S
C282 H298 0.931 . S
C283 C282 1.391 . S
C283 C287 1.376 . S
C284 C282 1.394 . S
C284 C285 1.369 . S
C284 C288 1.531 . S
C285 C284 1.369 . S
C285 C286 1.410 . S
C285 C293 1.503 . S
C286 C285 1.410 . S
C286 C287 1.392 . S
C286 C289 1.511 . S
C287 C283 1.376 . S
C287 C286 1.392 . S
C287 H299 0.929 . S
C288 C284 1.531 . S
C288 H300 0.960 . S
C288 H301 0.962 . S
C288 H302 0.960 . S
C289 C286 1.511 . S
C289 H303 0.961 . S
C289 H304 0.961 . S
C289 H305 0.961 . S
C290 C291 1.370 . S
C290 C292 1.363 . S
C290 H306 0.931 . S
C291 C290 1.370 . S
C291 C295 1.408 . S
C292 C290 1.363 . S
C292 C293 1.370 . S
C292 C296 1.524 . S
C293 C285 1.503 . S
C293 C292 1.370 . S
C293 C294 1.403 . S
C294 C293 1.403 . S
C294 C295 1.404 . S
C294 C297 1.539 . S
C295 C291 1.408 . S
C295 C294 1.404 . S
C295 H307 0.930 . S
C296 C292 1.524 . S
C296 H308 0.956 . S
C296 H309 0.961 . S
C296 H310 0.961 . S
C297 C294 1.539 . S
C297 H311 0.958 . S
C297 H312 0.961 . S
C297 H313 0.960 . S
H298 C282 0.931 . S
H299 C287 0.929 . S
H300 C288 0.960 . S
H301 C288 0.962 . S
H302 C288 0.960 . S
H303 C289 0.961 . S
H304 C289 0.961 . S
H305 C289 0.961 . S
H306 C290 0.931 . S
H307 C295 0.930 . S
H308 C296 0.956 . S
H309 C296 0.961 . S
H310 C296 0.961 . S
H311 C297 0.958 . S
H312 C297 0.961 . S
H313 C297 0.960 . S
C314 C315 1.391 . S
C314 C316 1.394 . S
C314 H330 0.931 . S
C315 C314 1.391 . S
C315 C319 1.376 . S
C316 C314 1.394 . S
C316 C317 1.369 . S
C316 C320 1.531 . S
C317 C316 1.369 . S
C317 C318 1.410 . S
C317 C325 1.503 . S
C318 C317 1.410 . S
C318 C319 1.392 . S
C318 C321 1.511 . S
C319 C315 1.376 . S
C319 C318 1.392 . S
C319 H331 0.929 . S
C320 C316 1.531 . S
C320 H332 0.960 . S
C320 H333 0.962 . S
C320 H334 0.960 . S
C321 C318 1.511 . S
C321 H335 0.961 . S
C321 H336 0.961 . S
C321 H337 0.961 . S
C322 C323 1.370 . S
C322 C324 1.363 . S
C322 H338 0.931 . S
C323 C322 1.370 . S
C323 C327 1.408 . S
C324 C322 1.363 . S
C324 C325 1.370 . S
C324 C328 1.524 . S
C325 C317 1.503 . S
C325 C324 1.370 . S
C325 C326 1.403 . S
C326 C325 1.403 . S
C326 C327 1.404 . S
C326 C329 1.539 . S
C327 C323 1.408 . S
C327 C326 1.404 . S
C327 H339 0.930 . S
C328 C324 1.524 . S
C328 H340 0.956 . S
C328 H341 0.961 . S
C328 H342 0.961 . S
C329 C326 1.539 . S
C329 H343 0.958 . S
C329 H344 0.961 . S
C329 H345 0.960 . S
H330 C314 0.931 . S
H331 C319 0.929 . S
H332 C320 0.960 . S
H333 C320 0.962 . S
H334 C320 0.960 . S
H335 C321 0.961 . S
H336 C321 0.961 . S
H337 C321 0.961 . S
H338 C322 0.931 . S
H339 C327 0.930 . S
H340 C328 0.956 . S
H341 C328 0.961 . S
H342 C328 0.961 . S
H343 C329 0.958 . S
H344 C329 0.961 . S
H345 C329 0.960 . S
C346 C347 1.391 1_655 S
C346 C348 1.394 . S
C346 H362 0.931 . S
C347 C346 1.391 1_455 S
C347 C351 1.376 1_545 S
C348 C346 1.394 . S
C348 C349 1.369 1_645 S
C348 C352 1.531 . S
C349 C348 1.369 1_465 S
C349 C350 1.410 . S
C349 C357 1.503 . S
C350 C349 1.410 . S
C350 C351 1.392 . S
C350 C353 1.511 . S
C351 C347 1.376 1_565 S
C351 C350 1.392 . S
C351 H363 0.929 . S
C352 C348 1.531 . S
C352 H364 0.960 1_545 S
C352 H365 0.962 . S
C352 H366 0.960 . S
C353 C350 1.511 . S
C353 H367 0.961 . S
C353 H368 0.961 . S
C353 H369 0.961 . S
C354 C355 1.370 . S
C354 C356 1.363 . S
C354 H370 0.931 . S
C355 C354 1.370 . S
C355 C359 1.408 1_545 S
C356 C354 1.363 . S
C356 C357 1.370 1_545 S
C356 C360 1.524 . S
C357 C349 1.503 . S
C357 C356 1.370 1_565 S
C357 C358 1.403 . S
C358 C357 1.403 . S
C358 C359 1.404 . S
C358 C361 1.539 1_455 S
C359 C355 1.408 1_565 S
C359 C358 1.404 . S
C359 H371 0.930 1_455 S
C360 C356 1.524 . S
C360 H372 0.956 . S
C360 H373 0.961 . S
C360 H374 0.961 . S
C361 C358 1.539 1_655 S
C361 H375 0.958 . S
C361 H376 0.961 1_655 S
C361 H377 0.960 1_655 S
H362 C346 0.931 . S
H363 C351 0.929 . S
H364 C352 0.960 1_565 S
H365 C352 0.962 . S
H366 C352 0.960 . S
H367 C353 0.961 . S
H368 C353 0.961 . S
H369 C353 0.961 . S
H370 C354 0.931 . S
H371 C359 0.930 1_655 S
H372 C360 0.956 . S
H373 C360 0.961 . S
H374 C360 0.961 . S
H375 C361 0.958 . S
H376 C361 0.961 1_455 S
H377 C361 0.960 1_455 S
C378 C379 1.391 1_565 S
C378 C380 1.394 . S
C378 H394 0.931 . S
C379 C378 1.391 1_545 S
C379 C383 1.376 . S
C380 C378 1.394 . S
C380 C381 1.369 1_565 S
C380 C384 1.531 . S
C381 C380 1.369 1_545 S
C381 C382 1.410 . S
C381 C389 1.503 . S
C382 C381 1.410 . S
C382 C383 1.392 . S
C382 C385 1.511 . S
C383 C379 1.376 . S
C383 C382 1.392 . S
C383 H395 0.929 1_655 S
C384 C380 1.531 . S
C384 H396 0.960 . S
C384 H397 0.962 1_655 S
C384 H398 0.960 . S
C385 C382 1.511 . S
C385 H399 0.961 1_655 S
C385 H400 0.961 1_655 S
C385 H401 0.961 . S
C386 C387 1.370 1_455 S
C386 C388 1.363 . S
C386 H402 0.931 1_545 S
C387 C386 1.370 1_655 S
C387 C391 1.408 . S
C388 C386 1.363 . S
C388 C389 1.370 1_455 S
C388 C392 1.524 1_545 S
C389 C381 1.503 . S
C389 C388 1.370 1_655 S
C389 C390 1.403 . S
C390 C389 1.403 . S
C390 C391 1.404 . S
C390 C393 1.539 . S
C391 C387 1.408 . S
C391 C390 1.404 . S
C391 H403 0.930 . S
C392 C388 1.524 1_565 S
C392 H404 0.956 . S
C392 H405 0.961 1_565 S
C392 H406 0.961 . S
C393 C390 1.539 . S
C393 H407 0.958 1_545 S
C393 H408 0.961 . S
C393 H409 0.960 . S
H394 C378 0.931 . S
H395 C383 0.929 1_455 S
H396 C384 0.960 . S
H397 C384 0.962 1_455 S
H398 C384 0.960 . S
H399 C385 0.961 1_455 S
H400 C385 0.961 1_455 S
H401 C385 0.961 . S
H402 C386 0.931 1_565 S
H403 C391 0.930 . S
H404 C392 0.956 . S
H405 C392 0.961 1_545 S
H406 C392 0.961 . S
H407 C393 0.958 1_565 S
H408 C393 0.961 . S
H409 C393 0.960 . S
C410 C411 1.391 . S
C410 C412 1.394 . S
C410 H426 0.931 . S
C411 C410 1.391 . S
C411 C415 1.376 . S
C412 C410 1.394 . S
C412 C413 1.369 . S
C412 C416 1.531 . S
C413 C412 1.369 . S
C413 C414 1.410 . S
C413 C421 1.503 . S
C414 C413 1.410 . S
C414 C415 1.392 . S
C414 C417 1.511 . S
C415 C411 1.376 . S
C415 C414 1.392 . S
C415 H427 0.929 . S
C416 C412 1.531 . S
C416 H428 0.960 . S
C416 H429 0.962 . S
C416 H430 0.960 . S
C417 C414 1.511 . S
C417 H431 0.961 . S
C417 H432 0.961 . S
C417 H433 0.961 . S
C418 C419 1.370 . S
C418 C420 1.363 . S
C418 H434 0.931 . S
C419 C418 1.370 . S
C419 C423 1.408 . S
C420 C418 1.363 . S
C420 C421 1.370 . S
C420 C424 1.524 . S
C421 C413 1.503 . S
C421 C420 1.370 . S
C421 C422 1.403 . S
C422 C421 1.403 . S
C422 C423 1.404 . S
C422 C425 1.539 . S
C423 C419 1.408 . S
C423 C422 1.404 . S
C423 H435 0.930 . S
C424 C420 1.524 . S
C424 H436 0.956 . S
C424 H437 0.961 . S
C424 H438 0.961 . S
C425 C422 1.539 . S
C425 H439 0.958 . S
C425 H440 0.961 . S
C425 H441 0.960 . S
H426 C410 0.931 . S
H427 C415 0.929 . S
H428 C416 0.960 . S
H429 C416 0.962 . S
H430 C416 0.960 . S
H431 C417 0.961 . S
H432 C417 0.961 . S
H433 C417 0.961 . S
H434 C418 0.931 . S
H435 C423 0.930 . S
H436 C424 0.956 . S
H437 C424 0.961 . S
H438 C424 0.961 . S
H439 C425 0.958 . S
H440 C425 0.961 . S
H441 C425 0.960 . S
C442 C443 1.391 . S
C442 C444 1.394 . S
C442 H458 0.931 . S
C443 C442 1.391 . S
C443 C447 1.376 . S
C444 C442 1.394 . S
C444 C445 1.369 . S
C444 C448 1.531 . S
C445 C444 1.369 . S
C445 C446 1.410 . S
C445 C453 1.503 . S
C446 C445 1.410 . S
C446 C447 1.392 . S
C446 C449 1.511 . S
C447 C443 1.376 . S
C447 C446 1.392 . S
C447 H459 0.929 . S
C448 C444 1.531 . S
C448 H460 0.960 . S
C448 H461 0.962 . S
C448 H462 0.960 . S
C449 C446 1.511 . S
C449 H463 0.961 . S
C449 H464 0.961 . S
C449 H465 0.961 . S
C450 C451 1.370 . S
C450 C452 1.363 . S
C450 H466 0.931 . S
C451 C450 1.370 . S
C451 C455 1.408 . S
C452 C450 1.363 . S
C452 C453 1.370 . S
C452 C456 1.524 . S
C453 C445 1.503 . S
C453 C452 1.370 . S
C453 C454 1.403 . S
C454 C453 1.403 . S
C454 C455 1.404 . S
C454 C457 1.539 . S
C455 C451 1.408 . S
C455 C454 1.404 . S
C455 H467 0.930 . S
C456 C452 1.524 . S
C456 H468 0.956 . S
C456 H469 0.961 . S
C456 H470 0.961 . S
C457 C454 1.539 . S
C457 H471 0.958 . S
C457 H472 0.961 . S
C457 H473 0.960 . S
H458 C442 0.931 . S
H459 C447 0.929 . S
H460 C448 0.960 . S
H461 C448 0.962 . S
H462 C448 0.960 . S
H463 C449 0.961 . S
H464 C449 0.961 . S
H465 C449 0.961 . S
H466 C450 0.931 . S
H467 C455 0.930 . S
H468 C456 0.956 . S
H469 C456 0.961 . S
H470 C456 0.961 . S
H471 C457 0.958 . S
H472 C457 0.961 . S
H473 C457 0.960 . S
C99 C83 1.510 . S
C91 C21 1.528 . S
C123 C19 1.419 . S
C131 C78 1.385 . S
C155 C18 1.372 . S
C163 C89 1.367 . S
C187 C20 1.510 . S
C195 C72 1.498 . S
C219 C44 1.517 . S
C227 C61 1.517 . S
C251 C42 1.395 . S
C259 C56 1.404 . S
C291 C67 1.368 . S
C283 C41 1.366 . S
C323 C50 1.509 . S
C315 C43 1.479 . S
C347 C16 1.522 . S
C355 C51 1.521 . S
C379 C17 1.488 . S
C387 C62 1.485 . S
C419 C73 1.527 . S
C411 C39 1.525 . S
C443 C40 1.489 . S
C451 C84 1.489 . S
