# Generated by pormake.
# Topology dag, (6,3)-cn, num edge types: 1
# Building blocks:
#     Node 0, Type 0, BuildingBlock: MIDCAF_clean_sbu_0, # of connection points: 6
#     Node 1, Type 0, BuildingBlock: MIDCAF_clean_sbu_0, # of connection points: 6
#     Node 2, Type 0, BuildingBlock: MIDCAF_clean_sbu_0, # of connection points: 6
#     Node 3, Type 0, BuildingBlock: MIDCAF_clean_sbu_0, # of connection points: 6
#     Node 4, Type 1, BuildingBlock: BELTOD_clean_linker_0, # of connection points: 3
#     Node 5, Type 1, BuildingBlock: BELTOD_clean_linker_0, # of connection points: 3
#     Node 6, Type 1, BuildingBlock: BELTOD_clean_linker_0, # of connection points: 3
#     Node 7, Type 1, BuildingBlock: BELTOD_clean_linker_0, # of connection points: 3
#     Node 8, Type 1, BuildingBlock: BELTOD_clean_linker_0, # of connection points: 3
#     Node 9, Type 1, BuildingBlock: BELTOD_clean_linker_0, # of connection points: 3
#     Node 10, Type 1, BuildingBlock: BELTOD_clean_linker_0, # of connection points: 3
#     Node 11, Type 1, BuildingBlock: BELTOD_clean_linker_0, # of connection points: 3
#     Edge 12, Type (0, 1), BuildingBlock: AJUNOK_clean_linker_0, # of connection points: 2
#     Edge 13, Type (0, 1), BuildingBlock: AJUNOK_clean_linker_0, # of connection points: 2
#     Edge 14, Type (0, 1), BuildingBlock: AJUNOK_clean_linker_0, # of connection points: 2
#     Edge 15, Type (0, 1), BuildingBlock: AJUNOK_clean_linker_0, # of connection points: 2
#     Edge 16, Type (0, 1), BuildingBlock: AJUNOK_clean_linker_0, # of connection points: 2
#     Edge 17, Type (0, 1), BuildingBlock: AJUNOK_clean_linker_0, # of connection points: 2
#     Edge 18, Type (0, 1), BuildingBlock: AJUNOK_clean_linker_0, # of connection points: 2
#     Edge 19, Type (0, 1), BuildingBlock: AJUNOK_clean_linker_0, # of connection points: 2
#     Edge 20, Type (0, 1), BuildingBlock: AJUNOK_clean_linker_0, # of connection points: 2
#     Edge 21, Type (0, 1), BuildingBlock: AJUNOK_clean_linker_0, # of connection points: 2
#     Edge 22, Type (0, 1), BuildingBlock: AJUNOK_clean_linker_0, # of connection points: 2
#     Edge 23, Type (0, 1), BuildingBlock: AJUNOK_clean_linker_0, # of connection points: 2
#     Edge 24, Type (0, 1), BuildingBlock: AJUNOK_clean_linker_0, # of connection points: 2
#     Edge 25, Type (0, 1), BuildingBlock: AJUNOK_clean_linker_0, # of connection points: 2
#     Edge 26, Type (0, 1), BuildingBlock: AJUNOK_clean_linker_0, # of connection points: 2
#     Edge 27, Type (0, 1), BuildingBlock: AJUNOK_clean_linker_0, # of connection points: 2
#     Edge 28, Type (0, 1), BuildingBlock: AJUNOK_clean_linker_0, # of connection points: 2
#     Edge 29, Type (0, 1), BuildingBlock: AJUNOK_clean_linker_0, # of connection points: 2
#     Edge 30, Type (0, 1), BuildingBlock: AJUNOK_clean_linker_0, # of connection points: 2
#     Edge 31, Type (0, 1), BuildingBlock: AJUNOK_clean_linker_0, # of connection points: 2
#     Edge 32, Type (0, 1), BuildingBlock: AJUNOK_clean_linker_0, # of connection points: 2
#     Edge 33, Type (0, 1), BuildingBlock: AJUNOK_clean_linker_0, # of connection points: 2
#     Edge 34, Type (0, 1), BuildingBlock: AJUNOK_clean_linker_0, # of connection points: 2
#     Edge 35, Type (0, 1), BuildingBlock: AJUNOK_clean_linker_0, # of connection points: 2
# Relax obj value: 0.289
# Max RMSD: 0.188
# Mean RMSD: 0.177
data_MOF--net-dag--node1-MIDCAF_clean_sbu_0--node2-BELTOD_clean_linker_0--edge1-AJUNOK_clean_linker_0
_symmetry_space_group_name_H-M    P1
_symmetry_Int_Tables_number       1
_symmetry_cell_setting            triclinic
loop_
_symmetry_equiv_pos_as_xyz
'x, y, z'
_cell_length_a     34.10456
_cell_length_b     35.748245
_cell_length_c     25.922498
_cell_angle_alpha  93.692747
_cell_angle_beta   90.592959
_cell_angle_gamma 89.983416
loop_
_atom_site_label
_atom_site_type_symbol
_atom_site_fract_x
_atom_site_fract_y
_atom_site_fract_z
_atom_type_partial_charge
Zn0 Zn 0.15392 0.80603 0.20193 0.0
Zn1 Zn 0.21591 0.85269 0.98953 0.0
Zn2 Zn 0.19317 0.82923 0.07559 0.0
C3 C 0.21574 0.91448 0.05944 0.0
C4 C 0.13926 0.8231 0.97525 0.0
O5 O 0.2355 0.78498 0.09624 0.0
O6 O 0.19068 0.79562 0.15016 0.0
C7 C 0.18278 0.88346 0.18743 0.0
O8 O 0.20329 0.88948 0.08878 0.0
O9 O 0.22531 0.90563 0.01339 0.0
O10 O 0.1659 0.83976 0.95212 0.0
O11 O 0.14384 0.81635 0.02309 0.0
O12 O 0.1694 0.85982 0.21758 0.0
O13 O 0.19068 0.87503 0.13913 0.0
O14 O 0.13033 0.81337 0.07697 0.0
O15 O 0.1061 0.8028 0.1557 0.0
C16 C 0.10165 0.80623 0.1073 0.0
O17 O 0.24475 0.79461 0.04751 0.0
O18 O 0.26033 0.81913 0.97422 0.0
C19 C 0.22128 0.77816 0.13952 0.0
C20 C 0.26595 0.79474 1.00654 0.0
Zn21 Zn 0.63492 0.68925 0.41254 0.0
Zn22 Zn 0.72529 0.64293 0.55535 0.0
Zn23 Zn 0.67865 0.66151 0.48378 0.0
C24 C 0.71192 0.57808 0.4934 0.0
C25 C 0.65499 0.66237 0.60333 0.0
O26 O 0.70644 0.71156 0.45056 0.0
O27 O 0.66264 0.73449 0.39751 0.0
C28 C 0.65724 0.61528 0.37921 0.0
O29 O 0.69463 0.60168 0.46529 0.0
O30 O 0.72734 0.58912 0.53609 0.0
O31 O 0.69058 0.65767 0.61532 0.0
O32 O 0.64478 0.66321 0.55544 0.0
O33 O 0.64011 0.64389 0.36366 0.0
O34 O 0.67346 0.61617 0.42427 0.0
O35 O 0.61896 0.67049 0.51379 0.0
O36 O 0.58586 0.6956 0.45088 0.0
C37 C 0.58687 0.68352 0.49545 0.0
O38 O 0.72829 0.70164 0.49465 0.0
O39 O 0.7716 0.67359 0.54283 0.0
C40 C 0.69582 0.7364 0.41919 0.0
C41 C 0.76219 0.70101 0.5171 0.0
Zn42 Zn 0.86798 0.20612 0.89382 0.0
Zn43 Zn 0.76937 0.18038 0.03898 0.0
Zn44 Zn 0.81791 0.19369 0.96806 0.0
C45 C 0.84264 0.19249 0.08757 0.0
C46 C 0.77274 0.11442 0.98452 0.0
O47 O 0.78948 0.23358 0.91586 0.0
O48 O 0.83414 0.2391 0.85534 0.0
C49 C 0.90687 0.22642 0.984 0.0
O50 O 0.85149 0.20188 0.04191 0.0
O51 O 0.80857 0.18085 0.09635 0.0
O52 O 0.74898 0.13058 0.0155 0.0
O53 O 0.80024 0.13349 0.96463 0.0
O54 O 0.91056 0.22935 0.93611 0.0
O55 O 0.87537 0.21247 1.00207 0.0
O56 O 0.82424 0.14138 0.92145 0.0
O57 O 0.8725 0.15223 0.86787 0.0
C58 C 0.84758 0.13014 0.88499 0.0
O59 O 0.76893 0.23456 0.96314 0.0
O60 O 0.73499 0.22321 0.03282 0.0
C61 C 0.80064 0.24683 0.87319 0.0
C62 C 0.74022 0.24203 0.99404 0.0
Zn63 Zn 0.35787 0.29109 0.65908 0.0
Zn64 Zn 0.28819 0.29438 0.48924 0.0
Zn65 Zn 0.32071 0.30013 0.57728 0.0
C66 C 0.36318 0.2882 0.4625 0.0
C67 C 0.2753 0.36806 0.53463 0.0
O68 O 0.28924 0.25969 0.62582 0.0
O69 O 0.33152 0.24945 0.68842 0.0
C70 C 0.41309 0.27696 0.58767 0.0
O71 O 0.3644 0.29092 0.51254 0.0
O72 O 0.33055 0.28725 0.43929 0.0
O73 O 0.26614 0.34565 0.49677 0.0
O74 O 0.29765 0.35706 0.57097 0.0
O75 O 0.41102 0.28092 0.63615 0.0
O76 O 0.38242 0.28238 0.55948 0.0
O77 O 0.3199 0.35653 0.61766 0.0
O78 O 0.3473 0.34164 0.69113 0.0
C79 C 0.33175 0.36583 0.66402 0.0
O80 O 0.26992 0.2603 0.57741 0.0
O81 O 0.25146 0.25355 0.49526 0.0
C82 C 0.29884 0.24288 0.66676 0.0
C83 C 0.24754 0.24529 0.54138 0.0
P84 P 0.0386 0.10177 0.35981 0.0
H85 H 0.06872 0.02966 0.3887 0.0
H86 H 0.11566 0.98542 0.34798 0.0
H87 H 0.13888 0.06303 0.23125 0.0
H88 H 0.09305 0.10808 0.27343 0.0
H89 H 0.07576 0.17602 0.36301 0.0
H90 H 0.11912 0.20823 0.42741 0.0
H91 H 0.10198 0.11939 0.52994 0.0
H92 H 0.05771 0.08773 0.46604 0.0
H93 H 0.01999 0.07931 0.25269 0.0
H94 H -0.00124 0.17541 0.35794 0.0
O95 O 0.00487 0.07557 0.38662 0.0
H96 H 0.97882 0.10621 0.18766 0.0
H97 H 0.95605 0.20218 0.29264 0.0
C98 C 0.07621 0.07136 0.3327 0.0
C99 C 0.08432 0.03744 0.35482 0.0
C100 C 0.11147 0.01242 0.332 0.0
C101 C 0.13077 0.02103 0.28669 0.0
C102 C 0.12438 0.05598 0.26633 0.0
C103 C 0.09788 0.08139 0.28997 0.0
C104 C 0.06259 0.13012 0.41039 0.0
C105 C 0.07996 0.16427 0.40013 0.0
C106 C 0.10479 0.18253 0.43686 0.0
C107 C 0.11345 0.16631 0.48368 0.0
C108 C 0.09535 0.13255 0.49438 0.0
C109 C 0.07 0.11464 0.45798 0.0
C110 C 0.01382 0.12593 0.30968 0.0
C111 C 0.00761 0.10686 0.26132 0.0
C112 C 0.98371 0.12212 0.22416 0.0
C113 C 0.96447 0.15643 0.23488 0.0
C114 C 0.97123 0.1761 0.28292 0.0
C115 C -0.00445 0.16077 0.32026 0.0
P116 P 0.45502 0.58604 0.87268 0.0
H117 H 0.54026 0.58017 0.86279 0.0
H118 H 0.58644 0.6059 0.80274 0.0
H119 H 0.49174 0.66492 0.73194 0.0
H120 H 0.44564 0.6399 0.79305 0.0
H121 H 0.46944 0.6626 0.91505 0.0
H122 H 0.42603 0.7107 0.95534 0.0
H123 H 0.32974 0.63234 0.94434 0.0
H124 H 0.37305 0.58413 0.90486 0.0
H125 H 0.39432 0.5947 0.79258 0.0
H126 H 0.4529 0.50431 0.86459 0.0
O127 O 0.47916 0.56373 0.91787 0.0
H128 H 0.35554 0.54894 0.73862 0.0
H129 H 0.41412 0.45891 0.81163 0.0
C130 C 0.48951 0.60805 0.83224 0.0
C131 C 0.52948 0.59919 0.83506 0.0
C132 C 0.55588 0.61405 0.80097 0.0
C133 C 0.54257 0.63761 0.76317 0.0
C134 C 0.50263 0.64695 0.76098 0.0
C135 C 0.47633 0.6325 0.7956 0.0
C136 C 0.42401 0.62035 0.90524 0.0
C137 C 0.43907 0.65568 0.92167 0.0
C138 C 0.41454 0.6829 0.94521 0.0
C139 C 0.3749 0.67482 0.95289 0.0
C140 C 0.36039 0.63886 0.93893 0.0
C141 C 0.38496 0.61161 0.91577 0.0
C142 C 0.42643 0.55288 0.83275 0.0
C143 C 0.39901 0.5651 0.79661 0.0
C144 C 0.37684 0.53905 0.76587 0.0
C145 C 0.38171 0.50051 0.77131 0.0
C146 C 0.40946 0.48853 0.80719 0.0
C147 C 0.43171 0.51445 0.83742 0.0
P148 P 0.83164 0.90359 0.16906 0.0
H149 H 0.76376 0.95255 0.16941 0.0
H150 H 0.74063 0.99273 0.10299 0.0
H151 H 0.80894 0.92904 0.98897 0.0
H152 H 0.83191 0.88883 0.05518 0.0
H153 H 0.86676 0.86517 0.25244 0.0
H154 H 0.83946 0.8295 0.3211 0.0
H155 H 0.72378 0.84069 0.25437 0.0
H156 H 0.75121 0.87701 0.18631 0.0
H157 H 0.91033 0.932 0.15596 0.0
H158 H 0.84759 0.82849 0.12165 0.0
O159 O 0.84512 0.94249 0.20378 0.0
H160 H 0.96987 0.90338 0.12229 0.0
H161 H 0.90742 0.79978 0.0845 0.0
C162 C 0.80039 0.91836 0.1178 0.0
C163 C 0.77219 0.94595 0.12968 0.0
C164 C 0.75891 0.96889 0.09155 0.0
C165 C 0.77388 0.9645 0.04117 0.0
C166 C 0.79748 0.93331 0.02772 0.0
C167 C 0.8107 0.91033 0.06589 0.0
C168 C 0.81097 0.87339 0.21419 0.0
C169 C 0.83553 0.8596 0.25236 0.0
C170 C 0.81998 0.83939 0.29164 0.0
C171 C 0.77949 0.83298 0.29363 0.0
C172 C 0.75503 0.84611 0.25453 0.0
C173 C 0.77065 0.86644 0.21525 0.0
C174 C 0.87491 0.8821 0.14208 0.0
C175 C 0.90928 0.90317 0.14043 0.0
C176 C 0.94318 0.88693 0.11995 0.0
C177 C 0.94311 0.84956 0.09921 0.0
C178 C 0.9082 0.8287 0.09975 0.0
C179 C 0.87424 0.84492 0.12119 0.0
P180 P 0.69926 0.29197 0.51229 0.0
H181 H 0.75644 0.33961 0.46328 0.0
H182 H 0.75625 0.40657 0.44707 0.0
H183 H 0.63805 0.41596 0.50448 0.0
H184 H 0.639 0.35007 0.52271 0.0
H185 H 0.74038 0.23591 0.56957 0.0
H186 H 0.75502 0.23123 0.6617 0.0
H187 H 0.70583 0.34115 0.69521 0.0
H188 H 0.69028 0.34548 0.60326 0.0
H189 H 0.63571 0.29806 0.4356 0.0
H190 H 0.6563 0.23954 0.57398 0.0
O191 O 0.73015 0.26699 0.47434 0.0
H192 H 0.5651 0.28607 0.44232 0.0
H193 H 0.58652 0.22715 0.57984 0.0
C194 C 0.69753 0.33966 0.49342 0.0
C195 C 0.73024 0.35597 0.47134 0.0
C196 C 0.72995 0.39409 0.46154 0.0
C197 C 0.69694 0.41633 0.47392 0.0
C198 C 0.66378 0.39944 0.49421 0.0
C199 C 0.66426 0.36167 0.50446 0.0
C200 C 0.71502 0.29135 0.57913 0.0
C201 C 0.73319 0.25924 0.59654 0.0
C202 C 0.74106 0.25638 0.6492 0.0
C203 C 0.73128 0.28576 0.68541 0.0
C204 C 0.7136 0.31815 0.66799 0.0
C205 C 0.70507 0.32071 0.61532 0.0
C206 C 0.651 0.2715 0.50587 0.0
C207 C 0.62534 0.28161 0.46635 0.0
C208 C 0.58514 0.27441 0.46975 0.0
C209 C 0.57075 0.25611 0.5119 0.0
C210 C 0.59719 0.24145 0.54713 0.0
C211 C 0.63711 0.24898 0.54404 0.0
P212 P 0.53273 0.38747 0.18106 0.0
H213 H 0.5373 0.46769 0.16452 0.0
H214 H 0.57475 0.51886 0.20829 0.0
H215 H 0.63267 0.43991 0.30294 0.0
H216 H 0.59381 0.38912 0.26062 0.0
H217 H 0.53461 0.38045 0.0679 0.0
H218 H 0.58381 0.3542 0.00723 0.0
H219 H 0.65001 0.31386 0.13499 0.0
H220 H 0.60042 0.33896 0.1953 0.0
H221 H 0.49402 0.41495 0.27376 0.0
H222 H 0.5268 0.30693 0.20377 0.0
O223 O 0.49502 0.40534 0.1493 0.0
H224 H 0.46382 0.38503 0.34481 0.0
H225 H 0.49688 0.27637 0.27635 0.0
C226 C 0.5626 0.42476 0.20965 0.0
C227 C 0.55826 0.46137 0.19438 0.0
C228 C 0.58008 0.4905 0.21897 0.0
C229 C 0.60702 0.48325 0.25859 0.0
C230 C 0.61216 0.44626 0.27253 0.0
C231 C 0.59008 0.41725 0.24823 0.0
C232 C 0.56365 0.36127 0.13614 0.0
C233 C 0.55923 0.3652 0.08279 0.0
C234 C 0.58745 0.35065 0.04818 0.0
C235 C 0.6209 0.33293 0.0668 0.0
C236 C 0.62473 0.32816 0.12 0.0
C237 C 0.59626 0.34213 0.15437 0.0
C238 C 0.51315 0.36324 0.23391 0.0
C239 C 0.49543 0.3847 0.2743 0.0
C240 C 0.47855 0.36754 0.31535 0.0
C241 C 0.47899 0.32834 0.31713 0.0
C242 C 0.49669 0.30667 0.27641 0.0
C243 C 0.51373 0.32405 0.23498 0.0
P244 P 0.19385 0.19648 0.01892 0.0
H245 H 0.24339 0.15833 0.09347 0.0
H246 H 0.2448 0.09351 0.11891 0.0
H247 H 0.15049 0.06624 0.00985 0.0
H248 H 0.14586 0.13136 0.99078 0.0
H249 H 0.21684 0.25782 0.95699 0.0
H250 H 0.23131 0.26167 0.86515 0.0
H251 H 0.21146 0.14268 0.83947 0.0
H252 H 0.19837 0.13861 0.93072 0.0
H253 H 0.14184 0.19413 0.10745 0.0
H254 H 0.13748 0.23623 0.95508 0.0
O255 O 0.22509 0.22335 0.05469 0.0
H256 H 0.07224 0.20996 0.11909 0.0
H257 H 0.06897 0.2519 0.96655 0.0
C258 C 0.19498 0.14936 0.03948 0.0
C259 C 0.22247 0.1384 0.07612 0.0
C260 C 0.22332 0.10128 0.09046 0.0
C261 C 0.19729 0.07439 0.06736 0.0
C262 C 0.16974 0.08601 0.03081 0.0
C263 C 0.16773 0.12327 0.01856 0.0
C264 C 0.20658 0.19801 0.95138 0.0
C265 C 0.21583 0.2325 0.93169 0.0
C266 C 0.22352 0.23476 0.87908 0.0
C267 C 0.22229 0.20247 0.8451 0.0
C268 C 0.21277 0.16799 0.86476 0.0
C269 C 0.20509 0.16577 0.91734 0.0
C270 C 0.14484 0.21361 0.0302 0.0
C271 C 0.12622 0.20741 0.07696 0.0
C272 C 0.08661 0.21651 0.0837 0.0
C273 C 0.0654 0.23263 0.04406 0.0
C274 C 0.08479 0.24043 0.99837 0.0
C275 C 0.12411 0.23106 0.99153 0.0
P276 P 0.31405 0.604 0.42379 0.0
H277 H 0.238 0.57046 0.39758 0.0
H278 H 0.20855 0.51808 0.43843 0.0
H279 H 0.28003 0.54368 0.57472 0.0
H280 H 0.30379 0.59939 0.53721 0.0
H281 H 0.35347 0.6273 0.33299 0.0
H282 H 0.33483 0.66801 0.26462 0.0
H283 H 0.22256 0.68759 0.3373 0.0
H284 H 0.24217 0.64797 0.40684 0.0
H285 H 0.364 0.57189 0.50089 0.0
H286 H 0.35413 0.67746 0.42986 0.0
O287 O 0.33183 0.56573 0.39195 0.0
H288 H 0.42403 0.59327 0.54471 0.0
H289 H 0.41724 0.69671 0.46728 0.0
C290 C 0.27524 0.58722 0.46294 0.0
C291 C 0.24503 0.56658 0.43774 0.0
C292 C 0.2286 0.5362 0.46104 0.0
C293 C 0.24401 0.5251 0.50837 0.0
C294 C 0.26808 0.55051 0.53766 0.0
C295 C 0.28264 0.58216 0.51539 0.0
C296 C 0.29905 0.63444 0.37463 0.0
C297 C 0.32479 0.64034 0.33409 0.0
C298 C 0.31398 0.66329 0.29475 0.0
C299 C 0.27697 0.68049 0.29501 0.0
C300 C 0.25131 0.6747 0.33605 0.0
C301 C 0.26237 0.65198 0.37572 0.0
C302 C 0.35442 0.62307 0.46217 0.0
C303 C 0.37446 0.59991 0.49523 0.0
C304 C 0.40923 0.6119 0.51956 0.0
C305 C 0.42631 0.64605 0.50794 0.0
C306 C 0.405 0.67019 0.47719 0.0
C307 C 0.36905 0.65894 0.45499 0.0
P308 P 0.86047 0.84106 0.82162 0.0
H309 H 0.81228 0.89165 0.88836 0.0
H310 H 0.80861 0.96004 0.89928 0.0
H311 H 0.89948 0.96876 0.78571 0.0
H312 H 0.90398 0.90039 0.7764 0.0
H313 H 0.87503 0.77065 0.76286 0.0
H314 H 0.86066 0.74851 0.67397 0.0
H315 H 0.81535 0.85779 0.64283 0.0
H316 H 0.82795 0.87922 0.73276 0.0
H317 H 0.88942 0.82323 0.92361 0.0
H318 H 0.93616 0.831 0.7707 0.0
O319 O 0.82561 0.82131 0.85548 0.0
H320 H 0.95564 0.81236 0.95729 0.0
H321 H 0.00204 0.81931 0.80381 0.0
C322 C 0.85807 0.89113 0.8311 0.0
C323 C 0.83137 0.90829 0.86582 0.0
C324 C 0.82904 0.94733 0.87167 0.0
C325 C 0.85318 0.96967 0.84249 0.0
C326 C 0.88045 0.95224 0.80854 0.0
C327 C 0.88301 0.91326 0.80315 0.0
C328 C 0.85341 0.82673 0.75429 0.0
C329 C 0.86273 0.79006 0.73666 0.0
C330 C 0.85505 0.77766 0.68546 0.0
C331 C 0.83796 0.80178 0.65067 0.0
C332 C 0.8291 0.83875 0.66838 0.0
C333 C 0.83643 0.85102 0.71989 0.0
C334 C 0.90783 0.82706 0.84449 0.0
C335 C 0.91375 0.82146 0.89705 0.0
C336 C 0.9515 0.81506 0.91619 0.0
C337 C 0.98382 0.81447 0.88295 0.0
C338 C 0.97757 0.81938 0.83014 0.0
C339 C 0.93992 0.82587 0.81116 0.0
C340 C 0.14706 0.94285 0.1857 0.0
C341 C 0.1785 0.92293 0.20576 0.0
C342 C 0.13443 0.97679 0.20966 0.0
C343 C 0.15156 0.99098 0.25633 0.0
H344 H 0.12968 0.93024 0.15414 0.0
H345 H 0.1088 0.99023 0.19411 0.0
S346 S 0.2341 0.94882 0.32618 0.0
N347 N 0.22679 0.91975 0.27476 0.0
N348 N 0.20177 0.98297 0.32183 0.0
C349 C 0.18346 0.97169 0.27671 0.0
C350 C 0.19705 0.93758 0.25122 0.0
C351 C 0.58868 0.64425 0.6323 0.0
C352 C 0.62492 0.66161 0.64399 0.0
C353 C 0.56131 0.63848 0.6708 0.0
C354 C 0.56965 0.64904 0.72286 0.0
H355 H 0.58245 0.63277 0.59367 0.0
H356 H 0.53436 0.62377 0.6601 0.0
S357 S 0.65945 0.69712 0.77423 0.0
N358 N 0.66691 0.69098 0.71137 0.0
N359 N 0.61578 0.67913 0.7843 0.0
C360 C 0.60536 0.66717 0.73526 0.0
C361 C 0.633 0.67358 0.69577 0.0
C362 C 0.73785 0.05337 0.98655 0.0
C363 C 0.77318 0.07302 0.98108 0.0
C364 C 0.73788 0.01611 1.00046 0.0
C365 C 0.77327 -0.00276 0.00896 0.0
H366 H 0.71002 0.0678 0.98408 0.0
H367 H 0.71019 0.00302 0.00865 0.0
S368 S 0.87365 0.03504 0.99536 0.0
N369 N 0.84437 0.07 0.98226 0.0
N370 N 0.84446 -0.0003 1.00627 0.0
C371 C 0.8087 0.01538 0.99866 0.0
C372 C 0.80867 0.05344 0.98531 0.0
C373 C 0.48405 0.28981 0.5896 0.0
C374 C 0.45217 0.27098 0.56498 0.0
C375 C 0.522 0.28496 0.57114 0.0
C376 C 0.52962 0.26104 0.52739 0.0
H377 H 0.47966 0.30869 0.62345 0.0
H378 H 0.54573 0.29998 0.59144 0.0
S379 S 0.45692 0.20451 0.44943 0.0
N380 N 0.43075 0.22662 0.49528 0.0
N381 N 0.50279 0.21836 0.45942 0.0
C382 C 0.49822 0.24232 0.50172 0.0
C383 C 0.45925 0.24701 0.52092 0.0
C384 C 0.63761 0.54848 0.37255 0.0
C385 C 0.65242 0.57957 0.34863 0.0
C386 C 0.625 0.51647 0.34313 0.0
C387 C 0.62659 0.51465 0.28877 0.0
H388 H 0.63362 0.54969 0.41405 0.0
H389 H 0.61188 0.49393 0.36299 0.0
S390 S 0.66785 0.58698 0.20849 0.0
N391 N 0.67125 0.60563 0.26835 0.0
N392 N 0.64822 0.54507 0.21273 0.0
C393 C 0.64358 0.54474 0.2647 0.0
C394 C 0.65623 0.57738 0.29473 0.0
C395 C 0.95961 0.20306 0.03963 0.0
C396 C 0.94185 0.23333 0.01653 0.0
C397 C -0.00072 0.20458 0.0544 0.0
C398 C 0.02219 0.23635 0.04607 0.0
H399 H 0.94388 0.17688 0.04184 0.0
H400 H 0.01286 0.17946 0.06757 0.0
S401 S 0.98657 0.32572 0.99782 0.0
N402 N 0.94791 0.2978 0.99376 0.0
N403 N 0.02235 0.30104 0.02241 0.0
C404 C 0.00337 0.26826 0.02878 0.0
C405 C 0.96318 0.2666 0.01353 0.0
C406 C 0.26265 0.42178 0.48202 0.0
C407 C 0.26414 0.40773 0.53132 0.0
C408 C 0.25389 0.45914 0.47542 0.0
C409 C 0.24571 0.48447 0.5178 0.0
H410 H 0.26974 0.40401 0.44792 0.0
H411 H 0.25561 0.46845 0.43658 0.0
S412 S 0.24123 0.46061 0.65495 0.0
N413 N 0.2536 0.42084 0.62322 0.0
N414 N 0.23683 0.49192 0.61102 0.0
C415 C 0.24561 0.47052 0.56749 0.0
C416 C 0.25486 0.43201 0.57421 0.0
C417 C 0.08871 0.84276 0.9131 0.0
C418 C 0.10109 0.81688 0.94854 0.0
C419 C 0.05107 0.84108 0.8914 0.0
C420 C 0.02432 0.81331 0.90396 0.0
H421 H 0.10763 0.86564 0.9037 0.0
H422 H 0.04241 0.86256 0.86594 0.0
S423 S 0.04421 0.7354 0.98824 0.0
N424 N 0.08527 0.76003 0.99057 0.0
N425 N 0.01384 0.75718 0.95016 0.0
C426 C 0.03678 0.78618 0.93749 0.0
C427 C 0.07539 0.78778 0.95949 0.0
C428 C 0.88426 0.07128 0.86403 0.0
C429 C 0.84824 0.09027 0.86734 0.0
C430 C 0.88558 0.0323 0.85503 0.0
C431 C 0.85092 0.01108 0.84856 0.0
H432 H 0.91152 0.08642 0.87101 0.0
H433 H 0.9139 0.01857 0.85504 0.0
S434 S 0.74958 0.04867 0.84533 0.0
N435 N 0.77747 0.08598 0.85786 0.0
N436 N 0.7798 0.01254 0.84023 0.0
C437 C 0.81481 0.03011 0.8489 0.0
C438 C 0.81352 0.06979 0.85831 0.0
C439 C 0.39944 0.27435 0.3804 0.0
C440 C 0.39892 0.29128 0.43099 0.0
C441 C 0.42788 0.28388 0.34483 0.0
C442 C 0.45682 0.31083 0.35848 0.0
H443 H 0.37628 0.25519 0.36725 0.0
H444 H 0.42529 0.2722 0.30533 0.0
S445 S 0.47182 0.35947 0.48792 0.0
N446 N 0.43185 0.33413 0.49392 0.0
N447 N 0.48666 0.35026 0.42803 0.0
C448 C 0.45881 0.32533 0.41025 0.0
C449 C 0.4295 0.31607 0.44626 0.0
C450 C 0.2433 0.97834 0.07863 0.0
C451 C 0.21068 0.95448 0.07389 0.0
C452 C 0.23861 0.0174 0.08017 0.0
C453 C 0.20107 0.03385 0.07719 0.0
H454 H 0.27264 0.96672 0.07815 0.0
H455 H 0.26477 0.03455 0.08024 0.0
S456 S 0.10636 0.98257 0.06643 0.0
N457 N 0.14007 0.94938 0.06443 0.0
N458 N 0.13055 0.02249 0.07501 0.0
C459 C 0.16816 0.00992 0.07606 0.0
C460 C 0.17315 0.9703 0.07216 0.0
C461 C 0.52104 0.70029 0.53001 0.0
C462 C 0.54919 0.67291 0.51648 0.0
C463 C 0.48124 0.69074 0.53244 0.0
C464 C 0.46839 0.65375 0.51977 0.0
H465 H 0.5295 0.7295 0.5353 0.0
H466 H 0.46015 0.71292 0.54077 0.0
S467 S 0.53211 0.57194 0.4834 0.0
N468 N 0.56266 0.60746 0.49329 0.0
N469 N 0.48813 0.58942 0.49541 0.0
C470 C 0.49696 0.62581 0.50925 0.0
C471 C 0.53732 0.63551 0.50791 0.0
C472 C 0.32618 0.41107 0.73959 0.0
C473 C 0.33181 0.40491 0.68607 0.0
C474 C 0.33923 0.44398 0.76629 0.0
C475 C 0.35837 0.47197 0.74045 0.0
H476 H 0.31447 0.38898 0.7617 0.0
H477 H 0.33689 0.44636 0.80804 0.0
S478 S 0.37333 0.47262 0.59904 0.0
N479 N 0.3525 0.43168 0.60694 0.0
N480 N 0.37694 0.49406 0.65733 0.0
C481 C 0.36017 0.46811 0.68616 0.0
C482 C 0.34687 0.43436 0.65884 0.0
C483 C 0.03151 0.78792 0.10879 0.0
C484 C 0.06095 0.81037 0.08914 0.0
C485 C 0.99203 0.79842 0.10637 0.0
C486 C 0.98084 0.83171 0.08414 0.0
H487 H 0.03934 0.76375 0.12987 0.0
H488 H 0.97083 0.78233 0.12653 0.0
S489 S 0.04574 0.89698 0.01981 0.0
N490 N 0.07572 0.8659 0.04328 0.0
N491 N 0.00115 0.88317 0.03373 0.0
C492 C 0.00942 0.85173 0.05863 0.0
C493 C 0.04968 0.84183 0.06266 0.0
C494 C 0.69309 0.51739 0.52496 0.0
C495 C 0.70653 0.53736 0.48369 0.0
C496 C 0.68939 0.47853 0.52052 0.0
C497 C 0.69904 0.4578 0.47455 0.0
H498 H 0.68565 0.53198 0.56152 0.0
H499 H 0.67984 0.46452 0.55405 0.0
S500 S 0.73439 0.49682 0.35422 0.0
N501 N 0.72899 0.53397 0.39493 0.0
N502 N 0.72144 0.46017 0.38597 0.0
C503 C 0.71193 0.47736 0.43238 0.0
C504 C 0.71568 0.51736 0.43701 0.0
C505 C 0.87496 0.15095 0.14738 0.0
C506 C 0.87359 0.1862 0.12639 0.0
C507 C 0.90427 0.14209 0.18253 0.0
C508 C 0.93345 0.16817 0.1986 0.0
H509 H 0.85352 0.12958 0.13573 0.0
H510 H 0.90406 0.11441 0.19731 0.0
S511 S 0.94168 0.26535 0.1576 0.0
N512 N 0.90266 0.24819 0.12592 0.0
N513 N 0.95851 0.23137 0.19212 0.0
C514 C 0.93202 0.20397 0.17894 0.0
C515 C 0.90199 0.21299 0.14266 0.0
C516 C 0.23498 0.76389 0.23012 0.0
C517 C 0.23948 0.75404 0.17712 0.0
C518 C 0.24786 0.74025 0.26768 0.0
C519 C 0.26548 0.70556 0.2538 0.0
H520 H 0.22102 0.79007 0.24281 0.0
H521 H 0.24377 0.74918 0.308 0.0
S522 S 0.28332 0.66638 0.11984 0.0
N523 N 0.2626 0.70747 0.11229 0.0
N524 N 0.28661 0.66241 0.1829 0.0
C525 C 0.27079 0.69559 0.20077 0.0
C526 C 0.25784 0.71998 0.16241 0.0
C527 C 0.76542 0.76724 0.54857 0.0
C528 C 0.78513 0.73557 0.52693 0.0
C529 C 0.78434 0.792 0.58482 0.0
C530 C 0.82368 0.78613 0.59937 0.0
H531 H 0.73397 0.7699 0.5435 0.0
H532 H 0.7667 0.81298 0.60576 0.0
S533 S 0.89128 0.71574 0.53801 0.0
N534 N 0.848 0.70535 0.51165 0.0
N535 N 0.88428 0.75309 0.57777 0.0
C536 C 0.84529 0.75882 0.57039 0.0
C537 C 0.82582 0.73326 0.53433 0.0
C538 C 0.67405 0.2648 0.97607 0.0
C539 C 0.71342 0.27348 0.98829 0.0
C540 C 0.64349 0.28693 0.99723 0.0
C541 C 0.65168 0.31806 0.03147 0.0
H542 H 0.66674 0.23838 0.95535 0.0
H543 H 0.61355 0.27738 0.99119 0.0
S544 S 0.74979 0.35662 0.06674 0.0
N545 N 0.7589 0.31848 0.02936 0.0
N546 N 0.70153 0.36007 0.06952 0.0
C547 C 0.69082 0.32955 0.03862 0.0
C548 C 0.72179 0.30729 0.01661 0.0
C549 C 0.23648 0.24174 0.71416 0.0
C550 C 0.27016 0.2225 0.69638 0.0
C551 C 0.21895 0.23319 0.76077 0.0
C552 C 0.23417 0.20475 0.7904 0.0
H553 H 0.22642 0.26625 0.69535 0.0
H554 H 0.19508 0.25065 0.77553 0.0
S555 S 0.31726 0.14168 0.75458 0.0
N556 N 0.31441 0.17044 0.70733 0.0
N557 N 0.2814 0.154 0.79447 0.0
C558 C 0.26487 0.18249 0.76959 0.0
C559 C 0.28279 0.19139 0.72247 0.0
C560 C 0.75891 0.75383 0.38034 0.0
C561 C 0.72299 0.76497 0.40243 0.0
C562 C 0.77849 0.77702 0.34727 0.0
C563 C 0.76271 0.81199 0.33569 0.0
H564 H 0.77005 0.72582 0.3848 0.0
H565 H 0.8046 0.76641 0.32791 0.0
S566 S 0.67418 0.85695 0.3937 0.0
N567 N 0.67569 0.81514 0.41727 0.0
N568 N 0.71295 0.85915 0.35636 0.0
C569 C 0.72905 0.82486 0.36206 0.0
C570 C 0.70911 0.80123 0.39527 0.0
C571 C 0.74236 0.244 0.81559 0.0
C572 C 0.77332 0.26529 0.83849 0.0
C573 C 0.72682 0.2523 0.7672 0.0
C574 C 0.74117 0.28261 0.74086 0.0
H575 H 0.733 0.21853 0.83237 0.0
H576 H 0.70517 0.23354 0.74881 0.0
S577 S 0.81783 0.35004 0.78831 0.0
N578 N 0.81486 0.32004 0.83401 0.0
N579 N 0.78475 0.3364 0.74403 0.0
C580 C 0.76926 0.30625 0.76587 0.0
C581 C 0.78551 0.29743 0.81458 0.0
C582 C 0.17692 0.23961 0.55346 0.0
C583 C 0.21375 0.22194 0.55213 0.0
C584 C 0.14313 0.22027 0.53585 0.0
C585 C 0.1452 0.18253 0.51732 0.0
H586 H 0.17495 0.26963 0.56207 0.0
H587 H 0.11597 0.2357 0.53253 0.0
S588 S 0.23362 0.12221 0.51484 0.0
N589 N 0.2496 0.16379 0.53742 0.0
N590 N 0.1859 0.12687 0.50561 0.0
C591 C 0.18099 0.16345 0.52189 0.0
C592 C 0.21542 0.18334 0.53918 0.0
C593 C 0.31743 0.74886 0.03182 0.0
C594 C 0.29402 0.7643 0.99355 0.0
C595 C 0.34407 0.71981 0.01878 0.0
C596 C 0.3474 0.70526 0.96734 0.0
H597 H 0.31553 0.7596 0.07174 0.0
H598 H 0.36191 0.70855 0.04892 0.0
S599 S 0.2922 0.73507 0.85342 0.0
N600 N 0.2757 0.76227 0.90233 0.0
N601 N 0.32542 0.70774 0.87843 0.0
C602 C 0.32408 0.72024 0.92906 0.0
C603 C 0.29746 0.74981 0.94201 0.0
loop_
_geom_bond_atom_site_label_1
_geom_bond_atom_site_label_2
_geom_bond_distance
_geom_bond_site_symmetry_2
_ccdc_geom_bond_type
Zn0 O6 1.920 . S
Zn0 O12 1.898 . S
Zn0 O15 1.905 . S
Zn1 O9 1.905 . S
Zn1 O10 1.898 . S
Zn1 O18 1.920 . S
Zn2 O5 2.080 . S
Zn2 O8 2.114 . S
Zn2 O11 2.120 1_554 S
Zn2 O13 2.120 . S
Zn2 O14 2.114 . S
Zn2 O17 2.080 . S
C3 O8 1.166 1_556 S
C3 O9 1.182 . S
C4 O10 1.167 . S
C4 O11 1.299 . S
O5 Zn2 2.080 . S
O5 C19 1.305 . S
O6 Zn0 1.920 . S
O6 C19 1.234 . S
C7 O12 1.167 . S
C7 O13 1.299 . S
O8 Zn2 2.114 . S
O8 C3 1.166 1_554 S
O9 Zn1 1.905 . S
O9 C3 1.182 . S
O10 Zn1 1.898 . S
O10 C4 1.167 . S
O11 Zn2 2.120 1_556 S
O11 C4 1.299 . S
O12 Zn0 1.898 . S
O12 C7 1.167 . S
O13 Zn2 2.120 . S
O13 C7 1.299 . S
O14 Zn2 2.114 . S
O14 C16 1.166 . S
O15 Zn0 1.905 . S
O15 C16 1.182 . S
C16 O14 1.166 . S
C16 O15 1.182 . S
O17 Zn2 2.080 . S
O17 C20 1.305 1_554 S
O18 Zn1 1.920 . S
O18 C20 1.234 . S
C19 O5 1.305 . S
C19 O6 1.234 . S
C20 O17 1.305 1_556 S
C20 O18 1.234 . S
Zn21 O27 1.920 . S
Zn21 O33 1.898 . S
Zn21 O36 1.905 . S
Zn22 O30 1.905 . S
Zn22 O31 1.898 . S
Zn22 O39 1.920 . S
Zn23 O26 2.080 . S
Zn23 O29 2.114 . S
Zn23 O32 2.120 . S
Zn23 O34 2.120 . S
Zn23 O35 2.114 . S
Zn23 O38 2.080 . S
C24 O29 1.166 . S
C24 O30 1.182 . S
C25 O31 1.167 . S
C25 O32 1.299 . S
O26 Zn23 2.080 . S
O26 C40 1.305 . S
O27 Zn21 1.920 . S
O27 C40 1.234 . S
C28 O33 1.167 . S
C28 O34 1.299 . S
O29 Zn23 2.114 . S
O29 C24 1.166 . S
O30 Zn22 1.905 . S
O30 C24 1.182 . S
O31 Zn22 1.898 . S
O31 C25 1.167 . S
O32 Zn23 2.120 . S
O32 C25 1.299 . S
O33 Zn21 1.898 . S
O33 C28 1.167 . S
O34 Zn23 2.120 . S
O34 C28 1.299 . S
O35 Zn23 2.114 . S
O35 C37 1.166 . S
O36 Zn21 1.905 . S
O36 C37 1.182 . S
C37 O35 1.166 . S
C37 O36 1.182 . S
O38 Zn23 2.080 . S
O38 C41 1.305 . S
O39 Zn22 1.920 . S
O39 C41 1.234 . S
C40 O26 1.305 . S
C40 O27 1.234 . S
C41 O38 1.305 . S
C41 O39 1.234 . S
Zn42 O48 1.920 . S
Zn42 O54 1.898 . S
Zn42 O57 1.905 . S
Zn43 O51 1.905 . S
Zn43 O52 1.898 . S
Zn43 O60 1.920 . S
Zn44 O47 2.070 1_554 S
Zn44 O50 2.124 . S
Zn44 O53 2.125 . S
Zn44 O55 2.115 1_554 S
Zn44 O56 2.107 1_554 S
Zn44 O59 2.088 . S
C45 O50 1.166 . S
C45 O51 1.182 . S
C46 O52 1.167 . S
C46 O53 1.299 . S
O47 Zn44 2.070 1_556 S
O47 C61 1.305 . S
O48 Zn42 1.920 . S
O48 C61 1.234 . S
C49 O54 1.167 . S
C49 O55 1.299 . S
O50 Zn44 2.124 . S
O50 C45 1.166 . S
O51 Zn43 1.905 . S
O51 C45 1.182 . S
O52 Zn43 1.898 . S
O52 C46 1.167 . S
O53 Zn44 2.125 . S
O53 C46 1.299 . S
O54 Zn42 1.898 . S
O54 C49 1.167 . S
O55 Zn44 2.115 1_556 S
O55 C49 1.299 . S
O56 Zn44 2.107 1_556 S
O56 C58 1.166 . S
O57 Zn42 1.905 . S
O57 C58 1.182 . S
C58 O56 1.166 . S
C58 O57 1.182 . S
O59 Zn44 2.088 . S
O59 C62 1.305 . S
O60 Zn43 1.920 . S
O60 C62 1.234 . S
C61 O47 1.305 . S
C61 O48 1.234 . S
C62 O59 1.305 . S
C62 O60 1.234 . S
Zn63 O69 1.920 . S
Zn63 O75 1.898 . S
Zn63 O78 1.905 . S
Zn64 O72 1.905 . S
Zn64 O73 1.898 . S
Zn64 O81 1.920 . S
Zn65 O68 2.080 . S
Zn65 O71 2.114 . S
Zn65 O74 2.120 . S
Zn65 O76 2.120 . S
Zn65 O77 2.114 . S
Zn65 O80 2.080 . S
C66 O71 1.166 . S
C66 O72 1.182 . S
C67 O73 1.167 . S
C67 O74 1.299 . S
O68 Zn65 2.080 . S
O68 C82 1.305 . S
O69 Zn63 1.920 . S
O69 C82 1.234 . S
C70 O75 1.167 . S
C70 O76 1.299 . S
O71 Zn65 2.114 . S
O71 C66 1.166 . S
O72 Zn64 1.905 . S
O72 C66 1.182 . S
O73 Zn64 1.898 . S
O73 C67 1.167 . S
O74 Zn65 2.120 . S
O74 C67 1.299 . S
O75 Zn63 1.898 . S
O75 C70 1.167 . S
O76 Zn65 2.120 . S
O76 C70 1.299 . S
O77 Zn65 2.114 . S
O77 C79 1.166 . S
O78 Zn63 1.905 . S
O78 C79 1.182 . S
C79 O77 1.166 . S
C79 O78 1.182 . S
O80 Zn65 2.080 . S
O80 C83 1.305 . S
O81 Zn64 1.920 . S
O81 C83 1.234 . S
C82 O68 1.305 . S
C82 O69 1.234 . S
C83 O80 1.305 . S
C83 O81 1.234 . S
P84 O95 1.490 . S
P84 C98 1.812 . S
P84 C104 1.803 . S
P84 C110 1.819 . S
H85 C99 0.941 . S
H86 C100 0.939 . S
H87 C102 0.940 . S
H88 C103 0.940 . S
H89 C105 0.939 . S
H90 C106 0.942 . S
H91 C108 0.940 . S
H92 C109 0.939 . S
H93 C111 0.941 . S
H94 C115 0.939 . S
O95 P84 1.490 . S
H96 C112 0.939 1_655 S
H97 C114 0.940 . S
C98 P84 1.812 . S
C98 C99 1.389 . S
C98 C103 1.391 . S
C99 H85 0.941 . S
C99 C98 1.389 . S
C99 C100 1.397 1_545 S
C100 H86 0.939 . S
C100 C99 1.397 1_565 S
C100 C101 1.378 . S
C101 C100 1.378 . S
C101 C102 1.378 1_565 S
C102 H87 0.940 . S
C102 C101 1.378 1_545 S
C102 C103 1.396 . S
C103 H88 0.940 . S
C103 C98 1.391 . S
C103 C102 1.396 . S
C104 P84 1.803 . S
C104 C105 1.378 . S
C104 C109 1.400 . S
C105 H89 0.939 . S
C105 C104 1.378 . S
C105 C106 1.361 . S
C106 H90 0.942 . S
C106 C105 1.361 . S
C106 C107 1.369 . S
C107 C106 1.369 . S
C107 C108 1.404 . S
C108 H91 0.940 . S
C108 C107 1.404 . S
C108 C109 1.389 . S
C109 H92 0.939 . S
C109 C104 1.400 . S
C109 C108 1.389 . S
C110 P84 1.819 . S
C110 C111 1.391 . S
C110 C115 1.391 . S
C111 H93 0.941 . S
C111 C110 1.391 . S
C111 C112 1.396 . S
C112 H96 0.939 1_455 S
C112 C111 1.396 . S
C112 C113 1.397 . S
C113 C112 1.397 . S
C113 C114 1.385 . S
C114 H97 0.940 . S
C114 C113 1.385 . S
C114 C115 1.388 . S
C115 H94 0.939 . S
C115 C110 1.391 . S
C115 C114 1.388 . S
P116 O127 1.490 . S
P116 C130 1.812 . S
P116 C136 1.803 . S
P116 C142 1.819 . S
H117 C131 0.941 . S
H118 C132 0.939 . S
H119 C134 0.940 . S
H120 C135 0.940 . S
H121 C137 0.939 . S
H122 C138 0.942 1_554 S
H123 C140 0.940 . S
H124 C141 0.939 . S
H125 C143 0.941 . S
H126 C147 0.939 . S
O127 P116 1.490 . S
H128 C144 0.939 . S
H129 C146 0.940 . S
C130 P116 1.812 . S
C130 C131 1.389 . S
C130 C135 1.391 . S
C131 H117 0.941 . S
C131 C130 1.389 . S
C131 C132 1.397 . S
C132 H118 0.939 . S
C132 C131 1.397 . S
C132 C133 1.378 . S
C133 C132 1.378 . S
C133 C134 1.378 . S
C134 H119 0.940 . S
C134 C133 1.378 . S
C134 C135 1.396 . S
C135 H120 0.940 . S
C135 C130 1.391 . S
C135 C134 1.396 . S
C136 P116 1.803 . S
C136 C137 1.378 . S
C136 C141 1.400 . S
C137 H121 0.939 . S
C137 C136 1.378 . S
C137 C138 1.361 . S
C138 H122 0.942 1_556 S
C138 C137 1.361 . S
C138 C139 1.369 . S
C139 C138 1.369 . S
C139 C140 1.404 . S
C140 H123 0.940 . S
C140 C139 1.404 . S
C140 C141 1.389 . S
C141 H124 0.939 . S
C141 C136 1.400 . S
C141 C140 1.389 . S
C142 P116 1.819 . S
C142 C143 1.391 . S
C142 C147 1.391 . S
C143 H125 0.941 . S
C143 C142 1.391 . S
C143 C144 1.396 . S
C144 H128 0.939 . S
C144 C143 1.396 . S
C144 C145 1.397 . S
C145 C144 1.397 . S
C145 C146 1.385 . S
C146 H129 0.940 . S
C146 C145 1.385 . S
C146 C147 1.388 . S
C147 H126 0.939 . S
C147 C142 1.391 . S
C147 C146 1.388 . S
P148 O159 1.490 . S
P148 C162 1.812 . S
P148 C168 1.803 . S
P148 C174 1.819 . S
H149 C163 0.941 . S
H150 C164 0.939 1_545 S
H151 C166 0.940 . S
H152 C167 0.940 . S
H153 C169 0.939 . S
H154 C170 0.942 . S
H155 C172 0.940 . S
H156 C173 0.939 . S
H157 C175 0.941 . S
H158 C179 0.939 . S
O159 P148 1.490 . S
H160 C176 0.939 . S
H161 C178 0.940 . S
C162 P148 1.812 . S
C162 C163 1.389 . S
C162 C167 1.391 . S
C163 H149 0.941 . S
C163 C162 1.389 . S
C163 C164 1.397 . S
C164 H150 0.939 1_565 S
C164 C163 1.397 . S
C164 C165 1.378 . S
C165 C164 1.378 . S
C165 C166 1.378 . S
C166 H151 0.940 . S
C166 C165 1.378 . S
C166 C167 1.396 . S
C167 H152 0.940 . S
C167 C162 1.391 . S
C167 C166 1.396 . S
C168 P148 1.803 . S
C168 C169 1.378 . S
C168 C173 1.400 . S
C169 H153 0.939 . S
C169 C168 1.378 . S
C169 C170 1.361 . S
C170 H154 0.942 . S
C170 C169 1.361 . S
C170 C171 1.369 . S
C171 C170 1.369 . S
C171 C172 1.404 . S
C172 H155 0.940 . S
C172 C171 1.404 . S
C172 C173 1.389 . S
C173 H156 0.939 . S
C173 C168 1.400 . S
C173 C172 1.389 . S
C174 P148 1.819 . S
C174 C175 1.391 . S
C174 C179 1.391 . S
C175 H157 0.941 . S
C175 C174 1.391 . S
C175 C176 1.396 . S
C176 H160 0.939 . S
C176 C175 1.396 . S
C176 C177 1.397 . S
C177 C176 1.397 . S
C177 C178 1.385 . S
C178 H161 0.940 . S
C178 C177 1.385 . S
C178 C179 1.388 . S
C179 H158 0.939 . S
C179 C174 1.391 . S
C179 C178 1.388 . S
P180 O191 1.490 . S
P180 C194 1.812 . S
P180 C200 1.803 . S
P180 C206 1.819 . S
H181 C195 0.941 . S
H182 C196 0.939 . S
H183 C198 0.940 . S
H184 C199 0.940 . S
H185 C201 0.939 . S
H186 C202 0.942 . S
H187 C204 0.940 . S
H188 C205 0.939 . S
H189 C207 0.941 . S
H190 C211 0.939 . S
O191 P180 1.490 . S
H192 C208 0.939 . S
H193 C210 0.940 . S
C194 P180 1.812 . S
C194 C195 1.389 . S
C194 C199 1.391 . S
C195 H181 0.941 . S
C195 C194 1.389 . S
C195 C196 1.397 . S
C196 H182 0.939 . S
C196 C195 1.397 . S
C196 C197 1.378 . S
C197 C196 1.378 . S
C197 C198 1.378 . S
C198 H183 0.940 . S
C198 C197 1.378 . S
C198 C199 1.396 . S
C199 H184 0.940 . S
C199 C194 1.391 . S
C199 C198 1.396 . S
C200 P180 1.803 . S
C200 C201 1.378 . S
C200 C205 1.400 . S
C201 H185 0.939 . S
C201 C200 1.378 . S
C201 C202 1.361 . S
C202 H186 0.942 . S
C202 C201 1.361 . S
C202 C203 1.369 . S
C203 C202 1.369 . S
C203 C204 1.404 . S
C204 H187 0.940 . S
C204 C203 1.404 . S
C204 C205 1.389 . S
C205 H188 0.939 . S
C205 C200 1.400 . S
C205 C204 1.389 . S
C206 P180 1.819 . S
C206 C207 1.391 . S
C206 C211 1.391 . S
C207 H189 0.941 . S
C207 C206 1.391 . S
C207 C208 1.396 . S
C208 H192 0.939 . S
C208 C207 1.396 . S
C208 C209 1.397 . S
C209 C208 1.397 . S
C209 C210 1.385 . S
C210 H193 0.940 . S
C210 C209 1.385 . S
C210 C211 1.388 . S
C211 H190 0.939 . S
C211 C206 1.391 . S
C211 C210 1.388 . S
P212 O223 1.490 . S
P212 C226 1.812 . S
P212 C232 1.803 . S
P212 C238 1.819 . S
H213 C227 0.941 . S
H214 C228 0.939 . S
H215 C230 0.940 . S
H216 C231 0.940 . S
H217 C233 0.939 . S
H218 C234 0.942 . S
H219 C236 0.940 . S
H220 C237 0.939 . S
H221 C239 0.941 . S
H222 C243 0.939 . S
O223 P212 1.490 . S
H224 C240 0.939 . S
H225 C242 0.940 . S
C226 P212 1.812 . S
C226 C227 1.389 . S
C226 C231 1.391 . S
C227 H213 0.941 . S
C227 C226 1.389 . S
C227 C228 1.397 . S
C228 H214 0.939 . S
C228 C227 1.397 . S
C228 C229 1.378 . S
C229 C228 1.378 . S
C229 C230 1.378 . S
C230 H215 0.940 . S
C230 C229 1.378 . S
C230 C231 1.396 . S
C231 H216 0.940 . S
C231 C226 1.391 . S
C231 C230 1.396 . S
C232 P212 1.803 . S
C232 C233 1.378 . S
C232 C237 1.400 . S
C233 H217 0.939 . S
C233 C232 1.378 . S
C233 C234 1.361 . S
C234 H218 0.942 . S
C234 C233 1.361 . S
C234 C235 1.369 . S
C235 C234 1.369 . S
C235 C236 1.404 . S
C236 H219 0.940 . S
C236 C235 1.404 . S
C236 C237 1.389 . S
C237 H220 0.939 . S
C237 C232 1.400 . S
C237 C236 1.389 . S
C238 P212 1.819 . S
C238 C239 1.391 . S
C238 C243 1.391 . S
C239 H221 0.941 . S
C239 C238 1.391 . S
C239 C240 1.396 . S
C240 H224 0.939 . S
C240 C239 1.396 . S
C240 C241 1.397 . S
C241 C240 1.397 . S
C241 C242 1.385 . S
C242 H225 0.940 . S
C242 C241 1.385 . S
C242 C243 1.388 . S
C243 H222 0.939 . S
C243 C238 1.391 . S
C243 C242 1.388 . S
P244 O255 1.490 1_556 S
P244 C258 1.812 . S
P244 C264 1.803 . S
P244 C270 1.819 . S
H245 C259 0.941 . S
H246 C260 0.939 . S
H247 C262 0.940 . S
H248 C263 0.940 . S
H249 C265 0.939 . S
H250 C266 0.942 . S
H251 C268 0.940 . S
H252 C269 0.939 . S
H253 C271 0.941 . S
H254 C275 0.939 . S
O255 P244 1.490 1_554 S
H256 C272 0.939 . S
H257 C274 0.940 . S
C258 P244 1.812 . S
C258 C259 1.389 1_556 S
C258 C263 1.391 . S
C259 H245 0.941 . S
C259 C258 1.389 1_554 S
C259 C260 1.397 . S
C260 H246 0.939 . S
C260 C259 1.397 . S
C260 C261 1.378 1_554 S
C261 C260 1.378 1_556 S
C261 C262 1.378 . S
C262 H247 0.940 . S
C262 C261 1.378 . S
C262 C263 1.396 . S
C263 H248 0.940 . S
C263 C258 1.391 . S
C263 C262 1.396 . S
C264 P244 1.803 . S
C264 C265 1.378 . S
C264 C269 1.400 . S
C265 H249 0.939 . S
C265 C264 1.378 . S
C265 C266 1.361 . S
C266 H250 0.942 . S
C266 C265 1.361 . S
C266 C267 1.369 . S
C267 C266 1.369 . S
C267 C268 1.404 . S
C268 H251 0.940 . S
C268 C267 1.404 . S
C268 C269 1.389 . S
C269 H252 0.939 . S
C269 C264 1.400 . S
C269 C268 1.389 . S
C270 P244 1.819 . S
C270 C271 1.391 1_556 S
C270 C275 1.391 . S
C271 H253 0.941 . S
C271 C270 1.391 1_554 S
C271 C272 1.396 . S
C272 H256 0.939 . S
C272 C271 1.396 . S
C272 C273 1.397 1_554 S
C273 C272 1.397 1_556 S
C273 C274 1.385 . S
C274 H257 0.940 . S
C274 C273 1.385 . S
C274 C275 1.388 . S
C275 H254 0.939 . S
C275 C270 1.391 . S
C275 C274 1.388 . S
P276 O287 1.490 . S
P276 C290 1.812 . S
P276 C296 1.803 . S
P276 C302 1.819 . S
H277 C291 0.941 . S
H278 C292 0.939 . S
H279 C294 0.940 . S
H280 C295 0.940 . S
H281 C297 0.939 . S
H282 C298 0.942 . S
H283 C300 0.940 . S
H284 C301 0.939 . S
H285 C303 0.941 . S
H286 C307 0.939 . S
O287 P276 1.490 . S
H288 C304 0.939 . S
H289 C306 0.940 . S
C290 P276 1.812 . S
C290 C291 1.389 . S
C290 C295 1.391 . S
C291 H277 0.941 . S
C291 C290 1.389 . S
C291 C292 1.397 . S
C292 H278 0.939 . S
C292 C291 1.397 . S
C292 C293 1.378 . S
C293 C292 1.378 . S
C293 C294 1.378 . S
C294 H279 0.940 . S
C294 C293 1.378 . S
C294 C295 1.396 . S
C295 H280 0.940 . S
C295 C290 1.391 . S
C295 C294 1.396 . S
C296 P276 1.803 . S
C296 C297 1.378 . S
C296 C301 1.400 . S
C297 H281 0.939 . S
C297 C296 1.378 . S
C297 C298 1.361 . S
C298 H282 0.942 . S
C298 C297 1.361 . S
C298 C299 1.369 . S
C299 C298 1.369 . S
C299 C300 1.404 . S
C300 H283 0.940 . S
C300 C299 1.404 . S
C300 C301 1.389 . S
C301 H284 0.939 . S
C301 C296 1.400 . S
C301 C300 1.389 . S
C302 P276 1.819 . S
C302 C303 1.391 . S
C302 C307 1.391 . S
C303 H285 0.941 . S
C303 C302 1.391 . S
C303 C304 1.396 . S
C304 H288 0.939 . S
C304 C303 1.396 . S
C304 C305 1.397 . S
C305 C304 1.397 . S
C305 C306 1.385 . S
C306 H289 0.940 . S
C306 C305 1.385 . S
C306 C307 1.388 . S
C307 H286 0.939 . S
C307 C302 1.391 . S
C307 C306 1.388 . S
P308 O319 1.490 . S
P308 C322 1.812 . S
P308 C328 1.803 . S
P308 C334 1.819 . S
H309 C323 0.941 . S
H310 C324 0.939 . S
H311 C326 0.940 . S
H312 C327 0.940 . S
H313 C329 0.939 . S
H314 C330 0.942 . S
H315 C332 0.940 . S
H316 C333 0.939 . S
H317 C335 0.941 . S
H318 C339 0.939 . S
O319 P308 1.490 . S
H320 C336 0.939 . S
H321 C338 0.940 . S
C322 P308 1.812 . S
C322 C323 1.389 . S
C322 C327 1.391 . S
C323 H309 0.941 . S
C323 C322 1.389 . S
C323 C324 1.397 . S
C324 H310 0.939 . S
C324 C323 1.397 . S
C324 C325 1.378 . S
C325 C324 1.378 . S
C325 C326 1.378 . S
C326 H311 0.940 . S
C326 C325 1.378 . S
C326 C327 1.396 . S
C327 H312 0.940 . S
C327 C322 1.391 . S
C327 C326 1.396 . S
C328 P308 1.803 . S
C328 C329 1.378 . S
C328 C333 1.400 . S
C329 H313 0.939 . S
C329 C328 1.378 . S
C329 C330 1.361 . S
C330 H314 0.942 . S
C330 C329 1.361 . S
C330 C331 1.369 . S
C331 C330 1.369 . S
C331 C332 1.404 . S
C332 H315 0.940 . S
C332 C331 1.404 . S
C332 C333 1.389 . S
C333 H316 0.939 . S
C333 C328 1.400 . S
C333 C332 1.389 . S
C334 P308 1.819 . S
C334 C335 1.391 . S
C334 C339 1.391 . S
C335 H317 0.941 . S
C335 C334 1.391 . S
C335 C336 1.396 1_655 S
C336 H320 0.939 . S
C336 C335 1.396 1_455 S
C336 C337 1.397 . S
C337 C336 1.397 . S
C337 C338 1.385 . S
C338 H321 0.940 . S
C338 C337 1.385 . S
C338 C339 1.388 1_455 S
C339 H318 0.939 . S
C339 C334 1.391 . S
C339 C338 1.388 1_655 S
C340 C341 1.369 . S
C340 C342 1.419 . S
C340 H344 0.930 . S
C341 C340 1.369 . S
C341 C350 1.429 . S
C342 C340 1.419 . S
C342 C343 1.363 . S
C342 H345 0.929 . S
C343 C342 1.363 . S
C343 C349 1.428 . S
H344 C340 0.930 . S
H345 C342 0.929 . S
S346 N347 1.613 . S
S346 N348 1.610 . S
N347 S346 1.613 . S
N347 C350 1.350 . S
N348 S346 1.610 . S
N348 C349 1.351 . S
C349 C343 1.428 . S
C349 N348 1.351 . S
C349 C350 1.434 . S
C350 C341 1.429 . S
C350 N347 1.350 . S
C350 C349 1.434 . S
C351 C352 1.369 . S
C351 C353 1.419 . S
C351 H355 0.930 . S
C352 C351 1.369 . S
C352 C361 1.429 . S
C353 C351 1.419 . S
C353 C354 1.363 . S
C353 H356 0.929 . S
C354 C353 1.363 . S
C354 C360 1.428 . S
H355 C351 0.930 . S
H356 C353 0.929 . S
S357 N358 1.613 . S
S357 N359 1.610 . S
N358 S357 1.613 . S
N358 C361 1.350 . S
N359 S357 1.610 . S
N359 C360 1.351 . S
C360 C354 1.428 . S
C360 N359 1.351 . S
C360 C361 1.434 . S
C361 C352 1.429 . S
C361 N358 1.350 . S
C361 C360 1.434 . S
C362 C363 1.369 . S
C362 C364 1.419 . S
C362 H366 0.931 1_554 S
C363 C362 1.369 . S
C363 C372 1.429 . S
C364 C362 1.419 . S
C364 C365 1.363 . S
C364 H367 0.929 . S
C365 C364 1.363 . S
C365 C371 1.428 . S
H366 C362 0.931 1_556 S
H367 C364 0.929 . S
S368 N369 1.613 . S
S368 N370 1.610 1_545 S
N369 S368 1.613 . S
N369 C372 1.350 . S
N370 S368 1.610 1_565 S
N370 C371 1.351 1_565 S
C371 C365 1.428 . S
C371 N370 1.351 1_545 S
C371 C372 1.434 . S
C372 C363 1.429 . S
C372 N369 1.350 . S
C372 C371 1.434 . S
C373 C374 1.369 . S
C373 C375 1.419 . S
C373 H377 0.930 . S
C374 C373 1.369 . S
C374 C383 1.429 . S
C375 C373 1.419 . S
C375 C376 1.363 . S
C375 H378 0.929 . S
C376 C375 1.363 . S
C376 C382 1.428 . S
H377 C373 0.930 . S
H378 C375 0.929 . S
S379 N380 1.613 . S
S379 N381 1.610 . S
N380 S379 1.613 . S
N380 C383 1.350 . S
N381 S379 1.610 . S
N381 C382 1.351 . S
C382 C376 1.428 . S
C382 N381 1.351 . S
C382 C383 1.434 . S
C383 C374 1.429 . S
C383 N380 1.350 . S
C383 C382 1.434 . S
C384 C385 1.369 . S
C384 C386 1.419 . S
C384 H388 0.930 . S
C385 C384 1.369 . S
C385 C394 1.429 . S
C386 C384 1.419 . S
C386 C387 1.363 . S
C386 H389 0.929 . S
C387 C386 1.363 . S
C387 C393 1.428 . S
H388 C384 0.930 . S
H389 C386 0.929 . S
S390 N391 1.613 . S
S390 N392 1.610 . S
N391 S390 1.613 . S
N391 C394 1.350 . S
N392 S390 1.610 . S
N392 C393 1.351 . S
C393 C387 1.428 . S
C393 N392 1.351 . S
C393 C394 1.434 . S
C394 C385 1.429 . S
C394 N391 1.350 . S
C394 C393 1.434 . S
C395 C396 1.382 . S
C395 C397 1.419 1_656 S
C395 H399 0.916 1_556 S
C396 C395 1.382 . S
C396 C405 1.429 . S
C397 C395 1.419 1_454 S
C397 C398 1.352 1_554 S
C397 H400 0.941 . S
C398 C397 1.352 1_556 S
C398 C404 1.428 . S
H399 C395 0.916 1_554 S
H400 C397 0.941 . S
S401 N402 1.613 . S
S401 N403 1.610 1_655 S
N402 S401 1.613 . S
N402 C405 1.350 . S
N403 S401 1.610 1_455 S
N403 C404 1.351 . S
C404 C398 1.428 . S
C404 N403 1.351 . S
C404 C405 1.434 1_455 S
C405 C396 1.429 . S
C405 N402 1.350 . S
C405 C404 1.434 1_655 S
C406 C407 1.369 . S
C406 C408 1.419 . S
C406 H410 0.930 . S
C407 C406 1.369 . S
C407 C416 1.429 . S
C408 C406 1.419 . S
C408 C409 1.363 . S
C408 H411 0.929 . S
C409 C408 1.363 . S
C409 C415 1.428 . S
H410 C406 0.930 . S
H411 C408 0.929 . S
S412 N413 1.613 . S
S412 N414 1.610 . S
N413 S412 1.613 . S
N413 C416 1.350 . S
N414 S412 1.610 . S
N414 C415 1.351 . S
C415 C409 1.428 . S
C415 N414 1.351 . S
C415 C416 1.434 . S
C416 C407 1.429 . S
C416 N413 1.350 . S
C416 C415 1.434 . S
C417 C418 1.369 . S
C417 C419 1.419 . S
C417 H421 0.930 . S
C418 C417 1.369 . S
C418 C427 1.429 . S
C419 C417 1.419 . S
C419 C420 1.363 . S
C419 H422 0.929 . S
C420 C419 1.363 . S
C420 C426 1.428 . S
H421 C417 0.930 . S
H422 C419 0.929 . S
S423 N424 1.613 1_655 S
S423 N425 1.610 . S
N424 S423 1.613 1_455 S
N424 C427 1.350 . S
N425 S423 1.610 . S
N425 C426 1.351 1_655 S
C426 C420 1.428 . S
C426 N425 1.351 1_455 S
C426 C427 1.434 . S
C427 C418 1.429 . S
C427 N424 1.350 . S
C427 C426 1.434 . S
C428 C429 1.369 . S
C428 C430 1.419 1_545 S
C428 H432 0.930 . S
C429 C428 1.369 . S
C429 C438 1.429 . S
C430 C428 1.419 1_565 S
C430 C431 1.363 . S
C430 H433 0.929 . S
C431 C430 1.363 . S
C431 C437 1.428 1_565 S
H432 C428 0.930 . S
H433 C430 0.929 . S
S434 N435 1.613 . S
S434 N436 1.610 . S
N435 S434 1.613 . S
N435 C438 1.350 . S
N436 S434 1.610 . S
N436 C437 1.351 . S
C437 C431 1.428 1_545 S
C437 N436 1.351 . S
C437 C438 1.434 . S
C438 C429 1.429 . S
C438 N435 1.350 . S
C438 C437 1.434 . S
C439 C440 1.369 . S
C439 C441 1.419 . S
C439 H443 0.930 . S
C440 C439 1.369 . S
C440 C449 1.429 . S
C441 C439 1.419 . S
C441 C442 1.363 . S
C441 H444 0.929 . S
C442 C441 1.363 . S
C442 C448 1.428 . S
H443 C439 0.930 . S
H444 C441 0.929 . S
S445 N446 1.613 . S
S445 N447 1.610 . S
N446 S445 1.613 . S
N446 C449 1.350 . S
N447 S445 1.610 . S
N447 C448 1.351 . S
C448 C442 1.428 . S
C448 N447 1.351 . S
C448 C449 1.434 . S
C449 C440 1.429 . S
C449 N446 1.350 . S
C449 C448 1.434 . S
C450 C451 1.369 1_554 S
C450 C452 1.417 1_564 S
C450 H454 0.930 . S
C451 C450 1.369 1_556 S
C451 C460 1.429 . S
C452 C450 1.417 1_546 S
C452 C453 1.368 . S
C452 H455 0.926 1_556 S
C453 C452 1.368 . S
C453 C459 1.428 . S
H454 C450 0.930 . S
H455 C452 0.926 1_554 S
S456 N457 1.613 1_545 S
S456 N458 1.610 . S
N457 S456 1.613 1_565 S
N457 C460 1.350 . S
N458 S456 1.610 . S
N458 C459 1.351 . S
C459 C453 1.428 . S
C459 N458 1.351 . S
C459 C460 1.434 1_545 S
C460 C451 1.429 . S
C460 N457 1.350 . S
C460 C459 1.434 1_565 S
C461 C462 1.369 . S
C461 C463 1.419 . S
C461 H465 0.930 . S
C462 C461 1.369 . S
C462 C471 1.429 . S
C463 C461 1.419 . S
C463 C464 1.363 . S
C463 H466 0.929 . S
C464 C463 1.363 . S
C464 C470 1.428 . S
H465 C461 0.930 . S
H466 C463 0.929 . S
S467 N468 1.613 . S
S467 N469 1.610 . S
N468 S467 1.613 . S
N468 C471 1.350 . S
N469 S467 1.610 . S
N469 C470 1.351 . S
C470 C464 1.428 . S
C470 N469 1.351 . S
C470 C471 1.434 . S
C471 C462 1.429 . S
C471 N468 1.350 . S
C471 C470 1.434 . S
C472 C473 1.369 . S
C472 C474 1.419 . S
C472 H476 0.930 . S
C473 C472 1.369 . S
C473 C482 1.429 . S
C474 C472 1.419 . S
C474 C475 1.363 . S
C474 H477 0.929 . S
C475 C474 1.363 . S
C475 C481 1.428 . S
H476 C472 0.930 . S
H477 C474 0.929 . S
S478 N479 1.613 . S
S478 N480 1.610 . S
N479 S478 1.613 . S
N479 C482 1.350 . S
N480 S478 1.610 . S
N480 C481 1.351 . S
C481 C475 1.428 . S
C481 N480 1.351 . S
C481 C482 1.434 . S
C482 C473 1.429 . S
C482 N479 1.350 . S
C482 C481 1.434 . S
C483 C484 1.369 1_655 S
C483 C485 1.419 . S
C483 H487 0.930 1_655 S
C484 C483 1.369 1_455 S
C484 C493 1.429 1_455 S
C485 C483 1.419 . S
C485 C486 1.363 . S
C485 H488 0.929 . S
C486 C485 1.363 . S
C486 C492 1.428 . S
H487 C483 0.930 1_455 S
H488 C485 0.929 . S
S489 N490 1.613 . S
S489 N491 1.610 . S
N490 S489 1.613 . S
N490 C493 1.350 . S
N491 S489 1.610 . S
N491 C492 1.351 . S
C492 C486 1.428 . S
C492 N491 1.351 . S
C492 C493 1.434 . S
C493 C484 1.429 1_655 S
C493 N490 1.350 . S
C493 C492 1.434 . S
C494 C495 1.369 . S
C494 C496 1.419 . S
C494 H498 0.930 . S
C495 C494 1.369 . S
C495 C504 1.429 . S
C496 C494 1.419 . S
C496 C497 1.363 . S
C496 H499 0.929 . S
C497 C496 1.363 . S
C497 C503 1.428 . S
H498 C494 0.930 . S
H499 C496 0.929 . S
S500 N501 1.613 . S
S500 N502 1.610 . S
N501 S500 1.613 . S
N501 C504 1.350 . S
N502 S500 1.610 . S
N502 C503 1.351 . S
C503 C497 1.428 . S
C503 N502 1.351 . S
C503 C504 1.434 . S
C504 C495 1.429 . S
C504 N501 1.350 . S
C504 C503 1.434 . S
C505 C506 1.369 . S
C505 C507 1.419 . S
C505 H509 0.930 . S
C506 C505 1.369 . S
C506 C515 1.429 . S
C507 C505 1.419 . S
C507 C508 1.363 . S
C507 H510 0.929 . S
C508 C507 1.363 . S
C508 C514 1.428 1_655 S
H509 C505 0.930 . S
H510 C507 0.929 . S
S511 N512 1.613 1_455 S
S511 N513 1.610 . S
N512 S511 1.613 1_655 S
N512 C515 1.350 . S
N513 S511 1.610 . S
N513 C514 1.351 . S
C514 C508 1.428 1_455 S
C514 N513 1.351 . S
C514 C515 1.434 1_455 S
C515 C506 1.429 . S
C515 N512 1.350 . S
C515 C514 1.434 1_655 S
C516 C517 1.369 . S
C516 C518 1.419 . S
C516 H520 0.930 . S
C517 C516 1.369 . S
C517 C526 1.429 . S
C518 C516 1.419 . S
C518 C519 1.363 . S
C518 H521 0.929 . S
C519 C518 1.363 . S
C519 C525 1.428 . S
H520 C516 0.930 . S
H521 C518 0.929 . S
S522 N523 1.613 . S
S522 N524 1.610 . S
N523 S522 1.613 . S
N523 C526 1.350 . S
N524 S522 1.610 . S
N524 C525 1.351 . S
C525 C519 1.428 . S
C525 N524 1.351 . S
C525 C526 1.434 . S
C526 C517 1.429 . S
C526 N523 1.350 . S
C526 C525 1.434 . S
C527 C528 1.369 . S
C527 C529 1.419 . S
C527 H531 0.930 . S
C528 C527 1.369 . S
C528 C537 1.429 . S
C529 C527 1.419 . S
C529 C530 1.363 . S
C529 H532 0.929 . S
C530 C529 1.363 . S
C530 C536 1.428 . S
H531 C527 0.930 . S
H532 C529 0.929 . S
S533 N534 1.613 . S
S533 N535 1.610 . S
N534 S533 1.613 . S
N534 C537 1.350 . S
N535 S533 1.610 . S
N535 C536 1.351 . S
C536 C530 1.428 . S
C536 N535 1.351 . S
C536 C537 1.434 . S
C537 C528 1.429 . S
C537 N534 1.350 . S
C537 C536 1.434 . S
C538 C539 1.369 . S
C538 C540 1.419 . S
C538 H542 0.930 . S
C539 C538 1.369 . S
C539 C548 1.429 . S
C540 C538 1.419 . S
C540 C541 1.363 . S
C540 H543 0.929 . S
C541 C540 1.363 . S
C541 C547 1.428 . S
H542 C538 0.930 . S
H543 C540 0.929 . S
S544 N545 1.613 . S
S544 N546 1.610 . S
N545 S544 1.613 . S
N545 C548 1.350 . S
N546 S544 1.610 . S
N546 C547 1.351 . S
C547 C541 1.428 . S
C547 N546 1.351 . S
C547 C548 1.434 . S
C548 C539 1.429 . S
C548 N545 1.350 . S
C548 C547 1.434 . S
C549 C550 1.369 . S
C549 C551 1.419 . S
C549 H553 0.930 . S
C550 C549 1.369 . S
C550 C559 1.429 . S
C551 C549 1.419 . S
C551 C552 1.363 . S
C551 H554 0.929 . S
C552 C551 1.363 . S
C552 C558 1.428 . S
H553 C549 0.930 . S
H554 C551 0.929 . S
S555 N556 1.613 . S
S555 N557 1.610 . S
N556 S555 1.613 . S
N556 C559 1.350 . S
N557 S555 1.610 . S
N557 C558 1.351 . S
C558 C552 1.428 . S
C558 N557 1.351 . S
C558 C559 1.434 . S
C559 C550 1.429 . S
C559 N556 1.350 . S
C559 C558 1.434 . S
C560 C561 1.369 . S
C560 C562 1.419 . S
C560 H564 0.930 . S
C561 C560 1.369 . S
C561 C570 1.429 . S
C562 C560 1.419 . S
C562 C563 1.363 . S
C562 H565 0.929 . S
C563 C562 1.363 . S
C563 C569 1.428 . S
H564 C560 0.930 . S
H565 C562 0.929 . S
S566 N567 1.613 . S
S566 N568 1.610 . S
N567 S566 1.613 . S
N567 C570 1.350 . S
N568 S566 1.610 . S
N568 C569 1.351 . S
C569 C563 1.428 . S
C569 N568 1.351 . S
C569 C570 1.434 . S
C570 C561 1.429 . S
C570 N567 1.350 . S
C570 C569 1.434 . S
C571 C572 1.369 . S
C571 C573 1.419 . S
C571 H575 0.930 . S
C572 C571 1.369 . S
C572 C581 1.429 . S
C573 C571 1.419 . S
C573 C574 1.363 . S
C573 H576 0.929 . S
C574 C573 1.363 . S
C574 C580 1.428 . S
H575 C571 0.930 . S
H576 C573 0.929 . S
S577 N578 1.613 . S
S577 N579 1.610 . S
N578 S577 1.613 . S
N578 C581 1.350 . S
N579 S577 1.610 . S
N579 C580 1.351 . S
C580 C574 1.428 . S
C580 N579 1.351 . S
C580 C581 1.434 . S
C581 C572 1.429 . S
C581 N578 1.350 . S
C581 C580 1.434 . S
C582 C583 1.369 . S
C582 C584 1.419 . S
C582 H586 0.930 . S
C583 C582 1.369 . S
C583 C592 1.429 . S
C584 C582 1.419 . S
C584 C585 1.363 . S
C584 H587 0.929 . S
C585 C584 1.363 . S
C585 C591 1.428 . S
H586 C582 0.930 . S
H587 C584 0.929 . S
S588 N589 1.613 . S
S588 N590 1.610 . S
N589 S588 1.613 . S
N589 C592 1.350 . S
N590 S588 1.610 . S
N590 C591 1.351 . S
C591 C585 1.428 . S
C591 N590 1.351 . S
C591 C592 1.434 . S
C592 C583 1.429 . S
C592 N589 1.350 . S
C592 C591 1.434 . S
C593 C594 1.369 1_554 S
C593 C595 1.419 . S
C593 H597 0.930 . S
C594 C593 1.369 1_556 S
C594 C603 1.429 . S
C595 C593 1.419 . S
C595 C596 1.363 1_554 S
C595 H598 0.929 . S
C596 C595 1.363 1_556 S
C596 C602 1.428 . S
H597 C593 0.930 . S
H598 C595 0.929 . S
S599 N600 1.613 . S
S599 N601 1.610 . S
N600 S599 1.613 . S
N600 C603 1.350 . S
N601 S599 1.610 . S
N601 C602 1.351 . S
C602 C596 1.428 . S
C602 N601 1.351 . S
C602 C603 1.434 . S
C603 C594 1.429 . S
C603 N600 1.350 . S
C603 C602 1.434 . S
C341 C7 0.971 . S
C343 C101 1.091 . S
C352 C25 1.065 . S
C354 C133 1.196 . S
C363 C46 1.293 . S
C365 C165 1.193 1_545 S
C376 C209 1.165 . S
C374 C70 1.150 . S
C387 C229 1.030 . S
C385 C28 0.921 . S
C396 C49 1.156 . S
C398 C273 1.179 . S
C407 C67 1.272 . S
C409 C293 1.195 . S
C418 C4 1.089 . S
C420 C337 1.061 . S
C429 C58 1.634 . S
C431 C325 1.711 . S
C442 C241 1.672 . S
C440 C66 1.569 . S
C453 C261 1.950 . S
C451 C3 1.918 . S
C462 C37 1.743 . S
C464 C305 1.699 . S
C475 C145 1.855 . S
C473 C79 1.670 . S
C484 C16 1.757 . S
C486 C177 1.694 . S
C497 C197 1.919 . S
C495 C24 1.892 . S
C508 C113 1.662 1_655 S
C506 C45 1.556 . S
C519 C299 1.464 . S
C517 C19 1.305 . S
C530 C331 1.328 . S
C528 C41 1.330 . S
C539 C62 1.217 . S
C541 C235 1.292 . S
C552 C267 1.508 . S
C550 C82 1.214 . S
C563 C171 1.470 . S
C561 C40 1.312 . S
C572 C61 1.202 . S
C574 C203 1.476 . S
C585 C107 1.323 . S
C583 C83 1.243 . S
C596 C139 1.427 . S
C594 C20 1.312 . S
