# Generated by pormake.
# Topology ant, (3,6)-cn, num edge types: 1
# Building blocks:
#     Node 0, Type 0, BuildingBlock: BELTOD_clean_linker_0, # of connection points: 3
#     Node 1, Type 0, BuildingBlock: BELTOD_clean_linker_0, # of connection points: 3
#     Node 2, Type 0, BuildingBlock: BELTOD_clean_linker_0, # of connection points: 3
#     Node 3, Type 0, BuildingBlock: BELTOD_clean_linker_0, # of connection points: 3
#     Node 4, Type 0, BuildingBlock: BELTOD_clean_linker_0, # of connection points: 3
#     Node 5, Type 0, BuildingBlock: BELTOD_clean_linker_0, # of connection points: 3
#     Node 6, Type 0, BuildingBlock: BELTOD_clean_linker_0, # of connection points: 3
#     Node 7, Type 0, BuildingBlock: BELTOD_clean_linker_0, # of connection points: 3
#     Node 8, Type 1, BuildingBlock: MIDCAF_clean_sbu_0, # of connection points: 6
#     Node 9, Type 1, BuildingBlock: MIDCAF_clean_sbu_0, # of connection points: 6
#     Node 10, Type 1, BuildingBlock: MIDCAF_clean_sbu_0, # of connection points: 6
#     Node 11, Type 1, BuildingBlock: MIDCAF_clean_sbu_0, # of connection points: 6
#     Edge 12, Type (0, 1), BuildingBlock: UVAHIK_clean_linker_0, # of connection points: 2
#     Edge 13, Type (0, 1), BuildingBlock: UVAHIK_clean_linker_0, # of connection points: 2
#     Edge 14, Type (0, 1), BuildingBlock: UVAHIK_clean_linker_0, # of connection points: 2
#     Edge 15, Type (0, 1), BuildingBlock: UVAHIK_clean_linker_0, # of connection points: 2
#     Edge 16, Type (0, 1), BuildingBlock: UVAHIK_clean_linker_0, # of connection points: 2
#     Edge 17, Type (0, 1), BuildingBlock: UVAHIK_clean_linker_0, # of connection points: 2
#     Edge 18, Type (0, 1), BuildingBlock: UVAHIK_clean_linker_0, # of connection points: 2
#     Edge 19, Type (0, 1), BuildingBlock: UVAHIK_clean_linker_0, # of connection points: 2
#     Edge 20, Type (0, 1), BuildingBlock: UVAHIK_clean_linker_0, # of connection points: 2
#     Edge 21, Type (0, 1), BuildingBlock: UVAHIK_clean_linker_0, # of connection points: 2
#     Edge 22, Type (0, 1), BuildingBlock: UVAHIK_clean_linker_0, # of connection points: 2
#     Edge 23, Type (0, 1), BuildingBlock: UVAHIK_clean_linker_0, # of connection points: 2
#     Edge 24, Type (0, 1), BuildingBlock: UVAHIK_clean_linker_0, # of connection points: 2
#     Edge 25, Type (0, 1), BuildingBlock: UVAHIK_clean_linker_0, # of connection points: 2
#     Edge 26, Type (0, 1), BuildingBlock: UVAHIK_clean_linker_0, # of connection points: 2
#     Edge 27, Type (0, 1), BuildingBlock: UVAHIK_clean_linker_0, # of connection points: 2
#     Edge 28, Type (0, 1), BuildingBlock: UVAHIK_clean_linker_0, # of connection points: 2
#     Edge 29, Type (0, 1), BuildingBlock: UVAHIK_clean_linker_0, # of connection points: 2
#     Edge 30, Type (0, 1), BuildingBlock: UVAHIK_clean_linker_0, # of connection points: 2
#     Edge 31, Type (0, 1), BuildingBlock: UVAHIK_clean_linker_0, # of connection points: 2
#     Edge 32, Type (0, 1), BuildingBlock: UVAHIK_clean_linker_0, # of connection points: 2
#     Edge 33, Type (0, 1), BuildingBlock: UVAHIK_clean_linker_0, # of connection points: 2
#     Edge 34, Type (0, 1), BuildingBlock: UVAHIK_clean_linker_0, # of connection points: 2
#     Edge 35, Type (0, 1), BuildingBlock: UVAHIK_clean_linker_0, # of connection points: 2
# Relax obj value: 0.095
# Max RMSD: 0.155
# Mean RMSD: 0.097
data_MOF--net-ant--node1-MIDCAF_clean_sbu_0--node2-BELTOD_clean_linker_0--edge1-UVAHIK_clean_linker_0
_symmetry_space_group_name_H-M    P1
_symmetry_Int_Tables_number       1
_symmetry_cell_setting            triclinic
loop_
_symmetry_equiv_pos_as_xyz
'x, y, z'
_cell_length_a     40.5834
_cell_length_b     40.152538
_cell_length_c     108.36995
_cell_angle_alpha  90.635933
_cell_angle_beta   95.065376
_cell_angle_gamma 91.268369
loop_
_atom_site_label
_atom_site_type_symbol
_atom_site_fract_x
_atom_site_fract_y
_atom_site_fract_z
_atom_type_partial_charge
P0 P 0.23041 0.2116 0.0628 0.0
H1 H 0.23034 0.23912 0.08768 0.0
H2 H 0.2064 0.28893 0.096 0.0
H3 H 0.1575 0.30839 0.05978 0.0
H4 H 0.18324 0.26011 0.05145 0.0
H5 H 0.26845 0.15162 0.06568 0.0
H6 H 0.25596 0.09622 0.07335 0.0
H7 H 0.16048 0.12947 0.08254 0.0
H8 H 0.17334 0.18512 0.07489 0.0
H9 H 0.27116 0.21135 0.04182 0.0
H10 H 0.16833 0.19628 0.04781 0.0
O11 O 0.27073 0.22074 0.06555 0.0
H12 H 0.25826 0.20178 0.01972 0.0
H13 H 0.15464 0.18876 0.02553 0.0
C14 C 0.20839 0.24558 0.06899 0.0
C15 C 0.21417 0.25398 0.08158 0.0
C16 C 0.20024 0.28243 0.08633 0.0
C17 C 0.17996 0.30293 0.07857 0.0
C18 C 0.1734 0.29366 0.06601 0.0
C19 C 0.18779 0.26554 0.06125 0.0
C20 C 0.22212 0.17258 0.06997 0.0
C21 C 0.24507 0.14716 0.06955 0.0
C22 C 0.23777 0.11543 0.07382 0.0
C23 C 0.20721 0.10848 0.07853 0.0
C24 C 0.18439 0.13421 0.07911 0.0
C25 C 0.1917 0.16599 0.07475 0.0
C26 C 0.22057 0.20527 0.04641 0.0
C27 C 0.24567 0.20645 0.03835 0.0
C28 C 0.23816 0.20114 0.02565 0.0
C29 C 0.20527 0.19494 0.02072 0.0
C30 C 0.18027 0.19313 0.02893 0.0
C31 C 0.18797 0.19783 0.04168 0.0
P32 P 0.08997 0.70215 0.31475 0.0
H33 H 0.12614 0.69399 0.33896 0.0
H34 H 0.17991 0.71636 0.34785 0.0
H35 H 0.18415 0.78164 0.31662 0.0
H36 H 0.13046 0.75983 0.30791 0.0
H37 H 0.03179 0.6591 0.31446 0.0
H38 H 0.97587 0.66856 0.32001 0.0
H39 H 0.00751 0.76499 0.33544 0.0
H40 H 0.06352 0.75546 0.32957 0.0
H41 H 0.1267 0.69035 0.29333 0.0
H42 H 0.0399 0.74394 0.30136 0.0
O43 O 0.0994 0.66191 0.3147 0.0
H44 H 0.11948 0.70887 0.27182 0.0
H45 H 0.03247 0.76212 0.27992 0.0
C46 C 0.12456 0.72475 0.32268 0.0
C47 C 0.13824 0.71378 0.33421 0.0
C48 C 0.16889 0.72661 0.33929 0.0
C49 C 0.18633 0.75039 0.33282 0.0
C50 C 0.17139 0.76301 0.32171 0.0
C51 C 0.14065 0.75046 0.31672 0.0
C52 C 0.05187 0.7063 0.32183 0.0
C53 C 0.02693 0.68185 0.31938 0.0
C54 C -0.00509 0.68734 0.32255 0.0
C55 C 0.98714 0.71758 0.32814 0.0
C56 C 0.01261 0.74156 0.33102 0.0
C57 C 0.04472 0.73601 0.32783 0.0
C58 C 0.08357 0.7152 0.29889 0.0
C59 C 0.106 0.70588 0.29045 0.0
C60 C 0.102 0.71669 0.27822 0.0
C61 C 0.07536 0.73688 0.27423 0.0
C62 C 0.05299 0.7463 0.28273 0.0
C63 C 0.05726 0.73582 0.295 0.0
P64 P 0.71385 0.69966 0.57223 0.0
H65 H 0.73724 0.74367 0.59295 0.0
H66 H 0.7149 0.79383 0.60164 0.0
H67 H 0.62928 0.78501 0.57501 0.0
H68 H 0.65203 0.73489 0.56628 0.0
H69 H 0.70839 0.63238 0.56184 0.0
H70 H 0.68409 0.58053 0.56881 0.0
H71 H 0.65464 0.63151 0.60123 0.0
H72 H 0.67876 0.68365 0.59412 0.0
H73 H 0.75737 0.72633 0.5545 0.0
H74 H 0.66008 0.68041 0.55341 0.0
O75 O 0.75406 0.69828 0.57694 0.0
H76 H 0.75188 0.73025 0.53192 0.0
H77 H 0.65424 0.68451 0.53081 0.0
C78 C 0.69663 0.736 0.57881 0.0
C79 C 0.71369 0.75253 0.58896 0.0
C80 C 0.70072 0.78105 0.594 0.0
C81 C 0.67034 0.79347 0.58898 0.0
C82 C 0.65295 0.77633 0.57896 0.0
C83 C 0.66592 0.74769 0.57397 0.0
C84 C 0.69442 0.66209 0.57724 0.0
C85 C 0.69617 0.63261 0.57033 0.0
C86 C 0.6823 0.60298 0.57433 0.0
C87 C 0.66709 0.60212 0.58548 0.0
C88 C 0.66609 0.63154 0.59257 0.0
C89 C 0.67967 0.66134 0.58847 0.0
C90 C 0.70945 0.70243 0.55559 0.0
C91 C 0.73487 0.71696 0.54939 0.0
C92 C 0.73161 0.71938 0.53649 0.0
C93 C 0.7027 0.70747 0.52957 0.0
C94 C 0.67704 0.69334 0.53586 0.0
C95 C 0.68031 0.69108 0.54877 0.0
P96 P 0.59928 0.23703 0.80804 0.0
H97 H 0.64789 0.21232 0.827 0.0
H98 H 0.69731 0.2377 0.83788 0.0
H99 H 0.67118 0.33301 0.82208 0.0
H100 H 0.62208 0.30689 0.81085 0.0
H101 H 0.53986 0.19703 0.80197 0.0
H102 H 0.48279 0.20209 0.80696 0.0
H103 H 0.51154 0.28761 0.83037 0.0
H104 H 0.56869 0.28273 0.82504 0.0
H105 H 0.64234 0.22825 0.78828 0.0
H106 H 0.55581 0.28455 0.79437 0.0
O107 O 0.60839 0.19683 0.80692 0.0
H108 H 0.64096 0.24904 0.76715 0.0
H109 H 0.5544 0.30568 0.77326 0.0
C110 C 0.63162 0.2576 0.81797 0.0
C111 C 0.65252 0.23877 0.826 0.0
C112 C 0.68076 0.25347 0.8323 0.0
C113 C 0.68855 0.28745 0.8308 0.0
C114 C 0.66636 0.30667 0.82328 0.0
C115 C 0.63812 0.29184 0.81692 0.0
C116 C 0.55857 0.2391 0.81333 0.0
C117 C 0.53398 0.21652 0.80836 0.0
C118 C 0.50131 0.21943 0.81124 0.0
C119 C 0.4925 0.24518 0.81911 0.0
C120 C 0.51739 0.26765 0.82419 0.0
C121 C 0.55016 0.26472 0.82126 0.0
C122 C 0.59878 0.25421 0.79277 0.0
C123 C 0.62312 0.24519 0.78507 0.0
C124 C 0.62245 0.25735 0.77303 0.0
C125 C 0.59745 0.27892 0.76851 0.0
C126 C 0.57366 0.28873 0.77642 0.0
C127 C 0.57446 0.27664 0.78849 0.0
P128 P 0.13711 0.74326 0.92766 0.0
H129 H 0.11488 0.72145 0.90248 0.0
H130 H 0.08059 0.67379 0.89443 0.0
H131 H 0.05462 0.6531 0.93143 0.0
H132 H 0.08885 0.70064 0.93939 0.0
H133 H 0.17584 0.80231 0.93506 0.0
H134 H 0.1699 0.86123 0.93066 0.0
H135 H 0.07966 0.83872 0.90751 0.0
H136 H 0.08522 0.77952 0.91245 0.0
H137 H 0.17613 0.69662 0.94302 0.0
H138 H 0.11364 0.7799 0.94869 0.0
O139 O 0.17155 0.73255 0.92141 0.0
H140 H 0.18821 0.6918 0.96546 0.0
H141 H 0.12578 0.77537 0.97112 0.0
C142 C 0.10477 0.71446 0.92154 0.0
C143 C 0.10105 0.70721 0.9088 0.0
C144 C 0.08138 0.67996 0.90421 0.0
C145 C 0.06523 0.65935 0.91232 0.0
C146 C 0.06717 0.66816 0.92497 0.0
C147 C 0.08669 0.69551 0.92953 0.0
C148 C 0.13092 0.78658 0.92415 0.0
C149 C 0.15465 0.81007 0.92909 0.0
C150 C 0.15136 0.84381 0.92646 0.0
C151 C 0.12444 0.8549 0.91863 0.0
C152 C 0.10054 0.83118 0.91368 0.0
C153 C 0.10376 0.79726 0.91642 0.0
C154 C 0.14471 0.73914 0.9442 0.0
C155 C 0.16511 0.71392 0.9491 0.0
C156 C 0.17185 0.71109 0.96192 0.0
C157 C 0.15827 0.73349 0.97004 0.0
C158 C 0.13713 0.7582 0.96508 0.0
C159 C 0.13013 0.76077 0.95227 0.0
P160 P 0.63823 0.84022 0.17869 0.0
H161 H 0.69021 0.87572 0.16669 0.0
H162 H 0.74154 0.85775 0.15894 0.0
H163 H 0.71567 0.75549 0.1666 0.0
H164 H 0.66366 0.77374 0.17402 0.0
H165 H 0.59011 0.87866 0.16341 0.0
H166 H 0.53596 0.86472 0.15291 0.0
H167 H 0.5474 0.76208 0.16384 0.0
H168 H 0.60124 0.77671 0.17478 0.0
H169 H 0.69132 0.8122 0.19555 0.0
H170 H 0.58862 0.83678 0.19659 0.0
O171 O 0.64072 0.88169 0.17995 0.0
H172 H 0.69375 0.79562 0.21718 0.0
H173 H 0.59128 0.82095 0.21844 0.0
C174 C 0.67323 0.82609 0.17105 0.0
C175 C 0.69527 0.84937 0.16654 0.0
C176 C 0.72486 0.83906 0.1622 0.0
C177 C 0.73315 0.80521 0.16235 0.0
C178 C 0.71012 0.78174 0.16629 0.0
C179 C 0.68034 0.79211 0.17055 0.0
C180 C 0.5996 0.82878 0.16998 0.0
C181 C 0.58106 0.85312 0.16353 0.0
C182 C 0.55007 0.84501 0.15742 0.0
C183 C 0.53704 0.81225 0.15753 0.0
C184 C 0.55628 0.78768 0.16372 0.0
C185 C 0.58725 0.79591 0.1699 0.0
C186 C 0.63942 0.82475 0.19429 0.0
C187 C 0.66903 0.81336 0.2003 0.0
C188 C 0.67051 0.80403 0.21273 0.0
C189 C 0.64268 0.80686 0.21947 0.0
C190 C 0.61311 0.81855 0.21346 0.0
C191 C 0.61151 0.82735 0.20097 0.0
P192 P 0.62105 0.25939 0.42666 0.0
H193 H 0.59832 0.23386 0.40201 0.0
H194 H 0.56552 0.18426 0.39498 0.0
H195 H 0.54397 0.16572 0.43265 0.0
H196 H 0.57664 0.21533 0.43961 0.0
H197 H 0.65173 0.32238 0.43495 0.0
H198 H 0.63842 0.38031 0.43076 0.0
H199 H 0.5509 0.34801 0.40778 0.0
H200 H 0.56436 0.28974 0.41209 0.0
H201 H 0.66697 0.21392 0.43954 0.0
H202 H 0.6013 0.29087 0.44944 0.0
O203 O 0.65417 0.25362 0.41887 0.0
H204 H 0.68436 0.20562 0.4615 0.0
H205 H 0.61892 0.28304 0.47137 0.0
C206 C 0.59043 0.22798 0.42134 0.0
C207 C 0.58588 0.21956 0.40871 0.0
C208 C 0.56701 0.19126 0.4047 0.0
C209 C 0.55251 0.17082 0.41329 0.0
C210 C 0.55526 0.1807 0.42584 0.0
C211 C 0.57392 0.20914 0.42982 0.0
C212 C 0.60874 0.30176 0.42402 0.0
C213 C 0.62937 0.32773 0.42916 0.0
C214 C 0.62169 0.36087 0.42679 0.0
C215 C 0.59345 0.36879 0.41902 0.0
C216 C 0.57285 0.34268 0.41379 0.0
C217 C 0.58043 0.30937 0.41629 0.0
C218 C 0.6336 0.25365 0.44286 0.0
C219 C 0.65652 0.22921 0.44644 0.0
C220 C 0.6663 0.22438 0.45897 0.0
C221 C 0.65329 0.24399 0.46812 0.0
C222 C 0.62983 0.26804 0.4645 0.0
C223 C 0.61977 0.27255 0.45197 0.0
P224 P 0.1522 0.33351 0.67136 0.0
H225 H 0.19542 0.35856 0.65324 0.0
H226 H 0.24719 0.33866 0.64623 0.0
H227 H 0.24003 0.25161 0.66906 0.0
H228 H 0.18779 0.2713 0.67573 0.0
H229 H 0.09796 0.37047 0.65875 0.0
H230 H 0.04579 0.35288 0.64735 0.0
H231 H 0.07217 0.24991 0.65217 0.0
H232 H 0.12461 0.26777 0.66359 0.0
H233 H 0.20104 0.34057 0.69253 0.0
H234 H 0.10165 0.30031 0.68539 0.0
O235 O 0.15559 0.37501 0.67125 0.0
H236 H 0.20145 0.32422 0.71423 0.0
H237 H 0.10189 0.28402 0.70702 0.0
C238 C 0.18822 0.31677 0.66521 0.0
C239 C 0.2049 0.33508 0.65666 0.0
C240 C 0.2346 0.32374 0.65272 0.0
C241 C 0.24811 0.29379 0.65724 0.0
C242 C 0.23035 0.27472 0.66536 0.0
C243 C 0.20057 0.28606 0.66925 0.0
C244 C 0.11517 0.3204 0.662 0.0
C245 C 0.09278 0.34411 0.65723 0.0
C246 C 0.06298 0.33404 0.65066 0.0
C247 C 0.05485 0.30002 0.64887 0.0
C248 C 0.07765 0.2763 0.65349 0.0
C249 C 0.10766 0.28644 0.65994 0.0
C250 C 0.15153 0.32131 0.6873 0.0
C251 C 0.17932 0.32818 0.69563 0.0
C252 C 0.17948 0.31896 0.70804 0.0
C253 C 0.15176 0.30268 0.71233 0.0
C254 C 0.12383 0.29603 0.70395 0.0
C255 C 0.12365 0.30543 0.69155 0.0
Zn256 Zn 0.16425 0.68309 0.14 0.0
Zn257 Zn 0.08835 0.70885 0.10764 0.0
Zn258 Zn 0.12707 0.70626 0.12377 0.0
C259 C 0.14558 0.69909 0.09755 0.0
C260 C 0.12259 0.77099 0.10984 0.0
O261 O 0.10699 0.72689 0.14003 0.0
O262 O 0.14473 0.70731 0.15382 0.0
C263 C 0.1331 0.62988 0.12561 0.0
O264 O 0.15333 0.7174 0.10726 0.0
O265 O 0.11777 0.68377 0.09657 0.0
O266 O 0.09301 0.7605 0.10743 0.0
O267 O 0.14444 0.74984 0.11388 0.0
O268 O 0.15113 0.63517 0.13561 0.0
O269 O 0.12192 0.65442 0.11931 0.0
O270 O 0.17375 0.7323 0.12001 0.0
O271 O 0.20506 0.7039 0.13378 0.0
C272 C 0.2024 0.72576 0.12546 0.0
O273 O 0.07944 0.7234 0.12972 0.0
O274 O 0.05018 0.69063 0.11631 0.0
C275 C 0.11943 0.72459 0.15127 0.0
C276 C 0.05145 0.70967 0.12575 0.0
Zn277 Zn 0.54962 0.69799 0.35609 0.0
Zn278 Zn 0.64506 0.82147 0.38027 0.0
Zn279 Zn 0.60339 0.77531 0.37437 0.0
C280 C 0.5843 0.85238 0.37661 0.0
C281 C 0.66652 0.79042 0.35967 0.0
O282 O 0.60301 0.73497 0.3879 0.0
O283 O 0.57336 0.71862 0.37154 0.0
C284 C 0.53571 0.77064 0.36664 0.0
O285 O 0.57415 0.82177 0.3755 0.0
O286 O 0.61489 0.85928 0.37819 0.0
O287 O 0.67519 0.81382 0.36721 0.0
O288 O 0.63964 0.77363 0.36074 0.0
O289 O 0.55085 0.74425 0.36445 0.0
O290 O 0.55337 0.79405 0.37205 0.0
O291 O 0.61026 0.75264 0.35497 0.0
O292 O 0.58384 0.70929 0.34412 0.0
C293 C 0.60568 0.733 0.34522 0.0
O294 O 0.62567 0.75994 0.39269 0.0
O295 O 0.65745 0.8045 0.39733 0.0
C296 C 0.58634 0.71142 0.38217 0.0
C297 C 0.6462 0.7764 0.40034 0.0
Zn298 Zn 0.60527 0.19378 0.60538 0.0
Zn299 Zn 0.67948 0.1806 0.63875 0.0
Zn300 Zn 0.64443 0.20082 0.62154 0.0
C301 C 0.72081 0.20865 0.62166 0.0
C302 C 0.63976 0.12652 0.6287 0.0
O303 O 0.59731 0.21787 0.62793 0.0
O304 O 0.57066 0.17776 0.61683 0.0
C305 C 0.60924 0.26193 0.61215 0.0
O306 O 0.6928 0.21743 0.61646 0.0
O307 O 0.72202 0.19013 0.63104 0.0
O308 O 0.65976 0.13372 0.63804 0.0
O309 O 0.63118 0.14917 0.62103 0.0
O310 O 0.60541 0.24435 0.60232 0.0
O311 O 0.61695 0.24715 0.62249 0.0
O312 O 0.66727 0.20968 0.60453 0.0
O313 O 0.63727 0.16833 0.59568 0.0
C314 C 0.6615 0.18882 0.59548 0.0
O315 O 0.62805 0.23439 0.63574 0.0
O316 O 0.6646 0.21596 0.6503 0.0
C317 C 0.57092 0.19962 0.6254 0.0
C318 C 0.64204 0.23603 0.64688 0.0
Zn319 Zn 0.05495 0.21912 0.85543 0.0
Zn320 Zn 0.14197 0.30498 0.87743 0.0
Zn321 Zn 0.09815 0.26267 0.86685 0.0
C322 C 0.13612 0.25207 0.89382 0.0
C323 C 0.08374 0.33982 0.87356 0.0
O324 O 0.11364 0.2529 0.84812 0.0
O325 O 0.07469 0.21893 0.83921 0.0
C326 C 0.08271 0.18712 0.87624 0.0
O327 O 0.11615 0.24074 0.88476 0.0
O328 O 0.15035 0.28018 0.89306 0.0
O329 O 0.11403 0.34437 0.87699 0.0
O330 O 0.07254 0.3106 0.87001 0.0
O331 O 0.06286 0.18154 0.86678 0.0
O332 O 0.09733 0.21592 0.87795 0.0
O333 O 0.04926 0.28687 0.86514 0.0
O334 O 0.01546 0.24605 0.85757 0.0
C335 C 0.01989 0.27545 0.86172 0.0
O336 O 0.14042 0.2689 0.85504 0.0
O337 O 0.1757 0.30378 0.86554 0.0
C338 C 0.10093 0.23612 0.83858 0.0
C339 C 0.16832 0.28521 0.85621 0.0
C340 C 0.15853 0.33742 0.09563 0.0
C341 C 0.1673 0.33472 0.08338 0.0
C342 C 0.14903 0.36795 0.10036 0.0
C343 C 0.11778 0.45056 0.09173 0.0
H344 H 0.16644 0.48049 0.12237 0.0
C345 C 0.12275 0.58839 0.10819 0.0
C346 C 0.12749 0.59532 0.12096 0.0
C347 C 0.12243 0.55545 0.1038 0.0
C348 C 0.15198 0.4724 0.11395 0.0
H349 H 0.17237 0.3624 0.0665 0.0
H350 H 0.15483 0.41516 0.07466 0.0
H351 H 0.17466 0.42476 0.11443 0.0
H352 H 0.13315 0.57336 0.13917 0.0
H353 H 0.131 0.51604 0.1316 0.0
H354 H 0.0949 0.49811 0.09125 0.0
C355 C 0.15527 0.39354 0.08056 0.0
C356 C 0.15686 0.44041 0.10939 0.0
C357 C 0.16522 0.36317 0.07588 0.0
C358 C 0.12989 0.56874 0.12927 0.0
C359 C 0.12895 0.53587 0.1249 0.0
C360 C 0.1125 0.48247 0.09638 0.0
C361 C 0.1476 0.39636 0.0929 0.0
C362 C 0.14016 0.42932 0.09815 0.0
C363 C 0.12631 0.52877 0.1121 0.0
C364 C 0.12986 0.49399 0.10749 0.0
H365 H 0.15917 0.31599 0.10161 0.0
H366 H 0.14293 0.3694 0.10988 0.0
H367 H 0.1044 0.44249 0.08308 0.0
H368 H 0.12105 0.60845 0.10158 0.0
H369 H 0.12068 0.55111 0.09388 0.0
C370 C 0.93946 0.75645 0.32725 0.0
C371 C 0.95219 0.72488 0.33006 0.0
C372 C 0.90616 0.76289 0.32833 0.0
C373 C 0.82411 0.72191 0.32963 0.0
H374 H 0.80297 0.80474 0.34549 0.0
C375 C 0.69946 0.74743 0.34988 0.0
C376 C 0.68995 0.78069 0.35075 0.0
C377 C 0.72851 0.73966 0.3445 0.0
C378 C 0.80821 0.7818 0.34077 0.0
H379 H 0.93988 0.67545 0.33639 0.0
H380 H 0.88166 0.68676 0.3383 0.0
H381 H 0.86007 0.79328 0.34242 0.0
H382 H 0.70065 0.83133 0.34548 0.0
H383 H 0.75036 0.81773 0.33557 0.0
H384 H 0.77204 0.71031 0.32817 0.0
C385 C 0.89742 0.70636 0.33508 0.0
C386 C 0.84109 0.77517 0.33908 0.0
C387 C 0.93079 0.69993 0.33403 0.0
C388 C 0.70776 0.80553 0.34501 0.0
C389 C 0.73639 0.79774 0.33946 0.0
C390 C 0.79104 0.72862 0.33129 0.0
C391 C 0.88473 0.7379 0.33222 0.0
C392 C 0.84948 0.74508 0.33358 0.0
C393 C 0.74822 0.76507 0.33982 0.0
C394 C 0.78272 0.75861 0.33695 0.0
H395 H 0.95504 0.77602 0.3239 0.0
H396 H 0.89704 0.78733 0.32591 0.0
H397 H 0.8298 0.69864 0.32523 0.0
H398 H 0.68614 0.7279 0.35431 0.0
H399 H 0.7368 0.71422 0.34492 0.0
C400 C 0.63369 0.54953 0.58133 0.0
C401 C 0.65315 0.57025 0.58972 0.0
C402 C 0.62332 0.51797 0.58485 0.0
C403 C 0.61518 0.46228 0.61162 0.0
H404 H 0.62629 0.39362 0.587 0.0
C405 C 0.61835 0.31953 0.62119 0.0
C406 C 0.60485 0.2983 0.61156 0.0
C407 C 0.61931 0.35411 0.61955 0.0
C408 C 0.62249 0.41248 0.59392 0.0
H409 H 0.6759 0.57481 0.60854 0.0
H410 H 0.65819 0.51922 0.61468 0.0
H411 H 0.63715 0.45138 0.5822 0.0
H412 H 0.57901 0.29662 0.59316 0.0
H413 H 0.58 0.35659 0.59043 0.0
H414 H 0.60117 0.42274 0.62344 0.0
C415 C 0.65059 0.52758 0.60541 0.0
C416 C 0.62872 0.44568 0.59116 0.0
C417 C 0.66079 0.55937 0.6019 0.0
C418 C 0.59008 0.3123 0.60068 0.0
C419 C 0.59079 0.34668 0.59909 0.0
C420 C 0.60896 0.42883 0.61441 0.0
C421 C 0.63243 0.50622 0.59682 0.0
C422 C 0.62502 0.47104 0.59993 0.0
C423 C 0.60659 0.36789 0.60828 0.0
C424 C 0.6124 0.4036 0.60554 0.0
H425 H 0.62693 0.55756 0.57195 0.0
H426 H 0.60868 0.50247 0.5781 0.0
H427 H 0.612 0.48127 0.61857 0.0
H428 H 0.62984 0.30939 0.6297 0.0
H429 H 0.63165 0.36981 0.62681 0.0
C430 C 0.73932 0.32404 0.82946 0.0
C431 C 0.7209 0.30181 0.83626 0.0
C432 C 0.77156 0.33402 0.83384 0.0
C433 C 0.83409 0.33097 0.86144 0.0
H434 H 0.89639 0.32628 0.83637 0.0
C435 C 0.96529 0.28275 0.86961 0.0
C436 C 0.99041 0.29551 0.8628 0.0
C437 C 0.93363 0.29577 0.86821 0.0
C438 C 0.87938 0.32855 0.84348 0.0
H439 H 0.72136 0.27459 0.85346 0.0
H440 H 0.77775 0.29079 0.86081 0.0
H441 H 0.83742 0.32545 0.83014 0.0
H442 H 0.00315 0.33302 0.84977 0.0
H443 H 0.94719 0.35571 0.84708 0.0
H444 H 0.8764 0.33177 0.87479 0.0
C445 C 0.76727 0.30098 0.85217 0.0
C446 C 0.84541 0.32805 0.83991 0.0
C447 C 0.73497 0.29123 0.84785 0.0
C448 C 0.98412 0.32308 0.85519 0.0
C449 C 0.95213 0.33582 0.8536 0.0
C450 C 0.86809 0.33117 0.86501 0.0
C451 C 0.78634 0.32185 0.84508 0.0
C452 C 0.82226 0.32813 0.84885 0.0
C453 C 0.92628 0.3214 0.85976 0.0
C454 C 0.89107 0.32888 0.85608 0.0
H455 H 0.72949 0.3326 0.82047 0.0
H456 H 0.78522 0.35057 0.82821 0.0
H457 H 0.81706 0.33188 0.86858 0.0
H458 H 0.96963 0.26125 0.87545 0.0
H459 H 0.91429 0.28386 0.87299 0.0
C460 C 0.03077 0.62398 0.89641 0.0
C461 C 0.04989 0.62686 0.90785 0.0
C462 C 0.02 0.59262 0.89162 0.0
C463 C 0.01656 0.50147 0.89956 0.0
H464 H 0.02904 0.4896 0.86478 0.0
C465 C 0.03372 0.3703 0.87939 0.0
C466 C 0.06268 0.3693 0.87321 0.0
C467 C 0.01926 0.40105 0.88164 0.0
C468 C 0.0252 0.49243 0.87449 0.0
H469 H 0.07203 0.599 0.92335 0.0
H470 H 0.05421 0.54474 0.91498 0.0
H471 H 0.02885 0.54542 0.87355 0.0
H472 H 0.09756 0.39863 0.86364 0.0
H473 H 0.07273 0.45155 0.86741 0.0
H474 H 0.01594 0.44829 0.90069 0.0
C475 C 0.04649 0.56651 0.90978 0.0
C476 C 0.02471 0.52461 0.87953 0.0
C477 C 0.0569 0.59779 0.9146 0.0
C478 C 0.07521 0.39881 0.86843 0.0
C479 C 0.06075 0.42921 0.87055 0.0
C480 C 0.01748 0.46924 0.89455 0.0
C481 C 0.02848 0.56333 0.8981 0.0
C482 C 0.02188 0.5296 0.89227 0.0
C483 C 0.03341 0.43103 0.87762 0.0
C484 C 0.0234 0.46432 0.88207 0.0
H485 H 0.02466 0.64595 0.89105 0.0
H486 H 0.00567 0.59134 0.88271 0.0
H487 H 0.0133 0.50425 0.90933 0.0
H488 H 0.02373 0.34782 0.88321 0.0
H489 H -0.00201 0.40152 0.887 0.0
C490 C 0.77012 0.76498 0.15239 0.0
C491 C 0.76631 0.79482 0.15899 0.0
C492 C 0.80147 0.75526 0.14946 0.0
C493 C 0.88544 0.7888 0.14564 0.0
H494 H 0.91106 0.6967 0.1491 0.0
C495 C 0.01777 0.74781 0.13787 0.0
C496 C 0.02047 0.71781 0.13128 0.0
C497 C 0.98755 0.75664 0.14215 0.0
C498 C 0.90422 0.72248 0.14797 0.0
H499 H 0.79288 0.83734 0.16794 0.0
H500 H 0.84722 0.82062 0.16269 0.0
H501 H 0.85649 0.71313 0.15441 0.0
H502 H 0.99358 0.67358 0.12399 0.0
H503 H 0.94087 0.68919 0.13121 0.0
H504 H 0.93287 0.79814 0.13902 0.0
C505 C 0.82592 0.80497 0.15963 0.0
C506 C 0.8729 0.73188 0.15101 0.0
C507 C 0.79468 0.8146 0.1626 0.0
C508 C 0.99238 0.69675 0.12913 0.0
C509 C 0.96217 0.70561 0.13336 0.0
C510 C 0.91669 0.77939 0.14255 0.0
C511 C 0.82974 0.7752 0.15302 0.0
C512 C 0.86309 0.76514 0.14984 0.0
C513 C 0.95924 0.73583 0.13981 0.0
C514 C 0.92647 0.74608 0.14363 0.0
H515 H 0.74883 0.74931 0.14935 0.0
H516 H 0.8035 0.73238 0.14423 0.0
H517 H 0.87852 0.81455 0.14448 0.0
H518 H 0.03888 0.76476 0.13953 0.0
H519 H 0.98634 0.7799 0.14723 0.0
C520 C 0.57804 0.41385 0.40382 0.0
C521 C 0.5866 0.4042 0.41608 0.0
C522 C 0.57467 0.44754 0.4009 0.0
C523 C 0.6009 0.53167 0.41294 0.0
H524 H 0.53698 0.56081 0.38682 0.0
C525 C 0.58624 0.6708 0.39968 0.0
C526 C 0.58415 0.67713 0.38692 0.0
C527 C 0.58433 0.63803 0.40394 0.0
C528 C 0.55507 0.55303 0.3941 0.0
H529 H 0.59668 0.42219 0.435 0.0
H530 H 0.59028 0.48088 0.42997 0.0
H531 H 0.53675 0.5026 0.39299 0.0
H532 H 0.57783 0.65424 0.36863 0.0
H533 H 0.57423 0.59739 0.37601 0.0
H534 H 0.61926 0.58217 0.41399 0.0
C535 C 0.58701 0.46255 0.42253 0.0
C536 C 0.555 0.51963 0.39762 0.0
C537 C 0.59056 0.42889 0.42543 0.0
C538 C 0.57938 0.6502 0.37852 0.0
C539 C 0.57725 0.61758 0.38275 0.0
C540 C 0.60085 0.56512 0.40946 0.0
C541 C 0.57956 0.47239 0.4102 0.0
C542 C 0.5782 0.50838 0.40698 0.0
C543 C 0.57979 0.61105 0.39551 0.0
C544 C 0.57825 0.57609 0.39987 0.0
H545 H 0.57521 0.39546 0.39639 0.0
H546 H 0.56936 0.45414 0.39128 0.0
H547 H 0.61947 0.52389 0.42005 0.0
H548 H 0.58861 0.69116 0.40634 0.0
H549 H 0.58588 0.63384 0.41383 0.0
C550 C 0.00855 0.30506 0.63199 0.0
C551 C 0.02197 0.28944 0.64278 0.0
C552 C 0.97681 0.29617 0.62668 0.0
C553 C 0.91058 0.2303 0.62744 0.0
H554 H 0.85303 0.29998 0.6146 0.0
C555 C 0.77475 0.19854 0.6134 0.0
C556 C 0.75218 0.22116 0.6175 0.0
C557 C 0.80795 0.20804 0.61292 0.0
C558 C 0.86869 0.28018 0.61818 0.0
H559 H 0.01252 0.2525 0.65653 0.0
H560 H 0.95714 0.23751 0.64753 0.0
H561 H 0.91055 0.31345 0.62148 0.0
H562 H 0.7457 0.27164 0.62379 0.0
H563 H 0.80379 0.28813 0.62345 0.0
H564 H 0.86852 0.19747 0.62502 0.0
C565 C 0.97131 0.25593 0.64288 0.0
C566 C 0.90191 0.28785 0.62199 0.0
C567 C 0.0031 0.26458 0.64809 0.0
C568 C 0.76269 0.25402 0.62037 0.0
C569 C 0.79608 0.26337 0.62018 0.0
C570 C 0.87738 0.22273 0.6238 0.0
C571 C 0.95763 0.27166 0.63212 0.0
C572 C 0.92314 0.26311 0.62692 0.0
C573 C 0.81946 0.24005 0.61696 0.0
C574 C 0.85573 0.24765 0.61931 0.0
H575 H 0.02264 0.32413 0.62763 0.0
H576 H 0.96737 0.30848 0.61831 0.0
H577 H 0.92626 0.21039 0.63092 0.0
H578 H 0.76707 0.17297 0.61122 0.0
H579 H 0.82489 0.18966 0.61001 0.0
C580 C 0.30701 0.30703 0.65333 0.0
C581 C 0.28121 0.2833 0.65393 0.0
C582 C 0.33838 0.29735 0.65053 0.0
C583 C 0.39289 0.22499 0.65067 0.0
H584 H 0.44071 0.27869 0.62834 0.0
C585 C 0.51495 0.1835 0.63166 0.0
C586 C 0.53944 0.20816 0.63039 0.0
C587 C 0.48379 0.19215 0.6351 0.0
C588 C 0.42792 0.26365 0.63473 0.0
H589 H 0.26823 0.2307 0.65193 0.0
H590 H 0.32313 0.21378 0.64708 0.0
H591 H 0.38552 0.29453 0.63295 0.0
H592 H 0.55032 0.26123 0.63134 0.0
H593 H 0.49649 0.2763 0.63776 0.0
H594 H 0.4354 0.19413 0.65246 0.0
C595 C 0.31908 0.23988 0.64891 0.0
C596 C 0.39622 0.27271 0.63735 0.0
C597 C 0.28762 0.24958 0.65168 0.0
C598 C 0.53223 0.2416 0.63261 0.0
C599 C 0.50118 0.25026 0.63609 0.0
C600 C 0.42468 0.21595 0.64807 0.0
C601 C 0.34483 0.26367 0.6483 0.0
C602 C 0.37834 0.25355 0.64538 0.0
C603 C 0.47639 0.2257 0.63721 0.0
C604 C 0.44263 0.23524 0.64009 0.0
H605 H 0.3032 0.33311 0.65527 0.0
H606 H 0.3578 0.31624 0.65035 0.0
H607 H 0.37994 0.20994 0.65702 0.0
H608 H 0.51973 0.15757 0.62978 0.0
H609 H 0.46516 0.17264 0.6357 0.0
C610 C 0.48208 0.78163 0.15718 0.0
C611 C 0.50311 0.80413 0.1516 0.0
C612 C 0.44988 0.77488 0.15192 0.0
C613 C 0.38258 0.80968 0.1313 0.0
H614 H 0.34755 0.71907 0.13103 0.0
C615 C 0.24284 0.77318 0.12771 0.0
C616 C 0.23299 0.74238 0.12219 0.0
C617 C 0.27612 0.78375 0.1284 0.0
C618 C 0.35698 0.74448 0.13083 0.0
H619 H 0.50656 0.83664 0.13586 0.0
H620 H 0.45014 0.82517 0.12681 0.0
H621 H 0.40523 0.73031 0.1382 0.0
H622 H 0.24921 0.69944 0.11238 0.0
H623 H 0.30708 0.71821 0.1132 0.0
H624 H 0.33397 0.82383 0.12409 0.0
C625 C 0.45864 0.81298 0.13533 0.0
C626 C 0.39 0.75096 0.13512 0.0
C627 C 0.49099 0.81957 0.14055 0.0
C628 C 0.25625 0.72354 0.11652 0.0
C629 C 0.28942 0.73409 0.11716 0.0
C630 C 0.34935 0.80321 0.12708 0.0
C631 C 0.43769 0.79057 0.14096 0.0
C632 C 0.40312 0.78367 0.13558 0.0
C633 C 0.30007 0.76348 0.12366 0.0
C634 C 0.33605 0.77053 0.12691 0.0
H635 H 0.49017 0.76976 0.16582 0.0
H636 H 0.43422 0.75789 0.15661 0.0
H637 H 0.39188 0.83519 0.1316 0.0
H638 H 0.22543 0.78768 0.13242 0.0
H639 H 0.28342 0.80641 0.13353 0.0
C640 C 0.43672 0.22112 0.82324 0.0
C641 C 0.45727 0.24915 0.82161 0.0
C642 C 0.40336 0.22486 0.82518 0.0
C643 C 0.34631 0.2858 0.83635 0.0
H644 H 0.27732 0.22795 0.8202 0.0
C645 C 0.21244 0.30906 0.84436 0.0
C646 C 0.19349 0.28115 0.84735 0.0
C647 C 0.24182 0.30518 0.8388 0.0
C648 C 0.29631 0.24417 0.82483 0.0
H649 H 0.45851 0.30307 0.82052 0.0
H650 H 0.40055 0.30958 0.82408 0.0
H651 H 0.33495 0.22079 0.81582 0.0
H652 H 0.18876 0.22743 0.84603 0.0
H653 H 0.24088 0.22035 0.83658 0.0
H654 H 0.30834 0.30866 0.84562 0.0
C655 C 0.41034 0.28471 0.82398 0.0
C656 C 0.32931 0.24006 0.82234 0.0
C657 C 0.44363 0.28098 0.82199 0.0
C658 C 0.20297 0.24933 0.84375 0.0
C659 C 0.23284 0.24534 0.83836 0.0
C660 C 0.31353 0.28979 0.83889 0.0
C661 C 0.38981 0.25671 0.8256 0.0
C662 C 0.35466 0.26091 0.82807 0.0
C663 C 0.25337 0.27321 0.83637 0.0
C664 C 0.28802 0.26917 0.83314 0.0
H665 H 0.44648 0.19625 0.82317 0.0
H666 H 0.38833 0.20283 0.82659 0.0
H667 H 0.36528 0.30182 0.84112 0.0
H668 H 0.2054 0.33389 0.84695 0.0
H669 H 0.25637 0.32725 0.837 0.0
C670 C 0.24531 0.75569 0.32823 0.0
C671 C 0.22144 0.7588 0.33678 0.0
C672 C 0.27887 0.7602 0.33201 0.0
C673 C 0.34064 0.80038 0.35233 0.0
H674 H 0.39116 0.71989 0.35053 0.0
C675 C 0.48063 0.79561 0.36922 0.0
C676 C 0.50005 0.77363 0.36297 0.0
C677 C 0.44627 0.79588 0.36639 0.0
C678 C 0.37769 0.7428 0.3509 0.0
H679 H 0.21381 0.77011 0.3559 0.0
H680 H 0.27305 0.77897 0.36248 0.0
H681 H 0.33178 0.71783 0.34487 0.0
H682 H 0.49927 0.73612 0.34843 0.0
H683 H 0.44 0.73771 0.34304 0.0
H684 H 0.38663 0.82583 0.35781 0.0
C685 C 0.26545 0.77278 0.35288 0.0
C686 C 0.3436 0.74143 0.34778 0.0
C687 C 0.23176 0.76761 0.34914 0.0
C688 C 0.48481 0.75298 0.35352 0.0
C689 C 0.4507 0.75371 0.35052 0.0
C690 C 0.37499 0.80194 0.35524 0.0
C691 C 0.2892 0.76848 0.34437 0.0
C692 C 0.32488 0.77019 0.3484 0.0
C693 C 0.43077 0.77455 0.35711 0.0
C694 C 0.39404 0.77318 0.35444 0.0
H695 H 0.2381 0.74848 0.31869 0.0
H696 H 0.29688 0.75667 0.32533 0.0
H697 H 0.32653 0.82288 0.3528 0.0
H698 H 0.4918 0.81165 0.3766 0.0
H699 H 0.43184 0.81208 0.37175 0.0
C700 C 0.64448 0.84935 0.58592 0.0
C701 C 0.65759 0.8248 0.59397 0.0
C702 C 0.63533 0.88009 0.59057 0.0
C703 C 0.65564 0.93553 0.61738 0.0
H704 H 0.58114 0.98588 0.60344 0.0
C705 C 0.63585 0.06719 0.63523 0.0
C706 C 0.62991 0.09131 0.62606 0.0
C707 C 0.63228 0.03333 0.63224 0.0
C708 C 0.6021 0.97216 0.6074 0.0
H709 H 0.66947 0.81249 0.61326 0.0
H710 H 0.6535 0.86609 0.62138 0.0
H711 H 0.58809 0.92858 0.59638 0.0
H712 H 0.61339 0.09892 0.60673 0.0
H713 H 0.60786 0.03978 0.60144 0.0
H714 H 0.67041 0.97908 0.62808 0.0
C715 C 0.65088 0.86183 0.61145 0.0
C716 C 0.60607 0.93936 0.60336 0.0
C717 C 0.66006 0.83114 0.6068 0.0
C718 C 0.61817 0.08092 0.61401 0.0
C719 C 0.61489 0.04697 0.61098 0.0
C720 C 0.65174 0.96821 0.62138 0.0
C721 C 0.63908 0.88692 0.60338 0.0
C722 C 0.6331 0.92081 0.60823 0.0
C723 C 0.62304 0.02279 0.61998 0.0
C724 C 0.62512 0.98708 0.61637 0.0
H725 H 0.64256 0.84535 0.57598 0.0
H726 H 0.62669 0.89901 0.5841 0.0
H727 H 0.6771 0.92222 0.62114 0.0
H728 H 0.64451 0.07442 0.64464 0.0
H729 H 0.63792 0.01537 0.63946 0.0
C730 C 0.18382 0.06836 0.09332 0.0
C731 C 0.19885 0.07412 0.08233 0.0
C732 C 0.17636 0.03584 0.09687 0.0
C733 C 0.19708 0.94769 0.09104 0.0
H734 H 0.11487 0.92866 0.10554 0.0
C735 C 0.1651 0.81713 0.10929 0.0
C736 C 0.13216 0.80565 0.10699 0.0
C737 C 0.17389 0.85009 0.1068 0.0
C738 C 0.13784 0.93349 0.10141 0.0
H739 H 0.21694 0.05043 0.06625 0.0
H740 H 0.20356 0.99391 0.0723 0.0
H741 H 0.12858 0.98561 0.10003 0.0
H742 H 0.08264 0.81972 0.10015 0.0
H743 H 0.09798 0.87684 0.09554 0.0
H744 H 0.20579 0.89541 0.09201 0.0
C745 C 0.19832 0.01433 0.07839 0.0
C746 C 0.1459 0.96626 0.09841 0.0
C747 C 0.20593 0.04675 0.07489 0.0
C748 C 0.10821 0.82777 0.10207 0.0
C749 C 0.117 0.86065 0.09952 0.0
C750 C 0.18895 0.91491 0.09399 0.0
C751 C 0.18358 0.00841 0.08945 0.0
C752 C 0.17552 0.97374 0.0931 0.0
C753 C 0.1499 0.87229 0.1019 0.0
C754 C 0.15911 0.90735 0.09914 0.0
H755 H 0.17834 0.08896 0.09929 0.0
H756 H 0.16538 0.03218 0.10552 0.0
H757 H 0.22033 0.95259 0.08713 0.0
H758 H 0.18415 0.8007 0.11307 0.0
H759 H 0.19938 0.85828 0.10886 0.0
C760 C 0.5474 0.10929 0.41627 0.0
C761 C 0.53813 0.13755 0.40939 0.0
C762 C 0.53801 0.07736 0.41186 0.0
C763 C 0.51472 0.03314 0.38219 0.0
H764 H 0.51356 0.95764 0.40413 0.0
C765 C 0.57086 0.91018 0.37085 0.0
C766 C 0.5614 0.88042 0.37635 0.0
C767 C 0.55482 0.93969 0.373 0.0
C768 C 0.51296 0.97828 0.39778 0.0
H769 H 0.50991 0.15455 0.39285 0.0
H770 H 0.4926 0.09876 0.38527 0.0
H771 H 0.50851 0.01357 0.41243 0.0
H772 H 0.52622 0.85751 0.38772 0.0
H773 H 0.49751 0.90944 0.39143 0.0
H774 H 0.51913 0.99784 0.36755 0.0
C775 C 0.50795 0.10119 0.39393 0.0
C776 C 0.51065 0.01055 0.4026 0.0
C777 C 0.51773 0.13321 0.39829 0.0
C778 C 0.53376 0.88012 0.38328 0.0
C779 C 0.51765 0.90993 0.38552 0.0
C780 C 0.5165 0.00087 0.37735 0.0
C781 C 0.51875 0.07274 0.40049 0.0
C782 C 0.5133 0.03852 0.39499 0.0
C783 C 0.52888 0.94033 0.38078 0.0
C784 C 0.51752 0.97314 0.38519 0.0
H785 H 0.56354 0.11171 0.42476 0.0
H786 H 0.5475 0.0563 0.4171 0.0
H787 H 0.51678 0.05383 0.37597 0.0
H788 H 0.59213 0.91105 0.36546 0.0
H789 H 0.56461 0.96242 0.36929 0.0
C790 C 0.15027 0.91048 0.91403 0.0
C791 C 0.12174 0.89101 0.91566 0.0
C792 C 0.14813 0.94454 0.91166 0.0
C793 C 0.09189 0.01627 0.91338 0.0
H794 H 0.14779 0.05547 0.88992 0.0
C795 C 0.06325 0.13765 0.8873 0.0
C796 C 0.08939 0.15937 0.88485 0.0
C797 C 0.06945 0.1078 0.89345 0.0
C798 C 0.13246 0.04508 0.89668 0.0
H799 H 0.06843 0.89248 0.91598 0.0
H800 H 0.06451 0.95159 0.91135 0.0
H801 H 0.15344 0.99699 0.89522 0.0
H802 H 0.14244 0.16769 0.88731 0.0
H803 H 0.15352 0.11496 0.89805 0.0
H804 H 0.07003 0.06424 0.9144 0.0
C805 C 0.08873 0.94063 0.91221 0.0
C806 C 0.13563 0.01146 0.89972 0.0
C807 C 0.0909 0.90654 0.91467 0.0
C808 C 0.12186 0.15146 0.88919 0.0
C809 C 0.12816 0.12122 0.89523 0.0
C810 C 0.08855 0.04983 0.91026 0.0
C811 C 0.11734 0.96014 0.91071 0.0
C812 C 0.11507 0.99644 0.90798 0.0
C813 C 0.10203 0.0987 0.89713 0.0
C814 C 0.10848 0.06449 0.90174 0.0
H815 H 0.17442 0.89938 0.91452 0.0
H816 H 0.17075 0.95869 0.91068 0.0
H817 H 0.07614 0.00583 0.91999 0.0
H818 H 0.03799 0.14316 0.88401 0.0
H819 H 0.04881 0.09094 0.89467 0.0
C820 C 0.21494 0.20987 -0.00115 0.0
C821 C 0.19715 0.19123 0.00707 0.0
C822 C 0.20744 0.20679 0.98607 0.0
C823 C 0.14077 0.19056 0.96262 0.0
H824 H 0.21109 0.18021 0.94097 0.0
C825 C 0.11845 0.21246 0.90994 0.0
C826 C 0.1428 0.23306 0.90532 0.0
C827 C 0.12421 0.19787 0.92161 0.0
C828 C 0.19113 0.18314 0.94687 0.0
H829 H 0.15743 0.15443 0.00811 0.0
H830 H 0.14343 0.15034 0.98571 0.0
H831 H 0.22282 0.17362 0.96326 0.0
H832 H 0.19252 0.25373 0.90903 0.0
H833 H 0.20228 0.22926 0.9293 0.0
H834 H 0.10955 0.20237 0.94638 0.0
C835 C 0.16347 0.16698 0.9893 0.0
C836 C 0.19786 0.17922 0.95961 0.0
C837 C 0.17139 0.16958 0.00212 0.0
C838 C 0.17328 0.23793 0.91235 0.0
C839 C 0.179 0.22353 0.92394 0.0
C840 C 0.1341 0.19496 0.94986 0.0
C841 C 0.18157 0.18546 0.98118 0.0
C842 C 0.17301 0.18394 0.96763 0.0
C843 C 0.15438 0.2038 0.92884 0.0
C844 C 0.15953 0.19248 0.94189 0.0
H845 H 0.23433 0.22747 0.00224 0.0
H846 H 0.22135 0.2218 0.98 0.0
H847 H 0.12122 0.19442 0.96864 0.0
H848 H 0.09452 0.20877 0.9048 0.0
H849 H 0.10479 0.18264 0.92508 0.0
C850 C 0.09776 0.76015 0.25528 0.0
C851 C 0.07077 0.74759 0.26118 0.0
C852 C 0.09412 0.76778 0.24271 0.0
C853 C 0.04706 0.73997 0.21452 0.0
H854 H 0.09347 0.81319 0.20004 0.0
C855 C 0.07101 0.73419 0.16339 0.0
C856 C 0.10424 0.74066 0.16152 0.0
C857 C 0.05845 0.74439 0.1744 0.0
C858 C 0.08025 0.79266 0.20393 0.0
H859 H 0.01854 0.73421 0.25872 0.0
H860 H 0.01225 0.74719 0.23663 0.0
H861 H 0.08748 0.81359 0.22227 0.0
H862 H 0.15033 0.76342 0.16932 0.0
H863 H 0.12898 0.7806 0.1886 0.0
H864 H 0.04178 0.71778 0.19646 0.0
C865 C 0.03616 0.75124 0.24177 0.0
C866 C 0.07678 0.79295 0.21664 0.0
C867 C 0.03973 0.74394 0.25439 0.0
C868 C 0.12445 0.75857 0.17054 0.0
C869 C 0.11205 0.76864 0.18154 0.0
C870 C 0.05078 0.73952 0.20184 0.0
C871 C 0.06346 0.76273 0.23577 0.0
C872 C 0.06124 0.766 0.22212 0.0
C873 C 0.07918 0.76075 0.18379 0.0
C874 C 0.06859 0.76521 0.19648 0.0
H875 H 0.12186 0.76351 0.26034 0.0
H876 H 0.1157 0.77621 0.23831 0.0
H877 H 0.03517 0.71873 0.21851 0.0
H878 H 0.05546 0.71917 0.15678 0.0
H879 H 0.033 0.73801 0.17582 0.0
C880 C 0.70938 0.73955 0.5102 0.0
C881 C 0.6992 0.71022 0.51586 0.0
C882 C 0.70606 0.74233 0.49733 0.0
C883 C 0.65994 0.70723 0.46908 0.0
H884 H 0.72699 0.75624 0.45288 0.0
C885 C 0.65112 0.73033 0.41594 0.0
C886 C 0.65574 0.76394 0.41293 0.0
C887 C 0.6587 0.71955 0.4281 0.0
C888 C 0.70808 0.74246 0.45728 0.0
H889 H 0.67793 0.66062 0.51243 0.0
H890 H 0.6723 0.6654 0.48989 0.0
H891 H 0.73584 0.74517 0.47498 0.0
H892 H 0.67327 0.81238 0.42021 0.0
H893 H 0.68693 0.79358 0.44122 0.0
H894 H 0.63209 0.70493 0.45131 0.0
C895 C 0.68243 0.68643 0.49543 0.0
C896 C 0.71306 0.73624 0.46994 0.0
C897 C 0.68565 0.68369 0.50834 0.0
C898 C 0.66933 0.78628 0.42219 0.0
C899 C 0.67727 0.77551 0.43425 0.0
C900 C 0.65506 0.71329 0.45636 0.0
C901 C 0.69262 0.7158 0.48977 0.0
C902 C 0.68869 0.7193 0.47607 0.0
C903 C 0.67175 0.74214 0.43738 0.0
C904 C 0.67873 0.7317 0.45041 0.0
H905 H 0.71939 0.76064 0.51574 0.0
H906 H 0.71349 0.7656 0.49331 0.0
H907 H 0.64056 0.69431 0.47351 0.0
H908 H 0.64203 0.71238 0.40889 0.0
H909 H 0.65464 0.69357 0.43023 0.0
C910 C 0.56496 0.289 0.74814 0.0
C911 C 0.59546 0.28967 0.7554 0.0
C912 C 0.56361 0.29516 0.73544 0.0
C913 C 0.6131 0.32587 0.71031 0.0
H914 H 0.56503 0.25607 0.69081 0.0
C915 C 0.65409 0.27334 0.66519 0.0
C916 C 0.63075 0.25884 0.6563 0.0
C917 C 0.64399 0.28832 0.67586 0.0
C918 C 0.5779 0.27637 0.696 0.0
H919 H 0.64812 0.29958 0.75518 0.0
H920 H 0.64591 0.30966 0.73302 0.0
H921 H 0.55787 0.26152 0.71272 0.0
H922 H 0.57872 0.24969 0.65133 0.0
H923 H 0.5606 0.27666 0.66981 0.0
H924 H 0.63437 0.33961 0.69364 0.0
C925 C 0.62297 0.30462 0.73712 0.0
C926 C 0.57383 0.27945 0.70862 0.0
C927 C 0.62432 0.2984 0.74981 0.0
C928 C 0.59701 0.26157 0.65784 0.0
C929 C 0.58678 0.27649 0.66855 0.0
C930 C 0.61715 0.32282 0.69766 0.0
C931 C 0.59271 0.30222 0.72973 0.0
C932 C 0.59231 0.30343 0.71601 0.0
C933 C 0.61027 0.28882 0.67791 0.0
C934 C 0.60055 0.2972 0.69047 0.0
H935 H 0.54228 0.28221 0.75216 0.0
H936 H 0.53989 0.29344 0.73002 0.0
H937 H 0.62721 0.34501 0.71571 0.0
H938 H 0.68034 0.27136 0.66423 0.0
H939 H 0.66283 0.29716 0.68291 0.0
C940 C 0.17437 0.7599 0.99086 0.0
C941 C 0.16615 0.73113 0.98363 0.0
C942 C 0.18139 0.75776 0.00368 0.0
C943 C 0.20095 0.69704 0.02902 0.0
H944 H 0.16352 0.76402 0.04934 0.0
C945 C 0.16128 0.67494 0.07777 0.0
C946 C 0.1643 0.70109 0.08653 0.0
C947 C 0.17168 0.67942 0.06596 0.0
C948 C 0.1748 0.74549 0.04382 0.0
H949 H 0.15874 0.6776 0.98418 0.0
H950 H 0.1701 0.67384 0.00657 0.0
H951 H 0.16041 0.77058 0.02699 0.0
H952 H 0.18277 0.75161 0.09018 0.0
H953 H 0.20062 0.75967 0.06937 0.0
H954 H 0.21363 0.67111 0.0459 0.0
C955 C 0.17207 0.69802 0.00233 0.0
C956 C 0.17299 0.74921 0.03098 0.0
C957 C 0.16536 0.70015 0.98949 0.0
C958 C 0.18028 0.73101 0.0836 0.0
C959 C 0.19022 0.7357 0.07168 0.0
C960 C 0.20248 0.69319 0.04186 0.0
C961 C 0.18005 0.72681 0.00961 0.0
C962 C 0.18532 0.72463 0.02337 0.0
C963 C 0.18491 0.71031 0.06261 0.0
C964 C 0.18875 0.71701 0.04937 0.0
H965 H 0.17566 0.78407 0.98656 0.0
H966 H 0.18793 0.78039 0.00895 0.0
H967 H 0.21141 0.678 0.02349 0.0
H968 H 0.14909 0.65161 0.07981 0.0
H969 H 0.16707 0.65946 0.05917 0.0
C970 C 0.63358 0.82112 0.24147 0.0
C971 C 0.64486 0.79867 0.23283 0.0
C972 C 0.63612 0.81373 0.25409 0.0
C973 C 0.63796 0.74421 0.27525 0.0
H974 H 0.67159 0.80933 0.30019 0.0
C975 C 0.63328 0.71482 0.32667 0.0
C976 C 0.62294 0.74068 0.33413 0.0
C977 C 0.64363 0.72153 0.31497 0.0
C978 C 0.66185 0.79092 0.29337 0.0
H979 H 0.66747 0.75086 0.23058 0.0
H980 H 0.67116 0.73753 0.25267 0.0
H981 H 0.67315 0.82201 0.27825 0.0
H982 H 0.6164 0.7939 0.33547 0.0
H983 H 0.63331 0.80565 0.31495 0.0
H984 H 0.62488 0.71377 0.29014 0.0
C985 C 0.66068 0.76098 0.24966 0.0
C986 C 0.66289 0.79819 0.28081 0.0
C987 C 0.65866 0.76863 0.23705 0.0
C988 C 0.62468 0.77356 0.32995 0.0
C989 C 0.63447 0.78024 0.31816 0.0
C990 C 0.63641 0.73714 0.28778 0.0
C991 C 0.64951 0.7835 0.2583 0.0
C992 C 0.6506 0.77505 0.27163 0.0
C993 C 0.64301 0.75416 0.31032 0.0
C994 C 0.64796 0.76054 0.29704 0.0
H995 H 0.62312 0.84459 0.23847 0.0
H996 H 0.62702 0.83138 0.26054 0.0
H997 H 0.62801 0.72605 0.26836 0.0
H998 H 0.63229 0.68925 0.32973 0.0
H999 H 0.65096 0.7009 0.30939 0.0
C1000 C 0.66503 0.20707 0.48642 0.0
C1001 C 0.66385 0.23918 0.48143 0.0
C1002 C 0.67364 0.20264 0.49907 0.0
C1003 C 0.67671 0.24841 0.52902 0.0
H1004 H 0.72058 0.16906 0.54138 0.0
C1005 C 0.69271 0.22313 0.58108 0.0
C1006 C 0.67798 0.19248 0.58393 0.0
C1007 C 0.7005 0.22947 0.56899 0.0
C1008 C 0.70851 0.19144 0.53805 0.0
H1009 H 0.67206 0.29174 0.48561 0.0
H1010 H 0.68788 0.28408 0.50762 0.0
H1011 H 0.71531 0.17968 0.51915 0.0
H1012 H 0.66311 0.14331 0.57674 0.0
H1013 H 0.67715 0.15417 0.55575 0.0
H1014 H 0.66952 0.25988 0.5479 0.0
C1015 C 0.68129 0.2623 0.50188 0.0
C1016 C 0.70524 0.19744 0.52532 0.0
C1017 C 0.67229 0.26673 0.48926 0.0
C1018 C 0.67422 0.16725 0.57479 0.0
C1019 C 0.68239 0.17343 0.56277 0.0
C1020 C 0.68031 0.24259 0.54174 0.0
C1021 C 0.68165 0.23021 0.50699 0.0
C1022 C 0.68854 0.22559 0.5206 0.0
C1023 C 0.6942 0.20508 0.55961 0.0
C1024 C 0.69554 0.21366 0.54638 0.0
H1025 H 0.65833 0.18541 0.48062 0.0
H1026 H 0.673 0.17761 0.50267 0.0
H1027 H 0.66326 0.27008 0.52578 0.0
H1028 H 0.69599 0.24305 0.58794 0.0
H1029 H 0.70996 0.25396 0.56683 0.0
C1030 C 0.13884 0.26171 0.72865 0.0
C1031 C 0.15179 0.29292 0.72552 0.0
C1032 C 0.13787 0.25292 0.74106 0.0
C1033 C 0.17159 0.27564 0.77317 0.0
H1034 H 0.09113 0.23147 0.78188 0.0
C1035 C 0.13223 0.26752 0.8233 0.0
C1036 C 0.11529 0.23845 0.82653 0.0
C1037 C 0.14141 0.27149 0.81124 0.0
C1038 C 0.11403 0.24329 0.7796 0.0
H1039 H 0.17411 0.33929 0.73296 0.0
H1040 H 0.17204 0.32415 0.75461 0.0
H1041 H 0.09769 0.24363 0.76033 0.0
H1042 H 0.09618 0.19008 0.81989 0.0
H1043 H 0.11236 0.19685 0.79891 0.0
H1044 H 0.18747 0.27589 0.79259 0.0
C1045 C 0.16318 0.30619 0.74749 0.0
C1046 C 0.11779 0.25028 0.76722 0.0
C1047 C 0.16429 0.31492 0.73507 0.0
C1048 C 0.10903 0.21285 0.81764 0.0
C1049 C 0.11817 0.2168 0.80562 0.0
C1050 C 0.16777 0.26869 0.78561 0.0
C1051 C 0.14965 0.2752 0.75064 0.0
C1052 C 0.14653 0.26668 0.76383 0.0
C1053 C 0.13359 0.24654 0.80217 0.0
C1054 C 0.13886 0.25253 0.78896 0.0
H1055 H 0.12956 0.24399 0.7215 0.0
H1056 H 0.12785 0.2286 0.74314 0.0
H1057 H 0.19423 0.28793 0.77087 0.0
H1058 H 0.1367 0.28801 0.82984 0.0
H1059 H 0.15297 0.29484 0.80886 0.0
loop_
_geom_bond_atom_site_label_1
_geom_bond_atom_site_label_2
_geom_bond_distance
_geom_bond_site_symmetry_2
_ccdc_geom_bond_type
P0 O11 1.490 . S
P0 C14 1.812 . S
P0 C20 1.803 . S
P0 C26 1.819 . S
H1 C15 0.941 . S
H2 C16 0.939 . S
H3 C18 0.940 . S
H4 C19 0.940 . S
H5 C21 0.939 . S
H6 C22 0.942 . S
H7 C24 0.940 . S
H8 C25 0.939 . S
H9 C27 0.941 . S
H10 C31 0.939 . S
O11 P0 1.490 . S
H12 C28 0.939 . S
H13 C30 0.940 . S
C14 P0 1.812 . S
C14 C15 1.389 . S
C14 C19 1.391 . S
C15 H1 0.941 . S
C15 C14 1.389 . S
C15 C16 1.397 . S
C16 H2 0.939 . S
C16 C15 1.397 . S
C16 C17 1.378 . S
C17 C16 1.378 . S
C17 C18 1.378 . S
C18 H3 0.940 . S
C18 C17 1.378 . S
C18 C19 1.396 . S
C19 H4 0.940 . S
C19 C14 1.391 . S
C19 C18 1.396 . S
C20 P0 1.803 . S
C20 C21 1.378 . S
C20 C25 1.400 . S
C21 H5 0.939 . S
C21 C20 1.378 . S
C21 C22 1.361 . S
C22 H6 0.942 . S
C22 C21 1.361 . S
C22 C23 1.369 . S
C23 C22 1.369 . S
C23 C24 1.404 . S
C24 H7 0.940 . S
C24 C23 1.404 . S
C24 C25 1.389 . S
C25 H8 0.939 . S
C25 C20 1.400 . S
C25 C24 1.389 . S
C26 P0 1.819 . S
C26 C27 1.391 . S
C26 C31 1.391 . S
C27 H9 0.941 . S
C27 C26 1.391 . S
C27 C28 1.396 . S
C28 H12 0.939 . S
C28 C27 1.396 . S
C28 C29 1.397 . S
C29 C28 1.397 . S
C29 C30 1.385 . S
C30 H13 0.940 . S
C30 C29 1.385 . S
C30 C31 1.388 . S
C31 H10 0.939 . S
C31 C26 1.391 . S
C31 C30 1.388 . S
P32 O43 1.490 . S
P32 C46 1.812 . S
P32 C52 1.803 . S
P32 C58 1.819 . S
H33 C47 0.941 . S
H34 C48 0.939 . S
H35 C50 0.940 . S
H36 C51 0.940 . S
H37 C53 0.939 . S
H38 C54 0.942 . S
H39 C56 0.940 . S
H40 C57 0.939 . S
H41 C59 0.941 . S
H42 C63 0.939 . S
O43 P32 1.490 . S
H44 C60 0.939 . S
H45 C62 0.940 . S
C46 P32 1.812 . S
C46 C47 1.389 . S
C46 C51 1.391 . S
C47 H33 0.941 . S
C47 C46 1.389 . S
C47 C48 1.397 . S
C48 H34 0.939 . S
C48 C47 1.397 . S
C48 C49 1.378 . S
C49 C48 1.378 . S
C49 C50 1.378 . S
C50 H35 0.940 . S
C50 C49 1.378 . S
C50 C51 1.396 . S
C51 H36 0.940 . S
C51 C46 1.391 . S
C51 C50 1.396 . S
C52 P32 1.803 . S
C52 C53 1.378 . S
C52 C57 1.400 . S
C53 H37 0.939 . S
C53 C52 1.378 . S
C53 C54 1.361 . S
C54 H38 0.942 . S
C54 C53 1.361 . S
C54 C55 1.369 . S
C55 C54 1.369 . S
C55 C56 1.404 . S
C56 H39 0.940 . S
C56 C55 1.404 . S
C56 C57 1.389 . S
C57 H40 0.939 . S
C57 C52 1.400 . S
C57 C56 1.389 . S
C58 P32 1.819 . S
C58 C59 1.391 . S
C58 C63 1.391 . S
C59 H41 0.941 . S
C59 C58 1.391 . S
C59 C60 1.396 . S
C60 H44 0.939 . S
C60 C59 1.396 . S
C60 C61 1.397 . S
C61 C60 1.397 . S
C61 C62 1.385 . S
C62 H45 0.940 . S
C62 C61 1.385 . S
C62 C63 1.388 . S
C63 H42 0.939 . S
C63 C58 1.391 . S
C63 C62 1.388 . S
P64 O75 1.490 . S
P64 C78 1.812 . S
P64 C84 1.803 . S
P64 C90 1.819 . S
H65 C79 0.941 . S
H66 C80 0.939 . S
H67 C82 0.940 . S
H68 C83 0.940 . S
H69 C85 0.939 . S
H70 C86 0.942 . S
H71 C88 0.940 . S
H72 C89 0.939 . S
H73 C91 0.941 . S
H74 C95 0.939 . S
O75 P64 1.490 . S
H76 C92 0.939 . S
H77 C94 0.940 . S
C78 P64 1.812 . S
C78 C79 1.389 . S
C78 C83 1.391 . S
C79 H65 0.941 . S
C79 C78 1.389 . S
C79 C80 1.397 . S
C80 H66 0.939 . S
C80 C79 1.397 . S
C80 C81 1.378 . S
C81 C80 1.378 . S
C81 C82 1.378 . S
C82 H67 0.940 . S
C82 C81 1.378 . S
C82 C83 1.396 . S
C83 H68 0.940 . S
C83 C78 1.391 . S
C83 C82 1.396 . S
C84 P64 1.803 . S
C84 C85 1.378 . S
C84 C89 1.400 . S
C85 H69 0.939 . S
C85 C84 1.378 . S
C85 C86 1.361 . S
C86 H70 0.942 . S
C86 C85 1.361 . S
C86 C87 1.369 . S
C87 C86 1.369 . S
C87 C88 1.404 . S
C88 H71 0.940 . S
C88 C87 1.404 . S
C88 C89 1.389 . S
C89 H72 0.939 . S
C89 C84 1.400 . S
C89 C88 1.389 . S
C90 P64 1.819 . S
C90 C91 1.391 . S
C90 C95 1.391 . S
C91 H73 0.941 . S
C91 C90 1.391 . S
C91 C92 1.396 . S
C92 H76 0.939 . S
C92 C91 1.396 . S
C92 C93 1.397 . S
C93 C92 1.397 . S
C93 C94 1.385 . S
C94 H77 0.940 . S
C94 C93 1.385 . S
C94 C95 1.388 . S
C95 H74 0.939 . S
C95 C90 1.391 . S
C95 C94 1.388 . S
P96 O107 1.490 . S
P96 C110 1.812 . S
P96 C116 1.803 . S
P96 C122 1.819 . S
H97 C111 0.941 . S
H98 C112 0.939 . S
H99 C114 0.940 . S
H100 C115 0.940 . S
H101 C117 0.939 . S
H102 C118 0.942 . S
H103 C120 0.940 . S
H104 C121 0.939 . S
H105 C123 0.941 . S
H106 C127 0.939 . S
O107 P96 1.490 . S
H108 C124 0.939 . S
H109 C126 0.940 . S
C110 P96 1.812 . S
C110 C111 1.389 . S
C110 C115 1.391 . S
C111 H97 0.941 . S
C111 C110 1.389 . S
C111 C112 1.397 . S
C112 H98 0.939 . S
C112 C111 1.397 . S
C112 C113 1.378 . S
C113 C112 1.378 . S
C113 C114 1.378 . S
C114 H99 0.940 . S
C114 C113 1.378 . S
C114 C115 1.396 . S
C115 H100 0.940 . S
C115 C110 1.391 . S
C115 C114 1.396 . S
C116 P96 1.803 . S
C116 C117 1.378 . S
C116 C121 1.400 . S
C117 H101 0.939 . S
C117 C116 1.378 . S
C117 C118 1.361 . S
C118 H102 0.942 . S
C118 C117 1.361 . S
C118 C119 1.369 . S
C119 C118 1.369 . S
C119 C120 1.404 . S
C120 H103 0.940 . S
C120 C119 1.404 . S
C120 C121 1.389 . S
C121 H104 0.939 . S
C121 C116 1.400 . S
C121 C120 1.389 . S
C122 P96 1.819 . S
C122 C123 1.391 . S
C122 C127 1.391 . S
C123 H105 0.941 . S
C123 C122 1.391 . S
C123 C124 1.396 . S
C124 H108 0.939 . S
C124 C123 1.396 . S
C124 C125 1.397 . S
C125 C124 1.397 . S
C125 C126 1.385 . S
C126 H109 0.940 . S
C126 C125 1.385 . S
C126 C127 1.388 . S
C127 H106 0.939 . S
C127 C122 1.391 . S
C127 C126 1.388 . S
P128 O139 1.490 . S
P128 C142 1.812 . S
P128 C148 1.803 . S
P128 C154 1.819 . S
H129 C143 0.941 . S
H130 C144 0.939 . S
H131 C146 0.940 . S
H132 C147 0.940 . S
H133 C149 0.939 . S
H134 C150 0.942 . S
H135 C152 0.940 . S
H136 C153 0.939 . S
H137 C155 0.941 . S
H138 C159 0.939 . S
O139 P128 1.490 . S
H140 C156 0.939 . S
H141 C158 0.940 . S
C142 P128 1.812 . S
C142 C143 1.389 . S
C142 C147 1.391 . S
C143 H129 0.941 . S
C143 C142 1.389 . S
C143 C144 1.397 . S
C144 H130 0.939 . S
C144 C143 1.397 . S
C144 C145 1.378 . S
C145 C144 1.378 . S
C145 C146 1.378 . S
C146 H131 0.940 . S
C146 C145 1.378 . S
C146 C147 1.396 . S
C147 H132 0.940 . S
C147 C142 1.391 . S
C147 C146 1.396 . S
C148 P128 1.803 . S
C148 C149 1.378 . S
C148 C153 1.400 . S
C149 H133 0.939 . S
C149 C148 1.378 . S
C149 C150 1.361 . S
C150 H134 0.942 . S
C150 C149 1.361 . S
C150 C151 1.369 . S
C151 C150 1.369 . S
C151 C152 1.404 . S
C152 H135 0.940 . S
C152 C151 1.404 . S
C152 C153 1.389 . S
C153 H136 0.939 . S
C153 C148 1.400 . S
C153 C152 1.389 . S
C154 P128 1.819 . S
C154 C155 1.391 . S
C154 C159 1.391 . S
C155 H137 0.941 . S
C155 C154 1.391 . S
C155 C156 1.396 . S
C156 H140 0.939 . S
C156 C155 1.396 . S
C156 C157 1.397 . S
C157 C156 1.397 . S
C157 C158 1.385 . S
C158 H141 0.940 . S
C158 C157 1.385 . S
C158 C159 1.388 . S
C159 H138 0.939 . S
C159 C154 1.391 . S
C159 C158 1.388 . S
P160 O171 1.490 . S
P160 C174 1.812 . S
P160 C180 1.803 . S
P160 C186 1.819 . S
H161 C175 0.941 . S
H162 C176 0.939 . S
H163 C178 0.940 . S
H164 C179 0.940 . S
H165 C181 0.939 . S
H166 C182 0.942 . S
H167 C184 0.940 . S
H168 C185 0.939 . S
H169 C187 0.941 . S
H170 C191 0.939 . S
O171 P160 1.490 . S
H172 C188 0.939 . S
H173 C190 0.940 . S
C174 P160 1.812 . S
C174 C175 1.389 . S
C174 C179 1.391 . S
C175 H161 0.941 . S
C175 C174 1.389 . S
C175 C176 1.397 . S
C176 H162 0.939 . S
C176 C175 1.397 . S
C176 C177 1.378 . S
C177 C176 1.378 . S
C177 C178 1.378 . S
C178 H163 0.940 . S
C178 C177 1.378 . S
C178 C179 1.396 . S
C179 H164 0.940 . S
C179 C174 1.391 . S
C179 C178 1.396 . S
C180 P160 1.803 . S
C180 C181 1.378 . S
C180 C185 1.400 . S
C181 H165 0.939 . S
C181 C180 1.378 . S
C181 C182 1.361 . S
C182 H166 0.942 . S
C182 C181 1.361 . S
C182 C183 1.369 . S
C183 C182 1.369 . S
C183 C184 1.404 . S
C184 H167 0.940 . S
C184 C183 1.404 . S
C184 C185 1.389 . S
C185 H168 0.939 . S
C185 C180 1.400 . S
C185 C184 1.389 . S
C186 P160 1.819 . S
C186 C187 1.391 . S
C186 C191 1.391 . S
C187 H169 0.941 . S
C187 C186 1.391 . S
C187 C188 1.396 . S
C188 H172 0.939 . S
C188 C187 1.396 . S
C188 C189 1.397 . S
C189 C188 1.397 . S
C189 C190 1.385 . S
C190 H173 0.940 . S
C190 C189 1.385 . S
C190 C191 1.388 . S
C191 H170 0.939 . S
C191 C186 1.391 . S
C191 C190 1.388 . S
P192 O203 1.490 . S
P192 C206 1.812 . S
P192 C212 1.803 . S
P192 C218 1.819 . S
H193 C207 0.941 . S
H194 C208 0.939 . S
H195 C210 0.940 . S
H196 C211 0.940 . S
H197 C213 0.939 . S
H198 C214 0.942 . S
H199 C216 0.940 . S
H200 C217 0.939 . S
H201 C219 0.941 . S
H202 C223 0.939 . S
O203 P192 1.490 . S
H204 C220 0.939 . S
H205 C222 0.940 . S
C206 P192 1.812 . S
C206 C207 1.389 . S
C206 C211 1.391 . S
C207 H193 0.941 . S
C207 C206 1.389 . S
C207 C208 1.397 . S
C208 H194 0.939 . S
C208 C207 1.397 . S
C208 C209 1.378 . S
C209 C208 1.378 . S
C209 C210 1.378 . S
C210 H195 0.940 . S
C210 C209 1.378 . S
C210 C211 1.396 . S
C211 H196 0.940 . S
C211 C206 1.391 . S
C211 C210 1.396 . S
C212 P192 1.803 . S
C212 C213 1.378 . S
C212 C217 1.400 . S
C213 H197 0.939 . S
C213 C212 1.378 . S
C213 C214 1.361 . S
C214 H198 0.942 . S
C214 C213 1.361 . S
C214 C215 1.369 . S
C215 C214 1.369 . S
C215 C216 1.404 . S
C216 H199 0.940 . S
C216 C215 1.404 . S
C216 C217 1.389 . S
C217 H200 0.939 . S
C217 C212 1.400 . S
C217 C216 1.389 . S
C218 P192 1.819 . S
C218 C219 1.391 . S
C218 C223 1.391 . S
C219 H201 0.941 . S
C219 C218 1.391 . S
C219 C220 1.396 . S
C220 H204 0.939 . S
C220 C219 1.396 . S
C220 C221 1.397 . S
C221 C220 1.397 . S
C221 C222 1.385 . S
C222 H205 0.940 . S
C222 C221 1.385 . S
C222 C223 1.388 . S
C223 H202 0.939 . S
C223 C218 1.391 . S
C223 C222 1.388 . S
P224 O235 1.490 . S
P224 C238 1.812 . S
P224 C244 1.803 . S
P224 C250 1.819 . S
H225 C239 0.941 . S
H226 C240 0.939 . S
H227 C242 0.940 . S
H228 C243 0.940 . S
H229 C245 0.939 . S
H230 C246 0.942 . S
H231 C248 0.940 . S
H232 C249 0.939 . S
H233 C251 0.941 . S
H234 C255 0.939 . S
O235 P224 1.490 . S
H236 C252 0.939 . S
H237 C254 0.940 . S
C238 P224 1.812 . S
C238 C239 1.389 . S
C238 C243 1.391 . S
C239 H225 0.941 . S
C239 C238 1.389 . S
C239 C240 1.397 . S
C240 H226 0.939 . S
C240 C239 1.397 . S
C240 C241 1.378 . S
C241 C240 1.378 . S
C241 C242 1.378 . S
C242 H227 0.940 . S
C242 C241 1.378 . S
C242 C243 1.396 . S
C243 H228 0.940 . S
C243 C238 1.391 . S
C243 C242 1.396 . S
C244 P224 1.803 . S
C244 C245 1.378 . S
C244 C249 1.400 . S
C245 H229 0.939 . S
C245 C244 1.378 . S
C245 C246 1.361 . S
C246 H230 0.942 . S
C246 C245 1.361 . S
C246 C247 1.369 . S
C247 C246 1.369 . S
C247 C248 1.404 . S
C248 H231 0.940 . S
C248 C247 1.404 . S
C248 C249 1.389 . S
C249 H232 0.939 . S
C249 C244 1.400 . S
C249 C248 1.389 . S
C250 P224 1.819 . S
C250 C251 1.391 . S
C250 C255 1.391 . S
C251 H233 0.941 . S
C251 C250 1.391 . S
C251 C252 1.396 . S
C252 H236 0.939 . S
C252 C251 1.396 . S
C252 C253 1.397 . S
C253 C252 1.397 . S
C253 C254 1.385 . S
C254 H237 0.940 . S
C254 C253 1.385 . S
C254 C255 1.388 . S
C255 H234 0.939 . S
C255 C250 1.391 . S
C255 C254 1.388 . S
Zn256 O262 1.920 . S
Zn256 O268 1.898 . S
Zn256 O271 1.905 . S
Zn257 O265 1.905 . S
Zn257 O266 1.898 . S
Zn257 O274 1.920 . S
Zn258 O261 2.080 . S
Zn258 O264 2.114 . S
Zn258 O267 2.120 . S
Zn258 O269 2.120 . S
Zn258 O270 2.114 . S
Zn258 O273 2.080 . S
C259 O264 1.166 . S
C259 O265 1.182 . S
C260 O266 1.167 . S
C260 O267 1.299 . S
O261 Zn258 2.080 . S
O261 C275 1.305 . S
O262 Zn256 1.920 . S
O262 C275 1.234 . S
C263 O268 1.167 . S
C263 O269 1.299 . S
O264 Zn258 2.114 . S
O264 C259 1.166 . S
O265 Zn257 1.905 . S
O265 C259 1.182 . S
O266 Zn257 1.898 . S
O266 C260 1.167 . S
O267 Zn258 2.120 . S
O267 C260 1.299 . S
O268 Zn256 1.898 . S
O268 C263 1.167 . S
O269 Zn258 2.120 . S
O269 C263 1.299 . S
O270 Zn258 2.114 . S
O270 C272 1.166 . S
O271 Zn256 1.905 . S
O271 C272 1.182 . S
C272 O270 1.166 . S
C272 O271 1.182 . S
O273 Zn258 2.080 . S
O273 C276 1.305 . S
O274 Zn257 1.920 . S
O274 C276 1.234 . S
C275 O261 1.305 . S
C275 O262 1.234 . S
C276 O273 1.305 . S
C276 O274 1.234 . S
Zn277 O283 1.920 . S
Zn277 O289 1.898 . S
Zn277 O292 1.905 . S
Zn278 O286 1.905 . S
Zn278 O287 1.898 . S
Zn278 O295 1.920 . S
Zn279 O282 2.080 . S
Zn279 O285 2.114 . S
Zn279 O288 2.120 . S
Zn279 O290 2.120 . S
Zn279 O291 2.114 . S
Zn279 O294 2.080 . S
C280 O285 1.166 . S
C280 O286 1.182 . S
C281 O287 1.167 . S
C281 O288 1.299 . S
O282 Zn279 2.080 . S
O282 C296 1.305 . S
O283 Zn277 1.920 . S
O283 C296 1.234 . S
C284 O289 1.167 . S
C284 O290 1.299 . S
O285 Zn279 2.114 . S
O285 C280 1.166 . S
O286 Zn278 1.905 . S
O286 C280 1.182 . S
O287 Zn278 1.898 . S
O287 C281 1.167 . S
O288 Zn279 2.120 . S
O288 C281 1.299 . S
O289 Zn277 1.898 . S
O289 C284 1.167 . S
O290 Zn279 2.120 . S
O290 C284 1.299 . S
O291 Zn279 2.114 . S
O291 C293 1.166 . S
O292 Zn277 1.905 . S
O292 C293 1.182 . S
C293 O291 1.166 . S
C293 O292 1.182 . S
O294 Zn279 2.080 . S
O294 C297 1.305 . S
O295 Zn278 1.920 . S
O295 C297 1.234 . S
C296 O282 1.305 . S
C296 O283 1.234 . S
C297 O294 1.305 . S
C297 O295 1.234 . S
Zn298 O304 1.920 . S
Zn298 O310 1.898 . S
Zn298 O313 1.905 . S
Zn299 O307 1.905 . S
Zn299 O308 1.898 . S
Zn299 O316 1.920 . S
Zn300 O303 2.080 . S
Zn300 O306 2.114 . S
Zn300 O309 2.120 . S
Zn300 O311 2.120 . S
Zn300 O312 2.114 . S
Zn300 O315 2.080 . S
C301 O306 1.166 . S
C301 O307 1.182 . S
C302 O308 1.167 . S
C302 O309 1.299 . S
O303 Zn300 2.080 . S
O303 C317 1.305 . S
O304 Zn298 1.920 . S
O304 C317 1.234 . S
C305 O310 1.167 . S
C305 O311 1.299 . S
O306 Zn300 2.114 . S
O306 C301 1.166 . S
O307 Zn299 1.905 . S
O307 C301 1.182 . S
O308 Zn299 1.898 . S
O308 C302 1.167 . S
O309 Zn300 2.120 . S
O309 C302 1.299 . S
O310 Zn298 1.898 . S
O310 C305 1.167 . S
O311 Zn300 2.120 . S
O311 C305 1.299 . S
O312 Zn300 2.114 . S
O312 C314 1.166 . S
O313 Zn298 1.905 . S
O313 C314 1.182 . S
C314 O312 1.166 . S
C314 O313 1.182 . S
O315 Zn300 2.080 . S
O315 C318 1.305 . S
O316 Zn299 1.920 . S
O316 C318 1.234 . S
C317 O303 1.305 . S
C317 O304 1.234 . S
C318 O315 1.305 . S
C318 O316 1.234 . S
Zn319 O325 1.920 . S
Zn319 O331 1.898 . S
Zn319 O334 1.905 . S
Zn320 O328 1.905 . S
Zn320 O329 1.898 . S
Zn320 O337 1.920 . S
Zn321 O324 2.080 . S
Zn321 O327 2.114 . S
Zn321 O330 2.120 . S
Zn321 O332 2.120 . S
Zn321 O333 2.114 . S
Zn321 O336 2.080 . S
C322 O327 1.166 . S
C322 O328 1.182 . S
C323 O329 1.167 . S
C323 O330 1.299 . S
O324 Zn321 2.080 . S
O324 C338 1.305 . S
O325 Zn319 1.920 . S
O325 C338 1.234 . S
C326 O331 1.167 . S
C326 O332 1.299 . S
O327 Zn321 2.114 . S
O327 C322 1.166 . S
O328 Zn320 1.905 . S
O328 C322 1.182 . S
O329 Zn320 1.898 . S
O329 C323 1.167 . S
O330 Zn321 2.120 . S
O330 C323 1.299 . S
O331 Zn319 1.898 . S
O331 C326 1.167 . S
O332 Zn321 2.120 . S
O332 C326 1.299 . S
O333 Zn321 2.114 . S
O333 C335 1.166 . S
O334 Zn319 1.905 . S
O334 C335 1.182 . S
C335 O333 1.166 . S
C335 O334 1.182 . S
O336 Zn321 2.080 . S
O336 C339 1.305 . S
O337 Zn320 1.920 . S
O337 C339 1.234 . S
C338 O324 1.305 . S
C338 O325 1.234 . S
C339 O336 1.305 . S
C339 O337 1.234 . S
C340 C341 1.349 . S
C340 C342 1.327 . S
C340 H365 0.950 . S
C341 C340 1.349 . S
C341 C357 1.349 . S
C342 C340 1.327 . S
C342 C361 1.429 . S
C342 H366 0.950 . S
C343 C360 1.574 . S
C343 C362 1.368 . S
C343 H367 0.949 . S
H344 C348 0.949 . S
C345 C346 1.349 . S
C345 C347 1.327 . S
C345 H368 0.950 . S
C346 C345 1.349 . S
C346 C358 1.349 . S
C347 C345 1.327 . S
C347 C363 1.429 . S
C347 H369 0.950 . S
C348 H344 0.949 . S
C348 C356 1.574 . S
C348 C364 1.368 . S
H349 C357 0.950 . S
H350 C355 0.950 . S
H351 C356 0.949 . S
H352 C358 0.950 . S
H353 C359 0.950 . S
H354 C360 0.949 . S
C355 H350 0.950 . S
C355 C357 1.327 . S
C355 C361 1.429 . S
C356 C348 1.574 . S
C356 H351 0.949 . S
C356 C362 1.368 . S
C357 C341 1.349 . S
C357 H349 0.950 . S
C357 C355 1.327 . S
C358 C346 1.349 . S
C358 H352 0.950 . S
C358 C359 1.327 . S
C359 H353 0.950 . S
C359 C358 1.327 . S
C359 C363 1.429 . S
C360 C343 1.574 . S
C360 H354 0.949 . S
C360 C364 1.368 . S
C361 C342 1.429 . S
C361 C355 1.429 . S
C361 C362 1.523 . S
C362 C343 1.368 . S
C362 C356 1.368 . S
C362 C361 1.523 . S
C363 C347 1.429 . S
C363 C359 1.429 . S
C363 C364 1.523 . S
C364 C348 1.368 . S
C364 C360 1.368 . S
C364 C363 1.523 . S
H365 C340 0.950 . S
H366 C342 0.950 . S
H367 C343 0.949 . S
H368 C345 0.950 . S
H369 C347 0.950 . S
C370 C371 1.349 . S
C370 C372 1.327 . S
C370 H395 0.950 . S
C371 C370 1.349 . S
C371 C387 1.349 . S
C372 C370 1.327 . S
C372 C391 1.429 . S
C372 H396 0.950 . S
C373 C390 1.574 . S
C373 C392 1.368 . S
C373 H397 0.949 . S
H374 C378 0.949 . S
C375 C376 1.349 . S
C375 C377 1.327 . S
C375 H398 0.950 . S
C376 C375 1.349 . S
C376 C388 1.349 . S
C377 C375 1.327 . S
C377 C393 1.429 . S
C377 H399 0.950 . S
C378 H374 0.949 . S
C378 C386 1.574 . S
C378 C394 1.368 . S
H379 C387 0.950 . S
H380 C385 0.950 . S
H381 C386 0.949 . S
H382 C388 0.950 . S
H383 C389 0.950 . S
H384 C390 0.949 . S
C385 H380 0.950 . S
C385 C387 1.327 . S
C385 C391 1.429 . S
C386 C378 1.574 . S
C386 H381 0.949 . S
C386 C392 1.368 . S
C387 C371 1.349 . S
C387 H379 0.950 . S
C387 C385 1.327 . S
C388 C376 1.349 . S
C388 H382 0.950 . S
C388 C389 1.327 . S
C389 H383 0.950 . S
C389 C388 1.327 . S
C389 C393 1.429 . S
C390 C373 1.574 . S
C390 H384 0.949 . S
C390 C394 1.368 . S
C391 C372 1.429 . S
C391 C385 1.429 . S
C391 C392 1.523 . S
C392 C373 1.368 . S
C392 C386 1.368 . S
C392 C391 1.523 . S
C393 C377 1.429 . S
C393 C389 1.429 . S
C393 C394 1.523 . S
C394 C378 1.368 . S
C394 C390 1.368 . S
C394 C393 1.523 . S
H395 C370 0.950 . S
H396 C372 0.950 . S
H397 C373 0.949 . S
H398 C375 0.950 . S
H399 C377 0.950 . S
C400 C401 1.349 . S
C400 C402 1.327 . S
C400 H425 0.950 . S
C401 C400 1.349 . S
C401 C417 1.349 . S
C402 C400 1.327 . S
C402 C421 1.429 . S
C402 H426 0.950 . S
C403 C420 1.574 . S
C403 C422 1.368 . S
C403 H427 0.949 . S
H404 C408 0.949 . S
C405 C406 1.349 . S
C405 C407 1.327 . S
C405 H428 0.950 . S
C406 C405 1.349 . S
C406 C418 1.349 . S
C407 C405 1.327 . S
C407 C423 1.429 . S
C407 H429 0.950 . S
C408 H404 0.949 . S
C408 C416 1.574 . S
C408 C424 1.368 . S
H409 C417 0.950 . S
H410 C415 0.950 . S
H411 C416 0.949 . S
H412 C418 0.950 . S
H413 C419 0.950 . S
H414 C420 0.949 . S
C415 H410 0.950 . S
C415 C417 1.327 . S
C415 C421 1.429 . S
C416 C408 1.574 . S
C416 H411 0.949 . S
C416 C422 1.368 . S
C417 C401 1.349 . S
C417 H409 0.950 . S
C417 C415 1.327 . S
C418 C406 1.349 . S
C418 H412 0.950 . S
C418 C419 1.327 . S
C419 H413 0.950 . S
C419 C418 1.327 . S
C419 C423 1.429 . S
C420 C403 1.574 . S
C420 H414 0.949 . S
C420 C424 1.368 . S
C421 C402 1.429 . S
C421 C415 1.429 . S
C421 C422 1.523 . S
C422 C403 1.368 . S
C422 C416 1.368 . S
C422 C421 1.523 . S
C423 C407 1.429 . S
C423 C419 1.429 . S
C423 C424 1.523 . S
C424 C408 1.368 . S
C424 C420 1.368 . S
C424 C423 1.523 . S
H425 C400 0.950 . S
H426 C402 0.950 . S
H427 C403 0.949 . S
H428 C405 0.950 . S
H429 C407 0.950 . S
C430 C431 1.349 . S
C430 C432 1.327 . S
C430 H455 0.950 . S
C431 C430 1.349 . S
C431 C447 1.349 . S
C432 C430 1.327 . S
C432 C451 1.429 . S
C432 H456 0.950 . S
C433 C450 1.574 . S
C433 C452 1.368 . S
C433 H457 0.949 . S
H434 C438 0.949 . S
C435 C436 1.343 1_655 S
C435 C437 1.336 . S
C435 H458 0.947 1_655 S
C436 C435 1.343 1_455 S
C436 C448 1.349 . S
C437 C435 1.336 . S
C437 C453 1.429 . S
C437 H459 0.950 . S
C438 H434 0.949 . S
C438 C446 1.574 . S
C438 C454 1.368 . S
H439 C447 0.950 . S
H440 C445 0.950 . S
H441 C446 0.949 . S
H442 C448 0.950 . S
H443 C449 0.950 . S
H444 C450 0.949 . S
C445 H440 0.950 . S
C445 C447 1.327 . S
C445 C451 1.429 . S
C446 C438 1.574 . S
C446 H441 0.949 . S
C446 C452 1.368 . S
C447 C431 1.349 . S
C447 H439 0.950 . S
C447 C445 1.327 . S
C448 C436 1.349 . S
C448 H442 0.950 . S
C448 C449 1.327 1_455 S
C449 H443 0.950 . S
C449 C448 1.327 1_655 S
C449 C453 1.429 . S
C450 C433 1.574 . S
C450 H444 0.949 . S
C450 C454 1.368 . S
C451 C432 1.429 . S
C451 C445 1.429 . S
C451 C452 1.523 . S
C452 C433 1.368 . S
C452 C446 1.368 . S
C452 C451 1.523 . S
C453 C437 1.429 . S
C453 C449 1.429 . S
C453 C454 1.523 . S
C454 C438 1.368 . S
C454 C450 1.368 . S
C454 C453 1.523 . S
H455 C430 0.950 . S
H456 C432 0.950 . S
H457 C433 0.949 . S
H458 C435 0.947 1_455 S
H459 C437 0.950 . S
C460 C461 1.349 . S
C460 C462 1.327 . S
C460 H485 0.950 . S
C461 C460 1.349 . S
C461 C477 1.349 . S
C462 C460 1.327 . S
C462 C481 1.429 . S
C462 H486 0.950 . S
C463 C480 1.574 . S
C463 C482 1.368 . S
C463 H487 0.949 . S
H464 C468 0.949 . S
C465 C466 1.349 . S
C465 C467 1.327 . S
C465 H488 0.950 . S
C466 C465 1.349 . S
C466 C478 1.349 . S
C467 C465 1.327 . S
C467 C483 1.429 . S
C467 H489 0.950 . S
C468 H464 0.949 . S
C468 C476 1.574 . S
C468 C484 1.368 . S
H469 C477 0.950 . S
H470 C475 0.950 . S
H471 C476 0.949 . S
H472 C478 0.950 . S
H473 C479 0.950 . S
H474 C480 0.949 . S
C475 H470 0.950 . S
C475 C477 1.327 . S
C475 C481 1.429 . S
C476 C468 1.574 . S
C476 H471 0.949 . S
C476 C482 1.368 . S
C477 C461 1.349 . S
C477 H469 0.950 . S
C477 C475 1.327 . S
C478 C466 1.349 . S
C478 H472 0.950 . S
C478 C479 1.327 . S
C479 H473 0.950 . S
C479 C478 1.327 . S
C479 C483 1.429 . S
C480 C463 1.574 . S
C480 H474 0.949 . S
C480 C484 1.368 . S
C481 C462 1.429 . S
C481 C475 1.429 . S
C481 C482 1.523 . S
C482 C463 1.368 . S
C482 C476 1.368 . S
C482 C481 1.523 . S
C483 C467 1.429 . S
C483 C479 1.429 . S
C483 C484 1.523 . S
C484 C468 1.368 . S
C484 C480 1.368 . S
C484 C483 1.523 . S
H485 C460 0.950 . S
H486 C462 0.950 . S
H487 C463 0.949 . S
H488 C465 0.950 . S
H489 C467 0.950 . S
C490 C491 1.349 . S
C490 C492 1.327 . S
C490 H515 0.950 . S
C491 C490 1.349 . S
C491 C507 1.349 . S
C492 C490 1.327 . S
C492 C511 1.429 . S
C492 H516 0.950 . S
C493 C510 1.574 . S
C493 C512 1.368 . S
C493 H517 0.949 . S
H494 C498 0.949 . S
C495 C496 1.349 . S
C495 C497 1.327 1_455 S
C495 H518 0.950 . S
C496 C495 1.349 . S
C496 C508 1.349 . S
C497 C495 1.327 1_655 S
C497 C513 1.429 . S
C497 H519 0.950 . S
C498 H494 0.949 . S
C498 C506 1.574 . S
C498 C514 1.368 . S
H499 C507 0.950 . S
H500 C505 0.950 . S
H501 C506 0.949 . S
H502 C508 0.950 . S
H503 C509 0.950 . S
H504 C510 0.949 . S
C505 H500 0.950 . S
C505 C507 1.327 . S
C505 C511 1.429 . S
C506 C498 1.574 . S
C506 H501 0.949 . S
C506 C512 1.368 . S
C507 C491 1.349 . S
C507 H499 0.950 . S
C507 C505 1.327 . S
C508 C496 1.349 . S
C508 H502 0.950 . S
C508 C509 1.327 1_455 S
C509 H503 0.950 . S
C509 C508 1.327 1_655 S
C509 C513 1.429 . S
C510 C493 1.574 . S
C510 H504 0.949 . S
C510 C514 1.368 . S
C511 C492 1.429 . S
C511 C505 1.429 . S
C511 C512 1.523 . S
C512 C493 1.368 . S
C512 C506 1.368 . S
C512 C511 1.523 . S
C513 C497 1.429 . S
C513 C509 1.429 . S
C513 C514 1.523 . S
C514 C498 1.368 . S
C514 C510 1.368 . S
C514 C513 1.523 . S
H515 C490 0.950 . S
H516 C492 0.950 . S
H517 C493 0.949 . S
H518 C495 0.950 . S
H519 C497 0.950 . S
C520 C521 1.349 . S
C520 C522 1.327 . S
C520 H545 0.950 . S
C521 C520 1.349 . S
C521 C537 1.349 . S
C522 C520 1.327 . S
C522 C541 1.429 . S
C522 H546 0.950 . S
C523 C540 1.574 . S
C523 C542 1.368 . S
C523 H547 0.949 . S
H524 C528 0.949 . S
C525 C526 1.349 . S
C525 C527 1.327 . S
C525 H548 0.950 . S
C526 C525 1.349 . S
C526 C538 1.349 . S
C527 C525 1.327 . S
C527 C543 1.429 . S
C527 H549 0.950 . S
C528 H524 0.949 . S
C528 C536 1.574 . S
C528 C544 1.368 . S
H529 C537 0.950 . S
H530 C535 0.950 . S
H531 C536 0.949 . S
H532 C538 0.950 . S
H533 C539 0.950 . S
H534 C540 0.949 . S
C535 H530 0.950 . S
C535 C537 1.327 . S
C535 C541 1.429 . S
C536 C528 1.574 . S
C536 H531 0.949 . S
C536 C542 1.368 . S
C537 C521 1.349 . S
C537 H529 0.950 . S
C537 C535 1.327 . S
C538 C526 1.349 . S
C538 H532 0.950 . S
C538 C539 1.327 . S
C539 H533 0.950 . S
C539 C538 1.327 . S
C539 C543 1.429 . S
C540 C523 1.574 . S
C540 H534 0.949 . S
C540 C544 1.368 . S
C541 C522 1.429 . S
C541 C535 1.429 . S
C541 C542 1.523 . S
C542 C523 1.368 . S
C542 C536 1.368 . S
C542 C541 1.523 . S
C543 C527 1.429 . S
C543 C539 1.429 . S
C543 C544 1.523 . S
C544 C528 1.368 . S
C544 C540 1.368 . S
C544 C543 1.523 . S
H545 C520 0.950 . S
H546 C522 0.950 . S
H547 C523 0.949 . S
H548 C525 0.950 . S
H549 C527 0.950 . S
C550 C551 1.349 1_655 S
C550 C552 1.327 . S
C550 H575 0.950 1_655 S
C551 C550 1.349 1_455 S
C551 C567 1.349 1_455 S
C552 C550 1.327 . S
C552 C571 1.429 . S
C552 H576 0.950 . S
C553 C570 1.574 . S
C553 C572 1.368 . S
C553 H577 0.949 . S
H554 C558 0.949 . S
C555 C556 1.349 . S
C555 C557 1.327 . S
C555 H578 0.950 . S
C556 C555 1.349 . S
C556 C568 1.349 . S
C557 C555 1.327 . S
C557 C573 1.429 . S
C557 H579 0.950 . S
C558 H554 0.949 . S
C558 C566 1.574 . S
C558 C574 1.368 . S
H559 C567 0.950 1_455 S
H560 C565 0.950 . S
H561 C566 0.949 . S
H562 C568 0.950 . S
H563 C569 0.950 . S
H564 C570 0.949 . S
C565 H560 0.950 . S
C565 C567 1.327 . S
C565 C571 1.429 . S
C566 C558 1.574 . S
C566 H561 0.949 . S
C566 C572 1.368 . S
C567 C551 1.349 1_655 S
C567 H559 0.950 1_655 S
C567 C565 1.327 . S
C568 C556 1.349 . S
C568 H562 0.950 . S
C568 C569 1.327 . S
C569 H563 0.950 . S
C569 C568 1.327 . S
C569 C573 1.429 . S
C570 C553 1.574 . S
C570 H564 0.949 . S
C570 C574 1.368 . S
C571 C552 1.429 . S
C571 C565 1.429 . S
C571 C572 1.523 . S
C572 C553 1.368 . S
C572 C566 1.368 . S
C572 C571 1.523 . S
C573 C557 1.429 . S
C573 C569 1.429 . S
C573 C574 1.523 . S
C574 C558 1.368 . S
C574 C570 1.368 . S
C574 C573 1.523 . S
H575 C550 0.950 1_455 S
H576 C552 0.950 . S
H577 C553 0.949 . S
H578 C555 0.950 . S
H579 C557 0.950 . S
C580 C581 1.349 . S
C580 C582 1.327 . S
C580 H605 0.950 . S
C581 C580 1.349 . S
C581 C597 1.349 . S
C582 C580 1.327 . S
C582 C601 1.429 . S
C582 H606 0.950 . S
C583 C600 1.574 . S
C583 C602 1.368 . S
C583 H607 0.949 . S
H584 C588 0.949 . S
C585 C586 1.349 . S
C585 C587 1.327 . S
C585 H608 0.950 . S
C586 C585 1.349 . S
C586 C598 1.349 . S
C587 C585 1.327 . S
C587 C603 1.429 . S
C587 H609 0.950 . S
C588 H584 0.949 . S
C588 C596 1.574 . S
C588 C604 1.368 . S
H589 C597 0.950 . S
H590 C595 0.950 . S
H591 C596 0.949 . S
H592 C598 0.950 . S
H593 C599 0.950 . S
H594 C600 0.949 . S
C595 H590 0.950 . S
C595 C597 1.327 . S
C595 C601 1.429 . S
C596 C588 1.574 . S
C596 H591 0.949 . S
C596 C602 1.368 . S
C597 C581 1.349 . S
C597 H589 0.950 . S
C597 C595 1.327 . S
C598 C586 1.349 . S
C598 H592 0.950 . S
C598 C599 1.327 . S
C599 H593 0.950 . S
C599 C598 1.327 . S
C599 C603 1.429 . S
C600 C583 1.574 . S
C600 H594 0.949 . S
C600 C604 1.368 . S
C601 C582 1.429 . S
C601 C595 1.429 . S
C601 C602 1.523 . S
C602 C583 1.368 . S
C602 C596 1.368 . S
C602 C601 1.523 . S
C603 C587 1.429 . S
C603 C599 1.429 . S
C603 C604 1.523 . S
C604 C588 1.368 . S
C604 C600 1.368 . S
C604 C603 1.523 . S
H605 C580 0.950 . S
H606 C582 0.950 . S
H607 C583 0.949 . S
H608 C585 0.950 . S
H609 C587 0.950 . S
C610 C611 1.349 . S
C610 C612 1.327 . S
C610 H635 0.950 . S
C611 C610 1.349 . S
C611 C627 1.349 . S
C612 C610 1.327 . S
C612 C631 1.429 . S
C612 H636 0.950 . S
C613 C630 1.574 . S
C613 C632 1.368 . S
C613 H637 0.949 . S
H614 C618 0.949 . S
C615 C616 1.349 . S
C615 C617 1.327 . S
C615 H638 0.950 . S
C616 C615 1.349 . S
C616 C628 1.349 . S
C617 C615 1.327 . S
C617 C633 1.429 . S
C617 H639 0.950 . S
C618 H614 0.949 . S
C618 C626 1.574 . S
C618 C634 1.368 . S
H619 C627 0.950 . S
H620 C625 0.950 . S
H621 C626 0.949 . S
H622 C628 0.950 . S
H623 C629 0.950 . S
H624 C630 0.949 . S
C625 H620 0.950 . S
C625 C627 1.327 . S
C625 C631 1.429 . S
C626 C618 1.574 . S
C626 H621 0.949 . S
C626 C632 1.368 . S
C627 C611 1.349 . S
C627 H619 0.950 . S
C627 C625 1.327 . S
C628 C616 1.349 . S
C628 H622 0.950 . S
C628 C629 1.327 . S
C629 H623 0.950 . S
C629 C628 1.327 . S
C629 C633 1.429 . S
C630 C613 1.574 . S
C630 H624 0.949 . S
C630 C634 1.368 . S
C631 C612 1.429 . S
C631 C625 1.429 . S
C631 C632 1.523 . S
C632 C613 1.368 . S
C632 C626 1.368 . S
C632 C631 1.523 . S
C633 C617 1.429 . S
C633 C629 1.429 . S
C633 C634 1.523 . S
C634 C618 1.368 . S
C634 C630 1.368 . S
C634 C633 1.523 . S
H635 C610 0.950 . S
H636 C612 0.950 . S
H637 C613 0.949 . S
H638 C615 0.950 . S
H639 C617 0.950 . S
C640 C641 1.349 . S
C640 C642 1.327 . S
C640 H665 0.950 . S
C641 C640 1.349 . S
C641 C657 1.349 . S
C642 C640 1.327 . S
C642 C661 1.429 . S
C642 H666 0.950 . S
C643 C660 1.574 . S
C643 C662 1.368 . S
C643 H667 0.949 . S
H644 C648 0.949 . S
C645 C646 1.349 . S
C645 C647 1.327 . S
C645 H668 0.950 . S
C646 C645 1.349 . S
C646 C658 1.349 . S
C647 C645 1.327 . S
C647 C663 1.429 . S
C647 H669 0.950 . S
C648 H644 0.949 . S
C648 C656 1.574 . S
C648 C664 1.368 . S
H649 C657 0.950 . S
H650 C655 0.950 . S
H651 C656 0.949 . S
H652 C658 0.950 . S
H653 C659 0.950 . S
H654 C660 0.949 . S
C655 H650 0.950 . S
C655 C657 1.327 . S
C655 C661 1.429 . S
C656 C648 1.574 . S
C656 H651 0.949 . S
C656 C662 1.368 . S
C657 C641 1.349 . S
C657 H649 0.950 . S
C657 C655 1.327 . S
C658 C646 1.349 . S
C658 H652 0.950 . S
C658 C659 1.327 . S
C659 H653 0.950 . S
C659 C658 1.327 . S
C659 C663 1.429 . S
C660 C643 1.574 . S
C660 H654 0.949 . S
C660 C664 1.368 . S
C661 C642 1.429 . S
C661 C655 1.429 . S
C661 C662 1.523 . S
C662 C643 1.368 . S
C662 C656 1.368 . S
C662 C661 1.523 . S
C663 C647 1.429 . S
C663 C659 1.429 . S
C663 C664 1.523 . S
C664 C648 1.368 . S
C664 C660 1.368 . S
C664 C663 1.523 . S
H665 C640 0.950 . S
H666 C642 0.950 . S
H667 C643 0.949 . S
H668 C645 0.950 . S
H669 C647 0.950 . S
C670 C671 1.349 . S
C670 C672 1.327 . S
C670 H695 0.950 . S
C671 C670 1.349 . S
C671 C687 1.349 . S
C672 C670 1.327 . S
C672 C691 1.429 . S
C672 H696 0.950 . S
C673 C690 1.574 . S
C673 C692 1.368 . S
C673 H697 0.949 . S
H674 C678 0.949 . S
C675 C676 1.349 . S
C675 C677 1.327 . S
C675 H698 0.950 . S
C676 C675 1.349 . S
C676 C688 1.349 . S
C677 C675 1.327 . S
C677 C693 1.429 . S
C677 H699 0.950 . S
C678 H674 0.949 . S
C678 C686 1.574 . S
C678 C694 1.368 . S
H679 C687 0.950 . S
H680 C685 0.950 . S
H681 C686 0.949 . S
H682 C688 0.950 . S
H683 C689 0.950 . S
H684 C690 0.949 . S
C685 H680 0.950 . S
C685 C687 1.327 . S
C685 C691 1.429 . S
C686 C678 1.574 . S
C686 H681 0.949 . S
C686 C692 1.368 . S
C687 C671 1.349 . S
C687 H679 0.950 . S
C687 C685 1.327 . S
C688 C676 1.349 . S
C688 H682 0.950 . S
C688 C689 1.327 . S
C689 H683 0.950 . S
C689 C688 1.327 . S
C689 C693 1.429 . S
C690 C673 1.574 . S
C690 H684 0.949 . S
C690 C694 1.368 . S
C691 C672 1.429 . S
C691 C685 1.429 . S
C691 C692 1.523 . S
C692 C673 1.368 . S
C692 C686 1.368 . S
C692 C691 1.523 . S
C693 C677 1.429 . S
C693 C689 1.429 . S
C693 C694 1.523 . S
C694 C678 1.368 . S
C694 C690 1.368 . S
C694 C693 1.523 . S
H695 C670 0.950 . S
H696 C672 0.950 . S
H697 C673 0.949 . S
H698 C675 0.950 . S
H699 C677 0.950 . S
C700 C701 1.349 . S
C700 C702 1.327 . S
C700 H725 0.950 . S
C701 C700 1.349 . S
C701 C717 1.349 . S
C702 C700 1.327 . S
C702 C721 1.429 . S
C702 H726 0.950 . S
C703 C720 1.574 1_565 S
C703 C722 1.368 . S
C703 H727 0.949 . S
H704 C708 0.949 . S
C705 C706 1.349 . S
C705 C707 1.327 . S
C705 H728 0.950 . S
C706 C705 1.349 . S
C706 C718 1.349 . S
C707 C705 1.327 . S
C707 C723 1.429 . S
C707 H729 0.950 . S
C708 H704 0.949 . S
C708 C716 1.574 1_545 S
C708 C724 1.368 . S
H709 C717 0.950 . S
H710 C715 0.950 . S
H711 C716 0.949 . S
H712 C718 0.950 . S
H713 C719 0.950 . S
H714 C720 0.949 . S
C715 H710 0.950 . S
C715 C717 1.327 . S
C715 C721 1.429 . S
C716 C708 1.574 1_565 S
C716 H711 0.949 . S
C716 C722 1.368 . S
C717 C701 1.349 . S
C717 H709 0.950 . S
C717 C715 1.327 . S
C718 C706 1.349 . S
C718 H712 0.950 . S
C718 C719 1.327 . S
C719 H713 0.950 . S
C719 C718 1.327 . S
C719 C723 1.429 . S
C720 C703 1.574 1_545 S
C720 H714 0.949 . S
C720 C724 1.368 . S
C721 C702 1.429 . S
C721 C715 1.429 . S
C721 C722 1.523 . S
C722 C703 1.368 . S
C722 C716 1.368 . S
C722 C721 1.523 . S
C723 C707 1.429 . S
C723 C719 1.429 . S
C723 C724 1.523 . S
C724 C708 1.368 . S
C724 C720 1.368 . S
C724 C723 1.523 . S
H725 C700 0.950 . S
H726 C702 0.950 . S
H727 C703 0.949 . S
H728 C705 0.950 . S
H729 C707 0.950 . S
C730 C731 1.349 . S
C730 C732 1.327 . S
C730 H755 0.950 . S
C731 C730 1.349 . S
C731 C747 1.349 . S
C732 C730 1.327 . S
C732 C751 1.429 . S
C732 H756 0.950 . S
C733 C750 1.574 . S
C733 C752 1.368 1_565 S
C733 H757 0.949 . S
H734 C738 0.949 . S
C735 C736 1.349 . S
C735 C737 1.327 . S
C735 H758 0.950 . S
C736 C735 1.349 . S
C736 C748 1.349 . S
C737 C735 1.327 . S
C737 C753 1.429 . S
C737 H759 0.950 . S
C738 H734 0.949 . S
C738 C746 1.574 1_565 S
C738 C754 1.368 . S
H739 C747 0.950 . S
H740 C745 0.950 . S
H741 C746 0.949 . S
H742 C748 0.950 . S
H743 C749 0.950 . S
H744 C750 0.949 . S
C745 H740 0.950 . S
C745 C747 1.327 . S
C745 C751 1.429 . S
C746 C738 1.574 1_545 S
C746 H741 0.949 . S
C746 C752 1.368 . S
C747 C731 1.349 . S
C747 H739 0.950 . S
C747 C745 1.327 . S
C748 C736 1.349 . S
C748 H742 0.950 . S
C748 C749 1.327 . S
C749 H743 0.950 . S
C749 C748 1.327 . S
C749 C753 1.429 . S
C750 C733 1.574 . S
C750 H744 0.949 . S
C750 C754 1.368 . S
C751 C732 1.429 . S
C751 C745 1.429 . S
C751 C752 1.523 . S
C752 C733 1.368 1_545 S
C752 C746 1.368 . S
C752 C751 1.523 . S
C753 C737 1.429 . S
C753 C749 1.429 . S
C753 C754 1.523 . S
C754 C738 1.368 . S
C754 C750 1.368 . S
C754 C753 1.523 . S
H755 C730 0.950 . S
H756 C732 0.950 . S
H757 C733 0.949 . S
H758 C735 0.950 . S
H759 C737 0.950 . S
C760 C761 1.349 . S
C760 C762 1.327 . S
C760 H785 0.950 . S
C761 C760 1.349 . S
C761 C777 1.349 . S
C762 C760 1.327 . S
C762 C781 1.429 . S
C762 H786 0.950 . S
C763 C780 1.574 1_545 S
C763 C782 1.368 . S
C763 H787 0.949 . S
H764 C768 0.949 . S
C765 C766 1.349 . S
C765 C767 1.327 . S
C765 H788 0.950 . S
C766 C765 1.349 . S
C766 C778 1.349 . S
C767 C765 1.327 . S
C767 C783 1.429 . S
C767 H789 0.950 . S
C768 H764 0.949 . S
C768 C776 1.574 . S
C768 C784 1.368 . S
H769 C777 0.950 . S
H770 C775 0.950 . S
H771 C776 0.949 . S
H772 C778 0.950 . S
H773 C779 0.950 . S
H774 C780 0.949 . S
C775 H770 0.950 . S
C775 C777 1.327 . S
C775 C781 1.429 . S
C776 C768 1.574 . S
C776 H771 0.949 . S
C776 C782 1.368 1_565 S
C777 C761 1.349 . S
C777 H769 0.950 . S
C777 C775 1.327 . S
C778 C766 1.349 . S
C778 H772 0.950 . S
C778 C779 1.327 . S
C779 H773 0.950 . S
C779 C778 1.327 . S
C779 C783 1.429 . S
C780 C763 1.574 1_565 S
C780 H774 0.949 . S
C780 C784 1.368 . S
C781 C762 1.429 . S
C781 C775 1.429 . S
C781 C782 1.523 . S
C782 C763 1.368 . S
C782 C776 1.368 1_545 S
C782 C781 1.523 . S
C783 C767 1.429 . S
C783 C779 1.429 . S
C783 C784 1.523 . S
C784 C768 1.368 . S
C784 C780 1.368 . S
C784 C783 1.523 . S
H785 C760 0.950 . S
H786 C762 0.950 . S
H787 C763 0.949 . S
H788 C765 0.950 . S
H789 C767 0.950 . S
C790 C791 1.349 . S
C790 C792 1.327 . S
C790 H815 0.950 . S
C791 C790 1.349 . S
C791 C807 1.349 . S
C792 C790 1.327 . S
C792 C811 1.429 . S
C792 H816 0.950 . S
C793 C810 1.574 1_565 S
C793 C812 1.368 . S
C793 H817 0.949 . S
H794 C798 0.949 . S
C795 C796 1.349 . S
C795 C797 1.327 . S
C795 H818 0.950 . S
C796 C795 1.349 . S
C796 C808 1.349 . S
C797 C795 1.327 . S
C797 C813 1.429 . S
C797 H819 0.950 . S
C798 H794 0.949 . S
C798 C806 1.574 1_545 S
C798 C814 1.368 . S
H799 C807 0.950 . S
H800 C805 0.950 . S
H801 C806 0.949 . S
H802 C808 0.950 . S
H803 C809 0.950 . S
H804 C810 0.949 . S
C805 H800 0.950 . S
C805 C807 1.327 . S
C805 C811 1.429 . S
C806 C798 1.574 1_565 S
C806 H801 0.949 . S
C806 C812 1.368 . S
C807 C791 1.349 . S
C807 H799 0.950 . S
C807 C805 1.327 . S
C808 C796 1.349 . S
C808 H802 0.950 . S
C808 C809 1.327 . S
C809 H803 0.950 . S
C809 C808 1.327 . S
C809 C813 1.429 . S
C810 C793 1.574 1_545 S
C810 H804 0.949 . S
C810 C814 1.368 . S
C811 C792 1.429 . S
C811 C805 1.429 . S
C811 C812 1.523 . S
C812 C793 1.368 . S
C812 C806 1.368 . S
C812 C811 1.523 . S
C813 C797 1.429 . S
C813 C809 1.429 . S
C813 C814 1.523 . S
C814 C798 1.368 . S
C814 C810 1.368 . S
C814 C813 1.523 . S
H815 C790 0.950 . S
H816 C792 0.950 . S
H817 C793 0.949 . S
H818 C795 0.950 . S
H819 C797 0.950 . S
C820 C821 1.349 . S
C820 C822 1.327 1_554 S
C820 H845 0.950 . S
C821 C820 1.349 . S
C821 C837 1.349 . S
C822 C820 1.327 1_556 S
C822 C841 1.429 . S
C822 H846 0.950 . S
C823 C840 1.574 . S
C823 C842 1.368 . S
C823 H847 0.949 . S
H824 C828 0.949 . S
C825 C826 1.349 . S
C825 C827 1.327 . S
C825 H848 0.950 . S
C826 C825 1.349 . S
C826 C838 1.349 . S
C827 C825 1.327 . S
C827 C843 1.429 . S
C827 H849 0.950 . S
C828 H824 0.949 . S
C828 C836 1.574 . S
C828 C844 1.368 . S
H829 C837 0.950 . S
H830 C835 0.955 . S
H831 C836 0.949 . S
H832 C838 0.950 . S
H833 C839 0.950 . S
H834 C840 0.949 . S
C835 H830 0.955 . S
C835 C837 1.313 1_556 S
C835 C841 1.438 . S
C836 C828 1.574 . S
C836 H831 0.949 . S
C836 C842 1.368 . S
C837 C821 1.349 . S
C837 H829 0.950 . S
C837 C835 1.313 1_554 S
C838 C826 1.349 . S
C838 H832 0.950 . S
C838 C839 1.327 . S
C839 H833 0.950 . S
C839 C838 1.327 . S
C839 C843 1.429 . S
C840 C823 1.574 . S
C840 H834 0.949 . S
C840 C844 1.368 . S
C841 C822 1.429 . S
C841 C835 1.438 . S
C841 C842 1.523 . S
C842 C823 1.368 . S
C842 C836 1.368 . S
C842 C841 1.523 . S
C843 C827 1.429 . S
C843 C839 1.429 . S
C843 C844 1.523 . S
C844 C828 1.368 . S
C844 C840 1.368 . S
C844 C843 1.523 . S
H845 C820 0.950 . S
H846 C822 0.950 . S
H847 C823 0.949 . S
H848 C825 0.950 . S
H849 C827 0.950 . S
C850 C851 1.349 . S
C850 C852 1.327 . S
C850 H875 0.950 . S
C851 C850 1.349 . S
C851 C867 1.349 . S
C852 C850 1.327 . S
C852 C871 1.429 . S
C852 H876 0.950 . S
C853 C870 1.574 . S
C853 C872 1.368 . S
C853 H877 0.949 . S
H854 C858 0.949 . S
C855 C856 1.349 . S
C855 C857 1.327 . S
C855 H878 0.950 . S
C856 C855 1.349 . S
C856 C868 1.349 . S
C857 C855 1.327 . S
C857 C873 1.429 . S
C857 H879 0.950 . S
C858 H854 0.949 . S
C858 C866 1.574 . S
C858 C874 1.368 . S
H859 C867 0.950 . S
H860 C865 0.950 . S
H861 C866 0.949 . S
H862 C868 0.950 . S
H863 C869 0.950 . S
H864 C870 0.949 . S
C865 H860 0.950 . S
C865 C867 1.327 . S
C865 C871 1.429 . S
C866 C858 1.574 . S
C866 H861 0.949 . S
C866 C872 1.368 . S
C867 C851 1.349 . S
C867 H859 0.950 . S
C867 C865 1.327 . S
C868 C856 1.349 . S
C868 H862 0.950 . S
C868 C869 1.327 . S
C869 H863 0.950 . S
C869 C868 1.327 . S
C869 C873 1.429 . S
C870 C853 1.574 . S
C870 H864 0.949 . S
C870 C874 1.368 . S
C871 C852 1.429 . S
C871 C865 1.429 . S
C871 C872 1.523 . S
C872 C853 1.368 . S
C872 C866 1.368 . S
C872 C871 1.523 . S
C873 C857 1.429 . S
C873 C869 1.429 . S
C873 C874 1.523 . S
C874 C858 1.368 . S
C874 C870 1.368 . S
C874 C873 1.523 . S
H875 C850 0.950 . S
H876 C852 0.950 . S
H877 C853 0.949 . S
H878 C855 0.950 . S
H879 C857 0.950 . S
C880 C881 1.349 . S
C880 C882 1.327 . S
C880 H905 0.950 . S
C881 C880 1.349 . S
C881 C897 1.349 . S
C882 C880 1.327 . S
C882 C901 1.429 . S
C882 H906 0.950 . S
C883 C900 1.574 . S
C883 C902 1.368 . S
C883 H907 0.949 . S
H884 C888 0.949 . S
C885 C886 1.349 . S
C885 C887 1.327 . S
C885 H908 0.950 . S
C886 C885 1.349 . S
C886 C898 1.349 . S
C887 C885 1.327 . S
C887 C903 1.429 . S
C887 H909 0.950 . S
C888 H884 0.949 . S
C888 C896 1.574 . S
C888 C904 1.368 . S
H889 C897 0.950 . S
H890 C895 0.950 . S
H891 C896 0.949 . S
H892 C898 0.950 . S
H893 C899 0.950 . S
H894 C900 0.949 . S
C895 H890 0.950 . S
C895 C897 1.327 . S
C895 C901 1.429 . S
C896 C888 1.574 . S
C896 H891 0.949 . S
C896 C902 1.368 . S
C897 C881 1.349 . S
C897 H889 0.950 . S
C897 C895 1.327 . S
C898 C886 1.349 . S
C898 H892 0.950 . S
C898 C899 1.327 . S
C899 H893 0.950 . S
C899 C898 1.327 . S
C899 C903 1.429 . S
C900 C883 1.574 . S
C900 H894 0.949 . S
C900 C904 1.368 . S
C901 C882 1.429 . S
C901 C895 1.429 . S
C901 C902 1.523 . S
C902 C883 1.368 . S
C902 C896 1.368 . S
C902 C901 1.523 . S
C903 C887 1.429 . S
C903 C899 1.429 . S
C903 C904 1.523 . S
C904 C888 1.368 . S
C904 C900 1.368 . S
C904 C903 1.523 . S
H905 C880 0.950 . S
H906 C882 0.950 . S
H907 C883 0.949 . S
H908 C885 0.950 . S
H909 C887 0.950 . S
C910 C911 1.349 . S
C910 C912 1.327 . S
C910 H935 0.950 . S
C911 C910 1.349 . S
C911 C927 1.349 . S
C912 C910 1.327 . S
C912 C931 1.429 . S
C912 H936 0.950 . S
C913 C930 1.574 . S
C913 C932 1.368 . S
C913 H937 0.949 . S
H914 C918 0.949 . S
C915 C916 1.349 . S
C915 C917 1.327 . S
C915 H938 0.950 . S
C916 C915 1.349 . S
C916 C928 1.349 . S
C917 C915 1.327 . S
C917 C933 1.429 . S
C917 H939 0.950 . S
C918 H914 0.949 . S
C918 C926 1.574 . S
C918 C934 1.368 . S
H919 C927 0.950 . S
H920 C925 0.950 . S
H921 C926 0.949 . S
H922 C928 0.950 . S
H923 C929 0.950 . S
H924 C930 0.949 . S
C925 H920 0.950 . S
C925 C927 1.327 . S
C925 C931 1.429 . S
C926 C918 1.574 . S
C926 H921 0.949 . S
C926 C932 1.368 . S
C927 C911 1.349 . S
C927 H919 0.950 . S
C927 C925 1.327 . S
C928 C916 1.349 . S
C928 H922 0.950 . S
C928 C929 1.327 . S
C929 H923 0.950 . S
C929 C928 1.327 . S
C929 C933 1.429 . S
C930 C913 1.574 . S
C930 H924 0.949 . S
C930 C934 1.368 . S
C931 C912 1.429 . S
C931 C925 1.429 . S
C931 C932 1.523 . S
C932 C913 1.368 . S
C932 C926 1.368 . S
C932 C931 1.523 . S
C933 C917 1.429 . S
C933 C929 1.429 . S
C933 C934 1.523 . S
C934 C918 1.368 . S
C934 C930 1.368 . S
C934 C933 1.523 . S
H935 C910 0.950 . S
H936 C912 0.950 . S
H937 C913 0.949 . S
H938 C915 0.950 . S
H939 C917 0.950 . S
C940 C941 1.349 . S
C940 C942 1.327 1_556 S
C940 H965 0.950 . S
C941 C940 1.349 . S
C941 C957 1.349 . S
C942 C940 1.327 1_554 S
C942 C961 1.429 . S
C942 H966 0.950 . S
C943 C960 1.574 . S
C943 C962 1.368 . S
C943 H967 0.949 . S
H944 C948 0.949 . S
C945 C946 1.349 . S
C945 C947 1.327 . S
C945 H968 0.950 . S
C946 C945 1.349 . S
C946 C958 1.349 . S
C947 C945 1.327 . S
C947 C963 1.429 . S
C947 H969 0.950 . S
C948 H944 0.949 . S
C948 C956 1.574 . S
C948 C964 1.368 . S
H949 C957 0.950 . S
H950 C955 0.950 1_554 S
H951 C956 0.949 . S
H952 C958 0.950 . S
H953 C959 0.950 . S
H954 C960 0.949 . S
C955 H950 0.950 1_556 S
C955 C957 1.327 . S
C955 C961 1.429 1_556 S
C956 C948 1.574 . S
C956 H951 0.949 . S
C956 C962 1.368 . S
C957 C941 1.349 . S
C957 H949 0.950 . S
C957 C955 1.327 . S
C958 C946 1.349 . S
C958 H952 0.950 . S
C958 C959 1.327 . S
C959 H953 0.950 . S
C959 C958 1.327 . S
C959 C963 1.429 . S
C960 C943 1.574 . S
C960 H954 0.949 . S
C960 C964 1.368 . S
C961 C942 1.429 . S
C961 C955 1.429 1_554 S
C961 C962 1.523 . S
C962 C943 1.368 . S
C962 C956 1.368 . S
C962 C961 1.523 . S
C963 C947 1.429 . S
C963 C959 1.429 . S
C963 C964 1.523 . S
C964 C948 1.368 . S
C964 C960 1.368 . S
C964 C963 1.523 . S
H965 C940 0.950 . S
H966 C942 0.950 . S
H967 C943 0.949 . S
H968 C945 0.950 . S
H969 C947 0.950 . S
C970 C971 1.349 . S
C970 C972 1.327 . S
C970 H995 0.950 . S
C971 C970 1.349 . S
C971 C987 1.349 . S
C972 C970 1.327 . S
C972 C991 1.429 . S
C972 H996 0.950 . S
C973 C990 1.574 . S
C973 C992 1.368 . S
C973 H997 0.949 . S
H974 C978 0.949 . S
C975 C976 1.349 . S
C975 C977 1.327 . S
C975 H998 0.950 . S
C976 C975 1.349 . S
C976 C988 1.349 . S
C977 C975 1.327 . S
C977 C993 1.429 . S
C977 H999 0.950 . S
C978 H974 0.949 . S
C978 C986 1.574 . S
C978 C994 1.368 . S
H979 C987 0.950 . S
H980 C985 0.950 . S
H981 C986 0.949 . S
H982 C988 0.950 . S
H983 C989 0.950 . S
H984 C990 0.949 . S
C985 H980 0.950 . S
C985 C987 1.327 . S
C985 C991 1.429 . S
C986 C978 1.574 . S
C986 H981 0.949 . S
C986 C992 1.368 . S
C987 C971 1.349 . S
C987 H979 0.950 . S
C987 C985 1.327 . S
C988 C976 1.349 . S
C988 H982 0.950 . S
C988 C989 1.327 . S
C989 H983 0.950 . S
C989 C988 1.327 . S
C989 C993 1.429 . S
C990 C973 1.574 . S
C990 H984 0.949 . S
C990 C994 1.368 . S
C991 C972 1.429 . S
C991 C985 1.429 . S
C991 C992 1.523 . S
C992 C973 1.368 . S
C992 C986 1.368 . S
C992 C991 1.523 . S
C993 C977 1.429 . S
C993 C989 1.429 . S
C993 C994 1.523 . S
C994 C978 1.368 . S
C994 C990 1.368 . S
C994 C993 1.523 . S
H995 C970 0.950 . S
H996 C972 0.950 . S
H997 C973 0.949 . S
H998 C975 0.950 . S
H999 C977 0.950 . S
C1000 C1001 1.349 . S
C1000 C1002 1.327 . S
C1000 H1025 0.950 . S
C1001 C1000 1.349 . S
C1001 C1017 1.349 . S
C1002 C1000 1.327 . S
C1002 C1021 1.429 . S
C1002 H1026 0.950 . S
C1003 C1020 1.574 . S
C1003 C1022 1.368 . S
C1003 H1027 0.949 . S
H1004 C1008 0.949 . S
C1005 C1006 1.349 . S
C1005 C1007 1.327 . S
C1005 H1028 0.950 . S
C1006 C1005 1.349 . S
C1006 C1018 1.349 . S
C1007 C1005 1.327 . S
C1007 C1023 1.429 . S
C1007 H1029 0.950 . S
C1008 H1004 0.949 . S
C1008 C1016 1.574 . S
C1008 C1024 1.368 . S
H1009 C1017 0.950 . S
H1010 C1015 0.950 . S
H1011 C1016 0.949 . S
H1012 C1018 0.950 . S
H1013 C1019 0.950 . S
H1014 C1020 0.949 . S
C1015 H1010 0.950 . S
C1015 C1017 1.327 . S
C1015 C1021 1.429 . S
C1016 C1008 1.574 . S
C1016 H1011 0.949 . S
C1016 C1022 1.368 . S
C1017 C1001 1.349 . S
C1017 H1009 0.950 . S
C1017 C1015 1.327 . S
C1018 C1006 1.349 . S
C1018 H1012 0.950 . S
C1018 C1019 1.327 . S
C1019 H1013 0.950 . S
C1019 C1018 1.327 . S
C1019 C1023 1.429 . S
C1020 C1003 1.574 . S
C1020 H1014 0.949 . S
C1020 C1024 1.368 . S
C1021 C1002 1.429 . S
C1021 C1015 1.429 . S
C1021 C1022 1.523 . S
C1022 C1003 1.368 . S
C1022 C1016 1.368 . S
C1022 C1021 1.523 . S
C1023 C1007 1.429 . S
C1023 C1019 1.429 . S
C1023 C1024 1.523 . S
C1024 C1008 1.368 . S
C1024 C1020 1.368 . S
C1024 C1023 1.523 . S
H1025 C1000 0.950 . S
H1026 C1002 0.950 . S
H1027 C1003 0.949 . S
H1028 C1005 0.950 . S
H1029 C1007 0.950 . S
C1030 C1031 1.349 . S
C1030 C1032 1.327 . S
C1030 H1055 0.950 . S
C1031 C1030 1.349 . S
C1031 C1047 1.349 . S
C1032 C1030 1.327 . S
C1032 C1051 1.429 . S
C1032 H1056 0.950 . S
C1033 C1050 1.574 . S
C1033 C1052 1.368 . S
C1033 H1057 0.949 . S
H1034 C1038 0.949 . S
C1035 C1036 1.349 . S
C1035 C1037 1.327 . S
C1035 H1058 0.950 . S
C1036 C1035 1.349 . S
C1036 C1048 1.349 . S
C1037 C1035 1.327 . S
C1037 C1053 1.429 . S
C1037 H1059 0.950 . S
C1038 H1034 0.949 . S
C1038 C1046 1.574 . S
C1038 C1054 1.368 . S
H1039 C1047 0.950 . S
H1040 C1045 0.950 . S
H1041 C1046 0.949 . S
H1042 C1048 0.950 . S
H1043 C1049 0.950 . S
H1044 C1050 0.949 . S
C1045 H1040 0.950 . S
C1045 C1047 1.327 . S
C1045 C1051 1.429 . S
C1046 C1038 1.574 . S
C1046 H1041 0.949 . S
C1046 C1052 1.368 . S
C1047 C1031 1.349 . S
C1047 H1039 0.950 . S
C1047 C1045 1.327 . S
C1048 C1036 1.349 . S
C1048 H1042 0.950 . S
C1048 C1049 1.327 . S
C1049 H1043 0.950 . S
C1049 C1048 1.327 . S
C1049 C1053 1.429 . S
C1050 C1033 1.574 . S
C1050 H1044 0.949 . S
C1050 C1054 1.368 . S
C1051 C1032 1.429 . S
C1051 C1045 1.429 . S
C1051 C1052 1.523 . S
C1052 C1033 1.368 . S
C1052 C1046 1.368 . S
C1052 C1051 1.523 . S
C1053 C1037 1.429 . S
C1053 C1049 1.429 . S
C1053 C1054 1.523 . S
C1054 C1038 1.368 . S
C1054 C1050 1.368 . S
C1054 C1053 1.523 . S
H1055 C1030 0.950 . S
H1056 C1032 0.950 . S
H1057 C1033 0.949 . S
H1058 C1035 0.950 . S
H1059 C1037 0.950 . S
C346 C263 1.485 . S
C341 C17 1.625 . S
C376 C281 1.248 . S
C371 C55 1.305 1_655 S
C401 C87 1.341 . S
C406 C305 1.228 . S
C436 C335 1.273 . S
C431 C113 1.406 . S
C466 C323 1.228 . S
C461 C145 1.294 . S
C491 C177 1.382 . S
C496 C276 1.314 . S
C521 C215 1.555 . S
C526 C296 1.489 . S
C551 C247 1.365 . S
C556 C301 1.237 . S
C581 C241 1.372 . S
C586 C317 1.303 . S
C611 C183 1.367 . S
C616 C272 1.236 . S
C646 C339 1.255 . S
C641 C119 1.307 . S
C676 C284 1.270 . S
C671 C49 1.409 . S
C701 C81 1.618 . S
C706 C302 1.479 . S
C731 C23 1.354 . S
C736 C260 1.241 . S
C766 C280 1.219 . S
C761 C209 1.280 . S
C796 C326 1.498 . S
C791 C151 1.569 . S
C826 C322 1.316 . S
C821 C29 1.476 . S
C856 C275 1.321 . S
C851 C61 1.373 . S
C881 C93 1.456 . S
C886 C297 1.293 . S
C911 C125 1.400 . S
C916 C318 1.342 . S
C946 C259 1.315 . S
C941 C157 1.421 . S
C971 C189 1.457 . S
C976 C293 1.373 . S
C1006 C314 1.332 . S
C1001 C221 1.443 . S
C1036 C338 1.348 . S
C1031 C253 1.433 . S
