# Generated by pormake.
# Topology eea, (3,6)-cn, num edge types: 1
# Building blocks:
#     Node 0, Type 0, BuildingBlock: CUQRIR_clean_linker_1, # of connection points: 3
#     Node 1, Type 0, BuildingBlock: CUQRIR_clean_linker_1, # of connection points: 3
#     Node 2, Type 0, BuildingBlock: CUQRIR_clean_linker_1, # of connection points: 3
#     Node 3, Type 0, BuildingBlock: CUQRIR_clean_linker_1, # of connection points: 3
#     Node 4, Type 0, BuildingBlock: CUQRIR_clean_linker_1, # of connection points: 3
#     Node 5, Type 0, BuildingBlock: CUQRIR_clean_linker_1, # of connection points: 3
#     Node 6, Type 0, BuildingBlock: CUQRIR_clean_linker_1, # of connection points: 3
#     Node 7, Type 0, BuildingBlock: CUQRIR_clean_linker_1, # of connection points: 3
#     Node 8, Type 0, BuildingBlock: CUQRIR_clean_linker_1, # of connection points: 3
#     Node 9, Type 0, BuildingBlock: CUQRIR_clean_linker_1, # of connection points: 3
#     Node 10, Type 0, BuildingBlock: CUQRIR_clean_linker_1, # of connection points: 3
#     Node 11, Type 0, BuildingBlock: CUQRIR_clean_linker_1, # of connection points: 3
#     Node 12, Type 0, BuildingBlock: CUQRIR_clean_linker_1, # of connection points: 3
#     Node 13, Type 0, BuildingBlock: CUQRIR_clean_linker_1, # of connection points: 3
#     Node 14, Type 0, BuildingBlock: CUQRIR_clean_linker_1, # of connection points: 3
#     Node 15, Type 0, BuildingBlock: CUQRIR_clean_linker_1, # of connection points: 3
#     Node 16, Type 0, BuildingBlock: CUQRIR_clean_linker_1, # of connection points: 3
#     Node 17, Type 0, BuildingBlock: CUQRIR_clean_linker_1, # of connection points: 3
#     Node 18, Type 1, BuildingBlock: HISSIN_clean_sbu_0, # of connection points: 6
#     Node 19, Type 1, BuildingBlock: HISSIN_clean_sbu_0, # of connection points: 6
#     Node 20, Type 1, BuildingBlock: HISSIN_clean_sbu_0, # of connection points: 6
#     Node 21, Type 1, BuildingBlock: HISSIN_clean_sbu_0, # of connection points: 6
#     Node 22, Type 1, BuildingBlock: HISSIN_clean_sbu_0, # of connection points: 6
#     Node 23, Type 1, BuildingBlock: HISSIN_clean_sbu_0, # of connection points: 6
#     Node 24, Type 1, BuildingBlock: HISSIN_clean_sbu_0, # of connection points: 6
#     Node 25, Type 1, BuildingBlock: HISSIN_clean_sbu_0, # of connection points: 6
#     Node 26, Type 1, BuildingBlock: HISSIN_clean_sbu_0, # of connection points: 6
#     Edge 27, Type (0, 1), BuildingBlock: ZUJKAS_clean_linker_0, # of connection points: 2
#     Edge 28, Type (0, 1), BuildingBlock: ZUJKAS_clean_linker_0, # of connection points: 2
#     Edge 29, Type (0, 1), BuildingBlock: ZUJKAS_clean_linker_0, # of connection points: 2
#     Edge 30, Type (0, 1), BuildingBlock: ZUJKAS_clean_linker_0, # of connection points: 2
#     Edge 31, Type (0, 1), BuildingBlock: ZUJKAS_clean_linker_0, # of connection points: 2
#     Edge 32, Type (0, 1), BuildingBlock: ZUJKAS_clean_linker_0, # of connection points: 2
#     Edge 33, Type (0, 1), BuildingBlock: ZUJKAS_clean_linker_0, # of connection points: 2
#     Edge 34, Type (0, 1), BuildingBlock: ZUJKAS_clean_linker_0, # of connection points: 2
#     Edge 35, Type (0, 1), BuildingBlock: ZUJKAS_clean_linker_0, # of connection points: 2
#     Edge 36, Type (0, 1), BuildingBlock: ZUJKAS_clean_linker_0, # of connection points: 2
#     Edge 37, Type (0, 1), BuildingBlock: ZUJKAS_clean_linker_0, # of connection points: 2
#     Edge 38, Type (0, 1), BuildingBlock: ZUJKAS_clean_linker_0, # of connection points: 2
#     Edge 39, Type (0, 1), BuildingBlock: ZUJKAS_clean_linker_0, # of connection points: 2
#     Edge 40, Type (0, 1), BuildingBlock: ZUJKAS_clean_linker_0, # of connection points: 2
#     Edge 41, Type (0, 1), BuildingBlock: ZUJKAS_clean_linker_0, # of connection points: 2
#     Edge 42, Type (0, 1), BuildingBlock: ZUJKAS_clean_linker_0, # of connection points: 2
#     Edge 43, Type (0, 1), BuildingBlock: ZUJKAS_clean_linker_0, # of connection points: 2
#     Edge 44, Type (0, 1), BuildingBlock: ZUJKAS_clean_linker_0, # of connection points: 2
#     Edge 45, Type (0, 1), BuildingBlock: ZUJKAS_clean_linker_0, # of connection points: 2
#     Edge 46, Type (0, 1), BuildingBlock: ZUJKAS_clean_linker_0, # of connection points: 2
#     Edge 47, Type (0, 1), BuildingBlock: ZUJKAS_clean_linker_0, # of connection points: 2
#     Edge 48, Type (0, 1), BuildingBlock: ZUJKAS_clean_linker_0, # of connection points: 2
#     Edge 49, Type (0, 1), BuildingBlock: ZUJKAS_clean_linker_0, # of connection points: 2
#     Edge 50, Type (0, 1), BuildingBlock: ZUJKAS_clean_linker_0, # of connection points: 2
#     Edge 51, Type (0, 1), BuildingBlock: ZUJKAS_clean_linker_0, # of connection points: 2
#     Edge 52, Type (0, 1), BuildingBlock: ZUJKAS_clean_linker_0, # of connection points: 2
#     Edge 53, Type (0, 1), BuildingBlock: ZUJKAS_clean_linker_0, # of connection points: 2
#     Edge 54, Type (0, 1), BuildingBlock: ZUJKAS_clean_linker_0, # of connection points: 2
#     Edge 55, Type (0, 1), BuildingBlock: ZUJKAS_clean_linker_0, # of connection points: 2
#     Edge 56, Type (0, 1), BuildingBlock: ZUJKAS_clean_linker_0, # of connection points: 2
#     Edge 57, Type (0, 1), BuildingBlock: ZUJKAS_clean_linker_0, # of connection points: 2
#     Edge 58, Type (0, 1), BuildingBlock: ZUJKAS_clean_linker_0, # of connection points: 2
#     Edge 59, Type (0, 1), BuildingBlock: ZUJKAS_clean_linker_0, # of connection points: 2
#     Edge 60, Type (0, 1), BuildingBlock: ZUJKAS_clean_linker_0, # of connection points: 2
#     Edge 61, Type (0, 1), BuildingBlock: ZUJKAS_clean_linker_0, # of connection points: 2
#     Edge 62, Type (0, 1), BuildingBlock: ZUJKAS_clean_linker_0, # of connection points: 2
#     Edge 63, Type (0, 1), BuildingBlock: ZUJKAS_clean_linker_0, # of connection points: 2
#     Edge 64, Type (0, 1), BuildingBlock: ZUJKAS_clean_linker_0, # of connection points: 2
#     Edge 65, Type (0, 1), BuildingBlock: ZUJKAS_clean_linker_0, # of connection points: 2
#     Edge 66, Type (0, 1), BuildingBlock: ZUJKAS_clean_linker_0, # of connection points: 2
#     Edge 67, Type (0, 1), BuildingBlock: ZUJKAS_clean_linker_0, # of connection points: 2
#     Edge 68, Type (0, 1), BuildingBlock: ZUJKAS_clean_linker_0, # of connection points: 2
#     Edge 69, Type (0, 1), BuildingBlock: ZUJKAS_clean_linker_0, # of connection points: 2
#     Edge 70, Type (0, 1), BuildingBlock: ZUJKAS_clean_linker_0, # of connection points: 2
#     Edge 71, Type (0, 1), BuildingBlock: ZUJKAS_clean_linker_0, # of connection points: 2
#     Edge 72, Type (0, 1), BuildingBlock: ZUJKAS_clean_linker_0, # of connection points: 2
#     Edge 73, Type (0, 1), BuildingBlock: ZUJKAS_clean_linker_0, # of connection points: 2
#     Edge 74, Type (0, 1), BuildingBlock: ZUJKAS_clean_linker_0, # of connection points: 2
#     Edge 75, Type (0, 1), BuildingBlock: ZUJKAS_clean_linker_0, # of connection points: 2
#     Edge 76, Type (0, 1), BuildingBlock: ZUJKAS_clean_linker_0, # of connection points: 2
#     Edge 77, Type (0, 1), BuildingBlock: ZUJKAS_clean_linker_0, # of connection points: 2
#     Edge 78, Type (0, 1), BuildingBlock: ZUJKAS_clean_linker_0, # of connection points: 2
#     Edge 79, Type (0, 1), BuildingBlock: ZUJKAS_clean_linker_0, # of connection points: 2
#     Edge 80, Type (0, 1), BuildingBlock: ZUJKAS_clean_linker_0, # of connection points: 2
# Relax obj value: 0.103
# Max RMSD: 0.235
# Mean RMSD: 0.171
data_MOF--net-eea--node1-HISSIN_clean_sbu_0--node2-CUQRIR_clean_linker_1--edge1-ZUJKAS_clean_linker_0
_symmetry_space_group_name_H-M    P1
_symmetry_Int_Tables_number       1
_symmetry_cell_setting            triclinic
loop_
_symmetry_equiv_pos_as_xyz
'x, y, z'
_cell_length_a     64.907792
_cell_length_b     67.446238
_cell_length_c     83.187368
_cell_angle_alpha  87.342896
_cell_angle_beta   93.373145
_cell_angle_gamma 118.75742
loop_
_atom_site_label
_atom_site_type_symbol
_atom_site_fract_x
_atom_site_fract_y
_atom_site_fract_z
_atom_type_partial_charge
C0 C 0.22506 0.11474 0.40405 0.0
N1 N 0.23216 0.13118 0.41511 0.0
N2 N 0.22558 0.09623 0.41065 0.0
C3 C 0.21555 0.11588 0.38729 0.0
C4 C 0.23309 0.10191 0.42611 0.0
N5 N 0.23682 0.12302 0.42887 0.0
C6 C 0.23846 0.08751 0.43818 0.0
H7 H 0.20293 0.09873 0.38295 0.0
H8 H 0.23036 0.12365 0.37903 0.0
H9 H 0.20662 0.12639 0.3869 0.0
H10 H 0.24292 0.07586 0.43209 0.0
H11 H 0.22274 0.07727 0.44537 0.0
H12 H 0.25331 0.09818 0.44655 0.0
C13 C 0.90541 0.12914 0.41066 0.0
N14 N 0.91561 0.147 0.42067 0.0
N15 N 0.88529 0.11251 0.41674 0.0
C16 C 0.91471 0.12825 0.39471 0.0
C17 C 0.88365 0.1208 0.43082 0.0
N18 N 0.9021 0.14167 0.43328 0.0
C19 C 0.86391 0.10855 0.44214 0.0
H20 H 0.90853 0.1367 0.38538 0.0
H21 H 0.90833 0.11061 0.39101 0.0
H22 H 0.93423 0.13733 0.39526 0.0
H23 H 0.8557 0.08997 0.4408 0.0
H24 H 0.8503 0.11382 0.43929 0.0
H25 H 0.87029 0.11292 0.45482 0.0
C26 C 0.88953 0.77178 0.41557 0.0
N27 N 0.90054 0.76241 0.42476 0.0
N28 N 0.87038 0.76941 0.4229 0.0
C29 C 0.89716 0.78271 0.39926 0.0
C30 C 0.87011 0.75811 0.43685 0.0
N31 N 0.88846 0.75377 0.43793 0.0
C32 C 0.85307 0.7529 0.44993 0.0
H33 H 0.90952 0.80099 0.4008 0.0
H34 H 0.88185 0.78092 0.39153 0.0
H35 H 0.90643 0.77523 0.39312 0.0
H36 H 0.83806 0.73566 0.4482 0.0
H37 H 0.84619 0.76513 0.44952 0.0
H38 H 0.86157 0.75333 0.46198 0.0
C39 C 0.09878 0.21331 0.60756 0.0
N40 N 0.11712 0.22303 0.59777 0.0
N41 N 0.08194 0.21878 0.60253 0.0
C42 C 0.09829 0.20032 0.6229 0.0
C43 C 0.0908 0.23242 0.58946 0.0
N44 N 0.11236 0.23515 0.58662 0.0
C45 C 0.07777 0.24192 0.57904 0.0
H46 H 0.09066 0.18214 0.6201 0.0
H47 H 0.08733 0.20207 0.63188 0.0
H48 H 0.11628 0.20619 0.62828 0.0
H49 H 0.08285 0.25918 0.58307 0.0
H50 H 0.05848 0.2313 0.58004 0.0
H51 H 0.08228 0.24305 0.56625 0.0
C52 C 0.78398 0.89096 0.62484 0.0
N53 N 0.77585 0.87491 0.61346 0.0
N54 N 0.77581 0.90585 0.62162 0.0
C55 C 0.79885 0.8914 0.63953 0.0
C56 C 0.76237 0.89824 0.6079 0.0
N57 N 0.76212 0.87921 0.60305 0.0
C58 C 0.75145 0.91064 0.59841 0.0
H59 H 0.79435 0.87396 0.64368 0.0
H60 H 0.79651 0.90044 0.64948 0.0
H61 H 0.81762 0.90029 0.63641 0.0
H62 H 0.76092 0.92898 0.60096 0.0
H63 H 0.73292 0.90365 0.60181 0.0
H64 H 0.75154 0.90844 0.58528 0.0
C65 C 0.11004 0.90765 0.61931 0.0
N66 N 0.09996 0.88931 0.60972 0.0
N67 N 0.13117 0.92327 0.61381 0.0
C68 C 0.0993 0.91027 0.63406 0.0
C69 C 0.13371 0.9137 0.60064 0.0
N70 N 0.11493 0.89298 0.59825 0.0
C71 C 0.15448 0.92458 0.58999 0.0
H72 H 0.0862 0.91587 0.63029 0.0
H73 H 0.11271 0.92306 0.64225 0.0
H74 H 0.09006 0.89385 0.64066 0.0
H75 H 0.16583 0.94278 0.59243 0.0
H76 H 0.14832 0.92251 0.57714 0.0
H77 H 0.16526 0.91592 0.59209 0.0
C78 C 0.89078 0.44365 0.73664 0.0
N79 N 0.90045 0.46118 0.74691 0.0
N80 N 0.89644 0.42743 0.74162 0.0
C81 C 0.87607 0.44239 0.72168 0.0
C82 C 0.90998 0.43569 0.75519 0.0
N83 N 0.91267 0.45633 0.7583 0.0
C84 C 0.91995 0.4233 0.76568 0.0
H85 H 0.85753 0.43562 0.72497 0.0
H86 H 0.87672 0.43096 0.7128 0.0
H87 H 0.88212 0.45946 0.71609 0.0
H88 H 0.91128 0.40503 0.76297 0.0
H89 H 0.91807 0.42538 0.77858 0.0
H90 H 0.93899 0.4307 0.76358 0.0
C91 C 0.56876 0.45965 0.74222 0.0
N92 N 0.57988 0.47759 0.75213 0.0
N93 N 0.54922 0.443 0.74897 0.0
C94 C 0.57799 0.45757 0.72656 0.0
C95 C 0.54888 0.45142 0.76336 0.0
N96 N 0.56754 0.47229 0.76534 0.0
C97 C 0.52986 0.4396 0.77529 0.0
H98 H 0.57127 0.46479 0.71666 0.0
H99 H 0.57202 0.43959 0.72394 0.0
H100 H 0.5975 0.467 0.72687 0.0
H101 H 0.53496 0.42946 0.78387 0.0
H102 H 0.51285 0.42808 0.76912 0.0
H103 H 0.52755 0.45193 0.7823 0.0
C104 C 0.5655 0.12324 0.754 0.0
N105 N 0.5779 0.11456 0.76242 0.0
N106 N 0.54479 0.1168 0.76088 0.0
C107 C 0.57259 0.13624 0.73827 0.0
C108 C 0.54489 0.10371 0.77366 0.0
N109 N 0.56493 0.10211 0.77449 0.0
C110 C 0.52619 0.0939 0.78594 0.0
H111 H 0.58367 0.15449 0.74081 0.0
H112 H 0.55698 0.13404 0.73075 0.0
H113 H 0.58299 0.13071 0.73138 0.0
H114 H 0.51355 0.07617 0.78282 0.0
H115 H 0.51642 0.1036 0.78612 0.0
H116 H 0.53404 0.09386 0.79815 0.0
C117 C 0.7802 0.56921 0.95597 0.0
N118 N 0.79585 0.57635 0.94417 0.0
N119 N 0.75915 0.56639 0.95003 0.0
C120 C 0.78483 0.5631 0.97293 0.0
C121 C 0.76244 0.57188 0.9342 0.0
N122 N 0.78475 0.57773 0.93059 0.0
C123 C 0.74434 0.57296 0.92257 0.0
H124 H 0.79697 0.55582 0.97315 0.0
H125 H 0.76828 0.55076 0.97858 0.0
H126 H 0.79323 0.57864 0.98019 0.0
H127 H 0.73147 0.57577 0.92898 0.0
H128 H 0.73468 0.55666 0.91624 0.0
H129 H 0.75282 0.5867 0.91345 0.0
C130 C 0.43692 0.2224 0.96071 0.0
N131 N 0.4322 0.20693 0.94927 0.0
N132 N 0.43476 0.24021 0.95438 0.0
C133 C 0.4457 0.22111 0.97767 0.0
C134 C 0.4287 0.23509 0.93866 0.0
N135 N 0.42744 0.21502 0.93552 0.0
C136 C 0.42246 0.24893 0.92663 0.0
H137 H 0.43038 0.2115 0.98533 0.0
H138 H 0.45655 0.23822 0.98269 0.0
H139 H 0.45631 0.21218 0.97814 0.0
H140 H 0.43829 0.2604 0.91989 0.0
H141 H 0.41632 0.25932 0.93272 0.0
H142 H 0.40853 0.23787 0.91785 0.0
C143 C 0.77979 0.24484 0.95545 0.0
N144 N 0.76952 0.2264 0.94596 0.0
N145 N 0.80127 0.25995 0.95015 0.0
C146 C 0.76972 0.24739 0.97055 0.0
C147 C 0.8037 0.25006 0.93712 0.0
N148 N 0.78458 0.2296 0.93467 0.0
C149 C 0.82396 0.26121 0.92606 0.0
H150 H 0.75803 0.25484 0.96735 0.0
H151 H 0.78386 0.25876 0.97909 0.0
H152 H 0.75917 0.2307 0.97656 0.0
H153 H 0.83727 0.25588 0.9298 0.0
H154 H 0.83239 0.27991 0.92661 0.0
H155 H 0.81801 0.25607 0.91342 0.0
C156 C 0.55825 0.7805 0.07143 0.0
N157 N 0.56706 0.79805 0.08167 0.0
N158 N 0.56505 0.76508 0.07645 0.0
C159 C 0.54426 0.77901 0.05605 0.0
C160 C 0.5783 0.7738 0.09007 0.0
N161 N 0.57971 0.79397 0.09319 0.0
C162 C 0.5882 0.76171 0.10096 0.0
H163 H 0.52541 0.77152 0.05877 0.0
H164 H 0.5461 0.76811 0.04728 0.0
H165 H 0.54998 0.79607 0.05054 0.0
H166 H 0.60674 0.76768 0.098 0.0
H167 H 0.5782 0.74315 0.0993 0.0
H168 H 0.58785 0.76538 0.11378 0.0
C169 C 0.24145 0.79463 0.07906 0.0
N170 N 0.25258 0.81145 0.08985 0.0
N171 N 0.22282 0.77667 0.08567 0.0
C172 C 0.24982 0.79509 0.06249 0.0
C173 C 0.2231 0.78314 0.10089 0.0
N174 N 0.24134 0.80411 0.10352 0.0
C175 C 0.20452 0.76969 0.11283 0.0
H176 H 0.24228 0.80327 0.05394 0.0
H177 H 0.24409 0.77773 0.05836 0.0
H178 H 0.26927 0.80502 0.0623 0.0
H179 H 0.18758 0.75808 0.10664 0.0
H180 H 0.20167 0.78103 0.12059 0.0
H181 H 0.21045 0.7595 0.12069 0.0
C182 C 0.22293 0.42998 0.07331 0.0
N183 N 0.23515 0.42202 0.08276 0.0
N184 N 0.20671 0.43158 0.08189 0.0
C185 C 0.22825 0.43813 0.05613 0.0
C186 C 0.20963 0.42448 0.09692 0.0
N187 N 0.22708 0.41891 0.09747 0.0
C188 C 0.19507 0.42242 0.11096 0.0
H189 H 0.22294 0.45123 0.05292 0.0
H190 H 0.21834 0.4236 0.04804 0.0
H191 H 0.24728 0.44524 0.0541 0.0
H192 H 0.19337 0.40848 0.11934 0.0
H193 H 0.17727 0.41944 0.10681 0.0
H194 H 0.20393 0.43841 0.11772 0.0
C195 C 0.43358 0.87881 0.27878 0.0
N196 N 0.45061 0.88777 0.26791 0.0
N197 N 0.41339 0.87752 0.27234 0.0
C198 C 0.43663 0.8716 0.29575 0.0
C199 C 0.41866 0.88596 0.25718 0.0
N200 N 0.44123 0.89187 0.2544 0.0
C201 C 0.40219 0.88946 0.24536 0.0
H202 H 0.44954 0.86521 0.29643 0.0
H203 H 0.41967 0.85827 0.30031 0.0
H204 H 0.44325 0.8864 0.30367 0.0
H205 H 0.38635 0.88751 0.25115 0.0
H206 H 0.39644 0.87679 0.23575 0.0
H207 H 0.41146 0.90651 0.23958 0.0
C208 C 0.10663 0.55834 0.293 0.0
N209 N 0.1011 0.54225 0.2819 0.0
N210 N 0.10004 0.57376 0.28748 0.0
C211 C 0.11672 0.558 0.3097 0.0
C212 C 0.09016 0.56638 0.27266 0.0
N213 N 0.09057 0.54713 0.26937 0.0
C214 C 0.08173 0.57884 0.26088 0.0
H215 H 0.11127 0.56658 0.31825 0.0
H216 H 0.1362 0.56702 0.30949 0.0
H217 H 0.11095 0.54037 0.31403 0.0
H218 H 0.09213 0.59738 0.26252 0.0
H219 H 0.06303 0.57346 0.263 0.0
H220 H 0.08291 0.57498 0.24826 0.0
C221 C 0.44391 0.57885 0.28797 0.0
N222 N 0.43296 0.56082 0.27814 0.0
N223 N 0.46464 0.59456 0.28193 0.0
C224 C 0.43537 0.58029 0.30407 0.0
C225 C 0.46587 0.5854 0.26811 0.0
N226 N 0.44683 0.56484 0.26592 0.0
C227 C 0.48472 0.5973 0.25607 0.0
H228 H 0.42362 0.58797 0.30236 0.0
H229 H 0.45031 0.59098 0.31237 0.0
H230 H 0.42526 0.56321 0.30965 0.0
H231 H 0.49879 0.59259 0.25863 0.0
H232 H 0.49257 0.61594 0.25683 0.0
H233 H 0.47753 0.59219 0.24362 0.0
Eu234 Eu 0.50587 0.99752 0.99819 0.0
Eu235 Eu 0.52136 0.02471 0.03235 0.0
C236 C 0.49753 0.04024 1.00279 0.0
C237 C 0.50766 0.98663 0.95464 0.0
C238 C 0.52349 0.0097 0.95243 0.0
C239 C 0.51323 0.97986 0.92724 0.0
C240 C 0.53409 0.01782 0.9377 0.0
C241 C 0.50261 0.97175 0.94201 0.0
C242 C 0.52912 1.003 0.92493 0.0
C243 C 0.49746 0.97809 0.97038 0.0
O244 O 0.48869 0.9919 0.03749 0.0
O245 O 0.47226 0.98243 0.0119 0.0
C246 C 0.47054 0.98027 0.02767 0.0
O247 O 0.51057 0.97426 0.01642 0.0
O248 O 0.51287 0.03691 0.05349 0.0
O249 O 0.54854 0.04334 0.05072 0.0
O250 O 0.53719 1.00124 0.03337 0.0
C251 C 0.52699 0.98056 0.02793 0.0
O252 O 0.54477 0.02254 0.99726 0.0
O253 O 0.54678 0.0489 0.01451 0.0
O254 O 0.49942 0.03795 0.0185 0.0
O255 O 0.51197 0.97712 0.9815 0.0
O256 O 0.48496 0.9867 0.97564 0.0
O257 O 0.50332 0.02931 0.99288 0.0
C258 C 0.53346 0.03374 0.07658 0.0
C259 C 0.53179 0.01223 0.07823 0.0
C260 C 0.53033 0.03425 0.10545 0.0
C261 C 0.52917 1.00169 0.09335 0.0
C262 C 0.53304 0.04484 0.09027 0.0
C263 C 0.52792 0.01237 0.10709 0.0
C264 C 0.53361 0.04355 0.06046 0.0
C265 C 0.55546 0.04321 1.0028 0.0
H266 H 0.5277 0.02141 0.96213 0.0
H267 H 0.50922 0.96798 0.91771 0.0
H268 H 0.54594 0.03577 0.93627 0.0
H269 H 0.49062 0.95385 0.94361 0.0
H270 H 0.53189 1.00332 0.06775 0.0
H271 H 0.52916 0.04281 0.11578 0.0
H272 H 0.52768 0.98498 0.09424 0.0
H273 H 0.53408 0.06137 0.08915 0.0
Eu274 Eu 0.02522 0.52723 0.99345 0.0
Eu275 Eu 0.00161 0.51722 0.02914 0.0
C276 C 0.97825 0.4804 1.00136 0.0
C277 C 0.03158 0.53083 0.94827 0.0
C278 C 0.00722 0.52188 0.94561 0.0
C279 C 0.03602 0.53185 0.91944 0.0
C280 C 0.9973 0.518 0.92994 0.0
C281 C 0.04592 0.53576 0.93513 0.0
C282 C 0.01159 0.52296 0.91665 0.0
C283 C 0.0421 0.53543 0.96469 0.0
O284 O 0.02397 0.49999 0.0297 0.0
O285 O 0.04994 0.52105 0.01027 0.0
C286 C 0.04399 0.50695 0.02268 0.0
O287 O 0.04229 0.56046 0.00651 0.0
O288 O 0.98218 0.49377 0.04842 0.0
O289 O 0.9939 0.52956 0.0506 0.0
O290 O 0.03809 0.54659 0.03241 0.0
C291 C 0.04837 0.56321 0.02193 0.0
O292 O 0.99137 0.5282 0.98945 0.0
O293 O 0.98822 0.53823 0.01475 0.0
O294 O 0.97425 0.49038 0.01305 0.0
O295 O 0.03861 0.54974 0.97257 0.0
O296 O 0.03908 0.51783 0.97354 0.0
O297 O 0.99842 0.49 0.99416 0.0
C298 C 0.99328 0.50896 0.0744 0.0
C299 C 0.01322 0.50615 0.0775 0.0
C300 C 0.98982 0.51059 0.10313 0.0
C301 C 0.02133 0.50541 0.09337 0.0
C302 C 0.98168 0.51121 0.08728 0.0
C303 C 0.00972 0.50761 0.10639 0.0
C304 C 0.98452 0.50975 0.05781 0.0
C305 C 0.98285 0.53685 0.99922 0.0
H306 H 0.99589 0.51805 0.95565 0.0
H307 H 0.04748 0.53553 0.90951 0.0
H308 H 0.97848 0.51141 0.92822 0.0
H309 H 0.06477 0.54265 0.937 0.0
H310 H 0.02246 0.50447 0.06767 0.0
H311 H 0.98071 0.5128 0.11281 0.0
H312 H 0.03655 0.5029 0.09542 0.0
H313 H 0.96637 0.51356 0.08508 0.0
Eu314 Eu 0.49859 0.49293 0.03983 0.0
Eu315 Eu 0.50016 0.50564 1.0006 0.0
C316 C 0.50848 0.54335 0.02663 0.0
C317 C 0.49057 0.48845 0.08566 0.0
C318 C 0.4807 0.50294 0.08569 0.0
C319 C 0.48651 0.48288 0.11457 0.0
C320 C 0.47372 0.50735 0.10014 0.0
C321 C 0.49343 0.47849 0.10016 0.0
C322 C 0.47656 0.49736 0.11477 0.0
C323 C 0.49732 0.48291 0.07064 0.0
O324 O 0.5358 0.52409 0.01298 0.0
O325 O 0.53144 0.49548 0.0301 0.0
C326 C 0.54487 0.51289 0.02109 0.0
O327 O 0.48097 0.45932 0.02751 0.0
O328 O 0.49007 0.51453 0.9763 0.0
O329 O 0.52016 0.50812 0.98017 0.0
O330 O 0.49869 0.47166 0.00343 0.0
C331 C 0.48681 0.45527 0.01371 0.0
O332 O 0.4674 0.49753 0.03265 0.0
O333 O 0.46169 0.4855 0.00666 0.0
O334 O 0.50267 0.53669 0.01159 0.0
O335 O 0.4802 0.47152 0.06023 0.0
O336 O 0.51583 0.49891 0.06382 0.0
O337 O 0.51029 0.5304 0.03842 0.0
C338 C 0.51361 0.51769 0.95276 0.0
C339 C 0.53532 0.52014 0.94835 0.0
C340 C 0.50331 0.51981 0.92429 0.0
C341 C 0.54081 0.52203 0.93219 0.0
C342 C 0.49778 0.51792 0.94059 0.0
C343 C 0.52482 0.5216 0.91988 0.0
C344 C 0.5074 0.51326 0.96994 0.0
C345 C 0.45351 0.48845 0.01997 0.0
H346 H 0.47833 0.51075 0.07456 0.0
H347 H 0.48861 0.47461 0.12554 0.0
H348 H 0.46635 0.51876 0.09989 0.0
H349 H 0.50086 0.46712 0.10032 0.0
H350 H 0.54798 0.52005 0.9574 0.0
H351 H 0.49064 0.51965 0.91516 0.0
H352 H 0.55735 0.52298 0.92938 0.0
H353 H 0.48092 0.51602 0.94361 0.0
Eu354 Eu 0.17023 0.32912 0.32909 0.0
Eu355 Eu 0.18572 0.35653 0.3633 0.0
C356 C 0.16202 0.37181 0.3335 0.0
C357 C 0.16973 0.31704 0.28519 0.0
C358 C 0.18013 0.34013 0.28101 0.0
C359 C 0.17834 0.30927 0.25892 0.0
C360 C 0.18944 0.34774 0.26585 0.0
C361 C 0.1689 0.30167 0.27408 0.0
C362 C 0.18877 0.33242 0.25461 0.0
C363 C 0.16106 0.30914 0.30143 0.0
O364 O 0.15371 0.32323 0.36849 0.0
O365 O 0.13679 0.31481 0.34299 0.0
C366 C 0.13533 0.31208 0.35875 0.0
O367 O 0.17583 0.30636 0.34733 0.0
O368 O 0.17702 0.36873 0.38431 0.0
O369 O 0.21283 0.37554 0.38161 0.0
O370 O 0.20205 0.33354 0.36439 0.0
C371 C 0.19222 0.31293 0.35888 0.0
O372 O 0.20895 0.35457 0.32781 0.0
O373 O 0.21109 0.38063 0.34544 0.0
O374 O 0.16367 0.36946 0.34922 0.0
O375 O 0.17665 0.30924 0.31208 0.0
O376 O 0.14824 0.31714 0.30708 0.0
O377 O 0.16794 0.36094 0.32363 0.0
C378 C 0.19831 0.36713 0.40757 0.0
C379 C 0.19081 0.344 0.41009 0.0
C380 C 0.20519 0.37274 0.43637 0.0
C381 C 0.19027 0.33523 0.42568 0.0
C382 C 0.20568 0.3815 0.42074 0.0
C383 C 0.19727 0.34946 0.43902 0.0
C384 C 0.1979 0.37599 0.39122 0.0
C385 C 0.21968 0.37511 0.33359 0.0
H386 H 0.18116 0.3523 0.28952 0.0
H387 H 0.17781 0.29705 0.25068 0.0
H388 H 0.19697 0.36561 0.26289 0.0
H389 H 0.16122 0.28382 0.2772 0.0
H390 H 0.18502 0.33267 0.40001 0.0
H391 H 0.21092 0.38417 0.44638 0.0
H392 H 0.18371 0.31719 0.42728 0.0
H393 H 0.21159 0.39942 0.41895 0.0
Eu394 Eu 0.68884 0.86057 0.3281 0.0
Eu395 Eu 0.66406 0.85018 0.36366 0.0
C396 C 0.64268 0.81355 0.33544 0.0
C397 C 0.69628 0.86635 0.28291 0.0
C398 C 0.67185 0.85532 0.27984 0.0
C399 C 0.70205 0.87335 0.25421 0.0
C400 C 0.66256 0.85313 0.26402 0.0
C401 C 0.71131 0.87547 0.27004 0.0
C402 C 0.67755 0.86202 0.25099 0.0
C403 C 0.70615 0.86826 0.29948 0.0
O404 O 0.69781 0.84901 0.36833 0.0
O405 O 0.70339 0.84103 0.3429 0.0
C406 C 0.70779 0.84183 0.35853 0.0
O407 O 0.71548 0.88757 0.34447 0.0
O408 O 0.64867 0.82691 0.38391 0.0
O409 O 0.65071 0.85991 0.38369 0.0
O410 O 0.69039 0.88742 0.36289 0.0
C411 C 0.71089 0.89719 0.35613 0.0
O412 O 0.66606 0.87723 0.3274 0.0
O413 O 0.63923 0.85509 0.34599 0.0
O414 O 0.64797 0.81693 0.3509 0.0
O415 O 0.706 0.88386 0.30809 0.0
O416 O 0.69948 0.84925 0.30754 0.0
O417 O 0.65332 0.8297 0.32467 0.0
C418 C 0.65484 0.84403 0.40888 0.0
C419 C 0.67863 0.85853 0.41291 0.0
C420 C 0.64827 0.83183 0.4369 0.0
C421 C 0.68718 0.85971 0.42888 0.0
C422 C 0.63975 0.83075 0.42096 0.0
C423 C 0.67212 0.84628 0.44108 0.0
C424 C 0.64587 0.84143 0.39204 0.0
C425 C 0.64532 0.86912 0.33353 0.0
H426 H 0.65998 0.84821 0.28967 0.0
H427 H 0.71409 0.8807 0.24451 0.0
H428 H 0.64365 0.84406 0.262 0.0
H429 H 0.73021 0.88416 0.27223 0.0
H430 H 0.69061 0.86877 0.40368 0.0
H431 H 0.63624 0.82098 0.44589 0.0
H432 H 0.70555 0.87123 0.43167 0.0
H433 H 0.6214 0.81924 0.41801 0.0
Eu434 Eu 0.16518 0.82941 0.3687 0.0
Eu435 Eu 0.15597 0.83983 0.3299 0.0
C436 C 0.17181 0.878 0.35629 0.0
C437 C 0.16367 0.82583 0.41497 0.0
C438 C 0.15499 0.84116 0.41608 0.0
C439 C 0.1591 0.81784 0.44371 0.0
C440 C 0.14841 0.84481 0.43096 0.0
C441 C 0.1657 0.81425 0.42887 0.0
C442 C 0.15033 0.83314 0.44498 0.0
C443 C 0.16964 0.82085 0.39938 0.0
O444 O 0.19485 0.85315 0.33454 0.0
O445 O 0.19523 0.83053 0.35593 0.0
C446 C 0.20532 0.84382 0.34355 0.0
O447 O 0.14732 0.79579 0.35624 0.0
O448 O 0.13777 0.82894 0.30644 0.0
O449 O 0.16537 0.86353 0.30932 0.0
O450 O 0.15846 0.80782 0.33036 0.0
C451 C 0.15026 0.79176 0.34147 0.0
O452 O 0.1328 0.83331 0.36678 0.0
O453 O 0.12035 0.82117 0.341 0.0
O454 O 0.15758 0.86844 0.34378 0.0
O455 O 0.15185 0.80772 0.39 0.0
O456 O 0.18597 0.83772 0.39145 0.0
O457 O 0.18056 0.86722 0.36549 0.0
C458 C 0.16179 0.84712 0.28398 0.0
C459 C 0.16183 0.82734 0.27935 0.0
C460 C 0.1815 0.86593 0.25937 0.0
C461 C 0.17143 0.82684 0.2648 0.0
C462 C 0.17178 0.86638 0.27386 0.0
C463 C 0.18135 0.84611 0.25455 0.0
C464 C 0.15143 0.84807 0.29918 0.0
C465 C 0.11601 0.82432 0.35563 0.0
H466 H 0.15318 0.85017 0.40543 0.0
H467 H 0.16046 0.80825 0.45415 0.0
H468 H 0.142 0.8569 0.43148 0.0
H469 H 0.17212 0.80217 0.42821 0.0
H470 H 0.15433 0.8122 0.2869 0.0
H471 H 0.18931 0.88124 0.25201 0.0
H472 H 0.17066 0.81116 0.26146 0.0
H473 H 0.17209 0.88187 0.27717 0.0
Eu474 Eu 0.83894 0.65995 0.66553 0.0
Eu475 Eu 0.85369 0.68733 0.69948 0.0
C476 C 0.83196 0.70335 0.66898 0.0
C477 C 0.83944 0.64695 0.62214 0.0
C478 C 0.85581 0.6697 0.61932 0.0
C479 C 0.84258 0.63853 0.59466 0.0
C480 C 0.86545 0.67687 0.60422 0.0
C481 C 0.83293 0.63138 0.60979 0.0
C482 C 0.85892 0.66138 0.5917 0.0
C483 C 0.82988 0.6394 0.63814 0.0
O484 O 0.82142 0.65402 0.70436 0.0
O485 O 0.80506 0.64668 0.67874 0.0
C486 C 0.80312 0.64347 0.69443 0.0
O487 O 0.84377 0.63711 0.68409 0.0
O488 O 0.84398 0.69964 0.71998 0.0
O489 O 0.87979 0.70581 0.71847 0.0
O490 O 0.87005 0.66434 0.70102 0.0
C491 C 0.86018 0.64367 0.69562 0.0
O492 O 0.87783 0.68496 0.6645 0.0
O493 O 0.88022 0.71127 0.68203 0.0
O494 O 0.83221 0.70042 0.68471 0.0
O495 O 0.84473 0.63894 0.64921 0.0
O496 O 0.81765 0.64841 0.64321 0.0
O497 O 0.83851 0.69256 0.65952 0.0
C498 C 0.86326 0.69678 0.74391 0.0
C499 C 0.86048 0.67489 0.74618 0.0
C500 C 0.86049 0.69895 0.77266 0.0
C501 C 0.85755 0.66503 0.76157 0.0
C502 C 0.86348 0.70884 0.75723 0.0
C503 C 0.85717 0.6768 0.77498 0.0
C504 C 0.86432 0.70627 0.72757 0.0
C505 C 0.88876 0.70555 0.67023 0.0
H506 H 0.8611 0.68192 0.6288 0.0
H507 H 0.83739 0.62614 0.58533 0.0
H508 H 0.8777 0.69463 0.60228 0.0
H509 H 0.82048 0.61371 0.61187 0.0
H510 H 0.86013 0.66528 0.73599 0.0
H511 H 0.85998 0.70836 0.7827 0.0
H512 H 0.85536 0.64808 0.76296 0.0
H513 H 0.86541 0.72568 0.75564 0.0
Eu514 Eu 0.35229 0.19019 0.66249 0.0
Eu515 Eu 0.32718 0.17922 0.69768 0.0
C516 C 0.30593 0.14232 0.66975 0.0
C517 C 0.36068 0.19482 0.61754 0.0
C518 C 0.33662 0.18023 0.61451 0.0
C519 C 0.36567 0.20257 0.58885 0.0
C520 C 0.32713 0.17686 0.59873 0.0
C521 C 0.37514 0.20593 0.60465 0.0
C522 C 0.34152 0.18808 0.58571 0.0
C523 C 0.37046 0.19947 0.63413 0.0
O524 O 0.35029 0.16281 0.69841 0.0
O525 O 0.37719 0.18537 0.68 0.0
C526 C 0.37098 0.17088 0.69216 0.0
O527 O 0.367 0.22337 0.67541 0.0
O528 O 0.31731 0.19056 0.71862 0.0
O529 O 0.30896 0.15545 0.71723 0.0
O530 O 0.36295 0.20958 0.70129 0.0
C531 C 0.37284 0.22633 0.69084 0.0
O532 O 0.31749 0.18889 0.65768 0.0
O533 O 0.31241 0.19861 0.68259 0.0
O534 O 0.30109 0.1516 0.6815 0.0
O535 O 0.36575 0.21312 0.64182 0.0
O536 O 0.36792 0.18203 0.64302 0.0
O537 O 0.32629 0.15269 0.66276 0.0
C538 C 0.31923 0.17154 0.74302 0.0
C539 C 0.33971 0.19037 0.74889 0.0
C540 C 0.31644 0.15228 0.76891 0.0
C541 C 0.34836 0.1902 0.76468 0.0
C542 C 0.3077 0.15253 0.75317 0.0
C543 C 0.33687 0.17113 0.7749 0.0
C544 C 0.30996 0.17116 0.72631 0.0
C545 C 0.30758 0.1967 0.66698 0.0
H546 H 0.32518 0.17162 0.62437 0.0
H547 H 0.37717 0.21167 0.57912 0.0
H548 H 0.30854 0.16535 0.59671 0.0
H549 H 0.3937 0.21744 0.60682 0.0
H550 H 0.34909 0.20525 0.74132 0.0
H551 H 0.30732 0.13716 0.7763 0.0
H552 H 0.3639 0.20517 0.76891 0.0
H553 H 0.29198 0.13776 0.74886 0.0
Eu554 Eu 0.83811 0.15706 0.70941 0.0
Eu555 Eu 0.83022 0.16647 0.6701 0.0
C556 C 0.84091 0.20536 0.69513 0.0
C557 C 0.83506 0.15537 0.75546 0.0
C558 C 0.82375 0.16862 0.75552 0.0
C559 C 0.83088 0.1493 0.78436 0.0
C560 C 0.81611 0.17225 0.76997 0.0
C561 C 0.83851 0.14572 0.76994 0.0
C562 C 0.81963 0.16266 0.78459 0.0
C563 C 0.84285 0.15096 0.74041 0.0
O564 O 0.86794 0.18609 0.67902 0.0
O565 O 0.87029 0.16169 0.69761 0.0
C566 C 0.87978 0.1769 0.68622 0.0
O567 O 0.83582 0.12702 0.69728 0.0
O568 O 0.82179 0.17712 0.64599 0.0
O569 O 0.84415 0.16073 0.64898 0.0
O570 O 0.81517 0.12891 0.67453 0.0
C571 C 0.82307 0.11792 0.68419 0.0
O572 O 0.79949 0.14518 0.70486 0.0
O573 O 0.79379 0.15491 0.67841 0.0
O574 O 0.8341 0.19818 0.68033 0.0
O575 O 0.82641 0.13588 0.73111 0.0
O576 O 0.85789 0.16859 0.7323 0.0
O577 O 0.84458 0.19327 0.70678 0.0
C578 C 0.83724 0.16993 0.62154 0.0
C579 C 0.84262 0.15407 0.61523 0.0
C580 C 0.84282 0.18843 0.59505 0.0
C581 C 0.84838 0.15554 0.59916 0.0
C582 C 0.83689 0.18685 0.61122 0.0
C583 C 0.84914 0.17304 0.5889 0.0
C584 C 0.83445 0.16978 0.63911 0.0
C585 C 0.78607 0.14644 0.69278 0.0
H586 H 0.82086 0.17614 0.74441 0.0
H587 H 0.83354 0.14133 0.7953 0.0
H588 H 0.80773 0.18281 0.76971 0.0
H589 H 0.84703 0.13528 0.77008 0.0
H590 H 0.84286 0.1407 0.62285 0.0
H591 H 0.84327 0.20217 0.58754 0.0
H592 H 0.85247 0.143 0.59481 0.0
H593 H 0.83296 0.19939 0.6158 0.0
H594 H 0.29483 0.82475 0.10504 0.0
H595 H 0.3327 0.85608 0.09653 0.0
H596 H 0.29612 0.87556 0.05955 0.0
H597 H 0.25846 0.84425 0.06808 0.0
H598 H 0.34844 0.85942 0.06428 0.0
H599 H 0.34439 0.93645 0.08031 0.0
H600 H 0.32651 0.90907 0.08962 0.0
H601 H 0.31861 0.9155 0.06977 0.0
C602 C 0.29498 0.83625 0.09547 0.0
C603 C 0.27389 0.83236 0.08728 0.0
C604 C 0.31654 0.85396 0.09051 0.0
C605 C 0.31727 0.86826 0.07744 0.0
C606 C 0.29602 0.865 0.06979 0.0
H607 H 0.43028 0.94801 0.01229 0.0
H608 H 0.39327 0.92092 0.02445 0.0
C609 C 0.27455 0.84719 0.07465 0.0
C610 C 0.34016 0.88521 0.07083 0.0
H611 H 0.37465 0.94174 0.06303 0.0
C612 C 0.35424 0.87743 0.06409 0.0
C613 C 0.34773 0.9087 0.0706 0.0
C614 C 0.33367 0.91804 0.07807 0.0
C615 C 0.37544 0.89246 0.05687 0.0
C616 C 0.38274 0.9159 0.05629 0.0
C617 C 0.36892 0.92374 0.06333 0.0
C618 C 0.40499 0.93256 0.04877 0.0
C619 C 0.39002 0.88319 0.05003 0.0
C620 C 0.42375 0.94833 0.05834 0.0
C621 C 0.44493 0.96375 0.05146 0.0
C622 C 0.44777 0.96395 0.03478 0.0
C623 C 0.42877 0.94835 0.02516 0.0
C624 C 0.40762 0.93278 0.0321 0.0
H625 H 0.38439 0.8655 0.05418 0.0
H626 H 0.38813 0.88344 0.03668 0.0
H627 H 0.40892 0.89383 0.05347 0.0
H628 H 0.42211 0.94853 0.07121 0.0
H629 H 0.45907 0.97554 0.05927 0.0
H630 H 0.17619 0.4163 0.05642 0.0
H631 H 0.14871 0.42983 0.04648 0.0
H632 H 0.17215 0.47687 0.08548 0.0
H633 H 0.2004 0.46404 0.0949 0.0
H634 H 0.11227 0.42907 0.06102 0.0
H635 H 0.1783 0.5177 0.04691 0.0
H636 H 0.18625 0.49576 0.05132 0.0
H637 H 0.1806 0.50921 0.0674 0.0
C638 C 0.17556 0.4297 0.06269 0.0
C639 C 0.19033 0.43926 0.07632 0.0
C640 C 0.15985 0.43732 0.05711 0.0
C641 C 0.15865 0.45459 0.06511 0.0
C642 C 0.17315 0.46388 0.07892 0.0
H643 H 0.04293 0.48547 0.05156 0.0
H644 H 0.07062 0.47278 0.06222 0.0
C645 C 0.18903 0.45639 0.08441 0.0
C646 C 0.14189 0.46251 0.05911 0.0
H647 H 0.13826 0.50932 0.04563 0.0
C648 C 0.11793 0.44661 0.05761 0.0
C649 C 0.14941 0.48534 0.0545 0.0
C650 C 0.17506 0.50296 0.05495 0.0
C651 C 0.10121 0.45292 0.05167 0.0
C652 C 0.10864 0.47588 0.04753 0.0
C653 C 0.13261 0.49177 0.04896 0.0
C654 C 0.09193 0.48372 0.04123 0.0
C655 C 0.07588 0.43484 0.04952 0.0
C656 C 0.09515 0.49469 0.02612 0.0
C657 C 0.07958 0.50226 0.0201 0.0
C658 C 0.06044 0.49892 0.02907 0.0
C659 C 0.05734 0.48806 0.04427 0.0
C660 C 0.07307 0.48069 0.05035 0.0
H661 H 0.07428 0.41773 0.04893 0.0
H662 H 0.06599 0.43487 0.05994 0.0
H663 H 0.06751 0.438 0.03838 0.0
H664 H 0.10965 0.49726 0.01892 0.0
H665 H 0.08246 0.51057 0.00835 0.0
H666 H 0.59533 0.75323 0.06501 0.0
H667 H 0.58585 0.71651 0.05396 0.0
H668 H 0.5123 0.6924 0.0617 0.0
H669 H 0.52191 0.7295 0.07209 0.0
H670 H 0.56823 0.67712 0.06825 0.0
H671 H 0.5074 0.67122 0.01705 0.0
H672 H 0.52498 0.69713 0.02774 0.0
H673 H 0.49764 0.67567 0.03559 0.0
C674 C 0.57716 0.74009 0.06406 0.0
C675 C 0.55928 0.74399 0.06921 0.0
C676 C 0.57172 0.71916 0.05781 0.0
C677 C 0.54829 0.70172 0.05673 0.0
C678 C 0.5304 0.70572 0.06192 0.0
H679 H 0.5082 0.55934 0.0561 0.0
H680 H 0.51776 0.59775 0.06281 0.0
C681 C 0.53585 0.72679 0.06795 0.0
C682 C 0.54284 0.67896 0.05122 0.0
H683 H 0.50714 0.63664 0.0256 0.0
C684 C 0.55501 0.66839 0.05881 0.0
C685 C 0.52587 0.66762 0.03872 0.0
C686 C 0.51342 0.67861 0.02919 0.0
C687 C 0.55036 0.64669 0.05454 0.0
C688 C 0.5324 0.63481 0.04273 0.0
C689 C 0.52064 0.64558 0.03483 0.0
C690 C 0.52556 0.6112 0.03847 0.0
C691 C 0.56508 0.63695 0.06258 0.0
C692 C 0.52564 0.60563 0.02241 0.0
C693 C 0.51969 0.5835 0.01847 0.0
C694 C 0.5137 0.56656 0.03054 0.0
C695 C 0.51312 0.57207 0.04655 0.0
C696 C 0.51872 0.59408 0.05043 0.0
H697 H 0.58243 0.6505 0.06706 0.0
H698 H 0.55585 0.62628 0.0731 0.0
H699 H 0.56809 0.62634 0.0542 0.0
H700 H 0.53067 0.6185 0.01295 0.0
H701 H 0.52028 0.57979 0.00603 0.0
H702 H 0.79376 0.29511 0.95551 0.0
H703 H 0.82313 0.33284 0.96493 0.0
H704 H 0.87587 0.31115 0.96864 0.0
H705 H 0.84641 0.27344 0.95945 0.0
H706 H 0.87633 0.33604 0.99538 0.0
H707 H 0.8766 0.37997 0.93714 0.0
H708 H 0.84819 0.36336 0.9455 0.0
H709 H 0.86396 0.34961 0.939 0.0
C710 C 0.81159 0.29845 0.95853 0.0
C711 C 0.81796 0.28155 0.95673 0.0
C712 C 0.82837 0.31998 0.96375 0.0
C713 C 0.8518 0.32492 0.96725 0.0
C714 C 0.85796 0.30778 0.96592 0.0
H715 H 0.97818 0.45534 0.97622 0.0
H716 H 0.94744 0.41768 0.96822 0.0
C717 C 0.84121 0.28632 0.96065 0.0
C718 C 0.87001 0.34797 0.97214 0.0
H719 H 0.89949 0.40299 0.95884 0.0
C720 C 0.88137 0.3507 0.98741 0.0
C721 C 0.8768 0.36702 0.96164 0.0
C722 C 0.86594 0.36494 0.94484 0.0
C723 C 0.89914 0.37198 0.99253 0.0
C724 C 0.90559 0.39112 0.98216 0.0
C725 C 0.89442 0.38835 0.96682 0.0
C726 C 0.92408 0.4141 0.98696 0.0
C727 C 0.9112 0.37375 0.00888 0.0
C728 C 0.92103 0.42477 1.00001 0.0
C729 C 0.93853 0.44631 0.0046 0.0
C730 C 0.9595 0.4577 0.99622 0.0
C731 C 0.96235 0.44707 0.983 0.0
C732 C 0.94477 0.42554 0.97838 0.0
H733 H 0.90825 0.35698 0.01369 0.0
H734 H 0.93043 0.38525 0.00835 0.0
H735 H 0.90407 0.38081 0.01745 0.0
H736 H 0.90504 0.41644 0.00662 0.0
H737 H 0.93563 0.45395 0.01479 0.0
H738 H 0.75367 0.58579 0.9757 0.0
H739 H 0.71741 0.57324 0.99016 0.0
H740 H 0.68113 0.51702 0.95809 0.0
H741 H 0.7174 0.53003 0.94347 0.0
H742 H 0.65675 0.53885 0.96124 0.0
H743 H 0.6851 0.52154 0.02185 0.0
H744 H 0.70444 0.54964 0.0147 0.0
H745 H 0.70185 0.5257 0.00425 0.0
C746 C 0.73791 0.57068 0.97192 0.0
C747 C 0.73803 0.5588 0.95858 0.0
C748 C 0.71734 0.5634 0.98022 0.0
C749 C 0.69671 0.54392 0.97541 0.0
C750 C 0.69691 0.53199 0.96207 0.0
H751 H 0.56485 0.48532 0.02608 0.0
H752 H 0.60234 0.49171 0.0159 0.0
C753 C 0.71746 0.53941 0.9537 0.0
C754 C 0.67452 0.53704 0.98351 0.0
H755 H 0.65015 0.52563 0.02035 0.0
C756 C 0.65524 0.5357 0.97413 0.0
C757 C 0.67245 0.53257 1.00031 0.0
C758 C 0.692 0.53219 0.01083 0.0
C759 C 0.63424 0.53092 0.98117 0.0
C760 C 0.63273 0.52799 0.99808 0.0
C761 C 0.65159 0.52832 0.00742 0.0
C762 C 0.61184 0.52519 0.00617 0.0
C763 C 0.61386 0.52913 0.97041 0.0
C764 C 0.60545 0.54232 0.0047 0.0
C765 C 0.58414 0.5387 0.01038 0.0
C766 C 0.56899 0.51797 0.01782 0.0
C767 C 0.57621 0.50145 0.02038 0.0
C768 C 0.59754 0.50503 0.01455 0.0
H769 H 0.61541 0.52531 0.95782 0.0
H770 H 0.59682 0.51577 0.9749 0.0
H771 H 0.61367 0.5455 0.97021 0.0
H772 H 0.61657 0.55819 0.9986 0.0
H773 H 0.57916 0.55185 0.00843 0.0
H774 H 0.4096 0.1721 0.96991 0.0
H775 H 0.41881 0.14124 0.97656 0.0
H776 H 0.47018 0.16624 0.93984 0.0
H777 H 0.46099 0.19718 0.93331 0.0
H778 H 0.42054 0.10662 0.95655 0.0
H779 H 0.50675 0.16903 0.98409 0.0
H780 H 0.48289 0.17535 0.97984 0.0
H781 H 0.50002 0.17509 0.96376 0.0
C782 C 0.42251 0.17064 0.96311 0.0
C783 C 0.4347 0.18688 0.95119 0.0
C784 C 0.42774 0.15309 0.96687 0.0
C785 C 0.44536 0.15166 0.95881 0.0
C786 C 0.45665 0.16719 0.94627 0.0
H787 H 0.48806 0.04707 0.97109 0.0
H788 H 0.47476 0.0734 0.95996 0.0
C789 C 0.45131 0.18468 0.94246 0.0
C790 C 0.45311 0.13505 0.96444 0.0
H791 H 0.49847 0.13097 0.9844 0.0
C792 C 0.43762 0.11189 0.96255 0.0
C793 C 0.47527 0.14204 0.97247 0.0
C794 C 0.49221 0.16671 0.97531 0.0
C795 C 0.4438 0.09549 0.96844 0.0
C796 C 0.46605 0.10251 0.97635 0.0
C797 C 0.48148 0.12567 0.97826 0.0
C798 C 0.4735 0.08611 0.98308 0.0
C799 C 0.42631 0.07078 0.9665 0.0
C800 C 0.4775 0.08475 0.99975 0.0
C801 C 0.4851 0.06973 0.00618 0.0
C802 C 0.48909 0.05592 0.99602 0.0
C803 C 0.48513 0.05741 0.97929 0.0
C804 C 0.47741 0.07236 0.97289 0.0
H805 H 0.40838 0.06813 0.96307 0.0
H806 H 0.43198 0.06377 0.95692 0.0
H807 H 0.42552 0.06112 0.97784 0.0
H808 H 0.47469 0.09532 0.0078 0.0
H809 H 0.48803 0.0691 0.0191 0.0
H810 H 0.76235 0.1836 0.94936 0.0
H811 H 0.72552 0.14974 0.95636 0.0
H812 H 0.69034 0.19015 0.95574 0.0
H813 H 0.72705 0.2238 0.9485 0.0
H814 H 0.70104 0.14425 0.98411 0.0
H815 H 0.64394 0.13501 0.92965 0.0
H816 H 0.67557 0.15204 0.92975 0.0
H817 H 0.65795 0.16295 0.93771 0.0
C818 C 0.74657 0.18503 0.95039 0.0
C819 C 0.74741 0.20619 0.94841 0.0
C820 C 0.72561 0.16578 0.95446 0.0
C821 C 0.70506 0.16732 0.95644 0.0
C822 C 0.7058 0.18841 0.95402 0.0
H823 H 0.5853 0.08575 0.01368 0.0
H824 H 0.62164 0.11447 1.00196 0.0
C825 C 0.72677 0.20764 0.95002 0.0
C826 C 0.68336 0.14735 0.96218 0.0
H827 H 0.62463 0.11426 0.95323 0.0
C828 C 0.68439 0.13757 0.97728 0.0
C829 C 0.66166 0.13844 0.95322 0.0
C830 C 0.65967 0.14748 0.93661 0.0
C831 C 0.66419 0.1197 0.98389 0.0
C832 C 0.64227 0.1115 0.97527 0.0
C833 C 0.64138 0.1207 0.95992 0.0
C834 C 0.62003 0.09388 0.98225 0.0
C835 C 0.66647 0.10975 1.00009 0.0
C836 C 0.6067 0.07284 0.9749 0.0
C837 C 0.58582 0.05628 0.98159 0.0
C838 C 0.57773 0.06055 0.9957 0.0
C839 C 0.591 0.08179 1.00287 0.0
C840 C 0.61188 0.09823 0.99623 0.0
H841 H 0.68491 0.11359 1.00309 0.0
H842 H 0.66094 0.11709 0.00954 0.0
H843 H 0.65502 0.09111 1.00043 0.0
H844 H 0.61255 0.06917 0.96404 0.0
H845 H 0.57597 0.04021 0.97566 0.0
H846 H 0.83187 0.6038 0.96375 0.0
H847 H 0.86811 0.6015 0.9701 0.0
H848 H 0.84727 0.55028 0.9343 0.0
H849 H 0.81094 0.55253 0.92812 0.0
H850 H 0.85504 0.53757 0.96643 0.0
H851 H 0.9298 0.61907 0.94671 0.0
H852 H 0.90812 0.62143 0.95779 0.0
H853 H 0.90015 0.6087 0.93834 0.0
C854 C 0.8355 0.59257 0.957 0.0
C855 C 0.81888 0.5783 0.94553 0.0
C856 C 0.85614 0.59133 0.96053 0.0
C857 C 0.86036 0.57582 0.95259 0.0
C858 C 0.84434 0.56246 0.94046 0.0
H859 H 0.97352 0.54282 0.96751 0.0
H860 H 0.94468 0.5536 0.95612 0.0
C861 C 0.82375 0.56379 0.93689 0.0
C862 C 0.8796 0.57128 0.95853 0.0
H863 H 0.93923 0.59524 0.96415 0.0
C864 C 0.87346 0.5501 0.96583 0.0
C865 C 0.90353 0.58773 0.95773 0.0
C866 C 0.91092 0.61047 0.94961 0.0
C867 C 0.89067 0.54505 0.97264 0.0
C868 C 0.91456 0.56166 0.97218 0.0
C869 C 0.9208 0.58269 0.9646 0.0
C870 C 0.93323 0.55705 0.97921 0.0
C871 C 0.88329 0.52199 0.98025 0.0
C872 C 0.93646 0.55578 0.99597 0.0
C873 C 0.95296 0.54968 1.00256 0.0
C874 C 0.96633 0.5446 0.99245 0.0
C875 C 0.96337 0.54644 0.97564 0.0
C876 C 0.94701 0.55271 0.96909 0.0
H877 H 0.86444 0.50999 0.97754 0.0
H878 H 0.89414 0.51478 0.97598 0.0
H879 H 0.88616 0.52359 0.99352 0.0
H880 H 0.92591 0.55915 0.00392 0.0
H881 H 0.95486 0.54844 0.01554 0.0
H882 H 0.46375 0.28302 0.94494 0.0
H883 H 0.4699 0.31775 0.95753 0.0
H884 H 0.42178 0.27784 0.99425 0.0
H885 H 0.41538 0.243 0.98145 0.0
H886 H 0.43229 0.32849 0.96338 0.0
H887 H 0.48267 0.32553 0.0192 0.0
H888 H 0.48047 0.31002 1.00147 0.0
H889 H 0.45577 0.30036 0.01403 0.0
C890 C 0.45451 0.28175 0.95568 0.0
C891 C 0.43905 0.26049 0.96224 0.0
C892 C 0.45807 0.3015 0.96288 0.0
C893 C 0.44642 0.30032 0.97686 0.0
C894 C 0.43116 0.27908 0.98358 0.0
H895 H 0.45982 0.41579 0.03055 0.0
H896 H 0.44783 0.37703 0.02251 0.0
C897 C 0.42752 0.25928 0.97631 0.0
C898 C 0.44967 0.32143 0.98391 0.0
H899 H 0.47566 0.35667 0.01566 0.0
C900 C 0.44163 0.33459 0.97486 0.0
C901 C 0.46162 0.32917 0.99896 0.0
C902 C 0.4708 0.31568 0.00902 0.0
C903 C 0.44567 0.35559 0.98029 0.0
C904 C 0.45857 0.36385 0.99499 0.0
C905 C 0.46585 0.35031 0.00436 0.0
C906 C 0.46606 0.38716 1.00019 0.0
C907 C 0.43617 0.36879 0.97017 0.0
C908 C 0.48067 0.40563 0.99047 0.0
C909 C 0.4875 0.42767 0.99498 0.0
C910 C 0.48002 0.43176 0.0094 0.0
C911 C 0.46582 0.41323 0.01935 0.0
C912 C 0.45896 0.39109 0.01479 0.0
H913 H 0.42099 0.35753 0.96223 0.0
H914 H 0.43056 0.37823 0.97783 0.0
H915 H 0.45015 0.38115 0.96237 0.0
H916 H 0.4868 0.403 0.97934 0.0
H917 H 0.49861 0.44148 0.98707 0.0
H918 H 0.19803 0.77097 0.0574 0.0
H919 H 0.16893 0.73486 0.04547 0.0
H920 H 0.18116 0.69866 0.0857 0.0
H921 H 0.21063 0.73468 0.09739 0.0
H922 H 0.17589 0.6942 0.03868 0.0
H923 H 0.10768 0.67786 0.08253 0.0
H924 H 0.13146 0.70588 0.07845 0.0
H925 H 0.13694 0.68615 0.09068 0.0
C926 C 0.19466 0.75526 0.06354 0.0
C927 C 0.20643 0.75552 0.07832 0.0
C928 C 0.17803 0.73471 0.05678 0.0
C929 C 0.17276 0.71414 0.06479 0.0
C930 C 0.1848 0.71437 0.07942 0.0
H931 H 0.07003 0.57341 0.05192 0.0
H932 H 0.10064 0.61005 0.06152 0.0
C933 C 0.20154 0.73488 0.0861 0.0
C934 C 0.15445 0.69238 0.05803 0.0
H935 H 0.09944 0.64879 0.06444 0.0
C936 C 0.15911 0.68427 0.04423 0.0
C937 C 0.13267 0.67949 0.06537 0.0
C938 C 0.12667 0.68775 0.08002 0.0
C939 C 0.14272 0.66325 0.03777 0.0
C940 C 0.12083 0.65032 0.04508 0.0
C941 C 0.11617 0.65864 0.05883 0.0
C942 C 0.10261 0.62796 0.0389 0.0
C943 C 0.14939 0.65482 0.02352 0.0
C944 C 0.09332 0.62575 0.02299 0.0
C945 C 0.07591 0.60471 0.0174 0.0
C946 C 0.06715 0.58549 0.02769 0.0
C947 C 0.07633 0.58782 0.04365 0.0
C948 C 0.09385 0.6088 0.04918 0.0
H949 H 0.16876 0.66328 0.02238 0.0
H950 H 0.14268 0.63626 0.02446 0.0
H951 H 0.14161 0.65857 0.01233 0.0
H952 H 0.09929 0.64036 0.01494 0.0
H953 H 0.0691 0.60359 0.00508 0.0
H954 H 0.23496 0.39555 0.05957 0.0
H955 H 0.26977 0.39855 0.04709 0.0
H956 H 0.31445 0.44789 0.08218 0.0
H957 H 0.27965 0.44475 0.09454 0.0
H958 H 0.30198 0.4381 0.03326 0.0
H959 H 0.34682 0.40959 0.07984 0.0
H960 H 0.31636 0.40269 0.08092 0.0
H961 H 0.3395 0.42972 0.08755 0.0
C962 C 0.25227 0.40639 0.06487 0.0
C963 C 0.25483 0.41975 0.07806 0.0
C964 C 0.27208 0.40818 0.05774 0.0
C965 C 0.29471 0.42329 0.06378 0.0
C966 C 0.29718 0.43572 0.07754 0.0
H967 H 0.43347 0.50421 0.03979 0.0
H968 H 0.39278 0.48536 0.04782 0.0
C969 C 0.27735 0.43389 0.08466 0.0
C970 C 0.31566 0.42834 0.05463 0.0
H971 H 0.37134 0.43545 0.0593 0.0
C972 C 0.31695 0.43699 0.03879 0.0
C973 C 0.33513 0.42682 0.06184 0.0
C974 C 0.33431 0.41647 0.07842 0.0
C975 C 0.3378 0.44559 0.03041 0.0
C976 C 0.35769 0.44543 0.03806 0.0
C977 C 0.35599 0.4356 0.05351 0.0
C978 C 0.3812 0.4579 0.03125 0.0
C979 C 0.33902 0.45608 0.01385 0.0
C980 C 0.38787 0.44905 0.01882 0.0
C981 C 0.41126 0.45992 0.01409 0.0
C982 C 0.42811 0.47959 0.02188 0.0
C983 C 0.4209 0.489 0.03364 0.0
C984 C 0.39769 0.47825 0.03828 0.0
H985 H 0.322 0.45508 0.0096 0.0
H986 H 0.3528 0.47412 0.01395 0.0
H987 H 0.34406 0.44736 0.00514 0.0
H988 H 0.37529 0.43328 0.01331 0.0
H989 H 0.41643 0.45221 0.00512 0.0
H990 H 0.60259 0.84078 0.08028 0.0
H991 H 0.59929 0.87526 0.07442 0.0
H992 H 0.52364 0.83525 0.07231 0.0
H993 H 0.52706 0.80096 0.07843 0.0
H994 H 0.57784 0.88252 0.04632 0.0
H995 H 0.53517 0.88852 0.10031 0.0
H996 H 0.54978 0.87152 0.10003 0.0
H997 H 0.52043 0.86109 0.09142 0.0
C998 C 0.58533 0.83956 0.07888 0.0
C999 C 0.56506 0.81839 0.07973 0.0
C1000 C 0.58343 0.85915 0.07548 0.0
C1001 C 0.56121 0.85786 0.07309 0.0
C1002 C 0.54094 0.83672 0.07439 0.0
H1003 H 0.51376 0.93835 0.01711 0.0
H1004 H 0.52428 0.91041 0.0288 0.0
C1005 C 0.54286 0.81716 0.07773 0.0
C1006 C 0.55914 0.87819 0.06788 0.0
H1007 H 0.53385 0.91028 0.07702 0.0
C1008 C 0.56848 0.88877 0.05314 0.0
C1009 C 0.54713 0.88647 0.07684 0.0
C1010 C 0.53774 0.87647 0.09311 0.0
C1011 C 0.56525 0.90678 0.04679 0.0
C1012 C 0.55215 0.91425 0.05534 0.0
C1013 C 0.5437 0.90436 0.07042 0.0
C1014 C 0.54602 0.93147 0.04839 0.0
C1015 C 0.57565 0.91752 0.03089 0.0
C1016 C 0.55444 0.95247 0.05569 0.0
C1017 C 0.5485 0.96859 0.049 0.0
C1018 C 0.53377 0.96383 0.035 0.0
C1019 C 0.52519 0.94264 0.02786 0.0
C1020 C 0.53126 0.92665 0.03448 0.0
H1021 H 0.59007 0.91402 0.02799 0.0
H1022 H 0.56174 0.91049 0.02117 0.0
H1023 H 0.58257 0.93611 0.03095 0.0
H1024 H 0.56574 0.95643 0.0665 0.0
H1025 H 0.55529 0.98467 0.05486 0.0
H1026 H 0.95679 0.164 0.43797 0.0
H1027 H 0.99463 0.19547 0.42973 0.0
H1028 H 0.95984 0.2071 0.3874 0.0
H1029 H 0.92215 0.17636 0.39607 0.0
H1030 H 0.01632 0.19651 0.40335 0.0
H1031 H 0.00183 0.27093 0.40034 0.0
H1032 H 0.98217 0.24484 0.41041 0.0
H1033 H 0.97951 0.24805 0.38888 0.0
C1034 C 0.95722 0.17395 0.42729 0.0
C1035 C 0.93665 0.16803 0.41773 0.0
C1036 C 0.97883 0.19174 0.42245 0.0
C1037 C 0.98019 0.20392 0.40798 0.0
C1038 C 0.95935 0.19847 0.39879 0.0
H1039 H 0.09132 0.29044 0.34376 0.0
H1040 H 0.05396 0.26443 0.35604 0.0
C1041 C 0.93781 0.18083 0.40368 0.0
C1042 C 0.00346 0.22066 0.40165 0.0
H1043 H 0.03418 0.27419 0.38564 0.0
C1044 C 0.0203 0.21358 0.39969 0.0
C1045 C 0.00875 0.24298 0.39675 0.0
C1046 C 0.99219 0.25222 0.39936 0.0
C1047 C 0.04186 0.22791 0.39265 0.0
C1048 C 0.04684 0.24995 0.38742 0.0
C1049 C 0.03022 0.25719 0.38951 0.0
C1050 C 0.06943 0.2658 0.37998 0.0
C1051 C 0.05904 0.21925 0.3905 0.0
C1052 C 0.09046 0.27528 0.38939 0.0
C1053 C 0.11177 0.2902 0.38246 0.0
C1054 C 0.11256 0.29592 0.36591 0.0
C1055 C 0.09141 0.28635 0.3565 0.0
C1056 C 0.07003 0.27154 0.3635 0.0
H1057 H 0.05104 0.2007 0.39273 0.0
H1058 H 0.06571 0.22324 0.37813 0.0
H1059 H 0.07434 0.22779 0.39909 0.0
H1060 H 0.09038 0.2712 0.40214 0.0
H1061 H 0.12765 0.29721 0.39011 0.0
H1062 H 0.82324 0.74467 0.4203 0.0
H1063 H 0.79553 0.75768 0.40994 0.0
H1064 H 0.85356 0.82443 0.4016 0.0
H1065 H 0.88106 0.81165 0.41285 0.0
H1066 H 0.81798 0.82656 0.41445 0.0
H1067 H 0.78397 0.76823 0.36308 0.0
H1068 H 0.78035 0.75362 0.38214 0.0
H1069 H 0.80946 0.77225 0.37537 0.0
C1070 C 0.82991 0.76214 0.4164 0.0
C1071 C 0.85415 0.77717 0.41718 0.0
C1072 C 0.81419 0.76949 0.41031 0.0
C1073 C 0.82256 0.79187 0.40463 0.0
C1074 C 0.84677 0.80703 0.40577 0.0
H1075 H 0.74087 0.83737 0.34261 0.0
H1076 H 0.76955 0.8264 0.35404 0.0
C1077 C 0.86244 0.79974 0.41205 0.0
C1078 C 0.80609 0.79955 0.39758 0.0
H1079 H 0.76312 0.78805 0.36826 0.0
C1080 C 0.80605 0.81823 0.40429 0.0
C1081 C 0.79088 0.78889 0.38415 0.0
C1082 C 0.7913 0.76979 0.37565 0.0
C1083 C 0.79093 0.82637 0.39809 0.0
C1084 C 0.77493 0.81503 0.38515 0.0
C1085 C 0.77522 0.79656 0.37829 0.0
C1086 C 0.75783 0.82212 0.37841 0.0
C1087 C 0.79263 0.8473 0.40524 0.0
C1088 C 0.74159 0.82311 0.3883 0.0
C1089 C 0.7254 0.82967 0.38185 0.0
C1090 C 0.72486 0.83485 0.36532 0.0
C1091 C 0.74083 0.83342 0.35538 0.0
C1092 C 0.75724 0.82718 0.36189 0.0
H1093 H 0.81013 0.85768 0.41131 0.0
H1094 H 0.78953 0.85797 0.39589 0.0
H1095 H 0.77916 0.8422 0.41442 0.0
H1096 H 0.74128 0.81863 0.40098 0.0
H1097 H 0.71312 0.83038 0.38978 0.0
H1098 H 0.24222 0.09034 0.38336 0.0
H1099 H 0.23233 0.05411 0.37121 0.0
H1100 H 0.18536 0.01847 0.40955 0.0
H1101 H 0.19466 0.05466 0.42127 0.0
H1102 H 0.23941 0.0201 0.3844 0.0
H1103 H 0.14446 0.98806 0.3701 0.0
H1104 H 0.16411 0.01716 0.37513 0.0
H1105 H 0.15227 0.99581 0.39079 0.0
C1106 C 0.2295 0.07471 0.38895 0.0
C1107 C 0.21912 0.07511 0.40317 0.0
C1108 C 0.22395 0.05409 0.3821 0.0
C1109 C 0.20785 0.03359 0.38935 0.0
C1110 C 0.19742 0.03405 0.40355 0.0
H1111 H 0.19524 0.90121 0.3834 0.0
H1112 H 0.20458 0.93952 0.39023 0.0
C1113 C 0.2029 0.05465 0.41033 0.0
C1114 C 0.20286 0.01168 0.38262 0.0
H1115 H 0.15813 0.96074 0.37037 0.0
C1116 C 0.22167 0.0072 0.38117 0.0
C1117 C 0.17976 0.99499 0.37817 0.0
C1118 C 0.15903 0.99931 0.37846 0.0
C1119 C 0.21789 0.98618 0.37594 0.0
C1120 C 0.19463 0.96903 0.37241 0.0
C1121 C 0.17592 0.9738 0.37329 0.0
C1122 C 0.18924 0.94589 0.3681 0.0
C1123 C 0.23887 0.98261 0.37418 0.0
C1124 C 0.17691 0.93648 0.35359 0.0
C1125 C 0.17128 0.91444 0.34972 0.0
C1126 C 0.17786 0.90139 0.36031 0.0
C1127 C 0.19011 0.91085 0.37488 0.0
C1128 C 0.19561 0.93283 0.37877 0.0
H1129 H 0.25519 0.99893 0.37247 0.0
H1130 H 0.24159 0.97428 0.3853 0.0
H1131 H 0.23614 0.97165 0.36384 0.0
H1132 H 0.17169 0.94622 0.34524 0.0
H1133 H 0.16182 0.90768 0.33841 0.0
H1134 H 0.45676 0.62768 0.29229 0.0
H1135 H 0.48635 0.66478 0.30236 0.0
H1136 H 0.54094 0.64709 0.29584 0.0
H1137 H 0.51119 0.60963 0.28672 0.0
H1138 H 0.54892 0.66819 0.32307 0.0
H1139 H 0.52954 0.71753 0.27525 0.0
H1140 H 0.50445 0.69971 0.28681 0.0
H1141 H 0.51704 0.68721 0.27464 0.0
C1142 C 0.47506 0.6317 0.29324 0.0
C1143 C 0.48177 0.61594 0.28861 0.0
C1144 C 0.492 0.65299 0.29876 0.0
C1145 C 0.51602 0.65904 0.29947 0.0
C1146 C 0.5226 0.64298 0.29527 0.0
H1147 H 0.63275 0.79655 0.30496 0.0
H1148 H 0.60241 0.75898 0.29649 0.0
C1149 C 0.50565 0.62165 0.28996 0.0
C1150 C 0.53437 0.68194 0.30466 0.0
H1151 H 0.55595 0.73849 0.29665 0.0
C1152 C 0.55047 0.68356 0.31725 0.0
C1153 C 0.53674 0.70204 0.2969 0.0
C1154 C 0.52119 0.70159 0.28254 0.0
C1155 C 0.56868 0.7046 0.32237 0.0
C1156 C 0.57045 0.72473 0.31507 0.0
C1157 C 0.55448 0.72312 0.30238 0.0
C1158 C 0.58887 0.7476 0.32027 0.0
C1159 C 0.58622 0.70493 0.33526 0.0
C1160 C 0.59121 0.75392 0.3364 0.0
C1161 C 0.60875 0.77525 0.34131 0.0
C1162 C 0.62406 0.79096 0.33013 0.0
C1163 C 0.62131 0.78485 0.31389 0.0
C1164 C 0.60393 0.76337 0.30903 0.0
H1165 H 0.5869 0.68876 0.33585 0.0
H1166 H 0.60416 0.71898 0.33313 0.0
H1167 H 0.58086 0.70723 0.34715 0.0
H1168 H 0.57938 0.7424 0.34523 0.0
H1169 H 0.61013 0.7795 0.35387 0.0
H1170 H 0.37958 0.83617 0.28077 0.0
H1171 H 0.34418 0.82731 0.2955 0.0
H1172 H 0.36599 0.8986 0.2973 0.0
H1173 H 0.40138 0.90725 0.28277 0.0
H1174 H 0.35051 0.87383 0.32718 0.0
H1175 H 0.2877 0.8338 0.27518 0.0
H1176 H 0.30753 0.8228 0.28065 0.0
H1177 H 0.31891 0.85121 0.27281 0.0
C1178 C 0.37657 0.84977 0.28436 0.0
C1179 C 0.39269 0.87228 0.28068 0.0
C1180 C 0.35652 0.84478 0.29269 0.0
C1181 C 0.35249 0.86233 0.29733 0.0
C1182 C 0.36886 0.88487 0.2938 0.0
H1183 H 0.23155 0.87094 0.31916 0.0
H1184 H 0.26782 0.87422 0.3096 0.0
C1185 C 0.38886 0.88981 0.28549 0.0
C1186 C 0.33098 0.85738 0.30555 0.0
H1187 H 0.27176 0.83583 0.29933 0.0
C1188 C 0.33323 0.86533 0.3212 0.0
C1189 C 0.3086 0.84641 0.29758 0.0
C1190 C 0.3054 0.83817 0.28059 0.0
C1191 C 0.31359 0.86301 0.32899 0.0
C1192 C 0.29129 0.85236 0.32092 0.0
C1193 C 0.28897 0.84392 0.30544 0.0
C1194 C 0.27034 0.85133 0.32771 0.0
C1195 C 0.31689 0.87272 0.34551 0.0
C1196 C 0.25999 0.83755 0.3412 0.0
C1197 C 0.23918 0.83563 0.34676 0.0
C1198 C 0.22844 0.84739 0.33882 0.0
C1199 C 0.23929 0.8616 0.32555 0.0
C1200 C 0.26001 0.86349 0.32004 0.0
H1201 H 0.33576 0.8833 0.3491 0.0
H1202 H 0.30792 0.88316 0.34589 0.0
H1203 H 0.30883 0.85871 0.3545 0.0
H1204 H 0.26766 0.82787 0.34715 0.0
H1205 H 0.23121 0.82447 0.35697 0.0
H1206 H 0.07035 0.49794 0.27782 0.0
H1207 H 0.07834 0.46606 0.28317 0.0
H1208 H 0.15098 0.51305 0.29515 0.0
H1209 H 0.14316 0.54471 0.28898 0.0
H1210 H 0.14743 0.47841 0.27856 0.0
H1211 H 0.0856 0.44581 0.32856 0.0
H1212 H 0.07224 0.44709 0.3093 0.0
H1213 H 0.0938 0.47279 0.31868 0.0
C1214 C 0.08807 0.50132 0.28125 0.0
C1215 C 0.10612 0.52363 0.28322 0.0
C1216 C 0.09257 0.48317 0.28452 0.0
C1217 C 0.11513 0.48715 0.28999 0.0
C1218 C 0.1334 0.50953 0.2911 0.0
H1219 H 0.15747 0.40418 0.34919 0.0
H1220 H 0.14534 0.43111 0.33761 0.0
C1221 C 0.12893 0.52759 0.28769 0.0
C1222 C 0.11978 0.46828 0.29523 0.0
H1223 H 0.10499 0.42517 0.32301 0.0
C1224 C 0.13807 0.46667 0.28822 0.0
C1225 C 0.10779 0.45321 0.30801 0.0
C1226 C 0.08891 0.45486 0.3167 0.0
C1227 C 0.14497 0.45068 0.29379 0.0
C1228 C 0.13276 0.43542 0.30643 0.0
C1229 C 0.11422 0.43678 0.31326 0.0
C1230 C 0.1397 0.41867 0.31334 0.0
C1231 C 0.16589 0.45097 0.28654 0.0
C1232 C 0.14024 0.40249 0.30361 0.0
C1233 C 0.14747 0.38725 0.31016 0.0
C1234 C 0.15386 0.38762 0.32665 0.0
C1235 C 0.15267 0.40343 0.33645 0.0
C1236 C 0.14571 0.41883 0.32985 0.0
H1237 H 0.17698 0.46734 0.28027 0.0
H1238 H 0.17702 0.44791 0.2959 0.0
H1239 H 0.15961 0.43742 0.27754 0.0
H1240 H 0.13507 0.40162 0.29094 0.0
H1241 H 0.14792 0.37511 0.3023 0.0
H1242 H 0.39098 0.55805 0.28297 0.0
H1243 H 0.35463 0.52396 0.29024 0.0
H1244 H 0.38931 0.48365 0.28657 0.0
H1245 H 0.42578 0.51789 0.27951 0.0
H1246 H 0.32686 0.48155 0.27403 0.0
H1247 H 0.36577 0.47179 0.3333 0.0
H1248 H 0.37903 0.49763 0.32137 0.0
H1249 H 0.38186 0.47362 0.31592 0.0
C1250 C 0.39069 0.54184 0.28364 0.0
C1251 C 0.41108 0.54049 0.28082 0.0
C1252 C 0.36997 0.52242 0.28773 0.0
C1253 C 0.36934 0.5013 0.28915 0.0
C1254 C 0.38949 0.4998 0.28573 0.0
H1255 H 0.2406 0.37251 0.30651 0.0
H1256 H 0.27694 0.40195 0.29492 0.0
C1257 C 0.41021 0.51926 0.28159 0.0
C1258 C 0.34788 0.48117 0.29491 0.0
H1259 H 0.32663 0.44454 0.32702 0.0
C1260 C 0.32681 0.47331 0.28554 0.0
C1261 C 0.34782 0.47063 0.31003 0.0
C1262 C 0.36974 0.47887 0.32085 0.0
C1263 C 0.30566 0.45528 0.29095 0.0
C1264 C 0.30562 0.44476 0.30608 0.0
C1265 C 0.32673 0.45252 0.31537 0.0
C1266 C 0.28363 0.42666 0.31298 0.0
C1267 C 0.28336 0.4481 0.2807 0.0
C1268 C 0.27552 0.43061 0.32712 0.0
C1269 C 0.25484 0.41386 0.33378 0.0
C1270 C 0.24184 0.39265 0.32652 0.0
C1271 C 0.25014 0.38862 0.31243 0.0
C1272 C 0.27084 0.40548 0.30572 0.0
H1273 H 0.2855 0.4606 0.27088 0.0
H1274 H 0.27836 0.43166 0.27515 0.0
H1275 H 0.26869 0.44576 0.28817 0.0
H1276 H 0.28513 0.44679 0.33296 0.0
H1277 H 0.24907 0.41759 0.34465 0.0
H1278 H 0.48204 0.91263 0.29102 0.0
H1279 H 0.51981 0.9139 0.29796 0.0
H1280 H 0.51056 0.87338 0.25673 0.0
H1281 H 0.47219 0.87142 0.25024 0.0
H1282 H 0.51865 0.85514 0.28375 0.0
H1283 H 0.58502 0.94552 0.28124 0.0
H1284 H 0.56107 0.94109 0.29325 0.0
H1285 H 0.55583 0.93503 0.27208 0.0
C1286 C 0.48835 0.90431 0.28337 0.0
C1287 C 0.47433 0.89166 0.27029 0.0
C1288 C 0.51001 0.90529 0.28718 0.0
C1289 C 0.51812 0.89393 0.27776 0.0
C1290 C 0.50466 0.88236 0.26409 0.0
H1291 H 0.64967 0.89266 0.30516 0.0
H1292 H 0.61965 0.89907 0.29048 0.0
C1293 C 0.48289 0.88128 0.26036 0.0
C1294 C 0.53882 0.89154 0.28353 0.0
H1295 H 0.59533 0.92132 0.29848 0.0
C1296 C 0.53555 0.86962 0.2867 0.0
C1297 C 0.56092 0.91042 0.28723 0.0
C1298 C 0.56599 0.93432 0.2831 0.0
C1299 C 0.55341 0.86607 0.29419 0.0
C1300 C 0.57487 0.88495 0.299 0.0
C1301 C 0.57864 0.90688 0.29508 0.0
C1302 C 0.59342 0.88219 0.30833 0.0
C1303 C 0.54904 0.8421 0.297 0.0
C1304 C 0.58876 0.87111 0.32344 0.0
C1305 C 0.60582 0.86731 0.33186 0.0
C1306 C 0.62792 0.87477 0.32538 0.0
C1307 C 0.63282 0.88667 0.31051 0.0
C1308 C 0.6157 0.89035 0.30208 0.0
H1309 H 0.535 0.83023 0.2886 0.0
H1310 H 0.56529 0.84088 0.29553 0.0
H1311 H 0.54324 0.83655 0.30947 0.0
H1312 H 0.5718 0.86514 0.32863 0.0
H1313 H 0.60156 0.85826 0.34333 0.0
H1314 H 0.06874 0.58861 0.2912 0.0
H1315 H 0.07713 0.62533 0.30155 0.0
H1316 H 0.14933 0.64129 0.31201 0.0
H1317 H 0.14126 0.60534 0.30057 0.0
H1318 H 0.09188 0.64504 0.32975 0.0
H1319 H 0.15858 0.69515 0.285 0.0
H1320 H 0.14018 0.66498 0.2836 0.0
H1321 H 0.16606 0.67648 0.29685 0.0
C1322 C 0.0864 0.60012 0.29559 0.0
C1323 C 0.10443 0.59435 0.29494 0.0
C1324 C 0.09117 0.62097 0.30161 0.0
C1325 C 0.114 0.63631 0.30723 0.0
C1326 C 0.13174 0.63003 0.30733 0.0
H1327 H 0.14673 0.75698 0.36149 0.0
H1328 H 0.13783 0.71897 0.35381 0.0
C1329 C 0.12707 0.60937 0.30104 0.0
C1330 C 0.1193 0.659 0.31266 0.0
H1331 H 0.15537 0.71548 0.30636 0.0
C1332 C 0.10571 0.66046 0.32461 0.0
C1333 C 0.13708 0.67913 0.30574 0.0
C1334 C 0.15113 0.67891 0.29197 0.0
C1335 C 0.10946 0.68148 0.32988 0.0
C1336 C 0.12786 0.70159 0.32341 0.0
C1337 C 0.14141 0.70008 0.31145 0.0
C1338 C 0.13293 0.72444 0.32832 0.0
C1339 C 0.09318 0.68185 0.34195 0.0
C1340 C 0.13388 0.74042 0.31654 0.0
C1341 C 0.13955 0.76227 0.32085 0.0
C1342 C 0.14413 0.76854 0.33707 0.0
C1343 C 0.14303 0.75253 0.34891 0.0
C1344 C 0.13777 0.73075 0.34454 0.0
H1345 H 0.07618 0.66587 0.34192 0.0
H1346 H 0.10153 0.68373 0.35421 0.0
H1347 H 0.08951 0.69619 0.33946 0.0
H1348 H 0.13025 0.736 0.30395 0.0
H1349 H 0.14015 0.77419 0.31145 0.0
H1350 H 0.89233 0.07716 0.41157 0.0
H1351 H 0.86348 0.04045 0.40027 0.0
H1352 H 0.81177 0.06342 0.39541 0.0
H1353 H 0.84078 0.10013 0.40654 0.0
H1354 H 0.81942 0.00945 0.41236 0.0
H1355 H 0.80984 0.0392 0.35044 0.0
H1356 H 0.83412 0.05605 0.36415 0.0
H1357 H 0.80587 0.0543 0.36616 0.0
C1358 C 0.87486 0.07432 0.40785 0.0
C1359 C 0.8687 0.09135 0.40963 0.0
C1360 C 0.85841 0.05342 0.4015 0.0
C1361 C 0.83557 0.04931 0.39677 0.0
C1362 C 0.8294 0.06636 0.39867 0.0
H1363 H 0.70949 0.92069 0.38169 0.0
H1364 H 0.74009 0.95728 0.39145 0.0
C1365 C 0.84585 0.08721 0.40506 0.0
C1366 C 0.81797 0.02695 0.39038 0.0
H1367 H 0.78232 1.00131 0.35747 0.0
C1368 C 0.81137 0.00764 0.40034 0.0
C1369 C 0.80768 0.0246 0.37463 0.0
C1370 C 0.81485 0.04458 0.36314 0.0
C1371 C 0.79438 0.98612 0.3951 0.0
C1372 C 0.78352 0.98387 0.37955 0.0
C1373 C 0.7905 1.0031 0.36945 0.0
C1374 C 0.76489 0.96169 0.37353 0.0
C1375 C 0.78835 0.9659 0.4062 0.0
C1376 C 0.76845 0.95221 0.36 0.0
C1377 C 0.75095 0.93128 0.35433 0.0
C1378 C 0.72942 0.9195 0.36202 0.0
C1379 C 0.72583 0.92922 0.37547 0.0
C1380 C 0.74338 0.9501 0.38115 0.0
H1381 H 0.80215 0.96956 0.4159 0.0
H1382 H 0.77158 0.96123 0.41196 0.0
H1383 H 0.78602 0.95112 0.39941 0.0
H1384 H 0.78488 0.96093 0.35389 0.0
H1385 H 0.75432 0.92438 0.34392 0.0
H1386 H 0.90317 0.73064 0.40819 0.0
H1387 H 0.93878 0.73448 0.39617 0.0
H1388 H 0.98018 0.79821 0.41982 0.0
H1389 H 0.94452 0.79442 0.43147 0.0
H1390 H 0.96676 0.77538 0.37585 0.0
H1391 H 0.01879 0.76264 0.42673 0.0
H1392 H 0.98718 0.75076 0.42674 0.0
H1393 H 0.00593 0.78014 0.43095 0.0
C1394 C 0.9201 0.74498 0.41118 0.0
C1395 C 0.92154 0.76205 0.42091 0.0
C1396 C 0.94027 0.74725 0.40429 0.0
C1397 C 0.96204 0.7665 0.40728 0.0
C1398 C 0.96358 0.78304 0.41764 0.0
H1399 H 0.10215 0.84054 0.37955 0.0
H1400 H 0.06312 0.82425 0.39037 0.0
C1401 C 0.94338 0.78088 0.42433 0.0
C1402 C 0.9827 0.77091 0.39818 0.0
H1403 H 0.03955 0.78166 0.40326 0.0
C1404 C 0.98261 0.77637 0.3817 0.0
C1405 C 0.0032 0.77223 0.40596 0.0
C1406 C 0.00385 0.76596 0.42355 0.0
C1407 C 0.00308 0.7845 0.37296 0.0
C1408 C 0.02391 0.78668 0.38091 0.0
C1409 C 0.02357 0.78009 0.39722 0.0
C1410 C 0.04676 0.79745 0.37305 0.0
C1411 C 0.00257 0.79189 0.35561 0.0
C1412 C 0.05037 0.78814 0.35942 0.0
C1413 C 0.0727 0.7977 0.35301 0.0
C1414 C 0.09172 0.8164 0.36037 0.0
C1415 C 0.08783 0.82606 0.37368 0.0
C1416 C 0.06556 0.81672 0.37991 0.0
H1417 H 0.98668 0.79367 0.35238 0.0
H1418 H 0.01842 0.80828 0.35311 0.0
H1419 H 0.00245 0.77905 0.34767 0.0
H1420 H 0.03617 0.77305 0.3541 0.0
H1421 H 0.07533 0.78978 0.34287 0.0
H1422 H 0.21098 0.14807 0.43292 0.0
H1423 H 0.20764 0.18242 0.42686 0.0
H1424 H 0.25002 0.19632 0.3855 0.0
H1425 H 0.25423 0.16258 0.39205 0.0
H1426 H 0.25999 0.23504 0.40093 0.0
H1427 H 0.16353 0.18212 0.39021 0.0
H1428 H 0.17412 0.17924 0.41013 0.0
H1429 H 0.18303 0.17012 0.39312 0.0
C1430 C 0.22002 0.15883 0.4228 0.0
C1431 C 0.23263 0.15269 0.41281 0.0
C1432 C 0.21789 0.17825 0.41922 0.0
C1433 C 0.22808 0.19162 0.40549 0.0
C1434 C 0.24184 0.18617 0.39607 0.0
H1435 H 0.18272 0.27231 0.34691 0.0
H1436 H 0.19279 0.24436 0.35916 0.0
C1437 C 0.24413 0.16689 0.39974 0.0
C1438 C 0.22325 0.21038 0.40023 0.0
H1439 H 0.17891 0.22153 0.38722 0.0
C1440 C 0.24227 0.23216 0.39801 0.0
C1441 C 0.20012 0.20647 0.39619 0.0
C1442 C 0.17902 0.18321 0.39738 0.0
C1443 C 0.23881 0.2501 0.39171 0.0
C1444 C 0.21565 0.24621 0.38783 0.0
C1445 C 0.19664 0.22451 0.39028 0.0
C1446 C 0.21065 0.26394 0.38031 0.0
C1447 C 0.26002 0.27277 0.38867 0.0
C1448 C 0.21735 0.28431 0.38811 0.0
C1449 C 0.2118 0.3005 0.38104 0.0
C1450 C 0.19913 0.29641 0.36614 0.0
C1451 C 0.19244 0.27598 0.3584 0.0
C1452 C 0.19818 0.25996 0.3654 0.0
H1453 H 0.2764 0.27141 0.38848 0.0
H1454 H 0.25777 0.28044 0.37705 0.0
H1455 H 0.26224 0.28437 0.39845 0.0
H1456 H 0.2265 0.28754 0.3998 0.0
H1457 H 0.21697 0.31596 0.38739 0.0
H1458 H 0.62045 0.49497 0.77028 0.0
H1459 H 0.65869 0.52632 0.76259 0.0
H1460 H 0.62626 0.53638 0.71843 0.0
H1461 H 0.5881 0.5058 0.7265 0.0
H1462 H 0.68258 0.52743 0.73727 0.0
H1463 H 0.66615 0.60065 0.73136 0.0
H1464 H 0.64626 0.57454 0.74131 0.0
H1465 H 0.64495 0.57735 0.71968 0.0
C1466 C 0.62145 0.50448 0.75924 0.0
C1467 C 0.60138 0.49816 0.74903 0.0
C1468 C 0.64331 0.52221 0.75475 0.0
C1469 C 0.64545 0.53399 0.73998 0.0
C1470 C 0.62514 0.52806 0.73004 0.0
H1471 H 0.75969 0.62227 0.67866 0.0
H1472 H 0.72181 0.59603 0.69016 0.0
C1473 C 0.60335 0.51047 0.73459 0.0
C1474 C 0.66905 0.55099 0.73426 0.0
H1475 H 0.69994 0.60449 0.71824 0.0
C1476 C 0.68643 0.54437 0.73332 0.0
C1477 C 0.67419 0.57314 0.729 0.0
C1478 C 0.65697 0.58192 0.73054 0.0
C1479 C 0.70842 0.55896 0.7269 0.0
C1480 C 0.71329 0.58085 0.72131 0.0
C1481 C 0.6961 0.58763 0.7224 0.0
C1482 C 0.73624 0.59695 0.71439 0.0
C1483 C 0.72614 0.5507 0.72577 0.0
C1484 C 0.7569 0.60633 0.72421 0.0
C1485 C 0.77852 0.6214 0.71772 0.0
C1486 C 0.78002 0.62738 0.7012 0.0
C1487 C 0.75925 0.61798 0.69139 0.0
C1488 C 0.73756 0.60303 0.69795 0.0
H1489 H 0.7182 0.53213 0.72784 0.0
H1490 H 0.73401 0.55505 0.71376 0.0
H1491 H 0.74056 0.55917 0.73498 0.0
H1492 H 0.75627 0.60205 0.73695 0.0
H1493 H 0.79409 0.62829 0.72567 0.0
H1494 H 0.54847 0.15788 0.75511 0.0
H1495 H 0.51724 0.16606 0.74427 0.0
H1496 H 0.46845 0.0945 0.74329 0.0
H1497 H 0.49987 0.08643 0.75384 0.0
H1498 H 0.4694 0.11834 0.7143 0.0
H1499 H 0.45968 0.15974 0.76738 0.0
H1500 H 0.48933 0.17122 0.76104 0.0
H1501 H 0.47424 0.14263 0.76871 0.0
C1502 C 0.53101 0.14403 0.75262 0.0
C1503 C 0.52632 0.1216 0.75528 0.0
C1504 C 0.51322 0.14865 0.74658 0.0
C1505 C 0.49054 0.13086 0.74321 0.0
C1506 C 0.48584 0.10842 0.74594 0.0
H1507 H 0.36549 0.14334 0.71854 0.0
H1508 H 0.39396 0.13259 0.73074 0.0
C1509 C 0.50363 0.10383 0.752 0.0
C1510 C 0.472 0.13561 0.73608 0.0
H1511 H 0.44017 0.16228 0.74287 0.0
C1512 C 0.46289 0.12784 0.72056 0.0
C1513 C 0.46347 0.1478 0.74439 0.0
C1514 C 0.472 0.15568 0.76136 0.0
C1515 C 0.44573 0.13237 0.71294 0.0
C1516 C 0.43779 0.14522 0.72103 0.0
C1517 C 0.44651 0.15257 0.73669 0.0
C1518 C 0.4205 0.15135 0.71339 0.0
C1519 C 0.43612 0.12325 0.69636 0.0
C1520 C 0.42617 0.16557 0.69968 0.0
C1521 C 0.40998 0.17176 0.69266 0.0
C1522 C 0.38789 0.16387 0.69931 0.0
C1523 C 0.38231 0.14963 0.71308 0.0
C1524 C 0.39854 0.14349 0.72009 0.0
H1525 H 0.43969 0.10927 0.69354 0.0
H1526 H 0.41685 0.11699 0.69522 0.0
H1527 H 0.44463 0.13701 0.68725 0.0
H1528 H 0.44323 0.17209 0.69452 0.0
H1529 H 0.41488 0.18283 0.68211 0.0
H1530 H 0.91473 0.41885 0.71646 0.0
H1531 H 0.90378 0.38134 0.70594 0.0
H1532 H 0.85077 0.35014 0.74142 0.0
H1533 H 0.86168 0.3877 0.75168 0.0
H1534 H 0.90621 0.34648 0.72318 0.0
H1535 H 0.81488 0.31913 0.7 0.0
H1536 H 0.83541 0.34823 0.70453 0.0
H1537 H 0.8202 0.32841 0.72044 0.0
C1538 C 0.90051 0.40389 0.72172 0.0
C1539 C 0.88882 0.40582 0.73469 0.0
C1540 C 0.8943 0.38257 0.7158 0.0
C1541 C 0.87623 0.36297 0.72275 0.0
C1542 C 0.86438 0.36504 0.73564 0.0
H1543 H 0.85483 0.22652 0.72416 0.0
H1544 H 0.86343 0.26492 0.73006 0.0
C1545 C 0.87061 0.38635 0.74153 0.0
C1546 C 0.87088 0.3403 0.71733 0.0
H1547 H 0.82642 0.29039 0.70318 0.0
C1548 C 0.88882 0.33428 0.71867 0.0
C1549 C 0.84825 0.3245 0.7113 0.0
C1550 C 0.82862 0.33042 0.70882 0.0
C1551 C 0.88457 0.31264 0.7146 0.0
C1552 C 0.86167 0.2965 0.70928 0.0
C1553 C 0.8439 0.30272 0.70745 0.0
C1554 C 0.85581 0.273 0.70572 0.0
C1555 C 0.90466 0.30728 0.71596 0.0
C1556 C 0.84801 0.26457 0.69017 0.0
C1557 C 0.84295 0.24254 0.68674 0.0
C1558 C 0.8455 0.22848 0.69884 0.0
C1559 C 0.85285 0.23688 0.7145 0.0
C1560 C 0.85789 0.25889 0.7179 0.0
H1561 H 0.922 0.32289 0.716 0.0
H1562 H 0.90367 0.29783 0.72743 0.0
H1563 H 0.9037 0.29658 0.70589 0.0
H1564 H 0.84615 0.27516 0.68063 0.0
H1565 H 0.83725 0.23664 0.67456 0.0
H1566 H 0.14117 0.96372 0.6003 0.0
H1567 H 0.17088 1.00112 0.60994 0.0
H1568 H 0.18661 0.96932 0.65155 0.0
H1569 H 0.15737 0.93195 0.64152 0.0
H1570 H 0.17544 0.02376 0.63688 0.0
H1571 H 0.25127 0.00773 0.63429 0.0
H1572 H 0.22266 0.98903 0.62544 0.0
H1573 H 0.22856 0.98752 0.64674 0.0
C1574 C 0.15102 0.96489 0.61151 0.0
C1575 C 0.14721 0.94517 0.62019 0.0
C1576 C 0.16793 0.98616 0.61703 0.0
C1577 C 0.18137 0.98808 0.63133 0.0
C1578 C 0.17695 0.96831 0.64029 0.0
H1579 H 0.2646 0.1131 0.68375 0.0
H1580 H 0.23461 0.07604 0.67441 0.0
C1581 C 0.16012 0.94702 0.63469 0.0
C1582 C 0.19992 0.01075 0.63682 0.0
H1583 H 0.25857 0.04149 0.64699 0.0
C1584 C 0.19363 0.02763 0.63906 0.0
C1585 C 0.22377 0.01602 0.63939 0.0
C1586 C 0.23207 0.99921 0.63619 0.0
C1587 C 0.21038 0.04943 0.64402 0.0
C1588 C 0.23405 0.05441 0.64722 0.0
C1589 C 0.24041 0.03765 0.64473 0.0
C1590 C 0.25251 0.07694 0.65303 0.0
C1591 C 0.2026 0.06705 0.64543 0.0
C1592 C 0.27305 0.08958 0.64444 0.0
C1593 C 0.29046 0.11074 0.64988 0.0
C1594 C 0.28771 0.11971 0.66405 0.0
C1595 C 0.26724 0.10687 0.67271 0.0
C1596 C 0.24995 0.08568 0.66732 0.0
H1597 H 0.18619 0.06277 0.63809 0.0
H1598 H 0.199 0.06791 0.65818 0.0
H1599 H 0.21642 0.08403 0.64154 0.0
H1600 H 0.27553 0.08318 0.63343 0.0
H1601 H 0.30596 0.12012 0.64289 0.0
H1602 H 0.07037 0.24868 0.61366 0.0
H1603 H 0.03621 0.24005 0.62955 0.0
H1604 H 0.01283 0.16867 0.62588 0.0
H1605 H 0.04696 0.17742 0.60982 0.0
H1606 H 0.97717 0.18238 0.61952 0.0
H1607 H 0.02856 0.21513 0.67698 0.0
H1608 H 0.03906 0.23433 0.65999 0.0
H1609 H 0.04019 0.20822 0.66017 0.0
C1610 C 0.05769 0.2312 0.61611 0.0
C1611 C 0.06099 0.21365 0.6106 0.0
C1612 C 0.03844 0.22629 0.62528 0.0
C1613 C 0.02234 0.20376 0.62907 0.0
C1614 C 0.02524 0.18616 0.62316 0.0
H1615 H 0.90755 0.15765 0.69539 0.0
H1616 H 0.94314 0.16351 0.68247 0.0
C1617 C 0.04456 0.1911 0.61403 0.0
C1618 C 0.00229 0.19863 0.63905 0.0
H1619 H 0.98838 0.20674 0.67625 0.0
C1620 C 0.97956 0.1875 0.63196 0.0
C1621 C 0.00558 0.20511 0.65532 0.0
C1622 C 0.02964 0.21618 0.66366 0.0
C1623 C 0.95997 0.18348 0.64057 0.0
C1624 C 0.96337 0.19094 0.65658 0.0
C1625 C 0.98599 0.20126 0.6639 0.0
C1626 C 0.94361 0.18904 0.66556 0.0
C1627 C 0.93579 0.17153 0.63244 0.0
C1628 C 0.93283 0.2021 0.66063 0.0
C1629 C 0.9127 0.19891 0.66797 0.0
C1630 C 0.90302 0.18258 0.68037 0.0
C1631 C 0.91461 0.17035 0.68586 0.0
C1632 C 0.93485 0.17361 0.6785 0.0
H1633 H 0.93563 0.1625 0.62156 0.0
H1634 H 0.92283 0.15918 0.64086 0.0
H1635 H 0.93002 0.18415 0.62868 0.0
H1636 H 0.93962 0.21431 0.65078 0.0
H1637 H 0.9043 0.20872 0.66351 0.0
H1638 H 0.81721 0.87598 0.61031 0.0
H1639 H 0.82581 0.84463 0.61609 0.0
H1640 H 0.75228 0.7999 0.62394 0.0
H1641 H 0.74381 0.83128 0.61761 0.0
H1642 H 0.82001 0.82447 0.64474 0.0
H1643 H 0.76815 0.75931 0.59943 0.0
H1644 H 0.77351 0.78813 0.59709 0.0
H1645 H 0.75057 0.76827 0.60967 0.0
C1646 C 0.8029 0.85921 0.61273 0.0
C1647 C 0.7799 0.85578 0.61346 0.0
C1648 C 0.80776 0.84138 0.61611 0.0
C1649 C 0.78969 0.81983 0.62038 0.0
C1650 C 0.76645 0.81618 0.62033 0.0
H1651 H 0.81233 0.72536 0.68377 0.0
H1652 H 0.80138 0.75291 0.67171 0.0
C1653 C 0.76158 0.83404 0.61676 0.0
C1654 C 0.79564 0.80217 0.62674 0.0
H1655 H 0.78289 0.7472 0.62277 0.0
C1656 C 0.81202 0.80763 0.63982 0.0
C1657 C 0.78533 0.78024 0.62031 0.0
C1658 C 0.76859 0.77368 0.60575 0.0
C1659 C 0.81818 0.79176 0.64676 0.0
C1660 C 0.80717 0.76955 0.64076 0.0
C1661 C 0.79108 0.76414 0.6275 0.0
C1662 C 0.81256 0.75189 0.6479 0.0
C1663 C 0.83676 0.79911 0.66027 0.0
C1664 C 0.82171 0.74155 0.6384 0.0
C1665 C 0.82775 0.72561 0.64521 0.0
C1666 C 0.82477 0.71969 0.66169 0.0
C1667 C 0.81511 0.72971 0.6711 0.0
C1668 C 0.80892 0.74554 0.66423 0.0
H1669 H 0.84797 0.81779 0.66031 0.0
H1670 H 0.82808 0.79378 0.67197 0.0
H1671 H 0.84825 0.79126 0.65933 0.0
H1672 H 0.82458 0.74613 0.62575 0.0
H1673 H 0.83509 0.7182 0.63759 0.0
H1674 H 0.05703 0.88583 0.61183 0.0
H1675 H 0.02101 0.85216 0.62012 0.0
H1676 H 0.05749 0.81291 0.62149 0.0
H1677 H 0.09366 0.84682 0.61345 0.0
H1678 H 0.99382 0.80813 0.60714 0.0
H1679 H 0.03403 0.80601 0.66764 0.0
H1680 H 0.04698 0.83021 0.65411 0.0
H1681 H 0.04999 0.80561 0.65083 0.0
C1682 C 0.05721 0.86994 0.6138 0.0
C1683 C 0.07807 0.86888 0.61221 0.0
C1684 C 0.03666 0.85072 0.61847 0.0
C1685 C 0.03662 0.83007 0.62171 0.0
C1686 C 0.05718 0.82872 0.61932 0.0
H1687 H 0.90963 0.70193 0.64347 0.0
H1688 H 0.94543 0.73105 0.63118 0.0
C1689 C 0.07774 0.84798 0.61459 0.0
C1690 C 0.01542 0.81042 0.62835 0.0
H1691 H 0.99527 0.77719 0.66222 0.0
C1692 C 0.99415 0.80124 0.61914 0.0
C1693 C 0.01578 0.80165 0.64411 0.0
C1694 C 0.03783 0.81143 0.65485 0.0
C1695 C 0.97327 0.78357 0.62525 0.0
C1696 C 0.97369 0.77471 0.64096 0.0
C1697 C 0.99498 0.78386 0.65015 0.0
C1698 C 0.95204 0.75672 0.64843 0.0
C1699 C 0.95078 0.77503 0.61502 0.0
C1700 C 0.94407 0.76121 0.66244 0.0
C1701 C 0.92369 0.74458 0.66955 0.0
C1702 C 0.91084 0.72294 0.66289 0.0
C1703 C 0.91904 0.71837 0.64896 0.0
C1704 C 0.93944 0.73507 0.64183 0.0
H1705 H 0.95233 0.78686 0.60484 0.0
H1706 H 0.94651 0.7585 0.60995 0.0
H1707 H 0.93591 0.77247 0.62236 0.0
H1708 H 0.95352 0.77774 0.66781 0.0
H1709 H 0.91798 0.74876 0.68026 0.0
H1710 H 0.15872 0.25914 0.60491 0.0
H1711 H 0.19454 0.25826 0.61524 0.0
H1712 H 0.16041 0.18629 0.60767 0.0
H1713 H 0.12454 0.18729 0.59773 0.0
H1714 H 0.17752 0.19757 0.63847 0.0
H1715 H 0.24606 0.25063 0.59535 0.0
H1716 H 0.23064 0.26406 0.60298 0.0
H1717 H 0.21504 0.23966 0.59058 0.0
C1718 C 0.15932 0.24336 0.60504 0.0
C1719 C 0.13923 0.22328 0.60058 0.0
C1720 C 0.17967 0.24283 0.6109 0.0
C1721 C 0.18013 0.22222 0.61214 0.0
C1722 C 0.16038 0.20235 0.60679 0.0
H1723 H 0.29126 0.19132 0.63572 0.0
H1724 H 0.2613 0.19959 0.62335 0.0
C1725 C 0.14004 0.20289 0.60108 0.0
C1726 C 0.20005 0.22078 0.62059 0.0
H1727 H 0.259 0.23932 0.61964 0.0
C1728 C 0.19535 0.20668 0.63436 0.0
C1729 C 0.22323 0.23272 0.61517 0.0
C1730 C 0.2291 0.24748 0.60013 0.0
C1731 C 0.21314 0.20386 0.64274 0.0
C1732 C 0.23638 0.21595 0.63742 0.0
C1733 C 0.24117 0.23029 0.62377 0.0
C1734 C 0.25552 0.2124 0.64504 0.0
C1735 C 0.20672 0.18735 0.65685 0.0
C1736 C 0.26243 0.21716 0.66134 0.0
C1737 C 0.2795 0.21223 0.66857 0.0
C1738 C 0.29002 0.20268 0.65953 0.0
C1739 C 0.28348 0.19858 0.64309 0.0
C1740 C 0.2664 0.20338 0.63594 0.0
H1741 H 0.18745 0.17585 0.65709 0.0
H1742 H 0.21571 0.17694 0.65649 0.0
H1743 H 0.2124 0.19687 0.66822 0.0
H1744 H 0.25448 0.2245 0.66848 0.0
H1745 H 0.28432 0.21578 0.68121 0.0
H1746 H 0.74479 0.91689 0.633 0.0
H1747 H 0.75383 0.95242 0.64586 0.0
H1748 H 0.82802 0.97513 0.64272 0.0
H1749 H 0.81887 0.93985 0.62947 0.0
H1750 H 0.78102 0.97335 0.67415 0.0
H1751 H 0.81833 0.02498 0.61879 0.0
H1752 H 0.8012 0.99454 0.61864 0.0
H1753 H 0.83146 0.00784 0.62574 0.0
C1754 C 0.76297 0.92953 0.63512 0.0
C1755 C 0.78117 0.92588 0.63023 0.0
C1756 C 0.76813 0.94968 0.64251 0.0
C1757 C 0.79158 0.96648 0.64505 0.0
C1758 C 0.80981 0.96249 0.64066 0.0
H1759 H 0.83908 0.0905 0.69923 0.0
H1760 H 0.83152 0.05318 0.69078 0.0
C1761 C 0.80462 0.94236 0.63324 0.0
C1762 C 0.79686 0.9885 0.65167 0.0
H1763 H 0.82055 0.04474 0.64207 0.0
C1764 C 0.78973 0.989 0.66719 0.0
C1765 C 0.80797 0.00879 0.64245 0.0
C1766 C 0.81503 0.00911 0.62543 0.0
C1767 C 0.79343 0.00935 0.67375 0.0
C1768 C 0.80479 0.02966 0.66458 0.0
C1769 C 0.81197 0.02913 0.6491 0.0
C1770 C 0.80847 0.05159 0.67042 0.0
C1771 C 0.78458 0.00886 0.6902 0.0
C1772 C 0.79817 0.0631 0.6617 0.0
C1773 C 0.80255 0.0844 0.66641 0.0
C1774 C 0.81741 0.09471 0.67993 0.0
C1775 C 0.82745 0.08299 0.68882 0.0
C1776 C 0.82307 0.06162 0.68405 0.0
H1777 H 0.77178 0.99142 0.69411 0.0
H1778 H 0.79966 0.0155 0.69911 0.0
H1779 H 0.77607 0.01972 0.69035 0.0
H1780 H 0.78687 0.05566 0.65113 0.0
H1781 H 0.79448 0.09288 0.65928 0.0
H1782 H 0.53454 0.40194 0.76332 0.0
H1783 H 0.50469 0.36524 0.75278 0.0
H1784 H 0.49668 0.39846 0.70918 0.0
H1785 H 0.52618 0.43524 0.71991 0.0
H1786 H 0.45627 0.35374 0.74215 0.0
H1787 H 0.50758 0.34589 0.69391 0.0
H1788 H 0.52141 0.36445 0.71073 0.0
H1789 H 0.50708 0.37229 0.69453 0.0
C1790 C 0.52632 0.40134 0.75152 0.0
C1791 C 0.53255 0.42134 0.74242 0.0
C1792 C 0.50938 0.38042 0.74549 0.0
C1793 C 0.49861 0.3791 0.73015 0.0
C1794 C 0.50501 0.39906 0.72095 0.0
H1795 H 0.39375 0.26632 0.67356 0.0
H1796 H 0.42357 0.30341 0.68318 0.0
C1797 C 0.52184 0.42 0.72704 0.0
C1798 C 0.48009 0.35694 0.72405 0.0
H1799 H 0.46781 0.31777 0.69529 0.0
C1800 C 0.45877 0.34582 0.73193 0.0
C1801 C 0.48336 0.34676 0.71064 0.0
C1802 C 0.50613 0.3578 0.70197 0.0
C1803 C 0.4405 0.3249 0.72665 0.0
C1804 C 0.44388 0.31446 0.71339 0.0
C1805 C 0.4652 0.3257 0.70546 0.0
C1806 C 0.42561 0.29186 0.70763 0.0
C1807 C 0.41755 0.31449 0.73511 0.0
C1808 C 0.41698 0.27288 0.71809 0.0
C1809 C 0.39977 0.25168 0.71268 0.0
C1810 C 0.39104 0.24889 0.69658 0.0
C1811 C 0.40001 0.26783 0.68604 0.0
C1812 C 0.4171 0.28908 0.69151 0.0
H1813 H 0.41527 0.32743 0.74141 0.0
H1814 H 0.40232 0.30569 0.72651 0.0
H1815 H 0.41741 0.30195 0.74428 0.0
H1816 H 0.42369 0.27441 0.73046 0.0
H1817 H 0.39347 0.23745 0.7211 0.0
H1818 H 0.61864 0.15269 0.75858 0.0
H1819 H 0.65348 0.15615 0.74591 0.0
H1820 H 0.62058 0.08347 0.74309 0.0
H1821 H 0.58558 0.08016 0.75558 0.0
H1822 H 0.68385 0.13787 0.75419 0.0
H1823 H 0.63468 0.10648 0.69578 0.0
H1824 H 0.6234 0.11538 0.7117 0.0
H1825 H 0.62209 0.08814 0.71292 0.0
C1826 C 0.61917 0.13754 0.75547 0.0
C1827 C 0.59967 0.1162 0.75791 0.0
C1828 C 0.63891 0.13948 0.74823 0.0
C1829 C 0.63932 0.12008 0.74327 0.0
C1830 C 0.62036 0.09864 0.74657 0.0
H1831 H 0.75975 0.11282 0.71355 0.0
H1832 H 0.72252 0.10536 0.72437 0.0
C1833 C 0.6006 0.09672 0.75386 0.0
C1834 C 0.65933 0.12247 0.73422 0.0
H1835 H 0.67421 0.11341 0.69759 0.0
C1836 C 0.68176 0.13251 0.74183 0.0
C1837 C 0.65652 0.11585 0.71799 0.0
C1838 C 0.63293 0.10604 0.70901 0.0
C1839 C 0.70149 0.13571 0.73373 0.0
C1840 C 0.69858 0.12841 0.71768 0.0
C1841 C 0.67624 0.11879 0.70993 0.0
C1842 C 0.71868 0.13026 0.70905 0.0
C1843 C 0.72536 0.14705 0.74236 0.0
C1844 C 0.72803 0.14581 0.69619 0.0
C1845 C 0.74932 0.15001 0.68984 0.0
C1846 C 0.76138 0.13874 0.6964 0.0
C1847 C 0.75095 0.12196 0.70842 0.0
C1848 C 0.72973 0.1177 0.71464 0.0
H1849 H 0.72539 0.15633 0.75307 0.0
H1850 H 0.73034 0.134 0.74653 0.0
H1851 H 0.73897 0.15908 0.73417 0.0
H1852 H 0.71957 0.15555 0.69169 0.0
H1853 H 0.75706 0.16308 0.68062 0.0
H1854 H 0.93657 0.5036 0.74574 0.0
H1855 H 0.93402 0.53862 0.74075 0.0
H1856 H 0.85826 0.49978 0.73936 0.0
H1857 H 0.86095 0.465 0.74467 0.0
H1858 H 0.91287 0.54713 0.71338 0.0
H1859 H 0.87097 0.55258 0.76789 0.0
H1860 H 0.88485 0.53499 0.76712 0.0
H1861 H 0.85547 0.52537 0.75875 0.0
C1862 C 0.91947 0.50276 0.74468 0.0
C1863 C 0.89895 0.48179 0.74547 0.0
C1864 C 0.91799 0.52265 0.74179 0.0
C1865 C 0.89595 0.52183 0.73985 0.0
C1866 C 0.87544 0.50088 0.74112 0.0
H1867 H 0.84786 0.60173 0.68473 0.0
H1868 H 0.85914 0.57431 0.69636 0.0
C1869 C 0.87695 0.48103 0.74396 0.0
C1870 C 0.89423 0.54245 0.73502 0.0
H1871 H 0.86889 0.57429 0.74467 0.0
C1872 C 0.90356 0.55328 0.72035 0.0
C1873 C 0.88231 0.55062 0.74419 0.0
C1874 C 0.87303 0.54043 0.76045 0.0
C1875 C 0.90028 0.57134 0.71421 0.0
C1876 C 0.8871 0.57857 0.72289 0.0
C1877 C 0.87878 0.56854 0.73796 0.0
C1878 C 0.88051 0.5955 0.716 0.0
C1879 C 0.91063 0.58231 0.69834 0.0
C1880 C 0.88842 0.61636 0.72339 0.0
C1881 C 0.88201 0.63218 0.71675 0.0
C1882 C 0.86733 0.62723 0.70271 0.0
C1883 C 0.85923 0.60616 0.69551 0.0
C1884 C 0.86576 0.59048 0.70209 0.0
H1885 H 0.92533 0.57921 0.69547 0.0
H1886 H 0.89681 0.57508 0.68858 0.0
H1887 H 0.91716 0.60084 0.69843 0.0
H1888 H 0.89969 0.62045 0.73422 0.0
H1889 H 0.8884 0.64818 0.72266 0.0
H1890 H 0.47926 0.93303 0.25274 0.0
H1891 H 0.49773 0.95413 0.22804 0.0
H1892 H 0.44936 0.89699 0.19965 0.0
H1893 H 0.431 0.87604 0.22434 0.0
H1894 H 0.51836 0.94421 0.20191 0.0
H1895 H 0.43768 0.9495 0.1828 0.0
H1896 H 0.44272 0.94139 0.20302 0.0
H1897 H 0.43275 0.92125 0.18713 0.0
C1898 C 0.47295 0.92499 0.24119 0.0
C1899 C 0.45368 0.90316 0.24023 0.0
C1900 C 0.4834 0.93698 0.22716 0.0
C1901 C 0.47458 0.92722 0.21206 0.0
C1902 C 0.45608 0.90493 0.21119 0.0
H1903 H 0.49599 0.96824 0.11275 0.0
H1904 H 0.48537 0.94821 0.13865 0.0
C1905 C 0.44564 0.89301 0.2252 0.0
C1906 C 0.4838 0.94067 0.19714 0.0
H1907 H 0.46734 0.96168 0.16369 0.0
C1908 C 0.50731 0.94818 0.19357 0.0
C1909 C 0.46932 0.94593 0.18641 0.0
C1910 C 0.44428 0.9393 0.19006 0.0
C1911 C 0.51651 0.9602 0.17918 0.0
C1912 C 0.50183 0.96499 0.1683 0.0
C1913 C 0.47847 0.95783 0.17205 0.0
C1914 C 0.50998 0.97688 0.15271 0.0
C1915 C 0.54158 0.96714 0.17549 0.0
C1916 C 0.52742 0.99965 0.15207 0.0
C1917 C 0.53365 0.01116 0.13724 0.0
C1918 C 0.52249 1.00007 0.12284 0.0
C1919 C 0.50523 0.97717 0.12358 0.0
C1920 C 0.49902 0.96572 0.13837 0.0
H1921 H 0.549 0.95828 0.1835 0.0
H1922 H 0.54276 0.96358 0.16278 0.0
H1923 H 0.5526 0.98561 0.17722 0.0
H1924 H 0.5358 0.00863 0.16305 0.0
H1925 H 0.54707 0.02876 0.13705 0.0
H1926 H 0.11758 0.54909 0.24547 0.0
H1927 H 0.10368 0.53711 0.2176 0.0
H1928 H 0.03187 0.50737 0.232 0.0
H1929 H 0.04596 0.5201 0.25963 0.0
H1930 H 0.0737 0.497 0.20146 0.0
H1931 H 0.03675 0.55616 0.19942 0.0
H1932 H 0.05603 0.55562 0.21574 0.0
H1933 H 0.02533 0.53495 0.2151 0.0
C1934 C 0.09889 0.53939 0.24264 0.0
C1935 C 0.08272 0.53535 0.25446 0.0
C1936 C 0.09094 0.53265 0.2268 0.0
C1937 C 0.06674 0.5218 0.22268 0.0
C1938 C 0.05061 0.51614 0.23486 0.0
H1939 H 0.98371 0.48788 0.13298 0.0
H1940 H 0.99796 0.48973 0.16103 0.0
C1941 C 0.05857 0.52314 0.2506 0.0
C1942 C 0.05842 0.51838 0.20553 0.0
H1943 H 0.02803 0.53299 0.1768 0.0
C1944 C 0.06374 0.50487 0.19605 0.0
C1945 C 0.04569 0.52893 0.19843 0.0
C1946 C 0.0408 0.54491 0.20763 0.0
C1947 C 0.05616 0.50123 0.17973 0.0
C1948 C 0.04308 0.51145 0.1728 0.0
C1949 C 0.03789 0.52502 0.18224 0.0
C1950 C 0.03477 0.50864 0.15568 0.0
C1951 C 0.06188 0.48628 0.17006 0.0
C1952 C 0.05079 0.5187 0.1434 0.0
C1953 C 0.04271 0.51798 0.12736 0.0
C1954 C 0.01843 0.5072 0.12331 0.0
C1955 C 0.00249 0.49667 0.13567 0.0
C1956 C 0.01059 0.49752 0.15169 0.0
H1957 H 0.06831 0.47639 0.17785 0.0
H1958 H 0.04615 0.47439 0.16281 0.0
H1959 H 0.07579 0.49694 0.16159 0.0
H1960 H 0.06953 0.52773 0.14629 0.0
H1961 H 0.05549 0.52654 0.11821 0.0
H1962 H 0.41086 0.55194 0.24385 0.0
H1963 H 0.40774 0.53412 0.21795 0.0
H1964 H 0.47043 0.52932 0.23149 0.0
H1965 H 0.47321 0.5468 0.25725 0.0
H1966 H 0.44206 0.55367 0.19555 0.0
H1967 H 0.42845 0.46796 0.21188 0.0
H1968 H 0.42311 0.48485 0.22559 0.0
H1969 H 0.45249 0.48934 0.22338 0.0
C1970 C 0.42341 0.54631 0.24139 0.0
C1971 C 0.4422 0.55053 0.2524 0.0
C1972 C 0.42175 0.53631 0.22664 0.0
C1973 C 0.43873 0.53017 0.22284 0.0
C1974 C 0.45684 0.53343 0.23425 0.0
H1975 H 0.4997 0.50464 0.14427 0.0
H1976 H 0.48735 0.51116 0.16978 0.0
C1977 C 0.45851 0.54347 0.24891 0.0
C1978 C 0.43941 0.52294 0.20637 0.0
H1979 H 0.44526 0.48315 0.18611 0.0
C1980 C 0.44226 0.53803 0.1934 0.0
C1981 C 0.43975 0.50257 0.2036 0.0
C1982 C 0.43554 0.48515 0.21684 0.0
C1983 C 0.44681 0.53391 0.17794 0.0
C1984 C 0.44819 0.51402 0.17535 0.0
C1985 C 0.44435 0.49847 0.18815 0.0
C1986 C 0.45517 0.50974 0.15974 0.0
C1987 C 0.45131 0.55144 0.16472 0.0
C1988 C 0.44111 0.50667 0.14561 0.0
C1989 C 0.44811 0.50286 0.13097 0.0
C1990 C 0.46923 0.50191 0.13021 0.0
C1991 C 0.48319 0.50496 0.14443 0.0
C1992 C 0.47619 0.50876 0.15903 0.0
H1993 H 0.45403 0.5677 0.16945 0.0
H1994 H 0.46702 0.5547 0.15806 0.0
H1995 H 0.43596 0.54506 0.15603 0.0
H1996 H 0.42463 0.50701 0.14594 0.0
H1997 H 0.43676 0.50024 0.12031 0.0
H1998 H 0.95825 0.47332 0.76761 0.0
H1999 H 0.97605 0.48899 0.79406 0.0
H2000 H 0.91017 0.48327 0.80747 0.0
H2001 H 0.8925 0.46771 0.78091 0.0
H2002 H 0.95125 0.52338 0.81868 0.0
H2003 H 0.95636 0.44459 0.83319 0.0
H2004 H 0.97081 0.45931 0.81524 0.0
H2005 H 0.93942 0.4472 0.81603 0.0
C2006 C 0.94782 0.47584 0.77617 0.0
C2007 C 0.92407 0.46921 0.77247 0.0
C2008 C 0.9579 0.48469 0.79122 0.0
C2009 C 0.94427 0.48684 0.80281 0.0
C2010 C 0.92093 0.48164 0.79871 0.0
H2011 H 0.97072 0.48664 0.906 0.0
H2012 H 0.9537 0.47924 0.87853 0.0
C2013 C 0.91089 0.47286 0.78359 0.0
C2014 C 0.95374 0.49266 0.81956 0.0
H2015 H 0.9738 0.4736 0.85233 0.0
C2016 C 0.9562 0.51255 0.82607 0.0
C2017 C 0.95975 0.47823 0.82923 0.0
C2018 C 0.95628 0.45603 0.82316 0.0
C2019 C 0.96495 0.5186 0.84197 0.0
C2020 C 0.97163 0.50449 0.85147 0.0
C2021 C 0.96883 0.48446 0.84499 0.0
C2022 C 0.98135 0.50993 0.86823 0.0
C2023 C 0.96655 0.53978 0.84856 0.0
C2024 C 0.00259 0.52962 0.87155 0.0
C2025 C 0.0123 0.53399 0.88728 0.0
C2026 C 0.00102 0.51865 0.89997 0.0
C2027 C 0.9797 0.49897 0.89657 0.0
C2028 C 0.97 0.49464 0.88086 0.0
H2029 H 0.95516 0.54534 0.84142 0.0
H2030 H 0.96144 0.53715 0.86131 0.0
H2031 H 0.98497 0.55362 0.84808 0.0
H2032 H 0.01189 0.54143 0.86194 0.0
H2033 H 0.02863 0.5494 0.8895 0.0
H2034 H 0.5531 0.50293 0.76897 0.0
H2035 H 0.5496 0.51703 0.79481 0.0
H2036 H 0.58712 0.48519 0.81893 0.0
H2037 H 0.58968 0.47051 0.7931 0.0
H2038 H 0.54672 0.47192 0.83214 0.0
H2039 H 0.59028 0.56525 0.82621 0.0
H2040 H 0.56884 0.55163 0.81021 0.0
H2041 H 0.59459 0.54798 0.81227 0.0
C2042 C 0.56149 0.49992 0.77974 0.0
C2043 C 0.57213 0.48616 0.77912 0.0
C2044 C 0.55945 0.50788 0.79452 0.0
C2045 C 0.56827 0.50239 0.8089 0.0
C2046 C 0.58024 0.48978 0.80805 0.0
H2047 H 0.56742 0.54588 0.90568 0.0
H2048 H 0.57745 0.54182 0.87863 0.0
C2049 C 0.582 0.48163 0.79331 0.0
C2050 C 0.56241 0.50709 0.8249 0.0
H2051 H 0.56441 0.54863 0.84808 0.0
C2052 C 0.55078 0.48876 0.83563 0.0
C2053 C 0.56772 0.52903 0.82957 0.0
C2054 C 0.58125 0.54963 0.81903 0.0
C2055 C 0.5442 0.49165 0.85077 0.0
C2056 C 0.54869 0.51343 0.85522 0.0
C2057 C 0.5606 0.53186 0.84459 0.0
C2058 C 0.54198 0.51742 0.87112 0.0
C2059 C 0.53298 0.47134 0.862 0.0
C2060 C 0.51853 0.50568 0.87581 0.0
C2061 C 0.51276 0.50769 0.89141 0.0
C2062 C 0.53029 0.5217 0.90263 0.0
C2063 C 0.55352 0.5345 0.89754 0.0
C2064 C 0.55928 0.53236 0.88199 0.0
H2065 H 0.53672 0.45765 0.8587 0.0
H2066 H 0.53929 0.47599 0.87467 0.0
H2067 H 0.51362 0.46448 0.86126 0.0
H2068 H 0.50474 0.49447 0.86752 0.0
H2069 H 0.49471 0.49751 0.89484 0.0
H2070 H 0.6033 0.12059 0.79448 0.0
H2071 H 0.60948 0.10316 0.81964 0.0
H2072 H 0.54662 0.0409 0.80802 0.0
H2073 H 0.54111 0.05816 0.78281 0.0
H2074 H 0.57868 0.09089 0.84238 0.0
H2075 H 0.58673 0.01592 0.8285 0.0
H2076 H 0.59118 0.03783 0.8136 0.0
H2077 H 0.56196 0.01537 0.81741 0.0
C2078 C 0.5915 0.10291 0.79708 0.0
C2079 C 0.57168 0.09063 0.78694 0.0
C2080 C 0.59492 0.09299 0.81143 0.0
C2081 C 0.57861 0.07064 0.8157 0.0
C2082 C 0.55978 0.05794 0.80488 0.0
H2083 H 0.50832 0.99106 0.89482 0.0
H2084 H 0.52534 0.00777 0.86898 0.0
C2085 C 0.55647 0.06782 0.79056 0.0
C2086 C 0.57855 0.0619 0.83241 0.0
H2087 H 0.56855 0.01397 0.85396 0.0
C2088 C 0.57717 0.07435 0.84499 0.0
C2089 C 0.5765 0.04029 0.83583 0.0
C2090 C 0.57943 0.02673 0.8231 0.0
C2091 C 0.57205 0.0651 0.86062 0.0
C2092 C 0.56842 0.0429 0.86376 0.0
C2093 C 0.57116 0.03094 0.85145 0.0
C2094 C 0.55948 0.03118 0.8793 0.0
C2095 C 0.56903 0.07857 0.87341 0.0
C2096 C 0.57327 0.03849 0.89361 0.0
C2097 C 0.56363 0.02892 0.90842 0.0
C2098 C 0.54002 0.01186 0.90915 0.0
C2099 C 0.52659 1.004 0.8947 0.0
C2100 C 0.53627 0.01355 0.87991 0.0
H2101 H 0.56928 0.09424 0.86841 0.0
H2102 H 0.55219 0.06818 0.87944 0.0
H2103 H 0.58353 0.08345 0.8827 0.0
H2104 H 0.59132 0.05192 0.89334 0.0
H2105 H 0.57458 0.03505 0.91931 0.0
H2106 H 0.13168 0.2202 0.56578 0.0
H2107 H 0.15418 0.24089 0.54225 0.0
H2108 H 0.14771 0.2991 0.55448 0.0
H2109 H 0.12621 0.27871 0.57833 0.0
H2110 H 0.13686 0.25574 0.51736 0.0
H2111 H 0.21581 0.32866 0.54338 0.0
H2112 H 0.197 0.30417 0.55535 0.0
H2113 H 0.18927 0.32619 0.55078 0.0
C2114 C 0.13566 0.23761 0.56358 0.0
C2115 C 0.12718 0.24791 0.57367 0.0
C2116 C 0.14838 0.24936 0.55017 0.0
C2117 C 0.15287 0.27164 0.54671 0.0
C2118 C 0.14494 0.28213 0.55709 0.0
H2119 H 0.18159 0.36036 0.46529 0.0
H2120 H 0.17425 0.34171 0.49183 0.0
C2121 C 0.13237 0.27041 0.57055 0.0
C2122 C 0.16352 0.28303 0.53139 0.0
H2123 H 0.2058 0.33262 0.51542 0.0
C2124 C 0.1522 0.27237 0.51694 0.0
C2125 C 0.18351 0.30475 0.53087 0.0
C2126 C 0.19724 0.3165 0.54594 0.0
C2127 C 0.15967 0.28324 0.50199 0.0
C2128 C 0.17908 0.30528 0.50151 0.0
C2129 C 0.19087 0.31573 0.5159 0.0
C2130 C 0.18632 0.31814 0.48616 0.0
C2131 C 0.14615 0.2715 0.48684 0.0
C2132 C 0.19613 0.3114 0.47439 0.0
C2133 C 0.2005 0.32211 0.45924 0.0
C2134 C 0.19509 0.33973 0.45561 0.0
C2135 C 0.18619 0.34703 0.46772 0.0
C2136 C 0.18189 0.33635 0.48287 0.0
H2137 H 0.12945 0.25597 0.48946 0.0
H2138 H 0.14205 0.28307 0.47904 0.0
H2139 H 0.1571 0.26663 0.47995 0.0
H2140 H 0.19988 0.29751 0.47681 0.0
H2141 H 0.20778 0.31636 0.45028 0.0
H2142 H 0.71649 0.86056 0.59362 0.0
H2143 H 0.70019 0.84969 0.56609 0.0
H2144 H 0.76815 0.86242 0.55129 0.0
H2145 H 0.78437 0.87336 0.57889 0.0
H2146 H 0.72011 0.88283 0.54088 0.0
H2147 H 0.72103 0.80312 0.52792 0.0
H2148 H 0.7211 0.81175 0.54818 0.0
H2149 H 0.74753 0.82506 0.53713 0.0
C2150 C 0.72765 0.8603 0.58454 0.0
C2151 C 0.75158 0.86775 0.58822 0.0
C2152 C 0.71841 0.85417 0.56887 0.0
C2153 C 0.73294 0.8552 0.55666 0.0
C2154 C 0.75654 0.86116 0.56058 0.0
H2155 H 0.71443 0.84966 0.45205 0.0
H2156 H 0.7294 0.85187 0.47998 0.0
C2157 C 0.76579 0.86734 0.5763 0.0
C2158 C 0.72425 0.85314 0.53962 0.0
H2159 H 0.71213 0.82173 0.50589 0.0
C2160 C 0.71823 0.8694 0.53325 0.0
C2161 C 0.72218 0.83581 0.52966 0.0
C2162 C 0.72812 0.8178 0.53603 0.0
C2163 C 0.7103 0.8689 0.51715 0.0
C2164 C 0.70773 0.8513 0.50723 0.0
C2165 C 0.714 0.83514 0.51354 0.0
C2166 C 0.69841 0.84939 0.49031 0.0
C2167 C 0.70525 0.88755 0.51084 0.0
C2168 C 0.67591 0.847 0.48685 0.0
C2169 C 0.66745 0.84607 0.47091 0.0
C2170 C 0.68118 0.84723 0.45806 0.0
C2171 C 0.70355 0.84915 0.46161 0.0
C2172 C 0.71205 0.85018 0.47757 0.0
H2173 H 0.71445 0.90285 0.51835 0.0
H2174 H 0.71067 0.89239 0.49823 0.0
H2175 H 0.68608 0.88157 0.51112 0.0
H2176 H 0.6649 0.84594 0.49649 0.0
H2177 H 0.65024 0.84476 0.46867 0.0
H2178 H 0.14079 0.87374 0.59051 0.0
H2179 H 0.14046 0.85864 0.56418 0.0
H2180 H 0.07988 0.86606 0.54866 0.0
H2181 H 0.08073 0.88175 0.575 0.0
H2182 H 0.10832 0.82326 0.54494 0.0
H2183 H 0.12926 0.90692 0.51678 0.0
H2184 H 0.13036 0.90262 0.53831 0.0
H2185 H 0.10254 0.89338 0.52754 0.0
C2186 C 0.12715 0.87164 0.58155 0.0
C2187 C 0.11092 0.87902 0.5846 0.0
C2188 C 0.12695 0.86306 0.56653 0.0
C2189 C 0.11051 0.86174 0.55429 0.0
C2190 C 0.09305 0.86739 0.5578 0.0
H2191 H 0.11248 0.83902 0.45131 0.0
H2192 H 0.10069 0.84448 0.47748 0.0
C2193 C 0.09331 0.87604 0.57286 0.0
C2194 C 0.113 0.85616 0.53766 0.0
H2195 H 0.12671 0.87897 0.49969 0.0
C2196 C 0.11216 0.83536 0.53502 0.0
C2197 C 0.11813 0.87202 0.5247 0.0
C2198 C 0.12035 0.89507 0.52692 0.0
C2199 C 0.11648 0.83008 0.51984 0.0
C2200 C 0.12215 0.84615 0.50702 0.0
C2201 C 0.12235 0.86667 0.50953 0.0
C2202 C 0.12907 0.84249 0.49114 0.0
C2203 C 0.11495 0.80732 0.51767 0.0
C2204 C 0.1492 0.84001 0.49007 0.0
C2205 C 0.15614 0.83713 0.47513 0.0
C2206 C 0.14312 0.83671 0.46087 0.0
C2207 C 0.12308 0.83948 0.46198 0.0
C2208 C 0.1162 0.84243 0.47695 0.0
H2209 H 0.10413 0.7948 0.52695 0.0
H2210 H 0.1073 0.80061 0.50556 0.0
H2211 H 0.13289 0.80914 0.51885 0.0
H2212 H 0.15978 0.84061 0.50079 0.0
H2213 H 0.17193 0.83554 0.47475 0.0
H2214 H 0.55881 0.80706 0.11422 0.0
H2215 H 0.57562 0.825 0.14026 0.0
H2216 H 0.64121 0.82712 0.13041 0.0
H2217 H 0.62459 0.81 0.10422 0.0
H2218 H 0.59015 0.80596 0.16438 0.0
H2219 H 0.66457 0.88914 0.14835 0.0
H2220 H 0.64162 0.87216 0.13385 0.0
H2221 H 0.66566 0.86642 0.13876 0.0
C2222 C 0.57701 0.81204 0.1175 0.0
C2223 C 0.59048 0.8072 0.10736 0.0
C2224 C 0.58656 0.82212 0.13236 0.0
C2225 C 0.60977 0.82763 0.13725 0.0
C2226 C 0.62347 0.82352 0.1268 0.0
H2227 H 0.69414 0.85236 0.22453 0.0
H2228 H 0.67713 0.846 0.19704 0.0
C2229 C 0.61394 0.81354 0.11193 0.0
C2230 C 0.61885 0.83534 0.15387 0.0
H2231 H 0.66575 0.87536 0.17546 0.0
C2232 C 0.60647 0.82134 0.16681 0.0
C2233 C 0.6402 0.85537 0.15704 0.0
C2234 C 0.65365 0.87175 0.14376 0.0
C2235 C 0.61533 0.82632 0.18276 0.0
C2236 C 0.63704 0.84595 0.18587 0.0
C2237 C 0.64915 0.86027 0.17301 0.0
C2238 C 0.64792 0.85124 0.20235 0.0
C2239 C 0.60189 0.81008 0.19613 0.0
C2240 C 0.63732 0.85669 0.21438 0.0
C2241 C 0.64709 0.86051 0.23012 0.0
C2242 C 0.66767 0.85897 0.2341 0.0
C2243 C 0.67847 0.85397 0.22188 0.0
C2244 C 0.66872 0.85023 0.20616 0.0
H2245 H 0.58772 0.79375 0.19144 0.0
H2246 H 0.61392 0.80665 0.2044 0.0
H2247 H 0.59369 0.81776 0.20323 0.0
H2248 H 0.62142 0.85786 0.21162 0.0
H2249 H 0.63854 0.86472 0.23914 0.0
H2250 H 0.23534 0.84038 0.10719 0.0
H2251 H 0.23105 0.85411 0.13304 0.0
H2252 H 0.25062 0.808 0.15837 0.0
H2253 H 0.25488 0.79449 0.13255 0.0
H2254 H 0.19754 0.82395 0.15422 0.0
H2255 H 0.28552 0.86506 0.18538 0.0
H2256 H 0.28156 0.86093 0.16388 0.0
H2257 H 0.27759 0.8379 0.1774 0.0
C2258 C 0.23975 0.83404 0.11832 0.0
C2259 C 0.24576 0.81668 0.118 0.0
C2260 C 0.23707 0.84166 0.13307 0.0
C2261 C 0.24066 0.83221 0.1477 0.0
C2262 C 0.24822 0.81591 0.14732 0.0
H2263 H 0.20599 0.82401 0.24759 0.0
H2264 H 0.22046 0.82181 0.2216 0.0
C2265 C 0.25072 0.80823 0.1326 0.0
C2266 C 0.2334 0.83689 0.16313 0.0
H2267 H 0.25249 0.85408 0.20175 0.0
C2268 C 0.20963 0.83085 0.16454 0.0
C2269 C 0.24908 0.84557 0.17668 0.0
C2270 C 0.27491 0.85294 0.17577 0.0
C2271 C 0.20096 0.83258 0.17922 0.0
C2272 C 0.2166 0.84116 0.19283 0.0
C2273 C 0.24047 0.84751 0.19135 0.0
C2274 C 0.20837 0.84318 0.20875 0.0
C2275 C 0.1749 0.82429 0.18013 0.0
C2276 C 0.19704 0.85619 0.21033 0.0
C2277 C 0.18838 0.8572 0.22513 0.0
C2278 C 0.19113 0.84545 0.23883 0.0
C2279 C 0.20309 0.83292 0.23729 0.0
C2280 C 0.21161 0.83183 0.22245 0.0
H2281 H 0.16466 0.81259 0.17022 0.0
H2282 H 0.16826 0.81542 0.19179 0.0
H2283 H 0.17156 0.83897 0.17903 0.0
H2284 H 0.19473 0.86551 0.20006 0.0
H2285 H 0.17914 0.86688 0.22572 0.0
H2286 H 0.20921 0.37519 0.10585 0.0
H2287 H 0.21113 0.36062 0.13318 0.0
H2288 H 0.26208 0.42796 0.14777 0.0
H2289 H 0.2591 0.44248 0.12059 0.0
H2290 H 0.24286 0.35975 0.15611 0.0
H2291 H 0.20701 0.41489 0.17462 0.0
H2292 H 0.20998 0.41084 0.1538 0.0
H2293 H 0.2352 0.42999 0.16582 0.0
C2294 C 0.22145 0.38658 0.1148 0.0
C2295 C 0.23415 0.40981 0.11129 0.0
C2296 C 0.22248 0.37835 0.13039 0.0
C2297 C 0.23629 0.39331 0.14262 0.0
C2298 C 0.25088 0.41621 0.13862 0.0
H2299 H 0.22874 0.37151 0.24697 0.0
H2300 H 0.24316 0.38621 0.22016 0.0
C2301 C 0.24951 0.42446 0.12309 0.0
C2302 C 0.23303 0.38546 0.1597 0.0
H2303 H 0.21339 0.39289 0.19498 0.0
C2304 C 0.23659 0.36709 0.16464 0.0
C2305 C 0.22452 0.39488 0.17079 0.0
C2306 C 0.21872 0.41358 0.166 0.0
C2307 C 0.23181 0.35789 0.18036 0.0
C2308 C 0.22324 0.36728 0.19133 0.0
C2309 C 0.22017 0.3859 0.18652 0.0
C2310 C 0.21593 0.35732 0.20758 0.0
C2311 C 0.23578 0.33811 0.18512 0.0
C2312 C 0.1958 0.33624 0.20934 0.0
C2313 C 0.18723 0.32794 0.22462 0.0
C2314 C 0.19867 0.3406 0.23844 0.0
C2315 C 0.21923 0.36149 0.2366 0.0
C2316 C 0.22766 0.36983 0.22131 0.0
H2317 H 0.24711 0.33599 0.17661 0.0
H2318 H 0.24403 0.34023 0.19745 0.0
H2319 H 0.21858 0.32239 0.18517 0.0
H2320 H 0.18623 0.32655 0.19884 0.0
H2321 H 0.17119 0.31198 0.22552 0.0
H2322 H 0.76922 0.55661 0.90227 0.0
H2323 H 0.78466 0.5721 0.87567 0.0
H2324 H 0.83921 0.63252 0.89796 0.0
H2325 H 0.82368 0.6169 0.92452 0.0
H2326 H 0.78706 0.61174 0.86273 0.0
H2327 H 0.87549 0.61759 0.8663 0.0
H2328 H 0.85288 0.6003 0.88012 0.0
H2329 H 0.86975 0.63034 0.88274 0.0
C2330 C 0.78464 0.57307 0.9014 0.0
C2331 C 0.79526 0.58572 0.91527 0.0
C2332 C 0.79349 0.58186 0.88629 0.0
C2333 C 0.8132 0.60337 0.88487 0.0
C2334 C 0.82429 0.61571 0.89881 0.0
H2335 H 0.87785 0.69504 0.80421 0.0
H2336 H 0.86757 0.67691 0.83091 0.0
C2337 C 0.81542 0.60687 0.91393 0.0
C2338 C 0.82072 0.6137 0.86872 0.0
H2339 H 0.86716 0.63642 0.84398 0.0
C2340 C 0.80451 0.61697 0.85858 0.0
C2341 C 0.84356 0.62068 0.86342 0.0
C2342 C 0.86139 0.6169 0.87364 0.0
C2343 C 0.81061 0.62733 0.84333 0.0
C2344 C 0.83342 0.63425 0.838 0.0
C2345 C 0.84969 0.63106 0.84814 0.0
C2346 C 0.84054 0.64478 0.82186 0.0
C2347 C 0.79276 0.63123 0.83321 0.0
C2348 C 0.82903 0.63254 0.80799 0.0
C2349 C 0.8347 0.64286 0.79278 0.0
C2350 C 0.85214 0.66559 0.79114 0.0
C2351 C 0.86412 0.67762 0.80508 0.0
C2352 C 0.8584 0.66725 0.82031 0.0
H2353 H 0.77845 0.63012 0.84054 0.0
H2354 H 0.80121 0.64806 0.82703 0.0
H2355 H 0.78466 0.61812 0.82386 0.0
H2356 H 0.81539 0.61508 0.80894 0.0
H2357 H 0.82497 0.63317 0.78233 0.0
H2358 H 0.44992 0.23025 0.90791 0.0
H2359 H 0.43387 0.2159 0.88087 0.0
H2360 H 0.37261 0.16104 0.90181 0.0
H2361 H 0.38889 0.17546 0.92891 0.0
H2362 H 0.41168 0.1669 0.86647 0.0
H2363 H 0.35292 0.20486 0.87256 0.0
H2364 H 0.37994 0.21404 0.88456 0.0
H2365 H 0.35501 0.18718 0.88878 0.0
C2366 C 0.43338 0.21476 0.90666 0.0
C2367 C 0.42052 0.20388 0.9203 0.0
C2368 C 0.42424 0.20659 0.8913 0.0
C2369 C 0.40202 0.18753 0.88939 0.0
C2370 C 0.3898 0.17578 0.90309 0.0
H2371 H 0.31161 0.15265 0.80204 0.0
H2372 H 0.32664 0.15328 0.82971 0.0
C2373 C 0.39908 0.18389 0.91849 0.0
C2374 C 0.39063 0.18173 0.8731 0.0
H2375 H 0.35143 0.18902 0.84777 0.0
C2376 C 0.39834 0.1715 0.86237 0.0
C2377 C 0.37327 0.18779 0.86787 0.0
C2378 C 0.36475 0.19918 0.87894 0.0
C2379 C 0.38914 0.16725 0.84641 0.0
C2380 C 0.37231 0.17403 0.84098 0.0
C2381 C 0.36431 0.18383 0.85189 0.0
C2382 C 0.36334 0.17198 0.82393 0.0
C2383 C 0.39739 0.15535 0.8356 0.0
C2384 C 0.37892 0.18228 0.81141 0.0
C2385 C 0.37038 0.18165 0.7955 0.0
C2386 C 0.34602 0.17102 0.79177 0.0
C2387 C 0.33046 0.16067 0.80436 0.0
C2388 C 0.33903 0.16115 0.82024 0.0
H2389 H 0.40369 0.14481 0.84271 0.0
H2390 H 0.38316 0.14439 0.82694 0.0
H2391 H 0.41233 0.16817 0.82869 0.0
H2392 H 0.39773 0.19126 0.81396 0.0
H2393 H 0.38292 0.18958 0.78614 0.0
H2394 H 0.7497 0.2165 0.91175 0.0
H2395 H 0.74794 0.19859 0.88619 0.0
H2396 H 0.81 0.19379 0.90183 0.0
H2397 H 0.81132 0.2112 0.92733 0.0
H2398 H 0.78258 0.21787 0.8646 0.0
H2399 H 0.7701 0.13279 0.88177 0.0
H2400 H 0.76421 0.14958 0.89521 0.0
H2401 H 0.79378 0.15438 0.89336 0.0
C2402 C 0.76237 0.21082 0.90985 0.0
C2403 C 0.7806 0.21507 0.92138 0.0
C2404 C 0.7615 0.20078 0.89526 0.0
C2405 C 0.77873 0.19464 0.89212 0.0
C2406 C 0.79622 0.19788 0.90406 0.0
H2407 H 0.84263 0.17043 0.81421 0.0
H2408 H 0.82976 0.17659 0.83964 0.0
C2409 C 0.79707 0.2079 0.91858 0.0
C2410 C 0.78029 0.18747 0.87579 0.0
H2411 H 0.78751 0.14798 0.85615 0.0
C2412 C 0.78318 0.20236 0.86268 0.0
C2413 C 0.78117 0.16728 0.87329 0.0
C2414 C 0.7769 0.14999 0.88664 0.0
C2415 C 0.78815 0.1982 0.84736 0.0
C2416 C 0.78998 0.17847 0.84503 0.0
C2417 C 0.78624 0.16317 0.85798 0.0
C2418 C 0.79716 0.17412 0.82952 0.0
C2419 C 0.79252 0.21548 0.83397 0.0
C2420 C 0.78301 0.17049 0.81537 0.0
C2421 C 0.79027 0.16683 0.80078 0.0
C2422 C 0.8118 0.16664 0.80006 0.0
C2423 C 0.82581 0.17015 0.81432 0.0
C2424 C 0.81853 0.17376 0.82888 0.0
H2425 H 0.79484 0.2317 0.83851 0.0
H2426 H 0.80842 0.21894 0.82748 0.0
H2427 H 0.77729 0.20877 0.82519 0.0
H2428 H 0.76627 0.17034 0.81564 0.0
H2429 H 0.77885 0.16383 0.79011 0.0
H2430 H 0.27707 0.16183 0.43408 0.0
H2431 H 0.29526 0.17736 0.46061 0.0
H2432 H 0.23401 0.12548 0.48363 0.0
H2433 H 0.21605 0.11004 0.45718 0.0
H2434 H 0.27949 0.19138 0.48884 0.0
H2435 H 0.29047 0.115 0.4998 0.0
H2436 H 0.28389 0.12321 0.48002 0.0
H2437 H 0.26103 0.1094 0.49416 0.0
C2438 C 0.26738 0.15425 0.44484 0.0
C2439 C 0.24538 0.13474 0.4438 0.0
C2440 C 0.27772 0.16301 0.45992 0.0
C2441 C 0.26609 0.15229 0.47404 0.0
C2442 C 0.24336 0.13378 0.47287 0.0
H2443 H 0.29975 0.1857 0.57477 0.0
H2444 H 0.2825 0.1787 0.5473 0.0
C2445 C 0.23312 0.12503 0.45785 0.0
C2446 C 0.27844 0.15897 0.48999 0.0
H2447 H 0.29995 0.1395 0.52171 0.0
C2448 C 0.28405 0.18012 0.49604 0.0
C2449 C 0.28465 0.14433 0.4992 0.0
C2450 C 0.27992 0.12179 0.49296 0.0
C2451 C 0.29524 0.18679 0.51133 0.0
C2452 C 0.30073 0.1718 0.52075 0.0
C2453 C 0.29558 0.15089 0.5145 0.0
C2454 C 0.31172 0.1773 0.53719 0.0
C2455 C 0.3013 0.20985 0.51724 0.0
C2456 C 0.33367 0.17844 0.54065 0.0
C2457 C 0.34347 0.18219 0.55635 0.0
C2458 C 0.33138 0.18468 0.56893 0.0
C2459 C 0.30941 0.18364 0.56539 0.0
C2460 C 0.29966 0.17994 0.54966 0.0
H2461 H 0.30114 0.22125 0.50721 0.0
H2462 H 0.28815 0.20805 0.52592 0.0
H2463 H 0.3189 0.21787 0.52353 0.0
H2464 H 0.34314 0.17623 0.5312 0.0
H2465 H 0.36027 0.18262 0.5587 0.0
H2466 H 0.88058 0.16645 0.43678 0.0
H2467 H 0.87553 0.17993 0.46245 0.0
H2468 H 0.92291 0.15892 0.48626 0.0
H2469 H 0.92788 0.14562 0.46054 0.0
H2470 H 0.85587 0.14963 0.48755 0.0
H2471 H 0.94254 0.21899 0.50788 0.0
H2472 H 0.93567 0.21026 0.48717 0.0
H2473 H 0.94364 0.19434 0.50177 0.0
C2474 C 0.89077 0.16583 0.44739 0.0
C2475 C 0.90512 0.15565 0.44671 0.0
C2476 C 0.8877 0.17326 0.46206 0.0
C2477 C 0.899 0.17065 0.47631 0.0
C2478 C 0.91445 0.16166 0.47542 0.0
H2479 H 0.88463 0.16644 0.57849 0.0
H2480 H 0.89618 0.16762 0.55095 0.0
C2481 C 0.91744 0.15419 0.46073 0.0
C2482 C 0.8921 0.17423 0.49225 0.0
H2483 H 0.91383 0.20127 0.52799 0.0
C2484 C 0.86847 0.16119 0.49631 0.0
C2485 C 0.90857 0.18914 0.50374 0.0
C2486 C 0.93399 0.20415 0.4999 0.0
C2487 C 0.86104 0.16198 0.51169 0.0
C2488 C 0.87757 0.17664 0.5233 0.0
C2489 C 0.90112 0.19006 0.51912 0.0
C2490 C 0.87105 0.1772 0.5401 0.0
C2491 C 0.83574 0.14629 0.51559 0.0
C2492 C 0.85333 0.18262 0.54332 0.0
C2493 C 0.84638 0.18163 0.55913 0.0
C2494 C 0.85713 0.17533 0.57208 0.0
C2495 C 0.8755 0.17078 0.56883 0.0
C2496 C 0.88233 0.17169 0.55306 0.0
H2497 H 0.82693 0.13238 0.50684 0.0
H2498 H 0.83452 0.13872 0.52787 0.0
H2499 H 0.82595 0.156 0.51512 0.0
H2500 H 0.84468 0.18741 0.53358 0.0
H2501 H 0.83222 0.18527 0.56114 0.0
H2502 H 0.9275 0.77128 0.45739 0.0
H2503 H 0.9334 0.75433 0.48283 0.0
H2504 H 0.86666 0.69461 0.47402 0.0
H2505 H 0.86136 0.71135 0.44845 0.0
H2506 H 0.90464 0.74523 0.50684 0.0
H2507 H 0.90498 0.66629 0.49284 0.0
H2508 H 0.91007 0.68819 0.47779 0.0
H2509 H 0.88052 0.66752 0.48262 0.0
C2510 C 0.91471 0.75416 0.46063 0.0
C2511 C 0.8941 0.74242 0.45106 0.0
C2512 C 0.91796 0.74455 0.47517 0.0
C2513 C 0.90063 0.72306 0.48025 0.0
C2514 C 0.88059 0.71091 0.4702 0.0
H2515 H 0.83539 0.64882 0.56248 0.0
H2516 H 0.85039 0.66394 0.5359 0.0
C2517 C 0.87743 0.72049 0.45568 0.0
C2518 C 0.90135 0.71481 0.49699 0.0
H2519 H 0.89056 0.66714 0.51912 0.0
C2520 C 0.90222 0.72839 0.50958 0.0
C2521 C 0.89817 0.69282 0.50055 0.0
C2522 C 0.89864 0.678 0.48771 0.0
C2523 C 0.89825 0.71999 0.52547 0.0
C2524 C 0.89354 0.6975 0.52885 0.0
C2525 C 0.89402 0.68434 0.51644 0.0
C2526 C 0.88569 0.68673 0.5448 0.0
C2527 C 0.89761 0.73472 0.53835 0.0
C2528 C 0.90077 0.69421 0.55854 0.0
C2529 C 0.89226 0.68556 0.57377 0.0
C2530 C 0.86854 0.66924 0.57548 0.0
C2531 C 0.85378 0.66119 0.56158 0.0
C2532 C 0.8623 0.66984 0.54639 0.0
H2533 H 0.89827 0.75053 0.53327 0.0
H2534 H 0.88141 0.72537 0.54526 0.0
H2535 H 0.91294 0.73943 0.54691 0.0
H2536 H 0.91896 0.70707 0.55751 0.0
H2537 H 0.90419 0.6918 0.58422 0.0
loop_
_geom_bond_atom_site_label_1
_geom_bond_atom_site_label_2
_geom_bond_distance
_geom_bond_site_symmetry_2
_ccdc_geom_bond_type
C0 N1 1.317 . S
C0 N2 1.348 . S
C0 C3 1.485 . S
N1 C0 1.317 . S
N1 N5 1.370 . S
N2 C0 1.348 . S
N2 C4 1.346 . S
C3 C0 1.485 . S
C3 H7 0.960 . S
C3 H8 0.961 . S
C3 H9 0.960 . S
C4 N2 1.346 . S
C4 N5 1.307 . S
C4 C6 1.486 . S
N5 N1 1.370 . S
N5 C4 1.307 . S
C6 C4 1.486 . S
C6 H10 0.960 . S
C6 H11 0.960 . S
C6 H12 0.959 . S
H7 C3 0.960 . S
H8 C3 0.961 . S
H9 C3 0.960 . S
H10 C6 0.960 . S
H11 C6 0.960 . S
H12 C6 0.959 . S
C13 N14 1.317 . S
C13 N15 1.348 . S
C13 C16 1.485 . S
N14 C13 1.317 . S
N14 N18 1.370 . S
N15 C13 1.348 . S
N15 C17 1.346 . S
C16 C13 1.485 . S
C16 H20 0.960 . S
C16 H21 0.961 . S
C16 H22 0.960 . S
C17 N15 1.346 . S
C17 N18 1.307 . S
C17 C19 1.486 . S
N18 N14 1.370 . S
N18 C17 1.307 . S
C19 C17 1.486 . S
C19 H23 0.960 . S
C19 H24 0.960 . S
C19 H25 0.959 . S
H20 C16 0.960 . S
H21 C16 0.961 . S
H22 C16 0.960 . S
H23 C19 0.960 . S
H24 C19 0.960 . S
H25 C19 0.959 . S
C26 N27 1.317 . S
C26 N28 1.348 . S
C26 C29 1.485 . S
N27 C26 1.317 . S
N27 N31 1.370 . S
N28 C26 1.348 . S
N28 C30 1.346 . S
C29 C26 1.485 . S
C29 H33 0.960 . S
C29 H34 0.961 . S
C29 H35 0.960 . S
C30 N28 1.346 . S
C30 N31 1.307 . S
C30 C32 1.486 . S
N31 N27 1.370 . S
N31 C30 1.307 . S
C32 C30 1.486 . S
C32 H36 0.960 . S
C32 H37 0.960 . S
C32 H38 0.959 . S
H33 C29 0.960 . S
H34 C29 0.961 . S
H35 C29 0.960 . S
H36 C32 0.960 . S
H37 C32 0.960 . S
H38 C32 0.959 . S
C39 N40 1.317 . S
C39 N41 1.348 . S
C39 C42 1.485 . S
N40 C39 1.317 . S
N40 N44 1.370 . S
N41 C39 1.348 . S
N41 C43 1.346 . S
C42 C39 1.485 . S
C42 H46 0.960 . S
C42 H47 0.961 . S
C42 H48 0.960 . S
C43 N41 1.346 . S
C43 N44 1.307 . S
C43 C45 1.486 . S
N44 N40 1.370 . S
N44 C43 1.307 . S
C45 C43 1.486 . S
C45 H49 0.960 . S
C45 H50 0.960 . S
C45 H51 0.959 . S
H46 C42 0.960 . S
H47 C42 0.961 . S
H48 C42 0.960 . S
H49 C45 0.960 . S
H50 C45 0.960 . S
H51 C45 0.959 . S
C52 N53 1.317 . S
C52 N54 1.348 . S
C52 C55 1.485 . S
N53 C52 1.317 . S
N53 N57 1.370 . S
N54 C52 1.348 . S
N54 C56 1.346 . S
C55 C52 1.485 . S
C55 H59 0.960 . S
C55 H60 0.961 . S
C55 H61 0.960 . S
C56 N54 1.346 . S
C56 N57 1.307 . S
C56 C58 1.486 . S
N57 N53 1.370 . S
N57 C56 1.307 . S
C58 C56 1.486 . S
C58 H62 0.960 . S
C58 H63 0.960 . S
C58 H64 0.959 . S
H59 C55 0.960 . S
H60 C55 0.961 . S
H61 C55 0.960 . S
H62 C58 0.960 . S
H63 C58 0.960 . S
H64 C58 0.959 . S
C65 N66 1.317 . S
C65 N67 1.348 . S
C65 C68 1.485 . S
N66 C65 1.317 . S
N66 N70 1.370 . S
N67 C65 1.348 . S
N67 C69 1.346 . S
C68 C65 1.485 . S
C68 H72 0.960 . S
C68 H73 0.961 . S
C68 H74 0.960 . S
C69 N67 1.346 . S
C69 N70 1.307 . S
C69 C71 1.486 . S
N70 N66 1.370 . S
N70 C69 1.307 . S
C71 C69 1.486 . S
C71 H75 0.960 . S
C71 H76 0.960 . S
C71 H77 0.959 . S
H72 C68 0.960 . S
H73 C68 0.961 . S
H74 C68 0.960 . S
H75 C71 0.960 . S
H76 C71 0.960 . S
H77 C71 0.959 . S
C78 N79 1.317 . S
C78 N80 1.348 . S
C78 C81 1.485 . S
N79 C78 1.317 . S
N79 N83 1.370 . S
N80 C78 1.348 . S
N80 C82 1.346 . S
C81 C78 1.485 . S
C81 H85 0.960 . S
C81 H86 0.961 . S
C81 H87 0.960 . S
C82 N80 1.346 . S
C82 N83 1.307 . S
C82 C84 1.486 . S
N83 N79 1.370 . S
N83 C82 1.307 . S
C84 C82 1.486 . S
C84 H88 0.960 . S
C84 H89 0.960 . S
C84 H90 0.959 . S
H85 C81 0.960 . S
H86 C81 0.961 . S
H87 C81 0.960 . S
H88 C84 0.960 . S
H89 C84 0.960 . S
H90 C84 0.959 . S
C91 N92 1.317 . S
C91 N93 1.348 . S
C91 C94 1.485 . S
N92 C91 1.317 . S
N92 N96 1.370 . S
N93 C91 1.348 . S
N93 C95 1.346 . S
C94 C91 1.485 . S
C94 H98 0.960 . S
C94 H99 0.961 . S
C94 H100 0.960 . S
C95 N93 1.346 . S
C95 N96 1.307 . S
C95 C97 1.486 . S
N96 N92 1.370 . S
N96 C95 1.307 . S
C97 C95 1.486 . S
C97 H101 0.960 . S
C97 H102 0.960 . S
C97 H103 0.959 . S
H98 C94 0.960 . S
H99 C94 0.961 . S
H100 C94 0.960 . S
H101 C97 0.960 . S
H102 C97 0.960 . S
H103 C97 0.959 . S
C104 N105 1.317 . S
C104 N106 1.348 . S
C104 C107 1.485 . S
N105 C104 1.317 . S
N105 N109 1.370 . S
N106 C104 1.348 . S
N106 C108 1.346 . S
C107 C104 1.485 . S
C107 H111 0.960 . S
C107 H112 0.961 . S
C107 H113 0.960 . S
C108 N106 1.346 . S
C108 N109 1.307 . S
C108 C110 1.486 . S
N109 N105 1.370 . S
N109 C108 1.307 . S
C110 C108 1.486 . S
C110 H114 0.960 . S
C110 H115 0.960 . S
C110 H116 0.959 . S
H111 C107 0.960 . S
H112 C107 0.961 . S
H113 C107 0.960 . S
H114 C110 0.960 . S
H115 C110 0.960 . S
H116 C110 0.959 . S
C117 N118 1.317 . S
C117 N119 1.348 . S
C117 C120 1.485 . S
N118 C117 1.317 . S
N118 N122 1.370 . S
N119 C117 1.348 . S
N119 C121 1.346 . S
C120 C117 1.485 . S
C120 H124 0.960 . S
C120 H125 0.961 . S
C120 H126 0.960 . S
C121 N119 1.346 . S
C121 N122 1.307 . S
C121 C123 1.486 . S
N122 N118 1.370 . S
N122 C121 1.307 . S
C123 C121 1.486 . S
C123 H127 0.960 . S
C123 H128 0.960 . S
C123 H129 0.959 . S
H124 C120 0.960 . S
H125 C120 0.961 . S
H126 C120 0.960 . S
H127 C123 0.960 . S
H128 C123 0.960 . S
H129 C123 0.959 . S
C130 N131 1.317 . S
C130 N132 1.348 . S
C130 C133 1.478 . S
N131 C130 1.317 . S
N131 N135 1.370 . S
N132 C130 1.348 . S
N132 C134 1.346 . S
C133 C130 1.478 . S
C133 H137 0.965 1_556 S
C133 H138 0.964 1_556 S
C133 H139 0.958 . S
C134 N132 1.346 . S
C134 N135 1.307 . S
C134 C136 1.486 . S
N135 N131 1.370 . S
N135 C134 1.307 . S
C136 C134 1.486 . S
C136 H140 0.960 . S
C136 H141 0.960 . S
C136 H142 0.959 . S
H137 C133 0.965 1_554 S
H138 C133 0.964 1_554 S
H139 C133 0.958 . S
H140 C136 0.960 . S
H141 C136 0.960 . S
H142 C136 0.959 . S
C143 N144 1.317 . S
C143 N145 1.348 . S
C143 C146 1.485 . S
N144 C143 1.317 . S
N144 N148 1.370 . S
N145 C143 1.348 . S
N145 C147 1.346 . S
C146 C143 1.485 . S
C146 H150 0.960 . S
C146 H151 0.961 1_556 S
C146 H152 0.960 . S
C147 N145 1.346 . S
C147 N148 1.307 . S
C147 C149 1.486 . S
N148 N144 1.370 . S
N148 C147 1.307 . S
C149 C147 1.486 . S
C149 H153 0.960 . S
C149 H154 0.960 . S
C149 H155 0.959 . S
H150 C146 0.960 . S
H151 C146 0.961 1_554 S
H152 C146 0.960 . S
H153 C149 0.960 . S
H154 C149 0.960 . S
H155 C149 0.959 . S
C156 N157 1.317 . S
C156 N158 1.348 . S
C156 C159 1.485 . S
N157 C156 1.317 . S
N157 N161 1.370 . S
N158 C156 1.348 . S
N158 C160 1.346 . S
C159 C156 1.485 . S
C159 H163 0.960 . S
C159 H164 0.961 . S
C159 H165 0.960 . S
C160 N158 1.346 . S
C160 N161 1.307 . S
C160 C162 1.486 . S
N161 N157 1.370 . S
N161 C160 1.307 . S
C162 C160 1.486 . S
C162 H166 0.960 . S
C162 H167 0.960 . S
C162 H168 0.959 . S
H163 C159 0.960 . S
H164 C159 0.961 . S
H165 C159 0.960 . S
H166 C162 0.960 . S
H167 C162 0.960 . S
H168 C162 0.959 . S
C169 N170 1.317 . S
C169 N171 1.348 . S
C169 C172 1.485 . S
N170 C169 1.317 . S
N170 N174 1.370 . S
N171 C169 1.348 . S
N171 C173 1.346 . S
C172 C169 1.485 . S
C172 H176 0.960 . S
C172 H177 0.961 . S
C172 H178 0.960 . S
C173 N171 1.346 . S
C173 N174 1.307 . S
C173 C175 1.486 . S
N174 N170 1.370 . S
N174 C173 1.307 . S
C175 C173 1.486 . S
C175 H179 0.960 . S
C175 H180 0.960 . S
C175 H181 0.959 . S
H176 C172 0.960 . S
H177 C172 0.961 . S
H178 C172 0.960 . S
H179 C175 0.960 . S
H180 C175 0.960 . S
H181 C175 0.959 . S
C182 N183 1.317 . S
C182 N184 1.348 . S
C182 C185 1.485 . S
N183 C182 1.317 . S
N183 N187 1.370 . S
N184 C182 1.348 . S
N184 C186 1.346 . S
C185 C182 1.485 . S
C185 H189 0.960 . S
C185 H190 0.961 . S
C185 H191 0.960 . S
C186 N184 1.346 . S
C186 N187 1.307 . S
C186 C188 1.486 . S
N187 N183 1.370 . S
N187 C186 1.307 . S
C188 C186 1.486 . S
C188 H192 0.960 . S
C188 H193 0.960 . S
C188 H194 0.959 . S
H189 C185 0.960 . S
H190 C185 0.961 . S
H191 C185 0.960 . S
H192 C188 0.960 . S
H193 C188 0.960 . S
H194 C188 0.959 . S
C195 N196 1.317 . S
C195 N197 1.348 . S
C195 C198 1.485 . S
N196 C195 1.317 . S
N196 N200 1.370 . S
N197 C195 1.348 . S
N197 C199 1.346 . S
C198 C195 1.485 . S
C198 H202 0.960 . S
C198 H203 0.961 . S
C198 H204 0.960 . S
C199 N197 1.346 . S
C199 N200 1.307 . S
C199 C201 1.486 . S
N200 N196 1.370 . S
N200 C199 1.307 . S
C201 C199 1.486 . S
C201 H205 0.960 . S
C201 H206 0.960 . S
C201 H207 0.959 . S
H202 C198 0.960 . S
H203 C198 0.961 . S
H204 C198 0.960 . S
H205 C201 0.960 . S
H206 C201 0.960 . S
H207 C201 0.959 . S
C208 N209 1.317 . S
C208 N210 1.348 . S
C208 C211 1.485 . S
N209 C208 1.317 . S
N209 N213 1.370 . S
N210 C208 1.348 . S
N210 C212 1.346 . S
C211 C208 1.485 . S
C211 H215 0.960 . S
C211 H216 0.961 . S
C211 H217 0.960 . S
C212 N210 1.346 . S
C212 N213 1.307 . S
C212 C214 1.486 . S
N213 N209 1.370 . S
N213 C212 1.307 . S
C214 C212 1.486 . S
C214 H218 0.960 . S
C214 H219 0.960 . S
C214 H220 0.959 . S
H215 C211 0.960 . S
H216 C211 0.961 . S
H217 C211 0.960 . S
H218 C214 0.960 . S
H219 C214 0.960 . S
H220 C214 0.959 . S
C221 N222 1.317 . S
C221 N223 1.348 . S
C221 C224 1.485 . S
N222 C221 1.317 . S
N222 N226 1.370 . S
N223 C221 1.348 . S
N223 C225 1.346 . S
C224 C221 1.485 . S
C224 H228 0.960 . S
C224 H229 0.961 . S
C224 H230 0.960 . S
C225 N223 1.346 . S
C225 N226 1.307 . S
C225 C227 1.486 . S
N226 N222 1.370 . S
N226 C225 1.307 . S
C227 C225 1.486 . S
C227 H231 0.960 . S
C227 H232 0.960 . S
C227 H233 0.959 . S
H228 C224 0.960 . S
H229 C224 0.961 . S
H230 C224 0.960 . S
H231 C227 0.960 . S
H232 C227 0.960 . S
H233 C227 0.959 . S
Eu234 C243 2.828 1_565 S
Eu234 O245 2.392 1_556 S
Eu234 O247 2.418 . S
Eu234 O252 2.373 1_565 S
Eu234 O255 2.488 . S
Eu234 O256 2.471 1_565 S
Eu234 O257 2.349 1_566 S
Eu235 O244 2.373 1_545 S
Eu235 O248 2.488 . S
Eu235 O249 2.471 1_545 S
Eu235 O250 2.349 1_545 S
Eu235 O253 2.392 . S
Eu235 O254 2.418 . S
Eu235 C264 2.828 1_545 S
C236 O254 1.244 . S
C236 O257 1.265 . S
C237 C238 1.379 . S
C237 C241 1.373 . S
C237 C243 1.505 . S
C238 C237 1.379 . S
C238 C240 1.369 . S
C238 H266 0.930 . S
C239 C241 1.383 . S
C239 C242 1.382 . S
C239 H267 0.930 . S
C240 C238 1.369 . S
C240 C242 1.392 . S
C240 H268 0.930 . S
C241 C237 1.373 . S
C241 C239 1.383 . S
C241 H269 0.931 1_545 S
C242 C239 1.382 . S
C242 C240 1.392 . S
C243 Eu234 2.828 1_545 S
C243 C237 1.505 . S
C243 O255 1.249 1_545 S
C243 O256 1.244 . S
O244 Eu235 2.373 1_565 S
O244 C246 1.258 . S
O245 Eu234 2.392 1_554 S
O245 C246 1.242 . S
C246 O244 1.258 . S
C246 O245 1.242 . S
O247 Eu234 2.418 . S
O247 C251 1.244 1_556 S
O248 Eu235 2.488 . S
O248 C264 1.249 1_545 S
O249 Eu235 2.471 1_565 S
O249 C264 1.244 . S
O250 Eu235 2.349 1_565 S
O250 C251 1.265 . S
C251 O247 1.244 1_554 S
C251 O250 1.265 . S
O252 Eu234 2.373 1_545 S
O252 C265 1.258 1_556 S
O253 Eu235 2.392 . S
O253 C265 1.242 . S
O254 Eu235 2.418 . S
O254 C236 1.244 . S
O255 Eu234 2.488 . S
O255 C243 1.249 1_565 S
O256 Eu234 2.471 1_545 S
O256 C243 1.244 . S
O257 Eu234 2.349 1_544 S
O257 C236 1.265 . S
C258 C259 1.379 . S
C258 C262 1.373 . S
C258 C264 1.505 . S
C259 C258 1.379 . S
C259 C261 1.369 . S
C259 H270 0.930 . S
C260 C262 1.383 . S
C260 C263 1.382 . S
C260 H271 0.930 . S
C261 C259 1.369 . S
C261 C263 1.392 . S
C261 H272 0.930 . S
C262 C258 1.373 . S
C262 C260 1.383 . S
C262 H273 0.931 1_565 S
C263 C260 1.382 . S
C263 C261 1.392 . S
C264 Eu235 2.828 1_565 S
C264 O248 1.249 1_565 S
C264 O249 1.244 . S
C264 C258 1.505 . S
C265 O252 1.258 1_554 S
C265 O253 1.242 . S
H266 C238 0.930 . S
H267 C239 0.930 . S
H268 C240 0.930 . S
H269 C241 0.931 1_565 S
H270 C259 0.930 . S
H271 C260 0.930 . S
H272 C261 0.930 . S
H273 C262 0.931 1_545 S
Eu274 C283 2.828 . S
Eu274 O285 2.392 1_556 S
Eu274 O287 2.418 . S
Eu274 O292 2.373 1_455 S
Eu274 O295 2.488 . S
Eu274 O296 2.467 1_455 S
Eu274 O297 2.349 1_455 S
Eu275 O284 2.373 1_655 S
Eu275 O288 2.488 . S
Eu275 O289 2.471 1_655 S
Eu275 O290 2.349 1_655 S
Eu275 O293 2.392 . S
Eu275 O294 2.418 . S
Eu275 C304 2.828 1_655 S
C276 O294 1.244 . S
C276 O297 1.265 1_554 S
C277 C278 1.375 1_455 S
C277 C281 1.375 . S
C277 C283 1.507 . S
C278 C277 1.375 1_655 S
C278 C280 1.369 . S
C278 H306 0.930 . S
C279 C281 1.383 . S
C279 C282 1.382 1_455 S
C279 H307 0.930 . S
C280 C278 1.369 . S
C280 C282 1.392 . S
C280 H308 0.930 . S
C281 C277 1.375 . S
C281 C279 1.383 . S
C281 H309 0.931 . S
C282 C279 1.382 1_655 S
C282 C280 1.392 . S
C283 Eu274 2.828 . S
C283 C277 1.507 . S
C283 O295 1.249 . S
C283 O296 1.244 1_455 S
O284 Eu275 2.373 1_455 S
O284 C286 1.258 . S
O285 Eu274 2.392 1_554 S
O285 C286 1.242 . S
C286 O284 1.258 . S
C286 O285 1.242 . S
O287 Eu274 2.418 . S
O287 C291 1.244 1_556 S
O288 Eu275 2.488 . S
O288 C304 1.249 1_655 S
O289 Eu275 2.471 1_455 S
O289 C304 1.244 . S
O290 Eu275 2.349 1_455 S
O290 C291 1.265 . S
C291 O287 1.244 1_554 S
C291 O290 1.265 . S
O292 Eu274 2.373 1_655 S
O292 C305 1.258 . S
O293 Eu275 2.392 . S
O293 C305 1.242 1_554 S
O294 Eu275 2.418 . S
O294 C276 1.244 . S
O295 Eu274 2.488 . S
O295 C283 1.249 . S
O296 Eu274 2.467 1_655 S
O296 C283 1.244 1_655 S
O297 Eu274 2.349 1_655 S
O297 C276 1.265 1_556 S
C298 C299 1.379 . S
C298 C302 1.373 . S
C298 C304 1.505 . S
C299 C298 1.379 . S
C299 C301 1.369 . S
C299 H310 0.930 . S
C300 C302 1.383 . S
C300 C303 1.382 . S
C300 H311 0.930 . S
C301 C299 1.369 . S
C301 C303 1.392 . S
C301 H312 0.930 . S
C302 C298 1.373 . S
C302 C300 1.383 . S
C302 H313 0.931 1_455 S
C303 C300 1.382 . S
C303 C301 1.392 . S
C304 Eu275 2.828 1_455 S
C304 O288 1.249 1_455 S
C304 O289 1.244 . S
C304 C298 1.505 . S
C305 O292 1.258 . S
C305 O293 1.242 1_556 S
H306 C278 0.930 . S
H307 C279 0.930 . S
H308 C280 0.930 . S
H309 C281 0.931 . S
H310 C299 0.930 . S
H311 C300 0.930 . S
H312 C301 0.930 . S
H313 C302 0.931 1_655 S
Eu314 C323 2.828 . S
Eu314 O325 2.392 . S
Eu314 O327 2.418 . S
Eu314 O332 2.373 . S
Eu314 O335 2.488 . S
Eu314 O336 2.471 . S
Eu314 O337 2.349 . S
Eu315 O324 2.373 . S
Eu315 O328 2.488 . S
Eu315 O329 2.471 . S
Eu315 O330 2.349 1_556 S
Eu315 O333 2.392 1_556 S
Eu315 O334 2.418 1_556 S
Eu315 C344 2.828 . S
C316 O334 1.244 . S
C316 O337 1.265 . S
C317 C318 1.379 . S
C317 C321 1.373 . S
C317 C323 1.505 . S
C318 C317 1.379 . S
C318 C320 1.369 . S
C318 H346 0.930 . S
C319 C321 1.383 . S
C319 C322 1.382 . S
C319 H347 0.930 . S
C320 C318 1.369 . S
C320 C322 1.392 . S
C320 H348 0.930 . S
C321 C317 1.373 . S
C321 C319 1.383 . S
C321 H349 0.931 . S
C322 C319 1.382 . S
C322 C320 1.392 . S
C323 Eu314 2.828 . S
C323 C317 1.505 . S
C323 O335 1.249 . S
C323 O336 1.244 . S
O324 Eu315 2.373 . S
O324 C326 1.258 1_556 S
O325 Eu314 2.392 . S
O325 C326 1.242 . S
C326 O324 1.258 1_554 S
C326 O325 1.242 . S
O327 Eu314 2.418 . S
O327 C331 1.244 . S
O328 Eu315 2.488 . S
O328 C344 1.249 . S
O329 Eu315 2.471 . S
O329 C344 1.244 . S
O330 Eu315 2.349 1_554 S
O330 C331 1.265 . S
C331 O327 1.244 . S
C331 O330 1.265 . S
O332 Eu314 2.373 . S
O332 C345 1.258 . S
O333 Eu315 2.392 1_554 S
O333 C345 1.242 . S
O334 Eu315 2.418 1_554 S
O334 C316 1.244 . S
O335 Eu314 2.488 . S
O335 C323 1.249 . S
O336 Eu314 2.471 . S
O336 C323 1.244 . S
O337 Eu314 2.349 . S
O337 C316 1.265 . S
C338 C339 1.379 . S
C338 C342 1.373 . S
C338 C344 1.505 . S
C339 C338 1.379 . S
C339 C341 1.369 . S
C339 H350 0.930 . S
C340 C342 1.383 . S
C340 C343 1.382 . S
C340 H351 0.930 . S
C341 C339 1.369 . S
C341 C343 1.392 . S
C341 H352 0.930 . S
C342 C338 1.373 . S
C342 C340 1.383 . S
C342 H353 0.931 . S
C343 C340 1.382 . S
C343 C341 1.392 . S
C344 Eu315 2.828 . S
C344 O328 1.249 . S
C344 O329 1.244 . S
C344 C338 1.505 . S
C345 O332 1.258 . S
C345 O333 1.242 . S
H346 C318 0.930 . S
H347 C319 0.930 . S
H348 C320 0.930 . S
H349 C321 0.931 . S
H350 C339 0.930 . S
H351 C340 0.930 . S
H352 C341 0.930 . S
H353 C342 0.931 . S
Eu354 C363 2.828 . S
Eu354 O365 2.392 . S
Eu354 O367 2.418 . S
Eu354 O372 2.373 . S
Eu354 O375 2.488 . S
Eu354 O376 2.471 . S
Eu354 O377 2.349 . S
Eu355 O364 2.373 . S
Eu355 O368 2.488 . S
Eu355 O369 2.471 . S
Eu355 O370 2.349 . S
Eu355 O373 2.392 . S
Eu355 O374 2.418 . S
Eu355 C384 2.828 . S
C356 O374 1.244 . S
C356 O377 1.265 . S
C357 C358 1.379 . S
C357 C361 1.373 . S
C357 C363 1.505 . S
C358 C357 1.379 . S
C358 C360 1.369 . S
C358 H386 0.930 . S
C359 C361 1.383 . S
C359 C362 1.382 . S
C359 H387 0.930 . S
C360 C358 1.369 . S
C360 C362 1.392 . S
C360 H388 0.930 . S
C361 C357 1.373 . S
C361 C359 1.383 . S
C361 H389 0.931 . S
C362 C359 1.382 . S
C362 C360 1.392 . S
C363 Eu354 2.828 . S
C363 C357 1.505 . S
C363 O375 1.249 . S
C363 O376 1.244 . S
O364 Eu355 2.373 . S
O364 C366 1.258 . S
O365 Eu354 2.392 . S
O365 C366 1.242 . S
C366 O364 1.258 . S
C366 O365 1.242 . S
O367 Eu354 2.418 . S
O367 C371 1.244 . S
O368 Eu355 2.488 . S
O368 C384 1.249 . S
O369 Eu355 2.471 . S
O369 C384 1.244 . S
O370 Eu355 2.349 . S
O370 C371 1.265 . S
C371 O367 1.244 . S
C371 O370 1.265 . S
O372 Eu354 2.373 . S
O372 C385 1.258 . S
O373 Eu355 2.392 . S
O373 C385 1.242 . S
O374 Eu355 2.418 . S
O374 C356 1.244 . S
O375 Eu354 2.488 . S
O375 C363 1.249 . S
O376 Eu354 2.471 . S
O376 C363 1.244 . S
O377 Eu354 2.349 . S
O377 C356 1.265 . S
C378 C379 1.379 . S
C378 C382 1.373 . S
C378 C384 1.505 . S
C379 C378 1.379 . S
C379 C381 1.369 . S
C379 H390 0.930 . S
C380 C382 1.383 . S
C380 C383 1.382 . S
C380 H391 0.930 . S
C381 C379 1.369 . S
C381 C383 1.392 . S
C381 H392 0.930 . S
C382 C378 1.373 . S
C382 C380 1.383 . S
C382 H393 0.931 . S
C383 C380 1.382 . S
C383 C381 1.392 . S
C384 Eu355 2.828 . S
C384 O368 1.249 . S
C384 O369 1.244 . S
C384 C378 1.505 . S
C385 O372 1.258 . S
C385 O373 1.242 . S
H386 C358 0.930 . S
H387 C359 0.930 . S
H388 C360 0.930 . S
H389 C361 0.931 . S
H390 C379 0.930 . S
H391 C380 0.930 . S
H392 C381 0.930 . S
H393 C382 0.931 . S
Eu394 C403 2.828 . S
Eu394 O405 2.392 . S
Eu394 O407 2.418 . S
Eu394 O412 2.373 . S
Eu394 O415 2.488 . S
Eu394 O416 2.471 . S
Eu394 O417 2.349 . S
Eu395 O404 2.373 . S
Eu395 O408 2.488 . S
Eu395 O409 2.471 . S
Eu395 O410 2.349 . S
Eu395 O413 2.392 . S
Eu395 O414 2.418 . S
Eu395 C424 2.828 . S
C396 O414 1.244 . S
C396 O417 1.265 . S
C397 C398 1.379 . S
C397 C401 1.373 . S
C397 C403 1.505 . S
C398 C397 1.379 . S
C398 C400 1.369 . S
C398 H426 0.930 . S
C399 C401 1.383 . S
C399 C402 1.382 . S
C399 H427 0.930 . S
C400 C398 1.369 . S
C400 C402 1.392 . S
C400 H428 0.930 . S
C401 C397 1.373 . S
C401 C399 1.383 . S
C401 H429 0.931 . S
C402 C399 1.382 . S
C402 C400 1.392 . S
C403 Eu394 2.828 . S
C403 C397 1.505 . S
C403 O415 1.249 . S
C403 O416 1.244 . S
O404 Eu395 2.373 . S
O404 C406 1.258 . S
O405 Eu394 2.392 . S
O405 C406 1.242 . S
C406 O404 1.258 . S
C406 O405 1.242 . S
O407 Eu394 2.418 . S
O407 C411 1.244 . S
O408 Eu395 2.488 . S
O408 C424 1.249 . S
O409 Eu395 2.471 . S
O409 C424 1.244 . S
O410 Eu395 2.349 . S
O410 C411 1.265 . S
C411 O407 1.244 . S
C411 O410 1.265 . S
O412 Eu394 2.373 . S
O412 C425 1.258 . S
O413 Eu395 2.392 . S
O413 C425 1.242 . S
O414 Eu395 2.418 . S
O414 C396 1.244 . S
O415 Eu394 2.488 . S
O415 C403 1.249 . S
O416 Eu394 2.471 . S
O416 C403 1.244 . S
O417 Eu394 2.349 . S
O417 C396 1.265 . S
C418 C419 1.379 . S
C418 C422 1.373 . S
C418 C424 1.505 . S
C419 C418 1.379 . S
C419 C421 1.369 . S
C419 H430 0.930 . S
C420 C422 1.383 . S
C420 C423 1.382 . S
C420 H431 0.930 . S
C421 C419 1.369 . S
C421 C423 1.392 . S
C421 H432 0.930 . S
C422 C418 1.373 . S
C422 C420 1.383 . S
C422 H433 0.931 . S
C423 C420 1.382 . S
C423 C421 1.392 . S
C424 Eu395 2.828 . S
C424 O408 1.249 . S
C424 O409 1.244 . S
C424 C418 1.505 . S
C425 O412 1.258 . S
C425 O413 1.242 . S
H426 C398 0.930 . S
H427 C399 0.930 . S
H428 C400 0.930 . S
H429 C401 0.931 . S
H430 C419 0.930 . S
H431 C420 0.930 . S
H432 C421 0.930 . S
H433 C422 0.931 . S
Eu434 C443 2.828 . S
Eu434 O445 2.392 . S
Eu434 O447 2.418 . S
Eu434 O452 2.373 . S
Eu434 O455 2.488 . S
Eu434 O456 2.471 . S
Eu434 O457 2.349 . S
Eu435 O444 2.373 . S
Eu435 O448 2.488 . S
Eu435 O449 2.471 . S
Eu435 O450 2.349 . S
Eu435 O453 2.392 . S
Eu435 O454 2.418 . S
Eu435 C464 2.828 . S
C436 O454 1.244 . S
C436 O457 1.265 . S
C437 C438 1.379 . S
C437 C441 1.373 . S
C437 C443 1.505 . S
C438 C437 1.379 . S
C438 C440 1.369 . S
C438 H466 0.930 . S
C439 C441 1.383 . S
C439 C442 1.382 . S
C439 H467 0.930 . S
C440 C438 1.369 . S
C440 C442 1.392 . S
C440 H468 0.930 . S
C441 C437 1.373 . S
C441 C439 1.383 . S
C441 H469 0.931 . S
C442 C439 1.382 . S
C442 C440 1.392 . S
C443 Eu434 2.828 . S
C443 C437 1.505 . S
C443 O455 1.249 . S
C443 O456 1.244 . S
O444 Eu435 2.373 . S
O444 C446 1.258 . S
O445 Eu434 2.392 . S
O445 C446 1.242 . S
C446 O444 1.258 . S
C446 O445 1.242 . S
O447 Eu434 2.418 . S
O447 C451 1.244 . S
O448 Eu435 2.488 . S
O448 C464 1.249 . S
O449 Eu435 2.471 . S
O449 C464 1.244 . S
O450 Eu435 2.349 . S
O450 C451 1.265 . S
C451 O447 1.244 . S
C451 O450 1.265 . S
O452 Eu434 2.373 . S
O452 C465 1.258 . S
O453 Eu435 2.392 . S
O453 C465 1.242 . S
O454 Eu435 2.418 . S
O454 C436 1.244 . S
O455 Eu434 2.488 . S
O455 C443 1.249 . S
O456 Eu434 2.471 . S
O456 C443 1.244 . S
O457 Eu434 2.349 . S
O457 C436 1.265 . S
C458 C459 1.379 . S
C458 C462 1.373 . S
C458 C464 1.505 . S
C459 C458 1.379 . S
C459 C461 1.369 . S
C459 H470 0.930 . S
C460 C462 1.383 . S
C460 C463 1.382 . S
C460 H471 0.930 . S
C461 C459 1.369 . S
C461 C463 1.392 . S
C461 H472 0.930 . S
C462 C458 1.373 . S
C462 C460 1.383 . S
C462 H473 0.931 . S
C463 C460 1.382 . S
C463 C461 1.392 . S
C464 Eu435 2.828 . S
C464 O448 1.249 . S
C464 O449 1.244 . S
C464 C458 1.505 . S
C465 O452 1.258 . S
C465 O453 1.242 . S
H466 C438 0.930 . S
H467 C439 0.930 . S
H468 C440 0.930 . S
H469 C441 0.931 . S
H470 C459 0.930 . S
H471 C460 0.930 . S
H472 C461 0.930 . S
H473 C462 0.931 . S
Eu474 C483 2.828 . S
Eu474 O485 2.392 . S
Eu474 O487 2.418 . S
Eu474 O492 2.373 . S
Eu474 O495 2.488 . S
Eu474 O496 2.471 . S
Eu474 O497 2.349 . S
Eu475 O484 2.373 . S
Eu475 O488 2.488 . S
Eu475 O489 2.471 . S
Eu475 O490 2.349 . S
Eu475 O493 2.392 . S
Eu475 O494 2.418 . S
Eu475 C504 2.828 . S
C476 O494 1.244 . S
C476 O497 1.265 . S
C477 C478 1.379 . S
C477 C481 1.373 . S
C477 C483 1.505 . S
C478 C477 1.379 . S
C478 C480 1.369 . S
C478 H506 0.930 . S
C479 C481 1.383 . S
C479 C482 1.382 . S
C479 H507 0.930 . S
C480 C478 1.369 . S
C480 C482 1.392 . S
C480 H508 0.930 . S
C481 C477 1.373 . S
C481 C479 1.383 . S
C481 H509 0.931 . S
C482 C479 1.382 . S
C482 C480 1.392 . S
C483 Eu474 2.828 . S
C483 C477 1.505 . S
C483 O495 1.249 . S
C483 O496 1.244 . S
O484 Eu475 2.373 . S
O484 C486 1.258 . S
O485 Eu474 2.392 . S
O485 C486 1.242 . S
C486 O484 1.258 . S
C486 O485 1.242 . S
O487 Eu474 2.418 . S
O487 C491 1.244 . S
O488 Eu475 2.488 . S
O488 C504 1.249 . S
O489 Eu475 2.471 . S
O489 C504 1.244 . S
O490 Eu475 2.349 . S
O490 C491 1.265 . S
C491 O487 1.244 . S
C491 O490 1.265 . S
O492 Eu474 2.373 . S
O492 C505 1.258 . S
O493 Eu475 2.392 . S
O493 C505 1.242 . S
O494 Eu475 2.418 . S
O494 C476 1.244 . S
O495 Eu474 2.488 . S
O495 C483 1.249 . S
O496 Eu474 2.471 . S
O496 C483 1.244 . S
O497 Eu474 2.349 . S
O497 C476 1.265 . S
C498 C499 1.379 . S
C498 C502 1.373 . S
C498 C504 1.505 . S
C499 C498 1.379 . S
C499 C501 1.369 . S
C499 H510 0.930 . S
C500 C502 1.383 . S
C500 C503 1.382 . S
C500 H511 0.930 . S
C501 C499 1.369 . S
C501 C503 1.392 . S
C501 H512 0.930 . S
C502 C498 1.373 . S
C502 C500 1.383 . S
C502 H513 0.931 . S
C503 C500 1.382 . S
C503 C501 1.392 . S
C504 Eu475 2.828 . S
C504 O488 1.249 . S
C504 O489 1.244 . S
C504 C498 1.505 . S
C505 O492 1.258 . S
C505 O493 1.242 . S
H506 C478 0.930 . S
H507 C479 0.930 . S
H508 C480 0.930 . S
H509 C481 0.931 . S
H510 C499 0.930 . S
H511 C500 0.930 . S
H512 C501 0.930 . S
H513 C502 0.931 . S
Eu514 C523 2.828 . S
Eu514 O525 2.392 . S
Eu514 O527 2.418 . S
Eu514 O532 2.373 . S
Eu514 O535 2.488 . S
Eu514 O536 2.471 . S
Eu514 O537 2.349 . S
Eu515 O524 2.373 . S
Eu515 O528 2.488 . S
Eu515 O529 2.471 . S
Eu515 O530 2.349 . S
Eu515 O533 2.392 . S
Eu515 O534 2.418 . S
Eu515 C544 2.828 . S
C516 O534 1.244 . S
C516 O537 1.265 . S
C517 C518 1.379 . S
C517 C521 1.373 . S
C517 C523 1.505 . S
C518 C517 1.379 . S
C518 C520 1.369 . S
C518 H546 0.930 . S
C519 C521 1.383 . S
C519 C522 1.382 . S
C519 H547 0.930 . S
C520 C518 1.369 . S
C520 C522 1.392 . S
C520 H548 0.930 . S
C521 C517 1.373 . S
C521 C519 1.383 . S
C521 H549 0.931 . S
C522 C519 1.382 . S
C522 C520 1.392 . S
C523 Eu514 2.828 . S
C523 C517 1.505 . S
C523 O535 1.249 . S
C523 O536 1.244 . S
O524 Eu515 2.373 . S
O524 C526 1.258 . S
O525 Eu514 2.392 . S
O525 C526 1.242 . S
C526 O524 1.258 . S
C526 O525 1.242 . S
O527 Eu514 2.418 . S
O527 C531 1.244 . S
O528 Eu515 2.488 . S
O528 C544 1.249 . S
O529 Eu515 2.471 . S
O529 C544 1.244 . S
O530 Eu515 2.349 . S
O530 C531 1.265 . S
C531 O527 1.244 . S
C531 O530 1.265 . S
O532 Eu514 2.373 . S
O532 C545 1.258 . S
O533 Eu515 2.392 . S
O533 C545 1.242 . S
O534 Eu515 2.418 . S
O534 C516 1.244 . S
O535 Eu514 2.488 . S
O535 C523 1.249 . S
O536 Eu514 2.471 . S
O536 C523 1.244 . S
O537 Eu514 2.349 . S
O537 C516 1.265 . S
C538 C539 1.379 . S
C538 C542 1.373 . S
C538 C544 1.505 . S
C539 C538 1.379 . S
C539 C541 1.369 . S
C539 H550 0.930 . S
C540 C542 1.383 . S
C540 C543 1.382 . S
C540 H551 0.930 . S
C541 C539 1.369 . S
C541 C543 1.392 . S
C541 H552 0.930 . S
C542 C538 1.373 . S
C542 C540 1.383 . S
C542 H553 0.931 . S
C543 C540 1.382 . S
C543 C541 1.392 . S
C544 Eu515 2.828 . S
C544 O528 1.249 . S
C544 O529 1.244 . S
C544 C538 1.505 . S
C545 O532 1.258 . S
C545 O533 1.242 . S
H546 C518 0.930 . S
H547 C519 0.930 . S
H548 C520 0.930 . S
H549 C521 0.931 . S
H550 C539 0.930 . S
H551 C540 0.930 . S
H552 C541 0.930 . S
H553 C542 0.931 . S
Eu554 C563 2.828 . S
Eu554 O565 2.392 . S
Eu554 O567 2.418 . S
Eu554 O572 2.373 . S
Eu554 O575 2.488 . S
Eu554 O576 2.471 . S
Eu554 O577 2.349 . S
Eu555 O564 2.373 . S
Eu555 O568 2.488 . S
Eu555 O569 2.471 . S
Eu555 O570 2.349 . S
Eu555 O573 2.392 . S
Eu555 O574 2.418 . S
Eu555 C584 2.828 . S
C556 O574 1.244 . S
C556 O577 1.265 . S
C557 C558 1.379 . S
C557 C561 1.373 . S
C557 C563 1.505 . S
C558 C557 1.379 . S
C558 C560 1.369 . S
C558 H586 0.930 . S
C559 C561 1.383 . S
C559 C562 1.382 . S
C559 H587 0.930 . S
C560 C558 1.369 . S
C560 C562 1.392 . S
C560 H588 0.930 . S
C561 C557 1.373 . S
C561 C559 1.383 . S
C561 H589 0.931 . S
C562 C559 1.382 . S
C562 C560 1.392 . S
C563 Eu554 2.828 . S
C563 C557 1.505 . S
C563 O575 1.249 . S
C563 O576 1.244 . S
O564 Eu555 2.373 . S
O564 C566 1.258 . S
O565 Eu554 2.392 . S
O565 C566 1.242 . S
C566 O564 1.258 . S
C566 O565 1.242 . S
O567 Eu554 2.418 . S
O567 C571 1.244 . S
O568 Eu555 2.488 . S
O568 C584 1.249 . S
O569 Eu555 2.471 . S
O569 C584 1.244 . S
O570 Eu555 2.349 . S
O570 C571 1.265 . S
C571 O567 1.244 . S
C571 O570 1.265 . S
O572 Eu554 2.373 . S
O572 C585 1.258 . S
O573 Eu555 2.392 . S
O573 C585 1.242 . S
O574 Eu555 2.418 . S
O574 C556 1.244 . S
O575 Eu554 2.488 . S
O575 C563 1.249 . S
O576 Eu554 2.471 . S
O576 C563 1.244 . S
O577 Eu554 2.349 . S
O577 C556 1.265 . S
C578 C579 1.379 . S
C578 C582 1.373 . S
C578 C584 1.505 . S
C579 C578 1.379 . S
C579 C581 1.369 . S
C579 H590 0.930 . S
C580 C582 1.383 . S
C580 C583 1.382 . S
C580 H591 0.930 . S
C581 C579 1.369 . S
C581 C583 1.392 . S
C581 H592 0.930 . S
C582 C578 1.373 . S
C582 C580 1.383 . S
C582 H593 0.931 . S
C583 C580 1.382 . S
C583 C581 1.392 . S
C584 Eu555 2.828 . S
C584 O568 1.249 . S
C584 O569 1.244 . S
C584 C578 1.505 . S
C585 O572 1.258 . S
C585 O573 1.242 . S
H586 C558 0.930 . S
H587 C559 0.930 . S
H588 C560 0.930 . S
H589 C561 0.931 . S
H590 C579 0.930 . S
H591 C580 0.930 . S
H592 C581 0.930 . S
H593 C582 0.931 . S
H594 C602 0.929 . S
H595 C604 0.930 . S
H596 C606 0.930 . S
H597 C609 0.929 . S
H598 C612 0.930 . S
H599 C614 0.960 . S
H600 C614 0.960 . S
H601 C614 0.960 . S
C602 H594 0.929 . S
C602 C603 1.377 . S
C602 C604 1.384 . S
C603 C602 1.377 . S
C603 C609 1.390 . S
C604 H595 0.930 . S
C604 C602 1.384 . S
C604 C605 1.372 . S
C605 C604 1.372 . S
C605 C606 1.400 . S
C605 C610 1.490 . S
C606 H596 0.930 . S
C606 C605 1.400 . S
C606 C609 1.386 . S
H607 C623 0.930 . S
H608 C624 0.931 . S
C609 H597 0.929 . S
C609 C603 1.390 . S
C609 C606 1.386 . S
C610 C605 1.490 . S
C610 C612 1.395 . S
C610 C613 1.403 . S
H611 C617 0.930 . S
C612 H598 0.930 . S
C612 C610 1.395 . S
C612 C615 1.403 . S
C613 C610 1.403 . S
C613 C614 1.524 . S
C613 C617 1.400 . S
C614 H599 0.960 . S
C614 H600 0.960 . S
C614 H601 0.960 . S
C614 C613 1.524 . S
C615 C612 1.403 . S
C615 C616 1.392 . S
C615 C619 1.495 . S
C616 C615 1.392 . S
C616 C617 1.385 . S
C616 C618 1.478 . S
C617 H611 0.930 . S
C617 C613 1.400 . S
C617 C616 1.385 . S
C618 C616 1.478 . S
C618 C620 1.381 . S
C618 C624 1.383 . S
C619 C615 1.495 . S
C619 H625 0.959 . S
C619 H626 0.961 . S
C619 H627 0.960 . S
C620 C618 1.381 . S
C620 C621 1.394 . S
C620 H628 0.930 . S
C621 C620 1.394 . S
C621 C622 1.383 . S
C621 H629 0.929 . S
C622 C621 1.383 . S
C622 C623 1.377 . S
C623 H607 0.930 . S
C623 C622 1.377 . S
C623 C624 1.379 . S
C624 H608 0.931 . S
C624 C618 1.383 . S
C624 C623 1.379 . S
H625 C619 0.959 . S
H626 C619 0.961 . S
H627 C619 0.960 . S
H628 C620 0.930 . S
H629 C621 0.929 . S
H630 C638 0.929 . S
H631 C640 0.930 . S
H632 C642 0.930 . S
H633 C645 0.929 . S
H634 C648 0.930 . S
H635 C650 0.960 . S
H636 C650 0.960 . S
H637 C650 0.960 . S
C638 H630 0.929 . S
C638 C639 1.377 . S
C638 C640 1.384 . S
C639 C638 1.377 . S
C639 C645 1.390 . S
C640 H631 0.930 . S
C640 C638 1.384 . S
C640 C641 1.372 . S
C641 C640 1.372 . S
C641 C642 1.400 . S
C641 C646 1.490 . S
C642 H632 0.930 . S
C642 C641 1.400 . S
C642 C645 1.386 . S
H643 C659 0.930 . S
H644 C660 0.931 . S
C645 H633 0.929 . S
C645 C639 1.390 . S
C645 C642 1.386 . S
C646 C641 1.490 . S
C646 C648 1.395 . S
C646 C649 1.403 . S
H647 C653 0.930 . S
C648 H634 0.930 . S
C648 C646 1.395 . S
C648 C651 1.403 . S
C649 C646 1.403 . S
C649 C650 1.524 . S
C649 C653 1.400 . S
C650 H635 0.960 . S
C650 H636 0.960 . S
C650 H637 0.960 . S
C650 C649 1.524 . S
C651 C648 1.403 . S
C651 C652 1.392 . S
C651 C655 1.495 . S
C652 C651 1.392 . S
C652 C653 1.385 . S
C652 C654 1.478 . S
C653 H647 0.930 . S
C653 C649 1.400 . S
C653 C652 1.385 . S
C654 C652 1.478 . S
C654 C656 1.381 . S
C654 C660 1.383 . S
C655 C651 1.495 . S
C655 H661 0.959 . S
C655 H662 0.961 . S
C655 H663 0.960 . S
C656 C654 1.381 . S
C656 C657 1.394 . S
C656 H664 0.930 . S
C657 C656 1.394 . S
C657 C658 1.383 . S
C657 H665 0.929 . S
C658 C657 1.383 . S
C658 C659 1.377 . S
C659 H643 0.930 . S
C659 C658 1.377 . S
C659 C660 1.379 . S
C660 H644 0.931 . S
C660 C654 1.383 . S
C660 C659 1.379 . S
H661 C655 0.959 . S
H662 C655 0.961 . S
H663 C655 0.960 . S
H664 C656 0.930 . S
H665 C657 0.929 . S
H666 C674 0.929 . S
H667 C676 0.930 . S
H668 C678 0.930 . S
H669 C681 0.929 . S
H670 C684 0.930 . S
H671 C686 0.960 . S
H672 C686 0.960 . S
H673 C686 0.960 . S
C674 H666 0.929 . S
C674 C675 1.377 . S
C674 C676 1.384 . S
C675 C674 1.377 . S
C675 C681 1.390 . S
C676 H667 0.930 . S
C676 C674 1.384 . S
C676 C677 1.372 . S
C677 C676 1.372 . S
C677 C678 1.400 . S
C677 C682 1.490 . S
C678 H668 0.930 . S
C678 C677 1.400 . S
C678 C681 1.386 . S
H679 C695 0.930 . S
H680 C696 0.931 . S
C681 H669 0.929 . S
C681 C675 1.390 . S
C681 C678 1.386 . S
C682 C677 1.490 . S
C682 C684 1.395 . S
C682 C685 1.403 . S
H683 C689 0.930 . S
C684 H670 0.930 . S
C684 C682 1.395 . S
C684 C687 1.403 . S
C685 C682 1.403 . S
C685 C686 1.524 . S
C685 C689 1.400 . S
C686 H671 0.960 . S
C686 H672 0.960 . S
C686 H673 0.960 . S
C686 C685 1.524 . S
C687 C684 1.403 . S
C687 C688 1.392 . S
C687 C691 1.495 . S
C688 C687 1.392 . S
C688 C689 1.385 . S
C688 C690 1.478 . S
C689 H683 0.930 . S
C689 C685 1.400 . S
C689 C688 1.385 . S
C690 C688 1.478 . S
C690 C692 1.381 . S
C690 C696 1.383 . S
C691 C687 1.495 . S
C691 H697 0.959 . S
C691 H698 0.961 . S
C691 H699 0.960 . S
C692 C690 1.381 . S
C692 C693 1.394 . S
C692 H700 0.930 . S
C693 C692 1.394 . S
C693 C694 1.383 . S
C693 H701 0.929 . S
C694 C693 1.383 . S
C694 C695 1.377 . S
C695 H679 0.930 . S
C695 C694 1.377 . S
C695 C696 1.379 . S
C696 H680 0.931 . S
C696 C690 1.383 . S
C696 C695 1.379 . S
H697 C691 0.959 . S
H698 C691 0.961 . S
H699 C691 0.960 . S
H700 C692 0.930 . S
H701 C693 0.929 . S
H702 C710 0.929 . S
H703 C712 0.930 . S
H704 C714 0.930 . S
H705 C717 0.929 . S
H706 C720 0.930 . S
H707 C722 0.960 . S
H708 C722 0.960 . S
H709 C722 0.960 . S
C710 H702 0.929 . S
C710 C711 1.377 . S
C710 C712 1.384 . S
C711 C710 1.377 . S
C711 C717 1.390 . S
C712 H703 0.930 . S
C712 C710 1.384 . S
C712 C713 1.372 . S
C713 C712 1.372 . S
C713 C714 1.400 . S
C713 C718 1.490 . S
C714 H704 0.930 . S
C714 C713 1.400 . S
C714 C717 1.386 . S
H715 C731 0.930 . S
H716 C732 0.931 . S
C717 H705 0.929 . S
C717 C711 1.390 . S
C717 C714 1.386 . S
C718 C713 1.490 . S
C718 C720 1.395 1_556 S
C718 C721 1.403 . S
H719 C725 0.930 . S
C720 H706 0.930 . S
C720 C718 1.395 1_554 S
C720 C723 1.403 . S
C721 C718 1.403 . S
C721 C722 1.524 . S
C721 C725 1.400 . S
C722 H707 0.960 . S
C722 H708 0.960 . S
C722 H709 0.960 . S
C722 C721 1.524 . S
C723 C720 1.403 . S
C723 C724 1.392 1_554 S
C723 C727 1.495 . S
C724 C723 1.392 1_556 S
C724 C725 1.385 . S
C724 C726 1.478 . S
C725 H719 0.930 . S
C725 C721 1.400 . S
C725 C724 1.385 . S
C726 C724 1.478 . S
C726 C728 1.381 1_556 S
C726 C732 1.383 . S
C727 C723 1.495 . S
C727 H733 0.959 . S
C727 H734 0.961 . S
C727 H735 0.960 . S
C728 C726 1.381 1_554 S
C728 C729 1.394 . S
C728 H736 0.930 . S
C729 C728 1.394 . S
C729 C730 1.383 1_554 S
C729 H737 0.929 . S
C730 C729 1.383 1_556 S
C730 C731 1.377 . S
C731 H715 0.930 . S
C731 C730 1.377 . S
C731 C732 1.379 . S
C732 H716 0.931 . S
C732 C726 1.383 . S
C732 C731 1.379 . S
H733 C727 0.959 . S
H734 C727 0.961 . S
H735 C727 0.960 . S
H736 C728 0.930 . S
H737 C729 0.929 . S
H738 C746 0.929 . S
H739 C748 0.930 . S
H740 C750 0.930 . S
H741 C753 0.929 . S
H742 C756 0.930 . S
H743 C758 0.960 . S
H744 C758 0.960 . S
H745 C758 0.960 . S
C746 H738 0.929 . S
C746 C747 1.377 . S
C746 C748 1.384 . S
C747 C746 1.377 . S
C747 C753 1.390 . S
C748 H739 0.930 . S
C748 C746 1.384 . S
C748 C749 1.372 . S
C749 C748 1.372 . S
C749 C750 1.400 . S
C749 C754 1.490 . S
C750 H740 0.930 . S
C750 C749 1.400 . S
C750 C753 1.386 . S
H751 C767 0.930 . S
H752 C768 0.931 . S
C753 H741 0.929 . S
C753 C747 1.390 . S
C753 C750 1.386 . S
C754 C749 1.490 . S
C754 C756 1.395 . S
C754 C757 1.403 . S
H755 C761 0.930 . S
C756 H742 0.930 . S
C756 C754 1.395 . S
C756 C759 1.403 . S
C757 C754 1.403 . S
C757 C758 1.524 . S
C757 C761 1.400 . S
C758 H743 0.960 . S
C758 H744 0.960 . S
C758 H745 0.960 . S
C758 C757 1.524 . S
C759 C756 1.403 . S
C759 C760 1.392 . S
C759 C763 1.495 . S
C760 C759 1.392 . S
C760 C761 1.385 . S
C760 C762 1.478 . S
C761 H755 0.930 . S
C761 C757 1.400 . S
C761 C760 1.385 . S
C762 C760 1.478 . S
C762 C764 1.381 1_556 S
C762 C768 1.383 . S
C763 C759 1.495 . S
C763 H769 0.959 . S
C763 H770 0.961 . S
C763 H771 0.960 . S
C764 C762 1.381 1_554 S
C764 C765 1.394 . S
C764 H772 0.930 . S
C765 C764 1.394 . S
C765 C766 1.383 . S
C765 H773 0.929 . S
C766 C765 1.383 . S
C766 C767 1.377 1_554 S
C767 H751 0.930 . S
C767 C766 1.377 1_556 S
C767 C768 1.379 . S
C768 H752 0.931 . S
C768 C762 1.383 . S
C768 C767 1.379 . S
H769 C763 0.959 . S
H770 C763 0.961 . S
H771 C763 0.960 . S
H772 C764 0.930 . S
H773 C765 0.929 . S
H774 C782 0.929 . S
H775 C784 0.930 . S
H776 C786 0.930 . S
H777 C789 0.929 . S
H778 C792 0.930 . S
H779 C794 0.960 . S
H780 C794 0.960 . S
H781 C794 0.960 1_556 S
C782 H774 0.929 . S
C782 C783 1.377 . S
C782 C784 1.384 . S
C783 C782 1.377 . S
C783 C789 1.390 . S
C784 H775 0.930 . S
C784 C782 1.384 . S
C784 C785 1.372 . S
C785 C784 1.372 . S
C785 C786 1.400 . S
C785 C790 1.490 . S
C786 H776 0.930 . S
C786 C785 1.400 . S
C786 C789 1.386 . S
H787 C803 0.930 . S
H788 C804 0.931 . S
C789 H777 0.929 . S
C789 C783 1.390 . S
C789 C786 1.386 . S
C790 C785 1.490 . S
C790 C792 1.395 . S
C790 C793 1.403 . S
H791 C797 0.922 1_554 S
C792 H778 0.930 . S
C792 C790 1.395 . S
C792 C795 1.403 . S
C793 C790 1.403 . S
C793 C794 1.524 1_556 S
C793 C797 1.401 . S
C794 H779 0.960 . S
C794 H780 0.960 . S
C794 H781 0.960 1_554 S
C794 C793 1.524 1_554 S
C795 C792 1.403 . S
C795 C796 1.392 . S
C795 C799 1.495 . S
C796 C795 1.392 . S
C796 C797 1.391 . S
C796 C798 1.478 . S
C797 H791 0.922 1_556 S
C797 C793 1.401 . S
C797 C796 1.391 . S
C798 C796 1.478 . S
C798 C800 1.381 1_556 S
C798 C804 1.383 . S
C799 C795 1.495 . S
C799 H805 0.959 . S
C799 H806 0.961 . S
C799 H807 0.960 . S
C800 C798 1.381 1_554 S
C800 C801 1.394 . S
C800 H808 0.930 . S
C801 C800 1.394 . S
C801 C802 1.383 . S
C801 H809 0.929 . S
C802 C801 1.383 . S
C802 C803 1.377 1_554 S
C803 H787 0.930 . S
C803 C802 1.377 1_556 S
C803 C804 1.379 . S
C804 H788 0.931 . S
C804 C798 1.383 . S
C804 C803 1.379 . S
H805 C799 0.959 . S
H806 C799 0.961 . S
H807 C799 0.960 . S
H808 C800 0.930 . S
H809 C801 0.929 . S
H810 C818 0.929 . S
H811 C820 0.930 . S
H812 C822 0.930 . S
H813 C825 0.929 . S
H814 C828 0.948 . S
H815 C830 0.960 . S
H816 C830 0.960 . S
H817 C830 0.960 . S
C818 H810 0.929 . S
C818 C819 1.377 . S
C818 C820 1.384 . S
C819 C818 1.377 . S
C819 C825 1.390 . S
C820 H811 0.930 . S
C820 C818 1.384 . S
C820 C821 1.372 . S
C821 C820 1.372 . S
C821 C822 1.400 . S
C821 C826 1.490 . S
C822 H812 0.930 . S
C822 C821 1.400 . S
C822 C825 1.386 . S
H823 C839 0.930 . S
H824 C840 0.951 . S
C825 H813 0.929 . S
C825 C819 1.390 . S
C825 C822 1.386 . S
C826 C821 1.490 . S
C826 C828 1.395 . S
C826 C829 1.403 . S
H827 C833 0.930 . S
C828 H814 0.948 . S
C828 C826 1.395 . S
C828 C831 1.403 . S
C829 C826 1.403 . S
C829 C830 1.524 . S
C829 C833 1.400 . S
C830 H815 0.960 . S
C830 H816 0.960 . S
C830 H817 0.960 . S
C830 C829 1.524 . S
C831 C828 1.403 . S
C831 C832 1.392 . S
C831 C835 1.495 1_556 S
C832 C831 1.392 . S
C832 C833 1.385 . S
C832 C834 1.478 . S
C833 H827 0.930 . S
C833 C829 1.400 . S
C833 C832 1.385 . S
C834 C832 1.478 . S
C834 C836 1.381 . S
C834 C840 1.353 1_556 S
C835 C831 1.495 1_554 S
C835 H841 0.959 . S
C835 H842 0.961 . S
C835 H843 0.960 . S
C836 C834 1.381 . S
C836 C837 1.394 . S
C836 H844 0.930 . S
C837 C836 1.394 . S
C837 C838 1.384 1_556 S
C837 H845 0.929 . S
C838 C837 1.384 1_554 S
C838 C839 1.377 . S
C839 H823 0.930 . S
C839 C838 1.377 . S
C839 C840 1.395 . S
C840 H824 0.951 . S
C840 C834 1.353 1_554 S
C840 C839 1.395 . S
H841 C835 0.959 . S
H842 C835 0.961 . S
H843 C835 0.960 . S
H844 C836 0.930 . S
H845 C837 0.929 . S
H846 C854 0.929 . S
H847 C856 0.930 . S
H848 C858 0.930 . S
H849 C861 0.929 . S
H850 C864 0.930 . S
H851 C866 0.960 . S
H852 C866 0.960 . S
H853 C866 0.960 . S
C854 H846 0.929 . S
C854 C855 1.377 . S
C854 C856 1.384 . S
C855 C854 1.377 . S
C855 C861 1.390 . S
C856 H847 0.930 . S
C856 C854 1.384 . S
C856 C857 1.372 . S
C857 C856 1.372 . S
C857 C858 1.400 . S
C857 C862 1.490 . S
C858 H848 0.930 . S
C858 C857 1.400 . S
C858 C861 1.386 . S
H859 C875 0.930 . S
H860 C876 0.931 . S
C861 H849 0.929 . S
C861 C855 1.390 . S
C861 C858 1.386 . S
C862 C857 1.490 . S
C862 C864 1.395 . S
C862 C865 1.403 . S
H863 C869 0.930 . S
C864 H850 0.930 . S
C864 C862 1.395 . S
C864 C867 1.403 . S
C865 C862 1.403 . S
C865 C866 1.524 . S
C865 C869 1.400 . S
C866 H851 0.960 . S
C866 H852 0.960 . S
C866 H853 0.960 . S
C866 C865 1.524 . S
C867 C864 1.403 . S
C867 C868 1.392 . S
C867 C871 1.495 . S
C868 C867 1.392 . S
C868 C869 1.385 . S
C868 C870 1.478 . S
C869 H863 0.930 . S
C869 C865 1.400 . S
C869 C868 1.385 . S
C870 C868 1.478 . S
C870 C872 1.381 . S
C870 C876 1.383 . S
C871 C867 1.495 . S
C871 H877 0.959 . S
C871 H878 0.961 . S
C871 H879 0.960 . S
C872 C870 1.381 . S
C872 C873 1.394 . S
C872 H880 0.930 . S
C873 C872 1.394 . S
C873 C874 1.383 . S
C873 H881 0.929 1_556 S
C874 C873 1.383 . S
C874 C875 1.377 . S
C875 H859 0.930 . S
C875 C874 1.377 . S
C875 C876 1.379 . S
C876 H860 0.931 . S
C876 C870 1.383 . S
C876 C875 1.379 . S
H877 C871 0.959 . S
H878 C871 0.961 . S
H879 C871 0.960 . S
H880 C872 0.930 . S
H881 C873 0.929 1_554 S
H882 C890 0.929 . S
H883 C892 0.930 . S
H884 C894 0.930 1_554 S
H885 C897 0.929 . S
H886 C900 0.930 . S
H887 C902 0.960 . S
H888 C902 0.960 . S
H889 C902 0.960 . S
C890 H882 0.929 . S
C890 C891 1.377 . S
C890 C892 1.384 . S
C891 C890 1.377 . S
C891 C897 1.390 . S
C892 H883 0.930 . S
C892 C890 1.384 . S
C892 C893 1.372 . S
C893 C892 1.372 . S
C893 C894 1.400 . S
C893 C898 1.490 . S
C894 H884 0.930 1_556 S
C894 C893 1.400 . S
C894 C897 1.386 . S
H895 C911 0.930 . S
H896 C912 0.931 . S
C897 H885 0.929 . S
C897 C891 1.390 . S
C897 C894 1.386 . S
C898 C893 1.490 . S
C898 C900 1.395 . S
C898 C901 1.403 1_556 S
H899 C905 0.930 . S
C900 H886 0.930 . S
C900 C898 1.395 . S
C900 C903 1.403 . S
C901 C898 1.403 1_554 S
C901 C902 1.524 . S
C901 C905 1.400 . S
C902 H887 0.960 . S
C902 H888 0.960 . S
C902 H889 0.960 . S
C902 C901 1.524 . S
C903 C900 1.403 . S
C903 C904 1.433 . S
C903 C907 1.495 . S
C904 C903 1.433 . S
C904 C905 1.353 1_556 S
C904 C906 1.468 1_556 S
C905 H899 0.930 . S
C905 C901 1.400 . S
C905 C904 1.353 1_554 S
C906 C904 1.468 1_554 S
C906 C908 1.380 . S
C906 C912 1.383 . S
C907 C903 1.495 . S
C907 H913 0.959 . S
C907 H914 0.961 . S
C907 H915 0.960 . S
C908 C906 1.380 . S
C908 C909 1.393 . S
C908 H916 0.933 1_554 S
C909 C908 1.393 . S
C909 C910 1.383 . S
C909 H917 0.929 . S
C910 C909 1.383 . S
C910 C911 1.377 . S
C911 H895 0.930 . S
C911 C910 1.377 . S
C911 C912 1.379 . S
C912 H896 0.931 . S
C912 C906 1.383 . S
C912 C911 1.379 . S
H913 C907 0.959 . S
H914 C907 0.961 . S
H915 C907 0.960 . S
H916 C908 0.933 1_556 S
H917 C909 0.929 . S
H918 C926 0.929 . S
H919 C928 0.930 . S
H920 C930 0.930 . S
H921 C933 0.929 . S
H922 C936 0.930 . S
H923 C938 0.960 . S
H924 C938 0.960 . S
H925 C938 0.960 . S
C926 H918 0.929 . S
C926 C927 1.377 . S
C926 C928 1.384 . S
C927 C926 1.377 . S
C927 C933 1.390 . S
C928 H919 0.930 . S
C928 C926 1.384 . S
C928 C929 1.372 . S
C929 C928 1.372 . S
C929 C930 1.400 . S
C929 C934 1.490 . S
C930 H920 0.930 . S
C930 C929 1.400 . S
C930 C933 1.386 . S
H931 C947 0.930 . S
H932 C948 0.931 . S
C933 H921 0.929 . S
C933 C927 1.390 . S
C933 C930 1.386 . S
C934 C929 1.490 . S
C934 C936 1.395 . S
C934 C937 1.403 . S
H935 C941 0.930 . S
C936 H922 0.930 . S
C936 C934 1.395 . S
C936 C939 1.403 . S
C937 C934 1.403 . S
C937 C938 1.524 . S
C937 C941 1.400 . S
C938 H923 0.960 . S
C938 H924 0.960 . S
C938 H925 0.960 . S
C938 C937 1.524 . S
C939 C936 1.403 . S
C939 C940 1.392 . S
C939 C943 1.495 1_554 S
C940 C939 1.392 . S
C940 C941 1.385 . S
C940 C942 1.478 . S
C941 H935 0.930 . S
C941 C937 1.400 . S
C941 C940 1.385 . S
C942 C940 1.478 . S
C942 C944 1.381 . S
C942 C948 1.383 . S
C943 C939 1.495 1_556 S
C943 H949 0.959 . S
C943 H950 0.961 . S
C943 H951 0.960 . S
C944 C942 1.381 . S
C944 C945 1.394 . S
C944 H952 0.930 . S
C945 C944 1.394 . S
C945 C946 1.383 . S
C945 H953 0.929 1_554 S
C946 C945 1.383 . S
C946 C947 1.377 . S
C947 H931 0.930 . S
C947 C946 1.377 . S
C947 C948 1.379 . S
C948 H932 0.931 . S
C948 C942 1.383 . S
C948 C947 1.379 . S
H949 C943 0.959 . S
H950 C943 0.961 . S
H951 C943 0.960 . S
H952 C944 0.930 . S
H953 C945 0.929 1_556 S
H954 C962 0.929 . S
H955 C964 0.930 . S
H956 C966 0.930 . S
H957 C969 0.929 . S
H958 C972 0.930 . S
H959 C974 0.960 . S
H960 C974 0.960 . S
H961 C974 0.960 . S
C962 H954 0.929 . S
C962 C963 1.377 . S
C962 C964 1.384 . S
C963 C962 1.377 . S
C963 C969 1.390 . S
C964 H955 0.930 . S
C964 C962 1.384 . S
C964 C965 1.372 . S
C965 C964 1.372 . S
C965 C966 1.400 . S
C965 C970 1.490 . S
C966 H956 0.930 . S
C966 C965 1.400 . S
C966 C969 1.386 . S
H967 C983 0.930 . S
H968 C984 0.931 . S
C969 H957 0.929 . S
C969 C963 1.390 . S
C969 C966 1.386 . S
C970 C965 1.490 . S
C970 C972 1.395 . S
C970 C973 1.403 . S
H971 C977 0.930 . S
C972 H958 0.930 . S
C972 C970 1.395 . S
C972 C975 1.403 . S
C973 C970 1.403 . S
C973 C974 1.524 . S
C973 C977 1.400 . S
C974 H959 0.960 . S
C974 H960 0.960 . S
C974 H961 0.960 . S
C974 C973 1.524 . S
C975 C972 1.403 . S
C975 C976 1.392 . S
C975 C979 1.495 . S
C976 C975 1.392 . S
C976 C977 1.385 . S
C976 C978 1.478 . S
C977 H971 0.930 . S
C977 C973 1.400 . S
C977 C976 1.385 . S
C978 C976 1.478 . S
C978 C980 1.381 . S
C978 C984 1.383 . S
C979 C975 1.495 . S
C979 H985 0.959 . S
C979 H986 0.961 . S
C979 H987 0.960 . S
C980 C978 1.381 . S
C980 C981 1.394 . S
C980 H988 0.930 . S
C981 C980 1.394 . S
C981 C982 1.383 . S
C981 H989 0.929 . S
C982 C981 1.383 . S
C982 C983 1.377 . S
C983 H967 0.930 . S
C983 C982 1.377 . S
C983 C984 1.379 . S
C984 H968 0.931 . S
C984 C978 1.383 . S
C984 C983 1.379 . S
H985 C979 0.959 . S
H986 C979 0.961 . S
H987 C979 0.960 . S
H988 C980 0.930 . S
H989 C981 0.929 . S
H990 C998 0.929 . S
H991 C1000 0.930 . S
H992 C1002 0.930 . S
H993 C1005 0.929 . S
H994 C1008 0.930 . S
H995 C1010 0.960 . S
H996 C1010 0.960 . S
H997 C1010 0.960 . S
C998 H990 0.929 . S
C998 C999 1.377 . S
C998 C1000 1.384 . S
C999 C998 1.377 . S
C999 C1005 1.390 . S
C1000 H991 0.930 . S
C1000 C998 1.384 . S
C1000 C1001 1.372 . S
C1001 C1000 1.372 . S
C1001 C1002 1.400 . S
C1001 C1006 1.490 . S
C1002 H992 0.930 . S
C1002 C1001 1.400 . S
C1002 C1005 1.386 . S
H1003 C1019 0.930 . S
H1004 C1020 0.931 . S
C1005 H993 0.929 . S
C1005 C999 1.390 . S
C1005 C1002 1.386 . S
C1006 C1001 1.490 . S
C1006 C1008 1.395 . S
C1006 C1009 1.403 . S
H1007 C1013 0.930 . S
C1008 H994 0.930 . S
C1008 C1006 1.395 . S
C1008 C1011 1.403 . S
C1009 C1006 1.403 . S
C1009 C1010 1.524 . S
C1009 C1013 1.400 . S
C1010 H995 0.960 . S
C1010 H996 0.960 . S
C1010 H997 0.960 . S
C1010 C1009 1.524 . S
C1011 C1008 1.403 . S
C1011 C1012 1.392 . S
C1011 C1015 1.495 . S
C1012 C1011 1.392 . S
C1012 C1013 1.385 . S
C1012 C1014 1.478 . S
C1013 H1007 0.930 . S
C1013 C1009 1.400 . S
C1013 C1012 1.385 . S
C1014 C1012 1.478 . S
C1014 C1016 1.381 . S
C1014 C1020 1.383 . S
C1015 C1011 1.495 . S
C1015 H1021 0.959 . S
C1015 H1022 0.961 1_554 S
C1015 H1023 0.960 . S
C1016 C1014 1.381 . S
C1016 C1017 1.394 . S
C1016 H1024 0.930 . S
C1017 C1016 1.394 . S
C1017 C1018 1.383 . S
C1017 H1025 0.929 . S
C1018 C1017 1.383 . S
C1018 C1019 1.377 . S
C1019 H1003 0.930 . S
C1019 C1018 1.377 . S
C1019 C1020 1.379 . S
C1020 H1004 0.931 . S
C1020 C1014 1.383 . S
C1020 C1019 1.379 . S
H1021 C1015 0.959 . S
H1022 C1015 0.961 1_556 S
H1023 C1015 0.960 . S
H1024 C1016 0.930 . S
H1025 C1017 0.929 . S
H1026 C1034 0.929 . S
H1027 C1036 0.930 . S
H1028 C1038 0.930 . S
H1029 C1041 0.929 . S
H1030 C1044 0.931 1_655 S
H1031 C1046 0.960 . S
H1032 C1046 0.960 . S
H1033 C1046 0.960 . S
C1034 H1026 0.929 . S
C1034 C1035 1.377 . S
C1034 C1036 1.384 . S
C1035 C1034 1.377 . S
C1035 C1041 1.390 . S
C1036 H1027 0.930 . S
C1036 C1034 1.384 . S
C1036 C1037 1.372 . S
C1037 C1036 1.372 . S
C1037 C1038 1.400 . S
C1037 C1042 1.490 . S
C1038 H1028 0.930 . S
C1038 C1037 1.400 . S
C1038 C1041 1.386 . S
H1039 C1055 0.930 . S
H1040 C1056 0.931 . S
C1041 H1029 0.929 . S
C1041 C1035 1.390 . S
C1041 C1038 1.386 . S
C1042 C1037 1.490 . S
C1042 C1044 1.378 1_655 S
C1042 C1045 1.403 . S
H1043 C1049 0.930 . S
C1044 H1030 0.931 1_455 S
C1044 C1042 1.378 1_455 S
C1044 C1047 1.420 . S
C1045 C1042 1.403 . S
C1045 C1046 1.524 . S
C1045 C1049 1.400 1_655 S
C1046 H1031 0.960 . S
C1046 H1032 0.960 . S
C1046 H1033 0.960 . S
C1046 C1045 1.524 . S
C1047 C1044 1.420 . S
C1047 C1048 1.392 . S
C1047 C1051 1.495 . S
C1048 C1047 1.392 . S
C1048 C1049 1.385 . S
C1048 C1050 1.478 . S
C1049 H1043 0.930 . S
C1049 C1045 1.400 1_455 S
C1049 C1048 1.385 . S
C1050 C1048 1.478 . S
C1050 C1052 1.381 . S
C1050 C1056 1.383 . S
C1051 C1047 1.495 . S
C1051 H1057 0.959 . S
C1051 H1058 0.961 . S
C1051 H1059 0.960 . S
C1052 C1050 1.381 . S
C1052 C1053 1.394 . S
C1052 H1060 0.930 . S
C1053 C1052 1.394 . S
C1053 C1054 1.383 . S
C1053 H1061 0.929 . S
C1054 C1053 1.383 . S
C1054 C1055 1.377 . S
C1055 H1039 0.930 . S
C1055 C1054 1.377 . S
C1055 C1056 1.379 . S
C1056 H1040 0.931 . S
C1056 C1050 1.383 . S
C1056 C1055 1.379 . S
H1057 C1051 0.959 . S
H1058 C1051 0.961 . S
H1059 C1051 0.960 . S
H1060 C1052 0.930 . S
H1061 C1053 0.929 . S
H1062 C1070 0.929 . S
H1063 C1072 0.930 . S
H1064 C1074 0.930 . S
H1065 C1077 0.929 . S
H1066 C1080 0.930 . S
H1067 C1082 0.960 . S
H1068 C1082 0.960 . S
H1069 C1082 0.960 . S
C1070 H1062 0.929 . S
C1070 C1071 1.377 . S
C1070 C1072 1.384 . S
C1071 C1070 1.377 . S
C1071 C1077 1.390 . S
C1072 H1063 0.930 . S
C1072 C1070 1.384 . S
C1072 C1073 1.372 . S
C1073 C1072 1.372 . S
C1073 C1074 1.400 . S
C1073 C1078 1.490 . S
C1074 H1064 0.930 . S
C1074 C1073 1.400 . S
C1074 C1077 1.386 . S
H1075 C1091 0.930 . S
H1076 C1092 0.931 . S
C1077 H1065 0.929 . S
C1077 C1071 1.390 . S
C1077 C1074 1.386 . S
C1078 C1073 1.490 . S
C1078 C1080 1.395 . S
C1078 C1081 1.403 . S
H1079 C1085 0.930 . S
C1080 H1066 0.930 . S
C1080 C1078 1.395 . S
C1080 C1083 1.403 . S
C1081 C1078 1.403 . S
C1081 C1082 1.524 . S
C1081 C1085 1.400 . S
C1082 H1067 0.960 . S
C1082 H1068 0.960 . S
C1082 H1069 0.960 . S
C1082 C1081 1.524 . S
C1083 C1080 1.403 . S
C1083 C1084 1.392 . S
C1083 C1087 1.495 . S
C1084 C1083 1.392 . S
C1084 C1085 1.385 . S
C1084 C1086 1.478 . S
C1085 H1079 0.930 . S
C1085 C1081 1.400 . S
C1085 C1084 1.385 . S
C1086 C1084 1.478 . S
C1086 C1088 1.381 . S
C1086 C1092 1.383 . S
C1087 C1083 1.495 . S
C1087 H1093 0.959 . S
C1087 H1094 0.961 . S
C1087 H1095 0.960 . S
C1088 C1086 1.381 . S
C1088 C1089 1.394 . S
C1088 H1096 0.930 . S
C1089 C1088 1.394 . S
C1089 C1090 1.383 . S
C1089 H1097 0.929 . S
C1090 C1089 1.383 . S
C1090 C1091 1.377 . S
C1091 H1075 0.930 . S
C1091 C1090 1.377 . S
C1091 C1092 1.379 . S
C1092 H1076 0.931 . S
C1092 C1086 1.383 . S
C1092 C1091 1.379 . S
H1093 C1087 0.959 . S
H1094 C1087 0.961 . S
H1095 C1087 0.960 . S
H1096 C1088 0.930 . S
H1097 C1089 0.929 . S
H1098 C1106 0.929 . S
H1099 C1108 0.930 . S
H1100 C1110 0.930 . S
H1101 C1113 0.929 . S
H1102 C1116 0.930 . S
H1103 C1118 0.960 1_565 S
H1104 C1118 0.960 . S
H1105 C1118 0.960 . S
C1106 H1098 0.929 . S
C1106 C1107 1.377 . S
C1106 C1108 1.384 . S
C1107 C1106 1.377 . S
C1107 C1113 1.390 . S
C1108 H1099 0.930 . S
C1108 C1106 1.384 . S
C1108 C1109 1.372 . S
C1109 C1108 1.372 . S
C1109 C1110 1.400 . S
C1109 C1114 1.490 . S
C1110 H1100 0.930 . S
C1110 C1109 1.400 . S
C1110 C1113 1.386 . S
H1111 C1127 0.930 . S
H1112 C1128 0.931 . S
C1113 H1101 0.929 . S
C1113 C1107 1.390 . S
C1113 C1110 1.386 . S
C1114 C1109 1.490 . S
C1114 C1116 1.395 . S
C1114 C1117 1.403 1_545 S
H1115 C1121 0.930 . S
C1116 H1102 0.930 . S
C1116 C1114 1.395 . S
C1116 C1119 1.403 1_545 S
C1117 C1114 1.403 1_565 S
C1117 C1118 1.524 1_565 S
C1117 C1121 1.400 . S
C1118 H1103 0.960 1_545 S
C1118 H1104 0.960 . S
C1118 H1105 0.960 . S
C1118 C1117 1.524 1_545 S
C1119 C1116 1.403 1_565 S
C1119 C1120 1.392 . S
C1119 C1123 1.495 . S
C1120 C1119 1.392 . S
C1120 C1121 1.385 . S
C1120 C1122 1.478 . S
C1121 H1115 0.930 . S
C1121 C1117 1.400 . S
C1121 C1120 1.385 . S
C1122 C1120 1.478 . S
C1122 C1124 1.381 . S
C1122 C1128 1.383 . S
C1123 C1119 1.495 . S
C1123 H1129 0.959 . S
C1123 H1130 0.961 . S
C1123 H1131 0.960 . S
C1124 C1122 1.381 . S
C1124 C1125 1.394 . S
C1124 H1132 0.930 . S
C1125 C1124 1.394 . S
C1125 C1126 1.383 . S
C1125 H1133 0.929 . S
C1126 C1125 1.383 . S
C1126 C1127 1.377 . S
C1127 H1111 0.930 . S
C1127 C1126 1.377 . S
C1127 C1128 1.379 . S
C1128 H1112 0.931 . S
C1128 C1122 1.383 . S
C1128 C1127 1.379 . S
H1129 C1123 0.959 . S
H1130 C1123 0.961 . S
H1131 C1123 0.960 . S
H1132 C1124 0.930 . S
H1133 C1125 0.929 . S
H1134 C1142 0.929 . S
H1135 C1144 0.930 . S
H1136 C1146 0.930 . S
H1137 C1149 0.929 . S
H1138 C1152 0.930 . S
H1139 C1154 0.960 . S
H1140 C1154 0.960 . S
H1141 C1154 0.960 . S
C1142 H1134 0.929 . S
C1142 C1143 1.377 . S
C1142 C1144 1.384 . S
C1143 C1142 1.377 . S
C1143 C1149 1.390 . S
C1144 H1135 0.930 . S
C1144 C1142 1.384 . S
C1144 C1145 1.372 . S
C1145 C1144 1.372 . S
C1145 C1146 1.400 . S
C1145 C1150 1.490 . S
C1146 H1136 0.930 . S
C1146 C1145 1.400 . S
C1146 C1149 1.386 . S
H1147 C1163 0.930 . S
H1148 C1164 0.931 . S
C1149 H1137 0.929 . S
C1149 C1143 1.390 . S
C1149 C1146 1.386 . S
C1150 C1145 1.490 . S
C1150 C1152 1.395 . S
C1150 C1153 1.403 . S
H1151 C1157 0.930 . S
C1152 H1138 0.930 . S
C1152 C1150 1.395 . S
C1152 C1155 1.403 . S
C1153 C1150 1.403 . S
C1153 C1154 1.524 . S
C1153 C1157 1.400 . S
C1154 H1139 0.960 . S
C1154 H1140 0.960 . S
C1154 H1141 0.960 . S
C1154 C1153 1.524 . S
C1155 C1152 1.403 . S
C1155 C1156 1.392 . S
C1155 C1159 1.495 . S
C1156 C1155 1.392 . S
C1156 C1157 1.385 . S
C1156 C1158 1.478 . S
C1157 H1151 0.930 . S
C1157 C1153 1.400 . S
C1157 C1156 1.385 . S
C1158 C1156 1.478 . S
C1158 C1160 1.381 . S
C1158 C1164 1.383 . S
C1159 C1155 1.495 . S
C1159 H1165 0.959 . S
C1159 H1166 0.961 . S
C1159 H1167 0.960 . S
C1160 C1158 1.381 . S
C1160 C1161 1.394 . S
C1160 H1168 0.930 . S
C1161 C1160 1.394 . S
C1161 C1162 1.383 . S
C1161 H1169 0.929 . S
C1162 C1161 1.383 . S
C1162 C1163 1.377 . S
C1163 H1147 0.930 . S
C1163 C1162 1.377 . S
C1163 C1164 1.379 . S
C1164 H1148 0.931 . S
C1164 C1158 1.383 . S
C1164 C1163 1.379 . S
H1165 C1159 0.959 . S
H1166 C1159 0.961 . S
H1167 C1159 0.960 . S
H1168 C1160 0.930 . S
H1169 C1161 0.929 . S
H1170 C1178 0.929 . S
H1171 C1180 0.930 . S
H1172 C1182 0.930 . S
H1173 C1185 0.929 . S
H1174 C1188 0.930 . S
H1175 C1190 0.960 . S
H1176 C1190 0.960 . S
H1177 C1190 0.960 . S
C1178 H1170 0.929 . S
C1178 C1179 1.377 . S
C1178 C1180 1.384 . S
C1179 C1178 1.377 . S
C1179 C1185 1.390 . S
C1180 H1171 0.930 . S
C1180 C1178 1.384 . S
C1180 C1181 1.372 . S
C1181 C1180 1.372 . S
C1181 C1182 1.400 . S
C1181 C1186 1.490 . S
C1182 H1172 0.930 . S
C1182 C1181 1.400 . S
C1182 C1185 1.386 . S
H1183 C1199 0.930 . S
H1184 C1200 0.931 . S
C1185 H1173 0.929 . S
C1185 C1179 1.390 . S
C1185 C1182 1.386 . S
C1186 C1181 1.490 . S
C1186 C1188 1.395 . S
C1186 C1189 1.403 . S
H1187 C1193 0.930 . S
C1188 H1174 0.930 . S
C1188 C1186 1.395 . S
C1188 C1191 1.403 . S
C1189 C1186 1.403 . S
C1189 C1190 1.524 . S
C1189 C1193 1.400 . S
C1190 H1175 0.960 . S
C1190 H1176 0.960 . S
C1190 H1177 0.960 . S
C1190 C1189 1.524 . S
C1191 C1188 1.403 . S
C1191 C1192 1.392 . S
C1191 C1195 1.495 . S
C1192 C1191 1.392 . S
C1192 C1193 1.385 . S
C1192 C1194 1.478 . S
C1193 H1187 0.930 . S
C1193 C1189 1.400 . S
C1193 C1192 1.385 . S
C1194 C1192 1.478 . S
C1194 C1196 1.381 . S
C1194 C1200 1.383 . S
C1195 C1191 1.495 . S
C1195 H1201 0.959 . S
C1195 H1202 0.961 . S
C1195 H1203 0.960 . S
C1196 C1194 1.381 . S
C1196 C1197 1.394 . S
C1196 H1204 0.930 . S
C1197 C1196 1.394 . S
C1197 C1198 1.383 . S
C1197 H1205 0.929 . S
C1198 C1197 1.383 . S
C1198 C1199 1.377 . S
C1199 H1183 0.930 . S
C1199 C1198 1.377 . S
C1199 C1200 1.379 . S
C1200 H1184 0.931 . S
C1200 C1194 1.383 . S
C1200 C1199 1.379 . S
H1201 C1195 0.959 . S
H1202 C1195 0.961 . S
H1203 C1195 0.960 . S
H1204 C1196 0.930 . S
H1205 C1197 0.929 . S
H1206 C1214 0.929 . S
H1207 C1216 0.930 . S
H1208 C1218 0.930 . S
H1209 C1221 0.929 . S
H1210 C1224 0.930 . S
H1211 C1226 0.960 . S
H1212 C1226 0.960 . S
H1213 C1226 0.960 . S
C1214 H1206 0.929 . S
C1214 C1215 1.377 . S
C1214 C1216 1.384 . S
C1215 C1214 1.377 . S
C1215 C1221 1.390 . S
C1216 H1207 0.930 . S
C1216 C1214 1.384 . S
C1216 C1217 1.372 . S
C1217 C1216 1.372 . S
C1217 C1218 1.400 . S
C1217 C1222 1.490 . S
C1218 H1208 0.930 . S
C1218 C1217 1.400 . S
C1218 C1221 1.386 . S
H1219 C1235 0.930 . S
H1220 C1236 0.931 . S
C1221 H1209 0.929 . S
C1221 C1215 1.390 . S
C1221 C1218 1.386 . S
C1222 C1217 1.490 . S
C1222 C1224 1.395 . S
C1222 C1225 1.403 . S
H1223 C1229 0.930 . S
C1224 H1210 0.930 . S
C1224 C1222 1.395 . S
C1224 C1227 1.403 . S
C1225 C1222 1.403 . S
C1225 C1226 1.524 . S
C1225 C1229 1.400 . S
C1226 H1211 0.960 . S
C1226 H1212 0.960 . S
C1226 H1213 0.960 . S
C1226 C1225 1.524 . S
C1227 C1224 1.403 . S
C1227 C1228 1.392 . S
C1227 C1231 1.495 . S
C1228 C1227 1.392 . S
C1228 C1229 1.385 . S
C1228 C1230 1.478 . S
C1229 H1223 0.930 . S
C1229 C1225 1.400 . S
C1229 C1228 1.385 . S
C1230 C1228 1.478 . S
C1230 C1232 1.381 . S
C1230 C1236 1.383 . S
C1231 C1227 1.495 . S
C1231 H1237 0.959 . S
C1231 H1238 0.961 . S
C1231 H1239 0.960 . S
C1232 C1230 1.381 . S
C1232 C1233 1.394 . S
C1232 H1240 0.930 . S
C1233 C1232 1.394 . S
C1233 C1234 1.383 . S
C1233 H1241 0.929 . S
C1234 C1233 1.383 . S
C1234 C1235 1.377 . S
C1235 H1219 0.930 . S
C1235 C1234 1.377 . S
C1235 C1236 1.379 . S
C1236 H1220 0.931 . S
C1236 C1230 1.383 . S
C1236 C1235 1.379 . S
H1237 C1231 0.959 . S
H1238 C1231 0.961 . S
H1239 C1231 0.960 . S
H1240 C1232 0.930 . S
H1241 C1233 0.929 . S
H1242 C1250 0.929 . S
H1243 C1252 0.930 . S
H1244 C1254 0.930 . S
H1245 C1257 0.929 . S
H1246 C1260 0.930 . S
H1247 C1262 0.960 . S
H1248 C1262 0.960 . S
H1249 C1262 0.960 . S
C1250 H1242 0.929 . S
C1250 C1251 1.377 . S
C1250 C1252 1.384 . S
C1251 C1250 1.377 . S
C1251 C1257 1.390 . S
C1252 H1243 0.930 . S
C1252 C1250 1.384 . S
C1252 C1253 1.372 . S
C1253 C1252 1.372 . S
C1253 C1254 1.400 . S
C1253 C1258 1.490 . S
C1254 H1244 0.930 . S
C1254 C1253 1.400 . S
C1254 C1257 1.386 . S
H1255 C1271 0.930 . S
H1256 C1272 0.931 . S
C1257 H1245 0.929 . S
C1257 C1251 1.390 . S
C1257 C1254 1.386 . S
C1258 C1253 1.490 . S
C1258 C1260 1.395 . S
C1258 C1261 1.403 . S
H1259 C1265 0.930 . S
C1260 H1246 0.930 . S
C1260 C1258 1.395 . S
C1260 C1263 1.403 . S
C1261 C1258 1.403 . S
C1261 C1262 1.524 . S
C1261 C1265 1.400 . S
C1262 H1247 0.960 . S
C1262 H1248 0.960 . S
C1262 H1249 0.960 . S
C1262 C1261 1.524 . S
C1263 C1260 1.403 . S
C1263 C1264 1.392 . S
C1263 C1267 1.495 . S
C1264 C1263 1.392 . S
C1264 C1265 1.385 . S
C1264 C1266 1.478 . S
C1265 H1259 0.930 . S
C1265 C1261 1.400 . S
C1265 C1264 1.385 . S
C1266 C1264 1.478 . S
C1266 C1268 1.381 . S
C1266 C1272 1.383 . S
C1267 C1263 1.495 . S
C1267 H1273 0.959 . S
C1267 H1274 0.961 . S
C1267 H1275 0.960 . S
C1268 C1266 1.381 . S
C1268 C1269 1.394 . S
C1268 H1276 0.930 . S
C1269 C1268 1.394 . S
C1269 C1270 1.383 . S
C1269 H1277 0.929 . S
C1270 C1269 1.383 . S
C1270 C1271 1.377 . S
C1271 H1255 0.930 . S
C1271 C1270 1.377 . S
C1271 C1272 1.379 . S
C1272 H1256 0.931 . S
C1272 C1266 1.383 . S
C1272 C1271 1.379 . S
H1273 C1267 0.959 . S
H1274 C1267 0.961 . S
H1275 C1267 0.960 . S
H1276 C1268 0.930 . S
H1277 C1269 0.929 . S
H1278 C1286 0.929 . S
H1279 C1288 0.930 . S
H1280 C1290 0.930 . S
H1281 C1293 0.929 . S
H1282 C1296 0.930 . S
H1283 C1298 0.960 . S
H1284 C1298 0.960 . S
H1285 C1298 0.960 . S
C1286 H1278 0.929 . S
C1286 C1287 1.377 . S
C1286 C1288 1.384 . S
C1287 C1286 1.377 . S
C1287 C1293 1.390 . S
C1288 H1279 0.930 . S
C1288 C1286 1.384 . S
C1288 C1289 1.372 . S
C1289 C1288 1.372 . S
C1289 C1290 1.400 . S
C1289 C1294 1.490 . S
C1290 H1280 0.930 . S
C1290 C1289 1.400 . S
C1290 C1293 1.386 . S
H1291 C1307 0.930 . S
H1292 C1308 0.931 . S
C1293 H1281 0.929 . S
C1293 C1287 1.390 . S
C1293 C1290 1.386 . S
C1294 C1289 1.490 . S
C1294 C1296 1.395 . S
C1294 C1297 1.403 . S
H1295 C1301 0.930 . S
C1296 H1282 0.930 . S
C1296 C1294 1.395 . S
C1296 C1299 1.403 . S
C1297 C1294 1.403 . S
C1297 C1298 1.524 . S
C1297 C1301 1.400 . S
C1298 H1283 0.960 . S
C1298 H1284 0.960 . S
C1298 H1285 0.960 . S
C1298 C1297 1.524 . S
C1299 C1296 1.403 . S
C1299 C1300 1.392 . S
C1299 C1303 1.495 . S
C1300 C1299 1.392 . S
C1300 C1301 1.385 . S
C1300 C1302 1.478 . S
C1301 H1295 0.930 . S
C1301 C1297 1.400 . S
C1301 C1300 1.385 . S
C1302 C1300 1.478 . S
C1302 C1304 1.381 . S
C1302 C1308 1.383 . S
C1303 C1299 1.495 . S
C1303 H1309 0.959 . S
C1303 H1310 0.961 . S
C1303 H1311 0.960 . S
C1304 C1302 1.381 . S
C1304 C1305 1.394 . S
C1304 H1312 0.930 . S
C1305 C1304 1.394 . S
C1305 C1306 1.383 . S
C1305 H1313 0.929 . S
C1306 C1305 1.383 . S
C1306 C1307 1.377 . S
C1307 H1291 0.930 . S
C1307 C1306 1.377 . S
C1307 C1308 1.379 . S
C1308 H1292 0.931 . S
C1308 C1302 1.383 . S
C1308 C1307 1.379 . S
H1309 C1303 0.959 . S
H1310 C1303 0.961 . S
H1311 C1303 0.960 . S
H1312 C1304 0.930 . S
H1313 C1305 0.929 . S
H1314 C1322 0.929 . S
H1315 C1324 0.930 . S
H1316 C1326 0.930 . S
H1317 C1329 0.929 . S
H1318 C1332 0.930 . S
H1319 C1334 0.960 . S
H1320 C1334 0.960 . S
H1321 C1334 0.960 . S
C1322 H1314 0.929 . S
C1322 C1323 1.377 . S
C1322 C1324 1.384 . S
C1323 C1322 1.377 . S
C1323 C1329 1.390 . S
C1324 H1315 0.930 . S
C1324 C1322 1.384 . S
C1324 C1325 1.372 . S
C1325 C1324 1.372 . S
C1325 C1326 1.400 . S
C1325 C1330 1.490 . S
C1326 H1316 0.930 . S
C1326 C1325 1.400 . S
C1326 C1329 1.386 . S
H1327 C1343 0.930 . S
H1328 C1344 0.931 . S
C1329 H1317 0.929 . S
C1329 C1323 1.390 . S
C1329 C1326 1.386 . S
C1330 C1325 1.490 . S
C1330 C1332 1.395 . S
C1330 C1333 1.403 . S
H1331 C1337 0.930 . S
C1332 H1318 0.930 . S
C1332 C1330 1.395 . S
C1332 C1335 1.403 . S
C1333 C1330 1.403 . S
C1333 C1334 1.524 . S
C1333 C1337 1.400 . S
C1334 H1319 0.960 . S
C1334 H1320 0.960 . S
C1334 H1321 0.960 . S
C1334 C1333 1.524 . S
C1335 C1332 1.403 . S
C1335 C1336 1.392 . S
C1335 C1339 1.495 . S
C1336 C1335 1.392 . S
C1336 C1337 1.385 . S
C1336 C1338 1.478 . S
C1337 H1331 0.930 . S
C1337 C1333 1.400 . S
C1337 C1336 1.385 . S
C1338 C1336 1.478 . S
C1338 C1340 1.381 . S
C1338 C1344 1.383 . S
C1339 C1335 1.495 . S
C1339 H1345 0.959 . S
C1339 H1346 0.961 . S
C1339 H1347 0.960 . S
C1340 C1338 1.381 . S
C1340 C1341 1.394 . S
C1340 H1348 0.930 . S
C1341 C1340 1.394 . S
C1341 C1342 1.383 . S
C1341 H1349 0.929 . S
C1342 C1341 1.383 . S
C1342 C1343 1.377 . S
C1343 H1327 0.930 . S
C1343 C1342 1.377 . S
C1343 C1344 1.379 . S
C1344 H1328 0.931 . S
C1344 C1338 1.383 . S
C1344 C1343 1.379 . S
H1345 C1339 0.959 . S
H1346 C1339 0.961 . S
H1347 C1339 0.960 . S
H1348 C1340 0.930 . S
H1349 C1341 0.929 . S
H1350 C1358 0.929 . S
H1351 C1360 0.930 . S
H1352 C1362 0.930 . S
H1353 C1365 0.929 . S
H1354 C1368 0.930 . S
H1355 C1370 0.960 . S
H1356 C1370 0.960 . S
H1357 C1370 0.960 . S
C1358 H1350 0.929 . S
C1358 C1359 1.377 . S
C1358 C1360 1.384 . S
C1359 C1358 1.377 . S
C1359 C1365 1.390 . S
C1360 H1351 0.930 . S
C1360 C1358 1.384 . S
C1360 C1361 1.372 . S
C1361 C1360 1.372 . S
C1361 C1362 1.400 . S
C1361 C1366 1.490 . S
C1362 H1352 0.930 . S
C1362 C1361 1.400 . S
C1362 C1365 1.386 . S
H1363 C1379 0.930 . S
H1364 C1380 0.931 . S
C1365 H1353 0.929 . S
C1365 C1359 1.390 . S
C1365 C1362 1.386 . S
C1366 C1361 1.490 . S
C1366 C1368 1.395 . S
C1366 C1369 1.403 . S
H1367 C1373 0.930 . S
C1368 H1354 0.930 . S
C1368 C1366 1.395 . S
C1368 C1371 1.403 1_545 S
C1369 C1366 1.403 . S
C1369 C1370 1.524 . S
C1369 C1373 1.400 1_545 S
C1370 H1355 0.960 . S
C1370 H1356 0.960 . S
C1370 H1357 0.960 . S
C1370 C1369 1.524 . S
C1371 C1368 1.403 1_565 S
C1371 C1372 1.392 . S
C1371 C1375 1.495 . S
C1372 C1371 1.392 . S
C1372 C1373 1.385 . S
C1372 C1374 1.478 . S
C1373 H1367 0.930 . S
C1373 C1369 1.400 1_565 S
C1373 C1372 1.385 . S
C1374 C1372 1.478 . S
C1374 C1376 1.381 . S
C1374 C1380 1.383 . S
C1375 C1371 1.495 . S
C1375 H1381 0.959 . S
C1375 H1382 0.961 . S
C1375 H1383 0.960 . S
C1376 C1374 1.381 . S
C1376 C1377 1.394 . S
C1376 H1384 0.930 . S
C1377 C1376 1.394 . S
C1377 C1378 1.383 . S
C1377 H1385 0.929 . S
C1378 C1377 1.383 . S
C1378 C1379 1.377 . S
C1379 H1363 0.930 . S
C1379 C1378 1.377 . S
C1379 C1380 1.379 . S
C1380 H1364 0.931 . S
C1380 C1374 1.383 . S
C1380 C1379 1.379 . S
H1381 C1375 0.959 . S
H1382 C1375 0.961 . S
H1383 C1375 0.960 . S
H1384 C1376 0.930 . S
H1385 C1377 0.929 . S
H1386 C1394 0.929 . S
H1387 C1396 0.930 . S
H1388 C1398 0.930 . S
H1389 C1401 0.929 . S
H1390 C1404 0.930 . S
H1391 C1406 0.960 . S
H1392 C1406 0.960 . S
H1393 C1406 0.960 . S
C1394 H1386 0.929 . S
C1394 C1395 1.377 . S
C1394 C1396 1.384 . S
C1395 C1394 1.377 . S
C1395 C1401 1.390 . S
C1396 H1387 0.930 . S
C1396 C1394 1.384 . S
C1396 C1397 1.372 . S
C1397 C1396 1.372 . S
C1397 C1398 1.400 . S
C1397 C1402 1.490 . S
C1398 H1388 0.930 . S
C1398 C1397 1.400 . S
C1398 C1401 1.386 . S
H1399 C1415 0.930 . S
H1400 C1416 0.931 . S
C1401 H1389 0.929 . S
C1401 C1395 1.390 . S
C1401 C1398 1.386 . S
C1402 C1397 1.490 . S
C1402 C1404 1.395 . S
C1402 C1405 1.403 1_655 S
H1403 C1409 0.930 . S
C1404 H1390 0.930 . S
C1404 C1402 1.395 . S
C1404 C1407 1.403 1_655 S
C1405 C1402 1.403 1_455 S
C1405 C1406 1.524 . S
C1405 C1409 1.400 . S
C1406 H1391 0.960 . S
C1406 H1392 0.960 . S
C1406 H1393 0.960 . S
C1406 C1405 1.524 . S
C1407 C1404 1.403 1_455 S
C1407 C1408 1.392 . S
C1407 C1411 1.495 . S
C1408 C1407 1.392 . S
C1408 C1409 1.385 . S
C1408 C1410 1.478 . S
C1409 H1403 0.930 . S
C1409 C1405 1.400 . S
C1409 C1408 1.385 . S
C1410 C1408 1.478 . S
C1410 C1412 1.381 . S
C1410 C1416 1.383 . S
C1411 C1407 1.495 . S
C1411 H1417 0.929 1_455 S
C1411 H1418 0.961 . S
C1411 H1419 0.960 . S
C1412 C1410 1.381 . S
C1412 C1413 1.394 . S
C1412 H1420 0.930 . S
C1413 C1412 1.394 . S
C1413 C1414 1.383 . S
C1413 H1421 0.929 . S
C1414 C1413 1.383 . S
C1414 C1415 1.377 . S
C1415 H1399 0.930 . S
C1415 C1414 1.377 . S
C1415 C1416 1.379 . S
C1416 H1400 0.931 . S
C1416 C1410 1.383 . S
C1416 C1415 1.379 . S
H1417 C1411 0.929 1_655 S
H1418 C1411 0.961 . S
H1419 C1411 0.960 . S
H1420 C1412 0.930 . S
H1421 C1413 0.929 . S
H1422 C1430 0.929 . S
H1423 C1432 0.930 . S
H1424 C1434 0.930 . S
H1425 C1437 0.929 . S
H1426 C1440 0.930 . S
H1427 C1442 0.960 . S
H1428 C1442 0.960 . S
H1429 C1442 0.960 . S
C1430 H1422 0.929 . S
C1430 C1431 1.377 . S
C1430 C1432 1.384 . S
C1431 C1430 1.377 . S
C1431 C1437 1.390 . S
C1432 H1423 0.930 . S
C1432 C1430 1.384 . S
C1432 C1433 1.372 . S
C1433 C1432 1.372 . S
C1433 C1434 1.400 . S
C1433 C1438 1.490 . S
C1434 H1424 0.930 . S
C1434 C1433 1.400 . S
C1434 C1437 1.386 . S
H1435 C1451 0.930 . S
H1436 C1452 0.931 . S
C1437 H1425 0.929 . S
C1437 C1431 1.390 . S
C1437 C1434 1.386 . S
C1438 C1433 1.490 . S
C1438 C1440 1.395 . S
C1438 C1441 1.403 . S
H1439 C1445 0.930 . S
C1440 H1426 0.930 . S
C1440 C1438 1.395 . S
C1440 C1443 1.403 . S
C1441 C1438 1.403 . S
C1441 C1442 1.524 . S
C1441 C1445 1.400 . S
C1442 H1427 0.960 . S
C1442 H1428 0.960 . S
C1442 H1429 0.960 . S
C1442 C1441 1.524 . S
C1443 C1440 1.403 . S
C1443 C1444 1.392 . S
C1443 C1447 1.495 . S
C1444 C1443 1.392 . S
C1444 C1445 1.385 . S
C1444 C1446 1.478 . S
C1445 H1439 0.930 . S
C1445 C1441 1.400 . S
C1445 C1444 1.385 . S
C1446 C1444 1.478 . S
C1446 C1448 1.381 . S
C1446 C1452 1.383 . S
C1447 C1443 1.495 . S
C1447 H1453 0.959 . S
C1447 H1454 0.961 . S
C1447 H1455 0.960 . S
C1448 C1446 1.381 . S
C1448 C1449 1.394 . S
C1448 H1456 0.930 . S
C1449 C1448 1.394 . S
C1449 C1450 1.383 . S
C1449 H1457 0.929 . S
C1450 C1449 1.383 . S
C1450 C1451 1.377 . S
C1451 H1435 0.930 . S
C1451 C1450 1.377 . S
C1451 C1452 1.379 . S
C1452 H1436 0.931 . S
C1452 C1446 1.383 . S
C1452 C1451 1.379 . S
H1453 C1447 0.959 . S
H1454 C1447 0.961 . S
H1455 C1447 0.960 . S
H1456 C1448 0.930 . S
H1457 C1449 0.929 . S
H1458 C1466 0.929 . S
H1459 C1468 0.930 . S
H1460 C1470 0.930 . S
H1461 C1473 0.929 . S
H1462 C1476 0.930 . S
H1463 C1478 0.960 . S
H1464 C1478 0.960 . S
H1465 C1478 0.960 . S
C1466 H1458 0.929 . S
C1466 C1467 1.377 . S
C1466 C1468 1.384 . S
C1467 C1466 1.377 . S
C1467 C1473 1.390 . S
C1468 H1459 0.930 . S
C1468 C1466 1.384 . S
C1468 C1469 1.372 . S
C1469 C1468 1.372 . S
C1469 C1470 1.400 . S
C1469 C1474 1.490 . S
C1470 H1460 0.930 . S
C1470 C1469 1.400 . S
C1470 C1473 1.386 . S
H1471 C1487 0.930 . S
H1472 C1488 0.931 . S
C1473 H1461 0.929 . S
C1473 C1467 1.390 . S
C1473 C1470 1.386 . S
C1474 C1469 1.490 . S
C1474 C1476 1.395 . S
C1474 C1477 1.403 . S
H1475 C1481 0.930 . S
C1476 H1462 0.930 . S
C1476 C1474 1.395 . S
C1476 C1479 1.403 . S
C1477 C1474 1.403 . S
C1477 C1478 1.524 . S
C1477 C1481 1.400 . S
C1478 H1463 0.960 . S
C1478 H1464 0.960 . S
C1478 H1465 0.960 . S
C1478 C1477 1.524 . S
C1479 C1476 1.403 . S
C1479 C1480 1.392 . S
C1479 C1483 1.495 . S
C1480 C1479 1.392 . S
C1480 C1481 1.385 . S
C1480 C1482 1.478 . S
C1481 H1475 0.930 . S
C1481 C1477 1.400 . S
C1481 C1480 1.385 . S
C1482 C1480 1.478 . S
C1482 C1484 1.381 . S
C1482 C1488 1.383 . S
C1483 C1479 1.495 . S
C1483 H1489 0.959 . S
C1483 H1490 0.961 . S
C1483 H1491 0.960 . S
C1484 C1482 1.381 . S
C1484 C1485 1.394 . S
C1484 H1492 0.930 . S
C1485 C1484 1.394 . S
C1485 C1486 1.383 . S
C1485 H1493 0.929 . S
C1486 C1485 1.383 . S
C1486 C1487 1.377 . S
C1487 H1471 0.930 . S
C1487 C1486 1.377 . S
C1487 C1488 1.379 . S
C1488 H1472 0.931 . S
C1488 C1482 1.383 . S
C1488 C1487 1.379 . S
H1489 C1483 0.959 . S
H1490 C1483 0.961 . S
H1491 C1483 0.960 . S
H1492 C1484 0.930 . S
H1493 C1485 0.929 . S
H1494 C1502 0.929 . S
H1495 C1504 0.930 . S
H1496 C1506 0.930 . S
H1497 C1509 0.929 . S
H1498 C1512 0.930 . S
H1499 C1514 0.960 . S
H1500 C1514 0.960 . S
H1501 C1514 0.960 . S
C1502 H1494 0.929 . S
C1502 C1503 1.377 . S
C1502 C1504 1.384 . S
C1503 C1502 1.377 . S
C1503 C1509 1.390 . S
C1504 H1495 0.930 . S
C1504 C1502 1.384 . S
C1504 C1505 1.372 . S
C1505 C1504 1.372 . S
C1505 C1506 1.400 . S
C1505 C1510 1.490 . S
C1506 H1496 0.930 . S
C1506 C1505 1.400 . S
C1506 C1509 1.386 . S
H1507 C1523 0.930 . S
H1508 C1524 0.931 . S
C1509 H1497 0.929 . S
C1509 C1503 1.390 . S
C1509 C1506 1.386 . S
C1510 C1505 1.490 . S
C1510 C1512 1.395 . S
C1510 C1513 1.403 . S
H1511 C1517 0.930 . S
C1512 H1498 0.930 . S
C1512 C1510 1.395 . S
C1512 C1515 1.403 . S
C1513 C1510 1.403 . S
C1513 C1514 1.524 . S
C1513 C1517 1.400 . S
C1514 H1499 0.960 . S
C1514 H1500 0.960 . S
C1514 H1501 0.960 . S
C1514 C1513 1.524 . S
C1515 C1512 1.403 . S
C1515 C1516 1.392 . S
C1515 C1519 1.495 . S
C1516 C1515 1.392 . S
C1516 C1517 1.385 . S
C1516 C1518 1.478 . S
C1517 H1511 0.930 . S
C1517 C1513 1.400 . S
C1517 C1516 1.385 . S
C1518 C1516 1.478 . S
C1518 C1520 1.381 . S
C1518 C1524 1.383 . S
C1519 C1515 1.495 . S
C1519 H1525 0.959 . S
C1519 H1526 0.961 . S
C1519 H1527 0.960 . S
C1520 C1518 1.381 . S
C1520 C1521 1.394 . S
C1520 H1528 0.930 . S
C1521 C1520 1.394 . S
C1521 C1522 1.383 . S
C1521 H1529 0.929 . S
C1522 C1521 1.383 . S
C1522 C1523 1.377 . S
C1523 H1507 0.930 . S
C1523 C1522 1.377 . S
C1523 C1524 1.379 . S
C1524 H1508 0.931 . S
C1524 C1518 1.383 . S
C1524 C1523 1.379 . S
H1525 C1519 0.959 . S
H1526 C1519 0.961 . S
H1527 C1519 0.960 . S
H1528 C1520 0.930 . S
H1529 C1521 0.929 . S
H1530 C1538 0.929 . S
H1531 C1540 0.930 . S
H1532 C1542 0.930 . S
H1533 C1545 0.929 . S
H1534 C1548 0.930 . S
H1535 C1550 0.960 . S
H1536 C1550 0.960 . S
H1537 C1550 0.960 . S
C1538 H1530 0.929 . S
C1538 C1539 1.377 . S
C1538 C1540 1.384 . S
C1539 C1538 1.377 . S
C1539 C1545 1.390 . S
C1540 H1531 0.930 . S
C1540 C1538 1.384 . S
C1540 C1541 1.372 . S
C1541 C1540 1.372 . S
C1541 C1542 1.400 . S
C1541 C1546 1.490 . S
C1542 H1532 0.930 . S
C1542 C1541 1.400 . S
C1542 C1545 1.386 . S
H1543 C1559 0.930 . S
H1544 C1560 0.931 . S
C1545 H1533 0.929 . S
C1545 C1539 1.390 . S
C1545 C1542 1.386 . S
C1546 C1541 1.490 . S
C1546 C1548 1.395 . S
C1546 C1549 1.403 . S
H1547 C1553 0.930 . S
C1548 H1534 0.930 . S
C1548 C1546 1.395 . S
C1548 C1551 1.403 . S
C1549 C1546 1.403 . S
C1549 C1550 1.524 . S
C1549 C1553 1.400 . S
C1550 H1535 0.960 . S
C1550 H1536 0.960 . S
C1550 H1537 0.960 . S
C1550 C1549 1.524 . S
C1551 C1548 1.403 . S
C1551 C1552 1.392 . S
C1551 C1555 1.495 . S
C1552 C1551 1.392 . S
C1552 C1553 1.385 . S
C1552 C1554 1.478 . S
C1553 H1547 0.930 . S
C1553 C1549 1.400 . S
C1553 C1552 1.385 . S
C1554 C1552 1.478 . S
C1554 C1556 1.381 . S
C1554 C1560 1.383 . S
C1555 C1551 1.495 . S
C1555 H1561 0.959 . S
C1555 H1562 0.961 . S
C1555 H1563 0.960 . S
C1556 C1554 1.381 . S
C1556 C1557 1.394 . S
C1556 H1564 0.930 . S
C1557 C1556 1.394 . S
C1557 C1558 1.383 . S
C1557 H1565 0.929 . S
C1558 C1557 1.383 . S
C1558 C1559 1.377 . S
C1559 H1543 0.930 . S
C1559 C1558 1.377 . S
C1559 C1560 1.379 . S
C1560 H1544 0.931 . S
C1560 C1554 1.383 . S
C1560 C1559 1.379 . S
H1561 C1555 0.959 . S
H1562 C1555 0.961 . S
H1563 C1555 0.960 . S
H1564 C1556 0.930 . S
H1565 C1557 0.929 . S
H1566 C1574 0.929 . S
H1567 C1576 0.930 . S
H1568 C1578 0.930 . S
H1569 C1581 0.929 . S
H1570 C1584 0.929 1_565 S
H1571 C1586 0.960 1_545 S
H1572 C1586 0.960 . S
H1573 C1586 0.960 . S
C1574 H1566 0.929 . S
C1574 C1575 1.377 . S
C1574 C1576 1.384 . S
C1575 C1574 1.377 . S
C1575 C1581 1.390 . S
C1576 H1567 0.930 . S
C1576 C1574 1.384 . S
C1576 C1577 1.372 . S
C1577 C1576 1.372 . S
C1577 C1578 1.400 . S
C1577 C1582 1.490 . S
C1578 H1568 0.930 . S
C1578 C1577 1.400 . S
C1578 C1581 1.386 . S
H1579 C1595 0.930 . S
H1580 C1596 0.931 . S
C1581 H1569 0.929 . S
C1581 C1575 1.390 . S
C1581 C1578 1.386 . S
C1582 C1577 1.490 . S
C1582 C1584 1.395 1_565 S
C1582 C1585 1.403 1_565 S
H1583 C1589 0.930 . S
C1584 H1570 0.929 1_545 S
C1584 C1582 1.395 1_545 S
C1584 C1587 1.403 . S
C1585 C1582 1.403 1_545 S
C1585 C1586 1.524 1_545 S
C1585 C1589 1.400 . S
C1586 H1571 0.960 1_565 S
C1586 H1572 0.960 . S
C1586 H1573 0.960 . S
C1586 C1585 1.524 1_565 S
C1587 C1584 1.403 . S
C1587 C1588 1.392 . S
C1587 C1591 1.495 . S
C1588 C1587 1.392 . S
C1588 C1589 1.385 . S
C1588 C1590 1.478 . S
C1589 H1583 0.930 . S
C1589 C1585 1.400 . S
C1589 C1588 1.385 . S
C1590 C1588 1.478 . S
C1590 C1592 1.381 . S
C1590 C1596 1.383 . S
C1591 C1587 1.495 . S
C1591 H1597 0.959 . S
C1591 H1598 0.961 . S
C1591 H1599 0.960 . S
C1592 C1590 1.381 . S
C1592 C1593 1.394 . S
C1592 H1600 0.930 . S
C1593 C1592 1.394 . S
C1593 C1594 1.383 . S
C1593 H1601 0.929 . S
C1594 C1593 1.383 . S
C1594 C1595 1.377 . S
C1595 H1579 0.930 . S
C1595 C1594 1.377 . S
C1595 C1596 1.379 . S
C1596 H1580 0.931 . S
C1596 C1590 1.383 . S
C1596 C1595 1.379 . S
H1597 C1591 0.959 . S
H1598 C1591 0.961 . S
H1599 C1591 0.960 . S
H1600 C1592 0.930 . S
H1601 C1593 0.929 . S
H1602 C1610 0.929 . S
H1603 C1612 0.930 . S
H1604 C1614 0.930 . S
H1605 C1617 0.929 . S
H1606 C1620 0.930 . S
H1607 C1622 0.967 . S
H1608 C1622 0.960 . S
H1609 C1622 0.960 . S
C1610 H1602 0.929 . S
C1610 C1611 1.377 . S
C1610 C1612 1.384 . S
C1611 C1610 1.377 . S
C1611 C1617 1.390 . S
C1612 H1603 0.930 . S
C1612 C1610 1.384 . S
C1612 C1613 1.372 . S
C1613 C1612 1.372 . S
C1613 C1614 1.400 . S
C1613 C1618 1.490 1_455 S
C1614 H1604 0.930 . S
C1614 C1613 1.400 . S
C1614 C1617 1.386 . S
H1615 C1631 0.930 . S
H1616 C1632 0.931 . S
C1617 H1605 0.929 . S
C1617 C1611 1.390 . S
C1617 C1614 1.386 . S
C1618 C1613 1.490 1_655 S
C1618 C1620 1.395 . S
C1618 C1621 1.403 . S
H1619 C1625 0.930 . S
C1620 H1606 0.930 . S
C1620 C1618 1.395 . S
C1620 C1623 1.403 . S
C1621 C1618 1.403 . S
C1621 C1622 1.524 1_655 S
C1621 C1625 1.400 . S
C1622 H1607 0.967 . S
C1622 H1608 0.960 . S
C1622 H1609 0.960 . S
C1622 C1621 1.524 1_455 S
C1623 C1620 1.403 . S
C1623 C1624 1.392 . S
C1623 C1627 1.495 . S
C1624 C1623 1.392 . S
C1624 C1625 1.385 . S
C1624 C1626 1.478 . S
C1625 H1619 0.930 . S
C1625 C1621 1.400 . S
C1625 C1624 1.385 . S
C1626 C1624 1.478 . S
C1626 C1628 1.381 . S
C1626 C1632 1.383 . S
C1627 C1623 1.495 . S
C1627 H1633 0.959 . S
C1627 H1634 0.961 . S
C1627 H1635 0.960 . S
C1628 C1626 1.381 . S
C1628 C1629 1.394 . S
C1628 H1636 0.930 . S
C1629 C1628 1.394 . S
C1629 C1630 1.383 . S
C1629 H1637 0.929 . S
C1630 C1629 1.383 . S
C1630 C1631 1.377 . S
C1631 H1615 0.930 . S
C1631 C1630 1.377 . S
C1631 C1632 1.379 . S
C1632 H1616 0.931 . S
C1632 C1626 1.383 . S
C1632 C1631 1.379 . S
H1633 C1627 0.959 . S
H1634 C1627 0.961 . S
H1635 C1627 0.960 . S
H1636 C1628 0.930 . S
H1637 C1629 0.929 . S
H1638 C1646 0.929 . S
H1639 C1648 0.930 . S
H1640 C1650 0.930 . S
H1641 C1653 0.929 . S
H1642 C1656 0.930 . S
H1643 C1658 0.960 . S
H1644 C1658 0.960 . S
H1645 C1658 0.960 . S
C1646 H1638 0.929 . S
C1646 C1647 1.377 . S
C1646 C1648 1.384 . S
C1647 C1646 1.377 . S
C1647 C1653 1.390 . S
C1648 H1639 0.930 . S
C1648 C1646 1.384 . S
C1648 C1649 1.372 . S
C1649 C1648 1.372 . S
C1649 C1650 1.400 . S
C1649 C1654 1.490 . S
C1650 H1640 0.930 . S
C1650 C1649 1.400 . S
C1650 C1653 1.386 . S
H1651 C1667 0.930 . S
H1652 C1668 0.931 . S
C1653 H1641 0.929 . S
C1653 C1647 1.390 . S
C1653 C1650 1.386 . S
C1654 C1649 1.490 . S
C1654 C1656 1.395 . S
C1654 C1657 1.403 . S
H1655 C1661 0.930 . S
C1656 H1642 0.930 . S
C1656 C1654 1.395 . S
C1656 C1659 1.403 . S
C1657 C1654 1.403 . S
C1657 C1658 1.524 . S
C1657 C1661 1.400 . S
C1658 H1643 0.960 . S
C1658 H1644 0.960 . S
C1658 H1645 0.960 . S
C1658 C1657 1.524 . S
C1659 C1656 1.403 . S
C1659 C1660 1.392 . S
C1659 C1663 1.495 . S
C1660 C1659 1.392 . S
C1660 C1661 1.385 . S
C1660 C1662 1.478 . S
C1661 H1655 0.930 . S
C1661 C1657 1.400 . S
C1661 C1660 1.385 . S
C1662 C1660 1.478 . S
C1662 C1664 1.381 . S
C1662 C1668 1.383 . S
C1663 C1659 1.495 . S
C1663 H1669 0.959 . S
C1663 H1670 0.961 . S
C1663 H1671 0.960 . S
C1664 C1662 1.381 . S
C1664 C1665 1.394 . S
C1664 H1672 0.930 . S
C1665 C1664 1.394 . S
C1665 C1666 1.383 . S
C1665 H1673 0.929 . S
C1666 C1665 1.383 . S
C1666 C1667 1.377 . S
C1667 H1651 0.930 . S
C1667 C1666 1.377 . S
C1667 C1668 1.379 . S
C1668 H1652 0.931 . S
C1668 C1662 1.383 . S
C1668 C1667 1.379 . S
H1669 C1663 0.959 . S
H1670 C1663 0.961 . S
H1671 C1663 0.960 . S
H1672 C1664 0.930 . S
H1673 C1665 0.929 . S
H1674 C1682 0.929 . S
H1675 C1684 0.930 . S
H1676 C1686 0.930 . S
H1677 C1689 0.929 . S
H1678 C1692 0.930 . S
H1679 C1694 0.960 . S
H1680 C1694 0.960 . S
H1681 C1694 0.960 . S
C1682 H1674 0.929 . S
C1682 C1683 1.377 . S
C1682 C1684 1.384 . S
C1683 C1682 1.377 . S
C1683 C1689 1.390 . S
C1684 H1675 0.930 . S
C1684 C1682 1.384 . S
C1684 C1685 1.372 . S
C1685 C1684 1.372 . S
C1685 C1686 1.400 . S
C1685 C1690 1.490 . S
C1686 H1676 0.930 . S
C1686 C1685 1.400 . S
C1686 C1689 1.386 . S
H1687 C1703 0.930 . S
H1688 C1704 0.931 . S
C1689 H1677 0.929 . S
C1689 C1683 1.390 . S
C1689 C1686 1.386 . S
C1690 C1685 1.490 . S
C1690 C1692 1.395 . S
C1690 C1693 1.403 . S
H1691 C1697 0.930 . S
C1692 H1678 0.930 . S
C1692 C1690 1.395 . S
C1692 C1695 1.403 . S
C1693 C1690 1.403 . S
C1693 C1694 1.524 . S
C1693 C1697 1.400 . S
C1694 H1679 0.960 . S
C1694 H1680 0.960 . S
C1694 H1681 0.960 . S
C1694 C1693 1.524 . S
C1695 C1692 1.403 . S
C1695 C1696 1.392 1_455 S
C1695 C1699 1.495 1_455 S
C1696 C1695 1.392 1_655 S
C1696 C1697 1.385 1_655 S
C1696 C1698 1.478 . S
C1697 H1691 0.930 . S
C1697 C1693 1.400 . S
C1697 C1696 1.385 1_455 S
C1698 C1696 1.478 . S
C1698 C1700 1.381 . S
C1698 C1704 1.383 . S
C1699 C1695 1.495 1_655 S
C1699 H1705 0.959 . S
C1699 H1706 0.961 . S
C1699 H1707 0.960 . S
C1700 C1698 1.381 . S
C1700 C1701 1.394 . S
C1700 H1708 0.930 . S
C1701 C1700 1.394 . S
C1701 C1702 1.383 . S
C1701 H1709 0.929 . S
C1702 C1701 1.383 . S
C1702 C1703 1.377 . S
C1703 H1687 0.930 . S
C1703 C1702 1.377 . S
C1703 C1704 1.379 . S
C1704 H1688 0.931 . S
C1704 C1698 1.383 . S
C1704 C1703 1.379 . S
H1705 C1699 0.959 . S
H1706 C1699 0.961 . S
H1707 C1699 0.960 . S
H1708 C1700 0.930 . S
H1709 C1701 0.929 . S
H1710 C1718 0.929 . S
H1711 C1720 0.930 . S
H1712 C1722 0.930 . S
H1713 C1725 0.929 . S
H1714 C1728 0.930 . S
H1715 C1730 0.960 . S
H1716 C1730 0.960 . S
H1717 C1730 0.960 . S
C1718 H1710 0.929 . S
C1718 C1719 1.377 . S
C1718 C1720 1.384 . S
C1719 C1718 1.377 . S
C1719 C1725 1.390 . S
C1720 H1711 0.930 . S
C1720 C1718 1.384 . S
C1720 C1721 1.372 . S
C1721 C1720 1.372 . S
C1721 C1722 1.400 . S
C1721 C1726 1.490 . S
C1722 H1712 0.930 . S
C1722 C1721 1.400 . S
C1722 C1725 1.386 . S
H1723 C1739 0.930 . S
H1724 C1740 0.931 . S
C1725 H1713 0.929 . S
C1725 C1719 1.390 . S
C1725 C1722 1.386 . S
C1726 C1721 1.490 . S
C1726 C1728 1.395 . S
C1726 C1729 1.403 . S
H1727 C1733 0.930 . S
C1728 H1714 0.930 . S
C1728 C1726 1.395 . S
C1728 C1731 1.403 . S
C1729 C1726 1.403 . S
C1729 C1730 1.524 . S
C1729 C1733 1.400 . S
C1730 H1715 0.960 . S
C1730 H1716 0.960 . S
C1730 H1717 0.960 . S
C1730 C1729 1.524 . S
C1731 C1728 1.403 . S
C1731 C1732 1.392 . S
C1731 C1735 1.495 . S
C1732 C1731 1.392 . S
C1732 C1733 1.385 . S
C1732 C1734 1.478 . S
C1733 H1727 0.930 . S
C1733 C1729 1.400 . S
C1733 C1732 1.385 . S
C1734 C1732 1.478 . S
C1734 C1736 1.381 . S
C1734 C1740 1.383 . S
C1735 C1731 1.495 . S
C1735 H1741 0.959 . S
C1735 H1742 0.961 . S
C1735 H1743 0.960 . S
C1736 C1734 1.381 . S
C1736 C1737 1.394 . S
C1736 H1744 0.930 . S
C1737 C1736 1.394 . S
C1737 C1738 1.383 . S
C1737 H1745 0.929 . S
C1738 C1737 1.383 . S
C1738 C1739 1.377 . S
C1739 H1723 0.930 . S
C1739 C1738 1.377 . S
C1739 C1740 1.379 . S
C1740 H1724 0.931 . S
C1740 C1734 1.383 . S
C1740 C1739 1.379 . S
H1741 C1735 0.959 . S
H1742 C1735 0.961 . S
H1743 C1735 0.960 . S
H1744 C1736 0.930 . S
H1745 C1737 0.929 . S
H1746 C1754 0.929 . S
H1747 C1756 0.930 . S
H1748 C1758 0.930 . S
H1749 C1761 0.929 . S
H1750 C1764 0.930 . S
H1751 C1766 0.960 1_545 S
H1752 C1766 0.960 . S
H1753 C1766 0.960 . S
C1754 H1746 0.929 . S
C1754 C1755 1.377 . S
C1754 C1756 1.384 . S
C1755 C1754 1.377 . S
C1755 C1761 1.390 . S
C1756 H1747 0.930 . S
C1756 C1754 1.384 . S
C1756 C1757 1.372 . S
C1757 C1756 1.372 . S
C1757 C1758 1.400 . S
C1757 C1762 1.490 . S
C1758 H1748 0.930 . S
C1758 C1757 1.400 . S
C1758 C1761 1.386 . S
H1759 C1775 0.930 . S
H1760 C1776 0.931 . S
C1761 H1749 0.929 . S
C1761 C1755 1.390 . S
C1761 C1758 1.386 . S
C1762 C1757 1.490 . S
C1762 C1764 1.395 . S
C1762 C1765 1.403 . S
H1763 C1769 0.930 . S
C1764 H1750 0.930 . S
C1764 C1762 1.395 . S
C1764 C1767 1.403 1_565 S
C1765 C1762 1.403 . S
C1765 C1766 1.524 . S
C1765 C1769 1.400 1_565 S
C1766 H1751 0.960 1_565 S
C1766 H1752 0.960 . S
C1766 H1753 0.960 . S
C1766 C1765 1.524 . S
C1767 C1764 1.403 1_545 S
C1767 C1768 1.392 . S
C1767 C1771 1.495 . S
C1768 C1767 1.392 . S
C1768 C1769 1.385 . S
C1768 C1770 1.478 . S
C1769 H1763 0.930 . S
C1769 C1765 1.400 1_545 S
C1769 C1768 1.385 . S
C1770 C1768 1.478 . S
C1770 C1772 1.381 . S
C1770 C1776 1.383 . S
C1771 C1767 1.495 . S
C1771 H1777 0.959 1_545 S
C1771 H1778 0.961 . S
C1771 H1779 0.960 . S
C1772 C1770 1.381 . S
C1772 C1773 1.394 . S
C1772 H1780 0.930 . S
C1773 C1772 1.394 . S
C1773 C1774 1.383 . S
C1773 H1781 0.929 . S
C1774 C1773 1.383 . S
C1774 C1775 1.377 . S
C1775 H1759 0.930 . S
C1775 C1774 1.377 . S
C1775 C1776 1.379 . S
C1776 H1760 0.931 . S
C1776 C1770 1.383 . S
C1776 C1775 1.379 . S
H1777 C1771 0.959 1_565 S
H1778 C1771 0.961 . S
H1779 C1771 0.960 . S
H1780 C1772 0.930 . S
H1781 C1773 0.929 . S
H1782 C1790 0.929 . S
H1783 C1792 0.930 . S
H1784 C1794 0.930 . S
H1785 C1797 0.929 . S
H1786 C1800 0.930 . S
H1787 C1802 0.960 . S
H1788 C1802 0.960 . S
H1789 C1802 0.960 . S
C1790 H1782 0.929 . S
C1790 C1791 1.377 . S
C1790 C1792 1.384 . S
C1791 C1790 1.377 . S
C1791 C1797 1.390 . S
C1792 H1783 0.930 . S
C1792 C1790 1.384 . S
C1792 C1793 1.372 . S
C1793 C1792 1.372 . S
C1793 C1794 1.400 . S
C1793 C1798 1.490 . S
C1794 H1784 0.930 . S
C1794 C1793 1.400 . S
C1794 C1797 1.386 . S
H1795 C1811 0.930 . S
H1796 C1812 0.931 . S
C1797 H1785 0.929 . S
C1797 C1791 1.390 . S
C1797 C1794 1.386 . S
C1798 C1793 1.490 . S
C1798 C1800 1.395 . S
C1798 C1801 1.403 . S
H1799 C1805 0.930 . S
C1800 H1786 0.930 . S
C1800 C1798 1.395 . S
C1800 C1803 1.403 . S
C1801 C1798 1.403 . S
C1801 C1802 1.524 . S
C1801 C1805 1.400 . S
C1802 H1787 0.960 . S
C1802 H1788 0.960 . S
C1802 H1789 0.960 . S
C1802 C1801 1.524 . S
C1803 C1800 1.403 . S
C1803 C1804 1.392 . S
C1803 C1807 1.495 . S
C1804 C1803 1.392 . S
C1804 C1805 1.385 . S
C1804 C1806 1.478 . S
C1805 H1799 0.930 . S
C1805 C1801 1.400 . S
C1805 C1804 1.385 . S
C1806 C1804 1.478 . S
C1806 C1808 1.381 . S
C1806 C1812 1.383 . S
C1807 C1803 1.495 . S
C1807 H1813 0.959 . S
C1807 H1814 0.961 . S
C1807 H1815 0.960 . S
C1808 C1806 1.381 . S
C1808 C1809 1.394 . S
C1808 H1816 0.930 . S
C1809 C1808 1.394 . S
C1809 C1810 1.383 . S
C1809 H1817 0.929 . S
C1810 C1809 1.383 . S
C1810 C1811 1.377 . S
C1811 H1795 0.930 . S
C1811 C1810 1.377 . S
C1811 C1812 1.379 . S
C1812 H1796 0.931 . S
C1812 C1806 1.383 . S
C1812 C1811 1.379 . S
H1813 C1807 0.959 . S
H1814 C1807 0.961 . S
H1815 C1807 0.960 . S
H1816 C1808 0.930 . S
H1817 C1809 0.929 . S
H1818 C1826 0.929 . S
H1819 C1828 0.930 . S
H1820 C1830 0.930 . S
H1821 C1833 0.929 . S
H1822 C1836 0.930 . S
H1823 C1838 0.960 . S
H1824 C1838 0.960 . S
H1825 C1838 0.960 . S
C1826 H1818 0.929 . S
C1826 C1827 1.377 . S
C1826 C1828 1.384 . S
C1827 C1826 1.377 . S
C1827 C1833 1.390 . S
C1828 H1819 0.930 . S
C1828 C1826 1.384 . S
C1828 C1829 1.372 . S
C1829 C1828 1.372 . S
C1829 C1830 1.400 . S
C1829 C1834 1.490 . S
C1830 H1820 0.930 . S
C1830 C1829 1.400 . S
C1830 C1833 1.386 . S
H1831 C1847 0.930 . S
H1832 C1848 0.931 . S
C1833 H1821 0.929 . S
C1833 C1827 1.390 . S
C1833 C1830 1.386 . S
C1834 C1829 1.490 . S
C1834 C1836 1.395 . S
C1834 C1837 1.403 . S
H1835 C1841 0.930 . S
C1836 H1822 0.930 . S
C1836 C1834 1.395 . S
C1836 C1839 1.403 . S
C1837 C1834 1.403 . S
C1837 C1838 1.524 . S
C1837 C1841 1.400 . S
C1838 H1823 0.960 . S
C1838 H1824 0.960 . S
C1838 H1825 0.960 . S
C1838 C1837 1.524 . S
C1839 C1836 1.403 . S
C1839 C1840 1.392 . S
C1839 C1843 1.495 . S
C1840 C1839 1.392 . S
C1840 C1841 1.385 . S
C1840 C1842 1.478 . S
C1841 H1835 0.930 . S
C1841 C1837 1.400 . S
C1841 C1840 1.385 . S
C1842 C1840 1.478 . S
C1842 C1844 1.381 . S
C1842 C1848 1.383 . S
C1843 C1839 1.495 . S
C1843 H1849 0.959 . S
C1843 H1850 0.961 . S
C1843 H1851 0.960 . S
C1844 C1842 1.381 . S
C1844 C1845 1.394 . S
C1844 H1852 0.930 . S
C1845 C1844 1.394 . S
C1845 C1846 1.383 . S
C1845 H1853 0.929 . S
C1846 C1845 1.383 . S
C1846 C1847 1.377 . S
C1847 H1831 0.930 . S
C1847 C1846 1.377 . S
C1847 C1848 1.379 . S
C1848 H1832 0.931 . S
C1848 C1842 1.383 . S
C1848 C1847 1.379 . S
H1849 C1843 0.959 . S
H1850 C1843 0.961 . S
H1851 C1843 0.960 . S
H1852 C1844 0.930 . S
H1853 C1845 0.929 . S
H1854 C1862 0.929 . S
H1855 C1864 0.930 . S
H1856 C1866 0.930 . S
H1857 C1869 0.929 . S
H1858 C1872 0.930 . S
H1859 C1874 0.960 . S
H1860 C1874 0.960 . S
H1861 C1874 0.960 . S
C1862 H1854 0.929 . S
C1862 C1863 1.377 . S
C1862 C1864 1.384 . S
C1863 C1862 1.377 . S
C1863 C1869 1.390 . S
C1864 H1855 0.930 . S
C1864 C1862 1.384 . S
C1864 C1865 1.372 . S
C1865 C1864 1.372 . S
C1865 C1866 1.400 . S
C1865 C1870 1.490 . S
C1866 H1856 0.930 . S
C1866 C1865 1.400 . S
C1866 C1869 1.386 . S
H1867 C1883 0.930 . S
H1868 C1884 0.931 . S
C1869 H1857 0.929 . S
C1869 C1863 1.390 . S
C1869 C1866 1.386 . S
C1870 C1865 1.490 . S
C1870 C1872 1.395 . S
C1870 C1873 1.403 . S
H1871 C1877 0.930 . S
C1872 H1858 0.930 . S
C1872 C1870 1.395 . S
C1872 C1875 1.403 . S
C1873 C1870 1.403 . S
C1873 C1874 1.524 . S
C1873 C1877 1.400 . S
C1874 H1859 0.960 . S
C1874 H1860 0.960 . S
C1874 H1861 0.960 . S
C1874 C1873 1.524 . S
C1875 C1872 1.403 . S
C1875 C1876 1.392 . S
C1875 C1879 1.495 . S
C1876 C1875 1.392 . S
C1876 C1877 1.385 . S
C1876 C1878 1.478 . S
C1877 H1871 0.930 . S
C1877 C1873 1.400 . S
C1877 C1876 1.385 . S
C1878 C1876 1.478 . S
C1878 C1880 1.381 . S
C1878 C1884 1.383 . S
C1879 C1875 1.495 . S
C1879 H1885 0.959 . S
C1879 H1886 0.961 . S
C1879 H1887 0.960 . S
C1880 C1878 1.381 . S
C1880 C1881 1.394 . S
C1880 H1888 0.930 . S
C1881 C1880 1.394 . S
C1881 C1882 1.383 . S
C1881 H1889 0.929 . S
C1882 C1881 1.383 . S
C1882 C1883 1.377 . S
C1883 H1867 0.930 . S
C1883 C1882 1.377 . S
C1883 C1884 1.379 . S
C1884 H1868 0.931 . S
C1884 C1878 1.383 . S
C1884 C1883 1.379 . S
H1885 C1879 0.959 . S
H1886 C1879 0.961 . S
H1887 C1879 0.960 . S
H1888 C1880 0.930 . S
H1889 C1881 0.929 . S
H1890 C1898 0.929 . S
H1891 C1900 0.930 . S
H1892 C1902 0.930 . S
H1893 C1905 0.929 . S
H1894 C1908 0.930 . S
H1895 C1910 0.960 . S
H1896 C1910 0.960 . S
H1897 C1910 0.960 . S
C1898 H1890 0.929 . S
C1898 C1899 1.377 . S
C1898 C1900 1.384 . S
C1899 C1898 1.377 . S
C1899 C1905 1.390 . S
C1900 H1891 0.930 . S
C1900 C1898 1.384 . S
C1900 C1901 1.372 . S
C1901 C1900 1.372 . S
C1901 C1902 1.400 . S
C1901 C1906 1.490 . S
C1902 H1892 0.930 . S
C1902 C1901 1.400 . S
C1902 C1905 1.386 . S
H1903 C1919 0.930 . S
H1904 C1920 0.931 . S
C1905 H1893 0.929 . S
C1905 C1899 1.390 . S
C1905 C1902 1.386 . S
C1906 C1901 1.490 . S
C1906 C1908 1.395 . S
C1906 C1909 1.403 . S
H1907 C1913 0.930 . S
C1908 H1894 0.930 . S
C1908 C1906 1.395 . S
C1908 C1911 1.403 . S
C1909 C1906 1.403 . S
C1909 C1910 1.524 . S
C1909 C1913 1.400 . S
C1910 H1895 0.960 . S
C1910 H1896 0.960 . S
C1910 H1897 0.960 . S
C1910 C1909 1.524 . S
C1911 C1908 1.403 . S
C1911 C1912 1.392 . S
C1911 C1915 1.495 . S
C1912 C1911 1.392 . S
C1912 C1913 1.385 . S
C1912 C1914 1.478 . S
C1913 H1907 0.930 . S
C1913 C1909 1.400 . S
C1913 C1912 1.385 . S
C1914 C1912 1.478 . S
C1914 C1916 1.381 . S
C1914 C1920 1.383 . S
C1915 C1911 1.495 . S
C1915 H1921 0.959 . S
C1915 H1922 0.961 . S
C1915 H1923 0.960 . S
C1916 C1914 1.381 . S
C1916 C1917 1.394 . S
C1916 H1924 0.930 . S
C1917 C1916 1.394 . S
C1917 C1918 1.383 . S
C1917 H1925 0.929 . S
C1918 C1917 1.383 . S
C1918 C1919 1.377 . S
C1919 H1903 0.930 . S
C1919 C1918 1.377 . S
C1919 C1920 1.379 . S
C1920 H1904 0.931 . S
C1920 C1914 1.383 . S
C1920 C1919 1.379 . S
H1921 C1915 0.959 . S
H1922 C1915 0.961 . S
H1923 C1915 0.960 . S
H1924 C1916 0.930 . S
H1925 C1917 0.929 . S
H1926 C1934 0.929 . S
H1927 C1936 0.930 . S
H1928 C1938 0.930 . S
H1929 C1941 0.929 . S
H1930 C1944 0.930 . S
H1931 C1946 0.960 . S
H1932 C1946 0.960 . S
H1933 C1946 0.960 . S
C1934 H1926 0.929 . S
C1934 C1935 1.377 . S
C1934 C1936 1.384 . S
C1935 C1934 1.377 . S
C1935 C1941 1.390 . S
C1936 H1927 0.930 . S
C1936 C1934 1.384 . S
C1936 C1937 1.372 . S
C1937 C1936 1.372 . S
C1937 C1938 1.400 . S
C1937 C1942 1.490 . S
C1938 H1928 0.930 . S
C1938 C1937 1.400 . S
C1938 C1941 1.386 . S
H1939 C1955 0.930 . S
H1940 C1956 0.931 . S
C1941 H1929 0.929 . S
C1941 C1935 1.390 . S
C1941 C1938 1.386 . S
C1942 C1937 1.490 . S
C1942 C1944 1.395 . S
C1942 C1945 1.403 . S
H1943 C1949 0.930 . S
C1944 H1930 0.930 . S
C1944 C1942 1.395 . S
C1944 C1947 1.403 . S
C1945 C1942 1.403 . S
C1945 C1946 1.524 . S
C1945 C1949 1.400 . S
C1946 H1931 0.960 . S
C1946 H1932 0.960 . S
C1946 H1933 0.960 . S
C1946 C1945 1.524 . S
C1947 C1944 1.403 . S
C1947 C1948 1.392 . S
C1947 C1951 1.495 . S
C1948 C1947 1.392 . S
C1948 C1949 1.385 . S
C1948 C1950 1.478 . S
C1949 H1943 0.930 . S
C1949 C1945 1.400 . S
C1949 C1948 1.385 . S
C1950 C1948 1.478 . S
C1950 C1952 1.381 . S
C1950 C1956 1.383 . S
C1951 C1947 1.495 . S
C1951 H1957 0.959 . S
C1951 H1958 0.961 . S
C1951 H1959 0.960 . S
C1952 C1950 1.381 . S
C1952 C1953 1.394 . S
C1952 H1960 0.930 . S
C1953 C1952 1.394 . S
C1953 C1954 1.383 . S
C1953 H1961 0.929 . S
C1954 C1953 1.383 . S
C1954 C1955 1.377 . S
C1955 H1939 0.930 . S
C1955 C1954 1.377 . S
C1955 C1956 1.379 . S
C1956 H1940 0.931 . S
C1956 C1950 1.383 . S
C1956 C1955 1.379 . S
H1957 C1951 0.959 . S
H1958 C1951 0.961 . S
H1959 C1951 0.960 . S
H1960 C1952 0.930 . S
H1961 C1953 0.929 . S
H1962 C1970 0.929 . S
H1963 C1972 0.930 . S
H1964 C1974 0.930 . S
H1965 C1977 0.929 . S
H1966 C1980 0.930 . S
H1967 C1982 0.960 . S
H1968 C1982 0.960 . S
H1969 C1982 0.960 . S
C1970 H1962 0.929 . S
C1970 C1971 1.377 . S
C1970 C1972 1.384 . S
C1971 C1970 1.377 . S
C1971 C1977 1.390 . S
C1972 H1963 0.930 . S
C1972 C1970 1.384 . S
C1972 C1973 1.372 . S
C1973 C1972 1.372 . S
C1973 C1974 1.400 . S
C1973 C1978 1.490 . S
C1974 H1964 0.930 . S
C1974 C1973 1.400 . S
C1974 C1977 1.386 . S
H1975 C1991 0.930 . S
H1976 C1992 0.931 . S
C1977 H1965 0.929 . S
C1977 C1971 1.390 . S
C1977 C1974 1.386 . S
C1978 C1973 1.490 . S
C1978 C1980 1.395 . S
C1978 C1981 1.403 . S
H1979 C1985 0.930 . S
C1980 H1966 0.930 . S
C1980 C1978 1.395 . S
C1980 C1983 1.403 . S
C1981 C1978 1.403 . S
C1981 C1982 1.524 . S
C1981 C1985 1.400 . S
C1982 H1967 0.960 . S
C1982 H1968 0.960 . S
C1982 H1969 0.960 . S
C1982 C1981 1.524 . S
C1983 C1980 1.403 . S
C1983 C1984 1.392 . S
C1983 C1987 1.495 . S
C1984 C1983 1.392 . S
C1984 C1985 1.385 . S
C1984 C1986 1.478 . S
C1985 H1979 0.930 . S
C1985 C1981 1.400 . S
C1985 C1984 1.385 . S
C1986 C1984 1.478 . S
C1986 C1988 1.381 . S
C1986 C1992 1.383 . S
C1987 C1983 1.495 . S
C1987 H1993 0.959 . S
C1987 H1994 0.961 . S
C1987 H1995 0.960 . S
C1988 C1986 1.381 . S
C1988 C1989 1.394 . S
C1988 H1996 0.930 . S
C1989 C1988 1.394 . S
C1989 C1990 1.383 . S
C1989 H1997 0.929 . S
C1990 C1989 1.383 . S
C1990 C1991 1.377 . S
C1991 H1975 0.930 . S
C1991 C1990 1.377 . S
C1991 C1992 1.379 . S
C1992 H1976 0.931 . S
C1992 C1986 1.383 . S
C1992 C1991 1.379 . S
H1993 C1987 0.959 . S
H1994 C1987 0.961 . S
H1995 C1987 0.960 . S
H1996 C1988 0.930 . S
H1997 C1989 0.929 . S
H1998 C2006 0.929 . S
H1999 C2008 0.930 . S
H2000 C2010 0.930 . S
H2001 C2013 0.929 . S
H2002 C2016 0.930 . S
H2003 C2018 0.960 . S
H2004 C2018 0.930 1_455 S
H2005 C2018 0.960 . S
C2006 H1998 0.929 . S
C2006 C2007 1.377 . S
C2006 C2008 1.384 . S
C2007 C2006 1.377 . S
C2007 C2013 1.390 . S
C2008 H1999 0.930 . S
C2008 C2006 1.384 . S
C2008 C2009 1.372 . S
C2009 C2008 1.372 . S
C2009 C2010 1.400 . S
C2009 C2014 1.490 . S
C2010 H2000 0.930 . S
C2010 C2009 1.400 . S
C2010 C2013 1.386 . S
H2011 C2027 0.930 . S
H2012 C2028 0.931 . S
C2013 H2001 0.929 . S
C2013 C2007 1.390 . S
C2013 C2010 1.386 . S
C2014 C2009 1.490 . S
C2014 C2016 1.395 . S
C2014 C2017 1.403 . S
H2015 C2021 0.930 . S
C2016 H2002 0.930 . S
C2016 C2014 1.395 . S
C2016 C2019 1.403 . S
C2017 C2014 1.403 . S
C2017 C2018 1.524 . S
C2017 C2021 1.400 . S
C2018 H2003 0.960 . S
C2018 H2004 0.930 1_655 S
C2018 H2005 0.960 . S
C2018 C2017 1.524 . S
C2019 C2016 1.403 . S
C2019 C2020 1.392 . S
C2019 C2023 1.495 . S
C2020 C2019 1.392 . S
C2020 C2021 1.385 . S
C2020 C2022 1.478 . S
C2021 H2015 0.930 . S
C2021 C2017 1.400 . S
C2021 C2020 1.385 . S
C2022 C2020 1.478 . S
C2022 C2024 1.381 . S
C2022 C2028 1.383 . S
C2023 C2019 1.495 . S
C2023 H2029 0.959 . S
C2023 H2030 0.961 . S
C2023 H2031 0.960 . S
C2024 C2022 1.381 . S
C2024 C2025 1.394 . S
C2024 H2032 0.930 . S
C2025 C2024 1.394 . S
C2025 C2026 1.383 . S
C2025 H2033 0.928 1_655 S
C2026 C2025 1.383 . S
C2026 C2027 1.377 . S
C2027 H2011 0.930 . S
C2027 C2026 1.377 . S
C2027 C2028 1.379 . S
C2028 H2012 0.931 . S
C2028 C2022 1.383 . S
C2028 C2027 1.379 . S
H2029 C2023 0.959 . S
H2030 C2023 0.961 . S
H2031 C2023 0.960 . S
H2032 C2024 0.930 . S
H2033 C2025 0.928 1_455 S
H2034 C2042 0.929 . S
H2035 C2044 0.930 . S
H2036 C2046 0.930 . S
H2037 C2049 0.929 . S
H2038 C2052 0.930 . S
H2039 C2054 0.960 . S
H2040 C2054 0.960 . S
H2041 C2054 0.960 . S
C2042 H2034 0.929 . S
C2042 C2043 1.377 . S
C2042 C2044 1.384 . S
C2043 C2042 1.377 . S
C2043 C2049 1.390 . S
C2044 H2035 0.930 . S
C2044 C2042 1.384 . S
C2044 C2045 1.372 . S
C2045 C2044 1.372 . S
C2045 C2046 1.400 . S
C2045 C2050 1.490 . S
C2046 H2036 0.930 . S
C2046 C2045 1.400 . S
C2046 C2049 1.386 . S
H2047 C2063 0.930 . S
H2048 C2064 0.931 . S
C2049 H2037 0.929 . S
C2049 C2043 1.390 . S
C2049 C2046 1.386 . S
C2050 C2045 1.490 . S
C2050 C2052 1.395 . S
C2050 C2053 1.403 . S
H2051 C2057 0.930 . S
C2052 H2038 0.930 . S
C2052 C2050 1.395 . S
C2052 C2055 1.403 . S
C2053 C2050 1.403 . S
C2053 C2054 1.524 . S
C2053 C2057 1.400 . S
C2054 H2039 0.960 . S
C2054 H2040 0.960 . S
C2054 H2041 0.960 . S
C2054 C2053 1.524 . S
C2055 C2052 1.403 . S
C2055 C2056 1.392 . S
C2055 C2059 1.495 . S
C2056 C2055 1.392 . S
C2056 C2057 1.385 . S
C2056 C2058 1.478 . S
C2057 H2051 0.930 . S
C2057 C2053 1.400 . S
C2057 C2056 1.385 . S
C2058 C2056 1.478 . S
C2058 C2060 1.381 . S
C2058 C2064 1.383 . S
C2059 C2055 1.495 . S
C2059 H2065 0.959 . S
C2059 H2066 0.961 . S
C2059 H2067 0.960 . S
C2060 C2058 1.381 . S
C2060 C2061 1.394 . S
C2060 H2068 0.930 . S
C2061 C2060 1.394 . S
C2061 C2062 1.383 . S
C2061 H2069 0.929 . S
C2062 C2061 1.383 . S
C2062 C2063 1.377 . S
C2063 H2047 0.930 . S
C2063 C2062 1.377 . S
C2063 C2064 1.379 . S
C2064 H2048 0.931 . S
C2064 C2058 1.383 . S
C2064 C2063 1.379 . S
H2065 C2059 0.959 . S
H2066 C2059 0.961 . S
H2067 C2059 0.960 . S
H2068 C2060 0.930 . S
H2069 C2061 0.929 . S
H2070 C2078 0.929 . S
H2071 C2080 0.930 . S
H2072 C2082 0.930 . S
H2073 C2085 0.929 . S
H2074 C2088 0.930 . S
H2075 C2090 0.960 . S
H2076 C2090 0.960 . S
H2077 C2090 0.960 . S
C2078 H2070 0.929 . S
C2078 C2079 1.377 . S
C2078 C2080 1.384 . S
C2079 C2078 1.377 . S
C2079 C2085 1.390 . S
C2080 H2071 0.930 . S
C2080 C2078 1.384 . S
C2080 C2081 1.372 . S
C2081 C2080 1.372 . S
C2081 C2082 1.400 . S
C2081 C2086 1.490 . S
C2082 H2072 0.930 . S
C2082 C2081 1.400 . S
C2082 C2085 1.386 . S
H2083 C2099 0.930 . S
H2084 C2100 0.931 . S
C2085 H2073 0.929 . S
C2085 C2079 1.390 . S
C2085 C2082 1.386 . S
C2086 C2081 1.490 . S
C2086 C2088 1.395 . S
C2086 C2089 1.403 . S
H2087 C2093 0.930 . S
C2088 H2074 0.930 . S
C2088 C2086 1.395 . S
C2088 C2091 1.403 . S
C2089 C2086 1.403 . S
C2089 C2090 1.524 . S
C2089 C2093 1.400 . S
C2090 H2075 0.960 . S
C2090 H2076 0.960 . S
C2090 H2077 0.960 . S
C2090 C2089 1.524 . S
C2091 C2088 1.403 . S
C2091 C2092 1.392 . S
C2091 C2095 1.495 . S
C2092 C2091 1.392 . S
C2092 C2093 1.385 . S
C2092 C2094 1.478 . S
C2093 H2087 0.930 . S
C2093 C2089 1.400 . S
C2093 C2092 1.385 . S
C2094 C2092 1.478 . S
C2094 C2096 1.381 . S
C2094 C2100 1.383 . S
C2095 C2091 1.495 . S
C2095 H2101 0.959 . S
C2095 H2102 0.961 . S
C2095 H2103 0.960 . S
C2096 C2094 1.381 . S
C2096 C2097 1.394 . S
C2096 H2104 0.930 . S
C2097 C2096 1.394 . S
C2097 C2098 1.383 . S
C2097 H2105 0.929 . S
C2098 C2097 1.383 . S
C2098 C2099 1.377 . S
C2099 H2083 0.930 . S
C2099 C2098 1.377 . S
C2099 C2100 1.379 . S
C2100 H2084 0.931 . S
C2100 C2094 1.383 . S
C2100 C2099 1.379 . S
H2101 C2095 0.959 . S
H2102 C2095 0.961 . S
H2103 C2095 0.960 . S
H2104 C2096 0.930 . S
H2105 C2097 0.929 . S
H2106 C2114 0.929 . S
H2107 C2116 0.930 . S
H2108 C2118 0.930 . S
H2109 C2121 0.929 . S
H2110 C2124 0.930 . S
H2111 C2126 0.960 . S
H2112 C2126 0.960 . S
H2113 C2126 0.960 . S
C2114 H2106 0.929 . S
C2114 C2115 1.377 . S
C2114 C2116 1.384 . S
C2115 C2114 1.377 . S
C2115 C2121 1.390 . S
C2116 H2107 0.930 . S
C2116 C2114 1.384 . S
C2116 C2117 1.372 . S
C2117 C2116 1.372 . S
C2117 C2118 1.400 . S
C2117 C2122 1.490 . S
C2118 H2108 0.930 . S
C2118 C2117 1.400 . S
C2118 C2121 1.386 . S
H2119 C2135 0.930 . S
H2120 C2136 0.931 . S
C2121 H2109 0.929 . S
C2121 C2115 1.390 . S
C2121 C2118 1.386 . S
C2122 C2117 1.490 . S
C2122 C2124 1.395 . S
C2122 C2125 1.403 . S
H2123 C2129 0.930 . S
C2124 H2110 0.930 . S
C2124 C2122 1.395 . S
C2124 C2127 1.403 . S
C2125 C2122 1.403 . S
C2125 C2126 1.524 . S
C2125 C2129 1.400 . S
C2126 H2111 0.960 . S
C2126 H2112 0.960 . S
C2126 H2113 0.960 . S
C2126 C2125 1.524 . S
C2127 C2124 1.403 . S
C2127 C2128 1.392 . S
C2127 C2131 1.495 . S
C2128 C2127 1.392 . S
C2128 C2129 1.385 . S
C2128 C2130 1.478 . S
C2129 H2123 0.930 . S
C2129 C2125 1.400 . S
C2129 C2128 1.385 . S
C2130 C2128 1.478 . S
C2130 C2132 1.381 . S
C2130 C2136 1.383 . S
C2131 C2127 1.495 . S
C2131 H2137 0.959 . S
C2131 H2138 0.961 . S
C2131 H2139 0.960 . S
C2132 C2130 1.381 . S
C2132 C2133 1.394 . S
C2132 H2140 0.930 . S
C2133 C2132 1.394 . S
C2133 C2134 1.383 . S
C2133 H2141 0.929 . S
C2134 C2133 1.383 . S
C2134 C2135 1.377 . S
C2135 H2119 0.930 . S
C2135 C2134 1.377 . S
C2135 C2136 1.379 . S
C2136 H2120 0.931 . S
C2136 C2130 1.383 . S
C2136 C2135 1.379 . S
H2137 C2131 0.959 . S
H2138 C2131 0.961 . S
H2139 C2131 0.960 . S
H2140 C2132 0.930 . S
H2141 C2133 0.929 . S
H2142 C2150 0.929 . S
H2143 C2152 0.930 . S
H2144 C2154 0.930 . S
H2145 C2157 0.929 . S
H2146 C2160 0.930 . S
H2147 C2162 0.960 . S
H2148 C2162 0.960 . S
H2149 C2162 0.960 . S
C2150 H2142 0.929 . S
C2150 C2151 1.377 . S
C2150 C2152 1.384 . S
C2151 C2150 1.377 . S
C2151 C2157 1.390 . S
C2152 H2143 0.930 . S
C2152 C2150 1.384 . S
C2152 C2153 1.372 . S
C2153 C2152 1.372 . S
C2153 C2154 1.400 . S
C2153 C2158 1.490 . S
C2154 H2144 0.930 . S
C2154 C2153 1.400 . S
C2154 C2157 1.386 . S
H2155 C2171 0.930 . S
H2156 C2172 0.931 . S
C2157 H2145 0.929 . S
C2157 C2151 1.390 . S
C2157 C2154 1.386 . S
C2158 C2153 1.490 . S
C2158 C2160 1.395 . S
C2158 C2161 1.403 . S
H2159 C2165 0.930 . S
C2160 H2146 0.930 . S
C2160 C2158 1.395 . S
C2160 C2163 1.403 . S
C2161 C2158 1.403 . S
C2161 C2162 1.524 . S
C2161 C2165 1.400 . S
C2162 H2147 0.960 . S
C2162 H2148 0.960 . S
C2162 H2149 0.960 . S
C2162 C2161 1.524 . S
C2163 C2160 1.403 . S
C2163 C2164 1.392 . S
C2163 C2167 1.495 . S
C2164 C2163 1.392 . S
C2164 C2165 1.385 . S
C2164 C2166 1.478 . S
C2165 H2159 0.930 . S
C2165 C2161 1.400 . S
C2165 C2164 1.385 . S
C2166 C2164 1.478 . S
C2166 C2168 1.381 . S
C2166 C2172 1.383 . S
C2167 C2163 1.495 . S
C2167 H2173 0.959 . S
C2167 H2174 0.961 . S
C2167 H2175 0.960 . S
C2168 C2166 1.381 . S
C2168 C2169 1.394 . S
C2168 H2176 0.930 . S
C2169 C2168 1.394 . S
C2169 C2170 1.383 . S
C2169 H2177 0.929 . S
C2170 C2169 1.383 . S
C2170 C2171 1.377 . S
C2171 H2155 0.930 . S
C2171 C2170 1.377 . S
C2171 C2172 1.379 . S
C2172 H2156 0.931 . S
C2172 C2166 1.383 . S
C2172 C2171 1.379 . S
H2173 C2167 0.959 . S
H2174 C2167 0.961 . S
H2175 C2167 0.960 . S
H2176 C2168 0.930 . S
H2177 C2169 0.929 . S
H2178 C2186 0.929 . S
H2179 C2188 0.930 . S
H2180 C2190 0.930 . S
H2181 C2193 0.929 . S
H2182 C2196 0.930 . S
H2183 C2198 0.960 . S
H2184 C2198 0.960 . S
H2185 C2198 0.960 . S
C2186 H2178 0.929 . S
C2186 C2187 1.377 . S
C2186 C2188 1.384 . S
C2187 C2186 1.377 . S
C2187 C2193 1.390 . S
C2188 H2179 0.930 . S
C2188 C2186 1.384 . S
C2188 C2189 1.372 . S
C2189 C2188 1.372 . S
C2189 C2190 1.400 . S
C2189 C2194 1.490 . S
C2190 H2180 0.930 . S
C2190 C2189 1.400 . S
C2190 C2193 1.386 . S
H2191 C2207 0.930 . S
H2192 C2208 0.931 . S
C2193 H2181 0.929 . S
C2193 C2187 1.390 . S
C2193 C2190 1.386 . S
C2194 C2189 1.490 . S
C2194 C2196 1.395 . S
C2194 C2197 1.403 . S
H2195 C2201 0.930 . S
C2196 H2182 0.930 . S
C2196 C2194 1.395 . S
C2196 C2199 1.403 . S
C2197 C2194 1.403 . S
C2197 C2198 1.524 . S
C2197 C2201 1.400 . S
C2198 H2183 0.960 . S
C2198 H2184 0.960 . S
C2198 H2185 0.960 . S
C2198 C2197 1.524 . S
C2199 C2196 1.403 . S
C2199 C2200 1.392 . S
C2199 C2203 1.495 . S
C2200 C2199 1.392 . S
C2200 C2201 1.385 . S
C2200 C2202 1.478 . S
C2201 H2195 0.930 . S
C2201 C2197 1.400 . S
C2201 C2200 1.385 . S
C2202 C2200 1.478 . S
C2202 C2204 1.381 . S
C2202 C2208 1.383 . S
C2203 C2199 1.495 . S
C2203 H2209 0.959 . S
C2203 H2210 0.961 . S
C2203 H2211 0.960 . S
C2204 C2202 1.381 . S
C2204 C2205 1.394 . S
C2204 H2212 0.930 . S
C2205 C2204 1.394 . S
C2205 C2206 1.383 . S
C2205 H2213 0.929 . S
C2206 C2205 1.383 . S
C2206 C2207 1.377 . S
C2207 H2191 0.930 . S
C2207 C2206 1.377 . S
C2207 C2208 1.379 . S
C2208 H2192 0.931 . S
C2208 C2202 1.383 . S
C2208 C2207 1.379 . S
H2209 C2203 0.959 . S
H2210 C2203 0.961 . S
H2211 C2203 0.960 . S
H2212 C2204 0.930 . S
H2213 C2205 0.929 . S
H2214 C2222 0.929 . S
H2215 C2224 0.930 . S
H2216 C2226 0.930 . S
H2217 C2229 0.929 . S
H2218 C2232 0.930 . S
H2219 C2234 0.960 . S
H2220 C2234 0.960 . S
H2221 C2234 0.960 . S
C2222 H2214 0.929 . S
C2222 C2223 1.377 . S
C2222 C2224 1.384 . S
C2223 C2222 1.377 . S
C2223 C2229 1.390 . S
C2224 H2215 0.930 . S
C2224 C2222 1.384 . S
C2224 C2225 1.372 . S
C2225 C2224 1.372 . S
C2225 C2226 1.400 . S
C2225 C2230 1.490 . S
C2226 H2216 0.930 . S
C2226 C2225 1.400 . S
C2226 C2229 1.386 . S
H2227 C2243 0.930 . S
H2228 C2244 0.931 . S
C2229 H2217 0.929 . S
C2229 C2223 1.390 . S
C2229 C2226 1.386 . S
C2230 C2225 1.490 . S
C2230 C2232 1.395 . S
C2230 C2233 1.403 . S
H2231 C2237 0.930 . S
C2232 H2218 0.930 . S
C2232 C2230 1.395 . S
C2232 C2235 1.403 . S
C2233 C2230 1.403 . S
C2233 C2234 1.524 . S
C2233 C2237 1.400 . S
C2234 H2219 0.960 . S
C2234 H2220 0.960 . S
C2234 H2221 0.960 . S
C2234 C2233 1.524 . S
C2235 C2232 1.403 . S
C2235 C2236 1.392 . S
C2235 C2239 1.495 . S
C2236 C2235 1.392 . S
C2236 C2237 1.385 . S
C2236 C2238 1.478 . S
C2237 H2231 0.930 . S
C2237 C2233 1.400 . S
C2237 C2236 1.385 . S
C2238 C2236 1.478 . S
C2238 C2240 1.381 . S
C2238 C2244 1.383 . S
C2239 C2235 1.495 . S
C2239 H2245 0.959 . S
C2239 H2246 0.961 . S
C2239 H2247 0.960 . S
C2240 C2238 1.381 . S
C2240 C2241 1.394 . S
C2240 H2248 0.930 . S
C2241 C2240 1.394 . S
C2241 C2242 1.383 . S
C2241 H2249 0.929 . S
C2242 C2241 1.383 . S
C2242 C2243 1.377 . S
C2243 H2227 0.930 . S
C2243 C2242 1.377 . S
C2243 C2244 1.379 . S
C2244 H2228 0.931 . S
C2244 C2238 1.383 . S
C2244 C2243 1.379 . S
H2245 C2239 0.959 . S
H2246 C2239 0.961 . S
H2247 C2239 0.960 . S
H2248 C2240 0.930 . S
H2249 C2241 0.929 . S
H2250 C2258 0.929 . S
H2251 C2260 0.930 . S
H2252 C2262 0.930 . S
H2253 C2265 0.929 . S
H2254 C2268 0.930 . S
H2255 C2270 0.960 . S
H2256 C2270 0.960 . S
H2257 C2270 0.960 . S
C2258 H2250 0.929 . S
C2258 C2259 1.377 . S
C2258 C2260 1.384 . S
C2259 C2258 1.377 . S
C2259 C2265 1.390 . S
C2260 H2251 0.930 . S
C2260 C2258 1.384 . S
C2260 C2261 1.372 . S
C2261 C2260 1.372 . S
C2261 C2262 1.400 . S
C2261 C2266 1.490 . S
C2262 H2252 0.930 . S
C2262 C2261 1.400 . S
C2262 C2265 1.386 . S
H2263 C2279 0.930 . S
H2264 C2280 0.931 . S
C2265 H2253 0.929 . S
C2265 C2259 1.390 . S
C2265 C2262 1.386 . S
C2266 C2261 1.490 . S
C2266 C2268 1.395 . S
C2266 C2269 1.403 . S
H2267 C2273 0.930 . S
C2268 H2254 0.930 . S
C2268 C2266 1.395 . S
C2268 C2271 1.403 . S
C2269 C2266 1.403 . S
C2269 C2270 1.524 . S
C2269 C2273 1.400 . S
C2270 H2255 0.960 . S
C2270 H2256 0.960 . S
C2270 H2257 0.960 . S
C2270 C2269 1.524 . S
C2271 C2268 1.403 . S
C2271 C2272 1.392 . S
C2271 C2275 1.495 . S
C2272 C2271 1.392 . S
C2272 C2273 1.385 . S
C2272 C2274 1.478 . S
C2273 H2267 0.930 . S
C2273 C2269 1.400 . S
C2273 C2272 1.385 . S
C2274 C2272 1.478 . S
C2274 C2276 1.381 . S
C2274 C2280 1.383 . S
C2275 C2271 1.495 . S
C2275 H2281 0.959 . S
C2275 H2282 0.961 . S
C2275 H2283 0.960 . S
C2276 C2274 1.381 . S
C2276 C2277 1.394 . S
C2276 H2284 0.930 . S
C2277 C2276 1.394 . S
C2277 C2278 1.383 . S
C2277 H2285 0.929 . S
C2278 C2277 1.383 . S
C2278 C2279 1.377 . S
C2279 H2263 0.930 . S
C2279 C2278 1.377 . S
C2279 C2280 1.379 . S
C2280 H2264 0.931 . S
C2280 C2274 1.383 . S
C2280 C2279 1.379 . S
H2281 C2275 0.959 . S
H2282 C2275 0.961 . S
H2283 C2275 0.960 . S
H2284 C2276 0.930 . S
H2285 C2277 0.929 . S
H2286 C2294 0.929 . S
H2287 C2296 0.930 . S
H2288 C2298 0.930 . S
H2289 C2301 0.929 . S
H2290 C2304 0.930 . S
H2291 C2306 0.960 . S
H2292 C2306 0.960 . S
H2293 C2306 0.960 . S
C2294 H2286 0.929 . S
C2294 C2295 1.377 . S
C2294 C2296 1.384 . S
C2295 C2294 1.377 . S
C2295 C2301 1.390 . S
C2296 H2287 0.930 . S
C2296 C2294 1.384 . S
C2296 C2297 1.372 . S
C2297 C2296 1.372 . S
C2297 C2298 1.400 . S
C2297 C2302 1.490 . S
C2298 H2288 0.930 . S
C2298 C2297 1.400 . S
C2298 C2301 1.386 . S
H2299 C2315 0.930 . S
H2300 C2316 0.931 . S
C2301 H2289 0.929 . S
C2301 C2295 1.390 . S
C2301 C2298 1.386 . S
C2302 C2297 1.490 . S
C2302 C2304 1.395 . S
C2302 C2305 1.403 . S
H2303 C2309 0.930 . S
C2304 H2290 0.930 . S
C2304 C2302 1.395 . S
C2304 C2307 1.403 . S
C2305 C2302 1.403 . S
C2305 C2306 1.524 . S
C2305 C2309 1.400 . S
C2306 H2291 0.960 . S
C2306 H2292 0.960 . S
C2306 H2293 0.960 . S
C2306 C2305 1.524 . S
C2307 C2304 1.403 . S
C2307 C2308 1.392 . S
C2307 C2311 1.495 . S
C2308 C2307 1.392 . S
C2308 C2309 1.385 . S
C2308 C2310 1.478 . S
C2309 H2303 0.930 . S
C2309 C2305 1.400 . S
C2309 C2308 1.385 . S
C2310 C2308 1.478 . S
C2310 C2312 1.381 . S
C2310 C2316 1.383 . S
C2311 C2307 1.495 . S
C2311 H2317 0.959 . S
C2311 H2318 0.961 . S
C2311 H2319 0.960 . S
C2312 C2310 1.381 . S
C2312 C2313 1.394 . S
C2312 H2320 0.930 . S
C2313 C2312 1.394 . S
C2313 C2314 1.383 . S
C2313 H2321 0.929 . S
C2314 C2313 1.383 . S
C2314 C2315 1.377 . S
C2315 H2299 0.930 . S
C2315 C2314 1.377 . S
C2315 C2316 1.379 . S
C2316 H2300 0.931 . S
C2316 C2310 1.383 . S
C2316 C2315 1.379 . S
H2317 C2311 0.959 . S
H2318 C2311 0.961 . S
H2319 C2311 0.960 . S
H2320 C2312 0.930 . S
H2321 C2313 0.929 . S
H2322 C2330 0.929 . S
H2323 C2332 0.930 . S
H2324 C2334 0.930 . S
H2325 C2337 0.929 . S
H2326 C2340 0.930 . S
H2327 C2342 0.960 . S
H2328 C2342 0.960 . S
H2329 C2342 0.960 . S
C2330 H2322 0.929 . S
C2330 C2331 1.377 . S
C2330 C2332 1.384 . S
C2331 C2330 1.377 . S
C2331 C2337 1.390 . S
C2332 H2323 0.930 . S
C2332 C2330 1.384 . S
C2332 C2333 1.372 . S
C2333 C2332 1.372 . S
C2333 C2334 1.400 . S
C2333 C2338 1.490 . S
C2334 H2324 0.930 . S
C2334 C2333 1.400 . S
C2334 C2337 1.386 . S
H2335 C2351 0.930 . S
H2336 C2352 0.931 . S
C2337 H2325 0.929 . S
C2337 C2331 1.390 . S
C2337 C2334 1.386 . S
C2338 C2333 1.490 . S
C2338 C2340 1.395 . S
C2338 C2341 1.403 . S
H2339 C2345 0.930 . S
C2340 H2326 0.930 . S
C2340 C2338 1.395 . S
C2340 C2343 1.403 . S
C2341 C2338 1.403 . S
C2341 C2342 1.524 . S
C2341 C2345 1.400 . S
C2342 H2327 0.960 . S
C2342 H2328 0.960 . S
C2342 H2329 0.960 . S
C2342 C2341 1.524 . S
C2343 C2340 1.403 . S
C2343 C2344 1.392 . S
C2343 C2347 1.495 . S
C2344 C2343 1.392 . S
C2344 C2345 1.385 . S
C2344 C2346 1.478 . S
C2345 H2339 0.930 . S
C2345 C2341 1.400 . S
C2345 C2344 1.385 . S
C2346 C2344 1.478 . S
C2346 C2348 1.381 . S
C2346 C2352 1.383 . S
C2347 C2343 1.495 . S
C2347 H2353 0.959 . S
C2347 H2354 0.961 . S
C2347 H2355 0.960 . S
C2348 C2346 1.381 . S
C2348 C2349 1.394 . S
C2348 H2356 0.930 . S
C2349 C2348 1.394 . S
C2349 C2350 1.383 . S
C2349 H2357 0.929 . S
C2350 C2349 1.383 . S
C2350 C2351 1.377 . S
C2351 H2335 0.930 . S
C2351 C2350 1.377 . S
C2351 C2352 1.379 . S
C2352 H2336 0.931 . S
C2352 C2346 1.383 . S
C2352 C2351 1.379 . S
H2353 C2347 0.959 . S
H2354 C2347 0.961 . S
H2355 C2347 0.960 . S
H2356 C2348 0.930 . S
H2357 C2349 0.929 . S
H2358 C2366 0.929 . S
H2359 C2368 0.930 . S
H2360 C2370 0.930 . S
H2361 C2373 0.929 . S
H2362 C2376 0.930 . S
H2363 C2378 0.960 . S
H2364 C2378 0.960 . S
H2365 C2378 0.960 . S
C2366 H2358 0.929 . S
C2366 C2367 1.377 . S
C2366 C2368 1.384 . S
C2367 C2366 1.377 . S
C2367 C2373 1.390 . S
C2368 H2359 0.930 . S
C2368 C2366 1.384 . S
C2368 C2369 1.372 . S
C2369 C2368 1.372 . S
C2369 C2370 1.400 . S
C2369 C2374 1.490 . S
C2370 H2360 0.930 . S
C2370 C2369 1.400 . S
C2370 C2373 1.386 . S
H2371 C2387 0.930 . S
H2372 C2388 0.931 . S
C2373 H2361 0.929 . S
C2373 C2367 1.390 . S
C2373 C2370 1.386 . S
C2374 C2369 1.490 . S
C2374 C2376 1.395 . S
C2374 C2377 1.403 . S
H2375 C2381 0.930 . S
C2376 H2362 0.930 . S
C2376 C2374 1.395 . S
C2376 C2379 1.403 . S
C2377 C2374 1.403 . S
C2377 C2378 1.524 . S
C2377 C2381 1.400 . S
C2378 H2363 0.960 . S
C2378 H2364 0.960 . S
C2378 H2365 0.960 . S
C2378 C2377 1.524 . S
C2379 C2376 1.403 . S
C2379 C2380 1.392 . S
C2379 C2383 1.495 . S
C2380 C2379 1.392 . S
C2380 C2381 1.385 . S
C2380 C2382 1.478 . S
C2381 H2375 0.930 . S
C2381 C2377 1.400 . S
C2381 C2380 1.385 . S
C2382 C2380 1.478 . S
C2382 C2384 1.381 . S
C2382 C2388 1.383 . S
C2383 C2379 1.495 . S
C2383 H2389 0.959 . S
C2383 H2390 0.961 . S
C2383 H2391 0.960 . S
C2384 C2382 1.381 . S
C2384 C2385 1.394 . S
C2384 H2392 0.930 . S
C2385 C2384 1.394 . S
C2385 C2386 1.383 . S
C2385 H2393 0.929 . S
C2386 C2385 1.383 . S
C2386 C2387 1.377 . S
C2387 H2371 0.930 . S
C2387 C2386 1.377 . S
C2387 C2388 1.379 . S
C2388 H2372 0.931 . S
C2388 C2382 1.383 . S
C2388 C2387 1.379 . S
H2389 C2383 0.959 . S
H2390 C2383 0.961 . S
H2391 C2383 0.960 . S
H2392 C2384 0.930 . S
H2393 C2385 0.929 . S
H2394 C2402 0.929 . S
H2395 C2404 0.930 . S
H2396 C2406 0.930 . S
H2397 C2409 0.929 . S
H2398 C2412 0.930 . S
H2399 C2414 0.960 . S
H2400 C2414 0.960 . S
H2401 C2414 0.960 . S
C2402 H2394 0.929 . S
C2402 C2403 1.377 . S
C2402 C2404 1.384 . S
C2403 C2402 1.377 . S
C2403 C2409 1.390 . S
C2404 H2395 0.930 . S
C2404 C2402 1.384 . S
C2404 C2405 1.372 . S
C2405 C2404 1.372 . S
C2405 C2406 1.400 . S
C2405 C2410 1.490 . S
C2406 H2396 0.930 . S
C2406 C2405 1.400 . S
C2406 C2409 1.386 . S
H2407 C2423 0.930 . S
H2408 C2424 0.931 . S
C2409 H2397 0.929 . S
C2409 C2403 1.390 . S
C2409 C2406 1.386 . S
C2410 C2405 1.490 . S
C2410 C2412 1.395 . S
C2410 C2413 1.403 . S
H2411 C2417 0.930 . S
C2412 H2398 0.930 . S
C2412 C2410 1.395 . S
C2412 C2415 1.403 . S
C2413 C2410 1.403 . S
C2413 C2414 1.524 . S
C2413 C2417 1.400 . S
C2414 H2399 0.960 . S
C2414 H2400 0.960 . S
C2414 H2401 0.960 . S
C2414 C2413 1.524 . S
C2415 C2412 1.403 . S
C2415 C2416 1.392 . S
C2415 C2419 1.495 . S
C2416 C2415 1.392 . S
C2416 C2417 1.385 . S
C2416 C2418 1.478 . S
C2417 H2411 0.930 . S
C2417 C2413 1.400 . S
C2417 C2416 1.385 . S
C2418 C2416 1.478 . S
C2418 C2420 1.381 . S
C2418 C2424 1.383 . S
C2419 C2415 1.495 . S
C2419 H2425 0.959 . S
C2419 H2426 0.961 . S
C2419 H2427 0.960 . S
C2420 C2418 1.381 . S
C2420 C2421 1.394 . S
C2420 H2428 0.930 . S
C2421 C2420 1.394 . S
C2421 C2422 1.383 . S
C2421 H2429 0.929 . S
C2422 C2421 1.383 . S
C2422 C2423 1.377 . S
C2423 H2407 0.930 . S
C2423 C2422 1.377 . S
C2423 C2424 1.379 . S
C2424 H2408 0.931 . S
C2424 C2418 1.383 . S
C2424 C2423 1.379 . S
H2425 C2419 0.959 . S
H2426 C2419 0.961 . S
H2427 C2419 0.960 . S
H2428 C2420 0.930 . S
H2429 C2421 0.929 . S
H2430 C2438 0.929 . S
H2431 C2440 0.930 . S
H2432 C2442 0.930 . S
H2433 C2445 0.929 . S
H2434 C2448 0.930 . S
H2435 C2450 0.960 . S
H2436 C2450 0.960 . S
H2437 C2450 0.960 . S
C2438 H2430 0.929 . S
C2438 C2439 1.377 . S
C2438 C2440 1.384 . S
C2439 C2438 1.377 . S
C2439 C2445 1.390 . S
C2440 H2431 0.930 . S
C2440 C2438 1.384 . S
C2440 C2441 1.372 . S
C2441 C2440 1.372 . S
C2441 C2442 1.400 . S
C2441 C2446 1.490 . S
C2442 H2432 0.930 . S
C2442 C2441 1.400 . S
C2442 C2445 1.386 . S
H2443 C2459 0.930 . S
H2444 C2460 0.931 . S
C2445 H2433 0.929 . S
C2445 C2439 1.390 . S
C2445 C2442 1.386 . S
C2446 C2441 1.490 . S
C2446 C2448 1.395 . S
C2446 C2449 1.403 . S
H2447 C2453 0.930 . S
C2448 H2434 0.930 . S
C2448 C2446 1.395 . S
C2448 C2451 1.403 . S
C2449 C2446 1.403 . S
C2449 C2450 1.524 . S
C2449 C2453 1.400 . S
C2450 H2435 0.960 . S
C2450 H2436 0.960 . S
C2450 H2437 0.960 . S
C2450 C2449 1.524 . S
C2451 C2448 1.403 . S
C2451 C2452 1.392 . S
C2451 C2455 1.495 . S
C2452 C2451 1.392 . S
C2452 C2453 1.385 . S
C2452 C2454 1.478 . S
C2453 H2447 0.930 . S
C2453 C2449 1.400 . S
C2453 C2452 1.385 . S
C2454 C2452 1.478 . S
C2454 C2456 1.381 . S
C2454 C2460 1.383 . S
C2455 C2451 1.495 . S
C2455 H2461 0.959 . S
C2455 H2462 0.961 . S
C2455 H2463 0.960 . S
C2456 C2454 1.381 . S
C2456 C2457 1.394 . S
C2456 H2464 0.930 . S
C2457 C2456 1.394 . S
C2457 C2458 1.383 . S
C2457 H2465 0.929 . S
C2458 C2457 1.383 . S
C2458 C2459 1.377 . S
C2459 H2443 0.930 . S
C2459 C2458 1.377 . S
C2459 C2460 1.379 . S
C2460 H2444 0.931 . S
C2460 C2454 1.383 . S
C2460 C2459 1.379 . S
H2461 C2455 0.959 . S
H2462 C2455 0.961 . S
H2463 C2455 0.960 . S
H2464 C2456 0.930 . S
H2465 C2457 0.929 . S
H2466 C2474 0.929 . S
H2467 C2476 0.930 . S
H2468 C2478 0.930 . S
H2469 C2481 0.929 . S
H2470 C2484 0.930 . S
H2471 C2486 0.960 . S
H2472 C2486 0.960 . S
H2473 C2486 0.960 . S
C2474 H2466 0.929 . S
C2474 C2475 1.377 . S
C2474 C2476 1.384 . S
C2475 C2474 1.377 . S
C2475 C2481 1.390 . S
C2476 H2467 0.930 . S
C2476 C2474 1.384 . S
C2476 C2477 1.372 . S
C2477 C2476 1.372 . S
C2477 C2478 1.400 . S
C2477 C2482 1.490 . S
C2478 H2468 0.930 . S
C2478 C2477 1.400 . S
C2478 C2481 1.386 . S
H2479 C2495 0.930 . S
H2480 C2496 0.931 . S
C2481 H2469 0.929 . S
C2481 C2475 1.390 . S
C2481 C2478 1.386 . S
C2482 C2477 1.490 . S
C2482 C2484 1.395 . S
C2482 C2485 1.403 . S
H2483 C2489 0.930 . S
C2484 H2470 0.930 . S
C2484 C2482 1.395 . S
C2484 C2487 1.403 . S
C2485 C2482 1.403 . S
C2485 C2486 1.524 . S
C2485 C2489 1.400 . S
C2486 H2471 0.960 . S
C2486 H2472 0.960 . S
C2486 H2473 0.960 . S
C2486 C2485 1.524 . S
C2487 C2484 1.403 . S
C2487 C2488 1.392 . S
C2487 C2491 1.495 . S
C2488 C2487 1.392 . S
C2488 C2489 1.385 . S
C2488 C2490 1.478 . S
C2489 H2483 0.930 . S
C2489 C2485 1.400 . S
C2489 C2488 1.385 . S
C2490 C2488 1.478 . S
C2490 C2492 1.381 . S
C2490 C2496 1.383 . S
C2491 C2487 1.495 . S
C2491 H2497 0.959 . S
C2491 H2498 0.961 . S
C2491 H2499 0.960 . S
C2492 C2490 1.381 . S
C2492 C2493 1.394 . S
C2492 H2500 0.930 . S
C2493 C2492 1.394 . S
C2493 C2494 1.383 . S
C2493 H2501 0.929 . S
C2494 C2493 1.383 . S
C2494 C2495 1.377 . S
C2495 H2479 0.930 . S
C2495 C2494 1.377 . S
C2495 C2496 1.379 . S
C2496 H2480 0.931 . S
C2496 C2490 1.383 . S
C2496 C2495 1.379 . S
H2497 C2491 0.959 . S
H2498 C2491 0.961 . S
H2499 C2491 0.960 . S
H2500 C2492 0.930 . S
H2501 C2493 0.929 . S
H2502 C2510 0.929 . S
H2503 C2512 0.930 . S
H2504 C2514 0.930 . S
H2505 C2517 0.929 . S
H2506 C2520 0.930 . S
H2507 C2522 0.960 . S
H2508 C2522 0.960 . S
H2509 C2522 0.960 . S
C2510 H2502 0.929 . S
C2510 C2511 1.377 . S
C2510 C2512 1.384 . S
C2511 C2510 1.377 . S
C2511 C2517 1.390 . S
C2512 H2503 0.930 . S
C2512 C2510 1.384 . S
C2512 C2513 1.372 . S
C2513 C2512 1.372 . S
C2513 C2514 1.400 . S
C2513 C2518 1.490 . S
C2514 H2504 0.930 . S
C2514 C2513 1.400 . S
C2514 C2517 1.386 . S
H2515 C2531 0.930 . S
H2516 C2532 0.931 . S
C2517 H2505 0.929 . S
C2517 C2511 1.390 . S
C2517 C2514 1.386 . S
C2518 C2513 1.490 . S
C2518 C2520 1.395 . S
C2518 C2521 1.403 . S
H2519 C2525 0.930 . S
C2520 H2506 0.930 . S
C2520 C2518 1.395 . S
C2520 C2523 1.403 . S
C2521 C2518 1.403 . S
C2521 C2522 1.524 . S
C2521 C2525 1.400 . S
C2522 H2507 0.960 . S
C2522 H2508 0.960 . S
C2522 H2509 0.960 . S
C2522 C2521 1.524 . S
C2523 C2520 1.403 . S
C2523 C2524 1.392 . S
C2523 C2527 1.495 . S
C2524 C2523 1.392 . S
C2524 C2525 1.385 . S
C2524 C2526 1.478 . S
C2525 H2519 0.930 . S
C2525 C2521 1.400 . S
C2525 C2524 1.385 . S
C2526 C2524 1.478 . S
C2526 C2528 1.381 . S
C2526 C2532 1.383 . S
C2527 C2523 1.495 . S
C2527 H2533 0.959 . S
C2527 H2534 0.961 . S
C2527 H2535 0.960 . S
C2528 C2526 1.381 . S
C2528 C2529 1.394 . S
C2528 H2536 0.930 . S
C2529 C2528 1.394 . S
C2529 C2530 1.383 . S
C2529 H2537 0.929 . S
C2530 C2529 1.383 . S
C2530 C2531 1.377 . S
C2531 H2515 0.930 . S
C2531 C2530 1.377 . S
C2531 C2532 1.379 . S
C2532 H2516 0.931 . S
C2532 C2526 1.383 . S
C2532 C2531 1.379 . S
H2533 C2527 0.959 . S
H2534 C2527 0.961 . S
H2535 C2527 0.960 . S
H2536 C2528 0.930 . S
H2537 C2529 0.929 . S
C603 N170 2.204 . S
C622 C246 2.246 . S
C639 N184 1.087 . S
C658 C286 1.086 . S
C675 N158 1.706 . S
C694 C316 1.701 . S
C711 N145 1.552 . S
C730 C276 1.516 1_556 S
C766 C326 0.695 . S
C747 N119 0.699 . S
C783 N131 1.891 . S
C802 C236 1.919 . S
C838 C265 1.821 . S
C819 N144 1.819 . S
C874 C305 1.688 . S
C855 N118 1.699 . S
C891 N132 1.568 . S
C910 C331 1.588 . S
C927 N171 1.460 . S
C946 C291 1.438 . S
C963 N183 1.282 . S
C982 C345 1.279 . S
C1018 C251 1.427 . S
C999 N157 1.456 . S
C1054 C366 2.248 . S
C1035 N14 2.205 . S
C1071 N28 1.085 . S
C1090 C406 1.092 . S
C1107 N2 1.703 . S
C1126 C436 1.681 . S
C1143 N223 1.552 . S
C1162 C396 1.521 . S
C1179 N197 0.699 . S
C1198 C446 0.696 . S
C1215 N209 1.894 . S
C1234 C356 1.923 . S
C1251 N222 1.816 . S
C1270 C385 1.830 . S
C1287 N196 1.698 . S
C1306 C425 1.688 . S
C1342 C451 1.571 . S
C1323 N210 1.567 . S
C1359 N15 1.460 . S
C1378 C411 1.459 . S
C1414 C465 1.281 . S
C1395 N27 1.283 . S
C1431 N1 1.452 . S
C1450 C371 1.455 . S
C1486 C486 2.248 . S
C1467 N92 2.205 . S
C1503 N106 1.085 . S
C1522 C526 1.073 . S
C1558 C556 1.686 . S
C1539 N80 1.704 . S
C1594 C516 1.517 . S
C1575 N67 1.551 . S
C1630 C566 0.702 . S
C1611 N41 0.699 . S
C1647 N53 1.892 . S
C1666 C476 1.910 . S
C1683 N66 1.816 . S
C1702 C505 1.830 . S
C1719 N40 1.701 . S
C1738 C545 1.690 . S
C1774 C571 1.569 . S
C1755 N54 1.568 . S
C1791 N93 1.455 . S
C1810 C531 1.469 . S
C1827 N105 1.278 . S
C1846 C585 1.283 . S
C1863 N79 1.454 . S
C1882 C491 1.441 . S
C1899 N200 0.867 . S
C1918 C263 0.862 . S
C1954 C303 2.145 . S
C1935 N213 2.126 . S
C1971 N226 1.581 . S
C1990 C322 1.574 . S
C2007 N83 1.846 . S
C2026 C282 1.845 . S
C2043 N96 1.908 . S
C2062 C343 1.935 . S
C2098 C242 0.986 . S
C2079 N109 1.013 . S
C2115 N44 0.874 . S
C2134 C383 0.887 . S
C2151 N57 2.129 . S
C2170 C423 2.137 . S
C2187 N70 1.579 . S
C2206 C442 1.592 . S
C2223 N161 1.846 . S
C2242 C402 1.834 . S
C2278 C463 1.932 . S
C2259 N174 1.909 . S
C2295 N187 1.004 . S
C2314 C362 1.006 . S
C2331 N122 0.869 . S
C2350 C503 0.874 . S
C2367 N135 2.123 . S
C2386 C543 2.152 . S
C2422 C562 1.585 . S
C2403 N148 1.583 . S
C2439 N5 1.842 . S
C2458 C522 1.829 . S
C2475 N18 1.909 . S
C2494 C583 1.930 . S
C2511 N31 1.012 . S
C2530 C482 0.979 . S
