# Generated by pormake.
# Topology anh, (6,3)-cn, num edge types: 1
# Building blocks:
#     Node 0, Type 0, BuildingBlock: MIFKUJ_clean_sbu_0, # of connection points: 6
#     Node 1, Type 0, BuildingBlock: MIFKUJ_clean_sbu_0, # of connection points: 6
#     Node 2, Type 0, BuildingBlock: MIFKUJ_clean_sbu_0, # of connection points: 6
#     Node 3, Type 1, BuildingBlock: BETDAH_clean_linker_0, # of connection points: 3
#     Node 4, Type 1, BuildingBlock: BETDAH_clean_linker_0, # of connection points: 3
#     Node 5, Type 1, BuildingBlock: BETDAH_clean_linker_0, # of connection points: 3
#     Node 6, Type 1, BuildingBlock: BETDAH_clean_linker_0, # of connection points: 3
#     Node 7, Type 1, BuildingBlock: BETDAH_clean_linker_0, # of connection points: 3
#     Node 8, Type 1, BuildingBlock: BETDAH_clean_linker_0, # of connection points: 3
#     Edge 9, Type (0, 1), BuildingBlock: XIVTED_clean_linker_0, # of connection points: 2
#     Edge 10, Type (0, 1), BuildingBlock: XIVTED_clean_linker_0, # of connection points: 2
#     Edge 11, Type (0, 1), BuildingBlock: XIVTED_clean_linker_0, # of connection points: 2
#     Edge 12, Type (0, 1), BuildingBlock: XIVTED_clean_linker_0, # of connection points: 2
#     Edge 13, Type (0, 1), BuildingBlock: XIVTED_clean_linker_0, # of connection points: 2
#     Edge 14, Type (0, 1), BuildingBlock: XIVTED_clean_linker_0, # of connection points: 2
#     Edge 15, Type (0, 1), BuildingBlock: XIVTED_clean_linker_0, # of connection points: 2
#     Edge 16, Type (0, 1), BuildingBlock: XIVTED_clean_linker_0, # of connection points: 2
#     Edge 17, Type (0, 1), BuildingBlock: XIVTED_clean_linker_0, # of connection points: 2
#     Edge 18, Type (0, 1), BuildingBlock: XIVTED_clean_linker_0, # of connection points: 2
#     Edge 19, Type (0, 1), BuildingBlock: XIVTED_clean_linker_0, # of connection points: 2
#     Edge 20, Type (0, 1), BuildingBlock: XIVTED_clean_linker_0, # of connection points: 2
#     Edge 21, Type (0, 1), BuildingBlock: XIVTED_clean_linker_0, # of connection points: 2
#     Edge 22, Type (0, 1), BuildingBlock: XIVTED_clean_linker_0, # of connection points: 2
#     Edge 23, Type (0, 1), BuildingBlock: XIVTED_clean_linker_0, # of connection points: 2
#     Edge 24, Type (0, 1), BuildingBlock: XIVTED_clean_linker_0, # of connection points: 2
#     Edge 25, Type (0, 1), BuildingBlock: XIVTED_clean_linker_0, # of connection points: 2
#     Edge 26, Type (0, 1), BuildingBlock: XIVTED_clean_linker_0, # of connection points: 2
# Relax obj value: 0.069
# Max RMSD: 0.135
# Mean RMSD: 0.096
data_MOF--net-anh--node1-MIFKUJ_clean_sbu_0--node2-BETDAH_clean_linker_0--edge1-XIVTED_clean_linker_0
_symmetry_space_group_name_H-M    P1
_symmetry_Int_Tables_number       1
_symmetry_cell_setting            triclinic
loop_
_symmetry_equiv_pos_as_xyz
'x, y, z'
_cell_length_a     31.615378
_cell_length_b     31.78953
_cell_length_c     46.789281
_cell_angle_alpha  96.476292
_cell_angle_beta   92.878055
_cell_angle_gamma 119.80486
loop_
_atom_site_label
_atom_site_type_symbol
_atom_site_fract_x
_atom_site_fract_y
_atom_site_fract_z
_atom_type_partial_charge
Zn0 Zn 0.05099 0.5665 0.15947 0.0
Zn1 Zn 0.94881 0.45699 0.15701 0.0
C2 C 0.13424 0.55835 0.17483 0.0
O3 O 0.13939 0.59318 0.19519 0.0
C4 C 0.85546 0.45318 0.14827 0.0
O5 O 0.84218 0.40842 0.13611 0.0
O6 O 0.09914 0.63797 0.15996 0.0
O7 O 1.00443 0.54492 0.12304 0.0
O8 O 0.97754 0.46571 0.11892 0.0
C9 C 0.12253 0.64916 0.1381 0.0
O10 O 0.11025 0.61481 0.11564 0.0
O11 O 0.0954 0.53664 0.15669 0.0
C12 C 0.88864 0.36962 0.17968 0.0
O13 O 0.89469 0.40243 0.20171 0.0
O14 O 0.90893 0.38416 0.15717 0.0
O15 O 0.99395 0.48167 0.19465 0.0
O16 O 0.02387 0.56129 0.19773 0.0
O17 O 0.90037 0.48253 0.15843 0.0
C18 C 0.98981 0.50382 0.10733 0.0
C19 C 0.01027 0.52355 0.20984 0.0
Zn20 Zn 0.59098 0.10077 0.4973 0.0
Zn21 Zn 0.59306 0.98724 0.50218 0.0
C22 C 0.67931 0.1922 0.504 0.0
O23 O 0.65538 0.20036 0.524 0.0
C24 C 0.506 0.89008 0.48687 0.0
O25 O 0.5389 0.87712 0.48241 0.0
O26 O 0.55348 0.13624 0.49822 0.0
O27 O 0.55678 0.0424 0.46538 0.0
O28 O 0.61399 0.02219 0.46716 0.0
C29 C 0.55249 0.16058 0.47873 0.0
O30 O 0.57303 0.15904 0.45521 0.0
O31 O 0.6594 0.14969 0.48879 0.0
C32 C 0.63124 0.9348 0.52943 0.0
O33 O 0.61037 0.94377 0.55101 0.0
O34 O 0.63003 0.95125 0.50605 0.0
O35 O 0.60324 0.02514 0.54187 0.0
O36 O 0.59608 0.09016 0.53821 0.0
O37 O 0.52015 0.93534 0.49433 0.0
C38 C 0.58332 0.0287 0.45257 0.0
C39 C 0.60197 0.06248 0.55341 0.0
Zn40 Zn 0.59249 0.60553 0.83747 0.0
Zn41 Zn 0.48616 0.62108 0.83855 0.0
C42 C 0.54215 0.50079 0.83994 0.0
O43 O 0.54493 0.51585 0.86764 0.0
C44 C 0.49333 0.70613 0.81776 0.0
O45 O 0.4656 0.67275 0.79534 0.0
O46 O 0.66258 0.62252 0.83749 0.0
O47 O 0.5806 0.64389 0.81027 0.0
O48 O 0.50102 0.59535 0.80088 0.0
C49 C 0.67287 0.60534 0.81475 0.0
O50 O 0.63917 0.58279 0.79212 0.0
O51 O 0.55576 0.53196 0.82253 0.0
C52 C 0.39137 0.59091 0.85688 0.0
O53 O 0.41802 0.62101 0.88064 0.0
O54 O 0.41273 0.58508 0.83581 0.0
O55 O 0.50995 0.61354 0.87794 0.0
O56 O 0.58168 0.61659 0.87854 0.0
O57 O 0.50793 0.69298 0.83906 0.0
C58 C 0.54282 0.61749 0.792 0.0
C59 C 0.54668 0.61497 0.89151 0.0
H60 H 0.44654 0.91892 0.23477 0.0
H61 H 0.60176 0.99365 0.22769 0.0
H62 H 0.49771 0.92158 0.15127 0.0
C63 C 0.4766 0.9305 0.22176 0.0
C64 C 0.46597 0.91654 0.19152 0.0
C65 C 0.52542 0.9578 0.23538 0.0
C66 C 0.56387 0.97334 0.21789 0.0
C67 C 0.55359 0.96039 0.18756 0.0
C68 C 0.50496 0.9315 0.17466 0.0
N69 N 0.59154 0.97471 0.16951 0.0
C70 C 0.63445 0.02008 0.17527 0.0
H71 H 0.5411 0.46232 0.58516 0.0
H72 H 0.63349 0.61482 0.57855 0.0
H73 H 0.62173 0.50419 0.51185 0.0
C74 C 0.56558 0.49044 0.5733 0.0
C75 C 0.57773 0.47677 0.54667 0.0
C76 C 0.58619 0.5402 0.58524 0.0
C77 C 0.61778 0.57646 0.56963 0.0
C78 C 0.63005 0.56327 0.54296 0.0
C79 C 0.61056 0.51371 0.53193 0.0
N80 N 0.66286 0.59891 0.52704 0.0
C81 C 0.67197 0.64673 0.53034 0.0
H82 H 0.91612 0.52567 0.89696 0.0
H83 H 0.99791 0.45282 0.87963 0.0
H84 H 0.92794 0.48045 0.80889 0.0
C85 C 0.93044 0.50933 0.88157 0.0
C86 C 0.91913 0.50629 0.85173 0.0
C87 C 0.95864 0.49006 0.89185 0.0
C88 C 0.97585 0.46754 0.87188 0.0
C89 C 0.96474 0.46417 0.84192 0.0
C90 C 0.93576 0.48272 0.83201 0.0
N91 N 0.98348 0.44352 0.82137 0.0
C92 C 0.03003 0.44989 0.82672 0.0
H93 H 0.14973 0.63552 0.41911 0.0
H94 H 0.02439 0.50369 0.43644 0.0
H95 H 0.14969 0.588 0.50148 0.0
C96 C 0.13075 0.61027 0.43395 0.0
C97 C 0.15489 0.61744 0.46155 0.0
C98 C 0.08394 0.56917 0.42457 0.0
C99 C 0.0605 0.53542 0.44355 0.0
C100 C 0.08409 0.54236 0.47146 0.0
C101 C 0.13138 0.58305 0.48012 0.0
N102 N 0.06202 0.5088 0.49116 0.0
C103 C 0.0134 0.47053 0.48715 0.0
H104 H 0.56051 0.19607 0.7497 0.0
H105 H 0.56388 0.07356 0.77761 0.0
H106 H 0.53631 0.1681 0.83701 0.0
C107 C 0.55847 0.17492 0.76672 0.0
C108 C 0.54873 0.18819 0.79421 0.0
C109 C 0.56475 0.1342 0.76061 0.0
C110 C 0.55887 0.10485 0.7821 0.0
C111 C 0.54784 0.11668 0.80958 0.0
C112 C 0.5434 0.15854 0.81554 0.0
N113 N 0.54171 0.08778 0.83184 0.0
C114 C 0.54056 0.04311 0.82792 0.0
H115 H 0.61209 0.5533 0.09422 0.0
H116 H 0.47008 0.53641 0.10458 0.0
H117 H 0.54431 0.50304 0.17015 0.0
C118 C 0.58175 0.54411 0.10688 0.0
C119 C 0.58338 0.52809 0.13339 0.0
C120 C 0.54068 0.54619 0.09585 0.0
C121 C 0.50199 0.53517 0.11285 0.0
C122 C 0.5035 0.52011 0.1399 0.0
C123 C 0.54379 0.51578 0.14968 0.0
N124 N 0.46463 0.50725 0.15744 0.0
C125 C 0.42539 0.5153 0.15312 0.0
H126 H 0.22131 0.60117 0.20986 0.0
H127 H 0.3388 0.46543 0.11742 0.0
H128 H 0.14282 0.49576 0.13236 0.0
H129 H 0.41694 0.58071 0.19045 0.0
H130 H 0.26615 0.47432 0.12203 0.0
H131 H 0.29196 0.59149 0.20327 0.0
C132 C 0.21871 0.57566 0.19148 0.0
C133 C 0.17577 0.54921 0.17165 0.0
C134 C 0.29928 0.4979 0.13691 0.0
C135 C 0.25753 0.53812 0.16382 0.0
C136 C 0.34069 0.49297 0.13418 0.0
C137 C 0.38371 0.52271 0.15347 0.0
C138 C 0.30106 0.53255 0.15925 0.0
C139 C 0.38443 0.55739 0.17504 0.0
C140 C 0.25936 0.5703 0.18766 0.0
C141 C 0.17501 0.5168 0.14825 0.0
N142 N 0.34374 0.56126 0.17741 0.0
N143 N 0.21528 0.5122 0.14496 0.0
H144 H 0.74416 0.18861 0.46782 0.0
H145 H 0.94195 0.47592 0.51309 0.0
H146 H 0.7254 0.28824 0.52926 0.0
H147 H 0.97204 0.37624 0.46016 0.0
H148 H 0.85905 0.408 0.51542 0.0
H149 H 0.82479 0.25698 0.46126 0.0
C150 C 0.7569 0.22478 0.47989 0.0
C151 C 0.72801 0.23258 0.49923 0.0
C152 C 0.88353 0.40082 0.50313 0.0
C153 C 0.81994 0.3109 0.49171 0.0
C154 C 0.93069 0.43963 0.50173 0.0
C155 C 0.96331 0.4313 0.48638 0.0
C156 C 0.86903 0.3533 0.48911 0.0
C157 C 0.94751 0.38382 0.47214 0.0
C158 C 0.80291 0.26376 0.47614 0.0
C159 C 0.74638 0.28028 0.51424 0.0
N160 N 0.90139 0.34641 0.47389 0.0
N161 N 0.791 0.31745 0.51016 0.0
H162 H 0.54469 0.78388 0.86205 0.0
H163 H 0.5021 0.97188 0.78094 0.0
H164 H 0.4683 0.74601 0.77572 0.0
H165 H 0.5721 0.00773 0.86859 0.0
H166 H 0.49383 0.89036 0.77747 0.0
H167 H 0.55968 0.86748 0.86384 0.0
C168 C 0.53127 0.79315 0.84341 0.0
C169 C 0.505 0.75769 0.81874 0.0
C170 C 0.51121 0.91605 0.79745 0.0
C171 C 0.52196 0.85349 0.82067 0.0
C172 C 0.51594 0.96246 0.79936 0.0
C173 C 0.53774 0.99603 0.82506 0.0
C174 C 0.52838 0.90332 0.82148 0.0
C175 C 0.55509 0.98253 0.84841 0.0
C176 C 0.53978 0.84093 0.84446 0.0
C177 C 0.48856 0.77198 0.79524 0.0
N178 N 0.54994 0.93711 0.84611 0.0
N179 N 0.49717 0.81862 0.79682 0.0
H180 H 0.86806 0.54637 0.15727 0.0
H181 H 0.57896 0.44747 0.15198 0.0
H182 H 0.75637 0.39299 0.14438 0.0
H183 H 0.68236 0.59168 0.13448 0.0
H184 H 0.64663 0.43147 0.15961 0.0
H185 H 0.80308 0.56766 0.15834 0.0
C186 C 0.83001 0.51724 0.15489 0.0
C187 C 0.81766 0.46782 0.15047 0.0
C188 C 0.65459 0.46682 0.15439 0.0
C189 C 0.74337 0.49186 0.15207 0.0
C190 C 0.61603 0.47612 0.15031 0.0
C191 C 0.62495 0.52087 0.14243 0.0
C192 C 0.70261 0.50267 0.15086 0.0
C193 C 0.67378 0.55648 0.14024 0.0
C194 C 0.79298 0.52939 0.15544 0.0
C195 C 0.76768 0.43158 0.14752 0.0
N196 N 0.71073 0.54659 0.14431 0.0
N197 N 0.73253 0.44429 0.14841 0.0
H198 H 0.42497 0.9012 0.48438 0.0
H199 H 0.23499 0.61613 0.48539 0.0
H200 H 0.4675 0.79159 0.48521 0.0
H201 H 0.19071 0.71387 0.45599 0.0
H202 H 0.32036 0.68391 0.49381 0.0
H203 H 0.33858 0.83619 0.48134 0.0
C204 C 0.41618 0.86356 0.48396 0.0
C205 C 0.4535 0.85179 0.48486 0.0
C206 C 0.2919 0.6906 0.4857 0.0
C207 C 0.35507 0.77756 0.48181 0.0
C208 C 0.24317 0.65206 0.48115 0.0
C209 C 0.20581 0.65938 0.46987 0.0
C210 C 0.30332 0.73694 0.47921 0.0
C211 C 0.21855 0.7066 0.46445 0.0
C212 C 0.36694 0.82653 0.48221 0.0
C213 C 0.43998 0.80237 0.48431 0.0
N214 N 0.26623 0.74359 0.46912 0.0
N215 N 0.39198 0.76718 0.48292 0.0
H216 H 0.49889 0.4211 0.86798 0.0
H217 H 0.60164 0.27587 0.77419 0.0
H218 H 0.56723 0.46696 0.79094 0.0
H219 H 0.48772 0.20441 0.82846 0.0
H220 H 0.59327 0.34816 0.78263 0.0
H221 H 0.49676 0.34297 0.85596 0.0
C222 C 0.51277 0.41446 0.84831 0.0
C223 C 0.53331 0.45069 0.83046 0.0
C224 C 0.56987 0.31655 0.79255 0.0
C225 C 0.53198 0.36184 0.81697 0.0
C226 C 0.57444 0.27499 0.78767 0.0
C227 C 0.54493 0.23333 0.80033 0.0
C228 C 0.53614 0.31724 0.81067 0.0
C229 C 0.51162 0.23558 0.8184 0.0
C230 C 0.51161 0.36989 0.84151 0.0
C231 C 0.55084 0.44007 0.80527 0.0
N232 N 0.50826 0.27686 0.82312 0.0
N233 N 0.55038 0.39693 0.7995 0.0
H234 H 0.66388 0.89689 0.48615 0.0
H235 H 0.67365 0.70387 0.57824 0.0
H236 H 0.63952 0.8936 0.57606 0.0
H237 H 0.6817 0.69719 0.48634 0.0
H238 H 0.67389 0.78133 0.57962 0.0
H239 H 0.68374 0.83201 0.48764 0.0
C240 C 0.66331 0.88298 0.50631 0.0
C241 C 0.64945 0.90028 0.53094 0.0
C242 C 0.67612 0.76325 0.55919 0.0
C243 C 0.67183 0.82586 0.53272 0.0
C244 C 0.67603 0.7192 0.55844 0.0
C245 C 0.67745 0.69462 0.53213 0.0
C246 C 0.67745 0.78239 0.53335 0.0
C247 C 0.68053 0.71548 0.50701 0.0
C248 C 0.67451 0.84582 0.50712 0.0
C249 C 0.64951 0.88101 0.55648 0.0
N250 N 0.68011 0.75815 0.50818 0.0
N251 N 0.66009 0.84453 0.55663 0.0
H252 H 0.75275 0.65151 0.85637 0.0
H253 H 0.84574 0.46834 0.80601 0.0
H254 H 0.69472 0.55043 0.77571 0.0
H255 H 0.92573 0.59306 0.87413 0.0
H256 H 0.79306 0.50073 0.79267 0.0
H257 H 0.81964 0.63425 0.86159 0.0
C258 C 0.7545 0.62626 0.83954 0.0
C259 C 0.7178 0.60194 0.81576 0.0
C260 C 0.82249 0.52128 0.81034 0.0
C261 C 0.79375 0.58143 0.82179 0.0
C262 C 0.85269 0.50286 0.81791 0.0
C263 C 0.88974 0.52759 0.84152 0.0
C264 C 0.82913 0.5645 0.82664 0.0
C265 C 0.89677 0.57204 0.85627 0.0
C266 C 0.79269 0.61639 0.84252 0.0
C267 C 0.72206 0.5698 0.79451 0.0
N268 N 0.8664 0.58875 0.84881 0.0
N269 N 0.7589 0.55988 0.79825 0.0
H270 H 0.18607 0.68145 0.09744 0.0
H271 H 0.43077 0.83987 0.1466 0.0
H272 H 0.16457 0.72518 0.18373 0.0
H273 H 0.38305 0.91796 0.2056 0.0
H274 H 0.34556 0.78136 0.12795 0.0
H275 H 0.26873 0.7531 0.10465 0.0
C276 C 0.19856 0.70632 0.11783 0.0
C277 C 0.16874 0.69669 0.14027 0.0
C278 C 0.35358 0.81201 0.14438 0.0
C279 C 0.26385 0.77794 0.14898 0.0
C280 C 0.40247 0.84552 0.15516 0.0
C281 C 0.41432 0.88393 0.17785 0.0
C282 C 0.31603 0.81666 0.15646 0.0
C283 C 0.37571 0.88842 0.1885 0.0
C284 C 0.24602 0.74695 0.12205 0.0
C285 C 0.18658 0.73073 0.16601 0.0
N286 N 0.32828 0.85474 0.17802 0.0
N287 N 0.23322 0.76961 0.16978 0.0
H288 H 0.51815 0.17965 0.5281 0.0
H289 H 0.54952 0.43125 0.48984 0.0
H290 H 0.55481 0.22725 0.44534 0.0
H291 H 0.56331 0.4023 0.57682 0.0
H292 H 0.52945 0.34767 0.47092 0.0
H293 H 0.51074 0.25142 0.54317 0.0
C294 C 0.5238 0.2047 0.51286 0.0
C295 C 0.53812 0.19794 0.48559 0.0
C296 C 0.53627 0.35957 0.49415 0.0
C297 C 0.52983 0.28024 0.50286 0.0
C298 C 0.54804 0.40733 0.50499 0.0
C299 C 0.55897 0.42428 0.53501 0.0
C300 C 0.53492 0.32834 0.51343 0.0
C301 C 0.55498 0.39104 0.55357 0.0
C302 C 0.51972 0.24576 0.52156 0.0
C303 C 0.54437 0.23137 0.4667 0.0
N304 N 0.54369 0.34484 0.54246 0.0
N305 N 0.5408 0.27151 0.47583 0.0
H306 H 0.33356 0.5966 0.89704 0.0
H307 H 0.08256 0.42733 0.79085 0.0
H308 H 0.32566 0.52658 0.81072 0.0
H309 H 0.09131 0.50232 0.8755 0.0
H310 H 0.17084 0.45697 0.79948 0.0
H311 H 0.24404 0.55647 0.8913 0.0
C312 C 0.31302 0.57265 0.87692 0.0
C313 C 0.33717 0.56524 0.85425 0.0
C314 C 0.15343 0.46658 0.81631 0.0
C315 C 0.23469 0.51918 0.84753 0.0
C316 C 0.10319 0.44953 0.8114 0.0
C317 C 0.08032 0.46247 0.8326 0.0
C318 C 0.18063 0.49696 0.84255 0.0
C319 C 0.10807 0.49153 0.85877 0.0
C320 C 0.26189 0.54971 0.87366 0.0
C321 C 0.30862 0.5336 0.82872 0.0
N322 N 0.15699 0.50809 0.86299 0.0
N323 N 0.25891 0.51192 0.82601 0.0
H324 H 0.8671 0.2919 0.13782 0.0
H325 H 0.66426 0.09246 0.22098 0.0
H326 H 0.83601 0.3268 0.22322 0.0
H327 H 0.69871 0.05758 0.13687 0.0
H328 H 0.73129 0.17774 0.22391 0.0
H329 H 0.8096 0.20507 0.13851 0.0
C330 C 0.84838 0.2813 0.15678 0.0
C331 C 0.85613 0.31672 0.18041 0.0
C332 C 0.72459 0.15138 0.20493 0.0
C333 C 0.79011 0.21734 0.18133 0.0
C334 C 0.68656 0.10288 0.20335 0.0
C335 C 0.67664 0.06864 0.17872 0.0
C336 C 0.75231 0.16538 0.18155 0.0
C337 C 0.70577 0.08335 0.15625 0.0
C338 C 0.81555 0.23168 0.15718 0.0
C339 C 0.83099 0.30079 0.20445 0.0
N340 N 0.74224 0.13082 0.1581 0.0
N341 N 0.7989 0.25231 0.20422 0.0
H342 H 0.96245 0.42308 0.06609 0.0
H343 H 0.99036 0.57004 0.9336 0.0
H344 H 0.01276 0.57811 0.07583 0.0
H345 H 0.95102 0.41785 0.92201 0.0
H346 H 1.00081 0.5736 0.98598 0.0
H347 H 0.95932 0.42001 0.01345 0.0
C348 C 0.97284 0.45644 0.0572 0.0
C349 C 0.98765 0.50087 0.07544 0.0
C350 C 0.99015 0.53943 0.97205 0.0
C351 C 0.98428 0.49761 0.01529 0.0
C352 C 0.98407 0.53738 0.94215 0.0
C353 C 0.96942 0.49348 0.92349 0.0
C354 C 0.98121 0.49716 0.98351 0.0
C355 C 0.96252 0.45246 0.93567 0.0
C356 C 0.97117 0.45468 0.02716 0.0
C357 C 1.0009 0.54297 0.06269 0.0
N358 N 0.96806 0.45516 0.96497 0.0
N359 N 0.99874 0.54024 0.03346 0.0
H360 H 0.65382 0.0448 0.41664 0.0
H361 H 0.47174 0.90015 0.27466 0.0
H362 H 0.49858 0.99006 0.41616 0.0
H363 H 0.60331 0.03821 0.27057 0.0
H364 H 0.48666 0.91886 0.32729 0.0
H365 H 0.64176 0.02887 0.36321 0.0
C366 C 0.61726 0.02919 0.40527 0.0
C367 C 0.57708 0.0187 0.42066 0.0
C368 C 0.51212 0.94491 0.31472 0.0
C369 C 0.56316 0.9997 0.36021 0.0
C370 C 0.5035 0.93466 0.28459 0.0
C371 C 0.53568 0.96809 0.26773 0.0
C372 C 0.55403 0.9881 0.32832 0.0
C373 C 0.57751 0.01103 0.28239 0.0
C374 C 0.61055 0.02047 0.37496 0.0
C375 C 0.53049 0.99884 0.40503 0.0
N376 N 0.58564 0.0197 0.31188 0.0
N377 N 0.52467 0.98939 0.37562 0.0
H378 H 0.62675 0.66055 0.76606 0.0
H379 H 0.49946 0.50038 0.60936 0.0
H380 H 0.47171 0.55438 0.74727 0.0
H381 H 0.65294 0.61133 0.62868 0.0
H382 H 0.48761 0.52063 0.65927 0.0
H383 H 0.63612 0.64406 0.71535 0.0
C384 C 0.59459 0.6338 0.75126 0.0
C385 C 0.54838 0.60864 0.76102 0.0
C386 C 0.5238 0.54073 0.65252 0.0
C387 C 0.55891 0.58956 0.7027 0.0
C388 C 0.53063 0.52906 0.62406 0.0
C389 C 0.57729 0.55415 0.61479 0.0
C390 C 0.56397 0.57759 0.67191 0.0
C391 C 0.6162 0.59142 0.6347 0.0
C392 C 0.59998 0.62443 0.72224 0.0
C393 C 0.50805 0.57455 0.74074 0.0
N394 N 0.60871 0.60179 0.66229 0.0
N395 N 0.51428 0.56586 0.71256 0.0
H396 H 0.581 0.99844 0.59242 0.0
H397 H 0.62859 0.1993 0.72839 0.0
H398 H 0.62809 0.14978 0.58681 0.0
H399 H 0.53127 0.044 0.727 0.0
H400 H 0.64389 0.18184 0.67916 0.0
H401 H 0.57787 0.0152 0.64454 0.0
C402 C 0.59133 0.0353 0.60221 0.0
C403 C 0.60453 0.07274 0.58525 0.0
C404 C 0.61935 0.15157 0.68968 0.0
C405 C 0.6012 0.09202 0.64463 0.0
C406 C 0.61035 0.16147 0.71774 0.0
C407 C 0.57775 0.12313 0.73171 0.0
C408 C 0.59605 0.10291 0.67542 0.0
C409 C 0.5566 0.07473 0.71711 0.0
C410 C 0.58924 0.04471 0.63186 0.0
C411 C 0.61728 0.11974 0.59901 0.0
N412 N 0.56586 0.06599 0.68964 0.0
N413 N 0.61526 0.12802 0.62787 0.0
H414 H 0.60892 0.59793 0.92404 0.0
H415 H 0.50376 0.60105 0.07453 0.0
H416 H 0.48528 0.62013 0.93004 0.0
H417 H 0.57004 0.51469 0.04823 0.0
H418 H 0.50429 0.62054 0.02501 0.0
H419 H 0.60572 0.58272 0.97383 0.0
C420 C 0.5813 0.6001 0.93588 0.0
C421 C 0.54711 0.6101 0.92267 0.0
C422 C 0.51866 0.59737 0.0303 0.0
C423 C 0.54329 0.59245 0.98 0.0
C424 C 0.51823 0.58607 0.05846 0.0
C425 C 0.53784 0.55698 0.06584 0.0
C426 C 0.53934 0.57989 0.00966 0.0
C427 C 0.55609 0.53863 0.04402 0.0
C428 C 0.57934 0.59106 0.96431 0.0
C429 C 0.51218 0.61229 0.9393 0.0
N430 N 0.55682 0.55077 0.01715 0.0
N431 N 0.51114 0.60353 0.9672 0.0
H432 H 0.98739 0.45104 0.24301 0.0
H433 H 0.08035 0.63546 0.39335 0.0
H434 H 0.04277 0.60679 0.24972 0.0
H435 H 0.03873 0.48288 0.38629 0.0
H436 H 0.05644 0.62316 0.34128 0.0
H437 H 0.99675 0.45992 0.2958 0.0
C438 C 1.00141 0.48712 0.25555 0.0
C439 C 0.01469 0.52833 0.24185 0.0
C440 C 0.05207 0.59223 0.35114 0.0
C441 C 0.02531 0.53864 0.30241 0.0
C442 C 0.0657 0.59922 0.38086 0.0
C443 C 0.06204 0.56026 0.39413 0.0
C444 C 0.03473 0.54592 0.33447 0.0
C445 C 0.04202 0.5139 0.377 0.0
C446 C 0.00666 0.49212 0.28573 0.0
C447 C 0.03237 0.57405 0.2593 0.0
N448 N 0.0296 0.50814 0.348 0.0
N449 N 0.03734 0.57799 0.28866 0.0
loop_
_geom_bond_atom_site_label_1
_geom_bond_atom_site_label_2
_geom_bond_distance
_geom_bond_site_symmetry_2
_ccdc_geom_bond_type
Zn0 O6 1.969 . S
Zn0 O7 1.965 . S
Zn0 O11 2.024 . S
Zn0 O16 1.969 . S
Zn1 O8 1.969 . S
Zn1 O14 1.969 . S
Zn1 O15 1.965 . S
Zn1 O17 2.024 . S
C2 O3 1.229 . S
C2 O11 1.058 . S
O3 C2 1.229 . S
C4 O5 1.229 . S
C4 O17 1.058 . S
O5 C4 1.229 . S
O6 Zn0 1.969 . S
O6 C9 1.267 . S
O7 Zn0 1.965 . S
O7 C18 1.260 . S
O8 Zn1 1.969 . S
O8 C18 1.258 1_655 S
C9 O6 1.267 . S
C9 O10 1.228 . S
O10 C9 1.228 . S
O11 Zn0 2.024 . S
O11 C2 1.058 . S
C12 O13 1.228 . S
C12 O14 1.267 . S
O13 C12 1.228 . S
O14 Zn1 1.969 . S
O14 C12 1.267 . S
O15 Zn1 1.965 . S
O15 C19 1.260 1_655 S
O16 Zn0 1.969 . S
O16 C19 1.258 . S
O17 Zn1 2.024 . S
O17 C4 1.058 . S
C18 O7 1.260 . S
C18 O8 1.258 1_455 S
C19 O15 1.260 1_455 S
C19 O16 1.258 . S
Zn20 O26 1.969 . S
Zn20 O27 1.965 . S
Zn20 O31 2.024 . S
Zn20 O36 1.969 . S
Zn21 O28 1.969 . S
Zn21 O34 1.969 . S
Zn21 O35 1.965 1_565 S
Zn21 O37 2.024 . S
C22 O23 1.229 . S
C22 O31 1.058 . S
O23 C22 1.229 . S
C24 O25 1.229 . S
C24 O37 1.058 . S
O25 C24 1.229 . S
O26 Zn20 1.969 . S
O26 C29 1.267 . S
O27 Zn20 1.965 . S
O27 C38 1.260 . S
O28 Zn21 1.969 . S
O28 C38 1.258 1_565 S
C29 O26 1.267 . S
C29 O30 1.228 . S
O30 C29 1.228 . S
O31 Zn20 2.024 . S
O31 C22 1.058 . S
C32 O33 1.228 . S
C32 O34 1.267 . S
O33 C32 1.228 . S
O34 Zn21 1.969 . S
O34 C32 1.267 . S
O35 Zn21 1.965 1_545 S
O35 C39 1.260 . S
O36 Zn20 1.969 . S
O36 C39 1.258 . S
O37 Zn21 2.024 . S
O37 C24 1.058 . S
C38 O27 1.260 . S
C38 O28 1.258 1_545 S
C39 O35 1.260 . S
C39 O36 1.258 . S
Zn40 O46 1.969 . S
Zn40 O47 1.965 . S
Zn40 O51 2.024 . S
Zn40 O56 1.969 . S
Zn41 O48 1.969 . S
Zn41 O54 1.969 . S
Zn41 O55 1.965 . S
Zn41 O57 2.024 . S
C42 O43 1.229 . S
C42 O51 1.058 . S
O43 C42 1.229 . S
C44 O45 1.229 . S
C44 O57 1.058 . S
O45 C44 1.229 . S
O46 Zn40 1.969 . S
O46 C49 1.267 . S
O47 Zn40 1.965 . S
O47 C58 1.260 . S
O48 Zn41 1.969 . S
O48 C58 1.258 . S
C49 O46 1.267 . S
C49 O50 1.228 . S
O50 C49 1.228 . S
O51 Zn40 2.024 . S
O51 C42 1.058 . S
C52 O53 1.228 . S
C52 O54 1.267 . S
O53 C52 1.228 . S
O54 Zn41 1.969 . S
O54 C52 1.267 . S
O55 Zn41 1.965 . S
O55 C59 1.260 . S
O56 Zn40 1.969 . S
O56 C59 1.258 . S
O57 Zn41 2.024 . S
O57 C44 1.058 . S
C58 O47 1.260 . S
C58 O48 1.258 . S
C59 O55 1.260 . S
C59 O56 1.258 . S
H60 C63 0.929 1_565 S
H61 C66 0.929 . S
H62 C68 0.930 . S
C63 H60 0.929 1_545 S
C63 C64 1.398 1_545 S
C63 C65 1.396 . S
C64 C63 1.398 1_565 S
C64 C68 1.407 1_565 S
C65 C63 1.396 . S
C65 C66 1.394 . S
C66 H61 0.929 . S
C66 C65 1.394 . S
C66 C67 1.382 . S
C67 C66 1.382 . S
C67 C68 1.392 . S
C67 N69 1.420 . S
C68 H62 0.930 . S
C68 C64 1.407 1_545 S
C68 C67 1.392 . S
N69 C67 1.420 . S
N69 C70 1.244 . S
C70 N69 1.244 . S
H71 C74 0.929 . S
H72 C77 0.929 . S
H73 C79 0.930 . S
C74 H71 0.929 . S
C74 C75 1.398 . S
C74 C76 1.396 . S
C75 C74 1.398 . S
C75 C79 1.407 . S
C76 C74 1.396 . S
C76 C77 1.394 . S
C77 H72 0.929 . S
C77 C76 1.394 . S
C77 C78 1.382 . S
C78 C77 1.382 . S
C78 C79 1.392 . S
C78 N80 1.420 . S
C79 H73 0.930 . S
C79 C75 1.407 . S
C79 C78 1.392 . S
N80 C78 1.420 . S
N80 C81 1.244 . S
C81 N80 1.244 . S
H82 C85 0.929 1_655 S
H83 C88 0.929 . S
H84 C90 0.930 . S
C85 H82 0.929 1_455 S
C85 C86 1.398 1_455 S
C85 C87 1.396 . S
C86 C85 1.398 1_655 S
C86 C90 1.407 1_655 S
C87 C85 1.396 . S
C87 C88 1.394 . S
C88 H83 0.929 . S
C88 C87 1.394 . S
C88 C89 1.382 . S
C89 C88 1.382 . S
C89 C90 1.392 . S
C89 N91 1.420 . S
C90 H84 0.930 . S
C90 C86 1.407 1_455 S
C90 C89 1.392 . S
N91 C89 1.420 . S
N91 C92 1.244 . S
C92 N91 1.244 . S
H93 C96 0.929 . S
H94 C99 0.929 1_655 S
H95 C101 0.930 . S
C96 H93 0.929 . S
C96 C97 1.398 . S
C96 C98 1.396 . S
C97 C96 1.398 . S
C97 C101 1.407 . S
C98 C96 1.396 . S
C98 C99 1.394 . S
C99 H94 0.929 1_455 S
C99 C98 1.394 . S
C99 C100 1.382 . S
C100 C99 1.382 . S
C100 C101 1.392 . S
C100 N102 1.420 1_455 S
C101 H95 0.930 . S
C101 C97 1.407 . S
C101 C100 1.392 . S
N102 C100 1.420 1_655 S
N102 C103 1.244 . S
C103 N102 1.244 . S
H104 C107 0.929 . S
H105 C110 0.929 1_565 S
H106 C112 0.930 . S
C107 H104 0.929 . S
C107 C108 1.398 . S
C107 C109 1.396 . S
C108 C107 1.398 . S
C108 C112 1.407 . S
C109 C107 1.396 . S
C109 C110 1.394 . S
C110 H105 0.929 1_545 S
C110 C109 1.394 . S
C110 C111 1.382 . S
C111 C110 1.382 . S
C111 C112 1.392 . S
C111 N113 1.417 1_545 S
C112 H106 0.930 . S
C112 C108 1.407 . S
C112 C111 1.392 . S
N113 C111 1.417 1_565 S
N113 C114 1.247 . S
C114 N113 1.247 . S
H115 C118 0.929 . S
H116 C121 0.929 . S
H117 C123 0.930 . S
C118 H115 0.929 . S
C118 C119 1.398 . S
C118 C120 1.396 . S
C119 C118 1.398 . S
C119 C123 1.407 . S
C120 C118 1.396 . S
C120 C121 1.394 . S
C121 H116 0.929 . S
C121 C120 1.394 . S
C121 C122 1.382 . S
C122 C121 1.382 . S
C122 C123 1.392 . S
C122 N124 1.420 . S
C123 H117 0.930 . S
C123 C119 1.407 . S
C123 C122 1.392 . S
N124 C122 1.420 . S
N124 C125 1.244 . S
C125 N124 1.244 . S
H126 C132 0.930 . S
H127 C136 0.930 . S
H128 C141 0.929 . S
H129 C139 0.929 . S
H130 C134 0.929 . S
H131 C140 0.929 . S
C132 H126 0.930 . S
C132 C133 1.367 . S
C132 C140 1.378 . S
C133 C132 1.367 . S
C133 C141 1.433 . S
C134 H130 0.929 . S
C134 C136 1.378 . S
C134 C138 1.350 . S
C135 C138 1.463 . S
C135 C140 1.350 . S
C135 N143 1.427 . S
C136 H127 0.930 . S
C136 C134 1.378 . S
C136 C137 1.367 . S
C137 C136 1.367 . S
C137 C139 1.433 . S
C138 C134 1.350 . S
C138 C135 1.463 . S
C138 N142 1.427 . S
C139 H129 0.929 . S
C139 C137 1.433 . S
C139 N142 1.384 . S
C140 H131 0.929 . S
C140 C132 1.378 . S
C140 C135 1.350 . S
C141 H128 0.929 . S
C141 C133 1.433 . S
C141 N143 1.384 . S
N142 C138 1.427 . S
N142 C139 1.384 . S
N143 C135 1.427 . S
N143 C141 1.384 . S
H144 C150 0.930 . S
H145 C154 0.930 . S
H146 C159 0.929 . S
H147 C157 0.929 . S
H148 C152 0.929 . S
H149 C158 0.929 . S
C150 H144 0.930 . S
C150 C151 1.367 . S
C150 C158 1.378 . S
C151 C150 1.367 . S
C151 C159 1.433 . S
C152 H148 0.929 . S
C152 C154 1.378 . S
C152 C156 1.350 . S
C153 C156 1.463 . S
C153 C158 1.350 . S
C153 N161 1.427 . S
C154 H145 0.930 . S
C154 C152 1.378 . S
C154 C155 1.367 . S
C155 C154 1.367 . S
C155 C157 1.433 . S
C156 C152 1.350 . S
C156 C153 1.463 . S
C156 N160 1.427 . S
C157 H147 0.929 . S
C157 C155 1.433 . S
C157 N160 1.384 . S
C158 H149 0.929 . S
C158 C150 1.378 . S
C158 C153 1.350 . S
C159 H146 0.929 . S
C159 C151 1.433 . S
C159 N161 1.384 . S
N160 C156 1.427 . S
N160 C157 1.384 . S
N161 C153 1.427 . S
N161 C159 1.384 . S
H162 C168 0.930 . S
H163 C172 0.930 . S
H164 C177 0.929 . S
H165 C175 0.929 . S
H166 C170 0.929 . S
H167 C176 0.929 . S
C168 H162 0.930 . S
C168 C169 1.367 . S
C168 C176 1.378 . S
C169 C168 1.367 . S
C169 C177 1.433 . S
C170 H166 0.929 . S
C170 C172 1.378 . S
C170 C174 1.350 . S
C171 C174 1.463 . S
C171 C176 1.350 . S
C171 N179 1.427 . S
C172 H163 0.930 . S
C172 C170 1.378 . S
C172 C173 1.367 . S
C173 C172 1.367 . S
C173 C175 1.433 . S
C174 C170 1.350 . S
C174 C171 1.463 . S
C174 N178 1.427 . S
C175 H165 0.929 . S
C175 C173 1.433 . S
C175 N178 1.384 . S
C176 H167 0.929 . S
C176 C168 1.378 . S
C176 C171 1.350 . S
C177 H164 0.929 . S
C177 C169 1.433 . S
C177 N179 1.384 . S
N178 C174 1.427 . S
N178 C175 1.384 . S
N179 C171 1.427 . S
N179 C177 1.384 . S
H180 C186 0.930 . S
H181 C190 0.930 . S
H182 C195 0.929 . S
H183 C193 0.929 . S
H184 C188 0.929 . S
H185 C194 0.929 . S
C186 H180 0.930 . S
C186 C187 1.367 . S
C186 C194 1.378 . S
C187 C186 1.367 . S
C187 C195 1.433 . S
C188 H184 0.929 . S
C188 C190 1.378 . S
C188 C192 1.350 . S
C189 C192 1.463 . S
C189 C194 1.350 . S
C189 N197 1.427 . S
C190 H181 0.930 . S
C190 C188 1.378 . S
C190 C191 1.367 . S
C191 C190 1.367 . S
C191 C193 1.433 . S
C192 C188 1.350 . S
C192 C189 1.463 . S
C192 N196 1.427 . S
C193 H183 0.929 . S
C193 C191 1.433 . S
C193 N196 1.384 . S
C194 H185 0.929 . S
C194 C186 1.378 . S
C194 C189 1.350 . S
C195 H182 0.929 . S
C195 C187 1.433 . S
C195 N197 1.384 . S
N196 C192 1.427 . S
N196 C193 1.384 . S
N197 C189 1.427 . S
N197 C195 1.384 . S
H198 C204 0.930 . S
H199 C208 0.930 . S
H200 C213 0.929 . S
H201 C211 0.929 . S
H202 C206 0.929 . S
H203 C212 0.929 . S
C204 H198 0.930 . S
C204 C205 1.367 . S
C204 C212 1.378 . S
C205 C204 1.367 . S
C205 C213 1.433 . S
C206 H202 0.929 . S
C206 C208 1.378 . S
C206 C210 1.350 . S
C207 C210 1.463 . S
C207 C212 1.350 . S
C207 N215 1.427 . S
C208 H199 0.930 . S
C208 C206 1.378 . S
C208 C209 1.367 . S
C209 C208 1.367 . S
C209 C211 1.433 . S
C210 C206 1.350 . S
C210 C207 1.463 . S
C210 N214 1.427 . S
C211 H201 0.929 . S
C211 C209 1.433 . S
C211 N214 1.384 . S
C212 H203 0.929 . S
C212 C204 1.378 . S
C212 C207 1.350 . S
C213 H200 0.929 . S
C213 C205 1.433 . S
C213 N215 1.384 . S
N214 C210 1.427 . S
N214 C211 1.384 . S
N215 C207 1.427 . S
N215 C213 1.384 . S
H216 C222 0.930 . S
H217 C226 0.930 . S
H218 C231 0.929 . S
H219 C229 0.929 . S
H220 C224 0.929 . S
H221 C230 0.929 . S
C222 H216 0.930 . S
C222 C223 1.367 . S
C222 C230 1.378 . S
C223 C222 1.367 . S
C223 C231 1.433 . S
C224 H220 0.929 . S
C224 C226 1.378 . S
C224 C228 1.350 . S
C225 C228 1.463 . S
C225 C230 1.350 . S
C225 N233 1.427 . S
C226 H217 0.930 . S
C226 C224 1.378 . S
C226 C227 1.367 . S
C227 C226 1.367 . S
C227 C229 1.433 . S
C228 C224 1.350 . S
C228 C225 1.463 . S
C228 N232 1.427 . S
C229 H219 0.929 . S
C229 C227 1.433 . S
C229 N232 1.384 . S
C230 H221 0.929 . S
C230 C222 1.378 . S
C230 C225 1.350 . S
C231 H218 0.929 . S
C231 C223 1.433 . S
C231 N233 1.384 . S
N232 C228 1.427 . S
N232 C229 1.384 . S
N233 C225 1.427 . S
N233 C231 1.384 . S
H234 C240 0.930 . S
H235 C244 0.930 . S
H236 C249 0.929 . S
H237 C247 0.929 . S
H238 C242 0.929 . S
H239 C248 0.929 . S
C240 H234 0.930 . S
C240 C241 1.367 . S
C240 C248 1.378 . S
C241 C240 1.367 . S
C241 C249 1.433 . S
C242 H238 0.929 . S
C242 C244 1.378 . S
C242 C246 1.350 . S
C243 C246 1.463 . S
C243 C248 1.350 . S
C243 N251 1.427 . S
C244 H235 0.930 . S
C244 C242 1.378 . S
C244 C245 1.367 . S
C245 C244 1.367 . S
C245 C247 1.433 . S
C246 C242 1.350 . S
C246 C243 1.463 . S
C246 N250 1.427 . S
C247 H237 0.929 . S
C247 C245 1.433 . S
C247 N250 1.384 . S
C248 H239 0.929 . S
C248 C240 1.378 . S
C248 C243 1.350 . S
C249 H236 0.929 . S
C249 C241 1.433 . S
C249 N251 1.384 . S
N250 C246 1.427 . S
N250 C247 1.384 . S
N251 C243 1.427 . S
N251 C249 1.384 . S
H252 C258 0.930 . S
H253 C262 0.930 . S
H254 C267 0.929 . S
H255 C265 0.929 . S
H256 C260 0.929 . S
H257 C266 0.929 . S
C258 H252 0.930 . S
C258 C259 1.367 . S
C258 C266 1.378 . S
C259 C258 1.367 . S
C259 C267 1.433 . S
C260 H256 0.929 . S
C260 C262 1.378 . S
C260 C264 1.350 . S
C261 C264 1.463 . S
C261 C266 1.350 . S
C261 N269 1.427 . S
C262 H253 0.930 . S
C262 C260 1.378 . S
C262 C263 1.367 . S
C263 C262 1.367 . S
C263 C265 1.433 . S
C264 C260 1.350 . S
C264 C261 1.463 . S
C264 N268 1.427 . S
C265 H255 0.929 . S
C265 C263 1.433 . S
C265 N268 1.384 . S
C266 H257 0.929 . S
C266 C258 1.378 . S
C266 C261 1.350 . S
C267 H254 0.929 . S
C267 C259 1.433 . S
C267 N269 1.384 . S
N268 C264 1.427 . S
N268 C265 1.384 . S
N269 C261 1.427 . S
N269 C267 1.384 . S
H270 C276 0.930 . S
H271 C280 0.930 . S
H272 C285 0.929 . S
H273 C283 0.929 . S
H274 C278 0.929 . S
H275 C284 0.929 . S
C276 H270 0.930 . S
C276 C277 1.367 . S
C276 C284 1.378 . S
C277 C276 1.367 . S
C277 C285 1.433 . S
C278 H274 0.929 . S
C278 C280 1.378 . S
C278 C282 1.350 . S
C279 C282 1.463 . S
C279 C284 1.350 . S
C279 N287 1.427 . S
C280 H271 0.930 . S
C280 C278 1.378 . S
C280 C281 1.367 . S
C281 C280 1.367 . S
C281 C283 1.433 . S
C282 C278 1.350 . S
C282 C279 1.463 . S
C282 N286 1.427 . S
C283 H273 0.929 . S
C283 C281 1.433 . S
C283 N286 1.384 . S
C284 H275 0.929 . S
C284 C276 1.378 . S
C284 C279 1.350 . S
C285 H272 0.929 . S
C285 C277 1.433 . S
C285 N287 1.384 . S
N286 C282 1.427 . S
N286 C283 1.384 . S
N287 C279 1.427 . S
N287 C285 1.384 . S
H288 C294 0.930 . S
H289 C298 0.930 . S
H290 C303 0.929 . S
H291 C301 0.929 . S
H292 C296 0.929 . S
H293 C302 0.929 . S
C294 H288 0.930 . S
C294 C295 1.367 . S
C294 C302 1.378 . S
C295 C294 1.367 . S
C295 C303 1.433 . S
C296 H292 0.929 . S
C296 C298 1.378 . S
C296 C300 1.350 . S
C297 C300 1.463 . S
C297 C302 1.350 . S
C297 N305 1.427 . S
C298 H289 0.930 . S
C298 C296 1.378 . S
C298 C299 1.367 . S
C299 C298 1.367 . S
C299 C301 1.433 . S
C300 C296 1.350 . S
C300 C297 1.463 . S
C300 N304 1.427 . S
C301 H291 0.929 . S
C301 C299 1.433 . S
C301 N304 1.384 . S
C302 H293 0.929 . S
C302 C294 1.378 . S
C302 C297 1.350 . S
C303 H290 0.929 . S
C303 C295 1.433 . S
C303 N305 1.384 . S
N304 C300 1.427 . S
N304 C301 1.384 . S
N305 C297 1.427 . S
N305 C303 1.384 . S
H306 C312 0.930 . S
H307 C316 0.930 . S
H308 C321 0.929 . S
H309 C319 0.929 . S
H310 C314 0.929 . S
H311 C320 0.929 . S
C312 H306 0.930 . S
C312 C313 1.367 . S
C312 C320 1.378 . S
C313 C312 1.367 . S
C313 C321 1.433 . S
C314 H310 0.929 . S
C314 C316 1.378 . S
C314 C318 1.350 . S
C315 C318 1.463 . S
C315 C320 1.350 . S
C315 N323 1.427 . S
C316 H307 0.930 . S
C316 C314 1.378 . S
C316 C317 1.367 . S
C317 C316 1.367 . S
C317 C319 1.433 . S
C318 C314 1.350 . S
C318 C315 1.463 . S
C318 N322 1.427 . S
C319 H309 0.929 . S
C319 C317 1.433 . S
C319 N322 1.384 . S
C320 H311 0.929 . S
C320 C312 1.378 . S
C320 C315 1.350 . S
C321 H308 0.929 . S
C321 C313 1.433 . S
C321 N323 1.384 . S
N322 C318 1.427 . S
N322 C319 1.384 . S
N323 C315 1.427 . S
N323 C321 1.384 . S
H324 C330 0.930 . S
H325 C334 0.930 . S
H326 C339 0.929 . S
H327 C337 0.929 . S
H328 C332 0.929 . S
H329 C338 0.929 . S
C330 H324 0.930 . S
C330 C331 1.367 . S
C330 C338 1.378 . S
C331 C330 1.367 . S
C331 C339 1.433 . S
C332 H328 0.929 . S
C332 C334 1.378 . S
C332 C336 1.350 . S
C333 C336 1.463 . S
C333 C338 1.350 . S
C333 N341 1.427 . S
C334 H325 0.930 . S
C334 C332 1.378 . S
C334 C335 1.367 . S
C335 C334 1.367 . S
C335 C337 1.433 . S
C336 C332 1.350 . S
C336 C333 1.463 . S
C336 N340 1.427 . S
C337 H327 0.929 . S
C337 C335 1.433 . S
C337 N340 1.384 . S
C338 H329 0.929 . S
C338 C330 1.378 . S
C338 C333 1.350 . S
C339 H326 0.929 . S
C339 C331 1.433 . S
C339 N341 1.384 . S
N340 C336 1.427 . S
N340 C337 1.384 . S
N341 C333 1.427 . S
N341 C339 1.384 . S
H342 C348 0.930 . S
H343 C352 0.930 . S
H344 C357 0.929 . S
H345 C355 0.929 . S
H346 C350 0.929 1_554 S
H347 C356 0.929 . S
C348 H342 0.930 . S
C348 C349 1.367 1_655 S
C348 C356 1.378 . S
C349 C348 1.367 1_455 S
C349 C357 1.433 . S
C350 H346 0.929 1_556 S
C350 C352 1.378 . S
C350 C354 1.350 1_556 S
C351 C354 1.463 . S
C351 C356 1.350 1_455 S
C351 N359 1.427 . S
C352 H343 0.930 . S
C352 C350 1.378 . S
C352 C353 1.367 . S
C353 C352 1.367 . S
C353 C355 1.433 1_455 S
C354 C350 1.350 1_554 S
C354 C351 1.463 . S
C354 N358 1.427 1_454 S
C355 H345 0.929 . S
C355 C353 1.433 1_655 S
C355 N358 1.384 . S
C356 H347 0.929 . S
C356 C348 1.378 . S
C356 C351 1.350 1_655 S
C357 H344 0.929 . S
C357 C349 1.433 . S
C357 N359 1.384 . S
N358 C354 1.427 1_656 S
N358 C355 1.384 . S
N359 C351 1.427 . S
N359 C357 1.384 . S
H360 C366 0.930 . S
H361 C370 0.930 1_565 S
H362 C375 0.929 1_565 S
H363 C373 0.929 . S
H364 C368 0.929 1_565 S
H365 C374 0.929 . S
C366 H360 0.930 . S
C366 C367 1.367 . S
C366 C374 1.378 . S
C367 C366 1.367 . S
C367 C375 1.433 . S
C368 H364 0.929 1_545 S
C368 C370 1.378 . S
C368 C372 1.350 . S
C369 C372 1.463 . S
C369 C374 1.350 . S
C369 N377 1.427 . S
C370 H361 0.930 1_545 S
C370 C368 1.378 . S
C370 C371 1.367 . S
C371 C370 1.367 . S
C371 C373 1.433 . S
C372 C368 1.350 . S
C372 C369 1.463 . S
C372 N376 1.427 . S
C373 H363 0.929 . S
C373 C371 1.433 . S
C373 N376 1.384 . S
C374 H365 0.929 . S
C374 C366 1.378 . S
C374 C369 1.350 . S
C375 H362 0.929 1_545 S
C375 C367 1.433 . S
C375 N377 1.384 . S
N376 C372 1.427 . S
N376 C373 1.384 . S
N377 C369 1.427 . S
N377 C375 1.384 . S
H378 C384 0.930 . S
H379 C388 0.930 . S
H380 C393 0.929 . S
H381 C391 0.929 . S
H382 C386 0.929 . S
H383 C392 0.929 . S
C384 H378 0.930 . S
C384 C385 1.367 . S
C384 C392 1.378 . S
C385 C384 1.367 . S
C385 C393 1.433 . S
C386 H382 0.929 . S
C386 C388 1.378 . S
C386 C390 1.350 . S
C387 C390 1.463 . S
C387 C392 1.350 . S
C387 N395 1.427 . S
C388 H379 0.930 . S
C388 C386 1.378 . S
C388 C389 1.367 . S
C389 C388 1.367 . S
C389 C391 1.433 . S
C390 C386 1.350 . S
C390 C387 1.463 . S
C390 N394 1.427 . S
C391 H381 0.929 . S
C391 C389 1.433 . S
C391 N394 1.384 . S
C392 H383 0.929 . S
C392 C384 1.378 . S
C392 C387 1.350 . S
C393 H380 0.929 . S
C393 C385 1.433 . S
C393 N395 1.384 . S
N394 C390 1.427 . S
N394 C391 1.384 . S
N395 C387 1.427 . S
N395 C393 1.384 . S
H396 C402 0.942 . S
H397 C406 0.930 . S
H398 C411 0.929 . S
H399 C409 0.929 1_565 S
H400 C404 0.929 . S
H401 C410 0.930 1_565 S
C402 H396 0.942 . S
C402 C403 1.353 1_565 S
C402 C410 1.380 1_565 S
C403 C402 1.353 1_545 S
C403 C411 1.433 . S
C404 H400 0.929 . S
C404 C406 1.378 . S
C404 C408 1.350 . S
C405 C408 1.463 . S
C405 C410 1.349 . S
C405 N413 1.427 . S
C406 H397 0.930 . S
C406 C404 1.378 . S
C406 C407 1.367 . S
C407 C406 1.367 . S
C407 C409 1.433 . S
C408 C404 1.350 . S
C408 C405 1.463 . S
C408 N412 1.427 . S
C409 H399 0.929 1_545 S
C409 C407 1.433 . S
C409 N412 1.384 . S
C410 H401 0.930 1_545 S
C410 C402 1.380 1_545 S
C410 C405 1.349 . S
C411 H398 0.929 . S
C411 C403 1.433 . S
C411 N413 1.384 . S
N412 C408 1.427 . S
N412 C409 1.384 . S
N413 C405 1.427 . S
N413 C411 1.384 . S
H414 C420 0.930 . S
H415 C424 0.930 . S
H416 C429 0.929 . S
H417 C427 0.929 . S
H418 C422 0.929 1_556 S
H419 C428 0.929 . S
C420 H414 0.930 . S
C420 C421 1.367 . S
C420 C428 1.378 . S
C421 C420 1.367 . S
C421 C429 1.433 . S
C422 H418 0.929 1_554 S
C422 C424 1.378 . S
C422 C426 1.350 1_554 S
C423 C426 1.463 . S
C423 C428 1.350 . S
C423 N431 1.427 . S
C424 H415 0.930 . S
C424 C422 1.378 . S
C424 C425 1.367 . S
C425 C424 1.367 . S
C425 C427 1.433 . S
C426 C422 1.350 1_556 S
C426 C423 1.463 . S
C426 N430 1.427 1_556 S
C427 H417 0.929 . S
C427 C425 1.433 . S
C427 N430 1.384 . S
C428 H419 0.929 . S
C428 C420 1.378 . S
C428 C423 1.350 . S
C429 H416 0.929 . S
C429 C421 1.433 . S
C429 N431 1.384 . S
N430 C426 1.427 1_554 S
N430 C427 1.384 . S
N431 C423 1.427 . S
N431 C429 1.384 . S
H432 C438 0.930 . S
H433 C442 0.930 1_655 S
H434 C447 0.927 1_655 S
H435 C445 0.929 . S
H436 C440 0.929 1_655 S
H437 C446 0.929 . S
C438 H432 0.930 . S
C438 C439 1.367 . S
C438 C446 1.378 . S
C439 C438 1.367 . S
C439 C447 1.435 . S
C440 H436 0.929 1_455 S
C440 C442 1.378 . S
C440 C444 1.350 . S
C441 C444 1.463 . S
C441 C446 1.350 . S
C441 N449 1.427 . S
C442 H433 0.930 1_455 S
C442 C440 1.378 . S
C442 C443 1.367 . S
C443 C442 1.367 . S
C443 C445 1.433 . S
C444 C440 1.350 . S
C444 C441 1.463 . S
C444 N448 1.427 . S
C445 H435 0.929 . S
C445 C443 1.433 . S
C445 N448 1.384 . S
C446 H437 0.929 . S
C446 C438 1.378 . S
C446 C441 1.350 . S
C447 H434 0.927 1_455 S
C447 C439 1.435 . S
C447 N449 1.384 . S
N448 C444 1.427 . S
N448 C445 1.384 . S
N449 C441 1.427 . S
N449 C447 1.384 . S
C133 C2 1.446 . S
C137 C125 1.508 . S
C151 C22 1.453 . S
C155 C103 1.512 . S
C169 C44 1.455 . S
C173 C114 1.511 . S
C187 C4 1.431 . S
C191 C119 1.514 . S
C209 C97 1.511 . S
C205 C24 1.447 . S
C227 C108 1.482 . S
C223 C42 1.407 . S
C241 C32 1.413 . S
C245 C81 1.388 . S
C259 C49 1.175 . S
C263 C86 1.184 . S
C277 C9 1.158 . S
C281 C64 1.167 . S
C299 C75 1.197 . S
C295 C29 1.145 . S
C317 C92 1.329 . S
C313 C52 1.298 . S
C331 C12 1.325 . S
C335 C70 1.331 . S
C353 C87 1.496 . S
C349 C18 1.497 . S
C367 C38 1.474 . S
C371 C65 1.466 . S
C385 C58 1.459 . S
C389 C76 1.492 . S
C407 C109 1.513 . S
C403 C39 1.507 . S
C425 C120 1.527 . S
C421 C59 1.513 . S
C439 C19 1.505 . S
C443 C98 1.535 . S
