# Generated by pormake.
# Topology pth, (4,4)-cn, num edge types: 1
# Building blocks:
#     Node 0, Type 0, BuildingBlock: NAHDIM_clean_sbu_0, # of connection points: 4
#     Node 1, Type 0, BuildingBlock: NAHDIM_clean_sbu_0, # of connection points: 4
#     Node 2, Type 0, BuildingBlock: NAHDIM_clean_sbu_0, # of connection points: 4
#     Node 3, Type 1, BuildingBlock: AZAVOO_clean_linker_0, # of connection points: 4
#     Node 4, Type 1, BuildingBlock: AZAVOO_clean_linker_0, # of connection points: 4
#     Node 5, Type 1, BuildingBlock: AZAVOO_clean_linker_0, # of connection points: 4
#     Edge 6, Type (0, 1), BuildingBlock: CIFDUS_clean_linker_0, # of connection points: 2
#     Edge 7, Type (0, 1), BuildingBlock: CIFDUS_clean_linker_0, # of connection points: 2
#     Edge 8, Type (0, 1), BuildingBlock: CIFDUS_clean_linker_0, # of connection points: 2
#     Edge 9, Type (0, 1), BuildingBlock: CIFDUS_clean_linker_0, # of connection points: 2
#     Edge 10, Type (0, 1), BuildingBlock: CIFDUS_clean_linker_0, # of connection points: 2
#     Edge 11, Type (0, 1), BuildingBlock: CIFDUS_clean_linker_0, # of connection points: 2
#     Edge 12, Type (0, 1), BuildingBlock: CIFDUS_clean_linker_0, # of connection points: 2
#     Edge 13, Type (0, 1), BuildingBlock: CIFDUS_clean_linker_0, # of connection points: 2
#     Edge 14, Type (0, 1), BuildingBlock: CIFDUS_clean_linker_0, # of connection points: 2
#     Edge 15, Type (0, 1), BuildingBlock: CIFDUS_clean_linker_0, # of connection points: 2
#     Edge 16, Type (0, 1), BuildingBlock: CIFDUS_clean_linker_0, # of connection points: 2
#     Edge 17, Type (0, 1), BuildingBlock: CIFDUS_clean_linker_0, # of connection points: 2
# Relax obj value: 0.162
# Max RMSD: 0.229
# Mean RMSD: 0.208
data_MOF--net-pth--node1-NAHDIM_clean_sbu_0--node2-AZAVOO_clean_linker_0--edge1-CIFDUS_clean_linker_0
_symmetry_space_group_name_H-M    P1
_symmetry_Int_Tables_number       1
_symmetry_cell_setting            triclinic
loop_
_symmetry_equiv_pos_as_xyz
'x, y, z'
_cell_length_a     23.595619
_cell_length_b     23.850312
_cell_length_c     62.773801
_cell_angle_alpha  94.234144
_cell_angle_beta   88.510399
_cell_angle_gamma 120.70919
loop_
_atom_site_label
_atom_site_type_symbol
_atom_site_fract_x
_atom_site_fract_y
_atom_site_fract_z
_atom_type_partial_charge
C0 C 0.15074 0.01177 0.09599 0.0
O1 O 0.20083 0.07208 0.0979 0.0
O2 O 0.10257 0.1347 0.093 0.0
Zn3 Zn 0.09931 0.06986 0.07019 0.0
O4 O 0.01574 0.03155 0.05283 0.0
C5 C 0.22718 0.16822 0.05503 0.0
O6 O 0.2362 0.19458 0.07469 0.0
O7 O 0.10194 -0.00146 0.08421 0.0
C8 C 0.01532 0.05823 0.03608 0.0
O9 O 0.06854 0.11235 0.03108 0.0
C10 C 0.06707 0.11505 0.10945 0.0
O11 O 0.02704 0.05202 0.11095 0.0
O12 O 0.17481 0.11426 0.05023 0.0
C13 C 0.10236 0.15471 0.36162 0.0
O14 O 0.08622 0.09506 0.35464 0.0
O15 O 0.10644 0.029 0.38761 0.0
Zn16 Zn 0.13039 0.11746 0.40133 0.0
O17 O 0.07081 0.10599 0.42594 0.0
C18 C 0.26036 0.13936 0.40776 0.0
O19 O 0.24366 0.09686 0.39116 0.0
O20 O 0.12367 0.17485 0.38069 0.0
C21 C 0.06105 0.06516 0.43956 0.0
O22 O 0.08816 0.02887 0.43675 0.0
C23 C 0.04812 0.98237 0.3834 0.0
O24 O -0.00184 0.99106 0.38756 0.0
O25 O 0.22133 0.15897 0.41395 0.0
C26 C 0.19448 0.09812 0.70343 0.0
O27 O 0.18417 0.14706 0.70258 0.0
O28 O 0.04343 0.08663 0.71573 0.0
Zn29 Zn 0.10431 0.0778 0.73534 0.0
O30 O 0.16423 0.1627 0.75197 0.0
C31 C 0.99222 7e-05 0.76027 0.0
O32 O 0.97251 0.03545 0.75136 0.0
O33 O 0.16347 0.05635 0.71713 0.0
C34 C 0.14568 0.19135 0.76581 0.0
O35 O 0.08259 0.16542 0.76983 0.0
C36 C 0.04921 0.14006 0.71085 0.0
O37 O 0.09896 0.19585 0.71863 0.0
O38 O 0.04891 0.00862 0.75577 0.0
H39 H 0.95767 0.37997 0.10387 0.0
H40 H 0.14629 0.97928 0.26002 0.0
H41 H 0.93531 0.38981 0.22007 0.0
H42 H 0.93216 0.29316 0.20244 0.0
H43 H 0.14084 0.38111 0.21476 0.0
H44 H 0.1435 0.47757 0.23251 0.0
H45 H 0.9403 0.49168 0.18827 0.0
H46 H 0.92908 0.44187 0.15192 0.0
H47 H 0.12765 0.47761 0.15628 0.0
H48 H 0.13855 0.52832 0.19243 0.0
H49 H 0.95989 0.63035 0.20736 0.0
H50 H 0.96914 0.6999 0.17904 0.0
H51 H 0.16174 0.72963 0.16347 0.0
H52 H 0.15259 0.66131 0.19213 0.0
H53 H 0.96565 0.6538 0.25862 0.0
H54 H 0.97696 0.76071 0.26757 0.0
H55 H 0.17406 0.85475 0.24209 0.0
H56 H 0.16247 0.74755 0.23357 0.0
H57 H 0.96396 0.55801 0.28837 0.0
H58 H 0.96931 0.6237 0.32104 0.0
H59 H 0.17401 0.76161 0.3087 0.0
H60 H 0.16843 0.69486 0.27661 0.0
H61 H 0.95689 0.41434 0.26747 0.0
H62 H 0.96925 0.34931 0.29344 0.0
H63 H 0.17129 0.50326 0.30525 0.0
H64 H 0.15889 0.56753 0.27903 0.0
O65 O 0.96348 0.40073 0.11813 0.0
O66 O 0.06521 0.41879 0.12142 0.0
O67 O 0.03915 0.88566 0.26973 0.0
O68 O 0.14037 0.93639 0.25655 0.0
C69 C 0.04496 0.50467 0.23245 0.0
C70 C 0.04551 0.54048 0.2154 0.0
C71 C 0.05187 0.60224 0.21965 0.0
C72 C 0.05718 0.62811 0.24093 0.0
C73 C 0.05813 0.59289 0.25798 0.0
C74 C 0.05225 0.53118 0.25376 0.0
C75 C 0.03967 0.44054 0.22742 0.0
C76 C 0.97973 0.38701 0.21968 0.0
C77 C 0.97804 0.33198 0.20965 0.0
C78 C 0.03643 0.33023 0.20709 0.0
C79 C 0.09532 0.38167 0.21644 0.0
C80 C 0.09683 0.4364 0.22668 0.0
C81 C 0.04006 0.51325 0.19297 0.0
C82 C 0.98144 0.48915 0.18125 0.0
C83 C 0.97513 0.46053 0.16054 0.0
C84 C 0.02738 0.4555 0.15122 0.0
C85 C 0.0864 0.48055 0.16298 0.0
C86 C 0.09274 0.50945 0.18363 0.0
C87 C 0.05561 0.64107 0.20176 0.0
C88 C 0.00384 0.65171 0.19773 0.0
C89 C 0.00907 0.69099 0.18148 0.0
C90 C 0.06623 0.72023 0.16906 0.0
C91 C 0.11745 0.70832 0.17293 0.0
C92 C 0.11215 0.66906 0.18916 0.0
C93 C 0.0632 0.69301 0.24544 0.0
C94 C 0.01118 0.69758 0.25498 0.0
C95 C 0.01778 0.75868 0.26006 0.0
C96 C 0.07647 0.81632 0.25554 0.0
C97 C 0.12823 0.81139 0.24577 0.0
C98 C 0.12166 0.75025 0.2408 0.0
C99 C 0.06571 0.62204 0.28014 0.0
C100 C 0.01048 0.60113 0.29323 0.0
C101 C 0.01347 0.63909 0.31171 0.0
C102 C 0.0718 0.6984 0.3173 0.0
C103 C 0.12847 0.71603 0.30502 0.0
C104 C 0.12544 0.67804 0.28662 0.0
C105 C 0.05702 0.49554 0.27135 0.0
C106 C 0.00357 0.43423 0.27583 0.0
C107 C 0.01077 0.39716 0.29058 0.0
C108 C 0.07135 0.42119 0.30124 0.0
C109 C 0.12393 0.48383 0.29739 0.0
C110 C 0.11691 0.52056 0.28246 0.0
C111 C 0.02011 0.42401 0.12938 0.0
C112 C 0.08393 0.88137 0.26106 0.0
H113 H 0.72851 0.04359 0.42928 0.0
H114 H 0.2949 0.16817 0.60034 0.0
H115 H 0.67232 0.97104 0.54099 0.0
H116 H 0.76775 0.97983 0.52198 0.0
H117 H 0.88588 0.18035 0.54742 0.0
H118 H 0.78944 0.17124 0.56614 0.0
H119 H 0.58285 0.9854 0.50932 0.0
H120 H 0.62923 0.99144 0.47363 0.0
H121 H 0.78359 0.19037 0.49053 0.0
H122 H 0.73595 0.18397 0.52599 0.0
H123 H 0.46346 0.9883 0.52458 0.0
H124 H 0.41254 -0.00094 0.49278 0.0
H125 H 0.55724 0.20553 0.49508 0.0
H126 H 0.60786 0.1942 0.52693 0.0
H127 H 0.42366 0.98048 0.57398 0.0
H128 H 0.32901 0.99041 0.58546 0.0
H129 H 0.44642 0.1997 0.58108 0.0
H130 H 0.54075 0.189 0.56977 0.0
H131 H 0.50281 0.96498 0.60547 0.0
H132 H 0.43152 0.9595 0.63539 0.0
H133 H 0.52913 0.17033 0.64057 0.0
H134 H 0.5989 0.17517 0.61049 0.0
H135 H 0.66113 0.97225 0.58904 0.0
H136 H 0.73295 0.97434 0.61686 0.0
H137 H 0.77417 0.16687 0.64034 0.0
H138 H 0.70543 0.16566 0.61172 0.0
O139 O 0.71036 0.04259 0.44335 0.0
O140 O 0.78974 0.14401 0.45307 0.0
O141 O 0.27194 0.05458 0.59656 0.0
O142 O 0.33065 0.16254 0.59502 0.0
C143 C 0.66314 0.07242 0.55933 0.0
C144 C 0.6299 0.07923 0.54219 0.0
C145 C 0.57271 0.08268 0.546 0.0
C146 C 0.54829 0.07891 0.56685 0.0
C147 C 0.58196 0.07289 0.58406 0.0
C148 C 0.63982 0.07024 0.58036 0.0
C149 C 0.72405 0.07067 0.55474 0.0
C150 C 0.71955 0.01588 0.54322 0.0
C151 C 0.77415 0.02108 0.53235 0.0
C152 C 0.83391 0.08119 0.53292 0.0
C153 C 0.84006 0.13378 0.54646 0.0
C154 C 0.78537 0.12848 0.55735 0.0
C155 C 0.65614 0.08419 0.52019 0.0
C156 C 0.62628 0.0304 0.50518 0.0
C157 C 0.65306 0.03393 0.48485 0.0
C158 C 0.71028 0.09133 0.47925 0.0
C159 C 0.73956 0.14541 0.49432 0.0
C160 C 0.71249 0.14191 0.51458 0.0
C161 C 0.53889 0.09053 0.52799 0.0
C162 C 0.48365 0.03586 0.51829 0.0
C163 C 0.45523 0.04199 0.50006 0.0
C164 C 0.48145 0.10304 0.4914 0.0
C165 C 0.53606 0.15803 0.50148 0.0
C166 C 0.56482 0.1517 0.51961 0.0
C167 C 0.48882 0.08399 0.57102 0.0
C168 C 0.42847 0.02827 0.57524 0.0
C169 C 0.37464 0.03415 0.58187 0.0
C170 C 0.38028 0.09595 0.58431 0.0
C171 C 0.44043 0.15144 0.57942 0.0
C172 C 0.49423 0.14546 0.57282 0.0
C173 C 0.55573 0.07045 0.60585 0.0
C174 C 0.51052 0.00996 0.61369 0.0
C175 C 0.46976 0.00692 0.6307 0.0
C176 C 0.47404 0.06445 0.63998 0.0
C177 C 0.52409 0.1252 0.63345 0.0
C178 C 0.56449 0.12815 0.61646 0.0
C179 C 0.67792 0.06867 0.59843 0.0
C180 C 0.68551 0.01466 0.60029 0.0
C181 C 0.72619 0.01582 0.61629 0.0
C182 C 0.75954 0.07089 0.63083 0.0
C183 C 0.75014 0.12413 0.62923 0.0
C184 C 0.71012 0.1232 0.61307 0.0
C185 C 0.73935 0.09451 0.4578 0.0
C186 C 0.32418 0.10281 0.59228 0.0
H187 H 0.65975 0.77522 0.04368 0.0
H188 H 0.30654 0.1757 0.88332 0.0
H189 H 0.60526 0.76471 0.93226 0.0
H190 H 0.68832 0.86796 0.95058 0.0
H191 H 0.84226 0.83752 0.92435 0.0
H192 H 0.75888 0.73342 0.9065 0.0
H193 H 0.52751 0.65037 0.96158 0.0
H194 H 0.56465 0.69936 -0.0021 0.0
H195 H 0.75473 0.71926 0.98486 0.0
H196 H 0.71663 0.66932 0.94873 0.0
H197 H 0.4222 0.50437 0.93886 0.0
H198 H 0.3724 0.42904 0.96729 0.0
H199 H 0.56155 0.4524 0.98161 0.0
H200 H 0.61081 0.52568 0.95247 0.0
H201 H 0.40239 0.49264 0.89094 0.0
H202 H 0.31717 0.37882 0.88204 0.0
H203 H 0.45206 0.31669 0.89914 0.0
H204 H 0.53724 0.43089 0.90762 0.0
H205 H 0.48261 0.60956 0.86412 0.0
H206 H 0.41648 0.54651 0.83231 0.0
H207 H 0.50787 0.42877 0.83052 0.0
H208 H 0.5741 0.49242 0.86214 0.0
H209 H 0.61313 0.75746 0.88057 0.0
H210 H 0.68034 0.82863 0.85274 0.0
H211 H 0.75026 0.69607 0.8347 0.0
H212 H 0.68526 0.627 0.86314 0.0
O213 O 0.64562 0.75486 0.0294 0.0
O214 O 0.74141 0.76116 0.0222 0.0
O215 O 0.27222 0.25571 0.87786 0.0
O216 O 0.33929 0.2211 0.88676 0.0
C217 C 0.62657 0.67161 0.91316 0.0
C218 C 0.598 0.63006 0.93012 0.0
C219 C 0.54943 0.5638 0.92575 0.0
C220 C 0.52845 0.53936 0.90447 0.0
C221 C 0.55793 0.58067 0.88752 0.0
C222 C 0.60822 0.64637 0.89179 0.0
C223 C 0.67619 0.74139 0.91831 0.0
C224 C 0.65701 0.78151 0.92987 0.0
C225 C 0.70429 0.84019 0.94033 0.0
C226 C 0.77134 0.86003 0.93898 0.0
C227 C 0.79079 0.8233 0.9255 0.0
C228 C 0.74335 0.764 0.91528 0.0
C229 C 0.61939 0.65639 0.95254 0.0
C230 C 0.5769 0.66475 0.96669 0.0
C231 C 0.59837 0.69303 0.98738 0.0
C232 C 0.66275 0.71342 0.99426 0.0
C233 C 0.70488 0.70414 0.98008 0.0
C234 C 0.68328 0.67568 0.95944 0.0
C235 C 0.51997 0.52008 0.9435 0.0
C236 C 0.45279 0.4928 0.94799 0.0
C237 C 0.42452 0.45003 0.96419 0.0
C238 C 0.46333 0.43505 0.97647 0.0
C239 C 0.53089 0.46353 0.97234 0.0
C240 C 0.5589 0.50527 0.95579 0.0
C241 C 0.47602 0.46996 0.89983 0.0
C242 C 0.41346 0.45437 0.89269 0.0
C243 C 0.36485 0.38932 0.88766 0.0
C244 C 0.37783 0.33862 0.88986 0.0
C245 C 0.44044 0.3545 0.89725 0.0
C246 C 0.48912 0.41964 0.90216 0.0
C247 C 0.53264 0.55511 0.86545 0.0
C248 C 0.49001 0.57171 0.85636 0.0
C249 C 0.45189 0.53531 0.83837 0.0
C250 C 0.45642 0.48222 0.82915 0.0
C251 C 0.50359 0.46962 0.83719 0.0
C252 C 0.54144 0.50584 0.85524 0.0
C253 C 0.6445 0.68721 0.87391 0.0
C254 C 0.64295 0.7439 0.87057 0.0
C255 C 0.68104 0.78419 0.85457 0.0
C256 C 0.72098 0.7682 0.84153 0.0
C257 C 0.72101 0.71045 0.84466 0.0
C258 C 0.68332 0.67051 0.86074 0.0
C259 C 0.68584 0.74454 0.0161 0.0
C260 C 0.32645 0.26944 0.88445 0.0
H261 H 0.99165 0.09061 0.145 0.0
H262 H 0.15286 0.24665 0.11279 0.0
H263 H 0.16009 0.32593 0.14104 0.0
H264 H 0.11829 0.35168 0.1741 0.0
H265 H 0.95495 0.19745 0.20592 0.0
H266 H 0.95099 0.11638 0.17863 0.0
C267 C 0.02851 0.14192 0.1442 0.0
C268 C 0.07151 0.16264 0.12678 0.0
C269 C 0.03215 0.18744 0.16044 0.0
C270 C 0.11893 0.22935 0.12597 0.0
C271 C 0.12325 0.27476 0.14214 0.0
C272 C 0.08272 0.30012 0.17527 0.0
C273 C 0.03757 0.28017 0.19207 0.0
C274 C 0.07996 0.25439 0.15937 0.0
C275 C 0.99039 0.2136 0.19313 0.0
C276 C 0.98806 0.16746 0.17754 0.0
H277 H 0.02435 0.15093 0.45473 0.0
H278 H 0.00902 0.96825 0.46732 0.0
H279 H 0.94102 0.95912 0.49845 0.0
H280 H 0.88216 0.00116 0.5212 0.0
H281 H 0.89779 0.18361 0.50803 0.0
H282 H 0.9706 0.19536 0.47831 0.0
C283 C 0.00613 0.10907 0.46427 0.0
C284 C 0.02109 0.06002 0.45861 0.0
C285 C 0.96767 0.10443 0.48218 0.0
C286 C -0.00206 0.00657 0.47131 0.0
C287 C 0.95911 0.00133 0.48911 0.0
C288 C 0.9021 0.04372 0.51192 0.0
C289 C 0.88503 0.09163 0.51692 0.0
C290 C 0.94322 0.04973 0.49459 0.0
C291 C 0.91128 0.14669 0.50482 0.0
C292 C 0.95229 0.1531 0.48764 0.0
H293 H 0.86597 0.96417 0.76973 0.0
H294 H 0.02196 0.92958 0.78563 0.0
H295 H 0.95152 0.85444 0.81207 0.0
H296 H 0.84679 0.80117 0.8313 0.0
H297 H 0.69025 0.83405 0.81454 0.0
H298 H 0.76043 0.90827 0.78799 0.0
C299 C 0.88468 0.94017 0.77893 0.0
C300 C 0.94926 0.95268 0.77575 0.0
C301 C 0.844 0.89712 0.79405 0.0
C302 C 0.97244 0.92081 0.78775 0.0
C303 C 0.93224 0.87795 0.8029 0.0
C304 C 0.82765 0.82385 0.82166 0.0
C305 C 0.76329 0.81209 0.82499 0.0
C306 C 0.86804 0.86599 0.80624 0.0
C307 C 0.73985 0.84292 0.81257 0.0
C308 C 0.7798 0.88506 0.79728 0.0
H309 H 0.04812 0.88815 0.09947 0.0
H310 H 0.24714 0.02265 0.12211 0.0
H311 H 0.2394 0.94279 0.14599 0.0
H312 H 0.17389 0.83768 0.16197 0.0
H313 H 0.97453 0.7038 0.1397 0.0
H314 H 0.98448 0.78099 0.11423 0.0
C315 C 0.09008 0.89985 0.10948 0.0
C316 C 0.14803 0.96141 0.10906 0.0
C317 C 0.08501 0.85412 0.12336 0.0
C318 C 0.20186 0.97572 0.12216 0.0
C319 C 0.19746 0.93014 0.13585 0.0
C320 C 0.13299 0.82496 0.1513 0.0
C321 C 0.07353 0.76522 0.15273 0.0
C322 C 0.13897 0.8696 0.13679 0.0
C323 C 0.02055 0.74986 0.13906 0.0
C324 C 0.0263 0.79381 0.12445 0.0
H325 H 0.32306 0.07086 0.40805 0.0
H326 H 0.31888 0.23539 0.43988 0.0
H327 H 0.39336 0.24286 0.46773 0.0
H328 H 0.44801 0.19386 0.48526 0.0
H329 H 0.44635 0.02534 0.45441 0.0
H330 H 0.3855 0.02794 0.42395 0.0
C331 C 0.33955 0.10927 0.42082 0.0
C332 C 0.31512 0.15218 0.422 0.0
C333 C 0.38037 0.11177 0.43714 0.0
C334 C 0.33672 0.20149 0.43871 0.0
C335 C 0.37903 0.20559 0.45468 0.0
C336 C 0.43531 0.15852 0.47167 0.0
C337 C 0.45088 0.10908 0.47211 0.0
C338 C 0.39933 0.15962 0.45443 0.0
C339 C 0.43382 0.06319 0.45452 0.0
C340 C 0.39932 0.06482 0.4371 0.0
H341 H 0.27819 0.25788 0.76022 0.0
H342 H 0.1251 0.2598 0.79893 0.0
H343 H 0.20823 0.354 0.82082 0.0
H344 H 0.32431 0.43014 0.83057 0.0
H345 H 0.47735 0.42693 0.79234 0.0
H346 H 0.39403 0.3386 0.76857 0.0
C347 C 0.26286 0.27911 0.77335 0.0
C348 C 0.19549 0.25142 0.77805 0.0
C349 C 0.31087 0.33283 0.78597 0.0
C350 C 0.17659 0.27991 0.79502 0.0
C351 C 0.2241 0.33375 0.80757 0.0
C352 C 0.33944 0.41116 0.81674 0.0
C353 C 0.40684 0.43509 0.81314 0.0
C354 C 0.29136 0.35991 0.80338 0.0
C355 C 0.42572 0.40903 0.79545 0.0
C356 C 0.37815 0.35858 0.7819 0.0
H357 H 0.92953 0.03645 0.69901 0.0
H358 H 0.06043 0.24102 0.68957 0.0
H359 H 0.98193 0.23765 0.66412 0.0
H360 H 0.87812 0.17575 0.64376 0.0
H361 H 0.74511 0.97233 0.65442 0.0
H362 H 0.82328 0.97595 0.67997 0.0
C363 C 0.94092 0.08035 0.6914 0.0
C364 C 0.00087 0.13881 0.69607 0.0
C365 C 0.89548 0.07817 0.67692 0.0
C366 C 0.01459 0.19541 0.68625 0.0
C367 C 0.96982 0.19349 0.67167 0.0
C368 C 0.86559 0.13242 0.65192 0.0
C369 C 0.80578 0.0738 0.64709 0.0
C370 C 0.91028 0.13505 0.66682 0.0
C371 C 0.79117 0.01784 0.65754 0.0
C372 C 0.83567 0.01994 0.67226 0.0
H373 H 0.01612 0.07304 0.99369 0.0
H374 H 0.88875 0.96577 0.04456 0.0
H375 H 0.79883 0.90027 0.01882 0.0
H376 H 0.76053 0.8661 0.98165 0.0
H377 H 0.89035 0.96673 0.93048 0.0
H378 H 0.97559 0.04268 0.95655 0.0
C379 C 0.96836 0.03602 -0.00083 0.0
C380 C 0.95903 0.02404 0.02096 0.0
C381 C 0.91771 -0.00286 0.98422 0.0
C382 C 0.89714 0.97554 0.02783 0.0
C383 C 0.84581 0.93805 0.01314 0.0
C384 C 0.80696 0.90572 0.97626 0.0
C385 C 0.81931 0.91158 0.95428 0.0
C386 C 0.8561 0.9474 0.99126 0.0
C387 C 0.88006 0.9618 0.94738 0.0
C388 C 0.92864 0.00491 0.96225 0.0
H389 H 0.13293 0.93742 0.382 0.0
H390 H 0.93996 0.88909 0.36043 0.0
H391 H 0.92777 0.79281 0.3395 0.0
H392 H 0.97641 0.72885 0.32482 0.0
H393 H 0.16841 0.77584 0.34704 0.0
H394 H 0.17649 0.86645 0.37029 0.0
C395 C 0.08798 0.90553 0.37283 0.0
C396 C 0.03777 0.92076 0.37251 0.0
C397 C 0.08129 0.85033 0.36091 0.0
C398 C 0.97941 0.87851 0.36086 0.0
C399 C 0.97249 0.82358 0.34886 0.0
C400 C 0.01927 0.75768 0.33518 0.0
C401 C 0.07194 0.74579 0.33407 0.0
C402 C 0.02365 0.80976 0.34846 0.0
C403 C 0.12758 0.78451 0.34736 0.0
C404 C 0.13222 0.83629 0.36066 0.0
H405 H 0.25217 0.02427 0.70651 0.0
H406 H 0.24646 0.16423 0.66803 0.0
H407 H 0.33159 0.16519 0.64513 0.0
H408 H 0.40938 0.12901 0.63641 0.0
H409 H 0.41883 0.99077 0.67451 0.0
H410 H 0.33016 0.98598 0.69712 0.0
C411 C 0.26934 0.05457 0.69303 0.0
C412 C 0.24321 0.09434 0.68906 0.0
C413 C 0.3192 0.05559 0.67996 0.0
C414 C 0.26602 0.13351 0.67156 0.0
C415 C 0.31476 0.13417 0.65843 0.0
C416 C 0.39271 0.0985 0.64986 0.0
C417 C 0.42137 0.06131 0.65409 0.0
C418 C 0.34221 0.09612 0.66264 0.0
C419 C 0.39771 0.02022 0.67108 0.0
C420 C 0.34714 0.01753 0.68397 0.0
H421 H 0.34484 0.28283 0.05914 0.0
H422 H 0.20803 0.13808 0.01211 0.0
H423 H 0.27141 0.20681 0.98358 0.0
H424 H 0.3601 0.3119 0.97211 0.0
H425 H 0.4984 0.45636 0.01858 0.0
H426 H 0.44034 0.38382 0.04724 0.0
C427 C 0.32939 0.26599 0.04264 0.0
C428 C 0.27133 0.20577 0.03782 0.0
C429 C 0.36599 0.30591 0.02623 0.0
C430 C 0.25234 0.18433 0.01632 0.0
C431 C 0.28838 0.22372 -5e-05 0.0
C432 C 0.37759 0.32706 0.98852 0.0
C433 C 0.43261 0.38925 0.99341 0.0
C434 C 0.34428 0.28518 0.00476 0.0
C435 C 0.45589 0.40848 0.01459 0.0
C436 C 0.42264 0.3672 0.03092 0.0
H437 H 0.13632 0.28177 0.37027 0.0
H438 H 0.04682 0.12215 0.32171 0.0
H439 H 0.02806 0.19011 0.29908 0.0
H440 H 0.03721 0.29479 0.29297 0.0
H441 H 0.12798 0.4551 0.34108 0.0
H442 H 0.14628 0.38695 0.364 0.0
C443 C 0.11278 0.26184 0.35472 0.0
C444 C 0.09297 0.1969 0.34773 0.0
C445 C 0.10226 0.30124 0.34174 0.0
C446 C 0.0627 0.17197 0.3275 0.0
C447 C 0.05178 0.21074 0.31455 0.0
C448 C 0.06035 0.31451 0.30858 0.0
C449 C 0.0808 0.3796 0.31542 0.0
C450 C 0.07118 0.27532 0.32153 0.0
C451 C 0.112 0.4051 0.33547 0.0
C452 C 0.12235 0.36617 0.34857 0.0
loop_
_geom_bond_atom_site_label_1
_geom_bond_atom_site_label_2
_geom_bond_distance
_geom_bond_site_symmetry_2
_ccdc_geom_bond_type
C0 O1 1.164 . S
C0 O7 1.188 . S
O1 C0 1.164 . S
O2 Zn3 1.899 . S
O2 C10 1.284 . S
Zn3 O2 1.899 . S
Zn3 O4 2.032 . S
Zn3 O7 2.086 . S
Zn3 O12 1.977 . S
O4 Zn3 2.032 . S
O4 C8 1.278 . S
C5 O6 1.203 . S
C5 O12 1.267 . S
O6 C5 1.203 . S
O7 C0 1.188 . S
O7 Zn3 2.086 . S
C8 O4 1.278 . S
C8 O9 1.211 . S
O9 C8 1.211 . S
C10 O2 1.284 . S
C10 O11 1.273 . S
O11 C10 1.273 . S
O12 Zn3 1.977 . S
O12 C5 1.267 . S
C13 O14 1.160 . S
C13 O20 1.185 . S
O14 C13 1.160 . S
O15 Zn16 1.899 . S
O15 C23 1.284 1_545 S
Zn16 O15 1.899 . S
Zn16 O17 2.032 . S
Zn16 O20 2.086 . S
Zn16 O25 1.977 . S
O17 Zn16 2.032 . S
O17 C21 1.278 . S
C18 O19 1.203 . S
C18 O25 1.267 . S
O19 C18 1.203 . S
O20 C13 1.185 . S
O20 Zn16 2.086 . S
C21 O17 1.278 . S
C21 O22 1.211 . S
O22 C21 1.211 . S
C23 O15 1.284 1_565 S
C23 O24 1.273 . S
O24 C23 1.273 . S
O25 Zn16 1.977 . S
O25 C18 1.267 . S
C26 O27 1.160 . S
C26 O33 1.185 . S
O27 C26 1.160 . S
O28 Zn29 1.899 . S
O28 C36 1.284 . S
Zn29 O28 1.899 . S
Zn29 O30 2.032 . S
Zn29 O33 2.086 . S
Zn29 O38 1.977 . S
O30 Zn29 2.032 . S
O30 C34 1.278 . S
C31 O32 1.203 1_565 S
C31 O38 1.267 1_565 S
O32 C31 1.203 1_545 S
O33 C26 1.185 . S
O33 Zn29 2.086 . S
C34 O30 1.278 . S
C34 O35 1.211 . S
O35 C34 1.211 . S
C36 O28 1.284 . S
C36 O37 1.273 . S
O37 C36 1.273 . S
O38 Zn29 1.977 . S
O38 C31 1.267 1_545 S
H39 O65 0.856 . S
H40 O68 0.854 . S
H41 C76 0.930 1_655 S
H42 C77 0.930 . S
H43 C79 0.930 . S
H44 C80 0.930 . S
H45 C82 0.931 1_655 S
H46 C83 0.930 1_655 S
H47 C85 0.930 . S
H48 C86 0.929 . S
H49 C88 0.930 1_655 S
H50 C89 0.931 . S
H51 C91 0.930 . S
H52 C92 0.929 . S
H53 C94 0.931 1_655 S
H54 C95 0.930 1_655 S
H55 C97 0.930 . S
H56 C98 0.932 . S
H57 C100 0.930 1_655 S
H58 C101 0.929 1_655 S
H59 C103 0.931 . S
H60 C104 0.930 . S
H61 C106 0.929 1_655 S
H62 C107 0.931 1_655 S
H63 C109 0.930 . S
H64 C110 0.929 . S
O65 H39 0.856 . S
O65 C111 1.300 . S
O66 C111 1.209 . S
O67 C112 1.199 . S
O68 H40 0.854 . S
O68 C112 1.297 . S
C69 C70 1.404 . S
C69 C74 1.397 . S
C69 C75 1.492 . S
C70 C69 1.404 . S
C70 C71 1.396 . S
C70 C81 1.492 . S
C71 C70 1.396 . S
C71 C72 1.397 . S
C71 C87 1.509 . S
C72 C71 1.397 . S
C72 C73 1.412 . S
C72 C93 1.485 . S
C73 C72 1.412 . S
C73 C74 1.388 . S
C73 C99 1.490 . S
C74 C69 1.397 . S
C74 C73 1.388 . S
C74 C105 1.519 . S
C75 C69 1.492 . S
C75 C76 1.363 . S
C75 C80 1.390 . S
C76 H41 0.930 1_455 S
C76 C75 1.363 . S
C76 C77 1.372 1_455 S
C77 H42 0.930 . S
C77 C76 1.372 1_655 S
C77 C78 1.383 1_655 S
C78 C77 1.383 1_455 S
C78 C79 1.395 . S
C79 H43 0.930 . S
C79 C78 1.395 . S
C79 C80 1.362 . S
C80 H44 0.930 . S
C80 C75 1.390 . S
C80 C79 1.362 . S
C81 C70 1.492 . S
C81 C82 1.377 . S
C81 C86 1.397 . S
C82 H45 0.931 1_455 S
C82 C81 1.377 . S
C82 C83 1.376 . S
C83 H46 0.930 1_455 S
C83 C82 1.376 . S
C83 C84 1.376 . S
C84 C83 1.376 . S
C84 C85 1.378 . S
C84 C111 1.486 . S
C85 H47 0.930 . S
C85 C84 1.378 . S
C85 C86 1.376 . S
C86 H48 0.929 . S
C86 C81 1.397 . S
C86 C85 1.376 . S
C87 C71 1.509 . S
C87 C88 1.391 . S
C87 C92 1.386 . S
C88 H49 0.930 1_455 S
C88 C87 1.391 . S
C88 C89 1.375 . S
C89 H50 0.931 . S
C89 C88 1.375 . S
C89 C90 1.375 . S
C90 C89 1.375 . S
C90 C91 1.361 . S
C91 H51 0.930 . S
C91 C90 1.361 . S
C91 C92 1.399 . S
C92 H52 0.929 . S
C92 C87 1.386 . S
C92 C91 1.399 . S
C93 C72 1.485 . S
C93 C94 1.394 . S
C93 C98 1.360 . S
C94 H53 0.931 1_455 S
C94 C93 1.394 . S
C94 C95 1.372 . S
C95 H54 0.930 1_455 S
C95 C94 1.372 . S
C95 C96 1.397 . S
C96 C95 1.397 . S
C96 C97 1.390 . S
C96 C112 1.476 . S
C97 H55 0.930 . S
C97 C96 1.390 . S
C97 C98 1.366 . S
C98 H56 0.932 . S
C98 C93 1.360 . S
C98 C97 1.366 . S
C99 C73 1.490 . S
C99 C100 1.380 . S
C99 C104 1.386 . S
C100 H57 0.930 1_455 S
C100 C99 1.380 . S
C100 C101 1.381 . S
C101 H58 0.929 1_455 S
C101 C100 1.381 . S
C101 C102 1.371 . S
C102 C101 1.371 . S
C102 C103 1.380 . S
C103 H59 0.931 . S
C103 C102 1.380 . S
C103 C104 1.387 . S
C104 H60 0.930 . S
C104 C99 1.386 . S
C104 C103 1.387 . S
C105 C74 1.519 . S
C105 C106 1.377 . S
C105 C110 1.361 . S
C106 H61 0.929 1_455 S
C106 C105 1.377 . S
C106 C107 1.386 . S
C107 H62 0.931 1_455 S
C107 C106 1.386 . S
C107 C108 1.363 . S
C108 C107 1.363 . S
C108 C109 1.385 . S
C109 H63 0.930 . S
C109 C108 1.385 . S
C109 C110 1.396 . S
C110 H64 0.929 . S
C110 C105 1.361 . S
C110 C109 1.396 . S
C111 O65 1.300 . S
C111 O66 1.209 . S
C111 C84 1.486 . S
C112 O67 1.199 . S
C112 O68 1.297 . S
C112 C96 1.476 . S
H113 O139 0.856 . S
H114 O142 0.854 . S
H115 C150 0.930 1_565 S
H116 C151 0.930 1_565 S
H117 C153 0.930 . S
H118 C154 0.930 . S
H119 C156 0.931 . S
H120 C157 0.930 . S
H121 C159 0.930 . S
H122 C160 0.929 . S
H123 C162 0.930 . S
H124 C163 0.931 . S
H125 C165 0.930 . S
H126 C166 0.929 . S
H127 C168 0.931 . S
H128 C169 0.930 . S
H129 C171 0.930 . S
H130 C172 0.932 . S
H131 C174 0.930 1_565 S
H132 C175 0.929 1_565 S
H133 C177 0.931 . S
H134 C178 0.930 . S
H135 C180 0.929 . S
H136 C181 0.931 . S
H137 C183 0.930 . S
H138 C184 0.929 . S
O139 H113 0.856 . S
O139 C185 1.300 . S
O140 C185 1.209 . S
O141 C186 1.199 . S
O142 H114 0.854 . S
O142 C186 1.297 . S
C143 C144 1.404 . S
C143 C148 1.397 . S
C143 C149 1.492 . S
C144 C143 1.404 . S
C144 C145 1.396 . S
C144 C155 1.492 . S
C145 C144 1.396 . S
C145 C146 1.397 . S
C145 C161 1.509 . S
C146 C145 1.397 . S
C146 C147 1.412 . S
C146 C167 1.485 . S
C147 C146 1.412 . S
C147 C148 1.388 . S
C147 C173 1.490 . S
C148 C143 1.397 . S
C148 C147 1.388 . S
C148 C179 1.519 . S
C149 C143 1.492 . S
C149 C150 1.363 . S
C149 C154 1.390 . S
C150 H115 0.930 1_545 S
C150 C149 1.363 . S
C150 C151 1.372 . S
C151 H116 0.930 1_545 S
C151 C150 1.372 . S
C151 C152 1.383 . S
C152 C151 1.383 . S
C152 C153 1.395 . S
C153 H117 0.930 . S
C153 C152 1.395 . S
C153 C154 1.362 . S
C154 H118 0.930 . S
C154 C149 1.390 . S
C154 C153 1.362 . S
C155 C144 1.492 . S
C155 C156 1.377 . S
C155 C160 1.397 . S
C156 H119 0.931 . S
C156 C155 1.377 . S
C156 C157 1.376 . S
C157 H120 0.930 . S
C157 C156 1.376 . S
C157 C158 1.376 . S
C158 C157 1.376 . S
C158 C159 1.378 . S
C158 C185 1.486 . S
C159 H121 0.930 . S
C159 C158 1.378 . S
C159 C160 1.376 . S
C160 H122 0.929 . S
C160 C155 1.397 . S
C160 C159 1.376 . S
C161 C145 1.509 . S
C161 C162 1.391 . S
C161 C166 1.386 . S
C162 H123 0.930 . S
C162 C161 1.391 . S
C162 C163 1.375 . S
C163 H124 0.931 . S
C163 C162 1.375 . S
C163 C164 1.375 . S
C164 C163 1.375 . S
C164 C165 1.361 . S
C165 H125 0.930 . S
C165 C164 1.361 . S
C165 C166 1.399 . S
C166 H126 0.929 . S
C166 C161 1.386 . S
C166 C165 1.399 . S
C167 C146 1.485 . S
C167 C168 1.394 . S
C167 C172 1.360 . S
C168 H127 0.931 . S
C168 C167 1.394 . S
C168 C169 1.372 . S
C169 H128 0.930 . S
C169 C168 1.372 . S
C169 C170 1.397 . S
C170 C169 1.397 . S
C170 C171 1.390 . S
C170 C186 1.476 . S
C171 H129 0.930 . S
C171 C170 1.390 . S
C171 C172 1.366 . S
C172 H130 0.932 . S
C172 C167 1.360 . S
C172 C171 1.366 . S
C173 C147 1.490 . S
C173 C174 1.380 . S
C173 C178 1.386 . S
C174 H131 0.930 1_545 S
C174 C173 1.380 . S
C174 C175 1.381 . S
C175 H132 0.929 1_545 S
C175 C174 1.381 . S
C175 C176 1.371 . S
C176 C175 1.371 . S
C176 C177 1.380 . S
C177 H133 0.931 . S
C177 C176 1.380 . S
C177 C178 1.387 . S
C178 H134 0.930 . S
C178 C173 1.386 . S
C178 C177 1.387 . S
C179 C148 1.519 . S
C179 C180 1.377 . S
C179 C184 1.361 . S
C180 H135 0.929 . S
C180 C179 1.377 . S
C180 C181 1.386 . S
C181 H136 0.931 . S
C181 C180 1.386 . S
C181 C182 1.363 . S
C182 C181 1.363 . S
C182 C183 1.385 . S
C183 H137 0.930 . S
C183 C182 1.385 . S
C183 C184 1.396 . S
C184 H138 0.929 . S
C184 C179 1.361 . S
C184 C183 1.396 . S
C185 O139 1.300 . S
C185 O140 1.209 . S
C185 C158 1.486 . S
C186 O141 1.199 . S
C186 O142 1.297 . S
C186 C170 1.476 . S
H187 O213 0.856 . S
H188 O216 0.854 . S
H189 C224 0.930 . S
H190 C225 0.930 . S
H191 C227 0.930 . S
H192 C228 0.930 . S
H193 C230 0.931 . S
H194 C231 0.930 . S
H195 C233 0.930 1_554 S
H196 C234 0.929 . S
H197 C236 0.930 . S
H198 C237 0.931 . S
H199 C239 0.930 . S
H200 C240 0.929 . S
H201 C242 0.931 . S
H202 C243 0.930 . S
H203 C245 0.930 . S
H204 C246 0.932 . S
H205 C248 0.930 . S
H206 C249 0.929 . S
H207 C251 0.931 . S
H208 C252 0.930 . S
H209 C254 0.929 . S
H210 C255 0.931 . S
H211 C257 0.930 . S
H212 C258 0.929 . S
O213 H187 0.856 . S
O213 C259 1.300 . S
O214 C259 1.209 . S
O215 C260 1.199 . S
O216 H188 0.854 . S
O216 C260 1.297 . S
C217 C218 1.404 . S
C217 C222 1.397 . S
C217 C223 1.492 . S
C218 C217 1.404 . S
C218 C219 1.396 . S
C218 C229 1.492 . S
C219 C218 1.396 . S
C219 C220 1.397 . S
C219 C235 1.509 . S
C220 C219 1.397 . S
C220 C221 1.412 . S
C220 C241 1.485 . S
C221 C220 1.412 . S
C221 C222 1.388 . S
C221 C247 1.490 . S
C222 C217 1.397 . S
C222 C221 1.388 . S
C222 C253 1.519 . S
C223 C217 1.492 . S
C223 C224 1.363 . S
C223 C228 1.390 . S
C224 H189 0.930 . S
C224 C223 1.363 . S
C224 C225 1.372 . S
C225 H190 0.930 . S
C225 C224 1.372 . S
C225 C226 1.383 . S
C226 C225 1.383 . S
C226 C227 1.395 . S
C227 H191 0.930 . S
C227 C226 1.395 . S
C227 C228 1.362 . S
C228 H192 0.930 . S
C228 C223 1.390 . S
C228 C227 1.362 . S
C229 C218 1.492 . S
C229 C230 1.377 . S
C229 C234 1.397 . S
C230 H193 0.931 . S
C230 C229 1.377 . S
C230 C231 1.376 1_556 S
C231 H194 0.930 . S
C231 C230 1.376 1_554 S
C231 C232 1.376 . S
C232 C231 1.376 . S
C232 C233 1.378 1_554 S
C232 C259 1.486 . S
C233 H195 0.930 1_556 S
C233 C232 1.378 1_556 S
C233 C234 1.376 . S
C234 H196 0.929 . S
C234 C229 1.397 . S
C234 C233 1.376 . S
C235 C219 1.509 . S
C235 C236 1.391 . S
C235 C240 1.386 . S
C236 H197 0.930 . S
C236 C235 1.391 . S
C236 C237 1.375 . S
C237 H198 0.931 . S
C237 C236 1.375 . S
C237 C238 1.375 . S
C238 C237 1.375 . S
C238 C239 1.361 . S
C239 H199 0.930 . S
C239 C238 1.361 . S
C239 C240 1.399 . S
C240 H200 0.929 . S
C240 C235 1.386 . S
C240 C239 1.399 . S
C241 C220 1.485 . S
C241 C242 1.394 . S
C241 C246 1.360 . S
C242 H201 0.931 . S
C242 C241 1.394 . S
C242 C243 1.372 . S
C243 H202 0.930 . S
C243 C242 1.372 . S
C243 C244 1.397 . S
C244 C243 1.397 . S
C244 C245 1.390 . S
C244 C260 1.476 . S
C245 H203 0.930 . S
C245 C244 1.390 . S
C245 C246 1.366 . S
C246 H204 0.932 . S
C246 C241 1.360 . S
C246 C245 1.366 . S
C247 C221 1.490 . S
C247 C248 1.380 . S
C247 C252 1.386 . S
C248 H205 0.930 . S
C248 C247 1.380 . S
C248 C249 1.381 . S
C249 H206 0.929 . S
C249 C248 1.381 . S
C249 C250 1.371 . S
C250 C249 1.371 . S
C250 C251 1.380 . S
C251 H207 0.931 . S
C251 C250 1.380 . S
C251 C252 1.387 . S
C252 H208 0.930 . S
C252 C247 1.386 . S
C252 C251 1.387 . S
C253 C222 1.519 . S
C253 C254 1.377 . S
C253 C258 1.361 . S
C254 H209 0.929 . S
C254 C253 1.377 . S
C254 C255 1.386 . S
C255 H210 0.931 . S
C255 C254 1.386 . S
C255 C256 1.363 . S
C256 C255 1.363 . S
C256 C257 1.385 . S
C257 H211 0.930 . S
C257 C256 1.385 . S
C257 C258 1.396 . S
C258 H212 0.929 . S
C258 C253 1.361 . S
C258 C257 1.396 . S
C259 O213 1.300 . S
C259 O214 1.209 . S
C259 C232 1.486 . S
C260 O215 1.199 . S
C260 O216 1.297 . S
C260 C244 1.476 . S
H261 C267 0.930 1_655 S
H262 C270 0.930 . S
H263 C271 0.930 . S
H264 C272 0.930 . S
H265 C275 0.930 . S
H266 C276 0.930 . S
C267 H261 0.930 1_455 S
C267 C268 1.355 . S
C267 C269 1.415 . S
C268 C267 1.355 . S
C268 C270 1.419 . S
C269 C267 1.415 . S
C269 C274 1.425 . S
C269 C276 1.409 1_455 S
C270 H262 0.930 . S
C270 C268 1.419 . S
C270 C271 1.362 . S
C271 H263 0.930 . S
C271 C270 1.362 . S
C271 C274 1.409 . S
C272 H264 0.930 . S
C272 C273 1.355 . S
C272 C274 1.415 . S
C273 C272 1.355 . S
C273 C275 1.419 1_455 S
C274 C269 1.425 . S
C274 C271 1.409 . S
C274 C272 1.415 . S
C275 H265 0.930 . S
C275 C273 1.419 1_655 S
C275 C276 1.362 . S
C276 H266 0.930 . S
C276 C269 1.409 1_655 S
C276 C275 1.362 . S
H277 C283 0.930 . S
H278 C286 0.930 . S
H279 C287 0.930 . S
H280 C288 0.930 1_565 S
H281 C291 0.930 . S
H282 C292 0.930 . S
C283 H277 0.930 . S
C283 C284 1.355 . S
C283 C285 1.415 . S
C284 C283 1.355 . S
C284 C286 1.419 1_545 S
C285 C283 1.415 . S
C285 C290 1.425 . S
C285 C292 1.409 . S
C286 H278 0.930 . S
C286 C284 1.419 1_565 S
C286 C287 1.362 . S
C287 H279 0.930 . S
C287 C286 1.362 . S
C287 C290 1.409 1_565 S
C288 H280 0.930 1_545 S
C288 C289 1.355 . S
C288 C290 1.415 . S
C289 C288 1.355 . S
C289 C291 1.419 . S
C290 C285 1.425 . S
C290 C287 1.409 1_545 S
C290 C288 1.415 . S
C291 H281 0.930 . S
C291 C289 1.419 . S
C291 C292 1.362 . S
C292 H282 0.930 . S
C292 C285 1.409 . S
C292 C291 1.362 . S
H293 C299 0.930 . S
H294 C302 0.930 . S
H295 C303 0.930 . S
H296 C304 0.930 . S
H297 C307 0.930 . S
H298 C308 0.930 . S
C299 H293 0.930 . S
C299 C300 1.355 . S
C299 C301 1.415 . S
C300 C299 1.355 . S
C300 C302 1.419 1_655 S
C301 C299 1.415 . S
C301 C306 1.425 . S
C301 C308 1.409 . S
C302 H294 0.930 . S
C302 C300 1.419 1_455 S
C302 C303 1.362 1_455 S
C303 H295 0.930 . S
C303 C302 1.362 1_655 S
C303 C306 1.409 . S
C304 H296 0.930 . S
C304 C305 1.355 . S
C304 C306 1.415 . S
C305 C304 1.355 . S
C305 C307 1.419 . S
C306 C301 1.425 . S
C306 C303 1.409 . S
C306 C304 1.415 . S
C307 H297 0.930 . S
C307 C305 1.419 . S
C307 C308 1.362 . S
C308 H298 0.930 . S
C308 C301 1.409 . S
C308 C307 1.362 . S
H309 C315 0.930 . S
H310 C318 0.930 . S
H311 C319 0.930 . S
H312 C320 0.930 . S
H313 C323 0.930 . S
H314 C324 0.930 . S
C315 H309 0.930 . S
C315 C316 1.355 . S
C315 C317 1.415 . S
C316 C315 1.355 . S
C316 C318 1.419 1_565 S
C317 C315 1.415 . S
C317 C322 1.425 . S
C317 C324 1.409 . S
C318 H310 0.930 . S
C318 C316 1.419 1_545 S
C318 C319 1.362 1_545 S
C319 H311 0.930 . S
C319 C318 1.362 1_565 S
C319 C322 1.409 . S
C320 H312 0.930 . S
C320 C321 1.355 . S
C320 C322 1.415 . S
C321 C320 1.355 . S
C321 C323 1.419 . S
C322 C317 1.425 . S
C322 C319 1.409 . S
C322 C320 1.415 . S
C323 H313 0.930 . S
C323 C321 1.419 . S
C323 C324 1.362 . S
C324 H314 0.930 . S
C324 C317 1.409 . S
C324 C323 1.362 . S
H325 C331 0.930 . S
H326 C334 0.930 . S
H327 C335 0.930 . S
H328 C336 0.930 . S
H329 C339 0.930 . S
H330 C340 0.930 . S
C331 H325 0.930 . S
C331 C332 1.355 . S
C331 C333 1.415 . S
C332 C331 1.355 . S
C332 C334 1.419 . S
C333 C331 1.415 . S
C333 C338 1.425 . S
C333 C340 1.409 . S
C334 H326 0.930 . S
C334 C332 1.419 . S
C334 C335 1.362 . S
C335 H327 0.930 . S
C335 C334 1.362 . S
C335 C338 1.409 . S
C336 H328 0.930 . S
C336 C337 1.355 . S
C336 C338 1.415 . S
C337 C336 1.355 . S
C337 C339 1.419 . S
C338 C333 1.425 . S
C338 C335 1.409 . S
C338 C336 1.415 . S
C339 H329 0.930 . S
C339 C337 1.419 . S
C339 C340 1.362 . S
C340 H330 0.930 . S
C340 C333 1.409 . S
C340 C339 1.362 . S
H341 C347 0.930 . S
H342 C350 0.930 . S
H343 C351 0.930 . S
H344 C352 0.930 . S
H345 C355 0.930 . S
H346 C356 0.930 . S
C347 H341 0.930 . S
C347 C348 1.355 . S
C347 C349 1.415 . S
C348 C347 1.355 . S
C348 C350 1.419 . S
C349 C347 1.415 . S
C349 C354 1.425 . S
C349 C356 1.409 . S
C350 H342 0.930 . S
C350 C348 1.419 . S
C350 C351 1.362 . S
C351 H343 0.930 . S
C351 C350 1.362 . S
C351 C354 1.409 . S
C352 H344 0.930 . S
C352 C353 1.355 . S
C352 C354 1.415 . S
C353 C352 1.355 . S
C353 C355 1.419 . S
C354 C349 1.425 . S
C354 C351 1.409 . S
C354 C352 1.415 . S
C355 H345 0.930 . S
C355 C353 1.419 . S
C355 C356 1.362 . S
C356 H346 0.930 . S
C356 C349 1.409 . S
C356 C355 1.362 . S
H357 C363 0.930 . S
H358 C366 0.930 . S
H359 C367 0.930 . S
H360 C368 0.930 . S
H361 C371 0.930 . S
H362 C372 0.930 . S
C363 H357 0.930 . S
C363 C364 1.355 1_655 S
C363 C365 1.415 . S
C364 C363 1.355 1_455 S
C364 C366 1.419 . S
C365 C363 1.415 . S
C365 C370 1.425 . S
C365 C372 1.409 . S
C366 H358 0.930 . S
C366 C364 1.419 . S
C366 C367 1.362 . S
C367 H359 0.930 . S
C367 C366 1.362 . S
C367 C370 1.409 1_455 S
C368 H360 0.930 . S
C368 C369 1.355 . S
C368 C370 1.415 . S
C369 C368 1.355 . S
C369 C371 1.419 . S
C370 C365 1.425 . S
C370 C367 1.409 1_655 S
C370 C368 1.415 . S
C371 H361 0.930 . S
C371 C369 1.419 . S
C371 C372 1.362 . S
C372 H362 0.930 . S
C372 C365 1.409 . S
C372 C371 1.362 . S
H373 C379 0.919 1_545 S
H374 C382 0.930 . S
H375 C383 0.930 . S
H376 C384 0.930 . S
H377 C387 0.930 . S
H378 C388 0.930 1_545 S
C379 H373 0.919 1_565 S
C379 C380 1.361 . S
C379 C381 1.419 1_554 S
C380 C379 1.361 . S
C380 C382 1.419 . S
C381 C379 1.419 1_556 S
C381 C386 1.434 . S
C381 C388 1.409 . S
C382 H374 0.930 . S
C382 C380 1.419 . S
C382 C383 1.362 . S
C383 H375 0.930 . S
C383 C382 1.362 . S
C383 C386 1.366 1_554 S
C384 H376 0.930 . S
C384 C385 1.355 . S
C384 C386 1.450 . S
C385 C384 1.355 . S
C385 C387 1.419 . S
C386 C381 1.434 . S
C386 C383 1.366 1_556 S
C386 C384 1.450 . S
C387 H377 0.930 . S
C387 C385 1.419 . S
C387 C388 1.362 . S
C388 H378 0.930 1_565 S
C388 C381 1.409 . S
C388 C387 1.362 . S
H389 C395 0.930 . S
H390 C398 0.930 . S
H391 C399 0.930 . S
H392 C400 0.930 1_655 S
H393 C403 0.930 . S
H394 C404 0.930 . S
C395 H389 0.930 . S
C395 C396 1.355 . S
C395 C397 1.415 . S
C396 C395 1.355 . S
C396 C398 1.419 1_455 S
C397 C395 1.415 . S
C397 C402 1.425 . S
C397 C404 1.409 . S
C398 H390 0.930 . S
C398 C396 1.419 1_655 S
C398 C399 1.362 . S
C399 H391 0.930 . S
C399 C398 1.362 . S
C399 C402 1.409 1_655 S
C400 H392 0.930 1_455 S
C400 C401 1.355 . S
C400 C402 1.415 . S
C401 C400 1.355 . S
C401 C403 1.419 . S
C402 C397 1.425 . S
C402 C399 1.409 1_455 S
C402 C400 1.415 . S
C403 H393 0.930 . S
C403 C401 1.419 . S
C403 C404 1.362 . S
C404 H394 0.930 . S
C404 C397 1.409 . S
C404 C403 1.362 . S
H405 C411 0.930 . S
H406 C414 0.930 . S
H407 C415 0.930 . S
H408 C416 0.930 . S
H409 C419 0.930 . S
H410 C420 0.930 . S
C411 H405 0.930 . S
C411 C412 1.355 . S
C411 C413 1.415 . S
C412 C411 1.355 . S
C412 C414 1.419 . S
C413 C411 1.415 . S
C413 C418 1.425 . S
C413 C420 1.409 . S
C414 H406 0.930 . S
C414 C412 1.419 . S
C414 C415 1.362 . S
C415 H407 0.930 . S
C415 C414 1.362 . S
C415 C418 1.409 . S
C416 H408 0.930 . S
C416 C417 1.355 . S
C416 C418 1.415 . S
C417 C416 1.355 . S
C417 C419 1.419 . S
C418 C413 1.425 . S
C418 C415 1.409 . S
C418 C416 1.415 . S
C419 H409 0.930 . S
C419 C417 1.419 . S
C419 C420 1.362 . S
C420 H410 0.930 . S
C420 C413 1.409 . S
C420 C419 1.362 . S
H421 C427 0.930 . S
H422 C430 0.930 . S
H423 C431 0.953 . S
H424 C432 0.930 . S
H425 C435 0.930 . S
H426 C436 0.930 . S
C427 H421 0.930 . S
C427 C428 1.355 . S
C427 C429 1.415 . S
C428 C427 1.355 . S
C428 C430 1.419 . S
C429 C427 1.415 . S
C429 C434 1.425 . S
C429 C436 1.409 . S
C430 H422 0.930 . S
C430 C428 1.419 . S
C430 C431 1.362 . S
C431 H423 0.953 . S
C431 C430 1.362 . S
C431 C434 1.409 . S
C432 H424 0.930 . S
C432 C433 1.355 . S
C432 C434 1.415 1_556 S
C433 C432 1.355 . S
C433 C435 1.419 1_556 S
C434 C429 1.425 . S
C434 C431 1.409 . S
C434 C432 1.415 1_554 S
C435 H425 0.930 . S
C435 C433 1.419 1_554 S
C435 C436 1.362 . S
C436 H426 0.930 . S
C436 C429 1.409 . S
C436 C435 1.362 . S
H437 C443 0.930 . S
H438 C446 0.930 . S
H439 C447 0.930 . S
H440 C448 0.930 . S
H441 C451 0.930 . S
H442 C452 0.930 . S
C443 H437 0.930 . S
C443 C444 1.355 . S
C443 C445 1.415 . S
C444 C443 1.355 . S
C444 C446 1.419 . S
C445 C443 1.415 . S
C445 C450 1.425 . S
C445 C452 1.409 . S
C446 H438 0.930 . S
C446 C444 1.419 . S
C446 C447 1.362 . S
C447 H439 0.930 . S
C447 C446 1.362 . S
C447 C450 1.409 . S
C448 H440 0.930 . S
C448 C449 1.355 . S
C448 C450 1.415 . S
C449 C448 1.355 . S
C449 C451 1.419 . S
C450 C445 1.425 . S
C450 C447 1.409 . S
C450 C448 1.415 . S
C451 H441 0.930 . S
C451 C449 1.419 . S
C451 C452 1.362 . S
C452 H442 0.930 . S
C452 C445 1.409 . S
C452 C451 1.362 . S
C273 C78 1.399 . S
C268 C10 1.482 . S
C284 C21 1.358 1_655 S
C289 C152 1.344 . S
C300 C31 1.979 1_655 S
C305 C256 2.039 . S
C316 C0 0.748 1_565 S
C321 C90 0.824 . S
C337 C164 0.827 . S
C332 C18 0.762 . S
C348 C34 1.599 . S
C353 C250 1.489 . S
C369 C182 2.032 . S
C364 C36 2.036 . S
C380 C8 1.457 1_665 S
C385 C226 1.438 . S
C401 C102 1.441 . S
C396 C23 1.579 . S
C417 C176 1.411 . S
C412 C26 1.448 . S
C433 C238 0.828 . S
C428 C5 0.750 . S
C444 C13 1.952 . S
C449 C108 2.046 . S
