# Generated by pormake.
# Topology zzz, (3,6)-cn, num edge types: 1
# Building blocks:
#     Node 0, Type 0, BuildingBlock: BETDIP_clean_linker_0, # of connection points: 3
#     Node 1, Type 0, BuildingBlock: BETDIP_clean_linker_0, # of connection points: 3
#     Node 2, Type 0, BuildingBlock: BETDIP_clean_linker_0, # of connection points: 3
#     Node 3, Type 0, BuildingBlock: BETDIP_clean_linker_0, # of connection points: 3
#     Node 4, Type 0, BuildingBlock: BETDIP_clean_linker_0, # of connection points: 3
#     Node 5, Type 0, BuildingBlock: BETDIP_clean_linker_0, # of connection points: 3
#     Node 6, Type 0, BuildingBlock: BETDIP_clean_linker_0, # of connection points: 3
#     Node 7, Type 0, BuildingBlock: BETDIP_clean_linker_0, # of connection points: 3
#     Node 8, Type 1, BuildingBlock: PAMTOO_clean_sbu_0, # of connection points: 6
#     Node 9, Type 1, BuildingBlock: PAMTOO_clean_sbu_0, # of connection points: 6
#     Node 10, Type 1, BuildingBlock: PAMTOO_clean_sbu_0, # of connection points: 6
#     Node 11, Type 1, BuildingBlock: PAMTOO_clean_sbu_0, # of connection points: 6
#     Edge 12, Type (0, 1), BuildingBlock: OJICUG_clean_linker_0, # of connection points: 2
#     Edge 13, Type (0, 1), BuildingBlock: OJICUG_clean_linker_0, # of connection points: 2
#     Edge 14, Type (0, 1), BuildingBlock: OJICUG_clean_linker_0, # of connection points: 2
#     Edge 15, Type (0, 1), BuildingBlock: OJICUG_clean_linker_0, # of connection points: 2
#     Edge 16, Type (0, 1), BuildingBlock: OJICUG_clean_linker_0, # of connection points: 2
#     Edge 17, Type (0, 1), BuildingBlock: OJICUG_clean_linker_0, # of connection points: 2
#     Edge 18, Type (0, 1), BuildingBlock: OJICUG_clean_linker_0, # of connection points: 2
#     Edge 19, Type (0, 1), BuildingBlock: OJICUG_clean_linker_0, # of connection points: 2
#     Edge 20, Type (0, 1), BuildingBlock: OJICUG_clean_linker_0, # of connection points: 2
#     Edge 21, Type (0, 1), BuildingBlock: OJICUG_clean_linker_0, # of connection points: 2
#     Edge 22, Type (0, 1), BuildingBlock: OJICUG_clean_linker_0, # of connection points: 2
#     Edge 23, Type (0, 1), BuildingBlock: OJICUG_clean_linker_0, # of connection points: 2
#     Edge 24, Type (0, 1), BuildingBlock: OJICUG_clean_linker_0, # of connection points: 2
#     Edge 25, Type (0, 1), BuildingBlock: OJICUG_clean_linker_0, # of connection points: 2
#     Edge 26, Type (0, 1), BuildingBlock: OJICUG_clean_linker_0, # of connection points: 2
#     Edge 27, Type (0, 1), BuildingBlock: OJICUG_clean_linker_0, # of connection points: 2
#     Edge 28, Type (0, 1), BuildingBlock: OJICUG_clean_linker_0, # of connection points: 2
#     Edge 29, Type (0, 1), BuildingBlock: OJICUG_clean_linker_0, # of connection points: 2
#     Edge 30, Type (0, 1), BuildingBlock: OJICUG_clean_linker_0, # of connection points: 2
#     Edge 31, Type (0, 1), BuildingBlock: OJICUG_clean_linker_0, # of connection points: 2
#     Edge 32, Type (0, 1), BuildingBlock: OJICUG_clean_linker_0, # of connection points: 2
#     Edge 33, Type (0, 1), BuildingBlock: OJICUG_clean_linker_0, # of connection points: 2
#     Edge 34, Type (0, 1), BuildingBlock: OJICUG_clean_linker_0, # of connection points: 2
#     Edge 35, Type (0, 1), BuildingBlock: OJICUG_clean_linker_0, # of connection points: 2
# Relax obj value: 0.290
# Max RMSD: 0.248
# Mean RMSD: 0.131
data_MOF--net-zzz--node1-PAMTOO_clean_sbu_0--node2-BETDIP_clean_linker_0--edge1-OJICUG_clean_linker_0
_symmetry_space_group_name_H-M    P1
_symmetry_Int_Tables_number       1
_symmetry_cell_setting            triclinic
loop_
_symmetry_equiv_pos_as_xyz
'x, y, z'
_cell_length_a     42.33045
_cell_length_b     35.785327
_cell_length_c     11.648898
_cell_angle_alpha  93.771302
_cell_angle_beta   77.675341
_cell_angle_gamma 85.076465
loop_
_atom_site_label
_atom_site_type_symbol
_atom_site_fract_x
_atom_site_fract_y
_atom_site_fract_z
_atom_type_partial_charge
H0 H 0.83176 0.55913 0.79184 0.0
H1 H 0.79966 0.47749 0.56688 0.0
H2 H 0.8869 0.45127 0.69236 0.0
H3 H 0.81424 0.5661 0.49732 0.0
C4 C 0.79027 0.56081 0.54532 0.0
C5 C 0.83463 0.53101 0.748 0.0
C6 C 0.86095 0.50505 0.75676 0.0
C7 C 0.81258 0.52068 0.67885 0.0
C8 C 0.81678 0.48464 0.61981 0.0
C9 C 0.84374 0.45918 0.62196 0.0
C10 C 0.86508 0.46955 0.69335 0.0
N11 N 0.78766 0.54703 0.65864 0.0
H12 H 1.0217 0.74615 0.71694 0.0
H13 H 0.99794 0.69289 0.40652 0.0
H14 H 0.99701 0.8123 0.44822 0.0
H15 H 0.98749 0.63351 0.65125 0.0
C16 C 1.00297 0.64517 0.57843 0.0
C17 C 1.01394 0.74819 0.63459 0.0
C18 C 1.00734 0.78412 0.59497 0.0
C19 C 1.00984 0.71476 0.56814 0.0
C20 C 1.00027 0.71764 0.46083 0.0
C21 C 0.99669 0.75249 0.41646 0.0
C22 C 0.99889 0.7854 0.48542 0.0
N23 N 1.01695 0.67867 0.60741 0.0
H24 H 0.78015 0.98051 0.52425 0.0
H25 H 0.79565 0.0721 0.29984 0.0
H26 H 0.70161 0.0642 0.51699 0.0
H27 H 0.82637 0.02231 0.17859 0.0
C28 C 0.84183 0.01451 0.2385 0.0
C29 C 0.77132 1.0063 0.4926 0.0
C30 C 0.7382 0.02137 0.53462 0.0
C31 C 0.79265 0.02448 0.40625 0.0
C32 C 0.78017 0.05766 0.36512 0.0
C33 C 0.7475 0.07197 0.40406 0.0
C34 C 0.72724 0.0541 0.48997 0.0
N35 N 0.82601 0.00943 0.358 0.0
H36 H 0.55533 0.75745 0.58765 0.0
H37 H 0.54141 0.7422 0.22913 0.0
H38 H 0.54308 0.64806 0.4348 0.0
H39 H 0.58071 0.78548 0.20768 0.0
C40 C 0.56628 0.80692 0.27279 0.0
C41 C 0.5517 0.7396 0.51387 0.0
C42 C 0.5493 0.70014 0.5249 0.0
C43 C 0.54966 0.75545 0.40467 0.0
C44 C 0.54412 0.73135 0.31149 0.0
C45 C 0.54205 0.69305 0.32366 0.0
C46 C 0.54476 0.67805 0.42835 0.0
N47 N 0.55256 0.7949 0.38735 0.0
H48 H 0.2644 0.47397 0.0246 0.0
H49 H 0.29182 0.55535 0.26473 0.0
H50 H 0.20177 0.5757 0.15534 0.0
H51 H 0.34854 0.52596 0.08366 0.0
C52 C 0.34119 0.50451 0.14296 0.0
C53 C 0.25979 0.50117 0.07501 0.0
C54 C 0.23103 0.52462 0.07701 0.0
C55 C 0.28267 0.51316 0.13815 0.0
C56 C 0.27561 0.54744 0.20882 0.0
C57 C 0.24633 0.5698 0.21678 0.0
C58 C 0.22494 0.55902 0.14675 0.0
N59 N 0.31124 0.48939 0.14042 0.0
H60 H 0.08168 0.25255 0.17103 0.0
H61 H 0.99716 0.31268 0.40494 0.0
H62 H 0.98982 0.20745 0.21613 0.0
H63 H 1.03032 0.36365 0.28911 0.0
C64 C 0.04808 0.3543 0.33795 0.0
C65 C 0.05581 0.25535 0.20881 0.0
C66 C 1.03652 0.22731 0.17946 0.0
C67 C 0.04126 0.28722 0.28713 0.0
C68 C 1.00789 0.28949 0.34001 0.0
C69 C 0.98908 0.26044 0.31835 0.0
C70 C 1.00347 0.23067 0.23329 0.0
N71 N 0.06031 0.31538 0.32143 0.0
H72 H 0.30592 0.02962 0.23303 0.0
H73 H 0.2857 0.94024 0.46196 0.0
H74 H 0.38216 0.94526 0.25616 0.0
H75 H 0.2356 0.94938 0.3542 0.0
C76 C 0.23127 0.97718 0.40166 0.0
C77 C 0.3138 1.0038 0.26693 0.0
C78 C 0.34684 0.98836 0.23142 0.0
C79 C 0.29095 0.98537 0.34664 0.0
C80 C 0.3022 0.95298 0.39493 0.0
C81 C 0.33508 0.93843 0.36297 0.0
C82 C 0.35654 0.95561 0.27861 0.0
N83 N 0.25748 1.00066 0.38531 0.0
H84 H 0.52426 0.26399 0.27035 0.0
H85 H 0.57405 0.27053 0.55807 0.0
H86 H 0.56974 0.36299 0.34374 0.0
H87 H 0.58935 0.20209 0.46642 0.0
C88 C 0.56366 0.19802 0.48674 0.0
C89 C 0.53871 0.27881 0.32099 0.0
C90 C 0.54658 0.31569 0.29434 0.0
C91 C 0.54996 0.26122 0.41384 0.0
C92 C 0.56746 0.28205 0.48168 0.0
C93 C 0.57459 0.31874 0.45648 0.0
C94 C 0.56503 0.33429 0.36108 0.0
N95 N 0.54184 0.22421 0.44469 0.0
Dy96 Dy 1.02227 0.02428 0.75176 0.0
Dy97 Dy 0.05609 0.98813 0.94241 0.0
C98 C 0.09984 1.00536 0.70035 0.0
O99 O 1.01001 0.96414 0.75003 0.0
O100 O 0.05506 0.94087 0.8065 0.0
O101 O 1.0237 0.05413 0.59612 0.0
O102 O 0.9792 0.03227 0.68058 0.0
O103 O 1.00148 0.98643 0.00661 0.0
O104 O 0.98624 0.03834 0.92338 0.0
O105 O 0.05437 0.04952 0.00048 0.0
O106 O 1.03864 0.0747 0.84168 0.0
O107 O 0.05531 0.97351 0.12032 0.0
O108 O 0.09511 0.95054 0.97699 0.0
C109 C 1.02983 0.93515 0.76216 0.0
O110 O 0.07371 1.00161 0.65742 0.0
O111 O 0.09691 0.00975 0.81517 0.0
C112 C 0.97422 0.09148 0.60686 0.0
C113 C 0.9431 0.16361 0.59256 0.0
C114 C 0.96983 0.15919 0.64707 0.0
C115 C 0.98499 0.12366 0.65464 0.0
C116 C 0.94601 0.09506 0.56207 0.0
C117 C 0.93033 0.13078 0.55615 0.0
C118 C 0.99243 0.05438 0.60387 0.0
C119 C 0.97908 0.01362 0.00054 0.0
C120 C 0.04848 0.07868 0.94171 0.0
C121 C 0.06744 0.90821 0.09188 0.0
C122 C 0.04548 0.83625 0.09671 0.0
C123 C 1.03095 0.86424 0.04097 0.0
C124 C 0.04135 0.89989 0.0411 0.0
C125 C 0.08354 0.87991 0.14152 0.0
C126 C 0.07238 0.84415 0.14515 0.0
C127 C 0.07821 0.94592 0.08156 0.0
H128 H 0.98103 0.18302 0.67632 0.0
H129 H 1.00619 0.12154 0.69294 0.0
H130 H 0.9367 0.07034 0.52815 0.0
H131 H 0.90924 0.13251 0.51747 0.0
H132 H 1.01046 0.85915 0.00212 0.0
H133 H 1.02848 0.92124 0.00268 0.0
H134 H 0.10402 0.88564 0.17957 0.0
H135 H 0.08377 0.82341 0.19119 0.0
Dy136 Dy 0.53886 0.97684 0.78102 0.0
Dy137 Dy 0.54708 0.03496 0.99487 0.0
C138 C 0.5408 0.06427 0.74896 0.0
O139 O 0.59351 0.97278 0.74929 0.0
O140 O 0.59802 0.02159 0.88166 0.0
O141 O 0.52646 0.9692 0.61147 0.0
O142 O 0.53649 0.92059 0.70332 0.0
O143 O 0.55439 0.97857 0.07122 0.0
O144 O 0.5404 0.93973 0.92908 0.0
O145 O 0.49445 0.02613 0.05193 0.0
O146 O 0.48734 0.99877 0.87667 0.0
O147 O 0.55161 0.05357 0.17063 0.0
O148 O 0.554 0.09291 0.03727 0.0
C149 C 0.61133 0.99567 0.79477 0.0
O150 O 0.55355 0.03053 0.70207 0.0
O151 O 0.52749 0.06865 0.86225 0.0
C152 C 0.49252 0.92065 0.60861 0.0
C153 C 0.43163 0.89929 0.58083 0.0
C154 C 0.43415 0.93466 0.63677 0.0
C155 C 0.4641 0.94511 0.65053 0.0
C156 C 0.49022 0.88457 0.55814 0.0
C157 C 0.46001 0.87395 0.5441 0.0
C158 C 0.52417 0.93328 0.61837 0.0
C159 C 0.54834 0.94498 0.03198 0.0
C160 C 0.47538 0.01349 0.98592 0.0
C161 C 0.59034 0.09726 0.16023 0.0
C162 C 0.65126 0.11651 0.19112 0.0
C163 C 0.64795 0.08059 0.14089 0.0
C164 C 0.61788 0.07115 0.12548 0.0
C165 C 0.59348 0.13368 0.20585 0.0
C166 C 0.6238 0.14327 0.22151 0.0
C167 C 0.55909 0.08674 0.1408 0.0
H168 H 0.41333 0.95553 0.66395 0.0
H169 H 0.4651 0.97304 0.69047 0.0
H170 H 0.5118 0.86495 0.52734 0.0
H171 H 0.45905 0.84638 0.50152 0.0
H172 H 0.66825 0.05888 0.1188 0.0
H173 H 0.61605 0.04306 0.08835 0.0
H174 H 0.57248 0.15442 0.23087 0.0
H175 H 0.62559 0.17109 0.2606 0.0
Dy176 Dy 0.58174 0.50787 0.94661 0.0
Dy177 Dy 0.50657 0.50556 0.88645 0.0
C178 C 0.53654 0.44234 0.0264 0.0
O179 O 0.59215 0.46842 0.78362 0.0
O180 O 0.53992 0.46495 0.75252 0.0
O181 O 0.60878 0.49482 0.07774 0.0
O182 O 0.63168 0.52251 0.92565 0.0
O183 O 0.5308 0.54792 0.7705 0.0
O184 O 0.57213 0.56229 0.86302 0.0
O185 O 0.50311 0.55593 0.01212 0.0
O186 O 0.54177 0.53004 0.09754 0.0
O187 O 0.46032 0.53208 0.8653 0.0
O188 O 0.46958 0.47169 0.84734 0.0
C189 C 0.57117 0.45341 0.73054 0.0
O190 O 0.56575 0.45025 0.97517 0.0
O191 O 0.51083 0.46675 0.03119 0.0
C192 C 0.65408 0.52762 0.10063 0.0
C193 C 0.69508 0.54791 0.25407 0.0
C194 C 0.66111 0.54995 0.29573 0.0
C195 C 0.64084 0.53992 0.21995 0.0
C196 C 0.68771 0.52719 0.05794 0.0
C197 C 0.70793 0.53717 0.13332 0.0
C198 C 0.63477 0.50909 0.02493 0.0
C199 C 0.55221 0.57082 0.79277 0.0
C200 C 0.52113 0.55846 0.08946 0.0
C201 C 0.43515 0.49873 0.73274 0.0
C202 C 0.4061 0.49531 0.53464 0.0
C203 C 0.44019 0.49298 0.51983 0.0
C204 C 0.45456 0.49468 0.61787 0.0
C205 C 0.40126 0.50085 0.74807 0.0
C206 C 0.38688 0.49916 0.65033 0.0
C207 C 0.44967 0.50045 0.83748 0.0
H208 H 0.6502 0.55863 0.38746 0.0
H209 H 0.61498 0.54043 0.25583 0.0
H210 H 0.69866 0.51725 0.96706 0.0
H211 H 0.73389 0.53466 0.09763 0.0
H212 H 0.45584 0.48957 0.43239 0.0
H213 H 0.4808 0.49281 0.60405 0.0
H214 H 0.38583 0.504 0.836 0.0
H215 H 0.36061 0.50166 0.66563 0.0
Dy216 Dy 0.05137 0.54585 0.84872 0.0
Dy217 Dy 0.04094 0.47015 0.98678 0.0
C218 C 0.05986 0.46382 0.71423 0.0
O219 O 0.99715 0.54736 0.89498 0.0
O220 O 0.99464 0.48511 0.92731 0.0
O221 O 0.06522 0.57005 0.68332 0.0
O222 O 0.04968 0.60643 0.84523 0.0
O223 O 1.02056 0.51858 0.12363 0.0
O224 O 0.05148 0.56278 0.03759 0.0
O225 O 0.09085 0.4824 0.00386 0.0
O226 O 0.10184 0.5226 0.85686 0.0
O227 O 1.0373 0.43627 0.1351 0.0
O228 O 1.02953 0.41267 0.96896 0.0
C229 C 0.98082 0.51779 0.90837 0.0
O230 O 0.04518 0.49806 0.72148 0.0
O231 O 0.07007 0.45234 0.80538 0.0
C232 C 0.09096 0.62467 0.69406 0.0
C233 C 0.15293 0.64206 0.58112 0.0
C234 C 0.12634 0.64689 0.52651 0.0
C235 C 0.09576 0.63815 0.58256 0.0
C236 C 0.11611 0.62435 0.75547 0.0
C237 C 0.14679 0.63362 0.69998 0.0
C238 C 0.06249 0.60428 0.73254 0.0
C239 C 1.03315 0.55086 0.13097 0.0
C240 C 0.11113 0.50186 0.93566 0.0
C241 C 0.99275 0.40145 0.13844 0.0
C242 C 0.92938 0.39035 0.25444 0.0
C243 C 0.93714 0.4262 0.22222 0.0
C244 C 0.96843 0.43167 0.16566 0.0
C245 C 0.9849 0.36502 0.16285 0.0
C246 C 0.95344 0.35959 0.22347 0.0
C247 C 1.02559 0.4092 0.0815 0.0
H248 H 0.12955 0.65312 0.43535 0.0
H249 H 0.07676 0.63829 0.53374 0.0
H250 H 0.11283 0.61411 0.84228 0.0
H251 H 0.16633 0.63075 0.7465 0.0
H252 H 0.91946 0.45071 0.247 0.0
H253 H 0.97385 0.45989 0.14571 0.0
H254 H 1.00327 0.34117 0.13876 0.0
H255 H 0.94809 0.3318 0.2484 0.0
C256 C 0.17096 0.97338 0.43926 0.0
C257 C 0.1974 0.98906 0.47284 0.0
H258 H 0.11986 0.96693 0.48149 0.0
C259 C 0.19117 0.01191 0.5799 0.0
H260 H 0.17488 0.95534 0.35803 0.0
C261 C 0.15955 0.0176 0.65316 0.0
C262 C 0.13315 1.0015 0.61978 0.0
H263 H 0.21096 0.02396 0.60957 0.0
H264 H 0.15583 0.03436 0.73669 0.0
C265 C 0.13932 0.98 0.51034 0.0
C266 C 0.5776 0.13072 0.52386 0.0
C267 C 0.55465 0.16274 0.54515 0.0
H268 H 0.59086 0.0749 0.56688 0.0
C269 C 0.52603 0.16161 0.63232 0.0
H270 H 0.60025 0.13069 0.45988 0.0
C271 C 0.52124 0.12982 0.69845 0.0
C272 C 0.54439 0.09779 0.67639 0.0
H273 H 0.5081 0.18593 0.65326 0.0
H274 H 0.49947 0.13038 0.76734 0.0
C275 C 0.57228 0.09861 0.58614 0.0
C276 C 0.34662 0.47859 0.33559 0.0
C277 C 0.35881 0.49877 0.23913 0.0
H278 H 0.35211 0.46122 0.50362 0.0
C279 C 0.38743 0.51611 0.23778 0.0
H280 H 0.32461 0.46493 0.33939 0.0
C281 C 0.40311 0.51422 0.33193 0.0
C282 C 0.39053 0.495 0.4305 0.0
H283 H 0.39734 0.53196 0.16468 0.0
H284 H 0.42453 0.52896 0.32903 0.0
C285 C 0.36228 0.47677 0.43024 0.0
C286 C 0.07209 0.37214 0.51402 0.0
C287 C 0.0548 0.38219 0.42839 0.0
H288 H 0.08742 0.39006 0.67145 0.0
C289 C 0.04125 0.41972 0.43332 0.0
H290 H 0.08265 0.34344 0.51315 0.0
C291 C 0.04413 0.44645 0.52284 0.0
C292 C 0.06037 0.43635 0.61129 0.0
H293 H 1.02752 0.4283 0.36931 0.0
H294 H 1.03261 0.47478 0.52472 0.0
C295 C 0.07476 0.39893 0.60475 0.0
C296 C 0.88715 0.03798 0.09699 0.0
C297 C 0.87773 0.01566 0.19107 0.0
H298 H 0.92544 0.0554 0.96659 0.0
C299 C 0.90239 0.99343 0.22716 0.0
H300 H 0.86894 0.05539 0.06629 0.0
C301 C 0.93544 0.99277 0.16715 0.0
C302 C 0.9446 0.01493 0.07146 0.0
H303 H 0.89608 0.97557 0.29835 0.0
H304 H 0.95373 0.97462 0.19477 0.0
C305 C 0.91981 0.03796 0.03936 0.0
C306 C 0.5562 0.87976 0.28223 0.0
C307 C 0.55749 0.84363 0.22358 0.0
H308 H 0.55284 0.94007 0.26914 0.0
C309 C 0.55492 0.84191 0.10489 0.0
H310 H 0.55892 0.8824 0.37262 0.0
C311 C 0.55143 0.87452 0.04597 0.0
C312 C 0.55101 0.91078 0.10193 0.0
H313 H 0.5562 0.8148 0.05587 0.0
H314 H 0.54988 0.87101 0.95436 0.0
C315 C 0.55317 0.91289 0.22199 0.0
C316 C 0.76885 0.57493 0.36776 0.0
C317 C 0.76365 0.56106 0.47959 0.0
H318 H 0.75125 0.58282 0.21113 0.0
C319 C 0.73445 0.54538 0.52127 0.0
H320 H 0.79104 0.58733 0.33341 0.0
C321 C 0.71159 0.54233 0.45016 0.0
C322 C 0.71742 0.55491 0.33586 0.0
H323 H 0.72975 0.53428 0.60687 0.0
H324 H 0.69001 0.52868 0.48302 0.0
C325 C 0.74607 0.57206 0.29718 0.0
C326 C 1.03664 0.62914 0.36765 0.0
C327 C 1.01233 0.62121 0.46315 0.0
H328 H 0.06195 0.6137 0.18822 0.0
C329 C 0.99595 0.58911 0.44948 0.0
H330 H 0.05014 0.65321 0.37493 0.0
C331 C 1.00295 0.56613 0.34298 0.0
C332 C 1.02649 0.57462 0.2461 0.0
H333 H 0.97731 0.58188 0.52151 0.0
H334 H 0.9895 0.54195 0.33623 0.0
C335 C 0.0434 0.60636 0.26027 0.0
C336 C 0.93715 0.23059 0.36781 0.0
C337 C 0.95831 0.25498 0.40326 0.0
H338 H 0.91605 0.17956 0.40048 0.0
C339 C 0.95734 0.26043 0.52475 0.0
H340 H 0.93481 0.22804 0.27687 0.0
C341 C 0.94447 0.23386 0.59935 0.0
C342 C 0.93429 0.20106 0.55088 0.0
H343 H 0.97118 0.28084 0.55902 0.0
H344 H 0.94777 0.23591 0.68911 0.0
C345 C 0.92612 0.2026 0.43999 0.0
C346 C 0.37621 0.88542 0.37463 0.0
C347 C 0.34971 0.91118 0.43259 0.0
H348 H 0.42415 0.862 0.3757 0.0
C349 C 0.34553 0.9201 0.55438 0.0
H350 H 0.3795 0.87709 0.28135 0.0
C351 C 0.37084 0.9104 0.61022 0.0
C352 C 0.40077 0.89255 0.544 0.0
H353 H 0.32501 0.93912 0.6026 0.0
H354 H 0.36843 0.92118 0.70109 0.0
C355 C 0.40194 0.87673 0.42923 0.0
C356 C 0.60585 0.37217 0.50238 0.0
C357 C 0.58434 0.34529 0.54237 0.0
H358 H 0.61836 0.42868 0.53049 0.0
C359 C 0.56402 0.35186 0.65498 0.0
H360 H 0.62181 0.36765 0.41556 0.0
C361 C 0.5616 0.3867 0.71819 0.0
C362 C 0.57996 0.41528 0.67146 0.0
H363 H 0.54705 0.33199 0.68799 0.0
H364 H 0.54356 0.39224 0.80028 0.0
C365 C 0.60364 0.40717 0.56686 0.0
C366 C 0.21688 0.63242 0.302 0.0
C367 C 0.23389 0.59839 0.31749 0.0
H368 H 0.17898 0.67578 0.3793 0.0
C369 C 0.23137 0.5871 0.43188 0.0
H370 H 0.21899 0.64213 0.21479 0.0
C371 C 0.20773 0.60543 0.52511 0.0
C372 C 0.18644 0.6356 0.50534 0.0
H373 H 0.24442 0.56108 0.44664 0.0
H374 H 0.20358 0.59245 0.60761 0.0
C375 C 0.19375 0.65141 0.39623 0.0
C376 C 0.9806 0.78284 0.25195 0.0
C377 C 1.00059 0.75506 0.28899 0.0
H378 H 0.97993 0.83214 0.16056 0.0
C379 C 1.03208 0.74456 0.22053 0.0
H380 H 0.95596 0.79066 0.30191 0.0
C381 C 0.04633 0.76874 0.1402 0.0
C382 C 1.0286 0.80248 0.12644 0.0
H383 H 0.04765 0.72226 0.24521 0.0
H384 H 0.07217 0.7637 0.10211 0.0
C385 C 0.9947 0.80695 0.17144 0.0
C386 C 0.70549 0.12521 0.40122 0.0
C387 C 0.73202 0.10012 0.33963 0.0
H388 H 0.65797 0.15042 0.40082 0.0
C389 C 0.73658 0.09362 0.21669 0.0
H390 H 0.70198 0.13176 0.49552 0.0
C391 C 0.71164 0.10513 0.16152 0.0
C392 C 0.68184 0.12258 0.22928 0.0
H393 H 0.75708 0.07509 0.16588 0.0
H394 H 0.71398 0.09575 0.06946 0.0
C395 C 0.68026 0.13607 0.34658 0.0
C396 C 0.50645 0.65968 0.21824 0.0
C397 C 0.53796 0.66626 0.22882 0.0
H398 H 0.4762 0.61949 0.16548 0.0
C399 C 0.56402 0.63885 0.18215 0.0
H400 H 0.48598 0.68023 0.25663 0.0
C401 C 0.55828 0.60384 0.13682 0.0
C402 C 0.52648 0.59606 0.1344 0.0
H403 H 0.58838 0.6432 0.19184 0.0
H404 H 0.5787 0.58252 0.10658 0.0
C405 C 0.50079 0.62477 0.16937 0.0
C406 C 0.87625 0.39658 0.54841 0.0
C407 C 0.85397 0.42626 0.53161 0.0
H408 H 0.91917 0.3603 0.46719 0.0
C409 C 0.8488 0.42938 0.41687 0.0
H410 H 0.87941 0.39135 0.63598 0.0
C411 C 0.87043 0.40973 0.32043 0.0
C412 C 0.89806 0.38818 0.33771 0.0
H413 H 0.83136 0.45076 0.39847 0.0
H414 H 0.86886 0.41689 0.2327 0.0
C415 C 0.89868 0.37797 0.45147 0.0
C416 C 0.0409 0.1861 0.99343 0.0
C417 C 0.04942 0.19173 0.10314 0.0
H418 H 1.03412 0.14662 0.85636 0.0
C419 C 0.06072 0.16001 0.15369 0.0
H420 H 1.03107 0.2098 0.95411 0.0
C421 C 0.06185 0.12348 0.09896 0.0
C422 C 0.05155 0.11764 0.99228 0.0
H423 H 0.06636 0.16325 0.24001 0.0
H424 H 0.06933 0.09973 0.14342 0.0
C425 C 0.04218 0.14966 0.93835 0.0
C426 C 0.38695 0.98959 0.03896 0.0
C427 C 0.37374 1.00591 0.15456 0.0
H428 H 0.42875 0.97922 0.89519 0.0
C429 C 0.39322 0.02836 0.20823 0.0
H430 H 0.37322 0.97093 0.99655 0.0
C431 C 0.4255 0.03244 0.15126 0.0
C432 C 0.43945 0.01414 0.0385 0.0
H433 H 0.3844 0.04015 0.29866 0.0
H434 H 0.44005 0.04839 0.19855 0.0
C435 C 0.41916 0.99388 0.98147 0.0
C436 C 0.55971 0.34248 0.09985 0.0
C437 C 0.53617 0.33827 0.20216 0.0
H438 H 0.57847 0.37819 0.96631 0.0
C439 C 0.50988 0.36674 0.23649 0.0
H440 H 0.58088 0.32202 0.07294 0.0
C441 C 0.5085 0.39955 0.17541 0.0
C442 C 0.5338 0.40515 0.07979 0.0
H443 H 0.49197 0.3653 0.31738 0.0
H444 H 0.48895 0.42169 0.20872 0.0
C445 C 0.55866 0.37534 0.04025 0.0
C446 C 0.19358 0.53593 0.94012 0.0
C447 C 0.20491 0.51283 0.01896 0.0
H448 H 0.15564 0.55024 0.85028 0.0
C449 C 0.18692 0.48328 0.05982 0.0
H450 H 0.20674 0.55925 0.90857 0.0
C451 C 0.15716 0.47849 0.02843 0.0
C452 C 0.1449 0.50292 0.95447 0.0
H453 H 0.19476 0.46551 0.12237 0.0
H454 H 0.14313 0.4566 0.06614 0.0
C455 C 0.16414 0.53084 0.90735 0.0
C456 C 0.0399 0.82749 0.69576 0.0
C457 C 1.01127 0.82108 0.65771 0.0
H458 H 0.06846 0.86825 0.75712 0.0
C459 C 0.98815 0.85229 0.66181 0.0
H460 H 0.05841 0.80438 0.69282 0.0
C461 C 0.99411 0.88888 0.69618 0.0
C462 C 1.02333 0.89569 0.72883 0.0
H463 H 0.9657 0.84855 0.634 0.0
H464 H 0.97588 0.91197 0.69534 0.0
C465 C 0.04583 0.8643 0.73094 0.0
C466 C 0.69884 0.02267 0.72956 0.0
C467 C 0.71235 1.00386 0.61737 0.0
H468 H 0.65715 0.03491 0.87285 0.0
C469 C 0.69357 0.97846 0.57129 0.0
H470 H 0.71197 0.04343 0.76621 0.0
C471 C 0.66162 0.97387 0.63191 0.0
C472 C 0.64723 0.9949 0.74013 0.0
H473 H 0.70252 0.96459 0.48341 0.0
H474 H 0.64748 0.95566 0.58992 0.0
C475 C 0.66695 0.01823 0.78992 0.0
C476 C 0.52153 0.66331 0.68468 0.0
C477 C 0.55032 0.6783 0.63092 0.0
H478 H 0.49964 0.61778 0.77221 0.0
C479 C 0.58 0.65919 0.64229 0.0
H480 H 0.49825 0.67611 0.67455 0.0
C481 C 0.58082 0.6254 0.6994 0.0
C482 C 0.55204 0.60883 0.74293 0.0
H483 H 0.60275 0.66863 0.5982 0.0
H484 H 0.60414 0.61093 0.70228 0.0
C485 C 0.52239 0.62907 0.73793 0.0
C486 C 0.89767 0.48859 0.89251 0.0
C487 C 0.88687 0.51457 0.82004 0.0
H488 H 0.9354 0.46932 0.97735 0.0
C489 C 0.90517 0.54496 0.79069 0.0
H490 H 0.88411 0.46489 0.91685 0.0
C491 C 0.93486 0.54756 0.8256 0.0
C492 C 0.94687 0.51969 0.88996 0.0
H493 H 0.89777 0.56515 0.73373 0.0
H494 H 0.94931 0.57004 0.79573 0.0
C495 C 0.92724 0.49102 0.92658 0.0
loop_
_geom_bond_atom_site_label_1
_geom_bond_atom_site_label_2
_geom_bond_distance
_geom_bond_site_symmetry_2
_ccdc_geom_bond_type
H0 C5 0.930 . S
H1 C8 0.930 . S
H2 C10 0.930 . S
H3 C4 1.016 . S
C4 H3 1.016 . S
C4 N11 1.286 . S
C5 H0 0.930 . S
C5 C6 1.397 . S
C5 C7 1.361 . S
C6 C5 1.397 . S
C6 C10 1.390 . S
C7 C5 1.361 . S
C7 C8 1.393 . S
C7 N11 1.413 . S
C8 H1 0.930 . S
C8 C7 1.393 . S
C8 C9 1.399 . S
C9 C8 1.399 . S
C9 C10 1.381 . S
C10 H2 0.930 . S
C10 C6 1.390 . S
C10 C9 1.381 . S
N11 C4 1.286 . S
N11 C7 1.413 . S
H12 C17 0.930 . S
H13 C20 0.930 . S
H14 C22 0.930 . S
H15 C16 1.016 . S
C16 H15 1.016 . S
C16 N23 1.286 1_655 S
C17 H12 0.930 . S
C17 C18 1.397 . S
C17 C19 1.361 . S
C18 C17 1.397 . S
C18 C22 1.390 1_455 S
C19 C17 1.361 . S
C19 C20 1.393 . S
C19 N23 1.413 . S
C20 H13 0.930 . S
C20 C19 1.393 . S
C20 C21 1.400 . S
C21 C20 1.400 . S
C21 C22 1.384 1_455 S
C22 H14 0.930 . S
C22 C18 1.390 1_655 S
C22 C21 1.384 1_655 S
N23 C16 1.286 1_455 S
N23 C19 1.413 . S
H24 C29 0.930 . S
H25 C32 0.930 . S
H26 C34 0.930 . S
H27 C28 1.016 . S
C28 H27 1.016 . S
C28 N35 1.286 1_565 S
C29 H24 0.930 . S
C29 C30 1.397 . S
C29 C31 1.361 . S
C30 C29 1.397 . S
C30 C34 1.390 1_545 S
C31 C29 1.361 . S
C31 C32 1.393 . S
C31 N35 1.413 . S
C32 H25 0.930 . S
C32 C31 1.393 . S
C32 C33 1.405 . S
C33 C32 1.405 . S
C33 C34 1.376 1_545 S
C34 H26 0.930 . S
C34 C30 1.390 1_565 S
C34 C33 1.376 1_565 S
N35 C28 1.286 1_545 S
N35 C31 1.413 . S
H36 C41 0.930 . S
H37 C44 0.930 . S
H38 C46 0.930 . S
H39 C40 1.016 . S
C40 H39 1.016 . S
C40 N47 1.286 . S
C41 H36 0.930 . S
C41 C42 1.397 . S
C41 C43 1.361 . S
C42 C41 1.397 . S
C42 C46 1.390 . S
C43 C41 1.361 . S
C43 C44 1.393 . S
C43 N47 1.413 . S
C44 H37 0.930 . S
C44 C43 1.393 . S
C44 C45 1.399 . S
C45 C44 1.399 . S
C45 C46 1.381 . S
C46 H38 0.930 . S
C46 C42 1.390 . S
C46 C45 1.381 . S
N47 C40 1.286 . S
N47 C43 1.413 . S
H48 C53 0.930 . S
H49 C56 0.930 . S
H50 C58 0.930 . S
H51 C52 1.016 . S
C52 H51 1.016 . S
C52 N59 1.286 1_554 S
C53 H48 0.930 . S
C53 C54 1.397 . S
C53 C55 1.361 . S
C54 C53 1.397 . S
C54 C58 1.390 . S
C55 C53 1.361 . S
C55 C56 1.393 1_556 S
C55 N59 1.413 . S
C56 H49 0.930 . S
C56 C55 1.393 1_554 S
C56 C57 1.399 . S
C57 C56 1.399 . S
C57 C58 1.381 1_554 S
C58 H50 0.930 . S
C58 C54 1.390 . S
C58 C57 1.381 1_556 S
N59 C52 1.286 1_556 S
N59 C55 1.413 . S
H60 C65 0.930 1_556 S
H61 C68 0.930 . S
H62 C70 0.930 . S
H63 C64 1.021 . S
C64 H63 1.021 . S
C64 N71 1.279 1_655 S
C65 H60 0.930 1_554 S
C65 C66 1.397 . S
C65 C67 1.361 . S
C66 C65 1.397 . S
C66 C70 1.390 1_455 S
C67 C65 1.361 . S
C67 C68 1.393 . S
C67 N71 1.413 . S
C68 H61 0.930 . S
C68 C67 1.393 . S
C68 C69 1.408 . S
C69 C68 1.408 . S
C69 C70 1.370 1_455 S
C70 H62 0.930 . S
C70 C66 1.390 1_655 S
C70 C69 1.370 1_655 S
N71 C64 1.279 1_455 S
N71 C67 1.413 . S
H72 C77 0.930 . S
H73 C80 0.930 . S
H74 C82 0.930 . S
H75 C76 1.016 . S
C76 H75 1.016 . S
C76 N83 1.286 1_565 S
C77 H72 0.930 . S
C77 C78 1.397 . S
C77 C79 1.361 . S
C78 C77 1.397 . S
C78 C82 1.390 1_545 S
C79 C77 1.361 . S
C79 C80 1.393 . S
C79 N83 1.413 . S
C80 H73 0.930 . S
C80 C79 1.393 . S
C80 C81 1.401 . S
C81 C80 1.401 . S
C81 C82 1.382 1_545 S
C82 H74 0.930 . S
C82 C78 1.390 1_565 S
C82 C81 1.382 1_565 S
N83 C76 1.286 1_545 S
N83 C79 1.413 . S
H84 C89 0.930 . S
H85 C92 0.930 . S
H86 C94 0.930 . S
H87 C88 1.016 . S
C88 H87 1.016 . S
C88 N95 1.286 . S
C89 H84 0.930 . S
C89 C90 1.397 . S
C89 C91 1.361 . S
C90 C89 1.397 . S
C90 C94 1.390 . S
C91 C89 1.361 . S
C91 C92 1.393 . S
C91 N95 1.413 . S
C92 H85 0.930 . S
C92 C91 1.393 . S
C92 C93 1.399 . S
C93 C92 1.399 . S
C93 C94 1.381 . S
C94 H86 0.930 . S
C94 C90 1.390 . S
C94 C93 1.381 . S
N95 C88 1.286 . S
N95 C91 1.413 . S
Dy96 O99 2.307 1_545 S
Dy96 O101 2.395 1_655 S
Dy96 O102 2.379 . S
Dy96 O104 2.339 . S
Dy96 O106 2.298 . S
Dy96 O110 2.275 1_655 S
Dy96 C118 2.738 . S
Dy97 O100 2.298 1_554 S
Dy97 O103 2.275 1_454 S
Dy97 O105 2.307 1_565 S
Dy97 O107 2.395 1_455 S
Dy97 O108 2.379 . S
Dy97 O111 2.339 1_554 S
Dy97 C127 2.738 . S
C98 O110 1.254 1_565 S
C98 O111 1.257 . S
O99 Dy96 2.307 1_565 S
O99 C109 1.266 . S
O100 Dy97 2.298 1_556 S
O100 C109 1.236 1_455 S
O101 Dy96 2.395 1_455 S
O101 C118 1.255 1_455 S
O102 Dy96 2.379 . S
O102 C118 1.249 . S
O103 Dy97 2.275 1_656 S
O103 C119 1.254 1_565 S
O104 Dy96 2.339 . S
O104 C119 1.257 . S
O105 Dy97 2.307 1_545 S
O105 C120 1.266 1_554 S
O106 Dy96 2.298 . S
O106 C120 1.236 1_655 S
O107 Dy97 2.395 1_655 S
O107 C127 1.255 1_655 S
O108 Dy97 2.379 . S
O108 C127 1.249 . S
C109 O99 1.266 . S
C109 O100 1.236 1_655 S
O110 Dy96 2.275 1_455 S
O110 C98 1.254 1_545 S
O111 Dy97 2.339 1_556 S
O111 C98 1.257 . S
C112 C115 1.344 1_655 S
C112 C116 1.328 . S
C112 C118 1.516 . S
C113 C114 1.304 1_655 S
C113 C117 1.323 . S
C114 C113 1.304 1_455 S
C114 C115 1.371 . S
C114 H128 0.930 . S
C115 C112 1.344 1_455 S
C115 C114 1.371 . S
C115 H129 0.931 . S
C116 C112 1.328 . S
C116 C117 1.433 . S
C116 H130 0.931 . S
C117 C113 1.323 . S
C117 C116 1.433 . S
C117 H131 0.933 . S
C118 Dy96 2.738 . S
C118 O101 1.255 1_655 S
C118 O102 1.249 . S
C118 C112 1.516 . S
C119 O103 1.254 1_545 S
C119 O104 1.257 . S
C120 O105 1.266 1_556 S
C120 O106 1.236 1_455 S
C121 C124 1.344 1_455 S
C121 C125 1.328 . S
C121 C127 1.516 . S
C122 C123 1.304 1_455 S
C122 C126 1.323 . S
C123 C122 1.304 1_655 S
C123 C124 1.371 . S
C123 H132 0.930 . S
C124 C121 1.344 1_655 S
C124 C123 1.371 . S
C124 H133 0.931 . S
C125 C121 1.328 . S
C125 C126 1.433 . S
C125 H134 0.931 . S
C126 C122 1.323 . S
C126 C125 1.433 . S
C126 H135 0.933 . S
C127 Dy97 2.738 . S
C127 O107 1.255 1_455 S
C127 O108 1.249 . S
C127 C121 1.516 . S
H128 C114 0.930 . S
H129 C115 0.931 . S
H130 C116 0.931 . S
H131 C117 0.933 . S
H132 C123 0.930 . S
H133 C124 0.931 . S
H134 C125 0.931 . S
H135 C126 0.933 . S
Dy136 O139 2.307 . S
Dy136 O141 2.395 1_565 S
Dy136 O142 2.379 . S
Dy136 O144 2.339 . S
Dy136 O146 2.298 . S
Dy136 O150 2.275 1_565 S
Dy136 C158 2.738 . S
Dy137 O140 2.298 1_554 S
Dy137 O143 2.275 1_544 S
Dy137 O145 2.307 . S
Dy137 O147 2.395 1_545 S
Dy137 O148 2.379 . S
Dy137 O151 2.339 1_554 S
Dy137 C167 2.738 . S
C138 O150 1.254 . S
C138 O151 1.257 . S
O139 Dy136 2.307 . S
O139 C149 1.266 . S
O140 Dy137 2.298 1_556 S
O140 C149 1.236 1_545 S
O141 Dy136 2.395 1_545 S
O141 C158 1.255 1_545 S
O142 Dy136 2.379 . S
O142 C158 1.249 . S
O143 Dy137 2.275 1_566 S
O143 C159 1.254 . S
O144 Dy136 2.339 . S
O144 C159 1.257 . S
O145 Dy137 2.307 . S
O145 C160 1.271 . S
O146 Dy136 2.298 . S
O146 C160 1.229 1_566 S
O147 Dy137 2.395 1_565 S
O147 C167 1.255 1_565 S
O148 Dy137 2.379 . S
O148 C167 1.249 . S
C149 O139 1.266 . S
C149 O140 1.236 1_565 S
O150 Dy136 2.275 1_545 S
O150 C138 1.254 . S
O151 Dy137 2.339 1_556 S
O151 C138 1.257 . S
C152 C155 1.339 1_565 S
C152 C156 1.328 . S
C152 C158 1.516 . S
C153 C154 1.304 . S
C153 C157 1.323 . S
C154 C153 1.304 . S
C154 C155 1.370 1_565 S
C154 H168 0.930 1_565 S
C155 C152 1.339 1_545 S
C155 C154 1.370 1_545 S
C155 H169 0.936 . S
C156 C152 1.328 . S
C156 C157 1.433 . S
C156 H170 0.931 . S
C157 C153 1.323 . S
C157 C156 1.433 . S
C157 H171 0.933 . S
C158 Dy136 2.738 . S
C158 O141 1.255 1_565 S
C158 O142 1.249 . S
C158 C152 1.516 . S
C159 O143 1.254 . S
C159 O144 1.257 . S
C160 O145 1.271 . S
C160 O146 1.229 1_544 S
C161 C164 1.345 1_545 S
C161 C165 1.328 . S
C161 C167 1.516 . S
C162 C163 1.304 . S
C162 C166 1.323 . S
C163 C162 1.304 . S
C163 C164 1.371 1_545 S
C163 H172 0.930 1_545 S
C164 C161 1.345 1_565 S
C164 C163 1.371 1_565 S
C164 H173 0.930 . S
C165 C161 1.328 . S
C165 C166 1.433 . S
C165 H174 0.931 . S
C166 C162 1.323 . S
C166 C165 1.433 . S
C166 H175 0.933 . S
C167 Dy137 2.738 . S
C167 O147 1.255 1_545 S
C167 O148 1.249 . S
C167 C161 1.516 . S
H168 C154 0.930 1_545 S
H169 C155 0.936 . S
H170 C156 0.931 . S
H171 C157 0.933 . S
H172 C163 0.930 1_565 S
H173 C164 0.930 . S
H174 C165 0.931 . S
H175 C166 0.933 . S
Dy176 O179 2.307 . S
Dy176 O181 2.395 1_556 S
Dy176 O182 2.379 . S
Dy176 O184 2.339 . S
Dy176 O186 2.298 . S
Dy176 O190 2.275 . S
Dy176 C198 2.738 1_556 S
Dy177 O180 2.298 . S
Dy177 O183 2.275 . S
Dy177 O185 2.307 1_556 S
Dy177 O187 2.395 . S
Dy177 O188 2.379 . S
Dy177 O191 2.339 1_556 S
Dy177 C207 2.738 . S
C178 O190 1.254 1_554 S
C178 O191 1.257 . S
O179 Dy176 2.307 . S
O179 C189 1.266 . S
O180 Dy177 2.298 . S
O180 C189 1.236 . S
O181 Dy176 2.395 1_554 S
O181 C198 1.255 . S
O182 Dy176 2.379 . S
O182 C198 1.249 1_556 S
O183 Dy177 2.275 . S
O183 C199 1.254 . S
O184 Dy176 2.339 . S
O184 C199 1.257 . S
O185 Dy177 2.307 1_554 S
O185 C200 1.266 . S
O186 Dy176 2.298 . S
O186 C200 1.236 1_556 S
O187 Dy177 2.395 . S
O187 C207 1.255 . S
O188 Dy177 2.379 . S
O188 C207 1.249 . S
C189 O179 1.266 . S
C189 O180 1.236 . S
O190 Dy176 2.275 . S
O190 C178 1.254 1_556 S
O191 Dy177 2.339 1_554 S
O191 C178 1.257 . S
C192 C195 1.344 . S
C192 C196 1.328 . S
C192 C198 1.516 . S
C193 C194 1.304 . S
C193 C197 1.323 . S
C194 C193 1.304 . S
C194 C195 1.371 . S
C194 H208 0.930 . S
C195 C192 1.344 . S
C195 C194 1.371 . S
C195 H209 0.931 . S
C196 C192 1.328 . S
C196 C197 1.433 . S
C196 H210 0.931 1_554 S
C197 C193 1.323 . S
C197 C196 1.433 . S
C197 H211 0.933 . S
C198 Dy176 2.738 1_554 S
C198 O181 1.255 . S
C198 O182 1.249 1_554 S
C198 C192 1.516 . S
C199 O183 1.254 . S
C199 O184 1.257 . S
C200 O185 1.266 . S
C200 O186 1.236 1_554 S
C201 C204 1.344 . S
C201 C205 1.328 . S
C201 C207 1.516 . S
C202 C203 1.304 . S
C202 C206 1.323 . S
C203 C202 1.304 . S
C203 C204 1.371 . S
C203 H212 0.930 . S
C204 C201 1.344 . S
C204 C203 1.371 . S
C204 H213 0.931 . S
C205 C201 1.328 . S
C205 C206 1.433 . S
C205 H214 0.931 . S
C206 C202 1.323 . S
C206 C205 1.433 . S
C206 H215 0.933 . S
C207 Dy177 2.738 . S
C207 O187 1.255 . S
C207 O188 1.249 . S
C207 C201 1.516 . S
H208 C194 0.930 . S
H209 C195 0.931 . S
H210 C196 0.931 1_556 S
H211 C197 0.933 . S
H212 C203 0.930 . S
H213 C204 0.931 . S
H214 C205 0.931 . S
H215 C206 0.933 . S
Dy216 O219 2.307 1_455 S
Dy216 O221 2.395 . S
Dy216 O222 2.379 . S
Dy216 O224 2.339 . S
Dy216 O226 2.298 . S
Dy216 O230 2.275 . S
Dy216 C238 2.738 . S
Dy217 O220 2.298 1_554 S
Dy217 O223 2.275 . S
Dy217 O225 2.307 1_654 S
Dy217 O227 2.395 . S
Dy217 O228 2.379 . S
Dy217 O231 2.339 1_554 S
Dy217 C247 2.738 . S
C218 O230 1.254 1_655 S
C218 O231 1.257 . S
O219 Dy216 2.307 1_655 S
O219 C229 1.266 . S
O220 Dy217 2.298 1_556 S
O220 C229 1.236 . S
O221 Dy216 2.395 . S
O221 C238 1.255 . S
O222 Dy216 2.379 . S
O222 C238 1.249 . S
O223 Dy217 2.275 . S
O223 C239 1.254 1_655 S
O224 Dy216 2.339 . S
O224 C239 1.257 1_556 S
O225 Dy217 2.307 1_456 S
O225 C240 1.266 . S
O226 Dy216 2.298 . S
O226 C240 1.236 . S
O227 Dy217 2.395 . S
O227 C247 1.255 . S
O228 Dy217 2.379 . S
O228 C247 1.249 . S
C229 O219 1.266 . S
C229 O220 1.236 . S
O230 Dy216 2.275 . S
O230 C218 1.254 1_455 S
O231 Dy217 2.339 1_556 S
O231 C218 1.257 . S
C232 C235 1.344 . S
C232 C236 1.328 . S
C232 C238 1.516 . S
C233 C234 1.304 . S
C233 C237 1.323 . S
C234 C233 1.304 . S
C234 C235 1.371 . S
C234 H248 0.930 . S
C235 C232 1.344 . S
C235 C234 1.371 . S
C235 H249 0.931 . S
C236 C232 1.328 . S
C236 C237 1.433 . S
C236 H250 0.931 . S
C237 C233 1.323 . S
C237 C236 1.433 . S
C237 H251 0.933 . S
C238 Dy216 2.738 . S
C238 O221 1.255 . S
C238 O222 1.249 . S
C238 C232 1.516 . S
C239 O223 1.254 1_455 S
C239 O224 1.257 1_554 S
C240 O225 1.266 . S
C240 O226 1.236 . S
C241 C244 1.344 . S
C241 C245 1.328 . S
C241 C247 1.516 . S
C242 C243 1.304 . S
C242 C246 1.323 . S
C243 C242 1.304 . S
C243 C244 1.371 . S
C243 H252 0.930 . S
C244 C241 1.344 . S
C244 C243 1.371 . S
C244 H253 0.931 . S
C245 C241 1.328 . S
C245 C246 1.433 . S
C245 H254 0.931 . S
C246 C242 1.323 . S
C246 C245 1.433 . S
C246 H255 0.933 . S
C247 Dy217 2.738 . S
C247 O227 1.255 . S
C247 O228 1.249 . S
C247 C241 1.516 . S
H248 C234 0.930 . S
H249 C235 0.931 . S
H250 C236 0.931 . S
H251 C237 0.933 . S
H252 C243 0.930 . S
H253 C244 0.931 . S
H254 C245 0.931 . S
H255 C246 0.933 . S
C256 C257 1.378 1_565 S
C256 H260 0.950 . S
C256 C265 1.390 . S
C257 C256 1.378 1_545 S
C257 C259 1.396 . S
H258 C265 0.950 . S
C259 C257 1.396 . S
C259 C261 1.390 . S
C259 H263 0.950 . S
H260 C256 0.950 . S
C261 C259 1.390 . S
C261 C262 1.416 . S
C261 H264 0.950 . S
C262 C261 1.416 . S
C262 C265 1.363 1_545 S
H263 C259 0.950 . S
H264 C261 0.950 . S
C265 C256 1.390 . S
C265 H258 0.950 . S
C265 C262 1.363 1_565 S
C266 C267 1.387 . S
C266 H270 0.950 . S
C266 C275 1.390 . S
C267 C266 1.387 . S
C267 C269 1.387 . S
H268 C275 0.950 . S
C269 C267 1.387 . S
C269 C271 1.390 . S
C269 H273 0.950 . S
H270 C266 0.950 . S
C271 C269 1.390 . S
C271 C272 1.387 . S
C271 H274 0.950 . S
C272 C271 1.387 . S
C272 C275 1.387 . S
H273 C269 0.950 . S
H274 C271 0.950 . S
C275 C266 1.390 . S
C275 H268 0.950 . S
C275 C272 1.387 . S
C276 C277 1.387 . S
C276 H280 0.950 . S
C276 C285 1.390 . S
C277 C276 1.387 . S
C277 C279 1.387 . S
H278 C285 0.950 . S
C279 C277 1.387 . S
C279 C281 1.390 . S
C279 H283 0.950 . S
H280 C276 0.950 . S
C281 C279 1.390 . S
C281 C282 1.387 . S
C281 H284 0.950 . S
C282 C281 1.387 . S
C282 C285 1.387 . S
H283 C279 0.950 . S
H284 C281 0.950 . S
C285 C276 1.390 . S
C285 H278 0.950 . S
C285 C282 1.387 . S
C286 C287 1.402 . S
C286 H290 0.950 . S
C286 C295 1.390 . S
C287 C286 1.402 . S
C287 C289 1.382 1_455 S
H288 C295 0.950 . S
C289 C287 1.382 1_655 S
C289 C291 1.390 . S
C289 H293 0.950 . S
H290 C286 0.950 . S
C291 C289 1.390 . S
C291 C292 1.387 1_655 S
C291 H294 0.950 . S
C292 C291 1.387 1_455 S
C292 C295 1.387 . S
H293 C289 0.950 . S
H294 C291 0.950 . S
C295 C286 1.390 . S
C295 H288 0.950 . S
C295 C292 1.387 . S
C296 C297 1.384 1_545 S
C296 H300 0.950 . S
C296 C305 1.390 . S
C297 C296 1.384 1_565 S
C297 C299 1.391 . S
H298 C305 0.950 . S
C299 C297 1.391 . S
C299 C301 1.390 . S
C299 H303 0.950 . S
H300 C296 0.950 . S
C301 C299 1.390 . S
C301 C302 1.409 . S
C301 H304 0.950 . S
C302 C301 1.409 . S
C302 C305 1.369 1_565 S
H303 C299 0.950 . S
H304 C301 0.950 . S
C305 C296 1.390 . S
C305 H298 0.950 . S
C305 C302 1.369 1_545 S
C306 C307 1.387 . S
C306 H310 0.950 . S
C306 C315 1.390 . S
C307 C306 1.387 . S
C307 C309 1.387 . S
H308 C315 0.950 . S
C309 C307 1.387 . S
C309 C311 1.390 . S
C309 H313 0.950 . S
H310 C306 0.950 . S
C311 C309 1.390 . S
C311 C312 1.387 . S
C311 H314 0.950 1_554 S
C312 C311 1.387 . S
C312 C315 1.387 . S
H313 C309 0.950 . S
H314 C311 0.950 1_556 S
C315 C306 1.390 . S
C315 H308 0.950 . S
C315 C312 1.387 . S
C316 C317 1.387 . S
C316 H320 0.950 . S
C316 C325 1.390 . S
C317 C316 1.387 . S
C317 C319 1.387 . S
H318 C325 0.950 . S
C319 C317 1.387 . S
C319 C321 1.390 . S
C319 H323 0.950 . S
H320 C316 0.950 . S
C321 C319 1.390 . S
C321 C322 1.387 . S
C321 H324 0.950 . S
C322 C321 1.387 . S
C322 C325 1.387 . S
H323 C319 0.950 . S
H324 C321 0.950 . S
C325 C316 1.390 . S
C325 H318 0.950 . S
C325 C322 1.387 . S
C326 C327 1.387 . S
C326 H330 0.950 . S
C326 C335 1.390 . S
C327 C326 1.387 . S
C327 C329 1.387 1_655 S
H328 C335 0.950 . S
C329 C327 1.387 1_455 S
C329 C331 1.398 . S
C329 H333 0.950 . S
H330 C326 0.950 . S
C331 C329 1.398 . S
C331 C332 1.383 1_455 S
C331 H334 0.948 . S
C332 C331 1.383 1_655 S
C332 C335 1.387 . S
H333 C329 0.950 . S
H334 C331 0.948 . S
C335 C326 1.390 . S
C335 H328 0.950 . S
C335 C332 1.387 . S
C336 C337 1.387 1_655 S
C336 H340 0.950 . S
C336 C345 1.390 . S
C337 C336 1.387 1_455 S
C337 C339 1.387 . S
H338 C345 0.950 . S
C339 C337 1.387 . S
C339 C341 1.390 . S
C339 H343 0.950 . S
H340 C336 0.950 . S
C341 C339 1.390 . S
C341 C342 1.387 1_455 S
C341 H344 0.950 . S
C342 C341 1.387 1_655 S
C342 C345 1.387 . S
H343 C339 0.950 . S
H344 C341 0.950 . S
C345 C336 1.390 . S
C345 H338 0.950 . S
C345 C342 1.387 . S
C346 C347 1.387 . S
C346 H350 0.950 . S
C346 C355 1.390 . S
C347 C346 1.387 . S
C347 C349 1.387 . S
H348 C355 0.950 . S
C349 C347 1.387 . S
C349 C351 1.390 . S
C349 H353 0.947 1_565 S
H350 C346 0.950 . S
C351 C349 1.390 . S
C351 C352 1.387 . S
C351 H354 0.950 . S
C352 C351 1.387 . S
C352 C355 1.387 . S
H353 C349 0.947 1_545 S
H354 C351 0.950 . S
C355 C346 1.390 . S
C355 H348 0.950 . S
C355 C352 1.387 . S
C356 C357 1.387 . S
C356 H360 0.950 . S
C356 C365 1.390 . S
C357 C356 1.387 . S
C357 C359 1.387 . S
H358 C365 0.950 . S
C359 C357 1.387 . S
C359 C361 1.390 . S
C359 H363 0.950 . S
H360 C356 0.950 . S
C361 C359 1.390 . S
C361 C362 1.387 . S
C361 H364 0.950 . S
C362 C361 1.387 . S
C362 C365 1.387 . S
H363 C359 0.950 . S
H364 C361 0.950 . S
C365 C356 1.390 . S
C365 H358 0.950 . S
C365 C362 1.387 . S
C366 C367 1.387 . S
C366 H370 0.950 . S
C366 C375 1.390 . S
C367 C366 1.387 . S
C367 C369 1.387 . S
H368 C375 0.950 . S
C369 C367 1.387 . S
C369 C371 1.390 . S
C369 H373 0.950 . S
H370 C366 0.950 . S
C371 C369 1.390 . S
C371 C372 1.387 . S
C371 H374 0.950 . S
C372 C371 1.387 . S
C372 C375 1.387 . S
H373 C369 0.950 . S
H374 C371 0.950 . S
C375 C366 1.390 . S
C375 H368 0.950 . S
C375 C372 1.387 . S
C376 C377 1.387 . S
C376 H380 0.950 . S
C376 C385 1.390 1_655 S
C377 C376 1.387 . S
C377 C379 1.387 1_655 S
H378 C385 0.950 . S
C379 C377 1.387 1_455 S
C379 C381 1.390 . S
C379 H383 0.950 . S
H380 C376 0.950 . S
C381 C379 1.390 . S
C381 C382 1.387 . S
C381 H384 0.950 . S
C382 C381 1.387 . S
C382 C385 1.387 . S
H383 C379 0.950 . S
H384 C381 0.950 . S
C385 C376 1.390 1_455 S
C385 H378 0.950 . S
C385 C382 1.387 . S
C386 C387 1.387 . S
C386 H390 0.950 . S
C386 C395 1.390 . S
C387 C386 1.387 . S
C387 C389 1.387 1_545 S
H388 C395 0.950 . S
C389 C387 1.387 1_565 S
C389 C391 1.385 1_565 S
C389 H393 0.956 . S
H390 C386 0.950 . S
C391 C389 1.385 1_545 S
C391 C392 1.387 . S
C391 H394 0.950 . S
C392 C391 1.387 . S
C392 C395 1.387 . S
H393 C389 0.956 . S
H394 C391 0.950 . S
C395 C386 1.390 . S
C395 H388 0.950 . S
C395 C392 1.387 . S
C396 C397 1.387 . S
C396 H400 0.950 . S
C396 C405 1.390 . S
C397 C396 1.387 . S
C397 C399 1.387 . S
H398 C405 0.950 . S
C399 C397 1.387 . S
C399 C401 1.390 . S
C399 H403 0.950 1_554 S
H400 C396 0.950 . S
C401 C399 1.390 . S
C401 C402 1.387 . S
C401 H404 0.950 1_554 S
C402 C401 1.387 . S
C402 C405 1.387 . S
H403 C399 0.950 1_556 S
H404 C401 0.950 1_556 S
C405 C396 1.390 . S
C405 H398 0.950 . S
C405 C402 1.387 . S
C406 C407 1.387 . S
C406 H410 0.950 . S
C406 C415 1.390 . S
C407 C406 1.387 . S
C407 C409 1.387 . S
H408 C415 0.950 . S
C409 C407 1.387 . S
C409 C411 1.390 . S
C409 H413 0.950 . S
H410 C406 0.950 . S
C411 C409 1.390 . S
C411 C412 1.387 . S
C411 H414 0.950 . S
C412 C411 1.387 . S
C412 C415 1.387 . S
H413 C409 0.950 . S
H414 C411 0.950 . S
C415 C406 1.390 . S
C415 H408 0.950 . S
C415 C412 1.387 . S
C416 C417 1.387 . S
C416 H420 0.950 . S
C416 C425 1.390 . S
C417 C416 1.387 . S
C417 C419 1.387 1_556 S
H418 C425 0.950 . S
C419 C417 1.387 1_554 S
C419 C421 1.390 . S
C419 H423 0.950 1_455 S
H420 C416 0.950 . S
C421 C419 1.390 . S
C421 C422 1.387 1_554 S
C421 H424 0.950 . S
C422 C421 1.387 1_556 S
C422 C425 1.387 . S
H423 C419 0.950 1_655 S
H424 C421 0.950 . S
C425 C416 1.390 . S
C425 H418 0.950 . S
C425 C422 1.387 . S
C426 C427 1.387 1_566 S
C426 H430 0.950 . S
C426 C435 1.390 . S
C427 C426 1.387 1_544 S
C427 C429 1.387 . S
H428 C435 0.950 . S
C429 C427 1.387 . S
C429 C431 1.390 . S
C429 H433 0.950 . S
H430 C426 0.950 . S
C431 C429 1.390 . S
C431 C432 1.387 . S
C431 H434 0.950 . S
C432 C431 1.387 . S
C432 C435 1.387 1_544 S
H433 C429 0.950 . S
H434 C431 0.950 . S
C435 C426 1.390 . S
C435 H428 0.950 . S
C435 C432 1.387 1_566 S
C436 C437 1.387 . S
C436 H440 0.950 . S
C436 C445 1.390 . S
C437 C436 1.387 . S
C437 C439 1.387 . S
H438 C445 0.950 . S
C439 C437 1.387 . S
C439 C441 1.390 . S
C439 H443 0.950 . S
H440 C436 0.950 . S
C441 C439 1.390 . S
C441 C442 1.387 . S
C441 H444 0.950 . S
C442 C441 1.387 . S
C442 C445 1.387 . S
H443 C439 0.950 . S
H444 C441 0.950 . S
C445 C436 1.390 . S
C445 H438 0.950 . S
C445 C442 1.387 . S
C446 C447 1.387 . S
C446 H450 0.950 . S
C446 C455 1.390 . S
C447 C446 1.387 . S
C447 C449 1.387 . S
H448 C455 0.950 . S
C449 C447 1.387 . S
C449 C451 1.390 . S
C449 H453 0.950 . S
H450 C446 0.950 . S
C451 C449 1.390 . S
C451 C452 1.387 . S
C451 H454 0.950 . S
C452 C451 1.387 . S
C452 C455 1.387 . S
H453 C449 0.950 . S
H454 C451 0.950 . S
C455 C446 1.390 . S
C455 H448 0.950 . S
C455 C452 1.387 . S
C456 C457 1.387 1_455 S
C456 H460 0.950 . S
C456 C465 1.390 . S
C457 C456 1.387 1_655 S
C457 C459 1.387 . S
H458 C465 0.950 . S
C459 C457 1.387 . S
C459 C461 1.390 . S
C459 H463 0.950 . S
H460 C456 0.950 . S
C461 C459 1.390 . S
C461 C462 1.387 . S
C461 H464 0.950 . S
C462 C461 1.387 . S
C462 C465 1.387 1_655 S
H463 C459 0.950 . S
H464 C461 0.950 . S
C465 C456 1.390 . S
C465 H458 0.950 . S
C465 C462 1.387 1_455 S
C466 C467 1.387 1_545 S
C466 H470 0.950 . S
C466 C475 1.390 . S
C467 C466 1.387 1_565 S
C467 C469 1.387 . S
H468 C475 0.950 . S
C469 C467 1.387 . S
C469 C471 1.390 . S
C469 H473 0.950 . S
H470 C466 0.950 . S
C471 C469 1.390 . S
C471 C472 1.387 . S
C471 H474 0.950 . S
C472 C471 1.387 . S
C472 C475 1.387 1_565 S
H473 C469 0.950 . S
H474 C471 0.950 . S
C475 C466 1.390 . S
C475 H468 0.950 . S
C475 C472 1.387 1_545 S
C476 C477 1.387 . S
C476 H480 0.950 . S
C476 C485 1.390 . S
C477 C476 1.387 . S
C477 C479 1.387 . S
H478 C485 0.950 . S
C479 C477 1.387 . S
C479 C481 1.390 . S
C479 H483 0.950 . S
H480 C476 0.950 . S
C481 C479 1.390 . S
C481 C482 1.387 . S
C481 H484 0.950 . S
C482 C481 1.387 . S
C482 C485 1.387 . S
H483 C479 0.950 . S
H484 C481 0.950 . S
C485 C476 1.390 . S
C485 H478 0.950 . S
C485 C482 1.387 . S
C486 C487 1.387 . S
C486 H490 0.950 . S
C486 C495 1.390 . S
C487 C486 1.387 . S
C487 C489 1.387 . S
H488 C495 0.950 . S
C489 C487 1.387 . S
C489 C491 1.390 . S
C489 H493 0.950 . S
H490 C486 0.950 . S
C491 C489 1.390 . S
C491 C492 1.387 . S
C491 H494 0.950 . S
C492 C491 1.387 . S
C492 C495 1.387 . S
H493 C489 0.950 . S
H494 C491 0.950 . S
C495 C486 1.390 . S
C495 H488 0.950 . S
C495 C492 1.387 . S
C257 C76 2.088 1_545 S
C262 C98 2.206 1_545 S
C272 C138 2.070 . S
C267 C88 1.983 . S
C282 C202 2.070 . S
C277 C52 1.877 . S
C292 C218 1.986 1_455 S
C287 C64 1.636 1_455 S
C302 C119 2.209 1_564 S
C297 C28 2.088 . S
C307 C40 1.995 . S
C312 C159 2.073 1_554 S
C317 C4 1.893 . S
C322 C193 2.074 . S
C327 C16 1.652 . S
C332 C239 1.984 1_655 S
C342 C113 0.647 . S
C337 C69 0.640 . S
C352 C153 0.923 . S
C347 C81 0.922 1_565 S
C362 C189 1.059 . S
C357 C93 1.069 . S
C367 C57 0.955 . S
C372 C233 0.886 . S
C377 C21 0.639 1_655 S
C382 C122 0.651 . S
C392 C162 0.928 . S
C387 C33 0.923 . S
C402 C200 1.057 . S
C397 C45 1.057 . S
C407 C9 0.941 . S
C412 C242 0.897 . S
C417 C66 1.899 1_556 S
C422 C120 2.210 . S
C427 C78 2.043 . S
C432 C160 2.285 . S
C442 C178 1.785 . S
C437 C90 1.756 . S
C452 C240 2.651 . S
C447 C54 2.304 . S
C457 C18 1.907 1_655 S
C462 C109 2.218 . S
C472 C149 2.285 . S
C467 C30 2.052 1_565 S
C482 C199 1.786 . S
C477 C42 1.748 . S
C487 C6 2.307 . S
C492 C229 2.657 . S
