# Generated by pormake.
# Topology zzz, (3,6)-cn, num edge types: 1
# Building blocks:
#     Node 0, Type 0, BuildingBlock: BETDAH_clean_linker_0, # of connection points: 3
#     Node 1, Type 0, BuildingBlock: BETDAH_clean_linker_0, # of connection points: 3
#     Node 2, Type 0, BuildingBlock: BETDAH_clean_linker_0, # of connection points: 3
#     Node 3, Type 0, BuildingBlock: BETDAH_clean_linker_0, # of connection points: 3
#     Node 4, Type 0, BuildingBlock: BETDAH_clean_linker_0, # of connection points: 3
#     Node 5, Type 0, BuildingBlock: BETDAH_clean_linker_0, # of connection points: 3
#     Node 6, Type 0, BuildingBlock: BETDAH_clean_linker_0, # of connection points: 3
#     Node 7, Type 0, BuildingBlock: BETDAH_clean_linker_0, # of connection points: 3
#     Node 8, Type 1, BuildingBlock: VOLQOD_clean_sbu_1, # of connection points: 6
#     Node 9, Type 1, BuildingBlock: VOLQOD_clean_sbu_1, # of connection points: 6
#     Node 10, Type 1, BuildingBlock: VOLQOD_clean_sbu_1, # of connection points: 6
#     Node 11, Type 1, BuildingBlock: VOLQOD_clean_sbu_1, # of connection points: 6
#     Edge 12, Type (0, 1), BuildingBlock: EZIPEK_clean_linker_0, # of connection points: 2
#     Edge 13, Type (0, 1), BuildingBlock: EZIPEK_clean_linker_0, # of connection points: 2
#     Edge 14, Type (0, 1), BuildingBlock: EZIPEK_clean_linker_0, # of connection points: 2
#     Edge 15, Type (0, 1), BuildingBlock: EZIPEK_clean_linker_0, # of connection points: 2
#     Edge 16, Type (0, 1), BuildingBlock: EZIPEK_clean_linker_0, # of connection points: 2
#     Edge 17, Type (0, 1), BuildingBlock: EZIPEK_clean_linker_0, # of connection points: 2
#     Edge 18, Type (0, 1), BuildingBlock: EZIPEK_clean_linker_0, # of connection points: 2
#     Edge 19, Type (0, 1), BuildingBlock: EZIPEK_clean_linker_0, # of connection points: 2
#     Edge 20, Type (0, 1), BuildingBlock: EZIPEK_clean_linker_0, # of connection points: 2
#     Edge 21, Type (0, 1), BuildingBlock: EZIPEK_clean_linker_0, # of connection points: 2
#     Edge 22, Type (0, 1), BuildingBlock: EZIPEK_clean_linker_0, # of connection points: 2
#     Edge 23, Type (0, 1), BuildingBlock: EZIPEK_clean_linker_0, # of connection points: 2
#     Edge 24, Type (0, 1), BuildingBlock: EZIPEK_clean_linker_0, # of connection points: 2
#     Edge 25, Type (0, 1), BuildingBlock: EZIPEK_clean_linker_0, # of connection points: 2
#     Edge 26, Type (0, 1), BuildingBlock: EZIPEK_clean_linker_0, # of connection points: 2
#     Edge 27, Type (0, 1), BuildingBlock: EZIPEK_clean_linker_0, # of connection points: 2
#     Edge 28, Type (0, 1), BuildingBlock: EZIPEK_clean_linker_0, # of connection points: 2
#     Edge 29, Type (0, 1), BuildingBlock: EZIPEK_clean_linker_0, # of connection points: 2
#     Edge 30, Type (0, 1), BuildingBlock: EZIPEK_clean_linker_0, # of connection points: 2
#     Edge 31, Type (0, 1), BuildingBlock: EZIPEK_clean_linker_0, # of connection points: 2
#     Edge 32, Type (0, 1), BuildingBlock: EZIPEK_clean_linker_0, # of connection points: 2
#     Edge 33, Type (0, 1), BuildingBlock: EZIPEK_clean_linker_0, # of connection points: 2
#     Edge 34, Type (0, 1), BuildingBlock: EZIPEK_clean_linker_0, # of connection points: 2
#     Edge 35, Type (0, 1), BuildingBlock: EZIPEK_clean_linker_0, # of connection points: 2
# Relax obj value: 0.186
# Max RMSD: 0.232
# Mean RMSD: 0.111
data_MOF--net-zzz--node1-VOLQOD_clean_sbu_1--node2-BETDAH_clean_linker_0--edge1-EZIPEK_clean_linker_0
_symmetry_space_group_name_H-M    P1
_symmetry_Int_Tables_number       1
_symmetry_cell_setting            triclinic
loop_
_symmetry_equiv_pos_as_xyz
'x, y, z'
_cell_length_a     38.470828
_cell_length_b     38.26948
_cell_length_c     12.959451
_cell_angle_alpha  90.056604
_cell_angle_beta   89.940594
_cell_angle_gamma 90.880042
loop_
_atom_site_label
_atom_site_type_symbol
_atom_site_fract_x
_atom_site_fract_y
_atom_site_fract_z
_atom_type_partial_charge
H0 H 0.85517 0.50754 0.08169 0.0
H1 H 0.75223 0.50217 0.95811 0.0
H2 H 0.76825 0.52884 0.27939 0.0
C3 C 0.82736 0.51025 0.09294 0.0
C4 C 0.81468 0.51943 0.18976 0.0
C5 C 0.80485 0.5041 0.01042 0.0
C6 C 0.76908 0.50709 0.02356 0.0
C7 C 0.75547 0.51577 0.12115 0.0
C8 C 0.77847 0.52222 0.20407 0.0
N9 N 0.71899 0.51761 0.13759 0.0
C10 C 0.69513 0.51493 0.05708 0.0
H11 H 0.96468 0.83867 0.20149 0.0
H12 H 0.00742 0.76002 0.00034 0.0
H13 H 0.02157 0.75524 0.32584 0.0
C14 C 0.97742 0.81451 0.18531 0.0
C15 C 0.99387 0.80007 0.27006 0.0
C16 C 0.9858 0.80391 0.08422 0.0
C17 C 0.00077 0.77059 0.07441 0.0
C18 C 0.01026 0.75123 0.16241 0.0
C19 C 0.00943 0.76741 0.25992 0.0
N20 N 0.02346 0.7169 0.153 0.0
C21 C 0.01885 0.69666 0.06442 0.0
H22 H 0.64033 0.99322 0.1428 0.0
H23 H 0.73568 0.03621 0.02158 0.0
H24 H 0.73717 0.96969 0.28855 0.0
C25 C 0.66855 0.99457 0.14272 0.0
C26 C 0.68658 0.97939 0.22395 0.0
C27 C 0.68583 0.01594 0.07089 0.0
C28 C 0.72219 0.01871 0.07408 0.0
C29 C 0.74088 0.00025 0.14897 0.0
C30 C 0.72298 0.98109 0.22504 0.0
N31 N 0.77742 0.00354 0.15569 0.0
C32 C 0.79879 0.00344 0.06942 0.0
H33 H 0.50366 0.6441 0.12819 0.0
H34 H 0.52245 0.73849 0.96061 0.0
H35 H 0.52183 0.73928 0.29471 0.0
C36 C 0.50878 0.67209 0.12815 0.0
C37 C 0.5136 0.68908 0.22169 0.0
C38 C 0.51214 0.68934 0.03434 0.0
C39 C 0.51899 0.72527 0.0336 0.0
C40 C 0.52155 0.7437 0.12801 0.0
C41 C 0.51914 0.72539 0.22222 0.0
N42 N 0.52689 0.7804 0.13022 0.0
C43 C 0.52121 0.80145 0.04486 0.0
H44 H 0.14072 0.506 0.20394 0.0
H45 H 0.2378 0.51076 0.3627 0.0
H46 H 0.23347 0.47672 0.04333 0.0
C47 C 0.16875 0.50263 0.20269 0.0
C48 C 0.18442 0.49046 0.1137 0.0
C49 C 0.18791 0.51062 0.29035 0.0
C50 C 0.22366 0.50548 0.29206 0.0
C51 C 0.24052 0.49285 0.20307 0.0
C52 C 0.22076 0.48577 0.11278 0.0
N53 N 0.27695 0.48689 0.20336 0.0
C54 C 0.29799 0.49308 0.28945 0.0
H55 H 0.04238 0.13212 0.28182 0.0
H56 H 0.05303 0.23214 0.42565 0.0
H57 H 0.08449 0.21857 0.10862 0.0
C58 C 0.05075 0.15933 0.27754 0.0
C59 C 0.0653 0.17212 0.18666 0.0
C60 C 0.04522 0.18118 0.36168 0.0
C61 C 0.0554 0.21621 0.35751 0.0
C62 C 0.06835 0.23035 0.26499 0.0
C63 C 0.07444 0.20793 0.1803 0.0
N64 N 0.07371 0.26697 0.2536 0.0
C65 C 0.05828 0.29217 0.31629 0.0
H66 H 0.36632 0.01159 0.2343 0.0
H67 H 0.26669 0.01021 0.38028 0.0
H68 H 0.27427 0.00259 0.0476 0.0
C69 C 0.33819 0.00997 0.22755 0.0
C70 C 0.32306 0.00726 0.13025 0.0
C71 C 0.31789 0.01067 0.31654 0.0
C72 C 0.28179 0.00911 0.30982 0.0
C73 C 0.2656 0.00607 0.21283 0.0
C74 C 0.28643 0.00501 0.12265 0.0
N75 N 0.22871 0.00413 0.20488 0.0
C76 C 0.20681 0.00262 0.29094 0.0
H77 H 0.49408 0.3501 0.19025 0.0
H78 H 0.45861 0.25619 0.34184 0.0
H79 H 0.47037 0.25893 0.01137 0.0
C80 C 0.48635 0.3227 0.18724 0.0
C81 C 0.48114 0.30744 0.09131 0.0
C82 C 0.4759 0.30554 0.27765 0.0
C83 C 0.46724 0.26987 0.27315 0.0
C84 C 0.46863 0.25219 0.17763 0.0
C85 C 0.47303 0.2716 0.08577 0.0
N86 N 0.4644 0.21537 0.17142 0.0
C87 C 0.47293 0.19252 0.25093 0.0
O88 O 0.09812 0.98898 0.69183 0.0
Zn89 Zn 0.05517 0.99002 0.78683 0.0
O90 O 0.01127 0.9942 0.70896 0.0
Zn91 Zn 0.98464 0.03261 0.76076 0.0
Zn92 Zn 0.02346 -0.00297 0.56604 0.0
Zn93 Zn 0.97828 0.95547 0.71313 0.0
O94 O 0.93701 0.02158 0.81408 0.0
O95 O 0.93169 0.96531 0.77798 0.0
O96 O 0.06188 0.03395 0.87855 0.0
O97 O 0.00999 0.05833 0.87121 0.0
O98 O 0.98196 0.06635 0.64915 0.0
O99 O 0.00235 0.04069 0.50687 0.0
O100 O 0.01608 0.94898 0.5011 0.0
O101 O 0.05164 0.94365 0.86605 0.0
O102 O 0.97012 0.92868 0.5825 0.0
O103 O 0.00164 0.92261 0.8012 0.0
C104 C 0.10076 -0.00236 0.59708 0.0
C105 C 0.91947 0.99326 0.81545 0.0
C106 C 0.99014 0.06714 0.5544 0.0
C107 C 0.04101 0.05815 0.90465 0.0
C108 C 0.99339 0.92484 0.51451 0.0
C109 C 0.02874 0.91925 0.85563 0.0
O110 O 0.07414 0.00401 0.54325 0.0
O111 O 0.49246 0.07992 0.62721 0.0
Zn112 Zn 0.50253 0.04552 0.74552 0.0
O113 O 0.51359 0.00162 0.68586 0.0
Zn114 Zn 0.47474 0.97282 0.67224 0.0
Zn115 Zn 0.50963 0.002 0.54286 0.0
Zn116 Zn 0.55049 0.97605 0.73044 0.0
O117 O 0.4858 0.92222 0.6991 0.0
O118 O 0.53354 0.9314 0.79333 0.0
O119 O 0.45908 0.03838 0.83817 0.0
O120 O 0.43996 0.98688 0.77865 0.0
O121 O 0.45535 0.98563 0.5204 0.0
O122 O 0.45557 0.98539 0.52025 0.0
O123 O 0.54802 0.97457 0.47453 0.0
O124 O 0.54736 0.05941 0.8227 0.0
O125 O 0.58163 0.96589 0.61151 0.0
O126 O 0.57576 0.00848 0.82222 0.0
C127 C 0.50208 0.07897 0.5326 0.0
C128 C 0.50834 0.91182 0.76384 0.0
C129 C 0.4367 0.01129 0.5448 0.0
C130 C 0.43685 0.01306 0.83832 0.0
C131 C 0.5767 0.9651 0.51449 0.0
C132 C 0.57348 0.04066 0.84695 0.0
O133 O 0.51519 0.05148 0.49465 0.0
O134 O 0.41356 0.49901 0.67189 0.0
Zn135 Zn 0.46076 0.49888 0.75022 0.0
O136 O 0.50029 0.50075 0.65283 0.0
Zn137 Zn 0.5328 0.46274 0.6687 0.0
Zn138 Zn 0.48259 0.50102 0.51676 0.0
Zn139 Zn 0.52762 0.54161 0.6621 0.0
O140 O 0.58161 0.47851 0.71436 0.0
O141 O 0.57362 0.53506 0.72715 0.0
O142 O 0.46567 0.45446 0.83977 0.0
O143 O 0.51491 0.43283 0.78223 0.0
O144 O 0.53105 0.43029 0.54564 0.0
O145 O 0.484 0.45245 0.47476 0.0
O146 O 0.50451 0.53681 0.4206 0.0
O147 O 0.46295 0.54355 0.83821 0.0
O148 O 0.53198 0.5689 0.53632 0.0
O149 O 0.50324 0.57244 0.74759 0.0
C150 C 0.40768 0.50546 0.57665 0.0
C151 C 0.59305 0.50892 0.73865 0.0
C152 C 0.50425 0.42711 0.48846 0.0
C153 C 0.48942 0.43144 0.84454 0.0
C154 C 0.52155 0.56436 0.44486 0.0
C155 C 0.48004 0.57146 0.81612 0.0
O156 O 0.43246 0.50975 0.51319 0.0
O157 O 0.95037 0.54336 0.50048 0.0
Zn158 Zn 0.99667 0.54273 0.58009 0.0
O159 O 0.99836 0.50006 0.66441 0.0
Zn160 Zn 0.99241 0.50987 0.80918 0.0
Zn161 Zn 0.96526 0.46656 0.60951 0.0
Zn162 Zn 0.04238 0.47972 0.65139 0.0
O163 O 0.03254 0.49222 0.90054 0.0
O164 O 0.06666 0.47047 0.77964 0.0
O165 O 0.00027 0.58572 0.67347 0.0
O166 O 0.99457 0.56175 0.82936 0.0
O167 O 0.94367 0.49439 0.84334 0.0
O168 O 0.92746 0.46011 0.71148 0.0
O169 O 0.98581 0.42107 0.56279 0.0
O170 O 0.03914 0.54277 0.48333 0.0
O171 O 0.04196 0.43529 0.56674 0.0
O172 O 0.0727 0.51631 0.59668 0.0
C173 C 0.93236 0.51764 0.46535 0.0
C174 C 0.06117 0.47853 0.87257 0.0
C175 C 0.9212 0.47519 0.79674 0.0
C176 C -0.00156 0.58836 0.77154 0.0
C177 C 0.01737 0.41413 0.54334 0.0
C178 C 0.06917 0.53404 0.51537 0.0
O179 O 0.93955 0.48634 0.48931 0.0
C180 C 0.16612 0.96796 0.40112 0.0
C181 C 0.18431 -0.0002 0.38152 0.0
C182 C 0.15391 0.02791 0.52564 0.0
C183 C 0.13451 0.99658 0.54166 0.0
N184 N 0.12752 0.93477 0.51461 0.0
N185 N 0.20193 0.05744 0.43755 0.0
C186 C 0.14258 0.96588 0.48592 0.0
C187 C 0.18033 0.02896 0.44818 0.0
N188 N 0.17042 0.94015 0.33621 0.0
N189 N 0.14605 0.05689 0.58225 0.0
H190 H 0.22104 0.05911 0.38046 0.0
H191 H 0.20268 0.07831 0.48902 0.0
H192 H 0.12836 0.056 0.64338 0.0
H193 H 0.15607 0.08178 0.56736 0.0
H194 H 0.15513 0.9175 0.33843 0.0
H195 H 0.18836 0.94035 0.27576 0.0
H196 H 0.13418 0.91071 0.48356 0.0
H197 H 0.11027 0.93269 0.57659 0.0
C198 C 0.47153 0.12975 0.29479 0.0
C199 C 0.48118 0.16431 0.32207 0.0
C200 C 0.50313 0.14388 0.48946 0.0
C201 C 0.49473 0.10874 0.46097 0.0
N202 N 0.47332 0.06811 0.33003 0.0
N203 N 0.51275 0.20376 0.43284 0.0
C204 C 0.47995 0.10168 0.3615 0.0
C205 C 0.49856 0.17131 0.41634 0.0
N206 N 0.45284 0.12378 0.2064 0.0
N207 N 0.51631 0.15116 0.58518 0.0
H208 H 0.5122 0.2232 0.37672 0.0
H209 H 0.52812 0.21039 0.49616 0.0
H210 H 0.52504 0.13214 0.63588 0.0
H211 H 0.51754 0.17626 0.61615 0.0
H212 H 0.44095 0.09995 0.18825 0.0
H213 H 0.44708 0.14332 0.1533 0.0
H214 H 0.47055 0.06107 0.25277 0.0
H215 H 0.47069 0.04698 0.37986 0.0
C216 C 0.3419 0.5303 0.37994 0.0
C217 C 0.32022 0.50008 0.37852 0.0
C218 C 0.34883 0.47798 0.53425 0.0
C219 C 0.37196 0.50735 0.53213 0.0
N220 N 0.38273 0.56648 0.47696 0.0
N221 N 0.29522 0.45122 0.47038 0.0
C222 C 0.36563 0.53527 0.46293 0.0
C223 C 0.32102 0.47597 0.46144 0.0
N224 N 0.34081 0.55354 0.3 0.0
N225 N 0.35463 0.45098 0.60055 0.0
H226 H 0.27478 0.4491 0.41767 0.0
H227 H 0.2923 0.43504 0.53447 0.0
H228 H 0.37367 0.45182 0.65749 0.0
H229 H 0.34149 0.42704 0.59636 0.0
H230 H 0.35889 0.57379 0.2901 0.0
H231 H 0.32288 0.55135 0.23988 0.0
H232 H 0.37764 0.58887 0.43432 0.0
H233 H 0.39968 0.57073 0.53879 0.0
C234 C 0.04973 0.35624 0.32718 0.0
C235 C 0.04448 0.32252 0.37014 0.0
C236 C 0.02187 0.34881 0.52859 0.0
C237 C 0.02539 0.38234 0.48338 0.0
N238 N 0.03109 0.41633 0.32766 0.0
N239 N 0.01274 0.28736 0.49353 0.0
C240 C 0.03601 0.38566 0.37905 0.0
C241 C 0.02693 0.31881 0.46596 0.0
N242 N 0.06785 0.36035 0.23714 0.0
N243 N 0.0139 0.34552 0.63088 0.0
H244 H 0.01057 0.26695 0.44071 0.0
H245 H 0.99817 0.28358 0.56055 0.0
H246 H 0.00958 0.36701 0.67861 0.0
H247 H 0.01441 0.32167 0.66957 0.0
H248 H 0.07556 0.38474 0.20876 0.0
H249 H 0.07721 0.33936 0.19446 0.0
H250 H 0.03553 0.41924 0.24879 0.0
H251 H 0.0188 0.43758 0.36149 0.0
C252 C 0.84691 0.96911 0.00301 0.0
C253 C 0.82516 -0.00187 -0.00845 0.0
C254 C 0.86 0.01792 0.84404 0.0
C255 C 0.88534 0.99264 0.8688 0.0
N256 N 0.90535 0.94895 0.98861 0.0
N257 N 0.81094 0.05155 0.90438 0.0
C258 C 0.87929 0.96907 0.95147 0.0
C259 C 0.83147 0.02291 0.9124 0.0
N260 N 0.83694 0.94162 0.06416 0.0
N261 N 0.86289 0.03655 0.75449 0.0
H262 H 0.78951 0.0554 0.95215 0.0
H263 H 0.81646 0.0724 0.85512 0.0
H264 H 0.88301 0.03273 0.70178 0.0
H265 H 0.84368 0.05316 0.72783 0.0
H266 H 0.85063 0.91832 0.06699 0.0
H267 H 0.81325 0.94075 0.10347 0.0
H268 H 0.90291 0.93657 0.05968 0.0
H269 H 0.93026 0.9483 0.95709 0.0
C270 C 0.53524 0.82514 0.87132 0.0
C271 C 0.51335 0.82436 0.95944 0.0
C272 C 0.479 0.87209 0.88955 0.0
C273 C 0.50468 0.87713 0.8124 0.0
N274 N 0.55377 0.85654 0.71677 0.0
N275 N 0.46365 0.84531 0.05318 0.0
C276 C 0.53148 0.8526 0.79836 0.0
C277 C 0.48456 0.84687 0.96775 0.0
N278 N 0.55977 0.8 0.85876 0.0
N279 N 0.4495 0.89155 0.88829 0.0
H280 H 0.46606 0.82619 0.10999 0.0
H281 H 0.44513 0.86392 0.07095 0.0
H282 H 0.44474 0.91053 0.83279 0.0
H283 H 0.42824 0.88685 0.93629 0.0
H284 H 0.5748 0.79713 0.79266 0.0
H285 H 0.56409 0.78061 0.91352 0.0
H286 H 0.57595 0.84183 0.70548 0.0
H287 H 0.54998 0.87528 0.6595 0.0
C288 C 0.65443 0.54503 0.94087 0.0
C289 C 0.67247 0.51438 0.96732 0.0
C290 C 0.64866 0.4846 0.8143 0.0
C291 C 0.62668 0.51346 0.79723 0.0
N292 N 0.62512 0.57654 0.80594 0.0
N293 N 0.68833 0.45501 0.92982 0.0
C294 C 0.63428 0.54547 0.84919 0.0
C295 C 0.6704 0.48425 0.90345 0.0
N296 N 0.65588 0.57356 0.00447 0.0
N297 N 0.65088 0.4592 0.74058 0.0
H298 H 0.70498 0.45418 -0.00674 0.0
H299 H 0.68518 0.43099 0.89307 0.0
H300 H 0.63864 0.46146 0.66913 0.0
H301 H 0.66816 0.43859 0.74367 0.0
H302 H 0.64007 0.59518 -0.00467 0.0
H303 H 0.67103 0.5746 0.07119 0.0
H304 H 0.6319 0.60079 0.83708 0.0
H305 H 0.61587 0.57827 0.73056 0.0
C306 C 0.0419 0.66331 0.91583 0.0
C307 C 0.01302 0.67491 0.97366 0.0
C308 C 0.97374 0.63877 0.86768 0.0
C309 C 0.00307 0.62269 0.82299 0.0
N310 N 0.06502 0.61992 0.79831 0.0
N311 N 0.95118 0.67698 0.00132 0.0
C312 C 0.03717 0.63553 0.84375 0.0
C313 C 0.97873 0.664 0.9475 0.0
N314 N 0.07371 0.67903 0.9299 0.0
N315 N 0.94126 0.62977 0.83294 0.0
H316 H 0.95399 0.6966 0.05681 0.0
H317 H 0.92574 0.66772 -0.00594 0.0
H318 H 0.93729 0.61156 0.7739 0.0
H319 H 0.91859 0.64203 0.85599 0.0
H320 H 0.09536 0.67407 0.88431 0.0
H321 H 0.07777 0.69936 0.98249 0.0
H322 H 0.09076 0.62512 0.81845 0.0
H323 H 0.06235 0.60041 0.74245 0.0
C324 C 0.0456 0.14826 0.52224 0.0
C325 C 0.0259 0.16609 0.44885 0.0
C326 C 0.9787 0.12293 0.46096 0.0
C327 C 0.00124 0.10177 0.51905 0.0
N328 N 0.0557 0.09372 0.6102 0.0
N329 N 0.97073 0.17885 0.37478 0.0
C330 C 0.03434 0.11457 0.55332 0.0
C331 C 0.99099 0.15634 0.4288 0.0
N332 N 0.07543 0.16352 0.55888 0.0
N333 N 0.94675 0.11023 0.43235 0.0
H334 H 0.98027 0.20336 0.35187 0.0
H335 H 0.94453 0.17457 0.35885 0.0
H336 H 0.93754 0.08561 0.45494 0.0
H337 H 0.92987 0.12324 0.38355 0.0
H338 H 0.0902 0.15344 0.61878 0.0
H339 H 0.08349 0.18837 0.53475 0.0
H340 H 0.08114 0.10045 0.62971 0.0
H341 H 0.04871 0.0687 0.63526 0.0
C342 C 0.35389 0.04615 0.43292 0.0
C343 C 0.33616 0.0142 0.41546 0.0
C344 C 0.37735 0.98357 0.52374 0.0
C345 C 0.39981 0.0132 0.51592 0.0
N346 N 0.40724 0.07512 0.48686 0.0
N347 N 0.32556 0.954 0.45878 0.0
C348 C 0.387 0.04558 0.48022 0.0
C349 C 0.3457 0.98351 0.46803 0.0
N350 N 0.33927 0.07643 0.39973 0.0
N351 N 0.38588 0.95628 0.58615 0.0
H352 H 0.30142 0.95413 0.42221 0.0
H353 H 0.33288 0.92951 0.48506 0.0
H354 H 0.40842 0.95626 0.63054 0.0
H355 H 0.36924 0.93526 0.60194 0.0
H356 H 0.34977 0.10125 0.41282 0.0
H357 H 0.31477 0.07651 0.36499 0.0
H358 H 0.40168 0.09856 0.45028 0.0
H359 H 0.43024 0.07591 0.52902 0.0
C360 C 0.49264 0.32858 0.45285 0.0
C361 C 0.46951 0.32828 0.36831 0.0
C362 C 0.46855 0.39096 0.36563 0.0
C363 C 0.49254 0.39247 0.44915 0.0
N364 N 0.51186 0.36115 0.60211 0.0
N365 N 0.42193 0.35732 0.28728 0.0
C366 C 0.50006 0.36085 0.50279 0.0
C367 C 0.45144 0.35901 0.34519 0.0
N368 N 0.50782 0.29859 0.48441 0.0
N369 N 0.46479 0.41828 0.29892 0.0
H370 H 0.41075 0.33327 0.26643 0.0
H371 H 0.40767 0.37945 0.26899 0.0
H372 H 0.48112 0.44027 0.29948 0.0
H373 H 0.44895 0.41667 0.23374 0.0
H374 H 0.52789 0.29815 0.53838 0.0
H375 H 0.50041 0.27442 0.45468 0.0
H376 H 0.51506 0.33838 0.64493 0.0
H377 H 0.51357 0.38369 0.64666 0.0
C378 C 0.14712 0.49237 0.41881 0.0
C379 C 0.1675 0.52024 0.38108 0.0
C380 C 0.12169 0.56102 0.42929 0.0
C381 C 0.09935 0.53192 0.44671 0.0
N382 N 0.08839 0.47042 0.42376 0.0
N383 N 0.17523 0.58159 0.34807 0.0
C384 C 0.11145 0.49765 0.43059 0.0
C385 C 0.15531 0.55499 0.38733 0.0
N386 N 0.1613 0.46025 0.4323 0.0
N387 N 0.11087 0.59385 0.45272 0.0
H388 H 0.20039 0.5774 0.32077 0.0
H389 H 0.16642 0.60702 0.33956 0.0
H390 H 0.08571 0.59859 0.47901 0.0
H391 H 0.12717 0.61581 0.44981 0.0
H392 H 0.14743 0.43923 0.46409 0.0
H393 H 0.1878 0.45616 0.42066 0.0
H394 H 0.09571 0.44499 0.40594 0.0
H395 H 0.0617 0.47476 0.42391 0.0
C396 C 0.97991 0.86612 0.02757 0.0
C397 C 0.98809 0.83156 0.0002 0.0
C398 C 0.03041 0.85556 0.87654 0.0
C399 C 0.02711 0.88886 0.92369 0.0
N400 N 0.00266 0.92429 0.05774 0.0
N401 N 0.00328 0.79855 0.85019 0.0
C402 C 0.00387 0.8932 0.00633 0.0
C403 C 0.00895 0.82712 0.91106 0.0
N404 N 0.94777 0.87318 0.06507 0.0
N405 N 0.0534 0.85173 0.79724 0.0
H406 H 0.98262 0.78125 0.86517 0.0
H407 H 0.01538 0.79471 0.77927 0.0
H408 H 0.06896 0.87259 0.77156 0.0
H409 H 0.05893 0.82773 0.76355 0.0
H410 H 0.94084 0.89783 0.09004 0.0
H411 H 0.92839 0.85376 0.06884 0.0
H412 H 0.98652 0.92824 0.12124 0.0
H413 H 0.02031 0.94464 0.04251 0.0
C414 C 0.63771 0.05823 0.05287 0.0
C415 C 0.66425 0.03856 0.00428 0.0
C416 C 0.63628 0.04888 0.83931 0.0
C417 C 0.60518 0.05613 0.89267 0.0
N418 N 0.57665 0.0733 0.04891 0.0
N419 N 0.68949 0.01639 0.84613 0.0
C420 C 0.60621 0.06373 -0.0011 0.0
C421 C 0.66458 0.03527 0.89527 0.0
N422 N 0.64226 0.06986 0.1516 0.0
N423 N 0.63718 0.05226 0.73465 0.0
H424 H 0.71005 0.00471 0.88429 0.0
H425 H 0.68833 0.01029 0.76781 0.0
H426 H 0.61583 0.06179 0.69429 0.0
H427 H 0.6597 0.04912 0.69102 0.0
H428 H 0.62456 0.08573 0.18943 0.0
H429 H 0.6655 0.06614 0.19144 0.0
H430 H 0.57473 0.07508 0.12893 0.0
H431 H 0.5537 0.07838 0.00916 0.0
C432 C 0.47769 0.66538 0.88823 0.0
C433 C 0.50974 0.66691 0.94166 0.0
C434 C 0.5143 0.60404 0.93711 0.0
C435 C 0.48223 0.60158 0.88443 0.0
N436 N 0.43484 0.62912 0.79762 0.0
N437 N 0.56467 0.64046 0.97428 0.0
C438 C 0.46422 0.63219 0.85616 0.0
C439 C 0.53055 0.63699 0.94731 0.0
N440 N 0.46047 0.69559 0.8694 0.0
N441 N 0.52927 0.5746 0.97529 0.0
H442 H 0.57611 0.66509 0.98583 0.0
H443 H 0.58164 0.61951 0.97588 0.0
H444 H 0.51709 0.55008 0.96979 0.0
H445 H 0.55171 0.57511 0.02027 0.0
H446 H 0.43592 0.69673 0.83622 0.0
H447 H 0.47147 0.72 0.88599 0.0
H448 H 0.42154 0.65017 0.76703 0.0
H449 H 0.42399 0.60477 0.77871 0.0
C450 C 0.83031 0.45921 0.90034 0.0
C451 C 0.82059 0.49438 0.91139 0.0
C452 C 0.86998 0.51349 0.80795 0.0
C453 C 0.88452 0.47993 0.82328 0.0
N454 N 0.87724 0.41903 0.86636 0.0
N455 N 0.82541 0.55428 0.85982 0.0
C456 C 0.86392 0.45186 0.8616 0.0
C457 C 0.8381 0.52116 0.85674 0.0
N458 N 0.80777 0.43347 0.93161 0.0
N459 N 0.88678 0.53772 0.74749 0.0
H460 H 0.80126 0.55953 0.89285 0.0
H461 H 0.83874 0.57627 0.83256 0.0
H462 H 0.91022 0.53274 0.71005 0.0
H463 H 0.87628 0.56165 0.72725 0.0
H464 H 0.81205 0.40693 0.92117 0.0
H465 H 0.78315 0.43931 0.9603 0.0
H466 H 0.86466 0.39798 0.90178 0.0
H467 H 0.9018 0.41309 0.83764 0.0
C468 C 0.08514 0.11562 0.11139 0.0
C469 C 0.06668 0.14719 0.09834 0.0
C470 C 0.04059 0.12289 0.94173 0.0
C471 C 0.05298 0.08899 0.96736 0.0
N472 N 0.08294 0.05283 0.0909 0.0
N473 N 0.02106 0.17789 0.00964 0.0
C474 C 0.07463 0.08524 0.05531 0.0
C475 C 0.04303 0.15023 0.01533 0.0
N476 N 0.11199 0.1145 0.18005 0.0
N477 N 0.02713 0.12946 0.84635 0.0
H478 H 0.02115 0.19841 0.06247 0.0
H479 H 0.00055 0.17876 0.95719 0.0
H480 H 0.02668 0.11102 0.78731 0.0
H481 H 0.02042 0.15446 0.82225 0.0
H482 H 0.12814 0.093 0.18717 0.0
H483 H 0.12012 0.13646 0.22194 0.0
H484 H 0.09571 0.04891 0.16071 0.0
H485 H 0.07386 0.02973 0.05726 0.0
C486 C 0.3718 0.979 0.03595 0.0
C487 C 0.34739 0.00642 0.0402 0.0
C488 C 0.38012 0.03736 0.90396 0.0
C489 C 0.40696 0.01242 0.91142 0.0
N490 N 0.43113 0.96291 -0.0005 0.0
N491 N 0.33078 0.06423 0.98727 0.0
C492 C 0.40348 0.98404 0.98127 0.0
C493 C 0.35204 0.03623 0.97605 0.0
N494 N 0.36461 0.9481 0.08489 0.0
N495 N 0.38083 0.06146 0.82629 0.0
H496 H 0.3097 0.06433 0.03785 0.0
H497 H 0.33552 0.08821 0.95154 0.0
H498 H 0.40092 0.06314 0.77231 0.0
H499 H 0.36009 0.07778 0.8103 0.0
H500 H 0.37998 0.92606 0.07727 0.0
H501 H 0.34135 0.94354 0.12457 0.0
H502 H 0.4313 0.94416 0.05773 0.0
H503 H 0.4552 0.96644 0.96349 0.0
C504 C 0.51232 0.34314 0.96077 0.0
C505 C 0.48027 0.33216 0.0029 0.0
C506 C 0.45507 0.38921 0.96199 0.0
C507 C 0.48702 0.40007 0.9155 0.0
N508 N 0.54939 0.39231 0.9173 0.0
N509 N 0.41919 0.34103 0.02557 0.0
C510 C 0.51665 0.37822 0.92655 0.0
C511 C 0.45095 0.35401 -0.00379 0.0
N512 N 0.53885 0.31991 0.95561 0.0
N513 N 0.43039 0.4132 0.9861 0.0
H514 H 0.41582 0.31543 0.05186 0.0
H515 H 0.39601 0.35419 0.01415 0.0
H516 H 0.43496 0.44001 0.98251 0.0
H517 H 0.40776 0.40714 0.02684 0.0
H518 H 0.56208 0.32496 0.91666 0.0
H519 H 0.5359 0.29418 0.98136 0.0
H520 H 0.57197 0.37844 0.93126 0.0
H521 H 0.554 0.41917 0.91163 0.0
C522 C 0.14357 0.51673 -0.00919 0.0
C523 C 0.16043 0.48601 0.02419 0.0
C524 C 0.11143 0.45004 0.96043 0.0
C525 C 0.09286 0.48098 0.93781 0.0
N526 N 0.09235 0.54393 0.91927 0.0
N527 N 0.16274 0.42359 0.03591 0.0
C528 C 0.10923 0.51445 0.95003 0.0
C529 C 0.14525 0.45263 0.00556 0.0
N530 N 0.16033 0.54823 0.00439 0.0
N531 N 0.09661 0.41824 0.93769 0.0
H532 H 0.18812 0.425 0.06398 0.0
H533 H 0.15244 0.39832 0.03472 0.0
H534 H 0.07106 0.41547 0.91152 0.0
H535 H 0.10955 0.39463 0.9416 0.0
H536 H 0.14942 0.57258 -0.00701 0.0
H537 H 0.18622 0.54992 0.02827 0.0
H538 H 0.10284 0.56906 0.92169 0.0
H539 H 0.06732 0.54383 0.88893 0.0
C540 C 0.02348 0.85446 0.32563 0.0
C541 C 0.0022 0.82546 0.35397 0.0
C542 C 0.98283 0.85855 0.50381 0.0
C543 C 0.99655 0.8903 0.45953 0.0
N544 N 0.02448 0.91713 0.31042 0.0
N545 N 0.95833 0.8012 0.46612 0.0
C546 C 0.01583 0.88793 0.36596 0.0
C547 C 0.98086 0.82783 0.44207 0.0
N548 N 0.04905 0.85034 0.2537 0.0
N549 N 0.97402 0.85652 0.60576 0.0
H550 H 0.95744 0.77787 0.42435 0.0
H551 H 0.93948 0.80341 0.52357 0.0
H552 H 0.98 0.87602 0.65906 0.0
H553 H 0.96585 0.83323 0.64045 0.0
H554 H 0.06688 0.87011 0.23486 0.0
H555 H 0.05448 0.82601 0.22146 0.0
H556 H 0.03773 0.91621 0.2404 0.0
H557 H 0.01424 0.94164 0.3255 0.0
C558 C 0.65905 -0.00184 0.38664 0.0
C559 C 0.66602 0.97054 0.31718 0.0
C560 C 0.61713 0.93614 0.3882 0.0
C561 C 0.60799 0.96554 0.44865 0.0
N562 N 0.61697 0.02617 0.49588 0.0
N563 N 0.6563 0.91172 0.25913 0.0
C564 C 0.62839 0.99679 0.44662 0.0
C565 C 0.64648 0.93884 0.32074 0.0
N566 N 0.68157 0.02608 0.394 0.0
N567 N 0.5971 0.90639 0.39364 0.0
H568 H 0.67839 0.91331 0.21238 0.0
H569 H 0.6438 0.88748 0.25616 0.0
H570 H 0.57567 0.90412 0.44279 0.0
H571 H 0.60124 0.88398 0.35027 0.0
H572 H 0.68009 0.04499 0.45157 0.0
H573 H 0.70381 0.0289 0.34882 0.0
H574 H 0.62811 0.0509 0.48576 0.0
H575 H 0.59439 0.02687 0.54032 0.0
C576 C 0.48501 0.64299 0.32122 0.0
C577 C 0.51407 0.66585 0.31339 0.0
C578 C 0.55059 0.6202 0.38721 0.0
C579 C 0.52235 0.59579 0.37733 0.0
N580 N 0.46692 0.58318 0.29555 0.0
N581 N 0.57464 0.67759 0.34537 0.0
C582 C 0.49061 0.60684 0.33342 0.0
C583 C 0.54683 0.65506 0.35053 0.0
N584 N 0.45256 0.65556 0.30379 0.0
N585 N 0.58115 0.6097 0.43003 0.0
H586 H 0.57206 0.70379 0.32561 0.0
H587 H 0.60021 0.67044 0.35899 0.0
H588 H 0.58635 0.58346 0.44431 0.0
H589 H 0.60095 0.62683 0.45301 0.0
H590 H 0.43002 0.64036 0.31271 0.0
H591 H 0.44859 0.68209 0.28981 0.0
H592 H 0.44447 0.59052 0.25679 0.0
H593 H 0.4722 0.55676 0.28689 0.0
C594 C 0.84274 0.49918 0.35428 0.0
C595 C 0.84054 0.52423 0.2744 0.0
C596 C 0.89868 0.54697 0.32032 0.0
C597 C 0.89984 0.52325 0.40454 0.0
N598 N 0.86666 0.48621 0.52126 0.0
N599 N 0.86229 0.57771 0.19854 0.0
C600 C 0.86986 0.50234 0.42772 0.0
C601 C 0.86713 0.5502 0.26376 0.0
N602 N 0.82037 0.47112 0.35729 0.0
N603 N 0.92801 0.56461 0.28936 0.0
H604 H 0.83933 0.58078 0.15684 0.0
H605 H 0.87941 0.59902 0.19406 0.0
H606 H 0.95206 0.5619 0.32502 0.0
H607 H 0.92924 0.57938 0.22192 0.0
H608 H 0.82377 0.45012 0.40728 0.0
H609 H 0.80038 0.46715 0.30415 0.0
H610 H 0.84407 0.47299 0.54438 0.0
H611 H 0.88468 0.48981 0.5803 0.0
loop_
_geom_bond_atom_site_label_1
_geom_bond_atom_site_label_2
_geom_bond_distance
_geom_bond_site_symmetry_2
_ccdc_geom_bond_type
H0 C3 0.929 . S
H1 C6 0.929 . S
H2 C8 0.930 . S
C3 H0 0.929 . S
C3 C4 1.398 . S
C3 C5 1.396 1_554 S
C4 C3 1.398 . S
C4 C8 1.407 . S
C5 C3 1.396 1_556 S
C5 C6 1.394 . S
C6 H1 0.929 . S
C6 C5 1.394 . S
C6 C7 1.382 1_556 S
C7 C6 1.382 1_554 S
C7 C8 1.392 . S
C7 N9 1.420 . S
C8 H2 0.930 . S
C8 C4 1.407 . S
C8 C7 1.392 . S
N9 C7 1.420 . S
N9 C10 1.244 1_554 S
C10 N9 1.244 1_556 S
H11 C14 0.929 . S
H12 C17 0.929 1_556 S
H13 C19 0.930 . S
C14 H11 0.929 . S
C14 C15 1.398 1_655 S
C14 C16 1.396 1_655 S
C15 C14 1.398 1_455 S
C15 C19 1.407 . S
C16 C14 1.396 1_455 S
C16 C17 1.394 . S
C17 H12 0.929 1_554 S
C17 C16 1.394 . S
C17 C18 1.382 . S
C18 C17 1.382 . S
C18 C19 1.392 . S
C18 N20 1.420 . S
C19 H13 0.930 . S
C19 C15 1.407 . S
C19 C18 1.392 . S
N20 C18 1.420 . S
N20 C21 1.244 1_455 S
C21 N20 1.244 1_655 S
H22 C25 0.929 . S
H23 C28 0.929 . S
H24 C30 0.930 . S
C25 H22 0.929 . S
C25 C26 1.398 1_565 S
C25 C27 1.396 1_565 S
C26 C25 1.398 1_545 S
C26 C30 1.407 . S
C27 C25 1.396 1_545 S
C27 C28 1.394 1_554 S
C28 H23 0.929 . S
C28 C27 1.394 1_556 S
C28 C29 1.382 1_556 S
C29 C28 1.382 1_554 S
C29 C30 1.392 . S
C29 N31 1.420 . S
C30 H24 0.930 . S
C30 C26 1.407 . S
C30 C29 1.392 . S
N31 C29 1.420 . S
N31 C32 1.244 1_545 S
C32 N31 1.244 1_565 S
H33 C36 0.929 . S
H34 C39 0.929 . S
H35 C41 0.930 . S
C36 H33 0.929 . S
C36 C37 1.398 . S
C36 C38 1.396 1_554 S
C37 C36 1.398 . S
C37 C41 1.407 . S
C38 C36 1.396 1_556 S
C38 C39 1.394 . S
C39 H34 0.929 . S
C39 C38 1.394 . S
C39 C40 1.382 1_556 S
C40 C39 1.382 1_554 S
C40 C41 1.392 . S
C40 N42 1.420 . S
C41 H35 0.930 . S
C41 C37 1.407 . S
C41 C40 1.392 . S
N42 C40 1.420 . S
N42 C43 1.244 1_554 S
C43 N42 1.244 1_556 S
H44 C47 0.929 . S
H45 C50 0.929 . S
H46 C52 0.930 . S
C47 H44 0.929 . S
C47 C48 1.398 . S
C47 C49 1.396 . S
C48 C47 1.398 . S
C48 C52 1.407 . S
C49 C47 1.396 . S
C49 C50 1.394 . S
C50 H45 0.929 . S
C50 C49 1.394 . S
C50 C51 1.382 . S
C51 C50 1.382 . S
C51 C52 1.392 . S
C51 N53 1.420 . S
C52 H46 0.930 . S
C52 C48 1.407 . S
C52 C51 1.392 . S
N53 C51 1.420 . S
N53 C54 1.244 . S
C54 N53 1.244 . S
H55 C58 0.929 . S
H56 C61 0.929 . S
H57 C63 0.930 . S
C58 H55 0.929 . S
C58 C59 1.398 . S
C58 C60 1.396 . S
C59 C58 1.398 . S
C59 C63 1.407 . S
C60 C58 1.396 . S
C60 C61 1.394 . S
C61 H56 0.929 . S
C61 C60 1.394 . S
C61 C62 1.382 . S
C62 C61 1.382 . S
C62 C63 1.392 . S
C62 N64 1.420 . S
C63 H57 0.930 . S
C63 C59 1.407 . S
C63 C62 1.392 . S
N64 C62 1.420 . S
N64 C65 1.244 . S
C65 N64 1.244 . S
H66 C69 0.929 . S
H67 C72 0.929 . S
H68 C74 0.930 . S
C69 H66 0.929 . S
C69 C70 1.398 . S
C69 C71 1.396 . S
C70 C69 1.398 . S
C70 C74 1.407 . S
C71 C69 1.396 . S
C71 C72 1.394 . S
C72 H67 0.929 . S
C72 C71 1.394 . S
C72 C73 1.382 . S
C73 C72 1.382 . S
C73 C74 1.392 . S
C73 N75 1.420 . S
C74 H68 0.930 . S
C74 C70 1.407 . S
C74 C73 1.392 . S
N75 C73 1.420 . S
N75 C76 1.244 . S
C76 N75 1.244 . S
H77 C80 0.929 . S
H78 C83 0.929 . S
H79 C85 0.930 . S
C80 H77 0.929 . S
C80 C81 1.398 . S
C80 C82 1.396 . S
C81 C80 1.398 . S
C81 C85 1.407 . S
C82 C80 1.396 . S
C82 C83 1.394 . S
C83 H78 0.929 . S
C83 C82 1.394 . S
C83 C84 1.382 . S
C84 C83 1.382 . S
C84 C85 1.392 . S
C84 N86 1.420 . S
C85 H79 0.930 . S
C85 C81 1.407 . S
C85 C84 1.392 . S
N86 C84 1.420 . S
N86 C87 1.244 . S
C87 N86 1.244 . S
O88 Zn89 1.955 . S
O88 C104 1.225 1_545 S
Zn89 O88 1.955 . S
Zn89 O90 1.948 1_545 S
Zn89 O96 1.942 . S
Zn89 O101 1.897 1_545 S
O90 Zn89 1.948 1_565 S
O90 Zn91 1.899 1_465 S
O90 Zn92 1.952 . S
O90 Zn93 1.967 1_455 S
Zn91 O90 1.899 1_645 S
Zn91 O94 1.933 . S
Zn91 O97 1.941 1_655 S
Zn91 O98 1.965 . S
Zn92 O90 1.952 . S
Zn92 O99 1.938 1_565 S
Zn92 O100 1.906 . S
Zn92 O110 1.953 . S
Zn93 O90 1.967 1_655 S
Zn93 O95 1.932 . S
Zn93 O102 1.977 . S
Zn93 O103 1.910 1_655 S
O94 Zn91 1.933 . S
O94 C105 1.226 . S
O95 Zn93 1.932 . S
O95 C105 1.307 1_565 S
O96 Zn89 1.942 . S
O96 C107 1.253 . S
O97 Zn91 1.941 1_455 S
O97 C107 1.283 . S
O98 Zn91 1.965 . S
O98 C106 1.303 1_655 S
O99 Zn92 1.938 1_545 S
O99 C106 1.247 . S
O100 Zn92 1.906 . S
O100 C108 1.304 1_455 S
O101 Zn89 1.897 1_565 S
O101 C109 1.311 . S
O102 Zn93 1.977 . S
O102 C108 1.272 . S
O103 Zn93 1.910 1_455 S
O103 C109 1.231 . S
C104 O88 1.225 1_565 S
C104 O110 1.298 . S
C105 O94 1.226 . S
C105 O95 1.307 1_545 S
C106 O98 1.303 1_455 S
C106 O99 1.247 . S
C107 O96 1.253 . S
C107 O97 1.283 . S
C108 O100 1.304 1_655 S
C108 O102 1.272 . S
C109 O101 1.311 . S
C109 O103 1.231 . S
O110 Zn92 1.953 . S
O110 C104 1.298 . S
O111 Zn112 1.953 . S
O111 C127 1.225 . S
Zn112 O111 1.953 . S
Zn112 O113 1.949 . S
Zn112 O119 1.919 . S
Zn112 O124 1.924 . S
O113 Zn112 1.949 . S
O113 Zn114 1.923 1_545 S
O113 Zn115 1.950 . S
O113 Zn116 1.945 1_545 S
Zn114 O113 1.923 1_565 S
Zn114 O117 1.933 . S
Zn114 O120 1.941 . S
Zn114 O121 1.965 . S
Zn115 O113 1.950 . S
Zn115 O122 1.938 . S
Zn115 O123 1.906 . S
Zn115 O133 1.953 . S
Zn116 O113 1.945 1_565 S
Zn116 O118 1.932 . S
Zn116 O125 1.977 . S
Zn116 O126 1.910 1_565 S
O117 Zn114 1.933 . S
O117 C128 1.226 . S
O118 Zn116 1.932 . S
O118 C128 1.307 . S
O119 Zn112 1.919 . S
O119 C130 1.253 . S
O120 Zn114 1.941 . S
O120 C130 1.283 1_565 S
O121 Zn114 1.965 . S
O121 C129 1.303 1_565 S
O122 Zn115 1.938 . S
O122 C129 1.247 . S
O123 Zn115 1.906 . S
O123 C131 1.304 1_545 S
O124 Zn112 1.924 . S
O124 C132 1.311 . S
O125 Zn116 1.977 . S
O125 C131 1.272 . S
O126 Zn116 1.910 1_545 S
O126 C132 1.231 . S
C127 O111 1.225 . S
C127 O133 1.298 . S
C128 O117 1.226 . S
C128 O118 1.307 . S
C129 O121 1.303 1_545 S
C129 O122 1.247 . S
C130 O119 1.253 . S
C130 O120 1.283 1_545 S
C131 O123 1.304 1_565 S
C131 O125 1.272 . S
C132 O124 1.311 . S
C132 O126 1.231 . S
O133 Zn115 1.953 . S
O133 C127 1.298 . S
O134 Zn135 1.953 . S
O134 C150 1.225 . S
Zn135 O134 1.953 . S
Zn135 O136 1.949 . S
Zn135 O142 1.919 . S
Zn135 O147 1.924 . S
O136 Zn135 1.949 . S
O136 Zn137 1.923 . S
O136 Zn138 1.950 . S
O136 Zn139 1.945 . S
Zn137 O136 1.923 . S
Zn137 O140 1.933 . S
Zn137 O143 1.941 . S
Zn137 O144 1.965 . S
Zn138 O136 1.950 . S
Zn138 O145 1.938 . S
Zn138 O146 1.906 . S
Zn138 O156 1.953 . S
Zn139 O136 1.945 . S
Zn139 O141 1.932 . S
Zn139 O148 1.977 . S
Zn139 O149 1.910 . S
O140 Zn137 1.933 . S
O140 C151 1.226 . S
O141 Zn139 1.932 . S
O141 C151 1.307 . S
O142 Zn135 1.919 . S
O142 C153 1.253 . S
O143 Zn137 1.941 . S
O143 C153 1.283 . S
O144 Zn137 1.965 . S
O144 C152 1.303 . S
O145 Zn138 1.938 . S
O145 C152 1.247 . S
O146 Zn138 1.906 . S
O146 C154 1.304 . S
O147 Zn135 1.924 . S
O147 C155 1.311 . S
O148 Zn139 1.977 . S
O148 C154 1.272 . S
O149 Zn139 1.910 . S
O149 C155 1.231 . S
C150 O134 1.225 . S
C150 O156 1.298 . S
C151 O140 1.226 . S
C151 O141 1.307 . S
C152 O144 1.303 . S
C152 O145 1.247 . S
C153 O142 1.253 . S
C153 O143 1.283 . S
C154 O146 1.304 . S
C154 O148 1.272 . S
C155 O147 1.311 . S
C155 O149 1.231 . S
O156 Zn138 1.953 . S
O156 C150 1.298 . S
O157 Zn158 1.953 1_655 S
O157 C173 1.225 . S
Zn158 O157 1.953 1_455 S
Zn158 O159 1.949 . S
Zn158 O165 1.919 . S
Zn158 O170 1.924 . S
O159 Zn158 1.949 . S
O159 Zn160 1.917 1_455 S
O159 Zn161 1.929 1_455 S
O159 Zn162 1.973 . S
Zn160 O159 1.917 1_655 S
Zn160 O163 1.933 1_655 S
Zn160 O166 1.941 . S
Zn160 O167 1.965 . S
Zn161 O159 1.929 1_655 S
Zn161 O168 1.938 . S
Zn161 O169 1.906 . S
Zn161 O179 1.953 . S
Zn162 O159 1.973 . S
Zn162 O164 1.932 . S
Zn162 O171 1.977 . S
Zn162 O172 1.910 . S
O163 Zn160 1.933 1_455 S
O163 C174 1.226 . S
O164 Zn162 1.932 . S
O164 C174 1.307 . S
O165 Zn158 1.919 . S
O165 C176 1.253 . S
O166 Zn160 1.941 . S
O166 C176 1.283 1_655 S
O167 Zn160 1.965 . S
O167 C175 1.303 . S
O168 Zn161 1.938 . S
O168 C175 1.247 . S
O169 Zn161 1.906 . S
O169 C177 1.304 1_655 S
O170 Zn158 1.924 . S
O170 C178 1.311 . S
O171 Zn162 1.977 . S
O171 C177 1.272 . S
O172 Zn162 1.910 . S
O172 C178 1.231 . S
C173 O157 1.225 . S
C173 O179 1.298 . S
C174 O163 1.226 . S
C174 O164 1.307 . S
C175 O167 1.303 . S
C175 O168 1.247 . S
C176 O165 1.253 . S
C176 O166 1.283 1_455 S
C177 O169 1.304 1_455 S
C177 O171 1.272 . S
C178 O170 1.311 . S
C178 O172 1.231 . S
O179 Zn161 1.953 . S
O179 C173 1.298 . S
C180 C181 1.363 1_565 S
C180 C186 1.379 . S
C180 N188 1.356 . S
C181 C180 1.363 1_545 S
C181 C187 1.363 . S
C182 C183 1.363 1_545 S
C182 C187 1.379 . S
C182 N189 1.356 . S
C183 C182 1.363 1_565 S
C183 C186 1.363 . S
N184 C186 1.356 . S
N184 H196 0.984 . S
N184 H197 0.985 . S
N185 C187 1.356 . S
N185 H190 0.984 . S
N185 H191 0.985 . S
C186 C180 1.379 . S
C186 C183 1.363 . S
C186 N184 1.356 . S
C187 C181 1.363 . S
C187 C182 1.379 . S
C187 N185 1.356 . S
N188 C180 1.356 . S
N188 H194 0.984 . S
N188 H195 0.984 . S
N189 C182 1.356 . S
N189 H192 0.984 . S
N189 H193 0.985 . S
H190 N185 0.984 . S
H191 N185 0.985 . S
H192 N189 0.984 . S
H193 N189 0.985 . S
H194 N188 0.984 . S
H195 N188 0.984 . S
H196 N184 0.984 . S
H197 N184 0.985 . S
C198 C199 1.363 . S
C198 C204 1.379 . S
C198 N206 1.356 . S
C199 C198 1.363 . S
C199 C205 1.363 . S
C200 C201 1.363 . S
C200 C205 1.379 . S
C200 N207 1.356 . S
C201 C200 1.363 . S
C201 C204 1.363 . S
N202 C204 1.356 . S
N202 H214 0.984 . S
N202 H215 0.985 . S
N203 C205 1.356 . S
N203 H208 0.984 . S
N203 H209 0.985 . S
C204 C198 1.379 . S
C204 C201 1.363 . S
C204 N202 1.356 . S
C205 C199 1.363 . S
C205 C200 1.379 . S
C205 N203 1.356 . S
N206 C198 1.356 . S
N206 H212 0.984 . S
N206 H213 0.984 . S
N207 C200 1.356 . S
N207 H210 0.984 . S
N207 H211 0.985 . S
H208 N203 0.984 . S
H209 N203 0.985 . S
H210 N207 0.984 . S
H211 N207 0.985 . S
H212 N206 0.984 . S
H213 N206 0.984 . S
H214 N202 0.984 . S
H215 N202 0.985 . S
C216 C217 1.363 . S
C216 C222 1.379 . S
C216 N224 1.356 . S
C217 C216 1.363 . S
C217 C223 1.363 . S
C218 C219 1.363 . S
C218 C223 1.379 . S
C218 N225 1.356 . S
C219 C218 1.363 . S
C219 C222 1.363 . S
N220 C222 1.356 . S
N220 H232 0.984 . S
N220 H233 0.985 . S
N221 C223 1.356 . S
N221 H226 0.984 . S
N221 H227 0.985 . S
C222 C216 1.379 . S
C222 C219 1.363 . S
C222 N220 1.356 . S
C223 C217 1.363 . S
C223 C218 1.379 . S
C223 N221 1.356 . S
N224 C216 1.356 . S
N224 H230 0.984 . S
N224 H231 0.984 . S
N225 C218 1.356 . S
N225 H228 0.984 . S
N225 H229 0.985 . S
H226 N221 0.984 . S
H227 N221 0.985 . S
H228 N225 0.984 . S
H229 N225 0.985 . S
H230 N224 0.984 . S
H231 N224 0.984 . S
H232 N220 0.984 . S
H233 N220 0.985 . S
C234 C235 1.363 . S
C234 C240 1.379 . S
C234 N242 1.356 . S
C235 C234 1.363 . S
C235 C241 1.363 . S
C236 C237 1.363 . S
C236 C241 1.379 . S
C236 N243 1.356 1_455 S
C237 C236 1.363 . S
C237 C240 1.363 . S
N238 C240 1.356 . S
N238 H250 0.984 . S
N238 H251 0.985 . S
N239 C241 1.356 . S
N239 H244 0.984 . S
N239 H245 0.985 . S
C240 C234 1.379 . S
C240 C237 1.363 . S
C240 N238 1.356 . S
C241 C235 1.363 . S
C241 C236 1.379 . S
C241 N239 1.356 . S
N242 C234 1.356 . S
N242 H248 0.984 . S
N242 H249 0.984 . S
N243 C236 1.356 1_655 S
N243 H246 0.984 . S
N243 H247 0.985 . S
H244 N239 0.984 . S
H245 N239 0.985 . S
H246 N243 0.984 . S
H247 N243 0.985 . S
H248 N242 0.984 . S
H249 N242 0.984 . S
H250 N238 0.984 . S
H251 N238 0.985 . S
C252 C253 1.367 . S
C252 C258 1.379 . S
C252 N260 1.356 1_556 S
C253 C252 1.367 . S
C253 C259 1.359 1_565 S
C254 C255 1.363 . S
C254 C259 1.379 . S
C254 N261 1.356 . S
C255 C254 1.363 . S
C255 C258 1.363 1_545 S
N256 C258 1.356 . S
N256 H268 0.984 . S
N256 H269 0.985 . S
N257 C259 1.356 . S
N257 H262 0.984 . S
N257 H263 0.985 . S
C258 C252 1.379 . S
C258 C255 1.363 1_565 S
C258 N256 1.356 . S
C259 C253 1.359 1_545 S
C259 C254 1.379 . S
C259 N257 1.356 . S
N260 C252 1.356 1_554 S
N260 H266 0.984 . S
N260 H267 0.984 . S
N261 C254 1.356 . S
N261 H264 0.984 . S
N261 H265 0.985 . S
H262 N257 0.984 . S
H263 N257 0.985 . S
H264 N261 0.984 . S
H265 N261 0.985 . S
H266 N260 0.984 . S
H267 N260 0.984 . S
H268 N256 0.984 . S
H269 N256 0.985 . S
C270 C271 1.363 . S
C270 C276 1.379 . S
C270 N278 1.356 . S
C271 C270 1.363 . S
C271 C277 1.363 . S
C272 C273 1.363 . S
C272 C277 1.379 . S
C272 N279 1.356 . S
C273 C272 1.363 . S
C273 C276 1.363 . S
N274 C276 1.356 . S
N274 H286 0.984 . S
N274 H287 0.985 . S
N275 C277 1.356 1_554 S
N275 H280 0.984 . S
N275 H281 0.985 . S
C276 C270 1.379 . S
C276 C273 1.363 . S
C276 N274 1.356 . S
C277 C271 1.363 . S
C277 C272 1.379 . S
C277 N275 1.356 1_556 S
N278 C270 1.356 . S
N278 H284 0.984 . S
N278 H285 0.984 . S
N279 C272 1.356 . S
N279 H282 0.984 . S
N279 H283 0.985 . S
H280 N275 0.984 . S
H281 N275 0.985 . S
H282 N279 0.984 . S
H283 N279 0.985 . S
H284 N278 0.984 . S
H285 N278 0.984 . S
H286 N274 0.984 . S
H287 N274 0.985 . S
C288 C289 1.363 . S
C288 C294 1.379 . S
C288 N296 1.356 . S
C289 C288 1.363 . S
C289 C295 1.363 . S
C290 C291 1.363 . S
C290 C295 1.379 . S
C290 N297 1.356 . S
C291 C290 1.363 . S
C291 C294 1.363 . S
N292 C294 1.356 . S
N292 H304 0.984 . S
N292 H305 0.985 . S
N293 C295 1.356 . S
N293 H298 0.984 . S
N293 H299 0.985 . S
C294 C288 1.379 . S
C294 C291 1.363 . S
C294 N292 1.356 . S
C295 C289 1.363 . S
C295 C290 1.379 . S
C295 N293 1.356 . S
N296 C288 1.356 . S
N296 H302 0.984 . S
N296 H303 0.984 1_556 S
N297 C290 1.356 . S
N297 H300 0.984 . S
N297 H301 0.985 . S
H298 N293 0.984 . S
H299 N293 0.985 . S
H300 N297 0.984 . S
H301 N297 0.985 . S
H302 N296 0.984 . S
H303 N296 0.984 1_554 S
H304 N292 0.984 . S
H305 N292 0.985 . S
C306 C307 1.333 1_455 S
C306 C312 1.379 . S
C306 N314 1.356 . S
C307 C306 1.333 1_655 S
C307 C313 1.390 . S
C308 C309 1.363 1_655 S
C308 C313 1.379 . S
C308 N315 1.356 . S
C309 C308 1.363 1_455 S
C309 C312 1.363 . S
N310 C312 1.356 . S
N310 H322 0.984 . S
N310 H323 0.985 . S
N311 C313 1.356 . S
N311 H316 0.984 1_556 S
N311 H317 0.985 . S
C312 C306 1.379 . S
C312 C309 1.363 . S
C312 N310 1.356 . S
C313 C307 1.390 . S
C313 C308 1.379 . S
C313 N311 1.356 . S
N314 C306 1.356 . S
N314 H320 0.984 . S
N314 H321 0.984 1_556 S
N315 C308 1.356 . S
N315 H318 0.984 . S
N315 H319 0.985 . S
H316 N311 0.984 1_554 S
H317 N311 0.985 . S
H318 N315 0.984 . S
H319 N315 0.985 . S
H320 N314 0.984 . S
H321 N314 0.984 1_554 S
H322 N310 0.984 . S
H323 N310 0.985 . S
C324 C325 1.363 . S
C324 C330 1.379 . S
C324 N332 1.356 . S
C325 C324 1.363 . S
C325 C331 1.363 . S
C326 C327 1.363 . S
C326 C331 1.379 . S
C326 N333 1.356 1_455 S
C327 C326 1.363 . S
C327 C330 1.363 . S
N328 C330 1.356 . S
N328 H340 0.984 . S
N328 H341 0.985 . S
N329 C331 1.356 . S
N329 H334 0.984 . S
N329 H335 0.985 . S
C330 C324 1.379 . S
C330 C327 1.363 . S
C330 N328 1.356 . S
C331 C325 1.363 . S
C331 C326 1.379 . S
C331 N329 1.356 . S
N332 C324 1.356 . S
N332 H338 0.984 . S
N332 H339 0.984 . S
N333 C326 1.356 1_655 S
N333 H336 0.984 . S
N333 H337 0.985 . S
H334 N329 0.984 . S
H335 N329 0.985 . S
H336 N333 0.984 . S
H337 N333 0.985 . S
H338 N332 0.984 . S
H339 N332 0.984 . S
H340 N328 0.984 . S
H341 N328 0.985 . S
C342 C343 1.363 . S
C342 C348 1.379 . S
C342 N350 1.356 . S
C343 C342 1.363 . S
C343 C349 1.363 1_545 S
C344 C345 1.363 1_565 S
C344 C349 1.379 . S
C344 N351 1.356 . S
C345 C344 1.363 1_545 S
C345 C348 1.363 . S
N346 C348 1.356 . S
N346 H358 0.984 . S
N346 H359 0.985 . S
N347 C349 1.356 . S
N347 H352 0.984 . S
N347 H353 0.985 . S
C348 C342 1.379 . S
C348 C345 1.363 . S
C348 N346 1.356 . S
C349 C343 1.363 1_565 S
C349 C344 1.379 . S
C349 N347 1.356 . S
N350 C342 1.356 . S
N350 H356 0.984 . S
N350 H357 0.984 . S
N351 C344 1.356 . S
N351 H354 0.984 . S
N351 H355 0.985 . S
H352 N347 0.984 . S
H353 N347 0.985 . S
H354 N351 0.984 . S
H355 N351 0.985 . S
H356 N350 0.984 . S
H357 N350 0.984 . S
H358 N346 0.984 . S
H359 N346 0.985 . S
C360 C361 1.363 . S
C360 C366 1.379 . S
C360 N368 1.356 . S
C361 C360 1.363 . S
C361 C367 1.363 . S
C362 C363 1.363 . S
C362 C367 1.379 . S
C362 N369 1.356 . S
C363 C362 1.363 . S
C363 C366 1.363 . S
N364 C366 1.356 . S
N364 H376 0.984 . S
N364 H377 0.985 . S
N365 C367 1.356 . S
N365 H370 0.984 . S
N365 H371 0.985 . S
C366 C360 1.379 . S
C366 C363 1.363 . S
C366 N364 1.356 . S
C367 C361 1.363 . S
C367 C362 1.379 . S
C367 N365 1.356 . S
N368 C360 1.356 . S
N368 H374 0.984 . S
N368 H375 0.984 . S
N369 C362 1.356 . S
N369 H372 0.984 . S
N369 H373 0.985 . S
H370 N365 0.984 . S
H371 N365 0.985 . S
H372 N369 0.984 . S
H373 N369 0.985 . S
H374 N368 0.984 . S
H375 N368 0.984 . S
H376 N364 0.984 . S
H377 N364 0.985 . S
C378 C379 1.363 . S
C378 C384 1.379 . S
C378 N386 1.356 . S
C379 C378 1.363 . S
C379 C385 1.363 . S
C380 C381 1.363 . S
C380 C385 1.379 . S
C380 N387 1.356 . S
C381 C380 1.363 . S
C381 C384 1.363 . S
N382 C384 1.356 . S
N382 H394 0.984 . S
N382 H395 0.985 . S
N383 C385 1.356 . S
N383 H388 0.984 . S
N383 H389 0.985 . S
C384 C378 1.379 . S
C384 C381 1.363 . S
C384 N382 1.356 . S
C385 C379 1.363 . S
C385 C380 1.379 . S
C385 N383 1.356 . S
N386 C378 1.356 . S
N386 H392 0.984 . S
N386 H393 0.984 . S
N387 C380 1.356 . S
N387 H390 0.984 . S
N387 H391 0.985 . S
H388 N383 0.984 . S
H389 N383 0.985 . S
H390 N387 0.984 . S
H391 N387 0.985 . S
H392 N386 0.984 . S
H393 N386 0.984 . S
H394 N382 0.984 . S
H395 N382 0.985 . S
C396 C397 1.363 1_554 S
C396 C402 1.379 . S
C396 N404 1.356 1_455 S
C397 C396 1.363 1_556 S
C397 C403 1.363 . S
C398 C399 1.363 . S
C398 C403 1.379 . S
C398 N405 1.356 . S
C399 C398 1.363 . S
C399 C402 1.363 1_556 S
N400 C402 1.356 . S
N400 H412 0.984 . S
N400 H413 0.984 1_554 S
N401 C403 1.356 . S
N401 H406 0.984 1_455 S
N401 H407 0.985 . S
C402 C396 1.379 . S
C402 C399 1.363 1_554 S
C402 N400 1.356 . S
C403 C397 1.363 . S
C403 C398 1.379 . S
C403 N401 1.356 . S
N404 C396 1.356 1_655 S
N404 H410 0.984 . S
N404 H411 0.984 . S
N405 C398 1.356 . S
N405 H408 0.984 . S
N405 H409 0.985 . S
H406 N401 0.984 1_655 S
H407 N401 0.985 . S
H408 N405 0.984 . S
H409 N405 0.985 . S
H410 N404 0.984 . S
H411 N404 0.984 . S
H412 N400 0.984 . S
H413 N400 0.984 1_556 S
C414 C415 1.363 1_554 S
C414 C420 1.379 1_554 S
C414 N422 1.356 . S
C415 C414 1.363 1_556 S
C415 C421 1.363 . S
C416 C417 1.363 . S
C416 C421 1.379 . S
C416 N423 1.356 . S
C417 C416 1.363 . S
C417 C420 1.363 . S
N418 C420 1.356 1_554 S
N418 H430 0.984 . S
N418 H431 0.985 1_554 S
N419 C421 1.356 1_565 S
N419 H424 0.984 . S
N419 H425 0.983 1_565 S
C420 C414 1.379 1_556 S
C420 C417 1.363 . S
C420 N418 1.356 1_556 S
C421 C415 1.363 . S
C421 C416 1.379 . S
C421 N419 1.356 1_545 S
N422 C414 1.356 . S
N422 H428 0.984 . S
N422 H429 0.984 1_545 S
N423 C416 1.356 . S
N423 H426 0.984 . S
N423 H427 0.985 . S
H424 N419 0.984 . S
H425 N419 0.983 1_545 S
H426 N423 0.984 . S
H427 N423 0.985 . S
H428 N422 0.984 . S
H429 N422 0.984 1_565 S
H430 N418 0.984 . S
H431 N418 0.985 1_556 S
C432 C433 1.363 . S
C432 C438 1.379 . S
C432 N440 1.356 . S
C433 C432 1.363 . S
C433 C439 1.363 . S
C434 C435 1.363 . S
C434 C439 1.379 . S
C434 N441 1.356 . S
C435 C434 1.363 . S
C435 C438 1.363 . S
N436 C438 1.356 . S
N436 H448 0.984 . S
N436 H449 0.985 . S
N437 C439 1.356 1_554 S
N437 H442 0.984 . S
N437 H443 0.985 . S
C438 C432 1.379 . S
C438 C435 1.363 . S
C438 N436 1.356 . S
C439 C433 1.363 . S
C439 C434 1.379 . S
C439 N437 1.356 1_556 S
N440 C432 1.356 . S
N440 H446 0.984 . S
N440 H447 0.984 . S
N441 C434 1.356 . S
N441 H444 0.984 . S
N441 H445 0.985 1_556 S
H442 N437 0.984 . S
H443 N437 0.985 . S
H444 N441 0.984 . S
H445 N441 0.985 1_554 S
H446 N440 0.984 . S
H447 N440 0.984 . S
H448 N436 0.984 . S
H449 N436 0.985 . S
C450 C451 1.363 . S
C450 C456 1.379 . S
C450 N458 1.356 . S
C451 C450 1.363 . S
C451 C457 1.363 . S
C452 C453 1.363 . S
C452 C457 1.379 . S
C452 N459 1.356 . S
C453 C452 1.363 . S
C453 C456 1.363 . S
N454 C456 1.356 . S
N454 H466 0.984 . S
N454 H467 0.985 . S
N455 C457 1.356 . S
N455 H460 0.984 . S
N455 H461 0.985 . S
C456 C450 1.379 . S
C456 C453 1.363 . S
C456 N454 1.356 . S
C457 C451 1.363 . S
C457 C452 1.379 . S
C457 N455 1.356 . S
N458 C450 1.356 . S
N458 H464 0.984 . S
N458 H465 0.984 . S
N459 C452 1.356 . S
N459 H462 0.984 . S
N459 H463 0.985 . S
H460 N455 0.984 . S
H461 N455 0.985 . S
H462 N459 0.984 . S
H463 N459 0.985 . S
H464 N458 0.984 . S
H465 N458 0.984 . S
H466 N454 0.984 . S
H467 N454 0.985 . S
C468 C469 1.363 . S
C468 C474 1.379 . S
C468 N476 1.356 . S
C469 C468 1.363 . S
C469 C475 1.363 . S
C470 C471 1.363 1_556 S
C470 C475 1.379 1_556 S
C470 N477 1.346 1_455 S
C471 C470 1.363 1_554 S
C471 C474 1.363 . S
N472 C474 1.356 . S
N472 H484 0.984 . S
N472 H485 0.985 . S
N473 C475 1.356 . S
N473 H478 0.984 . S
N473 H479 0.985 1_554 S
C474 C468 1.379 . S
C474 C471 1.363 . S
C474 N472 1.356 . S
C475 C469 1.363 . S
C475 C470 1.379 1_554 S
C475 N473 1.356 . S
N476 C468 1.356 . S
N476 H482 0.984 . S
N476 H483 0.984 . S
N477 C470 1.346 1_655 S
N477 H480 0.986 . S
N477 H481 0.994 . S
H478 N473 0.984 . S
H479 N473 0.985 1_556 S
H480 N477 0.986 . S
H481 N477 0.994 . S
H482 N476 0.984 . S
H483 N476 0.984 . S
H484 N472 0.984 . S
H485 N472 0.985 . S
C486 C487 1.363 1_565 S
C486 C492 1.379 . S
C486 N494 1.356 . S
C487 C486 1.363 1_545 S
C487 C493 1.363 . S
C488 C489 1.363 . S
C488 C493 1.379 1_556 S
C488 N495 1.356 . S
C489 C488 1.363 . S
C489 C492 1.363 1_546 S
N490 C492 1.356 . S
N490 H502 0.984 . S
N490 H503 0.985 . S
N491 C493 1.356 . S
N491 H496 0.984 . S
N491 H497 0.985 1_554 S
C492 C486 1.379 . S
C492 C489 1.363 1_564 S
C492 N490 1.356 . S
C493 C487 1.363 . S
C493 C488 1.379 1_554 S
C493 N491 1.356 . S
N494 C486 1.356 . S
N494 H500 0.984 . S
N494 H501 0.984 . S
N495 C488 1.356 . S
N495 H498 0.984 . S
N495 H499 0.985 . S
H496 N491 0.984 . S
H497 N491 0.985 1_556 S
H498 N495 0.984 . S
H499 N495 0.985 . S
H500 N494 0.984 . S
H501 N494 0.984 . S
H502 N490 0.984 . S
H503 N490 0.985 . S
C504 C505 1.363 1_556 S
C504 C510 1.379 . S
C504 N512 1.356 . S
C505 C504 1.363 1_554 S
C505 C511 1.363 . S
C506 C507 1.363 1_554 S
C506 C511 1.379 . S
C506 N513 1.356 . S
C507 C506 1.363 1_556 S
C507 C510 1.363 . S
N508 C510 1.356 . S
N508 H520 0.984 . S
N508 H521 0.985 . S
N509 C511 1.356 . S
N509 H514 0.984 . S
N509 H515 0.985 . S
C510 C504 1.379 . S
C510 C507 1.363 . S
C510 N508 1.356 . S
C511 C505 1.363 . S
C511 C506 1.379 . S
C511 N509 1.356 . S
N512 C504 1.356 . S
N512 H518 0.984 . S
N512 H519 0.984 1_556 S
N513 C506 1.356 . S
N513 H516 0.984 1_554 S
N513 H517 0.985 . S
H514 N509 0.984 . S
H515 N509 0.985 . S
H516 N513 0.984 1_556 S
H517 N513 0.985 . S
H518 N512 0.984 . S
H519 N512 0.984 1_554 S
H520 N508 0.984 . S
H521 N508 0.985 . S
C522 C523 1.363 . S
C522 C528 1.379 . S
C522 N530 1.356 . S
C523 C522 1.363 . S
C523 C529 1.363 . S
C524 C525 1.363 . S
C524 C529 1.379 1_556 S
C524 N531 1.356 . S
C525 C524 1.363 . S
C525 C528 1.363 1_556 S
N526 C528 1.356 1_556 S
N526 H538 0.984 1_556 S
N526 H539 0.985 . S
N527 C529 1.356 . S
N527 H532 0.984 . S
N527 H533 0.985 . S
C528 C522 1.379 . S
C528 C525 1.363 1_554 S
C528 N526 1.356 1_554 S
C529 C523 1.363 . S
C529 C524 1.379 1_554 S
C529 N527 1.356 . S
N530 C522 1.356 . S
N530 H536 0.984 . S
N530 H537 0.984 . S
N531 C524 1.356 . S
N531 H534 0.984 . S
N531 H535 0.985 . S
H532 N527 0.984 . S
H533 N527 0.985 . S
H534 N531 0.984 . S
H535 N531 0.985 . S
H536 N530 0.984 . S
H537 N530 0.984 . S
H538 N526 0.984 1_554 S
H539 N526 0.985 . S
C540 C541 1.363 . S
C540 C546 1.379 . S
C540 N548 1.356 1_655 S
C541 C540 1.363 . S
C541 C547 1.363 . S
C542 C543 1.363 . S
C542 C547 1.379 . S
C542 N549 1.356 . S
C543 C542 1.363 . S
C543 C546 1.363 . S
N544 C546 1.356 . S
N544 H556 0.984 . S
N544 H557 0.985 . S
N545 C547 1.356 . S
N545 H550 0.984 . S
N545 H551 0.985 . S
C546 C540 1.379 . S
C546 C543 1.363 . S
C546 N544 1.356 . S
C547 C541 1.363 . S
C547 C542 1.379 . S
C547 N545 1.356 . S
N548 C540 1.356 1_455 S
N548 H554 0.984 . S
N548 H555 0.984 . S
N549 C542 1.356 . S
N549 H552 0.984 . S
N549 H553 0.985 . S
H550 N545 0.984 . S
H551 N545 0.985 . S
H552 N549 0.984 . S
H553 N549 0.985 . S
H554 N548 0.984 . S
H555 N548 0.984 . S
H556 N544 0.984 . S
H557 N544 0.985 . S
C558 C559 1.363 1_545 S
C558 C564 1.379 . S
C558 N566 1.356 . S
C559 C558 1.363 1_565 S
C559 C565 1.363 . S
C560 C561 1.363 . S
C560 C565 1.379 . S
C560 N567 1.356 . S
C561 C560 1.363 . S
C561 C564 1.363 1_565 S
N562 C564 1.356 . S
N562 H574 0.984 . S
N562 H575 0.985 . S
N563 C565 1.356 . S
N563 H568 0.984 . S
N563 H569 0.985 . S
C564 C558 1.379 . S
C564 C561 1.363 1_545 S
C564 N562 1.356 . S
C565 C559 1.363 . S
C565 C560 1.379 . S
C565 N563 1.356 . S
N566 C558 1.356 . S
N566 H572 0.984 . S
N566 H573 0.984 . S
N567 C560 1.356 . S
N567 H570 0.984 . S
N567 H571 0.985 . S
H568 N563 0.984 . S
H569 N563 0.985 . S
H570 N567 0.984 . S
H571 N567 0.985 . S
H572 N566 0.984 . S
H573 N566 0.984 . S
H574 N562 0.984 . S
H575 N562 0.985 . S
C576 C577 1.363 . S
C576 C582 1.379 . S
C576 N584 1.356 . S
C577 C576 1.363 . S
C577 C583 1.363 . S
C578 C579 1.363 . S
C578 C583 1.379 . S
C578 N585 1.356 . S
C579 C578 1.363 . S
C579 C582 1.363 . S
N580 C582 1.356 . S
N580 H592 0.984 . S
N580 H593 0.985 . S
N581 C583 1.356 . S
N581 H586 0.984 . S
N581 H587 0.985 . S
C582 C576 1.379 . S
C582 C579 1.363 . S
C582 N580 1.356 . S
C583 C577 1.363 . S
C583 C578 1.379 . S
C583 N581 1.356 . S
N584 C576 1.356 . S
N584 H590 0.984 . S
N584 H591 0.984 . S
N585 C578 1.356 . S
N585 H588 0.984 . S
N585 H589 0.985 . S
H586 N581 0.984 . S
H587 N581 0.985 . S
H588 N585 0.984 . S
H589 N585 0.985 . S
H590 N584 0.984 . S
H591 N584 0.984 . S
H592 N580 0.984 . S
H593 N580 0.985 . S
C594 C595 1.363 . S
C594 C600 1.379 . S
C594 N602 1.356 . S
C595 C594 1.363 . S
C595 C601 1.363 . S
C596 C597 1.363 . S
C596 C601 1.379 . S
C596 N603 1.356 . S
C597 C596 1.363 . S
C597 C600 1.363 . S
N598 C600 1.356 . S
N598 H610 0.984 . S
N598 H611 0.985 . S
N599 C601 1.356 . S
N599 H604 0.984 . S
N599 H605 0.985 . S
C600 C594 1.379 . S
C600 C597 1.363 . S
C600 N598 1.356 . S
C601 C595 1.363 . S
C601 C596 1.379 . S
C601 N599 1.356 . S
N602 C594 1.356 . S
N602 H608 0.984 . S
N602 H609 0.984 . S
N603 C596 1.356 . S
N603 H606 0.984 . S
N603 H607 0.985 . S
H604 N599 0.984 . S
H605 N599 0.985 . S
H606 N603 0.984 . S
H607 N603 0.985 . S
H608 N602 0.984 . S
H609 N602 0.984 . S
H610 N598 0.984 . S
H611 N598 0.985 . S
C181 C76 1.587 . S
C183 C104 1.618 . S
C201 C127 1.643 . S
C199 C87 1.609 . S
C219 C150 1.640 . S
C217 C54 1.609 . S
C237 C177 1.521 . S
C235 C65 1.583 . S
C255 C105 1.566 . S
C253 C32 1.537 1_556 S
C271 C43 1.499 . S
C273 C128 1.532 . S
C289 C10 1.497 . S
C291 C151 1.523 . S
C307 C21 1.572 1_556 S
C309 C176 1.590 . S
C327 C106 0.756 . S
C325 C60 0.752 . S
C345 C129 0.721 . S
C343 C71 0.726 . S
C363 C152 0.746 . S
C361 C82 0.747 . S
C379 C49 0.895 . S
C381 C178 0.870 . S
C397 C16 0.998 1_556 S
C399 C109 0.953 . S
C417 C132 0.942 . S
C415 C27 0.994 1_556 S
C435 C155 0.919 . S
C433 C38 0.967 . S
C451 C5 0.727 . S
C453 C175 0.726 . S
C469 C59 1.569 . S
C471 C107 1.546 1_554 S
C487 C70 1.526 . S
C489 C130 1.531 . S
C507 C153 1.544 . S
C505 C81 1.543 . S
C525 C174 1.461 . S
C523 C48 1.400 . S
C541 C15 1.648 1_655 S
C543 C108 1.566 . S
C561 C131 1.518 . S
C559 C26 1.608 1_565 S
C579 C154 1.504 . S
C577 C37 1.584 . S
C595 C4 1.645 . S
C597 C173 1.698 . S
