# Generated by pormake.
# Topology ftw, (4,12)-cn, num edge types: 1
# Building blocks:
#     Node 0, Type 0, BuildingBlock: AZAVOO_clean_linker_0, # of connection points: 4
#     Node 1, Type 0, BuildingBlock: AZAVOO_clean_linker_0, # of connection points: 4
#     Node 2, Type 0, BuildingBlock: AZAVOO_clean_linker_0, # of connection points: 4
#     Node 3, Type 1, BuildingBlock: EZIPEK_clean_sbu_0, # of connection points: 12
#     Edge 4, Type (0, 1), BuildingBlock: KIFKEQ_clean_linker_1, # of connection points: 2
#     Edge 5, Type (0, 1), BuildingBlock: KIFKEQ_clean_linker_1, # of connection points: 2
#     Edge 6, Type (0, 1), BuildingBlock: KIFKEQ_clean_linker_1, # of connection points: 2
#     Edge 7, Type (0, 1), BuildingBlock: KIFKEQ_clean_linker_1, # of connection points: 2
#     Edge 8, Type (0, 1), BuildingBlock: KIFKEQ_clean_linker_1, # of connection points: 2
#     Edge 9, Type (0, 1), BuildingBlock: KIFKEQ_clean_linker_1, # of connection points: 2
#     Edge 10, Type (0, 1), BuildingBlock: KIFKEQ_clean_linker_1, # of connection points: 2
#     Edge 11, Type (0, 1), BuildingBlock: KIFKEQ_clean_linker_1, # of connection points: 2
#     Edge 12, Type (0, 1), BuildingBlock: KIFKEQ_clean_linker_1, # of connection points: 2
#     Edge 13, Type (0, 1), BuildingBlock: KIFKEQ_clean_linker_1, # of connection points: 2
#     Edge 14, Type (0, 1), BuildingBlock: KIFKEQ_clean_linker_1, # of connection points: 2
#     Edge 15, Type (0, 1), BuildingBlock: KIFKEQ_clean_linker_1, # of connection points: 2
# Relax obj value: 0.052
# Max RMSD: 0.221
# Mean RMSD: 0.170
data_MOF--net-ftw--node1-EZIPEK_clean_sbu_0--node2-AZAVOO_clean_linker_0--edge1-KIFKEQ_clean_linker_1
_symmetry_space_group_name_H-M    P1
_symmetry_Int_Tables_number       1
_symmetry_cell_setting            triclinic
loop_
_symmetry_equiv_pos_as_xyz
'x, y, z'
_cell_length_a     28.51774
_cell_length_b     28.486833
_cell_length_c     28.497817
_cell_angle_alpha  91.401081
_cell_angle_beta   88.602521
_cell_angle_gamma 91.404848
loop_
_atom_site_label
_atom_site_type_symbol
_atom_site_fract_x
_atom_site_fract_y
_atom_site_fract_z
_atom_type_partial_charge
H0 H 0.04668 0.19926 0.4144 0.0
H1 H 0.93321 0.59261 0.79785 0.0
H2 H 0.07764 0.4572 0.4097 0.0
H3 H 0.08175 0.39919 0.34553 0.0
H4 H 0.93207 0.40801 0.3285 0.0
H5 H 0.92834 0.46569 0.39356 0.0
H6 H 0.0702 0.39019 0.49234 0.0
H7 H 0.07391 0.30844 0.464 0.0
H8 H 0.92691 0.31074 0.43041 0.0
H9 H 0.92369 0.39226 0.45917 0.0
H10 H 0.0615 0.44571 0.60073 0.0
H11 H 0.06061 0.38706 0.66241 0.0
H12 H 0.92403 0.33685 0.61901 0.0
H13 H 0.92385 0.39727 0.55893 0.0
H14 H 0.06328 0.54118 0.60651 0.0
H15 H 0.05778 0.5713 0.68754 0.0
H16 H 0.90829 0.54165 0.68947 0.0
H17 H 0.91438 0.51159 0.60832 0.0
H18 H 0.0679 0.60299 0.52896 0.0
H19 H 0.06924 0.66903 0.58559 0.0
H20 H 0.91803 0.66014 0.59826 0.0
H21 H 0.91712 0.5945 0.54158 0.0
H22 H 0.07063 0.55861 0.41341 0.0
H23 H 0.07195 0.61777 0.35224 0.0
H24 H 0.92465 0.64165 0.37973 0.0
H25 H 0.92365 0.58214 0.44046 0.0
O26 O 0.04417 0.23114 0.42661 0.0
O27 O 0.96872 0.2345 0.40933 0.0
O28 O 0.01344 0.59477 0.76316 0.0
O29 O 0.93654 0.57977 0.76624 0.0
C30 C 0.99787 0.48201 0.45577 0.0
C31 C 0.99557 0.44776 0.49102 0.0
C32 C 0.99314 0.46164 0.53871 0.0
C33 C 0.99212 0.50968 0.55128 0.0
C34 C 0.99317 0.54397 0.51608 0.0
C35 C 0.99618 0.53027 0.46815 0.0
C36 C 0.0027 0.46549 0.40629 0.0
C37 C 0.04616 0.44847 0.39047 0.0
C38 C 0.04832 0.4149 0.35406 0.0
C39 C 0.00701 0.39812 0.33278 0.0
C40 C 0.96431 0.4195 0.34502 0.0
C41 C 0.96222 0.45317 0.38148 0.0
C42 C 0.99676 0.39705 0.47758 0.0
C43 C 0.03877 0.37273 0.47932 0.0
C44 C 0.0408 0.32616 0.46292 0.0
C45 C 0.00077 0.30315 0.44464 0.0
C46 C 0.95843 0.32743 0.44409 0.0
C47 C 0.95645 0.37394 0.46054 0.0
C48 C 0.99263 0.42586 0.5756 0.0
C49 C 0.0311 0.42253 0.60498 0.0
C50 C 0.03066 0.3891 0.63994 0.0
C51 C 0.99225 0.35782 0.6451 0.0
C52 C 0.954 0.36071 0.61536 0.0
C53 C 0.95395 0.39494 0.58114 0.0
C54 C 0.9892 0.52443 0.60163 0.0
C55 C 0.02945 0.54095 0.62465 0.0
C56 C 0.02618 0.55821 0.67087 0.0
C57 C 0.98251 0.5592 0.69489 0.0
C58 C 0.94241 0.54156 0.67195 0.0
C59 C 0.94578 0.52421 0.62571 0.0
C60 C 0.99243 0.59398 0.53132 0.0
C61 C 0.03497 0.61702 0.54203 0.0
C62 C 0.03572 0.65408 0.57506 0.0
C63 C 0.99382 0.66885 0.59721 0.0
C64 C 0.95087 0.6495 0.58187 0.0
C65 C 0.95021 0.61231 0.54906 0.0
C66 C 0.99705 0.56612 0.43128 0.0
C67 C 0.03869 0.57662 0.4061 0.0
C68 C 0.03941 0.61057 0.37141 0.0
C69 C 0.99838 0.6344 0.3611 0.0
C70 C 0.95669 0.62358 0.38644 0.0
C71 C 0.9561 0.58984 0.4213 0.0
C72 C 0.00338 0.2542 0.42583 0.0
C73 C 0.97864 0.57895 0.74348 0.0
H74 H 0.58971 0.96045 0.20278 0.0
H75 H 0.2107 0.08915 0.59206 0.0
H76 H 0.58946 0.92979 0.45911 0.0
H77 H 0.65425 0.92405 0.402 0.0
H78 H 0.68229 0.0732 0.41872 0.0
H79 H 0.61674 0.07859 0.47561 0.0
H80 H 0.50829 0.9396 0.39188 0.0
H81 H 0.53716 0.93487 0.31027 0.0
H82 H 0.58234 0.08077 0.31973 0.0
H83 H 0.55298 0.08503 0.40109 0.0
H84 H 0.40062 0.95091 0.448 0.0
H85 H 0.33976 0.95141 0.38872 0.0
H86 H 0.39307 0.08571 0.34154 0.0
H87 H 0.45249 0.08634 0.40263 0.0
H88 H 0.39277 0.95162 0.54453 0.0
H89 H 0.31194 0.96074 0.57341 0.0
H90 H 0.3216 0.10875 0.54318 0.0
H91 H 0.40268 0.09916 0.51491 0.0
H92 H 0.47349 0.94126 0.6027 0.0
H93 H 0.41531 0.93648 0.66662 0.0
H94 H 0.40544 0.08774 0.66908 0.0
H95 H 0.4628 0.09183 0.60412 0.0
H96 H 0.58857 0.93752 0.5568 0.0
H97 H 0.64768 0.93326 0.61735 0.0
H98 H 0.62375 0.07836 0.65688 0.0
H99 H 0.56425 0.0819 0.59673 0.0
O100 O 0.57745 0.96338 0.23466 0.0
O101 O 0.60088 0.03819 0.24178 0.0
O102 O 0.23913 0.00805 0.59465 0.0
O103 O 0.24226 0.08437 0.57988 0.0
C104 C 0.54914 0.0108 0.48755 0.0
C105 C 0.51469 0.0143 0.45287 0.0
C106 C 0.46708 0.01829 0.4661 0.0
C107 C 0.45384 0.01991 0.514 0.0
C108 C 0.48826 0.01732 0.54883 0.0
C109 C 0.5361 0.01258 0.53575 0.0
C110 C 0.59841 0.00459 0.47142 0.0
C111 C 0.61118 0.96076 0.45235 0.0
C112 C 0.64797 0.95766 0.41929 0.0
C113 C 0.67261 0.99842 0.405 0.0
C114 C 0.66321 0.04139 0.42834 0.0
C115 C 0.62643 0.0444 0.46155 0.0
C116 C 0.52877 0.01256 0.40231 0.0
C117 C 0.52399 0.97057 0.37603 0.0
C118 C 0.5407 0.96796 0.32954 0.0
C119 C 0.56235 0.00737 0.30857 0.0
C120 C 0.56602 0.04972 0.33483 0.0
C121 C 0.54924 0.05228 0.38125 0.0
C122 C 0.43075 0.01871 0.42977 0.0
C123 C 0.39876 0.98075 0.42533 0.0
C124 C 0.36425 0.98097 0.39153 0.0
C125 C 0.36203 0.01861 0.36092 0.0
C126 C 0.39441 0.05632 0.36484 0.0
C127 C 0.42825 0.05663 0.39947 0.0
C128 C 0.40358 0.0248 0.52797 0.0
C129 C 0.37728 0.98593 0.54406 0.0
C130 C 0.33113 0.99125 0.5605 0.0
C131 C 0.31035 0.03554 0.56078 0.0
C132 C 0.33656 0.07419 0.54357 0.0
C133 C 0.38278 0.06882 0.52723 0.0
C134 C 0.47205 0.01682 0.5986 0.0
C135 C 0.46059 0.97349 0.61869 0.0
C136 C 0.42686 0.97086 0.655 0.0
C137 C 0.40458 0.01167 0.67196 0.0
C138 C 0.42086 0.05555 0.65578 0.0
C139 C 0.45442 0.05809 0.61938 0.0
C140 C 0.57219 0.01004 0.57226 0.0
C141 C 0.59628 0.96839 0.57846 0.0
C142 C 0.63016 0.96611 0.613 0.0
C143 C 0.64059 0.00549 0.64208 0.0
C144 C 0.61621 0.04716 0.63567 0.0
C145 C 0.58235 0.04936 0.60114 0.0
C146 C 0.58138 0.00412 0.25968 0.0
C147 C 0.26175 0.04161 0.57939 0.0
H148 H 0.4134 0.19732 0.95886 0.0
H149 H 0.79401 0.59819 0.0643 0.0
H150 H 0.41179 0.45305 0.92453 0.0
H151 H 0.34697 0.39536 0.92216 0.0
H152 H 0.3256 0.4135 0.07205 0.0
H153 H 0.39031 0.4714 0.07393 0.0
H154 H 0.49203 0.38667 0.93188 0.0
H155 H 0.46392 0.30473 0.92959 0.0
H156 H 0.42823 0.31503 0.07781 0.0
H157 H 0.45677 0.3968 0.07957 0.0
H158 H 0.59336 0.43121 0.93676 0.0
H159 H 0.65356 0.37155 0.93862 0.0
H160 H 0.62279 0.35259 0.08639 0.0
H161 H 0.56216 0.41197 0.08385 0.0
H162 H 0.61093 0.52863 0.93628 0.0
H163 H 0.69206 0.55833 0.94038 0.0
H164 H 0.68338 0.55257 0.09187 0.0
H165 H 0.60225 0.52286 0.08716 0.0
H166 H 0.53666 0.59552 0.93042 0.0
H167 H 0.59442 0.66047 0.92837 0.0
H168 H 0.59291 0.66652 0.08 0.0
H169 H 0.53523 0.60169 0.08163 0.0
H170 H 0.41791 0.55643 0.92945 0.0
H171 H 0.35761 0.61633 0.92763 0.0
H172 H 0.37674 0.64649 0.07536 0.0
H173 H 0.43668 0.58635 0.07683 0.0
O174 O 0.42563 0.22931 0.96083 0.0
O175 O 0.40865 0.23619 0.03723 0.0
O176 O 0.76504 0.58752 0.98364 0.0
O177 O 0.76244 0.58523 0.06161 0.0
C178 C 0.45509 0.48264 0.00355 0.0
C179 C 0.48986 0.4482 0.00625 0.0
C180 C 0.53742 0.46178 0.00871 0.0
C181 C 0.55051 0.50962 0.00895 0.0
C182 C 0.51586 0.54423 0.00709 0.0
C183 C 0.46793 0.53088 0.00448 0.0
C184 C 0.40571 0.46628 0.9994 0.0
C185 C 0.39147 0.44641 0.95641 0.0
C186 C 0.35509 0.41278 0.95529 0.0
C187 C 0.33217 0.39899 0.99712 0.0
C188 C 0.34271 0.42331 0.03927 0.0
C189 C 0.37931 0.45684 0.04037 0.0
C190 C 0.47624 0.39753 0.00583 0.0
C191 C 0.47859 0.37093 0.96387 0.0
C192 C 0.46234 0.32424 0.96266 0.0
C193 C 0.44362 0.30339 0.00348 0.0
C194 C 0.44234 0.33001 0.04572 0.0
C195 C 0.45867 0.37666 0.04688 0.0
C196 C 0.57373 0.42577 0.01019 0.0
C197 C 0.59981 0.41416 0.96948 0.0
C198 C 0.63423 0.38031 0.9707 0.0
C199 C 0.643 0.35751 0.01271 0.0
C200 C 0.6165 0.36921 0.05343 0.0
C201 C 0.5821 0.40316 0.05215 0.0
C202 C 0.60087 0.52379 0.01142 0.0
C203 C 0.62684 0.53341 0.97025 0.0
C204 C 0.67307 0.55048 0.97273 0.0
C205 C 0.69412 0.5581 0.0165 0.0
C206 C 0.6682 0.54727 0.05763 0.0
C207 C 0.62197 0.53013 0.05507 0.0
C208 C 0.5318 0.594 0.00616 0.0
C209 C 0.54689 0.61259 0.96312 0.0
C210 C 0.58056 0.64901 0.96203 0.0
C211 C 0.59896 0.66765 0.00403 0.0
C212 C 0.57942 0.65279 0.04709 0.0
C213 C 0.546 0.61613 0.04812 0.0
C214 C 0.43157 0.5671 0.00327 0.0
C215 C 0.40898 0.57601 0.96136 0.0
C216 C 0.37479 0.61037 0.96036 0.0
C217 C 0.36237 0.63616 0.00137 0.0
C218 C 0.38512 0.62692 0.04332 0.0
C219 C 0.41952 0.59281 0.04418 0.0
C220 C 0.42498 0.25428 0.00175 0.0
C221 C 0.74268 0.57776 0.01939 0.0
C222 C 0.00183 0.11036 0.89063 0.0
C223 C 0.00598 0.11226 0.11646 0.0
C224 C 1.0005 0.8843 0.88376 0.0
C225 C 1.00033 0.88299 0.1129 0.0
C226 C 0.11407 0.88428 0.99877 0.0
C227 C 0.11542 0.11351 0.99965 0.0
C228 C 0.88494 0.88342 0.00036 0.0
C229 C 0.88963 0.10959 0.00827 0.0
C230 C 0.88939 0.9939 0.11947 0.0
C231 C 0.1155 0.00077 0.11352 0.0
C232 C 0.88906 0.99645 0.89048 0.0
C233 C 0.11812 0.99703 0.88755 0.0
Eu234 Eu 0.00256 0.08513 0.00326 0.0
O235 O 0.04396 0.03958 0.04373 0.0
O236 O 0.96073 0.03795 0.96149 0.0
Eu237 Eu 0.09073 0.99843 0.00073 0.0
Eu238 Eu 0.91339 0.99652 0.00429 0.0
O239 O 0.04497 0.03939 0.96003 0.0
O240 O 0.9606 0.0386 0.04611 0.0
Eu241 Eu 0.00312 0.99724 0.91302 0.0
Eu242 Eu 0.0023 0.99735 0.0908 0.0
O243 O 0.04328 0.95571 0.95882 0.0
O244 O 0.04257 0.95547 0.0414 0.0
O245 O 0.96005 0.95495 0.04344 0.0
O246 O 0.96014 0.95532 0.96014 0.0
Eu247 Eu 1.00016 0.9074 0.99924 0.0
O248 O 0.00275 0.12483 0.93545 0.0
O249 O 0.00543 0.12498 0.07187 0.0
O250 O 1.0 0.86861 0.92775 0.0
O251 O 0.99861 0.8685 0.06797 0.0
O252 O 0.12887 0.92922 0.99973 0.0
O253 O 0.13054 0.06933 0.9995 0.0
O254 O 0.87292 0.92825 0.00239 0.0
O255 O 0.8747 0.06486 0.00747 0.0
O256 O 0.93415 0.99515 0.13173 0.0
O257 O 0.071 0.99773 0.12881 0.0
O258 O 0.93381 0.99635 0.87536 0.0
O259 O 0.07387 0.99774 0.87274 0.0
O260 O 0.92902 0.86805 0.99914 0.0
O261 O 0.06925 0.86934 0.99829 0.0
O262 O 0.93443 0.12417 0.00703 0.0
O263 O 0.07069 0.12573 0.00112 0.0
O264 O 0.00424 0.06792 0.13123 0.0
O265 O 0.0023 0.92777 0.12808 0.0
O266 O 0.00169 0.06585 0.87513 0.0
O267 O 0.00183 0.92923 0.87204 0.0
O268 O 0.1306 0.99704 0.93221 0.0
O269 O 0.13 0.00225 0.06874 0.0
O270 O 0.87458 0.99658 0.9355 0.0
O271 O 0.87417 0.99462 0.07538 0.0
H272 H 0.07165 0.37559 0.26384 0.0
H273 H 0.94546 0.32306 0.33349 0.0
H274 H 0.07524 0.3035 0.21626 0.0
H275 H 0.94793 0.25168 0.28448 0.0
H276 H 0.98927 0.11148 0.21252 0.0
H277 H 0.99179 0.17927 0.26741 0.0
H278 H 0.03132 0.26966 0.15276 0.0
H279 H 0.03019 0.2031 0.099 0.0
C280 C 0.04456 0.34874 0.26883 0.0
C281 C 0.00792 0.35538 0.30193 0.0
C282 C 0.04646 0.30749 0.24144 0.0
C283 C 0.01169 0.27191 0.24638 0.0
C284 C 0.97543 0.27821 0.28002 0.0
C285 C 0.97355 0.3195 0.30748 0.0
C286 C 0.99892 0.14579 0.1993 0.0
C287 C 0.00919 0.1517 0.15129 0.0
C288 C 1.00006 0.18463 0.23061 0.0
C289 C 0.01186 0.22987 0.21443 0.0
C290 C 0.0228 0.23534 0.16663 0.0
C291 C 0.02162 0.19693 0.13561 0.0
H292 H 0.67696 0.05974 0.33275 0.0
H293 H 0.73758 0.93243 0.3805 0.0
H294 H 0.72628 0.05591 0.26164 0.0
H295 H 0.7857 0.92768 0.3087 0.0
H296 H 0.90596 0.97031 0.20933 0.0
H297 H 0.85234 0.97041 0.27619 0.0
H298 H 0.73986 0.01046 0.18773 0.0
H299 H 0.79449 0.01151 0.11985 0.0
C300 C 0.70111 0.03113 0.32822 0.0
C301 C 0.70397 0.99679 0.36265 0.0
C302 C 0.72874 0.02851 0.28708 0.0
C303 C 0.75996 0.99155 0.27949 0.0
C304 C 0.7624 0.95694 0.31371 0.0
C305 C 0.73472 0.95951 0.35477 0.0
C306 C 0.86984 0.97921 0.20372 0.0
C307 C 0.8547 0.99133 0.15904 0.0
C308 C 0.83891 0.97877 0.24224 0.0
C309 C 0.79178 0.99033 0.23738 0.0
C310 C 0.77614 0.00178 0.19264 0.0
C311 C 0.8073 0.00206 0.15373 0.0
H312 H 0.06448 0.70394 0.34551 0.0
H313 H 0.93373 0.64653 0.29326 0.0
H314 H 0.06539 0.76338 0.28511 0.0
H315 H 0.93418 0.70653 0.23343 0.0
H316 H 0.97942 0.78887 0.10193 0.0
H317 H 0.97948 0.72876 0.16143 0.0
H318 H 0.02055 0.83357 0.26545 0.0
H319 H 0.02096 0.89373 0.20609 0.0
C320 C 0.03603 0.70391 0.32102 0.0
C321 C 0.99904 0.6705 0.3242 0.0
C322 C 0.03632 0.73823 0.28671 0.0
C323 C 0.99982 0.73973 0.25451 0.0
C324 C 0.96301 0.7061 0.25746 0.0
C325 C 0.96252 0.67201 0.29201 0.0
C326 C 0.98858 0.79919 0.13744 0.0
C327 C 1.00017 0.84628 0.14909 0.0
C328 C 0.98831 0.76472 0.17161 0.0
C329 C 1.00002 0.77638 0.21816 0.0
C330 C 0.01181 0.82336 0.2298 0.0
C331 C 0.0117 0.85791 0.19576 0.0
H332 H 0.2676 0.01418 0.37432 0.0
H333 H 0.37605 0.02154 0.26652 0.0
H334 H 0.20776 0.01188 0.31457 0.0
H335 H 0.31678 0.01619 0.20619 0.0
H336 H 0.19924 0.0484 0.10909 0.0
H337 H 0.25827 0.05526 0.16928 0.0
H338 H 0.17348 0.96368 0.25786 0.0
H339 H 0.11338 0.95944 0.19863 0.0
C340 C 0.27841 0.01494 0.33763 0.0
C341 C 0.32608 0.01813 0.32471 0.0
C342 C 0.24429 0.0132 0.30331 0.0
C343 C 0.25724 0.0135 0.2553 0.0
C344 C 0.30526 0.01674 0.24267 0.0
C345 C 0.33931 0.01953 0.27709 0.0
C346 C 0.19341 0.02975 0.14148 0.0
C347 C 0.15184 0.00345 0.14934 0.0
C348 C 0.22733 0.03344 0.17596 0.0
C349 C 0.22088 0.01002 0.21867 0.0
C350 C 0.17936 0.98313 0.22601 0.0
C351 C 0.145 0.98034 0.19194 0.0
H352 H 0.05129 0.66359 0.67199 0.0
H353 H 0.93791 0.74325 0.61898 0.0
H354 H 0.05134 0.71271 0.7435 0.0
H355 H 0.93735 0.79175 0.69077 0.0
H356 H 0.99317 0.90424 0.79129 0.0
H357 H 0.99128 0.85094 0.72447 0.0
H358 H 0.00191 0.73307 0.8157 0.0
H359 H 0.00454 0.78719 0.88411 0.0
C360 C 0.02663 0.69184 0.67549 0.0
C361 C 0.99503 0.70007 0.63958 0.0
C362 C 0.0262 0.71944 0.71674 0.0
C363 C 0.99443 0.75609 0.72273 0.0
C364 C 0.96258 0.76402 0.68696 0.0
C365 C 0.9628 0.73624 0.64591 0.0
C366 C 0.99514 0.86704 0.79774 0.0
C367 C 0.99902 0.85016 0.84353 0.0
C368 C 0.99367 0.83639 0.75908 0.0
C369 C 0.99599 0.78782 0.76477 0.0
C370 C 1.0002 0.77049 0.81032 0.0
C371 C 0.0015 0.80142 0.84945 0.0
H372 H 0.32446 0.06218 0.66699 0.0
H373 H 0.38638 0.95187 0.74452 0.0
H374 H 0.25334 0.05574 0.71574 0.0
H375 H 0.31445 0.94378 0.79159 0.0
H376 H 0.21048 0.98649 0.90564 0.0
H377 H 0.27677 0.98867 0.85207 0.0
H378 H 0.18456 0.00653 0.73611 0.0
H379 H 0.11673 0.00584 0.79088 0.0
C380 C 0.32303 0.03669 0.69459 0.0
C381 C 0.36156 0.00808 0.70237 0.0
C382 C 0.28185 0.03243 0.72195 0.0
C383 C 0.27817 0.99941 0.75773 0.0
C384 C 0.31632 0.97013 0.7648 0.0
C385 C 0.35752 0.97452 0.7376 0.0
C386 C 0.20371 0.9909 0.8688 0.0
C387 C 0.15783 0.99627 0.85279 0.0
C388 C 0.24211 0.99164 0.83786 0.0
C389 C 0.23614 0.99739 0.78968 0.0
C390 C 0.19035 0.00235 0.77317 0.0
C391 C 0.15148 0.00168 0.80446 0.0
H392 H 0.99619 0.37184 0.73937 0.0
H393 H 0.98909 0.26339 0.63145 0.0
H394 H 0.99655 0.31228 0.79946 0.0
H395 H 0.99264 0.2034 0.69076 0.0
H396 H 0.95566 0.10531 0.80844 0.0
H397 H 0.95116 0.16572 0.74998 0.0
H398 H 0.04216 0.25674 0.83317 0.0
H399 H 0.04388 0.19714 0.89291 0.0
C400 C 0.99514 0.33505 0.72873 0.0
C401 C 0.99244 0.32184 0.68119 0.0
C402 C 0.99576 0.30088 0.76297 0.0
C403 C 0.99479 0.25279 0.75016 0.0
C404 C 0.99242 0.23991 0.70221 0.0
C405 C 0.99073 0.27413 0.66813 0.0
C406 C 0.97464 0.13831 0.81406 0.0
C407 C 1.00013 0.14671 0.85502 0.0
C408 C 0.97235 0.17291 0.78045 0.0
C409 C 0.99645 0.21627 0.78653 0.0
C410 C 0.02231 0.22429 0.82757 0.0
C411 C 0.02365 0.19006 0.86171 0.0
H412 H 0.72539 0.96191 0.63628 0.0
H413 H 0.6379 0.04389 0.73134 0.0
H414 H 0.78436 0.95804 0.69643 0.0
H415 H 0.69779 0.04181 0.79072 0.0
H416 H 0.79338 0.98853 0.9031 0.0
H417 H 0.73362 0.98942 0.84358 0.0
H418 H 0.84154 0.00715 0.73604 0.0
H419 H 0.9014 0.00528 0.79525 0.0
C420 C 0.71863 0.97903 0.67003 0.0
C421 C 0.67678 0.0032 0.67886 0.0
C422 C 0.75277 0.9773 0.70438 0.0
C423 C 0.746 0.99972 0.74849 0.0
C424 C 0.70405 0.02372 0.75738 0.0
C425 C 0.6699 0.02542 0.72305 0.0
C426 C 0.8045 0.99259 0.86679 0.0
C427 C 0.85242 0.99679 0.85418 0.0
C428 C 0.7701 0.99334 0.83261 0.0
C429 C 0.78265 0.9984 0.78491 0.0
C430 C 0.83055 0.0025 0.7723 0.0
C431 C 0.86495 0.00166 0.80643 0.0
H432 H 0.24776 0.38653 0.04336 0.0
H433 H 0.34801 0.31446 0.95323 0.0
H434 H 0.19852 0.31527 0.04571 0.0
H435 H 0.29832 0.24341 0.95486 0.0
H436 H 0.21192 0.1125 0.00837 0.0
H437 H 0.26638 0.18069 0.00897 0.0
H438 H 0.15073 0.27219 0.98756 0.0
H439 H 0.097 0.20557 0.98706 0.0
C440 C 0.2592 0.3555 0.02402 0.0
C441 C 0.30135 0.3563 0.9976 0.0
C442 C 0.231 0.31475 0.0252 0.0
C443 C 0.24446 0.27382 0.00021 0.0
C444 C 0.28713 0.27429 0.97461 0.0
C445 C 0.31519 0.31518 0.97316 0.0
C446 C 0.19827 0.14717 0.00366 0.0
C447 C 0.14995 0.15334 0.99818 0.0
C448 C 0.22941 0.18615 0.00395 0.0
C449 C 0.21264 0.23183 0.99901 0.0
C450 C 0.16461 0.23765 0.99259 0.0
C451 C 0.13378 0.1991 0.99212 0.0
H452 H 0.35128 0.70331 0.93565 0.0
H453 H 0.29075 0.65117 0.0652 0.0
H454 H 0.29115 0.76296 0.93437 0.0
H455 H 0.23116 0.71126 0.06433 0.0
H456 H 0.10242 0.79076 0.01757 0.0
H457 H 0.16219 0.73103 0.01755 0.0
H458 H 0.26812 0.83512 0.97973 0.0
H459 H 0.20839 0.895 0.97935 0.0
C460 C 0.32504 0.7045 0.96376 0.0
C461 C 0.32578 0.67249 0.00051 0.0
C462 C 0.29088 0.73893 0.96326 0.0
C463 C 0.25639 0.74186 0.99926 0.0
C464 C 0.25699 0.70969 0.03587 0.0
C465 C 0.29139 0.67554 0.03659 0.0
C466 C 0.1384 0.80101 0.00908 0.0
C467 C 0.15049 0.84782 0.99849 0.0
C468 C 0.17271 0.76676 0.0094 0.0
C469 C 0.21991 0.77833 0.9987 0.0
C470 C 0.232 0.825 0.98773 0.0
C471 C 0.19776 0.85939 0.98785 0.0
H472 H 0.73055 0.36087 0.97179 0.0
H473 H 0.6381 0.27301 0.05626 0.0
H474 H 0.78987 0.30076 0.97142 0.0
H475 H 0.69822 0.21362 0.05751 0.0
H476 H 0.79447 0.09736 0.0012 0.0
H477 H 0.73537 0.15753 0.0035 0.0
H478 H 0.84346 0.26451 0.02387 0.0
H479 H 0.90283 0.2046 0.02066 0.0
C480 C 0.72294 0.32872 0.99032 0.0
C481 C 0.6796 0.32157 0.01389 0.0
C482 C 0.75713 0.29452 0.99058 0.0
C483 C 0.74873 0.25245 0.01446 0.0
C484 C 0.70553 0.24547 0.03838 0.0
C485 C 0.67132 0.27969 0.03811 0.0
C486 C 0.80574 0.13367 0.00629 0.0
C487 C 0.85351 0.14607 0.01057 0.0
C488 C 0.77176 0.16815 0.00786 0.0
C489 C 0.78474 0.21577 0.01385 0.0
C490 C 0.83242 0.22816 0.01854 0.0
C491 C 0.86643 0.19372 0.01687 0.0
H492 H 0.61572 0.74804 0.05577 0.0
H493 H 0.67916 0.65549 0.95146 0.0
H494 H 0.68732 0.79685 0.05618 0.0
H495 H 0.75064 0.70471 0.95138 0.0
H496 H 0.88617 0.78621 0.00247 0.0
H497 H 0.81793 0.73181 0.00402 0.0
H498 H 0.72555 0.84917 0.99777 0.0
H499 H 0.79212 0.90282 0.99634 0.0
C500 C 0.64494 0.73823 0.03289 0.0
C501 C 0.64162 0.69842 0.00311 0.0
C502 C 0.68587 0.76615 0.03302 0.0
C503 C 0.72449 0.75464 0.00364 0.0
C504 C 0.72155 0.71427 0.97454 0.0
C505 C 0.68041 0.68655 0.97411 0.0
C506 C 0.8513 0.80027 0.00135 0.0
C507 C 0.84494 0.84902 0.99975 0.0
C508 C 0.81229 0.76917 0.00214 0.0
C509 C 0.76644 0.7864 0.00168 0.0
C510 C 0.76035 0.83489 0.99922 0.0
C511 C 0.79888 0.86568 0.99819 0.0
loop_
_geom_bond_atom_site_label_1
_geom_bond_atom_site_label_2
_geom_bond_distance
_geom_bond_site_symmetry_2
_ccdc_geom_bond_type
H0 O26 0.856 . S
H1 O29 0.854 . S
H2 C37 0.930 . S
H3 C38 0.930 . S
H4 C40 0.930 . S
H5 C41 0.930 . S
H6 C43 0.931 . S
H7 C44 0.930 . S
H8 C46 0.930 . S
H9 C47 0.929 . S
H10 C49 0.930 . S
H11 C50 0.931 . S
H12 C52 0.930 . S
H13 C53 0.929 . S
H14 C55 0.931 . S
H15 C56 0.930 . S
H16 C58 0.930 . S
H17 C59 0.932 . S
H18 C61 0.930 . S
H19 C62 0.929 . S
H20 C64 0.931 . S
H21 C65 0.930 . S
H22 C67 0.929 . S
H23 C68 0.931 . S
H24 C70 0.930 . S
H25 C71 0.929 . S
O26 H0 0.856 . S
O26 C72 1.300 1_455 S
O27 C72 1.209 . S
O28 C73 1.199 1_455 S
O29 H1 0.854 . S
O29 C73 1.297 . S
C30 C31 1.404 . S
C30 C35 1.397 1_655 S
C30 C36 1.492 1_655 S
C31 C30 1.404 . S
C31 C32 1.396 . S
C31 C42 1.492 . S
C32 C31 1.396 . S
C32 C33 1.397 . S
C32 C48 1.509 . S
C33 C32 1.397 . S
C33 C34 1.413 . S
C33 C54 1.485 . S
C34 C33 1.413 . S
C34 C35 1.389 1_655 S
C34 C60 1.490 1_655 S
C35 C30 1.397 1_455 S
C35 C34 1.389 1_455 S
C35 C66 1.519 1_455 S
C36 C30 1.492 1_455 S
C36 C37 1.363 . S
C36 C41 1.390 1_455 S
C37 H2 0.930 . S
C37 C36 1.363 . S
C37 C38 1.372 . S
C38 H3 0.930 . S
C38 C37 1.372 . S
C38 C39 1.383 . S
C39 C38 1.383 . S
C39 C40 1.395 1_455 S
C40 H4 0.930 . S
C40 C39 1.395 1_655 S
C40 C41 1.362 . S
C41 H5 0.930 . S
C41 C36 1.390 1_655 S
C41 C40 1.362 . S
C42 C31 1.492 . S
C42 C43 1.377 1_655 S
C42 C47 1.397 . S
C43 H6 0.931 . S
C43 C42 1.377 1_455 S
C43 C44 1.376 . S
C44 H7 0.930 . S
C44 C43 1.376 . S
C44 C45 1.376 1_455 S
C45 C44 1.376 1_655 S
C45 C46 1.378 . S
C45 C72 1.486 . S
C46 H8 0.930 . S
C46 C45 1.378 . S
C46 C47 1.376 . S
C47 H9 0.929 . S
C47 C42 1.397 . S
C47 C46 1.376 . S
C48 C32 1.509 . S
C48 C49 1.391 1_655 S
C48 C53 1.386 . S
C49 H10 0.930 . S
C49 C48 1.391 1_455 S
C49 C50 1.375 . S
C50 H11 0.931 . S
C50 C49 1.375 . S
C50 C51 1.375 1_455 S
C51 C50 1.375 1_655 S
C51 C52 1.361 . S
C52 H12 0.930 . S
C52 C51 1.361 . S
C52 C53 1.399 . S
C53 H13 0.929 . S
C53 C48 1.386 . S
C53 C52 1.399 . S
C54 C33 1.485 . S
C54 C55 1.394 1_655 S
C54 C59 1.360 . S
C55 H14 0.931 . S
C55 C54 1.394 1_455 S
C55 C56 1.372 . S
C56 H15 0.930 . S
C56 C55 1.372 . S
C56 C57 1.397 1_455 S
C57 C56 1.397 1_655 S
C57 C58 1.390 . S
C57 C73 1.476 . S
C58 H16 0.930 . S
C58 C57 1.390 . S
C58 C59 1.366 . S
C59 H17 0.932 . S
C59 C54 1.360 . S
C59 C58 1.366 . S
C60 C34 1.490 1_455 S
C60 C61 1.380 . S
C60 C65 1.386 1_455 S
C61 H18 0.930 . S
C61 C60 1.380 . S
C61 C62 1.381 . S
C62 H19 0.929 . S
C62 C61 1.381 . S
C62 C63 1.371 . S
C63 C62 1.371 . S
C63 C64 1.380 1_455 S
C64 H20 0.931 . S
C64 C63 1.380 1_655 S
C64 C65 1.387 . S
C65 H21 0.930 . S
C65 C60 1.386 1_655 S
C65 C64 1.387 . S
C66 C35 1.519 1_655 S
C66 C67 1.377 1_655 S
C66 C71 1.361 . S
C67 H22 0.929 . S
C67 C66 1.377 1_455 S
C67 C68 1.386 . S
C68 H23 0.931 . S
C68 C67 1.386 . S
C68 C69 1.363 1_455 S
C69 C68 1.363 1_655 S
C69 C70 1.385 . S
C70 H24 0.930 . S
C70 C69 1.385 . S
C70 C71 1.396 . S
C71 H25 0.929 . S
C71 C66 1.361 . S
C71 C70 1.396 . S
C72 O26 1.300 1_655 S
C72 O27 1.209 . S
C72 C45 1.486 . S
C73 O28 1.199 1_655 S
C73 O29 1.297 . S
C73 C57 1.476 . S
H74 O100 0.856 1_545 S
H75 O103 0.854 . S
H76 C111 0.930 . S
H77 C112 0.930 . S
H78 C114 0.930 . S
H79 C115 0.930 . S
H80 C117 0.931 . S
H81 C118 0.930 . S
H82 C120 0.930 . S
H83 C121 0.929 . S
H84 C123 0.930 . S
H85 C124 0.931 . S
H86 C126 0.930 . S
H87 C127 0.929 . S
H88 C129 0.931 . S
H89 C130 0.930 . S
H90 C132 0.930 . S
H91 C133 0.932 . S
H92 C135 0.930 . S
H93 C136 0.929 . S
H94 C138 0.931 . S
H95 C139 0.930 . S
H96 C141 0.929 . S
H97 C142 0.931 . S
H98 C144 0.930 . S
H99 C145 0.929 . S
O100 H74 0.856 1_565 S
O100 C146 1.300 1_565 S
O101 C146 1.209 . S
O102 C147 1.199 1_565 S
O103 H75 0.854 . S
O103 C147 1.297 . S
C104 C105 1.404 . S
C104 C109 1.397 . S
C104 C110 1.492 . S
C105 C104 1.404 . S
C105 C106 1.396 . S
C105 C116 1.492 . S
C106 C105 1.396 . S
C106 C107 1.397 . S
C106 C122 1.509 . S
C107 C106 1.397 . S
C107 C108 1.412 . S
C107 C128 1.485 . S
C108 C107 1.412 . S
C108 C109 1.388 . S
C108 C134 1.490 . S
C109 C104 1.397 . S
C109 C108 1.388 . S
C109 C140 1.519 . S
C110 C104 1.492 . S
C110 C111 1.363 1_545 S
C110 C115 1.390 . S
C111 H76 0.930 . S
C111 C110 1.363 1_565 S
C111 C112 1.372 . S
C112 H77 0.930 . S
C112 C111 1.372 . S
C112 C113 1.383 . S
C113 C112 1.383 . S
C113 C114 1.395 1_565 S
C114 H78 0.930 . S
C114 C113 1.395 1_545 S
C114 C115 1.362 . S
C115 H79 0.930 . S
C115 C110 1.390 . S
C115 C114 1.362 . S
C116 C105 1.492 . S
C116 C117 1.377 1_545 S
C116 C121 1.397 . S
C117 H80 0.931 . S
C117 C116 1.377 1_565 S
C117 C118 1.376 . S
C118 H81 0.930 . S
C118 C117 1.376 . S
C118 C119 1.376 1_565 S
C119 C118 1.376 1_545 S
C119 C120 1.378 . S
C119 C146 1.486 . S
C120 H82 0.930 . S
C120 C119 1.378 . S
C120 C121 1.376 . S
C121 H83 0.929 . S
C121 C116 1.397 . S
C121 C120 1.376 . S
C122 C106 1.509 . S
C122 C123 1.391 1_545 S
C122 C127 1.386 . S
C123 H84 0.930 . S
C123 C122 1.391 1_565 S
C123 C124 1.375 . S
C124 H85 0.931 . S
C124 C123 1.375 . S
C124 C125 1.375 1_565 S
C125 C124 1.375 1_545 S
C125 C126 1.361 . S
C126 H86 0.930 . S
C126 C125 1.361 . S
C126 C127 1.399 . S
C127 H87 0.929 . S
C127 C122 1.386 . S
C127 C126 1.399 . S
C128 C107 1.485 . S
C128 C129 1.394 1_545 S
C128 C133 1.360 . S
C129 H88 0.931 . S
C129 C128 1.394 1_565 S
C129 C130 1.372 . S
C130 H89 0.930 . S
C130 C129 1.372 . S
C130 C131 1.397 1_565 S
C131 C130 1.397 1_545 S
C131 C132 1.390 . S
C131 C147 1.476 . S
C132 H90 0.930 . S
C132 C131 1.390 . S
C132 C133 1.366 . S
C133 H91 0.932 . S
C133 C128 1.360 . S
C133 C132 1.366 . S
C134 C108 1.490 . S
C134 C135 1.380 1_545 S
C134 C139 1.386 . S
C135 H92 0.930 . S
C135 C134 1.380 1_565 S
C135 C136 1.381 . S
C136 H93 0.929 . S
C136 C135 1.381 . S
C136 C137 1.371 . S
C137 C136 1.371 . S
C137 C138 1.380 1_565 S
C138 H94 0.931 . S
C138 C137 1.380 1_545 S
C138 C139 1.387 . S
C139 H95 0.930 . S
C139 C134 1.386 . S
C139 C138 1.387 . S
C140 C109 1.519 . S
C140 C141 1.377 1_545 S
C140 C145 1.361 . S
C141 H96 0.929 . S
C141 C140 1.377 1_565 S
C141 C142 1.386 . S
C142 H97 0.931 . S
C142 C141 1.386 . S
C142 C143 1.363 1_565 S
C143 C142 1.363 1_545 S
C143 C144 1.385 . S
C144 H98 0.930 . S
C144 C143 1.385 . S
C144 C145 1.396 . S
C145 H99 0.929 . S
C145 C140 1.361 . S
C145 C144 1.396 . S
C146 O100 1.300 1_545 S
C146 O101 1.209 . S
C146 C119 1.486 . S
C147 O102 1.199 1_545 S
C147 O103 1.297 . S
C147 C131 1.476 . S
H148 O174 0.856 . S
H149 O177 0.854 . S
H150 C185 0.930 . S
H151 C186 0.930 . S
H152 C188 0.930 . S
H153 C189 0.930 . S
H154 C191 0.931 . S
H155 C192 0.930 . S
H156 C194 0.930 . S
H157 C195 0.929 . S
H158 C197 0.930 . S
H159 C198 0.931 . S
H160 C200 0.930 . S
H161 C201 0.929 . S
H162 C203 0.931 . S
H163 C204 0.930 . S
H164 C206 0.930 . S
H165 C207 0.932 . S
H166 C209 0.930 . S
H167 C210 0.929 . S
H168 C212 0.931 . S
H169 C213 0.930 . S
H170 C215 0.929 . S
H171 C216 0.931 . S
H172 C218 0.930 . S
H173 C219 0.929 . S
O174 H148 0.856 . S
O174 C220 1.300 1_556 S
O175 C220 1.209 . S
O176 C221 1.199 1_556 S
O177 H149 0.854 . S
O177 C221 1.297 . S
C178 C179 1.404 . S
C178 C183 1.397 . S
C178 C184 1.492 1_554 S
C179 C178 1.404 . S
C179 C180 1.396 . S
C179 C190 1.492 . S
C180 C179 1.396 . S
C180 C181 1.397 . S
C180 C196 1.509 . S
C181 C180 1.397 . S
C181 C182 1.412 . S
C181 C202 1.485 . S
C182 C181 1.412 . S
C182 C183 1.388 . S
C182 C208 1.490 1_554 S
C183 C178 1.397 . S
C183 C182 1.388 . S
C183 C214 1.519 . S
C184 C178 1.492 1_556 S
C184 C185 1.363 . S
C184 C189 1.390 1_556 S
C185 H150 0.930 . S
C185 C184 1.363 . S
C185 C186 1.372 . S
C186 H151 0.930 . S
C186 C185 1.372 . S
C186 C187 1.383 . S
C187 C186 1.383 . S
C187 C188 1.395 1_556 S
C188 H152 0.930 . S
C188 C187 1.395 1_554 S
C188 C189 1.362 . S
C189 H153 0.930 . S
C189 C184 1.390 1_554 S
C189 C188 1.362 . S
C190 C179 1.492 . S
C190 C191 1.377 1_554 S
C190 C195 1.397 . S
C191 H154 0.931 . S
C191 C190 1.377 1_556 S
C191 C192 1.376 . S
C192 H155 0.930 . S
C192 C191 1.376 . S
C192 C193 1.376 1_556 S
C193 C192 1.376 1_554 S
C193 C194 1.378 . S
C193 C220 1.486 . S
C194 H156 0.930 . S
C194 C193 1.378 . S
C194 C195 1.376 . S
C195 H157 0.929 . S
C195 C190 1.397 . S
C195 C194 1.376 . S
C196 C180 1.509 . S
C196 C197 1.391 1_554 S
C196 C201 1.386 . S
C197 H158 0.930 . S
C197 C196 1.391 1_556 S
C197 C198 1.375 . S
C198 H159 0.931 . S
C198 C197 1.375 . S
C198 C199 1.375 1_556 S
C199 C198 1.375 1_554 S
C199 C200 1.361 . S
C200 H160 0.930 . S
C200 C199 1.361 . S
C200 C201 1.399 . S
C201 H161 0.929 . S
C201 C196 1.386 . S
C201 C200 1.399 . S
C202 C181 1.485 . S
C202 C203 1.394 1_554 S
C202 C207 1.360 . S
C203 H162 0.931 . S
C203 C202 1.394 1_556 S
C203 C204 1.372 . S
C204 H163 0.930 . S
C204 C203 1.372 . S
C204 C205 1.397 1_556 S
C205 C204 1.397 1_554 S
C205 C206 1.390 . S
C205 C221 1.476 . S
C206 H164 0.930 . S
C206 C205 1.390 . S
C206 C207 1.366 . S
C207 H165 0.932 . S
C207 C202 1.360 . S
C207 C206 1.366 . S
C208 C182 1.490 1_556 S
C208 C209 1.380 . S
C208 C213 1.386 1_556 S
C209 H166 0.930 . S
C209 C208 1.380 . S
C209 C210 1.381 . S
C210 H167 0.929 . S
C210 C209 1.381 . S
C210 C211 1.371 . S
C211 C210 1.371 . S
C211 C212 1.380 1_556 S
C212 H168 0.931 . S
C212 C211 1.380 1_554 S
C212 C213 1.387 . S
C213 H169 0.930 . S
C213 C208 1.386 1_554 S
C213 C212 1.387 . S
C214 C183 1.519 . S
C214 C215 1.377 1_554 S
C214 C219 1.361 . S
C215 H170 0.929 . S
C215 C214 1.377 1_556 S
C215 C216 1.386 . S
C216 H171 0.931 . S
C216 C215 1.386 . S
C216 C217 1.363 1_556 S
C217 C216 1.363 1_554 S
C217 C218 1.385 . S
C218 H172 0.930 . S
C218 C217 1.385 . S
C218 C219 1.396 . S
C219 H173 0.929 . S
C219 C214 1.361 . S
C219 C218 1.396 . S
C220 O174 1.300 1_554 S
C220 O175 1.209 . S
C220 C193 1.486 . S
C221 O176 1.199 1_554 S
C221 O177 1.297 . S
C221 C205 1.476 . S
C222 O248 1.283 . S
C222 O266 1.283 . S
C223 O249 1.283 . S
C223 O264 1.284 . S
C224 O250 1.284 . S
C224 O267 1.283 . S
C225 O251 1.283 . S
C225 O265 1.283 . S
C226 O252 1.283 . S
C226 O261 1.283 . S
C227 O253 1.283 . S
C227 O263 1.283 . S
C228 O254 1.283 . S
C228 O260 1.283 . S
C229 O255 1.283 . S
C229 O262 1.283 . S
C230 O256 1.283 . S
C230 O271 1.283 . S
C231 O257 1.283 . S
C231 O269 1.283 . S
C232 O258 1.283 . S
C232 O270 1.283 . S
C233 O259 1.283 . S
C233 O268 1.283 . S
Eu234 O235 2.370 . S
Eu234 O236 2.370 1_454 S
Eu234 O239 2.370 1_554 S
Eu234 O240 2.370 1_455 S
Eu234 O248 2.363 1_554 S
Eu234 O249 2.363 . S
Eu234 O262 2.363 1_455 S
Eu234 O263 2.363 . S
O235 Eu234 2.370 . S
O235 Eu237 2.372 . S
O235 Eu242 2.366 1_455 S
O236 Eu234 2.370 1_656 S
O236 Eu238 2.370 1_556 S
O236 Eu241 2.370 1_655 S
Eu237 O235 2.372 . S
Eu237 O239 2.368 1_554 S
Eu237 O243 2.368 1_544 S
Eu237 O244 2.372 1_545 S
Eu237 O252 2.363 1_544 S
Eu237 O253 2.363 . S
Eu237 O268 2.360 1_554 S
Eu237 O269 2.366 . S
Eu238 O236 2.370 1_554 S
Eu238 O240 2.370 . S
Eu238 O245 2.370 1_545 S
Eu238 O246 2.370 1_544 S
Eu238 O254 2.363 1_545 S
Eu238 O255 2.363 . S
Eu238 O270 2.363 1_554 S
Eu238 O271 2.363 . S
O239 Eu234 2.370 1_556 S
O239 Eu237 2.368 1_556 S
O239 Eu241 2.370 . S
O240 Eu234 2.370 1_655 S
O240 Eu238 2.370 . S
O240 Eu242 2.375 . S
Eu241 O236 2.370 1_455 S
Eu241 O239 2.370 . S
Eu241 O243 2.370 1_545 S
Eu241 O246 2.370 1_445 S
Eu241 O258 2.363 1_455 S
Eu241 O259 2.363 . S
Eu241 O266 2.363 . S
Eu241 O267 2.363 1_545 S
Eu242 O235 2.366 1_655 S
Eu242 O240 2.375 . S
Eu242 O244 2.366 1_645 S
Eu242 O245 2.374 1_545 S
Eu242 O256 2.370 . S
Eu242 O257 2.356 1_655 S
Eu242 O264 2.363 1_655 S
Eu242 O265 2.363 1_545 S
O243 Eu237 2.368 1_566 S
O243 Eu241 2.370 1_565 S
O243 Eu247 2.364 1_456 S
O244 Eu237 2.372 1_565 S
O244 Eu242 2.366 1_465 S
O244 Eu247 2.367 1_455 S
O245 Eu238 2.370 1_565 S
O245 Eu242 2.374 1_565 S
O245 Eu247 2.376 . S
O246 Eu238 2.370 1_566 S
O246 Eu241 2.370 1_665 S
O246 Eu247 2.373 1_556 S
Eu247 O243 2.364 1_654 S
Eu247 O244 2.367 1_655 S
Eu247 O245 2.376 . S
Eu247 O246 2.373 1_554 S
Eu247 O250 2.360 1_654 S
Eu247 O251 2.366 . S
Eu247 O260 2.370 . S
Eu247 O261 2.356 1_654 S
O248 C222 1.283 . S
O248 Eu234 2.363 1_556 S
O249 C223 1.283 . S
O249 Eu234 2.363 . S
O250 C224 1.284 . S
O250 Eu247 2.360 1_456 S
O251 C225 1.283 . S
O251 Eu247 2.366 . S
O252 C226 1.283 . S
O252 Eu237 2.363 1_566 S
O253 C227 1.283 . S
O253 Eu237 2.363 . S
O254 C228 1.283 . S
O254 Eu238 2.363 1_565 S
O255 C229 1.283 . S
O255 Eu238 2.363 . S
O256 C230 1.283 . S
O256 Eu242 2.370 . S
O257 C231 1.283 . S
O257 Eu242 2.356 1_455 S
O258 C232 1.283 . S
O258 Eu241 2.363 1_655 S
O259 C233 1.283 . S
O259 Eu241 2.363 . S
O260 C228 1.283 . S
O260 Eu247 2.370 . S
O261 C226 1.283 . S
O261 Eu247 2.356 1_456 S
O262 C229 1.283 . S
O262 Eu234 2.363 1_655 S
O263 C227 1.283 . S
O263 Eu234 2.363 . S
O264 C223 1.284 . S
O264 Eu242 2.363 1_455 S
O265 C225 1.283 . S
O265 Eu242 2.363 1_565 S
O266 C222 1.283 . S
O266 Eu241 2.363 . S
O267 C224 1.283 . S
O267 Eu241 2.363 1_565 S
O268 C233 1.283 . S
O268 Eu237 2.360 1_556 S
O269 C231 1.283 . S
O269 Eu237 2.366 . S
O270 C232 1.283 . S
O270 Eu238 2.363 1_556 S
O271 C230 1.283 . S
O271 Eu238 2.363 . S
H272 C280 0.950 . S
H273 C285 0.950 1_655 S
H274 C282 0.950 . S
H275 C284 0.950 . S
H276 C286 0.950 . S
H277 C288 0.950 . S
H278 C290 0.950 . S
H279 C291 0.950 . S
C280 H272 0.950 . S
C280 C281 1.386 . S
C280 C282 1.391 . S
C281 C280 1.386 . S
C281 C285 1.393 . S
C282 H274 0.950 . S
C282 C280 1.391 . S
C282 C283 1.400 . S
C283 C282 1.400 . S
C283 C284 1.398 1_455 S
C283 C289 1.491 . S
C284 H275 0.950 . S
C284 C283 1.398 1_655 S
C284 C285 1.391 1_655 S
C285 H273 0.950 1_455 S
C285 C281 1.393 . S
C285 C284 1.391 1_455 S
C286 H276 0.950 . S
C286 C287 1.386 1_655 S
C286 C288 1.391 . S
C287 C286 1.386 1_455 S
C287 C291 1.393 . S
C288 H277 0.950 . S
C288 C286 1.391 . S
C288 C289 1.400 1_655 S
C289 C283 1.491 . S
C289 C288 1.400 1_455 S
C289 C290 1.398 . S
C290 H278 0.950 . S
C290 C289 1.398 . S
C290 C291 1.391 . S
C291 H279 0.950 . S
C291 C287 1.393 . S
C291 C290 1.391 . S
H292 C300 0.950 . S
H293 C305 0.950 . S
H294 C302 0.950 . S
H295 C304 0.950 . S
H296 C306 0.950 . S
H297 C308 0.950 . S
H298 C310 0.950 . S
H299 C311 0.950 . S
C300 H292 0.950 . S
C300 C301 1.386 1_545 S
C300 C302 1.391 . S
C301 C300 1.386 1_565 S
C301 C305 1.393 . S
C302 H294 0.950 . S
C302 C300 1.391 . S
C302 C303 1.400 1_545 S
C303 C302 1.400 1_565 S
C303 C304 1.398 . S
C303 C309 1.491 . S
C304 H295 0.950 . S
C304 C303 1.398 . S
C304 C305 1.391 . S
C305 H293 0.950 . S
C305 C301 1.393 . S
C305 C304 1.391 . S
C306 H296 0.950 . S
C306 C307 1.386 1_565 S
C306 C308 1.391 . S
C307 C306 1.386 1_545 S
C307 C311 1.393 . S
C308 H297 0.950 . S
C308 C306 1.391 . S
C308 C309 1.406 . S
C309 C303 1.491 . S
C309 C308 1.406 . S
C309 C310 1.392 1_565 S
C310 H298 0.950 . S
C310 C309 1.392 1_545 S
C310 C311 1.391 . S
C311 H299 0.950 . S
C311 C307 1.393 . S
C311 C310 1.391 . S
H312 C320 0.950 . S
H313 C325 0.950 . S
H314 C322 0.950 . S
H315 C324 0.950 . S
H316 C326 0.950 . S
H317 C328 0.950 . S
H318 C330 0.950 . S
H319 C331 0.950 . S
C320 H312 0.950 . S
C320 C321 1.386 1_455 S
C320 C322 1.391 . S
C321 C320 1.386 1_655 S
C321 C325 1.393 . S
C322 H314 0.950 . S
C322 C320 1.391 . S
C322 C323 1.400 1_455 S
C323 C322 1.400 1_655 S
C323 C324 1.398 . S
C323 C329 1.491 . S
C324 H315 0.950 . S
C324 C323 1.398 . S
C324 C325 1.391 . S
C325 H313 0.950 . S
C325 C321 1.393 . S
C325 C324 1.391 . S
C326 H316 0.950 . S
C326 C327 1.386 . S
C326 C328 1.391 . S
C327 C326 1.386 . S
C327 C331 1.393 1_655 S
C328 H317 0.950 . S
C328 C326 1.391 . S
C328 C329 1.400 . S
C329 C323 1.491 . S
C329 C328 1.400 . S
C329 C330 1.398 1_655 S
C330 H318 0.950 . S
C330 C329 1.398 1_455 S
C330 C331 1.391 . S
C331 H319 0.950 . S
C331 C327 1.393 1_455 S
C331 C330 1.391 . S
H332 C340 0.950 . S
H333 C345 0.950 . S
H334 C342 0.950 1_565 S
H335 C344 0.950 . S
H336 C346 0.950 . S
H337 C348 0.950 . S
H338 C350 0.950 . S
H339 C351 0.950 . S
C340 H332 0.950 . S
C340 C341 1.386 . S
C340 C342 1.391 . S
C341 C340 1.386 . S
C341 C345 1.393 . S
C342 H334 0.950 1_545 S
C342 C340 1.391 . S
C342 C343 1.400 . S
C343 C342 1.400 . S
C343 C344 1.398 . S
C343 C349 1.491 . S
C344 H335 0.950 . S
C344 C343 1.398 . S
C344 C345 1.391 . S
C345 H333 0.950 . S
C345 C341 1.393 . S
C345 C344 1.391 . S
C346 H336 0.950 . S
C346 C347 1.386 . S
C346 C348 1.391 . S
C347 C346 1.386 . S
C347 C351 1.393 1_545 S
C348 H337 0.950 . S
C348 C346 1.391 . S
C348 C349 1.400 . S
C349 C343 1.491 . S
C349 C348 1.400 . S
C349 C350 1.398 1_545 S
C350 H338 0.950 . S
C350 C349 1.398 1_565 S
C350 C351 1.391 . S
C351 H339 0.950 . S
C351 C347 1.393 1_565 S
C351 C350 1.391 . S
H352 C360 0.950 . S
H353 C365 0.950 . S
H354 C362 0.950 . S
H355 C364 0.950 . S
H356 C366 0.950 . S
H357 C368 0.950 . S
H358 C370 0.951 . S
H359 C371 0.950 1_655 S
C360 H352 0.950 . S
C360 C361 1.386 . S
C360 C362 1.391 . S
C361 C360 1.386 . S
C361 C365 1.393 . S
C362 H354 0.950 . S
C362 C360 1.391 . S
C362 C363 1.400 . S
C363 C362 1.400 . S
C363 C364 1.398 . S
C363 C369 1.491 . S
C364 H355 0.950 . S
C364 C363 1.398 . S
C364 C365 1.391 . S
C365 H353 0.950 . S
C365 C361 1.393 . S
C365 C364 1.391 . S
C366 H356 0.950 . S
C366 C367 1.386 . S
C366 C368 1.391 . S
C367 C366 1.386 . S
C367 C371 1.393 . S
C368 H357 0.950 . S
C368 C366 1.391 . S
C368 C369 1.400 . S
C369 C363 1.491 . S
C369 C368 1.400 . S
C369 C370 1.398 . S
C370 H358 0.951 . S
C370 C369 1.398 . S
C370 C371 1.391 . S
C371 H359 0.950 1_455 S
C371 C367 1.393 . S
C371 C370 1.391 . S
H372 C380 0.950 . S
H373 C385 0.950 . S
H374 C382 0.950 . S
H375 C384 0.950 . S
H376 C386 0.950 . S
H377 C388 0.950 . S
H378 C390 0.950 . S
H379 C391 0.950 . S
C380 H372 0.950 . S
C380 C381 1.386 1_545 S
C380 C382 1.391 . S
C381 C380 1.386 1_565 S
C381 C385 1.393 . S
C382 H374 0.950 . S
C382 C380 1.391 . S
C382 C383 1.400 1_545 S
C383 C382 1.400 1_565 S
C383 C384 1.398 . S
C383 C389 1.490 1_565 S
C384 H375 0.950 . S
C384 C383 1.398 . S
C384 C385 1.391 . S
C385 H373 0.950 . S
C385 C381 1.393 . S
C385 C384 1.391 . S
C386 H376 0.950 . S
C386 C387 1.386 1_565 S
C386 C388 1.391 . S
C387 C386 1.386 1_545 S
C387 C391 1.393 . S
C388 H377 0.950 . S
C388 C386 1.391 . S
C388 C389 1.392 1_565 S
C389 C383 1.490 1_545 S
C389 C388 1.392 1_545 S
C389 C390 1.407 . S
C390 H378 0.950 . S
C390 C389 1.407 . S
C390 C391 1.391 . S
C391 H379 0.950 . S
C391 C387 1.393 . S
C391 C390 1.391 . S
H392 C400 0.950 . S
H393 C405 0.950 . S
H394 C402 0.950 . S
H395 C404 0.950 . S
H396 C406 0.950 . S
H397 C408 0.950 . S
H398 C410 0.950 . S
H399 C411 0.950 . S
C400 H392 0.950 . S
C400 C401 1.386 1_455 S
C400 C402 1.391 . S
C401 C400 1.386 1_655 S
C401 C405 1.393 . S
C402 H394 0.950 . S
C402 C400 1.391 . S
C402 C403 1.400 1_455 S
C403 C402 1.400 1_655 S
C403 C404 1.398 . S
C403 C409 1.491 . S
C404 H395 0.950 . S
C404 C403 1.398 . S
C404 C405 1.391 . S
C405 H393 0.950 . S
C405 C401 1.393 . S
C405 C404 1.391 . S
C406 H396 0.950 . S
C406 C407 1.386 1_655 S
C406 C408 1.391 . S
C407 C406 1.386 1_455 S
C407 C411 1.393 . S
C408 H397 0.950 . S
C408 C406 1.391 . S
C408 C409 1.400 . S
C409 C403 1.491 . S
C409 C408 1.400 . S
C409 C410 1.398 1_655 S
C410 H398 0.950 . S
C410 C409 1.398 1_455 S
C410 C411 1.391 . S
C411 H399 0.950 . S
C411 C407 1.393 . S
C411 C410 1.391 . S
H412 C420 0.950 1_565 S
H413 C425 0.950 . S
H414 C422 0.946 1_565 S
H415 C424 0.950 . S
H416 C426 0.950 . S
H417 C428 0.950 . S
H418 C430 0.950 . S
H419 C431 0.950 . S
C420 H412 0.950 1_545 S
C420 C421 1.386 . S
C420 C422 1.392 . S
C421 C420 1.386 . S
C421 C425 1.393 . S
C422 H414 0.946 1_545 S
C422 C420 1.392 . S
C422 C423 1.403 . S
C423 C422 1.403 . S
C423 C424 1.398 . S
C423 C429 1.491 . S
C424 H415 0.950 . S
C424 C423 1.398 . S
C424 C425 1.391 . S
C425 H413 0.950 . S
C425 C421 1.393 . S
C425 C424 1.391 . S
C426 H416 0.950 . S
C426 C427 1.386 . S
C426 C428 1.391 . S
C427 C426 1.386 . S
C427 C431 1.393 1_545 S
C428 H417 0.950 . S
C428 C426 1.391 . S
C428 C429 1.400 . S
C429 C423 1.491 . S
C429 C428 1.400 . S
C429 C430 1.398 1_545 S
C430 H418 0.950 . S
C430 C429 1.398 1_565 S
C430 C431 1.391 . S
C431 H419 0.950 . S
C431 C427 1.393 1_565 S
C431 C430 1.391 . S
H432 C440 0.950 . S
H433 C445 0.950 . S
H434 C442 0.950 . S
H435 C444 0.950 . S
H436 C446 0.950 . S
H437 C448 0.950 . S
H438 C450 0.950 . S
H439 C451 0.950 . S
C440 H432 0.950 . S
C440 C441 1.386 1_554 S
C440 C442 1.391 . S
C441 C440 1.386 1_556 S
C441 C445 1.393 . S
C442 H434 0.950 . S
C442 C440 1.391 . S
C442 C443 1.400 1_554 S
C443 C442 1.400 1_556 S
C443 C444 1.398 . S
C443 C449 1.491 . S
C444 H435 0.950 . S
C444 C443 1.398 . S
C444 C445 1.391 . S
C445 H433 0.950 . S
C445 C441 1.393 . S
C445 C444 1.391 . S
C446 H436 0.950 . S
C446 C447 1.386 1_556 S
C446 C448 1.391 . S
C447 C446 1.386 1_554 S
C447 C451 1.393 . S
C448 H437 0.950 . S
C448 C446 1.391 . S
C448 C449 1.400 . S
C449 C443 1.491 . S
C449 C448 1.400 . S
C449 C450 1.398 1_556 S
C450 H438 0.950 . S
C450 C449 1.398 1_554 S
C450 C451 1.391 . S
C451 H439 0.950 . S
C451 C447 1.393 . S
C451 C450 1.391 . S
H452 C460 0.950 . S
H453 C465 0.950 . S
H454 C462 0.950 . S
H455 C464 0.950 . S
H456 C466 0.950 . S
H457 C468 0.950 . S
H458 C470 0.950 . S
H459 C471 0.950 . S
C460 H452 0.950 . S
C460 C461 1.386 1_556 S
C460 C462 1.391 . S
C461 C460 1.386 1_554 S
C461 C465 1.393 . S
C462 H454 0.950 . S
C462 C460 1.391 . S
C462 C463 1.400 1_556 S
C463 C462 1.400 1_554 S
C463 C464 1.398 . S
C463 C469 1.491 . S
C464 H455 0.950 . S
C464 C463 1.398 . S
C464 C465 1.391 . S
C465 H453 0.950 . S
C465 C461 1.393 . S
C465 C464 1.391 . S
C466 H456 0.950 . S
C466 C467 1.386 . S
C466 C468 1.391 . S
C467 C466 1.386 . S
C467 C471 1.393 1_554 S
C468 H457 0.950 . S
C468 C466 1.391 . S
C468 C469 1.400 . S
C469 C463 1.491 . S
C469 C468 1.400 . S
C469 C470 1.398 1_554 S
C470 H458 0.950 . S
C470 C469 1.398 1_556 S
C470 C471 1.391 . S
C471 H459 0.950 . S
C471 C467 1.393 1_556 S
C471 C470 1.391 . S
H472 C480 0.950 . S
H473 C485 0.950 1_556 S
H474 C482 0.950 . S
H475 C484 0.950 . S
H476 C486 0.950 . S
H477 C488 0.950 . S
H478 C490 0.950 . S
H479 C491 0.950 . S
C480 H472 0.950 . S
C480 C481 1.386 . S
C480 C482 1.391 . S
C481 C480 1.386 . S
C481 C485 1.393 . S
C482 H474 0.950 . S
C482 C480 1.391 . S
C482 C483 1.400 . S
C483 C482 1.400 . S
C483 C484 1.398 1_554 S
C483 C489 1.491 . S
C484 H475 0.950 . S
C484 C483 1.398 1_556 S
C484 C485 1.391 1_556 S
C485 H473 0.950 1_554 S
C485 C481 1.393 . S
C485 C484 1.391 1_554 S
C486 H476 0.950 . S
C486 C487 1.386 1_556 S
C486 C488 1.391 . S
C487 C486 1.386 1_554 S
C487 C491 1.393 . S
C488 H477 0.950 . S
C488 C486 1.391 . S
C488 C489 1.400 1_556 S
C489 C483 1.491 . S
C489 C488 1.400 1_554 S
C489 C490 1.398 . S
C490 H478 0.950 . S
C490 C489 1.398 . S
C490 C491 1.391 . S
C491 H479 0.950 . S
C491 C487 1.393 . S
C491 C490 1.391 . S
H492 C500 0.950 . S
H493 C505 0.950 . S
H494 C502 0.950 . S
H495 C504 0.950 1_554 S
H496 C506 0.953 . S
H497 C508 0.948 1_554 S
H498 C510 0.950 . S
H499 C511 0.950 . S
C500 H492 0.950 . S
C500 C501 1.386 . S
C500 C502 1.391 . S
C501 C500 1.386 . S
C501 C505 1.393 . S
C502 H494 0.950 . S
C502 C500 1.391 . S
C502 C503 1.400 . S
C503 C502 1.400 . S
C503 C504 1.398 . S
C503 C509 1.491 . S
C504 H495 0.950 1_556 S
C504 C503 1.398 . S
C504 C505 1.391 . S
C505 H493 0.950 . S
C505 C501 1.393 . S
C505 C504 1.391 . S
C506 H496 0.953 . S
C506 C507 1.384 1_554 S
C506 C508 1.390 1_554 S
C507 C506 1.384 1_556 S
C507 C511 1.393 . S
C508 H497 0.948 1_556 S
C508 C506 1.390 1_556 S
C508 C509 1.400 . S
C509 C503 1.491 . S
C509 C508 1.400 . S
C509 C510 1.398 . S
C510 H498 0.950 . S
C510 C509 1.398 . S
C510 C511 1.391 . S
C511 H499 0.950 . S
C511 C507 1.393 . S
C511 C510 1.391 . S
C287 C223 1.710 . S
C281 C39 1.595 . S
C307 C230 1.727 . S
C301 C113 1.620 . S
C327 C225 2.082 . S
C321 C69 2.076 . S
C347 C231 0.817 . S
C341 C125 0.820 . S
C361 C63 1.573 . S
C367 C224 1.668 . S
C387 C233 1.676 . S
C381 C137 1.570 . S
C401 C51 0.816 . S
C407 C222 0.815 . S
C421 C143 2.096 . S
C427 C232 2.101 . S
C441 C187 1.614 . S
C447 C227 1.719 . S
C461 C217 2.085 . S
C467 C226 2.092 1_554 S
C487 C229 0.810 . S
C481 C199 0.814 . S
C507 C228 1.672 1_556 S
C501 C211 1.569 . S
