# Generated by pormake.
# Topology zzz, (3,6)-cn, num edge types: 1
# Building blocks:
#     Node 0, Type 0, BuildingBlock: ESEHIV_clean_linker_0, # of connection points: 3
#     Node 1, Type 0, BuildingBlock: ESEHIV_clean_linker_0, # of connection points: 3
#     Node 2, Type 0, BuildingBlock: ESEHIV_clean_linker_0, # of connection points: 3
#     Node 3, Type 0, BuildingBlock: ESEHIV_clean_linker_0, # of connection points: 3
#     Node 4, Type 0, BuildingBlock: ESEHIV_clean_linker_0, # of connection points: 3
#     Node 5, Type 0, BuildingBlock: ESEHIV_clean_linker_0, # of connection points: 3
#     Node 6, Type 0, BuildingBlock: ESEHIV_clean_linker_0, # of connection points: 3
#     Node 7, Type 0, BuildingBlock: ESEHIV_clean_linker_0, # of connection points: 3
#     Node 8, Type 1, BuildingBlock: KUMJIN_clean_sbu_0, # of connection points: 6
#     Node 9, Type 1, BuildingBlock: KUMJIN_clean_sbu_0, # of connection points: 6
#     Node 10, Type 1, BuildingBlock: KUMJIN_clean_sbu_0, # of connection points: 6
#     Node 11, Type 1, BuildingBlock: KUMJIN_clean_sbu_0, # of connection points: 6
#     Edge 12, Type (0, 1), BuildingBlock: XIVTED_clean_linker_0, # of connection points: 2
#     Edge 13, Type (0, 1), BuildingBlock: XIVTED_clean_linker_0, # of connection points: 2
#     Edge 14, Type (0, 1), BuildingBlock: XIVTED_clean_linker_0, # of connection points: 2
#     Edge 15, Type (0, 1), BuildingBlock: XIVTED_clean_linker_0, # of connection points: 2
#     Edge 16, Type (0, 1), BuildingBlock: XIVTED_clean_linker_0, # of connection points: 2
#     Edge 17, Type (0, 1), BuildingBlock: XIVTED_clean_linker_0, # of connection points: 2
#     Edge 18, Type (0, 1), BuildingBlock: XIVTED_clean_linker_0, # of connection points: 2
#     Edge 19, Type (0, 1), BuildingBlock: XIVTED_clean_linker_0, # of connection points: 2
#     Edge 20, Type (0, 1), BuildingBlock: XIVTED_clean_linker_0, # of connection points: 2
#     Edge 21, Type (0, 1), BuildingBlock: XIVTED_clean_linker_0, # of connection points: 2
#     Edge 22, Type (0, 1), BuildingBlock: XIVTED_clean_linker_0, # of connection points: 2
#     Edge 23, Type (0, 1), BuildingBlock: XIVTED_clean_linker_0, # of connection points: 2
#     Edge 24, Type (0, 1), BuildingBlock: XIVTED_clean_linker_0, # of connection points: 2
#     Edge 25, Type (0, 1), BuildingBlock: XIVTED_clean_linker_0, # of connection points: 2
#     Edge 26, Type (0, 1), BuildingBlock: XIVTED_clean_linker_0, # of connection points: 2
#     Edge 27, Type (0, 1), BuildingBlock: XIVTED_clean_linker_0, # of connection points: 2
#     Edge 28, Type (0, 1), BuildingBlock: XIVTED_clean_linker_0, # of connection points: 2
#     Edge 29, Type (0, 1), BuildingBlock: XIVTED_clean_linker_0, # of connection points: 2
#     Edge 30, Type (0, 1), BuildingBlock: XIVTED_clean_linker_0, # of connection points: 2
#     Edge 31, Type (0, 1), BuildingBlock: XIVTED_clean_linker_0, # of connection points: 2
#     Edge 32, Type (0, 1), BuildingBlock: XIVTED_clean_linker_0, # of connection points: 2
#     Edge 33, Type (0, 1), BuildingBlock: XIVTED_clean_linker_0, # of connection points: 2
#     Edge 34, Type (0, 1), BuildingBlock: XIVTED_clean_linker_0, # of connection points: 2
#     Edge 35, Type (0, 1), BuildingBlock: XIVTED_clean_linker_0, # of connection points: 2
# Relax obj value: 0.339
# Max RMSD: 0.221
# Mean RMSD: 0.214
data_MOF--net-zzz--node1-KUMJIN_clean_sbu_0--node2-ESEHIV_clean_linker_0--edge1-XIVTED_clean_linker_0
_symmetry_space_group_name_H-M    P1
_symmetry_Int_Tables_number       1
_symmetry_cell_setting            triclinic
loop_
_symmetry_equiv_pos_as_xyz
'x, y, z'
_cell_length_a     44.191966
_cell_length_b     44.195434
_cell_length_c     15.522014
_cell_angle_alpha  91.095754
_cell_angle_beta   90.108961
_cell_angle_gamma 89.950535
loop_
_atom_site_label
_atom_site_type_symbol
_atom_site_fract_x
_atom_site_fract_y
_atom_site_fract_z
_atom_type_partial_charge
H0 H 0.80146 0.58684 0.2622 0.0
H1 H 0.73081 0.59861 0.07731 0.0
H2 H 0.72493 0.52667 0.26221 0.0
C3 C 0.7793 0.58059 0.23742 0.0
C4 C 0.76473 0.55559 0.27237 0.0
C5 C 0.76737 0.59601 0.16721 0.0
C6 C 0.73944 0.58695 0.13305 0.0
C7 C 0.72322 0.56236 0.16677 0.0
C8 C 0.73651 0.54603 0.23613 0.0
H9 H 0.94037 0.81925 0.2084 0.0
H10 H 0.92954 0.73552 0.06807 0.0
H11 H 0.99804 0.74376 0.26569 0.0
C12 C 0.94628 0.7957 0.19773 0.0
C13 C 0.96926 0.78342 0.24887 0.0
C14 C 0.93239 0.77896 0.1307 0.0
C15 C 0.94085 0.74865 0.11795 0.0
C16 C 0.96493 0.73542 0.16319 0.0
C17 C 0.97952 0.75327 0.22934 0.0
H18 H 0.71194 0.93441 0.22258 0.0
H19 H 0.79742 0.92963 0.09093 0.0
H20 H 0.78262 0.99698 0.29037 0.0
C21 C 0.73521 0.94148 0.21531 0.0
C22 C 0.74583 0.96482 0.27013 0.0
C23 C 0.75283 0.92964 0.14704 0.0
C24 C 0.78291 0.93944 0.1402 0.0
C25 C 0.7937 0.96433 0.18838 0.0
C26 C 0.77484 0.97746 0.25342 0.0
H27 H 0.57954 0.7182 0.2768 0.0
H28 H 0.52869 0.80007 0.31625 0.0
H29 H 0.58453 0.78827 0.08993 0.0
C30 C 0.57443 0.74112 0.25747 0.0
C31 C 0.58482 0.75126 0.17797 0.0
C32 C 0.55418 0.75806 0.3078 0.0
C33 C 0.54509 0.787 0.27944 0.0
C34 C 0.55731 0.79866 0.20212 0.0
C35 C 0.57696 0.78045 0.1521 0.0
H36 H 0.21868 0.44767 0.1118 0.0
H37 H 0.29365 0.44672 0.28629 0.0
H38 H 0.29824 0.49978 0.05511 0.0
C39 C 0.24183 0.45402 0.12687 0.0
C40 C 0.2568 0.47378 0.07192 0.0
C41 C 0.25472 0.44451 0.20412 0.0
C42 C 0.28399 0.45383 0.22562 0.0
C43 C 0.30037 0.47345 0.17272 0.0
C44 C 0.2863 0.48419 0.0959 0.0
H45 H 0.09145 0.2191 0.12357 0.0
H46 H 0.09599 0.30076 0.27747 0.0
H47 H 0.01861 0.28326 0.11473 0.0
C48 C 0.08258 0.24104 0.14247 0.0
C49 C 0.05523 0.25012 0.10455 0.0
C50 C 0.09676 0.25801 0.20867 0.0
C51 C 0.08439 0.28632 0.23103 0.0
C52 C 0.05557 0.29524 0.20262 0.0
C53 C 0.04084 0.27699 0.13776 0.0
H54 H 0.31533 0.09229 0.10472 0.0
H55 H 0.23111 0.09998 0.24187 0.0
H56 H 0.24444 0.0281 0.05452 0.0
C57 C 0.29216 0.08538 0.11499 0.0
C58 C 0.28131 0.0606 0.06609 0.0
C59 C 0.27506 0.09892 0.18179 0.0
C60 C 0.24516 0.0891 0.19328 0.0
C61 C 0.23402 0.06316 0.15045 0.0
C62 C 0.25246 0.04845 0.08708 0.0
H63 H 0.43883 0.30404 0.05963 0.0
H64 H 0.4934 0.22378 0.05218 0.0
H65 H 0.42052 0.23328 0.23649 0.0
C66 C 0.44274 0.28118 0.08138 0.0
C67 C 0.42639 0.27031 0.15154 0.0
C68 C 0.46695 0.265 0.04546 0.0
C69 C 0.47419 0.2361 0.07815 0.0
C70 C 0.45655 0.22358 0.14556 0.0
C71 C 0.43283 0.24124 0.1811 0.0
Eu72 Eu 0.04274 1.0055 0.74973 0.0
C73 C 0.92615 0.99371 0.5196 0.0
C74 C 0.94236 0.95996 0.40443 0.0
C75 C 0.88949 0.96107 0.4465 0.0
C76 C 0.94899 0.98193 0.46913 0.0
C77 C 0.89595 0.98412 0.50725 0.0
C78 C 0.91269 0.94898 0.39516 0.0
C79 C 0.88031 0.02326 0.60811 0.0
N80 N 0.9331 0.01628 0.5763 0.0
C81 C 0.91056 0.03203 0.6175 0.0
C82 C 0.87301 0.99883 0.5538 0.0
Eu83 Eu 0.98494 0.02919 0.59602 0.0
N84 N 0.97728 0.99345 0.47924 0.0
C85 C 0.99934 0.98556 0.42097 0.0
C86 C 0.96545 0.95049 0.34888 0.0
C87 C 0.99391 0.96377 0.35624 0.0
H88 H 0.91607 0.05087 0.66011 0.0
H89 H 0.01181 0.95713 0.3123 0.0
H90 H 0.90729 0.9319 0.34653 0.0
H91 H 0.8627 0.03533 0.64286 0.0
H92 H 0.02171 0.99495 0.42443 0.0
H93 H 0.0127 0.07246 0.0406 0.0
H94 H 0.96132 0.93363 0.29861 0.0
H95 H 0.11324 0.98745 0.68912 0.0
H96 H 1.00518 0.03443 0.92739 0.0
H97 H 0.16532 1.00716 0.70426 0.0
H98 H 0.8665 0.95318 0.43672 0.0
H99 H 0.06081 0.10067 0.05108 0.0
H100 H 0.11395 0.10757 0.99928 0.0
H101 H 0.84955 0.99216 0.54615 0.0
H102 H 0.15578 0.08986 0.90692 0.0
N103 N 0.04847 0.04076 0.86846 0.0
C104 C 0.02648 0.0461 0.92909 0.0
C105 C 0.0577 0.08381 1.00021 0.0
C106 C 0.08097 0.07682 0.94243 0.0
C107 C 0.03059 0.06787 0.99464 0.0
C108 C 0.0757 0.0547 0.87713 0.0
H109 H 0.17534 0.05197 0.79797 0.0
N110 N 0.09371 0.02177 0.76919 0.0
C111 C 0.14689 0.01825 0.73812 0.0
C112 C 0.0991 0.04493 0.82537 0.0
C113 C 0.11737 1.00719 0.72966 0.0
C114 C 0.15242 0.04358 0.79076 0.0
C115 C 0.12854 0.05675 0.83712 0.0
O116 O 0.06946 0.96497 0.77435 0.0
O117 O 0.00883 0.98914 0.65022 0.0
O118 O 0.95836 0.00835 0.70639 0.0
O119 O 0.99555 1.00304 0.81192 0.0
O120 O 0.05185 0.97102 0.64214 0.0
O121 O 0.03217 0.9765 0.85799 0.0
O122 O 0.96044 0.07083 0.56837 0.0
O123 O 0.01818 0.04557 0.69763 0.0
O124 O 0.06898 0.02539 0.63729 0.0
O125 O 0.03179 0.02965 0.5316 0.0
O126 O 0.97464 0.06267 0.70468 0.0
O127 O 0.99842 0.05769 0.48931 0.0
C128 C 0.02495 0.96953 0.61023 0.0
C129 C 0.03591 0.92584 0.80619 0.0
C130 C 0.99026 0.89551 0.78264 0.0
C131 C 1.00438 0.92223 0.81185 0.0
C132 C 0.00814 0.87281 0.74301 0.0
C133 C 0.0533 0.90268 0.76782 0.0
C134 C 0.03938 0.87652 0.73544 0.0
C135 C 0.96679 1.0029 0.78677 0.0
C136 C 0.0501 0.95505 0.82988 0.0
C137 C 0.13344 0.08022 0.89776 0.0
C138 C 0.10964 0.09027 0.95037 0.0
C139 C 1.00125 0.06436 0.73832 0.0
C140 C 0.99553 0.10894 0.53691 0.0
C141 C 0.02683 0.11289 0.52499 0.0
C142 C 0.04125 0.13997 0.55044 0.0
C143 C 0.0239 0.16268 0.59214 0.0
C144 C 0.97876 0.13211 0.57753 0.0
C145 C 0.993 0.15861 0.6059 0.0
C146 C 0.06054 0.02992 0.55649 0.0
C147 C 0.98082 0.07982 0.51441 0.0
H148 H 0.99068 0.94024 0.83917 0.0
H149 H 0.99832 0.8516 0.72103 0.0
H150 H 0.07757 0.90514 0.76104 0.0
H151 H 0.05292 0.85883 0.70547 0.0
H152 H 0.04003 0.09489 0.49571 0.0
H153 H 0.03378 0.18418 0.6112 0.0
H154 H 0.95471 0.12952 0.58862 0.0
H155 H 0.97992 0.17632 0.63742 0.0
Eu156 Eu 0.51964 0.04189 0.74062 0.0
C157 C 0.5468 0.92022 0.54121 0.0
C158 C 0.58159 0.93445 0.42929 0.0
C159 C 0.58449 0.88416 0.48905 0.0
C160 C 0.55766 0.94165 0.48637 0.0
C161 C 0.55934 0.89084 0.54124 0.0
C162 C 0.59563 0.90598 0.43307 0.0
C163 C 0.51857 0.87573 0.6342 0.0
N164 N 0.52207 0.92727 0.5887 0.0
C165 C 0.50685 0.90509 0.63086 0.0
C166 C 0.54532 0.8687 0.59051 0.0
Eu167 Eu 0.50471 0.97827 0.58973 0.0
N168 N 0.54318 0.96871 0.48389 0.0
C169 C 0.54978 0.98836 0.41945 0.0
C170 C 0.58984 0.95557 0.36779 0.0
C171 C 0.57341 0.98237 0.36172 0.0
H172 H 0.4859 0.91036 0.66362 0.0
H173 H 0.57895 0.99851 0.31261 0.0
H174 H 0.61431 0.90023 0.39068 0.0
H175 H 0.50687 0.85853 0.66999 0.0
H176 H 0.53742 0.00906 0.41209 0.0
H177 H 0.44947 0.02258 0.02667 0.0
H178 H 0.60811 0.95097 0.32293 0.0
H179 H 0.531 0.10686 0.63792 0.0
H180 H 0.48832 0.01054 0.92016 0.0
H181 H 0.50882 0.15812 0.63095 0.0
H182 H 0.5947 0.86186 0.48897 0.0
H183 H 0.42196 0.07119 0.02188 0.0
H184 H 0.41499 0.12156 0.95355 0.0
H185 H 0.55422 0.84587 0.5923 0.0
H186 H 0.43096 0.15838 0.8459 0.0
N187 N 0.4832 0.05169 0.85121 0.0
C188 C 0.47692 0.03193 0.91566 0.0
C189 C 0.43921 0.06609 0.97422 0.0
C190 C 0.4466 0.08688 0.91094 0.0
C191 C 0.4547 0.03866 0.97714 0.0
C192 C 0.46914 0.07906 0.84999 0.0
H193 H 0.46603 0.17231 0.72605 0.0
N194 N 0.50052 0.092 0.73423 0.0
C195 C 0.49985 0.14193 0.67566 0.0
C196 C 0.478 0.09977 0.78946 0.0
C197 C 0.51242 0.11296 0.68002 0.0
C198 C 0.47566 0.1498 0.72924 0.0
C199 C 0.46475 0.12883 0.78804 0.0
O200 O 0.55667 0.07333 0.76627 0.0
O201 O 0.54082 1.00716 0.65047 0.0
O202 O 0.52372 0.95736 0.71152 0.0
O203 O 0.52215 0.99712 0.81338 0.0
O204 O 0.55532 0.0514 0.63927 0.0
O205 O 0.54771 0.0373 0.85555 0.0
O206 O 0.46619 0.95017 0.55127 0.0
O207 O 0.48463 0.01194 0.68278 0.0
O208 O 0.49098 0.05866 0.62957 0.0
O209 O 0.50575 0.02445 0.52282 0.0
O210 O 0.46713 0.96892 0.68696 0.0
O211 O 0.47849 0.98827 0.47422 0.0
C212 C 0.55972 0.02398 0.61273 0.0
C213 C 0.59863 0.0462 0.81437 0.0
C214 C 0.63453 1.00449 0.79626 0.0
C215 C 0.60552 0.01517 0.81751 0.0
C216 C 0.65638 0.02521 0.76804 0.0
C217 C 0.62093 0.06652 0.78745 0.0
C218 C 0.64953 0.05598 0.7636 0.0
C219 C 0.52541 0.96806 0.79184 0.0
C220 C 0.56741 0.057 0.82823 0.0
C221 C 0.44158 0.13628 0.84646 0.0
C222 C 0.43251 0.11533 0.90778 0.0
C223 C 0.46478 0.99593 0.71894 0.0
C224 C 0.42659 0.98174 0.50736 0.0
C225 C 0.4211 0.01294 0.49942 0.0
C226 C 0.39281 0.02546 0.52092 0.0
C227 C 0.37012 1.00628 0.55257 0.0
C228 C 0.40343 0.96305 0.53778 0.0
C229 C 0.37547 0.97536 0.56087 0.0
C230 C 0.49516 0.05133 0.54756 0.0
C231 C 0.45722 0.96919 0.49372 0.0
H232 H 0.58833 0.99917 0.83602 0.0
H233 H 0.67915 0.01788 0.75255 0.0
H234 H 0.61597 0.09045 0.78293 0.0
H235 H 0.66657 0.07176 0.74246 0.0
H236 H 0.43889 0.02758 0.47693 0.0
H237 H 0.34779 0.01485 0.568 0.0
H238 H 0.40718 0.93903 0.54548 0.0
H239 H 0.35778 0.96082 0.58466 0.0
Eu240 Eu 0.54533 0.49892 0.59536 0.0
C241 C 0.41685 0.50869 0.64714 0.0
C242 C 0.39397 0.55808 0.6303 0.0
C243 C 0.36743 0.51326 0.5785 0.0
C244 C 0.41828 0.53977 0.65747 0.0
C245 C 0.39091 0.49506 0.60965 0.0
C246 C 0.36899 0.54473 0.58861 0.0
C247 C 0.41253 0.44633 0.63965 0.0
N248 N 0.44025 0.49168 0.67623 0.0
C249 C 0.43789 0.4608 0.67521 0.0
C250 C 0.3891 0.46351 0.60568 0.0
Eu251 Eu 0.48267 0.51831 0.73591 0.0
N252 N 0.44256 0.55199 0.69873 0.0
C253 C 0.44236 0.58205 0.72262 0.0
C254 C 0.39496 0.58918 0.64847 0.0
C255 C 0.41902 0.60112 0.69626 0.0
H256 H 0.4552 0.44679 0.70159 0.0
H257 H 0.41957 0.62499 0.71311 0.0
H258 H 0.35034 0.55847 0.5663 0.0
H259 H 0.41116 0.42188 0.63822 0.0
H260 H 0.46082 0.59149 0.76033 0.0
H261 H 0.61474 0.43533 0.82409 0.0
H262 H 0.37677 0.60396 0.62856 0.0
H263 H 0.57169 0.55174 0.45777 0.0
H264 H 0.5722 0.44397 0.72785 0.0
H265 H 0.61444 0.5872 0.44629 0.0
H266 H 0.34766 0.50318 0.54817 0.0
H267 H 0.65607 0.47278 0.83594 0.0
H268 H 0.67921 0.52092 0.78552 0.0
H269 H 0.36958 0.45223 0.57758 0.0
H270 H 0.6789 0.56272 0.68329 0.0
N271 N 0.58728 0.48728 0.68681 0.0
C272 C 0.58919 0.46119 0.73268 0.0
C273 C 0.63709 0.47694 0.79346 0.0
C274 C 0.63611 0.50267 0.74267 0.0
C275 C 0.6138 0.45582 0.78709 0.0
C276 C 0.61086 0.507 0.68814 0.0
H277 H 0.65528 0.58712 0.55533 0.0
N278 N 0.58728 0.53246 0.57484 0.0
C279 C 0.61357 0.5716 0.49913 0.0
C280 C 0.61068 0.53051 0.63102 0.0
C281 C 0.58943 0.55139 0.5059 0.0
C282 C 0.63648 0.57156 0.56092 0.0
C283 C 0.63569 0.55033 0.62651 0.0
O284 O 0.56574 0.49317 0.4681 0.0
O285 O 0.49415 0.49827 0.60656 0.0
O286 O 0.49775 0.47076 0.76793 0.0
O287 O 0.52767 0.45472 0.65259 0.0
O288 O 0.51216 0.51628 0.49558 0.0
O289 O 0.55266 0.45388 0.5379 0.0
O290 O 0.47605 0.49382 0.85626 0.0
O291 O 0.53314 0.51001 0.73206 0.0
O292 O 0.53927 0.55037 0.59278 0.0
O293 O 0.49319 0.5607 0.65893 0.0
O294 O 0.51885 0.55045 0.78727 0.0
O295 O 0.46069 0.53958 0.84763 0.0
C296 C 0.48738 0.50991 0.53472 0.0
C297 C 0.54515 0.45344 0.38666 0.0
C298 C 0.49949 0.43339 0.31764 0.0
C299 C 0.51552 0.44226 0.39225 0.0
C300 C 0.51352 0.43646 0.23685 0.0
C301 C 0.55869 0.45631 0.30566 0.0
C302 C 0.54288 0.44791 0.23114 0.0
C303 C 0.51271 0.44952 0.72478 0.0
C304 C 0.56132 0.46427 0.4641 0.0
C305 C 0.65978 0.54741 0.68485 0.0
C306 C 0.65999 0.52358 0.74285 0.0
C307 C 0.54209 0.53349 0.77275 0.0
C308 C 0.48444 0.52562 0.97723 0.0
C309 C 0.50209 0.55197 0.97916 0.0
C310 C 0.52174 0.55876 0.04795 0.0
C311 C 0.52266 0.53896 0.11782 0.0
C312 C 0.48565 0.50614 0.04734 0.0
C313 C 0.50445 0.51303 0.11769 0.0
C314 C 0.5169 0.56899 0.61339 0.0
C315 C 0.46688 0.51759 0.89901 0.0
H316 H 0.50502 0.44046 0.45486 0.0
H317 H 0.50224 0.42923 0.17802 0.0
H318 H 0.58139 0.46532 0.3001 0.0
H319 H 0.55344 0.45013 0.16872 0.0
H320 H 0.50093 0.56706 0.92558 0.0
H321 H 0.53696 0.54369 0.17314 0.0
H322 H 0.47232 0.48558 0.04733 0.0
H323 H 0.50504 0.49816 0.17217 0.0
Eu324 Eu 0.01438 0.54121 0.62339 0.0
C325 C 0.03049 0.41934 0.79637 0.0
C326 C 0.01446 0.38253 0.68827 0.0
C327 C 0.05317 0.36911 0.79196 0.0
C328 C 0.01263 0.41187 0.72594 0.0
C329 C 0.05025 0.39772 0.83185 0.0
C330 C 0.03535 0.36156 0.72015 0.0
C331 C 0.06042 0.43296 0.94905 0.0
N332 N 0.02709 0.44706 0.83385 0.0
C333 C 0.04064 0.4536 0.91154 0.0
C334 C 0.06569 0.40508 0.90821 0.0
Eu335 Eu 0.994 0.4817 0.76558 0.0
N336 N 0.99235 0.43258 0.69726 0.0
C337 C 0.97196 0.42433 0.63445 0.0
C338 C 0.9947 0.3748 0.62111 0.0
C339 C 0.97311 0.39566 0.59495 0.0
H340 H 0.03666 0.4751 0.94376 0.0
H341 H 0.9573 0.3897 0.54407 0.0
H342 H 0.03726 0.33912 0.69128 0.0
H343 H 0.0716 0.43859 1.00936 0.0
H344 H 0.95478 0.43948 0.61239 0.0
H345 H 0.091 0.60341 0.85164 0.0
H346 H 0.99545 0.35258 0.59042 0.0
H347 H 0.95406 0.57005 0.51876 0.0
H348 H 0.06625 0.55947 0.79192 0.0
H349 H 0.93021 0.6188 0.49225 0.0
H350 H 0.06849 0.35237 0.81764 0.0
H351 H 0.07351 0.65438 0.8141 0.0
H352 H 0.03601 0.68639 0.73946 0.0
H353 H 0.08098 0.38906 0.93748 0.0
H354 H 0.99131 0.69052 0.64664 0.0
N355 N 0.03804 0.58311 0.70267 0.0
C356 C 0.06008 0.58064 0.76484 0.0
C357 C 0.06341 0.63472 0.78276 0.0
C358 C 0.03913 0.63757 0.72613 0.0
C359 C 0.07352 0.60607 0.80338 0.0
C360 C 0.02658 0.61115 0.68702 0.0
H361 H 0.95156 0.66562 0.55658 0.0
N362 N 0.9885 0.58797 0.60234 0.0
C363 C 0.94999 0.61772 0.53332 0.0
C364 C 1.00101 0.61356 0.63617 0.0
C365 C 0.96366 0.58993 0.5495 0.0
C366 C 0.96214 0.64404 0.56945 0.0
C367 C 0.98797 0.64227 0.6211 0.0
O368 O 0.99471 0.53409 0.49601 0.0
O369 O 1.00319 0.49111 0.62813 0.0
O370 O 0.04608 0.4865 0.76852 0.0
O371 O 0.06027 0.52644 0.67979 0.0
O372 O 0.04373 0.50234 0.57251 0.0
O373 O 0.03524 0.56121 0.50983 0.0
O374 O 0.97589 0.45992 0.88064 0.0
O375 O 0.99416 0.53241 0.75124 0.0
O376 O 0.96303 0.53869 0.64546 0.0
O377 O 0.9567 0.48787 0.66362 0.0
O378 O 0.01153 0.51654 0.86438 0.0
O379 O 0.94754 0.48929 0.80837 0.0
C380 C 0.02573 0.48018 0.58765 0.0
C381 C 0.02927 0.53017 0.38361 0.0
C382 C 0.0662 0.49261 0.33401 0.0
C383 C 0.05693 0.51517 0.39324 0.0
C384 C 0.04836 0.48715 0.26007 0.0
C385 C 0.01171 0.52436 0.30981 0.0
C386 C 0.02152 0.50327 0.24769 0.0
C387 C 0.06691 0.50473 0.73566 0.0
C388 C 0.01641 0.54786 0.45608 0.0
C389 C 1.00099 0.6684 0.65776 0.0
C390 C 0.02651 0.66605 0.71019 0.0
C391 C 1.00495 0.54068 0.82354 0.0
C392 C 0.94623 0.49496 0.95968 0.0
C393 C 0.93911 0.52586 0.95301 0.0
C394 C 0.93303 0.54387 0.0266 0.0
C395 C 0.93652 0.53073 0.10819 0.0
C396 C 0.94937 0.48243 0.04146 0.0
C397 C 0.94494 0.50039 0.11525 0.0
C398 C 0.94625 0.51411 0.63641 0.0
C399 C 0.95155 0.47621 0.88142 0.0
H400 H 0.07049 0.52008 0.44966 0.0
H401 H 0.05518 0.47066 0.2114 0.0
H402 H 0.99008 0.5355 0.30144 0.0
H403 H 0.00794 0.49887 0.19074 0.0
H404 H 0.93783 0.53578 0.88997 0.0
H405 H 0.9315 0.54328 0.16694 0.0
H406 H 0.95534 0.45881 0.04822 0.0
H407 H 0.94727 0.49057 0.17828 0.0
H408 H 0.2268 0.01476 0.25498 0.0
H409 H 0.05588 0.05555 0.39501 0.0
H410 H 0.17626 0.08568 0.13433 0.0
H411 H 0.12015 0.01107 0.55858 0.0
H412 H 0.09555 0.06034 0.28512 0.0
H413 H 0.18339 1.00515 0.34925 0.0
C414 C 0.2061 0.02745 0.24577 0.0
C415 C 0.20504 0.05056 0.18496 0.0
C416 C 0.10094 0.04961 0.34537 0.0
C417 C 0.15529 0.04046 0.29545 0.0
C418 C 0.07829 0.04698 0.40866 0.0
C419 C 0.08459 0.03358 0.48847 0.0
C420 C 0.13009 0.03791 0.3603 0.0
C421 C 0.11411 0.02235 0.50029 0.0
C422 C 0.18146 0.02237 0.30084 0.0
C423 C 0.17788 0.06716 0.17879 0.0
N424 N 0.1355 0.02462 0.43739 0.0
N425 N 0.15423 0.0619 0.23328 0.0
H426 H 0.51248 0.19695 0.17872 0.0
H427 H 0.45095 0.09473 0.54839 0.0
H428 H 0.41663 0.18175 0.20917 0.0
H429 H 0.5265 0.06201 0.39811 0.0
H430 H 0.44207 0.13387 0.44083 0.0
H431 H 0.5223 0.15299 0.2702 0.0
C432 C 0.4935 0.18426 0.20313 0.0
C433 C 0.46362 0.19378 0.18703 0.0
C434 C 0.4605 0.118 0.43126 0.0
C435 C 0.47486 0.14413 0.29451 0.0
C436 C 0.46563 0.09573 0.49268 0.0
C437 C 0.4892 0.07471 0.48161 0.0
C438 C 0.47966 0.12003 0.35936 0.0
C439 C 0.50767 0.0773 0.40829 0.0
C440 C 0.49917 0.15931 0.25599 0.0
C441 C 0.44007 0.17619 0.22162 0.0
N442 N 0.50275 0.09972 0.35047 0.0
N443 N 0.44617 0.15282 0.27482 0.0
H444 H 0.32319 0.53019 0.21769 0.0
H445 H 0.45663 0.45742 0.49839 0.0
H446 H 0.34743 0.4358 0.20801 0.0
H447 H 0.45413 0.55296 0.45106 0.0
H448 H 0.41317 0.45026 0.40201 0.0
H449 H 0.3688 0.5405 0.306 0.0
C450 C 0.33856 0.51181 0.23157 0.0
C451 C 0.3315 0.48211 0.20414 0.0
C452 C 0.42207 0.47285 0.41224 0.0
C453 C 0.38311 0.49351 0.3086 0.0
C454 C 0.44668 0.47698 0.46852 0.0
C455 C 0.45861 0.5059 0.48487 0.0
C456 C 0.40922 0.49777 0.3704 0.0
C457 C 0.44523 0.53031 0.44179 0.0
C458 C 0.36439 0.51763 0.28311 0.0
C459 C 0.35195 0.45908 0.22681 0.0
N460 N 0.42119 0.52578 0.3872 0.0
N461 N 0.37636 0.46518 0.27808 0.0
H462 H 0.04561 0.29826 0.37498 0.0
H463 H 0.99076 0.46821 0.44355 0.0
H464 H 0.03586 0.35255 0.14911 0.0
H465 H 0.06227 0.43012 0.59567 0.0
H466 H 0.99401 0.42403 0.34343 0.0
H467 H 0.03702 0.34326 0.46586 0.0
C468 C 0.04071 0.31951 0.34414 0.0
C469 C 0.04136 0.32123 0.25347 0.0
C470 C 0.00876 0.42524 0.39915 0.0
C471 C 0.03139 0.37355 0.35906 0.0
C472 C 1.00676 0.45031 0.45678 0.0
C473 C 0.02563 0.45247 0.52993 0.0
C474 C 0.02933 0.40171 0.41558 0.0
C475 C 0.04673 0.4291 0.54166 0.0
C476 C 0.03616 0.34532 0.39646 0.0
C477 C 0.03518 0.34978 0.2182 0.0
N478 N 0.0476 0.40459 0.48645 0.0
N479 N 0.03048 0.37477 0.27091 0.0
H480 H 0.80033 0.01369 0.0878 0.0
H481 H 0.97207 0.97713 0.94784 0.0
H482 H 0.85193 0.94309 0.20634 0.0
H483 H 0.90645 0.01927 0.78336 0.0
H484 H 0.93255 0.97128 0.05771 0.0
H485 H 0.84366 0.0245 0.99445 0.0
C486 C 0.82126 1.00137 0.09694 0.0
C487 C 0.82262 0.97796 0.1568 0.0
C488 C 0.92684 0.98178 0.99733 0.0
C489 C 0.87228 0.98942 0.04717 0.0
C490 C 0.94941 0.98504 0.9341 0.0
C491 C 0.94275 0.99825 0.85424 0.0
C492 C 0.89737 0.99259 0.98226 0.0
C493 C 0.91287 0.00841 0.84204 0.0
C494 C 0.84584 1.00712 0.0423 0.0
C495 C 0.85007 0.96183 0.16274 0.0
N496 N 0.89155 1.00556 0.90493 0.0
N497 N 0.87367 0.96775 0.10862 0.0
H498 H 0.50489 0.81143 0.11724 0.0
H499 H 0.55961 0.97247 0.94117 0.0
H500 H 0.58963 0.85145 0.19511 0.0
H501 H 0.49715 0.91351 0.80732 0.0
H502 H 0.56537 0.93404 0.05319 0.0
H503 H 0.49542 0.85485 0.02433 0.0
C504 C 0.52099 0.8299 0.11701 0.0
C505 C 0.54779 0.82811 0.1652 0.0
C506 C 0.55053 0.92951 0.9989 0.0
C507 C 0.53758 0.87761 0.05704 0.0
C508 C 0.54732 0.95139 0.93474 0.0
C509 C 0.52883 0.94572 0.8624 0.0
C510 C 0.53427 0.90216 0.99229 0.0
C511 C 0.51273 0.91833 0.85927 0.0
C512 C 0.51583 0.85448 0.06303 0.0
C513 C 0.56842 0.85224 0.16016 0.0
N514 N 0.51574 0.89773 0.92291 0.0
N515 N 0.56296 0.87593 0.10699 0.0
H516 H 0.69931 0.50619 0.11465 0.0
H517 H 0.57917 0.58195 0.79884 0.0
H518 H 0.67848 0.60153 0.11906 0.0
H519 H 0.56457 0.49119 0.88506 0.0
H520 H 0.62124 0.58725 0.90158 0.0
H521 H 0.65464 0.49743 0.02076 0.0
C522 C 0.68519 0.52518 0.09749 0.0
C523 C 0.69318 0.55474 0.12458 0.0
C524 C 0.60912 0.56599 0.89752 0.0
C525 C 0.64259 0.54496 0.0146 0.0
C526 C 0.58518 0.56294 0.83847 0.0
C527 C 0.56914 0.53566 0.83061 0.0
C528 C 0.61715 0.54169 0.95038 0.0
C529 C 0.57724 0.51214 0.88618 0.0
C530 C 0.65983 0.52019 0.04318 0.0
C531 C 0.67389 0.5784 0.09889 0.0
N532 N 0.60081 0.51554 0.94304 0.0
N533 N 0.65014 0.57308 0.04472 0.0
H534 H 0.02258 0.71197 0.12689 0.0
H535 H 0.96267 0.58643 0.79757 0.0
H536 H 0.92839 0.68662 0.12391 0.0
H537 H 0.03817 0.56301 0.95901 0.0
H538 H 0.95474 0.63243 0.88788 0.0
H539 H 0.03418 0.66509 0.04297 0.0
C540 C 1.00442 0.69645 0.11051 0.0
C541 C 0.97434 0.70384 0.13264 0.0
C542 C 0.97332 0.61739 0.90261 0.0
C543 C 0.98735 0.65092 0.03185 0.0
C544 C 0.97795 0.59121 0.8507 0.0
C545 C 1.00131 0.57079 0.86993 0.0
C546 C 0.99263 0.62382 0.97312 0.0
C547 C 0.01996 0.5781 0.94132 0.0
C548 C 0.01102 0.66989 0.06138 0.0
C549 C 0.95187 0.6826 0.10754 0.0
N550 N 0.01549 0.60399 0.98944 0.0
N551 N 0.95868 0.65784 0.05731 0.0
H552 H 0.11155 0.27264 0.37996 0.0
H553 H 0.07127 0.11917 0.405 0.0
H554 H 0.13615 0.20895 0.17686 0.0
H555 H 0.08491 0.1748 0.63365 0.0
H556 H 0.11385 0.14337 0.33862 0.0
H557 H 0.12482 0.23597 0.48422 0.0
C558 C 0.12028 0.25132 0.35565 0.0
C559 C 0.11918 0.24307 0.26742 0.0
C560 C 0.10824 0.14983 0.40434 0.0
C561 C 0.13297 0.19993 0.38986 0.0
C562 C 0.08365 0.13581 0.44294 0.0
C563 C 0.07296 0.14634 0.5234 0.0
C564 C 0.12124 0.17542 0.44467 0.0
C565 C 0.09087 0.16749 0.56894 0.0
C566 C 0.12792 0.22998 0.4168 0.0
C567 C 0.133 0.21539 0.24378 0.0
N568 N 0.11342 0.18222 0.52773 0.0
N569 N 0.13773 0.1941 0.30444 0.0
H570 H 0.26009 0.10549 0.3553 0.0
H571 H 0.41336 0.0591 0.38564 0.0
H572 H 0.32629 0.13601 0.1716 0.0
H573 H 0.35636 0.06584 0.61086 0.0
H574 H 0.38966 0.10391 0.32988 0.0
H575 H 0.29653 0.11201 0.46814 0.0
C576 C 0.28192 0.11441 0.33764 0.0
C577 C 0.29074 0.11726 0.25095 0.0
C578 C 0.38276 0.09624 0.39272 0.0
C579 C 0.33349 0.12304 0.38208 0.0
C580 C 0.39644 0.0704 0.42499 0.0
C581 C 0.38566 0.05751 0.50107 0.0
C582 C 0.35721 0.10836 0.43463 0.0
C583 C 0.36409 0.07387 0.54925 0.0
C584 C 0.3031 0.11803 0.40349 0.0
C585 C 0.31921 0.13043 0.23604 0.0
N586 N 0.34975 0.09783 0.51378 0.0
N587 N 0.34019 0.13131 0.30018 0.0
H588 H 0.42437 0.27564 0.32827 0.0
H589 H 0.45007 0.43752 0.20943 0.0
H590 H 0.38819 0.31631 0.09956 0.0
H591 H 0.48009 0.39464 0.44224 0.0
H592 H 0.40811 0.40172 0.20012 0.0
H593 H 0.42064 0.32392 0.40303 0.0
C594 C 0.41442 0.29435 0.29421 0.0
C595 C 0.40878 0.29239 0.20518 0.0
C596 C 0.4234 0.40067 0.25458 0.0
C597 C 0.40639 0.3483 0.2895 0.0
C598 C 0.44764 0.42088 0.25927 0.0
C599 C 0.46966 0.41806 0.32406 0.0
C600 C 0.42162 0.37712 0.314 0.0
C601 C 0.46431 0.39726 0.38956 0.0
C602 C 0.41263 0.32227 0.33711 0.0
C603 C 0.39488 0.31738 0.16669 0.0
N604 N 0.44132 0.3771 0.38156 0.0
N605 N 0.39558 0.3448 0.20766 0.0
H606 H 0.21423 0.39765 0.18177 0.0
H607 H 0.11818 0.51146 0.4171 0.0
H608 H 0.24848 0.46057 0.37369 0.0
H609 H 0.07851 0.4328 0.29128 0.0
H610 H 0.16441 0.4838 0.43614 0.0
H611 H 0.16568 0.39736 0.256 0.0
C612 C 0.21198 0.41029 0.24192 0.0
C613 C 0.23464 0.43069 0.2687 0.0
C614 C 0.14553 0.47223 0.40556 0.0
C615 C 0.17934 0.43094 0.3526 0.0
C616 C 0.11877 0.48815 0.39466 0.0
C617 C 0.09421 0.47486 0.35059 0.0
C618 C 0.14861 0.44318 0.36856 0.0
C619 C 0.09716 0.44457 0.32224 0.0
C620 C 0.18415 0.41027 0.28415 0.0
C621 C 0.23113 0.44553 0.34861 0.0
N622 N 0.12415 0.43003 0.32958 0.0
N623 N 0.20347 0.44631 0.38618 0.0
H624 H 0.92476 0.7642 0.95739 0.0
H625 H 0.94711 0.86277 0.69052 0.0
H626 H 0.8949 0.82953 0.15022 0.0
H627 H 0.95887 0.9149 0.9264 0.0
H628 H 0.90414 0.83718 0.75597 0.0
H629 H 0.91097 0.79823 0.84747 0.0
C630 C 0.91437 0.78526 0.97785 0.0
C631 C 0.91325 0.79453 0.06513 0.0
C632 C 0.9158 0.8547 0.79265 0.0
C633 C 0.89878 0.83512 0.93587 0.0
C634 C 0.94042 0.86927 0.75537 0.0
C635 C 0.95817 0.88934 0.80522 0.0
C636 C 0.9098 0.85972 0.88077 0.0
C637 C 0.94698 0.89854 0.88631 0.0
C638 C 0.90634 0.80514 0.91337 0.0
C639 C 0.89872 0.82219 0.08426 0.0
N640 N 0.92409 0.88295 0.92257 0.0
N641 N 0.89334 0.8421 0.02033 0.0
H642 H 0.76995 0.92775 0.97478 0.0
H643 H 0.67138 0.96598 0.70137 0.0
H644 H 0.70096 0.89322 0.14398 0.0
H645 H 0.61736 0.97017 0.93261 0.0
H646 H 0.69795 0.92206 0.75835 0.0
H647 H 0.73593 0.92291 0.85663 0.0
C648 C 0.74802 0.91812 0.98798 0.0
C649 C 0.73783 0.91338 0.07266 0.0
C650 C 0.67991 0.93229 0.79595 0.0
C651 C 0.69759 0.90892 0.93426 0.0
C652 C 0.66474 0.95736 0.7634 0.0
C653 C 0.6433 0.9728 0.8144 0.0
C654 C 0.67408 0.92338 0.88087 0.0
C655 C 0.63437 0.95965 0.89195 0.0
C656 C 0.72817 0.91535 0.91866 0.0
C657 C 0.70918 0.8999 0.08159 0.0
N658 N 0.65042 0.93624 0.92393 0.0
N659 N 0.6895 0.89958 0.01412 0.0
H660 H 0.56661 0.74173 1.01179 0.0
H661 H 0.57943 0.56823 0.11347 0.0
H662 H 0.62768 0.7067 0.20253 0.0
H663 H 0.50765 0.61345 0.97642 0.0
H664 H 0.60888 0.61524 0.11065 0.0
H665 H 0.5616 0.6912 0.94949 0.0
C666 C 0.58019 0.72372 0.03828 0.0
C667 C 0.59621 0.72807 0.1156 0.0
C668 C 0.58702 0.61434 0.07913 0.0
C669 C 0.58929 0.66999 0.0473 0.0
C670 C 0.56988 0.58775 0.08222 0.0
C671 C 0.54079 0.58659 0.04534 0.0
C672 C 0.57519 0.63976 0.03785 0.0
C673 C 0.5301 0.61257 1.00404 0.0
C674 C 0.57685 0.69463 1.00352 0.0
C675 C 0.61389 0.7039 0.1452 0.0
N676 N 0.54721 0.63791 1.00171 0.0
N677 N 0.60886 0.67546 0.1136 0.0
H678 H 0.80399 0.64141 0.23381 0.0
H679 H 0.93514 0.59359 0.13892 0.0
H680 H 0.777 0.59913 0.99337 0.0
H681 H 0.89819 0.56548 0.89217 0.0
H682 H 0.89684 0.63262 0.14892 0.0
H683 H 0.85262 0.65391 0.17051 0.0
C684 C 0.80797 0.63559 0.16665 0.0
C685 C 0.7874 0.61715 0.12076 0.0
C686 C 0.89737 0.61851 0.09138 0.0
C687 C 0.84337 0.62993 0.0492 0.0
C688 C 0.91927 0.59573 0.08619 0.0
C689 C 0.91856 0.57429 0.01819 0.0
C690 C 0.87454 0.61966 0.02808 0.0
C691 C 0.89916 0.58019 0.94845 0.0
C692 C 0.83602 0.64238 0.13062 0.0
C693 C 0.79282 0.61196 0.03283 0.0
N694 N 0.87748 0.60174 0.95639 0.0
N695 N 0.82076 0.61734 1.00067 0.0
H696 H 0.08188 0.23149 0.95379 0.0
H697 H 0.96671 0.09348 0.85794 0.0
H698 H 1.00156 0.21689 0.10359 0.0
H699 H 0.0541 0.09969 0.73763 0.0
H700 H 0.97704 0.14047 0.93902 0.0
H701 H 0.06944 0.18693 0.86403 0.0
C702 C 0.06104 0.21947 0.96627 0.0
C703 C 0.04252 0.22865 0.03611 0.0
C704 C 0.99413 0.13161 0.89546 0.0
C705 C 0.02845 0.17625 0.93368 0.0
C706 C 0.98829 0.1046 0.84908 0.0
C707 C 0.00985 0.09186 0.79226 0.0
C708 C 0.02161 0.147 0.88421 0.0
C709 C 0.0371 0.10795 0.78236 0.0
C710 C 0.05419 0.19363 0.91548 0.0
C711 C 0.01623 0.2114 0.04975 0.0
N712 N 0.04215 0.13451 0.82765 0.0
N713 N 0.01013 0.18614 0.99966 0.0
H714 H 0.30541 1.00271 0.05363 0.0
H715 H 0.43232 0.04939 0.70532 0.0
H716 H 0.30794 0.08932 0.93154 0.0
H717 H 0.43262 0.96454 0.83694 0.0
H718 H 0.38506 0.06324 0.78017 0.0
H719 H 0.34916 0.9865 0.96578 0.0
C720 C 0.31453 0.01799 1.00655 0.0
C721 C 0.30258 0.04732 0.99951 0.0
C722 C 0.39549 0.04163 0.79316 0.0
C723 C 0.35353 0.02927 0.9 0.0
C724 C 0.42271 0.03388 0.75098 0.0
C725 C 0.4371 1.00617 0.76699 0.0
C726 C 0.38218 0.02142 0.85138 0.0
C727 C 0.42273 0.98642 0.82404 0.0
C728 C 0.33986 0.00891 0.95713 0.0
C729 C 0.31612 0.0664 0.93878 0.0
N730 N 0.39638 0.99445 0.86438 0.0
N731 N 0.34077 0.05719 0.8922 0.0
H732 H 0.51457 0.30157 0.0831 0.0
H733 H 0.50671 0.39371 0.6419 0.0
H734 H 0.459 0.27096 0.87096 0.0
H735 H 0.51819 0.43499 0.89354 0.0
H736 H 0.50223 0.34379 0.71036 0.0
H737 H 0.53077 0.34482 0.99789 0.0
C738 C 0.50702 0.30307 0.01686 0.0
C739 C 0.48596 0.2821 0.98353 0.0
C740 C 0.50609 0.36379 0.75024 0.0
C741 C 0.5036 0.33238 0.88615 0.0
C742 C 0.50877 0.39222 0.71124 0.0
C743 C 0.5127 0.41859 0.76211 0.0
C744 C 0.50825 0.36164 0.84048 0.0
C745 C 0.51495 0.41533 0.85182 0.0
C746 C 0.51579 0.32813 0.9688 0.0
C747 C 0.47586 0.28608 0.89839 0.0
N748 N 0.51284 0.38753 0.88786 0.0
N749 N 0.48456 0.31081 0.85289 0.0
H750 H 0.23337 0.53003 0.03074 0.0
H751 H 0.09418 0.45336 0.79588 0.0
H752 H 0.23593 0.43722 0.94188 0.0
H753 H 0.11446 0.5465 0.74285 0.0
H754 H 0.14432 0.44806 0.86123 0.0
H755 H 0.18956 0.53871 0.93498 0.0
C756 C 0.22566 0.51183 0.98848 0.0
C757 C 0.23892 0.48294 0.9937 0.0
C758 C 0.13783 0.46972 0.83536 0.0
C759 C 0.18745 0.49225 0.88764 0.0
C760 C 0.10896 0.47284 0.79849 0.0
C761 C 0.09921 0.5007 0.76585 0.0
C762 C 0.15741 0.49476 0.84173 0.0
C763 C 0.12026 0.52476 0.7689 0.0
C764 C 0.20028 0.51667 0.93475 0.0
C765 C 0.22689 0.45997 0.93934 0.0
N766 N 0.14797 0.52143 0.80759 0.0
N767 N 0.20167 0.4649 0.89063 0.0
H768 H 0.9425 0.79903 0.40208 0.0
H769 H 0.96936 0.93921 0.61183 0.0
H770 H 0.02131 0.81842 0.25096 0.0
H771 H 0.05823 0.93449 0.49944 0.0
H772 H 0.95607 0.89188 0.53519 0.0
H773 H 0.95374 0.84285 0.49547 0.0
C774 C 0.96279 0.81201 0.39009 0.0
C775 C 0.98144 0.80414 0.31956 0.0
C776 C 0.97862 0.90083 0.52738 0.0
C777 C 0.99368 0.85656 0.42425 0.0
C778 C 0.98603 0.92834 0.57056 0.0
C779 C 0.01481 0.94142 0.56112 0.0
C780 C 1.00019 0.88584 0.47423 0.0
C781 C 0.03564 0.9256 0.50818 0.0
C782 C 0.96886 0.83771 0.44252 0.0
C783 C 1.00676 0.8228 0.30581 0.0
N784 N 0.02791 0.89911 0.46664 0.0
N785 N 0.01202 0.84793 0.35711 0.0
H786 H 0.71979 0.9329 0.39944 0.0
H787 H 0.59098 0.05717 0.49776 0.0
H788 H 0.72034 0.02185 0.29129 0.0
H789 H 0.59487 0.97185 0.62658 0.0
H790 H 0.63887 0.04512 0.42566 0.0
H791 H 0.67593 0.94731 0.48777 0.0
C792 C 0.71118 0.95581 0.39601 0.0
C793 C 0.72426 0.97631 0.33845 0.0
C794 C 0.62935 0.02891 0.46941 0.0
C795 C 0.67292 0.99281 0.43828 0.0
C796 C 0.60184 0.03572 0.51046 0.0
C797 C 0.58824 0.01511 0.56639 0.0
C798 C 0.64397 1.00126 0.48463 0.0
C799 C 0.60389 0.98801 0.58184 0.0
C800 C 0.68587 0.96393 0.44602 0.0
C801 C 0.71155 1.00545 0.33569 0.0
N802 N 0.63071 0.98181 0.54085 0.0
N803 N 0.68654 0.01268 0.38397 0.0
H804 H 0.58287 0.74402 0.45672 0.0
H805 H 0.47107 0.60565 0.55549 0.0
H806 H 0.49833 0.73168 0.3227 0.0
H807 H 0.56703 0.60517 0.60481 0.0
H808 H 0.47564 0.65722 0.49911 0.0
H809 H 0.57137 0.70002 0.54443 0.0
C810 C 0.56113 0.73297 0.4488 0.0
C811 C 0.54131 0.74199 0.38313 0.0
C812 C 0.49564 0.64588 0.52287 0.0
C813 C 0.52848 0.6905 0.48121 0.0
C814 C 0.49304 0.61651 0.55535 0.0
C815 C 0.51878 0.60091 0.58409 0.0
C816 C 0.5241 0.6601 0.52081 0.0
C817 C 0.54669 0.61606 0.58187 0.0
C818 C 0.55486 0.7074 0.49765 0.0
C819 C 0.51394 0.72601 0.37377 0.0
N820 N 0.54858 0.64469 0.55103 0.0
N821 N 0.5085 0.70085 0.4213 0.0
H822 H 0.77325 0.5773 0.43575 0.0
H823 H 0.91619 0.4706 0.53866 0.0
H824 H 0.79842 0.50287 0.26816 0.0
H825 H 0.90682 0.56239 0.6333 0.0
H826 H 0.86802 0.47586 0.46006 0.0
H827 H 0.81551 0.56498 0.53142 0.0
C828 C 0.7868 0.55743 0.42112 0.0
C829 C 0.78155 0.54067 0.34448 0.0
C830 C 0.87639 0.49476 0.49859 0.0
C831 C 0.83129 0.52701 0.453 0.0
C832 C 0.90387 0.49173 0.54402 0.0
C833 C 0.91582 0.51609 0.59304 0.0
C834 C 0.86015 0.52216 0.50334 0.0
C835 C 0.89877 0.54301 0.59623 0.0
C836 C 0.81141 0.55077 0.475 0.0
C837 C 0.8009 0.51591 0.32749 0.0
N838 N 0.87197 0.54525 0.55258 0.0
N839 N 0.82492 0.50997 0.38071 0.0
loop_
_geom_bond_atom_site_label_1
_geom_bond_atom_site_label_2
_geom_bond_distance
_geom_bond_site_symmetry_2
_ccdc_geom_bond_type
H0 C3 0.931 . S
H1 C6 0.928 . S
H2 C8 0.930 . S
C3 H0 0.931 . S
C3 C4 1.413 . S
C3 C5 1.360 . S
C4 C3 1.413 . S
C4 C8 1.429 . S
C5 C3 1.360 . S
C5 C6 1.372 . S
C6 H1 0.928 . S
C6 C5 1.372 . S
C6 C7 1.404 . S
C7 C6 1.404 . S
C7 C8 1.391 . S
C8 H2 0.930 . S
C8 C4 1.429 . S
C8 C7 1.391 . S
H9 C12 0.931 . S
H10 C15 0.928 . S
H11 C17 0.930 . S
C12 H9 0.931 . S
C12 C13 1.413 . S
C12 C14 1.360 . S
C13 C12 1.413 . S
C13 C17 1.429 . S
C14 C12 1.360 . S
C14 C15 1.372 . S
C15 H10 0.928 . S
C15 C14 1.372 . S
C15 C16 1.404 . S
C16 C15 1.404 . S
C16 C17 1.391 . S
C17 H11 0.930 . S
C17 C13 1.429 . S
C17 C16 1.391 . S
H18 C21 0.931 . S
H19 C24 0.928 . S
H20 C26 0.930 . S
C21 H18 0.931 . S
C21 C22 1.413 . S
C21 C23 1.360 . S
C22 C21 1.413 . S
C22 C26 1.429 . S
C23 C21 1.360 . S
C23 C24 1.372 . S
C24 H19 0.928 . S
C24 C23 1.372 . S
C24 C25 1.404 . S
C25 C24 1.404 . S
C25 C26 1.391 . S
C26 H20 0.930 . S
C26 C22 1.429 . S
C26 C25 1.391 . S
H27 C30 0.931 . S
H28 C33 0.928 . S
H29 C35 0.930 . S
C30 H27 0.931 . S
C30 C31 1.413 . S
C30 C32 1.360 . S
C31 C30 1.413 . S
C31 C35 1.429 . S
C32 C30 1.360 . S
C32 C33 1.372 . S
C33 H28 0.928 . S
C33 C32 1.372 . S
C33 C34 1.404 . S
C34 C33 1.404 . S
C34 C35 1.391 . S
C35 H29 0.930 . S
C35 C31 1.429 . S
C35 C34 1.391 . S
H36 C39 0.931 1_556 S
H37 C42 0.928 . S
H38 C44 0.930 . S
C39 H36 0.931 1_554 S
C39 C40 1.413 1_554 S
C39 C41 1.360 . S
C40 C39 1.413 1_556 S
C40 C44 1.429 . S
C41 C39 1.360 . S
C41 C42 1.372 . S
C42 H37 0.928 . S
C42 C41 1.372 . S
C42 C43 1.404 . S
C43 C42 1.404 . S
C43 C44 1.391 1_554 S
C44 H38 0.930 . S
C44 C40 1.429 . S
C44 C43 1.391 1_556 S
H45 C48 0.931 1_556 S
H46 C51 0.928 . S
H47 C53 0.930 . S
C48 H45 0.931 1_554 S
C48 C49 1.413 1_554 S
C48 C50 1.360 . S
C49 C48 1.413 1_556 S
C49 C53 1.429 . S
C50 C48 1.360 . S
C50 C51 1.372 . S
C51 H46 0.928 . S
C51 C50 1.372 . S
C51 C52 1.404 . S
C52 C51 1.404 . S
C52 C53 1.391 1_554 S
C53 H47 0.930 . S
C53 C49 1.429 . S
C53 C52 1.391 1_556 S
H54 C57 0.931 1_556 S
H55 C60 0.928 . S
H56 C62 0.930 . S
C57 H54 0.931 1_554 S
C57 C58 1.413 1_554 S
C57 C59 1.360 . S
C58 C57 1.413 1_556 S
C58 C62 1.429 . S
C59 C57 1.360 . S
C59 C60 1.372 . S
C60 H55 0.928 . S
C60 C59 1.372 . S
C60 C61 1.404 . S
C61 C60 1.404 . S
C61 C62 1.391 1_554 S
C62 H56 0.930 . S
C62 C58 1.429 . S
C62 C61 1.391 1_556 S
H63 C66 0.931 1_556 S
H64 C69 0.928 . S
H65 C71 0.930 . S
C66 H63 0.931 1_554 S
C66 C67 1.413 . S
C66 C68 1.360 1_554 S
C67 C66 1.413 . S
C67 C71 1.429 . S
C68 C66 1.360 1_556 S
C68 C69 1.372 . S
C69 H64 0.928 . S
C69 C68 1.372 . S
C69 C70 1.404 1_556 S
C70 C69 1.404 1_554 S
C70 C71 1.391 . S
C71 H65 0.930 . S
C71 C67 1.429 . S
C71 C70 1.391 . S
Eu72 N103 2.657 1_565 S
Eu72 N110 2.609 . S
Eu72 O116 2.558 . S
Eu72 O117 2.612 1_455 S
Eu72 O119 2.339 1_455 S
Eu72 O120 2.563 . S
Eu72 O121 2.419 . S
Eu72 O123 2.380 1_565 S
Eu72 O124 2.432 . S
Eu72 C136 2.848 . S
C73 C76 1.417 1_545 S
C73 C77 1.407 1_545 S
C73 N80 1.392 . S
C74 C76 1.420 . S
C74 C78 1.423 . S
C74 C86 1.392 . S
C75 C77 1.420 . S
C75 C78 1.351 . S
C75 H98 0.931 . S
C76 C73 1.417 1_565 S
C76 C74 1.420 . S
C76 N84 1.362 . S
C77 C73 1.407 1_565 S
C77 C75 1.420 . S
C77 C82 1.395 1_565 S
C78 C74 1.423 . S
C78 C75 1.351 . S
C78 H90 0.930 . S
C79 C81 1.400 . S
C79 C82 1.386 . S
C79 H91 0.930 . S
N80 C73 1.392 . S
N80 C81 1.321 . S
N80 Eu83 2.609 . S
C81 C79 1.400 . S
C81 N80 1.321 . S
C81 H88 0.930 . S
C82 C77 1.395 1_545 S
C82 C79 1.386 . S
C82 H101 0.930 . S
Eu83 N80 2.609 . S
Eu83 N84 2.657 1_545 S
Eu83 O117 2.380 1_545 S
Eu83 O118 2.432 . S
Eu83 O122 2.558 . S
Eu83 O123 2.612 1_655 S
Eu83 O125 2.339 1_655 S
Eu83 O126 2.553 1_655 S
Eu83 O127 2.419 . S
Eu83 C147 2.848 . S
N84 C76 1.362 . S
N84 Eu83 2.657 1_565 S
N84 C85 1.334 . S
C85 N84 1.334 . S
C85 C87 1.413 . S
C85 H92 0.929 1_655 S
C86 C74 1.392 . S
C86 C87 1.367 . S
C86 H94 0.930 . S
C87 C85 1.413 . S
C87 C86 1.367 . S
C87 H89 0.930 1_655 S
H88 C81 0.930 . S
H89 C87 0.930 1_455 S
H90 C78 0.930 . S
H91 C79 0.930 . S
H92 C85 0.929 1_455 S
H93 C107 0.930 1_654 S
H94 C86 0.930 . S
H95 C113 0.930 . S
H96 C104 0.929 1_655 S
H97 C111 0.930 . S
H98 C75 0.931 . S
H99 C105 0.930 . S
H100 C138 0.930 . S
H101 C82 0.930 . S
H102 C137 0.931 . S
N103 Eu72 2.657 1_545 S
N103 C104 1.334 . S
N103 C108 1.362 . S
C104 H96 0.929 1_455 S
C104 N103 1.334 . S
C104 C107 1.413 . S
C105 H99 0.930 . S
C105 C106 1.392 1_554 S
C105 C107 1.367 1_554 S
C106 C105 1.392 1_556 S
C106 C108 1.420 . S
C106 C138 1.423 1_556 S
C107 H93 0.930 1_456 S
C107 C104 1.413 . S
C107 C105 1.367 1_556 S
C108 N103 1.362 . S
C108 C106 1.420 . S
C108 C112 1.429 . S
H109 C114 0.930 . S
N110 Eu72 2.609 . S
N110 C112 1.377 1_565 S
N110 C113 1.321 . S
C111 H97 0.930 . S
C111 C113 1.400 . S
C111 C114 1.386 1_565 S
C112 C108 1.429 . S
C112 N110 1.377 1_545 S
C112 C115 1.411 . S
C113 H95 0.930 . S
C113 N110 1.321 . S
C113 C111 1.400 . S
C114 H109 0.930 . S
C114 C111 1.386 1_545 S
C114 C115 1.395 . S
C115 C112 1.411 . S
C115 C114 1.395 . S
C115 C137 1.420 . S
O116 Eu72 2.558 . S
O116 C136 1.257 . S
O117 Eu72 2.612 1_655 S
O117 Eu83 2.380 1_565 S
O117 C128 1.276 . S
O118 Eu83 2.432 . S
O118 C135 1.291 . S
O119 Eu72 2.339 1_655 S
O119 C135 1.244 1_565 S
O120 Eu72 2.563 . S
O120 C128 1.235 1_455 S
O121 Eu72 2.419 . S
O121 C136 1.249 . S
O122 Eu83 2.558 . S
O122 C147 1.257 . S
O123 Eu72 2.380 1_545 S
O123 Eu83 2.612 1_455 S
O123 C139 1.276 . S
O124 Eu72 2.432 . S
O124 C146 1.264 1_565 S
O125 Eu83 2.339 1_455 S
O125 C146 1.254 . S
O126 Eu83 2.553 1_455 S
O126 C139 1.254 . S
O127 Eu83 2.419 . S
O127 C147 1.249 . S
C128 O117 1.276 . S
C128 O120 1.235 1_655 S
C129 C131 1.393 . S
C129 C133 1.395 . S
C129 C136 1.492 . S
C130 C131 1.392 . S
C130 C132 1.386 . S
C131 C129 1.393 . S
C131 C130 1.392 . S
C131 H148 0.930 . S
C132 C130 1.386 . S
C132 C134 1.395 . S
C132 H149 0.930 1_556 S
C133 C129 1.395 . S
C133 C134 1.379 . S
C133 H150 0.930 . S
C134 C132 1.395 . S
C134 C133 1.379 . S
C134 H151 0.930 . S
C135 O118 1.291 . S
C135 O119 1.244 1_545 S
C136 Eu72 2.848 . S
C136 O116 1.257 . S
C136 O121 1.249 . S
C136 C129 1.492 . S
C137 H102 0.931 . S
C137 C115 1.420 . S
C137 C138 1.351 1_556 S
C138 H100 0.930 . S
C138 C106 1.423 1_554 S
C138 C137 1.351 1_554 S
C139 O123 1.276 . S
C139 O126 1.254 . S
C140 C141 1.393 . S
C140 C144 1.395 . S
C140 C147 1.492 . S
C141 C140 1.393 . S
C141 C142 1.392 . S
C141 H152 0.930 1_655 S
C142 C141 1.392 . S
C142 C143 1.386 . S
C143 C142 1.386 . S
C143 C145 1.395 . S
C143 H153 0.930 . S
C144 C140 1.395 . S
C144 C145 1.379 . S
C144 H154 0.930 . S
C145 C143 1.395 . S
C145 C144 1.379 . S
C145 H155 0.930 . S
C146 O124 1.264 1_545 S
C146 O125 1.254 . S
C147 Eu83 2.848 . S
C147 O122 1.257 . S
C147 O127 1.249 . S
C147 C140 1.492 . S
H148 C131 0.930 . S
H149 C132 0.930 1_554 S
H150 C133 0.930 . S
H151 C134 0.930 . S
H152 C141 0.930 1_455 S
H153 C143 0.930 . S
H154 C144 0.930 . S
H155 C145 0.930 . S
Eu156 N187 2.657 . S
Eu156 N194 2.609 . S
Eu156 O200 2.558 . S
Eu156 O201 2.612 1_545 S
Eu156 O203 2.339 1_545 S
Eu156 O204 2.563 . S
Eu156 O205 2.419 . S
Eu156 O207 2.380 . S
Eu156 O208 2.432 . S
Eu156 C220 2.848 . S
C157 C160 1.429 . S
C157 C161 1.411 . S
C157 N164 1.377 . S
C158 C160 1.420 . S
C158 C162 1.423 . S
C158 C170 1.392 . S
C159 C161 1.420 . S
C159 C162 1.351 . S
C159 H182 0.931 . S
C160 C157 1.429 . S
C160 C158 1.420 . S
C160 N168 1.362 . S
C161 C157 1.411 . S
C161 C159 1.420 . S
C161 C166 1.395 . S
C162 C158 1.423 . S
C162 C159 1.351 . S
C162 H174 0.930 . S
C163 C165 1.400 . S
C163 C166 1.386 . S
C163 H175 0.930 . S
N164 C157 1.377 . S
N164 C165 1.321 . S
N164 Eu167 2.609 . S
C165 C163 1.400 . S
C165 N164 1.321 . S
C165 H172 0.930 . S
C166 C161 1.395 . S
C166 C163 1.386 . S
C166 H185 0.930 . S
Eu167 N164 2.609 . S
Eu167 N168 2.657 . S
Eu167 O201 2.380 . S
Eu167 O202 2.432 . S
Eu167 O206 2.558 . S
Eu167 O207 2.612 1_565 S
Eu167 O209 2.339 1_565 S
Eu167 O210 2.563 1_565 S
Eu167 O211 2.419 . S
Eu167 C231 2.848 . S
N168 C160 1.362 . S
N168 Eu167 2.657 . S
N168 C169 1.334 1_565 S
C169 N168 1.334 1_545 S
C169 C171 1.413 1_545 S
C169 H176 0.929 . S
C170 C158 1.392 . S
C170 C171 1.367 . S
C170 H178 0.930 . S
C171 C169 1.413 1_565 S
C171 C170 1.367 . S
C171 H173 0.930 1_565 S
H172 C165 0.930 . S
H173 C171 0.930 1_545 S
H174 C162 0.930 . S
H175 C163 0.930 . S
H176 C169 0.929 . S
H177 C191 0.930 1_564 S
H178 C170 0.930 . S
H179 C197 0.930 . S
H180 C188 0.929 1_565 S
H181 C195 0.930 . S
H182 C159 0.931 . S
H183 C189 0.930 . S
H184 C222 0.930 . S
H185 C166 0.930 . S
H186 C221 0.931 . S
N187 Eu156 2.657 . S
N187 C188 1.334 . S
N187 C192 1.362 . S
C188 H180 0.929 1_545 S
C188 N187 1.334 . S
C188 C191 1.413 . S
C189 H183 0.930 . S
C189 C190 1.392 1_554 S
C189 C191 1.367 1_554 S
C190 C189 1.392 1_556 S
C190 C192 1.420 . S
C190 C222 1.423 1_556 S
C191 H177 0.930 1_546 S
C191 C188 1.413 . S
C191 C189 1.367 1_556 S
C192 N187 1.362 . S
C192 C190 1.420 . S
C192 C196 1.429 . S
H193 C198 0.930 . S
N194 Eu156 2.609 . S
N194 C196 1.377 . S
N194 C197 1.321 . S
C195 H181 0.930 . S
C195 C197 1.400 . S
C195 C198 1.386 . S
C196 C192 1.429 . S
C196 N194 1.377 . S
C196 C199 1.411 . S
C197 H179 0.930 . S
C197 N194 1.321 . S
C197 C195 1.400 . S
C198 H193 0.930 . S
C198 C195 1.386 . S
C198 C199 1.395 . S
C199 C196 1.411 . S
C199 C198 1.395 . S
C199 C221 1.420 . S
O200 Eu156 2.558 . S
O200 C220 1.257 . S
O201 Eu156 2.612 1_565 S
O201 Eu167 2.380 . S
O201 C212 1.276 . S
O202 Eu167 2.432 . S
O202 C219 1.264 . S
O203 Eu156 2.339 1_565 S
O203 C219 1.254 . S
O204 Eu156 2.563 . S
O204 C212 1.235 1_545 S
O205 Eu156 2.419 . S
O205 C220 1.249 . S
O206 Eu167 2.558 . S
O206 C231 1.257 . S
O207 Eu156 2.380 . S
O207 Eu167 2.612 1_545 S
O207 C223 1.276 . S
O208 Eu156 2.432 . S
O208 C230 1.264 . S
O209 Eu167 2.339 1_545 S
O209 C230 1.254 . S
O210 Eu167 2.563 1_545 S
O210 C223 1.235 . S
O211 Eu167 2.419 . S
O211 C231 1.249 . S
C212 O201 1.276 . S
C212 O204 1.235 1_565 S
C213 C215 1.393 . S
C213 C217 1.395 . S
C213 C220 1.492 . S
C214 C215 1.392 . S
C214 C216 1.386 . S
C215 C213 1.393 . S
C215 C214 1.392 . S
C215 H232 0.930 . S
C216 C214 1.386 . S
C216 C218 1.395 . S
C216 H233 0.930 1_556 S
C217 C213 1.395 . S
C217 C218 1.379 . S
C217 H234 0.930 . S
C218 C216 1.395 . S
C218 C217 1.379 . S
C218 H235 0.930 . S
C219 O202 1.264 . S
C219 O203 1.254 . S
C220 Eu156 2.848 . S
C220 O200 1.257 . S
C220 O205 1.249 . S
C220 C213 1.492 . S
C221 H186 0.931 . S
C221 C199 1.420 . S
C221 C222 1.351 1_556 S
C222 H184 0.930 . S
C222 C190 1.423 1_554 S
C222 C221 1.351 1_554 S
C223 O207 1.276 . S
C223 O210 1.235 . S
C224 C225 1.393 . S
C224 C228 1.395 . S
C224 C231 1.492 . S
C225 C224 1.393 . S
C225 C226 1.392 . S
C225 H236 0.930 1_565 S
C226 C225 1.392 . S
C226 C227 1.386 . S
C227 C226 1.386 . S
C227 C229 1.395 . S
C227 H237 0.930 . S
C228 C224 1.395 . S
C228 C229 1.379 . S
C228 H238 0.930 . S
C229 C227 1.395 . S
C229 C228 1.379 . S
C229 H239 0.930 . S
C230 O208 1.264 . S
C230 O209 1.254 . S
C231 Eu167 2.848 . S
C231 O206 1.257 . S
C231 O211 1.249 . S
C231 C224 1.492 . S
H232 C215 0.930 . S
H233 C216 0.930 1_554 S
H234 C217 0.930 . S
H235 C218 0.930 . S
H236 C225 0.930 1_545 S
H237 C227 0.930 . S
H238 C228 0.930 . S
H239 C229 0.930 . S
Eu240 N271 2.657 . S
Eu240 N278 2.609 . S
Eu240 O284 2.558 . S
Eu240 O285 2.612 . S
Eu240 O287 2.339 . S
Eu240 O288 2.563 . S
Eu240 O289 2.419 . S
Eu240 O291 2.380 . S
Eu240 O292 2.432 . S
Eu240 C304 2.848 . S
C241 C244 1.429 . S
C241 C245 1.411 . S
C241 N248 1.377 . S
C242 C244 1.420 . S
C242 C246 1.423 . S
C242 C254 1.392 . S
C243 C245 1.420 . S
C243 C246 1.351 . S
C243 H266 0.931 . S
C244 C241 1.429 . S
C244 C242 1.420 . S
C244 N252 1.362 . S
C245 C241 1.411 . S
C245 C243 1.420 . S
C245 C250 1.395 . S
C246 C242 1.423 . S
C246 C243 1.351 . S
C246 H258 0.930 . S
C247 C249 1.400 . S
C247 C250 1.386 . S
C247 H259 0.930 . S
N248 C241 1.377 . S
N248 C249 1.321 . S
N248 Eu251 2.609 . S
C249 C247 1.400 . S
C249 N248 1.321 . S
C249 H256 0.930 . S
C250 C245 1.395 . S
C250 C247 1.386 . S
C250 H269 0.930 . S
Eu251 N248 2.609 . S
Eu251 N252 2.657 . S
Eu251 O285 2.380 . S
Eu251 O286 2.432 . S
Eu251 O290 2.558 . S
Eu251 O291 2.612 . S
Eu251 O293 2.339 . S
Eu251 O294 2.563 . S
Eu251 O295 2.419 . S
Eu251 C315 2.848 . S
N252 C244 1.362 . S
N252 Eu251 2.657 . S
N252 C253 1.334 . S
C253 N252 1.334 . S
C253 C255 1.413 . S
C253 H260 0.929 . S
C254 C242 1.392 . S
C254 C255 1.367 . S
C254 H262 0.930 . S
C255 C253 1.413 . S
C255 C254 1.367 . S
C255 H257 0.930 . S
H256 C249 0.930 . S
H257 C255 0.930 . S
H258 C246 0.930 . S
H259 C247 0.930 . S
H260 C253 0.929 . S
H261 C275 0.930 . S
H262 C254 0.930 . S
H263 C281 0.930 . S
H264 C272 0.929 . S
H265 C279 0.930 . S
H266 C243 0.931 . S
H267 C273 0.930 . S
H268 C306 0.930 . S
H269 C250 0.930 . S
H270 C305 0.931 . S
N271 Eu240 2.657 . S
N271 C272 1.334 . S
N271 C276 1.362 . S
C272 H264 0.929 . S
C272 N271 1.334 . S
C272 C275 1.413 . S
C273 H267 0.930 . S
C273 C274 1.392 . S
C273 C275 1.367 . S
C274 C273 1.392 . S
C274 C276 1.420 . S
C274 C306 1.423 . S
C275 H261 0.930 . S
C275 C272 1.413 . S
C275 C273 1.367 . S
C276 N271 1.362 . S
C276 C274 1.420 . S
C276 C280 1.429 . S
H277 C282 0.930 . S
N278 Eu240 2.609 . S
N278 C280 1.377 . S
N278 C281 1.321 . S
C279 H265 0.930 . S
C279 C281 1.400 . S
C279 C282 1.386 . S
C280 C276 1.429 . S
C280 N278 1.377 . S
C280 C283 1.411 . S
C281 H263 0.930 . S
C281 N278 1.321 . S
C281 C279 1.400 . S
C282 H277 0.930 . S
C282 C279 1.386 . S
C282 C283 1.395 . S
C283 C280 1.411 . S
C283 C282 1.395 . S
C283 C305 1.420 . S
O284 Eu240 2.558 . S
O284 C304 1.257 . S
O285 Eu240 2.612 . S
O285 Eu251 2.380 . S
O285 C296 1.276 . S
O286 Eu251 2.432 . S
O286 C303 1.264 . S
O287 Eu240 2.339 . S
O287 C303 1.254 . S
O288 Eu240 2.563 . S
O288 C296 1.235 . S
O289 Eu240 2.419 . S
O289 C304 1.249 . S
O290 Eu251 2.558 . S
O290 C315 1.257 . S
O291 Eu240 2.380 . S
O291 Eu251 2.612 . S
O291 C307 1.276 . S
O292 Eu240 2.432 . S
O292 C314 1.264 . S
O293 Eu251 2.339 . S
O293 C314 1.254 . S
O294 Eu251 2.563 . S
O294 C307 1.235 . S
O295 Eu251 2.419 . S
O295 C315 1.249 . S
C296 O285 1.276 . S
C296 O288 1.235 . S
C297 C299 1.393 . S
C297 C301 1.395 . S
C297 C304 1.492 . S
C298 C299 1.392 . S
C298 C300 1.386 . S
C299 C297 1.393 . S
C299 C298 1.392 . S
C299 H316 0.930 . S
C300 C298 1.386 . S
C300 C302 1.395 . S
C300 H317 0.930 . S
C301 C297 1.395 . S
C301 C302 1.379 . S
C301 H318 0.930 . S
C302 C300 1.395 . S
C302 C301 1.379 . S
C302 H319 0.930 . S
C303 O286 1.264 . S
C303 O287 1.254 . S
C304 Eu240 2.848 . S
C304 O284 1.257 . S
C304 O289 1.249 . S
C304 C297 1.492 . S
C305 H270 0.931 . S
C305 C283 1.420 . S
C305 C306 1.351 . S
C306 H268 0.930 . S
C306 C274 1.423 . S
C306 C305 1.351 . S
C307 O291 1.276 . S
C307 O294 1.235 . S
C308 C309 1.393 . S
C308 C312 1.395 1_556 S
C308 C315 1.492 . S
C309 C308 1.393 . S
C309 C310 1.392 1_556 S
C309 H320 0.930 . S
C310 C309 1.392 1_554 S
C310 C311 1.386 . S
C311 C310 1.386 . S
C311 C313 1.395 . S
C311 H321 0.930 . S
C312 C308 1.395 1_554 S
C312 C313 1.379 . S
C312 H322 0.930 . S
C313 C311 1.395 . S
C313 C312 1.379 . S
C313 H323 0.930 . S
C314 O292 1.264 . S
C314 O293 1.254 . S
C315 Eu251 2.848 . S
C315 O290 1.257 . S
C315 O295 1.249 . S
C315 C308 1.492 . S
H316 C299 0.930 . S
H317 C300 0.930 . S
H318 C301 0.930 . S
H319 C302 0.930 . S
H320 C309 0.930 . S
H321 C311 0.930 . S
H322 C312 0.930 . S
H323 C313 0.930 . S
Eu324 N355 2.657 . S
Eu324 N362 2.609 . S
Eu324 O368 2.558 . S
Eu324 O369 2.612 . S
Eu324 O371 2.339 . S
Eu324 O372 2.563 . S
Eu324 O373 2.419 . S
Eu324 O375 2.380 1_455 S
Eu324 O376 2.432 1_455 S
Eu324 C388 2.848 . S
C325 C328 1.429 . S
C325 C329 1.411 . S
C325 N332 1.377 . S
C326 C328 1.420 . S
C326 C330 1.423 . S
C326 C338 1.392 . S
C327 C329 1.420 . S
C327 C330 1.351 . S
C327 H350 0.931 . S
C328 C325 1.429 . S
C328 C326 1.420 . S
C328 N336 1.362 . S
C329 C325 1.411 . S
C329 C327 1.420 . S
C329 C334 1.378 1_655 S
C330 C326 1.423 . S
C330 C327 1.351 . S
C330 H342 0.930 . S
C331 C333 1.400 . S
C331 C334 1.400 . S
C331 H343 0.930 . S
N332 C325 1.377 . S
N332 C333 1.321 1_655 S
N332 Eu335 2.609 . S
C333 C331 1.400 . S
C333 N332 1.321 1_455 S
C333 H340 0.930 . S
C334 C329 1.378 1_455 S
C334 C331 1.400 . S
C334 H353 0.933 . S
Eu335 N332 2.609 . S
Eu335 N336 2.657 . S
Eu335 O369 2.380 1_655 S
Eu335 O370 2.432 1_655 S
Eu335 O374 2.558 . S
Eu335 O375 2.612 . S
Eu335 O377 2.339 . S
Eu335 O378 2.563 . S
Eu335 O379 2.419 . S
Eu335 C399 2.848 . S
N336 C328 1.362 . S
N336 Eu335 2.657 . S
N336 C337 1.334 . S
C337 N336 1.334 . S
C337 C339 1.413 . S
C337 H344 0.929 . S
C338 C326 1.392 . S
C338 C339 1.367 . S
C338 H346 0.930 . S
C339 C337 1.413 . S
C339 C338 1.367 . S
C339 H341 0.930 . S
H340 C333 0.930 . S
H341 C339 0.930 . S
H342 C330 0.930 . S
H343 C331 0.930 . S
H344 C337 0.929 . S
H345 C359 0.930 . S
H346 C338 0.930 . S
H347 C365 0.930 . S
H348 C356 0.929 . S
H349 C363 0.930 . S
H350 C327 0.931 . S
H351 C357 0.930 . S
H352 C390 0.930 . S
H353 C334 0.933 . S
H354 C389 0.931 . S
N355 Eu324 2.657 . S
N355 C356 1.334 . S
N355 C360 1.362 . S
C356 H348 0.929 . S
C356 N355 1.334 . S
C356 C359 1.413 . S
C357 H351 0.930 . S
C357 C358 1.392 . S
C357 C359 1.367 . S
C358 C357 1.392 . S
C358 C360 1.420 . S
C358 C390 1.423 . S
C359 H345 0.930 . S
C359 C356 1.413 . S
C359 C357 1.367 . S
C360 N355 1.362 . S
C360 C358 1.420 . S
C360 C364 1.429 . S
H361 C366 0.930 . S
N362 Eu324 2.609 . S
N362 C364 1.377 . S
N362 C365 1.321 1_455 S
C363 H349 0.930 . S
C363 C365 1.400 . S
C363 C366 1.386 1_655 S
C364 C360 1.429 . S
C364 N362 1.377 . S
C364 C367 1.411 . S
C365 H347 0.930 . S
C365 N362 1.321 1_655 S
C365 C363 1.400 . S
C366 H361 0.930 . S
C366 C363 1.386 1_455 S
C366 C367 1.395 . S
C367 C364 1.411 . S
C367 C366 1.395 . S
C367 C389 1.420 . S
O368 Eu324 2.558 . S
O368 C388 1.257 . S
O369 Eu324 2.612 . S
O369 Eu335 2.380 1_455 S
O369 C380 1.276 . S
O370 Eu335 2.432 1_455 S
O370 C387 1.264 . S
O371 Eu324 2.339 . S
O371 C387 1.254 . S
O372 Eu324 2.563 . S
O372 C380 1.235 . S
O373 Eu324 2.419 . S
O373 C388 1.249 . S
O374 Eu335 2.558 . S
O374 C399 1.257 . S
O375 Eu324 2.380 1_655 S
O375 Eu335 2.612 . S
O375 C391 1.276 . S
O376 Eu324 2.432 1_655 S
O376 C398 1.264 . S
O377 Eu335 2.339 . S
O377 C398 1.254 . S
O378 Eu335 2.563 . S
O378 C391 1.235 . S
O379 Eu335 2.419 . S
O379 C399 1.249 . S
C380 O369 1.276 . S
C380 O372 1.235 . S
C381 C383 1.393 . S
C381 C385 1.395 . S
C381 C388 1.492 . S
C382 C383 1.392 . S
C382 C384 1.386 . S
C383 C381 1.393 . S
C383 C382 1.392 . S
C383 H400 0.930 . S
C384 C382 1.386 . S
C384 C386 1.395 . S
C384 H401 0.930 . S
C385 C381 1.395 . S
C385 C386 1.379 . S
C385 H402 0.930 . S
C386 C384 1.395 . S
C386 C385 1.379 . S
C386 H403 0.930 . S
C387 O370 1.264 . S
C387 O371 1.254 . S
C388 Eu324 2.848 . S
C388 O368 1.257 . S
C388 O373 1.249 . S
C388 C381 1.492 . S
C389 H354 0.931 . S
C389 C367 1.420 . S
C389 C390 1.351 . S
C390 H352 0.930 . S
C390 C358 1.423 . S
C390 C389 1.351 . S
C391 O375 1.276 . S
C391 O378 1.235 . S
C392 C393 1.393 . S
C392 C396 1.395 1_556 S
C392 C399 1.492 . S
C393 C392 1.393 . S
C393 C394 1.392 1_556 S
C393 H404 0.930 . S
C394 C393 1.392 1_554 S
C394 C395 1.386 . S
C395 C394 1.386 . S
C395 C397 1.395 . S
C395 H405 0.930 . S
C396 C392 1.395 1_554 S
C396 C397 1.379 . S
C396 H406 0.930 . S
C397 C395 1.395 . S
C397 C396 1.379 . S
C397 H407 0.930 . S
C398 O376 1.264 . S
C398 O377 1.254 . S
C399 Eu335 2.848 . S
C399 O374 1.257 . S
C399 O379 1.249 . S
C399 C392 1.492 . S
H400 C383 0.930 . S
H401 C384 0.930 . S
H402 C385 0.930 . S
H403 C386 0.930 . S
H404 C393 0.930 . S
H405 C395 0.930 . S
H406 C396 0.930 . S
H407 C397 0.930 . S
H408 C414 0.930 . S
H409 C418 0.930 . S
H410 C423 0.929 . S
H411 C421 0.929 1_565 S
H412 C416 0.929 . S
H413 C422 0.936 . S
C414 H408 0.930 . S
C414 C415 1.367 . S
C414 C422 1.378 . S
C415 C414 1.367 . S
C415 C423 1.433 . S
C416 H412 0.929 . S
C416 C418 1.378 . S
C416 C420 1.350 . S
C417 C420 1.463 . S
C417 C422 1.350 . S
C417 N425 1.427 . S
C418 H409 0.930 . S
C418 C416 1.378 . S
C418 C419 1.367 . S
C419 C418 1.367 . S
C419 C421 1.433 . S
C420 C416 1.350 . S
C420 C417 1.463 . S
C420 N424 1.427 . S
C421 H411 0.929 1_545 S
C421 C419 1.433 . S
C421 N424 1.384 . S
C422 H413 0.936 . S
C422 C414 1.378 . S
C422 C417 1.350 . S
C423 H410 0.929 . S
C423 C415 1.433 . S
C423 N425 1.384 . S
N424 C420 1.427 . S
N424 C421 1.384 . S
N425 C417 1.427 . S
N425 C423 1.384 . S
H426 C432 0.930 . S
H427 C436 0.930 . S
H428 C441 0.929 . S
H429 C439 0.929 . S
H430 C434 0.929 . S
H431 C440 0.929 . S
C432 H426 0.930 . S
C432 C433 1.367 . S
C432 C440 1.378 . S
C433 C432 1.367 . S
C433 C441 1.433 . S
C434 H430 0.929 . S
C434 C436 1.378 . S
C434 C438 1.350 . S
C435 C438 1.463 . S
C435 C440 1.350 . S
C435 N443 1.427 . S
C436 H427 0.930 . S
C436 C434 1.378 . S
C436 C437 1.367 . S
C437 C436 1.367 . S
C437 C439 1.433 . S
C438 C434 1.350 . S
C438 C435 1.463 . S
C438 N442 1.427 . S
C439 H429 0.929 . S
C439 C437 1.433 . S
C439 N442 1.384 . S
C440 H431 0.929 . S
C440 C432 1.378 . S
C440 C435 1.350 . S
C441 H428 0.929 . S
C441 C433 1.433 . S
C441 N443 1.384 . S
N442 C438 1.427 . S
N442 C439 1.384 . S
N443 C435 1.427 . S
N443 C441 1.384 . S
H444 C450 0.930 . S
H445 C454 0.930 . S
H446 C459 0.929 . S
H447 C457 0.929 . S
H448 C452 0.929 . S
H449 C458 0.929 . S
C450 H444 0.930 . S
C450 C451 1.367 . S
C450 C458 1.378 . S
C451 C450 1.367 . S
C451 C459 1.433 . S
C452 H448 0.929 . S
C452 C454 1.378 . S
C452 C456 1.350 . S
C453 C456 1.463 . S
C453 C458 1.350 . S
C453 N461 1.427 . S
C454 H445 0.930 . S
C454 C452 1.378 . S
C454 C455 1.367 . S
C455 C454 1.367 . S
C455 C457 1.433 . S
C456 C452 1.350 . S
C456 C453 1.463 . S
C456 N460 1.427 . S
C457 H447 0.929 . S
C457 C455 1.433 . S
C457 N460 1.384 . S
C458 H449 0.929 . S
C458 C450 1.378 . S
C458 C453 1.350 . S
C459 H446 0.929 . S
C459 C451 1.433 . S
C459 N461 1.384 . S
N460 C456 1.427 . S
N460 C457 1.384 . S
N461 C453 1.427 . S
N461 C459 1.384 . S
H462 C468 0.930 . S
H463 C472 0.930 . S
H464 C477 0.929 . S
H465 C475 0.929 . S
H466 C470 0.929 . S
H467 C476 0.929 . S
C468 H462 0.930 . S
C468 C469 1.367 . S
C468 C476 1.378 . S
C469 C468 1.367 . S
C469 C477 1.433 . S
C470 H466 0.929 . S
C470 C472 1.378 . S
C470 C474 1.350 . S
C471 C474 1.463 . S
C471 C476 1.350 . S
C471 N479 1.427 . S
C472 H463 0.930 . S
C472 C470 1.378 . S
C472 C473 1.367 . S
C473 C472 1.367 . S
C473 C475 1.433 . S
C474 C470 1.350 . S
C474 C471 1.463 . S
C474 N478 1.427 . S
C475 H465 0.929 . S
C475 C473 1.433 . S
C475 N478 1.384 . S
C476 H467 0.929 . S
C476 C468 1.378 . S
C476 C471 1.350 . S
C477 H464 0.929 . S
C477 C469 1.433 . S
C477 N479 1.384 . S
N478 C474 1.427 . S
N478 C475 1.384 . S
N479 C471 1.427 . S
N479 C477 1.384 . S
H480 C486 0.930 . S
H481 C490 0.930 . S
H482 C495 0.929 . S
H483 C493 0.929 . S
H484 C488 0.929 . S
H485 C494 0.929 1_545 S
C486 H480 0.930 . S
C486 C487 1.367 . S
C486 C494 1.378 . S
C487 C486 1.367 . S
C487 C495 1.433 . S
C488 H484 0.929 . S
C488 C490 1.378 . S
C488 C492 1.350 . S
C489 C492 1.463 1_554 S
C489 C494 1.350 . S
C489 N497 1.427 . S
C490 H481 0.930 . S
C490 C488 1.378 . S
C490 C491 1.367 . S
C491 C490 1.367 . S
C491 C493 1.433 1_565 S
C492 C488 1.350 . S
C492 C489 1.463 1_556 S
C492 N496 1.427 1_565 S
C493 H483 0.929 . S
C493 C491 1.433 1_545 S
C493 N496 1.384 . S
C494 H485 0.929 1_565 S
C494 C486 1.378 . S
C494 C489 1.350 . S
C495 H482 0.929 . S
C495 C487 1.433 . S
C495 N497 1.384 . S
N496 C492 1.427 1_545 S
N496 C493 1.384 . S
N497 C489 1.427 . S
N497 C495 1.384 . S
H498 C504 0.930 . S
H499 C508 0.930 . S
H500 C513 0.929 . S
H501 C511 0.929 . S
H502 C506 0.929 1_554 S
H503 C512 0.929 . S
C504 H498 0.930 . S
C504 C505 1.367 . S
C504 C512 1.378 . S
C505 C504 1.367 . S
C505 C513 1.433 . S
C506 H502 0.929 1_556 S
C506 C508 1.378 . S
C506 C510 1.350 . S
C507 C510 1.463 1_554 S
C507 C512 1.350 . S
C507 N515 1.427 . S
C508 H499 0.930 . S
C508 C506 1.378 . S
C508 C509 1.367 . S
C509 C508 1.367 . S
C509 C511 1.433 . S
C510 C506 1.350 . S
C510 C507 1.463 1_556 S
C510 N514 1.427 . S
C511 H501 0.929 . S
C511 C509 1.433 . S
C511 N514 1.384 . S
C512 H503 0.929 . S
C512 C504 1.378 . S
C512 C507 1.350 . S
C513 H500 0.929 . S
C513 C505 1.433 . S
C513 N515 1.384 . S
N514 C510 1.427 . S
N514 C511 1.384 . S
N515 C507 1.427 . S
N515 C513 1.384 . S
H516 C522 0.930 . S
H517 C526 0.930 . S
H518 C531 0.929 . S
H519 C529 0.929 . S
H520 C524 0.929 . S
H521 C530 0.929 . S
C522 H516 0.930 . S
C522 C523 1.367 . S
C522 C530 1.378 . S
C523 C522 1.367 . S
C523 C531 1.433 . S
C524 H520 0.929 . S
C524 C526 1.378 . S
C524 C528 1.350 . S
C525 C528 1.463 1_554 S
C525 C530 1.350 . S
C525 N533 1.427 . S
C526 H517 0.930 . S
C526 C524 1.378 . S
C526 C527 1.367 . S
C527 C526 1.367 . S
C527 C529 1.433 . S
C528 C524 1.350 . S
C528 C525 1.463 1_556 S
C528 N532 1.427 . S
C529 H519 0.929 . S
C529 C527 1.433 . S
C529 N532 1.384 . S
C530 H521 0.929 . S
C530 C522 1.378 . S
C530 C525 1.350 . S
C531 H518 0.929 . S
C531 C523 1.433 . S
C531 N533 1.384 . S
N532 C528 1.427 . S
N532 C529 1.384 . S
N533 C525 1.427 . S
N533 C531 1.384 . S
H534 C540 0.930 . S
H535 C544 0.930 . S
H536 C549 0.929 . S
H537 C547 0.929 . S
H538 C542 0.929 . S
H539 C548 0.929 1_455 S
C540 H534 0.930 . S
C540 C541 1.367 . S
C540 C548 1.378 . S
C541 C540 1.367 . S
C541 C549 1.433 . S
C542 H538 0.929 . S
C542 C544 1.378 . S
C542 C546 1.350 . S
C543 C546 1.463 1_554 S
C543 C548 1.350 . S
C543 N551 1.427 . S
C544 H535 0.930 . S
C544 C542 1.378 . S
C544 C545 1.367 . S
C545 C544 1.367 . S
C545 C547 1.433 1_655 S
C546 C542 1.350 . S
C546 C543 1.463 1_556 S
C546 N550 1.427 . S
C547 H537 0.929 . S
C547 C545 1.433 1_455 S
C547 N550 1.384 1_455 S
C548 H539 0.929 1_655 S
C548 C540 1.378 . S
C548 C543 1.350 . S
C549 H536 0.929 . S
C549 C541 1.433 . S
C549 N551 1.384 . S
N550 C546 1.427 . S
N550 C547 1.384 1_655 S
N551 C543 1.427 . S
N551 C549 1.384 . S
H552 C558 0.930 . S
H553 C562 0.930 . S
H554 C567 0.929 . S
H555 C565 0.929 . S
H556 C560 0.929 . S
H557 C566 0.929 . S
C558 H552 0.930 . S
C558 C559 1.367 . S
C558 C566 1.378 . S
C559 C558 1.367 . S
C559 C567 1.433 . S
C560 H556 0.929 . S
C560 C562 1.378 1_455 S
C560 C564 1.350 . S
C561 C564 1.463 . S
C561 C566 1.350 . S
C561 N569 1.427 . S
C562 H553 0.930 . S
C562 C560 1.378 1_655 S
C562 C563 1.367 . S
C563 C562 1.367 . S
C563 C565 1.433 1_655 S
C564 C560 1.350 . S
C564 C561 1.463 . S
C564 N568 1.427 . S
C565 H555 0.929 . S
C565 C563 1.433 1_455 S
C565 N568 1.384 . S
C566 H557 0.929 . S
C566 C558 1.378 . S
C566 C561 1.350 . S
C567 H554 0.929 . S
C567 C559 1.433 . S
C567 N569 1.384 . S
N568 C564 1.427 . S
N568 C565 1.384 . S
N569 C561 1.427 . S
N569 C567 1.384 . S
H570 C576 0.930 . S
H571 C580 0.930 . S
H572 C585 0.929 . S
H573 C583 0.929 . S
H574 C578 0.929 . S
H575 C584 0.929 . S
C576 H570 0.930 . S
C576 C577 1.367 . S
C576 C584 1.378 . S
C577 C576 1.367 . S
C577 C585 1.433 . S
C578 H574 0.929 . S
C578 C580 1.378 . S
C578 C582 1.350 . S
C579 C582 1.463 . S
C579 C584 1.350 . S
C579 N587 1.427 . S
C580 H571 0.930 . S
C580 C578 1.378 . S
C580 C581 1.367 1_545 S
C581 C580 1.367 1_565 S
C581 C583 1.433 . S
C582 C578 1.350 . S
C582 C579 1.463 . S
C582 N586 1.427 . S
C583 H573 0.929 . S
C583 C581 1.433 . S
C583 N586 1.384 1_565 S
C584 H575 0.929 . S
C584 C576 1.378 . S
C584 C579 1.350 . S
C585 H572 0.929 . S
C585 C577 1.433 . S
C585 N587 1.384 . S
N586 C582 1.427 . S
N586 C583 1.384 1_545 S
N587 C579 1.427 . S
N587 C585 1.384 . S
H588 C594 0.930 . S
H589 C598 0.930 . S
H590 C603 0.929 . S
H591 C601 0.929 . S
H592 C596 0.929 . S
H593 C602 0.929 . S
C594 H588 0.930 . S
C594 C595 1.367 . S
C594 C602 1.378 . S
C595 C594 1.367 . S
C595 C603 1.433 . S
C596 H592 0.929 . S
C596 C598 1.378 . S
C596 C600 1.350 . S
C597 C600 1.463 . S
C597 C602 1.350 . S
C597 N605 1.427 . S
C598 H589 0.930 . S
C598 C596 1.378 . S
C598 C599 1.367 . S
C599 C598 1.367 . S
C599 C601 1.433 . S
C600 C596 1.350 . S
C600 C597 1.463 . S
C600 N604 1.427 . S
C601 H591 0.929 . S
C601 C599 1.433 . S
C601 N604 1.384 . S
C602 H593 0.929 . S
C602 C594 1.378 . S
C602 C597 1.350 . S
C603 H590 0.929 . S
C603 C595 1.433 . S
C603 N605 1.384 . S
N604 C600 1.427 . S
N604 C601 1.384 . S
N605 C597 1.427 . S
N605 C603 1.384 . S
H606 C612 0.930 . S
H607 C616 0.930 . S
H608 C621 0.929 . S
H609 C619 0.929 . S
H610 C614 0.929 . S
H611 C620 0.929 . S
C612 H606 0.930 . S
C612 C613 1.367 . S
C612 C620 1.378 . S
C613 C612 1.367 . S
C613 C621 1.433 . S
C614 H610 0.929 . S
C614 C616 1.378 . S
C614 C618 1.350 . S
C615 C618 1.463 . S
C615 C620 1.350 . S
C615 N623 1.427 . S
C616 H607 0.930 . S
C616 C614 1.378 . S
C616 C617 1.367 . S
C617 C616 1.367 . S
C617 C619 1.433 . S
C618 C614 1.350 . S
C618 C615 1.463 . S
C618 N622 1.427 . S
C619 H609 0.929 . S
C619 C617 1.433 . S
C619 N622 1.384 . S
C620 H611 0.929 . S
C620 C612 1.378 . S
C620 C615 1.350 . S
C621 H608 0.929 . S
C621 C613 1.433 . S
C621 N623 1.384 . S
N622 C618 1.427 . S
N622 C619 1.384 . S
N623 C615 1.427 . S
N623 C621 1.384 . S
H624 C630 0.930 . S
H625 C634 0.930 . S
H626 C639 0.929 . S
H627 C637 0.929 . S
H628 C632 0.929 . S
H629 C638 0.929 . S
C630 H624 0.930 . S
C630 C631 1.367 . S
C630 C638 1.378 . S
C631 C630 1.367 . S
C631 C639 1.433 . S
C632 H628 0.929 . S
C632 C634 1.378 . S
C632 C636 1.350 1_556 S
C633 C636 1.463 . S
C633 C638 1.350 . S
C633 N641 1.427 . S
C634 H625 0.930 . S
C634 C632 1.378 . S
C634 C635 1.367 1_655 S
C635 C634 1.367 1_455 S
C635 C637 1.433 1_556 S
C636 C632 1.350 1_554 S
C636 C633 1.463 . S
C636 N640 1.427 1_655 S
C637 H627 0.929 . S
C637 C635 1.433 1_554 S
C637 N640 1.384 . S
C638 H629 0.929 . S
C638 C630 1.378 . S
C638 C633 1.350 . S
C639 H626 0.929 . S
C639 C631 1.433 . S
C639 N641 1.384 . S
N640 C636 1.427 1_455 S
N640 C637 1.384 . S
N641 C633 1.427 . S
N641 C639 1.384 . S
H642 C648 0.930 . S
H643 C652 0.930 . S
H644 C657 0.929 . S
H645 C655 0.929 . S
H646 C650 0.929 . S
H647 C656 0.929 1_545 S
C648 H642 0.930 . S
C648 C649 1.367 . S
C648 C656 1.378 . S
C649 C648 1.367 . S
C649 C657 1.433 . S
C650 H646 0.929 . S
C650 C652 1.378 . S
C650 C654 1.350 1_556 S
C651 C654 1.463 . S
C651 C656 1.350 . S
C651 N659 1.427 . S
C652 H643 0.930 . S
C652 C650 1.378 . S
C652 C653 1.367 1_565 S
C653 C652 1.367 1_545 S
C653 C655 1.433 1_556 S
C654 C650 1.350 1_554 S
C654 C651 1.463 . S
C654 N658 1.427 1_565 S
C655 H645 0.929 . S
C655 C653 1.433 1_554 S
C655 N658 1.384 . S
C656 H647 0.929 1_565 S
C656 C648 1.378 . S
C656 C651 1.350 . S
C657 H644 0.929 . S
C657 C649 1.433 . S
C657 N659 1.384 . S
N658 C654 1.427 1_545 S
N658 C655 1.384 . S
N659 C651 1.427 . S
N659 C657 1.384 . S
H660 C666 0.930 . S
H661 C670 0.930 . S
H662 C675 0.929 . S
H663 C673 0.929 . S
H664 C668 0.929 1_556 S
H665 C674 0.929 . S
C666 H660 0.930 . S
C666 C667 1.367 . S
C666 C674 1.378 . S
C667 C666 1.367 . S
C667 C675 1.433 . S
C668 H664 0.929 1_554 S
C668 C670 1.378 1_554 S
C668 C672 1.350 . S
C669 C672 1.463 . S
C669 C674 1.350 . S
C669 N677 1.427 . S
C670 H661 0.930 . S
C670 C668 1.378 1_556 S
C670 C671 1.367 . S
C671 C670 1.367 . S
C671 C673 1.433 1_556 S
C672 C668 1.350 . S
C672 C669 1.463 . S
C672 N676 1.427 . S
C673 H663 0.929 . S
C673 C671 1.433 1_554 S
C673 N676 1.384 . S
C674 H665 0.929 . S
C674 C666 1.378 . S
C674 C669 1.350 . S
C675 H662 0.929 . S
C675 C667 1.433 . S
C675 N677 1.384 . S
N676 C672 1.427 . S
N676 C673 1.384 . S
N677 C669 1.427 . S
N677 C675 1.384 . S
H678 C684 0.930 . S
H679 C688 0.930 . S
H680 C693 0.929 . S
H681 C691 0.929 . S
H682 C686 0.928 1_556 S
H683 C692 0.929 . S
C684 H678 0.930 . S
C684 C685 1.367 . S
C684 C692 1.378 . S
C685 C684 1.367 . S
C685 C693 1.433 . S
C686 H682 0.928 1_554 S
C686 C688 1.377 1_554 S
C686 C690 1.351 . S
C687 C690 1.463 . S
C687 C692 1.350 . S
C687 N695 1.427 . S
C688 H679 0.930 . S
C688 C686 1.377 1_556 S
C688 C689 1.367 . S
C689 C688 1.367 . S
C689 C691 1.433 1_556 S
C690 C686 1.351 . S
C690 C687 1.463 . S
C690 N694 1.427 . S
C691 H681 0.929 . S
C691 C689 1.433 1_554 S
C691 N694 1.384 . S
C692 H683 0.929 . S
C692 C684 1.378 . S
C692 C687 1.350 . S
C693 H680 0.929 . S
C693 C685 1.433 . S
C693 N695 1.384 . S
N694 C690 1.427 . S
N694 C691 1.384 . S
N695 C687 1.427 . S
N695 C693 1.384 . S
H696 C702 0.930 . S
H697 C706 0.930 1_655 S
H698 C711 0.929 . S
H699 C709 0.929 . S
H700 C704 0.935 . S
H701 C710 0.929 . S
C702 H696 0.930 . S
C702 C703 1.367 . S
C702 C710 1.378 . S
C703 C702 1.367 . S
C703 C711 1.433 . S
C704 H700 0.935 . S
C704 C706 1.378 . S
C704 C708 1.350 . S
C705 C708 1.463 . S
C705 C710 1.350 . S
C705 N713 1.427 . S
C706 H697 0.930 1_455 S
C706 C704 1.378 . S
C706 C707 1.367 . S
C707 C706 1.367 . S
C707 C709 1.433 . S
C708 C704 1.350 . S
C708 C705 1.463 . S
C708 N712 1.427 . S
C709 H699 0.929 . S
C709 C707 1.433 . S
C709 N712 1.384 . S
C710 H701 0.929 . S
C710 C702 1.378 . S
C710 C705 1.350 . S
C711 H698 0.929 . S
C711 C703 1.433 . S
C711 N713 1.384 . S
N712 C708 1.427 . S
N712 C709 1.384 . S
N713 C705 1.427 . S
N713 C711 1.384 . S
H714 C720 0.930 . S
H715 C724 0.930 . S
H716 C729 0.929 . S
H717 C727 0.929 1_565 S
H718 C722 0.929 . S
H719 C728 0.929 . S
C720 H714 0.930 . S
C720 C721 1.367 . S
C720 C728 1.378 . S
C721 C720 1.367 . S
C721 C729 1.433 . S
C722 H718 0.929 . S
C722 C724 1.378 . S
C722 C726 1.350 . S
C723 C726 1.463 . S
C723 C728 1.350 . S
C723 N731 1.427 . S
C724 H715 0.930 . S
C724 C722 1.378 . S
C724 C725 1.367 . S
C725 C724 1.367 . S
C725 C727 1.433 . S
C726 C722 1.350 . S
C726 C723 1.463 . S
C726 N730 1.427 . S
C727 H717 0.929 1_545 S
C727 C725 1.433 . S
C727 N730 1.384 . S
C728 H719 0.929 . S
C728 C720 1.378 . S
C728 C723 1.350 . S
C729 H716 0.929 . S
C729 C721 1.433 . S
C729 N731 1.384 . S
N730 C726 1.427 . S
N730 C727 1.384 . S
N731 C723 1.427 . S
N731 C729 1.384 . S
H732 C738 0.930 . S
H733 C742 0.930 . S
H734 C747 0.929 . S
H735 C745 0.929 . S
H736 C740 0.929 . S
H737 C746 0.929 . S
C738 H732 0.930 . S
C738 C739 1.367 . S
C738 C746 1.378 . S
C739 C738 1.367 . S
C739 C747 1.433 . S
C740 H736 0.929 . S
C740 C742 1.378 . S
C740 C744 1.350 . S
C741 C744 1.463 . S
C741 C746 1.350 . S
C741 N749 1.427 . S
C742 H733 0.930 . S
C742 C740 1.378 . S
C742 C743 1.367 . S
C743 C742 1.367 . S
C743 C745 1.433 . S
C744 C740 1.350 . S
C744 C741 1.463 . S
C744 N748 1.427 . S
C745 H735 0.929 . S
C745 C743 1.433 . S
C745 N748 1.384 . S
C746 H737 0.929 . S
C746 C738 1.378 . S
C746 C741 1.350 . S
C747 H734 0.929 . S
C747 C739 1.433 . S
C747 N749 1.384 . S
N748 C744 1.427 . S
N748 C745 1.384 . S
N749 C741 1.427 . S
N749 C747 1.384 . S
H750 C756 0.930 . S
H751 C760 0.930 . S
H752 C765 0.929 . S
H753 C763 0.929 . S
H754 C758 0.929 . S
H755 C764 0.929 . S
C756 H750 0.930 . S
C756 C757 1.367 . S
C756 C764 1.378 . S
C757 C756 1.367 . S
C757 C765 1.433 . S
C758 H754 0.929 . S
C758 C760 1.378 . S
C758 C762 1.350 . S
C759 C762 1.463 . S
C759 C764 1.350 . S
C759 N767 1.427 . S
C760 H751 0.930 . S
C760 C758 1.378 . S
C760 C761 1.367 . S
C761 C760 1.367 . S
C761 C763 1.433 . S
C762 C758 1.350 . S
C762 C759 1.463 . S
C762 N766 1.427 . S
C763 H753 0.929 . S
C763 C761 1.433 . S
C763 N766 1.384 . S
C764 H755 0.929 . S
C764 C756 1.378 . S
C764 C759 1.350 . S
C765 H752 0.929 . S
C765 C757 1.433 . S
C765 N767 1.384 . S
N766 C762 1.427 . S
N766 C763 1.384 . S
N767 C759 1.427 . S
N767 C765 1.384 . S
H768 C774 0.930 . S
H769 C778 0.930 . S
H770 C783 0.929 . S
H771 C781 0.929 . S
H772 C776 0.929 . S
H773 C782 0.929 . S
C774 H768 0.930 . S
C774 C775 1.367 . S
C774 C782 1.378 . S
C775 C774 1.367 . S
C775 C783 1.433 . S
C776 H772 0.929 . S
C776 C778 1.378 . S
C776 C780 1.350 . S
C777 C780 1.463 . S
C777 C782 1.350 . S
C777 N785 1.427 . S
C778 H769 0.930 . S
C778 C776 1.378 . S
C778 C779 1.367 . S
C779 C778 1.367 . S
C779 C781 1.433 . S
C780 C776 1.350 . S
C780 C777 1.463 . S
C780 N784 1.427 . S
C781 H771 0.929 . S
C781 C779 1.433 . S
C781 N784 1.384 . S
C782 H773 0.929 . S
C782 C774 1.378 . S
C782 C777 1.350 . S
C783 H770 0.929 . S
C783 C775 1.433 . S
C783 N785 1.384 . S
N784 C780 1.427 . S
N784 C781 1.384 . S
N785 C777 1.427 . S
N785 C783 1.384 . S
H786 C792 0.930 . S
H787 C796 0.930 1_545 S
H788 C801 0.929 . S
H789 C799 0.929 . S
H790 C794 0.929 1_545 S
H791 C800 0.929 . S
C792 H786 0.930 . S
C792 C793 1.367 . S
C792 C800 1.378 . S
C793 C792 1.367 . S
C793 C801 1.433 . S
C794 H790 0.929 1_565 S
C794 C796 1.378 . S
C794 C798 1.350 . S
C795 C798 1.463 . S
C795 C800 1.350 . S
C795 N803 1.427 . S
C796 H787 0.930 1_565 S
C796 C794 1.378 . S
C796 C797 1.367 . S
C797 C796 1.367 . S
C797 C799 1.433 . S
C798 C794 1.350 . S
C798 C795 1.463 . S
C798 N802 1.427 . S
C799 H789 0.929 . S
C799 C797 1.433 . S
C799 N802 1.384 . S
C800 H791 0.929 . S
C800 C792 1.378 . S
C800 C795 1.350 . S
C801 H788 0.929 . S
C801 C793 1.433 . S
C801 N803 1.384 . S
N802 C798 1.427 . S
N802 C799 1.384 . S
N803 C795 1.427 . S
N803 C801 1.384 . S
H804 C810 0.930 . S
H805 C814 0.930 . S
H806 C819 0.929 . S
H807 C817 0.929 . S
H808 C812 0.929 . S
H809 C818 0.929 . S
C810 H804 0.930 . S
C810 C811 1.367 . S
C810 C818 1.378 . S
C811 C810 1.367 . S
C811 C819 1.433 . S
C812 H808 0.929 . S
C812 C814 1.378 . S
C812 C816 1.350 . S
C813 C816 1.463 . S
C813 C818 1.350 . S
C813 N821 1.427 . S
C814 H805 0.930 . S
C814 C812 1.378 . S
C814 C815 1.367 . S
C815 C814 1.367 . S
C815 C817 1.433 . S
C816 C812 1.350 . S
C816 C813 1.463 . S
C816 N820 1.427 . S
C817 H807 0.929 . S
C817 C815 1.433 . S
C817 N820 1.384 . S
C818 H809 0.929 . S
C818 C810 1.378 . S
C818 C813 1.350 . S
C819 H806 0.929 . S
C819 C811 1.433 . S
C819 N821 1.384 . S
N820 C816 1.427 . S
N820 C817 1.384 . S
N821 C813 1.427 . S
N821 C819 1.384 . S
H822 C828 0.930 . S
H823 C832 0.930 . S
H824 C837 0.929 . S
H825 C835 0.929 . S
H826 C830 0.929 . S
H827 C836 0.929 . S
C828 H822 0.930 . S
C828 C829 1.367 . S
C828 C836 1.378 . S
C829 C828 1.367 . S
C829 C837 1.433 . S
C830 H826 0.929 . S
C830 C832 1.378 . S
C830 C834 1.350 . S
C831 C834 1.463 . S
C831 C836 1.350 . S
C831 N839 1.427 . S
C832 H823 0.930 . S
C832 C830 1.378 . S
C832 C833 1.367 . S
C833 C832 1.367 . S
C833 C835 1.433 . S
C834 C830 1.350 . S
C834 C831 1.463 . S
C834 N838 1.427 . S
C835 H825 0.929 . S
C835 C833 1.433 . S
C835 N838 1.384 . S
C836 H827 0.929 . S
C836 C828 1.378 . S
C836 C831 1.350 . S
C837 H824 0.929 . S
C837 C829 1.433 . S
C837 N839 1.384 . S
N838 C834 1.427 . S
N838 C835 1.384 . S
N839 C831 1.427 . S
N839 C837 1.384 . S
C415 C61 1.836 . S
C419 C146 1.907 . S
C437 C230 1.926 . S
C433 C70 1.876 . S
C455 C296 1.887 . S
C451 C43 1.944 . S
C473 C380 1.865 . S
C469 C52 1.925 . S
C491 C135 1.897 1_565 S
C487 C25 1.844 . S
C505 C34 1.857 . S
C509 C219 1.915 . S
C523 C7 1.955 . S
C527 C307 1.894 . S
C541 C16 1.935 . S
C545 C391 1.872 . S
C563 C142 0.594 . S
C559 C50 0.618 . S
C581 C226 0.571 . S
C577 C59 0.582 . S
C599 C298 0.524 . S
C595 C67 0.541 . S
C613 C41 0.566 . S
C617 C382 0.583 . S
C631 C14 0.594 . S
C635 C130 0.605 . S
C653 C214 0.583 . S
C649 C23 0.559 . S
C671 C310 0.564 1_556 S
C667 C31 0.515 . S
C685 C5 0.541 . S
C689 C394 0.586 1_556 S
C703 C49 1.992 . S
C707 C139 2.069 . S
C721 C58 1.964 . S
C725 C223 2.055 . S
C743 C303 2.040 . S
C739 C68 1.854 . S
C761 C387 2.056 . S
C757 C40 1.889 . S
C775 C13 1.998 . S
C779 C128 2.081 . S
C797 C212 2.041 . S
C793 C22 1.958 . S
C815 C314 2.031 . S
C811 C32 1.856 . S
C829 C4 1.881 . S
C833 C398 2.054 . S
