# Generated by pormake.
# Topology anh, (6,3)-cn, num edge types: 1
# Building blocks:
#     Node 0, Type 0, BuildingBlock: CUWYAW_clean_sbu_0, # of connection points: 6
#     Node 1, Type 0, BuildingBlock: CUWYAW_clean_sbu_0, # of connection points: 6
#     Node 2, Type 0, BuildingBlock: CUWYAW_clean_sbu_0, # of connection points: 6
#     Node 3, Type 1, BuildingBlock: ESEHIV_clean_linker_0, # of connection points: 3
#     Node 4, Type 1, BuildingBlock: ESEHIV_clean_linker_0, # of connection points: 3
#     Node 5, Type 1, BuildingBlock: ESEHIV_clean_linker_0, # of connection points: 3
#     Node 6, Type 1, BuildingBlock: ESEHIV_clean_linker_0, # of connection points: 3
#     Node 7, Type 1, BuildingBlock: ESEHIV_clean_linker_0, # of connection points: 3
#     Node 8, Type 1, BuildingBlock: ESEHIV_clean_linker_0, # of connection points: 3
#     Edge 9, Type (0, 1), BuildingBlock: KIFKEQ_clean_linker_1, # of connection points: 2
#     Edge 10, Type (0, 1), BuildingBlock: KIFKEQ_clean_linker_1, # of connection points: 2
#     Edge 11, Type (0, 1), BuildingBlock: KIFKEQ_clean_linker_1, # of connection points: 2
#     Edge 12, Type (0, 1), BuildingBlock: KIFKEQ_clean_linker_1, # of connection points: 2
#     Edge 13, Type (0, 1), BuildingBlock: KIFKEQ_clean_linker_1, # of connection points: 2
#     Edge 14, Type (0, 1), BuildingBlock: KIFKEQ_clean_linker_1, # of connection points: 2
#     Edge 15, Type (0, 1), BuildingBlock: KIFKEQ_clean_linker_1, # of connection points: 2
#     Edge 16, Type (0, 1), BuildingBlock: KIFKEQ_clean_linker_1, # of connection points: 2
#     Edge 17, Type (0, 1), BuildingBlock: KIFKEQ_clean_linker_1, # of connection points: 2
#     Edge 18, Type (0, 1), BuildingBlock: KIFKEQ_clean_linker_1, # of connection points: 2
#     Edge 19, Type (0, 1), BuildingBlock: KIFKEQ_clean_linker_1, # of connection points: 2
#     Edge 20, Type (0, 1), BuildingBlock: KIFKEQ_clean_linker_1, # of connection points: 2
#     Edge 21, Type (0, 1), BuildingBlock: KIFKEQ_clean_linker_1, # of connection points: 2
#     Edge 22, Type (0, 1), BuildingBlock: KIFKEQ_clean_linker_1, # of connection points: 2
#     Edge 23, Type (0, 1), BuildingBlock: KIFKEQ_clean_linker_1, # of connection points: 2
#     Edge 24, Type (0, 1), BuildingBlock: KIFKEQ_clean_linker_1, # of connection points: 2
#     Edge 25, Type (0, 1), BuildingBlock: KIFKEQ_clean_linker_1, # of connection points: 2
#     Edge 26, Type (0, 1), BuildingBlock: KIFKEQ_clean_linker_1, # of connection points: 2
# Relax obj value: 0.306
# Max RMSD: 0.193
# Mean RMSD: 0.164
data_MOF--net-anh--node1-CUWYAW_clean_sbu_0--node2-ESEHIV_clean_linker_0--edge1-KIFKEQ_clean_linker_1
_symmetry_space_group_name_H-M    P1
_symmetry_Int_Tables_number       1
_symmetry_cell_setting            triclinic
loop_
_symmetry_equiv_pos_as_xyz
'x, y, z'
_cell_length_a     27.814493
_cell_length_b     27.877225
_cell_length_c     54.905791
_cell_angle_alpha  89.156927
_cell_angle_beta   89.969507
_cell_angle_gamma 119.79249
loop_
_atom_site_label
_atom_site_type_symbol
_atom_site_fract_x
_atom_site_fract_y
_atom_site_fract_z
_atom_type_partial_charge
C0 C 1.10517 0.46688 0.13705 0.0
Eu1 Eu 1.14787 0.56517 0.15462 0.0
C2 C 1.05983 0.43873 0.12006 0.0
C3 C 1.02804 0.38134 0.12168 0.0
C4 C 0.97314 0.35523 0.11427 0.0
C5 C 0.94951 0.38672 0.10553 0.0
C6 C 0.98478 0.44293 0.09974 0.0
C7 C 1.03972 0.46908 0.10732 0.0
C8 C 0.15922 0.59422 0.20231 0.0
C9 C 1.06651 0.62038 0.15229 0.0
C10 C 0.26538 0.79068 0.1568 0.0
Eu11 Eu 0.19775 0.68669 0.15324 0.0
C12 C 0.3227 0.81927 0.14739 0.0
C13 C 0.33493 0.84288 0.12378 0.0
C14 C 0.38867 0.8664 0.11429 0.0
C15 C 0.43152 0.86772 0.12839 0.0
C16 C 0.4178 0.84046 0.15136 0.0
C17 C 0.36443 0.81708 0.16074 0.0
C18 C 0.16306 0.63946 0.11003 0.0
C19 C 0.27984 0.63204 0.14896 0.0
O20 O 0.15019 0.50895 0.12817 0.0
O21 O 1.08986 0.47727 0.15793 0.0
O22 O 1.13949 0.5443 0.19467 0.0
O23 O 0.17331 0.62804 0.18443 0.0
O24 O 1.07314 0.57784 0.14643 0.0
O25 O 1.10917 0.66621 0.16051 0.0
O26 O 0.25487 0.7561 0.17514 0.0
O27 O 0.22709 0.77075 0.14018 0.0
O28 O 0.15592 0.67955 0.11721 0.0
O29 O 0.18885 0.62774 0.12563 0.0
O30 O 0.27329 0.67554 0.14474 0.0
O31 O 0.23734 0.58435 0.1561 0.0
H32 H 1.04328 0.35752 0.1314 0.0
H33 H 0.9479 0.31175 0.11885 0.0
H34 H 0.96834 0.46801 0.09231 0.0
H35 H 1.06422 0.51368 0.10576 0.0
H36 H 0.30309 0.84367 0.11272 0.0
H37 H 0.39728 0.88627 0.09648 0.0
H38 H 0.44882 0.84031 0.16319 0.0
H39 H 0.35626 0.79793 0.17871 0.0
C40 C 0.62197 0.20831 0.47393 0.0
Eu41 Eu 0.66766 0.14954 0.48523 0.0
C42 C 0.64687 0.26486 0.46456 0.0
C43 C 0.70097 0.30304 0.47121 0.0
C44 C 0.72578 0.35685 0.46242 0.0
C45 C 0.69655 0.37423 0.44714 0.0
C46 C 0.64311 0.33513 0.43947 0.0
C47 C 0.61851 0.28041 0.44803 0.0
C48 C 0.67865 0.11953 0.53172 0.0
C49 C 0.80422 0.23078 0.48317 0.0
C50 C 0.77366 1.03494 0.49475 0.0
Eu51 Eu 0.73658 0.10146 0.48749 0.0
C52 C 0.74552 0.97843 0.48538 0.0
C53 C 0.74092 0.96886 0.46009 0.0
C54 C 0.70501 0.91627 0.45122 0.0
C55 C 0.67256 0.87264 0.46743 0.0
C56 C 0.67774 0.88257 0.4927 0.0
C57 C 0.71392 0.9346 0.50151 0.0
C58 C 0.72445 0.12901 0.44173 0.0
C59 C 0.60042 1.01893 0.48019 0.0
O60 O 0.62512 0.17409 0.45897 0.0
O61 O 0.63509 0.20259 0.49625 0.0
O62 O 0.63236 0.11069 0.52224 0.0
O63 O 0.7177 0.14457 0.51642 0.0
O64 O 0.75522 0.22357 0.47641 0.0
O65 O 0.80691 0.1886 0.49285 0.0
O66 O 0.74601 1.0442 0.51163 0.0
O67 O 0.79542 1.07452 0.47829 0.0
O68 O 0.77117 0.13696 0.45014 0.0
O69 O 0.68637 0.10553 0.45735 0.0
O70 O 0.64888 1.02282 0.48548 0.0
O71 O 0.59716 1.06412 0.47744 0.0
H72 H 0.72347 0.29203 0.48407 0.0
H73 H 0.76623 0.38581 0.46945 0.0
H74 H 0.61941 0.34759 0.428 0.0
H75 H 0.57694 0.2508 0.44239 0.0
H76 H 0.7642 1.00211 0.44707 0.0
H77 H 0.70316 0.90942 0.43179 0.0
H78 H 0.65529 0.84969 0.50597 0.0
H79 H 0.71606 0.94091 0.521 0.0
C80 C 0.8438 0.69017 0.80504 0.0
Eu81 Eu 0.74147 0.64378 0.81943 0.0
C82 C 0.87168 0.67113 0.78862 0.0
C83 C 0.92866 0.69289 0.79057 0.0
C84 C 0.95317 0.66443 0.78079 0.0
C85 C 0.92034 0.61297 0.76957 0.0
C86 C 0.86505 0.59678 0.76399 0.0
C87 C 0.84053 0.62538 0.77381 0.0
C88 C 0.70558 0.63542 0.86652 0.0
C89 C 0.68541 0.50768 0.81769 0.0
C90 C 0.52332 0.5432 0.83152 0.0
Eu91 Eu 0.62541 0.57702 0.82296 0.0
C92 C 0.4927 0.56615 0.81876 0.0
C93 C 0.48561 0.56157 0.79331 0.0
C94 C 0.45816 0.58521 0.78126 0.0
C95 C 0.43721 0.61362 0.79445 0.0
C96 C 0.44977 0.623 0.81946 0.0
C97 C 0.4766 0.59894 0.83148 0.0
C98 C 0.66185 0.58671 0.77694 0.0
C99 C 0.6785 0.71267 0.81378 0.0
O100 O 0.8071 0.69979 0.7948 0.0
O101 O 0.82617 0.66205 0.82556 0.0
O102 O 0.74375 0.68023 0.85609 0.0
O103 O 0.68814 0.59566 0.85183 0.0
O104 O 0.72706 0.55654 0.81058 0.0
O105 O 0.64136 0.50534 0.82794 0.0
O106 O 0.56213 0.57738 0.84614 0.0
O107 O 0.53907 0.51501 0.81813 0.0
O108 O 0.62222 0.54103 0.78599 0.0
O109 O 0.678 0.62524 0.79188 0.0
O110 O 0.63335 0.66345 0.81652 0.0
O111 O 0.72747 0.71638 0.81439 0.0
H112 H 0.95317 0.7287 0.80167 0.0
H113 H 0.99606 0.67897 0.78531 0.0
H114 H 0.839 0.55811 0.75493 0.0
H115 H 0.79635 0.60879 0.77173 0.0
H116 H 0.49984 0.53849 0.78271 0.0
H117 H 0.44907 0.57726 0.76208 0.0
H118 H 0.43429 0.64443 0.83045 0.0
H119 H 0.48362 0.60493 0.85089 0.0
H120 H 0.58746 1.08771 0.27082 0.0
H121 H 0.72004 0.25127 0.25448 0.0
H122 H 0.58564 0.16806 0.20436 0.0
C123 C 0.60436 0.12457 0.25931 0.0
C124 C 0.58379 0.12161 0.23592 0.0
C125 C 0.65006 0.17399 0.26699 0.0
C126 C 0.6799 0.21695 0.24983 0.0
C127 C 0.65796 0.21307 0.22633 0.0
C128 C 0.60431 0.16994 0.22192 0.0
H129 H 0.73077 0.70981 0.59871 0.0
H130 H 0.79305 0.59563 0.5948 0.0
H131 H 0.79901 0.69218 0.5323 0.0
C132 C 0.75227 0.69223 0.58914 0.0
C133 C 0.76416 0.70495 0.56447 0.0
C134 C 0.76495 0.65455 0.60077 0.0
C135 C 0.7887 0.62918 0.58698 0.0
C136 C 0.80191 0.64344 0.56229 0.0
C137 C 0.79301 0.68422 0.55181 0.0
H138 H 1.04988 0.54247 0.92887 0.0
H139 H 0.20205 0.53571 0.93232 0.0
H140 H 1.10869 0.4979 0.8664 0.0
C141 C 1.07938 0.53243 0.92091 0.0
C142 C 1.07335 0.5164 0.89667 0.0
C143 C 1.12462 0.53722 0.93444 0.0
C144 C 0.1655 0.52964 0.92271 0.0
C145 C 0.15971 0.51518 0.89815 0.0
C146 C 1.11237 0.50636 0.88577 0.0
H147 H 1.11898 0.55159 0.39154 0.0
H148 H 0.27075 0.70703 0.38774 0.0
H149 H 0.20312 0.62927 0.45769 0.0
C150 C 0.15318 0.58589 0.40056 0.0
C151 C 0.15547 0.58477 0.42617 0.0
C152 C 0.19415 0.62995 0.38647 0.0
C153 C 0.23899 0.67342 0.39855 0.0
C154 C 0.24351 0.67463 0.42425 0.0
C155 C 0.20102 0.62951 0.438 0.0
H156 H 0.68658 0.19162 0.72055 0.0
H157 H 0.67599 1.03234 0.72162 0.0
H158 H 0.67533 0.10885 0.78909 0.0
C159 C 0.68302 0.15634 0.73062 0.0
C160 C 0.68082 0.15647 0.75637 0.0
C161 C 0.6812 0.1121 0.71763 0.0
C162 C 0.67778 1.06699 0.7311 0.0
C163 C 0.67573 1.06497 0.75678 0.0
C164 C 0.67629 0.10964 0.76937 0.0
H165 H 0.59826 0.62098 0.05333 0.0
H166 H 0.75114 0.61903 0.0576 0.0
H167 H 0.66726 0.6186 0.12366 0.0
C168 C 0.6293 0.61871 0.06437 0.0
C169 C 0.62503 0.61819 0.09011 0.0
C170 C 0.67406 0.61862 0.05238 0.0
C171 C 0.71665 0.61949 0.06657 0.0
C172 C 0.71531 0.61984 0.09222 0.0
C173 C 0.66893 0.61878 0.10396 0.0
H174 H 0.35155 0.61536 0.17808 0.0
H175 H 0.32864 0.65169 0.10394 0.0
H176 H 0.43573 0.61325 0.16578 0.0
H177 H 0.41123 0.64772 0.09142 0.0
H178 H 0.51706 0.56746 0.07349 0.0
H179 H 0.43874 0.57491 0.08806 0.0
H180 H 0.53548 0.67213 0.14831 0.0
H181 H 0.61602 0.6671 0.13298 0.0
C182 C 0.36466 0.62323 0.15917 0.0
C183 C 0.33342 0.63425 0.14208 0.0
C184 C 0.4131 0.62211 0.15208 0.0
C185 C 0.43081 0.63005 0.12749 0.0
C186 C 0.39926 0.64109 0.11048 0.0
C187 C 0.35191 0.64378 0.11768 0.0
C188 C 0.52274 0.59144 0.08965 0.0
C189 C 0.57458 0.6178 0.10151 0.0
C190 C 0.47708 0.59545 0.09812 0.0
C191 C 0.48028 0.62486 0.11925 0.0
C192 C 0.53103 0.64913 0.13194 0.0
C193 C 0.57744 0.64596 0.12316 0.0
H194 H 0.91306 0.25556 0.48837 0.0
H195 H 0.8165 0.3293 0.46456 0.0
H196 H 0.99814 0.34073 0.47743 0.0
H197 H 0.90151 0.41479 0.45382 0.0
H198 H 1.06857 0.57914 0.45293 0.0
H199 H 0.98506 0.49601 0.46808 0.0
H200 H 1.05161 0.39491 0.44264 0.0
H201 H 1.13441 0.4779 0.42756 0.0
C202 C 0.90968 0.29002 0.48104 0.0
C203 C 0.85701 0.28489 0.47769 0.0
C204 C 0.95889 0.33918 0.47454 0.0
C205 C 0.95768 0.38563 0.46463 0.0
C206 C 0.90498 0.38078 0.46165 0.0
C207 C 0.85573 0.33131 0.46785 0.0
C208 C 1.06591 0.53925 0.45116 0.0
C209 C 1.10916 0.53564 0.43953 0.0
C210 C 1.01748 0.49122 0.45954 0.0
C211 C 1.0107 0.43781 0.45674 0.0
C212 C 1.05486 0.43471 0.44561 0.0
C213 C 1.10277 0.48256 0.43697 0.0
H214 H 0.76223 0.82054 0.8148 0.0
H215 H 0.58777 0.72316 0.7997 0.0
H216 H 0.7605 0.90442 0.80414 0.0
H217 H 0.58618 0.80765 0.78798 0.0
H218 H 0.59129 0.97635 0.7823 0.0
H219 H 0.58959 0.89197 0.79736 0.0
H220 H 0.75854 0.95795 0.77247 0.0
H221 H 0.75986 1.04163 0.75812 0.0
C222 C 0.72325 0.81681 0.80912 0.0
C223 C 0.67519 0.76434 0.8082 0.0
C224 C 0.72231 0.86546 0.8027 0.0
C225 C 0.67337 0.86408 0.79471 0.0
C226 C 0.62483 0.81147 0.79418 0.0
C227 C 0.6257 0.76255 0.80086 0.0
C228 C 0.62843 0.97321 0.78067 0.0
C229 C 0.67619 1.01666 0.76948 0.0
C230 C 0.62731 0.92423 0.78898 0.0
C231 C 0.67401 0.91701 0.78644 0.0
C232 C 0.72184 0.96124 0.77547 0.0
C233 C 0.72276 1.00974 0.76711 0.0
H234 H 1.04357 0.70617 0.15325 0.0
H235 H 0.96626 0.5325 0.13789 0.0
H236 H 0.95898 0.70631 0.14153 0.0
H237 H 0.88112 0.53239 0.12606 0.0
H238 H 0.71843 0.54113 0.12271 0.0
H239 H 0.80056 0.53992 0.13867 0.0
H240 H 0.90546 0.70137 0.10641 0.0
H241 H 0.82371 0.70201 0.09057 0.0
C242 C 1.00838 0.66766 0.14761 0.0
C243 C 1.01239 0.61918 0.14675 0.0
C244 C 0.95955 0.66783 0.14061 0.0
C245 C 0.91225 0.61942 0.13263 0.0
C246 C 0.91587 0.57059 0.13226 0.0
C247 C 0.96506 0.57061 0.13901 0.0
C248 C 0.75898 0.57686 0.11954 0.0
C249 C 0.76399 0.62215 0.1057 0.0
C250 C 0.80643 0.57593 0.12841 0.0
C251 C 0.86062 0.62058 0.12401 0.0
C252 C 0.86509 0.66636 0.11066 0.0
C253 C 0.8179 0.66686 0.10154 0.0
H254 H 0.5553 0.98766 0.43542 0.0
H255 H 0.53201 0.92806 0.50961 0.0
H256 H 0.47111 0.90449 0.42364 0.0
H257 H 0.44533 0.84489 0.49823 0.0
H258 H 0.30902 0.67845 0.46377 0.0
H259 H 0.39511 0.75796 0.47814 0.0
H260 H 0.376 0.86287 0.42505 0.0
H261 H 0.29148 0.78454 0.41093 0.0
C262 C 0.53202 0.95653 0.44928 0.0
C263 C 0.5509 0.96469 0.47343 0.0
C264 C 0.48291 0.90868 0.4426 0.0
C265 C 0.44957 0.86723 0.45992 0.0
C266 C 0.46928 0.87499 0.48414 0.0
C267 C 0.5192 0.92289 0.49076 0.0
C268 C 0.32291 0.71862 0.45534 0.0
C269 C 0.29299 0.72399 0.43571 0.0
C270 C 0.37274 0.76459 0.46358 0.0
C271 C 0.39445 0.81767 0.45251 0.0
C272 C 0.36284 0.82306 0.43368 0.0
C273 C 0.31351 0.77754 0.42554 0.0
H274 H 0.77182 0.49645 0.80017 0.0
H275 H 0.60003 0.3986 0.82094 0.0
H276 H 0.77292 0.41298 0.78842 0.0
H277 H 0.59995 0.31484 0.80822 0.0
H278 H 0.62137 0.16276 0.79615 0.0
H279 H 0.62318 0.24502 0.81269 0.0
H280 H 0.7492 0.34718 0.75981 0.0
H281 H 0.74916 0.2663 0.74447 0.0
C282 C 0.73414 0.45704 0.80224 0.0
C283 C 0.68609 0.45503 0.81169 0.0
C284 C 0.73443 0.40865 0.79519 0.0
C285 C 0.68634 0.35583 0.79691 0.0
C286 C 0.63829 0.35382 0.80672 0.0
C287 C 0.63822 0.40236 0.814 0.0
C288 C 0.65017 0.20293 0.78838 0.0
C289 C 0.68478 0.20697 0.76871 0.0
C290 C 0.65076 0.25051 0.79767 0.0
C291 C 0.68625 0.30412 0.78777 0.0
C292 C 0.72163 0.30777 0.7685 0.0
C293 C 0.72111 0.26058 0.75934 0.0
H294 H 0.56641 0.78774 0.47871 0.0
H295 H 0.71131 0.8215 0.43738 0.0
H296 H 0.57586 0.72029 0.50337 0.0
H297 H 0.71927 0.75153 0.4607 0.0
H298 H 0.80519 0.795 0.53471 0.0
H299 H 0.75795 0.80373 0.49913 0.0
H300 H 0.60579 0.65964 0.52301 0.0
H301 H 0.65341 0.65214 0.55911 0.0
C302 C 0.59744 0.77713 0.47336 0.0
C303 C 0.64328 0.81476 0.45918 0.0
C304 C 0.60322 0.73863 0.48778 0.0
C305 C 0.65178 0.73532 0.4854 0.0
C306 C 0.68372 0.75674 0.46398 0.0
C307 C 0.67851 0.79637 0.45028 0.0
C308 C 0.76118 0.76672 0.53276 0.0
C309 C 0.73265 0.7235 0.5496 0.0
C310 C 0.73447 0.77022 0.51202 0.0
C311 C 0.67883 0.73022 0.50764 0.0
C312 C 0.649 0.6899 0.5256 0.0
C313 C 0.6758 0.68658 0.5465 0.0
H314 H 1.02313 0.6225 0.76264 0.0
H315 H 0.85571 0.50608 0.78523 0.0
H316 H 1.05783 0.58605 0.79444 0.0
H317 H 0.88985 0.47041 0.8168 0.0
H318 H 0.98201 0.43143 0.8774 0.0
H319 H 0.94562 0.4356 0.83729 0.0
H320 H 1.0473 0.61368 0.8368 0.0
H321 H 1.08339 0.60903 0.87666 0.0
C322 C 0.99364 0.58707 0.77339 0.0
C323 C 0.93697 0.57038 0.7729 0.0
C324 C 1.0135 0.56679 0.79184 0.0
C325 C 0.97635 0.52817 0.80898 0.0
C326 C 0.91947 0.50155 0.8043 0.0
C327 C 0.89984 0.52197 0.78591 0.0
C328 C 0.99415 0.47141 0.86912 0.0
C329 C 1.03413 0.52 0.88016 0.0
C330 C 0.97464 0.47374 0.84599 0.0
C331 C 0.99541 0.52469 0.83363 0.0
C332 C 1.03212 0.57361 0.8456 0.0
C333 C 1.0512 0.57127 0.86874 0.0
H334 H 0.47488 0.97061 0.10554 0.0
H335 H 0.52863 0.86437 0.13824 0.0
H336 H 0.53142 1.04279 0.13347 0.0
H337 H 0.58161 0.93452 0.16788 0.0
H338 H 0.63841 1.06625 0.22817 0.0
H339 H 0.63224 1.01787 0.19067 0.0
H340 H 0.48168 1.01937 0.17259 0.0
H341 H 0.48938 1.06955 0.20959 0.0
C342 C 0.50082 0.96311 0.11791 0.0
C343 C 0.49048 0.90918 0.12297 0.0
C344 C 0.53255 1.00449 0.13431 0.0
C345 C 0.55548 0.99164 0.15446 0.0
C346 C 0.56141 0.9445 0.15343 0.0
C347 C 0.53126 0.90433 0.13618 0.0
C348 C 0.60258 1.05381 0.21669 0.0
C349 C 0.56397 1.07113 0.22176 0.0
C350 C 0.59996 1.02748 0.19492 0.0
C351 C 0.55827 1.01751 0.17811 0.0
C352 C 0.5161 1.02914 0.18461 0.0
C353 C 0.51902 1.05586 0.20622 0.0
H354 H 0.63624 0.42483 0.45538 0.0
H355 H 0.80165 0.45976 0.43723 0.0
H356 H 0.67407 0.50317 0.48215 0.0
H357 H 0.8396 0.53631 0.46533 0.0
H358 H 0.87747 0.66882 0.52555 0.0
H359 H 0.85421 0.61971 0.48697 0.0
H360 H 0.70885 0.48462 0.52097 0.0
H361 H 0.73095 0.53419 0.55893 0.0
C362 C 0.68084 0.45113 0.45587 0.0
C363 C 0.71613 0.43405 0.44578 0.0
C364 C 0.70249 0.49533 0.47173 0.0
C365 C 0.75929 0.52269 0.47709 0.0
C366 C 0.79538 0.51449 0.46215 0.0
C367 C 0.77361 0.47099 0.44581 0.0
C368 C 0.84201 0.62748 0.52495 0.0
C369 C 0.80574 0.60546 0.54509 0.0
C370 C 0.82809 0.60003 0.50279 0.0
C371 C 0.77827 0.54997 0.50074 0.0
C372 C 0.74619 0.52461 0.52178 0.0
C373 C 0.75988 0.55206 0.5438 0.0
H374 H 0.34702 0.53181 0.77177 0.0
H375 H 0.40966 0.69773 0.79616 0.0
H376 H 0.27045 0.49903 0.79919 0.0
H377 H 0.32844 0.66712 0.82206 0.0
H378 H 0.26457 0.60255 0.8964 0.0
H379 H 0.32083 0.63229 0.8597 0.0
H380 H 0.20769 0.47561 0.8267 0.0
H381 H 0.15793 0.44403 0.8646 0.0
C382 C 0.34241 0.56236 0.78191 0.0
C383 C 0.38797 0.61524 0.78539 0.0
C384 C 0.29824 0.54311 0.79829 0.0
C385 C 0.2968 0.5795 0.81546 0.0
C386 C 0.3317 0.63677 0.8112 0.0
C387 C 0.37708 0.65493 0.7954 0.0
C388 C 0.25409 0.57352 0.88172 0.0
C389 C 0.2062 0.5215 0.88301 0.0
C390 C 0.28471 0.59142 0.86009 0.0
C391 C 0.26696 0.55822 0.83918 0.0
C392 C 0.22296 0.50352 0.8418 0.0
C393 C 0.19448 0.48474 0.86382 0.0
H394 H 0.86265 0.28113 0.10069 0.0
H395 H 0.90048 0.44441 0.12253 0.0
H396 H 0.78522 0.2411 0.12846 0.0
H397 H 0.8191 0.40475 0.14833 0.0
H398 H 0.74495 0.32111 0.22258 0.0
H399 H 0.80381 0.3655 0.18691 0.0
H400 H 0.70441 0.2179 0.14537 0.0
H401 H 0.65312 0.17179 0.18114 0.0
C402 C 0.85289 0.30862 0.11056 0.0
C403 C 0.88985 0.36571 0.11049 0.0
C404 C 0.80787 0.28566 0.12656 0.0
C405 C 0.79711 0.31972 0.14173 0.0
C406 C 0.82788 0.37718 0.13798 0.0
C407 C 0.87405 0.40004 0.12257 0.0
C408 C 0.7362 0.29833 0.20584 0.0
C409 C 0.69294 0.24344 0.20479 0.0
C410 C 0.76919 0.32401 0.18516 0.0
C411 C 0.75878 0.29556 0.16295 0.0
C412 C 0.71469 0.24125 0.16198 0.0
C413 C 0.68381 0.2151 0.18267 0.0
H414 H 1.09367 0.64554 0.07728 0.0
H415 H 0.21233 0.5897 0.08679 0.0
H416 H 1.08325 0.61896 0.03449 0.0
H417 H 0.20244 0.56387 0.04391 0.0
H418 H 0.21925 0.60385 0.95994 0.0
H419 H 0.22644 0.62427 0.00324 0.0
H420 H 1.04872 0.52614 0.01095 0.0
H421 H 1.04119 0.503 0.96802 0.0
C422 C 1.11722 0.62735 0.07017 0.0
C423 C 0.1539 0.61977 0.08505 0.0
C424 C 1.11117 0.61208 0.04586 0.0
C425 C 1.1424 0.58989 0.03611 0.0
C426 C 0.1784 0.58142 0.05112 0.0
C427 C 0.18373 0.5958 0.07555 0.0
C428 C 0.18173 0.58572 0.97089 0.0
C429 C 1.12961 0.55149 0.96051 0.0
C430 C 0.18593 0.5977 -0.0044 0.0
C431 C 1.1381 0.57652 0.01019 0.0
C432 C 1.08606 0.54309 -0.00012 0.0
C433 C 1.08187 0.53026 0.97531 0.0
H434 H 0.80222 0.19677 0.40878 0.0
H435 H 0.62697 1.08334 0.41759 0.0
H436 H 0.78766 0.21393 0.36643 0.0
H437 H 0.6126 1.09695 0.37494 0.0
H438 H 0.59038 0.16922 0.30613 0.0
H439 H 0.61056 0.16242 0.34871 0.0
H440 H 0.76597 0.17408 0.32743 0.0
H441 H 0.74629 0.18374 0.28471 0.0
C442 C 0.76066 0.17522 0.40151 0.0
C443 C 0.71563 0.139 0.41629 0.0
C444 C 0.75234 0.18467 0.37725 0.0
C445 C 0.69891 0.15719 0.36728 0.0
C446 C 0.65407 0.12014 0.38216 0.0
C447 C 0.66225 0.11184 0.40653 0.0
C448 C 0.62933 0.17148 0.31075 0.0
C449 C 0.66711 0.17745 0.29246 0.0
C450 C 0.64064 0.16682 0.33505 0.0
C451 C 0.68954 0.16688 0.34152 0.0
C452 C 0.7282 0.17449 0.32312 0.0
C453 C 0.71714 0.18004 0.29872 0.0
H454 H 0.65456 0.50813 0.74624 0.0
H455 H 0.71027 0.68265 0.75079 0.0
H456 H 0.68174 0.52073 0.703 0.0
H457 H 0.73578 0.69461 0.70751 0.0
H458 H 0.67296 0.64296 0.62475 0.0
H459 H 0.65203 0.62606 0.66805 0.0
H460 H 0.79494 0.60649 0.67852 0.0
H461 H 0.81913 0.62757 0.63529 0.0
C462 C 0.67261 0.549 0.73794 0.0
C463 C 0.68005 0.59441 0.75152 0.0
C464 C 0.6883 0.55613 0.71344 0.0
C465 C 0.71054 0.60849 0.70236 0.0
C466 C 0.71871 0.65399 0.71598 0.0
C467 C 0.70416 0.64712 0.74056 0.0
C468 C 0.70081 0.63621 0.63619 0.0
C469 C 0.74878 0.63827 0.62659 0.0
C470 C 0.68821 0.6258 0.66087 0.0
C471 C 0.72227 0.61554 0.67622 0.0
C472 C 0.76843 0.61451 0.66672 0.0
C473 C 0.78191 0.62625 0.64205 0.0
H474 H 0.65942 1.03277 0.56175 0.0
H475 H 0.71253 0.20656 0.56224 0.0
H476 H 0.66269 1.03121 0.60648 0.0
H477 H 0.71519 0.20523 0.60693 0.0
H478 H 0.64017 0.15995 0.68523 0.0
H479 H 0.64514 0.16375 0.641 0.0
H480 H 0.72862 1.06845 0.64213 0.0
H481 H 0.72668 1.06697 0.68654 0.0
C482 C 0.6725 1.07078 0.57147 0.0
C483 C 0.68622 0.11988 0.55855 0.0
C484 C 0.67442 1.06997 0.59709 0.0
C485 C 0.68895 0.11804 0.61044 0.0
C486 C 0.70331 0.16731 0.59735 0.0
C487 C 0.70225 0.16826 0.57174 0.0
C488 C 0.66075 0.14065 0.67631 0.0
C489 C 0.68326 0.11338 0.69004 0.0
C490 C 0.66327 0.14263 0.65073 0.0
C491 C 0.68738 0.11653 0.63784 0.0
C492 C 0.70928 1.08864 0.65137 0.0
C493 C 0.70775 1.08753 0.67701 0.0
H494 H 0.63598 0.54297 0.89472 0.0
H495 H 0.75518 0.71671 0.89965 0.0
H496 H 0.62659 0.53666 0.93938 0.0
H497 H 0.74557 0.71082 0.9437 0.0
H498 H 0.76532 0.67505 0.02237 0.0
H499 H 0.77035 0.67531 -0.02183 0.0
H500 H 0.59383 0.5641 0.97524 0.0
H501 H 0.58909 0.56209 0.01977 0.0
C502 C 0.65999 0.5798 0.90528 0.0
C503 C 0.69671 0.63025 0.89352 0.0
C504 C 0.65448 0.57631 0.93091 0.0
C505 C 0.68585 0.62311 0.94541 0.0
C506 C 0.72159 0.67354 0.93342 0.0
C507 C 0.72684 0.67703 0.90799 0.0
C508 C 0.72753 0.65002 0.01244 0.0
C509 C 0.6768 0.61859 0.02494 0.0
C510 C 0.7303 0.6507 -0.0131 0.0
C511 C 0.68243 0.62008 0.97284 0.0
C512 C 0.63169 0.588 -0.01471 0.0
C513 C 0.6289 0.58739 0.01092 0.0
H514 H 1.09443 0.52638 0.23842 0.0
H515 H 0.23395 0.68971 0.22613 0.0
H516 H 1.1033 0.5398 0.28217 0.0
H517 H 0.24353 0.70329 0.27055 0.0
H518 H 0.27775 0.66654 0.35163 0.0
H519 H 0.26943 0.66503 0.3073 0.0
H520 H 1.0923 0.59292 0.31459 0.0
H521 H 1.10046 0.59549 0.35876 0.0
C522 C 1.12685 0.56555 0.24511 0.0
C523 C 0.16335 0.60701 0.22875 0.0
C524 C 1.1318 0.57335 0.27029 0.0
C525 C 0.17409 0.62265 0.28007 0.0
C526 C 0.21058 0.66466 0.2637 0.0
C527 C 0.20487 0.65716 0.23826 0.0
C528 C 0.23703 0.65115 0.34387 0.0
C529 C 0.18973 0.63063 0.3591 0.0
C530 C 0.23232 0.65034 0.31834 0.0
C531 C 0.18017 0.62858 0.30723 0.0
C532 C 1.13311 0.60919 0.32242 0.0
C533 C 1.1378 0.61038 0.34787 0.0
loop_
_geom_bond_atom_site_label_1
_geom_bond_atom_site_label_2
_geom_bond_distance
_geom_bond_site_symmetry_2
_ccdc_geom_bond_type
C0 Eu1 2.835 . S
C0 C2 1.500 . S
C0 O20 1.257 . S
C0 O21 1.260 . S
Eu1 C0 2.835 . S
Eu1 O20 2.473 . S
Eu1 O21 2.480 . S
Eu1 O22 2.430 1_655 S
Eu1 O23 2.670 1_655 S
Eu1 O24 2.394 . S
Eu1 O29 2.355 1_655 S
Eu1 O31 2.374 1_655 S
C2 C0 1.500 . S
C2 C3 1.377 . S
C2 C7 1.377 . S
C3 C2 1.377 . S
C3 C4 1.395 . S
C3 H32 0.931 . S
C4 C3 1.395 . S
C4 C5 1.383 . S
C4 H33 0.931 . S
C5 C4 1.383 . S
C5 C6 1.394 . S
C6 C5 1.394 . S
C6 C7 1.378 . S
C6 H34 0.931 . S
C7 C2 1.377 . S
C7 C6 1.378 . S
C7 H35 0.931 . S
C8 O22 1.259 . S
C8 O23 1.270 . S
C9 O24 1.251 . S
C9 O25 1.251 . S
C10 Eu11 2.835 . S
C10 C12 1.500 . S
C10 O26 1.257 . S
C10 O27 1.260 . S
Eu11 C10 2.835 . S
Eu11 O23 2.355 . S
Eu11 O25 2.374 1_455 S
Eu11 O26 2.473 . S
Eu11 O27 2.480 . S
Eu11 O28 2.430 . S
Eu11 O29 2.670 . S
Eu11 O30 2.394 . S
C12 C10 1.500 . S
C12 C13 1.377 . S
C12 C17 1.377 . S
C13 C12 1.377 . S
C13 C14 1.395 . S
C13 H36 0.931 . S
C14 C13 1.395 . S
C14 C15 1.383 . S
C14 H37 0.931 . S
C15 C14 1.383 . S
C15 C16 1.394 . S
C16 C15 1.394 . S
C16 C17 1.378 . S
C16 H38 0.931 . S
C17 C12 1.377 . S
C17 C16 1.378 . S
C17 H39 0.931 . S
C18 O28 1.259 . S
C18 O29 1.270 . S
C19 O30 1.251 . S
C19 O31 1.251 . S
O20 C0 1.257 . S
O20 Eu1 2.473 . S
O21 C0 1.260 . S
O21 Eu1 2.480 . S
O22 Eu1 2.430 1_455 S
O22 C8 1.259 . S
O23 Eu1 2.670 1_455 S
O23 C8 1.270 . S
O23 Eu11 2.355 . S
O24 Eu1 2.394 . S
O24 C9 1.251 . S
O25 C9 1.251 . S
O25 Eu11 2.374 1_655 S
O26 C10 1.257 . S
O26 Eu11 2.473 . S
O27 C10 1.260 . S
O27 Eu11 2.480 . S
O28 Eu11 2.430 . S
O28 C18 1.259 . S
O29 Eu1 2.355 1_455 S
O29 Eu11 2.670 . S
O29 C18 1.270 . S
O30 Eu11 2.394 . S
O30 C19 1.251 . S
O31 Eu1 2.374 1_455 S
O31 C19 1.251 . S
H32 C3 0.931 . S
H33 C4 0.931 . S
H34 C6 0.931 . S
H35 C7 0.931 . S
H36 C13 0.931 . S
H37 C14 0.931 . S
H38 C16 0.931 . S
H39 C17 0.931 . S
C40 Eu41 2.835 . S
C40 C42 1.500 . S
C40 O60 1.257 . S
C40 O61 1.260 . S
Eu41 C40 2.835 . S
Eu41 O60 2.473 . S
Eu41 O61 2.480 . S
Eu41 O62 2.430 . S
Eu41 O63 2.670 . S
Eu41 O64 2.394 . S
Eu41 O69 2.355 . S
Eu41 O71 2.374 1_545 S
C42 C40 1.500 . S
C42 C43 1.377 . S
C42 C47 1.377 . S
C43 C42 1.377 . S
C43 C44 1.395 . S
C43 H72 0.931 . S
C44 C43 1.395 . S
C44 C45 1.383 . S
C44 H73 0.931 . S
C45 C44 1.383 . S
C45 C46 1.394 . S
C46 C45 1.394 . S
C46 C47 1.378 . S
C46 H74 0.931 . S
C47 C42 1.377 . S
C47 C46 1.378 . S
C47 H75 0.931 . S
C48 O62 1.259 . S
C48 O63 1.270 . S
C49 O64 1.251 . S
C49 O65 1.251 . S
C50 Eu51 2.835 . S
C50 C52 1.500 . S
C50 O66 1.257 . S
C50 O67 1.260 . S
Eu51 C50 2.835 . S
Eu51 O63 2.355 1_565 S
Eu51 O65 2.374 1_565 S
Eu51 O66 2.473 . S
Eu51 O67 2.480 . S
Eu51 O68 2.430 1_565 S
Eu51 O69 2.670 1_565 S
Eu51 O70 2.394 . S
C52 C50 1.500 . S
C52 C53 1.377 . S
C52 C57 1.377 . S
C53 C52 1.377 . S
C53 C54 1.395 . S
C53 H76 0.931 . S
C54 C53 1.395 . S
C54 C55 1.383 . S
C54 H77 0.931 . S
C55 C54 1.383 . S
C55 C56 1.394 . S
C56 C55 1.394 . S
C56 C57 1.378 . S
C56 H78 0.931 . S
C57 C52 1.377 . S
C57 C56 1.378 . S
C57 H79 0.931 . S
C58 O68 1.259 . S
C58 O69 1.270 . S
C59 O70 1.251 . S
C59 O71 1.251 . S
O60 C40 1.257 . S
O60 Eu41 2.473 . S
O61 C40 1.260 . S
O61 Eu41 2.480 . S
O62 Eu41 2.430 . S
O62 C48 1.259 . S
O63 Eu41 2.670 . S
O63 C48 1.270 . S
O63 Eu51 2.355 1_545 S
O64 Eu41 2.394 . S
O64 C49 1.251 . S
O65 C49 1.251 . S
O65 Eu51 2.374 1_545 S
O66 C50 1.257 . S
O66 Eu51 2.473 . S
O67 C50 1.260 . S
O67 Eu51 2.480 . S
O68 Eu51 2.430 1_545 S
O68 C58 1.259 . S
O69 Eu41 2.355 . S
O69 Eu51 2.670 1_545 S
O69 C58 1.270 . S
O70 Eu51 2.394 . S
O70 C59 1.251 . S
O71 Eu41 2.374 1_565 S
O71 C59 1.251 . S
H72 C43 0.931 . S
H73 C44 0.931 . S
H74 C46 0.931 . S
H75 C47 0.931 . S
H76 C53 0.931 . S
H77 C54 0.931 . S
H78 C56 0.931 . S
H79 C57 0.931 . S
C80 Eu81 2.835 . S
C80 C82 1.500 . S
C80 O100 1.257 . S
C80 O101 1.260 . S
Eu81 C80 2.835 . S
Eu81 O100 2.473 . S
Eu81 O101 2.480 . S
Eu81 O102 2.430 . S
Eu81 O103 2.670 . S
Eu81 O104 2.394 . S
Eu81 O109 2.355 . S
Eu81 O111 2.374 . S
C82 C80 1.500 . S
C82 C83 1.377 . S
C82 C87 1.377 . S
C83 C82 1.377 . S
C83 C84 1.395 . S
C83 H112 0.931 . S
C84 C83 1.395 . S
C84 C85 1.383 . S
C84 H113 0.931 . S
C85 C84 1.383 . S
C85 C86 1.394 . S
C86 C85 1.394 . S
C86 C87 1.378 . S
C86 H114 0.931 . S
C87 C82 1.377 . S
C87 C86 1.378 . S
C87 H115 0.931 . S
C88 O102 1.259 . S
C88 O103 1.270 . S
C89 O104 1.251 . S
C89 O105 1.251 . S
C90 Eu91 2.835 . S
C90 C92 1.500 . S
C90 O106 1.257 . S
C90 O107 1.260 . S
Eu91 C90 2.835 . S
Eu91 O103 2.355 . S
Eu91 O105 2.374 . S
Eu91 O106 2.473 . S
Eu91 O107 2.480 . S
Eu91 O108 2.430 . S
Eu91 O109 2.670 . S
Eu91 O110 2.394 . S
C92 C90 1.500 . S
C92 C93 1.377 . S
C92 C97 1.377 . S
C93 C92 1.377 . S
C93 C94 1.395 . S
C93 H116 0.931 . S
C94 C93 1.395 . S
C94 C95 1.383 . S
C94 H117 0.931 . S
C95 C94 1.383 . S
C95 C96 1.394 . S
C96 C95 1.394 . S
C96 C97 1.378 . S
C96 H118 0.931 . S
C97 C92 1.377 . S
C97 C96 1.378 . S
C97 H119 0.931 . S
C98 O108 1.259 . S
C98 O109 1.270 . S
C99 O110 1.251 . S
C99 O111 1.251 . S
O100 C80 1.257 . S
O100 Eu81 2.473 . S
O101 C80 1.260 . S
O101 Eu81 2.480 . S
O102 Eu81 2.430 . S
O102 C88 1.259 . S
O103 Eu81 2.670 . S
O103 C88 1.270 . S
O103 Eu91 2.355 . S
O104 Eu81 2.394 . S
O104 C89 1.251 . S
O105 C89 1.251 . S
O105 Eu91 2.374 . S
O106 C90 1.257 . S
O106 Eu91 2.473 . S
O107 C90 1.260 . S
O107 Eu91 2.480 . S
O108 Eu91 2.430 . S
O108 C98 1.259 . S
O109 Eu81 2.355 . S
O109 Eu91 2.670 . S
O109 C98 1.270 . S
O110 Eu91 2.394 . S
O110 C99 1.251 . S
O111 Eu81 2.374 . S
O111 C99 1.251 . S
H112 C83 0.931 . S
H113 C84 0.931 . S
H114 C86 0.931 . S
H115 C87 0.931 . S
H116 C93 0.931 . S
H117 C94 0.931 . S
H118 C96 0.931 . S
H119 C97 0.931 . S
H120 C123 0.931 1_565 S
H121 C126 0.928 . S
H122 C128 0.930 . S
C123 H120 0.931 1_545 S
C123 C124 1.413 . S
C123 C125 1.360 . S
C124 C123 1.413 . S
C124 C128 1.429 . S
C125 C123 1.360 . S
C125 C126 1.372 . S
C126 H121 0.928 . S
C126 C125 1.372 . S
C126 C127 1.404 . S
C127 C126 1.404 . S
C127 C128 1.391 . S
C128 H122 0.930 . S
C128 C124 1.429 . S
C128 C127 1.391 . S
H129 C132 0.931 . S
H130 C135 0.928 . S
H131 C137 0.930 . S
C132 H129 0.931 . S
C132 C133 1.413 . S
C132 C134 1.360 . S
C133 C132 1.413 . S
C133 C137 1.429 . S
C134 C132 1.360 . S
C134 C135 1.372 . S
C135 H130 0.928 . S
C135 C134 1.372 . S
C135 C136 1.404 . S
C136 C135 1.404 . S
C136 C137 1.391 . S
C137 H131 0.930 . S
C137 C133 1.429 . S
C137 C136 1.391 . S
H138 C141 0.931 . S
H139 C144 0.928 . S
H140 C146 0.930 . S
C141 H138 0.931 . S
C141 C142 1.413 . S
C141 C143 1.360 1_655 S
C142 C141 1.413 . S
C142 C146 1.429 1_655 S
C143 C141 1.360 1_455 S
C143 C144 1.372 . S
C144 H139 0.928 . S
C144 C143 1.372 . S
C144 C145 1.404 . S
C145 C144 1.404 . S
C145 C146 1.391 . S
C146 H140 0.930 . S
C146 C142 1.429 1_455 S
C146 C145 1.391 . S
H147 C150 0.931 1_655 S
H148 C153 0.928 . S
H149 C155 0.930 . S
C150 H147 0.931 1_455 S
C150 C151 1.413 . S
C150 C152 1.360 . S
C151 C150 1.413 . S
C151 C155 1.429 . S
C152 C150 1.360 . S
C152 C153 1.372 . S
C153 H148 0.928 . S
C153 C152 1.372 . S
C153 C154 1.404 . S
C154 C153 1.404 . S
C154 C155 1.391 . S
C155 H149 0.930 . S
C155 C151 1.429 . S
C155 C154 1.391 . S
H156 C159 0.931 . S
H157 C162 0.928 . S
H158 C164 0.930 . S
C159 H156 0.931 . S
C159 C160 1.413 . S
C159 C161 1.360 . S
C160 C159 1.413 . S
C160 C164 1.429 . S
C161 C159 1.360 . S
C161 C162 1.372 1_545 S
C162 H157 0.928 . S
C162 C161 1.372 1_565 S
C162 C163 1.404 . S
C163 C162 1.404 . S
C163 C164 1.391 1_565 S
C164 H158 0.930 . S
C164 C160 1.429 . S
C164 C163 1.391 1_545 S
H165 C168 0.931 . S
H166 C171 0.928 . S
H167 C173 0.930 . S
C168 H165 0.931 . S
C168 C169 1.413 . S
C168 C170 1.360 . S
C169 C168 1.413 . S
C169 C173 1.429 . S
C170 C168 1.360 . S
C170 C171 1.372 . S
C171 H166 0.928 . S
C171 C170 1.372 . S
C171 C172 1.404 . S
C172 C171 1.404 . S
C172 C173 1.391 . S
C173 H167 0.930 . S
C173 C169 1.429 . S
C173 C172 1.391 . S
H174 C182 0.950 . S
H175 C187 0.950 . S
H176 C184 0.950 . S
H177 C186 0.950 . S
H178 C188 0.950 . S
H179 C190 0.950 . S
H180 C192 0.950 . S
H181 C193 0.950 . S
C182 H174 0.950 . S
C182 C183 1.386 . S
C182 C184 1.391 . S
C183 C182 1.386 . S
C183 C187 1.393 . S
C184 H176 0.950 . S
C184 C182 1.391 . S
C184 C185 1.400 . S
C185 C184 1.400 . S
C185 C186 1.398 . S
C185 C191 1.491 . S
C186 H177 0.950 . S
C186 C185 1.398 . S
C186 C187 1.391 . S
C187 H175 0.950 . S
C187 C183 1.393 . S
C187 C186 1.391 . S
C188 H178 0.950 . S
C188 C189 1.386 . S
C188 C190 1.391 . S
C189 C188 1.386 . S
C189 C193 1.393 . S
C190 H179 0.950 . S
C190 C188 1.391 . S
C190 C191 1.400 . S
C191 C185 1.491 . S
C191 C190 1.400 . S
C191 C192 1.398 . S
C192 H180 0.950 . S
C192 C191 1.398 . S
C192 C193 1.391 . S
C193 H181 0.950 . S
C193 C189 1.393 . S
C193 C192 1.391 . S
H194 C202 0.950 . S
H195 C207 0.950 . S
H196 C204 0.950 . S
H197 C206 0.950 . S
H198 C208 0.950 . S
H199 C210 0.950 . S
H200 C212 0.950 . S
H201 C213 0.950 . S
C202 H194 0.950 . S
C202 C203 1.386 . S
C202 C204 1.391 . S
C203 C202 1.386 . S
C203 C207 1.393 . S
C204 H196 0.950 . S
C204 C202 1.391 . S
C204 C205 1.400 . S
C205 C204 1.400 . S
C205 C206 1.398 . S
C205 C211 1.491 . S
C206 H197 0.950 . S
C206 C205 1.398 . S
C206 C207 1.391 . S
C207 H195 0.950 . S
C207 C203 1.393 . S
C207 C206 1.391 . S
C208 H198 0.950 . S
C208 C209 1.386 . S
C208 C210 1.391 . S
C209 C208 1.386 . S
C209 C213 1.393 . S
C210 H199 0.950 . S
C210 C208 1.391 . S
C210 C211 1.400 . S
C211 C205 1.491 . S
C211 C210 1.400 . S
C211 C212 1.398 . S
C212 H200 0.950 . S
C212 C211 1.398 . S
C212 C213 1.391 . S
C213 H201 0.950 . S
C213 C209 1.393 . S
C213 C212 1.391 . S
H214 C222 0.950 . S
H215 C227 0.950 . S
H216 C224 0.950 . S
H217 C226 0.950 . S
H218 C228 0.950 . S
H219 C230 0.950 . S
H220 C232 0.950 . S
H221 C233 0.950 . S
C222 H214 0.950 . S
C222 C223 1.386 . S
C222 C224 1.391 . S
C223 C222 1.386 . S
C223 C227 1.393 . S
C224 H216 0.950 . S
C224 C222 1.391 . S
C224 C225 1.400 . S
C225 C224 1.400 . S
C225 C226 1.398 . S
C225 C231 1.491 . S
C226 H217 0.950 . S
C226 C225 1.398 . S
C226 C227 1.391 . S
C227 H215 0.950 . S
C227 C223 1.393 . S
C227 C226 1.391 . S
C228 H218 0.950 . S
C228 C229 1.386 . S
C228 C230 1.391 . S
C229 C228 1.386 . S
C229 C233 1.393 . S
C230 H219 0.950 . S
C230 C228 1.391 . S
C230 C231 1.400 . S
C231 C225 1.491 . S
C231 C230 1.400 . S
C231 C232 1.398 . S
C232 H220 0.950 . S
C232 C231 1.398 . S
C232 C233 1.391 . S
C233 H221 0.950 . S
C233 C229 1.393 . S
C233 C232 1.391 . S
H234 C242 0.950 . S
H235 C247 0.950 . S
H236 C244 0.950 . S
H237 C246 0.950 . S
H238 C248 0.950 . S
H239 C250 0.950 . S
H240 C252 0.950 . S
H241 C253 0.950 . S
C242 H234 0.950 . S
C242 C243 1.386 . S
C242 C244 1.391 . S
C243 C242 1.386 . S
C243 C247 1.393 . S
C244 H236 0.950 . S
C244 C242 1.391 . S
C244 C245 1.400 . S
C245 C244 1.400 . S
C245 C246 1.398 . S
C245 C251 1.491 . S
C246 H237 0.950 . S
C246 C245 1.398 . S
C246 C247 1.391 . S
C247 H235 0.950 . S
C247 C243 1.393 . S
C247 C246 1.391 . S
C248 H238 0.950 . S
C248 C249 1.386 . S
C248 C250 1.391 . S
C249 C248 1.386 . S
C249 C253 1.393 . S
C250 H239 0.950 . S
C250 C248 1.391 . S
C250 C251 1.400 . S
C251 C245 1.491 . S
C251 C250 1.400 . S
C251 C252 1.398 . S
C252 H240 0.950 . S
C252 C251 1.398 . S
C252 C253 1.391 . S
C253 H241 0.950 . S
C253 C249 1.393 . S
C253 C252 1.391 . S
H254 C262 0.950 . S
H255 C267 0.950 . S
H256 C264 0.950 . S
H257 C266 0.950 . S
H258 C268 0.950 . S
H259 C270 0.950 . S
H260 C272 0.950 . S
H261 C273 0.950 . S
C262 H254 0.950 . S
C262 C263 1.386 . S
C262 C264 1.391 . S
C263 C262 1.386 . S
C263 C267 1.393 . S
C264 H256 0.950 . S
C264 C262 1.391 . S
C264 C265 1.400 . S
C265 C264 1.400 . S
C265 C266 1.398 . S
C265 C271 1.491 . S
C266 H257 0.950 . S
C266 C265 1.398 . S
C266 C267 1.391 . S
C267 H255 0.950 . S
C267 C263 1.393 . S
C267 C266 1.391 . S
C268 H258 0.950 . S
C268 C269 1.386 . S
C268 C270 1.391 . S
C269 C268 1.386 . S
C269 C273 1.393 . S
C270 H259 0.950 . S
C270 C268 1.391 . S
C270 C271 1.400 . S
C271 C265 1.491 . S
C271 C270 1.400 . S
C271 C272 1.398 . S
C272 H260 0.950 . S
C272 C271 1.398 . S
C272 C273 1.391 . S
C273 H261 0.950 . S
C273 C269 1.393 . S
C273 C272 1.391 . S
H274 C282 0.950 . S
H275 C287 0.950 . S
H276 C284 0.950 . S
H277 C286 0.950 . S
H278 C288 0.950 . S
H279 C290 0.950 . S
H280 C292 0.950 . S
H281 C293 0.950 . S
C282 H274 0.950 . S
C282 C283 1.386 . S
C282 C284 1.391 . S
C283 C282 1.386 . S
C283 C287 1.393 . S
C284 H276 0.950 . S
C284 C282 1.391 . S
C284 C285 1.400 . S
C285 C284 1.400 . S
C285 C286 1.398 . S
C285 C291 1.491 . S
C286 H277 0.950 . S
C286 C285 1.398 . S
C286 C287 1.391 . S
C287 H275 0.950 . S
C287 C283 1.393 . S
C287 C286 1.391 . S
C288 H278 0.950 . S
C288 C289 1.386 . S
C288 C290 1.391 . S
C289 C288 1.386 . S
C289 C293 1.393 . S
C290 H279 0.950 . S
C290 C288 1.391 . S
C290 C291 1.400 . S
C291 C285 1.491 . S
C291 C290 1.400 . S
C291 C292 1.398 . S
C292 H280 0.950 . S
C292 C291 1.398 . S
C292 C293 1.391 . S
C293 H281 0.950 . S
C293 C289 1.393 . S
C293 C292 1.391 . S
H294 C302 0.950 . S
H295 C307 0.950 . S
H296 C304 0.950 . S
H297 C306 0.950 . S
H298 C308 0.950 . S
H299 C310 0.950 . S
H300 C312 0.950 . S
H301 C313 0.950 . S
C302 H294 0.950 . S
C302 C303 1.386 . S
C302 C304 1.391 . S
C303 C302 1.386 . S
C303 C307 1.393 . S
C304 H296 0.950 . S
C304 C302 1.391 . S
C304 C305 1.400 . S
C305 C304 1.400 . S
C305 C306 1.398 . S
C305 C311 1.491 . S
C306 H297 0.950 . S
C306 C305 1.398 . S
C306 C307 1.391 . S
C307 H295 0.950 . S
C307 C303 1.393 . S
C307 C306 1.391 . S
C308 H298 0.950 . S
C308 C309 1.386 . S
C308 C310 1.391 . S
C309 C308 1.386 . S
C309 C313 1.393 . S
C310 H299 0.950 . S
C310 C308 1.391 . S
C310 C311 1.400 . S
C311 C305 1.491 . S
C311 C310 1.400 . S
C311 C312 1.398 . S
C312 H300 0.950 . S
C312 C311 1.398 . S
C312 C313 1.391 . S
C313 H301 0.950 . S
C313 C309 1.393 . S
C313 C312 1.391 . S
H314 C322 0.950 . S
H315 C327 0.950 . S
H316 C324 0.950 . S
H317 C326 0.950 . S
H318 C328 0.950 . S
H319 C330 0.950 . S
H320 C332 0.950 . S
H321 C333 0.950 . S
C322 H314 0.950 . S
C322 C323 1.386 . S
C322 C324 1.391 . S
C323 C322 1.386 . S
C323 C327 1.393 . S
C324 H316 0.950 . S
C324 C322 1.391 . S
C324 C325 1.400 . S
C325 C324 1.400 . S
C325 C326 1.398 . S
C325 C331 1.491 . S
C326 H317 0.950 . S
C326 C325 1.398 . S
C326 C327 1.391 . S
C327 H315 0.950 . S
C327 C323 1.393 . S
C327 C326 1.391 . S
C328 H318 0.950 . S
C328 C329 1.386 . S
C328 C330 1.391 . S
C329 C328 1.386 . S
C329 C333 1.393 . S
C330 H319 0.950 . S
C330 C328 1.391 . S
C330 C331 1.400 . S
C331 C325 1.491 . S
C331 C330 1.400 . S
C331 C332 1.398 . S
C332 H320 0.950 . S
C332 C331 1.398 . S
C332 C333 1.391 . S
C333 H321 0.950 . S
C333 C329 1.393 . S
C333 C332 1.391 . S
H334 C342 0.950 . S
H335 C347 0.950 . S
H336 C344 0.950 . S
H337 C346 0.950 . S
H338 C348 0.950 . S
H339 C350 0.950 . S
H340 C352 0.950 . S
H341 C353 0.950 1_545 S
C342 H334 0.950 . S
C342 C343 1.386 . S
C342 C344 1.391 . S
C343 C342 1.386 . S
C343 C347 1.393 . S
C344 H336 0.950 . S
C344 C342 1.391 . S
C344 C345 1.400 . S
C345 C344 1.400 . S
C345 C346 1.398 . S
C345 C351 1.491 . S
C346 H337 0.950 . S
C346 C345 1.398 . S
C346 C347 1.391 . S
C347 H335 0.950 . S
C347 C343 1.393 . S
C347 C346 1.391 . S
C348 H338 0.950 . S
C348 C349 1.386 1_565 S
C348 C350 1.391 . S
C349 C348 1.386 1_545 S
C349 C353 1.393 1_545 S
C350 H339 0.950 . S
C350 C348 1.391 . S
C350 C351 1.400 . S
C351 C345 1.491 . S
C351 C350 1.400 . S
C351 C352 1.398 . S
C352 H340 0.950 . S
C352 C351 1.398 . S
C352 C353 1.391 . S
C353 H341 0.950 1_565 S
C353 C349 1.393 1_565 S
C353 C352 1.391 . S
H354 C362 0.950 . S
H355 C367 0.950 . S
H356 C364 0.950 . S
H357 C366 0.950 . S
H358 C368 0.950 . S
H359 C370 0.950 . S
H360 C372 0.950 . S
H361 C373 0.950 . S
C362 H354 0.950 . S
C362 C363 1.386 . S
C362 C364 1.391 . S
C363 C362 1.386 . S
C363 C367 1.393 . S
C364 H356 0.950 . S
C364 C362 1.391 . S
C364 C365 1.400 . S
C365 C364 1.400 . S
C365 C366 1.398 . S
C365 C371 1.491 . S
C366 H357 0.950 . S
C366 C365 1.398 . S
C366 C367 1.391 . S
C367 H355 0.950 . S
C367 C363 1.393 . S
C367 C366 1.391 . S
C368 H358 0.950 . S
C368 C369 1.386 . S
C368 C370 1.391 . S
C369 C368 1.386 . S
C369 C373 1.393 . S
C370 H359 0.950 . S
C370 C368 1.391 . S
C370 C371 1.400 . S
C371 C365 1.491 . S
C371 C370 1.400 . S
C371 C372 1.398 . S
C372 H360 0.950 . S
C372 C371 1.398 . S
C372 C373 1.391 . S
C373 H361 0.950 . S
C373 C369 1.393 . S
C373 C372 1.391 . S
H374 C382 0.950 . S
H375 C387 0.950 . S
H376 C384 0.950 . S
H377 C386 0.950 . S
H378 C388 0.950 . S
H379 C390 0.950 . S
H380 C392 0.950 . S
H381 C393 0.950 . S
C382 H374 0.950 . S
C382 C383 1.386 . S
C382 C384 1.391 . S
C383 C382 1.386 . S
C383 C387 1.393 . S
C384 H376 0.950 . S
C384 C382 1.391 . S
C384 C385 1.400 . S
C385 C384 1.400 . S
C385 C386 1.398 . S
C385 C391 1.491 . S
C386 H377 0.950 . S
C386 C385 1.398 . S
C386 C387 1.391 . S
C387 H375 0.950 . S
C387 C383 1.393 . S
C387 C386 1.391 . S
C388 H378 0.950 . S
C388 C389 1.386 . S
C388 C390 1.391 . S
C389 C388 1.386 . S
C389 C393 1.393 . S
C390 H379 0.950 . S
C390 C388 1.391 . S
C390 C391 1.400 . S
C391 C385 1.491 . S
C391 C390 1.400 . S
C391 C392 1.398 . S
C392 H380 0.950 . S
C392 C391 1.398 . S
C392 C393 1.391 . S
C393 H381 0.950 . S
C393 C389 1.393 . S
C393 C392 1.391 . S
H394 C402 0.950 . S
H395 C407 0.950 . S
H396 C404 0.950 . S
H397 C406 0.950 . S
H398 C408 0.950 . S
H399 C410 0.950 . S
H400 C412 0.950 . S
H401 C413 0.950 . S
C402 H394 0.950 . S
C402 C403 1.386 . S
C402 C404 1.391 . S
C403 C402 1.386 . S
C403 C407 1.393 . S
C404 H396 0.950 . S
C404 C402 1.391 . S
C404 C405 1.400 . S
C405 C404 1.400 . S
C405 C406 1.398 . S
C405 C411 1.491 . S
C406 H397 0.950 . S
C406 C405 1.398 . S
C406 C407 1.391 . S
C407 H395 0.950 . S
C407 C403 1.393 . S
C407 C406 1.391 . S
C408 H398 0.950 . S
C408 C409 1.386 . S
C408 C410 1.391 . S
C409 C408 1.386 . S
C409 C413 1.393 . S
C410 H399 0.950 . S
C410 C408 1.391 . S
C410 C411 1.400 . S
C411 C405 1.491 . S
C411 C410 1.400 . S
C411 C412 1.398 . S
C412 H400 0.950 . S
C412 C411 1.398 . S
C412 C413 1.391 . S
C413 H401 0.950 . S
C413 C409 1.393 . S
C413 C412 1.391 . S
H414 C422 0.950 . S
H415 C427 0.950 . S
H416 C424 0.950 . S
H417 C426 0.950 . S
H418 C428 0.950 . S
H419 C430 0.950 . S
H420 C432 0.950 . S
H421 C433 0.950 . S
C422 H414 0.950 . S
C422 C423 1.386 1_655 S
C422 C424 1.391 . S
C423 C422 1.386 1_455 S
C423 C427 1.393 . S
C424 H416 0.950 . S
C424 C422 1.391 . S
C424 C425 1.400 1_655 S
C425 C424 1.400 1_455 S
C425 C426 1.398 . S
C425 C431 1.491 . S
C426 H417 0.950 . S
C426 C425 1.398 . S
C426 C427 1.391 . S
C427 H415 0.950 . S
C427 C423 1.393 . S
C427 C426 1.391 . S
C428 H418 0.950 . S
C428 C429 1.386 . S
C428 C430 1.391 1_556 S
C429 C428 1.386 . S
C429 C433 1.393 1_455 S
C430 H419 0.950 . S
C430 C428 1.391 1_554 S
C430 C431 1.400 . S
C431 C425 1.491 . S
C431 C430 1.400 . S
C431 C432 1.398 1_455 S
C432 H420 0.950 . S
C432 C431 1.398 1_655 S
C432 C433 1.391 1_554 S
C433 H421 0.950 . S
C433 C429 1.393 1_655 S
C433 C432 1.391 1_556 S
H434 C442 0.950 . S
H435 C447 0.950 1_565 S
H436 C444 0.950 . S
H437 C446 0.950 1_565 S
H438 C448 0.950 . S
H439 C450 0.950 . S
H440 C452 0.950 . S
H441 C453 0.950 . S
C442 H434 0.950 . S
C442 C443 1.386 . S
C442 C444 1.391 . S
C443 C442 1.386 . S
C443 C447 1.393 . S
C444 H436 0.950 . S
C444 C442 1.391 . S
C444 C445 1.400 . S
C445 C444 1.400 . S
C445 C446 1.398 . S
C445 C451 1.491 . S
C446 H437 0.950 1_545 S
C446 C445 1.398 . S
C446 C447 1.391 . S
C447 H435 0.950 1_545 S
C447 C443 1.393 . S
C447 C446 1.391 . S
C448 H438 0.950 . S
C448 C449 1.386 . S
C448 C450 1.391 . S
C449 C448 1.386 . S
C449 C453 1.393 . S
C450 H439 0.950 . S
C450 C448 1.391 . S
C450 C451 1.400 . S
C451 C445 1.491 . S
C451 C450 1.400 . S
C451 C452 1.398 . S
C452 H440 0.950 . S
C452 C451 1.398 . S
C452 C453 1.391 . S
C453 H441 0.950 . S
C453 C449 1.393 . S
C453 C452 1.391 . S
H454 C462 0.950 . S
H455 C467 0.950 . S
H456 C464 0.950 . S
H457 C466 0.950 . S
H458 C468 0.950 . S
H459 C470 0.950 . S
H460 C472 0.950 . S
H461 C473 0.950 . S
C462 H454 0.950 . S
C462 C463 1.386 . S
C462 C464 1.391 . S
C463 C462 1.386 . S
C463 C467 1.393 . S
C464 H456 0.950 . S
C464 C462 1.391 . S
C464 C465 1.400 . S
C465 C464 1.400 . S
C465 C466 1.398 . S
C465 C471 1.491 . S
C466 H457 0.950 . S
C466 C465 1.398 . S
C466 C467 1.391 . S
C467 H455 0.950 . S
C467 C463 1.393 . S
C467 C466 1.391 . S
C468 H458 0.950 . S
C468 C469 1.386 . S
C468 C470 1.391 . S
C469 C468 1.386 . S
C469 C473 1.393 . S
C470 H459 0.950 . S
C470 C468 1.391 . S
C470 C471 1.400 . S
C471 C465 1.491 . S
C471 C470 1.400 . S
C471 C472 1.398 . S
C472 H460 0.950 . S
C472 C471 1.398 . S
C472 C473 1.391 . S
C473 H461 0.950 . S
C473 C469 1.393 . S
C473 C472 1.391 . S
H474 C482 0.950 . S
H475 C487 0.950 . S
H476 C484 0.950 . S
H477 C486 0.950 . S
H478 C488 0.950 . S
H479 C490 0.950 . S
H480 C492 0.950 . S
H481 C493 0.950 . S
C482 H474 0.950 . S
C482 C483 1.386 1_565 S
C482 C484 1.391 . S
C483 C482 1.386 1_545 S
C483 C487 1.393 . S
C484 H476 0.950 . S
C484 C482 1.391 . S
C484 C485 1.400 1_565 S
C485 C484 1.400 1_545 S
C485 C486 1.398 . S
C485 C491 1.491 . S
C486 H477 0.950 . S
C486 C485 1.398 . S
C486 C487 1.391 . S
C487 H475 0.950 . S
C487 C483 1.393 . S
C487 C486 1.391 . S
C488 H478 0.950 . S
C488 C489 1.386 . S
C488 C490 1.391 . S
C489 C488 1.386 . S
C489 C493 1.393 1_545 S
C490 H479 0.950 . S
C490 C488 1.391 . S
C490 C491 1.400 . S
C491 C485 1.491 . S
C491 C490 1.400 . S
C491 C492 1.398 1_545 S
C492 H480 0.950 . S
C492 C491 1.398 1_565 S
C492 C493 1.391 . S
C493 H481 0.950 . S
C493 C489 1.393 1_565 S
C493 C492 1.391 . S
H494 C502 0.950 . S
H495 C507 0.950 . S
H496 C504 0.950 . S
H497 C506 0.950 . S
H498 C508 0.950 . S
H499 C510 0.950 1_556 S
H500 C512 0.950 1_556 S
H501 C513 0.950 . S
C502 H494 0.950 . S
C502 C503 1.386 . S
C502 C504 1.391 . S
C503 C502 1.386 . S
C503 C507 1.393 . S
C504 H496 0.950 . S
C504 C502 1.391 . S
C504 C505 1.400 . S
C505 C504 1.400 . S
C505 C506 1.398 . S
C505 C511 1.491 . S
C506 H497 0.950 . S
C506 C505 1.398 . S
C506 C507 1.391 . S
C507 H495 0.950 . S
C507 C503 1.393 . S
C507 C506 1.391 . S
C508 H498 0.950 . S
C508 C509 1.386 . S
C508 C510 1.391 . S
C509 C508 1.386 . S
C509 C513 1.393 . S
C510 H499 0.950 1_554 S
C510 C508 1.391 . S
C510 C511 1.400 1_554 S
C511 C505 1.491 . S
C511 C510 1.400 1_556 S
C511 C512 1.398 1_556 S
C512 H500 0.950 1_554 S
C512 C511 1.398 1_554 S
C512 C513 1.391 . S
C513 H501 0.950 . S
C513 C509 1.393 . S
C513 C512 1.391 . S
H514 C522 0.950 . S
H515 C527 0.950 . S
H516 C524 0.950 . S
H517 C526 0.950 . S
H518 C528 0.950 . S
H519 C530 0.950 . S
H520 C532 0.950 1_655 S
H521 C533 0.950 1_655 S
C522 H514 0.950 . S
C522 C523 1.386 1_655 S
C522 C524 1.391 . S
C523 C522 1.386 1_455 S
C523 C527 1.393 . S
C524 H516 0.950 . S
C524 C522 1.391 . S
C524 C525 1.400 1_655 S
C525 C524 1.400 1_455 S
C525 C526 1.398 . S
C525 C531 1.491 . S
C526 H517 0.950 . S
C526 C525 1.398 . S
C526 C527 1.391 . S
C527 H515 0.950 . S
C527 C523 1.393 . S
C527 C526 1.391 . S
C528 H518 0.950 . S
C528 C529 1.386 . S
C528 C530 1.391 . S
C529 C528 1.386 . S
C529 C533 1.393 . S
C530 H519 0.950 . S
C530 C528 1.391 . S
C530 C531 1.400 . S
C531 C525 1.491 . S
C531 C530 1.400 . S
C531 C532 1.398 . S
C532 H520 0.950 1_455 S
C532 C531 1.398 . S
C532 C533 1.391 . S
C533 H521 0.950 1_455 S
C533 C529 1.393 . S
C533 C532 1.391 . S
C183 C19 2.871 . S
C189 C169 2.882 . S
C203 C49 2.978 . S
C209 C151 2.954 1_655 S
C223 C99 2.854 . S
C229 C163 2.864 . S
C243 C9 2.964 . S
C249 C172 2.931 . S
C269 C154 2.860 . S
C263 C59 2.860 . S
C289 C160 2.945 . S
C283 C89 2.977 . S
C303 C55 0.540 . S
C309 C133 0.473 . S
C323 C85 0.564 . S
C329 C142 0.507 . S
C343 C15 0.484 . S
C349 C124 0.467 . S
C369 C136 0.480 . S
C363 C45 0.560 . S
C389 C145 0.463 . S
C383 C95 0.476 . S
C403 C5 0.557 . S
C409 C127 0.491 . S
C429 C143 1.017 . S
C423 C18 0.981 . S
C443 C58 0.984 . S
C449 C125 1.016 . S
C463 C98 0.982 . S
C469 C134 1.018 . S
C489 C161 1.816 . S
C483 C48 1.734 . S
C509 C170 1.817 . S
C503 C88 1.727 . S
C523 C8 1.714 . S
C529 C152 1.817 . S
