# Generated by pormake.
# Topology zzz, (3,6)-cn, num edge types: 1
# Building blocks:
#     Node 0, Type 0, BuildingBlock: ESEHIV_clean_linker_0, # of connection points: 3
#     Node 1, Type 0, BuildingBlock: ESEHIV_clean_linker_0, # of connection points: 3
#     Node 2, Type 0, BuildingBlock: ESEHIV_clean_linker_0, # of connection points: 3
#     Node 3, Type 0, BuildingBlock: ESEHIV_clean_linker_0, # of connection points: 3
#     Node 4, Type 0, BuildingBlock: ESEHIV_clean_linker_0, # of connection points: 3
#     Node 5, Type 0, BuildingBlock: ESEHIV_clean_linker_0, # of connection points: 3
#     Node 6, Type 0, BuildingBlock: ESEHIV_clean_linker_0, # of connection points: 3
#     Node 7, Type 0, BuildingBlock: ESEHIV_clean_linker_0, # of connection points: 3
#     Node 8, Type 1, BuildingBlock: LEVNOQ01_clean_sbu_1, # of connection points: 6
#     Node 9, Type 1, BuildingBlock: LEVNOQ01_clean_sbu_1, # of connection points: 6
#     Node 10, Type 1, BuildingBlock: LEVNOQ01_clean_sbu_1, # of connection points: 6
#     Node 11, Type 1, BuildingBlock: LEVNOQ01_clean_sbu_1, # of connection points: 6
#     Edge 12, Type (0, 1), BuildingBlock: AJUNOK_clean_linker_0, # of connection points: 2
#     Edge 13, Type (0, 1), BuildingBlock: AJUNOK_clean_linker_0, # of connection points: 2
#     Edge 14, Type (0, 1), BuildingBlock: AJUNOK_clean_linker_0, # of connection points: 2
#     Edge 15, Type (0, 1), BuildingBlock: AJUNOK_clean_linker_0, # of connection points: 2
#     Edge 16, Type (0, 1), BuildingBlock: AJUNOK_clean_linker_0, # of connection points: 2
#     Edge 17, Type (0, 1), BuildingBlock: AJUNOK_clean_linker_0, # of connection points: 2
#     Edge 18, Type (0, 1), BuildingBlock: AJUNOK_clean_linker_0, # of connection points: 2
#     Edge 19, Type (0, 1), BuildingBlock: AJUNOK_clean_linker_0, # of connection points: 2
#     Edge 20, Type (0, 1), BuildingBlock: AJUNOK_clean_linker_0, # of connection points: 2
#     Edge 21, Type (0, 1), BuildingBlock: AJUNOK_clean_linker_0, # of connection points: 2
#     Edge 22, Type (0, 1), BuildingBlock: AJUNOK_clean_linker_0, # of connection points: 2
#     Edge 23, Type (0, 1), BuildingBlock: AJUNOK_clean_linker_0, # of connection points: 2
#     Edge 24, Type (0, 1), BuildingBlock: AJUNOK_clean_linker_0, # of connection points: 2
#     Edge 25, Type (0, 1), BuildingBlock: AJUNOK_clean_linker_0, # of connection points: 2
#     Edge 26, Type (0, 1), BuildingBlock: AJUNOK_clean_linker_0, # of connection points: 2
#     Edge 27, Type (0, 1), BuildingBlock: AJUNOK_clean_linker_0, # of connection points: 2
#     Edge 28, Type (0, 1), BuildingBlock: AJUNOK_clean_linker_0, # of connection points: 2
#     Edge 29, Type (0, 1), BuildingBlock: AJUNOK_clean_linker_0, # of connection points: 2
#     Edge 30, Type (0, 1), BuildingBlock: AJUNOK_clean_linker_0, # of connection points: 2
#     Edge 31, Type (0, 1), BuildingBlock: AJUNOK_clean_linker_0, # of connection points: 2
#     Edge 32, Type (0, 1), BuildingBlock: AJUNOK_clean_linker_0, # of connection points: 2
#     Edge 33, Type (0, 1), BuildingBlock: AJUNOK_clean_linker_0, # of connection points: 2
#     Edge 34, Type (0, 1), BuildingBlock: AJUNOK_clean_linker_0, # of connection points: 2
#     Edge 35, Type (0, 1), BuildingBlock: AJUNOK_clean_linker_0, # of connection points: 2
# Relax obj value: 0.309
# Max RMSD: 0.220
# Mean RMSD: 0.206
data_MOF--net-zzz--node1-LEVNOQ01_clean_sbu_1--node2-ESEHIV_clean_linker_0--edge1-AJUNOK_clean_linker_0
_symmetry_space_group_name_H-M    P1
_symmetry_Int_Tables_number       1
_symmetry_cell_setting            triclinic
loop_
_symmetry_equiv_pos_as_xyz
'x, y, z'
_cell_length_a     30.122951
_cell_length_b     31.612377
_cell_length_c     11.737974
_cell_angle_alpha  90.232396
_cell_angle_beta   90.039167
_cell_angle_gamma 88.590449
loop_
_atom_site_label
_atom_site_type_symbol
_atom_site_fract_x
_atom_site_fract_y
_atom_site_fract_z
_atom_type_partial_charge
H0 H 0.84298 0.6643 0.22252 0.0
H1 H 0.75208 0.63379 0.96637 0.0
H2 H 0.72062 0.60436 0.31128 0.0
C3 C 0.80906 0.65626 0.20406 0.0
C4 C 0.78332 0.63646 0.28733 0.0
C5 C 0.80156 0.6457 0.09109 0.0
C6 C 0.75814 0.63911 0.05649 0.0
C7 C 0.7277 0.62406 0.13595 0.0
C8 C 0.74081 0.62178 0.25237 0.0
H9 H 0.02569 0.83297 0.31584 0.0
H10 H 0.01841 0.77174 0.99429 0.0
H11 H 0.94243 0.72472 0.27843 0.0
C12 C 0.01341 0.80685 0.26512 0.0
C13 C 0.9816 0.78069 0.31069 0.0
C14 C 0.02263 0.80611 0.15006 0.0
C15 C 0.00881 0.77247 0.08322 0.0
C16 C 0.98211 0.74072 0.12935 0.0
C17 C 0.9663 0.74617 0.24374 0.0
H18 H 0.66641 0.90498 0.14988 0.0
H19 H 0.78278 0.89924 0.94991 0.0
H20 H 0.79421 0.91223 0.31325 0.0
C21 C 0.70213 0.9004 0.14851 0.0
C22 C 0.7263 0.90535 0.24955 0.0
C23 C 0.72277 0.90167 0.04238 0.0
C24 C 0.76839 0.89682 0.03436 0.0
C25 C 0.7949 0.9026 0.131 0.0
C26 C 0.77372 0.90634 0.23964 0.0
H27 H 0.52993 0.66453 0.23449 0.0
H28 H 0.52042 0.79839 0.30965 0.0
H29 H 0.47281 0.74814 0.99101 0.0
C30 C 0.52176 0.69678 0.2094 0.0
C31 C 0.4971 0.70303 0.11117 0.0
C32 C 0.52883 0.73023 0.28514 0.0
C33 C 0.517 0.77228 0.25061 0.0
C34 C 0.49848 0.77933 0.14021 0.0
C35 C 0.48903 0.74394 0.0726 0.0
H36 H 0.15424 0.37818 0.25144 0.0
H37 H 0.26389 0.38661 0.47439 0.0
H38 H 0.2792 0.41723 0.12074 0.0
C39 C 0.19002 0.37987 0.26172 0.0
C40 C 0.21448 0.39582 0.17108 0.0
C41 C 0.20658 0.38496 0.37155 0.0
C42 C 0.25236 0.38382 0.38724 0.0
C43 C 0.28049 0.39493 0.29678 0.0
C44 C 0.26048 0.40261 0.18798 0.0
H45 H 0.07762 0.17794 0.21086 0.0
H46 H 0.04483 0.26056 0.48184 0.0
H47 H 0.00767 0.2955 0.14028 0.0
C48 C 0.06736 0.20974 0.23664 0.0
C49 C 0.04716 0.23694 0.15701 0.0
C50 C 0.05815 0.21557 0.35101 0.0
C51 C 0.04802 0.25595 0.39044 0.0
C52 C 0.02908 0.28582 0.31579 0.0
C53 C 0.02707 0.27561 0.1975 0.0
H54 H 0.33199 0.16508 0.22347 0.0
H55 H 0.23738 0.13089 0.46999 0.0
H56 H 0.238 0.06942 0.14461 0.0
C57 C 0.30287 0.14765 0.24665 0.0
C58 C 0.28708 0.1179 0.16869 0.0
C59 C 0.29473 0.13975 0.36214 0.0
C60 C 0.25082 0.12787 0.38499 0.0
C61 C 0.22908 0.10172 0.30653 0.0
C62 C 0.24908 0.09488 0.19893 0.0
H63 H 0.52075 0.34238 0.19197 0.0
H64 H 0.46107 0.22249 0.12103 0.0
H65 H 0.54266 0.23918 0.42004 0.0
C66 C 0.51679 0.3092 0.21252 0.0
C67 C 0.53476 0.29354 0.31296 0.0
C68 C 0.49116 0.28393 0.14128 0.0
C69 C 0.48212 0.24192 0.17336 0.0
C70 C 0.50081 0.22587 0.27557 0.0
C71 C 0.52854 0.25136 0.34121 0.0
O72 O 0.09371 0.96919 0.87614 0.0
Mg73 Mg 0.07158 0.96048 0.70948 0.0
O74 O 0.02154 0.9686 0.87327 0.0
Mg75 Mg 1.00131 0.0075 0.715 0.0
O76 O 0.07176 0.01343 0.60932 0.0
O77 O 0.12385 0.96153 0.60485 0.0
O78 O 0.98255 0.04564 0.56053 0.0
O79 O 0.01529 0.0734 0.82048 0.0
Mg80 Mg 0.91295 0.063 0.74522 0.0
O81 O 0.9327 0.0044 0.80255 0.0
O82 O 0.92128 0.08444 0.57532 0.0
O83 O 0.94845 0.10389 0.84612 0.0
O84 O 0.86426 0.03098 0.8294 0.0
C85 C 0.9994 0.9072 0.62307 0.0
C86 C 0.0579 0.96023 0.92417 0.0
C87 C 0.10964 0.99798 0.57025 0.0
C88 C 0.95851 0.0767 0.52856 0.0
C89 C 0.99015 0.10389 0.86048 0.0
C90 C 0.89423 1.0023 0.85251 0.0
O91 O 0.03713 0.90413 0.66986 0.0
O92 O 0.98083 0.94398 0.61562 0.0
O93 O 0.40067 0.01812 0.81704 0.0
Mg94 Mg 0.43408 0.97405 0.71507 0.0
O95 O 0.46272 0.05093 0.85537 0.0
Mg96 Mg 0.50889 0.01471 0.71887 0.0
O97 O 0.48768 0.94765 0.80184 0.0
O98 O 0.42077 0.91829 0.78543 0.0
O99 O 0.56283 0.98069 0.58914 0.0
O100 O 0.56314 0.00446 0.84158 0.0
Mg101 Mg 0.59569 0.0756 0.71258 0.0
O102 O 0.53246 0.0776 0.65593 0.0
O103 O 0.6197 0.02413 0.61346 0.0
O104 O 0.60172 0.05973 0.88662 0.0
O105 O 0.57618 0.13148 0.62926 0.0
C106 C 0.42488 0.01656 0.525 0.0
C107 C 0.42096 0.0464 0.87023 0.0
C108 C 0.45973 0.91845 0.83106 0.0
C109 C 0.60407 0.99025 0.57255 0.0
C110 C 0.59471 0.02049 0.89605 0.0
C111 C 0.5395 0.11309 0.60612 0.0
O112 O 0.41364 0.97898 0.54336 0.0
O113 O 0.4559 0.03157 0.58415 0.0
O114 O 0.49988 0.45332 0.97182 0.0
Mg115 Mg 0.54875 0.46995 0.85117 0.0
O116 O 0.48018 0.44194 0.79783 0.0
Mg117 Mg 0.50447 0.50704 0.71235 0.0
O118 O 0.56841 0.52995 0.83311 0.0
O119 O 0.60284 0.48023 0.94149 0.0
O120 O 0.52257 0.57152 0.61587 0.0
O121 O 0.46745 0.54491 0.8477 0.0
Mg122 Mg 0.42506 0.54669 0.65917 0.0
O123 O 0.44285 0.48866 0.5877 0.0
O124 O 0.45581 0.60042 0.59619 0.0
O125 O 0.3966 0.55429 0.82236 0.0
O126 O 0.38093 0.52727 0.54565 0.0
C127 C 0.56236 0.43189 0.61904 0.0
C128 C 0.4784 0.43139 0.90231 0.0
C129 C 0.59954 0.51868 0.90614 0.0
C130 C 0.49744 0.6031 0.58713 0.0
C131 C 0.43036 0.55887 0.88407 0.0
C132 C 0.40535 0.49361 0.53154 0.0
O133 O 0.56613 0.42464 0.72452 0.0
O134 O 0.54578 0.46708 0.58555 0.0
O135 O 0.90827 0.47907 0.9116 0.0
Mg136 Mg 0.91885 0.46485 0.73614 0.0
O137 O 0.95152 0.52773 0.84956 0.0
Mg138 Mg 0.99997 0.51289 0.71491 0.0
O139 O 0.97621 0.44573 0.65304 0.0
O140 O 0.91736 0.40465 0.67721 0.0
O141 O 0.05196 0.5009 0.5834 0.0
O142 O 0.05338 0.48037 0.84245 0.0
Mg143 Mg 0.08801 0.57141 0.73116 0.0
O144 O 0.02266 0.5782 0.77183 0.0
O145 O 0.09957 0.55175 0.56041 0.0
O146 O 0.11117 0.52381 0.84482 0.0
O147 O 0.06842 0.63101 0.79525 0.0
C148 C 0.90533 0.53911 0.57621 0.0
C149 C 0.92194 0.51649 0.91736 0.0
C150 C 0.95569 0.41061 0.63147 0.0
C151 C 0.08615 0.51507 0.53571 0.0
C152 C 0.09288 0.48982 0.87522 0.0
C153 C 0.02969 0.61571 0.81176 0.0
O154 O 0.88725 0.5093 0.62969 0.0
O155 O 0.94714 0.54593 0.58771 0.0
C156 C 0.15103 0.08164 0.36079 0.0
C157 C 0.19674 0.07165 0.35378 0.0
C158 C 0.1223 0.05651 0.42572 0.0
C159 C 0.13867 0.02203 0.49069 0.0
H160 H 0.13764 0.1095 0.31823 0.0
H161 H 0.08727 0.06463 0.42674 0.0
S162 S 0.25563 0.98084 0.48958 0.0
N163 N 0.25623 0.02265 0.40608 0.0
N164 N 0.20383 0.97743 0.53336 0.0
C165 C 0.18422 0.01093 0.47914 0.0
C166 C 0.21283 0.03544 0.41025 0.0
C167 C 0.46654 0.18262 0.42453 0.0
C168 C 0.49212 0.1837 0.32377 0.0
C169 C 0.47806 0.15496 0.51412 0.0
C170 C 0.51477 0.12705 0.50392 0.0
H171 H 0.44188 0.20742 0.44095 0.0
H172 H 0.46143 0.1588 0.59543 0.0
S173 S 0.58551 0.11084 0.24857 0.0
N174 N 0.55042 0.14947 0.21251 0.0
N175 N 0.57138 0.0968 0.37878 0.0
C176 C 0.536 0.12345 0.39754 0.0
C177 C 0.52452 0.15174 0.30721 0.0
C178 C 0.33715 0.45192 0.29042 0.0
C179 C 0.32502 0.41184 0.32985 0.0
C180 C 0.36804 0.47614 0.34973 0.0
C181 C 0.38812 0.46158 0.45113 0.0
H182 H 0.31942 0.46689 0.22062 0.0
H183 H 0.37306 0.50827 0.32172 0.0
S184 S 0.37421 0.35605 0.57968 0.0
N185 N 0.34218 0.35558 0.46556 0.0
N186 N 0.39794 0.40263 0.58086 0.0
C187 C 0.38039 0.41988 0.48455 0.0
C188 C 0.34954 0.39465 0.42263 0.0
C189 C 0.0175 0.36237 0.37386 0.0
C190 C 1.00264 0.32053 0.37216 0.0
C191 C 1.00142 0.39179 0.45601 0.0
C192 C 0.97217 0.37972 0.54342 0.0
H193 H 0.04288 0.37192 0.3146 0.0
H194 H 0.01199 0.42416 0.45119 0.0
S195 S 0.92042 0.27468 0.56899 0.0
N196 N 0.95264 0.27021 0.45584 0.0
N197 N 0.92643 0.32346 0.61594 0.0
C198 C 0.95562 0.3385 0.53854 0.0
C199 C 0.96991 0.30954 0.45176 0.0
C200 C 0.84331 0.96432 0.12566 0.0
C201 C 0.83927 0.92072 0.10524 0.0
C202 C 0.86534 0.99007 0.04775 0.0
C203 C 0.88552 0.97312 0.94872 0.0
H204 H 0.82359 0.97972 0.19172 0.0
H205 H 0.86302 0.02406 0.05989 0.0
S206 S 0.89785 0.85941 0.87748 0.0
N207 N 0.86722 0.8605 0.99442 0.0
N208 N 0.90949 0.90914 0.84972 0.0
C209 C 0.88888 0.92899 0.93858 0.0
C210 C 0.86607 0.90264 0.01765 0.0
C211 C 0.44518 0.82434 0.02715 0.0
C212 C 0.4849 0.82152 0.09082 0.0
C213 C 0.43831 0.85524 0.94381 0.0
C214 C 0.46935 0.88699 0.92416 0.0
H215 H 0.42042 0.80023 0.03532 0.0
H216 H 0.40841 0.85343 0.8929 0.0
S217 S 0.5675 0.90594 0.10782 0.0
N218 N 0.54968 0.85972 0.15108 0.0
N219 N 0.53356 0.92167 0.00465 0.0
C220 C 0.50539 0.88894 0.00117 0.0
C221 C 0.51366 0.85569 0.0828 0.0
C222 C 0.64916 0.61187 0.06672 0.0
C223 C 0.69281 0.59666 0.08747 0.0
C224 C 0.619 0.5879 0.00184 0.0
C225 C 0.63208 0.54851 0.954 0.0
H226 H 0.63848 0.64249 0.09984 0.0
H227 H 0.58516 0.59967 0.99164 0.0
S228 S 0.74414 0.49751 0.97248 0.0
N229 N 0.74786 0.54112 0.04911 0.0
N230 N 0.69257 0.49739 0.92503 0.0
C231 C 0.67606 0.53406 0.9712 0.0
C232 C 0.70601 0.55771 0.03848 0.0
C233 C 0.96784 0.70938 0.93557 0.0
C234 C 0.97381 0.70296 0.054 0.0
C235 C 0.98166 0.67872 0.85519 0.0
C236 C 0.99871 0.63909 0.88935 0.0
H237 H 0.95755 0.74028 0.90415 0.0
H238 H 0.98208 0.68728 0.76588 0.0
S239 S 0.00803 0.60111 0.18714 0.0
N240 N 0.98988 0.65065 0.20021 0.0
N241 N 0.01229 0.59183 0.04881 0.0
C242 C 0.99783 0.62966 0.00654 0.0
C243 C 0.98557 0.66164 0.08898 0.0
C244 C 0.98942 0.17388 0.3613 0.0
C245 C 0.0327 0.18158 0.40188 0.0
C246 C 0.96505 0.13996 0.40206 0.0
C247 C 0.98352 0.11264 0.48371 0.0
H248 H 0.97459 0.19407 0.29656 0.0
H249 H 0.93211 0.13475 0.36855 0.0
S250 S 0.09321 0.12424 0.6273 0.0
N251 N 0.09119 0.16269 0.53313 0.0
N252 N 0.04597 0.09934 0.61338 0.0
C253 C 0.02606 0.12181 0.52859 0.0
C254 C 0.05059 0.15618 0.48661 0.0
C255 C 0.37467 0.11128 0.37366 0.0
C256 C 0.33216 0.11673 0.42552 0.0
C257 C 0.40362 0.07759 0.40202 0.0
C258 C 0.39183 0.0479 0.4838 0.0
H259 H 0.38556 0.13161 0.30611 0.0
H260 H 0.43532 0.07452 0.35872 0.0
S261 S 0.29743 0.05855 0.68528 0.0
N262 N 0.28964 0.0977 0.5945 0.0
N263 N 0.34226 0.03267 0.6401 0.0
C264 C 0.3531 0.05597 0.5476 0.0
C265 C 0.32418 0.09109 0.52163 0.0
C266 C 0.57872 0.35661 0.36962 0.0
C267 C 0.54964 0.32405 0.39895 0.0
C268 C 0.58405 0.39173 0.44164 0.0
C269 C 0.56039 0.39485 0.54421 0.0
H270 H 0.59585 0.35569 0.2885 0.0
H271 H 0.60582 0.41675 0.41616 0.0
S272 S 0.47858 0.31947 0.65559 0.0
N273 N 0.49682 0.29777 0.53634 0.0
N274 N 0.5053 0.36411 0.66761 0.0
C275 C 0.53164 0.36239 0.57393 0.0
C276 C 0.52683 0.3267 0.50262 0.0
C277 C 0.13843 0.40693 0.47628 0.0
C278 C 0.18096 0.41655 0.43896 0.0
C279 C 0.10812 0.43919 0.50541 0.0
C280 C 0.11824 0.48246 0.49341 0.0
H281 H 0.12806 0.37435 0.47897 0.0
H282 H 0.07674 0.42977 0.53984 0.0
S283 S 0.22767 0.52405 0.41169 0.0
N284 N 0.23406 0.4722 0.4042 0.0
N285 N 0.1758 0.53269 0.45215 0.0
C286 C 0.16155 0.49237 0.46151 0.0
C287 C 0.19316 0.45949 0.4364 0.0
C288 C 0.01157 0.88291 0.1249 0.0
C289 C 0.03651 0.84583 0.09894 0.0
C290 C 0.02198 0.92148 0.077 0.0
C291 C 0.0575 0.92424 0.00098 0.0
H292 H 0.98266 0.8818 0.17973 0.0
H293 H 1.00041 0.94876 0.09385 0.0
S294 S 0.13175 0.83604 0.90155 0.0
N295 N 0.09759 0.81381 0.9922 0.0
N296 N 0.11731 0.88676 0.89951 0.0
C297 C 0.08335 0.88757 0.97577 0.0
C298 C 0.07251 0.84809 0.02458 0.0
C299 C 0.65916 0.91653 0.91721 0.0
C300 C 0.70003 0.92903 0.95935 0.0
C301 C 0.62607 0.94673 0.89412 0.0
C302 C 0.63206 0.99031 0.917 0.0
H303 H 0.6513 0.88328 0.91281 0.0
H304 H 0.595 0.93523 0.86174 0.0
S305 S 0.73952 0.03893 0.98626 0.0
N306 N 0.74986 0.98746 0.99032 0.0
N307 N 0.68643 0.04446 0.953 0.0
C308 C 0.67507 0.00328 0.94287 0.0
C309 C 0.70942 0.97248 0.9618 0.0
C310 C 0.4722 0.66536 0.93753 0.0
C311 C 0.47482 0.66722 0.05651 0.0
C312 C 0.45129 0.63214 0.88399 0.0
C313 C 0.43444 0.59832 0.94659 0.0
H314 H 0.48763 0.6889 0.88482 0.0
H315 H 0.45166 0.63119 0.79208 0.0
S316 S 0.42709 0.59062 0.2598 0.0
N317 N 0.45192 0.63578 0.23659 0.0
N318 N 0.41799 0.56983 0.13271 0.0
C319 C 0.43498 0.60025 0.06526 0.0
C320 C 0.45414 0.6355 0.12092 0.0
C321 C 0.84092 0.57577 0.10481 0.0
C322 C 0.83424 0.61449 0.04642 0.0
C323 C 0.87014 0.54442 0.0646 0.0
C324 C 0.89368 0.55067 0.96437 0.0
H325 H 0.82235 0.56887 0.18063 0.0
H326 H 0.87383 0.51503 0.11125 0.0
S327 S 0.8834 0.64427 0.7729 0.0
N328 N 0.85045 0.6561 0.88087 0.0
N329 N 0.90573 0.59727 0.80136 0.0
C330 C 0.88666 0.58904 0.90351 0.0
C331 C 0.85672 0.62088 0.9453 0.0
C332 C 0.98949 0.2069 0.03226 0.0
C333 C 0.03454 0.2153 0.04859 0.0
C334 C 0.97623 0.17136 0.97025 0.0
C335 C 0.00729 0.14198 0.92179 0.0
H336 H 0.96424 0.2255 0.07689 0.0
H337 H 0.94091 0.16602 0.9654 0.0
S338 S 0.1295 0.15247 0.92938 0.0
N339 N 0.1103 0.19459 -0.00109 0.0
N340 N 0.08545 0.12601 0.88975 0.0
C341 C 0.05239 0.15152 0.93141 0.0
C342 C 0.06586 0.18879 0.99126 0.0
C343 C 0.33761 0.1237 -0.00178 0.0
C344 C 0.32066 0.09978 0.08865 0.0
C345 C 0.37362 0.10821 0.93215 0.0
C346 C 0.39487 0.06925 0.95782 0.0
H347 H 0.32254 0.15418 0.97766 0.0
H348 H 0.38371 0.12588 0.85804 0.0
S349 S 0.36664 0.99723 0.19395 0.0
N350 N 0.33011 0.03681 0.20505 0.0
N351 N 0.39808 0.00852 0.08347 0.0
C352 C 0.37956 0.04629 0.05137 0.0
C353 C 0.34247 0.06135 0.11622 0.0
C354 C 0.50842 0.31741 0.96175 0.0
C355 C 0.47487 0.30534 0.03726 0.0
C356 C 0.50816 0.3581 0.91549 0.0
C357 C 0.47218 0.38658 0.93201 0.0
H358 H 0.53874 0.29836 0.95503 0.0
H359 H 0.53793 0.36831 0.87315 0.0
S360 S 0.37085 0.36595 0.09764 0.0
N361 N 0.40172 0.32243 0.11295 0.0
N362 N 0.39905 0.3976 0.01427 0.0
C363 C 0.43553 0.37273 0.99364 0.0
C364 C 0.43683 0.33187 0.04614 0.0
C365 C 0.16449 0.457 0.12454 0.0
C366 C 0.18741 0.42022 0.08593 0.0
C367 C 0.13164 0.47735 0.05864 0.0
C368 C 0.11992 0.4619 0.95079 0.0
H369 H 0.17146 0.46981 0.20798 0.0
H370 H 0.11579 0.50601 0.09163 0.0
S371 S 0.17194 0.36891 0.80489 0.0
N372 N 0.1969 0.36999 0.93045 0.0
N373 N 0.13604 0.40935 0.80396 0.0
C374 C 0.14305 0.42571 0.90939 0.0
C375 C 0.17652 0.40461 0.97748 0.0
C376 C 0.93868 0.83637 0.41147 0.0
C377 C 0.96303 0.79755 0.42028 0.0
C378 C 0.94793 0.87135 0.48245 0.0
C379 C 0.98036 0.86831 0.56876 0.0
H380 H 0.91812 0.8421 0.33702 0.0
H381 H 0.93249 0.90175 0.46268 0.0
S382 S 0.03992 0.76913 0.65563 0.0
N383 N 0.01182 0.75545 0.5409 0.0
N384 N 0.02721 0.81955 0.67859 0.0
C385 C 0.99837 0.82747 0.59171 0.0
C386 C 0.98951 0.7923 0.51798 0.0
C387 C 0.65487 0.90631 0.3681 0.0
C388 C 0.69945 0.91948 0.35369 0.0
C389 C 0.62416 0.92807 0.43992 0.0
C390 C 0.63691 0.96302 0.5054 0.0
H391 H 0.64261 0.88015 0.31834 0.0
H392 H 0.59 0.91819 0.44119 0.0
S393 S 0.75229 0.00338 0.52597 0.0
N394 N 0.75549 0.96642 0.42684 0.0
N395 N 0.7003 0.00382 0.56928 0.0
C396 C 0.68274 0.97303 0.50295 0.0
C397 C 0.71335 0.95205 0.42641 0.0
C398 C 0.49518 0.71485 0.46913 0.0
C399 C 0.53454 0.71599 0.40533 0.0
C400 C 0.4852 0.67931 0.53483 0.0
C401 C 0.51462 0.64382 0.54192 0.0
H402 H 0.46892 0.73823 0.45414 0.0
H403 H 0.45248 0.67842 0.57286 0.0
S404 S 0.62874 0.63848 0.42456 0.0
N405 N 0.60807 0.68426 0.37888 0.0
N406 N 0.58949 0.61742 0.50287 0.0
C407 C 0.55728 0.64811 0.49585 0.0
C408 C 0.56751 0.68466 0.42938 0.0
C409 C 0.80271 0.57341 0.40876 0.0
C410 C 0.80892 0.61652 0.38506 0.0
C411 C 0.83467 0.54911 0.46758 0.0
C412 C 0.87497 0.56618 0.50532 0.0
H413 H 0.77447 0.55703 0.3748 0.0
H414 H 0.82801 0.51597 0.48099 0.0
S415 S 0.90599 0.67844 0.48113 0.0
N416 N 0.85623 0.67678 0.42228 0.0
N417 N 0.9185 0.62946 0.52021 0.0
C418 C 0.88138 0.60937 0.48623 0.0
C419 C 0.84767 0.63489 0.43109 0.0
loop_
_geom_bond_atom_site_label_1
_geom_bond_atom_site_label_2
_geom_bond_distance
_geom_bond_site_symmetry_2
_ccdc_geom_bond_type
H0 C3 0.931 . S
H1 C6 0.928 . S
H2 C8 0.930 . S
C3 H0 0.931 . S
C3 C4 1.413 . S
C3 C5 1.360 . S
C4 C3 1.413 . S
C4 C8 1.429 . S
C5 C3 1.360 . S
C5 C6 1.372 1_554 S
C6 H1 0.928 . S
C6 C5 1.372 1_556 S
C6 C7 1.404 1_556 S
C7 C6 1.404 1_554 S
C7 C8 1.391 . S
C8 H2 0.930 . S
C8 C4 1.429 . S
C8 C7 1.391 . S
H9 C12 0.931 . S
H10 C15 0.928 1_556 S
H11 C17 0.930 . S
C12 H9 0.931 . S
C12 C13 1.413 . S
C12 C14 1.360 . S
C13 C12 1.413 . S
C13 C17 1.429 1_655 S
C14 C12 1.360 . S
C14 C15 1.373 . S
C15 H10 0.928 1_554 S
C15 C14 1.373 . S
C15 C16 1.404 . S
C16 C15 1.404 . S
C16 C17 1.390 1_655 S
C17 H11 0.930 . S
C17 C13 1.429 1_455 S
C17 C16 1.390 1_455 S
H18 C21 0.931 . S
H19 C24 0.938 . S
H20 C26 0.930 . S
C21 H18 0.931 . S
C21 C22 1.413 . S
C21 C23 1.360 . S
C22 C21 1.413 . S
C22 C26 1.429 . S
C23 C21 1.360 . S
C23 C24 1.369 1_554 S
C24 H19 0.938 . S
C24 C23 1.369 1_556 S
C24 C25 1.397 1_556 S
C25 C24 1.397 1_554 S
C25 C26 1.391 . S
C26 H20 0.930 . S
C26 C22 1.429 . S
C26 C25 1.391 . S
H27 C30 0.931 . S
H28 C33 0.928 . S
H29 C35 0.930 1_556 S
C30 H27 0.931 . S
C30 C31 1.413 . S
C30 C32 1.360 . S
C31 C30 1.413 . S
C31 C35 1.429 . S
C32 C30 1.360 . S
C32 C33 1.372 . S
C33 H28 0.928 . S
C33 C32 1.372 . S
C33 C34 1.404 . S
C34 C33 1.404 . S
C34 C35 1.391 . S
C35 H29 0.930 1_554 S
C35 C31 1.429 . S
C35 C34 1.391 . S
H36 C39 0.931 . S
H37 C42 0.928 . S
H38 C44 0.930 . S
C39 H36 0.931 . S
C39 C40 1.413 . S
C39 C41 1.360 . S
C40 C39 1.413 . S
C40 C44 1.429 . S
C41 C39 1.360 . S
C41 C42 1.372 . S
C42 H37 0.928 . S
C42 C41 1.372 . S
C42 C43 1.404 . S
C43 C42 1.404 . S
C43 C44 1.391 . S
C44 H38 0.930 . S
C44 C40 1.429 . S
C44 C43 1.391 . S
H45 C48 0.930 . S
H46 C51 0.928 . S
H47 C53 0.931 . S
C48 H45 0.930 . S
C48 C49 1.413 . S
C48 C50 1.360 . S
C49 C48 1.413 . S
C49 C53 1.429 1_655 S
C50 C48 1.360 . S
C50 C51 1.372 . S
C51 H46 0.928 . S
C51 C50 1.372 . S
C51 C52 1.404 . S
C52 C51 1.404 . S
C52 C53 1.391 1_655 S
C53 H47 0.931 . S
C53 C49 1.429 1_455 S
C53 C52 1.391 1_455 S
H54 C57 0.931 . S
H55 C60 0.928 . S
H56 C62 0.930 . S
C57 H54 0.931 . S
C57 C58 1.413 . S
C57 C59 1.360 . S
C58 C57 1.413 . S
C58 C62 1.429 . S
C59 C57 1.360 . S
C59 C60 1.372 . S
C60 H55 0.928 . S
C60 C59 1.372 . S
C60 C61 1.404 . S
C61 C60 1.404 . S
C61 C62 1.391 . S
C62 H56 0.930 . S
C62 C58 1.429 . S
C62 C61 1.391 . S
H63 C66 0.931 . S
H64 C69 0.928 . S
H65 C71 0.930 . S
C66 H63 0.931 . S
C66 C67 1.413 . S
C66 C68 1.360 . S
C67 C66 1.413 . S
C67 C71 1.429 . S
C68 C66 1.360 . S
C68 C69 1.372 . S
C69 H64 0.928 . S
C69 C68 1.372 . S
C69 C70 1.404 . S
C70 C69 1.404 . S
C70 C71 1.391 . S
C71 H65 0.930 . S
C71 C67 1.429 . S
C71 C70 1.391 . S
O72 Mg73 1.990 . S
O72 C86 1.253 . S
Mg73 O72 1.990 . S
Mg73 O76 2.180 1_565 S
Mg73 O77 2.117 . S
Mg73 O91 2.030 . S
O74 Mg75 2.072 1_465 S
O74 C86 1.260 . S
Mg75 O74 2.072 1_645 S
Mg75 O76 2.099 1_655 S
Mg75 O78 2.079 . S
Mg75 O79 2.072 1_655 S
Mg75 O81 2.099 . S
Mg75 O92 2.079 1_545 S
O76 Mg73 2.180 1_545 S
O76 Mg75 2.099 1_455 S
O76 C87 1.279 . S
O77 Mg73 2.117 . S
O77 C87 1.250 1_565 S
O78 Mg75 2.079 . S
O78 C88 1.264 . S
O79 Mg75 2.072 1_455 S
O79 C89 1.260 . S
Mg80 O81 2.180 . S
Mg80 O82 2.030 . S
Mg80 O83 1.990 . S
Mg80 O84 2.117 . S
O81 Mg75 2.099 . S
O81 Mg80 2.180 . S
O81 C90 1.279 . S
O82 Mg80 2.030 . S
O82 C88 1.248 . S
O83 Mg80 1.990 . S
O83 C89 1.253 1_655 S
O84 Mg80 2.117 . S
O84 C90 1.250 . S
C85 O91 1.248 1_655 S
C85 O92 1.264 . S
C86 O72 1.253 . S
C86 O74 1.260 . S
C87 O76 1.279 . S
C87 O77 1.250 1_545 S
C88 O78 1.264 . S
C88 O82 1.248 . S
C89 O79 1.260 . S
C89 O83 1.253 1_455 S
C90 O81 1.279 . S
C90 O84 1.250 . S
O91 Mg73 2.030 . S
O91 C85 1.248 1_455 S
O92 Mg75 2.079 1_565 S
O92 C85 1.264 . S
O93 Mg94 1.990 1_545 S
O93 C107 1.253 . S
Mg94 O93 1.990 1_565 S
Mg94 O97 2.180 . S
Mg94 O98 2.117 . S
Mg94 O112 2.030 1_565 S
O95 Mg96 2.072 . S
O95 C107 1.260 . S
Mg96 O95 2.072 . S
Mg96 O97 2.099 1_545 S
Mg96 O99 2.079 1_545 S
Mg96 O100 2.072 1_545 S
Mg96 O102 2.099 . S
Mg96 O113 2.079 . S
O97 Mg94 2.180 . S
O97 Mg96 2.099 1_565 S
O97 C108 1.279 . S
O98 Mg94 2.117 . S
O98 C108 1.250 . S
O99 Mg96 2.079 1_565 S
O99 C109 1.264 . S
O100 Mg96 2.072 1_565 S
O100 C110 1.260 1_565 S
Mg101 O102 2.180 . S
Mg101 O103 2.030 1_545 S
Mg101 O104 1.990 . S
Mg101 O105 2.117 . S
O102 Mg96 2.099 . S
O102 Mg101 2.180 . S
O102 C111 1.279 . S
O103 Mg101 2.030 1_565 S
O103 C109 1.248 . S
O104 Mg101 1.990 . S
O104 C110 1.253 . S
O105 Mg101 2.117 . S
O105 C111 1.250 . S
C106 O112 1.248 . S
C106 O113 1.264 . S
C107 O93 1.253 . S
C107 O95 1.260 . S
C108 O97 1.279 . S
C108 O98 1.250 . S
C109 O99 1.264 . S
C109 O103 1.248 . S
C110 O100 1.260 1_545 S
C110 O104 1.253 . S
C111 O102 1.279 . S
C111 O105 1.250 . S
O112 Mg94 2.030 1_545 S
O112 C106 1.248 . S
O113 Mg96 2.079 . S
O113 C106 1.264 . S
O114 Mg115 1.990 . S
O114 C128 1.253 . S
Mg115 O114 1.990 . S
Mg115 O118 2.180 . S
Mg115 O119 2.117 . S
Mg115 O133 2.030 . S
O116 Mg117 2.072 . S
O116 C128 1.260 . S
Mg117 O116 2.072 . S
Mg117 O118 2.099 . S
Mg117 O120 2.079 . S
Mg117 O121 2.072 . S
Mg117 O123 2.099 . S
Mg117 O134 2.079 . S
O118 Mg115 2.180 . S
O118 Mg117 2.099 . S
O118 C129 1.279 . S
O119 Mg115 2.117 . S
O119 C129 1.250 . S
O120 Mg117 2.079 . S
O120 C130 1.264 . S
O121 Mg117 2.072 . S
O121 C131 1.260 . S
Mg122 O123 2.180 . S
Mg122 O124 2.030 . S
Mg122 O125 1.990 . S
Mg122 O126 2.117 . S
O123 Mg117 2.099 . S
O123 Mg122 2.180 . S
O123 C132 1.279 . S
O124 Mg122 2.030 . S
O124 C130 1.248 . S
O125 Mg122 1.990 . S
O125 C131 1.253 . S
O126 Mg122 2.117 . S
O126 C132 1.250 . S
C127 O133 1.248 . S
C127 O134 1.264 . S
C128 O114 1.253 . S
C128 O116 1.260 . S
C129 O118 1.279 . S
C129 O119 1.250 . S
C130 O120 1.264 . S
C130 O124 1.248 . S
C131 O121 1.260 . S
C131 O125 1.253 . S
C132 O123 1.279 . S
C132 O126 1.250 . S
O133 Mg115 2.030 . S
O133 C127 1.248 . S
O134 Mg117 2.079 . S
O134 C127 1.264 . S
O135 Mg136 1.990 . S
O135 C149 1.253 . S
Mg136 O135 1.990 . S
Mg136 O139 2.180 . S
Mg136 O140 2.117 . S
Mg136 O154 2.030 . S
O137 Mg138 2.072 1_655 S
O137 C149 1.260 . S
Mg138 O137 2.072 1_455 S
Mg138 O139 2.099 1_455 S
Mg138 O141 2.079 . S
Mg138 O142 2.072 . S
Mg138 O144 2.099 . S
Mg138 O155 2.079 1_455 S
O139 Mg136 2.180 . S
O139 Mg138 2.099 1_655 S
O139 C150 1.279 . S
O140 Mg136 2.117 . S
O140 C150 1.250 . S
O141 Mg138 2.079 . S
O141 C151 1.264 . S
O142 Mg138 2.072 . S
O142 C152 1.260 . S
Mg143 O144 2.180 . S
Mg143 O145 2.030 . S
Mg143 O146 1.990 . S
Mg143 O147 2.117 . S
O144 Mg138 2.099 . S
O144 Mg143 2.180 . S
O144 C153 1.279 . S
O145 Mg143 2.030 . S
O145 C151 1.248 . S
O146 Mg143 1.990 . S
O146 C152 1.253 . S
O147 Mg143 2.117 . S
O147 C153 1.250 . S
C148 O154 1.248 . S
C148 O155 1.264 . S
C149 O135 1.253 . S
C149 O137 1.260 . S
C150 O139 1.279 . S
C150 O140 1.250 . S
C151 O141 1.264 . S
C151 O145 1.248 . S
C152 O142 1.260 . S
C152 O146 1.253 . S
C153 O144 1.279 . S
C153 O147 1.250 . S
O154 Mg136 2.030 . S
O154 C148 1.248 . S
O155 Mg138 2.079 1_655 S
O155 C148 1.264 . S
C156 C157 1.369 . S
C156 C158 1.419 . S
C156 H160 0.930 . S
C157 C156 1.369 . S
C157 C166 1.429 . S
C158 C156 1.419 . S
C158 C159 1.363 . S
C158 H161 0.929 . S
C159 C158 1.363 . S
C159 C165 1.428 . S
H160 C156 0.930 . S
H161 C158 0.929 . S
S162 N163 1.620 . S
S162 N164 1.611 . S
N163 S162 1.620 . S
N163 C166 1.350 . S
N164 S162 1.611 . S
N164 C165 1.351 . S
C165 C159 1.428 . S
C165 N164 1.351 . S
C165 C166 1.434 . S
C166 C157 1.429 . S
C166 N163 1.350 . S
C166 C165 1.434 . S
C167 C168 1.369 . S
C167 C169 1.419 . S
C167 H171 0.930 . S
C168 C167 1.369 . S
C168 C177 1.429 . S
C169 C167 1.419 . S
C169 C170 1.363 . S
C169 H172 0.929 . S
C170 C169 1.363 . S
C170 C176 1.428 . S
H171 C167 0.930 . S
H172 C169 0.929 . S
S173 N174 1.613 . S
S173 N175 1.610 . S
N174 S173 1.613 . S
N174 C177 1.350 . S
N175 S173 1.610 . S
N175 C176 1.351 . S
C176 C170 1.428 . S
C176 N175 1.351 . S
C176 C177 1.434 . S
C177 C168 1.429 . S
C177 N174 1.350 . S
C177 C176 1.434 . S
C178 C179 1.369 . S
C178 C180 1.419 . S
C178 H182 0.930 . S
C179 C178 1.369 . S
C179 C188 1.429 . S
C180 C178 1.419 . S
C180 C181 1.363 . S
C180 H183 0.929 . S
C181 C180 1.363 . S
C181 C187 1.428 . S
H182 C178 0.930 . S
H183 C180 0.929 . S
S184 N185 1.613 . S
S184 N186 1.610 . S
N185 S184 1.613 . S
N185 C188 1.350 . S
N186 S184 1.610 . S
N186 C187 1.351 . S
C187 C181 1.428 . S
C187 N186 1.351 . S
C187 C188 1.434 . S
C188 C179 1.429 . S
C188 N185 1.350 . S
C188 C187 1.434 . S
C189 C190 1.369 1_455 S
C189 C191 1.419 . S
C189 H193 0.930 . S
C190 C189 1.369 1_655 S
C190 C199 1.429 . S
C191 C189 1.419 . S
C191 C192 1.363 1_455 S
C191 H194 0.929 . S
C192 C191 1.363 1_655 S
C192 C198 1.428 . S
H193 C189 0.930 . S
H194 C191 0.929 . S
S195 N196 1.613 . S
S195 N197 1.610 . S
N196 S195 1.613 . S
N196 C199 1.350 . S
N197 S195 1.610 . S
N197 C198 1.351 . S
C198 C192 1.428 . S
C198 N197 1.351 . S
C198 C199 1.434 . S
C199 C190 1.429 . S
C199 N196 1.350 . S
C199 C198 1.434 . S
C200 C201 1.369 1_556 S
C200 C202 1.419 . S
C200 H204 0.930 . S
C201 C200 1.369 1_554 S
C201 C210 1.429 1_554 S
C202 C200 1.419 . S
C202 C203 1.363 . S
C202 H205 0.929 1_565 S
C203 C202 1.363 . S
C203 C209 1.428 . S
H204 C200 0.930 . S
H205 C202 0.929 1_545 S
S206 N207 1.613 1_556 S
S206 N208 1.610 . S
N207 S206 1.613 1_554 S
N207 C210 1.350 1_554 S
N208 S206 1.610 . S
N208 C209 1.351 . S
C209 C203 1.428 . S
C209 N208 1.351 . S
C209 C210 1.434 . S
C210 C201 1.429 1_556 S
C210 N207 1.350 1_556 S
C210 C209 1.434 . S
C211 C212 1.369 1_556 S
C211 C213 1.419 . S
C211 H215 0.930 . S
C212 C211 1.369 1_554 S
C212 C221 1.429 . S
C213 C211 1.419 . S
C213 C214 1.363 . S
C213 H216 0.929 . S
C214 C213 1.363 . S
C214 C220 1.428 . S
H215 C211 0.930 . S
H216 C213 0.929 . S
S217 N218 1.613 . S
S217 N219 1.610 1_554 S
N218 S217 1.613 . S
N218 C221 1.350 . S
N219 S217 1.610 1_556 S
N219 C220 1.351 . S
C220 C214 1.428 . S
C220 N219 1.351 . S
C220 C221 1.434 1_556 S
C221 C212 1.429 . S
C221 N218 1.350 . S
C221 C220 1.434 1_554 S
C222 C223 1.369 1_556 S
C222 C224 1.419 . S
C222 H226 0.930 1_556 S
C223 C222 1.369 1_554 S
C223 C232 1.429 1_554 S
C224 C222 1.419 . S
C224 C225 1.363 . S
C224 H227 0.929 . S
C225 C224 1.363 . S
C225 C231 1.428 . S
H226 C222 0.930 1_554 S
H227 C224 0.929 . S
S228 N229 1.613 . S
S228 N230 1.610 . S
N229 S228 1.613 . S
N229 C232 1.350 . S
N230 S228 1.610 . S
N230 C231 1.351 . S
C231 C225 1.428 . S
C231 N230 1.351 . S
C231 C232 1.434 . S
C232 C223 1.429 1_556 S
C232 N229 1.350 . S
C232 C231 1.434 . S
C233 C234 1.369 1_556 S
C233 C235 1.419 . S
C233 H237 0.930 . S
C234 C233 1.369 1_554 S
C234 C243 1.429 . S
C235 C233 1.419 . S
C235 C236 1.363 . S
C235 H238 0.929 . S
C236 C235 1.363 . S
C236 C242 1.428 . S
H237 C233 0.930 . S
H238 C235 0.929 . S
S239 N240 1.613 . S
S239 N241 1.610 1_655 S
N240 S239 1.613 . S
N240 C243 1.349 1_655 S
N241 S239 1.610 1_455 S
N241 C242 1.351 1_554 S
C242 C236 1.428 . S
C242 N241 1.351 1_556 S
C242 C243 1.434 1_556 S
C243 C234 1.429 . S
C243 N240 1.349 1_455 S
C243 C242 1.434 1_554 S
C244 C245 1.366 1_655 S
C244 C246 1.419 . S
C244 H248 0.930 . S
C245 C244 1.366 1_455 S
C245 C254 1.431 . S
C246 C244 1.419 . S
C246 C247 1.363 . S
C246 H249 0.929 . S
C247 C246 1.363 . S
C247 C253 1.428 1_655 S
H248 C244 0.930 . S
H249 C246 0.929 . S
S250 N251 1.613 . S
S250 N252 1.610 . S
N251 S250 1.613 . S
N251 C254 1.350 . S
N252 S250 1.610 . S
N252 C253 1.351 . S
C253 C247 1.428 1_455 S
C253 N252 1.351 . S
C253 C254 1.434 . S
C254 C245 1.431 . S
C254 N251 1.350 . S
C254 C253 1.434 . S
C255 C256 1.369 . S
C255 C257 1.419 . S
C255 H259 0.930 . S
C256 C255 1.369 . S
C256 C265 1.429 . S
C257 C255 1.419 . S
C257 C258 1.363 . S
C257 H260 0.929 . S
C258 C257 1.363 . S
C258 C264 1.428 . S
H259 C255 0.930 . S
H260 C257 0.929 . S
S261 N262 1.613 . S
S261 N263 1.610 . S
N262 S261 1.613 . S
N262 C265 1.350 . S
N263 S261 1.610 . S
N263 C264 1.351 . S
C264 C258 1.428 . S
C264 N263 1.351 . S
C264 C265 1.434 . S
C265 C256 1.429 . S
C265 N262 1.350 . S
C265 C264 1.434 . S
C266 C267 1.369 . S
C266 C268 1.419 . S
C266 H270 0.930 . S
C267 C266 1.369 . S
C267 C276 1.429 . S
C268 C266 1.419 . S
C268 C269 1.363 . S
C268 H271 0.929 . S
C269 C268 1.363 . S
C269 C275 1.428 . S
H270 C266 0.930 . S
H271 C268 0.929 . S
S272 N273 1.613 . S
S272 N274 1.610 . S
N273 S272 1.613 . S
N273 C276 1.350 . S
N274 S272 1.610 . S
N274 C275 1.351 . S
C275 C269 1.428 . S
C275 N274 1.351 . S
C275 C276 1.434 . S
C276 C267 1.429 . S
C276 N273 1.350 . S
C276 C275 1.434 . S
C277 C278 1.369 . S
C277 C279 1.419 . S
C277 H281 0.930 . S
C278 C277 1.369 . S
C278 C287 1.429 . S
C279 C277 1.419 . S
C279 C280 1.363 . S
C279 H282 0.929 . S
C280 C279 1.363 . S
C280 C286 1.428 . S
H281 C277 0.930 . S
H282 C279 0.929 . S
S283 N284 1.613 . S
S283 N285 1.610 . S
N284 S283 1.613 . S
N284 C287 1.350 . S
N285 S283 1.610 . S
N285 C286 1.351 . S
C286 C280 1.428 . S
C286 N285 1.351 . S
C286 C287 1.434 . S
C287 C278 1.429 . S
C287 N284 1.350 . S
C287 C286 1.434 . S
C288 C289 1.369 1_654 S
C288 C290 1.419 1_554 S
C288 H292 0.930 . S
C289 C288 1.369 1_456 S
C289 C298 1.429 . S
C290 C288 1.419 1_556 S
C290 C291 1.363 1_655 S
C290 H293 0.927 1_556 S
C291 C290 1.363 1_455 S
C291 C297 1.428 . S
H292 C288 0.930 . S
H293 C290 0.927 1_554 S
S294 N295 1.613 . S
S294 N296 1.610 . S
N295 S294 1.613 . S
N295 C298 1.350 . S
N296 S294 1.610 . S
N296 C297 1.351 . S
C297 C291 1.428 . S
C297 N296 1.351 . S
C297 C298 1.434 . S
C298 C289 1.429 . S
C298 N295 1.350 . S
C298 C297 1.434 . S
C299 C300 1.369 . S
C299 C301 1.419 . S
C299 H303 0.930 1_556 S
C300 C299 1.369 . S
C300 C309 1.429 . S
C301 C299 1.419 . S
C301 C302 1.363 . S
C301 H304 0.929 . S
C302 C301 1.363 . S
C302 C308 1.428 . S
H303 C299 0.930 1_554 S
H304 C301 0.929 . S
S305 N306 1.613 1_545 S
S305 N307 1.610 . S
N306 S305 1.613 1_565 S
N306 C309 1.350 . S
N307 S305 1.610 . S
N307 C308 1.351 1_545 S
C308 C302 1.428 . S
C308 N307 1.351 1_565 S
C308 C309 1.434 . S
C309 C300 1.429 . S
C309 N306 1.350 . S
C309 C308 1.434 . S
C310 C311 1.369 . S
C310 C312 1.419 . S
C310 H314 0.930 . S
C311 C310 1.369 . S
C311 C320 1.429 1_556 S
C312 C310 1.419 . S
C312 C313 1.363 . S
C312 H315 0.929 . S
C313 C312 1.363 . S
C313 C319 1.428 1_556 S
H314 C310 0.930 . S
H315 C312 0.929 . S
S316 N317 1.613 . S
S316 N318 1.610 . S
N317 S316 1.613 . S
N317 C320 1.350 . S
N318 S316 1.610 . S
N318 C319 1.351 . S
C319 C313 1.428 1_554 S
C319 N318 1.351 . S
C319 C320 1.434 . S
C320 C311 1.429 1_554 S
C320 N317 1.350 . S
C320 C319 1.434 . S
C321 C322 1.369 1_554 S
C321 C323 1.421 . S
C321 H325 0.930 . S
C322 C321 1.369 1_556 S
C322 C331 1.429 . S
C323 C321 1.421 . S
C323 C324 1.356 1_554 S
C323 H326 0.934 . S
C324 C323 1.356 1_556 S
C324 C330 1.428 . S
H325 C321 0.930 . S
H326 C323 0.934 . S
S327 N328 1.613 . S
S327 N329 1.610 . S
N328 S327 1.613 . S
N328 C331 1.350 . S
N329 S327 1.610 . S
N329 C330 1.351 . S
C330 C324 1.428 . S
C330 N329 1.351 . S
C330 C331 1.434 . S
C331 C322 1.429 . S
C331 N328 1.350 . S
C331 C330 1.434 . S
C332 C333 1.369 1_655 S
C332 C334 1.419 . S
C332 H336 0.930 . S
C333 C332 1.369 1_455 S
C333 C342 1.429 . S
C334 C332 1.419 . S
C334 C335 1.363 1_654 S
C334 H337 0.929 . S
C335 C334 1.363 1_456 S
C335 C341 1.428 . S
H336 C332 0.930 . S
H337 C334 0.929 . S
S338 N339 1.613 . S
S338 N340 1.610 . S
N339 S338 1.613 . S
N339 C342 1.350 1_556 S
N340 S338 1.610 . S
N340 C341 1.351 . S
C341 C335 1.428 . S
C341 N340 1.351 . S
C341 C342 1.434 1_556 S
C342 C333 1.429 . S
C342 N339 1.350 1_554 S
C342 C341 1.434 1_554 S
C343 C344 1.369 . S
C343 C345 1.419 1_554 S
C343 H347 0.930 . S
C344 C343 1.369 . S
C344 C353 1.429 . S
C345 C343 1.419 1_556 S
C345 C346 1.363 . S
C345 H348 0.929 . S
C346 C345 1.363 . S
C346 C352 1.428 1_556 S
H347 C343 0.930 . S
H348 C345 0.929 . S
S349 N350 1.613 1_565 S
S349 N351 1.610 1_565 S
N350 S349 1.613 1_545 S
N350 C353 1.350 . S
N351 S349 1.610 1_545 S
N351 C352 1.351 . S
C352 C346 1.428 1_554 S
C352 N351 1.351 . S
C352 C353 1.434 . S
C353 C344 1.429 . S
C353 N350 1.350 . S
C353 C352 1.434 . S
C354 C355 1.369 . S
C354 C356 1.419 1_554 S
C354 H358 0.930 . S
C355 C354 1.369 . S
C355 C364 1.429 . S
C356 C354 1.419 1_556 S
C356 C357 1.363 . S
C356 H359 0.929 . S
C357 C356 1.363 . S
C357 C363 1.428 1_556 S
H358 C354 0.930 . S
H359 C356 0.929 . S
S360 N361 1.613 . S
S360 N362 1.610 . S
N361 S360 1.613 . S
N361 C364 1.350 . S
N362 S360 1.610 . S
N362 C363 1.351 . S
C363 C357 1.428 1_554 S
C363 N362 1.351 . S
C363 C364 1.434 . S
C364 C355 1.429 . S
C364 N361 1.350 . S
C364 C363 1.434 . S
C365 C366 1.369 . S
C365 C367 1.419 . S
C365 H369 0.930 . S
C366 C365 1.369 . S
C366 C375 1.429 . S
C367 C365 1.419 . S
C367 C368 1.363 1_554 S
C367 H370 0.929 . S
C368 C367 1.363 1_556 S
C368 C374 1.428 . S
H369 C365 0.930 . S
H370 C367 0.929 . S
S371 N372 1.613 . S
S371 N373 1.610 . S
N372 S371 1.613 . S
N372 C375 1.350 1_556 S
N373 S371 1.610 . S
N373 C374 1.351 . S
C374 C368 1.428 . S
C374 N373 1.351 . S
C374 C375 1.434 1_556 S
C375 C366 1.429 . S
C375 N372 1.350 1_554 S
C375 C374 1.434 1_554 S
C376 C377 1.369 . S
C376 C378 1.419 . S
C376 H380 0.930 . S
C377 C376 1.369 . S
C377 C386 1.430 . S
C378 C376 1.419 . S
C378 C379 1.363 . S
C378 H381 0.929 . S
C379 C378 1.363 . S
C379 C385 1.428 . S
H380 C376 0.930 . S
H381 C378 0.929 . S
S382 N383 1.613 . S
S382 N384 1.610 1_455 S
N383 S382 1.613 . S
N383 C386 1.348 1_455 S
N384 S382 1.610 1_655 S
N384 C385 1.351 . S
C385 C379 1.428 . S
C385 N384 1.351 . S
C385 C386 1.436 . S
C386 C377 1.430 . S
C386 N383 1.348 1_655 S
C386 C385 1.436 . S
C387 C388 1.369 . S
C387 C389 1.419 . S
C387 H391 0.930 . S
C388 C387 1.369 . S
C388 C397 1.429 . S
C389 C387 1.419 . S
C389 C390 1.363 . S
C389 H392 0.929 . S
C390 C389 1.363 . S
C390 C396 1.428 . S
H391 C387 0.930 . S
H392 C389 0.929 . S
S393 N394 1.613 . S
S393 N395 1.610 . S
N394 S393 1.613 . S
N394 C397 1.350 . S
N395 S393 1.610 . S
N395 C396 1.351 . S
C396 C390 1.428 . S
C396 N395 1.351 . S
C396 C397 1.434 . S
C397 C388 1.429 . S
C397 N394 1.350 . S
C397 C396 1.434 . S
C398 C399 1.369 . S
C398 C400 1.419 . S
C398 H402 0.930 . S
C399 C398 1.369 . S
C399 C408 1.429 . S
C400 C398 1.419 . S
C400 C401 1.363 . S
C400 H403 0.929 . S
C401 C400 1.363 . S
C401 C407 1.428 . S
H402 C398 0.930 . S
H403 C400 0.929 . S
S404 N405 1.613 . S
S404 N406 1.610 . S
N405 S404 1.613 . S
N405 C408 1.350 . S
N406 S404 1.610 . S
N406 C407 1.351 . S
C407 C401 1.428 . S
C407 N406 1.351 . S
C407 C408 1.434 . S
C408 C399 1.429 . S
C408 N405 1.350 . S
C408 C407 1.434 . S
C409 C410 1.369 . S
C409 C411 1.419 . S
C409 H413 0.930 . S
C410 C409 1.369 . S
C410 C419 1.429 . S
C411 C409 1.419 . S
C411 C412 1.363 . S
C411 H414 0.929 . S
C412 C411 1.363 . S
C412 C418 1.428 . S
H413 C409 0.930 . S
H414 C411 0.929 . S
S415 N416 1.613 . S
S415 N417 1.610 . S
N416 S415 1.613 . S
N416 C419 1.350 . S
N417 S415 1.610 . S
N417 C418 1.351 . S
C418 C412 1.428 . S
C418 N417 1.351 . S
C418 C419 1.434 . S
C419 C410 1.429 . S
C419 N416 1.350 . S
C419 C418 1.434 . S
C157 C61 1.686 . S
C159 C87 1.630 . S
C170 C111 1.388 . S
C168 C70 1.572 . S
C181 C132 1.611 . S
C179 C43 1.677 . S
C192 C150 1.421 . S
C190 C52 1.568 . S
C203 C90 1.518 1_565 S
C201 C25 1.588 . S
C212 C34 1.437 . S
C214 C108 1.270 . S
C223 C7 1.569 . S
C225 C129 1.490 . S
C234 C16 1.443 1_455 S
C236 C153 1.295 . S
C247 C88 0.788 . S
C245 C50 0.794 1_455 S
C258 C106 0.945 . S
C256 C59 0.922 . S
C269 C127 0.780 . S
C267 C67 0.791 . S
C278 C41 0.910 . S
C280 C151 0.953 . S
C289 C14 0.852 1_456 S
C291 C86 0.855 . S
C302 C110 1.024 1_565 S
C300 C23 0.968 1_556 S
C313 C131 0.860 . S
C311 C31 0.849 1_556 S
C322 C5 0.980 1_556 S
C324 C149 1.023 . S
C333 C49 1.585 1_455 S
C335 C89 1.550 . S
C344 C58 1.674 . S
C346 C107 1.658 . S
C357 C128 1.535 . S
C355 C68 1.565 . S
C368 C152 1.674 . S
C366 C40 1.694 . S
C377 C13 1.466 . S
C379 C85 1.433 . S
C390 C109 1.541 . S
C388 C22 1.568 . S
C401 C130 1.421 . S
C399 C32 1.444 . S
C410 C4 1.574 . S
C412 C148 1.565 . S
