# Generated by pormake.
# Topology pyr, (3,6)-cn, num edge types: 1
# Building blocks:
#     Node 0, Type 0, BuildingBlock: CUQRIR_clean_linker_1, # of connection points: 3
#     Node 1, Type 0, BuildingBlock: CUQRIR_clean_linker_1, # of connection points: 3
#     Node 2, Type 0, BuildingBlock: CUQRIR_clean_linker_1, # of connection points: 3
#     Node 3, Type 0, BuildingBlock: CUQRIR_clean_linker_1, # of connection points: 3
#     Node 4, Type 0, BuildingBlock: CUQRIR_clean_linker_1, # of connection points: 3
#     Node 5, Type 0, BuildingBlock: CUQRIR_clean_linker_1, # of connection points: 3
#     Node 6, Type 0, BuildingBlock: CUQRIR_clean_linker_1, # of connection points: 3
#     Node 7, Type 0, BuildingBlock: CUQRIR_clean_linker_1, # of connection points: 3
#     Node 8, Type 1, BuildingBlock: VOLQOD_clean_sbu_1, # of connection points: 6
#     Node 9, Type 1, BuildingBlock: VOLQOD_clean_sbu_1, # of connection points: 6
#     Node 10, Type 1, BuildingBlock: VOLQOD_clean_sbu_1, # of connection points: 6
#     Node 11, Type 1, BuildingBlock: VOLQOD_clean_sbu_1, # of connection points: 6
#     Edge 12, Type (0, 1), BuildingBlock: UVAHIK_clean_linker_0, # of connection points: 2
#     Edge 13, Type (0, 1), BuildingBlock: UVAHIK_clean_linker_0, # of connection points: 2
#     Edge 14, Type (0, 1), BuildingBlock: UVAHIK_clean_linker_0, # of connection points: 2
#     Edge 15, Type (0, 1), BuildingBlock: UVAHIK_clean_linker_0, # of connection points: 2
#     Edge 16, Type (0, 1), BuildingBlock: UVAHIK_clean_linker_0, # of connection points: 2
#     Edge 17, Type (0, 1), BuildingBlock: UVAHIK_clean_linker_0, # of connection points: 2
#     Edge 18, Type (0, 1), BuildingBlock: UVAHIK_clean_linker_0, # of connection points: 2
#     Edge 19, Type (0, 1), BuildingBlock: UVAHIK_clean_linker_0, # of connection points: 2
#     Edge 20, Type (0, 1), BuildingBlock: UVAHIK_clean_linker_0, # of connection points: 2
#     Edge 21, Type (0, 1), BuildingBlock: UVAHIK_clean_linker_0, # of connection points: 2
#     Edge 22, Type (0, 1), BuildingBlock: UVAHIK_clean_linker_0, # of connection points: 2
#     Edge 23, Type (0, 1), BuildingBlock: UVAHIK_clean_linker_0, # of connection points: 2
#     Edge 24, Type (0, 1), BuildingBlock: UVAHIK_clean_linker_0, # of connection points: 2
#     Edge 25, Type (0, 1), BuildingBlock: UVAHIK_clean_linker_0, # of connection points: 2
#     Edge 26, Type (0, 1), BuildingBlock: UVAHIK_clean_linker_0, # of connection points: 2
#     Edge 27, Type (0, 1), BuildingBlock: UVAHIK_clean_linker_0, # of connection points: 2
#     Edge 28, Type (0, 1), BuildingBlock: UVAHIK_clean_linker_0, # of connection points: 2
#     Edge 29, Type (0, 1), BuildingBlock: UVAHIK_clean_linker_0, # of connection points: 2
#     Edge 30, Type (0, 1), BuildingBlock: UVAHIK_clean_linker_0, # of connection points: 2
#     Edge 31, Type (0, 1), BuildingBlock: UVAHIK_clean_linker_0, # of connection points: 2
#     Edge 32, Type (0, 1), BuildingBlock: UVAHIK_clean_linker_0, # of connection points: 2
#     Edge 33, Type (0, 1), BuildingBlock: UVAHIK_clean_linker_0, # of connection points: 2
#     Edge 34, Type (0, 1), BuildingBlock: UVAHIK_clean_linker_0, # of connection points: 2
#     Edge 35, Type (0, 1), BuildingBlock: UVAHIK_clean_linker_0, # of connection points: 2
# Relax obj value: 0.115
# Max RMSD: 0.211
# Mean RMSD: 0.165
data_MOF--net-pry--node1-VOLQOD_clean_sbu_1--node2-CUQRIR_clean_linker_1--edge1-UVAHIK_clean_linker_0
_symmetry_space_group_name_H-M    P1
_symmetry_Int_Tables_number       1
_symmetry_cell_setting            triclinic
loop_
_symmetry_equiv_pos_as_xyz
'x, y, z'
_cell_length_a     45.030688
_cell_length_b     44.891242
_cell_length_c     44.404924
_cell_angle_alpha  88.296159
_cell_angle_beta   91.966528
_cell_angle_gamma 93.933239
loop_
_atom_site_label
_atom_site_type_symbol
_atom_site_fract_x
_atom_site_fract_y
_atom_site_fract_z
_atom_type_partial_charge
C0 C 0.12259 0.1723 0.14648 0.0
N1 N 0.14435 0.15391 0.15396 0.0
N2 N 0.13015 0.1901 0.12244 0.0
C3 C 0.09447 0.17369 0.16355 0.0
C4 C 0.1575 0.18195 0.11563 0.0
N5 N 0.16612 0.15999 0.1349 0.0
C6 C 0.17695 0.19735 0.09221 0.0
H7 H 0.0763 0.18193 0.14869 0.0
H8 H 0.09871 0.18922 0.18243 0.0
H9 H 0.08742 0.15133 0.17321 0.0
H10 H 0.18854 0.21758 0.10205 0.0
H11 H 0.16357 0.2045 0.07224 0.0
H12 H 0.19393 0.18254 0.08491 0.0
C13 C 0.39812 0.8741 0.64481 0.0
N14 N 0.39294 0.89417 0.66577 0.0
N15 N 0.41802 0.85486 0.65555 0.0
C16 C 0.38195 0.87188 0.61465 0.0
C17 C 0.42474 0.86391 0.68397 0.0
N18 N 0.40914 0.88766 0.69034 0.0
C19 C 0.44556 0.84874 0.70573 0.0
H20 H 0.3596 0.8604 0.61777 0.0
H21 H 0.39429 0.8591 0.59875 0.0
H22 H 0.37877 0.89446 0.60476 0.0
H23 H 0.46322 0.83838 0.69374 0.0
H24 H 0.43275 0.83076 0.71837 0.0
H25 H 0.45614 0.86481 0.72201 0.0
C26 C 0.57226 0.41087 0.91073 0.0
N27 N 0.59387 0.40528 0.93173 0.0
N28 N 0.58177 0.43305 0.89125 0.0
C29 C 0.54274 0.3931 0.90788 0.0
C30 C 0.60993 0.44071 0.90114 0.0
N31 N 0.6173 0.42376 0.92559 0.0
C32 C 0.63095 0.46304 0.88527 0.0
H33 H 0.54655 0.36984 0.90198 0.0
H34 H 0.52772 0.40297 0.89059 0.0
H35 H 0.53145 0.39219 0.92969 0.0
H36 H 0.62299 0.48571 0.88727 0.0
H37 H 0.631 0.45815 0.86092 0.0
H38 H 0.65401 0.46314 0.89482 0.0
C39 C 0.87762 0.61035 0.37639 0.0
N40 N 0.90229 0.62848 0.37113 0.0
N41 N 0.86787 0.61434 0.40441 0.0
C42 C 0.86226 0.58943 0.35399 0.0
C43 C 0.88769 0.63539 0.41605 0.0
N44 N 0.90879 0.64383 0.39588 0.0
C45 C 0.8854 0.64911 0.44635 0.0
H46 H 0.83805 0.59279 0.35267 0.0
H47 H 0.86493 0.56607 0.36187 0.0
H48 H 0.87144 0.59231 0.33121 0.0
H49 H 0.86877 0.63645 0.46046 0.0
H50 H 0.87913 0.67249 0.44304 0.0
H51 H 0.9072 0.64965 0.45871 0.0
C52 C 0.89112 0.91943 0.92853 0.0
N53 N 0.91225 0.91397 0.90898 0.0
N54 N 0.87865 0.94526 0.92099 0.0
C55 C 0.88152 0.89872 0.95416 0.0
C56 C 0.89296 0.95537 0.89597 0.0
N57 N 0.9136 0.93637 0.88873 0.0
C58 C 0.88408 0.9815 0.87645 0.0
H59 H 0.8645 0.88173 0.9456 0.0
H60 H 0.87162 0.91119 0.9721 0.0
H61 H 0.9007 0.88693 0.96376 0.0
H62 H 0.90043 0.00073 0.88034 0.0
H63 H 0.86165 0.98828 0.88168 0.0
H64 H 0.88434 0.976 0.85226 0.0
C65 C 0.66937 0.14411 0.4549 0.0
N66 N 0.67638 0.12149 0.43752 0.0
N67 N 0.64137 0.15203 0.44801 0.0
C68 C 0.68933 0.15752 0.4795 0.0
C69 C 0.63164 0.13333 0.42582 0.0
N70 N 0.65275 0.11447 0.41982 0.0
C71 C 0.60305 0.13588 0.40752 0.0
H72 H 0.67609 0.16708 0.49701 0.0
H73 H 0.70431 0.17563 0.46965 0.0
H74 H 0.70335 0.14045 0.49009 0.0
H75 H 0.5966 0.1593 0.40614 0.0
H76 H 0.58505 0.12186 0.41852 0.0
H77 H 0.60501 0.12801 0.38428 0.0
C78 C 0.40542 0.59202 0.10147 0.0
N79 N 0.42543 0.61259 0.11353 0.0
N80 N 0.38928 0.6042 0.07849 0.0
C81 C 0.39904 0.56106 0.11466 0.0
C82 C 0.40048 0.63294 0.0768 0.0
N83 N 0.42217 0.63805 0.0982 0.0
C84 C 0.38757 0.65684 0.05686 0.0
H85 H 0.3844 0.54707 0.09931 0.0
H86 H 0.38815 0.56255 0.13656 0.0
H87 H 0.42017 0.55011 0.119 0.0
H88 H 0.36636 0.66294 0.06629 0.0
H89 H 0.38259 0.64847 0.03389 0.0
H90 H 0.40302 0.67711 0.05518 0.0
C91 C 0.077 0.40144 0.62608 0.0
N92 N 0.09596 0.393 0.60545 0.0
N93 N 0.08223 0.43078 0.63189 0.0
C94 C 0.05489 0.38065 0.64228 0.0
C95 C 0.1051 0.43986 0.61402 0.0
N96 N 0.11323 0.41696 0.59764 0.0
C97 C 0.12159 0.47014 0.61496 0.0
H98 H 0.03521 0.39249 0.64832 0.0
H99 H 0.06559 0.3722 0.66343 0.0
H100 H 0.04746 0.36133 0.62823 0.0
H101 H 0.14468 0.46767 0.62379 0.0
H102 H 0.11052 0.48562 0.62926 0.0
H103 H 0.12299 0.48005 0.59185 0.0
O104 O 0.03851 0.07145 0.54171 0.0
Zn105 Zn 0.0207 0.02922 0.53818 0.0
O106 O 0.04564 0.00535 0.51472 0.0
Zn107 Zn 0.02499 0.99608 0.47654 0.0
Zn108 Zn 0.08327 0.02816 0.50688 0.0
Zn109 Zn 0.05347 0.96825 0.53709 0.0
O110 O 0.02092 0.95177 0.47111 0.0
O111 O 0.041 0.93167 0.51264 0.0
O112 O 0.97976 0.03149 0.51861 0.0
O113 O 0.98362 0.01085 0.47425 0.0
O114 O 0.04801 0.01379 0.44163 0.0
O115 O 0.09128 0.0306 0.46244 0.0
O116 O 0.11749 0.00997 0.52916 0.0
O117 O 0.01566 0.01112 0.57984 0.0
O118 O 0.09716 0.96776 0.54911 0.0
O119 O 0.03199 0.96575 0.57634 0.0
C120 C 0.06309 0.08456 0.53371 0.0
C121 C 0.02817 0.92897 0.48671 0.0
C122 C 0.07447 0.02538 0.43927 0.0
C123 C 0.96852 0.0239 0.49302 0.0
C124 C 0.1197 0.98598 0.54488 0.0
C125 C 0.01975 0.98524 0.59111 0.0
O126 O 0.08232 0.07058 0.52044 0.0
O127 O 0.51176 0.09309 0.02327 0.0
Zn128 Zn 0.49325 0.0509 0.02826 0.0
O129 O 0.51947 0.02582 0.05243 0.0
Zn130 Zn 0.52906 0.99218 0.02885 0.0
Zn131 Zn 0.55638 0.04908 0.06322 0.0
Zn132 Zn 0.49974 0.01058 0.08909 0.0
O133 O 0.52049 0.95342 0.05135 0.0
O134 O 0.49436 0.96539 0.0902 0.0
O135 O 0.48249 0.03333 0.98721 0.0
O136 O 0.50463 0.99056 0.99021 0.0
O137 O 0.57227 0.99458 0.01854 0.0
O138 O 0.5915 0.03383 0.04341 0.0
O139 O 0.56473 0.04738 0.10802 0.0
O140 O 0.4552 0.05442 0.04984 0.0
O141 O 0.52517 0.02139 0.12602 0.0
O142 O 0.45964 0.0278 0.09256 0.0
C143 C 0.53593 0.10604 0.03353 0.0
C144 C 0.50556 0.94593 0.07451 0.0
C145 C 0.59444 0.01218 0.02616 0.0
C146 C 0.48796 0.00846 0.97614 0.0
C147 C 0.5504 0.0356 0.13009 0.0
C148 C 0.44493 0.04471 0.07492 0.0
O149 O 0.55462 0.09192 0.04952 0.0
O150 O 0.51898 0.51424 0.56814 0.0
Zn151 Zn 0.51705 0.52951 0.52506 0.0
O152 O 0.49071 0.50293 0.50041 0.0
Zn153 Zn 0.51286 0.48853 0.46727 0.0
Zn154 Zn 0.47563 0.46872 0.5248 0.0
Zn155 Zn 0.45729 0.52489 0.48459 0.0
O156 O 0.49687 0.50382 0.42719 0.0
O157 O 0.46026 0.53138 0.43967 0.0
O158 O 0.55863 0.53399 0.50936 0.0
O159 O 0.55593 0.50377 0.47051 0.0
O160 O 0.5129 0.44354 0.46806 0.0
O161 O 0.49158 0.43076 0.51134 0.0
O162 O 0.43077 0.46385 0.52212 0.0
O163 O 0.50154 0.57019 0.52676 0.0
O164 O 0.41794 0.50231 0.49307 0.0
O165 O 0.45721 0.56551 0.50329 0.0
C166 C 0.506 0.49206 0.58201 0.0
C167 C 0.47656 0.52136 0.4199 0.0
C168 C 0.50499 0.42388 0.48802 0.0
C169 C 0.57077 0.52185 0.48778 0.0
C170 C 0.41092 0.47867 0.50857 0.0
C171 C 0.47701 0.58084 0.51845 0.0
O172 O 0.48844 0.47323 0.56822 0.0
O173 O 0.97861 0.53973 0.07065 0.0
Zn174 Zn 0.97639 0.5182 0.03133 0.0
O175 O 0.99821 0.5415 0.00028 0.0
Zn176 Zn 0.97106 0.55377 0.96747 0.0
Zn177 Zn 0.0193 0.57663 0.0182 0.0
Zn178 Zn 0.02685 0.51659 0.98385 0.0
O179 O 0.98316 0.53972 0.92681 0.0
O180 O 0.02345 0.51571 0.93904 0.0
O181 O 0.93315 0.51141 0.01834 0.0
O182 O 0.9292 0.53677 0.97478 0.0
O183 O 0.97193 0.59874 0.96375 0.0
O184 O 0.00864 0.61407 0.99555 0.0
O185 O 0.06399 0.57434 0.01742 0.0
O186 O 0.99237 0.47739 0.03853 0.0
O187 O 0.06845 0.53168 0.99453 0.0
O188 O 0.02224 0.47465 0.0001 0.0
C189 C 0.99181 0.56417 0.07932 0.0
C190 C 0.00507 0.52534 0.91932 0.0
C191 C 0.98887 0.61959 0.97532 0.0
C192 C 0.91761 0.52015 0.99565 0.0
C193 C 0.08005 0.55478 0.00741 0.0
C194 C 0.00921 0.46275 0.02285 0.0
O195 O 0.008 0.58056 0.06157 0.0
C196 C 0.14122 0.10699 0.18413 0.0
C197 C 0.14716 0.13801 0.18227 0.0
C198 C 0.13862 0.09242 0.21233 0.0
C199 C 0.11141 0.10746 0.28474 0.0
H200 H 0.14751 0.03609 0.31533 0.0
C201 C 0.06503 0.03754 0.38467 0.0
C202 C 0.08537 0.03416 0.40905 0.0
C203 C 0.07493 0.04799 0.35662 0.0
C204 C 0.13736 0.05603 0.30695 0.0
H205 H 0.15641 0.17818 0.20741 0.0
H206 H 0.15147 0.15292 0.25688 0.0
H207 H 0.16279 0.05905 0.26672 0.0
H208 H 0.13218 0.03773 0.42275 0.0
H209 H 0.1495 0.05553 0.37325 0.0
H210 H 0.0855 0.10422 0.32433 0.0
C211 C 0.14903 0.13978 0.23676 0.0
C212 C 0.146 0.06904 0.27926 0.0
C213 C 0.15195 0.15416 0.20869 0.0
C214 C 0.11596 0.0403 0.40444 0.0
C215 C 0.12591 0.05028 0.37615 0.0
C216 C 0.10241 0.09419 0.31197 0.0
C217 C 0.14149 0.10894 0.23879 0.0
C218 C 0.13316 0.09496 0.26809 0.0
C219 C 0.10538 0.05476 0.35223 0.0
C220 C 0.11529 0.06841 0.32331 0.0
H221 H 0.13704 0.09439 0.16383 0.0
H222 H 0.13254 0.06865 0.21339 0.0
H223 H 0.10098 0.12727 0.27641 0.0
H224 H 0.04133 0.03301 0.38746 0.0
H225 H 0.05873 0.05117 0.33839 0.0
C226 C 0.4145 0.9342 0.71875 0.0
C227 C 0.40933 0.90306 0.71839 0.0
C228 C 0.41751 0.94896 0.74613 0.0
C229 C 0.40734 0.93744 0.8293 0.0
H230 H 0.47023 0.00073 0.83499 0.0
C231 C 0.47056 0.96915 0.93973 0.0
C232 C 0.4744 0.99956 0.94661 0.0
C233 C 0.45832 0.96029 0.91185 0.0
C234 C 0.45231 0.98339 0.83362 0.0
H235 H 0.40098 0.86308 0.74596 0.0
H236 H 0.40767 0.88825 0.79376 0.0
H237 H 0.45625 0.97976 0.78608 0.0
H238 H 0.46836 0.04458 0.92959 0.0
H239 H 0.44771 0.02898 0.88014 0.0
H240 H 0.40483 0.94004 0.87728 0.0
C241 C 0.40909 0.90165 0.77312 0.0
C242 C 0.44416 0.97139 0.80556 0.0
C243 C 0.40572 0.88705 0.74575 0.0
C244 C 0.46561 0.02099 0.92495 0.0
C245 C 0.4539 0.01211 0.89669 0.0
C246 C 0.41586 0.9491 0.85738 0.0
C247 C 0.41556 0.93279 0.77376 0.0
C248 C 0.42194 0.94782 0.80308 0.0
C249 C 0.45011 0.98165 0.88995 0.0
C250 C 0.43877 0.97182 0.85987 0.0
H251 H 0.41719 0.94698 0.69784 0.0
H252 H 0.42181 0.97299 0.7456 0.0
H253 H 0.38964 0.91989 0.8283 0.0
H254 H 0.47695 0.95208 0.95598 0.0
H255 H 0.45591 0.93669 0.90712 0.0
C256 C 0.56535 0.471 0.85422 0.0
C257 C 0.5687 0.44097 0.86239 0.0
C258 C 0.55548 0.47884 0.82505 0.0
C259 C 0.51469 0.45035 0.75826 0.0
H260 H 0.56665 0.50603 0.71272 0.0
C261 C 0.50482 0.46019 0.62912 0.0
C262 C 0.51122 0.48811 0.61486 0.0
C263 C 0.50982 0.45633 0.66013 0.0
C264 C 0.5515 0.49091 0.72518 0.0
H265 H 0.56453 0.3956 0.84691 0.0
H266 H 0.54611 0.40909 0.79619 0.0
H267 H 0.5776 0.49654 0.76614 0.0
H268 H 0.5273 0.53409 0.62198 0.0
H269 H 0.5351 0.52766 0.67628 0.0
H270 H 0.48832 0.44483 0.71766 0.0
C271 C 0.55102 0.42655 0.81231 0.0
C272 C 0.55788 0.48545 0.75577 0.0
C273 C 0.5614 0.41882 0.84123 0.0
C274 C 0.52243 0.51221 0.63231 0.0
C275 C 0.52701 0.50847 0.66343 0.0
C276 C 0.50802 0.45614 0.72781 0.0
C277 C 0.54838 0.45665 0.80383 0.0
C278 C 0.53983 0.46472 0.77239 0.0
C279 C 0.5209 0.48043 0.67773 0.0
C280 C 0.52668 0.47605 0.71071 0.0
H281 H 0.57083 0.48835 0.8703 0.0
H282 H 0.55353 0.5022 0.81899 0.0
H283 H 0.50031 0.43446 0.77076 0.0
H284 H 0.49637 0.44112 0.61624 0.0
H285 H 0.50547 0.43425 0.67016 0.0
C286 C 0.94656 0.61902 0.34304 0.0
C287 C 0.91865 0.63084 0.34387 0.0
C288 C 0.9602 0.61642 0.31548 0.0
C289 C 0.96826 0.59037 0.25421 0.0
H290 H 0.96239 0.64669 0.18669 0.0
C291 C 0.9723 0.5548 0.13121 0.0
C292 C 0.98793 0.57377 0.11056 0.0
C293 C 0.96808 0.56391 0.16047 0.0
C294 C 0.96454 0.63086 0.20539 0.0
H295 H 0.88385 0.6512 0.31766 0.0
H296 H 0.90741 0.64674 0.26927 0.0
H297 H 0.949 0.66114 0.23682 0.0
H298 H 0.01155 0.61725 0.10471 0.0
H299 H 0.00408 0.63314 0.1559 0.0
H300 H 0.98339 0.55996 0.2228 0.0
C301 C 0.91901 0.6395 0.28967 0.0
C302 C 0.95665 0.63905 0.23406 0.0
C303 C 0.90543 0.64199 0.31722 0.0
C304 C 0.99939 0.60206 0.12 0.0
C305 C 0.995 0.61124 0.14929 0.0
C306 C 0.97603 0.58216 0.22557 0.0
C307 C 0.94611 0.62579 0.28836 0.0
C308 C 0.95791 0.6187 0.2587 0.0
C309 C 0.97927 0.59226 0.16984 0.0
C310 C 0.97371 0.60208 0.20072 0.0
H311 H 0.95701 0.61045 0.36354 0.0
H312 H 0.98129 0.60621 0.31528 0.0
H313 H 0.9692 0.57401 0.27258 0.0
H314 H 0.96313 0.53288 0.12477 0.0
H315 H 0.95547 0.54891 0.1756 0.0
C316 C 0.19606 0.11693 0.12944 0.0
C317 C 0.19439 0.14699 0.13628 0.0
C318 C 0.22375 0.10496 0.12745 0.0
C319 C 0.30133 0.1293 0.11147 0.0
H320 H 0.31621 0.0473 0.13362 0.0
C321 C 0.39915 0.07236 0.06433 0.0
C322 C 0.41579 0.05436 0.08405 0.0
C323 C 0.37248 0.08292 0.07323 0.0
C324 C 0.3125 0.07034 0.12758 0.0
H325 H 0.21951 0.18793 0.14796 0.0
H326 H 0.26822 0.16709 0.14499 0.0
H327 H 0.26945 0.06736 0.147 0.0
H328 H 0.41701 0.03288 0.12847 0.0
H329 H 0.37037 0.05158 0.14407 0.0
H330 H 0.34432 0.13243 0.09223 0.0
C331 C 0.2483 0.15278 0.14056 0.0
C332 C 0.28562 0.08174 0.13499 0.0
C333 C 0.22059 0.1647 0.14242 0.0
C334 C 0.40475 0.04668 0.11271 0.0
C335 C 0.37798 0.0573 0.12163 0.0
C336 C 0.32813 0.11793 0.10409 0.0
C337 C 0.25023 0.12294 0.13235 0.0
C338 C 0.27959 0.11127 0.12672 0.0
C339 C 0.36174 0.07585 0.10209 0.0
C340 C 0.33387 0.0882 0.11164 0.0
H341 H 0.17595 0.10314 0.12435 0.0
H342 H 0.22438 0.08202 0.12074 0.0
H343 H 0.29734 0.15201 0.10441 0.0
H344 H 0.4068 0.07857 0.04201 0.0
H345 H 0.3602 0.09664 0.05739 0.0
C346 C 0.34091 0.90152 0.67567 0.0
C347 C 0.3682 0.91269 0.66433 0.0
C348 C 0.31474 0.91504 0.66722 0.0
C349 C 0.28577 0.95852 0.60262 0.0
H350 H 0.21472 0.95705 0.64967 0.0
C351 C 0.1744 0.99858 0.55364 0.0
C352 C 0.14877 0.97996 0.55971 0.0
C353 C 0.20157 0.99364 0.56847 0.0
C354 C 0.23438 0.95747 0.63625 0.0
H355 H 0.39049 0.94753 0.63732 0.0
H356 H 0.34494 0.97224 0.62329 0.0
H357 H 0.26202 0.94514 0.67419 0.0
H358 H 0.13169 0.94155 0.58625 0.0
H359 H 0.17918 0.9329 0.61197 0.0
H360 H 0.25811 0.97047 0.56466 0.0
C361 C 0.34342 0.95263 0.63811 0.0
C362 C 0.26148 0.9507 0.65028 0.0
C363 C 0.36951 0.93889 0.6464 0.0
C364 C 0.15098 0.95627 0.58094 0.0
C365 C 0.17813 0.95147 0.59591 0.0
C366 C 0.25876 0.96546 0.58868 0.0
C367 C 0.31555 0.94008 0.64732 0.0
C368 C 0.28744 0.95069 0.63353 0.0
C369 C 0.20371 0.97012 0.58985 0.0
C370 C 0.23268 0.96456 0.60522 0.0
H371 H 0.33964 0.88099 0.68915 0.0
H372 H 0.29375 0.90456 0.67456 0.0
H373 H 0.30509 0.95811 0.58881 0.0
H374 H 0.17351 0.01709 0.5375 0.0
H375 H 0.22085 0.00851 0.56347 0.0
C376 C 0.65231 0.44251 0.96521 0.0
C377 C 0.64607 0.42419 0.94052 0.0
C378 C 0.68179 0.44899 0.97521 0.0
C379 C 0.74703 0.45398 0.99698 0.0
H380 H 0.79978 0.47085 0.93047 0.0
C381 C 0.87329 0.48801 0.01312 0.0
C382 C 0.88575 0.50958 0.99272 0.0
C383 C 0.84383 0.47648 0.00903 0.0
C384 C 0.78532 0.46647 0.94932 0.0
H385 H 0.6648 0.39721 0.90754 0.0
H386 H 0.7163 0.40715 0.9257 0.0
H387 H 0.74917 0.45075 0.92042 0.0
H388 H 0.87652 0.53677 0.9527 0.0
H389 H 0.82513 0.51707 0.94591 0.0
H390 H 0.78316 0.47086 0.02572 0.0
C391 C 0.69872 0.41708 0.93714 0.0
C392 C 0.75638 0.45443 0.94361 0.0
C393 C 0.66932 0.41093 0.92703 0.0
C394 C 0.86777 0.51999 0.9687 0.0
C395 C 0.83833 0.50855 0.96468 0.0
C396 C 0.77608 0.46613 0.0027 0.0
C397 C 0.70542 0.43717 0.96054 0.0
C398 C 0.73679 0.44814 0.96732 0.0
C399 C 0.82615 0.48629 0.98449 0.0
C400 C 0.79546 0.47278 0.97886 0.0
H401 H 0.63453 0.45333 0.97539 0.0
H402 H 0.68612 0.46474 0.99309 0.0
H403 H 0.73256 0.44926 0.01576 0.0
H404 H 0.8865 0.47945 0.03187 0.0
H405 H 0.83521 0.45921 0.02457 0.0
C406 C 0.81907 0.62326 0.42455 0.0
C407 C 0.83977 0.60324 0.41628 0.0
C408 C 0.79128 0.61268 0.43492 0.0
C409 C 0.73519 0.55238 0.42698 0.0
H410 H 0.70564 0.57763 0.50248 0.0
C411 C 0.61917 0.5094 0.46693 0.0
C412 C 0.60264 0.52924 0.48225 0.0
C413 C 0.6491 0.51667 0.461 0.0
C414 C 0.71329 0.57067 0.48111 0.0
H415 H 0.84795 0.55664 0.41237 0.0
H416 H 0.79856 0.53794 0.42932 0.0
H417 H 0.75605 0.59406 0.48799 0.0
H418 H 0.6044 0.57228 0.50329 0.0
H419 H 0.65609 0.58568 0.49172 0.0
H420 H 0.69225 0.53034 0.41904 0.0
C421 C 0.80411 0.5618 0.42816 0.0
C422 C 0.74226 0.57992 0.47299 0.0
C423 C 0.83219 0.57242 0.41839 0.0
C424 C 0.61666 0.55644 0.49164 0.0
C425 C 0.64643 0.564 0.48516 0.0
C426 C 0.70602 0.54361 0.43477 0.0
C427 C 0.78346 0.58188 0.4365 0.0
C428 C 0.75339 0.57092 0.44583 0.0
C429 C 0.66308 0.54425 0.46967 0.0
C430 C 0.69458 0.55273 0.4619 0.0
H431 H 0.82429 0.64713 0.4225 0.0
H432 H 0.77556 0.62857 0.44089 0.0
H433 H 0.74323 0.54545 0.40574 0.0
H434 H 0.60902 0.48811 0.45971 0.0
H435 H 0.66125 0.50054 0.44966 0.0
C436 C 0.1061 0.21807 0.08082 0.0
C437 C 0.11536 0.21571 0.1112 0.0
C438 C 0.09168 0.24307 0.07008 0.0
C439 C 0.04695 0.3026 0.09341 0.0
H440 H 0.07969 0.348 0.02524 0.0
C441 C 0.01426 0.42209 0.06212 0.0
C442 C 0.01521 0.43177 0.03181 0.0
C443 C 0.02344 0.39389 0.07088 0.0
C444 C 0.06975 0.33533 0.04388 0.0
H445 H 0.11693 0.23705 0.15429 0.0
H446 H 0.09091 0.2805 0.1358 0.0
H447 H 0.10121 0.30181 0.04183 0.0
H448 H 0.02455 0.41897 0.9866 0.0
H449 H 0.03914 0.36938 0.00153 0.0
H450 H 0.01517 0.3357 0.09533 0.0
C451 C 0.09483 0.26313 0.12027 0.0
C452 C 0.08226 0.30892 0.05344 0.0
C453 C 0.10967 0.23841 0.13082 0.0
C454 C 0.02399 0.41222 0.01021 0.0
C455 C 0.03259 0.38386 0.01884 0.0
C456 C 0.03408 0.32877 0.08355 0.0
C457 C 0.08585 0.26574 0.08978 0.0
C458 C 0.07122 0.29256 0.0785 0.0
C459 C 0.03323 0.3746 0.04938 0.0
C460 C 0.04555 0.3457 0.05887 0.0
H461 H 0.10988 0.20047 0.06553 0.0
H462 H 0.0848 0.24455 0.0465 0.0
H463 H 0.03792 0.29015 0.11267 0.0
H464 H 0.00774 0.4368 0.07926 0.0
H465 H 0.02394 0.38777 0.09464 0.0
C466 C 0.57203 0.375 0.97355 0.0
C467 C 0.59383 0.37951 0.95175 0.0
C468 C 0.56728 0.34711 0.98805 0.0
C469 C 0.59609 0.2773 0.01116 0.0
H470 H 0.52263 0.23779 0.97992 0.0
C471 C 0.57213 0.14998 0.02542 0.0
C472 C 0.54252 0.1382 0.027 0.0
C473 C 0.57854 0.18039 0.01928 0.0
C474 C 0.54287 0.2485 0.98956 0.0
H475 H 0.62873 0.35922 0.92908 0.0
H476 H 0.62167 0.31086 0.95579 0.0
H477 H 0.53468 0.29017 0.96702 0.0
H478 H 0.49637 0.14903 0.0243 0.0
H479 H 0.50739 0.20233 0.01522 0.0
H480 H 0.60417 0.23617 0.03442 0.0
C481 C 0.60813 0.32882 0.9614 0.0
C482 C 0.54979 0.2785 0.98196 0.0
C483 C 0.61237 0.35649 0.94638 0.0
C484 C 0.51941 0.15748 0.02281 0.0
C485 C 0.52581 0.18806 0.01743 0.0
C486 C 0.58886 0.24743 0.01941 0.0
C487 C 0.58485 0.32365 0.9815 0.0
C488 C 0.5766 0.29296 0.99236 0.0
C489 C 0.55548 0.19996 0.01533 0.0
C490 C 0.56236 0.23241 0.00829 0.0
H491 H 0.55762 0.39259 0.97802 0.0
H492 H 0.54918 0.34348 0.00348 0.0
H493 H 0.61691 0.28816 0.01936 0.0
H494 H 0.5904 0.13554 0.02834 0.0
H495 H 0.60162 0.18835 0.01714 0.0
C496 C 0.95091 0.67208 0.42114 0.0
C497 C 0.92912 0.66989 0.39786 0.0
C498 C 0.96623 0.69954 0.42712 0.0
C499 C 0.95434 0.77964 0.4171 0.0
H500 H 0.03469 0.79067 0.45106 0.0
C501 C 0.00619 0.89598 0.44604 0.0
C502 C 0.02091 0.89888 0.47437 0.0
C503 C 0.99809 0.86784 0.43467 0.0
C504 C 0.01216 0.78784 0.44175 0.0
H505 H 0.90772 0.69358 0.36106 0.0
H506 H 0.93531 0.74139 0.37042 0.0
H507 H 0.01628 0.74164 0.43292 0.0
H508 H 0.03938 0.87424 0.51256 0.0
H509 H 0.02499 0.82492 0.49265 0.0
H510 H 0.95005 0.82561 0.42608 0.0
C511 C 0.94002 0.72226 0.38479 0.0
C512 C 0.00161 0.75979 0.43133 0.0
C513 C 0.92454 0.69487 0.37907 0.0
C514 C 0.02799 0.87284 0.49071 0.0
C515 C 0.01992 0.84458 0.47923 0.0
C516 C 0.96491 0.80759 0.42732 0.0
C517 C 0.96016 0.72523 0.40966 0.0
C518 C 0.97249 0.75532 0.41898 0.0
C519 C 0.00451 0.84181 0.45126 0.0
C520 C 0.99388 0.81203 0.43988 0.0
H521 H 0.95492 0.65285 0.43563 0.0
H522 H 0.98151 0.70092 0.44647 0.0
H523 H 0.93155 0.77693 0.4085 0.0
H524 H 0.00055 0.91549 0.43267 0.0
H525 H 0.98663 0.86647 0.41285 0.0
C526 C 0.45373 0.82247 0.63445 0.0
C527 C 0.42465 0.82735 0.64234 0.0
C528 C 0.45968 0.79616 0.62034 0.0
C529 C 0.42667 0.7194 0.6051 0.0
H530 H 0.4856 0.72219 0.54323 0.0
C531 C 0.44159 0.61961 0.52932 0.0
C532 C 0.47095 0.61096 0.52835 0.0
C533 C 0.43581 0.64686 0.54162 0.0
C534 C 0.46914 0.72112 0.56053 0.0
H535 H 0.37898 0.80917 0.64192 0.0
H536 H 0.38886 0.76372 0.61632 0.0
H537 H 0.47598 0.76783 0.56872 0.0
H538 H 0.51733 0.62469 0.53824 0.0
H539 H 0.50717 0.67245 0.55918 0.0
H540 H 0.4195 0.67275 0.59638 0.0
C541 C 0.40738 0.77956 0.62161 0.0
C542 C 0.46375 0.7472 0.57531 0.0
C543 C 0.40159 0.80565 0.63601 0.0
C544 C 0.49445 0.63065 0.53878 0.0
C545 C 0.48868 0.65806 0.55065 0.0
C546 C 0.43179 0.69345 0.59005 0.0
C547 C 0.43651 0.77443 0.61354 0.0
C548 C 0.44249 0.74667 0.59787 0.0
C549 C 0.45928 0.66617 0.55271 0.0
C550 C 0.45313 0.69404 0.5677 0.0
H551 H 0.4717 0.83919 0.63892 0.0
H552 H 0.48244 0.79284 0.61487 0.0
H553 H 0.41058 0.71792 0.62274 0.0
H554 H 0.42301 0.60492 0.52153 0.0
H555 H 0.41294 0.65274 0.54273 0.0
C556 C 0.92606 0.91399 0.84111 0.0
C557 C 0.92987 0.93743 0.86134 0.0
C558 C 0.93925 0.91645 0.81306 0.0
C559 C 0.99383 0.96388 0.7675 0.0
H560 H 0.94632 0.93056 0.70052 0.0
C561 C 0.00814 0.00097 0.64271 0.0
C562 C 0.01093 0.97799 0.62236 0.0
C563 C 0.00057 0.99422 0.67249 0.0
C564 C 0.95992 0.93972 0.71908 0.0
H565 H 0.95062 0.98152 0.86865 0.0
H566 H 0.97248 0.98678 0.81909 0.0
H567 H 0.92933 0.92197 0.75169 0.0
H568 H 0.00766 0.92998 0.61715 0.0
H569 H 0.99342 0.91827 0.66914 0.0
H570 H 0.02353 0.98295 0.73427 0.0
C571 C 0.96024 0.96596 0.82503 0.0
C572 C 0.95035 0.93467 0.74848 0.0
C573 C 0.94752 0.96318 0.85332 0.0
C574 C 0.00572 0.94814 0.63234 0.0
C575 C 0.99754 0.94143 0.66199 0.0
C576 C 0.00307 0.9694 0.73801 0.0
C577 C 0.95589 0.94279 0.8043 0.0
C578 C 0.96709 0.94681 0.77313 0.0
C579 C 0.99507 0.96442 0.68232 0.0
C580 C 0.9861 0.95748 0.71358 0.0
H581 H 0.9119 0.89425 0.84642 0.0
H582 H 0.93581 0.89789 0.79803 0.0
H583 H 0.00765 0.97312 0.78584 0.0
H584 H 0.0122 0.02418 0.63573 0.0
H585 H 0.99855 0.01232 0.68774 0.0
C586 C 0.66832 0.10245 0.36948 0.0
C587 C 0.65161 0.09474 0.39492 0.0
C588 C 0.66119 0.08861 0.34212 0.0
C589 C 0.59425 0.05566 0.3039 0.0
H590 H 0.64771 0.04287 0.23965 0.0
C591 C 0.54965 0.02294 0.1855 0.0
C592 C 0.56367 0.03791 0.16103 0.0
C593 C 0.56225 0.02499 0.21462 0.0
C594 C 0.63251 0.04648 0.25736 0.0
H595 H 0.61642 0.0652 0.41304 0.0
H596 H 0.60433 0.04014 0.36549 0.0
H597 H 0.66808 0.05299 0.29036 0.0
H598 H 0.60218 0.06658 0.14804 0.0
H599 H 0.62377 0.07064 0.19889 0.0
H600 H 0.55877 0.05017 0.27096 0.0
C601 C 0.62247 0.05726 0.36629 0.0
C602 C 0.64418 0.05217 0.2864 0.0
C603 C 0.62954 0.07124 0.39352 0.0
C604 C 0.59074 0.05476 0.16635 0.0
C605 C 0.6033 0.05687 0.1955 0.0
C606 C 0.58263 0.05002 0.27495 0.0
C607 C 0.63723 0.06682 0.33993 0.0
C608 C 0.62518 0.05722 0.30992 0.0
C609 C 0.58912 0.04214 0.22001 0.0
C610 C 0.60161 0.0458 0.25122 0.0
H611 H 0.68516 0.12085 0.3702 0.0
H612 H 0.6729 0.09664 0.32226 0.0
H613 H 0.57897 0.06011 0.32127 0.0
H614 H 0.52892 0.00954 0.18221 0.0
H615 H 0.55094 0.01306 0.23294 0.0
C616 C 0.45981 0.59018 0.15064 0.0
C617 C 0.438 0.61032 0.1436 0.0
C618 C 0.46729 0.58322 0.18076 0.0
C619 C 0.43203 0.57976 0.25386 0.0
H620 H 0.51083 0.56586 0.28693 0.0
C621 C 0.45253 0.55306 0.37994 0.0
C622 C 0.4727 0.53141 0.38801 0.0
C623 C 0.44973 0.56356 0.35015 0.0
C624 C 0.48865 0.56934 0.2779 0.0
H625 H 0.40771 0.63988 0.16182 0.0
H626 H 0.42129 0.6286 0.21444 0.0
H627 H 0.50496 0.58441 0.23484 0.0
H628 H 0.50557 0.50362 0.37088 0.0
H629 H 0.50022 0.52157 0.31873 0.0
H630 H 0.41554 0.5643 0.29647 0.0
C631 C 0.43244 0.61785 0.1969 0.0
C632 C 0.48533 0.58006 0.24814 0.0
C633 C 0.42499 0.6247 0.16688 0.0
C634 C 0.48984 0.52033 0.36548 0.0
C635 C 0.48696 0.53079 0.33561 0.0
C636 C 0.43532 0.56897 0.28347 0.0
C637 C 0.45288 0.59625 0.20419 0.0
C638 C 0.45698 0.58552 0.23588 0.0
C639 C 0.46691 0.55258 0.32762 0.0
C640 C 0.46365 0.56373 0.29592 0.0
H641 H 0.46983 0.57875 0.13284 0.0
H642 H 0.48302 0.56639 0.18566 0.0
H643 H 0.4098 0.58303 0.24485 0.0
H644 H 0.43912 0.56227 0.39671 0.0
H645 H 0.43439 0.58066 0.34487 0.0
C646 C 0.04308 0.45402 0.65863 0.0
C647 C 0.07244 0.44571 0.65752 0.0
C648 C 0.0334 0.46732 0.68434 0.0
C649 C 0.0618 0.50555 0.75369 0.0
H650 H 0.98631 0.47616 0.78663 0.0
C651 C 0.03788 0.51122 0.87868 0.0
C652 C 0.01014 0.52022 0.88716 0.0
C653 C 0.04325 0.50635 0.84858 0.0
C654 C 0.0072 0.48496 0.77743 0.0
H655 H 0.11476 0.44437 0.68167 0.0
H656 H 0.09811 0.46735 0.72677 0.0
H657 H 3e-05 0.45992 0.7372 0.0
H658 H 0.96619 0.53106 0.87058 0.0
H659 H 0.97556 0.52192 0.81761 0.0
H660 H 0.06949 0.5296 0.79442 0.0
C661 C 0.08255 0.46428 0.70779 0.0
C662 C 0.01506 0.4757 0.74913 0.0
C663 C 0.09212 0.45103 0.68216 0.0
C664 C 0.9878 0.52418 0.86474 0.0
C665 C 0.9931 0.51888 0.8345 0.0
C666 C 0.05402 0.51463 0.78196 0.0
C667 C 0.05304 0.4725 0.70928 0.0
C668 C 0.04283 0.48527 0.73733 0.0
C669 C 0.02097 0.51006 0.82618 0.0
C670 C 0.02702 0.50381 0.79447 0.0
H671 H 0.0277 0.44998 0.63968 0.0
H672 H 0.01061 0.47356 0.6847 0.0
H673 H 0.08303 0.5139 0.74493 0.0
H674 H 0.05564 0.50804 0.8953 0.0
H675 H 0.06479 0.49913 0.84289 0.0
C676 C 0.84934 0.98138 0.94564 0.0
C677 C 0.85087 0.95421 0.93126 0.0
C678 C 0.82223 0.98929 0.95651 0.0
C679 C 0.74913 0.95514 0.97923 0.0
H680 H 0.72308 0.03551 0.96929 0.0
C681 C 0.62861 0.98173 0.99848 0.0
C682 C 0.62426 0.00713 0.01512 0.0
C683 C 0.65687 0.97649 0.98878 0.0
C684 C 0.73024 0.01305 0.97248 0.0
H685 H 0.82593 0.91454 0.91562 0.0
H686 H 0.77844 0.92824 0.93417 0.0
H687 H 0.77176 0.02434 0.95139 0.0
H688 H 0.64616 0.04723 0.03415 0.0
H689 H 0.69557 0.03796 0.01713 0.0
H690 H 0.70758 0.94372 -5e-05 0.0
C691 C 0.79805 0.9432 0.93787 0.0
C692 C 0.75809 0.00667 0.9623 0.0
C693 C 0.82506 0.93537 0.92715 0.0
C694 C 0.64875 0.02741 0.02143 0.0
C695 C 0.67702 0.02222 0.01156 0.0
C696 C 0.72133 0.96148 0.98927 0.0
C697 C 0.79636 0.97006 0.95301 0.0
C698 C 0.76765 0.97754 0.96523 0.0
C699 C 0.68139 0.99657 0.99537 0.0
C700 C 0.71145 0.99039 0.9857 0.0
H701 H 0.86919 0.99612 0.94882 0.0
H702 H 0.82163 0.01007 0.96818 0.0
H703 H 0.75614 0.93263 0.98245 0.0
H704 H 0.61024 0.96571 0.99313 0.0
H705 H 0.65952 0.95674 0.97595 0.0
C706 C 0.73071 0.12603 0.43243 0.0
C707 C 0.70448 0.10814 0.43725 0.0
C708 C 0.75835 0.11369 0.43484 0.0
C709 C 0.79525 0.05286 0.47345 0.0
H710 H 0.85966 0.07627 0.42004 0.0
C711 C 0.91889 0.04082 0.50673 0.0
C712 C 0.93736 0.03048 0.48494 0.0
C713 C 0.88963 0.04735 0.4991 0.0
C714 C 0.84183 0.06928 0.43499 0.0
H715 H 0.68597 0.06343 0.44718 0.0
H716 H 0.73455 0.0415 0.45164 0.0
H717 H 0.80975 0.09249 0.40829 0.0
H718 H 0.93938 0.01878 0.43801 0.0
H719 H 0.88832 0.03045 0.4247 0.0
H720 H 0.82742 0.03009 0.50043 0.0
C721 C 0.73379 0.06512 0.44616 0.0
C722 C 0.81333 0.07874 0.42838 0.0
C723 C 0.70609 0.07749 0.44344 0.0
C724 C 0.92579 0.02671 0.45536 0.0
C725 C 0.89659 0.03351 0.44767 0.0
C726 C 0.8238 0.04361 0.4802 0.0
C727 C 0.76024 0.08321 0.4423 0.0
C728 C 0.78981 0.07094 0.44774 0.0
C729 C 0.87821 0.04393 0.46946 0.0
C730 C 0.84748 0.05204 0.46124 0.0
H731 H 0.72976 0.14969 0.42734 0.0
H732 H 0.7783 0.12826 0.43195 0.0
H733 H 0.77765 0.04669 0.48894 0.0
H734 H 0.92702 0.04395 0.52973 0.0
H735 H 0.87613 0.05568 0.5163 0.0
C736 C 0.33753 0.58752 0.08889 0.0
C737 C 0.35996 0.59375 0.06802 0.0
C738 C 0.30834 0.58011 0.07907 0.0
C739 C 0.25603 0.59449 0.01836 0.0
H740 H 0.20849 0.52786 0.05366 0.0
C741 C 0.12716 0.58611 0.01888 0.0
C742 C 0.11283 0.55849 0.01104 0.0
C743 C 0.15818 0.58921 0.02252 0.0
C744 C 0.22156 0.5464 0.04344 0.0
H745 H 0.36992 0.5969 0.02074 0.0
H746 H 0.31813 0.58481 0.0032 0.0
H747 H 0.26191 0.53381 0.06576 0.0
H748 H 0.11981 0.51253 0.00073 0.0
H749 H 0.1738 0.51795 0.00762 0.0
H750 H 0.21541 0.60763 0.99684 0.0
C751 C 0.32339 0.58532 0.02717 0.0
C752 C 0.25201 0.54984 0.05042 0.0
C753 C 0.35282 0.59219 0.0371 0.0
C754 C 0.13014 0.53413 0.00676 0.0
C755 C 0.16104 0.53715 0.01079 0.0
C756 C 0.22543 0.5913 0.01172 0.0
C757 C 0.30091 0.57941 0.04814 0.0
C758 C 0.26943 0.57406 0.0382 0.0
C759 C 0.17532 0.56466 0.01878 0.0
C760 C 0.20792 0.56738 0.02444 0.0
H761 H 0.3425 0.5893 0.11283 0.0
H762 H 0.29132 0.57608 0.09565 0.0
H763 H 0.269 0.6135 0.0089 0.0
H764 H 0.11446 0.6053 0.02221 0.0
H765 H 0.1687 0.61061 0.02895 0.0
C766 C 0.16349 0.40011 0.59191 0.0
C767 C 0.14005 0.41685 0.58101 0.0
C768 C 0.19124 0.40347 0.57858 0.0
C769 C 0.23714 0.46015 0.5371 0.0
H770 H 0.28961 0.39611 0.52897 0.0
C771 C 0.35667 0.48364 0.49581 0.0
C772 C 0.37904 0.4687 0.51169 0.0
C773 C 0.32659 0.47517 0.49997 0.0
C774 C 0.27528 0.41426 0.53128 0.0
H775 H 0.12621 0.44875 0.54694 0.0
H776 H 0.1748 0.45478 0.52333 0.0
H777 H 0.23815 0.38435 0.54333 0.0
H778 H 0.3872 0.43264 0.54392 0.0
H779 H 0.33488 0.41831 0.55157 0.0
H780 H 0.27431 0.49015 0.52602 0.0
C781 C 0.17196 0.43935 0.54239 0.0
C782 C 0.24579 0.40751 0.53944 0.0
C783 C 0.14422 0.43588 0.55571 0.0
C784 C 0.3706 0.44465 0.53129 0.0
C785 C 0.34053 0.43627 0.53552 0.0
C786 C 0.2666 0.46691 0.52907 0.0
C787 C 0.19602 0.42375 0.55417 0.0
C788 C 0.22649 0.43042 0.54281 0.0
C789 C 0.31813 0.45164 0.52018 0.0
C790 C 0.28618 0.4441 0.52644 0.0
H791 H 0.16071 0.38562 0.61168 0.0
H792 H 0.20934 0.39136 0.58841 0.0
H793 H 0.22303 0.47838 0.54001 0.0
H794 H 0.36234 0.50211 0.48035 0.0
H795 H 0.30994 0.4872 0.48742 0.0
C796 C 0.95657 0.88499 0.91578 0.0
C797 C 0.92643 0.88645 0.90742 0.0
C798 C 0.96904 0.85726 0.91848 0.0
C799 C 0.97684 0.79468 0.94666 0.0
H800 H 0.9591 0.73162 0.88964 0.0
C801 C 0.00747 0.67354 0.97292 0.0
C802 C 0.98588 0.65085 0.96469 0.0
C803 C 0.00471 0.70301 0.96276 0.0
C804 C 0.96409 0.74892 0.90589 0.0
H805 H 0.88584 0.8612 0.89413 0.0
H806 H 0.90753 0.81271 0.89813 0.0
H807 H 0.947 0.78257 0.87613 0.0
H808 H 0.94444 0.6414 0.93931 0.0
H809 H 0.93918 0.69281 0.92236 0.0
H810 H 0.99247 0.76098 0.97706 0.0
C811 C 0.92167 0.8327 0.90262 0.0
C812 C 0.95736 0.7781 0.89803 0.0
C813 C 0.9092 0.86025 0.90045 0.0
C814 C 0.96154 0.65829 0.94599 0.0
C815 C 0.95867 0.68778 0.93603 0.0
C816 C 0.98332 0.76544 0.95464 0.0
C817 C 0.95151 0.83083 0.91234 0.0
C818 C 0.96305 0.80112 0.91861 0.0
C819 C 0.9802 0.71053 0.94431 0.0
C820 C 0.97635 0.74207 0.93462 0.0
H821 H 0.96996 0.90513 0.92144 0.0
H822 H 0.99211 0.85637 0.92599 0.0
H823 H 0.98111 0.81195 0.96309 0.0
H824 H 0.02665 0.66854 0.9871 0.0
H825 H 0.0219 0.71987 0.96927 0.0
C826 C 0.46594 0.67373 0.09984 0.0
C827 C 0.43597 0.66667 0.10598 0.0
C828 C 0.47805 0.70311 0.10241 0.0
C829 C 0.46639 0.77709 0.13262 0.0
H830 H 0.50067 0.80754 0.058 0.0
C831 C 0.47769 0.90312 0.10108 0.0
C832 C 0.50139 0.9139 0.08316 0.0
C833 C 0.47309 0.87252 0.10774 0.0
C834 C 0.4918 0.79946 0.07931 0.0
H835 H 0.39549 0.68341 0.12141 0.0
H836 H 0.41664 0.73486 0.12647 0.0
H837 H 0.48811 0.75436 0.06468 0.0
H838 H 0.5398 0.90135 0.05951 0.0
H839 H 0.5325 0.84837 0.07198 0.0
H840 H 0.46996 0.82223 0.14726 0.0
C841 C 0.43085 0.71794 0.11961 0.0
C842 C 0.48457 0.7689 0.08308 0.0
C843 C 0.41872 0.68869 0.11665 0.0
C844 C 0.52102 0.89366 0.07297 0.0
C845 C 0.51674 0.86322 0.08003 0.0
C846 C 0.474 0.8077 0.12902 0.0
C847 C 0.46036 0.72563 0.11158 0.0
C848 C 0.47134 0.75746 0.10954 0.0
C849 C 0.49238 0.85212 0.097 0.0
C850 C 0.48634 0.81935 0.10208 0.0
H851 H 0.4794 0.65685 0.09154 0.0
H852 H 0.50092 0.70844 0.09628 0.0
H853 H 0.45633 0.76878 0.15332 0.0
H854 H 0.46217 0.91819 0.10921 0.0
H855 H 0.45385 0.86483 0.12052 0.0
C856 C 0.10495 0.34025 0.61628 0.0
C857 C 0.09871 0.3632 0.59541 0.0
C858 C 0.10488 0.31078 0.60706 0.0
C859 C 0.11576 0.25174 0.57836 0.0
H860 H 0.04634 0.22393 0.53032 0.0
C861 C 0.09769 0.13087 0.53524 0.0
C862 C 0.06917 0.11681 0.53943 0.0
C863 C 0.10325 0.16137 0.54033 0.0
C864 C 0.06584 0.23138 0.54373 0.0
H865 H 0.08892 0.37419 0.54865 0.0
H866 H 0.0885 0.32232 0.5322 0.0
H867 H 0.05402 0.2768 0.54185 0.0
H868 H 0.02413 0.12391 0.55216 0.0
H869 H 0.03387 0.17709 0.56086 0.0
H870 H 0.12724 0.20616 0.58071 0.0
C871 C 0.09324 0.32704 0.55572 0.0
C872 C 0.07041 0.26168 0.55005 0.0
C873 C 0.09362 0.35659 0.56497 0.0
C874 C 0.04636 0.13398 0.54875 0.0
C875 C 0.05186 0.16451 0.55354 0.0
C876 C 0.11134 0.22145 0.57177 0.0
C877 C 0.0984 0.30377 0.57679 0.0
C878 C 0.09518 0.27211 0.5678 0.0
C879 C 0.08035 0.17853 0.54938 0.0
C880 C 0.08609 0.2109 0.55478 0.0
H881 H 0.10925 0.34515 0.63982 0.0
H882 H 0.10876 0.29335 0.62385 0.0
H883 H 0.13514 0.25919 0.59195 0.0
H884 H 0.11577 0.11831 0.52809 0.0
H885 H 0.12538 0.17163 0.5368 0.0
C886 C 0.64162 0.20583 0.45779 0.0
C887 C 0.62682 0.17727 0.45827 0.0
C888 C 0.62654 0.23082 0.4646 0.0
C889 C 0.55411 0.2594 0.45762 0.0
H890 H 0.58425 0.31871 0.51482 0.0
C891 C 0.52181 0.38242 0.45751 0.0
C892 C 0.51379 0.39296 0.48539 0.0
C893 C 0.53267 0.3541 0.4557 0.0
C894 C 0.57552 0.30221 0.49892 0.0
H895 H 0.58518 0.15216 0.46718 0.0
H896 H 0.5583 0.1962 0.47802 0.0
H897 H 0.60994 0.2727 0.51037 0.0
H898 H 0.51036 0.38186 0.53312 0.0
H899 H 0.53006 0.33273 0.52995 0.0
H900 H 0.52041 0.28948 0.4453 0.0
C901 C 0.58161 0.1991 0.47261 0.0
C902 C 0.59024 0.27605 0.49632 0.0
C903 C 0.5969 0.17403 0.46643 0.0
C904 C 0.51622 0.37435 0.51128 0.0
C905 C 0.52762 0.34632 0.50955 0.0
C906 C 0.53976 0.28585 0.45977 0.0
C907 C 0.59626 0.22771 0.47142 0.0
C908 C 0.57971 0.2545 0.47558 0.0
C909 C 0.53623 0.33611 0.48182 0.0
C910 C 0.55042 0.3075 0.48037 0.0
H911 H 0.66449 0.20894 0.45098 0.0
H912 H 0.6382 0.25273 0.46328 0.0
H913 H 0.54577 0.24316 0.44129 0.0
H914 H 0.52013 0.39622 0.43718 0.0
H915 H 0.53931 0.3467 0.43408 0.0
loop_
_geom_bond_atom_site_label_1
_geom_bond_atom_site_label_2
_geom_bond_distance
_geom_bond_site_symmetry_2
_ccdc_geom_bond_type
C0 N1 1.317 . S
C0 N2 1.348 . S
C0 C3 1.485 . S
N1 C0 1.317 . S
N1 N5 1.370 . S
N2 C0 1.348 . S
N2 C4 1.346 . S
C3 C0 1.485 . S
C3 H7 0.960 . S
C3 H8 0.961 . S
C3 H9 0.960 . S
C4 N2 1.346 . S
C4 N5 1.307 . S
C4 C6 1.486 . S
N5 N1 1.370 . S
N5 C4 1.307 . S
C6 C4 1.486 . S
C6 H10 0.960 . S
C6 H11 0.960 . S
C6 H12 0.959 . S
H7 C3 0.960 . S
H8 C3 0.961 . S
H9 C3 0.960 . S
H10 C6 0.960 . S
H11 C6 0.960 . S
H12 C6 0.959 . S
C13 N14 1.317 . S
C13 N15 1.348 . S
C13 C16 1.485 . S
N14 C13 1.317 . S
N14 N18 1.370 . S
N15 C13 1.348 . S
N15 C17 1.346 . S
C16 C13 1.485 . S
C16 H20 0.960 . S
C16 H21 0.961 . S
C16 H22 0.960 . S
C17 N15 1.346 . S
C17 N18 1.307 . S
C17 C19 1.486 . S
N18 N14 1.370 . S
N18 C17 1.307 . S
C19 C17 1.486 . S
C19 H23 0.960 . S
C19 H24 0.960 . S
C19 H25 0.959 . S
H20 C16 0.960 . S
H21 C16 0.961 . S
H22 C16 0.960 . S
H23 C19 0.960 . S
H24 C19 0.960 . S
H25 C19 0.959 . S
C26 N27 1.317 . S
C26 N28 1.348 . S
C26 C29 1.485 . S
N27 C26 1.317 . S
N27 N31 1.370 . S
N28 C26 1.348 . S
N28 C30 1.346 . S
C29 C26 1.485 . S
C29 H33 0.960 . S
C29 H34 0.961 . S
C29 H35 0.960 . S
C30 N28 1.346 . S
C30 N31 1.307 . S
C30 C32 1.486 . S
N31 N27 1.370 . S
N31 C30 1.307 . S
C32 C30 1.486 . S
C32 H36 0.960 . S
C32 H37 0.960 . S
C32 H38 0.959 . S
H33 C29 0.960 . S
H34 C29 0.961 . S
H35 C29 0.960 . S
H36 C32 0.960 . S
H37 C32 0.960 . S
H38 C32 0.959 . S
C39 N40 1.317 . S
C39 N41 1.348 . S
C39 C42 1.485 . S
N40 C39 1.317 . S
N40 N44 1.370 . S
N41 C39 1.348 . S
N41 C43 1.346 . S
C42 C39 1.485 . S
C42 H46 0.960 . S
C42 H47 0.961 . S
C42 H48 0.960 . S
C43 N41 1.346 . S
C43 N44 1.307 . S
C43 C45 1.486 . S
N44 N40 1.370 . S
N44 C43 1.307 . S
C45 C43 1.486 . S
C45 H49 0.960 . S
C45 H50 0.960 . S
C45 H51 0.959 . S
H46 C42 0.960 . S
H47 C42 0.961 . S
H48 C42 0.960 . S
H49 C45 0.960 . S
H50 C45 0.960 . S
H51 C45 0.959 . S
C52 N53 1.317 . S
C52 N54 1.348 . S
C52 C55 1.485 . S
N53 C52 1.317 . S
N53 N57 1.370 . S
N54 C52 1.348 . S
N54 C56 1.346 . S
C55 C52 1.485 . S
C55 H59 0.960 . S
C55 H60 0.961 . S
C55 H61 0.960 . S
C56 N54 1.346 . S
C56 N57 1.307 . S
C56 C58 1.486 1_565 S
N57 N53 1.370 . S
N57 C56 1.307 . S
C58 C56 1.486 1_545 S
C58 H62 0.960 . S
C58 H63 0.960 . S
C58 H64 0.959 . S
H59 C55 0.960 . S
H60 C55 0.961 . S
H61 C55 0.960 . S
H62 C58 0.960 . S
H63 C58 0.960 . S
H64 C58 0.959 . S
C65 N66 1.317 . S
C65 N67 1.348 . S
C65 C68 1.485 . S
N66 C65 1.317 . S
N66 N70 1.370 . S
N67 C65 1.348 . S
N67 C69 1.346 . S
C68 C65 1.485 . S
C68 H72 0.960 . S
C68 H73 0.961 . S
C68 H74 0.960 . S
C69 N67 1.346 . S
C69 N70 1.307 . S
C69 C71 1.486 . S
N70 N66 1.370 . S
N70 C69 1.307 . S
C71 C69 1.486 . S
C71 H75 0.960 . S
C71 H76 0.960 . S
C71 H77 0.959 . S
H72 C68 0.960 . S
H73 C68 0.961 . S
H74 C68 0.960 . S
H75 C71 0.960 . S
H76 C71 0.960 . S
H77 C71 0.959 . S
C78 N79 1.317 . S
C78 N80 1.348 . S
C78 C81 1.485 . S
N79 C78 1.317 . S
N79 N83 1.370 . S
N80 C78 1.348 . S
N80 C82 1.346 . S
C81 C78 1.485 . S
C81 H85 0.960 . S
C81 H86 0.961 . S
C81 H87 0.960 . S
C82 N80 1.346 . S
C82 N83 1.307 . S
C82 C84 1.486 . S
N83 N79 1.370 . S
N83 C82 1.307 . S
C84 C82 1.486 . S
C84 H88 0.960 . S
C84 H89 0.960 . S
C84 H90 0.959 . S
H85 C81 0.960 . S
H86 C81 0.961 . S
H87 C81 0.960 . S
H88 C84 0.960 . S
H89 C84 0.960 . S
H90 C84 0.959 . S
C91 N92 1.317 . S
C91 N93 1.348 . S
C91 C94 1.485 . S
N92 C91 1.317 . S
N92 N96 1.370 . S
N93 C91 1.348 . S
N93 C95 1.346 . S
C94 C91 1.485 . S
C94 H98 0.960 . S
C94 H99 0.961 . S
C94 H100 0.960 . S
C95 N93 1.346 . S
C95 N96 1.307 . S
C95 C97 1.486 . S
N96 N92 1.370 . S
N96 C95 1.307 . S
C97 C95 1.486 . S
C97 H101 0.960 . S
C97 H102 0.960 . S
C97 H103 0.959 . S
H98 C94 0.960 . S
H99 C94 0.961 . S
H100 C94 0.960 . S
H101 C97 0.960 . S
H102 C97 0.960 . S
H103 C97 0.959 . S
O104 Zn105 1.953 . S
O104 C120 1.225 . S
Zn105 O104 1.953 . S
Zn105 O106 1.949 . S
Zn105 O112 1.919 1_455 S
Zn105 O117 1.924 . S
O106 Zn105 1.949 . S
O106 Zn107 1.923 1_545 S
O106 Zn108 1.950 . S
O106 Zn109 1.945 1_545 S
Zn107 O106 1.923 1_565 S
Zn107 O110 1.933 . S
Zn107 O113 1.941 1_465 S
Zn107 O114 1.965 1_565 S
Zn108 O106 1.950 . S
Zn108 O115 1.938 . S
Zn108 O116 1.906 . S
Zn108 O126 1.953 . S
Zn109 O106 1.945 1_565 S
Zn109 O111 1.932 . S
Zn109 O118 1.977 . S
Zn109 O119 1.910 . S
O110 Zn107 1.933 . S
O110 C121 1.226 . S
O111 Zn109 1.932 . S
O111 C121 1.307 . S
O112 Zn105 1.919 1_655 S
O112 C123 1.253 . S
O113 Zn107 1.941 1_645 S
O113 C123 1.283 . S
O114 Zn107 1.965 1_545 S
O114 C122 1.303 . S
O115 Zn108 1.938 . S
O115 C122 1.247 . S
O116 Zn108 1.906 . S
O116 C124 1.304 1_545 S
O117 Zn105 1.924 . S
O117 C125 1.307 1_545 S
O118 Zn109 1.977 . S
O118 C124 1.272 . S
O119 Zn109 1.910 . S
O119 C125 1.235 . S
C120 O104 1.225 . S
C120 O126 1.298 . S
C121 O110 1.226 . S
C121 O111 1.307 . S
C122 O114 1.303 . S
C122 O115 1.247 . S
C123 O112 1.253 . S
C123 O113 1.283 . S
C124 O116 1.304 1_565 S
C124 O118 1.272 . S
C125 O117 1.307 1_565 S
C125 O119 1.235 . S
O126 Zn108 1.953 . S
O126 C120 1.298 . S
O127 Zn128 1.953 . S
O127 C143 1.225 . S
Zn128 O127 1.953 . S
Zn128 O129 1.949 . S
Zn128 O135 1.919 1_554 S
Zn128 O140 1.924 . S
O129 Zn128 1.949 . S
O129 Zn130 1.923 1_545 S
O129 Zn131 1.950 . S
O129 Zn132 1.945 . S
Zn130 O129 1.923 1_565 S
Zn130 O133 1.933 . S
Zn130 O136 1.941 1_554 S
Zn130 O137 1.965 . S
Zn131 O129 1.950 . S
Zn131 O138 1.938 . S
Zn131 O139 1.906 . S
Zn131 O149 1.953 . S
Zn132 O129 1.945 . S
Zn132 O134 1.932 1_545 S
Zn132 O141 1.977 . S
Zn132 O142 1.910 . S
O133 Zn130 1.933 . S
O133 C144 1.226 . S
O134 Zn132 1.932 1_565 S
O134 C144 1.307 . S
O135 Zn128 1.919 1_556 S
O135 C146 1.253 1_545 S
O136 Zn130 1.941 1_556 S
O136 C146 1.283 . S
O137 Zn130 1.965 . S
O137 C145 1.303 1_565 S
O138 Zn131 1.938 . S
O138 C145 1.247 . S
O139 Zn131 1.906 . S
O139 C147 1.304 . S
O140 Zn128 1.924 . S
O140 C148 1.311 . S
O141 Zn132 1.977 . S
O141 C147 1.272 . S
O142 Zn132 1.910 . S
O142 C148 1.231 . S
C143 O127 1.225 . S
C143 O149 1.298 . S
C144 O133 1.226 . S
C144 O134 1.307 . S
C145 O137 1.303 1_545 S
C145 O138 1.247 . S
C146 O135 1.253 1_565 S
C146 O136 1.283 . S
C147 O139 1.304 . S
C147 O141 1.272 . S
C148 O140 1.311 . S
C148 O142 1.231 . S
O149 Zn131 1.953 . S
O149 C143 1.298 . S
O150 Zn151 1.953 . S
O150 C166 1.225 . S
Zn151 O150 1.953 . S
Zn151 O152 1.949 . S
Zn151 O158 1.919 . S
Zn151 O163 1.924 . S
O152 Zn151 1.949 . S
O152 Zn153 1.923 . S
O152 Zn154 1.950 . S
O152 Zn155 1.945 . S
Zn153 O152 1.923 . S
Zn153 O156 1.933 . S
Zn153 O159 1.941 . S
Zn153 O160 1.965 . S
Zn154 O152 1.950 . S
Zn154 O161 1.938 . S
Zn154 O162 1.906 . S
Zn154 O172 1.953 . S
Zn155 O152 1.945 . S
Zn155 O157 1.932 . S
Zn155 O164 1.977 . S
Zn155 O165 1.910 . S
O156 Zn153 1.933 . S
O156 C167 1.226 . S
O157 Zn155 1.932 . S
O157 C167 1.307 . S
O158 Zn151 1.919 . S
O158 C169 1.253 . S
O159 Zn153 1.941 . S
O159 C169 1.283 . S
O160 Zn153 1.965 . S
O160 C168 1.303 . S
O161 Zn154 1.938 . S
O161 C168 1.247 . S
O162 Zn154 1.906 . S
O162 C170 1.304 . S
O163 Zn151 1.924 . S
O163 C171 1.311 . S
O164 Zn155 1.977 . S
O164 C170 1.272 . S
O165 Zn155 1.910 . S
O165 C171 1.231 . S
C166 O150 1.225 . S
C166 O172 1.298 . S
C167 O156 1.226 . S
C167 O157 1.307 . S
C168 O160 1.303 . S
C168 O161 1.247 . S
C169 O158 1.253 . S
C169 O159 1.283 . S
C170 O162 1.304 . S
C170 O164 1.272 . S
C171 O163 1.311 . S
C171 O165 1.231 . S
O172 Zn154 1.953 . S
O172 C166 1.298 . S
O173 Zn174 1.953 . S
O173 C189 1.225 . S
Zn174 O173 1.953 . S
Zn174 O175 1.949 1_655 S
Zn174 O181 1.936 . S
Zn174 O186 1.924 . S
O175 Zn174 1.949 1_455 S
O175 Zn176 1.923 1_454 S
O175 Zn177 1.950 . S
O175 Zn178 1.945 1_554 S
Zn176 O175 1.923 1_656 S
Zn176 O179 1.933 1_655 S
Zn176 O182 1.941 . S
Zn176 O183 1.965 . S
Zn177 O175 1.950 . S
Zn177 O184 1.938 . S
Zn177 O185 1.906 . S
Zn177 O195 1.953 . S
Zn178 O175 1.945 1_556 S
Zn178 O180 1.932 . S
Zn178 O187 1.977 1_556 S
Zn178 O188 1.910 1_556 S
O179 Zn176 1.933 1_455 S
O179 C190 1.226 . S
O180 Zn178 1.932 . S
O180 C190 1.307 . S
O181 Zn174 1.936 . S
O181 C192 1.223 1_554 S
O182 Zn176 1.941 . S
O182 C192 1.283 . S
O183 Zn176 1.965 . S
O183 C191 1.303 . S
O184 Zn177 1.938 . S
O184 C191 1.247 1_454 S
O185 Zn177 1.906 . S
O185 C193 1.304 . S
O186 Zn174 1.924 . S
O186 C194 1.311 1_655 S
O187 Zn178 1.977 1_554 S
O187 C193 1.272 . S
O188 Zn178 1.910 1_554 S
O188 C194 1.231 . S
C189 O173 1.225 . S
C189 O195 1.298 1_655 S
C190 O179 1.226 . S
C190 O180 1.307 . S
C191 O183 1.303 . S
C191 O184 1.247 1_656 S
C192 O181 1.223 1_556 S
C192 O182 1.283 . S
C193 O185 1.304 . S
C193 O187 1.272 . S
C194 O186 1.311 1_455 S
C194 O188 1.231 . S
O195 Zn177 1.953 . S
O195 C189 1.298 1_455 S
C196 C197 1.349 . S
C196 C198 1.327 . S
C196 H221 0.950 . S
C197 C196 1.349 . S
C197 C213 1.349 . S
C198 C196 1.327 . S
C198 C217 1.429 . S
C198 H222 0.950 . S
C199 C216 1.574 . S
C199 C218 1.368 . S
C199 H223 0.949 . S
H200 C204 0.949 . S
C201 C202 1.349 . S
C201 C203 1.327 . S
C201 H224 0.950 . S
C202 C201 1.349 . S
C202 C214 1.349 . S
C203 C201 1.327 . S
C203 C219 1.429 . S
C203 H225 0.950 . S
C204 H200 0.949 . S
C204 C212 1.574 . S
C204 C220 1.368 . S
H205 C213 0.950 . S
H206 C211 0.950 . S
H207 C212 0.949 . S
H208 C214 0.950 . S
H209 C215 0.950 . S
H210 C216 0.949 . S
C211 H206 0.950 . S
C211 C213 1.327 . S
C211 C217 1.429 . S
C212 C204 1.574 . S
C212 H207 0.949 . S
C212 C218 1.368 . S
C213 C197 1.349 . S
C213 H205 0.950 . S
C213 C211 1.327 . S
C214 C202 1.349 . S
C214 H208 0.950 . S
C214 C215 1.327 . S
C215 H209 0.950 . S
C215 C214 1.327 . S
C215 C219 1.429 . S
C216 C199 1.574 . S
C216 H210 0.949 . S
C216 C220 1.368 . S
C217 C198 1.429 . S
C217 C211 1.429 . S
C217 C218 1.523 . S
C218 C199 1.368 . S
C218 C212 1.368 . S
C218 C217 1.523 . S
C219 C203 1.429 . S
C219 C215 1.429 . S
C219 C220 1.523 . S
C220 C204 1.368 . S
C220 C216 1.368 . S
C220 C219 1.523 . S
H221 C196 0.950 . S
H222 C198 0.950 . S
H223 C199 0.949 . S
H224 C201 0.950 . S
H225 C203 0.950 . S
C226 C227 1.349 . S
C226 C228 1.327 . S
C226 H251 0.950 . S
C227 C226 1.349 . S
C227 C243 1.349 . S
C228 C226 1.327 . S
C228 C247 1.429 . S
C228 H252 0.950 . S
C229 C246 1.574 . S
C229 C248 1.368 . S
C229 H253 0.949 . S
H230 C234 0.949 . S
C231 C232 1.349 . S
C231 C233 1.327 . S
C231 H254 0.950 . S
C232 C231 1.349 . S
C232 C244 1.349 . S
C233 C231 1.327 . S
C233 C249 1.429 . S
C233 H255 0.950 . S
C234 H230 0.949 . S
C234 C242 1.574 . S
C234 C250 1.368 . S
H235 C243 0.950 . S
H236 C241 0.950 . S
H237 C242 0.949 . S
H238 C244 0.950 1_545 S
H239 C245 0.950 . S
H240 C246 0.949 . S
C241 H236 0.950 . S
C241 C243 1.327 . S
C241 C247 1.429 . S
C242 C234 1.574 . S
C242 H237 0.949 . S
C242 C248 1.368 . S
C243 C227 1.349 . S
C243 H235 0.950 . S
C243 C241 1.327 . S
C244 C232 1.349 . S
C244 H238 0.950 1_565 S
C244 C245 1.327 . S
C245 H239 0.950 . S
C245 C244 1.327 . S
C245 C249 1.429 . S
C246 C229 1.574 . S
C246 H240 0.949 . S
C246 C250 1.368 . S
C247 C228 1.429 . S
C247 C241 1.429 . S
C247 C248 1.523 . S
C248 C229 1.368 . S
C248 C242 1.368 . S
C248 C247 1.523 . S
C249 C233 1.429 . S
C249 C245 1.429 . S
C249 C250 1.523 . S
C250 C234 1.368 . S
C250 C246 1.368 . S
C250 C249 1.523 . S
H251 C226 0.950 . S
H252 C228 0.950 . S
H253 C229 0.949 . S
H254 C231 0.950 . S
H255 C233 0.950 . S
C256 C257 1.349 . S
C256 C258 1.327 . S
C256 H281 0.950 . S
C257 C256 1.349 . S
C257 C273 1.349 . S
C258 C256 1.327 . S
C258 C277 1.429 . S
C258 H282 0.950 . S
C259 C276 1.574 . S
C259 C278 1.368 . S
C259 H283 0.949 . S
H260 C264 0.949 . S
C261 C262 1.349 . S
C261 C263 1.327 . S
C261 H284 0.950 . S
C262 C261 1.349 . S
C262 C274 1.349 . S
C263 C261 1.327 . S
C263 C279 1.429 . S
C263 H285 0.950 . S
C264 H260 0.949 . S
C264 C272 1.574 . S
C264 C280 1.368 . S
H265 C273 0.950 . S
H266 C271 0.950 . S
H267 C272 0.949 . S
H268 C274 0.950 . S
H269 C275 0.950 . S
H270 C276 0.949 . S
C271 H266 0.950 . S
C271 C273 1.327 . S
C271 C277 1.429 . S
C272 C264 1.574 . S
C272 H267 0.949 . S
C272 C278 1.368 . S
C273 C257 1.349 . S
C273 H265 0.950 . S
C273 C271 1.327 . S
C274 C262 1.349 . S
C274 H268 0.950 . S
C274 C275 1.327 . S
C275 H269 0.950 . S
C275 C274 1.327 . S
C275 C279 1.429 . S
C276 C259 1.574 . S
C276 H270 0.949 . S
C276 C280 1.368 . S
C277 C258 1.429 . S
C277 C271 1.429 . S
C277 C278 1.523 . S
C278 C259 1.368 . S
C278 C272 1.368 . S
C278 C277 1.523 . S
C279 C263 1.429 . S
C279 C275 1.429 . S
C279 C280 1.523 . S
C280 C264 1.368 . S
C280 C276 1.368 . S
C280 C279 1.523 . S
H281 C256 0.950 . S
H282 C258 0.950 . S
H283 C259 0.949 . S
H284 C261 0.950 . S
H285 C263 0.950 . S
C286 C287 1.349 . S
C286 C288 1.327 . S
C286 H311 0.950 . S
C287 C286 1.349 . S
C287 C303 1.349 . S
C288 C286 1.327 . S
C288 C307 1.429 . S
C288 H312 0.950 . S
C289 C306 1.574 . S
C289 C308 1.368 . S
C289 H313 0.949 . S
H290 C294 0.949 . S
C291 C292 1.349 . S
C291 C293 1.327 . S
C291 H314 0.950 . S
C292 C291 1.349 . S
C292 C304 1.349 . S
C293 C291 1.327 . S
C293 C309 1.429 . S
C293 H315 0.950 . S
C294 H290 0.949 . S
C294 C302 1.574 . S
C294 C310 1.368 . S
H295 C303 0.950 . S
H296 C301 0.950 . S
H297 C302 0.949 . S
H298 C304 0.950 1_455 S
H299 C305 0.950 1_455 S
H300 C306 0.949 . S
C301 H296 0.950 . S
C301 C303 1.327 . S
C301 C307 1.429 . S
C302 C294 1.574 . S
C302 H297 0.949 . S
C302 C308 1.368 . S
C303 C287 1.349 . S
C303 H295 0.950 . S
C303 C301 1.327 . S
C304 C292 1.349 . S
C304 H298 0.950 1_655 S
C304 C305 1.327 . S
C305 H299 0.950 1_655 S
C305 C304 1.327 . S
C305 C309 1.429 . S
C306 C289 1.574 . S
C306 H300 0.949 . S
C306 C310 1.368 . S
C307 C288 1.429 . S
C307 C301 1.429 . S
C307 C308 1.523 . S
C308 C289 1.368 . S
C308 C302 1.368 . S
C308 C307 1.523 . S
C309 C293 1.429 . S
C309 C305 1.429 . S
C309 C310 1.523 . S
C310 C294 1.368 . S
C310 C306 1.368 . S
C310 C309 1.523 . S
H311 C286 0.950 . S
H312 C288 0.950 . S
H313 C289 0.949 . S
H314 C291 0.950 . S
H315 C293 0.950 . S
C316 C317 1.349 . S
C316 C318 1.327 . S
C316 H341 0.950 . S
C317 C316 1.349 . S
C317 C333 1.349 . S
C318 C316 1.327 . S
C318 C337 1.429 . S
C318 H342 0.950 . S
C319 C336 1.574 . S
C319 C338 1.368 . S
C319 H343 0.949 . S
H320 C324 0.949 . S
C321 C322 1.349 . S
C321 C323 1.327 . S
C321 H344 0.950 . S
C322 C321 1.349 . S
C322 C334 1.349 . S
C323 C321 1.327 . S
C323 C339 1.429 . S
C323 H345 0.950 . S
C324 H320 0.949 . S
C324 C332 1.574 . S
C324 C340 1.368 . S
H325 C333 0.950 . S
H326 C331 0.950 . S
H327 C332 0.949 . S
H328 C334 0.950 . S
H329 C335 0.950 . S
H330 C336 0.949 . S
C331 H326 0.950 . S
C331 C333 1.327 . S
C331 C337 1.429 . S
C332 C324 1.574 . S
C332 H327 0.949 . S
C332 C338 1.368 . S
C333 C317 1.349 . S
C333 H325 0.950 . S
C333 C331 1.327 . S
C334 C322 1.349 . S
C334 H328 0.950 . S
C334 C335 1.327 . S
C335 H329 0.950 . S
C335 C334 1.327 . S
C335 C339 1.429 . S
C336 C319 1.574 . S
C336 H330 0.949 . S
C336 C340 1.368 . S
C337 C318 1.429 . S
C337 C331 1.429 . S
C337 C338 1.523 . S
C338 C319 1.368 . S
C338 C332 1.368 . S
C338 C337 1.523 . S
C339 C323 1.429 . S
C339 C335 1.429 . S
C339 C340 1.523 . S
C340 C324 1.368 . S
C340 C336 1.368 . S
C340 C339 1.523 . S
H341 C316 0.950 . S
H342 C318 0.950 . S
H343 C319 0.949 . S
H344 C321 0.950 . S
H345 C323 0.950 . S
C346 C347 1.349 . S
C346 C348 1.327 . S
C346 H371 0.950 . S
C347 C346 1.349 . S
C347 C363 1.349 . S
C348 C346 1.327 . S
C348 C367 1.429 . S
C348 H372 0.950 . S
C349 C366 1.574 . S
C349 C368 1.368 . S
C349 H373 0.949 . S
H350 C354 0.949 . S
C351 C352 1.349 . S
C351 C353 1.327 . S
C351 H374 0.950 . S
C352 C351 1.349 . S
C352 C364 1.349 . S
C353 C351 1.327 . S
C353 C369 1.429 . S
C353 H375 0.950 . S
C354 H350 0.949 . S
C354 C362 1.574 . S
C354 C370 1.368 . S
H355 C363 0.950 . S
H356 C361 0.950 . S
H357 C362 0.949 . S
H358 C364 0.950 . S
H359 C365 0.950 . S
H360 C366 0.949 . S
C361 H356 0.950 . S
C361 C363 1.327 . S
C361 C367 1.429 . S
C362 C354 1.574 . S
C362 H357 0.949 . S
C362 C368 1.368 . S
C363 C347 1.349 . S
C363 H355 0.950 . S
C363 C361 1.327 . S
C364 C352 1.349 . S
C364 H358 0.950 . S
C364 C365 1.327 . S
C365 H359 0.950 . S
C365 C364 1.327 . S
C365 C369 1.429 . S
C366 C349 1.574 . S
C366 H360 0.949 . S
C366 C370 1.368 . S
C367 C348 1.429 . S
C367 C361 1.429 . S
C367 C368 1.523 . S
C368 C349 1.368 . S
C368 C362 1.368 . S
C368 C367 1.523 . S
C369 C353 1.429 . S
C369 C365 1.429 . S
C369 C370 1.523 . S
C370 C354 1.368 . S
C370 C366 1.368 . S
C370 C369 1.523 . S
H371 C346 0.950 . S
H372 C348 0.950 . S
H373 C349 0.949 . S
H374 C351 0.950 . S
H375 C353 0.950 . S
C376 C377 1.349 . S
C376 C378 1.327 . S
C376 H401 0.950 . S
C377 C376 1.349 . S
C377 C393 1.349 . S
C378 C376 1.327 . S
C378 C397 1.429 . S
C378 H402 0.950 . S
C379 C396 1.574 . S
C379 C398 1.368 . S
C379 H403 0.949 . S
H380 C384 0.949 . S
C381 C382 1.349 . S
C381 C383 1.327 . S
C381 H404 0.950 . S
C382 C381 1.349 . S
C382 C394 1.349 . S
C383 C381 1.327 . S
C383 C399 1.429 . S
C383 H405 0.950 . S
C384 H380 0.949 . S
C384 C392 1.574 . S
C384 C400 1.368 . S
H385 C393 0.950 . S
H386 C391 0.950 . S
H387 C392 0.949 . S
H388 C394 0.950 . S
H389 C395 0.950 . S
H390 C396 0.949 . S
C391 H386 0.950 . S
C391 C393 1.327 . S
C391 C397 1.429 . S
C392 C384 1.574 . S
C392 H387 0.949 . S
C392 C398 1.368 . S
C393 C377 1.349 . S
C393 H385 0.950 . S
C393 C391 1.327 . S
C394 C382 1.349 . S
C394 H388 0.950 . S
C394 C395 1.327 . S
C395 H389 0.950 . S
C395 C394 1.327 . S
C395 C399 1.429 . S
C396 C379 1.574 . S
C396 H390 0.949 . S
C396 C400 1.368 . S
C397 C378 1.429 . S
C397 C391 1.429 . S
C397 C398 1.523 . S
C398 C379 1.368 . S
C398 C392 1.368 . S
C398 C397 1.523 . S
C399 C383 1.429 . S
C399 C395 1.429 . S
C399 C400 1.523 . S
C400 C384 1.368 . S
C400 C396 1.368 . S
C400 C399 1.523 . S
H401 C376 0.950 . S
H402 C378 0.950 . S
H403 C379 0.949 . S
H404 C381 0.950 . S
H405 C383 0.950 . S
C406 C407 1.349 . S
C406 C408 1.327 . S
C406 H431 0.950 . S
C407 C406 1.349 . S
C407 C423 1.349 . S
C408 C406 1.327 . S
C408 C427 1.429 . S
C408 H432 0.950 . S
C409 C426 1.574 . S
C409 C428 1.368 . S
C409 H433 0.949 . S
H410 C414 0.949 . S
C411 C412 1.349 . S
C411 C413 1.327 . S
C411 H434 0.950 . S
C412 C411 1.349 . S
C412 C424 1.349 . S
C413 C411 1.327 . S
C413 C429 1.429 . S
C413 H435 0.950 . S
C414 H410 0.949 . S
C414 C422 1.574 . S
C414 C430 1.368 . S
H415 C423 0.950 . S
H416 C421 0.950 . S
H417 C422 0.949 . S
H418 C424 0.950 . S
H419 C425 0.950 . S
H420 C426 0.949 . S
C421 H416 0.950 . S
C421 C423 1.327 . S
C421 C427 1.429 . S
C422 C414 1.574 . S
C422 H417 0.949 . S
C422 C428 1.368 . S
C423 C407 1.349 . S
C423 H415 0.950 . S
C423 C421 1.327 . S
C424 C412 1.349 . S
C424 H418 0.950 . S
C424 C425 1.327 . S
C425 H419 0.950 . S
C425 C424 1.327 . S
C425 C429 1.429 . S
C426 C409 1.574 . S
C426 H420 0.949 . S
C426 C430 1.368 . S
C427 C408 1.429 . S
C427 C421 1.429 . S
C427 C428 1.523 . S
C428 C409 1.368 . S
C428 C422 1.368 . S
C428 C427 1.523 . S
C429 C413 1.429 . S
C429 C425 1.429 . S
C429 C430 1.523 . S
C430 C414 1.368 . S
C430 C426 1.368 . S
C430 C429 1.523 . S
H431 C406 0.950 . S
H432 C408 0.950 . S
H433 C409 0.949 . S
H434 C411 0.950 . S
H435 C413 0.950 . S
C436 C437 1.349 . S
C436 C438 1.327 . S
C436 H461 0.950 . S
C437 C436 1.349 . S
C437 C453 1.349 . S
C438 C436 1.327 . S
C438 C457 1.429 . S
C438 H462 0.950 . S
C439 C456 1.574 . S
C439 C458 1.368 . S
C439 H463 0.949 . S
H440 C444 0.949 . S
C441 C442 1.349 . S
C441 C443 1.327 . S
C441 H464 0.950 . S
C442 C441 1.349 . S
C442 C454 1.349 . S
C443 C441 1.327 . S
C443 C459 1.429 . S
C443 H465 0.950 . S
C444 H440 0.949 . S
C444 C452 1.574 . S
C444 C460 1.368 . S
H445 C453 0.950 . S
H446 C451 0.950 . S
H447 C452 0.949 . S
H448 C454 0.950 . S
H449 C455 0.950 . S
H450 C456 0.949 . S
C451 H446 0.950 . S
C451 C453 1.327 . S
C451 C457 1.429 . S
C452 C444 1.574 . S
C452 H447 0.949 . S
C452 C458 1.368 . S
C453 C437 1.349 . S
C453 H445 0.950 . S
C453 C451 1.327 . S
C454 C442 1.349 . S
C454 H448 0.950 . S
C454 C455 1.327 . S
C455 H449 0.950 . S
C455 C454 1.327 . S
C455 C459 1.429 . S
C456 C439 1.574 . S
C456 H450 0.949 . S
C456 C460 1.368 . S
C457 C438 1.429 . S
C457 C451 1.429 . S
C457 C458 1.523 . S
C458 C439 1.368 . S
C458 C452 1.368 . S
C458 C457 1.523 . S
C459 C443 1.429 . S
C459 C455 1.429 . S
C459 C460 1.523 . S
C460 C444 1.368 . S
C460 C456 1.368 . S
C460 C459 1.523 . S
H461 C436 0.950 . S
H462 C438 0.950 . S
H463 C439 0.949 . S
H464 C441 0.950 . S
H465 C443 0.950 . S
C466 C467 1.349 . S
C466 C468 1.327 . S
C466 H491 0.950 . S
C467 C466 1.349 . S
C467 C483 1.349 . S
C468 C466 1.327 . S
C468 C487 1.429 . S
C468 H492 0.950 . S
C469 C486 1.574 . S
C469 C488 1.368 . S
C469 H493 0.949 . S
H470 C474 0.949 . S
C471 C472 1.343 1_556 S
C471 C473 1.333 . S
C471 H494 0.949 . S
C472 C471 1.343 1_554 S
C472 C484 1.349 . S
C473 C471 1.333 . S
C473 C489 1.429 . S
C473 H495 0.950 . S
C474 H470 0.949 . S
C474 C482 1.574 . S
C474 C490 1.368 . S
H475 C483 0.950 . S
H476 C481 0.950 . S
H477 C482 0.949 . S
H478 C484 0.950 . S
H479 C485 0.952 . S
H480 C486 0.949 . S
C481 H476 0.950 . S
C481 C483 1.327 . S
C481 C487 1.429 . S
C482 C474 1.574 . S
C482 H477 0.949 . S
C482 C488 1.368 . S
C483 C467 1.349 . S
C483 H475 0.950 . S
C483 C481 1.327 . S
C484 C472 1.349 . S
C484 H478 0.950 . S
C484 C485 1.337 . S
C485 H479 0.952 . S
C485 C484 1.337 . S
C485 C489 1.417 1_554 S
C486 C469 1.574 . S
C486 H480 0.949 . S
C486 C490 1.368 . S
C487 C468 1.429 . S
C487 C481 1.429 . S
C487 C488 1.523 . S
C488 C469 1.368 . S
C488 C482 1.368 . S
C488 C487 1.523 . S
C489 C473 1.429 . S
C489 C485 1.417 1_556 S
C489 C490 1.523 . S
C490 C474 1.368 . S
C490 C486 1.368 . S
C490 C489 1.523 . S
H491 C466 0.950 . S
H492 C468 0.950 . S
H493 C469 0.949 . S
H494 C471 0.949 . S
H495 C473 0.950 . S
C496 C497 1.349 . S
C496 C498 1.327 . S
C496 H521 0.950 . S
C497 C496 1.349 . S
C497 C513 1.349 . S
C498 C496 1.327 . S
C498 C517 1.429 . S
C498 H522 0.950 . S
C499 C516 1.574 . S
C499 C518 1.368 . S
C499 H523 0.949 . S
H500 C504 0.947 1_455 S
C501 C502 1.349 1_655 S
C501 C503 1.327 . S
C501 H524 0.950 . S
C502 C501 1.349 1_455 S
C502 C514 1.349 . S
C503 C501 1.327 . S
C503 C519 1.429 . S
C503 H525 0.950 . S
C504 H500 0.947 1_655 S
C504 C512 1.574 . S
C504 C520 1.368 . S
H505 C513 0.950 . S
H506 C511 0.950 . S
H507 C512 0.949 . S
H508 C514 0.950 . S
H509 C515 0.950 . S
H510 C516 0.949 . S
C511 H506 0.950 . S
C511 C513 1.327 . S
C511 C517 1.429 . S
C512 C504 1.574 . S
C512 H507 0.949 . S
C512 C518 1.368 . S
C513 C497 1.349 . S
C513 H505 0.950 . S
C513 C511 1.327 . S
C514 C502 1.349 . S
C514 H508 0.950 . S
C514 C515 1.327 . S
C515 H509 0.950 . S
C515 C514 1.327 . S
C515 C519 1.429 1_455 S
C516 C499 1.574 . S
C516 H510 0.949 . S
C516 C520 1.368 . S
C517 C498 1.429 . S
C517 C511 1.429 . S
C517 C518 1.523 . S
C518 C499 1.368 . S
C518 C512 1.368 . S
C518 C517 1.523 . S
C519 C503 1.429 . S
C519 C515 1.429 1_655 S
C519 C520 1.523 . S
C520 C504 1.368 . S
C520 C516 1.368 . S
C520 C519 1.523 . S
H521 C496 0.950 . S
H522 C498 0.950 . S
H523 C499 0.949 . S
H524 C501 0.950 . S
H525 C503 0.950 . S
C526 C527 1.349 . S
C526 C528 1.327 . S
C526 H551 0.950 . S
C527 C526 1.349 . S
C527 C543 1.349 . S
C528 C526 1.327 . S
C528 C547 1.429 . S
C528 H552 0.950 . S
C529 C546 1.574 . S
C529 C548 1.368 . S
C529 H553 0.949 . S
H530 C534 0.949 . S
C531 C532 1.349 . S
C531 C533 1.327 . S
C531 H554 0.950 . S
C532 C531 1.349 . S
C532 C544 1.349 . S
C533 C531 1.327 . S
C533 C549 1.429 . S
C533 H555 0.950 . S
C534 H530 0.949 . S
C534 C542 1.574 . S
C534 C550 1.368 . S
H535 C543 0.950 . S
H536 C541 0.950 . S
H537 C542 0.949 . S
H538 C544 0.950 . S
H539 C545 0.950 . S
H540 C546 0.949 . S
C541 H536 0.950 . S
C541 C543 1.327 . S
C541 C547 1.429 . S
C542 C534 1.574 . S
C542 H537 0.949 . S
C542 C548 1.368 . S
C543 C527 1.349 . S
C543 H535 0.950 . S
C543 C541 1.327 . S
C544 C532 1.349 . S
C544 H538 0.950 . S
C544 C545 1.327 . S
C545 H539 0.950 . S
C545 C544 1.327 . S
C545 C549 1.429 . S
C546 C529 1.574 . S
C546 H540 0.949 . S
C546 C550 1.368 . S
C547 C528 1.429 . S
C547 C541 1.429 . S
C547 C548 1.523 . S
C548 C529 1.368 . S
C548 C542 1.368 . S
C548 C547 1.523 . S
C549 C533 1.429 . S
C549 C545 1.429 . S
C549 C550 1.523 . S
C550 C534 1.368 . S
C550 C546 1.368 . S
C550 C549 1.523 . S
H551 C526 0.950 . S
H552 C528 0.950 . S
H553 C529 0.949 . S
H554 C531 0.950 . S
H555 C533 0.950 . S
C556 C557 1.349 . S
C556 C558 1.327 . S
C556 H581 0.950 . S
C557 C556 1.349 . S
C557 C573 1.349 . S
C558 C556 1.327 . S
C558 C577 1.429 . S
C558 H582 0.950 . S
C559 C576 1.574 . S
C559 C578 1.368 1_545 S
C559 H583 0.949 . S
H560 C564 0.949 . S
C561 C562 1.349 1_545 S
C561 C563 1.327 . S
C561 H584 0.950 . S
C562 C561 1.349 1_565 S
C562 C574 1.349 1_455 S
C563 C561 1.327 . S
C563 C579 1.429 1_445 S
C563 H585 0.950 . S
C564 H560 0.949 . S
C564 C572 1.574 . S
C564 C580 1.368 . S
H565 C573 0.950 1_545 S
H566 C571 0.950 1_545 S
H567 C572 0.949 . S
H568 C574 0.950 . S
H569 C575 0.950 . S
H570 C576 0.949 1_455 S
C571 H566 0.950 1_565 S
C571 C573 1.327 . S
C571 C577 1.429 . S
C572 C564 1.574 . S
C572 H567 0.949 . S
C572 C578 1.368 . S
C573 C557 1.349 . S
C573 H565 0.950 1_565 S
C573 C571 1.327 . S
C574 C562 1.349 1_655 S
C574 H568 0.950 . S
C574 C575 1.327 . S
C575 H569 0.950 . S
C575 C574 1.327 . S
C575 C579 1.429 . S
C576 C559 1.574 . S
C576 H570 0.949 1_655 S
C576 C580 1.368 1_545 S
C577 C558 1.429 . S
C577 C571 1.429 . S
C577 C578 1.523 . S
C578 C559 1.368 1_565 S
C578 C572 1.368 . S
C578 C577 1.523 . S
C579 C563 1.429 1_665 S
C579 C575 1.429 . S
C579 C580 1.523 . S
C580 C564 1.368 . S
C580 C576 1.368 1_565 S
C580 C579 1.523 . S
H581 C556 0.950 . S
H582 C558 0.950 . S
H583 C559 0.949 . S
H584 C561 0.950 . S
H585 C563 0.950 . S
C586 C587 1.349 . S
C586 C588 1.327 . S
C586 H611 0.950 . S
C587 C586 1.349 . S
C587 C603 1.349 . S
C588 C586 1.327 . S
C588 C607 1.429 . S
C588 H612 0.950 . S
C589 C606 1.574 . S
C589 C608 1.368 . S
C589 H613 0.949 . S
H590 C594 0.949 . S
C591 C592 1.349 . S
C591 C593 1.327 . S
C591 H614 0.950 . S
C592 C591 1.349 . S
C592 C604 1.349 . S
C593 C591 1.327 . S
C593 C609 1.429 . S
C593 H615 0.950 . S
C594 H590 0.949 . S
C594 C602 1.574 . S
C594 C610 1.368 . S
H595 C603 0.950 . S
H596 C601 0.950 . S
H597 C602 0.949 . S
H598 C604 0.950 . S
H599 C605 0.950 . S
H600 C606 0.949 . S
C601 H596 0.950 . S
C601 C603 1.327 . S
C601 C607 1.429 . S
C602 C594 1.574 . S
C602 H597 0.949 . S
C602 C608 1.368 . S
C603 C587 1.349 . S
C603 H595 0.950 . S
C603 C601 1.327 . S
C604 C592 1.349 . S
C604 H598 0.950 . S
C604 C605 1.327 . S
C605 H599 0.950 . S
C605 C604 1.327 . S
C605 C609 1.429 . S
C606 C589 1.574 . S
C606 H600 0.949 . S
C606 C610 1.368 . S
C607 C588 1.429 . S
C607 C601 1.429 . S
C607 C608 1.523 . S
C608 C589 1.368 . S
C608 C602 1.368 . S
C608 C607 1.523 . S
C609 C593 1.429 . S
C609 C605 1.429 . S
C609 C610 1.523 . S
C610 C594 1.368 . S
C610 C606 1.368 . S
C610 C609 1.523 . S
H611 C586 0.950 . S
H612 C588 0.950 . S
H613 C589 0.949 . S
H614 C591 0.950 . S
H615 C593 0.950 . S
C616 C617 1.349 . S
C616 C618 1.327 . S
C616 H641 0.950 . S
C617 C616 1.349 . S
C617 C633 1.349 . S
C618 C616 1.327 . S
C618 C637 1.429 . S
C618 H642 0.950 . S
C619 C636 1.574 . S
C619 C638 1.368 . S
C619 H643 0.949 . S
H620 C624 0.949 . S
C621 C622 1.349 . S
C621 C623 1.327 . S
C621 H644 0.950 . S
C622 C621 1.349 . S
C622 C634 1.349 . S
C623 C621 1.327 . S
C623 C639 1.429 . S
C623 H645 0.950 . S
C624 H620 0.949 . S
C624 C632 1.574 . S
C624 C640 1.368 . S
H625 C633 0.950 . S
H626 C631 0.950 . S
H627 C632 0.949 . S
H628 C634 0.950 . S
H629 C635 0.950 . S
H630 C636 0.949 . S
C631 H626 0.950 . S
C631 C633 1.327 . S
C631 C637 1.429 . S
C632 C624 1.574 . S
C632 H627 0.949 . S
C632 C638 1.368 . S
C633 C617 1.349 . S
C633 H625 0.950 . S
C633 C631 1.327 . S
C634 C622 1.349 . S
C634 H628 0.950 . S
C634 C635 1.327 . S
C635 H629 0.950 . S
C635 C634 1.327 . S
C635 C639 1.429 . S
C636 C619 1.574 . S
C636 H630 0.949 . S
C636 C640 1.368 . S
C637 C618 1.429 . S
C637 C631 1.429 . S
C637 C638 1.523 . S
C638 C619 1.368 . S
C638 C632 1.368 . S
C638 C637 1.523 . S
C639 C623 1.429 . S
C639 C635 1.429 . S
C639 C640 1.523 . S
C640 C624 1.368 . S
C640 C636 1.368 . S
C640 C639 1.523 . S
H641 C616 0.950 . S
H642 C618 0.950 . S
H643 C619 0.949 . S
H644 C621 0.950 . S
H645 C623 0.950 . S
C646 C647 1.349 . S
C646 C648 1.327 . S
C646 H671 0.950 . S
C647 C646 1.349 . S
C647 C663 1.349 . S
C648 C646 1.327 . S
C648 C667 1.429 . S
C648 H672 0.950 . S
C649 C666 1.574 . S
C649 C668 1.368 . S
C649 H673 0.949 . S
H650 C654 0.949 . S
C651 C652 1.349 . S
C651 C653 1.327 . S
C651 H674 0.950 . S
C652 C651 1.349 . S
C652 C664 1.349 . S
C653 C651 1.327 . S
C653 C669 1.429 . S
C653 H675 0.950 . S
C654 H650 0.949 . S
C654 C662 1.574 . S
C654 C670 1.368 . S
H655 C663 0.950 . S
H656 C661 0.950 . S
H657 C662 0.949 . S
H658 C664 0.950 . S
H659 C665 0.950 . S
H660 C666 0.949 . S
C661 H656 0.950 . S
C661 C663 1.327 . S
C661 C667 1.429 . S
C662 C654 1.574 . S
C662 H657 0.949 . S
C662 C668 1.368 . S
C663 C647 1.349 . S
C663 H655 0.950 . S
C663 C661 1.327 . S
C664 C652 1.349 . S
C664 H658 0.950 . S
C664 C665 1.327 . S
C665 H659 0.950 . S
C665 C664 1.327 . S
C665 C669 1.429 . S
C666 C649 1.574 . S
C666 H660 0.949 . S
C666 C670 1.368 . S
C667 C648 1.429 . S
C667 C661 1.429 . S
C667 C668 1.523 . S
C668 C649 1.368 . S
C668 C662 1.368 . S
C668 C667 1.523 . S
C669 C653 1.429 . S
C669 C665 1.429 . S
C669 C670 1.523 . S
C670 C654 1.368 . S
C670 C666 1.368 . S
C670 C669 1.523 . S
H671 C646 0.950 . S
H672 C648 0.950 . S
H673 C649 0.949 . S
H674 C651 0.950 . S
H675 C653 0.950 . S
C676 C677 1.349 1_545 S
C676 C678 1.327 . S
C676 H701 0.950 . S
C677 C676 1.349 1_565 S
C677 C693 1.349 . S
C678 C676 1.327 . S
C678 C697 1.429 1_545 S
C678 H702 0.950 . S
C679 C696 1.574 1_556 S
C679 C698 1.368 . S
C679 H703 0.949 . S
H680 C684 0.949 . S
C681 C682 1.349 1_565 S
C681 C683 1.327 . S
C681 H704 0.950 . S
C682 C681 1.349 1_545 S
C682 C694 1.349 . S
C683 C681 1.327 . S
C683 C699 1.429 1_565 S
C683 H705 0.950 . S
C684 H680 0.949 . S
C684 C692 1.574 . S
C684 C700 1.368 1_545 S
H685 C693 0.950 . S
H686 C691 0.950 . S
H687 C692 0.949 . S
H688 C694 0.950 . S
H689 C695 0.935 1_556 S
H690 C696 0.949 . S
C691 H686 0.950 . S
C691 C693 1.327 . S
C691 C697 1.429 . S
C692 C684 1.574 . S
C692 H687 0.949 . S
C692 C698 1.368 1_545 S
C693 C677 1.349 . S
C693 H685 0.950 . S
C693 C691 1.327 . S
C694 C682 1.349 . S
C694 H688 0.950 . S
C694 C695 1.338 . S
C695 H689 0.935 1_554 S
C695 C694 1.338 . S
C695 C699 1.433 . S
C696 C679 1.574 1_554 S
C696 H690 0.949 . S
C696 C700 1.368 1_554 S
C697 C678 1.429 1_565 S
C697 C691 1.429 . S
C697 C698 1.523 . S
C698 C679 1.368 . S
C698 C692 1.368 1_565 S
C698 C697 1.523 . S
C699 C683 1.429 1_545 S
C699 C695 1.433 . S
C699 C700 1.523 1_544 S
C700 C684 1.368 1_565 S
C700 C696 1.368 1_556 S
C700 C699 1.523 1_566 S
H701 C676 0.950 . S
H702 C678 0.950 . S
H703 C679 0.949 . S
H704 C681 0.950 . S
H705 C683 0.950 . S
C706 C707 1.349 . S
C706 C708 1.327 . S
C706 H731 0.950 . S
C707 C706 1.349 . S
C707 C723 1.349 . S
C708 C706 1.327 . S
C708 C727 1.429 . S
C708 H732 0.950 . S
C709 C726 1.574 . S
C709 C728 1.368 . S
C709 H733 0.949 . S
H710 C714 0.949 . S
C711 C712 1.349 . S
C711 C713 1.327 . S
C711 H734 0.950 . S
C712 C711 1.349 . S
C712 C724 1.349 . S
C713 C711 1.327 . S
C713 C729 1.429 . S
C713 H735 0.950 . S
C714 H710 0.949 . S
C714 C722 1.574 . S
C714 C730 1.368 . S
H715 C723 0.950 . S
H716 C721 0.950 . S
H717 C722 0.949 . S
H718 C724 0.950 . S
H719 C725 0.950 . S
H720 C726 0.949 . S
C721 H716 0.950 . S
C721 C723 1.327 . S
C721 C727 1.429 . S
C722 C714 1.574 . S
C722 H717 0.949 . S
C722 C728 1.368 . S
C723 C707 1.349 . S
C723 H715 0.950 . S
C723 C721 1.327 . S
C724 C712 1.349 . S
C724 H718 0.950 . S
C724 C725 1.327 . S
C725 H719 0.950 . S
C725 C724 1.327 . S
C725 C729 1.429 . S
C726 C709 1.574 . S
C726 H720 0.949 . S
C726 C730 1.368 . S
C727 C708 1.429 . S
C727 C721 1.429 . S
C727 C728 1.523 . S
C728 C709 1.368 . S
C728 C722 1.368 . S
C728 C727 1.523 . S
C729 C713 1.429 . S
C729 C725 1.429 . S
C729 C730 1.523 . S
C730 C714 1.368 . S
C730 C726 1.368 . S
C730 C729 1.523 . S
H731 C706 0.950 . S
H732 C708 0.950 . S
H733 C709 0.949 . S
H734 C711 0.950 . S
H735 C713 0.950 . S
C736 C737 1.349 . S
C736 C738 1.327 . S
C736 H761 0.950 . S
C737 C736 1.349 . S
C737 C753 1.349 . S
C738 C736 1.327 . S
C738 C757 1.429 . S
C738 H762 0.950 . S
C739 C756 1.574 . S
C739 C758 1.368 . S
C739 H763 0.949 . S
H740 C744 0.949 . S
C741 C742 1.349 1_556 S
C741 C743 1.327 1_556 S
C741 H764 0.950 . S
C742 C741 1.349 1_554 S
C742 C754 1.349 . S
C743 C741 1.327 1_554 S
C743 C759 1.429 . S
C743 H765 0.950 1_554 S
C744 H740 0.949 . S
C744 C752 1.574 . S
C744 C760 1.368 . S
H745 C753 0.950 . S
H746 C751 0.950 . S
H747 C752 0.949 . S
H748 C754 0.950 . S
H749 C755 0.950 . S
H750 C756 0.949 . S
C751 H746 0.950 . S
C751 C753 1.327 . S
C751 C757 1.429 . S
C752 C744 1.574 . S
C752 H747 0.949 . S
C752 C758 1.368 . S
C753 C737 1.349 . S
C753 H745 0.950 . S
C753 C751 1.327 . S
C754 C742 1.349 . S
C754 H748 0.950 . S
C754 C755 1.327 . S
C755 H749 0.950 . S
C755 C754 1.327 . S
C755 C759 1.429 . S
C756 C739 1.574 . S
C756 H750 0.949 . S
C756 C760 1.368 . S
C757 C738 1.429 . S
C757 C751 1.429 . S
C757 C758 1.523 . S
C758 C739 1.368 . S
C758 C752 1.368 . S
C758 C757 1.523 . S
C759 C743 1.429 . S
C759 C755 1.429 . S
C759 C760 1.523 . S
C760 C744 1.368 . S
C760 C756 1.368 . S
C760 C759 1.523 . S
H761 C736 0.950 . S
H762 C738 0.950 . S
H763 C739 0.949 . S
H764 C741 0.950 . S
H765 C743 0.950 1_556 S
C766 C767 1.349 . S
C766 C768 1.327 . S
C766 H791 0.950 . S
C767 C766 1.349 . S
C767 C783 1.349 . S
C768 C766 1.327 . S
C768 C787 1.429 . S
C768 H792 0.950 . S
C769 C786 1.574 . S
C769 C788 1.368 . S
C769 H793 0.949 . S
H770 C774 0.949 . S
C771 C772 1.349 . S
C771 C773 1.327 . S
C771 H794 0.950 . S
C772 C771 1.349 . S
C772 C784 1.349 . S
C773 C771 1.327 . S
C773 C789 1.429 . S
C773 H795 0.950 . S
C774 H770 0.949 . S
C774 C782 1.574 . S
C774 C790 1.368 . S
H775 C783 0.950 . S
H776 C781 0.950 . S
H777 C782 0.949 . S
H778 C784 0.950 . S
H779 C785 0.950 . S
H780 C786 0.949 . S
C781 H776 0.950 . S
C781 C783 1.327 . S
C781 C787 1.429 . S
C782 C774 1.574 . S
C782 H777 0.949 . S
C782 C788 1.368 . S
C783 C767 1.349 . S
C783 H775 0.950 . S
C783 C781 1.327 . S
C784 C772 1.349 . S
C784 H778 0.950 . S
C784 C785 1.327 . S
C785 H779 0.950 . S
C785 C784 1.327 . S
C785 C789 1.429 . S
C786 C769 1.574 . S
C786 H780 0.949 . S
C786 C790 1.368 . S
C787 C768 1.429 . S
C787 C781 1.429 . S
C787 C788 1.523 . S
C788 C769 1.368 . S
C788 C782 1.368 . S
C788 C787 1.523 . S
C789 C773 1.429 . S
C789 C785 1.429 . S
C789 C790 1.523 . S
C790 C774 1.368 . S
C790 C786 1.368 . S
C790 C789 1.523 . S
H791 C766 0.950 . S
H792 C768 0.950 . S
H793 C769 0.949 . S
H794 C771 0.950 . S
H795 C773 0.950 . S
C796 C797 1.349 . S
C796 C798 1.327 . S
C796 H821 0.950 . S
C797 C796 1.349 . S
C797 C813 1.349 . S
C798 C796 1.327 . S
C798 C817 1.429 . S
C798 H822 0.950 . S
C799 C816 1.574 . S
C799 C818 1.368 . S
C799 H823 0.949 . S
H800 C804 0.949 . S
C801 C802 1.334 1_554 S
C801 C803 1.324 1_554 S
C801 H824 0.969 . S
C802 C801 1.334 1_556 S
C802 C814 1.349 . S
C803 C801 1.324 1_556 S
C803 C819 1.429 . S
C803 H825 0.950 1_556 S
C804 H800 0.949 . S
C804 C812 1.574 . S
C804 C820 1.368 . S
H805 C813 0.950 . S
H806 C811 0.950 . S
H807 C812 0.949 . S
H808 C814 0.950 1_455 S
H809 C815 0.961 . S
H810 C816 0.948 . S
C811 H806 0.950 . S
C811 C813 1.327 . S
C811 C817 1.429 . S
C812 C804 1.574 . S
C812 H807 0.949 . S
C812 C818 1.368 . S
C813 C797 1.349 . S
C813 H805 0.950 . S
C813 C811 1.327 . S
C814 C802 1.349 . S
C814 H808 0.950 1_655 S
C814 C815 1.327 . S
C815 H809 0.961 . S
C815 C814 1.327 . S
C815 C819 1.429 . S
C816 C799 1.574 . S
C816 H810 0.948 . S
C816 C820 1.368 . S
C817 C798 1.429 . S
C817 C811 1.429 . S
C817 C818 1.523 . S
C818 C799 1.368 . S
C818 C812 1.368 . S
C818 C817 1.523 . S
C819 C803 1.429 . S
C819 C815 1.429 . S
C819 C820 1.523 . S
C820 C804 1.368 . S
C820 C816 1.368 . S
C820 C819 1.523 . S
H821 C796 0.950 . S
H822 C798 0.950 . S
H823 C799 0.949 . S
H824 C801 0.969 . S
H825 C803 0.950 1_554 S
C826 C827 1.349 . S
C826 C828 1.327 . S
C826 H851 0.950 . S
C827 C826 1.349 . S
C827 C843 1.349 . S
C828 C826 1.327 . S
C828 C847 1.429 . S
C828 H852 0.950 . S
C829 C846 1.574 . S
C829 C848 1.368 . S
C829 H853 0.949 . S
H830 C834 0.949 . S
C831 C832 1.349 . S
C831 C833 1.327 . S
C831 H854 0.950 . S
C832 C831 1.349 . S
C832 C844 1.349 . S
C833 C831 1.327 . S
C833 C849 1.429 . S
C833 H855 0.950 . S
C834 H830 0.949 . S
C834 C842 1.574 . S
C834 C850 1.368 . S
H835 C843 0.950 . S
H836 C841 0.950 . S
H837 C842 0.949 . S
H838 C844 0.950 . S
H839 C845 0.950 . S
H840 C846 0.949 . S
C841 H836 0.950 . S
C841 C843 1.327 . S
C841 C847 1.429 . S
C842 C834 1.574 . S
C842 H837 0.949 . S
C842 C848 1.368 . S
C843 C827 1.349 . S
C843 H835 0.950 . S
C843 C841 1.327 . S
C844 C832 1.349 . S
C844 H838 0.950 . S
C844 C845 1.327 . S
C845 H839 0.950 . S
C845 C844 1.327 . S
C845 C849 1.429 . S
C846 C829 1.574 . S
C846 H840 0.949 . S
C846 C850 1.368 . S
C847 C828 1.429 . S
C847 C841 1.429 . S
C847 C848 1.523 . S
C848 C829 1.368 . S
C848 C842 1.368 . S
C848 C847 1.523 . S
C849 C833 1.429 . S
C849 C845 1.429 . S
C849 C850 1.523 . S
C850 C834 1.368 . S
C850 C846 1.368 . S
C850 C849 1.523 . S
H851 C826 0.950 . S
H852 C828 0.950 . S
H853 C829 0.949 . S
H854 C831 0.950 . S
H855 C833 0.950 . S
C856 C857 1.349 . S
C856 C858 1.327 . S
C856 H881 0.950 . S
C857 C856 1.349 . S
C857 C873 1.349 . S
C858 C856 1.327 . S
C858 C877 1.429 . S
C858 H882 0.950 . S
C859 C876 1.574 . S
C859 C878 1.368 . S
C859 H883 0.949 . S
H860 C864 0.949 . S
C861 C862 1.349 . S
C861 C863 1.327 . S
C861 H884 0.950 . S
C862 C861 1.349 . S
C862 C874 1.349 . S
C863 C861 1.327 . S
C863 C879 1.429 . S
C863 H885 0.950 . S
C864 H860 0.949 . S
C864 C872 1.574 . S
C864 C880 1.368 . S
H865 C873 0.950 . S
H866 C871 0.950 . S
H867 C872 0.949 . S
H868 C874 0.950 . S
H869 C875 0.950 . S
H870 C876 0.949 . S
C871 H866 0.950 . S
C871 C873 1.327 . S
C871 C877 1.429 . S
C872 C864 1.574 . S
C872 H867 0.949 . S
C872 C878 1.368 . S
C873 C857 1.349 . S
C873 H865 0.950 . S
C873 C871 1.327 . S
C874 C862 1.349 . S
C874 H868 0.950 . S
C874 C875 1.327 . S
C875 H869 0.950 . S
C875 C874 1.327 . S
C875 C879 1.429 . S
C876 C859 1.574 . S
C876 H870 0.949 . S
C876 C880 1.368 . S
C877 C858 1.429 . S
C877 C871 1.429 . S
C877 C878 1.523 . S
C878 C859 1.368 . S
C878 C872 1.368 . S
C878 C877 1.523 . S
C879 C863 1.429 . S
C879 C875 1.429 . S
C879 C880 1.523 . S
C880 C864 1.368 . S
C880 C876 1.368 . S
C880 C879 1.523 . S
H881 C856 0.950 . S
H882 C858 0.950 . S
H883 C859 0.949 . S
H884 C861 0.950 . S
H885 C863 0.950 . S
C886 C887 1.349 . S
C886 C888 1.327 . S
C886 H911 0.950 . S
C887 C886 1.349 . S
C887 C903 1.349 . S
C888 C886 1.327 . S
C888 C907 1.429 . S
C888 H912 0.950 . S
C889 C906 1.574 . S
C889 C908 1.368 . S
C889 H913 0.949 . S
H890 C894 0.949 . S
C891 C892 1.349 . S
C891 C893 1.327 . S
C891 H914 0.950 . S
C892 C891 1.349 . S
C892 C904 1.349 . S
C893 C891 1.327 . S
C893 C909 1.429 . S
C893 H915 0.950 . S
C894 H890 0.949 . S
C894 C902 1.574 . S
C894 C910 1.368 . S
H895 C903 0.950 . S
H896 C901 0.950 . S
H897 C902 0.949 . S
H898 C904 0.950 . S
H899 C905 0.950 . S
H900 C906 0.949 . S
C901 H896 0.950 . S
C901 C903 1.327 . S
C901 C907 1.429 . S
C902 C894 1.574 . S
C902 H897 0.949 . S
C902 C908 1.368 . S
C903 C887 1.349 . S
C903 H895 0.950 . S
C903 C901 1.327 . S
C904 C892 1.349 . S
C904 H898 0.950 . S
C904 C905 1.327 . S
C905 H899 0.950 . S
C905 C904 1.327 . S
C905 C909 1.429 . S
C906 C889 1.574 . S
C906 H900 0.949 . S
C906 C910 1.368 . S
C907 C888 1.429 . S
C907 C901 1.429 . S
C907 C908 1.523 . S
C908 C889 1.368 . S
C908 C902 1.368 . S
C908 C907 1.523 . S
C909 C893 1.429 . S
C909 C905 1.429 . S
C909 C910 1.523 . S
C910 C894 1.368 . S
C910 C906 1.368 . S
C910 C909 1.523 . S
H911 C886 0.950 . S
H912 C888 0.950 . S
H913 C889 0.949 . S
H914 C891 0.950 . S
H915 C893 0.950 . S
C197 N1 1.541 . S
C202 C122 1.550 . S
C227 N18 1.981 . S
C232 C146 1.970 . S
C262 C166 0.860 . S
C257 N28 0.859 . S
C287 N40 1.587 . S
C292 C189 1.618 . S
C322 C148 2.092 . S
C317 N5 2.095 . S
C352 C124 1.739 . S
C347 N14 1.751 . S
C382 C192 1.498 . S
C377 N31 1.497 . S
C412 C169 1.136 . S
C407 N41 1.166 . S
C437 N2 1.309 . S
C442 C194 1.279 . S
C472 C143 1.726 . S
C467 N27 1.701 . S
C497 N44 1.744 . S
C502 C121 1.777 . S
C527 N15 1.194 . S
C532 C171 1.177 . S
C562 C125 1.933 . S
C557 N57 1.931 . S
C587 N70 1.284 . S
C592 C147 1.309 . S
C617 N79 1.580 . S
C622 C167 1.642 . S
C647 N93 1.507 . S
C652 C190 1.528 . S
C677 N54 1.405 . S
C682 C145 1.397 . S
C712 C123 2.039 . S
C707 N66 2.014 . S
C742 C193 0.853 . S
C737 N80 0.861 . S
C772 C170 1.449 . S
C767 N96 1.475 . S
C797 N53 1.790 . S
C802 C191 1.780 . S
C832 C144 1.464 . S
C827 N83 1.430 . S
C862 C120 1.693 . S
C857 N92 1.646 . S
C887 N67 1.644 . S
C892 C168 1.655 . S
