# Generated by pormake.
# Topology apo, (3,6)-cn, num edge types: 1
# Building blocks:
#     Node 0, Type 0, BuildingBlock: PAMTOO_clean_linker_0, # of connection points: 3
#     Node 1, Type 0, BuildingBlock: PAMTOO_clean_linker_0, # of connection points: 3
#     Node 2, Type 0, BuildingBlock: PAMTOO_clean_linker_0, # of connection points: 3
#     Node 3, Type 0, BuildingBlock: PAMTOO_clean_linker_0, # of connection points: 3
#     Node 4, Type 0, BuildingBlock: PAMTOO_clean_linker_0, # of connection points: 3
#     Node 5, Type 0, BuildingBlock: PAMTOO_clean_linker_0, # of connection points: 3
#     Node 6, Type 0, BuildingBlock: PAMTOO_clean_linker_0, # of connection points: 3
#     Node 7, Type 0, BuildingBlock: PAMTOO_clean_linker_0, # of connection points: 3
#     Node 8, Type 1, BuildingBlock: KUMBUR_clean_sbu_1, # of connection points: 6
#     Node 9, Type 1, BuildingBlock: KUMBUR_clean_sbu_1, # of connection points: 6
#     Node 10, Type 1, BuildingBlock: KUMBUR_clean_sbu_1, # of connection points: 6
#     Node 11, Type 1, BuildingBlock: KUMBUR_clean_sbu_1, # of connection points: 6
#     Edge 12, Type (0, 1), BuildingBlock: XUDNAN_clean_linker_2, # of connection points: 2
#     Edge 13, Type (0, 1), BuildingBlock: XUDNAN_clean_linker_2, # of connection points: 2
#     Edge 14, Type (0, 1), BuildingBlock: XUDNAN_clean_linker_2, # of connection points: 2
#     Edge 15, Type (0, 1), BuildingBlock: XUDNAN_clean_linker_2, # of connection points: 2
#     Edge 16, Type (0, 1), BuildingBlock: XUDNAN_clean_linker_2, # of connection points: 2
#     Edge 17, Type (0, 1), BuildingBlock: XUDNAN_clean_linker_2, # of connection points: 2
#     Edge 18, Type (0, 1), BuildingBlock: XUDNAN_clean_linker_2, # of connection points: 2
#     Edge 19, Type (0, 1), BuildingBlock: XUDNAN_clean_linker_2, # of connection points: 2
#     Edge 20, Type (0, 1), BuildingBlock: XUDNAN_clean_linker_2, # of connection points: 2
#     Edge 21, Type (0, 1), BuildingBlock: XUDNAN_clean_linker_2, # of connection points: 2
#     Edge 22, Type (0, 1), BuildingBlock: XUDNAN_clean_linker_2, # of connection points: 2
#     Edge 23, Type (0, 1), BuildingBlock: XUDNAN_clean_linker_2, # of connection points: 2
#     Edge 24, Type (0, 1), BuildingBlock: XUDNAN_clean_linker_2, # of connection points: 2
#     Edge 25, Type (0, 1), BuildingBlock: XUDNAN_clean_linker_2, # of connection points: 2
#     Edge 26, Type (0, 1), BuildingBlock: XUDNAN_clean_linker_2, # of connection points: 2
#     Edge 27, Type (0, 1), BuildingBlock: XUDNAN_clean_linker_2, # of connection points: 2
#     Edge 28, Type (0, 1), BuildingBlock: XUDNAN_clean_linker_2, # of connection points: 2
#     Edge 29, Type (0, 1), BuildingBlock: XUDNAN_clean_linker_2, # of connection points: 2
#     Edge 30, Type (0, 1), BuildingBlock: XUDNAN_clean_linker_2, # of connection points: 2
#     Edge 31, Type (0, 1), BuildingBlock: XUDNAN_clean_linker_2, # of connection points: 2
#     Edge 32, Type (0, 1), BuildingBlock: XUDNAN_clean_linker_2, # of connection points: 2
#     Edge 33, Type (0, 1), BuildingBlock: XUDNAN_clean_linker_2, # of connection points: 2
#     Edge 34, Type (0, 1), BuildingBlock: XUDNAN_clean_linker_2, # of connection points: 2
#     Edge 35, Type (0, 1), BuildingBlock: XUDNAN_clean_linker_2, # of connection points: 2
# Relax obj value: 0.040
# Max RMSD: 0.224
# Mean RMSD: 0.161
data_MOF--net-apo--node1-KUMBUR_clean_sbu_1--node2-PAMTOO_clean_linker_0--edge1-XUDNAN_clean_linker_2
_symmetry_space_group_name_H-M    P1
_symmetry_Int_Tables_number       1
_symmetry_cell_setting            triclinic
loop_
_symmetry_equiv_pos_as_xyz
'x, y, z'
_cell_length_a     27.513393
_cell_length_b     42.338596
_cell_length_c     50.723122
_cell_angle_alpha  90.307127
_cell_angle_beta   89.821363
_cell_angle_gamma 90.12372
loop_
_atom_site_label
_atom_site_type_symbol
_atom_site_fract_x
_atom_site_fract_y
_atom_site_fract_z
_atom_type_partial_charge
H0 H 0.38099 0.43346 0.42854 0.0
H1 H 0.29722 0.40176 0.36188 0.0
H2 H 0.27838 0.35704 0.43698 0.0
H3 H 0.28232 0.31347 0.39328 0.0
C4 C 0.26672 0.32802 0.37718 0.0
O5 O 0.25176 0.3567 0.3875 0.0
H6 H 0.29543 0.33189 0.36204 0.0
C7 C 0.35299 0.41828 0.42034 0.0
C8 C 0.33049 0.39543 0.43631 0.0
C9 C 0.34105 0.4208 0.39353 0.0
C10 C 0.30593 0.40048 0.38267 0.0
C11 C 0.28371 0.37735 0.39833 0.0
C12 C 0.29576 0.37502 0.42508 0.0
H13 H 0.17823 0.08063 0.93699 0.0
H14 H 0.266 0.16411 0.94935 0.0
H15 H 0.23534 0.13285 0.87094 0.0
H16 H 0.33521 0.15424 0.88043 0.0
C17 C 0.32761 0.17496 0.8934 0.0
O18 O 0.27849 0.17589 0.89926 0.0
H19 H 0.34871 0.17227 0.91191 0.0
C20 C 0.19941 0.10012 0.92929 0.0
C21 C 0.20341 0.10405 0.90174 0.0
C22 C 0.22212 0.1215 0.9469 0.0
C23 C 0.24922 0.14686 0.93641 0.0
C24 C 0.25395 0.15075 0.90912 0.0
C25 C 0.23121 0.12943 0.89198 0.0
H26 H 0.86164 0.07082 0.60193 0.0
H27 H 0.80552 0.1207 0.66928 0.0
H28 H 0.79772 0.16308 0.59263 0.0
H29 H 0.83048 0.20486 0.64303 0.0
C30 C 0.80222 0.19455 0.6562 0.0
O31 O 0.77792 0.17056 0.64312 0.0
H32 H 0.82098 0.18481 0.67376 0.0
C33 C 0.84417 0.09158 0.61015 0.0
C34 C 0.83026 0.11644 0.59339 0.0
C35 C 0.83503 0.0926 0.6374 0.0
C36 C 0.81372 0.11973 0.64838 0.0
C37 C 0.80121 0.14537 0.63234 0.0
C38 C 0.80953 0.14373 0.60491 0.0
H39 H 0.67723 0.44326 0.10515 0.0
H40 H 0.75097 0.35566 0.0893 0.0
H41 H 0.76096 0.39714 0.16598 0.0
H42 H 0.85011 0.36624 0.14724 0.0
C43 C 0.83346 0.34629 0.13607 0.0
O44 O 0.78348 0.34845 0.13726 0.0
H45 H 0.84581 0.34789 0.11521 0.0
C46 C 0.70098 0.42456 0.11176 0.0
C47 C 0.71688 0.42367 0.13827 0.0
C48 C 0.71374 0.40026 0.09394 0.0
C49 C 0.74215 0.37492 0.10264 0.0
C50 C 0.75877 0.37395 0.12859 0.0
C51 C 0.74697 0.39841 0.14609 0.0
H52 H 0.65969 0.58824 0.60106 0.0
H53 H 0.76233 0.66517 0.59327 0.0
H54 H 0.73217 0.62584 0.66928 0.0
H55 H 0.73925 0.69706 0.6649 0.0
C56 C 0.77089 0.69824 0.6512 0.0
O57 O 0.78344 0.66795 0.64339 0.0
H58 H 0.76033 0.71219 0.63362 0.0
C59 C 0.68485 0.60517 0.60952 0.0
C60 C 0.69265 0.60476 0.63688 0.0
C61 C 0.70994 0.62666 0.59318 0.0
C62 C 0.74306 0.64792 0.60504 0.0
C63 C 0.75103 0.64765 0.63237 0.0
C64 C 0.72602 0.62593 0.64818 0.0
H65 H 0.86451 0.93498 0.09805 0.0
H66 H 0.78675 0.8978 0.16496 0.0
H67 H 0.77231 0.8532 0.08922 0.0
H68 H 0.68551 0.8457 0.11575 0.0
C69 C 0.6958 0.85262 0.13616 0.0
O70 O 0.7457 0.85123 0.13868 0.0
H71 H 0.68306 0.87728 0.13954 0.0
C72 C 0.83888 0.9182 0.10628 0.0
C73 C 0.81885 0.89446 0.09008 0.0
C74 C 0.82768 0.91947 0.13336 0.0
C75 C 0.79511 0.89733 0.14406 0.0
C76 C 0.77534 0.87342 0.12812 0.0
C77 C 0.78766 0.87186 0.10132 0.0
H78 H 0.13014 0.92174 0.43189 0.0
H79 H 0.21068 0.83497 0.43279 0.0
H80 H 0.19283 0.88499 0.36012 0.0
H81 H 0.18424 0.81291 0.36206 0.0
C82 C 0.21816 0.80893 0.37349 0.0
O83 O 0.23581 0.8373 0.38308 0.0
H84 H 0.20896 0.79319 0.39029 0.0
C85 C 0.14994 0.9035 0.42139 0.0
C86 C 0.15701 0.90624 0.39397 0.0
C87 C 0.16684 0.87731 0.43555 0.0
C88 C 0.19665 0.8553 0.42244 0.0
C89 C 0.20687 0.85861 0.39543 0.0
C90 C 0.18642 0.88368 0.38116 0.0
H91 H 0.34459 0.5685 0.92992 0.0
H92 H 0.31096 0.63288 0.86666 0.0
H93 H 0.2979 0.66342 0.94675 0.0
H94 H 0.22477 0.69512 0.91751 0.0
C95 C 0.23459 0.68498 0.89794 0.0
O96 O 0.28391 0.67877 0.89752 0.0
H97 H 0.21315 0.66279 0.89549 0.0
C98 C 0.33367 0.59154 0.92298 0.0
C99 C 0.32287 0.61532 0.94164 0.0
C100 C 0.33011 0.59729 0.89563 0.0
C101 C 0.31399 0.62728 0.88738 0.0
C102 C 0.30203 0.65079 0.90578 0.0
C103 C 0.30758 0.64504 0.93274 0.0
Tb104 Tb 0.06964 0.13275 0.24281 0.0
C105 C 0.84319 0.13711 0.26521 0.0
N106 N 0.87814 0.15825 0.27196 0.0
C107 C 0.82786 0.20064 0.25672 0.0
C108 C 0.79975 0.14673 0.25307 0.0
C109 C 0.87002 0.18986 0.26909 0.0
C110 C 0.79291 0.17891 0.2482 0.0
C111 C 0.81211 0.08382 0.26878 0.0
C112 C 0.84934 0.10624 0.27285 0.0
C113 C 0.76983 0.09272 0.2553 0.0
C114 C 0.76366 0.12416 0.24739 0.0
Tb115 Tb 0.94732 0.1383 0.29048 0.0
N116 N 0.89032 0.09886 0.28617 0.0
C117 C 0.81779 0.0536 0.27938 0.0
C118 C 0.89404 0.07027 0.29854 0.0
C119 C 0.85856 0.04698 0.29471 0.0
H120 H 0.89643 0.20684 0.27622 0.0
H121 H 0.86263 0.02399 0.30368 0.0
H122 H 0.15078 0.09735 0.27987 0.0
H123 H 0.05886 0.25198 0.20394 0.0
H124 H 0.92541 0.06511 0.31027 0.0
H125 H 0.79013 0.03562 0.27662 0.0
H126 H 0.03618 0.19624 0.20665 0.0
H127 H 0.82209 0.22565 0.25402 0.0
H128 H 0.741 0.07577 0.25169 0.0
H129 H 0.73019 0.13099 0.23783 0.0
H130 H 0.22801 0.11152 0.30192 0.0
H131 H 0.76003 0.18733 0.23893 0.0
H132 H 0.12999 0.27194 0.22861 0.0
N133 N 0.13875 0.14365 0.26541 0.0
C134 C 0.1561 0.17358 0.263 0.0
C135 C 0.20798 0.12922 0.29115 0.0
C136 C 0.19988 0.18272 0.27519 0.0
C137 C 0.16419 0.12129 0.27881 0.0
C138 C 0.22593 0.16005 0.28933 0.0
N139 N 0.08742 0.18526 0.2367 0.0
C140 C 0.06413 0.20488 0.21956 0.0
C141 C 0.1456 0.22664 0.24623 0.0
C142 C 0.12913 0.1952 0.24865 0.0
C143 C 0.11871 0.24756 0.23086 0.0
C144 C 0.07828 0.23647 0.2171 0.0
H145 H 0.25988 0.16609 0.29888 0.0
H146 H 0.2499 0.22153 0.28194 0.0
H147 H 0.20194 0.26009 0.25709 0.0
O148 O 0.10305 0.14008 0.20584 0.0
O149 O 0.07087 0.15142 0.28365 0.0
O150 O 0.99873 0.17767 0.28779 0.0
O151 O 0.11636 0.09776 0.22742 0.0
O152 O 0.00171 0.14937 0.225 0.0
O153 O 0.96758 0.17334 0.26086 0.0
O154 O 0.95466 0.12851 0.33123 0.0
O155 O 0.95006 0.09743 0.26351 0.0
O156 O 0.00864 0.10321 0.23001 0.0
O157 O 0.90738 0.16491 0.3181 0.0
O158 O 0.01154 0.11158 0.30327 0.0
O159 O 0.05927 0.09163 0.26878 0.0
C160 C 0.0455 0.17554 0.29248 0.0
C161 C 0.11463 0.09385 0.18054 0.0
C162 C 0.12705 0.08644 0.13285 0.0
C163 C 0.09702 0.05951 0.13392 0.0
C164 C 0.08481 0.06696 0.18078 0.0
C165 C 0.07611 0.04995 0.15767 0.0
C166 C 0.13581 0.10352 0.15646 0.0
C167 C 0.96797 0.16748 0.23547 0.0
C168 C 0.1227 0.1123 0.20511 0.0
C169 C 0.21616 0.21405 0.27289 0.0
C170 C 0.18885 0.23602 0.25869 0.0
C171 C 0.97074 0.08924 0.24102 0.0
C172 C 0.88157 0.13646 0.35545 0.0
C173 C 0.85013 0.12149 0.39894 0.0
C174 C 0.80519 0.11424 0.38727 0.0
C175 C 0.83607 0.12902 0.34448 0.0
C176 C 0.88842 0.13288 0.38292 0.0
C177 C 0.79825 0.11807 0.3603 0.0
C178 C 0.03797 0.08899 0.29219 0.0
C179 C 0.92108 0.1484 0.33819 0.0
H180 H 0.09022 0.04542 0.11643 0.0
H181 H 0.06825 0.05904 0.19887 0.0
H182 H 0.05315 0.02916 0.15819 0.0
H183 H 0.15842 0.1245 0.15611 0.0
H184 H 0.77532 0.10541 0.39913 0.0
H185 H 0.82948 0.13187 0.32362 0.0
H186 H 0.92338 0.13832 0.39165 0.0
H187 H 0.76342 0.11242 0.35158 0.0
Tb188 Tb 0.47407 0.37479 0.73733 0.0
C189 C 0.67878 0.42053 0.7784 0.0
N190 N 0.65684 0.39174 0.77941 0.0
C191 C 0.73207 0.36669 0.76752 0.0
C192 C 0.7281 0.42352 0.77114 0.0
C193 C 0.68331 0.36488 0.7752 0.0
C194 C 0.75448 0.39615 0.76524 0.0
C195 C 0.67346 0.47734 0.78441 0.0
C196 C 0.65193 0.4471 0.78521 0.0
C197 C 0.72252 0.4804 0.77714 0.0
C198 C 0.74974 0.45357 0.77049 0.0
Tb199 Tb 0.57752 0.39214 0.79287 0.0
N200 N 0.60452 0.44329 0.79228 0.0
C201 C 0.64507 0.5036 0.79099 0.0
C202 C 0.57711 0.46881 0.79941 0.0
C203 C 0.59674 0.49928 0.7986 0.0
H204 H 0.66762 0.34189 0.77855 0.0
H205 H 0.57465 0.51941 0.80408 0.0
H206 H 0.37435 0.4125 0.76037 0.0
H207 H 0.50142 0.25328 0.70939 0.0
H208 H 0.54031 0.46605 0.80599 0.0
H209 H 0.6602 0.52724 0.79048 0.0
H210 H 0.52239 0.30987 0.71268 0.0
H211 H 0.75259 0.34531 0.76389 0.0
H212 H 0.73971 0.50343 0.7765 0.0
H213 H 0.78758 0.45633 0.76496 0.0
H214 H 0.29629 0.39797 0.78009 0.0
H215 H 0.79243 0.39746 0.75958 0.0
H216 H 0.42338 0.23395 0.72766 0.0
N217 N 0.39834 0.36508 0.75488 0.0
C218 C 0.38417 0.33425 0.75464 0.0
C219 C 0.32102 0.37973 0.77343 0.0
C220 C 0.33836 0.32491 0.76449 0.0
C221 C 0.36631 0.38789 0.76286 0.0
C222 C 0.30721 0.34806 0.77459 0.0
N223 N 0.45899 0.32193 0.73451 0.0
C224 C 0.4892 0.30148 0.72155 0.0
C225 C 0.40097 0.28012 0.74161 0.0
C226 C 0.41503 0.31205 0.74354 0.0
C227 C 0.43285 0.25871 0.72954 0.0
C228 C 0.47703 0.2695 0.71931 0.0
H229 H 0.27178 0.34186 0.78241 0.0
H230 H 0.28944 0.28539 0.77061 0.0
H231 H 0.34383 0.24632 0.74998 0.0
O232 O 0.4891 0.36923 0.69694 0.0
O233 O 0.49227 0.33992 0.76755 0.0
O234 O 0.50849 0.36985 0.80383 0.0
O235 O 0.41945 0.38587 0.70977 0.0
O236 O 0.55096 0.36707 0.72879 0.0
O237 O 0.5837 0.34941 0.7678 0.0
O238 O 0.59004 0.40822 0.8315 0.0
O239 O 0.58358 0.41627 0.75446 0.0
O240 O 0.50504 0.42253 0.73888 0.0
O241 O 0.61084 0.36117 0.8199 0.0
O242 O 0.5064 0.41385 0.80117 0.0
O243 O 0.45918 0.41632 0.76273 0.0
C244 C 0.48751 0.3454 0.79279 0.0
C245 C 0.4479 0.40307 0.66818 0.0
C246 C 0.43533 0.41546 0.62155 0.0
C247 C 0.45572 0.44556 0.62616 0.0
C248 C 0.4675 0.43322 0.67227 0.0
C249 C 0.47128 0.45437 0.65136 0.0
C250 C 0.43133 0.39442 0.64298 0.0
C251 C 0.58183 0.34931 0.74174 0.0
C252 C 0.44699 0.3797 0.68955 0.0
C253 C 0.3245 0.29299 0.76317 0.0
C254 C 0.35548 0.27073 0.75145 0.0
C255 C 0.55053 0.43203 0.74117 0.0
C256 C 0.65273 0.38501 0.85631 0.0
C257 C 0.685 0.38985 0.90124 0.0
C258 C 0.73212 0.39219 0.89051 0.0
C259 C 0.7 0.3875 0.84619 0.0
C260 C 0.64544 0.38633 0.88379 0.0
C261 C 0.73941 0.39107 0.86323 0.0
C262 C 0.46961 0.42503 0.78729 0.0
C263 C 0.60996 0.38198 0.83896 0.0
H264 H 0.46064 0.46221 0.61025 0.0
H265 H 0.48036 0.44022 0.69151 0.0
H266 H 0.48701 0.47752 0.65461 0.0
H267 H 0.41547 0.3712 0.64021 0.0
H268 H 0.76356 0.39434 0.90319 0.0
H269 H 0.70665 0.38675 0.82524 0.0
H270 H 0.60872 0.38499 0.89152 0.0
H271 H 0.77585 0.39285 0.85527 0.0
Tb272 Tb 0.07632 0.89395 0.73771 0.0
C273 C 0.89578 0.84177 0.79922 0.0
N274 N 0.90843 0.87141 0.79178 0.0
C275 C 0.82659 0.88133 0.77798 0.0
C276 C 0.84816 0.83032 0.79561 0.0
C277 C 0.87437 0.89158 0.78196 0.0
C278 C 0.81345 0.85053 0.78472 0.0
C279 C 0.91871 0.79273 0.82002 0.0
C280 C 0.93054 0.82338 0.81129 0.0
C281 C 0.87194 0.78056 0.81541 0.0
C282 C 0.83662 0.7994 0.80339 0.0
Tb283 Tb 0.98633 0.88658 0.80039 0.0
N284 N 0.97478 0.83644 0.81619 0.0
C285 C 0.95352 0.77585 0.83418 0.0
C286 C 0.00672 0.82124 0.83229 0.0
C287 C 0.99739 0.79043 0.84077 0.0
H288 H 0.88367 0.91571 0.77746 0.0
H289 H 0.02344 0.7783 0.85301 0.0
H290 H 0.17114 0.85051 0.7596 0.0
H291 H 0.06942 0.01501 0.70615 0.0
H292 H 0.03852 0.83319 0.83956 0.0
H293 H 0.94594 0.75222 0.84121 0.0
H294 H 0.04004 0.95983 0.70994 0.0
H295 H 0.79982 0.8973 0.76998 0.0
H296 H 0.86226 0.75699 0.82181 0.0
H297 H 0.80031 0.79003 0.80057 0.0
H298 H 0.24989 0.86097 0.78037 0.0
H299 H 0.77633 0.84272 0.78177 0.0
H300 H 0.14728 0.03072 0.72682 0.0
N301 N 0.15295 0.89921 0.7552 0.0
C302 C 0.1712 0.92916 0.75503 0.0
C303 C 0.22765 0.88047 0.77385 0.0
C304 C 0.21727 0.93614 0.7657 0.0
C305 C 0.18201 0.8747 0.76273 0.0
C306 C 0.24495 0.9114 0.77586 0.0
N307 N 0.10021 0.94512 0.73296 0.0
C308 C 0.07402 0.96664 0.71898 0.0
C309 C 0.16249 0.98383 0.74152 0.0
C310 C 0.14452 0.95273 0.74295 0.0
C311 C 0.13471 1.00653 0.7284 0.0
C312 C 0.09062 0.99778 0.71677 0.0
H313 H 0.28054 0.91574 0.78424 0.0
H314 H 0.26989 0.97321 0.7735 0.0
H315 H 0.22179 0.01498 0.75241 0.0
O316 O 0.05717 0.89274 0.6974 0.0
O317 O 0.06225 0.9331 0.76529 0.0
O318 O 0.05872 0.90724 0.80399 0.0
O319 O 0.13002 0.88312 0.70966 0.0
O320 O 1.00096 0.90813 0.73116 0.0
O321 O 0.97122 0.92507 0.77209 0.0
O322 O 0.97114 0.88598 0.84106 0.0
O323 O 0.96435 0.8628 0.76329 0.0
O324 O 0.03644 0.84933 0.7425 0.0
O325 O 0.96033 0.92816 0.81851 0.0
O326 O 0.06094 0.86755 0.80393 0.0
O327 O 0.0852 0.85162 0.76213 0.0
C328 C 0.07004 0.9325 0.79071 0.0
C329 C 0.10364 0.85779 0.6709 0.0
C330 C 0.11115 0.83998 0.6252 0.0
C331 C 0.11837 0.80899 0.63405 0.0
C332 C 0.11005 0.82659 0.67943 0.0
C333 C 0.11732 0.80234 0.66103 0.0
C334 C 0.10354 0.86429 0.64377 0.0
C335 C 0.9711 0.92499 0.74596 0.0
C336 C 0.10033 0.88412 0.68988 0.0
C337 C 0.23479 0.96736 0.76515 0.0
C338 C 0.20748 0.99114 0.75305 0.0
C339 C 0.98963 0.84489 0.74691 0.0
C340 C 0.90983 0.92043 0.8564 0.0
C341 C 0.86637 0.91843 0.89858 0.0
C342 C 0.82678 0.93377 0.88685 0.0
C343 C 0.86969 0.93554 0.84503 0.0
C344 C 0.90776 0.91179 0.88315 0.0
C345 C 0.82842 0.94207 0.86022 0.0
C346 C 0.08463 0.84815 0.78798 0.0
C347 C 0.95518 0.91477 0.84142 0.0
H348 H 0.12406 0.7899 0.62008 0.0
H349 H 0.11024 0.82111 0.70027 0.0
H350 H 0.1225 0.77835 0.66771 0.0
H351 H 0.09869 0.88838 0.63712 0.0
H352 H 0.79431 0.93897 0.89818 0.0
H353 H 0.87027 0.94258 0.82454 0.0
H354 H 0.93888 0.90045 0.89211 0.0
H355 H 0.79763 0.95375 0.85134 0.0
Tb356 Tb 0.47145 0.62405 0.23149 0.0
C357 C 0.6543 0.6814 0.27389 0.0
N358 N 0.63886 0.65123 0.27764 0.0
C359 C 0.7168 0.63207 0.26327 0.0
C360 C 0.70053 0.68806 0.26321 0.0
C361 C 0.67072 0.62677 0.27416 0.0
C362 C 0.73138 0.6628 0.25721 0.0
C363 C 0.63968 0.7374 0.28014 0.0
C364 C 0.62467 0.70572 0.2823 0.0
C365 C 0.68461 0.7443 0.26823 0.0
C366 C 0.71498 0.71965 0.25975 0.0
Tb367 Tb 0.56034 0.64585 0.29285 0.0
N368 N 0.58081 0.69811 0.2928 0.0
C369 C 0.60926 0.76103 0.29029 0.0
C370 C 0.55218 0.72079 0.30413 0.0
C371 C 0.56568 0.75264 0.30273 0.0
H372 H 0.66118 0.60304 0.27994 0.0
H373 H 0.54236 0.77068 0.31108 0.0
H374 H 0.36715 0.64713 0.25815 0.0
H375 H 0.52794 0.51125 0.1912 0.0
H376 H 0.51838 0.71427 0.31357 0.0
H377 H 0.61945 0.78571 0.28904 0.0
H378 H 0.53078 0.56911 0.19678 0.0
H379 H 0.74127 0.61248 0.25988 0.0
H380 H 0.6966 0.76853 0.26597 0.0
H381 H 0.75008 0.72525 0.25121 0.0
H382 H 0.29019 0.62266 0.27244 0.0
H383 H 0.76722 0.66686 0.24897 0.0
H384 H 0.45909 0.48097 0.2098 0.0
N385 N 0.3995 0.60363 0.24641 0.0
C386 C 0.39286 0.57212 0.24276 0.0
C387 C 0.31899 0.60812 0.26437 0.0
C388 C 0.34945 0.55711 0.25058 0.0
C389 C 0.36292 0.62188 0.25653 0.0
C390 C 0.31224 0.57559 0.26145 0.0
N391 N 0.47 0.5709 0.22256 0.0
C392 C 0.50328 0.55583 0.20699 0.0
C393 C 0.42474 0.52227 0.2269 0.0
C394 C 0.42996 0.55505 0.23109 0.0
C395 C 0.46157 0.50618 0.21336 0.0
C396 C 0.50061 0.52317 0.20293 0.0
H397 H 0.27806 0.56503 0.26743 0.0
H398 H 0.31151 0.51231 0.25307 0.0
H399 H 0.37767 0.48171 0.23253 0.0
O400 O 0.45616 0.61466 0.19154 0.0
O401 O 0.45739 0.60589 0.27175 0.0
O402 O 0.53238 0.59773 0.29005 0.0
O403 O 0.43006 0.65693 0.21004 0.0
O404 O 0.54936 0.61264 0.22693 0.0
O405 O 0.57731 0.60312 0.26928 0.0
O406 O 0.53497 0.64991 0.33183 0.0
O407 O 0.54194 0.6801 0.2625 0.0
O408 O 0.53723 0.65242 0.22383 0.0
O409 O 0.60982 0.63976 0.32421 0.0
O410 O 0.48234 0.65778 0.29695 0.0
O411 O 0.45287 0.66639 0.25446 0.0
C412 C 0.48715 0.58896 0.28611 0.0
C413 C 0.38252 0.63476 0.17528 0.0
C414 C 0.33794 0.62071 0.13523 0.0
C415 C 0.2942 0.62246 0.1495 0.0
C416 C 0.33821 0.63725 0.18895 0.0
C417 C 0.29441 0.63094 0.17613 0.0
C418 C 0.38208 0.62695 0.14824 0.0
C419 C 0.57866 0.59816 0.24348 0.0
C420 C 0.42952 0.63961 0.18876 0.0
C421 C 0.34452 0.52434 0.24709 0.0
C422 C 0.38224 0.5069 0.23546 0.0
C423 C 0.54984 0.67783 0.23714 0.0
C424 C 0.57601 0.61983 0.36374 0.0
C425 C 0.59736 0.60537 0.40896 0.0
C426 C 0.57047 0.57729 0.40593 0.0
C427 C 0.54969 0.59157 0.36117 0.0
C428 C 0.60015 0.62651 0.38759 0.0
C429 C 0.54706 0.57043 0.38215 0.0
C430 C 0.45239 0.67169 0.2802 0.0
C431 C 0.57671 0.64318 0.34226 0.0
H432 H 0.25978 0.61779 0.1399 0.0
H433 H 0.33726 0.64415 0.20944 0.0
H434 H 0.26046 0.63269 0.18688 0.0
H435 H 0.41606 0.62523 0.13744 0.0
H436 H 0.56803 0.56042 0.42187 0.0
H437 H 0.53072 0.58607 0.34308 0.0
H438 H 0.6201 0.64848 0.38969 0.0
H439 H 0.52658 0.5487 0.38002 0.0
H440 H 0.1858 0.93939 0.34867 0.0
H441 H 0.06681 0.93014 0.40487 0.0
H442 H 0.02628 0.97533 0.38505 0.0
H443 H 0.18728 0.02281 0.34334 0.0
H444 H 0.19595 0.02418 0.30813 0.0
H445 H 0.2178 0.99085 0.32654 0.0
H446 H 0.16807 0.95285 0.29686 0.0
H447 H 0.14645 0.98606 0.27818 0.0
H448 H 0.1037 0.95911 0.29301 0.0
H449 H 0.00378 0.02494 0.36417 0.0
H450 H 0.99033 0.07118 0.33673 0.0
H451 H 0.11301 0.04478 0.28719 0.0
C452 C 0.15097 0.94656 0.35662 0.0
C453 C 0.13091 0.93172 0.37928 0.0
C454 C 0.08472 0.94185 0.38859 0.0
C455 C 0.06084 0.9674 0.37724 0.0
C456 C 0.08235 0.98212 0.35578 0.0
C457 C 0.12548 0.97168 0.3449 0.0
C458 C 0.13887 0.99151 0.32093 0.0
C459 C 0.18789 1.00833 0.32499 0.0
C460 C 0.13929 0.97117 0.29575 0.0
C461 C 0.09706 0.01504 0.3207 0.0
C462 C 0.0656 0.00923 0.34137 0.0
C463 C 0.02699 0.02911 0.34727 0.0
C464 C 0.0195 0.05538 0.33133 0.0
C465 C 0.04915 0.06119 0.30896 0.0
C466 C 0.08877 0.04065 0.30366 0.0
H467 H 0.39833 0.54926 0.89988 0.0
H468 H 0.29073 0.58736 0.8461 0.0
H469 H 0.31466 0.54797 0.8128 0.0
H470 H 0.48881 0.52926 0.85286 0.0
H471 H 0.50536 0.49269 0.86842 0.0
H472 H 0.48118 0.52467 0.88795 0.0
H473 H 0.4132 0.48782 0.9056 0.0
H474 H 0.43737 0.45571 0.88619 0.0
H475 H 0.37467 0.4671 0.88258 0.0
H476 H 0.35506 0.50681 0.78388 0.0
H477 H 0.40213 0.4636 0.76358 0.0
H478 H 0.47327 0.44681 0.83854 0.0
C479 C 0.37893 0.54921 0.88137 0.0
C480 C 0.34292 0.57216 0.87581 0.0
C481 C 0.31948 0.571 0.85088 0.0
C482 C 0.33246 0.5484 0.83179 0.0
C483 C 0.36822 0.52645 0.83796 0.0
C484 C 0.3905 0.5263 0.86231 0.0
C485 C 0.42685 0.49953 0.86422 0.0
C486 C 0.4786 0.51232 0.86862 0.0
C487 C 0.41212 0.47616 0.88594 0.0
C488 C 0.42174 0.48484 0.83706 0.0
C489 C 0.3883 0.501 0.82207 0.0
C490 C 0.38028 0.49338 0.79568 0.0
C491 C 0.40692 0.46847 0.78437 0.0
C492 C 0.44027 0.45078 0.79959 0.0
C493 C 0.44739 0.45924 0.82637 0.0
H494 H 0.72378 0.55034 0.66062 0.0
H495 H 0.59753 0.60986 0.65019 0.0
H496 H 0.54844 0.57329 0.6775 0.0
H497 H 0.65772 0.47684 0.65562 0.0
H498 H 0.69452 0.45656 0.67947 0.0
H499 H 0.72036 0.48812 0.66027 0.0
H500 H 0.74499 0.51835 0.70319 0.0
H501 H 0.7211 0.48552 0.7215 0.0
H502 H 0.69959 0.52499 0.72835 0.0
H503 H 0.51297 0.53003 0.70507 0.0
H504 H 0.49208 0.48189 0.72986 0.0
H505 H 0.64084 0.44917 0.72201 0.0
C506 C 0.68591 0.55568 0.6644 0.0
C507 C 0.66426 0.58296 0.65368 0.0
C508 C 0.61453 0.58911 0.65847 0.0
C509 C 0.58653 0.56852 0.67393 0.0
C510 C 0.60878 0.54175 0.68426 0.0
C511 C 0.65723 0.53512 0.67957 0.0
C512 C 0.67146 0.50387 0.69188 0.0
C513 C 0.68692 0.47994 0.67054 0.0
C514 C 0.71165 0.50852 0.71248 0.0
C515 C 0.62372 0.49427 0.70465 0.0
C516 C 0.58806 0.51646 0.69989 0.0
C517 C 0.5406 0.51252 0.70894 0.0
C518 C 0.52906 0.48504 0.72294 0.0
C519 C 0.5647 0.46168 0.72772 0.0
C520 C 0.61286 0.46667 0.71877 0.0
H521 H 0.79631 0.97485 0.15678 0.0
H522 H 0.92043 0.91262 0.14918 0.0
H523 H 0.96806 0.94766 0.17856 0.0
H524 H 0.86468 0.04706 0.15511 0.0
H525 H 0.827 0.06759 0.17872 0.0
H526 H 0.80139 0.03667 0.15855 0.0
H527 H 0.7726 1.00712 0.20058 0.0
H528 H 0.79774 0.03844 0.22048 0.0
H529 H 0.81612 0.9982 0.22598 0.0
H530 H 0.0024 0.98897 0.20811 0.0
H531 H 0.02418 0.03687 0.23351 0.0
H532 H 0.88023 0.07492 0.22059 0.0
C533 C 0.83342 0.96868 0.16155 0.0
C534 C 0.85495 0.94107 0.15095 0.0
C535 C 0.90359 0.9337 0.15723 0.0
C536 C 0.93073 0.95336 0.17395 0.0
C537 C 0.90872 0.98044 0.18412 0.0
C538 C 0.86134 0.98836 0.17806 0.0
C539 C 0.84762 0.01982 0.19062 0.0
C540 C 0.8344 0.04422 0.16948 0.0
C541 C 0.80605 0.01561 0.21061 0.0
C542 C 0.89487 0.02846 0.20435 0.0
C543 C 0.92929 1.00509 0.20057 0.0
C544 C 0.97589 1.00752 0.21102 0.0
C545 C 0.9881 0.03487 0.22518 0.0
C546 C 0.95432 0.05969 0.22834 0.0
C547 C 0.90669 0.0562 0.21835 0.0
H548 H 0.88467 0.08845 0.68466 0.0
H549 H 0.80722 0.03234 0.62653 0.0
H550 H 0.82636 0.98394 0.65119 0.0
H551 H 0.9811 0.03485 0.69337 0.0
H552 H 0.98776 0.04136 0.72832 0.0
H553 H 0.9639 0.0722 0.70782 0.0
H554 H 0.88683 0.07527 0.73718 0.0
H555 H 0.91052 0.04439 0.7578 0.0
H556 H 0.85147 0.04005 0.7429 0.0
H557 H 0.85991 0.94142 0.67905 0.0
H558 H 0.90722 0.907 0.7086 0.0
H559 H 0.96221 0.98938 0.74993 0.0
C560 C 0.87102 0.06599 0.67749 0.0
C561 C 0.84446 0.06412 0.65366 0.0
C562 C 0.82792 0.03428 0.64461 0.0
C563 C 0.83832 1.00668 0.65857 0.0
C564 C 0.86523 0.00919 0.68169 0.0
C565 C 0.88139 0.03801 0.69119 0.0
C566 C 0.9126 0.03362 0.71558 0.0
C567 C 0.96441 0.04625 0.71099 0.0
C568 C 0.88893 0.04927 0.7398 0.0
C569 C 0.91218 0.99786 0.71791 0.0
C570 C 0.88424 0.98433 0.69822 0.0
C571 C 0.88112 0.9517 0.69485 0.0
C572 C 0.90801 0.93235 0.71169 0.0
C573 C 0.93722 0.94563 0.73177 0.0
C574 C 0.9387 0.97875 0.73525 0.0
H575 H 0.69507 0.48758 0.13134 0.0
H576 H 0.69824 0.41413 0.19095 0.0
H577 H 0.67336 0.45263 0.22447 0.0
H578 H 0.73417 0.55327 0.17308 0.0
H579 H 0.69239 0.58101 0.15875 0.0
H580 H 0.71543 0.54859 0.13925 0.0
H581 H 0.62766 0.53102 0.1289 0.0
H582 H 0.60379 0.56301 0.14854 0.0
H583 H 0.58614 0.52291 0.15553 0.0
H584 H 0.64684 0.49819 0.25194 0.0
H585 H 0.60965 0.54638 0.27028 0.0
H586 H 0.61693 0.59036 0.19333 0.0
C587 C 0.69061 0.47947 0.1514 0.0
C588 C 0.70033 0.44764 0.15831 0.0
C589 C 0.69337 0.4384 0.18497 0.0
C590 C 0.67875 0.46013 0.2043 0.0
C591 C 0.67026 0.49118 0.19688 0.0
C592 C 0.67516 0.50085 0.17104 0.0
C593 C 0.65999 0.53518 0.1682 0.0
C594 C 0.70307 0.55572 0.15929 0.0
C595 C 0.61682 0.5382 0.14918 0.0
C596 C 0.64521 0.54297 0.1964 0.0
C597 C 0.65231 0.51733 0.21263 0.0
C598 C 0.64081 0.51838 0.23939 0.0
C599 C 0.61969 0.54593 0.24966 0.0
C600 C 0.60922 0.57188 0.23317 0.0
C601 C 0.62401 0.57075 0.20639 0.0
H602 H 0.31064 0.47571 0.36996 0.0
H603 H 0.43487 0.414 0.37889 0.0
H604 H 0.48371 0.44897 0.35018 0.0
H605 H 0.33148 0.49797 0.30191 0.0
H606 H 0.31298 0.53837 0.30731 0.0
H607 H 0.2881 0.50746 0.32743 0.0
H608 H 0.31707 0.53811 0.36903 0.0
H609 H 0.34274 0.56853 0.34852 0.0
H610 H 0.3804 0.5485 0.37212 0.0
H611 H 0.5194 0.49058 0.32204 0.0
H612 H 0.54201 0.53789 0.29699 0.0
H613 H 0.39555 0.57424 0.30565 0.0
C614 C 0.34806 0.46965 0.36565 0.0
C615 C 0.36924 0.44219 0.37635 0.0
C616 C 0.41831 0.43497 0.37074 0.0
C617 C 0.44615 0.45462 0.35445 0.0
C618 C 0.4244 0.48154 0.34414 0.0
C619 C 0.3767 0.48933 0.34966 0.0
C620 C 0.36314 0.52045 0.33687 0.0
C621 C 0.32147 0.51576 0.31717 0.0
C622 C 0.35007 0.54537 0.35789 0.0
C623 C 0.41051 0.5287 0.32301 0.0
C624 C 0.44523 0.50583 0.32762 0.0
C625 C 0.49248 0.50853 0.31812 0.0
C626 C 0.50498 0.53553 0.30387 0.0
C627 C 0.47051 0.55959 0.29908 0.0
C628 C 0.42238 0.55592 0.30852 0.0
H629 H 0.19414 0.03879 0.90363 0.0
H630 H 0.15412 0.1205 0.85715 0.0
H631 H 0.1152 0.08558 0.82445 0.0
H632 H 0.22113 0.98738 0.84924 0.0
H633 H 0.19606 0.95253 0.86438 0.0
H634 H 0.22026 0.98385 0.88465 0.0
H635 H 0.13813 0.98774 0.90964 0.0
H636 H 0.11379 0.95638 0.88943 0.0
H637 H 0.08295 0.99385 0.8913 0.0
H638 H 0.08303 0.04222 0.79589 0.0
H639 H 0.05702 0.99293 0.77402 0.0
H640 H 0.1155 0.93857 0.83884 0.0
C641 C 0.17667 0.04936 0.88674 0.0
C642 C 0.1777 0.0825 0.88292 0.0
C643 C 0.15474 0.09524 0.86036 0.0
C644 C 0.13221 0.07559 0.8417 0.0
C645 C 0.13251 0.04312 0.84584 0.0
C646 C 0.15382 0.03001 0.86784 0.0
C647 C 0.1493 0.99422 0.86724 0.0
C648 C 0.19969 0.97858 0.86632 0.0
C649 C 0.11925 0.98235 0.8908 0.0
C650 C 0.12227 0.98937 0.84146 0.0
C651 C 0.11314 0.01795 0.82945 0.0
C652 C 0.0898 0.01971 0.80517 0.0
C653 C 0.07541 0.99154 0.79281 0.0
C654 C 0.08436 0.96191 0.80466 0.0
C655 C 0.10781 0.9609 0.82943 0.0
H656 H 0.1409 0.10364 0.97561 0.0
H657 H 0.29204 0.13118 0.98471 0.0
H658 H 0.28352 0.12736 0.03302 0.0
H659 H 0.09469 0.14488 0.0324 0.0
H660 H 0.05192 0.11432 0.0411 0.0
H661 H 0.06961 0.11955 1.00718 0.0
H662 H 0.09655 0.06102 1.00451 0.0
H663 H 0.07868 0.05557 0.03837 0.0
H664 H 0.13976 0.04625 0.02805 0.0
H665 H 0.25848 0.12037 0.08083 0.0
H666 H 0.21986 0.10846 0.12374 0.0
H667 H 0.08534 0.08536 0.08344 0.0
C668 C 0.17242 0.10857 0.98768 0.0
C669 C 0.21713 0.1179 0.97615 0.0
C670 C 0.25715 0.1245 0.99292 0.0
C671 C 0.25275 0.12225 0.02045 0.0
C672 C 0.2081 0.11329 0.03113 0.0
C673 C 0.1687 0.1064 1.01525 0.0
C674 C 0.12489 0.09698 0.03168 0.0
C675 C 0.0828 0.12033 0.02786 0.0
C676 C 0.10906 0.06293 0.02527 0.0
C677 C 0.14586 0.09951 0.05924 0.0
C678 C 0.19384 0.1091 0.05854 0.0
C679 C 0.22086 0.11291 0.08159 0.0
C680 C 0.19847 0.10632 0.10594 0.0
C681 C 0.14952 0.09589 0.10715 0.0
C682 C 0.12297 0.09289 0.08333 0.0
H683 H 0.33855 0.44169 0.47423 0.0
H684 H 0.35618 0.34102 0.46133 0.0
H685 H 0.3838 0.33494 0.50739 0.0
H686 H 0.44198 0.45318 0.51566 0.0
H687 H 0.41252 0.48127 0.53719 0.0
H688 H 0.39366 0.47766 0.50334 0.0
H689 H 0.30511 0.46711 0.51852 0.0
H690 H 0.32367 0.47081 0.55243 0.0
H691 H 0.29292 0.43555 0.54135 0.0
H692 H 0.41392 0.34043 0.55404 0.0
H693 H 0.43956 0.35624 0.59862 0.0
H694 H 0.39619 0.45286 0.58231 0.0
C695 C 0.3482 0.41839 0.48116 0.0
C696 C 0.34527 0.3918 0.46427 0.0
C697 C 0.35778 0.36163 0.47405 0.0
C698 C 0.3737 0.35798 0.50012 0.0
C699 C 0.37637 0.38469 0.51625 0.0
C700 C 0.36348 0.41426 0.50725 0.0
C701 C 0.36907 0.43902 0.52873 0.0
C702 C 0.40654 0.46427 0.52075 0.0
C703 C 0.31975 0.454 0.53567 0.0
C704 C 0.38772 0.41883 0.55111 0.0
C705 C 0.39191 0.38761 0.54345 0.0
C706 C 0.41005 0.36474 0.5604 0.0
C707 C 0.42415 0.37398 0.58587 0.0
C708 C 0.41956 0.40583 0.59443 0.0
C709 C 0.4008 0.42838 0.5766 0.0
H710 H 0.74892 0.43289 0.05146 0.0
H711 H 0.64 0.36448 0.07473 0.0
H712 H 0.61645 0.35712 0.02799 0.0
H713 H 0.68037 0.46739 0.99536 0.0
H714 H 0.73434 0.47157 0.97543 0.0
H715 H 0.73839 0.47416 1.01084 0.0
H716 H 0.80291 0.42969 1.01051 0.0
H717 H 0.79872 0.42674 0.97519 0.0
H718 H 0.78867 0.39228 0.99521 0.0
H719 H 0.61002 0.35368 0.97861 0.0
H720 H 0.62031 0.35462 0.93032 0.0
H721 H 0.7333 0.42574 0.9387 0.0
C722 C 0.71917 0.41712 0.04663 0.0
C723 C 0.69541 0.39969 0.06654 0.0
C724 C 0.65783 0.3784 0.05965 0.0
C725 C 0.64438 0.37405 0.03321 0.0
C726 C 0.66903 0.39112 1.01388 0.0
C727 C 0.70547 0.41239 0.02025 0.0
C728 C 0.72838 0.42612 0.99557 0.0
C729 C 0.71985 0.46194 0.99422 0.0
C730 C 0.78289 0.41822 0.99404 0.0
C731 C 0.69994 0.40876 0.97437 0.0
C732 C 0.66561 0.3889 0.98536 0.0
C733 C 0.6363 0.36951 0.96978 0.0
C734 C 0.64227 0.37033 0.94228 0.0
C735 C 0.67743 0.39037 0.93047 0.0
C736 C 0.70628 0.40997 0.94694 0.0
H737 H 0.85225 0.16103 0.55439 0.0
H738 H 0.81512 0.06206 0.56519 0.0
H739 H 0.82513 0.0527 0.51785 0.0
H740 H 0.7855 0.16899 0.49344 0.0
H741 H 0.82871 0.19556 0.47851 0.0
H742 H 0.82211 0.19461 0.51384 0.0
H743 H 0.91423 0.18361 0.51836 0.0
H744 H 0.92096 0.18416 0.483 0.0
H745 H 0.94051 0.1502 0.5014 0.0
H746 H 0.83729 0.05303 0.46976 0.0
H747 H 0.84249 0.06463 0.42225 0.0
H748 H 0.86808 0.16354 0.44002 0.0
C749 C 0.84622 0.1374 0.54681 0.0
C750 C 0.83436 0.11212 0.56403 0.0
C751 C 0.8262 0.08168 0.55295 0.0
C752 C 0.83147 0.07607 0.52589 0.0
C753 C 0.84423 0.10114 0.5097 0.0
C754 C 0.85081 0.13133 0.51952 0.0
C755 C 0.86151 0.15423 0.49714 0.0
C756 C 0.82211 0.17986 0.49565 0.0
C757 C 0.91233 0.16892 0.50016 0.0
C758 C 0.85944 0.13212 0.47335 0.0
C759 C 0.84999 0.10154 0.4813 0.0
C760 C 0.84489 0.07684 0.46327 0.0
C761 C 0.84809 0.08361 0.43634 0.0
C762 C 0.85622 0.11482 0.4275 0.0
C763 C 0.86287 0.13935 0.44629 0.0
H764 H 0.81284 0.94128 0.05297 0.0
H765 H 0.85247 0.84304 0.06302 0.0
H766 H 0.87127 0.83889 1.0154 0.0
H767 H 0.75319 0.93054 0.99099 0.0
H768 H 0.77329 0.96767 0.97753 0.0
H769 H 0.76571 0.96348 1.01261 0.0
H770 H 0.85485 0.98131 0.01985 0.0
H771 H 0.86266 0.98564 0.98478 0.0
H772 H 0.90325 0.96067 1.00308 0.0
H773 H 0.88565 0.84543 0.96666 0.0
H774 H 0.89034 0.86137 0.91987 0.0
H775 H 0.83796 0.9547 0.94103 0.0
C776 C 0.82601 0.91904 0.04513 0.0
C777 C 0.83152 0.8925 0.06163 0.0
C778 C 0.84796 0.8636 0.05065 0.0
C779 C 0.85886 0.86107 0.02368 0.0
C780 C 0.85269 0.88758 1.00787 0.0
C781 C 0.83636 0.91597 0.01813 0.0
C782 C 0.83077 0.94044 0.99662 0.0
C783 C 0.77758 0.95115 0.9943 0.0
C784 C 0.86493 0.96868 1.00137 0.0
C785 C 0.84641 0.92136 0.97268 0.0
C786 C 0.8594 0.89103 0.97965 0.0
C787 C 0.87553 0.86911 0.96098 0.0
C788 C 0.87825 0.8784 0.93448 0.0
C789 C 0.86441 0.90921 0.92682 0.0
C790 C 0.84833 0.9309 0.94627 0.0
H791 H 0.62498 0.61364 0.56583 0.0
H792 H 0.77644 0.63921 0.55366 0.0
H793 H 0.76318 0.63908 0.50567 0.0
H794 H 0.61928 0.55878 0.5117 0.0
H795 H 0.55747 0.56851 0.50339 0.0
H796 H 0.57806 0.57264 0.5369 0.0
H797 H 0.55126 0.63127 0.53711 0.0
H798 H 0.53072 0.62735 0.50356 0.0
H799 H 0.57429 0.65753 0.51213 0.0
H800 H 0.73343 0.63574 0.45844 0.0
H801 H 0.69071 0.62647 0.4162 0.0
H802 H 0.56056 0.59982 0.4592 0.0
C803 C 0.65568 0.61896 0.55323 0.0
C804 C 0.7018 0.62669 0.56393 0.0
C805 C 0.74043 0.63394 0.54631 0.0
C806 C 0.73338 0.6337 0.51888 0.0
C807 C 0.68758 0.62587 0.50914 0.0
C808 C 0.64949 0.6184 0.52579 0.0
C809 C 0.60432 0.60962 0.5103 0.0
C810 C 0.5889 0.57535 0.51591 0.0
C811 C 0.56269 0.63283 0.51613 0.0
C812 C 0.62299 0.6132 0.48232 0.0
C813 C 0.67096 0.62292 0.48204 0.0
C814 C 0.69588 0.62809 0.45845 0.0
C815 C 0.67127 0.62292 0.43455 0.0
C816 C 0.62238 0.61234 0.43437 0.0
C817 C 0.59808 0.6076 0.45867 0.0
H818 H 0.36234 0.65275 0.98066 0.0
H819 H 0.28836 0.56342 0.96774 0.0
H820 H 0.28862 0.55361 1.01571 0.0
H821 H 0.43896 0.62615 0.03507 0.0
H822 H 0.43447 0.66316 0.05264 0.0
H823 H 0.43071 0.66242 0.01718 0.0
H824 H 0.34775 0.69116 0.0195 0.0
H825 H 0.35127 0.69201 0.05493 0.0
H826 H 0.29923 0.67451 0.03899 0.0
H827 H 0.29086 0.55555 0.06525 0.0
H828 H 0.29829 0.56809 0.1128 0.0
H829 H 0.3735 0.6551 0.09374 0.0
C830 C 0.34643 0.63105 0.98794 0.0
C831 C 0.32544 0.60878 0.97042 0.0
C832 C 0.3052 0.58061 0.98072 0.0
C833 C 0.30501 0.5749 1.00795 0.0
C834 C 0.32562 0.59743 0.02467 0.0
C835 C 0.34634 0.62483 1.01506 0.0
C836 C 0.36518 0.64552 0.03733 0.0
C837 C 0.42063 0.64954 0.03543 0.0
C838 C 0.3393 0.6777 0.0377 0.0
C839 C 0.35101 0.62575 0.06099 0.0
C840 C 0.32817 0.59811 0.05323 0.0
C841 C 0.30929 0.57689 0.07154 0.0
C842 C 0.31356 0.5842 0.09845 0.0
C843 C 0.33693 0.61232 0.10682 0.0
C844 C 0.35634 0.63314 0.08782 0.0
H845 H 0.21715 0.85165 0.47801 0.0
H846 H 0.07711 0.89079 0.45608 0.0
H847 H 0.0489 0.88581 0.50175 0.0
H848 H 0.16649 0.79343 0.52358 0.0
H849 H 0.21608 0.79689 0.54656 0.0
H850 H 0.22635 0.80393 0.51198 0.0
H851 H 0.26135 0.85926 0.52302 0.0
H852 H 0.25101 0.85245 0.55761 0.0
H853 H 0.22527 0.8867 0.54203 0.0
H854 H 0.0364 0.87952 0.54996 0.0
H855 H 0.03844 0.86765 0.59765 0.0
H856 H 0.18296 0.82835 0.58861 0.0
C857 C 0.18043 0.85892 0.48272 0.0
C858 C 0.15 0.87244 0.46332 0.0
C859 C 0.10204 0.88148 0.47055 0.0
C860 C 0.08533 0.87846 0.49648 0.0
C861 C 0.11645 0.86573 0.51512 0.0
C862 C 0.16271 0.85563 0.5086 0.0
C863 C 0.18817 0.84217 0.53257 0.0
C864 C 0.19996 0.80701 0.52842 0.0
C865 C 0.23417 0.86129 0.53919 0.0
C866 C 0.14912 0.84667 0.55348 0.0
C867 C 0.10821 0.86054 0.54294 0.0
C868 C 0.068 0.86834 0.55843 0.0
C869 C 0.0695 0.86165 0.58545 0.0
C870 C 0.11063 0.84696 0.59662 0.0
C871 C 0.15086 0.83926 0.5804 0.0
H872 H 0.24218 0.26516 0.38136 0.0
H873 H 0.19962 0.35166 0.3425 0.0
H874 H 0.13563 0.3224 0.31821 0.0
H875 H 0.23265 0.21582 0.3284 0.0
H876 H 0.20607 0.18193 0.34444 0.0
H877 H 0.24377 0.20896 0.36275 0.0
H878 H 0.17734 0.22014 0.39679 0.0
H879 H 0.13909 0.19155 0.38044 0.0
H880 H 0.11734 0.23114 0.3861 0.0
H881 H 0.07663 0.28356 0.29811 0.0
H882 H 0.03131 0.23736 0.28086 0.0
H883 H 0.1172 0.17536 0.32987 0.0
C884 C 0.21867 0.27802 0.36814 0.0
C885 C 0.2249 0.31082 0.36426 0.0
C886 C 0.19454 0.3267 0.34619 0.0
C887 C 0.15824 0.31026 0.33231 0.0
C888 C 0.15304 0.27791 0.3366 0.0
C889 C 0.18238 0.26194 0.35411 0.0
C890 C 0.17092 0.22688 0.35414 0.0
C891 C 0.21598 0.20721 0.34696 0.0
C892 C 0.14992 0.21685 0.38096 0.0
C893 C 0.13232 0.22536 0.33288 0.0
C894 C 0.12135 0.25522 0.32371 0.0
C895 C 0.08502 0.2601 0.30508 0.0
C896 C 0.05934 0.2338 0.2955 0.0
C897 C 0.07112 0.20297 0.30397 0.0
C898 C 0.10801 0.19873 0.32291 0.0
H899 H 0.38826 0.18158 0.85033 0.0
H900 H 0.30563 0.23625 0.90729 0.0
H901 H 0.33507 0.28569 0.88671 0.0
H902 H 0.49231 0.23374 0.8487 0.0
H903 H 0.50334 0.22772 0.81399 0.0
H904 H 0.47515 0.197 0.83317 0.0
H905 H 0.40406 0.19578 0.80062 0.0
H906 H 0.42953 0.22757 0.7816 0.0
H907 H 0.3689 0.23088 0.79518 0.0
H908 H 0.37699 0.32906 0.8613 0.0
H909 H 0.42661 0.36328 0.83235 0.0
H910 H 0.47949 0.28063 0.7905 0.0
C911 C 0.37593 0.20398 0.85825 0.0
C912 C 0.34365 0.20513 0.88 0.0
C913 C 0.32942 0.23488 0.89027 0.0
C914 C 0.34613 0.26304 0.87877 0.0
C915 C 0.3775 0.26107 0.85716 0.0
C916 C 0.39242 0.2323 0.84706 0.0
C917 C 0.42712 0.2367 0.82405 0.0
C918 C 0.47745 0.22298 0.83037 0.0
C919 C 0.40616 0.2219 0.79882 0.0
C920 C 0.42897 0.27248 0.82251 0.0
C921 C 0.40057 0.28606 0.84204 0.0
C922 C 0.39894 0.31869 0.84579 0.0
C923 C 0.42738 0.33793 0.82935 0.0
C924 C 0.45654 0.32458 0.80916 0.0
C925 C 0.45686 0.29144 0.80553 0.0
H926 H 0.75907 0.20405 0.70516 0.0
H927 H 0.76602 0.2424 0.62617 0.0
H928 H 0.71178 0.28613 0.63986 0.0
H929 H 0.63195 0.22328 0.71747 0.0
H930 H 0.64138 0.23314 0.75169 0.0
H931 H 0.68013 0.20462 0.73565 0.0
H932 H 0.75575 0.2375 0.74914 0.0
H933 H 0.71711 0.26624 0.765 0.0
H934 H 0.75946 0.2785 0.73988 0.0
H935 H 0.65944 0.32625 0.66215 0.0
H936 H 0.60788 0.35916 0.69076 0.0
H937 H 0.63219 0.29495 0.75586 0.0
C938 C 0.74894 0.22166 0.69079 0.0
C939 C 0.76709 0.22016 0.66463 0.0
C940 C 0.75277 0.24336 0.64629 0.0
C941 C 0.7221 0.26825 0.65393 0.0
C942 C 0.70569 0.26949 0.67996 0.0
C943 C 0.71819 0.24673 0.69812 0.0
C944 C 0.69513 0.25371 0.72482 0.0
C945 C 0.66006 0.2271 0.73288 0.0
C946 C 0.73421 0.25931 0.74596 0.0
C947 C 0.66785 0.28398 0.71884 0.0
C948 C 0.67473 0.29261 0.69284 0.0
C949 C 0.65365 0.31965 0.6825 0.0
C950 C 0.62432 0.33821 0.699 0.0
C951 C 0.61598 0.32981 0.72568 0.0
C952 C 0.63833 0.30229 0.73571 0.0
H953 H 0.87534 0.33476 0.18444 0.0
H954 H 0.82656 0.28775 0.11318 0.0
H955 H 0.85297 0.23625 0.13126 0.0
H956 H 0.98227 0.2879 0.19392 0.0
H957 H 0.9771 0.28736 0.22934 0.0
H958 H 0.95334 0.32021 0.21106 0.0
H959 H 0.86972 0.31183 0.23278 0.0
H960 H 0.8914 0.27809 0.25075 0.0
H961 H 0.83926 0.27435 0.22947 0.0
H962 H 0.88801 0.19016 0.15671 0.0
H963 H 0.92743 0.15322 0.18784 0.0
H964 H 0.95247 0.23072 0.2423 0.0
C965 C 0.87028 0.31359 0.17269 0.0
C966 C 0.8494 0.31509 0.14732 0.0
C967 C 0.84288 0.28694 0.13257 0.0
C968 C 0.85769 0.25768 0.1427 0.0
C969 C 0.87869 0.25701 0.16768 0.0
C970 C 0.88495 0.28425 0.18248 0.0
C971 C 0.90901 0.27721 0.20861 0.0
C972 C 0.95836 0.29417 0.21085 0.0
C973 C 0.87535 0.28587 0.23178 0.0
C974 C 0.91545 0.24181 0.2062 0.0
C975 C 0.89781 0.23054 0.18246 0.0
C976 C 0.90149 0.1987 0.17547 0.0
C977 C 0.92392 0.17792 0.19318 0.0
C978 C 0.94191 0.18906 0.21761 0.0
C979 C 0.93765 0.22142 0.22408 0.0
H980 H 0.7653 0.7496 0.68388 0.0
H981 H 0.8706 0.68659 0.64785 0.0
H982 H 0.93718 0.71643 0.66923 0.0
H983 H 0.83635 0.82055 0.67669 0.0
H984 H 0.81664 0.83736 0.70764 0.0
H985 H 0.77742 0.81059 0.68994 0.0
H986 H 0.77198 0.77341 0.7308 0.0
H987 H 0.80857 0.80177 0.7481 0.0
H988 H 0.82749 0.76108 0.74653 0.0
H989 H 0.99245 0.75385 0.69423 0.0
H990 H 0.03219 0.79588 0.7202 0.0
H991 H 0.89092 0.83524 0.73973 0.0
C992 C 0.80239 0.74189 0.68076 0.0
C993 C 0.81255 0.71518 0.66483 0.0
C994 C 0.86167 0.70641 0.66052 0.0
C995 C 0.89979 0.72333 0.67251 0.0
C996 C 0.88836 0.74928 0.68843 0.0
C997 C 0.84084 0.75862 0.69243 0.0
C998 C 0.83829 0.7877 0.70997 0.0
C999 C 0.81585 0.8157 0.69517 0.0
C1000 C 0.80995 0.78049 0.73537 0.0
C1001 C 0.89184 0.79326 0.71543 0.0
C1002 C 0.92009 0.77086 0.70273 0.0
C1003 C 0.97063 0.77143 0.70429 0.0
C1004 C 0.9929 0.79554 0.71908 0.0
C1005 C 0.96483 0.81892 0.73221 0.0
C1006 C 0.91351 0.81754 0.73035 0.0
H1007 H 0.7018 0.78755 0.13787 0.0
H1008 H 0.6342 0.8676 0.17694 0.0
H1009 H 0.58902 0.8313 0.20609 0.0
H1010 H 0.59895 0.7365 0.13843 0.0
H1011 H 0.63244 0.70097 0.14537 0.0
H1012 H 0.6615 0.73299 0.12813 0.0
H1013 H 0.72968 0.73483 0.16328 0.0
H1014 H 0.70105 0.7026 0.18049 0.0
H1015 H 0.71362 0.73909 0.19761 0.0
H1016 H 0.54902 0.78704 0.22967 0.0
H1017 H 0.51954 0.73701 0.24848 0.0
H1018 H 0.61294 0.68445 0.19506 0.0
C1019 C 0.67784 0.79729 0.15279 0.0
C1020 C 0.67141 0.83034 0.15523 0.0
C1021 C 0.63965 0.84239 0.17482 0.0
C1022 C 0.6138 0.82195 0.19141 0.0
C1023 C 0.62028 0.78952 0.18825 0.0
C1024 C 0.65184 0.77715 0.16967 0.0
C1025 C 0.65177 0.74126 0.1705 0.0
C1026 C 0.63517 0.72711 0.14403 0.0
C1027 C 0.70202 0.72871 0.17844 0.0
C1028 C 0.61447 0.73545 0.19205 0.0
C1029 C 0.59704 0.76372 0.20202 0.0
C1030 C 0.56254 0.76478 0.2221 0.0
C1031 C 0.54603 0.73624 0.23264 0.0
C1032 C 0.56403 0.70696 0.22321 0.0
C1033 C 0.59819 0.70653 0.20237 0.0
H1034 H 0.28132 0.76028 0.38525 0.0
H1035 H 0.23886 0.82297 0.32215 0.0
H1036 H 0.29637 0.79593 0.29192 0.0
H1037 H 0.41024 0.75479 0.36688 0.0
H1038 H 0.41456 0.7137 0.37565 0.0
H1039 H 0.37207 0.73903 0.39263 0.0
H1040 H 0.30183 0.70082 0.38042 0.0
H1041 H 0.34408 0.67548 0.36334 0.0
H1042 H 0.29179 0.69067 0.3463 0.0
H1043 H 0.35381 0.75994 0.26799 0.0
H1044 H 0.41062 0.71913 0.25212 0.0
H1045 H 0.41785 0.67997 0.33095 0.0
C1046 C 0.28455 0.7684 0.36511 0.0
C1047 C 0.25543 0.79346 0.35581 0.0
C1048 C 0.26069 0.80365 0.32945 0.0
C1049 C 0.29321 0.78846 0.31222 0.0
C1050 C 0.32059 0.76334 0.32178 0.0
C1051 C 0.31698 0.75352 0.34766 0.0
C1052 C 0.34985 0.72544 0.35271 0.0
C1053 C 0.389 0.73375 0.37318 0.0
C1054 C 0.3201 0.69639 0.36119 0.0
C1055 C 0.37194 0.72072 0.32555 0.0
C1056 C 0.3545 0.74286 0.30804 0.0
C1057 C 0.368 0.74265 0.28157 0.0
C1058 C 0.40014 0.71922 0.27272 0.0
C1059 C 0.41874 0.69631 0.29028 0.0
C1060 C 0.4046 0.6973 0.3171 0.0
H1061 H 0.21157 0.7483 0.90182 0.0
H1062 H 0.22586 0.6717 0.84536 0.0
H1063 H 0.19439 0.70642 0.81014 0.0
H1064 H 0.10161 0.77732 0.87892 0.0
H1065 H 0.11505 0.81866 0.88356 0.0
H1066 H 0.14407 0.78962 0.90394 0.0
H1067 H 0.22907 0.8099 0.89024 0.0
H1068 H 0.2008 0.83978 0.87032 0.0
H1069 H 0.24423 0.81303 0.85575 0.0
H1070 H 0.15355 0.74765 0.78241 0.0
H1071 H 0.10948 0.79294 0.7636 0.0
H1072 H 0.12468 0.84377 0.83763 0.0
C1073 C 0.20893 0.73912 0.88191 0.0
C1074 C 0.22093 0.70736 0.87617 0.0
C1075 C 0.21679 0.69599 0.85 0.0
C1076 C 0.19898 0.71552 0.82995 0.0
C1077 C 0.18609 0.74648 0.83638 0.0
C1078 C 0.19142 0.75836 0.86165 0.0
C1079 C 0.17277 0.79199 0.86361 0.0
C1080 C 0.13089 0.79454 0.88369 0.0
C1081 C 0.21419 0.81504 0.87038 0.0
C1082 C 0.1549 0.79687 0.8357 0.0
C1083 C 0.16313 0.77039 0.82029 0.0
C1084 C 0.14751 0.76865 0.79421 0.0
C1085 C 0.12252 0.79452 0.7837 0.0
C1086 C 0.11324 0.82179 0.79921 0.0
C1087 C 0.13068 0.82311 0.82538 0.0
loop_
_geom_bond_atom_site_label_1
_geom_bond_atom_site_label_2
_geom_bond_distance
_geom_bond_site_symmetry_2
_ccdc_geom_bond_type
H0 C7 0.929 . S
H1 C10 0.930 . S
H2 C12 0.929 . S
H3 C4 0.969 . S
C4 H3 0.969 . S
C4 O5 1.550 . S
C4 H6 0.973 . S
O5 C4 1.550 . S
O5 C11 1.412 . S
H6 C4 0.973 . S
C7 H0 0.929 . S
C7 C8 1.400 . S
C7 C9 1.364 . S
C8 C7 1.400 . S
C8 C12 1.377 . S
C9 C7 1.364 . S
C9 C10 1.374 . S
C10 H1 0.930 . S
C10 C9 1.374 . S
C10 C11 1.383 . S
C11 O5 1.412 . S
C11 C10 1.383 . S
C11 C12 1.394 . S
C12 H2 0.929 . S
C12 C8 1.377 . S
C12 C11 1.394 . S
H13 C20 0.929 . S
H14 C23 0.930 . S
H15 C25 0.929 . S
H16 C17 0.969 . S
C17 H16 0.969 . S
C17 O18 1.550 . S
C17 H19 0.973 . S
O18 C17 1.550 . S
O18 C24 1.412 . S
H19 C17 0.973 . S
C20 H13 0.929 . S
C20 C21 1.400 . S
C20 C22 1.364 . S
C21 C20 1.400 . S
C21 C25 1.377 . S
C22 C20 1.364 . S
C22 C23 1.374 . S
C23 H14 0.930 . S
C23 C22 1.374 . S
C23 C24 1.383 . S
C24 O18 1.412 . S
C24 C23 1.383 . S
C24 C25 1.394 . S
C25 H15 0.929 . S
C25 C21 1.377 . S
C25 C24 1.394 . S
H26 C33 0.929 . S
H27 C36 0.930 . S
H28 C38 0.929 . S
H29 C30 0.969 . S
C30 H29 0.969 . S
C30 O31 1.550 . S
C30 H32 0.973 . S
O31 C30 1.550 . S
O31 C37 1.412 . S
H32 C30 0.973 . S
C33 H26 0.929 . S
C33 C34 1.400 . S
C33 C35 1.364 . S
C34 C33 1.400 . S
C34 C38 1.377 . S
C35 C33 1.364 . S
C35 C36 1.374 . S
C36 H27 0.930 . S
C36 C35 1.374 . S
C36 C37 1.383 . S
C37 O31 1.412 . S
C37 C36 1.383 . S
C37 C38 1.394 . S
C38 H28 0.929 . S
C38 C34 1.377 . S
C38 C37 1.394 . S
H39 C46 0.929 . S
H40 C49 0.930 . S
H41 C51 0.929 . S
H42 C43 0.969 . S
C43 H42 0.969 . S
C43 O44 1.550 . S
C43 H45 0.973 . S
O44 C43 1.550 . S
O44 C50 1.412 . S
H45 C43 0.973 . S
C46 H39 0.929 . S
C46 C47 1.400 . S
C46 C48 1.364 . S
C47 C46 1.400 . S
C47 C51 1.377 . S
C48 C46 1.364 . S
C48 C49 1.374 . S
C49 H40 0.930 . S
C49 C48 1.374 . S
C49 C50 1.383 . S
C50 O44 1.412 . S
C50 C49 1.383 . S
C50 C51 1.394 . S
C51 H41 0.929 . S
C51 C47 1.377 . S
C51 C50 1.394 . S
H52 C59 0.929 . S
H53 C62 0.930 . S
H54 C64 0.929 . S
H55 C56 0.969 . S
C56 H55 0.969 . S
C56 O57 1.550 . S
C56 H58 0.973 . S
O57 C56 1.550 . S
O57 C63 1.412 . S
H58 C56 0.973 . S
C59 H52 0.929 . S
C59 C60 1.400 . S
C59 C61 1.364 . S
C60 C59 1.400 . S
C60 C64 1.377 . S
C61 C59 1.364 . S
C61 C62 1.374 . S
C62 H53 0.930 . S
C62 C61 1.374 . S
C62 C63 1.383 . S
C63 O57 1.412 . S
C63 C62 1.383 . S
C63 C64 1.394 . S
C64 H54 0.929 . S
C64 C60 1.377 . S
C64 C63 1.394 . S
H65 C72 0.929 . S
H66 C75 0.930 . S
H67 C77 0.929 . S
H68 C69 0.969 . S
C69 H68 0.969 . S
C69 O70 1.550 . S
C69 H71 0.973 . S
O70 C69 1.550 . S
O70 C76 1.412 . S
H71 C69 0.973 . S
C72 H65 0.929 . S
C72 C73 1.400 . S
C72 C74 1.364 . S
C73 C72 1.400 . S
C73 C77 1.377 . S
C74 C72 1.364 . S
C74 C75 1.374 . S
C75 H66 0.930 . S
C75 C74 1.374 . S
C75 C76 1.383 . S
C76 O70 1.412 . S
C76 C75 1.383 . S
C76 C77 1.394 . S
C77 H67 0.929 . S
C77 C73 1.377 . S
C77 C76 1.394 . S
H78 C85 0.929 . S
H79 C88 0.930 . S
H80 C90 0.929 . S
H81 C82 0.969 . S
C82 H81 0.969 . S
C82 O83 1.550 . S
C82 H84 0.973 . S
O83 C82 1.550 . S
O83 C89 1.412 . S
H84 C82 0.973 . S
C85 H78 0.929 . S
C85 C86 1.400 . S
C85 C87 1.364 . S
C86 C85 1.400 . S
C86 C90 1.377 . S
C87 C85 1.364 . S
C87 C88 1.374 . S
C88 H79 0.930 . S
C88 C87 1.374 . S
C88 C89 1.383 . S
C89 O83 1.412 . S
C89 C88 1.383 . S
C89 C90 1.394 . S
C90 H80 0.929 . S
C90 C86 1.377 . S
C90 C89 1.394 . S
H91 C98 0.929 . S
H92 C101 0.930 . S
H93 C103 0.929 . S
H94 C95 0.969 . S
C95 H94 0.969 . S
C95 O96 1.550 . S
C95 H97 0.973 . S
O96 C95 1.550 . S
O96 C102 1.412 . S
H97 C95 0.973 . S
C98 H91 0.929 . S
C98 C99 1.400 . S
C98 C100 1.364 . S
C99 C98 1.400 . S
C99 C103 1.377 . S
C100 C98 1.364 . S
C100 C101 1.374 . S
C101 H92 0.930 . S
C101 C100 1.374 . S
C101 C102 1.383 . S
C102 O96 1.412 . S
C102 C101 1.383 . S
C102 C103 1.394 . S
C103 H93 0.929 . S
C103 C99 1.377 . S
C103 C102 1.394 . S
Tb104 N133 2.617 . S
Tb104 N139 2.572 . S
Tb104 O148 2.465 . S
Tb104 O149 2.387 . S
Tb104 O151 2.428 . S
Tb104 O152 2.308 . S
Tb104 O156 2.349 . S
Tb104 O159 2.393 . S
Tb104 C168 2.802 . S
C105 N106 1.379 . S
C105 C108 1.416 . S
C105 C112 1.424 . S
N106 C105 1.379 . S
N106 C109 1.334 . S
N106 Tb115 2.617 . S
C107 C109 1.390 . S
C107 C110 1.339 . S
C107 H127 0.930 . S
C108 C105 1.416 . S
C108 C110 1.416 . S
C108 C114 1.448 . S
C109 N106 1.334 . S
C109 C107 1.390 . S
C109 H120 0.930 . S
C110 C107 1.339 . S
C110 C108 1.416 . S
C110 H131 0.930 . S
C111 C112 1.413 . S
C111 C113 1.427 . S
C111 C117 1.416 1_545 S
C112 C105 1.424 . S
C112 C111 1.413 . S
C112 N116 1.361 . S
C113 C111 1.427 . S
C113 C114 1.328 . S
C113 H128 0.929 . S
C114 C108 1.448 . S
C114 C113 1.328 . S
C114 H129 0.930 . S
Tb115 N106 2.617 . S
Tb115 N116 2.572 . S
Tb115 O150 2.349 1_655 S
Tb115 O153 2.393 . S
Tb115 O154 2.465 . S
Tb115 O155 2.387 . S
Tb115 O157 2.428 . S
Tb115 O158 2.308 1_655 S
Tb115 C179 2.802 . S
N116 C112 1.361 . S
N116 Tb115 2.572 . S
N116 C118 1.340 . S
C117 C111 1.416 1_565 S
C117 C119 1.332 1_565 S
C117 H125 0.931 . S
C118 N116 1.340 . S
C118 C119 1.406 . S
C118 H124 0.930 . S
C119 C117 1.332 1_545 S
C119 C118 1.406 . S
C119 H121 0.931 1_545 S
H120 C109 0.930 . S
H121 C119 0.931 1_565 S
H122 C137 0.930 . S
H123 C144 0.929 . S
H124 C118 0.930 . S
H125 C117 0.931 . S
H126 C140 0.930 . S
H127 C107 0.930 . S
H128 C113 0.929 . S
H129 C114 0.930 . S
H130 C135 0.930 . S
H131 C110 0.930 . S
H132 C143 0.931 . S
N133 Tb104 2.617 . S
N133 C134 1.379 . S
N133 C137 1.334 . S
C134 N133 1.379 . S
C134 C136 1.416 . S
C134 C142 1.424 . S
C135 H130 0.930 . S
C135 C137 1.390 . S
C135 C138 1.339 . S
C136 C134 1.416 . S
C136 C138 1.416 . S
C136 C169 1.448 . S
C137 H122 0.930 . S
C137 N133 1.334 . S
C137 C135 1.390 . S
C138 C135 1.339 . S
C138 C136 1.416 . S
C138 H145 0.930 . S
N139 Tb104 2.572 . S
N139 C140 1.340 . S
N139 C142 1.361 . S
C140 H126 0.930 . S
C140 N139 1.340 . S
C140 C144 1.407 . S
C141 C142 1.413 . S
C141 C143 1.416 . S
C141 C170 1.427 . S
C142 C134 1.424 . S
C142 N139 1.361 . S
C142 C141 1.413 . S
C143 H132 0.931 . S
C143 C141 1.416 . S
C143 C144 1.332 . S
C144 H123 0.929 . S
C144 C140 1.407 . S
C144 C143 1.332 . S
H145 C138 0.930 . S
H146 C169 0.930 . S
H147 C170 0.929 . S
O148 Tb104 2.465 . S
O148 C168 1.264 . S
O149 Tb104 2.387 . S
O149 C160 1.264 . S
O150 Tb115 2.349 1_455 S
O150 C160 1.243 . S
O151 Tb104 2.428 . S
O151 C168 1.256 . S
O152 Tb104 2.308 . S
O152 C167 1.266 1_455 S
O153 Tb115 2.393 . S
O153 C167 1.248 . S
O154 Tb115 2.465 . S
O154 C179 1.264 . S
O155 Tb115 2.387 . S
O155 C171 1.264 . S
O156 Tb104 2.349 . S
O156 C171 1.243 1_455 S
O157 Tb115 2.428 . S
O157 C179 1.256 . S
O158 Tb115 2.308 1_455 S
O158 C178 1.266 . S
O159 Tb104 2.393 . S
O159 C178 1.248 . S
C160 O149 1.264 . S
C160 O150 1.243 . S
C161 C164 1.399 . S
C161 C166 1.383 . S
C161 C168 1.496 . S
C162 C163 1.399 . S
C162 C166 1.389 . S
C163 C162 1.399 . S
C163 C165 1.380 . S
C163 H180 0.929 . S
C164 C161 1.399 . S
C164 C165 1.392 . S
C164 H181 0.929 . S
C165 C163 1.380 . S
C165 C164 1.392 . S
C165 H182 0.929 . S
C166 C161 1.383 . S
C166 C162 1.389 . S
C166 H183 0.931 . S
C167 O152 1.266 1_655 S
C167 O153 1.248 . S
C168 Tb104 2.802 . S
C168 O148 1.264 . S
C168 O151 1.256 . S
C168 C161 1.496 . S
C169 C136 1.448 . S
C169 H146 0.930 . S
C169 C170 1.328 . S
C170 C141 1.427 . S
C170 H147 0.929 . S
C170 C169 1.328 . S
C171 O155 1.264 . S
C171 O156 1.243 1_655 S
C172 C175 1.399 . S
C172 C176 1.383 . S
C172 C179 1.496 . S
C173 C174 1.399 . S
C173 C176 1.389 . S
C174 C173 1.399 . S
C174 C177 1.380 . S
C174 H184 0.929 . S
C175 C172 1.399 . S
C175 C177 1.392 . S
C175 H185 0.929 . S
C176 C172 1.383 . S
C176 C173 1.389 . S
C176 H186 0.931 . S
C177 C174 1.380 . S
C177 C175 1.392 . S
C177 H187 0.929 . S
C178 O158 1.266 . S
C178 O159 1.248 . S
C179 Tb115 2.802 . S
C179 O154 1.264 . S
C179 O157 1.256 . S
C179 C172 1.496 . S
H180 C163 0.929 . S
H181 C164 0.929 . S
H182 C165 0.929 . S
H183 C166 0.931 . S
H184 C174 0.929 . S
H185 C175 0.929 . S
H186 C176 0.931 . S
H187 C177 0.929 . S
Tb188 N217 2.617 . S
Tb188 N223 2.572 . S
Tb188 O232 2.465 . S
Tb188 O233 2.387 . S
Tb188 O235 2.428 . S
Tb188 O236 2.308 . S
Tb188 O240 2.349 . S
Tb188 O243 2.393 . S
Tb188 C252 2.802 . S
C189 N190 1.379 . S
C189 C192 1.416 . S
C189 C196 1.424 . S
N190 C189 1.379 . S
N190 C193 1.334 . S
N190 Tb199 2.617 . S
C191 C193 1.390 . S
C191 C194 1.339 . S
C191 H211 0.930 . S
C192 C189 1.416 . S
C192 C194 1.416 . S
C192 C198 1.448 . S
C193 N190 1.334 . S
C193 C191 1.390 . S
C193 H204 0.930 . S
C194 C191 1.339 . S
C194 C192 1.416 . S
C194 H215 0.930 . S
C195 C196 1.413 . S
C195 C197 1.427 . S
C195 C201 1.416 . S
C196 C189 1.424 . S
C196 C195 1.413 . S
C196 N200 1.361 . S
C197 C195 1.427 . S
C197 C198 1.328 . S
C197 H212 0.929 . S
C198 C192 1.448 . S
C198 C197 1.328 . S
C198 H213 0.930 . S
Tb199 N190 2.617 . S
Tb199 N200 2.572 . S
Tb199 O234 2.349 . S
Tb199 O237 2.393 . S
Tb199 O238 2.465 . S
Tb199 O239 2.387 . S
Tb199 O241 2.428 . S
Tb199 O242 2.308 . S
Tb199 C263 2.802 . S
N200 C196 1.361 . S
N200 Tb199 2.572 . S
N200 C202 1.340 . S
C201 C195 1.416 . S
C201 C203 1.332 . S
C201 H209 0.931 . S
C202 N200 1.340 . S
C202 C203 1.407 . S
C202 H208 0.930 . S
C203 C201 1.332 . S
C203 C202 1.407 . S
C203 H205 0.929 . S
H204 C193 0.930 . S
H205 C203 0.929 . S
H206 C221 0.930 . S
H207 C228 0.929 . S
H208 C202 0.930 . S
H209 C201 0.931 . S
H210 C224 0.930 . S
H211 C191 0.930 . S
H212 C197 0.929 . S
H213 C198 0.930 . S
H214 C219 0.930 . S
H215 C194 0.930 . S
H216 C227 0.931 . S
N217 Tb188 2.617 . S
N217 C218 1.379 . S
N217 C221 1.334 . S
C218 N217 1.379 . S
C218 C220 1.416 . S
C218 C226 1.424 . S
C219 H214 0.930 . S
C219 C221 1.390 . S
C219 C222 1.339 . S
C220 C218 1.416 . S
C220 C222 1.416 . S
C220 C253 1.448 . S
C221 H206 0.930 . S
C221 N217 1.334 . S
C221 C219 1.390 . S
C222 C219 1.339 . S
C222 C220 1.416 . S
C222 H229 0.930 . S
N223 Tb188 2.572 . S
N223 C224 1.340 . S
N223 C226 1.361 . S
C224 H210 0.930 . S
C224 N223 1.340 . S
C224 C228 1.407 . S
C225 C226 1.413 . S
C225 C227 1.416 . S
C225 C254 1.427 . S
C226 C218 1.424 . S
C226 N223 1.361 . S
C226 C225 1.413 . S
C227 H216 0.931 . S
C227 C225 1.416 . S
C227 C228 1.332 . S
C228 H207 0.929 . S
C228 C224 1.407 . S
C228 C227 1.332 . S
H229 C222 0.930 . S
H230 C253 0.930 . S
H231 C254 0.929 . S
O232 Tb188 2.465 . S
O232 C252 1.264 . S
O233 Tb188 2.387 . S
O233 C244 1.264 . S
O234 Tb199 2.349 . S
O234 C244 1.243 . S
O235 Tb188 2.428 . S
O235 C252 1.256 . S
O236 Tb188 2.308 . S
O236 C251 1.266 . S
O237 Tb199 2.393 . S
O237 C251 1.248 . S
O238 Tb199 2.465 . S
O238 C263 1.264 . S
O239 Tb199 2.387 . S
O239 C255 1.264 . S
O240 Tb188 2.349 . S
O240 C255 1.243 . S
O241 Tb199 2.428 . S
O241 C263 1.256 . S
O242 Tb199 2.308 . S
O242 C262 1.266 . S
O243 Tb188 2.393 . S
O243 C262 1.248 . S
C244 O233 1.264 . S
C244 O234 1.243 . S
C245 C248 1.399 . S
C245 C250 1.383 . S
C245 C252 1.496 . S
C246 C247 1.399 . S
C246 C250 1.389 . S
C247 C246 1.399 . S
C247 C249 1.380 . S
C247 H264 0.929 . S
C248 C245 1.399 . S
C248 C249 1.392 . S
C248 H265 0.929 . S
C249 C247 1.380 . S
C249 C248 1.392 . S
C249 H266 0.929 . S
C250 C245 1.383 . S
C250 C246 1.389 . S
C250 H267 0.931 . S
C251 O236 1.266 . S
C251 O237 1.248 . S
C252 Tb188 2.802 . S
C252 O232 1.264 . S
C252 O235 1.256 . S
C252 C245 1.496 . S
C253 C220 1.448 . S
C253 H230 0.930 . S
C253 C254 1.328 . S
C254 C225 1.427 . S
C254 H231 0.929 . S
C254 C253 1.328 . S
C255 O239 1.264 . S
C255 O240 1.243 . S
C256 C259 1.399 . S
C256 C260 1.383 . S
C256 C263 1.496 . S
C257 C258 1.399 . S
C257 C260 1.389 . S
C258 C257 1.399 . S
C258 C261 1.380 . S
C258 H268 0.929 . S
C259 C256 1.399 . S
C259 C261 1.392 . S
C259 H269 0.929 . S
C260 C256 1.383 . S
C260 C257 1.389 . S
C260 H270 0.931 . S
C261 C258 1.380 . S
C261 C259 1.392 . S
C261 H271 0.929 . S
C262 O242 1.266 . S
C262 O243 1.248 . S
C263 Tb199 2.802 . S
C263 O238 1.264 . S
C263 O241 1.256 . S
C263 C256 1.496 . S
H264 C247 0.929 . S
H265 C248 0.929 . S
H266 C249 0.929 . S
H267 C250 0.931 . S
H268 C258 0.929 . S
H269 C259 0.929 . S
H270 C260 0.931 . S
H271 C261 0.929 . S
Tb272 N301 2.617 . S
Tb272 N307 2.572 . S
Tb272 O316 2.465 . S
Tb272 O317 2.387 . S
Tb272 O319 2.428 . S
Tb272 O320 2.308 . S
Tb272 O324 2.349 . S
Tb272 O327 2.393 . S
Tb272 C336 2.802 . S
C273 N274 1.379 . S
C273 C276 1.416 . S
C273 C280 1.424 . S
N274 C273 1.379 . S
N274 C277 1.334 . S
N274 Tb283 2.617 . S
C275 C277 1.390 . S
C275 C278 1.339 . S
C275 H295 0.930 . S
C276 C273 1.416 . S
C276 C278 1.416 . S
C276 C282 1.448 . S
C277 N274 1.334 . S
C277 C275 1.390 . S
C277 H288 0.930 . S
C278 C275 1.339 . S
C278 C276 1.416 . S
C278 H299 0.930 . S
C279 C280 1.413 . S
C279 C281 1.427 . S
C279 C285 1.416 . S
C280 C273 1.424 . S
C280 C279 1.413 . S
C280 N284 1.361 . S
C281 C279 1.427 . S
C281 C282 1.328 . S
C281 H296 0.929 . S
C282 C276 1.448 . S
C282 C281 1.328 . S
C282 H297 0.930 . S
Tb283 N274 2.617 . S
Tb283 N284 2.572 . S
Tb283 O318 2.349 1_655 S
Tb283 O321 2.393 . S
Tb283 O322 2.465 . S
Tb283 O323 2.387 . S
Tb283 O325 2.428 . S
Tb283 O326 2.308 1_655 S
Tb283 C347 2.802 . S
N284 C280 1.361 . S
N284 Tb283 2.572 . S
N284 C286 1.340 . S
C285 C279 1.416 . S
C285 C287 1.332 . S
C285 H293 0.931 . S
C286 N284 1.340 . S
C286 C287 1.407 . S
C286 H292 0.930 . S
C287 C285 1.332 . S
C287 C286 1.407 . S
C287 H289 0.929 . S
H288 C277 0.930 . S
H289 C287 0.929 . S
H290 C305 0.930 . S
H291 C312 0.932 1_545 S
H292 C286 0.930 . S
H293 C285 0.931 . S
H294 C308 0.930 . S
H295 C275 0.930 . S
H296 C281 0.929 . S
H297 C282 0.930 . S
H298 C303 0.930 . S
H299 C278 0.930 . S
H300 C311 0.931 . S
N301 Tb272 2.617 . S
N301 C302 1.379 . S
N301 C305 1.334 . S
C302 N301 1.379 . S
C302 C304 1.416 . S
C302 C310 1.424 . S
C303 H298 0.930 . S
C303 C305 1.390 . S
C303 C306 1.339 . S
C304 C302 1.416 . S
C304 C306 1.416 . S
C304 C337 1.448 . S
C305 H290 0.930 . S
C305 N301 1.334 . S
C305 C303 1.390 . S
C306 C303 1.339 . S
C306 C304 1.416 . S
C306 H313 0.930 . S
N307 Tb272 2.572 . S
N307 C308 1.340 . S
N307 C310 1.361 . S
C308 H294 0.930 . S
C308 N307 1.340 . S
C308 C312 1.405 . S
C309 C310 1.413 . S
C309 C311 1.416 1_565 S
C309 C338 1.427 . S
C310 C302 1.424 . S
C310 N307 1.361 . S
C310 C309 1.413 . S
C311 H300 0.931 . S
C311 C309 1.416 1_545 S
C311 C312 1.332 1_545 S
C312 H291 0.932 1_565 S
C312 C308 1.405 . S
C312 C311 1.332 1_565 S
H313 C306 0.930 . S
H314 C337 0.930 . S
H315 C338 0.929 . S
O316 Tb272 2.465 . S
O316 C336 1.264 . S
O317 Tb272 2.387 . S
O317 C328 1.264 . S
O318 Tb283 2.349 1_455 S
O318 C328 1.243 . S
O319 Tb272 2.428 . S
O319 C336 1.256 . S
O320 Tb272 2.308 . S
O320 C335 1.266 1_455 S
O321 Tb283 2.393 . S
O321 C335 1.248 . S
O322 Tb283 2.465 . S
O322 C347 1.264 . S
O323 Tb283 2.387 . S
O323 C339 1.264 . S
O324 Tb272 2.349 . S
O324 C339 1.243 1_455 S
O325 Tb283 2.428 . S
O325 C347 1.256 . S
O326 Tb283 2.308 1_455 S
O326 C346 1.266 . S
O327 Tb272 2.393 . S
O327 C346 1.248 . S
C328 O317 1.264 . S
C328 O318 1.243 . S
C329 C332 1.399 . S
C329 C334 1.383 . S
C329 C336 1.496 . S
C330 C331 1.399 . S
C330 C334 1.389 . S
C331 C330 1.399 . S
C331 C333 1.380 . S
C331 H348 0.929 . S
C332 C329 1.399 . S
C332 C333 1.392 . S
C332 H349 0.929 . S
C333 C331 1.380 . S
C333 C332 1.392 . S
C333 H350 0.929 . S
C334 C329 1.383 . S
C334 C330 1.389 . S
C334 H351 0.931 . S
C335 O320 1.266 1_655 S
C335 O321 1.248 . S
C336 Tb272 2.802 . S
C336 O316 1.264 . S
C336 O319 1.256 . S
C336 C329 1.496 . S
C337 C304 1.448 . S
C337 H314 0.930 . S
C337 C338 1.328 . S
C338 C309 1.427 . S
C338 H315 0.929 . S
C338 C337 1.328 . S
C339 O323 1.264 . S
C339 O324 1.243 1_655 S
C340 C343 1.399 . S
C340 C344 1.383 . S
C340 C347 1.496 . S
C341 C342 1.399 . S
C341 C344 1.389 . S
C342 C341 1.399 . S
C342 C345 1.380 . S
C342 H352 0.929 . S
C343 C340 1.399 . S
C343 C345 1.392 . S
C343 H353 0.929 . S
C344 C340 1.383 . S
C344 C341 1.389 . S
C344 H354 0.931 . S
C345 C342 1.380 . S
C345 C343 1.392 . S
C345 H355 0.929 . S
C346 O326 1.266 . S
C346 O327 1.248 . S
C347 Tb283 2.802 . S
C347 O322 1.264 . S
C347 O325 1.256 . S
C347 C340 1.496 . S
H348 C331 0.929 . S
H349 C332 0.929 . S
H350 C333 0.929 . S
H351 C334 0.931 . S
H352 C342 0.929 . S
H353 C343 0.929 . S
H354 C344 0.931 . S
H355 C345 0.929 . S
Tb356 N385 2.617 . S
Tb356 N391 2.572 . S
Tb356 O400 2.465 . S
Tb356 O401 2.387 . S
Tb356 O403 2.428 . S
Tb356 O404 2.308 . S
Tb356 O408 2.349 . S
Tb356 O411 2.393 . S
Tb356 C420 2.802 . S
C357 N358 1.379 . S
C357 C360 1.416 . S
C357 C364 1.424 . S
N358 C357 1.379 . S
N358 C361 1.334 . S
N358 Tb367 2.617 . S
C359 C361 1.390 . S
C359 C362 1.339 . S
C359 H379 0.930 . S
C360 C357 1.416 . S
C360 C362 1.416 . S
C360 C366 1.448 . S
C361 N358 1.334 . S
C361 C359 1.390 . S
C361 H372 0.930 . S
C362 C359 1.339 . S
C362 C360 1.416 . S
C362 H383 0.930 . S
C363 C364 1.413 . S
C363 C365 1.427 . S
C363 C369 1.416 . S
C364 C357 1.424 . S
C364 C363 1.413 . S
C364 N368 1.361 . S
C365 C363 1.427 . S
C365 C366 1.328 . S
C365 H380 0.929 . S
C366 C360 1.448 . S
C366 C365 1.328 . S
C366 H381 0.930 . S
Tb367 N358 2.617 . S
Tb367 N368 2.572 . S
Tb367 O402 2.349 . S
Tb367 O405 2.393 . S
Tb367 O406 2.465 . S
Tb367 O407 2.387 . S
Tb367 O409 2.428 . S
Tb367 O410 2.308 . S
Tb367 C431 2.802 . S
N368 C364 1.361 . S
N368 Tb367 2.572 . S
N368 C370 1.340 . S
C369 C363 1.416 . S
C369 C371 1.332 . S
C369 H377 0.931 . S
C370 N368 1.340 . S
C370 C371 1.407 . S
C370 H376 0.930 . S
C371 C369 1.332 . S
C371 C370 1.407 . S
C371 H373 0.929 . S
H372 C361 0.930 . S
H373 C371 0.929 . S
H374 C389 0.930 . S
H375 C396 0.929 . S
H376 C370 0.930 . S
H377 C369 0.931 . S
H378 C392 0.930 . S
H379 C359 0.930 . S
H380 C365 0.929 . S
H381 C366 0.930 . S
H382 C387 0.930 . S
H383 C362 0.930 . S
H384 C395 0.931 . S
N385 Tb356 2.617 . S
N385 C386 1.379 . S
N385 C389 1.334 . S
C386 N385 1.379 . S
C386 C388 1.416 . S
C386 C394 1.424 . S
C387 H382 0.930 . S
C387 C389 1.390 . S
C387 C390 1.339 . S
C388 C386 1.416 . S
C388 C390 1.416 . S
C388 C421 1.448 . S
C389 H374 0.930 . S
C389 N385 1.334 . S
C389 C387 1.390 . S
C390 C387 1.339 . S
C390 C388 1.416 . S
C390 H397 0.930 . S
N391 Tb356 2.572 . S
N391 C392 1.340 . S
N391 C394 1.361 . S
C392 H378 0.930 . S
C392 N391 1.340 . S
C392 C396 1.407 . S
C393 C394 1.413 . S
C393 C395 1.416 . S
C393 C422 1.427 . S
C394 C386 1.424 . S
C394 N391 1.361 . S
C394 C393 1.413 . S
C395 H384 0.931 . S
C395 C393 1.416 . S
C395 C396 1.332 . S
C396 H375 0.929 . S
C396 C392 1.407 . S
C396 C395 1.332 . S
H397 C390 0.930 . S
H398 C421 0.930 . S
H399 C422 0.929 . S
O400 Tb356 2.465 . S
O400 C420 1.264 . S
O401 Tb356 2.387 . S
O401 C412 1.264 . S
O402 Tb367 2.349 . S
O402 C412 1.243 . S
O403 Tb356 2.428 . S
O403 C420 1.256 . S
O404 Tb356 2.308 . S
O404 C419 1.266 . S
O405 Tb367 2.393 . S
O405 C419 1.248 . S
O406 Tb367 2.465 . S
O406 C431 1.264 . S
O407 Tb367 2.387 . S
O407 C423 1.264 . S
O408 Tb356 2.349 . S
O408 C423 1.243 . S
O409 Tb367 2.428 . S
O409 C431 1.256 . S
O410 Tb367 2.308 . S
O410 C430 1.266 . S
O411 Tb356 2.393 . S
O411 C430 1.248 . S
C412 O401 1.264 . S
C412 O402 1.243 . S
C413 C416 1.399 . S
C413 C418 1.383 . S
C413 C420 1.496 . S
C414 C415 1.399 . S
C414 C418 1.389 . S
C415 C414 1.399 . S
C415 C417 1.380 . S
C415 H432 0.929 . S
C416 C413 1.399 . S
C416 C417 1.392 . S
C416 H433 0.929 . S
C417 C415 1.380 . S
C417 C416 1.392 . S
C417 H434 0.929 . S
C418 C413 1.383 . S
C418 C414 1.389 . S
C418 H435 0.931 . S
C419 O404 1.266 . S
C419 O405 1.248 . S
C420 Tb356 2.802 . S
C420 O400 1.264 . S
C420 O403 1.256 . S
C420 C413 1.496 . S
C421 C388 1.448 . S
C421 H398 0.930 . S
C421 C422 1.328 . S
C422 C393 1.427 . S
C422 H399 0.929 . S
C422 C421 1.328 . S
C423 O407 1.264 . S
C423 O408 1.243 . S
C424 C427 1.399 . S
C424 C428 1.383 . S
C424 C431 1.496 . S
C425 C426 1.399 . S
C425 C428 1.389 . S
C426 C425 1.399 . S
C426 C429 1.380 . S
C426 H436 0.929 . S
C427 C424 1.399 . S
C427 C429 1.392 . S
C427 H437 0.929 . S
C428 C424 1.383 . S
C428 C425 1.389 . S
C428 H438 0.931 . S
C429 C426 1.380 . S
C429 C427 1.392 . S
C429 H439 0.929 . S
C430 O410 1.266 . S
C430 O411 1.248 . S
C431 Tb367 2.802 . S
C431 O406 1.264 . S
C431 O409 1.256 . S
C431 C424 1.496 . S
H432 C415 0.929 . S
H433 C416 0.929 . S
H434 C417 0.929 . S
H435 C418 0.931 . S
H436 C426 0.929 . S
H437 C427 0.929 . S
H438 C428 0.931 . S
H439 C429 0.929 . S
H440 C452 0.930 . S
H441 C454 0.930 . S
H442 C455 0.930 . S
H443 C459 0.959 1_545 S
H444 C459 0.959 . S
H445 C459 0.961 . S
H446 C460 0.960 . S
H447 C460 0.961 . S
H448 C460 0.959 . S
H449 C463 0.929 . S
H450 C464 0.931 . S
H451 C466 0.930 . S
C452 H440 0.930 . S
C452 C453 1.399 . S
C452 C457 1.399 . S
C453 C452 1.399 . S
C453 C454 1.376 . S
C454 H441 0.930 . S
C454 C453 1.376 . S
C454 C455 1.388 . S
C455 H442 0.930 . S
C455 C454 1.388 . S
C455 C456 1.390 . S
C456 C455 1.390 . S
C456 C457 1.394 . S
C456 C462 1.465 . S
C457 C452 1.399 . S
C457 C456 1.394 . S
C457 C458 1.516 . S
C458 C457 1.516 . S
C458 C459 1.502 . S
C458 C460 1.561 . S
C458 C461 1.526 . S
C459 H443 0.959 1_565 S
C459 H444 0.959 . S
C459 H445 0.961 . S
C459 C458 1.502 . S
C460 H446 0.960 . S
C460 H447 0.961 . S
C460 H448 0.959 . S
C460 C458 1.561 . S
C461 C458 1.526 . S
C461 C462 1.396 . S
C461 C466 1.390 1_565 S
C462 C456 1.465 . S
C462 C461 1.396 . S
C462 C463 1.399 1_565 S
C463 H449 0.929 . S
C463 C462 1.399 1_545 S
C463 C464 1.385 . S
C464 H450 0.931 . S
C464 C463 1.385 . S
C464 C465 1.389 . S
C465 C464 1.389 . S
C465 C466 1.387 . S
C466 H451 0.930 . S
C466 C461 1.390 1_545 S
C466 C465 1.387 . S
H467 C479 0.930 . S
H468 C481 0.930 . S
H469 C482 0.930 . S
H470 C486 0.959 . S
H471 C486 0.959 . S
H472 C486 0.961 . S
H473 C487 0.960 . S
H474 C487 0.961 . S
H475 C487 0.959 . S
H476 C490 0.929 . S
H477 C491 0.931 . S
H478 C493 0.930 . S
C479 H467 0.930 . S
C479 C480 1.399 . S
C479 C484 1.399 . S
C480 C479 1.399 . S
C480 C481 1.376 . S
C481 H468 0.930 . S
C481 C480 1.376 . S
C481 C482 1.388 . S
C482 H469 0.930 . S
C482 C481 1.388 . S
C482 C483 1.390 . S
C483 C482 1.390 . S
C483 C484 1.394 . S
C483 C489 1.465 . S
C484 C479 1.399 . S
C484 C483 1.394 . S
C484 C485 1.516 . S
C485 C484 1.516 . S
C485 C486 1.502 . S
C485 C487 1.561 . S
C485 C488 1.526 . S
C486 H470 0.959 . S
C486 H471 0.959 . S
C486 H472 0.961 . S
C486 C485 1.502 . S
C487 H473 0.960 . S
C487 H474 0.961 . S
C487 H475 0.959 . S
C487 C485 1.561 . S
C488 C485 1.526 . S
C488 C489 1.396 . S
C488 C493 1.390 . S
C489 C483 1.465 . S
C489 C488 1.396 . S
C489 C490 1.399 . S
C490 H476 0.929 . S
C490 C489 1.399 . S
C490 C491 1.385 . S
C491 H477 0.931 . S
C491 C490 1.385 . S
C491 C492 1.389 . S
C492 C491 1.389 . S
C492 C493 1.387 . S
C493 H478 0.930 . S
C493 C488 1.390 . S
C493 C492 1.387 . S
H494 C506 0.930 . S
H495 C508 0.930 . S
H496 C509 0.930 . S
H497 C513 0.959 . S
H498 C513 0.959 . S
H499 C513 0.961 . S
H500 C514 0.960 . S
H501 C514 0.961 . S
H502 C514 0.959 . S
H503 C517 0.929 . S
H504 C518 0.931 . S
H505 C520 0.930 . S
C506 H494 0.930 . S
C506 C507 1.399 . S
C506 C511 1.399 . S
C507 C506 1.399 . S
C507 C508 1.376 . S
C508 H495 0.930 . S
C508 C507 1.376 . S
C508 C509 1.388 . S
C509 H496 0.930 . S
C509 C508 1.388 . S
C509 C510 1.390 . S
C510 C509 1.390 . S
C510 C511 1.394 . S
C510 C516 1.465 . S
C511 C506 1.399 . S
C511 C510 1.394 . S
C511 C512 1.516 . S
C512 C511 1.516 . S
C512 C513 1.502 . S
C512 C514 1.561 . S
C512 C515 1.526 . S
C513 H497 0.959 . S
C513 H498 0.959 . S
C513 H499 0.961 . S
C513 C512 1.502 . S
C514 H500 0.960 . S
C514 H501 0.961 . S
C514 H502 0.959 . S
C514 C512 1.561 . S
C515 C512 1.526 . S
C515 C516 1.396 . S
C515 C520 1.390 . S
C516 C510 1.465 . S
C516 C515 1.396 . S
C516 C517 1.399 . S
C517 H503 0.929 . S
C517 C516 1.399 . S
C517 C518 1.385 . S
C518 H504 0.931 . S
C518 C517 1.385 . S
C518 C519 1.389 . S
C519 C518 1.389 . S
C519 C520 1.387 . S
C520 H505 0.930 . S
C520 C515 1.390 . S
C520 C519 1.387 . S
H521 C533 0.930 . S
H522 C535 0.930 . S
H523 C536 0.930 . S
H524 C540 0.959 . S
H525 C540 0.959 . S
H526 C540 0.961 . S
H527 C541 0.960 . S
H528 C541 0.961 1_545 S
H529 C541 0.959 . S
H530 C544 0.929 . S
H531 C545 0.931 1_455 S
H532 C547 0.930 . S
C533 H521 0.930 . S
C533 C534 1.399 . S
C533 C538 1.399 . S
C534 C533 1.399 . S
C534 C535 1.376 . S
C535 H522 0.930 . S
C535 C534 1.376 . S
C535 C536 1.388 . S
C536 H523 0.930 . S
C536 C535 1.388 . S
C536 C537 1.390 . S
C537 C536 1.390 . S
C537 C538 1.394 . S
C537 C543 1.465 . S
C538 C533 1.399 . S
C538 C537 1.394 . S
C538 C539 1.516 . S
C539 C538 1.516 . S
C539 C540 1.502 1_565 S
C539 C541 1.561 . S
C539 C542 1.526 1_565 S
C540 H524 0.959 . S
C540 H525 0.959 . S
C540 H526 0.961 . S
C540 C539 1.502 1_545 S
C541 H527 0.960 . S
C541 H528 0.961 1_565 S
C541 H529 0.959 . S
C541 C539 1.561 . S
C542 C539 1.526 1_545 S
C542 C543 1.396 1_545 S
C542 C547 1.390 . S
C543 C537 1.465 . S
C543 C542 1.396 1_565 S
C543 C544 1.399 . S
C544 H530 0.929 . S
C544 C543 1.399 . S
C544 C545 1.385 1_565 S
C545 H531 0.931 1_655 S
C545 C544 1.385 1_545 S
C545 C546 1.389 . S
C546 C545 1.389 . S
C546 C547 1.387 . S
C547 H532 0.930 . S
C547 C542 1.390 . S
C547 C546 1.387 . S
H548 C560 0.930 . S
H549 C562 0.930 . S
H550 C563 0.930 . S
H551 C567 0.959 . S
H552 C567 0.959 . S
H553 C567 0.961 . S
H554 C568 0.960 . S
H555 C568 0.961 . S
H556 C568 0.959 . S
H557 C571 0.929 . S
H558 C572 0.931 . S
H559 C574 0.930 . S
C560 H548 0.930 . S
C560 C561 1.399 . S
C560 C565 1.399 . S
C561 C560 1.399 . S
C561 C562 1.376 . S
C562 H549 0.930 . S
C562 C561 1.376 . S
C562 C563 1.388 . S
C563 H550 0.930 . S
C563 C562 1.388 . S
C563 C564 1.390 . S
C564 C563 1.390 . S
C564 C565 1.394 . S
C564 C570 1.465 . S
C565 C560 1.399 . S
C565 C564 1.394 . S
C565 C566 1.516 . S
C566 C565 1.516 . S
C566 C567 1.502 . S
C566 C568 1.561 . S
C566 C569 1.526 . S
C567 H551 0.959 . S
C567 H552 0.959 . S
C567 H553 0.961 . S
C567 C566 1.502 . S
C568 H554 0.960 . S
C568 H555 0.961 . S
C568 H556 0.959 . S
C568 C566 1.561 . S
C569 C566 1.526 . S
C569 C570 1.396 . S
C569 C574 1.390 1_545 S
C570 C564 1.465 . S
C570 C569 1.396 . S
C570 C571 1.399 1_545 S
C571 H557 0.929 . S
C571 C570 1.399 1_565 S
C571 C572 1.385 . S
C572 H558 0.931 . S
C572 C571 1.385 . S
C572 C573 1.389 . S
C573 C572 1.389 . S
C573 C574 1.387 . S
C574 H559 0.930 . S
C574 C569 1.390 1_565 S
C574 C573 1.387 . S
H575 C587 0.930 . S
H576 C589 0.930 . S
H577 C590 0.930 . S
H578 C594 0.959 . S
H579 C594 0.959 . S
H580 C594 0.961 . S
H581 C595 0.960 . S
H582 C595 0.961 . S
H583 C595 0.959 . S
H584 C598 0.929 . S
H585 C599 0.931 . S
H586 C601 0.930 . S
C587 H575 0.930 . S
C587 C588 1.399 . S
C587 C592 1.399 . S
C588 C587 1.399 . S
C588 C589 1.376 . S
C589 H576 0.930 . S
C589 C588 1.376 . S
C589 C590 1.388 . S
C590 H577 0.930 . S
C590 C589 1.388 . S
C590 C591 1.390 . S
C591 C590 1.390 . S
C591 C592 1.394 . S
C591 C597 1.465 . S
C592 C587 1.399 . S
C592 C591 1.394 . S
C592 C593 1.516 . S
C593 C592 1.516 . S
C593 C594 1.502 . S
C593 C595 1.561 . S
C593 C596 1.526 . S
C594 H578 0.959 . S
C594 H579 0.959 . S
C594 H580 0.961 . S
C594 C593 1.502 . S
C595 H581 0.960 . S
C595 H582 0.961 . S
C595 H583 0.959 . S
C595 C593 1.561 . S
C596 C593 1.526 . S
C596 C597 1.396 . S
C596 C601 1.390 . S
C597 C591 1.465 . S
C597 C596 1.396 . S
C597 C598 1.399 . S
C598 H584 0.929 . S
C598 C597 1.399 . S
C598 C599 1.385 . S
C599 H585 0.931 . S
C599 C598 1.385 . S
C599 C600 1.389 . S
C600 C599 1.389 . S
C600 C601 1.387 . S
C601 H586 0.930 . S
C601 C596 1.390 . S
C601 C600 1.387 . S
H602 C614 0.930 . S
H603 C616 0.930 . S
H604 C617 0.930 . S
H605 C621 0.959 . S
H606 C621 0.959 . S
H607 C621 0.961 . S
H608 C622 0.960 . S
H609 C622 0.961 . S
H610 C622 0.959 . S
H611 C625 0.929 . S
H612 C626 0.931 . S
H613 C628 0.930 . S
C614 H602 0.930 . S
C614 C615 1.399 . S
C614 C619 1.399 . S
C615 C614 1.399 . S
C615 C616 1.376 . S
C616 H603 0.930 . S
C616 C615 1.376 . S
C616 C617 1.388 . S
C617 H604 0.930 . S
C617 C616 1.388 . S
C617 C618 1.390 . S
C618 C617 1.390 . S
C618 C619 1.394 . S
C618 C624 1.465 . S
C619 C614 1.399 . S
C619 C618 1.394 . S
C619 C620 1.516 . S
C620 C619 1.516 . S
C620 C621 1.502 . S
C620 C622 1.561 . S
C620 C623 1.526 . S
C621 H605 0.959 . S
C621 H606 0.959 . S
C621 H607 0.961 . S
C621 C620 1.502 . S
C622 H608 0.960 . S
C622 H609 0.961 . S
C622 H610 0.959 . S
C622 C620 1.561 . S
C623 C620 1.526 . S
C623 C624 1.396 . S
C623 C628 1.390 . S
C624 C618 1.465 . S
C624 C623 1.396 . S
C624 C625 1.399 . S
C625 H611 0.929 . S
C625 C624 1.399 . S
C625 C626 1.385 . S
C626 H612 0.931 . S
C626 C625 1.385 . S
C626 C627 1.389 . S
C627 C626 1.389 . S
C627 C628 1.387 . S
C628 H613 0.930 . S
C628 C623 1.390 . S
C628 C627 1.387 . S
H629 C641 0.930 . S
H630 C643 0.930 . S
H631 C644 0.930 . S
H632 C648 0.959 . S
H633 C648 0.959 . S
H634 C648 0.961 . S
H635 C649 0.960 . S
H636 C649 0.961 . S
H637 C649 0.959 . S
H638 C652 0.929 . S
H639 C653 0.931 . S
H640 C655 0.930 . S
C641 H629 0.930 . S
C641 C642 1.399 . S
C641 C646 1.399 . S
C642 C641 1.399 . S
C642 C643 1.376 . S
C643 H630 0.930 . S
C643 C642 1.376 . S
C643 C644 1.388 . S
C644 H631 0.930 . S
C644 C643 1.388 . S
C644 C645 1.390 . S
C645 C644 1.390 . S
C645 C646 1.394 . S
C645 C651 1.465 . S
C646 C641 1.399 . S
C646 C645 1.394 . S
C646 C647 1.516 . S
C647 C646 1.516 . S
C647 C648 1.502 1_545 S
C647 C649 1.561 . S
C647 C650 1.526 1_545 S
C648 H632 0.959 . S
C648 H633 0.959 . S
C648 H634 0.961 . S
C648 C647 1.502 1_565 S
C649 H635 0.960 . S
C649 H636 0.961 . S
C649 H637 0.959 . S
C649 C647 1.561 . S
C650 C647 1.526 1_565 S
C650 C651 1.396 1_565 S
C650 C655 1.390 . S
C651 C645 1.465 . S
C651 C650 1.396 1_545 S
C651 C652 1.399 . S
C652 H638 0.929 . S
C652 C651 1.399 . S
C652 C653 1.385 1_545 S
C653 H639 0.931 . S
C653 C652 1.385 1_565 S
C653 C654 1.389 . S
C654 C653 1.389 . S
C654 C655 1.387 . S
C655 H640 0.930 . S
C655 C650 1.390 . S
C655 C654 1.387 . S
H656 C668 0.930 . S
H657 C670 0.930 . S
H658 C671 0.930 . S
H659 C675 0.959 . S
H660 C675 0.959 . S
H661 C675 0.961 . S
H662 C676 0.960 . S
H663 C676 0.961 1_554 S
H664 C676 0.959 1_554 S
H665 C679 0.929 . S
H666 C680 0.931 . S
H667 C682 0.930 . S
C668 H656 0.930 . S
C668 C669 1.399 . S
C668 C673 1.399 . S
C669 C668 1.399 . S
C669 C670 1.376 . S
C670 H657 0.930 . S
C670 C669 1.376 . S
C670 C671 1.388 1_556 S
C671 H658 0.930 . S
C671 C670 1.388 1_554 S
C671 C672 1.390 . S
C672 C671 1.390 . S
C672 C673 1.394 1_554 S
C672 C678 1.465 . S
C673 C668 1.399 . S
C673 C672 1.394 1_556 S
C673 C674 1.516 1_556 S
C674 C673 1.516 1_554 S
C674 C675 1.502 1_554 S
C674 C676 1.561 1_554 S
C674 C677 1.526 . S
C675 H659 0.959 . S
C675 H660 0.959 . S
C675 H661 0.961 . S
C675 C674 1.502 1_556 S
C676 H662 0.960 . S
C676 H663 0.961 1_556 S
C676 H664 0.959 1_556 S
C676 C674 1.561 1_556 S
C677 C674 1.526 . S
C677 C678 1.396 . S
C677 C682 1.390 . S
C678 C672 1.465 . S
C678 C677 1.396 . S
C678 C679 1.399 . S
C679 H665 0.929 . S
C679 C678 1.399 . S
C679 C680 1.385 . S
C680 H666 0.931 . S
C680 C679 1.385 . S
C680 C681 1.389 . S
C681 C680 1.389 . S
C681 C682 1.387 . S
C682 H667 0.930 . S
C682 C677 1.390 . S
C682 C681 1.387 . S
H683 C695 0.930 . S
H684 C697 0.930 . S
H685 C698 0.930 . S
H686 C702 0.959 . S
H687 C702 0.959 . S
H688 C702 0.961 . S
H689 C703 0.960 . S
H690 C703 0.961 . S
H691 C703 0.959 . S
H692 C706 0.929 . S
H693 C707 0.931 . S
H694 C709 0.930 . S
C695 H683 0.930 . S
C695 C696 1.399 . S
C695 C700 1.399 . S
C696 C695 1.399 . S
C696 C697 1.376 . S
C697 H684 0.930 . S
C697 C696 1.376 . S
C697 C698 1.388 . S
C698 H685 0.930 . S
C698 C697 1.388 . S
C698 C699 1.390 . S
C699 C698 1.390 . S
C699 C700 1.394 . S
C699 C705 1.465 . S
C700 C695 1.399 . S
C700 C699 1.394 . S
C700 C701 1.516 . S
C701 C700 1.516 . S
C701 C702 1.502 . S
C701 C703 1.561 . S
C701 C704 1.526 . S
C702 H686 0.959 . S
C702 H687 0.959 . S
C702 H688 0.961 . S
C702 C701 1.502 . S
C703 H689 0.960 . S
C703 H690 0.961 . S
C703 H691 0.959 . S
C703 C701 1.561 . S
C704 C701 1.526 . S
C704 C705 1.396 . S
C704 C709 1.390 . S
C705 C699 1.465 . S
C705 C704 1.396 . S
C705 C706 1.399 . S
C706 H692 0.929 . S
C706 C705 1.399 . S
C706 C707 1.385 . S
C707 H693 0.931 . S
C707 C706 1.385 . S
C707 C708 1.389 . S
C708 C707 1.389 . S
C708 C709 1.387 . S
C709 H694 0.930 . S
C709 C704 1.390 . S
C709 C708 1.387 . S
H710 C722 0.930 . S
H711 C724 0.930 . S
H712 C725 0.920 1_556 S
H713 C729 0.959 . S
H714 C729 0.959 1_556 S
H715 C729 0.961 . S
H716 C730 0.924 1_554 S
H717 C730 0.961 . S
H718 C730 0.959 . S
H719 C733 0.929 . S
H720 C734 0.931 . S
H721 C736 0.930 . S
C722 H710 0.930 . S
C722 C723 1.399 . S
C722 C727 1.399 . S
C723 C722 1.399 . S
C723 C724 1.376 . S
C724 H711 0.930 . S
C724 C723 1.376 . S
C724 C725 1.388 . S
C725 H712 0.920 1_554 S
C725 C724 1.388 . S
C725 C726 1.390 1_554 S
C726 C725 1.390 1_556 S
C726 C727 1.394 1_556 S
C726 C732 1.465 . S
C727 C722 1.399 . S
C727 C726 1.394 1_554 S
C727 C728 1.516 1_554 S
C728 C727 1.516 1_556 S
C728 C729 1.502 1_556 S
C728 C730 1.561 . S
C728 C731 1.526 . S
C729 H713 0.959 . S
C729 H714 0.959 1_554 S
C729 H715 0.961 . S
C729 C728 1.502 1_554 S
C730 H716 0.924 1_556 S
C730 H717 0.961 . S
C730 H718 0.959 . S
C730 C728 1.561 . S
C731 C728 1.526 . S
C731 C732 1.396 . S
C731 C736 1.390 . S
C732 C726 1.465 . S
C732 C731 1.396 . S
C732 C733 1.399 . S
C733 H719 0.929 . S
C733 C732 1.399 . S
C733 C734 1.385 . S
C734 H720 0.931 . S
C734 C733 1.385 . S
C734 C735 1.389 . S
C735 C734 1.389 . S
C735 C736 1.387 . S
C736 H721 0.930 . S
C736 C731 1.390 . S
C736 C735 1.387 . S
H737 C749 0.930 . S
H738 C751 0.930 . S
H739 C752 0.930 . S
H740 C756 0.959 . S
H741 C756 0.959 . S
H742 C756 0.961 . S
H743 C757 0.960 . S
H744 C757 0.961 . S
H745 C757 0.959 . S
H746 C760 0.929 . S
H747 C761 0.931 . S
H748 C763 0.930 . S
C749 H737 0.930 . S
C749 C750 1.399 . S
C749 C754 1.399 . S
C750 C749 1.399 . S
C750 C751 1.376 . S
C751 H738 0.930 . S
C751 C750 1.376 . S
C751 C752 1.388 . S
C752 H739 0.930 . S
C752 C751 1.388 . S
C752 C753 1.390 . S
C753 C752 1.390 . S
C753 C754 1.394 . S
C753 C759 1.465 . S
C754 C749 1.399 . S
C754 C753 1.394 . S
C754 C755 1.516 . S
C755 C754 1.516 . S
C755 C756 1.502 . S
C755 C757 1.561 . S
C755 C758 1.526 . S
C756 H740 0.959 . S
C756 H741 0.959 . S
C756 H742 0.961 . S
C756 C755 1.502 . S
C757 H743 0.960 . S
C757 H744 0.961 . S
C757 H745 0.959 . S
C757 C755 1.561 . S
C758 C755 1.526 . S
C758 C759 1.396 . S
C758 C763 1.390 . S
C759 C753 1.465 . S
C759 C758 1.396 . S
C759 C760 1.399 . S
C760 H746 0.929 . S
C760 C759 1.399 . S
C760 C761 1.385 . S
C761 H747 0.931 . S
C761 C760 1.385 . S
C761 C762 1.389 . S
C762 C761 1.389 . S
C762 C763 1.387 . S
C763 H748 0.930 . S
C763 C758 1.390 . S
C763 C762 1.387 . S
H764 C776 0.930 . S
H765 C778 0.930 . S
H766 C779 0.930 . S
H767 C783 0.959 . S
H768 C783 0.959 . S
H769 C783 0.961 . S
H770 C784 0.960 1_554 S
H771 C784 0.961 . S
H772 C784 0.959 . S
H773 C787 0.929 . S
H774 C788 0.931 . S
H775 C790 0.930 . S
C776 H764 0.930 . S
C776 C777 1.399 . S
C776 C781 1.399 1_554 S
C777 C776 1.399 . S
C777 C778 1.376 . S
C778 H765 0.930 . S
C778 C777 1.376 . S
C778 C779 1.388 . S
C779 H766 0.930 . S
C779 C778 1.388 . S
C779 C780 1.390 1_554 S
C780 C779 1.390 1_556 S
C780 C781 1.394 . S
C780 C786 1.465 . S
C781 C776 1.399 1_556 S
C781 C780 1.394 . S
C781 C782 1.516 . S
C782 C781 1.516 . S
C782 C783 1.502 . S
C782 C784 1.561 . S
C782 C785 1.526 . S
C783 H767 0.959 . S
C783 H768 0.959 . S
C783 H769 0.961 . S
C783 C782 1.502 . S
C784 H770 0.960 1_556 S
C784 H771 0.961 . S
C784 H772 0.959 . S
C784 C782 1.561 . S
C785 C782 1.526 . S
C785 C786 1.396 . S
C785 C790 1.390 . S
C786 C780 1.465 . S
C786 C785 1.396 . S
C786 C787 1.399 . S
C787 H773 0.929 . S
C787 C786 1.399 . S
C787 C788 1.385 . S
C788 H774 0.931 . S
C788 C787 1.385 . S
C788 C789 1.389 . S
C789 C788 1.389 . S
C789 C790 1.387 . S
C790 H775 0.930 . S
C790 C785 1.390 . S
C790 C789 1.387 . S
H791 C803 0.930 . S
H792 C805 0.930 . S
H793 C806 0.930 . S
H794 C810 0.959 . S
H795 C810 0.959 . S
H796 C810 0.961 . S
H797 C811 0.960 . S
H798 C811 0.961 . S
H799 C811 0.959 . S
H800 C814 0.929 . S
H801 C815 0.931 . S
H802 C817 0.930 . S
C803 H791 0.930 . S
C803 C804 1.399 . S
C803 C808 1.399 . S
C804 C803 1.399 . S
C804 C805 1.376 . S
C805 H792 0.930 . S
C805 C804 1.376 . S
C805 C806 1.388 . S
C806 H793 0.930 . S
C806 C805 1.388 . S
C806 C807 1.390 . S
C807 C806 1.390 . S
C807 C808 1.394 . S
C807 C813 1.465 . S
C808 C803 1.399 . S
C808 C807 1.394 . S
C808 C809 1.516 . S
C809 C808 1.516 . S
C809 C810 1.502 . S
C809 C811 1.561 . S
C809 C812 1.526 . S
C810 H794 0.959 . S
C810 H795 0.959 . S
C810 H796 0.961 . S
C810 C809 1.502 . S
C811 H797 0.960 . S
C811 H798 0.961 . S
C811 H799 0.959 . S
C811 C809 1.561 . S
C812 C809 1.526 . S
C812 C813 1.396 . S
C812 C817 1.390 . S
C813 C807 1.465 . S
C813 C812 1.396 . S
C813 C814 1.399 . S
C814 H800 0.929 . S
C814 C813 1.399 . S
C814 C815 1.385 . S
C815 H801 0.931 . S
C815 C814 1.385 . S
C815 C816 1.389 . S
C816 C815 1.389 . S
C816 C817 1.387 . S
C817 H802 0.930 . S
C817 C812 1.390 . S
C817 C816 1.387 . S
H818 C830 0.930 . S
H819 C832 0.930 . S
H820 C833 0.930 1_554 S
H821 C837 0.959 . S
H822 C837 0.959 . S
H823 C837 0.961 1_556 S
H824 C838 0.960 . S
H825 C838 0.961 . S
H826 C838 0.959 . S
H827 C841 0.929 . S
H828 C842 0.931 . S
H829 C844 0.930 . S
C830 H818 0.930 . S
C830 C831 1.399 . S
C830 C835 1.389 1_556 S
C831 C830 1.399 . S
C831 C832 1.376 . S
C832 H819 0.930 . S
C832 C831 1.376 . S
C832 C833 1.388 . S
C833 H820 0.930 1_556 S
C833 C832 1.388 . S
C833 C834 1.390 1_556 S
C834 C833 1.390 1_554 S
C834 C835 1.397 . S
C834 C840 1.465 . S
C835 C830 1.389 1_554 S
C835 C834 1.397 . S
C835 C836 1.524 . S
C836 C835 1.524 . S
C836 C837 1.502 . S
C836 C838 1.561 . S
C836 C839 1.526 . S
C837 H821 0.959 . S
C837 H822 0.959 . S
C837 H823 0.961 1_554 S
C837 C836 1.502 . S
C838 H824 0.960 . S
C838 H825 0.961 . S
C838 H826 0.959 . S
C838 C836 1.561 . S
C839 C836 1.526 . S
C839 C840 1.396 . S
C839 C844 1.390 . S
C840 C834 1.465 . S
C840 C839 1.396 . S
C840 C841 1.399 . S
C841 H827 0.929 . S
C841 C840 1.399 . S
C841 C842 1.385 . S
C842 H828 0.931 . S
C842 C841 1.385 . S
C842 C843 1.389 . S
C843 C842 1.389 . S
C843 C844 1.387 . S
C844 H829 0.930 . S
C844 C839 1.390 . S
C844 C843 1.387 . S
H845 C857 0.930 . S
H846 C859 0.930 . S
H847 C860 0.930 . S
H848 C864 0.959 . S
H849 C864 0.959 . S
H850 C864 0.961 . S
H851 C865 0.960 . S
H852 C865 0.961 . S
H853 C865 0.959 . S
H854 C868 0.929 . S
H855 C869 0.931 . S
H856 C871 0.930 . S
C857 H845 0.930 . S
C857 C858 1.399 . S
C857 C862 1.399 . S
C858 C857 1.399 . S
C858 C859 1.376 . S
C859 H846 0.930 . S
C859 C858 1.376 . S
C859 C860 1.388 . S
C860 H847 0.930 . S
C860 C859 1.388 . S
C860 C861 1.390 . S
C861 C860 1.390 . S
C861 C862 1.394 . S
C861 C867 1.465 . S
C862 C857 1.399 . S
C862 C861 1.394 . S
C862 C863 1.516 . S
C863 C862 1.516 . S
C863 C864 1.502 . S
C863 C865 1.561 . S
C863 C866 1.526 . S
C864 H848 0.959 . S
C864 H849 0.959 . S
C864 H850 0.961 . S
C864 C863 1.502 . S
C865 H851 0.960 . S
C865 H852 0.961 . S
C865 H853 0.959 . S
C865 C863 1.561 . S
C866 C863 1.526 . S
C866 C867 1.396 . S
C866 C871 1.390 . S
C867 C861 1.465 . S
C867 C866 1.396 . S
C867 C868 1.399 . S
C868 H854 0.929 . S
C868 C867 1.399 . S
C868 C869 1.385 . S
C869 H855 0.931 . S
C869 C868 1.385 . S
C869 C870 1.389 . S
C870 C869 1.389 . S
C870 C871 1.387 . S
C871 H856 0.930 . S
C871 C866 1.390 . S
C871 C870 1.387 . S
H872 C884 0.930 . S
H873 C886 0.930 . S
H874 C887 0.930 . S
H875 C891 0.959 . S
H876 C891 0.959 . S
H877 C891 0.961 . S
H878 C892 0.960 . S
H879 C892 0.961 . S
H880 C892 0.959 . S
H881 C895 0.929 . S
H882 C896 0.931 . S
H883 C898 0.930 . S
C884 H872 0.930 . S
C884 C885 1.399 . S
C884 C889 1.399 . S
C885 C884 1.399 . S
C885 C886 1.376 . S
C886 H873 0.930 . S
C886 C885 1.376 . S
C886 C887 1.388 . S
C887 H874 0.930 . S
C887 C886 1.388 . S
C887 C888 1.390 . S
C888 C887 1.390 . S
C888 C889 1.394 . S
C888 C894 1.465 . S
C889 C884 1.399 . S
C889 C888 1.394 . S
C889 C890 1.516 . S
C890 C889 1.516 . S
C890 C891 1.502 . S
C890 C892 1.561 . S
C890 C893 1.526 . S
C891 H875 0.959 . S
C891 H876 0.959 . S
C891 H877 0.961 . S
C891 C890 1.502 . S
C892 H878 0.960 . S
C892 H879 0.961 . S
C892 H880 0.959 . S
C892 C890 1.561 . S
C893 C890 1.526 . S
C893 C894 1.396 . S
C893 C898 1.390 . S
C894 C888 1.465 . S
C894 C893 1.396 . S
C894 C895 1.399 . S
C895 H881 0.929 . S
C895 C894 1.399 . S
C895 C896 1.385 . S
C896 H882 0.931 . S
C896 C895 1.385 . S
C896 C897 1.389 . S
C897 C896 1.389 . S
C897 C898 1.387 . S
C898 H883 0.930 . S
C898 C893 1.390 . S
C898 C897 1.387 . S
H899 C911 0.930 . S
H900 C913 0.930 . S
H901 C914 0.930 . S
H902 C918 0.959 . S
H903 C918 0.959 . S
H904 C918 0.961 . S
H905 C919 0.960 . S
H906 C919 0.961 . S
H907 C919 0.959 . S
H908 C922 0.929 . S
H909 C923 0.931 . S
H910 C925 0.930 . S
C911 H899 0.930 . S
C911 C912 1.399 . S
C911 C916 1.399 . S
C912 C911 1.399 . S
C912 C913 1.376 . S
C913 H900 0.930 . S
C913 C912 1.376 . S
C913 C914 1.388 . S
C914 H901 0.930 . S
C914 C913 1.388 . S
C914 C915 1.390 . S
C915 C914 1.390 . S
C915 C916 1.394 . S
C915 C921 1.465 . S
C916 C911 1.399 . S
C916 C915 1.394 . S
C916 C917 1.516 . S
C917 C916 1.516 . S
C917 C918 1.502 . S
C917 C919 1.561 . S
C917 C920 1.526 . S
C918 H902 0.959 . S
C918 H903 0.959 . S
C918 H904 0.961 . S
C918 C917 1.502 . S
C919 H905 0.960 . S
C919 H906 0.961 . S
C919 H907 0.959 . S
C919 C917 1.561 . S
C920 C917 1.526 . S
C920 C921 1.396 . S
C920 C925 1.390 . S
C921 C915 1.465 . S
C921 C920 1.396 . S
C921 C922 1.399 . S
C922 H908 0.929 . S
C922 C921 1.399 . S
C922 C923 1.385 . S
C923 H909 0.931 . S
C923 C922 1.385 . S
C923 C924 1.389 . S
C924 C923 1.389 . S
C924 C925 1.387 . S
C925 H910 0.930 . S
C925 C920 1.390 . S
C925 C924 1.387 . S
H926 C938 0.930 . S
H927 C940 0.930 . S
H928 C941 0.930 . S
H929 C945 0.959 . S
H930 C945 0.959 . S
H931 C945 0.961 . S
H932 C946 0.960 . S
H933 C946 0.961 . S
H934 C946 0.959 . S
H935 C949 0.929 . S
H936 C950 0.931 . S
H937 C952 0.930 . S
C938 H926 0.930 . S
C938 C939 1.399 . S
C938 C943 1.399 . S
C939 C938 1.399 . S
C939 C940 1.376 . S
C940 H927 0.930 . S
C940 C939 1.376 . S
C940 C941 1.388 . S
C941 H928 0.930 . S
C941 C940 1.388 . S
C941 C942 1.390 . S
C942 C941 1.390 . S
C942 C943 1.394 . S
C942 C948 1.465 . S
C943 C938 1.399 . S
C943 C942 1.394 . S
C943 C944 1.516 . S
C944 C943 1.516 . S
C944 C945 1.502 . S
C944 C946 1.561 . S
C944 C947 1.526 . S
C945 H929 0.959 . S
C945 H930 0.959 . S
C945 H931 0.961 . S
C945 C944 1.502 . S
C946 H932 0.960 . S
C946 H933 0.961 . S
C946 H934 0.959 . S
C946 C944 1.561 . S
C947 C944 1.526 . S
C947 C948 1.396 . S
C947 C952 1.390 . S
C948 C942 1.465 . S
C948 C947 1.396 . S
C948 C949 1.399 . S
C949 H935 0.929 . S
C949 C948 1.399 . S
C949 C950 1.385 . S
C950 H936 0.931 . S
C950 C949 1.385 . S
C950 C951 1.389 . S
C951 C950 1.389 . S
C951 C952 1.387 . S
C952 H937 0.930 . S
C952 C947 1.390 . S
C952 C951 1.387 . S
H953 C965 0.930 . S
H954 C967 0.930 . S
H955 C968 0.930 . S
H956 C972 0.959 . S
H957 C972 0.959 1_455 S
H958 C972 0.961 . S
H959 C973 0.960 . S
H960 C973 0.961 . S
H961 C973 0.959 . S
H962 C976 0.929 . S
H963 C977 0.931 . S
H964 C979 0.930 . S
C965 H953 0.930 . S
C965 C966 1.399 . S
C965 C970 1.399 . S
C966 C965 1.399 . S
C966 C967 1.376 . S
C967 H954 0.930 . S
C967 C966 1.376 . S
C967 C968 1.388 . S
C968 H955 0.930 . S
C968 C967 1.388 . S
C968 C969 1.390 . S
C969 C968 1.390 . S
C969 C970 1.394 . S
C969 C975 1.465 . S
C970 C965 1.399 . S
C970 C969 1.394 . S
C970 C971 1.516 . S
C971 C970 1.516 . S
C971 C972 1.502 . S
C971 C973 1.561 . S
C971 C974 1.526 . S
C972 H956 0.959 . S
C972 H957 0.959 1_655 S
C972 H958 0.961 . S
C972 C971 1.502 . S
C973 H959 0.960 . S
C973 H960 0.961 . S
C973 H961 0.959 . S
C973 C971 1.561 . S
C974 C971 1.526 . S
C974 C975 1.396 . S
C974 C979 1.390 . S
C975 C969 1.465 . S
C975 C974 1.396 . S
C975 C976 1.399 . S
C976 H962 0.929 . S
C976 C975 1.399 . S
C976 C977 1.385 . S
C977 H963 0.931 . S
C977 C976 1.385 . S
C977 C978 1.389 . S
C978 C977 1.389 . S
C978 C979 1.387 . S
C979 H964 0.930 . S
C979 C974 1.390 . S
C979 C978 1.387 . S
H980 C992 0.930 . S
H981 C994 0.930 . S
H982 C995 0.930 . S
H983 C999 0.959 . S
H984 C999 0.959 . S
H985 C999 0.961 . S
H986 C1000 0.960 . S
H987 C1000 0.961 . S
H988 C1000 0.959 . S
H989 C1003 0.929 . S
H990 C1004 0.931 . S
H991 C1006 0.930 . S
C992 H980 0.930 . S
C992 C993 1.399 . S
C992 C997 1.399 . S
C993 C992 1.399 . S
C993 C994 1.376 . S
C994 H981 0.930 . S
C994 C993 1.376 . S
C994 C995 1.388 . S
C995 H982 0.930 . S
C995 C994 1.388 . S
C995 C996 1.390 . S
C996 C995 1.390 . S
C996 C997 1.394 . S
C996 C1002 1.465 . S
C997 C992 1.399 . S
C997 C996 1.394 . S
C997 C998 1.516 . S
C998 C997 1.516 . S
C998 C999 1.502 . S
C998 C1000 1.561 . S
C998 C1001 1.526 . S
C999 H983 0.959 . S
C999 H984 0.959 . S
C999 H985 0.961 . S
C999 C998 1.502 . S
C1000 H986 0.960 . S
C1000 H987 0.961 . S
C1000 H988 0.959 . S
C1000 C998 1.561 . S
C1001 C998 1.526 . S
C1001 C1002 1.396 . S
C1001 C1006 1.390 . S
C1002 C996 1.465 . S
C1002 C1001 1.396 . S
C1002 C1003 1.399 . S
C1003 H989 0.929 . S
C1003 C1002 1.399 . S
C1003 C1004 1.385 . S
C1004 H990 0.931 . S
C1004 C1003 1.385 . S
C1004 C1005 1.389 . S
C1005 C1004 1.389 . S
C1005 C1006 1.387 . S
C1006 H991 0.930 . S
C1006 C1001 1.390 . S
C1006 C1005 1.387 . S
H1007 C1019 0.930 . S
H1008 C1021 0.930 . S
H1009 C1022 0.930 . S
H1010 C1026 0.959 . S
H1011 C1026 0.959 . S
H1012 C1026 0.961 . S
H1013 C1027 0.960 . S
H1014 C1027 0.961 . S
H1015 C1027 0.959 . S
H1016 C1030 0.929 . S
H1017 C1031 0.931 . S
H1018 C1033 0.930 . S
C1019 H1007 0.930 . S
C1019 C1020 1.399 . S
C1019 C1024 1.399 . S
C1020 C1019 1.399 . S
C1020 C1021 1.376 . S
C1021 H1008 0.930 . S
C1021 C1020 1.376 . S
C1021 C1022 1.388 . S
C1022 H1009 0.930 . S
C1022 C1021 1.388 . S
C1022 C1023 1.390 . S
C1023 C1022 1.390 . S
C1023 C1024 1.394 . S
C1023 C1029 1.465 . S
C1024 C1019 1.399 . S
C1024 C1023 1.394 . S
C1024 C1025 1.516 . S
C1025 C1024 1.516 . S
C1025 C1026 1.502 . S
C1025 C1027 1.561 . S
C1025 C1028 1.526 . S
C1026 H1010 0.959 . S
C1026 H1011 0.959 . S
C1026 H1012 0.961 . S
C1026 C1025 1.502 . S
C1027 H1013 0.960 . S
C1027 H1014 0.961 . S
C1027 H1015 0.959 . S
C1027 C1025 1.561 . S
C1028 C1025 1.526 . S
C1028 C1029 1.396 . S
C1028 C1033 1.390 . S
C1029 C1023 1.465 . S
C1029 C1028 1.396 . S
C1029 C1030 1.399 . S
C1030 H1016 0.929 . S
C1030 C1029 1.399 . S
C1030 C1031 1.385 . S
C1031 H1017 0.931 . S
C1031 C1030 1.385 . S
C1031 C1032 1.389 . S
C1032 C1031 1.389 . S
C1032 C1033 1.387 . S
C1033 H1018 0.930 . S
C1033 C1028 1.390 . S
C1033 C1032 1.387 . S
H1034 C1046 0.930 . S
H1035 C1048 0.930 . S
H1036 C1049 0.930 . S
H1037 C1053 0.959 . S
H1038 C1053 0.959 . S
H1039 C1053 0.961 . S
H1040 C1054 0.960 . S
H1041 C1054 0.961 . S
H1042 C1054 0.959 . S
H1043 C1057 0.929 . S
H1044 C1058 0.931 . S
H1045 C1060 0.930 . S
C1046 H1034 0.930 . S
C1046 C1047 1.399 . S
C1046 C1051 1.399 . S
C1047 C1046 1.399 . S
C1047 C1048 1.376 . S
C1048 H1035 0.930 . S
C1048 C1047 1.376 . S
C1048 C1049 1.388 . S
C1049 H1036 0.930 . S
C1049 C1048 1.388 . S
C1049 C1050 1.390 . S
C1050 C1049 1.390 . S
C1050 C1051 1.394 . S
C1050 C1056 1.465 . S
C1051 C1046 1.399 . S
C1051 C1050 1.394 . S
C1051 C1052 1.516 . S
C1052 C1051 1.516 . S
C1052 C1053 1.502 . S
C1052 C1054 1.561 . S
C1052 C1055 1.526 . S
C1053 H1037 0.959 . S
C1053 H1038 0.959 . S
C1053 H1039 0.961 . S
C1053 C1052 1.502 . S
C1054 H1040 0.960 . S
C1054 H1041 0.961 . S
C1054 H1042 0.959 . S
C1054 C1052 1.561 . S
C1055 C1052 1.526 . S
C1055 C1056 1.396 . S
C1055 C1060 1.390 . S
C1056 C1050 1.465 . S
C1056 C1055 1.396 . S
C1056 C1057 1.399 . S
C1057 H1043 0.929 . S
C1057 C1056 1.399 . S
C1057 C1058 1.385 . S
C1058 H1044 0.931 . S
C1058 C1057 1.385 . S
C1058 C1059 1.389 . S
C1059 C1058 1.389 . S
C1059 C1060 1.387 . S
C1060 H1045 0.930 . S
C1060 C1055 1.390 . S
C1060 C1059 1.387 . S
H1061 C1073 0.930 . S
H1062 C1075 0.930 . S
H1063 C1076 0.930 . S
H1064 C1080 0.959 . S
H1065 C1080 0.959 . S
H1066 C1080 0.961 . S
H1067 C1081 0.960 . S
H1068 C1081 0.961 . S
H1069 C1081 0.959 . S
H1070 C1084 0.929 . S
H1071 C1085 0.931 . S
H1072 C1087 0.930 . S
C1073 H1061 0.930 . S
C1073 C1074 1.399 . S
C1073 C1078 1.399 . S
C1074 C1073 1.399 . S
C1074 C1075 1.376 . S
C1075 H1062 0.930 . S
C1075 C1074 1.376 . S
C1075 C1076 1.388 . S
C1076 H1063 0.930 . S
C1076 C1075 1.388 . S
C1076 C1077 1.390 . S
C1077 C1076 1.390 . S
C1077 C1078 1.394 . S
C1077 C1083 1.465 . S
C1078 C1073 1.399 . S
C1078 C1077 1.394 . S
C1078 C1079 1.516 . S
C1079 C1078 1.516 . S
C1079 C1080 1.502 . S
C1079 C1081 1.561 . S
C1079 C1082 1.526 . S
C1080 H1064 0.959 . S
C1080 H1065 0.959 . S
C1080 H1066 0.961 . S
C1080 C1079 1.502 . S
C1081 H1067 0.960 . S
C1081 H1068 0.961 . S
C1081 H1069 0.959 . S
C1081 C1079 1.561 . S
C1082 C1079 1.526 . S
C1082 C1083 1.396 . S
C1082 C1087 1.390 . S
C1083 C1077 1.465 . S
C1083 C1082 1.396 . S
C1083 C1084 1.399 . S
C1084 H1070 0.929 . S
C1084 C1083 1.399 . S
C1084 C1085 1.385 . S
C1085 H1071 0.931 . S
C1085 C1084 1.385 . S
C1085 C1086 1.389 . S
C1086 C1085 1.389 . S
C1086 C1087 1.387 . S
C1087 H1072 0.930 . S
C1087 C1082 1.390 . S
C1087 C1086 1.387 . S
C453 C86 1.619 . S
C465 C178 1.628 . S
C492 C262 1.652 . S
C480 C100 1.705 . S
C519 C255 1.622 . S
C507 C60 1.608 . S
C534 C74 1.683 . S
C546 C171 1.699 . S
C573 C335 1.696 . S
C561 C35 1.689 . S
C600 C419 1.593 . S
C588 C47 1.623 . S
C615 C9 1.673 . S
C627 C412 1.688 . S
C642 C21 1.614 . S
C654 C328 1.624 . S
C681 C162 1.393 . S
C669 C22 1.599 . S
C708 C246 1.457 . S
C696 C8 1.571 . S
C735 C257 1.324 . S
C723 C48 1.607 . S
C762 C173 1.452 . S
C750 C34 1.582 . S
C789 C341 1.473 . S
C777 C73 1.585 . S
C804 C61 1.601 . S
C816 C425 1.377 . S
C843 C414 1.401 . S
C831 C99 1.598 . S
C858 C87 1.564 . S
C870 C330 1.451 . S
C897 C160 1.604 . S
C885 C4 1.528 . S
C924 C244 1.488 . S
C912 C17 1.470 . S
C939 C30 1.501 . S
C951 C251 1.583 . S
C978 C167 1.469 . S
C966 C43 1.480 . S
C1005 C339 1.500 . S
C993 C56 1.463 . S
C1020 C69 1.510 . S
C1032 C423 1.601 . S
C1047 C82 1.449 . S
C1059 C430 1.436 . S
C1074 C95 1.496 . S
C1086 C346 1.546 . S
