# Generated by pormake.
# Topology rtl, (3,6)-cn, num edge types: 1
# Building blocks:
#     Node 0, Type 0, BuildingBlock: BETDIP_clean_linker_0, # of connection points: 3
#     Node 1, Type 0, BuildingBlock: BETDIP_clean_linker_0, # of connection points: 3
#     Node 2, Type 0, BuildingBlock: BETDIP_clean_linker_0, # of connection points: 3
#     Node 3, Type 0, BuildingBlock: BETDIP_clean_linker_0, # of connection points: 3
#     Node 4, Type 1, BuildingBlock: LEVNOQ01_clean_sbu_1, # of connection points: 6
#     Node 5, Type 1, BuildingBlock: LEVNOQ01_clean_sbu_1, # of connection points: 6
#     Edge 6, Type (0, 1), BuildingBlock: XUDNAN_clean_linker_2, # of connection points: 2
#     Edge 7, Type (0, 1), BuildingBlock: XUDNAN_clean_linker_2, # of connection points: 2
#     Edge 8, Type (0, 1), BuildingBlock: XUDNAN_clean_linker_2, # of connection points: 2
#     Edge 9, Type (0, 1), BuildingBlock: XUDNAN_clean_linker_2, # of connection points: 2
#     Edge 10, Type (0, 1), BuildingBlock: XUDNAN_clean_linker_2, # of connection points: 2
#     Edge 11, Type (0, 1), BuildingBlock: XUDNAN_clean_linker_2, # of connection points: 2
#     Edge 12, Type (0, 1), BuildingBlock: XUDNAN_clean_linker_2, # of connection points: 2
#     Edge 13, Type (0, 1), BuildingBlock: XUDNAN_clean_linker_2, # of connection points: 2
#     Edge 14, Type (0, 1), BuildingBlock: XUDNAN_clean_linker_2, # of connection points: 2
#     Edge 15, Type (0, 1), BuildingBlock: XUDNAN_clean_linker_2, # of connection points: 2
#     Edge 16, Type (0, 1), BuildingBlock: XUDNAN_clean_linker_2, # of connection points: 2
#     Edge 17, Type (0, 1), BuildingBlock: XUDNAN_clean_linker_2, # of connection points: 2
# Relax obj value: 0.017
# Max RMSD: 0.117
# Mean RMSD: 0.089
data_MOF--net-rtl--node1-LEVNOQ01_clean_sbu_1--node2-BETDIP_clean_linker_0--edge1-XUDNAN_clean_linker_2
_symmetry_space_group_name_H-M    P1
_symmetry_Int_Tables_number       1
_symmetry_cell_setting            triclinic
loop_
_symmetry_equiv_pos_as_xyz
'x, y, z'
_cell_length_a     35.670629
_cell_length_b     35.529931
_cell_length_c     22.187952
_cell_angle_alpha  91.194216
_cell_angle_beta   98.739075
_cell_angle_gamma 89.56467
loop_
_atom_site_label
_atom_site_type_symbol
_atom_site_fract_x
_atom_site_fract_y
_atom_site_fract_z
_atom_type_partial_charge
H0 H 0.21063 0.82525 0.99814 0.0
H1 H 0.23729 0.84385 0.19157 0.0
H2 H 0.16674 0.92312 0.08244 0.0
H3 H 0.29303 0.80912 0.17065 0.0
C4 C 0.27711 0.78677 0.14436 0.0
C5 C 0.20817 0.8426 0.03809 0.0
C6 C 0.18701 0.87628 0.03248 0.0
C7 C 0.22685 0.83111 0.09494 0.0
C8 C 0.22395 0.85322 0.14726 0.0
C9 C 0.20249 0.88665 0.14294 0.0
C10 C 0.18445 0.89812 0.08542 0.0
N11 N 0.24616 0.79592 0.09864 0.0
H12 H 0.68434 0.74516 0.68857 0.0
H13 H 0.67145 0.75748 0.4941 0.0
H14 H 0.59787 0.68313 0.57225 0.0
H15 H 0.74026 0.75815 0.52759 0.0
C16 C 0.74011 0.7802 0.56229 0.0
C17 C 0.66946 0.73836 0.64337 0.0
C18 C 0.63974 0.71242 0.6361 0.0
C19 C 0.68124 0.75441 0.5925 0.0
C20 C 0.66258 0.74489 0.53367 0.0
C21 C 0.63195 0.71966 0.52593 0.0
C22 C 0.62058 0.70362 0.57761 0.0
N23 N 0.71234 0.77956 0.60165 0.0
H24 H 0.76395 0.19202 0.87472 0.0
H25 H 0.78493 0.20763 0.06958 0.0
H26 H 0.84246 0.11936 0.98326 0.0
H27 H 0.70956 0.22419 0.88331 0.0
C28 C 0.71727 0.24392 0.9211 0.0
C29 C 0.77766 0.18334 0.91917 0.0
C30 C 0.80304 0.15274 0.9232 0.0
C31 C 0.77082 0.20291 0.97224 0.0
C32 C 0.79029 0.19224 0.02905 0.0
C33 C 0.81599 0.16185 0.03401 0.0
C34 C 0.82186 0.14208 0.98063 0.0
N35 N 0.74591 0.23445 0.97042 0.0
H36 H 0.33598 0.29809 0.38616 0.0
H37 H 0.32026 0.29216 0.57471 0.0
H38 H 0.40685 0.36296 0.52366 0.0
H39 H 0.30721 0.22841 0.53773 0.0
C40 C 0.28703 0.2355 0.49772 0.0
C41 C 0.34376 0.30694 0.43343 0.0
C42 C 0.37389 0.33201 0.44993 0.0
C43 C 0.32501 0.29153 0.47831 0.0
C44 C 0.33544 0.30281 0.53996 0.0
C45 C 0.36442 0.32929 0.55628 0.0
C46 C 0.38376 0.34324 0.5111 0.0
N47 N 0.29537 0.26528 0.46024 0.0
O48 O 0.97319 0.09981 0.63144 0.0
Mg49 Mg 0.03018 0.08567 0.63139 0.0
O50 O 0.95706 0.04483 0.5871 0.0
Mg51 Mg 0.00595 0.02282 0.53341 0.0
O52 O 0.0434 0.07612 0.54639 0.0
O53 O 0.06494 0.12556 0.60488 0.0
O54 O 0.05672 0.00258 0.48118 0.0
O55 O 0.97282 0.05153 0.44622 0.0
Mg56 Mg 0.98781 0.9671 0.44264 0.0
O57 O 0.96747 0.96781 0.52398 0.0
O58 O 0.04215 0.94689 0.44069 0.0
O59 O 0.96314 0.00568 0.37735 0.0
O60 O 0.9537 0.92375 0.44962 0.0
C61 C 0.05442 0.00719 0.67418 0.0
C62 C 0.94874 0.07443 0.61625 0.0
C63 C 0.0641 0.10621 0.55486 0.0
C64 C 0.06619 0.97256 0.45447 0.0
C65 C 0.9597 0.03996 0.39228 0.0
C66 C 0.95 0.93697 0.50298 0.0
O67 O 0.05443 0.04194 0.68898 0.0
O68 O 0.03874 0.99561 0.6214 0.0
O69 O 0.58616 0.56586 0.13364 0.0
Mg70 Mg 0.56554 0.51076 0.11776 0.0
O71 O 0.52464 0.568 0.124 0.0
Mg72 Mg 0.50219 0.52291 0.04615 0.0
O73 O 0.55643 0.48448 0.03415 0.0
O74 O 0.60899 0.47745 0.10285 0.0
O75 O 0.47435 0.48037 0.96847 0.0
O76 O 0.5281 0.56191 0.97823 0.0
Mg77 Mg 0.44984 0.56303 0.96457 0.0
O78 O 0.44637 0.55844 0.05578 0.0
O79 O 0.4372 0.51683 0.90614 0.0
O80 O 0.48609 0.60329 0.93866 0.0
O81 O 0.40242 0.5861 0.98641 0.0
C82 C 0.50231 0.47393 0.16831 0.0
C83 C 0.55668 0.58251 0.14486 0.0
C84 C 0.58966 0.46907 0.05047 0.0
C85 C 0.4512 0.48476 0.91919 0.0
C86 C 0.51968 0.59103 0.94617 0.0
C87 C 0.41485 0.57746 0.04204 0.0
O88 O 0.53624 0.48522 0.18203 0.0
O89 O 0.48274 0.48284 0.1175 0.0
H90 H 0.26935 0.17299 0.55434 0.0
H91 H 0.22529 0.24829 0.40909 0.0
H92 H 0.16466 0.21344 0.39307 0.0
H93 H 0.2188 0.08594 0.48644 0.0
H94 H 0.21105 0.07063 0.56048 0.0
H95 H 0.2528 0.09736 0.55294 0.0
H96 H 0.23535 0.14674 0.63213 0.0
H97 H 0.19406 0.11993 0.64027 0.0
H98 H 0.18918 0.16875 0.61975 0.0
H99 H 0.10554 0.17721 0.40556 0.0
H100 H 0.05423 0.14477 0.44798 0.0
H101 H 0.13799 0.09157 0.58103 0.0
C102 C 0.24724 0.18146 0.51809 0.0
C103 C 0.25197 0.21307 0.48279 0.0
C104 C 0.22233 0.22389 0.43639 0.0
C105 C 0.18786 0.20414 0.42678 0.0
C106 C 0.18381 0.17333 0.46325 0.0
C107 C 0.21294 0.16191 0.50767 0.0
C108 C 0.20046 0.13067 0.54523 0.0
C109 C 0.22207 0.09397 0.53567 0.0
C110 C 0.20501 0.14224 0.61331 0.0
C111 C 0.15919 0.12755 0.51727 0.0
C112 C 0.1501 0.15182 0.46922 0.0
C113 C 0.11254 0.15722 0.44174 0.0
C114 C 0.08357 0.13854 0.46565 0.0
C115 C 0.09259 0.11489 0.51618 0.0
C116 C 0.13078 0.10835 0.54064 0.0
H117 H 0.35096 0.7649 0.17207 0.0
H118 H 0.23711 0.72159 0.12167 0.0
H119 H 0.26274 0.65696 0.11818 0.0
H120 H 0.38951 0.71164 0.06837 0.0
H121 H 0.43503 0.70405 0.11436 0.0
H122 H 0.40737 0.74479 0.12834 0.0
H123 H 0.41064 0.72537 0.2411 0.0
H124 H 0.43782 0.68403 0.22659 0.0
H125 H 0.39444 0.67941 0.25816 0.0
H126 H 0.2998 0.60003 0.10213 0.0
H127 H 0.34495 0.5574 0.06091 0.0
H128 H 0.43574 0.63614 0.11858 0.0
C129 C 0.33152 0.74151 0.16241 0.0
C130 C 0.29214 0.74791 0.14786 0.0
C131 C 0.2674 0.71709 0.13321 0.0
C132 C 0.2817 0.68028 0.13181 0.0
C133 C 0.32084 0.67478 0.14494 0.0
C134 C 0.3455 0.70461 0.15953 0.0
C135 C 0.38636 0.69207 0.1607 0.0
C136 C 0.40566 0.71444 0.11521 0.0
C137 C 0.40862 0.69542 0.22551 0.0
C138 C 0.38066 0.65112 0.14088 0.0
C139 C 0.34272 0.6414 0.13435 0.0
C140 C 0.32968 0.60684 0.10885 0.0
C141 C 0.35554 0.58259 0.08602 0.0
C142 C 0.39388 0.59305 0.08874 0.0
C143 C 0.40694 0.62682 0.11905 0.0
H144 H 0.80675 0.7734 0.51992 0.0
H145 H 0.74463 0.84743 0.62737 0.0
H146 H 0.79724 0.89347 0.6376 0.0
H147 H 0.90276 0.79571 0.60415 0.0
H148 H 0.92377 0.79238 0.53529 0.0
H149 H 0.88328 0.76388 0.54326 0.0
H150 H 0.84683 0.79071 0.44306 0.0
H151 H 0.88717 0.81896 0.43465 0.0
H152 H 0.84156 0.84099 0.43556 0.0
H153 H 0.85376 0.93472 0.62395 0.0
H154 H 0.90713 0.9665 0.58589 0.0
H155 H 0.93236 0.86322 0.49276 0.0
C156 C 0.80458 0.79904 0.54649 0.0
C157 C 0.77191 0.80698 0.57288 0.0
C158 C 0.76972 0.8408 0.60712 0.0
C159 C 0.79948 0.86701 0.61332 0.0
C160 C 0.83136 0.85847 0.58605 0.0
C161 C 0.83413 0.82502 0.55387 0.0
C162 C 0.86992 0.82326 0.5254 0.0
C163 C 0.8965 0.79195 0.55374 0.0
C164 C 0.8608 0.81822 0.45556 0.0
C165 C 0.88598 0.86173 0.54367 0.0
C166 C 0.86389 0.88158 0.57954 0.0
C167 C 0.87171 0.91909 0.59705 0.0
C168 C 0.90215 0.93691 0.57569 0.0
C169 C 0.92388 0.91722 0.53696 0.0
C170 C 0.91635 0.87889 0.52275 0.0
H171 H 0.73184 0.30332 0.00194 0.0
H172 H 0.65118 0.26277 0.84875 0.0
H173 H 0.61105 0.31933 0.8583 0.0
H174 H 0.66581 0.33832 0.09057 0.0
H175 H 0.69379 0.37857 0.11984 0.0
H176 H 0.7168 0.33651 0.09725 0.0
H177 H 0.75048 0.37521 0.02351 0.0
H178 H 0.72742 0.41744 0.04578 0.0
H179 H 0.72256 0.40338 0.96646 0.0
H180 H 0.57731 0.37869 0.89148 0.0
H181 H 0.55397 0.43428 0.94457 0.0
H182 H 0.65885 0.43517 0.07271 0.0
C183 C 0.70592 0.3064 0.96999 0.0
C184 C 0.69443 0.27865 0.92472 0.0
C185 C 0.66038 0.28385 0.88374 0.0
C186 C 0.6375 0.31585 0.88878 0.0
C187 C 0.64944 0.34256 0.93455 0.0
C188 C 0.68305 0.33817 0.97407 0.0
C189 C 0.68909 0.3699 0.02083 0.0
C190 C 0.69149 0.35492 0.08594 0.0
C191 C 0.72448 0.39284 0.01368 0.0
C192 C 0.6532 0.39242 0.00262 0.0
C193 C 0.63064 0.37655 0.95258 0.0
C194 C 0.59505 0.3916 0.93018 0.0
C195 C 0.58204 0.42324 0.96049 0.0
C196 C 0.60459 0.43926 0.01266 0.0
C197 C 0.64089 0.42391 0.03275 0.0
H198 H 0.18158 0.85747 0.24514 0.0
H199 H 0.20537 0.96311 0.16492 0.0
H200 H 0.18506 0.9978 0.25248 0.0
H201 H 0.0985 0.88488 0.28692 0.0
H202 H 0.10323 0.85895 0.35667 0.0
H203 H 0.12759 0.84304 0.2958 0.0
H204 H 0.1915 0.84499 0.36926 0.0
H205 H 0.16718 0.8612 0.43055 0.0
H206 H 0.20607 0.88795 0.41058 0.0
H207 H 0.1529 0.02078 0.34049 0.0
H208 H 0.10673 0.02925 0.41258 0.0
H209 H 0.10381 0.90844 0.43374 0.0
C210 C 0.18402 0.88784 0.24728 0.0
C211 C 0.19559 0.90761 0.19885 0.0
C212 C 0.1968 0.94745 0.20188 0.0
C213 C 0.18562 0.96734 0.25166 0.0
C214 C 0.17344 0.94697 0.29814 0.0
C215 C 0.17265 0.90801 0.29622 0.0
C216 C 0.15314 0.89268 0.34636 0.0
C217 C 0.11858 0.86851 0.31983 0.0
C218 C 0.18116 0.87039 0.39189 0.0
C219 C 0.14132 0.92903 0.37498 0.0
C220 C 0.15419 0.96014 0.34791 0.0
C221 C 0.14336 0.99664 0.36286 0.0
C222 C 0.11731 0.00127 0.40417 0.0
C223 C 0.10194 0.96947 0.42879 0.0
C224 C 0.11557 0.93322 0.41614 0.0
H225 H 0.58011 0.72561 0.69716 0.0
H226 H 0.67875 0.65435 0.69333 0.0
H227 H 0.66239 0.61863 0.78056 0.0
H228 H 0.58548 0.72761 0.86555 0.0
H229 H 0.53462 0.72738 0.86132 0.0
H230 H 0.55597 0.74901 0.80212 0.0
H231 H 0.5157 0.70662 0.7207 0.0
H232 H 0.49415 0.68508 0.77948 0.0
H233 H 0.51765 0.65621 0.7287 0.0
H234 H 0.63231 0.58803 0.86278 0.0
H235 H 0.59006 0.56378 0.93153 0.0
H236 H 0.51193 0.65634 0.88257 0.0
C237 C 0.59834 0.70274 0.71543 0.0
C238 C 0.63059 0.69247 0.68932 0.0
C239 C 0.65399 0.66244 0.71352 0.0
C240 C 0.645 0.6422 0.76296 0.0
C241 C 0.61283 0.65287 0.7879 0.0
C242 C 0.59001 0.68258 0.76517 0.0
C243 C 0.55624 0.68735 0.79841 0.0
C244 C 0.55821 0.72508 0.83396 0.0
C245 C 0.51873 0.68356 0.75418 0.0
C246 C 0.56259 0.65458 0.84128 0.0
C247 C 0.59572 0.63542 0.83542 0.0
C248 C 0.60653 0.60309 0.86836 0.0
C249 C 0.58239 0.58956 0.90736 0.0
C250 C 0.54771 0.60817 0.91244 0.0
C251 C 0.5383 0.64154 0.8799 0.0
H252 H 0.8342 0.09075 0.07606 0.0
H253 H 0.84676 0.20888 0.12879 0.0
H254 H 0.8835 0.19105 0.22767 0.0
H255 H 0.82544 0.05544 0.22406 0.0
H256 H 0.85247 0.01334 0.21388 0.0
H257 H 0.82575 0.0356 0.14869 0.0
H258 H 0.88669 0.04008 0.09874 0.0
H259 H 0.91358 0.01784 0.16375 0.0
H260 H 0.928 0.06302 0.13999 0.0
H261 H 0.92039 0.15962 0.32119 0.0
H262 H 0.95431 0.11744 0.39919 0.0
H263 H 0.91899 0.02089 0.28168 0.0
C264 C 0.84478 0.11299 0.10812 0.0
C265 C 0.83738 0.15126 0.09443 0.0
C266 C 0.85143 0.17932 0.13839 0.0
C267 C 0.87257 0.16949 0.19462 0.0
C268 C 0.87956 0.13148 0.20629 0.0
C269 C 0.86607 0.10372 0.16413 0.0
C270 C 0.87808 0.06499 0.18686 0.0
C271 C 0.84337 0.04094 0.19379 0.0
C272 C 0.90308 0.04534 0.14484 0.0
C273 C 0.90068 0.07523 0.24825 0.0
C274 C 0.90111 0.11365 0.25904 0.0
C275 C 0.92022 0.12947 0.31314 0.0
C276 C 0.9394 0.10533 0.35719 0.0
C277 C 0.93949 0.06587 0.34658 0.0
C278 C 0.91976 0.05091 0.29126 0.0
H279 H 0.36731 0.40238 0.59283 0.0
H280 H 0.38479 0.28943 0.66164 0.0
H281 H 0.40903 0.31594 0.76482 0.0
H282 H 0.44975 0.44233 0.67447 0.0
H283 H 0.42791 0.48706 0.68756 0.0
H284 H 0.40995 0.45878 0.62142 0.0
H285 H 0.34286 0.45977 0.65308 0.0
H286 H 0.36051 0.48848 0.71896 0.0
H287 H 0.33696 0.44473 0.72817 0.0
H288 H 0.4366 0.35704 0.85966 0.0
H289 H 0.45816 0.40756 0.93631 0.0
H290 H 0.42034 0.49149 0.80088 0.0
C291 C 0.37582 0.38322 0.62983 0.0
C292 C 0.37435 0.34397 0.61962 0.0
C293 C 0.38554 0.31967 0.66896 0.0
C294 C 0.39952 0.33449 0.72744 0.0
C295 C 0.40162 0.37357 0.73554 0.0
C296 C 0.38946 0.39744 0.68795 0.0
C297 C 0.39485 0.43823 0.70712 0.0
C298 C 0.42225 0.45772 0.67047 0.0
C299 C 0.35651 0.45901 0.70152 0.0
C300 C 0.41231 0.43386 0.7729 0.0
C301 C 0.41633 0.39654 0.78897 0.0
C302 C 0.43312 0.38634 0.84754 0.0
C303 C 0.44545 0.41512 0.89069 0.0
C304 C 0.44055 0.45346 0.87487 0.0
C305 C 0.42403 0.46253 0.81499 0.0
H306 H 0.66556 0.69421 0.43002 0.0
H307 H 0.55582 0.71811 0.48361 0.0
H308 H 0.5242 0.69384 0.38342 0.0
H309 H 0.63949 0.71399 0.26438 0.0
H310 H 0.66793 0.6753 0.24269 0.0
H311 H 0.68177 0.70004 0.31429 0.0
H312 H 0.68266 0.63711 0.37155 0.0
H313 H 0.66896 0.61228 0.30031 0.0
H314 H 0.64085 0.60807 0.36082 0.0
H315 H 0.5047 0.66109 0.28203 0.0
H316 H 0.49884 0.61865 0.19157 0.0
H317 H 0.62151 0.615 0.20524 0.0
C318 C 0.6349 0.69533 0.41984 0.0
C319 C 0.61305 0.70842 0.46404 0.0
C320 C 0.57298 0.70831 0.45009 0.0
C321 C 0.55484 0.69482 0.39324 0.0
C322 C 0.57719 0.68149 0.35092 0.0
C323 C 0.61637 0.68157 0.36363 0.0
C324 C 0.6338 0.66184 0.31335 0.0
C325 C 0.65712 0.68945 0.28181 0.0
C326 C 0.65797 0.62781 0.33799 0.0
C327 C 0.59833 0.64959 0.2713 0.0
C328 C 0.56595 0.66183 0.29308 0.0
C329 C 0.52984 0.65179 0.26409 0.0
C330 C 0.5268 0.62767 0.21264 0.0
C331 C 0.55969 0.61349 0.19115 0.0
C332 C 0.59579 0.62562 0.22003 0.0
H333 H 0.82654 0.18482 0.82507 0.0
H334 H 0.80258 0.07702 0.89803 0.0
H335 H 0.82611 0.04448 0.81129 0.0
H336 H 0.80767 0.15684 0.65786 0.0
H337 H 0.84693 0.1847 0.64203 0.0
H338 H 0.8205 0.19937 0.70163 0.0
H339 H 0.88266 0.20121 0.77925 0.0
H340 H 0.90913 0.18679 0.72005 0.0
H341 H 0.91231 0.15976 0.78851 0.0
H342 H 0.86085 0.02386 0.72587 0.0
H343 H 0.90869 0.01725 0.65666 0.0
H344 H 0.91117 0.13842 0.64051 0.0
C345 C 0.82492 0.15441 0.82135 0.0
C346 C 0.8122 0.13336 0.86742 0.0
C347 C 0.81191 0.09357 0.86268 0.0
C348 C 0.82497 0.07491 0.8134 0.0
C349 C 0.83824 0.09648 0.76929 0.0
C350 C 0.83833 0.13542 0.77293 0.0
C351 C 0.85917 0.15199 0.72524 0.0
C352 C 0.83193 0.17456 0.67894 0.0
C353 C 0.8928 0.17633 0.75507 0.0
C354 C 0.87244 0.11636 0.6962 0.0
C355 C 0.85914 0.08459 0.72085 0.0
C356 C 0.87066 0.04851 0.70516 0.0
C357 C 0.8976 0.04493 0.66527 0.0
C358 C 0.91309 0.07726 0.64241 0.0
C359 C 0.89923 0.11322 0.65645 0.0
H360 H 0.35178 0.37404 0.34739 0.0
H361 H 0.44889 0.32036 0.45368 0.0
H362 H 0.49101 0.34783 0.38806 0.0
H363 H 0.3863 0.36584 0.19697 0.0
H364 H 0.368 0.41147 0.17316 0.0
H365 H 0.3445 0.38428 0.22395 0.0
H366 H 0.35078 0.44013 0.30163 0.0
H367 H 0.37458 0.46735 0.25143 0.0
H368 H 0.39701 0.45951 0.32859 0.0
H369 H 0.52307 0.38519 0.32043 0.0
H370 H 0.54456 0.42891 0.24892 0.0
H371 H 0.42764 0.45946 0.18226 0.0
C372 C 0.38178 0.36741 0.35549 0.0
C373 C 0.3973 0.34493 0.40505 0.0
C374 C 0.43669 0.33743 0.41567 0.0
C375 C 0.46074 0.35285 0.37868 0.0
C376 C 0.44491 0.37569 0.33119 0.0
C377 C 0.40639 0.38284 0.3189 0.0
C378 C 0.3975 0.41041 0.2671 0.0
C379 C 0.3726 0.39188 0.21202 0.0
C380 C 0.37887 0.44648 0.28849 0.0
C381 C 0.43714 0.4181 0.25332 0.0
C382 C 0.46383 0.39756 0.29098 0.0
C383 C 0.50248 0.40109 0.29007 0.0
C384 C 0.51438 0.42626 0.2495 0.0
C385 C 0.48778 0.44761 0.20995 0.0
C386 C 0.44855 0.44321 0.21151 0.0
H387 H 0.1772 0.94814 0.98864 0.0
H388 H 0.14992 0.83153 0.9393 0.0
H389 H 0.1151 0.85168 0.84039 0.0
H390 H 0.08682 0.98555 0.92578 0.0
H391 H 0.10614 0.0282 0.90067 0.0
H392 H 0.13075 0.00419 0.9658 0.0
H393 H 0.19133 1.0005 0.91441 0.0
H394 H 0.16687 0.02447 0.84907 0.0
H395 H 0.18879 0.97932 0.83936 0.0
H396 H 0.08169 0.88536 0.74669 0.0
H397 H 0.05179 0.92961 0.66864 0.0
H398 H 0.09911 0.0236 0.78283 0.0
C399 C 0.1638 0.92672 0.95734 0.0
C400 C 0.16659 0.88816 0.97202 0.0
C401 C 0.14892 0.86119 0.92897 0.0
C402 C 0.12881 0.87238 0.87271 0.0
C403 C 0.12644 0.91066 0.86008 0.0
C404 C 0.1434 0.93738 0.90136 0.0
C405 C 0.13577 0.9768 0.87789 0.0
C406 C 0.11355 1.00004 0.92004 0.0
C407 C 0.1729 0.99641 0.86969 0.0
C408 C 0.11169 0.96816 0.81706 0.0
C409 C 0.10675 0.92989 0.80723 0.0
C410 C 0.08541 0.91539 0.75397 0.0
C411 C 0.06856 0.94074 0.70986 0.0
C412 C 0.07295 0.98012 0.71954 0.0
C413 C 0.09498 0.99372 0.77392 0.0
loop_
_geom_bond_atom_site_label_1
_geom_bond_atom_site_label_2
_geom_bond_distance
_geom_bond_site_symmetry_2
_ccdc_geom_bond_type
H0 C5 0.930 1_556 S
H1 C8 0.930 . S
H2 C10 0.930 . S
H3 C4 1.016 . S
C4 H3 1.016 . S
C4 N11 1.286 . S
C5 H0 0.930 1_554 S
C5 C6 1.397 . S
C5 C7 1.361 . S
C6 C5 1.397 . S
C6 C10 1.390 . S
C7 C5 1.361 . S
C7 C8 1.393 . S
C7 N11 1.413 . S
C8 H1 0.930 . S
C8 C7 1.393 . S
C8 C9 1.399 . S
C9 C8 1.399 . S
C9 C10 1.381 . S
C10 H2 0.930 . S
C10 C6 1.390 . S
C10 C9 1.381 . S
N11 C4 1.286 . S
N11 C7 1.413 . S
H12 C17 0.930 . S
H13 C20 0.930 . S
H14 C22 0.930 . S
H15 C16 1.016 . S
C16 H15 1.016 . S
C16 N23 1.286 . S
C17 H12 0.930 . S
C17 C18 1.397 . S
C17 C19 1.361 . S
C18 C17 1.397 . S
C18 C22 1.390 . S
C19 C17 1.361 . S
C19 C20 1.393 . S
C19 N23 1.413 . S
C20 H13 0.930 . S
C20 C19 1.393 . S
C20 C21 1.399 . S
C21 C20 1.399 . S
C21 C22 1.381 . S
C22 H14 0.930 . S
C22 C18 1.390 . S
C22 C21 1.381 . S
N23 C16 1.286 . S
N23 C19 1.413 . S
H24 C29 0.930 . S
H25 C32 0.930 . S
H26 C34 0.930 . S
H27 C28 1.016 . S
C28 H27 1.016 . S
C28 N35 1.286 1_554 S
C29 H24 0.930 . S
C29 C30 1.397 . S
C29 C31 1.361 . S
C30 C29 1.397 . S
C30 C34 1.390 1_556 S
C31 C29 1.361 . S
C31 C32 1.393 1_556 S
C31 N35 1.413 . S
C32 H25 0.930 . S
C32 C31 1.393 1_554 S
C32 C33 1.399 . S
C33 C32 1.399 . S
C33 C34 1.381 . S
C34 H26 0.930 . S
C34 C30 1.390 1_554 S
C34 C33 1.381 . S
N35 C28 1.286 1_556 S
N35 C31 1.413 . S
H36 C41 0.930 . S
H37 C44 0.930 . S
H38 C46 0.930 . S
H39 C40 1.016 . S
C40 H39 1.016 . S
C40 N47 1.286 . S
C41 H36 0.930 . S
C41 C42 1.397 . S
C41 C43 1.361 . S
C42 C41 1.397 . S
C42 C46 1.390 . S
C43 C41 1.361 . S
C43 C44 1.393 . S
C43 N47 1.413 . S
C44 H37 0.930 . S
C44 C43 1.393 . S
C44 C45 1.399 . S
C45 C44 1.399 . S
C45 C46 1.381 . S
C46 H38 0.930 . S
C46 C42 1.390 . S
C46 C45 1.381 . S
N47 C40 1.286 . S
N47 C43 1.413 . S
O48 Mg49 1.990 . S
O48 C62 1.253 1_455 S
Mg49 O48 1.990 . S
Mg49 O52 2.180 . S
Mg49 O53 2.117 . S
Mg49 O67 2.030 . S
O50 Mg51 2.072 1_655 S
O50 C62 1.260 . S
Mg51 O50 2.072 1_455 S
Mg51 O52 2.099 . S
Mg51 O54 2.079 1_545 S
Mg51 O55 2.072 1_455 S
Mg51 O57 2.099 1_445 S
Mg51 O68 2.079 1_545 S
O52 Mg49 2.180 . S
O52 Mg51 2.099 . S
O52 C63 1.279 . S
O53 Mg49 2.117 . S
O53 C63 1.250 . S
O54 Mg51 2.079 1_565 S
O54 C64 1.264 . S
O55 Mg51 2.072 1_655 S
O55 C65 1.260 . S
Mg56 O57 2.180 . S
Mg56 O58 2.030 1_655 S
Mg56 O59 1.990 1_565 S
Mg56 O60 2.117 . S
O57 Mg51 2.099 1_665 S
O57 Mg56 2.180 . S
O57 C66 1.279 . S
O58 Mg56 2.030 1_455 S
O58 C64 1.248 . S
O59 Mg56 1.990 1_545 S
O59 C65 1.253 . S
O60 Mg56 2.117 . S
O60 C66 1.250 . S
C61 O67 1.248 1_565 S
C61 O68 1.264 . S
C62 O48 1.253 1_655 S
C62 O50 1.260 . S
C63 O52 1.279 . S
C63 O53 1.250 . S
C64 O54 1.264 . S
C64 O58 1.248 . S
C65 O55 1.260 . S
C65 O59 1.253 . S
C66 O57 1.279 . S
C66 O60 1.250 . S
O67 Mg49 2.030 . S
O67 C61 1.248 1_545 S
O68 Mg51 2.079 1_565 S
O68 C61 1.264 . S
O69 Mg70 1.990 . S
O69 C83 1.253 . S
Mg70 O69 1.990 . S
Mg70 O73 2.180 . S
Mg70 O74 2.117 . S
Mg70 O88 2.030 . S
O71 Mg72 2.072 . S
O71 C83 1.260 . S
Mg72 O71 2.072 . S
Mg72 O73 2.099 . S
Mg72 O75 2.079 1_554 S
Mg72 O76 2.072 1_554 S
Mg72 O78 2.099 . S
Mg72 O89 2.079 . S
O73 Mg70 2.180 . S
O73 Mg72 2.099 . S
O73 C84 1.279 . S
O74 Mg70 2.117 . S
O74 C84 1.250 . S
O75 Mg72 2.079 1_556 S
O75 C85 1.264 . S
O76 Mg72 2.072 1_556 S
O76 C86 1.260 . S
Mg77 O78 2.180 1_556 S
Mg77 O79 2.030 . S
Mg77 O80 1.990 . S
Mg77 O81 2.117 . S
O78 Mg72 2.099 . S
O78 Mg77 2.180 1_554 S
O78 C87 1.279 . S
O79 Mg77 2.030 . S
O79 C85 1.248 . S
O80 Mg77 1.990 . S
O80 C86 1.253 . S
O81 Mg77 2.117 . S
O81 C87 1.250 1_556 S
C82 O88 1.248 . S
C82 O89 1.264 . S
C83 O69 1.253 . S
C83 O71 1.260 . S
C84 O73 1.279 . S
C84 O74 1.250 . S
C85 O75 1.264 . S
C85 O79 1.248 . S
C86 O76 1.260 . S
C86 O80 1.253 . S
C87 O78 1.279 . S
C87 O81 1.250 1_554 S
O88 Mg70 2.030 . S
O88 C82 1.248 . S
O89 Mg72 2.079 . S
O89 C82 1.264 . S
H90 C102 0.930 . S
H91 C104 0.930 . S
H92 C105 0.930 . S
H93 C109 0.959 . S
H94 C109 0.959 . S
H95 C109 0.961 . S
H96 C110 0.960 . S
H97 C110 0.961 . S
H98 C110 0.959 . S
H99 C113 0.929 . S
H100 C114 0.931 . S
H101 C116 0.930 . S
C102 H90 0.930 . S
C102 C103 1.399 . S
C102 C107 1.399 . S
C103 C102 1.399 . S
C103 C104 1.376 . S
C104 H91 0.930 . S
C104 C103 1.376 . S
C104 C105 1.388 . S
C105 H92 0.930 . S
C105 C104 1.388 . S
C105 C106 1.390 . S
C106 C105 1.390 . S
C106 C107 1.394 . S
C106 C112 1.465 . S
C107 C102 1.399 . S
C107 C106 1.394 . S
C107 C108 1.516 . S
C108 C107 1.516 . S
C108 C109 1.502 . S
C108 C110 1.561 . S
C108 C111 1.526 . S
C109 H93 0.959 . S
C109 H94 0.959 . S
C109 H95 0.961 . S
C109 C108 1.502 . S
C110 H96 0.960 . S
C110 H97 0.961 . S
C110 H98 0.959 . S
C110 C108 1.561 . S
C111 C108 1.526 . S
C111 C112 1.396 . S
C111 C116 1.390 . S
C112 C106 1.465 . S
C112 C111 1.396 . S
C112 C113 1.399 . S
C113 H99 0.929 . S
C113 C112 1.399 . S
C113 C114 1.385 . S
C114 H100 0.931 . S
C114 C113 1.385 . S
C114 C115 1.389 . S
C115 C114 1.389 . S
C115 C116 1.387 . S
C116 H101 0.930 . S
C116 C111 1.390 . S
C116 C115 1.387 . S
H117 C129 0.930 . S
H118 C131 0.930 1_556 S
H119 C132 0.930 1_556 S
H120 C136 0.959 . S
H121 C136 0.959 . S
H122 C136 0.961 . S
H123 C137 0.960 . S
H124 C137 0.961 . S
H125 C137 0.959 . S
H126 C140 0.929 . S
H127 C141 0.947 . S
H128 C143 0.930 . S
C129 H117 0.930 . S
C129 C130 1.399 . S
C129 C134 1.399 . S
C130 C129 1.399 . S
C130 C131 1.376 . S
C131 H118 0.930 1_554 S
C131 C130 1.376 . S
C131 C132 1.388 . S
C132 H119 0.930 1_554 S
C132 C131 1.388 . S
C132 C133 1.390 . S
C133 C132 1.390 . S
C133 C134 1.394 . S
C133 C139 1.465 . S
C134 C129 1.399 . S
C134 C133 1.394 . S
C134 C135 1.516 . S
C135 C134 1.516 . S
C135 C136 1.502 . S
C135 C137 1.561 . S
C135 C138 1.526 . S
C136 H120 0.959 . S
C136 H121 0.959 . S
C136 H122 0.961 . S
C136 C135 1.502 . S
C137 H123 0.960 . S
C137 H124 0.961 . S
C137 H125 0.959 . S
C137 C135 1.561 . S
C138 C135 1.526 . S
C138 C139 1.396 . S
C138 C143 1.390 . S
C139 C133 1.465 . S
C139 C138 1.396 . S
C139 C140 1.399 1_554 S
C140 H126 0.929 . S
C140 C139 1.399 1_556 S
C140 C141 1.386 . S
C141 H127 0.947 . S
C141 C140 1.386 . S
C141 C142 1.373 1_556 S
C142 C141 1.373 1_554 S
C142 C143 1.387 . S
C143 H128 0.930 . S
C143 C138 1.390 . S
C143 C142 1.387 . S
H144 C156 0.930 . S
H145 C158 0.930 . S
H146 C159 0.930 . S
H147 C163 0.959 . S
H148 C163 0.959 . S
H149 C163 0.961 . S
H150 C164 0.960 . S
H151 C164 0.961 . S
H152 C164 0.959 . S
H153 C167 0.929 . S
H154 C168 0.931 . S
H155 C170 0.930 . S
C156 H144 0.930 . S
C156 C157 1.399 . S
C156 C161 1.399 . S
C157 C156 1.399 . S
C157 C158 1.376 . S
C158 H145 0.930 . S
C158 C157 1.376 . S
C158 C159 1.388 . S
C159 H146 0.930 . S
C159 C158 1.388 . S
C159 C160 1.390 . S
C160 C159 1.390 . S
C160 C161 1.394 . S
C160 C166 1.465 . S
C161 C156 1.399 . S
C161 C160 1.394 . S
C161 C162 1.516 . S
C162 C161 1.516 . S
C162 C163 1.502 . S
C162 C164 1.561 . S
C162 C165 1.526 . S
C163 H147 0.959 . S
C163 H148 0.959 . S
C163 H149 0.961 . S
C163 C162 1.502 . S
C164 H150 0.960 . S
C164 H151 0.961 . S
C164 H152 0.959 . S
C164 C162 1.561 . S
C165 C162 1.526 . S
C165 C166 1.396 . S
C165 C170 1.390 . S
C166 C160 1.465 . S
C166 C165 1.396 . S
C166 C167 1.399 . S
C167 H153 0.929 . S
C167 C166 1.399 . S
C167 C168 1.385 . S
C168 H154 0.931 . S
C168 C167 1.385 . S
C168 C169 1.389 . S
C169 C168 1.389 . S
C169 C170 1.387 . S
C170 H155 0.930 . S
C170 C165 1.390 . S
C170 C169 1.387 . S
H171 C183 0.930 . S
H172 C185 0.930 . S
H173 C186 0.930 . S
H174 C190 0.959 . S
H175 C190 0.959 . S
H176 C190 0.961 . S
H177 C191 0.960 . S
H178 C191 0.961 . S
H179 C191 0.959 . S
H180 C194 0.929 . S
H181 C195 0.931 . S
H182 C197 0.930 . S
C183 H171 0.930 . S
C183 C184 1.399 1_556 S
C183 C188 1.399 . S
C184 C183 1.399 1_554 S
C184 C185 1.376 . S
C185 H172 0.930 . S
C185 C184 1.376 . S
C185 C186 1.388 . S
C186 H173 0.930 . S
C186 C185 1.388 . S
C186 C187 1.390 . S
C187 C186 1.390 . S
C187 C188 1.394 1_554 S
C187 C193 1.465 . S
C188 C183 1.399 . S
C188 C187 1.394 1_556 S
C188 C189 1.516 . S
C189 C188 1.516 . S
C189 C190 1.502 . S
C189 C191 1.561 . S
C189 C192 1.526 . S
C190 H174 0.959 . S
C190 H175 0.959 . S
C190 H176 0.961 . S
C190 C189 1.502 . S
C191 H177 0.960 . S
C191 H178 0.961 . S
C191 H179 0.959 . S
C191 C189 1.561 . S
C192 C189 1.526 . S
C192 C193 1.396 1_556 S
C192 C197 1.390 . S
C193 C187 1.465 . S
C193 C192 1.396 1_554 S
C193 C194 1.399 . S
C194 H180 0.929 . S
C194 C193 1.399 . S
C194 C195 1.385 . S
C195 H181 0.931 . S
C195 C194 1.385 . S
C195 C196 1.389 . S
C196 C195 1.389 . S
C196 C197 1.387 1_554 S
C197 H182 0.930 . S
C197 C192 1.390 . S
C197 C196 1.387 1_556 S
H198 C210 0.930 . S
H199 C212 0.930 . S
H200 C213 0.930 . S
H201 C217 0.959 . S
H202 C217 0.959 . S
H203 C217 0.961 . S
H204 C218 0.960 . S
H205 C218 0.961 . S
H206 C218 0.959 . S
H207 C221 0.919 1_545 S
H208 C222 0.931 1_545 S
H209 C224 0.930 . S
C210 H198 0.930 . S
C210 C211 1.399 . S
C210 C215 1.399 . S
C211 C210 1.399 . S
C211 C212 1.376 . S
C212 H199 0.930 . S
C212 C211 1.376 . S
C212 C213 1.388 . S
C213 H200 0.930 . S
C213 C212 1.388 . S
C213 C214 1.390 . S
C214 C213 1.390 . S
C214 C215 1.394 . S
C214 C220 1.465 . S
C215 C210 1.399 . S
C215 C214 1.394 . S
C215 C216 1.516 . S
C216 C215 1.516 . S
C216 C217 1.502 . S
C216 C218 1.561 . S
C216 C219 1.526 . S
C217 H201 0.959 . S
C217 H202 0.959 . S
C217 H203 0.961 . S
C217 C216 1.502 . S
C218 H204 0.960 . S
C218 H205 0.961 . S
C218 H206 0.959 . S
C218 C216 1.561 . S
C219 C216 1.526 . S
C219 C220 1.396 . S
C219 C224 1.390 . S
C220 C214 1.465 . S
C220 C219 1.396 . S
C220 C221 1.399 . S
C221 H207 0.919 1_565 S
C221 C220 1.399 . S
C221 C222 1.385 . S
C222 H208 0.931 1_565 S
C222 C221 1.385 . S
C222 C223 1.389 . S
C223 C222 1.389 . S
C223 C224 1.387 . S
C224 H209 0.930 . S
C224 C219 1.390 . S
C224 C223 1.387 . S
H225 C237 0.930 . S
H226 C239 0.930 . S
H227 C240 0.930 . S
H228 C244 0.959 . S
H229 C244 0.959 . S
H230 C244 0.961 . S
H231 C245 0.960 . S
H232 C245 0.961 . S
H233 C245 0.959 . S
H234 C248 0.929 . S
H235 C249 0.931 . S
H236 C251 0.930 . S
C237 H225 0.930 . S
C237 C238 1.399 . S
C237 C242 1.399 . S
C238 C237 1.399 . S
C238 C239 1.376 . S
C239 H226 0.930 . S
C239 C238 1.376 . S
C239 C240 1.388 . S
C240 H227 0.930 . S
C240 C239 1.388 . S
C240 C241 1.390 . S
C241 C240 1.390 . S
C241 C242 1.394 . S
C241 C247 1.465 . S
C242 C237 1.399 . S
C242 C241 1.394 . S
C242 C243 1.516 . S
C243 C242 1.516 . S
C243 C244 1.502 . S
C243 C245 1.561 . S
C243 C246 1.526 . S
C244 H228 0.959 . S
C244 H229 0.959 . S
C244 H230 0.961 . S
C244 C243 1.502 . S
C245 H231 0.960 . S
C245 H232 0.961 . S
C245 H233 0.959 . S
C245 C243 1.561 . S
C246 C243 1.526 . S
C246 C247 1.396 . S
C246 C251 1.390 . S
C247 C241 1.465 . S
C247 C246 1.396 . S
C247 C248 1.399 . S
C248 H234 0.929 . S
C248 C247 1.399 . S
C248 C249 1.385 . S
C249 H235 0.931 . S
C249 C248 1.385 . S
C249 C250 1.389 . S
C250 C249 1.389 . S
C250 C251 1.387 . S
C251 H236 0.930 . S
C251 C246 1.390 . S
C251 C250 1.387 . S
H252 C264 0.930 . S
H253 C266 0.930 . S
H254 C267 0.930 . S
H255 C271 0.959 . S
H256 C271 0.959 . S
H257 C271 0.961 . S
H258 C272 0.960 . S
H259 C272 0.961 . S
H260 C272 0.959 . S
H261 C275 0.929 . S
H262 C276 0.931 . S
H263 C278 0.930 . S
C264 H252 0.930 . S
C264 C265 1.399 . S
C264 C269 1.399 . S
C265 C264 1.399 . S
C265 C266 1.376 . S
C266 H253 0.930 . S
C266 C265 1.376 . S
C266 C267 1.388 . S
C267 H254 0.930 . S
C267 C266 1.388 . S
C267 C268 1.390 . S
C268 C267 1.390 . S
C268 C269 1.394 . S
C268 C274 1.465 . S
C269 C264 1.399 . S
C269 C268 1.394 . S
C269 C270 1.516 . S
C270 C269 1.516 . S
C270 C271 1.502 . S
C270 C272 1.561 . S
C270 C273 1.526 . S
C271 H255 0.959 . S
C271 H256 0.959 . S
C271 H257 0.961 . S
C271 C270 1.502 . S
C272 H258 0.960 . S
C272 H259 0.961 . S
C272 H260 0.959 . S
C272 C270 1.561 . S
C273 C270 1.526 . S
C273 C274 1.396 . S
C273 C278 1.390 . S
C274 C268 1.465 . S
C274 C273 1.396 . S
C274 C275 1.399 . S
C275 H261 0.929 . S
C275 C274 1.399 . S
C275 C276 1.385 . S
C276 H262 0.931 . S
C276 C275 1.385 . S
C276 C277 1.389 . S
C277 C276 1.389 . S
C277 C278 1.387 . S
C278 H263 0.930 . S
C278 C273 1.390 . S
C278 C277 1.387 . S
H279 C291 0.930 . S
H280 C293 0.930 . S
H281 C294 0.930 . S
H282 C298 0.959 . S
H283 C298 0.959 . S
H284 C298 0.961 . S
H285 C299 0.960 . S
H286 C299 0.961 . S
H287 C299 0.959 . S
H288 C302 0.929 . S
H289 C303 0.931 . S
H290 C305 0.930 . S
C291 H279 0.930 . S
C291 C292 1.399 . S
C291 C296 1.399 . S
C292 C291 1.399 . S
C292 C293 1.376 . S
C293 H280 0.930 . S
C293 C292 1.376 . S
C293 C294 1.388 . S
C294 H281 0.930 . S
C294 C293 1.388 . S
C294 C295 1.390 . S
C295 C294 1.390 . S
C295 C296 1.394 . S
C295 C301 1.465 . S
C296 C291 1.399 . S
C296 C295 1.394 . S
C296 C297 1.516 . S
C297 C296 1.516 . S
C297 C298 1.502 . S
C297 C299 1.561 . S
C297 C300 1.526 . S
C298 H282 0.959 . S
C298 H283 0.959 . S
C298 H284 0.961 . S
C298 C297 1.502 . S
C299 H285 0.960 . S
C299 H286 0.961 . S
C299 H287 0.959 . S
C299 C297 1.561 . S
C300 C297 1.526 . S
C300 C301 1.396 . S
C300 C305 1.390 . S
C301 C295 1.465 . S
C301 C300 1.396 . S
C301 C302 1.399 . S
C302 H288 0.929 . S
C302 C301 1.399 . S
C302 C303 1.385 . S
C303 H289 0.931 . S
C303 C302 1.385 . S
C303 C304 1.389 . S
C304 C303 1.389 . S
C304 C305 1.387 . S
C305 H290 0.930 . S
C305 C300 1.390 . S
C305 C304 1.387 . S
H306 C318 0.930 . S
H307 C320 0.930 . S
H308 C321 0.930 . S
H309 C325 0.959 . S
H310 C325 0.959 . S
H311 C325 0.961 . S
H312 C326 0.960 . S
H313 C326 0.961 . S
H314 C326 0.959 . S
H315 C329 0.929 . S
H316 C330 0.931 . S
H317 C332 0.930 . S
C318 H306 0.930 . S
C318 C319 1.399 . S
C318 C323 1.399 . S
C319 C318 1.399 . S
C319 C320 1.376 . S
C320 H307 0.930 . S
C320 C319 1.376 . S
C320 C321 1.388 . S
C321 H308 0.930 . S
C321 C320 1.388 . S
C321 C322 1.390 . S
C322 C321 1.390 . S
C322 C323 1.394 . S
C322 C328 1.465 . S
C323 C318 1.399 . S
C323 C322 1.394 . S
C323 C324 1.516 . S
C324 C323 1.516 . S
C324 C325 1.502 . S
C324 C326 1.561 . S
C324 C327 1.526 . S
C325 H309 0.959 . S
C325 H310 0.959 . S
C325 H311 0.961 . S
C325 C324 1.502 . S
C326 H312 0.960 . S
C326 H313 0.961 . S
C326 H314 0.959 . S
C326 C324 1.561 . S
C327 C324 1.526 . S
C327 C328 1.396 . S
C327 C332 1.390 . S
C328 C322 1.465 . S
C328 C327 1.396 . S
C328 C329 1.399 . S
C329 H315 0.929 . S
C329 C328 1.399 . S
C329 C330 1.385 . S
C330 H316 0.931 . S
C330 C329 1.385 . S
C330 C331 1.389 . S
C331 C330 1.389 . S
C331 C332 1.387 . S
C332 H317 0.930 . S
C332 C327 1.390 . S
C332 C331 1.387 . S
H333 C345 0.930 . S
H334 C347 0.930 . S
H335 C348 0.930 . S
H336 C352 0.959 . S
H337 C352 0.959 . S
H338 C352 0.961 . S
H339 C353 0.960 . S
H340 C353 0.961 . S
H341 C353 0.959 . S
H342 C356 0.929 . S
H343 C357 0.931 1_455 S
H344 C359 0.930 . S
C345 H333 0.930 . S
C345 C346 1.399 . S
C345 C350 1.399 . S
C346 C345 1.399 . S
C346 C347 1.376 . S
C347 H334 0.930 . S
C347 C346 1.376 . S
C347 C348 1.388 . S
C348 H335 0.930 . S
C348 C347 1.388 . S
C348 C349 1.390 . S
C349 C348 1.390 . S
C349 C350 1.394 . S
C349 C355 1.465 . S
C350 C345 1.399 . S
C350 C349 1.394 . S
C350 C351 1.516 . S
C351 C350 1.516 . S
C351 C352 1.502 . S
C351 C353 1.561 . S
C351 C354 1.526 . S
C352 H336 0.959 . S
C352 H337 0.959 . S
C352 H338 0.961 . S
C352 C351 1.502 . S
C353 H339 0.960 . S
C353 H340 0.961 . S
C353 H341 0.959 . S
C353 C351 1.561 . S
C354 C351 1.526 . S
C354 C355 1.396 . S
C354 C359 1.390 . S
C355 C349 1.465 . S
C355 C354 1.396 . S
C355 C356 1.399 . S
C356 H342 0.929 . S
C356 C355 1.399 . S
C356 C357 1.385 . S
C357 H343 0.931 1_655 S
C357 C356 1.385 . S
C357 C358 1.389 . S
C358 C357 1.389 . S
C358 C359 1.387 . S
C359 H344 0.930 . S
C359 C354 1.390 . S
C359 C358 1.387 . S
H360 C372 0.930 . S
H361 C374 0.930 . S
H362 C375 0.930 . S
H363 C379 0.959 . S
H364 C379 0.959 . S
H365 C379 0.961 . S
H366 C380 0.960 . S
H367 C380 0.961 . S
H368 C380 0.959 . S
H369 C383 0.929 . S
H370 C384 0.931 . S
H371 C386 0.930 . S
C372 H360 0.930 . S
C372 C373 1.399 . S
C372 C377 1.399 . S
C373 C372 1.399 . S
C373 C374 1.376 . S
C374 H361 0.930 . S
C374 C373 1.376 . S
C374 C375 1.388 . S
C375 H362 0.930 . S
C375 C374 1.388 . S
C375 C376 1.390 . S
C376 C375 1.390 . S
C376 C377 1.394 . S
C376 C382 1.465 . S
C377 C372 1.399 . S
C377 C376 1.394 . S
C377 C378 1.516 . S
C378 C377 1.516 . S
C378 C379 1.502 . S
C378 C380 1.561 . S
C378 C381 1.526 . S
C379 H363 0.959 . S
C379 H364 0.959 . S
C379 H365 0.961 . S
C379 C378 1.502 . S
C380 H366 0.960 . S
C380 H367 0.961 . S
C380 H368 0.959 . S
C380 C378 1.561 . S
C381 C378 1.526 . S
C381 C382 1.396 . S
C381 C386 1.390 . S
C382 C376 1.465 . S
C382 C381 1.396 . S
C382 C383 1.399 . S
C383 H369 0.929 . S
C383 C382 1.399 . S
C383 C384 1.385 . S
C384 H370 0.931 . S
C384 C383 1.385 . S
C384 C385 1.389 . S
C385 C384 1.389 . S
C385 C386 1.387 . S
C386 H371 0.930 . S
C386 C381 1.390 . S
C386 C385 1.387 . S
H387 C399 0.930 . S
H388 C401 0.930 . S
H389 C402 0.930 . S
H390 C406 0.959 . S
H391 C406 0.959 1_545 S
H392 C406 0.961 . S
H393 C407 0.960 . S
H394 C407 0.961 1_545 S
H395 C407 0.959 . S
H396 C410 0.929 . S
H397 C411 0.931 . S
H398 C413 0.930 . S
C399 H387 0.930 . S
C399 C400 1.399 . S
C399 C404 1.399 . S
C400 C399 1.399 . S
C400 C401 1.376 . S
C401 H388 0.930 . S
C401 C400 1.376 . S
C401 C402 1.388 . S
C402 H389 0.930 . S
C402 C401 1.388 . S
C402 C403 1.390 . S
C403 C402 1.390 . S
C403 C404 1.394 . S
C403 C409 1.465 . S
C404 C399 1.399 . S
C404 C403 1.394 . S
C404 C405 1.516 . S
C405 C404 1.516 . S
C405 C406 1.502 . S
C405 C407 1.561 . S
C405 C408 1.526 . S
C406 H390 0.959 . S
C406 H391 0.959 1_565 S
C406 H392 0.961 . S
C406 C405 1.502 . S
C407 H393 0.960 . S
C407 H394 0.961 1_565 S
C407 H395 0.959 . S
C407 C405 1.561 . S
C408 C405 1.526 . S
C408 C409 1.396 . S
C408 C413 1.390 . S
C409 C403 1.465 . S
C409 C408 1.396 . S
C409 C410 1.399 . S
C410 H396 0.929 . S
C410 C409 1.399 . S
C410 C411 1.385 . S
C411 H397 0.931 . S
C411 C410 1.385 . S
C411 C412 1.389 . S
C412 C411 1.389 . S
C412 C413 1.387 . S
C413 H398 0.930 . S
C413 C408 1.390 . S
C413 C412 1.387 . S
C115 C63 1.330 . S
C103 C40 1.462 . S
C130 C4 1.478 . S
C142 C87 1.211 . S
C157 C16 1.583 . S
C169 C66 1.409 . S
C184 C28 1.565 . S
C196 C84 1.315 . S
C223 C64 1.503 . S
C211 C9 1.501 . S
C250 C86 1.545 . S
C238 C18 1.590 . S
C265 C33 1.577 . S
C277 C65 1.574 . S
C292 C45 1.519 . S
C304 C85 1.485 . S
C331 C83 1.482 . S
C319 C21 1.507 . S
C358 C62 1.447 . S
C346 C30 1.526 . S
C385 C82 1.389 . S
C373 C42 1.440 . S
C400 C6 1.453 1_556 S
C412 C61 1.436 . S
