# Generated by pormake.
# Topology pyr, (3,6)-cn, num edge types: 1
# Building blocks:
#     Node 0, Type 0, BuildingBlock: QEWDON_clean_linker_0, # of connection points: 3
#     Node 1, Type 0, BuildingBlock: QEWDON_clean_linker_0, # of connection points: 3
#     Node 2, Type 0, BuildingBlock: QEWDON_clean_linker_0, # of connection points: 3
#     Node 3, Type 0, BuildingBlock: QEWDON_clean_linker_0, # of connection points: 3
#     Node 4, Type 0, BuildingBlock: QEWDON_clean_linker_0, # of connection points: 3
#     Node 5, Type 0, BuildingBlock: QEWDON_clean_linker_0, # of connection points: 3
#     Node 6, Type 0, BuildingBlock: QEWDON_clean_linker_0, # of connection points: 3
#     Node 7, Type 0, BuildingBlock: QEWDON_clean_linker_0, # of connection points: 3
#     Node 8, Type 1, BuildingBlock: BETDIP_clean_sbu_0, # of connection points: 6
#     Node 9, Type 1, BuildingBlock: BETDIP_clean_sbu_0, # of connection points: 6
#     Node 10, Type 1, BuildingBlock: BETDIP_clean_sbu_0, # of connection points: 6
#     Node 11, Type 1, BuildingBlock: BETDIP_clean_sbu_0, # of connection points: 6
#     Edge 12, Type (0, 1), BuildingBlock: ZUJKAS_clean_linker_0, # of connection points: 2
#     Edge 13, Type (0, 1), BuildingBlock: ZUJKAS_clean_linker_0, # of connection points: 2
#     Edge 14, Type (0, 1), BuildingBlock: ZUJKAS_clean_linker_0, # of connection points: 2
#     Edge 15, Type (0, 1), BuildingBlock: ZUJKAS_clean_linker_0, # of connection points: 2
#     Edge 16, Type (0, 1), BuildingBlock: ZUJKAS_clean_linker_0, # of connection points: 2
#     Edge 17, Type (0, 1), BuildingBlock: ZUJKAS_clean_linker_0, # of connection points: 2
#     Edge 18, Type (0, 1), BuildingBlock: ZUJKAS_clean_linker_0, # of connection points: 2
#     Edge 19, Type (0, 1), BuildingBlock: ZUJKAS_clean_linker_0, # of connection points: 2
#     Edge 20, Type (0, 1), BuildingBlock: ZUJKAS_clean_linker_0, # of connection points: 2
#     Edge 21, Type (0, 1), BuildingBlock: ZUJKAS_clean_linker_0, # of connection points: 2
#     Edge 22, Type (0, 1), BuildingBlock: ZUJKAS_clean_linker_0, # of connection points: 2
#     Edge 23, Type (0, 1), BuildingBlock: ZUJKAS_clean_linker_0, # of connection points: 2
#     Edge 24, Type (0, 1), BuildingBlock: ZUJKAS_clean_linker_0, # of connection points: 2
#     Edge 25, Type (0, 1), BuildingBlock: ZUJKAS_clean_linker_0, # of connection points: 2
#     Edge 26, Type (0, 1), BuildingBlock: ZUJKAS_clean_linker_0, # of connection points: 2
#     Edge 27, Type (0, 1), BuildingBlock: ZUJKAS_clean_linker_0, # of connection points: 2
#     Edge 28, Type (0, 1), BuildingBlock: ZUJKAS_clean_linker_0, # of connection points: 2
#     Edge 29, Type (0, 1), BuildingBlock: ZUJKAS_clean_linker_0, # of connection points: 2
#     Edge 30, Type (0, 1), BuildingBlock: ZUJKAS_clean_linker_0, # of connection points: 2
#     Edge 31, Type (0, 1), BuildingBlock: ZUJKAS_clean_linker_0, # of connection points: 2
#     Edge 32, Type (0, 1), BuildingBlock: ZUJKAS_clean_linker_0, # of connection points: 2
#     Edge 33, Type (0, 1), BuildingBlock: ZUJKAS_clean_linker_0, # of connection points: 2
#     Edge 34, Type (0, 1), BuildingBlock: ZUJKAS_clean_linker_0, # of connection points: 2
#     Edge 35, Type (0, 1), BuildingBlock: ZUJKAS_clean_linker_0, # of connection points: 2
# Relax obj value: 0.142
# Max RMSD: 0.271
# Mean RMSD: 0.187
data_MOF--net-pyr--node1-BETDIP_clean_sbu_0--node2-QEWDON_clean_linker_0--edge1-ZUJKAS_clean_linker_0
_symmetry_space_group_name_H-M    P1
_symmetry_Int_Tables_number       1
_symmetry_cell_setting            triclinic
loop_
_symmetry_equiv_pos_as_xyz
'x, y, z'
_cell_length_a     45.774941
_cell_length_b     51.5309
_cell_length_c     53.604988
_cell_angle_alpha  88.485264
_cell_angle_beta   93.44225
_cell_angle_gamma 112.7622
loop_
_atom_site_label
_atom_site_type_symbol
_atom_site_fract_x
_atom_site_fract_y
_atom_site_fract_z
_atom_type_partial_charge
H0 H 0.37839 0.29855 0.19315 0.0
C1 C 0.36445 0.29204 0.20952 0.0
C2 C 0.3602 0.26611 0.22099 0.0
C3 C 0.35022 0.30938 0.21858 0.0
H4 H 0.33843 0.23783 0.25094 0.0
C5 C 0.34164 0.25774 0.24193 0.0
C6 C 0.32747 0.27496 0.25147 0.0
C7 C 0.33157 0.30065 0.23944 0.0
C8 C 0.35575 0.337 0.20657 0.0
H9 H 0.32128 0.31438 0.24684 0.0
C10 C 0.3302 0.3448 0.19933 0.0
C11 C 0.33555 0.3707 0.18715 0.0
C12 C 0.38679 0.35549 0.20188 0.0
H13 H 0.40685 0.35002 0.20744 0.0
C14 C 0.39228 0.38135 0.19024 0.0
H15 H 0.30618 0.33029 0.20242 0.0
C16 C 0.36691 0.38894 0.1829 0.0
H17 H 0.37191 0.40924 0.17405 0.0
H18 H 0.4163 0.39556 0.18688 0.0
H19 H 0.21002 0.83134 0.75508 0.0
C20 C 0.22474 0.82165 0.74746 0.0
C21 C 0.25286 0.82316 0.76064 0.0
C22 C 0.21495 0.80677 0.72484 0.0
H23 H 0.29354 0.81177 0.76032 0.0
C24 C 0.27154 0.81032 0.75054 0.0
C25 C 0.26213 0.79553 0.72795 0.0
C26 C 0.23365 0.79361 0.71533 0.0
C27 C 0.18539 0.80507 0.71083 0.0
H28 H 0.22652 0.78258 0.69765 0.0
C29 C 0.17959 0.82956 0.70536 0.0
C30 C 0.15291 0.82816 0.69016 0.0
C31 C 0.16364 0.77903 0.70166 0.0
H32 H 0.1675 0.75986 0.70577 0.0
C33 C 0.13676 0.7775 0.68705 0.0
H34 H 0.19655 0.84982 0.71194 0.0
C35 C 0.13151 0.80192 0.68113 0.0
H36 H 0.11068 0.80033 0.66952 0.0
H37 H 0.12013 0.75737 0.68006 0.0
H38 H 0.66657 0.4375 0.87947 0.0
C39 C 0.65863 0.4165 0.8874 0.0
C40 C 0.67925 0.40881 0.90376 0.0
C41 C 0.62724 0.39754 0.88212 0.0
H42 H 0.68361 0.37559 0.92713 0.0
C43 C 0.66814 0.38158 0.91426 0.0
C44 C 0.63695 0.36227 0.90911 0.0
C45 C 0.6168 0.37043 0.89285 0.0
C46 C 0.60405 0.40661 0.86762 0.0
H47 H 0.59244 0.35601 0.88918 0.0
C48 C 0.61059 0.42 0.84406 0.0
C49 C 0.5872 0.42685 0.83033 0.0
C50 C 0.57451 0.40126 0.87755 0.0
H51 H 0.56906 0.39151 0.89576 0.0
C52 C 0.55172 0.40856 0.86426 0.0
H53 H 0.63319 0.42412 0.83612 0.0
C54 C 0.55789 0.4211 0.84081 0.0
H55 H 0.53971 0.42654 0.83087 0.0
H56 H 0.52911 0.40438 0.87215 0.0
H57 H 0.91985 0.7927 0.35527 0.0
C58 C 0.90243 0.77653 0.36596 0.0
C59 C 0.89855 0.78169 0.39104 0.0
C60 C 0.88293 0.75104 0.35409 0.0
H61 H 0.87014 0.76513 0.42273 0.0
C62 C 0.87472 0.76075 0.40403 0.0
C63 C 0.85492 0.73517 0.39271 0.0
C64 C 0.85932 0.73046 0.36764 0.0
C65 C 0.88201 0.74906 0.32635 0.0
H66 H 0.84347 0.71139 0.35828 0.0
C67 C 0.89591 0.73327 0.31356 0.0
C68 C 0.89457 0.73299 0.28696 0.0
C69 C 0.86642 0.76381 0.31248 0.0
H70 H 0.85555 0.77589 0.32186 0.0
C71 C 0.86439 0.76302 0.28651 0.0
H72 H 0.90819 0.72197 0.32412 0.0
C73 C 0.87824 0.74782 0.27388 0.0
H74 H 0.87592 0.74754 0.25365 0.0
H75 H 0.85202 0.77431 0.27607 0.0
H76 H 0.71369 0.80103 0.9246 0.0
C77 C 0.7243 0.81516 0.90936 0.0
C78 C 0.75434 0.8182 0.90201 0.0
C79 C 0.70762 0.82998 0.89698 0.0
H80 H 0.79057 0.83825 0.87603 0.0
C81 C 0.76755 0.83618 0.88198 0.0
C82 C 0.75121 0.85121 0.86935 0.0
C83 C 0.72124 0.84815 0.87712 0.0
C84 C 0.67555 0.82573 0.90453 0.0
H85 H 0.7083 0.85955 0.86756 0.0
C86 C 0.66882 0.84856 0.91234 0.0
C87 C 0.63887 0.84409 0.92114 0.0
C88 C 0.65189 0.79847 0.90491 0.0
H89 H 0.65663 0.78062 0.89892 0.0
C90 C 0.62192 0.79403 0.91297 0.0
H91 H 0.68731 0.86952 0.9126 0.0
C92 C 0.61542 0.81663 0.92115 0.0
H93 H 0.59204 0.81263 0.9275 0.0
H94 H 0.60374 0.77297 0.9131 0.0
H95 H 0.83767 0.27709 0.46246 0.0
C96 C 0.82692 0.27509 0.44366 0.0
C97 C 0.83571 0.26057 0.42569 0.0
C98 C 0.8043 0.28682 0.43773 0.0
H99 H 0.8286 0.24696 0.38738 0.0
C100 C 0.82267 0.25891 0.40114 0.0
C101 C 0.80057 0.27108 0.39459 0.0
C102 C 0.7914 0.28487 0.41303 0.0
C103 C 0.79304 0.29968 0.45767 0.0
H104 H 0.77373 0.2936 0.40821 0.0
C105 C 0.78551 0.32343 0.45273 0.0
C106 C 0.77383 0.33488 0.47146 0.0
C107 C 0.78895 0.28769 0.48177 0.0
H108 H 0.7937 0.26901 0.48612 0.0
C109 C 0.77787 0.29922 0.50048 0.0
H110 H 0.78899 0.3332 0.43441 0.0
C111 C 0.77025 0.32257 0.4954 0.0
H112 H 0.76074 0.3305 0.51009 0.0
H113 H 0.77464 0.2897 0.51888 0.0
H114 H 0.44478 0.76881 0.25397 0.0
C115 C 0.42065 0.75818 0.2464 0.0
C116 C 0.40559 0.77335 0.23213 0.0
C117 C 0.40519 0.72892 0.24968 0.0
H118 H 0.3634 0.76995 0.20977 0.0
C119 C 0.37482 0.75877 0.22148 0.0
C120 C 0.35926 0.72957 0.22448 0.0
C121 C 0.37443 0.71491 0.23894 0.0
C122 C 0.42264 0.71182 0.26008 0.0
H123 H 0.36315 0.69219 0.24052 0.0
C124 C 0.43083 0.7113 0.28584 0.0
C125 C 0.44471 0.6925 0.29527 0.0
C126 C 0.42912 0.69416 0.24374 0.0
H127 H 0.42295 0.69426 0.2239 0.0
C128 C 0.44294 0.67581 0.25279 0.0
H129 H 0.4259 0.72509 0.29834 0.0
C130 C 0.45031 0.67469 0.27826 0.0
H131 H 0.45973 0.65922 0.28459 0.0
H132 H 0.4474 0.66197 0.24005 0.0
H133 H 0.20736 0.43651 0.77058 0.0
C134 C 0.19267 0.41788 0.76008 0.0
C135 C 0.20123 0.41358 0.73613 0.0
C136 C 0.16702 0.39681 0.77146 0.0
H137 H 0.18979 0.38521 0.70502 0.0
C138 C 0.18292 0.38858 0.72326 0.0
C139 C 0.15708 0.36733 0.73398 0.0
C140 C 0.14933 0.37175 0.75814 0.0
C141 C 0.16263 0.39798 0.79877 0.0
H142 H 0.13002 0.35535 0.76702 0.0
C143 C 0.15555 0.41946 0.80991 0.0
C144 C 0.15239 0.41935 0.83614 0.0
C145 C 0.16629 0.37677 0.81409 0.0
H146 H 0.1719 0.36023 0.80615 0.0
C147 C 0.1633 0.37676 0.83977 0.0
H148 H 0.15256 0.43593 0.79838 0.0
C149 C 0.15649 0.39781 0.85071 0.0
H150 H 0.15403 0.39708 0.87072 0.0
H151 H 0.16629 0.36029 0.85128 0.0
Tb152 Tb 1.00238 0.05806 0.56917 0.0
Tb153 Tb 0.06709 0.09168 0.5538 0.0
C154 C 0.9507 0.01972 0.58031 0.0
C155 C 0.93597 0.0068 0.6035 0.0
C156 C 0.90802 0.98256 0.60232 0.0
C157 C 0.89269 0.97094 0.62413 0.0
C158 C 0.90503 0.98347 0.64751 0.0
C159 C 0.93345 0.00758 0.64857 0.0
C160 C 0.94882 0.01912 0.62675 0.0
C161 C 0.02961 0.10705 0.59268 0.0
C162 C 0.06121 0.04855 0.59621 0.0
C163 C 0.11812 0.13047 0.54202 0.0
C164 C 0.13097 0.14415 0.51847 0.0
C165 C 0.15714 0.16987 0.51897 0.0
C166 C 0.17058 0.18236 0.49672 0.0
C167 C 0.15812 0.16919 0.47361 0.0
C168 C 0.13146 0.14363 0.4732 0.0
C169 C 0.11792 0.13127 0.49544 0.0
C170 C 0.03946 0.04266 0.5302 0.0
C171 C 0.00822 0.1005 0.52631 0.0
O172 O 0.9756 0.01498 0.57466 0.0
O173 O 0.9547 0.04605 0.57698 0.0
O174 O 0.04319 0.09109 0.58692 0.0
O175 O 0.99954 0.09419 0.58772 0.0
O176 O 0.03048 0.03787 0.59003 0.0
O177 O 0.08006 0.07306 0.58728 0.0
O178 O 0.09386 0.13498 0.54954 0.0
O179 O 0.11424 0.10406 0.54423 0.0
O180 O 0.0263 0.05881 0.53615 0.0
O181 O 0.06961 0.05548 0.53481 0.0
O182 O 0.03871 0.11193 0.5332 0.0
O183 O 0.99012 0.07548 0.53474 0.0
H184 H 0.89786 0.97277 0.5845 0.0
H185 H 0.8712 0.95209 0.62266 0.0
H186 H 0.94346 0.01794 0.66619 0.0
H187 H 0.97041 0.03792 0.62794 0.0
H188 H 0.16749 0.18008 0.5366 0.0
H189 H 0.19125 0.20193 0.49766 0.0
H190 H 0.12109 0.13318 0.45568 0.0
H191 H 0.09753 0.11146 0.49471 0.0
Tb192 Tb 0.5554 0.08697 0.08024 0.0
Tb193 Tb 0.48799 0.05008 0.06701 0.0
C194 C 0.60664 0.12833 0.08915 0.0
C195 C 0.62032 0.1461 0.11116 0.0
C196 C 0.64798 0.17037 0.10943 0.0
C197 C 0.66214 0.18644 0.13073 0.0
C198 C 0.64886 0.17835 0.15412 0.0
C199 C 0.62055 0.15435 0.15553 0.0
C200 C 0.60637 0.13842 0.13422 0.0
C201 C 0.53341 0.03983 0.10638 0.0
C202 C 0.49922 0.0956 0.10686 0.0
C203 C 0.43548 0.01018 0.05796 0.0
C204 C 0.41902 0.99319 0.03595 0.0
C205 C 0.43554 0.9847 0.0188 0.0
C206 C 0.41975 0.97007 0.99723 0.0
C207 C 0.38727 0.96402 0.9923 0.0
C208 C 0.37076 0.9724 1.00959 0.0
C209 C 0.38651 0.98678 0.03128 0.0
C210 C 0.51072 0.09724 0.04073 0.0
C211 C 0.54421 0.04087 0.0408 0.0
O212 O 0.58135 0.13057 0.0783 0.0
O213 O 0.60354 0.10211 0.09179 0.0
O214 O 0.5184 0.05495 0.09962 0.0
O215 O 0.56263 0.05242 0.1007 0.0
O216 O 0.52871 0.1071 0.0997 0.0
O217 O 0.48032 0.06993 0.09977 0.0
O218 O 0.4607 0.00666 0.06756 0.0
O219 O 0.43961 0.0367 0.05647 0.0
O220 O 0.52511 0.08176 0.0477 0.0
O221 O 0.48149 0.0851 0.04643 0.0
O222 O 0.51451 0.0297 0.04767 0.0
O223 O 0.5635 0.0664 0.04805 0.0
H224 H 0.65889 0.17666 0.09169 0.0
H225 H 0.68363 0.20503 0.12891 0.0
H226 H 0.60989 0.14726 0.17324 0.0
H227 H 0.58491 0.11971 0.13583 0.0
H228 H 0.46071 0.98979 0.02184 0.0
H229 H 0.43315 0.96415 0.98408 0.0
H230 H 0.34567 0.96782 1.00634 0.0
H231 H 0.3734 0.99331 0.04424 0.0
Tb232 Tb 0.5401 0.61015 0.58218 0.0
Tb233 Tb 0.52348 0.55342 0.56079 0.0
C234 C 0.53972 0.65619 0.59619 0.0
C235 C 0.51658 0.66487 0.60768 0.0
C236 C 0.48412 0.65264 0.60048 0.0
C237 C 0.46254 0.66132 0.61149 0.0
C238 C 0.47297 0.68226 0.63002 0.0
C239 C 0.50546 0.69409 0.63742 0.0
C240 C 0.52704 0.6855 0.6263 0.0
C241 C 0.56333 0.57753 0.60808 0.0
C242 C 0.47422 0.56007 0.59464 0.0
C243 C 0.52539 0.50734 0.5489 0.0
C244 C 0.54668 0.49909 0.53448 0.0
C245 C 0.55465 0.47668 0.54312 0.0
C246 C 0.57685 0.46984 0.53106 0.0
C247 C 0.59145 0.48528 0.51007 0.0
C248 C 0.58292 0.50737 0.50105 0.0
C249 C 0.5608 0.51435 0.51327 0.0
C250 C 0.49965 0.5853 0.53438 0.0
C251 C 0.5889 0.60388 0.54722 0.0
O252 O 0.53259 0.64692 0.57325 0.0
O253 O 0.55112 0.64077 0.61018 0.0
O254 O 0.53619 0.57032 0.59731 0.0
O255 O 0.57832 0.60445 0.60535 0.0
O256 O 0.49039 0.58761 0.59252 0.0
O257 O 0.4849 0.54191 0.58579 0.0
O258 O 0.5381 0.52036 0.56986 0.0
O259 O 0.50806 0.51895 0.53647 0.0
O260 O 0.5268 0.59319 0.54543 0.0
O261 O 0.48563 0.55823 0.5369 0.0
O262 O 0.57171 0.57642 0.54782 0.0
O263 O 0.57972 0.62204 0.558 0.0
H264 H 0.47543 0.63652 0.58623 0.0
H265 H 0.43779 0.65198 0.60512 0.0
H266 H 0.51423 0.70989 0.65194 0.0
H267 H 0.55196 0.69498 0.63225 0.0
H268 H 0.54408 0.46477 0.5595 0.0
H269 H 0.58268 0.45246 0.53819 0.0
H270 H 0.59397 0.51969 0.48501 0.0
H271 H 0.5552 0.53196 0.50644 0.0
Tb272 Tb 0.02353 0.59991 0.04383 0.0
Tb273 Tb 0.01592 0.54921 0.07555 0.0
C274 C 0.01582 0.63881 0.01856 0.0
C275 C 0.99338 0.65294 0.01686 0.0
C276 C 0.96127 0.63842 0.02174 0.0
C277 C 0.93981 0.65161 0.01778 0.0
C278 C 0.95018 0.67957 1.00909 0.0
C279 C 0.98258 0.69428 1.00515 0.0
C280 C 1.00395 0.68104 1.00895 0.0
C281 C 0.07564 0.60213 0.06924 0.0
C282 C 0.99389 0.59368 0.09753 0.0
C283 C 0.02415 0.51087 0.10145 0.0
C284 C 0.04664 0.49684 0.10337 0.0
C285 C 0.07474 0.50718 0.09053 0.0
C286 C 0.09704 0.49482 0.09419 0.0
C287 C 0.09161 0.47198 0.1108 0.0
C288 C 0.06302 0.46138 0.12314 0.0
C289 C 0.04077 0.47372 0.11943 0.0
C290 C 0.96368 0.54697 0.05016 0.0
C291 C 0.04565 0.5556 0.02181 0.0
O292 O 1.00446 0.61246 0.0116 0.0
O293 O 0.03434 0.64321 0.03888 0.0
O294 O 0.04786 0.59203 0.07658 0.0
O295 O 0.07517 0.61333 0.04738 0.0
O296 O 0.99573 0.60447 0.07461 0.0
O297 O 1.00332 0.57288 0.10303 0.0
O298 O 0.03589 0.53743 0.10776 0.0
O299 O 0.00545 0.50608 0.0812 0.0
O300 O 0.99148 0.5571 0.04284 0.0
O301 O 0.9642 0.53552 0.07191 0.0
O302 O 0.0438 0.54479 0.04473 0.0
O303 O 0.03593 0.57621 0.01629 0.0
H304 H 0.95268 0.61673 0.02805 0.0
H305 H 0.91505 0.63986 0.02122 0.0
H306 H 0.99124 0.71571 0.99818 0.0
H307 H 0.02864 0.69253 1.00508 0.0
H308 H 0.0797 0.52511 0.07809 0.0
H309 H 0.11862 0.50329 0.08417 0.0
H310 H 0.05825 0.44412 0.13632 0.0
H311 H 0.01927 0.46561 0.1296 0.0
H312 H 0.27133 0.27947 0.26091 0.0
H313 H 0.24146 0.26506 0.29876 0.0
H314 H 0.31171 0.23574 0.33118 0.0
H315 H 0.34224 0.25099 0.29396 0.0
H316 H 0.21493 0.21227 0.31928 0.0
H317 H 0.30385 0.28445 0.38662 0.0
H318 H 0.30657 0.28903 0.35321 0.0
H319 H 0.31965 0.26401 0.36927 0.0
C320 C 0.28065 0.27033 0.27625 0.0
C321 C 0.30919 0.2664 0.2744 0.0
C322 C 0.26346 0.26197 0.2978 0.0
C323 C 0.2746 0.24971 0.31793 0.0
C324 C 0.30298 0.24566 0.31609 0.0
H325 H 0.17171 0.14213 0.43561 0.0
H326 H 0.19834 0.16264 0.39747 0.0
C327 C 0.32018 0.25404 0.29463 0.0
C328 C 0.25603 0.24013 0.34053 0.0
H329 H 0.2615 0.24587 0.4041 0.0
C330 C 0.22498 0.21981 0.33781 0.0
C331 C 0.269 0.25028 0.36466 0.0
C332 C 0.30148 0.27336 0.36865 0.0
C333 C 0.20692 0.20865 0.35866 0.0
C334 C 0.22054 0.21768 0.3829 0.0
C335 C 0.25119 0.23872 0.38554 0.0
C336 C 0.2037 0.20518 0.4058 0.0
C337 C 0.17337 0.18743 0.35447 0.0
C338 C 0.1986 0.22236 0.42352 0.0
C339 C 0.18362 0.21071 0.44547 0.0
C340 C 0.17345 0.18163 0.4501 0.0
C341 C 0.17869 0.1645 0.43235 0.0
C342 C 0.19385 0.1762 0.41051 0.0
H343 H 0.16345 0.18935 0.3354 0.0
H344 H 0.17325 0.1659 0.35641 0.0
H345 H 0.1576 0.18994 0.36835 0.0
H346 H 0.20617 0.24481 0.42033 0.0
H347 H 0.17977 0.22441 0.45873 0.0
H348 H 0.25133 0.87371 0.77398 0.0
H349 H 0.27147 0.89899 0.81357 0.0
H350 H 0.2977 0.83139 0.8416 0.0
H351 H 0.27706 0.80574 0.80256 0.0
H352 H 0.25505 0.87655 0.86712 0.0
H353 H 0.38108 0.90728 0.84436 0.0
H354 H 0.34899 0.89782 0.82064 0.0
H355 H 0.35547 0.87097 0.83938 0.0
C356 C 0.26095 0.86406 0.78873 0.0
C357 C 0.26295 0.83788 0.78503 0.0
C358 C 0.27254 0.87856 0.81123 0.0
C359 C 0.28638 0.86713 0.83025 0.0
C360 C 0.28747 0.84066 0.82695 0.0
H361 H 0.39046 0.91744 0.97154 0.0
H362 H 0.36435 0.8944 0.9323 0.0
C363 C 0.27582 0.82614 0.80459 0.0
C364 C 0.30056 0.883 0.85342 0.0
H365 H 0.37155 0.91614 0.88551 0.0
C366 C 0.28051 0.88546 0.87116 0.0
C367 C 0.33374 0.89439 0.85849 0.0
C368 C 0.35622 0.89275 0.8397 0.0
C369 C 0.29282 0.89832 0.89435 0.0
C370 C 0.32608 0.90952 0.89956 0.0
C371 C 0.34608 0.90746 0.88153 0.0
C372 C 0.34077 0.92302 0.92374 0.0
C373 C 0.27005 0.89888 0.91336 0.0
C374 C 0.33631 0.94683 0.93186 0.0
C375 C 0.35102 0.95989 0.95434 0.0
C376 C 0.37086 0.94962 0.96888 0.0
C377 C 0.37545 0.92589 0.96063 0.0
C378 C 0.3605 0.9127 0.93828 0.0
H379 H 0.24576 0.88291 0.9092 0.0
H380 H 0.27821 0.89502 0.93251 0.0
H381 H 0.26863 0.91989 0.91302 0.0
H382 H 0.3219 0.95562 0.92062 0.0
H383 H 0.3475 0.97843 0.96005 0.0
H384 H 0.54824 0.40949 0.78861 0.0
H385 H 0.55112 0.43465 0.74899 0.0
H386 H 0.63979 0.49906 0.77517 0.0
H387 H 0.63708 0.47365 0.81504 0.0
H388 H 0.55111 0.4887 0.74726 0.0
H389 H 0.65644 0.48608 0.70254 0.0
H390 H 0.63721 0.46191 0.72712 0.0
H391 H 0.6627 0.49759 0.73451 0.0
C392 C 0.56867 0.42876 0.78575 0.0
C393 C 0.59233 0.43973 0.80498 0.0
C394 C 0.5703 0.4431 0.76309 0.0
C395 C 0.59566 0.46873 0.75904 0.0
C396 C 0.62022 0.4791 0.7777 0.0
H397 H 0.61619 0.59364 0.64003 0.0
H398 H 0.62608 0.56739 0.67625 0.0
C399 C 0.61867 0.4646 0.80048 0.0
C400 C 0.59423 0.48569 0.73643 0.0
H401 H 0.63045 0.51336 0.68239 0.0
C402 C 0.56846 0.49404 0.73307 0.0
C403 C 0.61704 0.49293 0.71806 0.0
C404 C 0.64484 0.48405 0.72051 0.0
C405 C 0.56472 0.50921 0.71185 0.0
C406 C 0.58702 0.51583 0.69312 0.0
C407 C 0.61325 0.50808 0.69668 0.0
C408 C 0.58298 0.5305 0.66969 0.0
C409 C 0.53703 0.51832 0.70984 0.0
C410 C 0.55603 0.51812 0.65351 0.0
C411 C 0.55028 0.53307 0.63294 0.0
C412 C 0.57152 0.56063 0.628 0.0
C413 C 0.59934 0.57247 0.64343 0.0
C414 C 0.60505 0.5575 0.6641 0.0
H415 H 0.5273 0.5183 0.72834 0.0
H416 H 0.54402 0.53973 0.70158 0.0
H417 H 0.51779 0.50347 0.69754 0.0
H418 H 0.53896 0.49713 0.6572 0.0
H419 H 0.52869 0.52333 0.62136 0.0
H420 H 0.92965 0.7525 0.24606 0.0
H421 H 0.94663 0.72629 0.21701 0.0
H422 H 0.91256 0.65314 0.26468 0.0
H423 H 0.89397 0.67918 0.29349 0.0
H424 H 0.98706 0.70185 0.21843 0.0
H425 H 0.86704 0.61894 0.20022 0.0
H426 H 0.87353 0.65011 0.21796 0.0
H427 H 0.8813 0.62131 0.23234 0.0
C428 C 0.92566 0.73079 0.25046 0.0
C429 C 0.9098 0.71786 0.27198 0.0
C430 C 0.93557 0.71579 0.23378 0.0
C431 C 0.93019 0.68734 0.23805 0.0
C432 C 0.91615 0.67476 0.26037 0.0
H433 H 0.9787 0.57286 0.14486 0.0
H434 H 0.96323 0.59459 0.17913 0.0
C435 C 0.90597 0.68982 0.27711 0.0
C436 C 0.93901 0.6713 0.21878 0.0
H437 H 0.90898 0.61424 0.17967 0.0
C438 C 0.96989 0.68267 0.21006 0.0
C439 C 0.91676 0.64623 0.20753 0.0
C440 C 0.88273 0.63352 0.21477 0.0
C441 C 0.97898 0.66995 0.1906 0.0
C442 C 0.9567 0.64511 0.1793 0.0
C443 C 0.92607 0.63331 0.18829 0.0
C444 C 0.96482 0.63135 0.15797 0.0
C445 C 0.01248 0.68315 0.18223 0.0
C446 C 0.9703 0.64444 0.13439 0.0
C447 C 0.97885 0.63191 0.11459 0.0
C448 C 0.98239 0.60605 0.11793 0.0
C449 C 0.97633 0.59279 0.1415 0.0
C450 C 0.96744 0.60519 0.16119 0.0
H451 H 0.0284 0.69909 0.19574 0.0
H452 H 0.02228 0.6668 0.17976 0.0
H453 H 0.01244 0.69369 0.16392 0.0
H454 H 0.96815 0.6645 0.13132 0.0
H455 H 0.98333 0.64283 0.0968 0.0
H456 H 0.42057 0.28189 0.20548 0.0
H457 H 0.44477 0.2519 0.18818 0.0
H458 H 0.35852 0.17912 0.19762 0.0
H459 H 0.33385 0.20902 0.21433 0.0
H460 H 0.45378 0.20417 0.2103 0.0
H461 H 0.37613 0.17691 0.12322 0.0
H462 H 0.37948 0.2059 0.14295 0.0
H463 H 0.35551 0.17042 0.15166 0.0
C464 C 0.40666 0.25953 0.20366 0.0
C465 C 0.37521 0.24785 0.21111 0.0
C466 C 0.4206 0.24243 0.19396 0.0
C467 C 0.40329 0.21339 0.19137 0.0
C468 C 0.37211 0.20156 0.19916 0.0
H469 H 0.44094 0.07799 0.12658 0.0
H470 H 0.41895 0.10613 0.14925 0.0
C471 C 0.35816 0.21863 0.20891 0.0
C472 C 0.41783 0.19548 0.18036 0.0
H473 H 0.41092 0.15322 0.13057 0.0
C474 C 0.4445 0.19305 0.19285 0.0
C475 C 0.40562 0.18105 0.1576 0.0
C476 C 0.37778 0.18381 0.1429 0.0
C477 C 0.45901 0.17612 0.18335 0.0
C478 C 0.44681 0.16171 0.16056 0.0
C479 C 0.42014 0.16419 0.14811 0.0
C480 C 0.46145 0.14418 0.14897 0.0
C481 C 0.48685 0.17337 0.19803 0.0
C482 C 0.49278 0.15618 0.14149 0.0
C483 C 0.50552 0.14011 0.12859 0.0
C484 C 0.48701 0.11182 0.12273 0.0
C485 C 0.45587 0.09971 0.13077 0.0
C486 C 0.44322 0.11577 0.14371 0.0
H487 H 0.48767 0.17919 0.21795 0.0
H488 H 0.48594 0.15156 0.19716 0.0
H489 H 0.50918 0.18774 0.18995 0.0
H490 H 0.50707 0.17822 0.1449 0.0
H491 H 0.52953 0.15013 0.12257 0.0
H492 H 0.14231 0.84483 0.64321 0.0
H493 H 0.1316 0.8864 0.63078 0.0
H494 H 0.14003 0.91077 0.70816 0.0
H495 H 0.15201 0.86961 0.72053 0.0
H496 H 0.08315 0.89769 0.64141 0.0
H497 H 0.19199 0.98475 0.67747 0.0
H498 H 0.18928 0.94896 0.67577 0.0
H499 H 0.17287 0.95987 0.70128 0.0
C500 C 0.14215 0.85923 0.65752 0.0
C501 C 0.14787 0.85406 0.68281 0.0
C502 C 0.13611 0.88299 0.65043 0.0
C503 C 0.13533 0.90194 0.66849 0.0
C504 C 0.1413 0.89691 0.69381 0.0
H505 H 0.03116 0.00892 0.63071 0.0
H506 H 0.05045 0.97538 0.65161 0.0
C507 C 0.1479 0.87331 0.70089 0.0
C508 C 0.12596 0.92566 0.66073 0.0
H509 H 0.14851 0.99701 0.66349 0.0
C510 C 0.09754 0.91941 0.6462 0.0
C511 C 0.14487 0.95405 0.66674 0.0
C512 C 0.1766 0.96239 0.68095 0.0
C513 C 0.08755 0.94063 0.63738 0.0
C514 C 0.1058 0.96893 0.64417 0.0
C515 C 0.13428 0.97528 0.65867 0.0
C516 C 0.09626 0.99219 0.63529 0.0
C517 C 0.05808 0.93247 0.62014 0.0
C518 C 0.11649 0.0141 0.62073 0.0
C519 C 0.10582 0.03379 0.60931 0.0
C520 C 0.07463 0.03162 0.61209 0.0
C521 C 0.05518 0.01083 0.62799 0.0
C522 C 0.06608 0.99154 0.63979 0.0
H523 H 0.05242 0.91176 0.61118 0.0
H524 H 0.03758 0.93076 0.63107 0.0
H525 H 0.06078 0.94844 0.60518 0.0
H526 H 0.13997 0.01515 0.61715 0.0
H527 H 0.12129 0.04958 0.59711 0.0
H528 H 0.69744 0.4651 0.91407 0.0
H529 H 0.74822 0.49704 0.93285 0.0
H530 H 0.78352 0.43059 0.93307 0.0
H531 H 0.73404 0.39942 0.91253 0.0
H532 H 0.77225 0.49399 0.97647 0.0
H533 H 0.8598 0.49261 0.91116 0.0
H534 H 0.81784 0.47842 0.90278 0.0
H535 H 0.83599 0.45716 0.91955 0.0
C536 C 0.71641 0.45758 0.91724 0.0
C537 C 0.71145 0.42954 0.91185 0.0
C538 C 0.74539 0.47582 0.92827 0.0
C539 C 0.77001 0.46643 0.93424 0.0
C540 C 0.7654 0.43873 0.92814 0.0
H541 H 0.9033 0.51233 0.06 0.0
H542 H 0.85666 0.49677 0.03105 0.0
C543 C 0.73673 0.42069 0.91674 0.0
C544 C 0.79918 0.4844 0.94904 0.0
H545 H 0.87941 0.503 0.95446 0.0
C546 C 0.79574 0.4964 0.97137 0.0
C547 C 0.83005 0.48828 0.9423 0.0
C548 C 0.83611 0.47869 0.91748 0.0
C549 C 0.82196 0.5107 0.9877 0.0
C550 C 0.85239 0.51208 0.98213 0.0
C551 C 0.85608 0.50151 0.95913 0.0
C552 C 0.88037 0.52307 1.00025 0.0
C553 C 0.81661 0.5242 1.0107 0.0
C554 C 0.90968 0.54248 0.99256 0.0
C555 C 0.93666 0.55073 1.00893 0.0
C556 C 0.93481 0.54006 0.03343 0.0
C557 C 0.90539 0.52118 0.04132 0.0
C558 C 0.87858 0.51248 0.02481 0.0
H559 H 0.7963 0.53081 1.00737 0.0
H560 H 0.81072 0.50865 0.02622 0.0
H561 H 0.83794 0.54289 0.01662 0.0
H562 H 0.91185 0.55084 0.9737 0.0
H563 H 0.95907 0.56494 1.00219 0.0
H564 H 0.79307 0.70567 0.37554 0.0
H565 H 0.74775 0.67868 0.40031 0.0
H566 H 0.80985 0.69375 0.46674 0.0
H567 H 0.85534 0.71949 0.44197 0.0
H568 H 0.76512 0.64151 0.46741 0.0
H569 H 0.70806 0.71706 0.44395 0.0
H570 H 0.71464 0.70028 0.41716 0.0
H571 H 0.74796 0.72345 0.43597 0.0
C572 C 0.79723 0.70268 0.3953 0.0
C573 C 0.82792 0.71514 0.40676 0.0
C574 C 0.77116 0.68758 0.40955 0.0
C575 C 0.77513 0.68484 0.43559 0.0
C576 C 0.80598 0.6958 0.44677 0.0
H577 H 0.63289 0.65799 0.54414 0.0
H578 H 0.67816 0.67605 0.51762 0.0
C579 C 0.83202 0.71069 0.43256 0.0
C580 C 0.74732 0.67166 0.45146 0.0
H581 H 0.67921 0.67753 0.46825 0.0
C582 C 0.74629 0.64935 0.46754 0.0
C583 C 0.72296 0.68216 0.45206 0.0
C584 C 0.7235 0.70722 0.43657 0.0
C585 C 0.72172 0.63729 0.48407 0.0
C586 C 0.69695 0.64735 0.48421 0.0
C587 C 0.69799 0.66963 0.46811 0.0
C588 C 0.67017 0.63573 0.50129 0.0
C589 C 0.72317 0.61452 0.50179 0.0
C590 C 0.65044 0.60696 0.50115 0.0
C591 C 0.62467 0.59649 0.51658 0.0
C592 C 0.61765 0.61461 0.53223 0.0
C593 C 0.6375 0.64337 0.53239 0.0
C594 C 0.66342 0.65377 0.51714 0.0
H595 H 0.74767 0.61509 0.5045 0.0
H596 H 0.71465 0.61652 0.52032 0.0
H597 H 0.70784 0.59366 0.49391 0.0
H598 H 0.6545 0.59263 0.48871 0.0
H599 H 0.60982 0.57428 0.51576 0.0
H600 H 0.32821 0.39614 0.14314 0.0
H601 H 0.28554 0.41162 0.12989 0.0
H602 H 0.23851 0.3778 0.19772 0.0
H603 H 0.28178 0.36313 0.2116 0.0
H604 H 0.22108 0.38154 0.1216 0.0
H605 H 0.24545 0.45928 0.19784 0.0
H606 H 0.27291 0.44336 0.19101 0.0
H607 H 0.23862 0.42412 0.20833 0.0
C608 C 0.30898 0.39224 0.15539 0.0
C609 C 0.30864 0.37872 0.1786 0.0
C610 C 0.28447 0.40089 0.14768 0.0
C611 C 0.25912 0.39626 0.16299 0.0
C612 C 0.25816 0.38205 0.18583 0.0
H613 H 0.08297 0.41653 0.11728 0.0
H614 H 0.12315 0.39752 0.12938 0.0
C615 C 0.28274 0.37342 0.19361 0.0
C616 C 0.23397 0.40664 0.15502 0.0
H617 H 0.19994 0.45181 0.17106 0.0
C618 C 0.2164 0.39688 0.1324 0.0
C619 C 0.22826 0.42696 0.16899 0.0
C620 C 0.24746 0.43929 0.19278 0.0
C621 C 0.19312 0.40678 0.12343 0.0
C622 C 0.18694 0.42663 0.13769 0.0
C623 C 0.20461 0.43647 0.16024 0.0
C624 C 0.16261 0.43789 0.12943 0.0
C625 C 0.1759 0.39641 0.09851 0.0
C626 C 0.17138 0.46694 0.12579 0.0
C627 C 0.14843 0.47792 0.11919 0.0
C628 C 0.11619 0.46006 0.11621 0.0
C629 C 0.10755 0.4309 0.11961 0.0
C630 C 0.13053 0.41995 0.12625 0.0
H631 H 0.18899 0.38724 0.08711 0.0
H632 H 0.15226 0.37977 0.10165 0.0
H633 H 0.17229 0.41372 0.08771 0.0
H634 H 0.196 0.48118 0.12829 0.0
H635 H 0.15589 0.5005 0.11713 0.0
H636 H 0.64967 0.34996 0.95768 0.0
H637 H 0.63024 0.30444 0.97873 0.0
H638 H 0.57547 0.26581 0.91169 0.0
H639 H 0.59637 0.31108 0.88994 0.0
H640 H 0.57197 0.2717 0.9894 0.0
H641 H 0.61811 0.21224 0.92902 0.0
H642 H 0.63055 0.24996 0.92702 0.0
H643 H 0.59359 0.22729 0.91189 0.0
C644 C 0.63411 0.33172 0.94714 0.0
C645 C 0.62497 0.33427 0.92193 0.0
C646 C 0.62273 0.30568 0.95934 0.0
C647 C 0.60177 0.28151 0.94674 0.0
C648 C 0.59223 0.28396 0.92168 0.0
H649 H 0.48005 0.13021 0.02265 0.0
H650 H 0.50216 0.17456 0.99959 0.0
C651 C 0.60386 0.31 0.90935 0.0
C652 C 0.58902 0.25411 0.96026 0.0
H653 H 0.58081 0.18536 0.95835 0.0
C654 C 0.57405 0.25286 0.98264 0.0
C655 C 0.59212 0.22957 0.9517 0.0
C656 C 0.60975 0.22982 0.92874 0.0
C657 C 0.56177 0.22781 0.9965 0.0
C658 C 0.56363 0.20298 0.98737 0.0
C659 C 0.57902 0.20428 0.9652 0.0
C660 C 0.54995 0.17553 1.00067 0.0
C661 C 0.54759 0.22842 0.02107 0.0
C662 C 0.56909 0.16067 1.00812 0.0
C663 C 0.55633 0.13503 0.02094 0.0
C664 C 0.52422 0.12387 0.02661 0.0
C665 C 0.50496 0.13847 0.01875 0.0
C666 C 0.51764 0.16393 1.00573 0.0
H667 H 0.55662 0.25003 0.02889 0.0
H668 H 0.52145 0.22121 0.01809 0.0
H669 H 0.55287 0.21434 0.03507 0.0
H670 H 0.59402 0.16906 1.00427 0.0
H671 H 0.57163 0.12406 0.02655 0.0
H672 H 0.9184 0.83523 0.37056 0.0
H673 H 0.94475 0.88031 0.39212 0.0
H674 H 0.94447 0.83641 0.46176 0.0
H675 H 0.9205 0.79156 0.44017 0.0
H676 H 0.92596 0.90404 0.42647 0.0
H677 H 0.03318 0.89086 0.46655 0.0
H678 H 0.00672 0.86694 0.44359 0.0
H679 H 0.99828 0.86255 0.47623 0.0
C680 C 0.92479 0.8351 0.39033 0.0
C681 C 0.91722 0.80948 0.40349 0.0
C682 C 0.93955 0.86101 0.40275 0.0
C683 C 0.94714 0.86203 0.42865 0.0
C684 C 0.93977 0.83649 0.44173 0.0
H685 H 0.97646 0.0079 0.5236 0.0
H686 H 0.95359 0.96448 0.49897 0.0
C687 C 0.9255 0.81068 0.42932 0.0
C688 C 0.96143 0.88959 0.44221 0.0
H689 H 0.02018 0.92648 0.48522 0.0
C690 C 0.94679 0.90906 0.43912 0.0
C691 C 0.98895 0.89663 0.45849 0.0
C692 C 0.00786 0.87826 0.46119 0.0
C693 C 0.95842 0.93487 0.45207 0.0
C694 C 0.98482 0.94112 0.4695 0.0
C695 C 0.99972 0.92182 0.47223 0.0
C696 C 0.99817 0.96777 0.48454 0.0
C697 C 0.94266 0.95536 0.44631 0.0
C698 C 0.03104 0.98383 0.48568 0.0
C699 C 0.04419 0.008 0.50051 0.0
C700 C 0.02484 0.01717 0.5143 0.0
C701 C 0.99195 1.00146 0.51304 0.0
C702 C 0.97882 0.97676 0.49867 0.0
H703 H 0.93071 0.95187 0.42732 0.0
H704 H 0.92422 0.95222 0.4599 0.0
H705 H 0.96002 0.97748 0.44753 0.0
H706 H 0.04669 0.97762 0.47509 0.0
H707 H 0.06963 0.01965 0.50103 0.0
H708 H 0.32606 0.81903 0.72314 0.0
H709 H 0.35965 0.79716 0.70655 0.0
H710 H 0.27755 0.72036 0.69318 0.0
H711 H 0.24373 0.74232 0.70943 0.0
H712 H 0.36991 0.75104 0.72349 0.0
H713 H 0.31743 0.73354 0.62619 0.0
H714 H 0.30916 0.75574 0.64783 0.0
H715 H 0.28927 0.7181 0.64964 0.0
C716 C 0.31519 0.79748 0.71664 0.0
C717 C 0.2823 0.78237 0.7175 0.0
C718 C 0.33437 0.78504 0.70713 0.0
C719 C 0.32104 0.75727 0.69832 0.0
C720 C 0.28822 0.74203 0.69932 0.0
H721 H 0.41208 0.65082 0.64287 0.0
H722 H 0.3743 0.66769 0.66011 0.0
C723 C 0.26896 0.75456 0.70865 0.0
C724 C 0.3418 0.74418 0.68875 0.0
H725 H 0.35593 0.71435 0.63706 0.0
C726 C 0.36684 0.74303 0.7046 0.0
C727 C 0.33771 0.73371 0.66409 0.0
C728 C 0.31213 0.73552 0.64585 0.0
C729 C 0.388 0.73178 0.6964 0.0
C730 C 0.38401 0.72153 0.67175 0.0
C731 C 0.35871 0.72217 0.65601 0.0
C732 C 0.40682 0.71127 0.66159 0.0
C733 C 0.4145 0.73089 0.71409 0.0
C734 C 0.43739 0.73031 0.65657 0.0
C735 C 0.45887 0.72087 0.64643 0.0
C736 C 0.45018 0.69215 0.6412 0.0
C737 C 0.41943 0.67311 0.64636 0.0
C738 C 0.39788 0.68264 0.65634 0.0
H739 H 0.41078 0.73461 0.73376 0.0
H740 H 0.41672 0.71025 0.71297 0.0
H741 H 0.43725 0.74744 0.70868 0.0
H742 H 0.44448 0.75256 0.66022 0.0
H743 H 0.48208 0.73619 0.64225 0.0
H744 H 0.72142 0.85493 0.82428 0.0
H745 H 0.74609 0.88006 0.78669 0.0
H746 H 0.83718 0.91214 0.8271 0.0
H747 H 0.81274 0.88757 0.8648 0.0
H748 H 0.7877 0.94085 0.77873 0.0
H749 H 0.84614 0.86575 0.7664 0.0
H750 H 0.8127 0.85789 0.78567 0.0
H751 H 0.85158 0.88109 0.79694 0.0
C752 C 0.74658 0.86781 0.8253 0.0
C753 C 0.7652 0.86901 0.84745 0.0
C754 C 0.76063 0.88202 0.8038 0.0
C755 C 0.79348 0.89753 0.8041 0.0
C756 C 0.81185 0.89988 0.82644 0.0
H757 H 0.93083 0.97804 0.69388 0.0
H758 H 0.90295 0.95867 0.73179 0.0
C759 C 0.79786 0.88577 0.84792 0.0
C760 C 0.80894 0.91015 0.78083 0.0
H761 H 0.86022 0.90514 0.73937 0.0
C762 C 0.80346 0.93304 0.77 0.0
C763 C 0.82943 0.89982 0.76959 0.0
C764 C 0.83523 0.87465 0.78006 0.0
C765 C 0.81869 0.94641 0.74846 0.0
C766 C 0.83934 0.93614 0.73727 0.0
C767 C 0.8445 0.91305 0.74803 0.0
C768 C 0.85604 0.94901 0.71443 0.0
C769 C 0.81319 0.97183 0.73831 0.0
C770 C 0.83891 0.94984 0.69203 0.0
C771 C 0.85479 0.96116 0.67038 0.0
C772 C 0.88814 0.97161 0.67062 0.0
C773 C 0.90519 0.97059 0.69309 0.0
C774 C 0.88928 0.95936 0.71475 0.0
H775 H 0.80398 0.98148 0.75262 0.0
H776 H 0.83541 0.98801 0.73155 0.0
H777 H 0.79536 0.96534 0.72234 0.0
H778 H 0.81322 0.94143 0.69121 0.0
H779 H 0.84092 0.96187 0.65348 0.0
H780 H 0.82969 0.27612 0.35062 0.0
H781 H 0.80461 0.26595 0.30847 0.0
H782 H 0.71328 0.2484 0.33796 0.0
H783 H 0.73803 0.25803 0.38024 0.0
H784 H 0.75597 0.21238 0.29547 0.0
H785 H 0.71609 0.30047 0.27661 0.0
H786 H 0.74679 0.30241 0.30018 0.0
H787 H 0.70587 0.28273 0.3061 0.0
C788 C 0.80429 0.27026 0.34813 0.0
C789 C 0.78584 0.26778 0.3688 0.0
C790 C 0.79005 0.26464 0.32404 0.0
C791 C 0.75719 0.25673 0.32013 0.0
C792 C 0.73878 0.25503 0.34057 0.0
H793 H 0.62251 0.19084 0.1945 0.0
H794 H 0.64949 0.21126 0.23434 0.0
C795 C 0.75298 0.26055 0.36471 0.0
C796 C 0.74186 0.24767 0.29504 0.0
H797 H 0.6979 0.26286 0.2475 0.0
C798 C 0.74347 0.22351 0.28487 0.0
C799 C 0.72532 0.26212 0.28149 0.0
C800 C 0.72351 0.28851 0.29149 0.0
C801 C 0.72853 0.21308 0.26159 0.0
C802 C 0.71224 0.22766 0.24784 0.0
C803 C 0.71057 0.25184 0.25804 0.0
C804 C 0.69638 0.2177 0.22303 0.0
C805 C 0.72958 0.18606 0.25228 0.0
C806 C 0.71395 0.21535 0.20327 0.0
C807 C 0.6986 0.20334 0.18064 0.0
C808 C 0.66538 0.19375 0.17723 0.0
C809 C 0.64804 0.19749 0.19668 0.0
C810 C 0.66343 0.20937 0.21937 0.0
H811 H 0.73548 0.17378 0.2677 0.0
H812 H 0.70652 0.17264 0.24295 0.0
H813 H 0.74816 0.19112 0.23849 0.0
H814 H 0.73949 0.22217 0.20557 0.0
H815 H 0.71271 0.20063 0.16619 0.0
H816 H 0.49362 0.68029 0.3174 0.0
H817 H 0.50032 0.66758 0.36049 0.0
H818 H 0.42293 0.69 0.37975 0.0
H819 H 0.41348 0.69952 0.33576 0.0
H820 H 0.51559 0.69057 0.40164 0.0
H821 H 0.39139 0.6148 0.40932 0.0
H822 H 0.40599 0.63156 0.38021 0.0
H823 H 0.39433 0.65005 0.40325 0.0
C824 C 0.47741 0.68198 0.33057 0.0
C825 C 0.45216 0.68996 0.32262 0.0
C826 C 0.48165 0.67508 0.35549 0.0
C827 C 0.46148 0.6768 0.37354 0.0
C828 C 0.438 0.6872 0.36616 0.0
H829 H 0.52219 0.64234 0.52654 0.0
H830 H 0.51065 0.66742 0.49043 0.0
C831 C 0.43304 0.69327 0.34093 0.0
C832 C 0.46507 0.66698 0.39966 0.0
H833 H 0.42524 0.62193 0.44543 0.0
C834 C 0.49577 0.67548 0.41115 0.0
C835 C 0.43935 0.64711 0.41222 0.0
C836 C 0.40599 0.63512 0.40054 0.0
C837 C 0.50173 0.66382 0.43394 0.0
C838 C 0.47595 0.64435 0.44673 0.0
C839 C 0.44507 0.63685 0.43581 0.0
C840 C 0.48049 0.62975 0.47027 0.0
C841 C 0.53588 0.67132 0.44307 0.0
C842 C 0.46563 0.60027 0.47211 0.0
C843 C 0.47083 0.58606 0.49342 0.0
C844 C 0.49165 0.60087 0.5132 0.0
C845 C 0.50599 0.63034 0.51169 0.0
C846 C 0.49983 0.64468 0.49074 0.0
H847 H 0.55226 0.67914 0.4276 0.0
H848 H 0.54266 0.68838 0.45709 0.0
H849 H 0.53949 0.65293 0.45178 0.0
H850 H 0.45053 0.58806 0.45676 0.0
H851 H 0.45945 0.56331 0.49394 0.0
H852 H 0.0988 0.43122 0.82959 0.0
H853 H 0.0808 0.45809 0.85808 0.0
H854 H 0.16876 0.4804 0.90236 0.0
H855 H 0.18667 0.45383 0.87402 0.0
H856 H 0.07175 0.44642 0.90873 0.0
H857 H 0.1587 0.55552 0.89726 0.0
H858 H 0.15314 0.52813 0.87496 0.0
H859 H 0.17706 0.53073 0.90339 0.0
C860 C 0.11468 0.44271 0.8449 0.0
C861 C 0.14435 0.44074 0.84933 0.0
C862 C 0.10426 0.45781 0.86136 0.0
C863 C 0.12346 0.47157 0.8824 0.0
C864 C 0.15364 0.47054 0.88613 0.0
H865 H 0.06535 0.51125 0.02437 0.0
H866 H 0.0836 0.49119 0.99051 0.0
C867 C 0.16391 0.45533 0.86986 0.0
C868 C 0.11125 0.48501 0.90156 0.0
H869 H 0.12838 0.54625 0.93364 0.0
C870 C 0.08401 0.46832 0.91401 0.0
C871 C 0.12699 0.51365 0.9085 0.0
C872 C 0.15541 0.53315 0.89518 0.0
C873 C 0.07268 0.47919 0.93348 0.0
C874 C 0.08918 0.50753 0.9411 0.0
C875 C 0.11588 0.52444 0.92817 0.0
C876 C 0.07879 0.52013 0.96209 0.0
C877 C 0.04285 0.46024 0.94552 0.0
C878 C 0.07085 0.54368 0.95781 0.0
C879 C 0.06052 0.5553 0.9772 0.0
C880 C 0.05808 0.54385 1.00153 0.0
C881 C 0.06673 0.52062 1.00593 0.0
C882 C 0.07699 0.50896 0.98647 0.0
H883 H 0.0286 0.44202 0.93344 0.0
H884 H 0.04938 0.45193 0.96337 0.0
H885 H 0.02786 0.47197 0.94971 0.0
H886 H 0.07215 0.55287 0.93929 0.0
H887 H 0.05419 0.57319 0.97298 0.0
H888 H 0.65305 0.89694 0.90135 0.0
H889 H 0.64176 0.93561 0.91857 0.0
H890 H 0.59868 0.88299 0.98093 0.0
H891 H 0.61008 0.84452 0.96407 0.0
H892 H 0.57921 0.93362 0.93069 0.0
H893 H 0.66526 0.9571 0.01267 0.0
H894 H 0.66829 0.93816 0.9857 0.0
H895 H 0.64043 0.92045 1.00885 0.0
C896 C 0.6414 0.89375 0.91882 0.0
C897 C 0.63238 0.86771 0.93134 0.0
C898 C 0.63488 0.91577 0.92856 0.0
C899 C 0.61971 0.91218 0.95112 0.0
C900 C 0.61075 0.88625 0.96364 0.0
H901 H 0.51185 0.98756 0.0229 0.0
H902 H 0.53195 0.95955 0.99829 0.0
C903 C 0.61702 0.86423 0.95386 0.0
C904 C 0.61228 0.93512 0.96147 0.0
H905 H 0.62518 0.97597 0.01328 0.0
C906 C 0.58953 0.94319 0.94859 0.0
C907 C 0.62608 0.94774 0.98466 0.0
C908 C 0.6516 0.94066 0.99872 0.0
C909 C 0.57909 0.96264 0.95892 0.0
C910 C 0.59159 0.97406 0.98277 0.0
C911 C 0.61546 0.96701 0.99507 0.0
C912 C 0.57896 0.99203 0.99599 0.0
C913 C 0.55448 0.97056 0.94439 0.0
C914 C 0.59882 0.01952 1.00307 0.0
C915 C 0.58734 0.0357 0.01712 0.0
C916 C 0.55586 0.02452 0.02455 0.0
C917 C 0.53603 0.99701 0.01724 0.0
C918 C 0.54747 0.98095 1.0031 0.0
H919 H 0.55387 0.96633 0.92411 0.0
H920 H 0.53072 0.95786 0.95127 0.0
H921 H 0.55908 0.99315 0.94695 0.0
H922 H 0.6233 0.02834 0.99794 0.0
H923 H 0.60333 0.05675 0.02251 0.0
H924 H 0.88439 0.25743 0.4 0.0
H925 H 0.91814 0.23152 0.41215 0.0
H926 H 0.86841 0.20405 0.47988 0.0
H927 H 0.83446 0.22944 0.46783 0.0
H928 H 0.93585 0.22655 0.48653 0.0
H929 H 0.89005 0.14435 0.41274 0.0
H930 H 0.90308 0.18039 0.40245 0.0
H931 H 0.86886 0.16585 0.42078 0.0
C932 C 0.88055 0.24571 0.41739 0.0
C933 C 0.85685 0.24558 0.43301 0.0
C934 C 0.89981 0.23094 0.42428 0.0
C935 C 0.89553 0.21574 0.44679 0.0
C936 C 0.87208 0.21573 0.46244 0.0
H937 H 0.94581 0.08529 0.51106 0.0
H938 H 0.92147 0.11436 0.48867 0.0
C939 C 0.85285 0.2304 0.4556 0.0
C940 C 0.91561 0.20002 0.4545 0.0
H941 H 0.93 0.14173 0.44134 0.0
C942 C 0.93489 0.20818 0.47654 0.0
C943 C 0.91393 0.17595 0.44147 0.0
C944 C 0.89274 0.16586 0.41812 0.0
C945 C 0.9521 0.19252 0.48627 0.0
C946 C 0.95033 0.16833 0.47333 0.0
C947 C 0.9315 0.16045 0.45102 0.0
C948 C 0.96579 0.14974 0.4839 0.0
C949 C 0.97092 0.2013 0.51088 0.0
C950 C 0.99887 0.1597 0.48785 0.0
C951 C 0.01289 0.14318 0.50075 0.0
C952 C 0.99401 0.11637 0.50976 0.0
C953 C 0.96103 0.10587 0.50447 0.0
C954 C 0.94706 0.12243 0.49164 0.0
H955 H 0.96467 0.21695 0.52079 0.0
H956 H 0.96691 0.18278 0.52331 0.0
H957 H 0.99659 0.21097 0.50742 0.0
H958 H 0.01374 0.18056 0.48162 0.0
H959 H 0.03839 0.1518 0.50432 0.0
H960 H 0.30581 0.68772 0.24134 0.0
H961 H 0.25635 0.66109 0.21699 0.0
H962 H 0.29481 0.7095 0.15135 0.0
H963 H 0.34413 0.73594 0.17536 0.0
H964 H 0.21558 0.68543 0.18716 0.0
H965 H 0.26461 0.62431 0.13084 0.0
H966 H 0.28315 0.64042 0.16031 0.0
H967 H 0.28769 0.66154 0.13251 0.0
C968 C 0.30366 0.69261 0.22171 0.0
C969 C 0.32876 0.71401 0.21029 0.0
C970 C 0.27546 0.67746 0.20787 0.0
C971 C 0.27216 0.68317 0.18235 0.0
C972 C 0.29706 0.7046 0.17097 0.0
H973 H 0.13674 0.63243 0.05783 0.0
H974 H 0.18361 0.64951 0.08674 0.0
C975 C 0.32508 0.71988 0.18479 0.0
C976 C 0.24254 0.66722 0.16748 0.0
H977 H 0.21369 0.62319 0.11748 0.0
C978 C 0.21494 0.67152 0.17212 0.0
C979 C 0.24199 0.64923 0.14785 0.0
C980 C 0.27084 0.64333 0.14261 0.0
C981 C 0.18703 0.6592 0.15691 0.0
C982 C 0.18658 0.64154 0.13695 0.0
C983 C 0.21404 0.63669 0.13277 0.0
C984 C 0.15846 0.62921 0.11934 0.0
C985 C 0.15879 0.66628 0.16168 0.0
C986 C 0.12893 0.61141 0.12791 0.0
C987 C 0.10207 0.60182 0.11144 0.0
C988 C 0.1044 0.60957 0.08608 0.0
C989 C 0.13424 0.62622 0.07731 0.0
C990 C 0.16102 0.63597 0.0938 0.0
H991 H 0.16552 0.6853 0.17352 0.0
H992 H 0.14725 0.6699 0.14385 0.0
H993 H 0.14112 0.64843 0.17157 0.0
H994 H 0.12653 0.60536 0.14741 0.0
H995 H 0.07938 0.58901 0.11872 0.0
H996 H 0.22294 0.47154 0.73184 0.0
H997 H 0.26862 0.50272 0.70873 0.0
H998 H 0.29134 0.43158 0.69191 0.0
H999 H 0.24654 0.40071 0.71499 0.0
H1000 H 0.3383 0.51024 0.71342 0.0
H1001 H 0.27681 0.46668 0.62247 0.0
H1002 H 0.25586 0.46375 0.6506 0.0
H1003 H 0.27601 0.44066 0.64571 0.0
C1004 C 0.238 0.46271 0.7235 0.0
C1005 C 0.23071 0.43355 0.72486 0.0
C1006 C 0.26399 0.48049 0.71024 0.0
C1007 C 0.28301 0.46935 0.69817 0.0
C1008 C 0.27666 0.44056 0.70063 0.0
H1009 H 0.43619 0.50517 0.60343 0.0
H1010 H 0.38971 0.48689 0.62846 0.0
C1011 C 0.25094 0.42292 0.71381 0.0
C1012 C 0.30894 0.48713 0.6822 0.0
H1013 H 0.33256 0.49283 0.62232 0.0
C1014 C 0.33695 0.50687 0.69343 0.0
C1015 C 0.30712 0.48267 0.65613 0.0
C1016 C 0.27725 0.46247 0.6429 0.0
C1017 C 0.36378 0.52112 0.67946 0.0
C1018 C 0.36234 0.51579 0.6535 0.0
C1019 C 0.33381 0.49689 0.64219 0.0
C1020 C 0.39068 0.52774 0.63805 0.0
C1021 C 0.39394 0.54062 0.69284 0.0
C1022 C 0.40664 0.55691 0.63467 0.0
C1023 C 0.43347 0.56755 0.62027 0.0
C1024 C 0.44479 0.5492 0.60884 0.0
C1025 C 0.42831 0.52002 0.6119 0.0
C1026 C 0.40162 0.50946 0.62626 0.0
H1027 H 0.39311 0.53798 0.71346 0.0
H1028 H 0.41475 0.53693 0.6867 0.0
H1029 H 0.39749 0.56273 0.68829 0.0
H1030 H 0.39832 0.57148 0.64311 0.0
H1031 H 0.44546 0.59013 0.61829 0.0
H1032 H 0.78525 0.7891 0.88094 0.0
H1033 H 0.81602 0.76466 0.90226 0.0
H1034 H 0.79435 0.78752 0.97364 0.0
H1035 H 0.76329 0.81187 0.95237 0.0
H1036 H 0.86859 0.78737 0.93372 0.0
H1037 H 0.77274 0.70346 0.98231 0.0
H1038 H 0.76475 0.72454 0.95748 0.0
H1039 H 0.77588 0.73854 0.98856 0.0
C1040 C 0.78701 0.78888 0.90118 0.0
C1041 C 0.77191 0.80241 0.915 0.0
C1042 C 0.80449 0.77484 0.91333 0.0
C1043 C 0.80717 0.77399 0.93953 0.0
C1044 C 0.79201 0.78737 0.95342 0.0
H1045 H 0.9559 0.73309 0.01961 0.0
H1046 H 0.92046 0.75637 1.00484 0.0
C1047 C 0.77435 0.80132 0.94126 0.0
C1048 C 0.8271 0.76019 0.95212 0.0
H1049 H 0.82543 0.70729 0.9925 0.0
C1050 C 0.85917 0.76987 0.94659 0.0
C1051 C 0.81466 0.73722 0.96873 0.0
C1052 C 0.78006 0.7251 0.9745 0.0
C1053 C 0.87916 0.75718 0.95714 0.0
C1054 C 0.86689 0.73456 0.97413 0.0
C1055 C 0.83482 0.72485 0.97969 0.0
C1056 C 0.8867 0.71988 0.98529 0.0
C1057 C 0.91297 0.76757 0.94938 0.0
C1058 C 0.87871 0.69132 0.98014 0.0
C1059 C 0.89877 0.67793 0.98869 0.0
C1060 C 0.9272 0.69289 1.00255 0.0
C1061 C 0.93442 0.72117 1.00861 0.0
C1062 C 0.91425 0.73449 1.00017 0.0
H1063 H 0.9163 0.78014 0.93185 0.0
H1064 H 0.92896 0.78123 0.9643 0.0
H1065 H 0.9203 0.74973 0.94659 0.0
H1066 H 0.85751 0.67965 0.96873 0.0
H1067 H 0.89268 0.6562 0.98354 0.0
H1068 H 0.3825 0.81517 0.23014 0.0
H1069 H 0.40677 0.86194 0.21151 0.0
H1070 H 0.4918 0.84729 0.20108 0.0
H1071 H 0.46715 0.79996 0.21869 0.0
H1072 H 0.46026 0.90912 0.22128 0.0
H1073 H 0.46674 0.86319 0.13027 0.0
H1074 H 0.44512 0.84205 0.15555 0.0
H1075 H 0.48757 0.85335 0.1558 0.0
C1076 C 0.40645 0.82194 0.22401 0.0
C1077 C 0.42266 0.80359 0.22556 0.0
C1078 C 0.42035 0.84876 0.21346 0.0
C1079 C 0.45079 0.85786 0.20426 0.0
C1080 C 0.46796 0.84043 0.20744 0.0
H1081 H 0.56436 1.00599 0.12106 0.0
H1082 H 0.54443 0.96256 0.14571 0.0
C1083 C 0.45399 0.8135 0.21788 0.0
C1084 C 0.46372 0.88492 0.19027 0.0
H1085 H 0.48965 0.91282 0.13328 0.0
C1086 C 0.46667 0.90993 0.20204 0.0
C1087 C 0.47181 0.88596 0.16505 0.0
C1088 C 0.4674 0.8597 0.1508 0.0
C1089 C 0.47797 0.93594 0.18942 0.0
C1090 C 0.48623 0.93693 0.1643 0.0
C1091 C 0.48336 0.91199 0.15256 0.0
C1092 C 0.49821 0.96365 0.14986 0.0
C1093 C 0.48146 0.96225 0.20313 0.0
C1094 C 0.47869 0.97853 0.14375 0.0
C1095 C 0.48999 1.00333 0.12953 0.0
C1096 C 0.52101 0.01362 0.12125 0.0
C1097 C 0.5404 0.99861 0.12729 0.0
C1098 C 0.52906 0.97381 0.14136 0.0
H1099 H 0.48057 0.95886 0.22367 0.0
H1100 H 0.50419 0.97974 0.19905 0.0
H1101 H 0.46182 0.96881 0.19675 0.0
H1102 H 0.45461 0.97079 0.14974 0.0
H1103 H 0.4745 0.01442 0.12503 0.0
H1104 H 0.14207 0.35877 0.68355 0.0
H1105 H 0.12103 0.31443 0.66092 0.0
H1106 H 0.11155 0.26882 0.73056 0.0
H1107 H 0.13472 0.31335 0.75336 0.0
H1108 H 0.13562 0.24633 0.69822 0.0
H1109 H 0.03241 0.25995 0.65009 0.0
H1110 H 0.06859 0.28848 0.64307 0.0
H1111 H 0.05598 0.28316 0.67469 0.0
C1112 C 0.13562 0.33938 0.69418 0.0
C1113 C 0.1403 0.33991 0.72043 0.0
C1114 C 0.12309 0.31387 0.68113 0.0
C1115 C 0.11405 0.28801 0.69391 0.0
C1116 C 0.11812 0.28839 0.72015 0.0
H1117 H 0.99799 0.13038 0.61984 0.0
H1118 H 0.01944 0.17279 0.64529 0.0
C1119 C 0.13105 0.31397 0.73325 0.0
C1120 C 0.10152 0.26077 0.67983 0.0
H1121 H 0.04693 0.22406 0.63406 0.0
C1122 C 0.11603 0.24137 0.68434 0.0
C1123 C 0.07566 0.25388 0.66187 0.0
C1124 C 0.05706 0.27234 0.65734 0.0
C1125 C 0.10576 0.21566 0.6713 0.0
C1126 C 0.08088 0.20941 0.65247 0.0
C1127 C 0.06622 0.22874 0.64818 0.0
C1128 C 0.06853 0.18256 0.63772 0.0
C1129 C 0.12118 0.19522 0.67845 0.0
C1130 C 0.08876 0.17338 0.62484 0.0
C1131 C 0.07645 0.14847 0.61067 0.0
C1132 C 0.04358 0.1327 0.60846 0.0
C1133 C 0.02343 0.14204 0.6211 0.0
C1134 C 0.03573 0.16644 0.63565 0.0
H1135 H 0.13203 0.19894 0.69781 0.0
H1136 H 0.10383 0.1731 0.67709 0.0
H1137 H 0.14041 0.19811 0.66568 0.0
H1138 H 0.11403 0.18567 0.62535 0.0
H1139 H 0.09254 0.14192 0.601 0.0
H1140 H 0.74097 0.343 0.42959 0.0
H1141 H 0.71769 0.3783 0.42333 0.0
H1142 H 0.75861 0.41436 0.49518 0.0
H1143 H 0.78314 0.38015 0.50099 0.0
H1144 H 0.67389 0.3803 0.45168 0.0
H1145 H 0.77167 0.48457 0.45602 0.0
H1146 H 0.77828 0.45282 0.4508 0.0
H1147 H 0.77606 0.4637 0.48211 0.0
C1148 C 0.74595 0.35908 0.44365 0.0
C1149 C 0.76369 0.35863 0.4659 0.0
C1150 C 0.73251 0.37918 0.44008 0.0
C1151 C 0.73667 0.39922 0.45863 0.0
C1152 C 0.75567 0.39962 0.48029 0.0
H1153 H 0.64148 0.47656 0.53293 0.0
H1154 H 0.67826 0.45992 0.514 0.0
C1155 C 0.76924 0.37969 0.4838 0.0
C1156 C 0.71739 0.41669 0.45745 0.0
H1157 H 0.72117 0.48219 0.47145 0.0
C1158 C 0.68424 0.40277 0.45519 0.0
C1159 C 0.73087 0.44602 0.46192 0.0
C1160 C 0.76621 0.46263 0.46256 0.0
C1161 C 0.66426 0.41685 0.45951 0.0
C1162 C 0.67785 0.44561 0.4661 0.0
C1163 C 0.71088 0.46006 0.46654 0.0
C1164 C 0.65841 0.45953 0.47629 0.0
C1165 C 0.62885 0.40039 0.45891 0.0
C1166 C 0.63562 0.46546 0.46119 0.0
C1167 C 0.61447 0.47493 0.47201 0.0
C1168 C 0.61578 0.47834 0.49805 0.0
C1169 C 0.63963 0.47365 0.51287 0.0
C1170 C 0.6608 0.4644 0.50207 0.0
H1171 H 0.62231 0.37761 0.45547 0.0
H1172 H 0.61931 0.4028 0.47689 0.0
H1173 H 0.61719 0.40877 0.44385 0.0
H1174 H 0.63356 0.46189 0.44123 0.0
H1175 H 0.59629 0.47842 0.46018 0.0
loop_
_geom_bond_atom_site_label_1
_geom_bond_atom_site_label_2
_geom_bond_distance
_geom_bond_site_symmetry_2
_ccdc_geom_bond_type
H0 C1 0.949 . S
C1 H0 0.949 . S
C1 C2 1.395 . S
C1 C3 1.391 . S
C2 C1 1.395 . S
C2 C5 1.390 . S
C3 C1 1.391 . S
C3 C7 1.387 . S
C3 C8 1.491 . S
H4 C5 0.950 . S
C5 C2 1.390 . S
C5 H4 0.950 . S
C5 C6 1.378 . S
C6 C5 1.378 . S
C6 C7 1.409 . S
C7 C3 1.387 . S
C7 C6 1.409 . S
C7 H9 0.951 . S
C8 C3 1.491 . S
C8 C10 1.382 . S
C8 C12 1.404 . S
H9 C7 0.951 . S
C10 C8 1.382 . S
C10 C11 1.390 . S
C10 H15 0.949 . S
C11 C10 1.390 . S
C11 C16 1.399 . S
C12 C8 1.404 . S
C12 H13 0.950 . S
C12 C14 1.375 . S
H13 C12 0.950 . S
C14 C12 1.375 . S
C14 C16 1.382 . S
C14 H18 0.950 . S
H15 C10 0.949 . S
C16 C11 1.399 . S
C16 C14 1.382 . S
C16 H17 0.952 . S
H17 C16 0.952 . S
H18 C14 0.950 . S
H19 C20 0.949 . S
C20 H19 0.949 . S
C20 C21 1.395 . S
C20 C22 1.391 . S
C21 C20 1.395 . S
C21 C24 1.390 . S
C22 C20 1.391 . S
C22 C26 1.387 . S
C22 C27 1.491 . S
H23 C24 0.950 . S
C24 C21 1.390 . S
C24 H23 0.950 . S
C24 C25 1.378 . S
C25 C24 1.378 . S
C25 C26 1.409 . S
C26 C22 1.387 . S
C26 C25 1.409 . S
C26 H28 0.951 . S
C27 C22 1.491 . S
C27 C29 1.382 . S
C27 C31 1.404 . S
H28 C26 0.951 . S
C29 C27 1.382 . S
C29 C30 1.390 . S
C29 H34 0.949 . S
C30 C29 1.390 . S
C30 C35 1.399 . S
C31 C27 1.404 . S
C31 H32 0.950 . S
C31 C33 1.375 . S
H32 C31 0.950 . S
C33 C31 1.375 . S
C33 C35 1.382 . S
C33 H37 0.950 . S
H34 C29 0.949 . S
C35 C30 1.399 . S
C35 C33 1.382 . S
C35 H36 0.952 . S
H36 C35 0.952 . S
H37 C33 0.950 . S
H38 C39 0.949 . S
C39 H38 0.949 . S
C39 C40 1.395 . S
C39 C41 1.391 . S
C40 C39 1.395 . S
C40 C43 1.390 . S
C41 C39 1.391 . S
C41 C45 1.387 . S
C41 C46 1.491 . S
H42 C43 0.950 . S
C43 C40 1.390 . S
C43 H42 0.950 . S
C43 C44 1.378 . S
C44 C43 1.378 . S
C44 C45 1.409 . S
C45 C41 1.387 . S
C45 C44 1.409 . S
C45 H47 0.951 . S
C46 C41 1.491 . S
C46 C48 1.382 . S
C46 C50 1.404 . S
H47 C45 0.951 . S
C48 C46 1.382 . S
C48 C49 1.390 . S
C48 H53 0.949 . S
C49 C48 1.390 . S
C49 C54 1.399 . S
C50 C46 1.404 . S
C50 H51 0.950 . S
C50 C52 1.375 . S
H51 C50 0.950 . S
C52 C50 1.375 . S
C52 C54 1.382 . S
C52 H56 0.950 . S
H53 C48 0.949 . S
C54 C49 1.399 . S
C54 C52 1.382 . S
C54 H55 0.952 . S
H55 C54 0.952 . S
H56 C52 0.950 . S
H57 C58 0.949 . S
C58 H57 0.949 . S
C58 C59 1.395 . S
C58 C60 1.391 . S
C59 C58 1.395 . S
C59 C62 1.390 . S
C60 C58 1.391 . S
C60 C64 1.387 . S
C60 C65 1.491 . S
H61 C62 0.950 . S
C62 C59 1.390 . S
C62 H61 0.950 . S
C62 C63 1.378 . S
C63 C62 1.378 . S
C63 C64 1.409 . S
C64 C60 1.387 . S
C64 C63 1.409 . S
C64 H66 0.951 . S
C65 C60 1.491 . S
C65 C67 1.382 . S
C65 C69 1.404 . S
H66 C64 0.951 . S
C67 C65 1.382 . S
C67 C68 1.390 . S
C67 H72 0.949 . S
C68 C67 1.390 . S
C68 C73 1.399 . S
C69 C65 1.404 . S
C69 H70 0.950 . S
C69 C71 1.375 . S
H70 C69 0.950 . S
C71 C69 1.375 . S
C71 C73 1.382 . S
C71 H75 0.950 . S
H72 C67 0.949 . S
C73 C68 1.399 . S
C73 C71 1.382 . S
C73 H74 0.952 . S
H74 C73 0.952 . S
H75 C71 0.950 . S
H76 C77 0.949 . S
C77 H76 0.949 . S
C77 C78 1.395 . S
C77 C79 1.391 . S
C78 C77 1.395 . S
C78 C81 1.390 . S
C79 C77 1.391 . S
C79 C83 1.387 . S
C79 C84 1.491 . S
H80 C81 0.950 . S
C81 C78 1.390 . S
C81 H80 0.950 . S
C81 C82 1.378 . S
C82 C81 1.378 . S
C82 C83 1.409 . S
C83 C79 1.387 . S
C83 C82 1.409 . S
C83 H85 0.951 . S
C84 C79 1.491 . S
C84 C86 1.382 . S
C84 C88 1.404 . S
H85 C83 0.951 . S
C86 C84 1.382 . S
C86 C87 1.390 . S
C86 H91 0.949 . S
C87 C86 1.390 . S
C87 C92 1.399 . S
C88 C84 1.404 . S
C88 H89 0.950 . S
C88 C90 1.375 . S
H89 C88 0.950 . S
C90 C88 1.375 . S
C90 C92 1.382 . S
C90 H94 0.950 . S
H91 C86 0.949 . S
C92 C87 1.399 . S
C92 C90 1.382 . S
C92 H93 0.952 . S
H93 C92 0.952 . S
H94 C90 0.950 . S
H95 C96 0.949 . S
C96 H95 0.949 . S
C96 C97 1.395 . S
C96 C98 1.391 . S
C97 C96 1.395 . S
C97 C100 1.390 . S
C98 C96 1.391 . S
C98 C102 1.387 . S
C98 C103 1.491 . S
H99 C100 0.950 . S
C100 C97 1.390 . S
C100 H99 0.950 . S
C100 C101 1.378 . S
C101 C100 1.378 . S
C101 C102 1.409 . S
C102 C98 1.387 . S
C102 C101 1.409 . S
C102 H104 0.951 . S
C103 C98 1.491 . S
C103 C105 1.382 . S
C103 C107 1.404 . S
H104 C102 0.951 . S
C105 C103 1.382 . S
C105 C106 1.390 . S
C105 H110 0.949 . S
C106 C105 1.390 . S
C106 C111 1.399 . S
C107 C103 1.404 . S
C107 H108 0.950 . S
C107 C109 1.375 . S
H108 C107 0.950 . S
C109 C107 1.375 . S
C109 C111 1.382 . S
C109 H113 0.950 . S
H110 C105 0.949 . S
C111 C106 1.399 . S
C111 C109 1.382 . S
C111 H112 0.952 . S
H112 C111 0.952 . S
H113 C109 0.950 . S
H114 C115 0.949 . S
C115 H114 0.949 . S
C115 C116 1.395 . S
C115 C117 1.391 . S
C116 C115 1.395 . S
C116 C119 1.390 . S
C117 C115 1.391 . S
C117 C121 1.387 . S
C117 C122 1.491 . S
H118 C119 0.950 . S
C119 C116 1.390 . S
C119 H118 0.950 . S
C119 C120 1.378 . S
C120 C119 1.378 . S
C120 C121 1.409 . S
C121 C117 1.387 . S
C121 C120 1.409 . S
C121 H123 0.951 . S
C122 C117 1.491 . S
C122 C124 1.382 . S
C122 C126 1.404 . S
H123 C121 0.951 . S
C124 C122 1.382 . S
C124 C125 1.390 . S
C124 H129 0.949 . S
C125 C124 1.390 . S
C125 C130 1.399 . S
C126 C122 1.404 . S
C126 H127 0.950 . S
C126 C128 1.375 . S
H127 C126 0.950 . S
C128 C126 1.375 . S
C128 C130 1.382 . S
C128 H132 0.950 . S
H129 C124 0.949 . S
C130 C125 1.399 . S
C130 C128 1.382 . S
C130 H131 0.952 . S
H131 C130 0.952 . S
H132 C128 0.950 . S
H133 C134 0.949 . S
C134 H133 0.949 . S
C134 C135 1.395 . S
C134 C136 1.391 . S
C135 C134 1.395 . S
C135 C138 1.390 . S
C136 C134 1.391 . S
C136 C140 1.387 . S
C136 C141 1.491 . S
H137 C138 0.950 . S
C138 C135 1.390 . S
C138 H137 0.950 . S
C138 C139 1.378 . S
C139 C138 1.378 . S
C139 C140 1.409 . S
C140 C136 1.387 . S
C140 C139 1.409 . S
C140 H142 0.951 . S
C141 C136 1.491 . S
C141 C143 1.382 . S
C141 C145 1.404 . S
H142 C140 0.951 . S
C143 C141 1.382 . S
C143 C144 1.390 . S
C143 H148 0.949 . S
C144 C143 1.390 . S
C144 C149 1.399 . S
C145 C141 1.404 . S
C145 H146 0.950 . S
C145 C147 1.375 . S
H146 C145 0.950 . S
C147 C145 1.375 . S
C147 C149 1.382 . S
C147 H151 0.950 . S
H148 C143 0.949 . S
C149 C144 1.399 . S
C149 C147 1.382 . S
C149 H150 0.952 . S
H150 C149 0.952 . S
H151 C147 0.950 . S
Tb152 C154 2.809 1_545 S
Tb152 O172 2.484 1_545 S
Tb152 O173 2.440 . S
Tb152 O174 2.658 1_655 S
Tb152 O175 2.409 1_655 S
Tb152 O176 2.378 1_655 S
Tb152 O180 2.325 . S
Tb152 O183 2.341 . S
Tb153 C163 2.809 . S
Tb153 O174 2.325 . S
Tb153 O177 2.341 . S
Tb153 O178 2.484 . S
Tb153 O179 2.440 . S
Tb153 O180 2.658 1_455 S
Tb153 O181 2.409 . S
Tb153 O182 2.378 . S
C154 Tb152 2.809 1_565 S
C154 C155 1.514 . S
C154 O172 1.248 . S
C154 O173 1.266 1_565 S
C155 C154 1.514 . S
C155 C156 1.359 . S
C155 C160 1.348 . S
C156 C155 1.359 . S
C156 C157 1.380 . S
C156 H184 0.929 . S
C157 C156 1.380 . S
C157 C158 1.347 . S
C157 H185 0.931 . S
C158 C157 1.347 . S
C158 C159 1.369 . S
C159 C158 1.369 . S
C159 C160 1.408 . S
C159 H186 0.930 . S
C160 C155 1.348 . S
C160 C159 1.408 . S
C160 H187 0.930 . S
C161 O174 1.281 . S
C161 O175 1.254 . S
C162 O176 1.236 . S
C162 O177 1.266 . S
C163 Tb153 2.809 . S
C163 C164 1.514 . S
C163 O178 1.248 . S
C163 O179 1.266 . S
C164 C163 1.514 . S
C164 C165 1.359 . S
C164 C169 1.348 . S
C165 C164 1.359 . S
C165 C166 1.380 . S
C165 H188 0.929 . S
C166 C165 1.380 . S
C166 C167 1.347 . S
C166 H189 0.931 . S
C167 C166 1.347 . S
C167 C168 1.369 . S
C168 C167 1.369 . S
C168 C169 1.408 . S
C168 H190 0.930 . S
C169 C164 1.348 . S
C169 C168 1.408 . S
C169 H191 0.930 . S
C170 O180 1.281 . S
C170 O181 1.254 1_655 S
C171 O182 1.236 1_655 S
C171 O183 1.266 . S
O172 Tb152 2.484 1_565 S
O172 C154 1.248 . S
O173 Tb152 2.440 . S
O173 C154 1.266 1_545 S
O174 Tb152 2.658 1_455 S
O174 Tb153 2.325 . S
O174 C161 1.281 . S
O175 Tb152 2.409 1_455 S
O175 C161 1.254 . S
O176 Tb152 2.378 1_455 S
O176 C162 1.236 . S
O177 Tb153 2.341 . S
O177 C162 1.266 . S
O178 Tb153 2.484 . S
O178 C163 1.248 . S
O179 Tb153 2.440 . S
O179 C163 1.266 . S
O180 Tb152 2.325 . S
O180 Tb153 2.658 1_655 S
O180 C170 1.281 . S
O181 Tb153 2.409 . S
O181 C170 1.254 1_455 S
O182 Tb153 2.378 . S
O182 C171 1.236 1_455 S
O183 Tb152 2.341 . S
O183 C171 1.266 . S
H184 C156 0.929 . S
H185 C157 0.931 . S
H186 C159 0.930 . S
H187 C160 0.930 . S
H188 C165 0.929 . S
H189 C166 0.931 . S
H190 C168 0.930 . S
H191 C169 0.930 . S
Tb192 C194 2.809 . S
Tb192 O212 2.484 . S
Tb192 O213 2.440 . S
Tb192 O214 2.658 . S
Tb192 O215 2.409 . S
Tb192 O216 2.378 . S
Tb192 O220 2.325 . S
Tb192 O223 2.341 . S
Tb193 C203 2.809 1_545 S
Tb193 O214 2.325 . S
Tb193 O217 2.341 . S
Tb193 O218 2.484 1_545 S
Tb193 O219 2.440 . S
Tb193 O220 2.658 . S
Tb193 O221 2.409 . S
Tb193 O222 2.378 . S
C194 Tb192 2.809 . S
C194 C195 1.514 . S
C194 O212 1.248 . S
C194 O213 1.266 . S
C195 C194 1.514 . S
C195 C196 1.359 . S
C195 C200 1.348 . S
C196 C195 1.359 . S
C196 C197 1.380 . S
C196 H224 0.929 . S
C197 C196 1.380 . S
C197 C198 1.347 . S
C197 H225 0.931 . S
C198 C197 1.347 . S
C198 C199 1.369 . S
C199 C198 1.369 . S
C199 C200 1.408 . S
C199 H226 0.930 . S
C200 C195 1.348 . S
C200 C199 1.408 . S
C200 H227 0.930 . S
C201 O214 1.281 1_565 S
C201 O215 1.254 1_565 S
C202 O216 1.236 . S
C202 O217 1.266 . S
C203 Tb193 2.809 1_565 S
C203 C204 1.514 . S
C203 O218 1.248 . S
C203 O219 1.266 1_565 S
C204 C203 1.514 . S
C204 C205 1.359 . S
C204 C209 1.348 1_554 S
C205 C204 1.359 . S
C205 C206 1.380 1_554 S
C205 H228 0.929 . S
C206 C205 1.380 1_556 S
C206 C207 1.347 . S
C206 H229 0.931 . S
C207 C206 1.347 . S
C207 C208 1.369 . S
C208 C207 1.369 . S
C208 C209 1.408 . S
C208 H230 0.930 . S
C209 C204 1.348 1_556 S
C209 C208 1.408 . S
C209 H231 0.930 . S
C210 O220 1.281 . S
C210 O221 1.254 . S
C211 O222 1.236 . S
C211 O223 1.266 . S
O212 Tb192 2.484 . S
O212 C194 1.248 . S
O213 Tb192 2.440 . S
O213 C194 1.266 . S
O214 Tb192 2.658 . S
O214 Tb193 2.325 . S
O214 C201 1.281 1_545 S
O215 Tb192 2.409 . S
O215 C201 1.254 1_545 S
O216 Tb192 2.378 . S
O216 C202 1.236 . S
O217 Tb193 2.341 . S
O217 C202 1.266 . S
O218 Tb193 2.484 1_565 S
O218 C203 1.248 . S
O219 Tb193 2.440 . S
O219 C203 1.266 1_545 S
O220 Tb192 2.325 . S
O220 Tb193 2.658 . S
O220 C210 1.281 . S
O221 Tb193 2.409 . S
O221 C210 1.254 . S
O222 Tb193 2.378 . S
O222 C211 1.236 . S
O223 Tb192 2.341 . S
O223 C211 1.266 . S
H224 C196 0.929 . S
H225 C197 0.931 . S
H226 C199 0.930 . S
H227 C200 0.930 . S
H228 C205 0.929 . S
H229 C206 0.931 . S
H230 C208 0.930 . S
H231 C209 0.930 . S
Tb232 C234 2.809 . S
Tb232 O252 2.484 . S
Tb232 O253 2.440 . S
Tb232 O254 2.658 . S
Tb232 O255 2.409 . S
Tb232 O256 2.378 . S
Tb232 O260 2.325 . S
Tb232 O263 2.341 . S
Tb233 C243 2.809 . S
Tb233 O254 2.325 . S
Tb233 O257 2.341 . S
Tb233 O258 2.484 . S
Tb233 O259 2.440 . S
Tb233 O260 2.658 . S
Tb233 O261 2.409 . S
Tb233 O262 2.378 . S
C234 Tb232 2.809 . S
C234 C235 1.514 . S
C234 O252 1.248 . S
C234 O253 1.266 . S
C235 C234 1.514 . S
C235 C236 1.359 . S
C235 C240 1.348 . S
C236 C235 1.359 . S
C236 C237 1.380 . S
C236 H264 0.929 . S
C237 C236 1.380 . S
C237 C238 1.347 . S
C237 H265 0.931 . S
C238 C237 1.347 . S
C238 C239 1.369 . S
C239 C238 1.369 . S
C239 C240 1.408 . S
C239 H266 0.930 . S
C240 C235 1.348 . S
C240 C239 1.408 . S
C240 H267 0.930 . S
C241 O254 1.281 . S
C241 O255 1.254 . S
C242 O256 1.236 . S
C242 O257 1.266 . S
C243 Tb233 2.809 . S
C243 C244 1.514 . S
C243 O258 1.248 . S
C243 O259 1.266 . S
C244 C243 1.514 . S
C244 C245 1.359 . S
C244 C249 1.348 . S
C245 C244 1.359 . S
C245 C246 1.380 . S
C245 H268 0.929 . S
C246 C245 1.380 . S
C246 C247 1.347 . S
C246 H269 0.931 . S
C247 C246 1.347 . S
C247 C248 1.369 . S
C248 C247 1.369 . S
C248 C249 1.408 . S
C248 H270 0.930 . S
C249 C244 1.348 . S
C249 C248 1.408 . S
C249 H271 0.930 . S
C250 O260 1.281 . S
C250 O261 1.254 . S
C251 O262 1.236 . S
C251 O263 1.266 . S
O252 Tb232 2.484 . S
O252 C234 1.248 . S
O253 Tb232 2.440 . S
O253 C234 1.266 . S
O254 Tb232 2.658 . S
O254 Tb233 2.325 . S
O254 C241 1.281 . S
O255 Tb232 2.409 . S
O255 C241 1.254 . S
O256 Tb232 2.378 . S
O256 C242 1.236 . S
O257 Tb233 2.341 . S
O257 C242 1.266 . S
O258 Tb233 2.484 . S
O258 C243 1.248 . S
O259 Tb233 2.440 . S
O259 C243 1.266 . S
O260 Tb232 2.325 . S
O260 Tb233 2.658 . S
O260 C250 1.281 . S
O261 Tb233 2.409 . S
O261 C250 1.254 . S
O262 Tb233 2.378 . S
O262 C251 1.236 . S
O263 Tb232 2.341 . S
O263 C251 1.266 . S
H264 C236 0.929 . S
H265 C237 0.931 . S
H266 C239 0.930 . S
H267 C240 0.930 . S
H268 C245 0.929 . S
H269 C246 0.931 . S
H270 C248 0.930 . S
H271 C249 0.930 . S
Tb272 C274 2.809 . S
Tb272 O292 2.484 . S
Tb272 O293 2.440 . S
Tb272 O294 2.658 1_556 S
Tb272 O295 2.409 1_556 S
Tb272 O296 2.378 1_556 S
Tb272 O300 2.325 1_556 S
Tb272 O303 2.341 . S
Tb273 C283 2.809 . S
Tb273 O294 2.325 . S
Tb273 O297 2.341 . S
Tb273 O298 2.484 . S
Tb273 O299 2.440 . S
Tb273 O300 2.658 . S
Tb273 O301 2.409 . S
Tb273 O302 2.378 . S
C274 Tb272 2.809 . S
C274 C275 1.533 . S
C274 O292 1.248 . S
C274 O293 1.266 . S
C275 C274 1.533 . S
C275 C276 1.337 1_455 S
C275 C280 1.351 . S
C276 C275 1.337 1_655 S
C276 C277 1.380 . S
C276 H304 0.929 . S
C277 C276 1.380 . S
C277 C278 1.347 . S
C277 H305 0.931 . S
C278 C277 1.347 . S
C278 C279 1.374 . S
C279 C278 1.374 . S
C279 C280 1.404 1_655 S
C279 H306 0.930 1_655 S
C280 C275 1.351 . S
C280 C279 1.404 1_455 S
C280 H307 0.930 . S
C281 O294 1.281 . S
C281 O295 1.254 . S
C282 O296 1.236 . S
C282 O297 1.266 . S
C283 Tb273 2.809 . S
C283 C284 1.514 . S
C283 O298 1.248 . S
C283 O299 1.266 . S
C284 C283 1.514 . S
C284 C285 1.359 . S
C284 C289 1.348 . S
C285 C284 1.359 . S
C285 C286 1.380 . S
C285 H308 0.929 . S
C286 C285 1.380 . S
C286 C287 1.347 . S
C286 H309 0.931 . S
C287 C286 1.347 . S
C287 C288 1.369 . S
C288 C287 1.369 . S
C288 C289 1.408 . S
C288 H310 0.930 . S
C289 C284 1.348 . S
C289 C288 1.408 . S
C289 H311 0.930 . S
C290 O300 1.284 1_556 S
C290 O301 1.258 1_556 S
C291 O302 1.236 1_556 S
C291 O303 1.266 . S
O292 Tb272 2.484 . S
O292 C274 1.248 . S
O293 Tb272 2.440 . S
O293 C274 1.266 . S
O294 Tb272 2.658 1_554 S
O294 Tb273 2.325 . S
O294 C281 1.281 . S
O295 Tb272 2.409 1_554 S
O295 C281 1.254 . S
O296 Tb272 2.378 1_554 S
O296 C282 1.236 . S
O297 Tb273 2.341 . S
O297 C282 1.266 . S
O298 Tb273 2.484 . S
O298 C283 1.248 . S
O299 Tb273 2.440 . S
O299 C283 1.266 . S
O300 Tb272 2.325 1_554 S
O300 Tb273 2.658 . S
O300 C290 1.284 1_554 S
O301 Tb273 2.409 . S
O301 C290 1.258 1_554 S
O302 Tb273 2.378 . S
O302 C291 1.236 1_554 S
O303 Tb272 2.341 . S
O303 C291 1.266 . S
H304 C276 0.929 . S
H305 C277 0.931 . S
H306 C279 0.930 1_455 S
H307 C280 0.930 . S
H308 C285 0.929 . S
H309 C286 0.931 . S
H310 C288 0.930 . S
H311 C289 0.930 . S
H312 C320 0.929 . S
H313 C322 0.930 . S
H314 C324 0.930 . S
H315 C327 0.929 . S
H316 C330 0.930 . S
H317 C332 0.960 . S
H318 C332 0.960 . S
H319 C332 0.960 . S
C320 H312 0.929 . S
C320 C321 1.377 . S
C320 C322 1.384 . S
C321 C320 1.377 . S
C321 C327 1.390 . S
C322 H313 0.930 . S
C322 C320 1.384 . S
C322 C323 1.372 . S
C323 C322 1.372 . S
C323 C324 1.400 . S
C323 C328 1.490 . S
C324 H314 0.930 . S
C324 C323 1.400 . S
C324 C327 1.386 . S
H325 C341 0.930 . S
H326 C342 0.931 . S
C327 H315 0.929 . S
C327 C321 1.390 . S
C327 C324 1.386 . S
C328 C323 1.490 . S
C328 C330 1.395 . S
C328 C331 1.403 . S
H329 C335 0.930 . S
C330 H316 0.930 . S
C330 C328 1.395 . S
C330 C333 1.403 . S
C331 C328 1.403 . S
C331 C332 1.524 . S
C331 C335 1.400 . S
C332 H317 0.960 . S
C332 H318 0.960 . S
C332 H319 0.960 . S
C332 C331 1.524 . S
C333 C330 1.403 . S
C333 C334 1.392 . S
C333 C337 1.495 . S
C334 C333 1.392 . S
C334 C335 1.385 . S
C334 C336 1.478 . S
C335 H329 0.930 . S
C335 C331 1.400 . S
C335 C334 1.385 . S
C336 C334 1.478 . S
C336 C338 1.381 . S
C336 C342 1.383 . S
C337 C333 1.495 . S
C337 H343 0.959 . S
C337 H344 0.961 . S
C337 H345 0.960 . S
C338 C336 1.381 . S
C338 C339 1.394 . S
C338 H346 0.930 . S
C339 C338 1.394 . S
C339 C340 1.383 . S
C339 H347 0.929 . S
C340 C339 1.383 . S
C340 C341 1.377 . S
C341 H325 0.930 . S
C341 C340 1.377 . S
C341 C342 1.379 . S
C342 H326 0.931 . S
C342 C336 1.383 . S
C342 C341 1.379 . S
H343 C337 0.959 . S
H344 C337 0.961 . S
H345 C337 0.960 . S
H346 C338 0.930 . S
H347 C339 0.929 . S
H348 C356 0.929 . S
H349 C358 0.930 . S
H350 C360 0.930 . S
H351 C363 0.929 . S
H352 C366 0.930 . S
H353 C368 0.960 . S
H354 C368 0.960 . S
H355 C368 0.960 . S
C356 H348 0.929 . S
C356 C357 1.377 . S
C356 C358 1.384 . S
C357 C356 1.377 . S
C357 C363 1.390 . S
C358 H349 0.930 . S
C358 C356 1.384 . S
C358 C359 1.372 . S
C359 C358 1.372 . S
C359 C360 1.400 . S
C359 C364 1.490 . S
C360 H350 0.930 . S
C360 C359 1.400 . S
C360 C363 1.386 . S
H361 C377 0.930 . S
H362 C378 0.931 . S
C363 H351 0.929 . S
C363 C357 1.390 . S
C363 C360 1.386 . S
C364 C359 1.490 . S
C364 C366 1.395 . S
C364 C367 1.403 . S
H365 C371 0.930 . S
C366 H352 0.930 . S
C366 C364 1.395 . S
C366 C369 1.403 . S
C367 C364 1.403 . S
C367 C368 1.524 . S
C367 C371 1.400 . S
C368 H353 0.960 . S
C368 H354 0.960 . S
C368 H355 0.960 . S
C368 C367 1.524 . S
C369 C366 1.403 . S
C369 C370 1.392 . S
C369 C373 1.495 . S
C370 C369 1.392 . S
C370 C371 1.385 . S
C370 C372 1.478 . S
C371 H365 0.930 . S
C371 C367 1.400 . S
C371 C370 1.385 . S
C372 C370 1.478 . S
C372 C374 1.381 . S
C372 C378 1.383 . S
C373 C369 1.495 . S
C373 H379 0.959 . S
C373 H380 0.961 . S
C373 H381 0.960 . S
C374 C372 1.381 . S
C374 C375 1.394 . S
C374 H382 0.930 . S
C375 C374 1.394 . S
C375 C376 1.383 . S
C375 H383 0.929 . S
C376 C375 1.383 . S
C376 C377 1.377 . S
C377 H361 0.930 . S
C377 C376 1.377 . S
C377 C378 1.379 . S
C378 H362 0.931 . S
C378 C372 1.383 . S
C378 C377 1.379 . S
H379 C373 0.959 . S
H380 C373 0.961 . S
H381 C373 0.960 . S
H382 C374 0.930 . S
H383 C375 0.929 . S
H384 C392 0.929 . S
H385 C394 0.930 . S
H386 C396 0.930 . S
H387 C399 0.929 . S
H388 C402 0.930 . S
H389 C404 0.960 . S
H390 C404 0.960 . S
H391 C404 0.960 . S
C392 H384 0.929 . S
C392 C393 1.377 . S
C392 C394 1.384 . S
C393 C392 1.377 . S
C393 C399 1.390 . S
C394 H385 0.930 . S
C394 C392 1.384 . S
C394 C395 1.372 . S
C395 C394 1.372 . S
C395 C396 1.400 . S
C395 C400 1.490 . S
C396 H386 0.930 . S
C396 C395 1.400 . S
C396 C399 1.386 . S
H397 C413 0.930 . S
H398 C414 0.931 . S
C399 H387 0.929 . S
C399 C393 1.390 . S
C399 C396 1.386 . S
C400 C395 1.490 . S
C400 C402 1.395 . S
C400 C403 1.403 . S
H401 C407 0.930 . S
C402 H388 0.930 . S
C402 C400 1.395 . S
C402 C405 1.403 . S
C403 C400 1.403 . S
C403 C404 1.524 . S
C403 C407 1.400 . S
C404 H389 0.960 . S
C404 H390 0.960 . S
C404 H391 0.960 . S
C404 C403 1.524 . S
C405 C402 1.403 . S
C405 C406 1.392 . S
C405 C409 1.495 . S
C406 C405 1.392 . S
C406 C407 1.385 . S
C406 C408 1.478 . S
C407 H401 0.930 . S
C407 C403 1.400 . S
C407 C406 1.385 . S
C408 C406 1.478 . S
C408 C410 1.381 . S
C408 C414 1.383 . S
C409 C405 1.495 . S
C409 H415 0.959 . S
C409 H416 0.961 . S
C409 H417 0.960 . S
C410 C408 1.381 . S
C410 C411 1.394 . S
C410 H418 0.930 . S
C411 C410 1.394 . S
C411 C412 1.383 . S
C411 H419 0.929 . S
C412 C411 1.383 . S
C412 C413 1.377 . S
C413 H397 0.930 . S
C413 C412 1.377 . S
C413 C414 1.379 . S
C414 H398 0.931 . S
C414 C408 1.383 . S
C414 C413 1.379 . S
H415 C409 0.959 . S
H416 C409 0.961 . S
H417 C409 0.960 . S
H418 C410 0.930 . S
H419 C411 0.929 . S
H420 C428 0.929 . S
H421 C430 0.930 . S
H422 C432 0.930 . S
H423 C435 0.929 . S
H424 C438 0.930 . S
H425 C440 0.960 . S
H426 C440 0.960 . S
H427 C440 0.960 . S
C428 H420 0.929 . S
C428 C429 1.377 . S
C428 C430 1.384 . S
C429 C428 1.377 . S
C429 C435 1.390 . S
C430 H421 0.930 . S
C430 C428 1.384 . S
C430 C431 1.372 . S
C431 C430 1.372 . S
C431 C432 1.400 . S
C431 C436 1.490 . S
C432 H422 0.930 . S
C432 C431 1.400 . S
C432 C435 1.386 . S
H433 C449 0.930 . S
H434 C450 0.931 . S
C435 H423 0.929 . S
C435 C429 1.390 . S
C435 C432 1.386 . S
C436 C431 1.490 . S
C436 C438 1.395 . S
C436 C439 1.403 . S
H437 C443 0.930 . S
C438 H424 0.930 . S
C438 C436 1.395 . S
C438 C441 1.403 . S
C439 C436 1.403 . S
C439 C440 1.524 . S
C439 C443 1.400 . S
C440 H425 0.960 . S
C440 H426 0.960 . S
C440 H427 0.960 . S
C440 C439 1.524 . S
C441 C438 1.403 . S
C441 C442 1.392 . S
C441 C445 1.495 . S
C442 C441 1.392 . S
C442 C443 1.385 . S
C442 C444 1.478 . S
C443 H437 0.930 . S
C443 C439 1.400 . S
C443 C442 1.385 . S
C444 C442 1.478 . S
C444 C446 1.381 . S
C444 C450 1.383 . S
C445 C441 1.495 . S
C445 H451 0.959 1_655 S
C445 H452 0.961 1_655 S
C445 H453 0.960 1_655 S
C446 C444 1.381 . S
C446 C447 1.394 . S
C446 H454 0.930 . S
C447 C446 1.394 . S
C447 C448 1.383 . S
C447 H455 0.929 1_655 S
C448 C447 1.383 . S
C448 C449 1.377 . S
C449 H433 0.930 . S
C449 C448 1.377 . S
C449 C450 1.379 . S
C450 H434 0.931 . S
C450 C444 1.383 . S
C450 C449 1.379 . S
H451 C445 0.959 1_455 S
H452 C445 0.961 1_455 S
H453 C445 0.960 1_455 S
H454 C446 0.930 . S
H455 C447 0.929 1_455 S
H456 C464 0.929 . S
H457 C466 0.930 . S
H458 C468 0.930 . S
H459 C471 0.929 . S
H460 C474 0.930 . S
H461 C476 0.960 . S
H462 C476 0.960 . S
H463 C476 0.960 . S
C464 H456 0.929 . S
C464 C465 1.377 . S
C464 C466 1.384 . S
C465 C464 1.377 . S
C465 C471 1.390 . S
C466 H457 0.930 . S
C466 C464 1.384 . S
C466 C467 1.372 . S
C467 C466 1.372 . S
C467 C468 1.400 . S
C467 C472 1.490 . S
C468 H458 0.930 . S
C468 C467 1.400 . S
C468 C471 1.386 . S
H469 C485 0.930 . S
H470 C486 0.931 . S
C471 H459 0.929 . S
C471 C465 1.390 . S
C471 C468 1.386 . S
C472 C467 1.490 . S
C472 C474 1.395 . S
C472 C475 1.403 . S
H473 C479 0.930 . S
C474 H460 0.930 . S
C474 C472 1.395 . S
C474 C477 1.403 . S
C475 C472 1.403 . S
C475 C476 1.524 . S
C475 C479 1.400 . S
C476 H461 0.960 . S
C476 H462 0.960 . S
C476 H463 0.960 . S
C476 C475 1.524 . S
C477 C474 1.403 . S
C477 C478 1.392 . S
C477 C481 1.495 . S
C478 C477 1.392 . S
C478 C479 1.385 . S
C478 C480 1.478 . S
C479 H473 0.930 . S
C479 C475 1.400 . S
C479 C478 1.385 . S
C480 C478 1.478 . S
C480 C482 1.381 . S
C480 C486 1.383 . S
C481 C477 1.495 . S
C481 H487 0.959 . S
C481 H488 0.961 . S
C481 H489 0.960 . S
C482 C480 1.381 . S
C482 C483 1.394 . S
C482 H490 0.930 . S
C483 C482 1.394 . S
C483 C484 1.383 . S
C483 H491 0.929 . S
C484 C483 1.383 . S
C484 C485 1.377 . S
C485 H469 0.930 . S
C485 C484 1.377 . S
C485 C486 1.379 . S
C486 H470 0.931 . S
C486 C480 1.383 . S
C486 C485 1.379 . S
H487 C481 0.959 . S
H488 C481 0.961 . S
H489 C481 0.960 . S
H490 C482 0.930 . S
H491 C483 0.929 . S
H492 C500 0.929 . S
H493 C502 0.930 . S
H494 C504 0.930 . S
H495 C507 0.929 . S
H496 C510 0.930 . S
H497 C512 0.960 . S
H498 C512 0.960 . S
H499 C512 0.960 . S
C500 H492 0.929 . S
C500 C501 1.377 . S
C500 C502 1.384 . S
C501 C500 1.377 . S
C501 C507 1.390 . S
C502 H493 0.930 . S
C502 C500 1.384 . S
C502 C503 1.372 . S
C503 C502 1.372 . S
C503 C504 1.400 . S
C503 C508 1.490 . S
C504 H494 0.930 . S
C504 C503 1.400 . S
C504 C507 1.386 . S
H505 C521 0.930 . S
H506 C522 0.931 . S
C507 H495 0.929 . S
C507 C501 1.390 . S
C507 C504 1.386 . S
C508 C503 1.490 . S
C508 C510 1.395 . S
C508 C511 1.403 . S
H509 C515 0.930 . S
C510 H496 0.930 . S
C510 C508 1.395 . S
C510 C513 1.403 . S
C511 C508 1.403 . S
C511 C512 1.524 . S
C511 C515 1.400 . S
C512 H497 0.960 . S
C512 H498 0.960 . S
C512 H499 0.960 . S
C512 C511 1.524 . S
C513 C510 1.403 . S
C513 C514 1.392 . S
C513 C517 1.495 1_455 S
C514 C513 1.392 . S
C514 C515 1.385 . S
C514 C516 1.478 . S
C515 H509 0.930 . S
C515 C511 1.400 . S
C515 C514 1.385 . S
C516 C514 1.478 . S
C516 C518 1.381 . S
C516 C522 1.383 . S
C517 C513 1.495 1_655 S
C517 H523 0.959 . S
C517 H524 0.961 . S
C517 H525 0.960 . S
C518 C516 1.381 . S
C518 C519 1.394 . S
C518 H526 0.930 . S
C519 C518 1.394 . S
C519 C520 1.383 . S
C519 H527 0.929 . S
C520 C519 1.383 . S
C520 C521 1.377 . S
C521 H505 0.930 . S
C521 C520 1.377 . S
C521 C522 1.379 . S
C522 H506 0.931 . S
C522 C516 1.383 . S
C522 C521 1.379 . S
H523 C517 0.959 . S
H524 C517 0.961 . S
H525 C517 0.960 . S
H526 C518 0.930 . S
H527 C519 0.929 . S
H528 C536 0.929 . S
H529 C538 0.930 . S
H530 C540 0.930 . S
H531 C543 0.929 . S
H532 C546 0.930 . S
H533 C548 0.960 . S
H534 C548 0.960 . S
H535 C548 0.960 . S
C536 H528 0.929 . S
C536 C537 1.377 . S
C536 C538 1.384 . S
C537 C536 1.377 . S
C537 C543 1.390 . S
C538 H529 0.930 . S
C538 C536 1.384 . S
C538 C539 1.372 . S
C539 C538 1.372 . S
C539 C540 1.400 . S
C539 C544 1.490 . S
C540 H530 0.930 . S
C540 C539 1.400 . S
C540 C543 1.386 . S
H541 C557 0.930 . S
H542 C558 0.931 . S
C543 H531 0.929 . S
C543 C537 1.390 . S
C543 C540 1.386 . S
C544 C539 1.490 . S
C544 C546 1.395 . S
C544 C547 1.403 . S
H545 C551 0.930 . S
C546 H532 0.930 . S
C546 C544 1.395 . S
C546 C549 1.403 . S
C547 C544 1.403 . S
C547 C548 1.524 . S
C547 C551 1.400 . S
C548 H533 0.960 . S
C548 H534 0.960 . S
C548 H535 0.960 . S
C548 C547 1.524 . S
C549 C546 1.403 . S
C549 C550 1.392 . S
C549 C553 1.495 . S
C550 C549 1.392 . S
C550 C551 1.385 . S
C550 C552 1.478 . S
C551 H545 0.930 . S
C551 C547 1.400 . S
C551 C550 1.385 . S
C552 C550 1.478 . S
C552 C554 1.381 . S
C552 C558 1.383 . S
C553 C549 1.495 . S
C553 H559 0.959 . S
C553 H560 0.961 . S
C553 H561 0.960 . S
C554 C552 1.381 . S
C554 C555 1.394 . S
C554 H562 0.930 . S
C555 C554 1.394 . S
C555 C556 1.383 . S
C555 H563 0.929 . S
C556 C555 1.383 . S
C556 C557 1.377 . S
C557 H541 0.930 . S
C557 C556 1.377 . S
C557 C558 1.379 . S
C558 H542 0.931 . S
C558 C552 1.383 . S
C558 C557 1.379 . S
H559 C553 0.959 . S
H560 C553 0.961 . S
H561 C553 0.960 . S
H562 C554 0.930 . S
H563 C555 0.929 . S
H564 C572 0.929 . S
H565 C574 0.930 . S
H566 C576 0.930 . S
H567 C579 0.929 . S
H568 C582 0.930 . S
H569 C584 0.960 . S
H570 C584 0.960 . S
H571 C584 0.960 . S
C572 H564 0.929 . S
C572 C573 1.377 . S
C572 C574 1.384 . S
C573 C572 1.377 . S
C573 C579 1.390 . S
C574 H565 0.930 . S
C574 C572 1.384 . S
C574 C575 1.372 . S
C575 C574 1.372 . S
C575 C576 1.400 . S
C575 C580 1.490 . S
C576 H566 0.930 . S
C576 C575 1.400 . S
C576 C579 1.386 . S
H577 C593 0.930 . S
H578 C594 0.931 . S
C579 H567 0.929 . S
C579 C573 1.390 . S
C579 C576 1.386 . S
C580 C575 1.490 . S
C580 C582 1.395 . S
C580 C583 1.403 . S
H581 C587 0.930 . S
C582 H568 0.930 . S
C582 C580 1.395 . S
C582 C585 1.403 . S
C583 C580 1.403 . S
C583 C584 1.524 . S
C583 C587 1.400 . S
C584 H569 0.960 . S
C584 H570 0.960 . S
C584 H571 0.960 . S
C584 C583 1.524 . S
C585 C582 1.403 . S
C585 C586 1.392 . S
C585 C589 1.495 . S
C586 C585 1.392 . S
C586 C587 1.385 . S
C586 C588 1.478 . S
C587 H581 0.930 . S
C587 C583 1.400 . S
C587 C586 1.385 . S
C588 C586 1.478 . S
C588 C590 1.381 . S
C588 C594 1.383 . S
C589 C585 1.495 . S
C589 H595 0.959 . S
C589 H596 0.961 . S
C589 H597 0.960 . S
C590 C588 1.381 . S
C590 C591 1.394 . S
C590 H598 0.930 . S
C591 C590 1.394 . S
C591 C592 1.383 . S
C591 H599 0.929 . S
C592 C591 1.383 . S
C592 C593 1.377 . S
C593 H577 0.930 . S
C593 C592 1.377 . S
C593 C594 1.379 . S
C594 H578 0.931 . S
C594 C588 1.383 . S
C594 C593 1.379 . S
H595 C589 0.959 . S
H596 C589 0.961 . S
H597 C589 0.960 . S
H598 C590 0.930 . S
H599 C591 0.929 . S
H600 C608 0.929 . S
H601 C610 0.930 . S
H602 C612 0.930 . S
H603 C615 0.929 . S
H604 C618 0.930 . S
H605 C620 0.960 . S
H606 C620 0.960 . S
H607 C620 0.960 . S
C608 H600 0.929 . S
C608 C609 1.377 . S
C608 C610 1.384 . S
C609 C608 1.377 . S
C609 C615 1.390 . S
C610 H601 0.930 . S
C610 C608 1.384 . S
C610 C611 1.372 . S
C611 C610 1.372 . S
C611 C612 1.400 . S
C611 C616 1.490 . S
C612 H602 0.930 . S
C612 C611 1.400 . S
C612 C615 1.386 . S
H613 C629 0.930 . S
H614 C630 0.931 . S
C615 H603 0.929 . S
C615 C609 1.390 . S
C615 C612 1.386 . S
C616 C611 1.490 . S
C616 C618 1.395 . S
C616 C619 1.403 . S
H617 C623 0.930 . S
C618 H604 0.930 . S
C618 C616 1.395 . S
C618 C621 1.403 . S
C619 C616 1.403 . S
C619 C620 1.524 . S
C619 C623 1.400 . S
C620 H605 0.960 . S
C620 H606 0.960 . S
C620 H607 0.960 . S
C620 C619 1.524 . S
C621 C618 1.403 . S
C621 C622 1.392 . S
C621 C625 1.495 . S
C622 C621 1.392 . S
C622 C623 1.385 . S
C622 C624 1.478 . S
C623 H617 0.930 . S
C623 C619 1.400 . S
C623 C622 1.385 . S
C624 C622 1.478 . S
C624 C626 1.381 . S
C624 C630 1.383 . S
C625 C621 1.495 . S
C625 H631 0.959 . S
C625 H632 0.961 . S
C625 H633 0.960 . S
C626 C624 1.381 . S
C626 C627 1.394 . S
C626 H634 0.930 . S
C627 C626 1.394 . S
C627 C628 1.383 . S
C627 H635 0.929 . S
C628 C627 1.383 . S
C628 C629 1.377 . S
C629 H613 0.930 . S
C629 C628 1.377 . S
C629 C630 1.379 . S
C630 H614 0.931 . S
C630 C624 1.383 . S
C630 C629 1.379 . S
H631 C625 0.959 . S
H632 C625 0.961 . S
H633 C625 0.960 . S
H634 C626 0.930 . S
H635 C627 0.929 . S
H636 C644 0.929 . S
H637 C646 0.930 . S
H638 C648 0.930 . S
H639 C651 0.929 . S
H640 C654 0.930 . S
H641 C656 0.960 . S
H642 C656 0.960 . S
H643 C656 0.960 . S
C644 H636 0.929 . S
C644 C645 1.377 . S
C644 C646 1.384 . S
C645 C644 1.377 . S
C645 C651 1.390 . S
C646 H637 0.930 . S
C646 C644 1.384 . S
C646 C647 1.372 . S
C647 C646 1.372 . S
C647 C648 1.400 . S
C647 C652 1.490 . S
C648 H638 0.930 . S
C648 C647 1.400 . S
C648 C651 1.386 . S
H649 C665 0.936 . S
H650 C666 0.931 . S
C651 H639 0.929 . S
C651 C645 1.390 . S
C651 C648 1.386 . S
C652 C647 1.490 . S
C652 C654 1.395 . S
C652 C655 1.403 . S
H653 C659 0.930 . S
C654 H640 0.930 . S
C654 C652 1.395 . S
C654 C657 1.403 . S
C655 C652 1.403 . S
C655 C656 1.524 . S
C655 C659 1.400 . S
C656 H641 0.960 . S
C656 H642 0.960 . S
C656 H643 0.960 . S
C656 C655 1.524 . S
C657 C654 1.403 . S
C657 C658 1.392 . S
C657 C661 1.495 . S
C658 C657 1.392 . S
C658 C659 1.385 . S
C658 C660 1.478 . S
C659 H653 0.930 . S
C659 C655 1.400 . S
C659 C658 1.385 . S
C660 C658 1.478 . S
C660 C662 1.381 1_556 S
C660 C666 1.383 . S
C661 C657 1.495 . S
C661 H667 0.959 . S
C661 H668 0.961 . S
C661 H669 0.960 1_556 S
C662 C660 1.381 1_554 S
C662 C663 1.394 . S
C662 H670 0.930 . S
C663 C662 1.394 . S
C663 C664 1.383 . S
C663 H671 0.929 . S
C664 C663 1.383 . S
C664 C665 1.362 1_554 S
C665 H649 0.936 . S
C665 C664 1.362 1_556 S
C665 C666 1.388 . S
C666 H650 0.931 . S
C666 C660 1.383 . S
C666 C665 1.388 . S
H667 C661 0.959 . S
H668 C661 0.961 . S
H669 C661 0.960 1_554 S
H670 C662 0.930 . S
H671 C663 0.929 . S
H672 C680 0.929 . S
H673 C682 0.930 . S
H674 C684 0.930 . S
H675 C687 0.929 . S
H676 C690 0.930 . S
H677 C692 0.960 . S
H678 C692 0.960 . S
H679 C692 0.960 . S
C680 H672 0.929 . S
C680 C681 1.377 . S
C680 C682 1.384 . S
C681 C680 1.377 . S
C681 C687 1.390 . S
C682 H673 0.930 . S
C682 C680 1.384 . S
C682 C683 1.372 . S
C683 C682 1.372 . S
C683 C684 1.400 . S
C683 C688 1.490 . S
C684 H674 0.930 . S
C684 C683 1.400 . S
C684 C687 1.386 . S
H685 C701 0.930 . S
H686 C702 0.931 . S
C687 H675 0.929 . S
C687 C681 1.390 . S
C687 C684 1.386 . S
C688 C683 1.490 . S
C688 C690 1.395 . S
C688 C691 1.403 . S
H689 C695 0.930 . S
C690 H676 0.930 . S
C690 C688 1.395 . S
C690 C693 1.403 . S
C691 C688 1.403 . S
C691 C692 1.524 . S
C691 C695 1.400 . S
C692 H677 0.960 . S
C692 H678 0.960 . S
C692 H679 0.960 . S
C692 C691 1.524 . S
C693 C690 1.403 . S
C693 C694 1.392 . S
C693 C697 1.495 . S
C694 C693 1.392 . S
C694 C695 1.385 . S
C694 C696 1.478 . S
C695 H689 0.930 . S
C695 C691 1.400 . S
C695 C694 1.385 . S
C696 C694 1.478 . S
C696 C698 1.381 . S
C696 C702 1.383 . S
C697 C693 1.495 . S
C697 H703 0.959 . S
C697 H704 0.961 . S
C697 H705 0.960 . S
C698 C696 1.381 . S
C698 C699 1.394 . S
C698 H706 0.930 . S
C699 C698 1.394 . S
C699 C700 1.383 . S
C699 H707 0.929 . S
C700 C699 1.383 . S
C700 C701 1.377 . S
C701 H685 0.930 . S
C701 C700 1.377 . S
C701 C702 1.379 . S
C702 H686 0.931 . S
C702 C696 1.383 . S
C702 C701 1.379 . S
H703 C697 0.959 . S
H704 C697 0.961 . S
H705 C697 0.960 . S
H706 C698 0.930 . S
H707 C699 0.929 . S
H708 C716 0.929 . S
H709 C718 0.930 . S
H710 C720 0.930 . S
H711 C723 0.929 . S
H712 C726 0.930 . S
H713 C728 0.960 . S
H714 C728 0.960 . S
H715 C728 0.960 . S
C716 H708 0.929 . S
C716 C717 1.377 . S
C716 C718 1.384 . S
C717 C716 1.377 . S
C717 C723 1.390 . S
C718 H709 0.930 . S
C718 C716 1.384 . S
C718 C719 1.372 . S
C719 C718 1.372 . S
C719 C720 1.400 . S
C719 C724 1.490 . S
C720 H710 0.930 . S
C720 C719 1.400 . S
C720 C723 1.386 . S
H721 C737 0.930 . S
H722 C738 0.931 . S
C723 H711 0.929 . S
C723 C717 1.390 . S
C723 C720 1.386 . S
C724 C719 1.490 . S
C724 C726 1.395 . S
C724 C727 1.403 . S
H725 C731 0.930 . S
C726 H712 0.930 . S
C726 C724 1.395 . S
C726 C729 1.403 . S
C727 C724 1.403 . S
C727 C728 1.524 . S
C727 C731 1.400 . S
C728 H713 0.960 . S
C728 H714 0.960 . S
C728 H715 0.960 . S
C728 C727 1.524 . S
C729 C726 1.403 . S
C729 C730 1.392 . S
C729 C733 1.495 . S
C730 C729 1.392 . S
C730 C731 1.385 . S
C730 C732 1.478 . S
C731 H725 0.930 . S
C731 C727 1.400 . S
C731 C730 1.385 . S
C732 C730 1.478 . S
C732 C734 1.381 . S
C732 C738 1.383 . S
C733 C729 1.495 . S
C733 H739 0.959 . S
C733 H740 0.961 . S
C733 H741 0.960 . S
C734 C732 1.381 . S
C734 C735 1.394 . S
C734 H742 0.930 . S
C735 C734 1.394 . S
C735 C736 1.383 . S
C735 H743 0.929 . S
C736 C735 1.383 . S
C736 C737 1.377 . S
C737 H721 0.930 . S
C737 C736 1.377 . S
C737 C738 1.379 . S
C738 H722 0.931 . S
C738 C732 1.383 . S
C738 C737 1.379 . S
H739 C733 0.959 . S
H740 C733 0.961 . S
H741 C733 0.960 . S
H742 C734 0.930 . S
H743 C735 0.929 . S
H744 C752 0.929 . S
H745 C754 0.930 . S
H746 C756 0.930 . S
H747 C759 0.929 . S
H748 C762 0.930 . S
H749 C764 0.960 . S
H750 C764 0.960 . S
H751 C764 0.960 . S
C752 H744 0.929 . S
C752 C753 1.377 . S
C752 C754 1.384 . S
C753 C752 1.377 . S
C753 C759 1.390 . S
C754 H745 0.930 . S
C754 C752 1.384 . S
C754 C755 1.372 . S
C755 C754 1.372 . S
C755 C756 1.400 . S
C755 C760 1.490 . S
C756 H746 0.930 . S
C756 C755 1.400 . S
C756 C759 1.386 . S
H757 C773 0.930 . S
H758 C774 0.931 . S
C759 H747 0.929 . S
C759 C753 1.390 . S
C759 C756 1.386 . S
C760 C755 1.490 . S
C760 C762 1.395 . S
C760 C763 1.403 . S
H761 C767 0.930 . S
C762 H748 0.930 . S
C762 C760 1.395 . S
C762 C765 1.403 . S
C763 C760 1.403 . S
C763 C764 1.524 . S
C763 C767 1.400 . S
C764 H749 0.960 . S
C764 H750 0.960 . S
C764 H751 0.960 . S
C764 C763 1.524 . S
C765 C762 1.403 . S
C765 C766 1.392 . S
C765 C769 1.495 . S
C766 C765 1.392 . S
C766 C767 1.385 . S
C766 C768 1.478 . S
C767 H761 0.930 . S
C767 C763 1.400 . S
C767 C766 1.385 . S
C768 C766 1.478 . S
C768 C770 1.381 . S
C768 C774 1.383 . S
C769 C765 1.495 . S
C769 H775 0.959 . S
C769 H776 0.961 . S
C769 H777 0.960 . S
C770 C768 1.381 . S
C770 C771 1.394 . S
C770 H778 0.930 . S
C771 C770 1.394 . S
C771 C772 1.383 . S
C771 H779 0.929 . S
C772 C771 1.383 . S
C772 C773 1.377 . S
C773 H757 0.930 . S
C773 C772 1.377 . S
C773 C774 1.379 . S
C774 H758 0.931 . S
C774 C768 1.383 . S
C774 C773 1.379 . S
H775 C769 0.959 . S
H776 C769 0.961 . S
H777 C769 0.960 . S
H778 C770 0.930 . S
H779 C771 0.929 . S
H780 C788 0.929 . S
H781 C790 0.930 . S
H782 C792 0.930 . S
H783 C795 0.929 . S
H784 C798 0.930 . S
H785 C800 0.960 . S
H786 C800 0.960 . S
H787 C800 0.960 . S
C788 H780 0.929 . S
C788 C789 1.377 . S
C788 C790 1.384 . S
C789 C788 1.377 . S
C789 C795 1.390 . S
C790 H781 0.930 . S
C790 C788 1.384 . S
C790 C791 1.372 . S
C791 C790 1.372 . S
C791 C792 1.400 . S
C791 C796 1.490 . S
C792 H782 0.930 . S
C792 C791 1.400 . S
C792 C795 1.386 . S
H793 C809 0.930 . S
H794 C810 0.931 . S
C795 H783 0.929 . S
C795 C789 1.390 . S
C795 C792 1.386 . S
C796 C791 1.490 . S
C796 C798 1.395 . S
C796 C799 1.403 . S
H797 C803 0.930 . S
C798 H784 0.930 . S
C798 C796 1.395 . S
C798 C801 1.403 . S
C799 C796 1.403 . S
C799 C800 1.524 . S
C799 C803 1.400 . S
C800 H785 0.960 . S
C800 H786 0.960 . S
C800 H787 0.960 . S
C800 C799 1.524 . S
C801 C798 1.403 . S
C801 C802 1.392 . S
C801 C805 1.495 . S
C802 C801 1.392 . S
C802 C803 1.385 . S
C802 C804 1.478 . S
C803 H797 0.930 . S
C803 C799 1.400 . S
C803 C802 1.385 . S
C804 C802 1.478 . S
C804 C806 1.381 . S
C804 C810 1.383 . S
C805 C801 1.495 . S
C805 H811 0.959 . S
C805 H812 0.961 . S
C805 H813 0.960 . S
C806 C804 1.381 . S
C806 C807 1.394 . S
C806 H814 0.930 . S
C807 C806 1.394 . S
C807 C808 1.383 . S
C807 H815 0.929 . S
C808 C807 1.383 . S
C808 C809 1.377 . S
C809 H793 0.930 . S
C809 C808 1.377 . S
C809 C810 1.379 . S
C810 H794 0.931 . S
C810 C804 1.383 . S
C810 C809 1.379 . S
H811 C805 0.959 . S
H812 C805 0.961 . S
H813 C805 0.960 . S
H814 C806 0.930 . S
H815 C807 0.929 . S
H816 C824 0.929 . S
H817 C826 0.930 . S
H818 C828 0.930 . S
H819 C831 0.929 . S
H820 C834 0.930 . S
H821 C836 0.960 . S
H822 C836 0.960 . S
H823 C836 0.960 . S
C824 H816 0.929 . S
C824 C825 1.377 . S
C824 C826 1.384 . S
C825 C824 1.377 . S
C825 C831 1.390 . S
C826 H817 0.930 . S
C826 C824 1.384 . S
C826 C827 1.372 . S
C827 C826 1.372 . S
C827 C828 1.400 . S
C827 C832 1.490 . S
C828 H818 0.930 . S
C828 C827 1.400 . S
C828 C831 1.386 . S
H829 C845 0.930 . S
H830 C846 0.931 . S
C831 H819 0.929 . S
C831 C825 1.390 . S
C831 C828 1.386 . S
C832 C827 1.490 . S
C832 C834 1.395 . S
C832 C835 1.403 . S
H833 C839 0.930 . S
C834 H820 0.930 . S
C834 C832 1.395 . S
C834 C837 1.403 . S
C835 C832 1.403 . S
C835 C836 1.524 . S
C835 C839 1.400 . S
C836 H821 0.960 . S
C836 H822 0.960 . S
C836 H823 0.960 . S
C836 C835 1.524 . S
C837 C834 1.403 . S
C837 C838 1.392 . S
C837 C841 1.495 . S
C838 C837 1.392 . S
C838 C839 1.385 . S
C838 C840 1.478 . S
C839 H833 0.930 . S
C839 C835 1.400 . S
C839 C838 1.385 . S
C840 C838 1.478 . S
C840 C842 1.381 . S
C840 C846 1.383 . S
C841 C837 1.495 . S
C841 H847 0.959 . S
C841 H848 0.961 . S
C841 H849 0.960 . S
C842 C840 1.381 . S
C842 C843 1.394 . S
C842 H850 0.930 . S
C843 C842 1.394 . S
C843 C844 1.383 . S
C843 H851 0.929 . S
C844 C843 1.383 . S
C844 C845 1.377 . S
C845 H829 0.930 . S
C845 C844 1.377 . S
C845 C846 1.379 . S
C846 H830 0.931 . S
C846 C840 1.383 . S
C846 C845 1.379 . S
H847 C841 0.959 . S
H848 C841 0.961 . S
H849 C841 0.960 . S
H850 C842 0.930 . S
H851 C843 0.929 . S
H852 C860 0.929 . S
H853 C862 0.930 . S
H854 C864 0.930 . S
H855 C867 0.929 . S
H856 C870 0.930 . S
H857 C872 0.960 . S
H858 C872 0.960 . S
H859 C872 0.960 . S
C860 H852 0.929 . S
C860 C861 1.377 . S
C860 C862 1.384 . S
C861 C860 1.377 . S
C861 C867 1.390 . S
C862 H853 0.930 . S
C862 C860 1.384 . S
C862 C863 1.372 . S
C863 C862 1.372 . S
C863 C864 1.400 . S
C863 C868 1.490 . S
C864 H854 0.930 . S
C864 C863 1.400 . S
C864 C867 1.386 . S
H865 C881 0.930 . S
H866 C882 0.931 . S
C867 H855 0.929 . S
C867 C861 1.390 . S
C867 C864 1.386 . S
C868 C863 1.490 . S
C868 C870 1.395 . S
C868 C871 1.403 . S
H869 C875 0.930 . S
C870 H856 0.930 . S
C870 C868 1.395 . S
C870 C873 1.403 . S
C871 C868 1.403 . S
C871 C872 1.524 . S
C871 C875 1.400 . S
C872 H857 0.960 . S
C872 H858 0.960 . S
C872 H859 0.960 . S
C872 C871 1.524 . S
C873 C870 1.403 . S
C873 C874 1.392 . S
C873 C877 1.495 . S
C874 C873 1.392 . S
C874 C875 1.385 . S
C874 C876 1.478 . S
C875 H869 0.930 . S
C875 C871 1.400 . S
C875 C874 1.385 . S
C876 C874 1.478 . S
C876 C878 1.381 . S
C876 C882 1.383 . S
C877 C873 1.495 . S
C877 H883 0.959 . S
C877 H884 0.961 . S
C877 H885 0.960 . S
C878 C876 1.381 . S
C878 C879 1.394 . S
C878 H886 0.930 . S
C879 C878 1.394 . S
C879 C880 1.383 . S
C879 H887 0.929 . S
C880 C879 1.383 . S
C880 C881 1.377 . S
C881 H865 0.930 . S
C881 C880 1.377 . S
C881 C882 1.379 . S
C882 H866 0.931 . S
C882 C876 1.383 . S
C882 C881 1.379 . S
H883 C877 0.959 . S
H884 C877 0.961 . S
H885 C877 0.960 . S
H886 C878 0.930 . S
H887 C879 0.929 . S
H888 C896 0.929 . S
H889 C898 0.930 . S
H890 C900 0.930 . S
H891 C903 0.929 . S
H892 C906 0.930 . S
H893 C908 0.960 . S
H894 C908 0.954 1_556 S
H895 C908 0.960 . S
C896 H888 0.929 . S
C896 C897 1.377 . S
C896 C898 1.384 . S
C897 C896 1.377 . S
C897 C903 1.390 . S
C898 H889 0.930 . S
C898 C896 1.384 . S
C898 C899 1.372 . S
C899 C898 1.372 . S
C899 C900 1.400 . S
C899 C904 1.490 . S
C900 H890 0.930 . S
C900 C899 1.400 . S
C900 C903 1.386 . S
H901 C917 0.930 . S
H902 C918 0.931 . S
C903 H891 0.929 . S
C903 C897 1.390 . S
C903 C900 1.386 . S
C904 C899 1.490 . S
C904 C906 1.395 . S
C904 C907 1.403 . S
H905 C911 0.930 . S
C906 H892 0.930 . S
C906 C904 1.395 . S
C906 C909 1.403 . S
C907 C904 1.403 . S
C907 C908 1.524 1_556 S
C907 C911 1.400 1_556 S
C908 H893 0.960 . S
C908 H894 0.954 1_554 S
C908 H895 0.960 . S
C908 C907 1.524 1_554 S
C909 C906 1.403 . S
C909 C910 1.392 . S
C909 C913 1.495 . S
C910 C909 1.392 . S
C910 C911 1.385 1_556 S
C910 C912 1.478 1_556 S
C911 H905 0.930 . S
C911 C907 1.400 1_554 S
C911 C910 1.385 1_554 S
C912 C910 1.478 1_554 S
C912 C914 1.381 . S
C912 C918 1.383 . S
C913 C909 1.495 . S
C913 H919 0.959 . S
C913 H920 0.961 . S
C913 H921 0.960 . S
C914 C912 1.381 . S
C914 C915 1.394 . S
C914 H922 0.930 1_554 S
C915 C914 1.394 . S
C915 C916 1.383 . S
C915 H923 0.929 1_565 S
C916 C915 1.383 . S
C916 C917 1.377 . S
C917 H901 0.930 . S
C917 C916 1.377 . S
C917 C918 1.379 . S
C918 H902 0.931 . S
C918 C912 1.383 . S
C918 C917 1.379 . S
H919 C913 0.959 . S
H920 C913 0.961 . S
H921 C913 0.960 . S
H922 C914 0.930 1_556 S
H923 C915 0.929 1_545 S
H924 C932 0.929 . S
H925 C934 0.930 . S
H926 C936 0.930 . S
H927 C939 0.929 . S
H928 C942 0.930 . S
H929 C944 0.960 . S
H930 C944 0.960 . S
H931 C944 0.960 . S
C932 H924 0.929 . S
C932 C933 1.377 . S
C932 C934 1.384 . S
C933 C932 1.377 . S
C933 C939 1.390 . S
C934 H925 0.930 . S
C934 C932 1.384 . S
C934 C935 1.372 . S
C935 C934 1.372 . S
C935 C936 1.400 . S
C935 C940 1.490 . S
C936 H926 0.930 . S
C936 C935 1.400 . S
C936 C939 1.386 . S
H937 C953 0.930 . S
H938 C954 0.931 . S
C939 H927 0.929 . S
C939 C933 1.390 . S
C939 C936 1.386 . S
C940 C935 1.490 . S
C940 C942 1.395 . S
C940 C943 1.403 . S
H941 C947 0.930 . S
C942 H928 0.930 . S
C942 C940 1.395 . S
C942 C945 1.403 . S
C943 C940 1.403 . S
C943 C944 1.524 . S
C943 C947 1.400 . S
C944 H929 0.960 . S
C944 H930 0.960 . S
C944 H931 0.960 . S
C944 C943 1.524 . S
C945 C942 1.403 . S
C945 C946 1.392 . S
C945 C949 1.495 1_655 S
C946 C945 1.392 . S
C946 C947 1.385 . S
C946 C948 1.478 . S
C947 H941 0.930 . S
C947 C943 1.400 . S
C947 C946 1.385 . S
C948 C946 1.478 . S
C948 C950 1.381 . S
C948 C954 1.383 . S
C949 C945 1.495 1_455 S
C949 H955 0.959 . S
C949 H956 0.961 . S
C949 H957 0.960 . S
C950 C948 1.381 . S
C950 C951 1.381 1_655 S
C950 H958 0.930 1_655 S
C951 C950 1.381 1_455 S
C951 C952 1.372 1_455 S
C951 H959 0.954 . S
C952 C951 1.372 1_655 S
C952 C953 1.377 . S
C953 H937 0.930 . S
C953 C952 1.377 . S
C953 C954 1.379 . S
C954 H938 0.931 . S
C954 C948 1.383 . S
C954 C953 1.379 . S
H955 C949 0.959 . S
H956 C949 0.961 . S
H957 C949 0.960 . S
H958 C950 0.930 1_455 S
H959 C951 0.954 . S
H960 C968 0.929 . S
H961 C970 0.930 . S
H962 C972 0.930 . S
H963 C975 0.929 . S
H964 C978 0.930 . S
H965 C980 0.960 . S
H966 C980 0.960 . S
H967 C980 0.960 . S
C968 H960 0.929 . S
C968 C969 1.377 . S
C968 C970 1.384 . S
C969 C968 1.377 . S
C969 C975 1.390 . S
C970 H961 0.930 . S
C970 C968 1.384 . S
C970 C971 1.372 . S
C971 C970 1.372 . S
C971 C972 1.400 . S
C971 C976 1.490 . S
C972 H962 0.930 . S
C972 C971 1.400 . S
C972 C975 1.386 . S
H973 C989 0.930 . S
H974 C990 0.931 . S
C975 H963 0.929 . S
C975 C969 1.390 . S
C975 C972 1.386 . S
C976 C971 1.490 . S
C976 C978 1.395 . S
C976 C979 1.403 . S
H977 C983 0.930 . S
C978 H964 0.930 . S
C978 C976 1.395 . S
C978 C981 1.403 . S
C979 C976 1.403 . S
C979 C980 1.524 . S
C979 C983 1.400 . S
C980 H965 0.960 . S
C980 H966 0.960 . S
C980 H967 0.960 . S
C980 C979 1.524 . S
C981 C978 1.403 . S
C981 C982 1.392 . S
C981 C985 1.495 . S
C982 C981 1.392 . S
C982 C983 1.385 . S
C982 C984 1.478 . S
C983 H977 0.930 . S
C983 C979 1.400 . S
C983 C982 1.385 . S
C984 C982 1.478 . S
C984 C986 1.381 . S
C984 C990 1.383 . S
C985 C981 1.495 . S
C985 H991 0.959 . S
C985 H992 0.961 . S
C985 H993 0.960 . S
C986 C984 1.381 . S
C986 C987 1.394 . S
C986 H994 0.930 . S
C987 C986 1.394 . S
C987 C988 1.383 . S
C987 H995 0.929 . S
C988 C987 1.383 . S
C988 C989 1.377 . S
C989 H973 0.930 . S
C989 C988 1.377 . S
C989 C990 1.379 . S
C990 H974 0.931 . S
C990 C984 1.383 . S
C990 C989 1.379 . S
H991 C985 0.959 . S
H992 C985 0.961 . S
H993 C985 0.960 . S
H994 C986 0.930 . S
H995 C987 0.929 . S
H996 C1004 0.929 . S
H997 C1006 0.930 . S
H998 C1008 0.930 . S
H999 C1011 0.929 . S
H1000 C1014 0.930 . S
H1001 C1016 0.960 . S
H1002 C1016 0.960 . S
H1003 C1016 0.960 . S
C1004 H996 0.929 . S
C1004 C1005 1.377 . S
C1004 C1006 1.384 . S
C1005 C1004 1.377 . S
C1005 C1011 1.390 . S
C1006 H997 0.930 . S
C1006 C1004 1.384 . S
C1006 C1007 1.372 . S
C1007 C1006 1.372 . S
C1007 C1008 1.400 . S
C1007 C1012 1.490 . S
C1008 H998 0.930 . S
C1008 C1007 1.400 . S
C1008 C1011 1.386 . S
H1009 C1025 0.930 . S
H1010 C1026 0.931 . S
C1011 H999 0.929 . S
C1011 C1005 1.390 . S
C1011 C1008 1.386 . S
C1012 C1007 1.490 . S
C1012 C1014 1.395 . S
C1012 C1015 1.403 . S
H1013 C1019 0.930 . S
C1014 H1000 0.930 . S
C1014 C1012 1.395 . S
C1014 C1017 1.403 . S
C1015 C1012 1.403 . S
C1015 C1016 1.524 . S
C1015 C1019 1.400 . S
C1016 H1001 0.960 . S
C1016 H1002 0.960 . S
C1016 H1003 0.960 . S
C1016 C1015 1.524 . S
C1017 C1014 1.403 . S
C1017 C1018 1.392 . S
C1017 C1021 1.495 . S
C1018 C1017 1.392 . S
C1018 C1019 1.385 . S
C1018 C1020 1.478 . S
C1019 H1013 0.930 . S
C1019 C1015 1.400 . S
C1019 C1018 1.385 . S
C1020 C1018 1.478 . S
C1020 C1022 1.381 . S
C1020 C1026 1.383 . S
C1021 C1017 1.495 . S
C1021 H1027 0.959 . S
C1021 H1028 0.961 . S
C1021 H1029 0.960 . S
C1022 C1020 1.381 . S
C1022 C1023 1.394 . S
C1022 H1030 0.930 . S
C1023 C1022 1.394 . S
C1023 C1024 1.383 . S
C1023 H1031 0.929 . S
C1024 C1023 1.383 . S
C1024 C1025 1.377 . S
C1025 H1009 0.930 . S
C1025 C1024 1.377 . S
C1025 C1026 1.379 . S
C1026 H1010 0.931 . S
C1026 C1020 1.383 . S
C1026 C1025 1.379 . S
H1027 C1021 0.959 . S
H1028 C1021 0.961 . S
H1029 C1021 0.960 . S
H1030 C1022 0.930 . S
H1031 C1023 0.929 . S
H1032 C1040 0.929 . S
H1033 C1042 0.930 . S
H1034 C1044 0.930 . S
H1035 C1047 0.929 . S
H1036 C1050 0.930 . S
H1037 C1052 0.960 . S
H1038 C1052 0.960 . S
H1039 C1052 0.960 . S
C1040 H1032 0.929 . S
C1040 C1041 1.377 . S
C1040 C1042 1.384 . S
C1041 C1040 1.377 . S
C1041 C1047 1.390 . S
C1042 H1033 0.930 . S
C1042 C1040 1.384 . S
C1042 C1043 1.372 . S
C1043 C1042 1.372 . S
C1043 C1044 1.400 . S
C1043 C1048 1.490 . S
C1044 H1034 0.930 . S
C1044 C1043 1.400 . S
C1044 C1047 1.386 . S
H1045 C1061 0.930 . S
H1046 C1062 0.931 . S
C1047 H1035 0.929 . S
C1047 C1041 1.390 . S
C1047 C1044 1.386 . S
C1048 C1043 1.490 . S
C1048 C1050 1.395 . S
C1048 C1051 1.403 . S
H1049 C1055 0.930 . S
C1050 H1036 0.930 . S
C1050 C1048 1.395 . S
C1050 C1053 1.403 . S
C1051 C1048 1.403 . S
C1051 C1052 1.524 . S
C1051 C1055 1.400 . S
C1052 H1037 0.960 . S
C1052 H1038 0.960 . S
C1052 H1039 0.960 . S
C1052 C1051 1.524 . S
C1053 C1050 1.403 . S
C1053 C1054 1.392 . S
C1053 C1057 1.495 . S
C1054 C1053 1.392 . S
C1054 C1055 1.385 . S
C1054 C1056 1.478 . S
C1055 H1049 0.930 . S
C1055 C1051 1.400 . S
C1055 C1054 1.385 . S
C1056 C1054 1.478 . S
C1056 C1058 1.381 . S
C1056 C1062 1.383 . S
C1057 C1053 1.495 . S
C1057 H1063 0.959 . S
C1057 H1064 0.961 . S
C1057 H1065 0.960 . S
C1058 C1056 1.381 . S
C1058 C1059 1.394 . S
C1058 H1066 0.930 . S
C1059 C1058 1.394 . S
C1059 C1060 1.383 . S
C1059 H1067 0.929 . S
C1060 C1059 1.383 . S
C1060 C1061 1.377 . S
C1061 H1045 0.930 . S
C1061 C1060 1.377 . S
C1061 C1062 1.379 . S
C1062 H1046 0.931 . S
C1062 C1056 1.383 . S
C1062 C1061 1.379 . S
H1063 C1057 0.959 . S
H1064 C1057 0.961 . S
H1065 C1057 0.960 . S
H1066 C1058 0.930 . S
H1067 C1059 0.929 . S
H1068 C1076 0.929 . S
H1069 C1078 0.930 . S
H1070 C1080 0.930 . S
H1071 C1083 0.929 . S
H1072 C1086 0.930 . S
H1073 C1088 0.960 . S
H1074 C1088 0.960 . S
H1075 C1088 0.960 . S
C1076 H1068 0.929 . S
C1076 C1077 1.377 . S
C1076 C1078 1.384 . S
C1077 C1076 1.377 . S
C1077 C1083 1.390 . S
C1078 H1069 0.930 . S
C1078 C1076 1.384 . S
C1078 C1079 1.372 . S
C1079 C1078 1.372 . S
C1079 C1080 1.400 . S
C1079 C1084 1.490 . S
C1080 H1070 0.930 . S
C1080 C1079 1.400 . S
C1080 C1083 1.386 . S
H1081 C1097 0.930 . S
H1082 C1098 0.931 . S
C1083 H1071 0.929 . S
C1083 C1077 1.390 . S
C1083 C1080 1.386 . S
C1084 C1079 1.490 . S
C1084 C1086 1.395 . S
C1084 C1087 1.403 . S
H1085 C1091 0.930 . S
C1086 H1072 0.930 . S
C1086 C1084 1.395 . S
C1086 C1089 1.403 . S
C1087 C1084 1.403 . S
C1087 C1088 1.524 . S
C1087 C1091 1.400 . S
C1088 H1073 0.960 . S
C1088 H1074 0.960 . S
C1088 H1075 0.960 . S
C1088 C1087 1.524 . S
C1089 C1086 1.403 . S
C1089 C1090 1.392 . S
C1089 C1093 1.495 . S
C1090 C1089 1.392 . S
C1090 C1091 1.385 . S
C1090 C1092 1.478 . S
C1091 H1085 0.930 . S
C1091 C1087 1.400 . S
C1091 C1090 1.385 . S
C1092 C1090 1.478 . S
C1092 C1094 1.381 . S
C1092 C1098 1.383 . S
C1093 C1089 1.495 . S
C1093 H1099 0.959 . S
C1093 H1100 0.961 . S
C1093 H1101 0.960 . S
C1094 C1092 1.381 . S
C1094 C1095 1.394 . S
C1094 H1102 0.930 . S
C1095 C1094 1.394 . S
C1095 C1096 1.383 . S
C1095 H1103 0.929 . S
C1096 C1095 1.383 . S
C1096 C1097 1.377 . S
C1097 H1081 0.930 . S
C1097 C1096 1.377 . S
C1097 C1098 1.379 . S
C1098 H1082 0.931 . S
C1098 C1092 1.383 . S
C1098 C1097 1.379 . S
H1099 C1093 0.959 . S
H1100 C1093 0.961 . S
H1101 C1093 0.960 . S
H1102 C1094 0.930 . S
H1103 C1095 0.929 . S
H1104 C1112 0.929 . S
H1105 C1114 0.930 . S
H1106 C1116 0.930 . S
H1107 C1119 0.929 . S
H1108 C1122 0.930 . S
H1109 C1124 0.960 . S
H1110 C1124 0.960 . S
H1111 C1124 0.960 . S
C1112 H1104 0.929 . S
C1112 C1113 1.377 . S
C1112 C1114 1.384 . S
C1113 C1112 1.377 . S
C1113 C1119 1.390 . S
C1114 H1105 0.930 . S
C1114 C1112 1.384 . S
C1114 C1115 1.372 . S
C1115 C1114 1.372 . S
C1115 C1116 1.400 . S
C1115 C1120 1.490 . S
C1116 H1106 0.930 . S
C1116 C1115 1.400 . S
C1116 C1119 1.386 . S
H1117 C1133 0.930 . S
H1118 C1134 0.931 . S
C1119 H1107 0.929 . S
C1119 C1113 1.390 . S
C1119 C1116 1.386 . S
C1120 C1115 1.490 . S
C1120 C1122 1.395 . S
C1120 C1123 1.403 . S
H1121 C1127 0.930 . S
C1122 H1108 0.930 . S
C1122 C1120 1.395 . S
C1122 C1125 1.403 . S
C1123 C1120 1.403 . S
C1123 C1124 1.524 . S
C1123 C1127 1.400 . S
C1124 H1109 0.960 . S
C1124 H1110 0.960 . S
C1124 H1111 0.960 . S
C1124 C1123 1.524 . S
C1125 C1122 1.403 . S
C1125 C1126 1.392 . S
C1125 C1129 1.495 . S
C1126 C1125 1.392 . S
C1126 C1127 1.385 . S
C1126 C1128 1.478 . S
C1127 H1121 0.930 . S
C1127 C1123 1.400 . S
C1127 C1126 1.385 . S
C1128 C1126 1.478 . S
C1128 C1130 1.381 . S
C1128 C1134 1.383 . S
C1129 C1125 1.495 . S
C1129 H1135 0.959 . S
C1129 H1136 0.961 . S
C1129 H1137 0.960 . S
C1130 C1128 1.381 . S
C1130 C1131 1.394 . S
C1130 H1138 0.930 . S
C1131 C1130 1.394 . S
C1131 C1132 1.383 . S
C1131 H1139 0.929 . S
C1132 C1131 1.383 . S
C1132 C1133 1.377 . S
C1133 H1117 0.930 . S
C1133 C1132 1.377 . S
C1133 C1134 1.379 . S
C1134 H1118 0.931 . S
C1134 C1128 1.383 . S
C1134 C1133 1.379 . S
H1135 C1129 0.959 . S
H1136 C1129 0.961 . S
H1137 C1129 0.960 . S
H1138 C1130 0.930 . S
H1139 C1131 0.929 . S
H1140 C1148 0.929 . S
H1141 C1150 0.930 . S
H1142 C1152 0.930 . S
H1143 C1155 0.929 . S
H1144 C1158 0.930 . S
H1145 C1160 0.960 . S
H1146 C1160 0.960 . S
H1147 C1160 0.960 . S
C1148 H1140 0.929 . S
C1148 C1149 1.377 . S
C1148 C1150 1.384 . S
C1149 C1148 1.377 . S
C1149 C1155 1.390 . S
C1150 H1141 0.930 . S
C1150 C1148 1.384 . S
C1150 C1151 1.372 . S
C1151 C1150 1.372 . S
C1151 C1152 1.400 . S
C1151 C1156 1.490 . S
C1152 H1142 0.930 . S
C1152 C1151 1.400 . S
C1152 C1155 1.386 . S
H1153 C1169 0.930 . S
H1154 C1170 0.931 . S
C1155 H1143 0.929 . S
C1155 C1149 1.390 . S
C1155 C1152 1.386 . S
C1156 C1151 1.490 . S
C1156 C1158 1.395 . S
C1156 C1159 1.403 . S
H1157 C1163 0.930 . S
C1158 H1144 0.930 . S
C1158 C1156 1.395 . S
C1158 C1161 1.403 . S
C1159 C1156 1.403 . S
C1159 C1160 1.524 . S
C1159 C1163 1.400 . S
C1160 H1145 0.960 . S
C1160 H1146 0.960 . S
C1160 H1147 0.960 . S
C1160 C1159 1.524 . S
C1161 C1158 1.403 . S
C1161 C1162 1.392 . S
C1161 C1165 1.495 . S
C1162 C1161 1.392 . S
C1162 C1163 1.385 . S
C1162 C1164 1.478 . S
C1163 H1157 0.930 . S
C1163 C1159 1.400 . S
C1163 C1162 1.385 . S
C1164 C1162 1.478 . S
C1164 C1166 1.381 . S
C1164 C1170 1.383 . S
C1165 C1161 1.495 . S
C1165 H1171 0.959 . S
C1165 H1172 0.961 . S
C1165 H1173 0.960 . S
C1166 C1164 1.381 . S
C1166 C1167 1.394 . S
C1166 H1174 0.930 . S
C1167 C1166 1.394 . S
C1167 C1168 1.383 . S
C1167 H1175 0.929 . S
C1168 C1167 1.383 . S
C1168 C1169 1.377 . S
C1169 H1153 0.930 . S
C1169 C1168 1.377 . S
C1169 C1170 1.379 . S
C1170 H1154 0.931 . S
C1170 C1164 1.383 . S
C1170 C1169 1.379 . S
H1171 C1165 0.959 . S
H1172 C1165 0.961 . S
H1173 C1165 0.960 . S
H1174 C1166 0.930 . S
H1175 C1167 0.929 . S
C321 C6 1.442 . S
C340 C167 1.448 . S
C357 C21 1.505 . S
C376 C207 1.533 . S
C412 C241 1.518 . S
C393 C49 1.441 . S
C429 C68 2.371 . S
C448 C282 2.409 1_655 S
C484 C202 2.441 . S
C465 C2 2.395 . S
C520 C162 1.758 1_565 S
C501 C30 1.708 . S
C556 C290 1.245 1_655 S
C537 C40 1.307 . S
C592 C251 1.617 . S
C573 C63 1.681 . S
C609 C11 1.083 . S
C628 C287 1.158 . S
C664 C210 2.251 . S
C645 C44 2.328 . S
C681 C59 1.945 . S
C700 C170 1.919 1_565 S
C717 C25 2.030 . S
C736 C238 2.058 . S
C772 C158 1.717 . S
C753 C82 1.745 . S
C789 C101 1.089 . S
C808 C198 1.087 . S
C825 C125 1.783 . S
C844 C250 1.907 . S
C861 C144 1.969 . S
C880 C291 1.933 . S
C897 C87 1.128 . S
C916 C211 1.182 1_565 S
C952 C171 2.949 . S
C933 C97 2.861 . S
C988 C281 1.296 . S
C969 C120 1.290 . S
C1024 C242 1.582 . S
C1005 C135 1.597 . S
C1041 C78 1.782 . S
C1060 C278 1.807 . S
C1096 C201 1.421 . S
C1077 C116 1.427 . S
C1132 C161 2.654 . S
C1113 C139 2.735 . S
C1149 C106 1.225 . S
C1168 C247 1.490 . S
