# Generated by pormake.
# Topology pyr, (3,6)-cn, num edge types: 1
# Building blocks:
#     Node 0, Type 0, BuildingBlock: PAMTOO_clean_linker_0, # of connection points: 3
#     Node 1, Type 0, BuildingBlock: PAMTOO_clean_linker_0, # of connection points: 3
#     Node 2, Type 0, BuildingBlock: PAMTOO_clean_linker_0, # of connection points: 3
#     Node 3, Type 0, BuildingBlock: PAMTOO_clean_linker_0, # of connection points: 3
#     Node 4, Type 0, BuildingBlock: PAMTOO_clean_linker_0, # of connection points: 3
#     Node 5, Type 0, BuildingBlock: PAMTOO_clean_linker_0, # of connection points: 3
#     Node 6, Type 0, BuildingBlock: PAMTOO_clean_linker_0, # of connection points: 3
#     Node 7, Type 0, BuildingBlock: PAMTOO_clean_linker_0, # of connection points: 3
#     Node 8, Type 1, BuildingBlock: GEDQOX_clean_sbu_0, # of connection points: 6
#     Node 9, Type 1, BuildingBlock: GEDQOX_clean_sbu_0, # of connection points: 6
#     Node 10, Type 1, BuildingBlock: GEDQOX_clean_sbu_0, # of connection points: 6
#     Node 11, Type 1, BuildingBlock: GEDQOX_clean_sbu_0, # of connection points: 6
#     Edge 12, Type (0, 1), BuildingBlock: OJICUG_clean_linker_0, # of connection points: 2
#     Edge 13, Type (0, 1), BuildingBlock: OJICUG_clean_linker_0, # of connection points: 2
#     Edge 14, Type (0, 1), BuildingBlock: OJICUG_clean_linker_0, # of connection points: 2
#     Edge 15, Type (0, 1), BuildingBlock: OJICUG_clean_linker_0, # of connection points: 2
#     Edge 16, Type (0, 1), BuildingBlock: OJICUG_clean_linker_0, # of connection points: 2
#     Edge 17, Type (0, 1), BuildingBlock: OJICUG_clean_linker_0, # of connection points: 2
#     Edge 18, Type (0, 1), BuildingBlock: OJICUG_clean_linker_0, # of connection points: 2
#     Edge 19, Type (0, 1), BuildingBlock: OJICUG_clean_linker_0, # of connection points: 2
#     Edge 20, Type (0, 1), BuildingBlock: OJICUG_clean_linker_0, # of connection points: 2
#     Edge 21, Type (0, 1), BuildingBlock: OJICUG_clean_linker_0, # of connection points: 2
#     Edge 22, Type (0, 1), BuildingBlock: OJICUG_clean_linker_0, # of connection points: 2
#     Edge 23, Type (0, 1), BuildingBlock: OJICUG_clean_linker_0, # of connection points: 2
#     Edge 24, Type (0, 1), BuildingBlock: OJICUG_clean_linker_0, # of connection points: 2
#     Edge 25, Type (0, 1), BuildingBlock: OJICUG_clean_linker_0, # of connection points: 2
#     Edge 26, Type (0, 1), BuildingBlock: OJICUG_clean_linker_0, # of connection points: 2
#     Edge 27, Type (0, 1), BuildingBlock: OJICUG_clean_linker_0, # of connection points: 2
#     Edge 28, Type (0, 1), BuildingBlock: OJICUG_clean_linker_0, # of connection points: 2
#     Edge 29, Type (0, 1), BuildingBlock: OJICUG_clean_linker_0, # of connection points: 2
#     Edge 30, Type (0, 1), BuildingBlock: OJICUG_clean_linker_0, # of connection points: 2
#     Edge 31, Type (0, 1), BuildingBlock: OJICUG_clean_linker_0, # of connection points: 2
#     Edge 32, Type (0, 1), BuildingBlock: OJICUG_clean_linker_0, # of connection points: 2
#     Edge 33, Type (0, 1), BuildingBlock: OJICUG_clean_linker_0, # of connection points: 2
#     Edge 34, Type (0, 1), BuildingBlock: OJICUG_clean_linker_0, # of connection points: 2
#     Edge 35, Type (0, 1), BuildingBlock: OJICUG_clean_linker_0, # of connection points: 2
# Relax obj value: 0.236
# Max RMSD: 0.237
# Mean RMSD: 0.156
data_MOF--net-pyr--node1-GEDQOX_clean_sbu_0--node2-PAMTOO_clean_linker_0--edge1-OJICUG_clean_linker_0
_symmetry_space_group_name_H-M    P1
_symmetry_Int_Tables_number       1
_symmetry_cell_setting            triclinic
loop_
_symmetry_equiv_pos_as_xyz
'x, y, z'
_cell_length_a     28.523584
_cell_length_b     29.26472
_cell_length_c     25.682631
_cell_angle_alpha  88.831693
_cell_angle_beta   92.76338
_cell_angle_gamma 89.73337
loop_
_atom_site_label
_atom_site_type_symbol
_atom_site_fract_x
_atom_site_fract_y
_atom_site_fract_z
_atom_type_partial_charge
H0 H 0.15027 0.25042 0.25926 0.0
H1 H 0.25712 0.14485 0.26198 0.0
H2 H 0.2582 0.25349 0.14622 0.0
H3 H 0.2929 0.15467 0.10977 0.0
C4 C 0.31444 0.1452 0.1456 0.0
O5 O 0.30639 0.17954 0.18329 0.0
H6 H 0.29961 0.11266 0.16031 0.0
C7 C 0.18082 0.23558 0.24306 0.0
C8 C 0.20047 0.25883 0.19898 0.0
C9 C 0.19956 0.1939 0.26724 0.0
C10 C 0.24074 0.17517 0.24438 0.0
C11 C 0.26266 0.19583 0.20026 0.0
C12 C 0.24161 0.23747 0.1788 0.0
H13 H 0.39019 0.86692 0.79927 0.0
H14 H 0.42104 0.7462 0.71402 0.0
H15 H 0.51967 0.79293 0.83217 0.0
H16 H 0.56892 0.74899 0.74794 0.0
C17 C 0.53703 0.7352 0.72731 0.0
O18 O 0.50229 0.73038 0.76267 0.0
H19 H 0.52597 0.75978 0.69532 0.0
C20 C 0.41327 0.83837 0.79236 0.0
C21 C 0.45643 0.83409 0.82084 0.0
C22 C 0.40023 0.80694 0.75375 0.0
C23 C 0.43039 0.77041 0.74411 0.0
C24 C 0.47303 0.76518 0.77294 0.0
C25 C 0.48592 0.79675 0.81131 0.0
H26 H 0.84838 0.3772 0.91631 0.0
H27 H 0.7926 0.37855 0.75698 0.0
H28 H 0.90841 0.46408 0.79951 0.0
H29 H 0.85242 0.50062 0.68291 0.0
C30 C 0.82986 0.48269 0.7108 0.0
O31 O 0.85023 0.44097 0.72439 0.0
H32 H 0.8284 0.50528 0.74514 0.0
C33 C 0.84911 0.38994 0.87644 0.0
C34 C 0.88191 0.42351 0.8632 0.0
C35 C 0.81718 0.37285 0.83806 0.0
C36 C 0.81766 0.39038 0.78672 0.0
C37 C 0.85026 0.42349 0.77345 0.0
C38 C 0.88282 0.43906 0.81111 0.0
H39 H 0.90414 0.86489 0.40705 0.0
H40 H 0.90301 0.7913 0.26461 0.0
H41 H 0.95537 0.92835 0.26804 0.0
H42 H 0.8649 0.87506 0.18453 0.0
C43 C 0.89706 0.85863 0.17029 0.0
O44 O 0.93363 0.8592 0.20779 0.0
H45 H 0.90731 0.87886 0.13562 0.0
C46 C 0.91174 0.86329 0.36618 0.0
C47 C 0.93381 0.90039 0.34198 0.0
C48 C 0.89929 0.82429 0.33819 0.0
C49 C 0.90948 0.82243 0.28554 0.0
C50 C 0.92696 0.86078 0.25955 0.0
C51 C 0.93932 0.89981 0.2878 0.0
H52 H 0.85457 0.97838 0.82977 0.0
H53 H 0.85634 0.87325 0.95129 0.0
H54 H 0.96786 0.87883 0.8444 0.0
H55 H 0.95138 0.78341 0.87592 0.0
C56 C 0.9381 0.78679 0.91563 0.0
O57 O 0.93832 0.83413 0.92785 0.0
H58 H 0.9009 0.77561 0.91252 0.0
C59 C 0.87097 0.9488 0.84899 0.0
C60 C 0.91438 0.93167 0.82915 0.0
C61 C 0.84841 0.92879 0.89349 0.0
C62 C 0.87153 0.88926 0.91775 0.0
C63 C 0.91429 0.86999 0.89991 0.0
C64 C 0.93471 0.89219 0.85625 0.0
H65 H 0.76806 0.21174 0.25599 0.0
H66 H 0.64972 0.28036 0.17759 0.0
H67 H 0.71903 0.34081 0.31062 0.0
H68 H 0.59405 0.31405 0.26263 0.0
C69 C 0.60761 0.34963 0.25973 0.0
O70 O 0.65104 0.35009 0.23808 0.0
H71 H 0.58249 0.36924 0.23344 0.0
C72 C 0.74399 0.24053 0.25206 0.0
C73 C 0.748 0.27638 0.28753 0.0
C74 C 0.70856 0.24146 0.21216 0.0
C75 C 0.67777 0.2791 0.2076 0.0
C76 C 0.68138 0.31457 0.24303 0.0
C77 C 0.71633 0.3132 0.28319 0.0
H78 H 0.30038 0.70258 0.18602 0.0
H79 H 0.27594 0.61423 0.31894 0.0
H80 H 0.39457 0.70234 0.32224 0.0
H81 H 0.38476 0.58351 0.33102 0.0
C82 C 0.37299 0.59236 0.37037 0.0
O83 O 0.35294 0.6355 0.37004 0.0
H84 H 0.34571 0.5672 0.3808 0.0
C85 C 0.30969 0.69004 0.22513 0.0
C86 C 0.34907 0.70855 0.25247 0.0
C87 C 0.28295 0.65516 0.24819 0.0
C88 C 0.29607 0.64005 0.2993 0.0
C89 C 0.33693 0.65593 0.32489 0.0
C90 C 0.36298 0.69033 0.30185 0.0
H91 H 0.21559 0.24052 0.7683 0.0
H92 H 0.34907 0.2329 0.8546 0.0
H93 H 0.29886 0.11718 0.77014 0.0
H94 H 0.40099 0.11687 0.77313 0.0
C95 C 0.40651 0.1451 0.80107 0.0
O96 O 0.36721 0.14921 0.8303 0.0
H97 H 0.43686 0.13498 0.82761 0.0
C98 C 0.24744 0.222 0.78022 0.0
C99 C 0.25303 0.17659 0.7646 0.0
C100 C 0.28156 0.24262 0.81344 0.0
C101 C 0.32194 0.21759 0.82976 0.0
C102 C 0.32797 0.17263 0.81412 0.0
C103 C 0.29354 0.15206 0.78204 0.0
Nd104 Nd 0.09125 1.02325 0.55105 0.0
Nd105 Nd 1.03251 0.10325 0.55284 0.0
C106 C 0.14264 0.94988 0.53396 0.0
C107 C 0.17177 0.91879 0.56744 0.0
C108 C 0.19482 0.88179 0.54601 0.0
C109 C 0.22735 0.85579 0.57669 0.0
C110 C 0.23759 0.86678 0.62917 0.0
C111 C 0.2127 0.90287 0.6508 0.0
C112 C 0.18 0.92843 0.62028 0.0
C113 C 0.12118 0.08097 0.62892 0.0
C114 C 1.01381 1.01941 0.6439 0.0
C115 C 0.98021 0.17664 0.56561 0.0
C116 C 0.95359 0.20492 0.52664 0.0
C117 C 0.91726 0.23354 0.54133 0.0
C118 C 0.88658 0.25378 0.50326 0.0
C119 C 0.89138 0.24498 0.44998 0.0
C120 C 0.92944 0.2179 0.43573 0.0
C121 C 0.9603 0.19836 0.47363 0.0
C122 C 1.00337 0.04159 0.47857 0.0
C123 C 0.10735 0.10676 0.45806 0.0
O124 O 0.09741 0.94835 0.53962 0.0
O125 O 0.15827 0.99164 0.53076 0.0
O126 O 0.1196 0.03699 0.63352 0.0
O127 O 0.10778 0.09398 0.58333 0.0
O128 O 1.04137 0.99413 0.6152 0.0
O129 O 1.00936 0.06386 0.63087 0.0
O130 O 1.02593 0.17809 0.56393 0.0
O131 O 0.96462 0.13498 0.57029 0.0
O132 O 1.00285 0.08525 0.47001 0.0
O133 O 1.01679 0.03235 0.52473 0.0
O134 O 0.08041 0.13214 0.48709 0.0
O135 O 0.11249 0.06254 0.47188 0.0
H136 H 0.18875 0.87389 0.50521 0.0
H137 H 0.24526 0.82781 0.55896 0.0
H138 H 0.22004 0.913 0.69066 0.0
H139 H 0.16255 0.95695 0.63745 0.0
H140 H 0.91151 0.23879 0.58217 0.0
H141 H 0.85828 0.27511 0.51571 0.0
H142 H 0.93409 0.2095 0.39545 0.0
H143 H 0.98805 0.17613 0.46156 0.0
Nd144 Nd 0.58333 1.01114 0.06178 0.0
Nd145 Nd 0.58073 0.06138 0.98421 0.0
C146 C 0.58113 0.93988 0.12748 0.0
C147 C 0.54464 0.90806 0.14494 0.0
C148 C 0.55028 0.86098 0.1376 0.0
C149 C 0.51564 0.83019 0.15203 0.0
C150 C 0.47472 0.84581 0.17453 0.0
C151 C 0.46907 0.89299 0.1819 0.0
C152 C 0.50356 0.92386 0.16701 0.0
C153 C 0.50471 0.07118 0.07607 0.0
C154 C 0.52693 0.97337 0.96049 0.0
C155 C 0.57782 0.13348 0.91975 0.0
C156 C 0.61246 0.16755 0.90397 0.0
C157 C 0.60039 0.21407 0.90324 0.0
C158 C 0.63397 0.24725 0.89291 0.0
C159 C 0.68009 0.23437 0.88269 0.0
C160 C 0.69193 0.18769 0.88265 0.0
C161 C 0.6585 0.15455 0.8936 0.0
C162 C 0.66127 1.00414 0.96973 0.0
C163 C 0.64336 0.09598 0.08288 0.0
O164 O 0.59166 0.93681 0.07896 0.0
O165 O 0.57915 0.98216 0.14222 0.0
O166 O 0.53907 0.06191 0.1094 0.0
O167 O 0.51434 0.0512 0.03337 0.0
O168 O 0.55549 0.96137 0.99964 0.0
O169 O 0.52261 1.01682 0.94923 0.0
O170 O 0.56666 0.13507 0.96822 0.0
O171 O 0.58343 0.09171 0.90439 0.0
O172 O 0.62759 1.01415 0.93572 0.0
O173 O 0.65027 1.02206 1.01319 0.0
O174 O 0.61499 0.10935 0.04407 0.0
O175 O 0.64429 0.05268 0.09589 0.0
H176 H 0.58155 0.84798 0.12053 0.0
H177 H 0.52133 0.79403 0.1465 0.0
H178 H 0.43776 0.90608 0.19879 0.0
H179 H 0.49791 0.96002 0.17258 0.0
H180 H 0.56515 0.22476 0.91156 0.0
H181 H 0.62384 0.28298 0.89271 0.0
H182 H 0.72735 0.17688 0.87536 0.0
H183 H 0.66892 0.11888 0.89483 0.0
Nd184 Nd 0.55703 0.47345 0.5631 0.0
Nd185 Nd 0.63703 0.53327 0.52037 0.0
C186 C 0.4865 0.41866 0.58312 0.0
C187 C 0.47104 0.38802 0.62477 0.0
C188 C 0.42525 0.37097 0.62174 0.0
C189 C 0.41252 0.33511 0.65482 0.0
C190 C 0.44558 0.31548 0.69123 0.0
C191 C 0.49066 0.3347 0.6963 0.0
C192 C 0.50328 0.37072 0.66332 0.0
C193 C 0.64355 0.46414 0.61473 0.0
C194 C 0.57802 0.5712 0.61427 0.0
C195 C 0.71773 0.56617 0.49106 0.0
C196 C 0.74301 0.60779 0.47724 0.0
C197 C 0.79202 0.60819 0.48419 0.0
C198 C 0.8177 0.64469 0.46472 0.0
C199 C 0.79464 0.68122 0.43777 0.0
C200 C 0.7453 0.68159 0.43287 0.0
C201 C 0.71964 0.64515 0.45254 0.0
C202 C 0.54787 0.56118 0.48778 0.0
C203 C 0.60608 0.44344 0.45615 0.0
O204 O 0.48481 0.46283 0.59052 0.0
O205 O 0.52458 0.40555 0.56114 0.0
O206 O 0.60455 0.46279 0.63846 0.0
O207 O 0.63551 0.4679 0.56653 0.0
O208 O 0.54384 0.5433 0.59902 0.0
O209 O 0.62092 0.56697 0.5974 0.0
O210 O 0.68358 0.55393 0.45842 0.0
O211 O 0.70874 0.55917 0.54017 0.0
O212 O 0.58275 0.58939 0.49347 0.0
O213 O 0.56215 0.52073 0.49402 0.0
O214 O 0.64064 0.47158 0.46803 0.0
O215 O 0.56785 0.44168 0.48319 0.0
H216 H 0.39995 0.38393 0.59215 0.0
H217 H 0.37722 0.32173 0.65067 0.0
H218 H 0.51706 0.32028 0.72366 0.0
H219 H 0.53893 0.3834 0.66604 0.0
H220 H 0.81056 0.57944 0.50297 0.0
H221 H 0.85566 0.64335 0.46879 0.0
H222 H 0.72661 0.70969 0.413 0.0
H223 H 0.68174 0.64545 0.44698 0.0
Nd224 Nd 1.04169 0.52861 0.1048 0.0
Nd225 Nd 0.1125 0.53733 0.03167 0.0
C226 C 0.96191 0.53511 0.15243 0.0
C227 C 0.92976 0.57497 0.15456 0.0
C228 C 0.90721 0.59329 0.10871 0.0
C229 C 0.8882 0.63744 0.10793 0.0
C230 C 0.89135 0.66388 0.15278 0.0
C231 C 0.90913 0.64396 0.19987 0.0
C232 C 0.9281 0.59975 0.20079 0.0
C233 C 0.12229 0.56778 0.14592 0.0
C234 C 1.03885 0.62382 1.02544 0.0
C235 C 0.18916 0.53452 0.97814 0.0
C236 C 0.20824 0.49765 0.94685 0.0
C237 C 0.25407 0.48132 0.95757 0.0
C238 C 0.27021 0.44276 0.93233 0.0
C239 C 0.24079 0.4201 0.89576 0.0
C240 C 0.19555 0.43756 0.88377 0.0
C241 C 0.17937 0.47575 0.90916 0.0
C242 C 1.03229 0.49951 0.98904 0.0
C243 C 0.11451 0.4405 0.11059 0.0
O244 O 0.96506 0.51592 0.10714 0.0
O245 O 1.00296 0.54002 0.1764 0.0
O246 O 0.1001 0.53508 0.16879 0.0
O247 O 0.10265 0.57868 0.10242 0.0
O248 O 1.01478 0.59431 0.05399 0.0
O249 O 0.08309 0.61265 1.01705 0.0
O250 O 0.1897 0.52688 1.02851 0.0
O251 O 0.14981 0.55301 0.96005 0.0
O252 O 0.0567 0.53009 0.96593 0.0
O253 O 1.05091 0.48804 0.03288 0.0
O254 O 0.13753 0.46806 0.07831 0.0
O255 O 0.07225 0.45439 0.12401 0.0
H256 H 0.90735 0.57509 0.07243 0.0
H257 H 0.87404 0.65218 0.07142 0.0
H258 H 0.91195 0.66394 0.23494 0.0
H259 H 0.94487 0.58642 0.23674 0.0
H260 H 0.27685 0.49753 0.98661 0.0
H261 H 0.30538 0.43017 0.94208 0.0
H262 H 0.1718 0.42046 0.85645 0.0
H263 H 0.14359 0.48709 0.90041 0.0
C264 C 0.14744 0.19577 0.35026 0.0
C265 C 0.17636 0.17099 0.3166 0.0
H266 H 0.10459 0.19701 0.41773 0.0
C267 C 0.182 0.12389 0.33155 0.0
H268 H 0.14157 0.23192 0.34327 0.0
C269 C 0.16032 0.10342 0.37601 0.0
C270 C 0.13135 0.12841 0.40918 0.0
H271 H 0.20295 0.10198 0.30834 0.0
H272 H 0.16639 0.0674 0.38429 0.0
C273 C 0.12586 0.17534 0.39453 0.0
C274 C 0.49482 0.85776 0.90617 0.0
C275 C 0.47162 0.86983 0.85835 0.0
H276 H 0.52973 0.88097 0.97621 0.0
C277 C 0.46423 0.91648 0.84585 0.0
H278 H 0.50047 0.8222 0.91731 0.0
C279 C 0.48071 0.95025 0.87979 0.0
C280 C 0.50505 0.93811 0.92688 0.0
H281 H 0.44698 0.92701 0.80904 0.0
H282 H 0.47554 0.98583 0.8684 0.0
C283 C 0.51129 0.8915 0.94006 0.0
C284 C 0.74229 0.47442 0.71743 0.0
C285 C 0.78152 0.47603 0.68644 0.0
H286 H 0.6673 0.46942 0.71883 0.0
C287 C 0.77532 0.47088 0.63241 0.0
H288 H 0.74654 0.47758 0.75935 0.0
C289 C 0.73036 0.46614 0.60938 0.0
C290 C 0.69088 0.46613 0.64005 0.0
H291 H 0.80522 0.47129 0.60796 0.0
H292 H 0.72648 0.46306 0.56742 0.0
C293 C 0.69718 0.46961 0.69436 0.0
C294 C 0.85174 0.78469 0.17755 0.0
C295 C 0.88798 0.80979 0.15534 0.0
H296 H 0.82502 0.71784 0.19548 0.0
C297 C 0.92086 0.78686 0.12633 0.0
H298 H 0.82619 0.8017 0.20039 0.0
C299 C 0.91953 0.73938 0.12261 0.0
C300 C 0.88572 0.71397 0.14842 0.0
H301 H 0.94929 0.80544 0.10925 0.0
H302 H 0.94696 0.72223 0.10265 0.0
C303 C 0.85114 0.73691 0.17497 0.0
C304 C 0.40587 0.12323 0.16283 0.0
C305 C 0.36679 0.13332 0.12801 0.0
H306 H 0.4773 0.09774 0.17495 0.0
C307 C 0.37457 0.12215 0.07505 0.0
H308 H 0.40261 0.12886 0.20402 0.0
C309 C 0.41781 0.10295 0.05801 0.0
C310 C 0.45688 0.09302 0.09275 0.0
H311 H 0.34607 0.12713 0.04608 0.0
H312 H 0.42023 0.0953 1.01716 0.0
C313 C 0.44938 0.10441 0.1457 0.0
C314 C 0.35828 0.81818 0.66681 0.0
C315 C 0.35663 0.81474 0.72125 0.0
H316 H 0.32229 0.83807 0.59503 0.0
C317 C 0.31412 0.82328 0.74466 0.0
H318 H 0.39084 0.81208 0.64795 0.0
C319 C 0.27448 0.8373 0.71436 0.0
C320 C 0.27682 0.84393 0.66011 0.0
H321 H 0.31194 0.82032 0.7866 0.0
H322 H 0.24243 0.84435 0.73373 0.0
C323 C 0.31886 0.83289 0.63653 0.0
C324 C 0.94077 0.41553 0.93969 0.0
C325 C 0.91538 0.44325 0.90265 0.0
H326 H 0.99822 0.4119 0.99729 0.0
C327 C 0.92507 0.49025 0.90013 0.0
H328 H 0.93401 0.37921 0.94261 0.0
C329 C 0.96196 0.50842 0.93026 0.0
C330 C 0.98933 0.48032 0.96459 0.0
H331 H 0.90522 0.51283 0.87326 0.0
H332 H 0.96995 0.54441 0.92559 0.0
C333 C 0.97748 0.4341 0.97083 0.0
C334 C 0.83515 0.7664 0.337 0.0
C335 C 0.87396 0.78636 0.36333 0.0
H336 H 0.77983 0.71754 0.3399 0.0
C337 C 0.88691 0.77116 0.4143 0.0
H338 H 0.82402 0.77771 0.29792 0.0
C339 C 0.86124 0.73697 0.4386 0.0
C340 C 0.822 0.71757 0.41247 0.0
H341 H 0.91691 0.78567 0.43536 0.0
H342 H 0.87168 0.72617 0.47807 0.0
C343 C 0.80943 0.73242 0.36132 0.0
C344 C 0.13174 0.32048 0.18471 0.0
C345 C 0.1783 0.30543 0.17522 0.0
H346 H 0.0763 0.37133 0.17379 0.0
C347 C 0.20287 0.33657 0.14283 0.0
H348 H 0.10947 0.29925 0.20782 0.0
C349 C 0.18278 0.37895 0.12218 0.0
C350 C 0.13653 0.39381 0.13231 0.0
H351 H 0.23856 0.32881 0.13355 0.0
H352 H 0.20415 0.40049 0.09821 0.0
C353 C 0.11184 0.36288 0.16431 0.0
C354 C 0.77765 0.2986 0.81892 0.0
C355 C 0.78318 0.33675 0.85095 0.0
H356 H 0.74074 0.23632 0.80397 0.0
C357 C 0.7551 0.34073 0.89408 0.0
H358 H 0.79908 0.29459 0.78559 0.0
C359 C 0.72146 0.30753 0.90437 0.0
C360 C 0.71583 0.26949 0.87213 0.0
H361 H 0.75849 0.36996 0.91917 0.0
H362 H 0.70004 0.31143 0.93772 0.0
C363 C 0.74451 0.26517 0.82957 0.0
C364 C 0.94901 0.98398 0.35924 0.0
C365 C 0.95321 0.93768 0.37475 0.0
H366 H 0.96166 0.05384 0.38032 0.0
C367 C 0.9758 0.92645 0.42318 0.0
H368 H 0.9318 0.99365 0.32212 0.0
C369 C 0.99209 0.96044 0.45629 0.0
C370 C 0.98693 1.00664 0.44162 0.0
H371 H 0.98081 0.89111 0.43579 0.0
H372 H 1.00852 0.95039 0.49366 0.0
C373 C 0.96584 1.0183 0.39254 0.0
C374 C 0.51092 0.66255 0.68299 0.0
C375 C 0.54751 0.69003 0.70305 0.0
H376 H 0.4918 0.60293 0.64004 0.0
C377 C 0.59412 0.67708 0.69562 0.0
H378 H 0.47466 0.67231 0.68732 0.0
C379 C 0.60403 0.63765 0.66828 0.0
C380 C 0.56749 0.61039 0.64754 0.0
H381 H 0.62295 0.69806 0.70997 0.0
H382 H 0.64038 0.62911 0.6625 0.0
C383 C 0.52081 0.62289 0.6559 0.0
C384 C 0.97057 0.93026 0.74983 0.0
C385 C 0.93919 0.95467 0.78104 0.0
H386 H 1.01696 0.92942 0.68534 0.0
C387 C 0.93301 1.00147 0.76518 0.0
H388 H 0.97706 0.89433 0.75794 0.0
C389 C 0.95659 1.02206 0.72213 0.0
C390 C 0.98799 0.99746 0.69132 0.0
H391 H 0.91021 1.02302 0.78665 0.0
H392 H 0.95001 0.05787 0.71301 0.0
C393 C 0.9939 0.95077 0.7068 0.0
C394 C 0.70002 0.15735 0.1973 0.0
C395 C 0.70115 0.20235 0.17705 0.0
H396 H 0.68095 0.08771 0.18292 0.0
C397 C 0.68978 0.21033 0.12386 0.0
H398 H 0.70847 0.15025 0.23824 0.0
C399 C 0.67383 0.17481 0.09252 0.0
C400 C 0.66915 0.13051 0.11364 0.0
H401 H 0.69127 0.24449 0.10698 0.0
H402 H 0.66319 0.18252 0.0522 0.0
C403 C 0.6842 0.12159 0.16572 0.0
C404 C 0.4234 0.54708 0.43549 0.0
C405 C 0.41506 0.58843 0.40789 0.0
H406 H 0.47188 0.50649 0.4829 0.0
C407 C 0.44971 0.62248 0.40988 0.0
H408 H 0.39769 0.51996 0.43381 0.0
C409 C 0.4923 0.61485 0.43832 0.0
C410 C 0.50114 0.57267 0.46406 0.0
H411 H 0.44455 0.65424 0.38796 0.0
H412 H 0.51906 0.64098 0.43805 0.0
C413 C 0.46594 0.53931 0.46335 0.0
C414 C 0.25414 0.32405 0.80059 0.0
C415 C 0.27413 0.2893 0.83323 0.0
H416 H 0.2288 0.39307 0.79452 0.0
C417 C 0.28578 0.29901 0.88568 0.0
H418 H 0.24548 0.31789 0.75982 0.0
C419 C 0.27663 0.34206 0.90536 0.0
C420 C 0.25538 0.37635 0.87315 0.0
H421 H 0.30053 0.27285 0.91213 0.0
H422 H 0.28442 0.34786 0.94639 0.0
C423 C 0.24479 0.36711 0.82038 0.0
C424 C 0.76529 0.96927 0.88084 0.0
C425 C 0.80099 0.94888 0.91442 0.0
H426 H 0.69648 1.00066 0.87034 0.0
C427 C 0.78969 0.94796 0.96819 0.0
H428 H 0.77034 0.97118 0.83936 0.0
C429 C 0.74636 0.96627 0.98669 0.0
C430 C 0.71053 0.98594 0.95264 0.0
H431 H 0.81486 0.93335 0.99678 0.0
H432 H 0.7407 0.96419 1.02804 0.0
C433 C 0.72179 0.98648 0.8991 0.0
C434 C 0.83202 0.2763 0.31854 0.0
C435 C 0.78456 0.27433 0.32996 0.0
H436 H 0.9032 0.2713 0.34794 0.0
C437 C 0.7722 0.26737 0.38163 0.0
H438 H 0.8421 0.28209 0.27881 0.0
C439 C 0.80697 0.25983 0.42113 0.0
C440 C 0.8548 0.25989 0.4097 0.0
H441 H 0.73561 0.26561 0.39101 0.0
H442 H 0.79609 0.25171 0.46003 0.0
C443 C 0.86685 0.26979 0.35813 0.0
C444 C 0.23293 0.58628 0.22874 0.0
C445 C 0.2427 0.63284 0.2192 0.0
H446 H 0.18696 0.52994 0.2139 0.0
C447 C 0.21329 0.65728 0.18263 0.0
H448 H 0.25551 0.56547 0.25478 0.0
C449 C 0.17472 0.63595 0.15747 0.0
C450 C 0.16423 0.59017 0.1693 0.0
H451 H 0.21927 0.69312 0.17427 0.0
H452 H 0.15229 0.65563 0.13004 0.0
C453 C 0.19382 0.56555 0.20486 0.0
C454 C 0.44211 0.22422 0.79852 0.0
C455 C 0.41773 0.18913 0.77264 0.0
H456 H 0.46951 0.29215 0.79339 0.0
C457 C 0.40098 0.19641 0.7209 0.0
H458 H 0.45441 0.21957 0.83886 0.0
C459 C 0.40941 0.23767 0.69495 0.0
C460 C 0.43447 0.27276 0.72034 0.0
H461 H 0.38136 0.17005 0.70054 0.0
H462 H 0.39708 0.24166 0.65456 0.0
C463 C 0.45059 0.26564 0.77255 0.0
C464 C 0.94313 0.71697 0.98213 0.0
C465 C 0.96682 0.75077 0.95288 0.0
H466 H 0.94535 0.6526 1.02515 0.0
C467 C 1.01584 0.74249 0.94968 0.0
H468 H 0.9055 0.71984 0.98509 0.0
C469 C 1.03919 0.70294 0.97352 0.0
C470 C 1.015 0.66869 1.00174 0.0
H471 H 1.03614 0.76579 0.9266 0.0
H472 H 0.07641 0.69868 0.96854 0.0
C473 C 0.96632 0.67747 1.00542 0.0
C474 C 0.39013 0.78362 0.26022 0.0
C475 C 0.37713 0.74593 0.22977 0.0
H476 H 0.43095 0.84459 0.26664 0.0
C477 C 0.39402 0.74279 0.17949 0.0
H478 H 0.37738 0.78701 0.29903 0.0
C479 C 0.42496 0.77573 0.16098 0.0
C480 C 0.43908 0.81271 0.19215 0.0
H481 H 0.38476 0.71398 0.15532 0.0
H482 H 0.4383 0.77199 0.12251 0.0
C483 C 0.42056 0.81672 0.24155 0.0
C484 C 0.19601 0.17616 0.68645 0.0
C485 C 0.21622 0.15412 0.7314 0.0
H486 H 0.14973 0.17029 0.6183 0.0
C487 C 0.20194 0.10959 0.74399 0.0
H488 H 0.2064 0.21053 0.67582 0.0
C489 C 0.16958 0.0869 0.71153 0.0
C490 C 0.15088 0.10802 0.66543 0.0
H491 H 0.21616 0.09206 0.77886 0.0
H492 H 0.16011 0.05222 0.722 0.0
C493 C 0.16366 0.15321 0.65358 0.0
C494 C 0.57755 0.35885 0.34965 0.0
C495 C 0.60973 0.37156 0.31233 0.0
H496 H 0.55128 0.37134 0.42492 0.0
C497 C 0.64107 0.40736 0.32315 0.0
H498 H 0.55241 0.33195 0.34169 0.0
C499 C 0.64097 0.42931 0.37077 0.0
C500 C 0.60854 0.41696 0.40803 0.0
H501 H 0.66544 0.41876 0.29461 0.0
H502 H 0.66539 0.45704 0.37756 0.0
C503 C 0.57688 0.38139 0.39711 0.0
loop_
_geom_bond_atom_site_label_1
_geom_bond_atom_site_label_2
_geom_bond_distance
_geom_bond_site_symmetry_2
_ccdc_geom_bond_type
H0 C7 0.929 . S
H1 C10 0.930 . S
H2 C12 0.929 . S
H3 C4 0.969 . S
C4 H3 0.969 . S
C4 O5 1.550 . S
C4 H6 0.973 . S
O5 C4 1.550 . S
O5 C11 1.412 . S
H6 C4 0.973 . S
C7 H0 0.929 . S
C7 C8 1.400 . S
C7 C9 1.364 . S
C8 C7 1.400 . S
C8 C12 1.377 . S
C9 C7 1.364 . S
C9 C10 1.374 . S
C10 H1 0.930 . S
C10 C9 1.374 . S
C10 C11 1.383 . S
C11 O5 1.412 . S
C11 C10 1.383 . S
C11 C12 1.394 . S
C12 H2 0.929 . S
C12 C8 1.377 . S
C12 C11 1.394 . S
H13 C20 0.929 . S
H14 C23 0.930 . S
H15 C25 0.929 . S
H16 C17 0.969 . S
C17 H16 0.969 . S
C17 O18 1.550 . S
C17 H19 0.973 . S
O18 C17 1.550 . S
O18 C24 1.412 . S
H19 C17 0.973 . S
C20 H13 0.929 . S
C20 C21 1.400 . S
C20 C22 1.364 . S
C21 C20 1.400 . S
C21 C25 1.377 . S
C22 C20 1.364 . S
C22 C23 1.374 . S
C23 H14 0.930 . S
C23 C22 1.374 . S
C23 C24 1.383 . S
C24 O18 1.412 . S
C24 C23 1.383 . S
C24 C25 1.394 . S
C25 H15 0.929 . S
C25 C21 1.377 . S
C25 C24 1.394 . S
H26 C33 0.929 . S
H27 C36 0.930 . S
H28 C38 0.929 . S
H29 C30 0.969 . S
C30 H29 0.969 . S
C30 O31 1.550 . S
C30 H32 0.973 . S
O31 C30 1.550 . S
O31 C37 1.412 . S
H32 C30 0.973 . S
C33 H26 0.929 . S
C33 C34 1.400 . S
C33 C35 1.364 . S
C34 C33 1.400 . S
C34 C38 1.377 . S
C35 C33 1.364 . S
C35 C36 1.374 . S
C36 H27 0.930 . S
C36 C35 1.374 . S
C36 C37 1.383 . S
C37 O31 1.412 . S
C37 C36 1.383 . S
C37 C38 1.394 . S
C38 H28 0.929 . S
C38 C34 1.377 . S
C38 C37 1.394 . S
H39 C46 0.929 . S
H40 C49 0.930 . S
H41 C51 0.929 . S
H42 C43 0.969 . S
C43 H42 0.969 . S
C43 O44 1.550 . S
C43 H45 0.973 . S
O44 C43 1.550 . S
O44 C50 1.412 . S
H45 C43 0.973 . S
C46 H39 0.929 . S
C46 C47 1.400 . S
C46 C48 1.364 . S
C47 C46 1.400 . S
C47 C51 1.377 . S
C48 C46 1.364 . S
C48 C49 1.374 . S
C49 H40 0.930 . S
C49 C48 1.374 . S
C49 C50 1.383 . S
C50 O44 1.412 . S
C50 C49 1.383 . S
C50 C51 1.394 . S
C51 H41 0.929 . S
C51 C47 1.377 . S
C51 C50 1.394 . S
H52 C59 0.929 . S
H53 C62 0.930 . S
H54 C64 0.929 . S
H55 C56 0.969 . S
C56 H55 0.969 . S
C56 O57 1.550 . S
C56 H58 0.973 . S
O57 C56 1.550 . S
O57 C63 1.412 . S
H58 C56 0.973 . S
C59 H52 0.929 . S
C59 C60 1.400 . S
C59 C61 1.364 . S
C60 C59 1.400 . S
C60 C64 1.377 . S
C61 C59 1.364 . S
C61 C62 1.374 . S
C62 H53 0.930 . S
C62 C61 1.374 . S
C62 C63 1.383 . S
C63 O57 1.412 . S
C63 C62 1.383 . S
C63 C64 1.394 . S
C64 H54 0.929 . S
C64 C60 1.377 . S
C64 C63 1.394 . S
H65 C72 0.929 . S
H66 C75 0.930 . S
H67 C77 0.929 . S
H68 C69 0.969 . S
C69 H68 0.969 . S
C69 O70 1.550 . S
C69 H71 0.973 . S
O70 C69 1.550 . S
O70 C76 1.412 . S
H71 C69 0.973 . S
C72 H65 0.929 . S
C72 C73 1.400 . S
C72 C74 1.364 . S
C73 C72 1.400 . S
C73 C77 1.377 . S
C74 C72 1.364 . S
C74 C75 1.374 . S
C75 H66 0.930 . S
C75 C74 1.374 . S
C75 C76 1.383 . S
C76 O70 1.412 . S
C76 C75 1.383 . S
C76 C77 1.394 . S
C77 H67 0.929 . S
C77 C73 1.377 . S
C77 C76 1.394 . S
H78 C85 0.929 . S
H79 C88 0.930 . S
H80 C90 0.929 . S
H81 C82 0.969 . S
C82 H81 0.969 . S
C82 O83 1.550 . S
C82 H84 0.973 . S
O83 C82 1.550 . S
O83 C89 1.412 . S
H84 C82 0.973 . S
C85 H78 0.929 . S
C85 C86 1.400 . S
C85 C87 1.364 . S
C86 C85 1.400 . S
C86 C90 1.377 . S
C87 C85 1.364 . S
C87 C88 1.374 . S
C88 H79 0.930 . S
C88 C87 1.374 . S
C88 C89 1.383 . S
C89 O83 1.412 . S
C89 C88 1.383 . S
C89 C90 1.394 . S
C90 H80 0.929 . S
C90 C86 1.377 . S
C90 C89 1.394 . S
H91 C98 0.929 . S
H92 C101 0.930 . S
H93 C103 0.929 . S
H94 C95 0.969 . S
C95 H94 0.969 . S
C95 O96 1.550 . S
C95 H97 0.973 . S
O96 C95 1.550 . S
O96 C102 1.412 . S
H97 C95 0.973 . S
C98 H91 0.929 . S
C98 C99 1.400 . S
C98 C100 1.364 . S
C99 C98 1.400 . S
C99 C103 1.377 . S
C100 C98 1.364 . S
C100 C101 1.374 . S
C101 H92 0.930 . S
C101 C100 1.374 . S
C101 C102 1.383 . S
C102 O96 1.412 . S
C102 C101 1.383 . S
C102 C103 1.394 . S
C103 H93 0.929 . S
C103 C99 1.377 . S
C103 C102 1.394 . S
Nd104 C106 2.836 . S
Nd104 O124 2.500 . S
Nd104 O125 2.492 . S
Nd104 O126 2.487 1_565 S
Nd104 O127 2.682 1_565 S
Nd104 O128 2.410 . S
Nd104 O133 2.414 1_455 S
Nd104 O135 2.424 1_565 S
Nd105 C115 2.836 . S
Nd105 O127 2.414 1_655 S
Nd105 O129 2.424 1_545 S
Nd105 O130 2.500 . S
Nd105 O131 2.492 . S
Nd105 O132 2.487 1_545 S
Nd105 O133 2.682 1_545 S
Nd105 O134 2.410 . S
C106 Nd104 2.836 . S
C106 C107 1.498 . S
C106 O124 1.258 . S
C106 O125 1.239 . S
C107 C106 1.498 . S
C107 C108 1.366 . S
C107 C112 1.407 . S
C108 C107 1.366 . S
C108 C109 1.392 . S
C108 H136 0.930 . S
C109 C108 1.392 . S
C109 C110 1.398 . S
C109 H137 0.929 . S
C110 C109 1.398 . S
C110 C111 1.352 . S
C111 C110 1.352 . S
C111 C112 1.384 . S
C111 H138 0.930 . S
C112 C107 1.407 . S
C112 C111 1.384 . S
C112 H139 0.929 . S
C113 O126 1.241 . S
C113 O127 1.273 . S
C114 O128 1.251 1_655 S
C114 O129 1.268 . S
C115 Nd105 2.836 . S
C115 C116 1.498 . S
C115 O130 1.258 . S
C115 O131 1.239 . S
C116 C115 1.498 . S
C116 C117 1.366 . S
C116 C121 1.407 . S
C117 C116 1.366 . S
C117 C118 1.392 . S
C117 H140 0.930 . S
C118 C117 1.392 . S
C118 C119 1.398 . S
C118 H141 0.929 . S
C119 C118 1.398 . S
C119 C120 1.352 . S
C120 C119 1.352 . S
C120 C121 1.384 . S
C120 H142 0.930 . S
C121 C116 1.407 . S
C121 C120 1.384 . S
C121 H143 0.929 . S
C122 O132 1.241 . S
C122 O133 1.273 . S
C123 O134 1.251 1_455 S
C123 O135 1.268 . S
O124 Nd104 2.500 . S
O124 C106 1.258 . S
O125 Nd104 2.492 . S
O125 C106 1.239 . S
O126 Nd104 2.487 1_545 S
O126 C113 1.241 . S
O127 Nd104 2.682 1_545 S
O127 Nd105 2.414 1_455 S
O127 C113 1.273 . S
O128 Nd104 2.410 . S
O128 C114 1.251 1_455 S
O129 Nd105 2.424 1_565 S
O129 C114 1.268 . S
O130 Nd105 2.500 . S
O130 C115 1.258 . S
O131 Nd105 2.492 . S
O131 C115 1.239 . S
O132 Nd105 2.487 1_565 S
O132 C122 1.241 . S
O133 Nd104 2.414 1_655 S
O133 Nd105 2.682 1_565 S
O133 C122 1.273 . S
O134 Nd105 2.410 . S
O134 C123 1.251 1_655 S
O135 Nd104 2.424 1_545 S
O135 C123 1.268 . S
H136 C108 0.930 . S
H137 C109 0.929 . S
H138 C111 0.930 . S
H139 C112 0.929 . S
H140 C117 0.930 . S
H141 C118 0.929 . S
H142 C120 0.930 . S
H143 C121 0.929 . S
Nd144 C146 2.836 . S
Nd144 O164 2.500 . S
Nd144 O165 2.492 . S
Nd144 O166 2.487 1_565 S
Nd144 O167 2.682 1_565 S
Nd144 O168 2.410 1_554 S
Nd144 O173 2.414 1_554 S
Nd144 O175 2.424 1_565 S
Nd145 C155 2.836 . S
Nd145 O167 2.414 1_556 S
Nd145 O169 2.424 1_545 S
Nd145 O170 2.500 . S
Nd145 O171 2.492 . S
Nd145 O172 2.487 . S
Nd145 O173 2.682 1_545 S
Nd145 O174 2.410 1_556 S
C146 Nd144 2.836 . S
C146 C147 1.498 . S
C146 O164 1.258 . S
C146 O165 1.239 . S
C147 C146 1.498 . S
C147 C148 1.366 . S
C147 C152 1.407 . S
C148 C147 1.366 . S
C148 C149 1.392 . S
C148 H176 0.930 . S
C149 C148 1.392 . S
C149 C150 1.398 . S
C149 H177 0.929 . S
C150 C149 1.398 . S
C150 C151 1.352 . S
C151 C150 1.352 . S
C151 C152 1.384 . S
C151 H178 0.930 . S
C152 C147 1.407 . S
C152 C151 1.384 . S
C152 H179 0.929 . S
C153 O166 1.241 . S
C153 O167 1.273 . S
C154 O168 1.251 . S
C154 O169 1.268 . S
C155 Nd145 2.836 . S
C155 C156 1.498 . S
C155 O170 1.258 . S
C155 O171 1.239 . S
C156 C155 1.498 . S
C156 C157 1.366 . S
C156 C161 1.407 . S
C157 C156 1.366 . S
C157 C158 1.392 . S
C157 H180 0.930 . S
C158 C157 1.392 . S
C158 C159 1.398 . S
C158 H181 0.929 . S
C159 C158 1.398 . S
C159 C160 1.352 . S
C160 C159 1.352 . S
C160 C161 1.384 . S
C160 H182 0.930 . S
C161 C156 1.407 . S
C161 C160 1.384 . S
C161 H183 0.929 . S
C162 O172 1.241 1_565 S
C162 O173 1.273 . S
C163 O174 1.251 . S
C163 O175 1.268 . S
O164 Nd144 2.500 . S
O164 C146 1.258 . S
O165 Nd144 2.492 . S
O165 C146 1.239 . S
O166 Nd144 2.487 1_545 S
O166 C153 1.241 . S
O167 Nd144 2.682 1_545 S
O167 Nd145 2.414 1_554 S
O167 C153 1.273 . S
O168 Nd144 2.410 1_556 S
O168 C154 1.251 . S
O169 Nd145 2.424 1_565 S
O169 C154 1.268 . S
O170 Nd145 2.500 . S
O170 C155 1.258 . S
O171 Nd145 2.492 . S
O171 C155 1.239 . S
O172 Nd145 2.487 . S
O172 C162 1.241 1_545 S
O173 Nd144 2.414 1_556 S
O173 Nd145 2.682 1_565 S
O173 C162 1.273 . S
O174 Nd145 2.410 1_554 S
O174 C163 1.251 . S
O175 Nd144 2.424 1_545 S
O175 C163 1.268 . S
H176 C148 0.930 . S
H177 C149 0.929 . S
H178 C151 0.930 . S
H179 C152 0.929 . S
H180 C157 0.930 . S
H181 C158 0.929 . S
H182 C160 0.930 . S
H183 C161 0.929 . S
Nd184 C186 2.836 . S
Nd184 O204 2.500 . S
Nd184 O205 2.492 . S
Nd184 O206 2.487 . S
Nd184 O207 2.682 . S
Nd184 O208 2.410 . S
Nd184 O213 2.414 . S
Nd184 O215 2.424 . S
Nd185 C195 2.836 . S
Nd185 O207 2.414 . S
Nd185 O209 2.424 . S
Nd185 O210 2.500 . S
Nd185 O211 2.492 . S
Nd185 O212 2.487 . S
Nd185 O213 2.682 . S
Nd185 O214 2.410 . S
C186 Nd184 2.836 . S
C186 C187 1.498 . S
C186 O204 1.258 . S
C186 O205 1.239 . S
C187 C186 1.498 . S
C187 C188 1.366 . S
C187 C192 1.407 . S
C188 C187 1.366 . S
C188 C189 1.392 . S
C188 H216 0.930 . S
C189 C188 1.392 . S
C189 C190 1.398 . S
C189 H217 0.929 . S
C190 C189 1.398 . S
C190 C191 1.352 . S
C191 C190 1.352 . S
C191 C192 1.384 . S
C191 H218 0.930 . S
C192 C187 1.407 . S
C192 C191 1.384 . S
C192 H219 0.929 . S
C193 O206 1.241 . S
C193 O207 1.273 . S
C194 O208 1.251 . S
C194 O209 1.268 . S
C195 Nd185 2.836 . S
C195 C196 1.498 . S
C195 O210 1.258 . S
C195 O211 1.239 . S
C196 C195 1.498 . S
C196 C197 1.366 . S
C196 C201 1.407 . S
C197 C196 1.366 . S
C197 C198 1.392 . S
C197 H220 0.930 . S
C198 C197 1.392 . S
C198 C199 1.398 . S
C198 H221 0.929 . S
C199 C198 1.398 . S
C199 C200 1.352 . S
C200 C199 1.352 . S
C200 C201 1.384 . S
C200 H222 0.930 . S
C201 C196 1.407 . S
C201 C200 1.384 . S
C201 H223 0.929 . S
C202 O212 1.241 . S
C202 O213 1.273 . S
C203 O214 1.251 . S
C203 O215 1.268 . S
O204 Nd184 2.500 . S
O204 C186 1.258 . S
O205 Nd184 2.492 . S
O205 C186 1.239 . S
O206 Nd184 2.487 . S
O206 C193 1.241 . S
O207 Nd184 2.682 . S
O207 Nd185 2.414 . S
O207 C193 1.273 . S
O208 Nd184 2.410 . S
O208 C194 1.251 . S
O209 Nd185 2.424 . S
O209 C194 1.268 . S
O210 Nd185 2.500 . S
O210 C195 1.258 . S
O211 Nd185 2.492 . S
O211 C195 1.239 . S
O212 Nd185 2.487 . S
O212 C202 1.241 . S
O213 Nd184 2.414 . S
O213 Nd185 2.682 . S
O213 C202 1.273 . S
O214 Nd185 2.410 . S
O214 C203 1.251 . S
O215 Nd184 2.424 . S
O215 C203 1.268 . S
H216 C188 0.930 . S
H217 C189 0.929 . S
H218 C191 0.930 . S
H219 C192 0.929 . S
H220 C197 0.930 . S
H221 C198 0.929 . S
H222 C200 0.930 . S
H223 C201 0.929 . S
Nd224 C226 2.836 1_455 S
Nd224 O244 2.500 1_455 S
Nd224 O245 2.492 . S
Nd224 O246 2.487 . S
Nd224 O247 2.682 . S
Nd224 O248 2.410 . S
Nd224 O253 2.414 1_454 S
Nd224 O255 2.424 . S
Nd225 C235 2.836 . S
Nd225 O247 2.414 1_556 S
Nd225 O249 2.424 . S
Nd225 O250 2.500 . S
Nd225 O251 2.492 . S
Nd225 O252 2.487 1_455 S
Nd225 O253 2.682 1_455 S
Nd225 O254 2.410 . S
C226 Nd224 2.836 1_655 S
C226 C227 1.498 . S
C226 O244 1.258 . S
C226 O245 1.239 1_655 S
C227 C226 1.498 . S
C227 C228 1.366 . S
C227 C232 1.407 . S
C228 C227 1.366 . S
C228 C229 1.392 . S
C228 H256 0.930 . S
C229 C228 1.392 . S
C229 C230 1.398 . S
C229 H257 0.929 . S
C230 C229 1.398 . S
C230 C231 1.352 . S
C231 C230 1.352 . S
C231 C232 1.384 . S
C231 H258 0.930 . S
C232 C227 1.407 . S
C232 C231 1.384 . S
C232 H259 0.929 1_655 S
C233 O246 1.241 . S
C233 O247 1.273 . S
C234 O248 1.251 1_556 S
C234 O249 1.268 . S
C235 Nd225 2.836 . S
C235 C236 1.498 . S
C235 O250 1.258 . S
C235 O251 1.239 . S
C236 C235 1.498 . S
C236 C237 1.366 . S
C236 C241 1.407 . S
C237 C236 1.366 . S
C237 C238 1.392 . S
C237 H260 0.930 . S
C238 C237 1.392 . S
C238 C239 1.398 . S
C238 H261 0.929 . S
C239 C238 1.398 . S
C239 C240 1.352 . S
C240 C239 1.352 . S
C240 C241 1.384 . S
C240 H262 0.930 . S
C241 C236 1.407 . S
C241 C240 1.384 . S
C241 H263 0.929 . S
C242 O252 1.241 . S
C242 O253 1.273 . S
C243 O254 1.251 1_554 S
C243 O255 1.268 . S
O244 Nd224 2.500 1_655 S
O244 C226 1.258 . S
O245 Nd224 2.492 . S
O245 C226 1.239 1_455 S
O246 Nd224 2.487 . S
O246 C233 1.241 . S
O247 Nd224 2.682 . S
O247 Nd225 2.414 1_554 S
O247 C233 1.273 . S
O248 Nd224 2.410 . S
O248 C234 1.251 1_554 S
O249 Nd225 2.424 . S
O249 C234 1.268 . S
O250 Nd225 2.500 . S
O250 C235 1.258 . S
O251 Nd225 2.492 . S
O251 C235 1.239 . S
O252 Nd225 2.487 1_655 S
O252 C242 1.241 . S
O253 Nd224 2.414 1_656 S
O253 Nd225 2.682 1_655 S
O253 C242 1.273 . S
O254 Nd225 2.410 . S
O254 C243 1.251 1_556 S
O255 Nd224 2.424 . S
O255 C243 1.268 . S
H256 C228 0.930 . S
H257 C229 0.929 . S
H258 C231 0.930 . S
H259 C232 0.929 1_455 S
H260 C237 0.930 . S
H261 C238 0.929 . S
H262 C240 0.930 . S
H263 C241 0.929 . S
C264 C265 1.387 . S
C264 H268 0.950 . S
C264 C273 1.390 . S
C265 C264 1.387 . S
C265 C267 1.387 . S
H266 C273 0.950 . S
C267 C265 1.387 . S
C267 C269 1.390 . S
C267 H271 0.950 . S
H268 C264 0.950 . S
C269 C267 1.390 . S
C269 C270 1.387 . S
C269 H272 0.950 . S
C270 C269 1.387 . S
C270 C273 1.387 . S
H271 C267 0.950 . S
H272 C269 0.950 . S
C273 C264 1.390 . S
C273 H266 0.950 . S
C273 C270 1.387 . S
C274 C275 1.387 . S
C274 H278 0.950 . S
C274 C283 1.390 . S
C275 C274 1.387 . S
C275 C277 1.387 . S
H276 C283 0.950 . S
C277 C275 1.387 . S
C277 C279 1.390 . S
C277 H281 0.950 . S
H278 C274 0.950 . S
C279 C277 1.390 . S
C279 C280 1.387 . S
C279 H282 0.950 . S
C280 C279 1.387 . S
C280 C283 1.387 . S
H281 C277 0.950 . S
H282 C279 0.950 . S
C283 C274 1.390 . S
C283 H276 0.950 . S
C283 C280 1.387 . S
C284 C285 1.387 . S
C284 H288 0.950 . S
C284 C293 1.390 . S
C285 C284 1.387 . S
C285 C287 1.387 . S
H286 C293 0.950 . S
C287 C285 1.387 . S
C287 C289 1.390 . S
C287 H291 0.950 . S
H288 C284 0.950 . S
C289 C287 1.390 . S
C289 C290 1.387 . S
C289 H292 0.950 . S
C290 C289 1.387 . S
C290 C293 1.387 . S
H291 C287 0.950 . S
H292 C289 0.950 . S
C293 C284 1.390 . S
C293 H286 0.950 . S
C293 C290 1.387 . S
C294 C295 1.387 . S
C294 H298 0.950 . S
C294 C303 1.390 . S
C295 C294 1.387 . S
C295 C297 1.387 . S
H296 C303 0.950 . S
C297 C295 1.387 . S
C297 C299 1.390 . S
C297 H301 0.950 . S
H298 C294 0.950 . S
C299 C297 1.390 . S
C299 C300 1.387 . S
C299 H302 0.950 . S
C300 C299 1.387 . S
C300 C303 1.387 . S
H301 C297 0.950 . S
H302 C299 0.950 . S
C303 C294 1.390 . S
C303 H296 0.950 . S
C303 C300 1.387 . S
C304 C305 1.387 . S
C304 H308 0.950 . S
C304 C313 1.390 . S
C305 C304 1.387 . S
C305 C307 1.387 . S
H306 C313 0.950 . S
C307 C305 1.387 . S
C307 C309 1.390 . S
C307 H311 0.950 . S
H308 C304 0.950 . S
C309 C307 1.390 . S
C309 C310 1.387 . S
C309 H312 0.950 . S
C310 C309 1.387 . S
C310 C313 1.387 . S
H311 C307 0.950 . S
H312 C309 0.950 . S
C313 C304 1.390 . S
C313 H306 0.950 . S
C313 C310 1.387 . S
C314 C315 1.387 . S
C314 H318 0.950 . S
C314 C323 1.390 . S
C315 C314 1.387 . S
C315 C317 1.387 . S
H316 C323 0.950 . S
C317 C315 1.387 . S
C317 C319 1.390 . S
C317 H321 0.950 . S
H318 C314 0.950 . S
C319 C317 1.390 . S
C319 C320 1.387 . S
C319 H322 0.950 . S
C320 C319 1.387 . S
C320 C323 1.387 . S
H321 C317 0.950 . S
H322 C319 0.950 . S
C323 C314 1.390 . S
C323 H316 0.950 . S
C323 C320 1.387 . S
C324 C325 1.387 . S
C324 H328 0.950 . S
C324 C333 1.390 . S
C325 C324 1.387 . S
C325 C327 1.387 . S
H326 C333 0.950 . S
C327 C325 1.387 . S
C327 C329 1.390 . S
C327 H331 0.950 . S
H328 C324 0.950 . S
C329 C327 1.390 . S
C329 C330 1.387 . S
C329 H332 0.950 . S
C330 C329 1.387 . S
C330 C333 1.387 . S
H331 C327 0.950 . S
H332 C329 0.950 . S
C333 C324 1.390 . S
C333 H326 0.950 . S
C333 C330 1.387 . S
C334 C335 1.387 . S
C334 H338 0.950 . S
C334 C343 1.390 . S
C335 C334 1.387 . S
C335 C337 1.387 . S
H336 C343 0.950 . S
C337 C335 1.387 . S
C337 C339 1.390 . S
C337 H341 0.950 . S
H338 C334 0.950 . S
C339 C337 1.390 . S
C339 C340 1.387 . S
C339 H342 0.950 . S
C340 C339 1.387 . S
C340 C343 1.387 . S
H341 C337 0.950 . S
H342 C339 0.950 . S
C343 C334 1.390 . S
C343 H336 0.950 . S
C343 C340 1.387 . S
C344 C345 1.387 . S
C344 H348 0.950 . S
C344 C353 1.390 . S
C345 C344 1.387 . S
C345 C347 1.387 . S
H346 C353 0.950 . S
C347 C345 1.387 . S
C347 C349 1.390 . S
C347 H351 0.950 . S
H348 C344 0.950 . S
C349 C347 1.390 . S
C349 C350 1.387 . S
C349 H352 0.950 . S
C350 C349 1.387 . S
C350 C353 1.387 . S
H351 C347 0.950 . S
H352 C349 0.950 . S
C353 C344 1.390 . S
C353 H346 0.950 . S
C353 C350 1.387 . S
C354 C355 1.387 . S
C354 H358 0.950 . S
C354 C363 1.390 . S
C355 C354 1.387 . S
C355 C357 1.387 . S
H356 C363 0.950 . S
C357 C355 1.387 . S
C357 C359 1.390 . S
C357 H361 0.950 . S
H358 C354 0.950 . S
C359 C357 1.390 . S
C359 C360 1.387 . S
C359 H362 0.950 . S
C360 C359 1.387 . S
C360 C363 1.387 . S
H361 C357 0.950 . S
H362 C359 0.950 . S
C363 C354 1.390 . S
C363 H356 0.950 . S
C363 C360 1.387 . S
C364 C365 1.387 . S
C364 H368 0.950 . S
C364 C373 1.390 . S
C365 C364 1.387 . S
C365 C367 1.387 . S
H366 C373 0.950 . S
C367 C365 1.387 . S
C367 C369 1.390 . S
C367 H371 0.950 . S
H368 C364 0.950 . S
C369 C367 1.390 . S
C369 C370 1.387 . S
C369 H372 0.950 . S
C370 C369 1.387 . S
C370 C373 1.387 . S
H371 C367 0.950 . S
H372 C369 0.950 . S
C373 C364 1.390 . S
C373 H366 0.950 . S
C373 C370 1.387 . S
C374 C375 1.387 . S
C374 H378 0.950 . S
C374 C383 1.390 . S
C375 C374 1.387 . S
C375 C377 1.387 . S
H376 C383 0.950 . S
C377 C375 1.387 . S
C377 C379 1.390 . S
C377 H381 0.950 . S
H378 C374 0.950 . S
C379 C377 1.390 . S
C379 C380 1.387 . S
C379 H382 0.950 . S
C380 C379 1.387 . S
C380 C383 1.387 . S
H381 C377 0.950 . S
H382 C379 0.950 . S
C383 C374 1.390 . S
C383 H376 0.950 . S
C383 C380 1.387 . S
C384 C385 1.387 . S
C384 H388 0.950 . S
C384 C393 1.390 . S
C385 C384 1.387 . S
C385 C387 1.387 . S
H386 C393 0.950 . S
C387 C385 1.387 . S
C387 C389 1.390 . S
C387 H391 0.950 . S
H388 C384 0.950 . S
C389 C387 1.390 . S
C389 C390 1.387 . S
C389 H392 0.939 1_565 S
C390 C389 1.387 . S
C390 C393 1.387 . S
H391 C387 0.950 . S
H392 C389 0.939 1_545 S
C393 C384 1.390 . S
C393 H386 0.950 . S
C393 C390 1.387 . S
C394 C395 1.387 . S
C394 H398 0.950 . S
C394 C403 1.390 . S
C395 C394 1.387 . S
C395 C397 1.387 . S
H396 C403 0.950 . S
C397 C395 1.387 . S
C397 C399 1.390 . S
C397 H401 0.950 . S
H398 C394 0.950 . S
C399 C397 1.390 . S
C399 C400 1.387 . S
C399 H402 0.950 . S
C400 C399 1.387 . S
C400 C403 1.387 . S
H401 C397 0.950 . S
H402 C399 0.950 . S
C403 C394 1.390 . S
C403 H396 0.950 . S
C403 C400 1.387 . S
C404 C405 1.387 . S
C404 H408 0.950 . S
C404 C413 1.390 . S
C405 C404 1.387 . S
C405 C407 1.387 . S
H406 C413 0.950 . S
C407 C405 1.387 . S
C407 C409 1.390 . S
C407 H411 0.950 . S
H408 C404 0.950 . S
C409 C407 1.390 . S
C409 C410 1.387 . S
C409 H412 0.950 . S
C410 C409 1.387 . S
C410 C413 1.387 . S
H411 C407 0.950 . S
H412 C409 0.950 . S
C413 C404 1.390 . S
C413 H406 0.950 . S
C413 C410 1.387 . S
C414 C415 1.387 . S
C414 H418 0.950 . S
C414 C423 1.390 . S
C415 C414 1.387 . S
C415 C417 1.387 . S
H416 C423 0.950 . S
C417 C415 1.387 . S
C417 C419 1.390 . S
C417 H421 0.950 . S
H418 C414 0.950 . S
C419 C417 1.390 . S
C419 C420 1.387 . S
C419 H422 0.950 . S
C420 C419 1.387 . S
C420 C423 1.387 . S
H421 C417 0.950 . S
H422 C419 0.950 . S
C423 C414 1.390 . S
C423 H416 0.950 . S
C423 C420 1.387 . S
C424 C425 1.387 . S
C424 H428 0.950 . S
C424 C433 1.390 . S
C425 C424 1.387 . S
C425 C427 1.387 . S
H426 C433 0.950 . S
C427 C425 1.387 . S
C427 C429 1.390 . S
C427 H431 0.950 . S
H428 C424 0.950 . S
C429 C427 1.390 . S
C429 C430 1.387 . S
C429 H432 0.950 . S
C430 C429 1.387 . S
C430 C433 1.387 . S
H431 C427 0.950 . S
H432 C429 0.950 . S
C433 C424 1.390 . S
C433 H426 0.950 . S
C433 C430 1.387 . S
C434 C435 1.387 . S
C434 H438 0.950 . S
C434 C443 1.390 . S
C435 C434 1.387 . S
C435 C437 1.387 . S
H436 C443 0.950 . S
C437 C435 1.387 . S
C437 C439 1.390 . S
C437 H441 0.950 . S
H438 C434 0.950 . S
C439 C437 1.390 . S
C439 C440 1.387 . S
C439 H442 0.950 . S
C440 C439 1.387 . S
C440 C443 1.387 . S
H441 C437 0.950 . S
H442 C439 0.950 . S
C443 C434 1.390 . S
C443 H436 0.950 . S
C443 C440 1.387 . S
C444 C445 1.387 . S
C444 H448 0.950 . S
C444 C453 1.390 . S
C445 C444 1.387 . S
C445 C447 1.387 . S
H446 C453 0.950 . S
C447 C445 1.387 . S
C447 C449 1.390 . S
C447 H451 0.950 . S
H448 C444 0.950 . S
C449 C447 1.390 . S
C449 C450 1.387 . S
C449 H452 0.950 . S
C450 C449 1.387 . S
C450 C453 1.387 . S
H451 C447 0.950 . S
H452 C449 0.950 . S
C453 C444 1.390 . S
C453 H446 0.950 . S
C453 C450 1.387 . S
C454 C455 1.387 . S
C454 H458 0.950 . S
C454 C463 1.390 . S
C455 C454 1.387 . S
C455 C457 1.387 . S
H456 C463 0.950 . S
C457 C455 1.387 . S
C457 C459 1.390 . S
C457 H461 0.950 . S
H458 C454 0.950 . S
C459 C457 1.390 . S
C459 C460 1.387 . S
C459 H462 0.950 . S
C460 C459 1.387 . S
C460 C463 1.387 . S
H461 C457 0.950 . S
H462 C459 0.950 . S
C463 C454 1.390 . S
C463 H456 0.950 . S
C463 C460 1.387 . S
C464 C465 1.387 1_554 S
C464 H468 0.950 . S
C464 C473 1.390 . S
C465 C464 1.387 1_556 S
C465 C467 1.387 . S
H466 C473 0.950 . S
C467 C465 1.387 . S
C467 C469 1.390 . S
C467 H471 0.950 . S
H468 C464 0.950 . S
C469 C467 1.390 . S
C469 C470 1.387 . S
C469 H472 0.950 . S
C470 C469 1.387 . S
C470 C473 1.387 1_556 S
H471 C467 0.950 . S
H472 C469 0.950 . S
C473 C464 1.390 . S
C473 H466 0.950 . S
C473 C470 1.387 1_554 S
C474 C475 1.387 . S
C474 H478 0.950 . S
C474 C483 1.390 . S
C475 C474 1.387 . S
C475 C477 1.387 . S
H476 C483 0.950 . S
C477 C475 1.387 . S
C477 C479 1.390 . S
C477 H481 0.950 . S
H478 C474 0.950 . S
C479 C477 1.390 . S
C479 C480 1.387 . S
C479 H482 0.950 . S
C480 C479 1.387 . S
C480 C483 1.387 . S
H481 C477 0.950 . S
H482 C479 0.950 . S
C483 C474 1.390 . S
C483 H476 0.950 . S
C483 C480 1.387 . S
C484 C485 1.387 . S
C484 H488 0.950 . S
C484 C493 1.390 . S
C485 C484 1.387 . S
C485 C487 1.387 . S
H486 C493 0.950 . S
C487 C485 1.387 . S
C487 C489 1.390 . S
C487 H491 0.950 . S
H488 C484 0.950 . S
C489 C487 1.390 . S
C489 C490 1.387 . S
C489 H492 0.950 . S
C490 C489 1.387 . S
C490 C493 1.387 . S
H491 C487 0.950 . S
H492 C489 0.950 . S
C493 C484 1.390 . S
C493 H486 0.950 . S
C493 C490 1.387 . S
C494 C495 1.387 . S
C494 H498 0.950 . S
C494 C503 1.390 . S
C495 C494 1.387 . S
C495 C497 1.387 . S
H496 C503 0.950 . S
C497 C495 1.387 . S
C497 C499 1.390 . S
C497 H501 0.950 . S
H498 C494 0.950 . S
C499 C497 1.390 . S
C499 C500 1.387 . S
C499 H502 0.950 . S
C500 C499 1.387 . S
C500 C503 1.387 . S
H501 C497 0.950 . S
H502 C499 0.950 . S
C503 C494 1.390 . S
C503 H496 0.950 . S
C503 C500 1.387 . S
C265 C9 3.234 . S
C270 C123 3.202 . S
C275 C21 1.992 . S
C280 C154 2.102 . S
C290 C193 1.064 . S
C285 C30 1.076 . S
C295 C43 0.768 . S
C300 C230 0.791 . S
C310 C153 2.654 . S
C305 C4 2.757 . S
C320 C110 1.604 . S
C315 C22 1.636 . S
C330 C242 1.158 . S
C325 C34 1.219 . S
C340 C199 1.148 . S
C335 C48 1.168 . S
C345 C8 2.380 . S
C350 C243 2.368 . S
C360 C159 1.486 . S
C355 C35 1.519 . S
C365 C47 0.450 . S
C370 C122 0.540 . S
C375 C17 1.877 . S
C380 C194 2.096 . S
C390 C114 2.799 . S
C385 C60 2.822 . S
C395 C74 2.266 . S
C400 C163 2.409 . S
C405 C82 1.115 . S
C410 C202 1.093 . S
C415 C100 0.898 . S
C420 C239 0.888 . S
C425 C61 3.154 . S
C430 C162 3.064 . S
C440 C119 1.292 . S
C435 C73 1.284 . S
C450 C233 1.586 . S
C445 C87 1.617 . S
C460 C190 1.079 . S
C455 C95 1.033 . S
C465 C56 2.427 . S
C470 C234 2.466 1_655 S
C480 C150 1.470 . S
C475 C86 1.467 . S
C490 C113 0.639 . S
C485 C99 0.468 . S
C495 C69 2.042 . S
C500 C203 2.143 . S
