# Generated by pormake.
# Topology anh, (6,3)-cn, num edge types: 1
# Building blocks:
#     Node 0, Type 0, BuildingBlock: BETDAH_clean_sbu_0, # of connection points: 6
#     Node 1, Type 0, BuildingBlock: BETDAH_clean_sbu_0, # of connection points: 6
#     Node 2, Type 0, BuildingBlock: BETDAH_clean_sbu_0, # of connection points: 6
#     Node 3, Type 1, BuildingBlock: VETTIZ_charged_linker_0, # of connection points: 3
#     Node 4, Type 1, BuildingBlock: VETTIZ_charged_linker_0, # of connection points: 3
#     Node 5, Type 1, BuildingBlock: VETTIZ_charged_linker_0, # of connection points: 3
#     Node 6, Type 1, BuildingBlock: VETTIZ_charged_linker_0, # of connection points: 3
#     Node 7, Type 1, BuildingBlock: VETTIZ_charged_linker_0, # of connection points: 3
#     Node 8, Type 1, BuildingBlock: VETTIZ_charged_linker_0, # of connection points: 3
#     Edge 9, Type (0, 1), BuildingBlock: UVAHIK_clean_linker_0, # of connection points: 2
#     Edge 10, Type (0, 1), BuildingBlock: UVAHIK_clean_linker_0, # of connection points: 2
#     Edge 11, Type (0, 1), BuildingBlock: UVAHIK_clean_linker_0, # of connection points: 2
#     Edge 12, Type (0, 1), BuildingBlock: UVAHIK_clean_linker_0, # of connection points: 2
#     Edge 13, Type (0, 1), BuildingBlock: UVAHIK_clean_linker_0, # of connection points: 2
#     Edge 14, Type (0, 1), BuildingBlock: UVAHIK_clean_linker_0, # of connection points: 2
#     Edge 15, Type (0, 1), BuildingBlock: UVAHIK_clean_linker_0, # of connection points: 2
#     Edge 16, Type (0, 1), BuildingBlock: UVAHIK_clean_linker_0, # of connection points: 2
#     Edge 17, Type (0, 1), BuildingBlock: UVAHIK_clean_linker_0, # of connection points: 2
#     Edge 18, Type (0, 1), BuildingBlock: UVAHIK_clean_linker_0, # of connection points: 2
#     Edge 19, Type (0, 1), BuildingBlock: UVAHIK_clean_linker_0, # of connection points: 2
#     Edge 20, Type (0, 1), BuildingBlock: UVAHIK_clean_linker_0, # of connection points: 2
#     Edge 21, Type (0, 1), BuildingBlock: UVAHIK_clean_linker_0, # of connection points: 2
#     Edge 22, Type (0, 1), BuildingBlock: UVAHIK_clean_linker_0, # of connection points: 2
#     Edge 23, Type (0, 1), BuildingBlock: UVAHIK_clean_linker_0, # of connection points: 2
#     Edge 24, Type (0, 1), BuildingBlock: UVAHIK_clean_linker_0, # of connection points: 2
#     Edge 25, Type (0, 1), BuildingBlock: UVAHIK_clean_linker_0, # of connection points: 2
#     Edge 26, Type (0, 1), BuildingBlock: UVAHIK_clean_linker_0, # of connection points: 2
# Relax obj value: 0.168
# Max RMSD: 0.202
# Mean RMSD: 0.153
data_MOF--net-anh--node1-BETDAH_clean_sbu_0--node2-VETTIZ_charged_linker_0--edge1-UVAHIK_clean_linker_0
_symmetry_space_group_name_H-M    P1
_symmetry_Int_Tables_number       1
_symmetry_cell_setting            triclinic
loop_
_symmetry_equiv_pos_as_xyz
'x, y, z'
_cell_length_a     44.485026
_cell_length_b     52.229425
_cell_length_c     82.000347
_cell_angle_alpha  92.67215
_cell_angle_beta   89.187347
_cell_angle_gamma 127.18765
loop_
_atom_site_label
_atom_site_type_symbol
_atom_site_fract_x
_atom_site_fract_y
_atom_site_fract_z
_atom_type_partial_charge
Ho0 Ho 0.09206 0.51309 0.15176 0.0
Ho1 Ho 1.04723 0.53545 0.16497 0.0
C2 C 0.13331 0.59008 0.15959 0.0
C3 C 0.14023 0.50756 0.13796 0.0
C4 C 0.17791 0.51984 0.14408 0.0
C5 C 0.20899 0.53567 0.13374 0.0
C6 C 0.24506 0.54873 0.13983 0.0
C7 C 0.25042 0.54591 0.15633 0.0
C8 C 0.21934 0.5304 0.16668 0.0
C9 C 0.18349 0.51773 0.16066 0.0
C10 C 0.08556 0.51281 0.18453 0.0
C11 C 1.006 0.4594 0.15599 0.0
C12 C 1.00009 0.53931 0.18142 0.0
C13 C 0.9603 0.51418 0.18505 0.0
C14 C 0.9443 0.51646 0.19937 0.0
C15 C 0.90685 0.49153 0.20307 0.0
C16 C 0.8853 0.46384 0.19261 0.0
C17 C 0.90159 0.4617 0.17834 0.0
C18 C 0.93863 0.48669 0.17455 0.0
C19 C 0.05636 0.53789 0.13237 0.0
O20 O 0.13325 0.56758 0.15135 0.0
O21 O 0.10386 0.5829 0.16807 0.0
O22 O 0.11177 0.48477 0.14624 0.0
O23 O 0.13644 0.52952 0.13416 0.0
O24 O 0.08666 0.49202 0.17598 0.0
O25 O 0.09094 0.53395 0.17553 0.0
O26 O 1.00784 0.48118 0.16578 0.0
O27 O 1.03413 0.46766 0.14624 0.0
O28 O 1.00745 0.54634 0.16608 0.0
O29 O 1.02401 0.53616 0.18822 0.0
O30 O 0.05579 0.55883 0.14123 0.0
O31 O 1.04942 0.5156 0.14097 0.0
H32 H 0.20535 0.53798 0.12099 0.0
H33 H 0.26861 0.56033 0.13158 0.0
H34 H 0.22281 0.52813 0.17946 0.0
H35 H 0.16017 0.50634 0.16903 0.0
H36 H 0.96076 0.53743 0.20767 0.0
H37 H 0.89476 0.49381 0.21409 0.0
H38 H 0.88539 0.44097 0.16988 0.0
H39 H 0.95036 0.48443 0.1634 0.0
Ho40 Ho 0.59173 0.00978 0.49366 0.0
Ho41 Ho 0.5419 0.0287 0.48319 0.0
C42 C 0.50109 0.95459 0.4869 0.0
C43 C 0.61946 0.98483 0.5078 0.0
C44 C 0.6105 0.95266 0.50841 0.0
C45 C 0.60748 0.94019 0.52364 0.0
C46 C 0.5994 0.90997 0.52462 0.0
C47 C 0.59443 0.89165 0.51036 0.0
C48 C 0.59739 0.90412 0.4951 0.0
C49 C 0.60515 0.93428 0.49412 0.0
C50 C 0.58738 0.014 0.46127 0.0
C51 C 0.63253 0.08408 0.49007 0.0
C52 C 0.51473 0.05415 0.4691 0.0
C53 C 0.52352 0.0862 0.47056 0.0
C54 C 0.50839 0.0951 0.45927 0.0
C55 C 0.51609 0.12537 0.46088 0.0
C56 C 0.53904 0.14723 0.47385 0.0
C57 C 0.55446 0.13817 0.48502 0.0
C58 C 0.54685 0.10801 0.48336 0.0
C59 C 0.5466 0.02505 0.51563 0.0
O60 O 0.53225 0.96324 0.49453 0.0
O61 O 0.49984 0.97545 0.47901 0.0
O62 O 0.63166 0.99912 0.49396 0.0
O63 O 0.59543 0.98832 0.51477 0.0
O64 O 0.61734 0.02132 0.46869 0.0
O65 O 0.5606 0.00252 0.47109 0.0
O66 O 0.60108 0.07528 0.48269 0.0
O67 O 0.63452 0.06322 0.49755 0.0
O68 O 0.49998 0.03701 0.482 0.0
O69 O 0.54107 0.05303 0.46272 0.0
O70 O 0.51681 0.01821 0.50827 0.0
O71 O 0.57312 0.0361 0.50571 0.0
H72 H 0.61155 0.95395 0.53481 0.0
H73 H 0.59773 0.90118 0.53656 0.0
H74 H 0.59334 0.89043 0.48391 0.0
H75 H 0.60702 0.94317 0.48219 0.0
H76 H 0.49051 0.0786 0.44926 0.0
H77 H 0.5042 0.13168 0.45192 0.0
H78 H 0.57177 0.1541 0.49529 0.0
H79 H 0.55883 0.10153 0.49219 0.0
Ho80 Ho 0.61278 0.55275 0.83379 0.0
Ho81 Ho 0.5608 0.48111 0.84023 0.0
C82 C 0.52181 0.51588 0.83898 0.0
C83 C 0.64336 0.6092 0.82298 0.0
C84 C 0.6334 0.63156 0.82208 0.0
C85 C 0.61842 0.63314 0.80753 0.0
C86 C 0.6097 0.65462 0.80645 0.0
C87 C 0.61602 0.67522 0.81986 0.0
C88 C 0.63114 0.67373 0.8344 0.0
C89 C 0.63978 0.65218 0.8355 0.0
C90 C 0.60701 0.5378 0.86516 0.0
C91 C 0.65191 0.51798 0.83488 0.0
C92 C 0.53146 0.42572 0.85206 0.0
C93 C 0.5401 0.40266 0.8506 0.0
C94 C 0.52707 0.37954 0.86229 0.0
C95 C 0.53511 0.35744 0.86093 0.0
C96 C 0.55627 0.35808 0.8478 0.0
C97 C 0.56959 0.38165 0.83619 0.0
C98 C 0.56171 0.4038 0.83762 0.0
C99 C 0.56668 0.49488 0.80857 0.0
O100 O 0.55405 0.54056 0.83295 0.0
O101 O 0.51897 0.49129 0.84483 0.0
O102 O 0.65054 0.60449 0.83749 0.0
O103 O 0.62347 0.58265 0.81376 0.0
O104 O 0.63815 0.5615 0.85891 0.0
O105 O 0.5805 0.52464 0.85481 0.0
O106 O 0.61909 0.49263 0.84009 0.0
O107 O 0.65575 0.54356 0.82987 0.0
O108 O 0.51891 0.42948 0.83875 0.0
O109 O 0.55679 0.45304 0.85991 0.0
O110 O 0.53628 0.47041 0.81488 0.0
O111 O 0.59317 0.50908 0.81901 0.0
H112 H 0.61368 0.61793 0.7969 0.0
H113 H 0.59872 0.65555 0.79497 0.0
H114 H 0.63609 0.6891 0.84499 0.0
H115 H 0.65158 0.65181 0.84687 0.0
H116 H 0.51067 0.37856 0.87248 0.0
H117 H 0.52493 0.34 0.87023 0.0
H118 H 0.5855 0.38266 0.8258 0.0
H119 H 0.57222 0.42167 0.82852 0.0
C120 C 0.66234 0.11086 0.18405 0.0
C121 C 0.69039 0.14027 0.19233 0.0
C122 C 0.69259 0.14167 0.2095 0.0
C123 C 0.63831 0.08583 0.2101 0.0
C124 C 0.63633 0.08395 0.19322 0.0
C125 C 0.60321 0.05097 0.18677 0.0
H126 H 0.44395 0.90296 0.20402 0.0
C127 C 0.60652 0.05461 0.21615 0.0
C128 C 0.58551 0.03389 0.20258 0.0
H129 H 0.48768 0.9378 0.15621 0.0
H130 H 0.54182 0.98834 0.16861 0.0
H131 H 0.52127 0.92666 0.21935 0.0
H132 H 0.46133 0.96729 0.21988 0.0
H133 H 0.47985 0.97373 0.23968 0.0
H134 H 0.44683 0.93316 0.2313 0.0
H135 H 0.48179 0.91257 0.23233 0.0
H136 H 0.5294 0.94522 0.23885 0.0
C137 C 0.61864 0.03563 0.17664 0.0
C138 C 0.5767 0.05472 0.17701 0.0
C139 C 0.5895 0.04073 0.27741 0.0
C140 C 0.56185 0.01506 0.28681 0.0
C141 C 0.5317 0.98631 0.27876 0.0
C142 C 0.5291 0.98314 0.26169 0.0
C143 C 0.5569 0.009 0.25247 0.0
C144 C 0.58643 0.03717 0.26034 0.0
C145 C 0.61304 0.06221 0.24854 0.0
C146 C 0.59486 0.04419 0.23227 0.0
C147 C 0.56207 0.01316 0.23468 0.0
C148 C 0.65234 0.07002 0.25099 0.0
C149 C 0.6123 0.09142 0.25138 0.0
C150 C 0.46497 0.92159 0.19618 0.0
C151 C 0.4613 0.91675 0.17916 0.0
C152 C 0.48987 0.94117 0.16939 0.0
C153 C 0.52112 0.97044 0.17661 0.0
C154 C 0.52391 0.97508 0.19375 0.0
C155 C 0.49623 0.95052 0.20315 0.0
C156 C 0.50395 0.9585 0.2211 0.0
C157 C 0.54055 0.9922 0.22109 0.0
C158 C 0.55224 0.00219 0.20507 0.0
C159 C 0.50915 0.9345 0.22843 0.0
C160 C 0.47133 0.958 0.22853 0.0
H161 H 0.67015 0.11766 0.23141 0.0
H162 H 0.66006 0.10917 0.17085 0.0
H163 H 0.57288 0.07156 0.18371 0.0
H164 H 0.54812 0.03196 0.17515 0.0
H165 H 0.58859 0.06451 0.16489 0.0
H166 H 0.64457 0.04133 0.18252 0.0
H167 H 0.62602 0.04485 0.16415 0.0
H168 H 0.59868 0.00911 0.17573 0.0
H169 H 0.6128 0.06328 0.28321 0.0
H170 H 0.5103 0.96601 0.28569 0.0
H171 H 0.50547 0.96062 0.25637 0.0
H172 H 0.64948 0.04792 0.25361 0.0
H173 H 0.66802 0.08766 0.26143 0.0
H174 H 0.6699 0.07922 0.24001 0.0
H175 H 0.58462 0.08388 0.25615 0.0
H176 H 0.61558 0.10335 0.23999 0.0
H177 H 0.63443 0.10945 0.26036 0.0
H178 H 0.71428 0.16391 0.21611 0.0
C179 C 0.66691 0.11473 0.21838 0.0
C180 C 0.56988 0.59107 0.53703 0.0
C181 C 0.56883 0.61374 0.5465 0.0
C182 C 0.5728 0.61517 0.5636 0.0
C183 C 0.57803 0.57167 0.56172 0.0
C184 C 0.57423 0.57011 0.54492 0.0
C185 C 0.57461 0.54362 0.53701 0.0
H186 H 0.59245 0.42448 0.5461 0.0
C187 C 0.58173 0.54668 0.56623 0.0
C188 C 0.57971 0.52999 0.55184 0.0
H189 H 0.57179 0.45204 0.50125 0.0
H190 H 0.57162 0.49323 0.51624 0.0
H191 H 0.65259 0.4969 0.56277 0.0
H192 H 0.5329 0.42372 0.56568 0.0
H193 H 0.54731 0.44327 0.58508 0.0
H194 H 0.56574 0.42243 0.57731 0.0
H195 H 0.63152 0.45929 0.57215 0.0
H196 H 0.6404 0.49367 0.58349 0.0
C197 C 0.60878 0.55906 0.52557 0.0
C198 C 0.53602 0.51882 0.52829 0.0
C199 C 0.59612 0.5341 0.62611 0.0
C200 C 0.59779 0.51184 0.63418 0.0
C201 C 0.59802 0.48858 0.6249 0.0
C202 C 0.59626 0.4873 0.60781 0.0
C203 C 0.5938 0.50929 0.59988 0.0
C204 C 0.59378 0.53219 0.60903 0.0
C205 C 0.58935 0.55263 0.59856 0.0
C206 C 0.58662 0.53817 0.58163 0.0
C207 C 0.58954 0.51302 0.58249 0.0
C208 C 0.62548 0.58785 0.6008 0.0
C209 C 0.55222 0.54752 0.60332 0.0
C210 C 0.58841 0.4397 0.53948 0.0
C211 C 0.58274 0.43549 0.52249 0.0
C212 C 0.57638 0.45505 0.51435 0.0
C213 C 0.57634 0.47889 0.52307 0.0
C214 C 0.58214 0.48282 0.54013 0.0
C215 C 0.58768 0.4631 0.54801 0.0
C216 C 0.59127 0.46912 0.56619 0.0
C217 C 0.58783 0.49623 0.568 0.0
C218 C 0.58273 0.50445 0.55273 0.0
C219 C 0.63086 0.48015 0.57158 0.0
C220 C 0.55786 0.43811 0.57409 0.0
H221 H 0.58033 0.59687 0.58427 0.0
H222 H 0.56671 0.58934 0.52387 0.0
H223 H 0.51281 0.51625 0.5353 0.0
H224 H 0.52835 0.49437 0.5273 0.0
H225 H 0.53561 0.52637 0.5159 0.0
H226 H 0.63422 0.58109 0.5316 0.0
H227 H 0.60309 0.5661 0.51411 0.0
H228 H 0.61674 0.54315 0.5224 0.0
H229 H 0.59532 0.55192 0.63297 0.0
H230 H 0.59949 0.47131 0.6309 0.0
H231 H 0.59649 0.46901 0.60145 0.0
H232 H 0.65095 0.58868 0.60203 0.0
H233 H 0.62402 0.5999 0.61198 0.0
H234 H 0.63109 0.6024 0.59022 0.0
H235 H 0.53095 0.52294 0.60772 0.0
H236 H 0.53807 0.5491 0.59288 0.0
H237 H 0.55728 0.565 0.61324 0.0
H238 H 0.57271 0.63273 0.57113 0.0
C239 C 0.57745 0.5944 0.57122 0.0
C240 C 0.1746 0.52053 0.85385 0.0
C241 C 0.20331 0.5215 0.86189 0.0
C242 C 0.20652 0.52562 0.87898 0.0
C243 C 0.15352 0.5276 0.88011 0.0
C244 C 0.14977 0.52355 0.86328 0.0
C245 C 0.1166 0.52241 0.85741 0.0
H246 H 0.97414 0.53304 0.87957 0.0
C247 C 0.12424 0.53017 0.88661 0.0
C248 C 0.10222 0.5274 0.87344 0.0
H249 H 0.9939 0.51245 0.8307 0.0
H250 H 1.04896 0.51748 0.84069 0.0
H251 H 0.98233 0.48615 0.8959 0.0
H252 H 0.05873 0.58772 0.8896 0.0
H253 H 0.06851 0.5824 0.90928 0.0
H254 H 1.022 0.57035 0.90438 0.0
H255 H 0.98018 0.51452 0.90796 0.0
H256 H 1.00858 0.50253 0.91416 0.0
C257 C 0.08708 0.48894 0.84916 0.0
C258 C 0.13132 0.55013 0.84593 0.0
C259 C 0.11755 0.54372 0.94823 0.0
C260 C 0.09469 0.54817 0.95804 0.0
C261 C 0.06794 0.55011 0.95047 0.0
C262 C 0.06358 0.54722 0.93348 0.0
C263 C 0.08617 0.5423 0.9238 0.0
C264 C 0.11297 0.54111 0.93119 0.0
C265 C 0.13525 0.5369 0.91888 0.0
C266 C 0.11664 0.53489 0.90292 0.0
C267 C 0.08781 0.53777 0.90594 0.0
C268 C 0.12866 0.50482 0.92205 0.0
C269 C 0.17707 0.56728 0.92035 0.0
C270 C 0.9898 0.52919 0.87089 0.0
C271 C 0.97884 0.52167 0.85436 0.0
C272 C 1.00137 0.51809 0.84356 0.0
C273 C 1.03316 0.52077 0.8494 0.0
C274 C 1.04258 0.52707 0.86622 0.0
C275 C 1.02077 0.5313 0.87648 0.0
C276 C 1.03281 0.5368 0.89399 0.0
C277 C 0.06543 0.53504 0.89286 0.0
C278 C 0.07193 0.52962 0.8766 0.0
C279 C 0.9994 0.50884 0.90364 0.0
C280 C 1.04599 0.57093 0.89977 0.0
H281 H 0.18639 0.53173 0.90102 0.0
H282 H 0.17137 0.51716 0.84069 0.0
H283 H 0.15573 0.57324 0.8517 0.0
H284 H 0.10975 0.55348 0.84315 0.0
H285 H 0.14078 0.54571 0.83424 0.0
H286 H 0.08172 0.46972 0.85694 0.0
H287 H 0.09713 0.48639 0.83716 0.0
H288 H 0.05959 0.48419 0.84729 0.0
H289 H 0.1387 0.54255 0.95369 0.0
H290 H 1.04973 0.5532 0.95775 0.0
H291 H 1.04238 0.54858 0.92859 0.0
H292 H 0.09897 0.48617 0.9256 0.0
H293 H 0.14731 0.50804 0.93211 0.0
H294 H 0.13278 0.49414 0.91113 0.0
H295 H 0.17951 0.58864 0.92538 0.0
H296 H 0.19096 0.57467 0.90837 0.0
H297 H 0.19369 0.5636 0.92855 0.0
H298 H 0.22825 0.52641 0.88538 0.0
C299 C 0.18208 0.52874 0.88806 0.0
C300 C 0.98015 0.43093 0.46326 0.0
C301 C 0.94943 0.4024 0.45536 0.0
C302 C 0.94652 0.4002 0.43823 0.0
C303 C 1.00359 0.45467 0.43691 0.0
C304 C 1.00676 0.45696 0.45377 0.0
C305 C 1.04022 0.49002 0.45989 0.0
H306 H 0.18446 0.64365 0.44176 0.0
C307 C 1.03456 0.48591 0.43057 0.0
C308 C 0.05617 0.50699 0.44394 0.0
H309 H 0.15393 0.60453 0.48958 0.0
H310 H 0.10399 0.55178 0.47745 0.0
H311 H 0.18027 0.58671 0.4251 0.0
H312 H 0.10105 0.60815 0.42759 0.0
H313 H 0.09941 0.59441 0.40742 0.0
H314 H 0.14304 0.63012 0.41568 0.0
H315 H 0.18405 0.61555 0.41241 0.0
H316 H 0.15655 0.57342 0.40614 0.0
C317 C 0.06795 0.48657 0.46878 0.0
C318 C 1.02546 0.50514 0.47074 0.0
C319 C 1.04576 0.49959 0.36925 0.0
C320 C 0.0711 0.52588 0.35966 0.0
C321 C 0.0999 0.55559 0.36748 0.0
C322 C 0.10352 0.55905 0.38452 0.0
C323 C 0.0781 0.53254 0.39394 0.0
C324 C 1.0498 0.50347 0.38629 0.0
C325 C 1.02527 0.47805 0.39829 0.0
C326 C 1.044 0.49656 0.41439 0.0
C327 C 0.07477 0.52838 0.41173 0.0
C328 C 1.02869 0.45042 0.3951 0.0
C329 C 0.98459 0.46779 0.39649 0.0
C330 C 0.16675 0.62382 0.44966 0.0
C331 C 0.17255 0.62827 0.46663 0.0
C332 C 0.14973 0.60162 0.47646 0.0
C333 C 0.12075 0.57114 0.46939 0.0
C334 C 0.11486 0.56731 0.45234 0.0
C335 C 0.1382 0.59344 0.44283 0.0
C336 C 0.12944 0.58522 0.42494 0.0
C337 C 0.09636 0.54992 0.42515 0.0
C338 C 0.08752 0.53937 0.4412 0.0
C339 C 0.16429 0.59063 0.41658 0.0
C340 C 0.11784 0.60556 0.41841 0.0
H341 H 0.96941 0.42275 0.41598 0.0
H342 H 0.98275 0.43318 0.47646 0.0
H343 H 0.99982 0.50038 0.4651 0.0
H344 H 1.04587 0.53153 0.47229 0.0
H345 H 1.01781 0.49485 0.483 0.0
H346 H 0.06955 0.46829 0.46224 0.0
H347 H 0.05871 0.47881 0.48142 0.0
H348 H 0.09715 0.50897 0.4692 0.0
H349 H 1.02303 0.47654 0.36364 0.0
H350 H 0.12013 0.5761 0.36039 0.0
H351 H 0.12611 0.58226 0.38967 0.0
H352 H 0.05826 0.46021 0.39217 0.0
H353 H 1.01042 0.43428 0.38462 0.0
H354 H 1.02178 0.43588 0.40583 0.0
H355 H 0.98467 0.48751 0.39183 0.0
H356 H 0.97 0.46241 0.40829 0.0
H357 H 0.96726 0.4466 0.38784 0.0
H358 H 0.92311 0.37833 0.43197 0.0
C359 C 0.97344 0.42604 0.42898 0.0
C360 C 0.57602 0.94011 0.78893 0.0
C361 C 0.5721 0.91466 0.77984 0.0
C362 C 0.56992 0.91364 0.76268 0.0
C363 C 0.57545 0.96268 0.76378 0.0
C364 C 0.57728 0.96368 0.78064 0.0
C365 C 0.57975 0.9918 0.78822 0.0
H366 H 0.59362 0.12679 0.77743 0.0
C367 C 0.5774 0.99044 0.75886 0.0
C368 C 0.5797 0.00761 0.7731 0.0
H369 H 0.58663 0.08577 0.82312 0.0
H370 H 0.58207 0.04195 0.80851 0.0
H371 H 0.64843 0.1129 0.7586 0.0
H372 H 0.52859 0.06326 0.76056 0.0
H373 H 0.53713 0.05508 0.74077 0.0
H374 H 0.55772 0.0961 0.74749 0.0
H375 H 0.62472 0.12753 0.75011 0.0
H376 H 0.62999 0.10037 0.73853 0.0
C377 C 0.61739 0.01373 0.79799 0.0
C378 C 0.54419 0.97852 0.7986 0.0
C379 C 0.57672 0.00856 0.69853 0.0
C380 C 0.57645 0.03132 0.6902 0.0
C381 C 0.57783 0.05564 0.6992 0.0
C382 C 0.57962 0.05739 0.7163 0.0
C383 C 0.57964 0.03435 0.72451 0.0
C384 C 0.57793 0.01034 0.71563 0.0
C385 C 0.57635 0.98708 0.72642 0.0
C386 C 0.57771 1.00126 0.74324 0.0
C387 C 0.58002 0.02906 0.74202 0.0
C388 C 0.61193 0.9888 0.72322 0.0
C389 C 0.53835 0.9533 0.72299 0.0
C390 C 0.59162 0.10857 0.78428 0.0
C391 C 0.5911 0.10985 0.80139 0.0
C392 C 0.58728 0.08523 0.8099 0.0
C393 C 0.58466 0.05991 0.8014 0.0
C394 C 0.5853 0.05903 0.78422 0.0
C395 C 0.58835 0.083 0.77599 0.0
C396 C 0.58645 0.0775 0.75779 0.0
C397 C 0.58252 0.04659 0.75635 0.0
C398 C 0.58215 0.03589 0.77183 0.0
C399 C 0.62417 0.10605 0.75075 0.0
C400 C 0.55088 0.07294 0.75118 0.0
H401 H 0.57001 0.93528 0.74155 0.0
H402 H 0.57742 0.94129 0.80214 0.0
H403 H 0.51922 0.95544 0.79306 0.0
H404 H 0.5359 0.99465 0.79931 0.0
H405 H 0.54834 0.97392 0.81116 0.0
H406 H 0.64084 0.01687 0.79089 0.0
H407 H 0.61571 0.00309 0.8097 0.0
H408 H 0.62595 0.03822 0.80062 0.0
H409 H 0.57505 0.9893 0.69188 0.0
H410 H 0.57777 0.07345 0.69298 0.0
H411 H 0.58079 0.07656 0.72244 0.0
H412 H 0.63712 0.0141 0.72172 0.0
H413 H 0.60836 0.97463 0.71189 0.0
H414 H 0.61939 0.98045 0.73343 0.0
H415 H 0.51617 0.95511 0.71859 0.0
H416 H 0.52642 0.9393 0.73408 0.0
H417 H 0.54142 0.93917 0.7135 0.0
H418 H 0.56733 0.89448 0.75544 0.0
C419 C 0.57167 0.93747 0.75462 0.0
C420 C 0.56388 0.37502 0.13348 0.0
C421 C 0.57373 0.3566 0.12561 0.0
C422 C 0.57348 0.35455 0.10837 0.0
C423 C 0.55915 0.39243 0.10736 0.0
C424 C 0.55676 0.39266 0.12418 0.0
C425 C 0.54836 0.41503 0.13076 0.0
H426 H 0.52723 0.52972 0.11648 0.0
C427 C 0.55433 0.41608 0.10149 0.0
C428 C 0.54775 0.42923 0.11518 0.0
H429 H 0.51122 0.48496 0.16211 0.0
H430 H 0.52834 0.45279 0.14924 0.0
H431 H 0.6006 0.53424 0.10403 0.0
H432 H 0.48065 0.46813 0.09663 0.0
H433 H 0.49937 0.46549 0.07825 0.0
H434 H 0.50924 0.50335 0.085 0.0
H435 H 0.57383 0.54258 0.09237 0.0
H436 H 0.59249 0.52301 0.08311 0.0
C437 C 0.58112 0.4408 0.14244 0.0
C438 C 0.50915 0.39466 0.13884 0.0
C439 C 0.57381 0.44386 0.0415 0.0
C440 C 0.5726 0.46608 0.03299 0.0
C441 C 0.56317 0.48433 0.04153 0.0
C442 C 0.55632 0.48145 0.05823 0.0
C443 C 0.5585 0.45985 0.06664 0.0
C444 C 0.56657 0.44112 0.05831 0.0
C445 C 0.56674 0.41901 0.06944 0.0
C446 C 0.55763 0.42785 0.08576 0.0
C447 C 0.55332 0.45202 0.08396 0.0
C448 C 0.60689 0.42801 0.06946 0.0
C449 C 0.53521 0.3838 0.06358 0.0
C450 C 0.52747 0.51309 0.12379 0.0
C451 C 0.51752 0.50971 0.1403 0.0
C452 C 0.51894 0.48816 0.14937 0.0
C453 C 0.52837 0.46919 0.14182 0.0
C454 C 0.53621 0.47172 0.12502 0.0
C455 C 0.53576 0.49354 0.11638 0.0
C456 C 0.54206 0.49172 0.0985 0.0
C457 C 0.54649 0.46515 0.09772 0.0
C458 C 0.54349 0.45373 0.11326 0.0
C459 C 0.57898 0.52455 0.09411 0.0
C460 C 0.50626 0.4819 0.08899 0.0
H461 H 0.56753 0.37052 0.08619 0.0
H462 H 0.56404 0.37742 0.14667 0.0
H463 H 0.49027 0.37027 0.13273 0.0
H464 H 0.49383 0.40506 0.13775 0.0
H465 H 0.51166 0.3915 0.15193 0.0
H466 H 0.6088 0.44927 0.13724 0.0
H467 H 0.57876 0.43089 0.15448 0.0
H468 H 0.58263 0.46258 0.14444 0.0
H469 H 0.58079 0.42936 0.03531 0.0
H470 H 0.56078 0.50084 0.03526 0.0
H471 H 0.54968 0.49632 0.06391 0.0
H472 H 0.62861 0.45461 0.07012 0.0
H473 H 0.61158 0.41844 0.05812 0.0
H474 H 0.61283 0.41941 0.08006 0.0
H475 H 0.51085 0.38156 0.0582 0.0
H476 H 0.52314 0.36711 0.07367 0.0
H477 H 0.54565 0.37517 0.05409 0.0
H478 H 0.58022 0.34005 0.10197 0.0
C479 C 0.56624 0.37235 0.09922 0.0
C480 C 0.32051 0.58772 0.15917 0.0
C481 C 0.2878 0.55705 0.16247 0.0
C482 C 0.35607 0.59646 0.16333 0.0
C483 C 0.40388 0.56504 0.18259 0.0
H484 H 0.46588 0.59951 0.14427 0.0
C485 C 0.47771 0.52804 0.13751 0.0
C486 C 0.50206 0.52624 0.14723 0.0
C487 C 0.46293 0.54354 0.14346 0.0
C488 C 0.44931 0.59036 0.15523 0.0
H489 H 0.26622 0.51212 0.17345 0.0
H490 H 0.3277 0.52643 0.17995 0.0
H491 H 0.41686 0.60588 0.14862 0.0
H492 H 0.52923 0.53869 0.17108 0.0
H493 H 0.502 0.56533 0.18177 0.0
H494 H 0.43409 0.54637 0.18802 0.0
C495 C 0.32649 0.54443 0.17471 0.0
C496 C 0.42127 0.59426 0.15785 0.0
C497 C 0.29105 0.53598 0.17081 0.0
C498 C 0.51061 0.53979 0.16329 0.0
C499 C 0.4953 0.55517 0.16937 0.0
C500 C 0.43168 0.56072 0.17981 0.0
C501 C 0.35958 0.57437 0.17051 0.0
C502 C 0.39646 0.57971 0.17096 0.0
C503 C 0.47163 0.55743 0.15938 0.0
C504 C 0.45278 0.57146 0.16549 0.0
H505 H 0.3186 0.60459 0.15299 0.0
H506 H 0.38083 0.61999 0.16025 0.0
H507 H 0.38622 0.55457 0.19316 0.0
H508 H 0.46932 0.51687 0.12531 0.0
H509 H 0.44364 0.54379 0.13567 0.0
C510 C 0.70182 0.12861 0.49491 0.0
C511 C 0.66581 0.11841 0.49001 0.0
C512 C 0.73338 0.16081 0.49366 0.0
C513 C 0.76492 0.23156 0.47038 0.0
H514 H 0.8467 0.27959 0.50238 0.0
C515 C 0.88204 0.36453 0.46271 0.0
C516 C 0.91916 0.3748 0.46451 0.0
C517 C 0.85189 0.33495 0.46835 0.0
C518 C 0.82416 0.26639 0.49331 0.0
H519 H 0.6345 0.13445 0.48074 0.0
H520 H 0.68905 0.1902 0.4788 0.0
H521 H 0.79244 0.22408 0.50731 0.0
H522 H 0.95438 0.3633 0.47429 0.0
H523 H 0.90136 0.31097 0.48408 0.0
H524 H 0.79634 0.27327 0.45626 0.0
C525 C 0.69321 0.17331 0.48323 0.0
C526 C 0.79313 0.23461 0.49611 0.0
C527 C 0.66185 0.14128 0.48441 0.0
C528 C 0.92591 0.35589 0.47293 0.0
C529 C 0.89558 0.326 0.47849 0.0
C530 C 0.79571 0.26311 0.46759 0.0
C531 C 0.72949 0.18338 0.48751 0.0
C532 C 0.763 0.21695 0.48471 0.0
C533 C 0.85814 0.31472 0.47572 0.0
C534 C 0.82558 0.28108 0.47906 0.0
H535 H 0.70582 0.1116 0.49929 0.0
H536 H 0.76096 0.16775 0.49698 0.0
H537 H 0.74274 0.21842 0.46113 0.0
H538 H 0.87626 0.37883 0.45628 0.0
H539 H 0.8235 0.32738 0.46639 0.0
C540 C 0.5748 0.68956 0.81022 0.0
C541 C 0.60757 0.69859 0.81849 0.0
C542 C 0.56788 0.71197 0.80809 0.0
C543 C 0.59495 0.79169 0.82272 0.0
H544 H 0.56216 0.79207 0.77925 0.0
C545 C 0.59889 0.89698 0.79914 0.0
C546 C 0.57067 0.88915 0.78789 0.0
C547 C 0.60052 0.87291 0.80476 0.0
C548 C 0.57066 0.79202 0.79155 0.0
H549 H 0.65845 0.73818 0.83128 0.0
H550 H 0.64635 0.77733 0.82754 0.0
H551 H 0.57026 0.75159 0.78549 0.0
H552 H 0.52041 0.85001 0.77467 0.0
H553 H 0.52258 0.80799 0.78474 0.0
H554 H 0.59566 0.83247 0.82868 0.0
C555 C 0.6258 0.75279 0.82286 0.0
C556 C 0.57537 0.76878 0.79512 0.0
C557 C 0.63274 0.73035 0.82499 0.0
C558 C 0.54282 0.85672 0.78314 0.0
C559 C 0.54422 0.83271 0.78885 0.0
C560 C 0.59011 0.81498 0.81915 0.0
C561 C 0.59357 0.74397 0.81417 0.0
C562 C 0.58762 0.76833 0.81072 0.0
C563 C 0.57377 0.84058 0.7993 0.0
C564 C 0.57792 0.81542 0.8035 0.0
H565 H 0.55447 0.66513 0.80535 0.0
H566 H 0.54243 0.70425 0.80159 0.0
H567 H 0.60414 0.79181 0.8349 0.0
H568 H 0.6208 0.92185 0.80291 0.0
H569 H 0.62377 0.87986 0.81274 0.0
C570 C 0.82988 0.40569 0.19333 0.0
C571 C 0.84489 0.43827 0.19554 0.0
C572 C 0.79086 0.38187 0.19222 0.0
C573 C 0.7179 0.34685 0.17313 0.0
H574 H 0.64617 0.36155 0.1879 0.0
C575 C 0.62239 0.34797 0.12999 0.0
C576 C 0.58969 0.34394 0.13534 0.0
C577 C 0.64308 0.34362 0.14053 0.0
C578 C 0.66518 0.35619 0.18386 0.0
H579 H 0.83116 0.47129 0.19976 0.0
H580 H 0.7635 0.43027 0.19734 0.0
H581 H 0.70344 0.38442 0.20383 0.0
H582 H 0.55071 0.32849 0.15537 0.0
H583 H 0.5872 0.3211 0.1739 0.0
H584 H 0.68008 0.31932 0.15295 0.0
C585 C 0.78134 0.42263 0.1968 0.0
C586 C 0.6984 0.36976 0.19291 0.0
C587 C 0.8203 0.44635 0.19811 0.0
C588 C 0.57626 0.33249 0.151 0.0
C589 C 0.5971 0.32819 0.16161 0.0
C590 C 0.68446 0.3329 0.16423 0.0
C591 C 0.76617 0.39026 0.19302 0.0
C592 C 0.72639 0.36724 0.187 0.0
C593 C 0.63166 0.33515 0.15672 0.0
C594 C 0.6591 0.33943 0.16884 0.0
H595 H 0.84839 0.39884 0.19157 0.0
H596 H 0.7802 0.35714 0.18973 0.0
H597 H 0.73849 0.34405 0.16816 0.0
H598 H 0.63392 0.35714 0.11812 0.0
H599 H 0.66977 0.34967 0.13635 0.0
C600 C 0.46767 0.8976 0.49499 0.0
C601 C 0.46701 0.92057 0.48704 0.0
C602 C 0.43527 0.86566 0.49537 0.0
C603 C 0.33123 0.81487 0.49029 0.0
H604 H 0.33899 0.74542 0.4818 0.0
C605 C 0.2055 0.6875 0.46848 0.0
C606 C 0.20265 0.66086 0.47366 0.0
C607 C 0.23656 0.71873 0.47307 0.0
C608 C 0.33637 0.76448 0.48451 0.0
H609 H 0.43167 0.92778 0.47319 0.0
H610 H 0.37547 0.87214 0.47371 0.0
H611 H 0.39614 0.80094 0.48363 0.0
H612 H 0.22925 0.6459 0.48825 0.0
H613 H 0.28392 0.70085 0.49639 0.0
H614 H 0.27144 0.77849 0.4908 0.0
C615 C 0.40086 0.8789 0.47986 0.0
C616 C 0.36915 0.79634 0.48551 0.0
C617 C 0.43323 0.9108 0.47945 0.0
C618 C 0.23071 0.66604 0.48416 0.0
C619 C 0.2621 0.69745 0.48867 0.0
C620 C 0.2985 0.78307 0.48929 0.0
C621 C 0.40143 0.85595 0.48786 0.0
C622 C 0.36691 0.82195 0.48809 0.0
C623 C 0.26569 0.72415 0.4829 0.0
C624 C 0.30062 0.75752 0.48606 0.0
H625 H 0.49318 0.90427 0.50099 0.0
H626 H 0.43662 0.84865 0.50174 0.0
H627 H 0.32854 0.83398 0.49265 0.0
H628 H 0.18414 0.68415 0.46045 0.0
H629 H 0.23853 0.73866 0.46827 0.0
C630 C 0.53581 0.30161 0.84964 0.0
C631 C 0.56374 0.33388 0.84594 0.0
C632 C 0.54207 0.27854 0.84701 0.0
C633 C 0.59623 0.26173 0.82117 0.0
H634 H 0.56771 0.19642 0.85183 0.0
C635 C 0.62226 0.16844 0.80632 0.0
C636 C 0.59345 0.13652 0.81003 0.0
C637 C 0.62195 0.19353 0.81268 0.0
C638 C 0.5755 0.2143 0.84306 0.0
H639 H 0.62087 0.36731 0.83727 0.0
H640 H 0.63135 0.32688 0.83234 0.0
H641 H 0.56039 0.23828 0.85918 0.0
H642 H 0.5424 0.10573 0.8237 0.0
H643 H 0.54106 0.14944 0.83452 0.0
H644 H 0.61002 0.23745 0.80479 0.0
C645 C 0.60451 0.31948 0.83716 0.0
C646 C 0.57141 0.23831 0.84731 0.0
C647 C 0.59841 0.3426 0.83992 0.0
C648 C 0.5651 0.13022 0.82078 0.0
C649 C 0.56444 0.15531 0.82698 0.0
C650 C 0.59995 0.23762 0.81686 0.0
C651 C 0.57625 0.28714 0.8405 0.0
C652 C 0.5817 0.26223 0.83639 0.0
C653 C 0.59241 0.18723 0.82269 0.0
C654 C 0.58963 0.21353 0.82772 0.0
H655 H 0.5086 0.29391 0.85408 0.0
H656 H 0.51962 0.25373 0.84952 0.0
H657 H 0.60377 0.27951 0.81238 0.0
H658 H 0.64464 0.1739 0.79817 0.0
H659 H 0.64453 0.21784 0.80946 0.0
C660 C 0.60619 0.85157 0.50178 0.0
C661 C 0.58673 0.85986 0.51153 0.0
C662 C 0.60076 0.82254 0.50373 0.0
C663 C 0.56873 0.76187 0.53456 0.0
H664 H 0.56899 0.71104 0.49861 0.0
C665 C 0.53873 0.64141 0.54578 0.0
C666 C 0.56401 0.63636 0.53897 0.0
C667 C 0.53806 0.66612 0.54061 0.0
C668 C 0.56907 0.72511 0.50876 0.0
H669 H 0.54484 0.84347 0.53033 0.0
H670 H 0.53492 0.79274 0.53358 0.0
H671 H 0.57416 0.75924 0.49308 0.0
H672 H 0.60685 0.65196 0.52073 0.0
H673 H 0.60586 0.69554 0.51166 0.0
H674 H 0.56391 0.72811 0.55026 0.0
C675 C 0.55517 0.80898 0.52473 0.0
C676 C 0.57209 0.75273 0.50561 0.0
C677 C 0.56078 0.83803 0.52285 0.0
C678 C 0.587 0.65529 0.52614 0.0
C679 C 0.58643 0.68021 0.52097 0.0
C680 C 0.56559 0.73433 0.53769 0.0
C681 C 0.5756 0.80111 0.51542 0.0
C682 C 0.57187 0.77141 0.5185 0.0
C683 C 0.56277 0.68652 0.52854 0.0
C684 C 0.5656 0.71553 0.52485 0.0
H685 H 0.62659 0.86802 0.49303 0.0
H686 H 0.61724 0.81744 0.49647 0.0
H687 H 0.56943 0.77605 0.54483 0.0
H688 H 0.52018 0.62679 0.55549 0.0
H689 H 0.51882 0.66981 0.54639 0.0
C690 C 0.72216 0.54567 0.83464 0.0
C691 C 0.68493 0.51714 0.83442 0.0
C692 C 0.75312 0.54478 0.83499 0.0
C693 C 0.7776 0.48877 0.84329 0.0
H694 H 0.87486 0.55816 0.82685 0.0
C695 C 0.91204 0.50161 0.85949 0.0
C696 C 0.94339 0.5169 0.84914 0.0
C697 C 0.88035 0.50022 0.8561 0.0
C698 C 0.84786 0.53824 0.8313 0.0
H699 H 0.6513 0.46515 0.83379 0.0
H700 H 0.70463 0.46338 0.83354 0.0
H701 H 0.82086 0.55848 0.82349 0.0
H702 H 0.96454 0.5413 0.82647 0.0
H703 H 0.90834 0.53769 0.82008 0.0
H704 H 0.80391 0.46768 0.85037 0.0
C705 C 0.71042 0.48672 0.83415 0.0
C706 C 0.81673 0.53871 0.82964 0.0
C707 C 0.67953 0.48767 0.83414 0.0
C708 C 0.94106 0.52934 0.83475 0.0
C709 C 0.90891 0.52765 0.83122 0.0
C710 C 0.80845 0.48803 0.84469 0.0
C711 C 0.7479 0.51527 0.83483 0.0
C712 C 0.78106 0.51419 0.83582 0.0
C713 C 0.87817 0.51346 0.842 0.0
C714 C 0.84441 0.51304 0.83904 0.0
H715 H 0.72743 0.56884 0.83498 0.0
H716 H 0.78115 0.56743 0.8358 0.0
H717 H 0.75117 0.46952 0.84847 0.0
H718 H 0.91221 0.49111 0.87054 0.0
H719 H 0.85802 0.4895 0.86494 0.0
C720 C 0.16793 0.64877 0.16725 0.0
C721 C 0.16735 0.62411 0.15921 0.0
C722 C 0.19983 0.68088 0.16672 0.0
C723 C 0.30247 0.73171 0.15972 0.0
H724 H 0.29032 0.79879 0.15623 0.0
C725 C 0.431 0.8665 0.16105 0.0
C726 C 0.42752 0.88597 0.17204 0.0
C727 C 0.3993 0.8352 0.15656 0.0
C728 C 0.29421 0.78036 0.15724 0.0
H729 H 0.20008 0.61402 0.14428 0.0
H730 H 0.25561 0.67002 0.14332 0.0
H731 H 0.23496 0.74251 0.15451 0.0
H732 H 0.3881 0.8889 0.18618 0.0
H733 H 0.33305 0.83467 0.17838 0.0
H734 H 0.36167 0.76963 0.1628 0.0
C735 C 0.23147 0.66448 0.15015 0.0
C736 C 0.26246 0.74809 0.15631 0.0
C737 C 0.19952 0.63236 0.15065 0.0
C738 C 0.39158 0.87431 0.17773 0.0
C739 C 0.35999 0.84328 0.17317 0.0
C740 C 0.33426 0.76403 0.16065 0.0
C741 C 0.232 0.68916 0.15815 0.0
C742 C 0.2661 0.72337 0.15786 0.0
C743 C 0.36354 0.82303 0.16285 0.0
C744 C 0.33043 0.78876 0.15975 0.0
H745 H 0.14374 0.64335 0.17399 0.0
H746 H 0.19947 0.69919 0.17326 0.0
H747 H 0.3063 0.71332 0.1611 0.0
H748 H 0.45844 0.87488 0.15657 0.0
H749 H 0.40289 0.8203 0.14845 0.0
C750 C 0.51735 0.18196 0.47302 0.0
C751 C 0.5462 0.17902 0.47602 0.0
C752 C 0.52348 0.21141 0.47598 0.0
C753 C 0.58183 0.28586 0.5014 0.0
H754 H 0.54639 0.3191 0.4722 0.0
C755 C 0.61196 0.40774 0.51635 0.0
C756 C 0.58257 0.41 0.51365 0.0
C757 C 0.60977 0.38145 0.50987 0.0
C758 C 0.55615 0.31001 0.48057 0.0
H759 H 0.60473 0.20535 0.48377 0.0
H760 H 0.6151 0.25645 0.4892 0.0
H761 H 0.53787 0.26925 0.46449 0.0
H762 H 0.52843 0.38722 0.50162 0.0
H763 H 0.52397 0.34069 0.49057 0.0
H764 H 0.59905 0.3257 0.51773 0.0
C765 C 0.58761 0.23583 0.48473 0.0
C766 C 0.55134 0.28149 0.47612 0.0
C767 C 0.5816 0.20649 0.48166 0.0
C768 C 0.5516 0.38613 0.50377 0.0
C769 C 0.54914 0.35951 0.49743 0.0
C770 C 0.58633 0.31412 0.50591 0.0
C771 C 0.5585 0.23853 0.48211 0.0
C772 C 0.56418 0.26914 0.4865 0.0
C773 C 0.57782 0.35647 0.50074 0.0
C774 C 0.57364 0.32667 0.49556 0.0
H775 H 0.48959 0.16127 0.46888 0.0
H776 H 0.50037 0.21265 0.47401 0.0
H777 H 0.59139 0.27665 0.50981 0.0
H778 H 0.63635 0.42605 0.52379 0.0
H779 H 0.6329 0.38045 0.51231 0.0
C780 C 0.49085 0.54303 0.83495 0.0
C781 C 0.48831 0.51615 0.83961 0.0
C782 C 0.45929 0.54314 0.83569 0.0
C783 C 0.36429 0.50093 0.85489 0.0
H784 H 0.34755 0.54364 0.82288 0.0
C785 C 0.227 0.48949 0.85517 0.0
C786 C 0.2303 0.51771 0.85335 0.0
C787 C 0.25718 0.48847 0.85156 0.0
C788 C 0.35187 0.53176 0.83199 0.0
H789 H 0.44984 0.46805 0.84844 0.0
H790 H 0.39515 0.46799 0.84945 0.0
H791 H 0.40262 0.54389 0.82077 0.0
H792 H 0.2677 0.56683 0.84598 0.0
H793 H 0.32046 0.56509 0.83942 0.0
H794 H 0.31377 0.48885 0.86613 0.0
C795 C 0.42167 0.48939 0.84555 0.0
C796 C 0.38364 0.53196 0.83082 0.0
C797 C 0.45318 0.48933 0.84487 0.0
C798 C 0.26396 0.54447 0.84706 0.0
C799 C 0.2943 0.54349 0.84343 0.0
C800 C 0.33257 0.50062 0.85601 0.0
C801 C 0.42414 0.51635 0.84107 0.0
C802 C 0.39035 0.51647 0.84224 0.0
C803 C 0.29182 0.51579 0.84617 0.0
C804 C 0.32569 0.51591 0.84457 0.0
H805 H 0.51735 0.5642 0.83085 0.0
H806 H 0.46272 0.56455 0.83231 0.0
H807 H 0.36865 0.48937 0.86418 0.0
H808 H 0.20169 0.46872 0.8603 0.0
H809 H 0.25375 0.46648 0.85353 0.0
C810 C 0.96843 0.40053 0.147 0.0
C811 C 0.97205 0.42533 0.15662 0.0
C812 C 0.93701 0.36831 0.14862 0.0
C813 C 0.86394 0.31706 0.17877 0.0
H814 H 0.81067 0.25428 0.14264 0.0
C815 C 0.72151 0.19833 0.18888 0.0
C816 C 0.71712 0.17024 0.18366 0.0
C817 C 0.75122 0.22812 0.18329 0.0
C818 C 0.82551 0.27155 0.15283 0.0
H819 H 0.94498 0.43548 0.17525 0.0
H820 H 0.8903 0.38026 0.17758 0.0
H821 H 0.86619 0.30925 0.13736 0.0
H822 H 0.7387 0.15088 0.16764 0.0
H823 H 0.79123 0.20351 0.15773 0.0
H824 H 0.82343 0.27992 0.19423 0.0
C825 C 0.9119 0.38534 0.16905 0.0
C826 C 0.85731 0.30297 0.14982 0.0
C827 C 0.9432 0.41723 0.16754 0.0
C828 C 0.74149 0.17222 0.1718 0.0
C829 C 0.7715 0.20228 0.16618 0.0
C830 C 0.83229 0.28599 0.18173 0.0
C831 C 0.90868 0.36033 0.15989 0.0
C832 C 0.87646 0.32625 0.16277 0.0
C833 C 0.77742 0.23063 0.17237 0.0
C834 C 0.81225 0.26301 0.16881 0.0
H835 H 0.99016 0.40591 0.13848 0.0
H836 H 0.93547 0.34962 0.14142 0.0
H837 H 0.8786 0.33399 0.1891 0.0
H838 H 0.70279 0.19739 0.19786 0.0
H839 H 0.75452 0.24944 0.18799 0.0
C840 C 0.06471 0.5165 0.10614 0.0
C841 C 0.06324 0.53966 0.11468 0.0
C842 C 0.07091 0.51824 0.08931 0.0
C843 C 0.06109 0.55151 0.05296 0.0
H844 H 0.12906 0.53653 0.03298 0.0
C845 C 0.09723 0.57322 0.98526 0.0
C846 C 0.09765 0.55003 0.97611 0.0
C847 C 0.09612 0.57309 0.00227 0.0
C848 C 0.10971 0.54047 0.03836 0.0
H849 H 0.0678 0.58307 0.1125 0.0
H850 H 0.07858 0.58613 0.08317 0.0
H851 H 0.12049 0.53348 0.06254 0.0
H852 H 0.09844 0.50914 0.97761 0.0
H853 H 0.09605 0.50863 0.00741 0.0
H854 H 1.04978 0.55807 0.02892 0.0
C855 C 0.07453 0.56643 0.08938 0.0
C856 C 0.10482 0.53873 0.05528 0.0
C857 C 0.06852 0.56476 0.10618 0.0
C858 C 0.09841 0.52744 0.98437 0.0
C859 C 0.09705 0.52718 0.00143 0.0
C860 C 0.06584 0.55312 0.0361 0.0
C861 C 0.07555 0.54308 0.08073 0.0
C862 C 0.08059 0.54441 0.06277 0.0
C863 C 0.09513 0.54963 0.01056 0.0
C864 C 0.09037 0.54783 0.02857 0.0
H865 H 0.06089 0.49697 0.11244 0.0
H866 H 0.07129 0.49979 0.08297 0.0
H867 H 1.04165 0.55538 0.05832 0.0
H868 H 0.09729 0.59127 0.97923 0.0
H869 H 0.09562 0.59123 0.00893 0.0
C870 C 0.54967 0.00517 0.43645 0.0
C871 C 0.58434 0.01641 0.44363 0.0
C872 C 0.54678 0.00689 0.41964 0.0
C873 C 0.60361 0.04788 0.38334 0.0
H874 H 0.51848 0.97315 0.35947 0.0
C875 C 0.59915 0.03214 0.31301 0.0
C876 C 0.56444 0.01794 0.30491 0.0
C877 C 0.60125 0.03362 0.33006 0.0
C878 C 0.54215 0.99441 0.36597 0.0
H879 H 0.64327 0.03863 0.43905 0.0
H880 H 0.63824 0.04142 0.40969 0.0
H881 H 0.52255 0.97279 0.38905 0.0
H882 H 0.50497 0.99525 0.30835 0.0
H883 H 0.50864 0.99795 0.33809 0.0
H884 H 0.62334 0.06942 0.36024 0.0
C885 C 0.61334 0.03157 0.41701 0.0
C886 C 0.54448 0.99419 0.38293 0.0
C887 C 0.61618 0.02977 0.4338 0.0
C888 C 0.53201 0.00583 0.31423 0.0
C889 C 0.53412 0.00736 0.33127 0.0
C890 C 0.60125 0.04813 0.36637 0.0
C891 C 0.57857 0.01997 0.40972 0.0
C892 C 0.57536 0.02082 0.39179 0.0
C893 C 0.56869 0.02101 0.33938 0.0
C894 C 0.57062 0.02131 0.35748 0.0
H895 H 0.52471 0.99486 0.44379 0.0
H896 H 0.5197 0.9981 0.41442 0.0
H897 H 0.62749 0.06896 0.38985 0.0
H898 H 0.62455 0.04134 0.30617 0.0
H899 H 0.62823 0.04388 0.33591 0.0
C900 C 0.60602 0.52593 0.78475 0.0
C901 C 0.57177 0.49962 0.79089 0.0
C902 C 0.611 0.5294 0.76789 0.0
C903 C 0.58112 0.48246 0.72973 0.0
H904 H 0.60851 0.55872 0.70873 0.0
C905 C 0.57141 0.48327 0.66008 0.0
C906 C 0.59752 0.51185 0.65222 0.0
C907 C 0.57029 0.48313 0.67709 0.0
C908 C 0.60155 0.53747 0.71439 0.0
H909 H 0.51586 0.4565 0.78432 0.0
H910 H 0.52502 0.46211 0.7549 0.0
H911 H 0.60361 0.55667 0.73844 0.0
H912 H 0.64327 0.56265 0.65584 0.0
H913 H 0.64246 0.56233 0.68564 0.0
H914 H 0.57998 0.46336 0.70598 0.0
C915 C 0.5478 0.48013 0.76312 0.0
C916 C 0.59858 0.5363 0.73139 0.0
C917 C 0.54256 0.477 0.77992 0.0
C918 C 0.62272 0.54033 0.66166 0.0
C919 C 0.62205 0.54012 0.67872 0.0
C920 C 0.58475 0.48381 0.7128 0.0
C921 C 0.58209 0.50623 0.75696 0.0
C922 C 0.58772 0.50857 0.73914 0.0
C923 C 0.59573 0.5115 0.68667 0.0
C924 C 0.59434 0.51109 0.70484 0.0
H925 H 0.62907 0.54357 0.79295 0.0
H926 H 0.63774 0.54965 0.76338 0.0
H927 H 0.57322 0.46097 0.73549 0.0
H928 H 0.55127 0.4611 0.65306 0.0
H929 H 0.54896 0.4608 0.6827 0.0
C930 C 0.52021 0.0157 0.54356 0.0
C931 C 0.55023 0.02416 0.53337 0.0
C932 C 0.52359 0.01526 0.56043 0.0
C933 C 0.59519 0.04534 0.59369 0.0
H934 H 0.50694 0.98367 0.61856 0.0
C935 C 0.59907 0.02726 0.66278 0.0
C936 C 0.57392 0.02934 0.67218 0.0
C937 C 0.59682 0.02573 0.64573 0.0
C938 C 0.53176 1.00104 0.61174 0.0
H939 H 0.6073 0.03874 0.5327 0.0
H940 H 0.61271 0.0365 0.56207 0.0
H941 H 0.50196 0.98181 0.5889 0.0
H942 H 0.52635 0.03081 0.67131 0.0
H943 H 0.52186 0.02741 0.64145 0.0
H944 H 0.62502 0.0639 0.61668 0.0
C945 C 0.58683 0.031 0.55716 0.0
C946 C 0.52893 1.00016 0.59475 0.0
C947 C 0.58364 0.03195 0.5403 0.0
C948 C 0.5462 0.02944 0.66429 0.0
C949 C 0.54349 0.02729 0.64727 0.0
C950 C 0.59812 0.04582 0.61066 0.0
C951 C 0.5569 0.02279 0.56747 0.0
C952 C 0.56048 0.02261 0.5855 0.0
C953 C 0.56889 0.02559 0.63785 0.0
C954 C 0.56632 0.02396 0.61983 0.0
H955 H 0.49421 0.00979 0.53853 0.0
H956 H 0.50023 0.00952 0.56794 0.0
H957 H 0.61996 0.06335 0.58706 0.0
H958 H 0.62076 0.02725 0.66862 0.0
H959 H 0.61661 0.02432 0.63869 0.0
C960 C 0.56749 0.50536 0.88842 0.0
C961 C 0.60334 0.52664 0.88172 0.0
C962 C 0.56393 0.49524 0.90426 0.0
C963 C 0.61054 0.48436 0.93646 0.0
H964 H 0.55478 0.50075 0.96625 0.0
C965 C 0.56702 0.44413 0.00421 0.0
C966 C 0.58069 0.47055 0.01528 0.0
C967 C 0.57101 0.44845 0.98737 0.0
C968 C 0.57016 0.49584 0.958 0.0
H969 H 0.66348 0.55329 0.88596 0.0
H970 H 0.65717 0.53514 0.91369 0.0
H971 H 0.55793 0.51205 0.93741 0.0
H972 H 0.61201 0.52248 0.01736 0.0
H973 H 0.61747 0.52957 0.98805 0.0
H974 H 0.62266 0.46811 0.95723 0.0
C975 C 0.63194 0.52647 0.90669 0.0
C976 C 0.57184 0.50216 0.94155 0.0
C977 C 0.63554 0.53702 0.89093 0.0
C978 C 0.60014 0.50147 0.00918 0.0
C979 C 0.60356 0.50564 0.99244 0.0
C980 C 0.60822 0.47742 0.95292 0.0
C981 C 0.59612 0.50581 0.91354 0.0
C982 C 0.59247 0.49691 0.93069 0.0
C983 C 0.58836 0.47913 0.98142 0.0
C984 C 0.58851 0.48363 0.96381 0.0
H985 H 0.54224 0.49693 0.88151 0.0
H986 H 0.53602 0.47923 0.90929 0.0
H987 H 0.62651 0.48005 0.92826 0.0
H988 H 0.5518 0.42001 0.0085 0.0
H989 H 0.55909 0.4277 0.97899 0.0
C990 C 0.0734 0.48697 0.21104 0.0
C991 C 0.0815 0.51295 0.20237 0.0
C992 C 0.06975 0.48699 0.22797 0.0
C993 C 1.05243 0.5244 0.26245 0.0
H994 H 0.09942 0.4965 0.28819 0.0
C995 C 0.07358 0.54687 0.33238 0.0
C996 C 0.06814 0.52237 0.34157 0.0
C997 C 0.0726 0.54428 0.31534 0.0
C998 C 0.08568 0.50393 0.28117 0.0
H999 H 0.09225 0.55935 0.20446 0.0
H1000 H 0.08612 0.55956 0.23412 0.0
H1001 H 0.10295 0.49493 0.25853 0.0
H1002 H 0.05692 0.47572 0.34008 0.0
H1003 H 0.05457 0.47094 0.31032 0.0
H1004 H 1.03546 0.53366 0.28514 0.0
C1005 C 0.08206 0.53895 0.22783 0.0
C1006 C 0.08772 0.50306 0.26418 0.0
C1007 C 0.08574 0.53892 0.21088 0.0
C1008 C 0.06095 0.49491 0.33335 0.0
C1009 C 0.06001 0.49233 0.3163 0.0
C1010 C 1.05039 0.52528 0.27946 0.0
C1011 C 0.07417 0.51303 0.23657 0.0
C1012 C 0.07126 0.5134 0.25462 0.0
C1013 C 0.06618 0.51712 0.30711 0.0
C1014 C 0.06713 0.51518 0.28902 0.0
H1015 H 0.06981 0.46657 0.20473 0.0
H1016 H 0.06316 0.46648 0.23432 0.0
H1017 H 1.03898 0.53208 0.25541 0.0
H1018 H 0.07873 0.56815 0.33836 0.0
H1019 H 0.07776 0.56392 0.30862 0.0
loop_
_geom_bond_atom_site_label_1
_geom_bond_atom_site_label_2
_geom_bond_distance
_geom_bond_site_symmetry_2
_ccdc_geom_bond_type
Ho0 C3 2.811 . S
Ho0 O20 2.322 . S
Ho0 O22 2.378 . S
Ho0 O23 2.524 . S
Ho0 O24 2.381 . S
Ho0 O25 2.669 . S
Ho0 O27 2.346 1_455 S
Ho0 O31 2.305 . S
Ho1 C12 2.827 . S
Ho1 O21 2.333 1_655 S
Ho1 O25 2.295 1_655 S
Ho1 O26 2.323 . S
Ho1 O28 2.394 . S
Ho1 O29 2.536 . S
Ho1 O30 2.378 1_655 S
Ho1 O31 2.656 1_655 S
C2 O20 1.259 . S
C2 O21 1.268 . S
C3 Ho0 2.811 . S
C3 C4 1.488 . S
C3 O22 1.215 . S
C3 O23 1.289 . S
C4 C3 1.488 . S
C4 C5 1.348 . S
C4 C9 1.413 . S
C5 C4 1.348 . S
C5 C6 1.442 . S
C5 H32 0.930 . S
C6 C5 1.442 . S
C6 C7 1.381 . S
C6 H33 0.931 . S
C7 C6 1.381 . S
C7 C8 1.321 . S
C8 C7 1.321 . S
C8 C9 1.403 . S
C8 H34 0.934 . S
C9 C4 1.413 . S
C9 C8 1.403 . S
C9 H35 0.930 . S
C10 O24 1.275 . S
C10 O25 1.256 . S
C11 O26 1.259 . S
C11 O27 1.268 . S
C12 Ho1 2.827 . S
C12 C13 1.488 . S
C12 O28 1.215 . S
C12 O29 1.289 . S
C13 C12 1.488 . S
C13 C14 1.348 . S
C13 C18 1.413 . S
C14 C13 1.348 . S
C14 C15 1.442 . S
C14 H36 0.930 . S
C15 C14 1.442 . S
C15 C16 1.381 . S
C15 H37 0.931 . S
C16 C15 1.381 . S
C16 C17 1.321 . S
C17 C16 1.321 . S
C17 C18 1.403 . S
C17 H38 0.934 . S
C18 C13 1.413 . S
C18 C17 1.403 . S
C18 H39 0.930 . S
C19 O30 1.275 . S
C19 O31 1.256 . S
O20 Ho0 2.322 . S
O20 C2 1.259 . S
O21 Ho1 2.333 1_455 S
O21 C2 1.268 . S
O22 Ho0 2.378 . S
O22 C3 1.215 . S
O23 Ho0 2.524 . S
O23 C3 1.289 . S
O24 Ho0 2.381 . S
O24 C10 1.275 . S
O25 Ho0 2.669 . S
O25 Ho1 2.295 1_455 S
O25 C10 1.256 . S
O26 Ho1 2.323 . S
O26 C11 1.259 . S
O27 Ho0 2.346 1_655 S
O27 C11 1.268 . S
O28 Ho1 2.394 . S
O28 C12 1.215 . S
O29 Ho1 2.536 . S
O29 C12 1.289 . S
O30 Ho1 2.378 1_455 S
O30 C19 1.275 . S
O31 Ho0 2.305 . S
O31 Ho1 2.656 1_455 S
O31 C19 1.256 . S
H32 C5 0.930 . S
H33 C6 0.931 . S
H34 C8 0.934 . S
H35 C9 0.930 . S
H36 C14 0.930 . S
H37 C15 0.931 . S
H38 C17 0.934 . S
H39 C18 0.930 . S
Ho40 C43 2.811 . S
Ho40 O60 2.322 . S
Ho40 O62 2.378 . S
Ho40 O63 2.524 . S
Ho40 O64 2.381 . S
Ho40 O65 2.669 1_565 S
Ho40 O67 2.346 1_565 S
Ho40 O71 2.305 1_565 S
Ho41 C52 2.811 . S
Ho41 O61 2.346 1_545 S
Ho41 O65 2.305 . S
Ho41 O66 2.322 . S
Ho41 O68 2.378 . S
Ho41 O69 2.524 . S
Ho41 O70 2.381 . S
Ho41 O71 2.669 . S
C42 O60 1.259 . S
C42 O61 1.268 . S
C43 Ho40 2.811 . S
C43 C44 1.488 . S
C43 O62 1.215 . S
C43 O63 1.289 . S
C44 C43 1.488 . S
C44 C45 1.348 . S
C44 C49 1.413 . S
C45 C44 1.348 . S
C45 C46 1.442 . S
C45 H72 0.930 . S
C46 C45 1.442 . S
C46 C47 1.381 . S
C46 H73 0.931 . S
C47 C46 1.381 . S
C47 C48 1.321 . S
C48 C47 1.321 . S
C48 C49 1.403 . S
C48 H74 0.934 . S
C49 C44 1.413 . S
C49 C48 1.403 . S
C49 H75 0.930 . S
C50 O64 1.275 1_545 S
C50 O65 1.256 . S
C51 O66 1.259 . S
C51 O67 1.268 . S
C52 Ho41 2.811 . S
C52 C53 1.488 . S
C52 O68 1.215 . S
C52 O69 1.289 . S
C53 C52 1.488 . S
C53 C54 1.348 . S
C53 C58 1.413 . S
C54 C53 1.348 . S
C54 C55 1.442 . S
C54 H76 0.930 . S
C55 C54 1.442 . S
C55 C56 1.381 . S
C55 H77 0.931 . S
C56 C55 1.381 . S
C56 C57 1.321 . S
C57 C56 1.321 . S
C57 C58 1.403 . S
C57 H78 0.934 . S
C58 C53 1.413 . S
C58 C57 1.403 . S
C58 H79 0.930 . S
C59 O70 1.275 . S
C59 O71 1.256 . S
O60 Ho40 2.322 . S
O60 C42 1.259 . S
O61 Ho41 2.346 1_565 S
O61 C42 1.268 . S
O62 Ho40 2.378 . S
O62 C43 1.215 . S
O63 Ho40 2.524 . S
O63 C43 1.289 . S
O64 Ho40 2.381 . S
O64 C50 1.275 1_565 S
O65 Ho40 2.669 1_545 S
O65 Ho41 2.305 . S
O65 C50 1.256 . S
O66 Ho41 2.322 . S
O66 C51 1.259 . S
O67 Ho40 2.346 1_545 S
O67 C51 1.268 . S
O68 Ho41 2.378 . S
O68 C52 1.215 . S
O69 Ho41 2.524 . S
O69 C52 1.289 . S
O70 Ho41 2.381 . S
O70 C59 1.275 . S
O71 Ho40 2.305 1_545 S
O71 Ho41 2.669 . S
O71 C59 1.256 . S
H72 C45 0.930 . S
H73 C46 0.931 . S
H74 C48 0.934 . S
H75 C49 0.930 . S
H76 C54 0.930 . S
H77 C55 0.931 . S
H78 C57 0.934 . S
H79 C58 0.930 . S
Ho80 C83 2.811 . S
Ho80 O100 2.322 . S
Ho80 O102 2.378 . S
Ho80 O103 2.524 . S
Ho80 O104 2.381 . S
Ho80 O105 2.669 . S
Ho80 O107 2.346 . S
Ho80 O111 2.305 . S
Ho81 C92 2.811 . S
Ho81 O101 2.346 . S
Ho81 O105 2.305 . S
Ho81 O106 2.322 . S
Ho81 O108 2.378 . S
Ho81 O109 2.524 . S
Ho81 O110 2.381 . S
Ho81 O111 2.669 . S
C82 O100 1.259 . S
C82 O101 1.268 . S
C83 Ho80 2.811 . S
C83 C84 1.488 . S
C83 O102 1.215 . S
C83 O103 1.289 . S
C84 C83 1.488 . S
C84 C85 1.348 . S
C84 C89 1.413 . S
C85 C84 1.348 . S
C85 C86 1.442 . S
C85 H112 0.930 . S
C86 C85 1.442 . S
C86 C87 1.381 . S
C86 H113 0.931 . S
C87 C86 1.381 . S
C87 C88 1.321 . S
C88 C87 1.321 . S
C88 C89 1.403 . S
C88 H114 0.934 . S
C89 C84 1.413 . S
C89 C88 1.403 . S
C89 H115 0.930 . S
C90 O104 1.275 . S
C90 O105 1.256 . S
C91 O106 1.259 . S
C91 O107 1.268 . S
C92 Ho81 2.811 . S
C92 C93 1.488 . S
C92 O108 1.215 . S
C92 O109 1.289 . S
C93 C92 1.488 . S
C93 C94 1.348 . S
C93 C98 1.413 . S
C94 C93 1.348 . S
C94 C95 1.442 . S
C94 H116 0.930 . S
C95 C94 1.442 . S
C95 C96 1.381 . S
C95 H117 0.931 . S
C96 C95 1.381 . S
C96 C97 1.321 . S
C97 C96 1.321 . S
C97 C98 1.403 . S
C97 H118 0.934 . S
C98 C93 1.413 . S
C98 C97 1.403 . S
C98 H119 0.930 . S
C99 O110 1.275 . S
C99 O111 1.256 . S
O100 Ho80 2.322 . S
O100 C82 1.259 . S
O101 Ho81 2.346 . S
O101 C82 1.268 . S
O102 Ho80 2.378 . S
O102 C83 1.215 . S
O103 Ho80 2.524 . S
O103 C83 1.289 . S
O104 Ho80 2.381 . S
O104 C90 1.275 . S
O105 Ho80 2.669 . S
O105 Ho81 2.305 . S
O105 C90 1.256 . S
O106 Ho81 2.322 . S
O106 C91 1.259 . S
O107 Ho80 2.346 . S
O107 C91 1.268 . S
O108 Ho81 2.378 . S
O108 C92 1.215 . S
O109 Ho81 2.524 . S
O109 C92 1.289 . S
O110 Ho81 2.381 . S
O110 C99 1.275 . S
O111 Ho80 2.305 . S
O111 Ho81 2.669 . S
O111 C99 1.256 . S
H112 C85 0.930 . S
H113 C86 0.931 . S
H114 C88 0.934 . S
H115 C89 0.930 . S
H116 C94 0.930 . S
H117 C95 0.931 . S
H118 C97 0.934 . S
H119 C98 0.930 . S
C120 C121 1.391 . S
C120 C124 1.391 . S
C120 H162 0.948 . S
C121 C120 1.391 . S
C121 C122 1.391 . S
C122 C121 1.391 . S
C122 H178 0.947 . S
C122 C179 1.392 . S
C123 C124 1.391 . S
C123 C127 1.397 . S
C123 C179 1.419 . S
C124 C120 1.391 . S
C124 C123 1.391 . S
C124 C125 1.399 . S
C125 C124 1.399 . S
C125 C128 1.396 . S
C125 C137 1.453 . S
C125 C138 1.684 . S
H126 C150 0.948 . S
C127 C123 1.397 . S
C127 C128 1.394 . S
C127 C146 1.723 . S
C128 C125 1.396 . S
C128 C127 1.394 . S
C128 C158 1.723 1_545 S
H129 C152 0.947 . S
H130 C153 0.948 . S
H131 C159 0.982 . S
H132 C160 0.979 . S
H133 C160 0.980 . S
H134 C160 0.983 . S
H135 C159 0.979 . S
H136 C159 0.977 . S
C137 C125 1.453 . S
C137 H166 0.982 . S
C137 H167 0.979 . S
C137 H168 0.984 . S
C138 C125 1.684 . S
C138 H163 0.979 . S
C138 H164 0.980 . S
C138 H165 0.983 . S
C139 C140 1.391 . S
C139 C144 1.391 . S
C139 H169 0.948 . S
C140 C139 1.391 . S
C140 C141 1.391 1_545 S
C141 C140 1.391 1_565 S
C141 C142 1.392 . S
C141 H170 0.947 . S
C142 C141 1.392 . S
C142 C143 1.419 1_565 S
C142 H171 0.948 . S
C143 C142 1.419 1_545 S
C143 C144 1.391 . S
C143 C147 1.397 . S
C144 C139 1.391 . S
C144 C143 1.391 . S
C144 C145 1.399 . S
C145 C144 1.399 . S
C145 C146 1.396 . S
C145 C148 1.453 . S
C145 C149 1.684 . S
C146 C127 1.723 . S
C146 C145 1.396 . S
C146 C147 1.394 . S
C147 C143 1.397 . S
C147 C146 1.394 . S
C147 C157 1.723 1_545 S
C148 C145 1.453 . S
C148 H172 0.982 . S
C148 H173 0.979 . S
C148 H174 0.977 . S
C149 C145 1.684 . S
C149 H175 0.979 . S
C149 H176 0.980 . S
C149 H177 0.983 . S
C150 H126 0.948 . S
C150 C151 1.391 . S
C150 C155 1.391 . S
C151 C150 1.391 . S
C151 C152 1.391 . S
C152 H129 0.947 . S
C152 C151 1.391 . S
C152 C153 1.392 . S
C153 H130 0.948 . S
C153 C152 1.392 . S
C153 C154 1.419 . S
C154 C153 1.419 . S
C154 C155 1.391 . S
C154 C158 1.397 . S
C155 C150 1.391 . S
C155 C154 1.391 . S
C155 C156 1.399 . S
C156 C155 1.399 . S
C156 C157 1.396 . S
C156 C159 1.453 . S
C156 C160 1.684 . S
C157 C147 1.723 1_565 S
C157 C156 1.396 . S
C157 C158 1.394 . S
C158 C128 1.723 1_565 S
C158 C154 1.397 . S
C158 C157 1.394 . S
C159 H131 0.982 . S
C159 H135 0.979 . S
C159 H136 0.977 . S
C159 C156 1.453 . S
C160 H132 0.979 . S
C160 H133 0.980 . S
C160 H134 0.983 . S
C160 C156 1.684 . S
H161 C179 0.948 . S
H162 C120 0.948 . S
H163 C138 0.979 . S
H164 C138 0.980 . S
H165 C138 0.983 . S
H166 C137 0.982 . S
H167 C137 0.979 . S
H168 C137 0.984 . S
H169 C139 0.948 . S
H170 C141 0.947 . S
H171 C142 0.948 . S
H172 C148 0.982 . S
H173 C148 0.979 . S
H174 C148 0.977 . S
H175 C149 0.979 . S
H176 C149 0.980 . S
H177 C149 0.983 . S
H178 C122 0.947 . S
C179 C122 1.392 . S
C179 C123 1.419 . S
C179 H161 0.948 . S
C180 C181 1.391 . S
C180 C184 1.391 . S
C180 H222 0.948 . S
C181 C180 1.391 . S
C181 C182 1.391 . S
C182 C181 1.391 . S
C182 H238 0.947 . S
C182 C239 1.392 . S
C183 C184 1.391 . S
C183 C187 1.397 . S
C183 C239 1.419 . S
C184 C180 1.391 . S
C184 C183 1.391 . S
C184 C185 1.399 . S
C185 C184 1.399 . S
C185 C188 1.396 . S
C185 C197 1.453 . S
C185 C198 1.684 . S
H186 C210 0.948 . S
C187 C183 1.397 . S
C187 C188 1.394 . S
C187 C206 1.723 . S
C188 C185 1.396 . S
C188 C187 1.394 . S
C188 C218 1.723 . S
H189 C212 0.947 . S
H190 C213 0.948 . S
H191 C219 0.982 . S
H192 C220 0.979 . S
H193 C220 0.980 . S
H194 C220 0.983 . S
H195 C219 0.979 . S
H196 C219 0.977 . S
C197 C185 1.453 . S
C197 H226 0.982 . S
C197 H227 0.979 . S
C197 H228 0.977 . S
C198 C185 1.684 . S
C198 H223 0.979 . S
C198 H224 0.980 . S
C198 H225 0.983 . S
C199 C200 1.391 . S
C199 C204 1.391 . S
C199 H229 0.948 . S
C200 C199 1.391 . S
C200 C201 1.391 . S
C201 C200 1.391 . S
C201 C202 1.392 . S
C201 H230 0.947 . S
C202 C201 1.392 . S
C202 C203 1.419 . S
C202 H231 0.948 . S
C203 C202 1.419 . S
C203 C204 1.391 . S
C203 C207 1.397 . S
C204 C199 1.391 . S
C204 C203 1.391 . S
C204 C205 1.399 . S
C205 C204 1.399 . S
C205 C206 1.396 . S
C205 C208 1.453 . S
C205 C209 1.684 . S
C206 C187 1.723 . S
C206 C205 1.396 . S
C206 C207 1.394 . S
C207 C203 1.397 . S
C207 C206 1.394 . S
C207 C217 1.723 . S
C208 C205 1.453 . S
C208 H232 0.982 . S
C208 H233 0.979 . S
C208 H234 0.977 . S
C209 C205 1.684 . S
C209 H235 0.979 . S
C209 H236 0.980 . S
C209 H237 0.983 . S
C210 H186 0.948 . S
C210 C211 1.391 . S
C210 C215 1.391 . S
C211 C210 1.391 . S
C211 C212 1.391 . S
C212 H189 0.947 . S
C212 C211 1.391 . S
C212 C213 1.392 . S
C213 H190 0.948 . S
C213 C212 1.392 . S
C213 C214 1.419 . S
C214 C213 1.419 . S
C214 C215 1.391 . S
C214 C218 1.397 . S
C215 C210 1.391 . S
C215 C214 1.391 . S
C215 C216 1.399 . S
C216 C215 1.399 . S
C216 C217 1.396 . S
C216 C219 1.453 . S
C216 C220 1.684 . S
C217 C207 1.723 . S
C217 C216 1.396 . S
C217 C218 1.394 . S
C218 C188 1.723 . S
C218 C214 1.397 . S
C218 C217 1.394 . S
C219 H191 0.982 . S
C219 H195 0.979 . S
C219 H196 0.977 . S
C219 C216 1.453 . S
C220 H192 0.979 . S
C220 H193 0.980 . S
C220 H194 0.983 . S
C220 C216 1.684 . S
H221 C239 0.948 . S
H222 C180 0.948 . S
H223 C198 0.979 . S
H224 C198 0.980 . S
H225 C198 0.983 . S
H226 C197 0.982 . S
H227 C197 0.979 . S
H228 C197 0.977 . S
H229 C199 0.948 . S
H230 C201 0.947 . S
H231 C202 0.948 . S
H232 C208 0.982 . S
H233 C208 0.979 . S
H234 C208 0.977 . S
H235 C209 0.979 . S
H236 C209 0.980 . S
H237 C209 0.983 . S
H238 C182 0.947 . S
C239 C182 1.392 . S
C239 C183 1.419 . S
C239 H221 0.948 . S
C240 C241 1.391 . S
C240 C244 1.391 . S
C240 H282 0.948 . S
C241 C240 1.391 . S
C241 C242 1.391 . S
C242 C241 1.391 . S
C242 H298 0.947 . S
C242 C299 1.392 . S
C243 C244 1.391 . S
C243 C247 1.397 . S
C243 C299 1.419 . S
C244 C240 1.391 . S
C244 C243 1.391 . S
C244 C245 1.399 . S
C245 C244 1.399 . S
C245 C248 1.396 . S
C245 C257 1.453 . S
C245 C258 1.684 . S
H246 C270 0.948 . S
C247 C243 1.397 . S
C247 C248 1.394 . S
C247 C266 1.723 . S
C248 C245 1.396 . S
C248 C247 1.394 . S
C248 C278 1.723 . S
H249 C272 0.947 . S
H250 C273 0.948 . S
H251 C279 0.982 . S
H252 C280 0.979 1_455 S
H253 C280 0.980 . S
H254 C280 0.983 . S
H255 C279 0.979 . S
H256 C279 0.977 . S
C257 C245 1.453 . S
C257 H286 0.982 . S
C257 H287 0.979 . S
C257 H288 0.977 . S
C258 C245 1.684 . S
C258 H283 0.979 . S
C258 H284 0.980 . S
C258 H285 0.983 . S
C259 C260 1.391 . S
C259 C264 1.391 . S
C259 H289 0.948 . S
C260 C259 1.391 . S
C260 C261 1.391 . S
C261 C260 1.391 . S
C261 C262 1.392 . S
C261 H290 0.947 1_455 S
C262 C261 1.392 . S
C262 C263 1.419 . S
C262 H291 0.934 1_455 S
C263 C262 1.419 . S
C263 C264 1.391 . S
C263 C267 1.397 . S
C264 C259 1.391 . S
C264 C263 1.391 . S
C264 C265 1.399 . S
C265 C264 1.399 . S
C265 C266 1.396 . S
C265 C268 1.453 . S
C265 C269 1.684 . S
C266 C247 1.723 . S
C266 C265 1.396 . S
C266 C267 1.394 . S
C267 C263 1.397 . S
C267 C266 1.394 . S
C267 C277 1.723 . S
C268 C265 1.453 . S
C268 H292 0.982 . S
C268 H293 0.979 . S
C268 H294 0.977 . S
C269 C265 1.684 . S
C269 H295 0.979 . S
C269 H296 0.980 . S
C269 H297 0.983 . S
C270 H246 0.948 . S
C270 C271 1.391 . S
C270 C275 1.391 . S
C271 C270 1.391 . S
C271 C272 1.391 . S
C272 H249 0.947 . S
C272 C271 1.391 . S
C272 C273 1.392 1_655 S
C273 H250 0.948 . S
C273 C272 1.392 1_455 S
C273 C274 1.419 . S
C274 C273 1.419 . S
C274 C275 1.391 1_455 S
C274 C278 1.397 . S
C275 C270 1.391 . S
C275 C274 1.391 1_655 S
C275 C276 1.399 . S
C276 C275 1.399 . S
C276 C277 1.396 1_655 S
C276 C279 1.453 . S
C276 C280 1.684 . S
C277 C267 1.723 . S
C277 C276 1.396 1_455 S
C277 C278 1.394 . S
C278 C248 1.723 . S
C278 C274 1.397 . S
C278 C277 1.394 . S
C279 H251 0.982 . S
C279 H255 0.979 . S
C279 H256 0.977 . S
C279 C276 1.453 . S
C280 H252 0.979 1_655 S
C280 H253 0.980 . S
C280 H254 0.983 . S
C280 C276 1.684 . S
H281 C299 0.948 . S
H282 C240 0.948 . S
H283 C258 0.979 . S
H284 C258 0.980 . S
H285 C258 0.983 . S
H286 C257 0.982 . S
H287 C257 0.979 . S
H288 C257 0.977 . S
H289 C259 0.948 . S
H290 C261 0.947 1_655 S
H291 C262 0.934 1_655 S
H292 C268 0.982 . S
H293 C268 0.979 . S
H294 C268 0.977 . S
H295 C269 0.979 . S
H296 C269 0.980 . S
H297 C269 0.983 . S
H298 C242 0.947 . S
C299 C242 1.392 . S
C299 C243 1.419 . S
C299 H281 0.948 . S
C300 C301 1.391 . S
C300 C304 1.391 . S
C300 H342 0.948 . S
C301 C300 1.391 . S
C301 C302 1.391 . S
C302 C301 1.391 . S
C302 H358 0.947 . S
C302 C359 1.392 . S
C303 C304 1.391 . S
C303 C307 1.397 . S
C303 C359 1.419 . S
C304 C300 1.391 . S
C304 C303 1.391 . S
C304 C305 1.399 . S
C305 C304 1.399 . S
C305 C308 1.396 . S
C305 C317 1.453 . S
C305 C318 1.684 . S
H306 C330 0.948 . S
C307 C303 1.397 . S
C307 C308 1.394 . S
C307 C326 1.723 . S
C308 C305 1.396 . S
C308 C307 1.394 . S
C308 C338 1.723 1_655 S
H309 C332 0.947 . S
H310 C333 0.948 . S
H311 C339 0.982 . S
H312 C340 0.979 . S
H313 C340 0.980 . S
H314 C340 0.983 . S
H315 C339 0.979 . S
H316 C339 0.977 . S
C317 C305 1.453 . S
C317 H346 0.982 1_655 S
C317 H347 0.979 . S
C317 H348 0.977 1_655 S
C318 C305 1.684 . S
C318 H343 0.979 . S
C318 H344 0.980 . S
C318 H345 0.983 . S
C319 C320 1.391 1_655 S
C319 C324 1.391 . S
C319 H349 0.948 . S
C320 C319 1.391 1_455 S
C320 C321 1.391 . S
C321 C320 1.391 . S
C321 C322 1.392 . S
C321 H350 0.947 . S
C322 C321 1.392 . S
C322 C323 1.419 . S
C322 H351 0.948 . S
C323 C322 1.419 . S
C323 C324 1.391 1_455 S
C323 C327 1.397 . S
C324 C319 1.391 . S
C324 C323 1.391 1_655 S
C324 C325 1.399 . S
C325 C324 1.399 . S
C325 C326 1.396 . S
C325 C328 1.453 . S
C325 C329 1.684 . S
C326 C307 1.723 . S
C326 C325 1.396 . S
C326 C327 1.394 1_655 S
C327 C323 1.397 . S
C327 C326 1.394 1_455 S
C327 C337 1.723 . S
C328 C325 1.453 . S
C328 H352 0.982 . S
C328 H353 0.979 . S
C328 H354 0.977 . S
C329 C325 1.684 . S
C329 H355 0.979 . S
C329 H356 0.980 . S
C329 H357 0.983 . S
C330 H306 0.948 . S
C330 C331 1.391 . S
C330 C335 1.391 . S
C331 C330 1.391 . S
C331 C332 1.391 . S
C332 H309 0.947 . S
C332 C331 1.391 . S
C332 C333 1.392 . S
C333 H310 0.948 . S
C333 C332 1.392 . S
C333 C334 1.419 . S
C334 C333 1.419 . S
C334 C335 1.391 . S
C334 C338 1.397 . S
C335 C330 1.391 . S
C335 C334 1.391 . S
C335 C336 1.399 . S
C336 C335 1.399 . S
C336 C337 1.396 . S
C336 C339 1.453 . S
C336 C340 1.684 . S
C337 C327 1.723 . S
C337 C336 1.396 . S
C337 C338 1.394 . S
C338 C308 1.723 1_455 S
C338 C334 1.397 . S
C338 C337 1.394 . S
C339 H311 0.982 . S
C339 H315 0.979 . S
C339 H316 0.977 . S
C339 C336 1.453 . S
C340 H312 0.979 . S
C340 H313 0.980 . S
C340 H314 0.983 . S
C340 C336 1.684 . S
H341 C359 0.948 . S
H342 C300 0.948 . S
H343 C318 0.979 . S
H344 C318 0.980 . S
H345 C318 0.983 . S
H346 C317 0.982 1_455 S
H347 C317 0.979 . S
H348 C317 0.977 1_455 S
H349 C319 0.948 . S
H350 C321 0.947 . S
H351 C322 0.948 . S
H352 C328 0.982 . S
H353 C328 0.979 . S
H354 C328 0.977 . S
H355 C329 0.979 . S
H356 C329 0.980 . S
H357 C329 0.983 . S
H358 C302 0.947 . S
C359 C302 1.392 . S
C359 C303 1.419 . S
C359 H341 0.948 . S
C360 C361 1.391 . S
C360 C364 1.391 . S
C360 H402 0.948 . S
C361 C360 1.391 . S
C361 C362 1.391 . S
C362 C361 1.391 . S
C362 H418 0.947 . S
C362 C419 1.392 . S
C363 C364 1.391 . S
C363 C367 1.397 . S
C363 C419 1.419 . S
C364 C360 1.391 . S
C364 C363 1.391 . S
C364 C365 1.399 . S
C365 C364 1.399 . S
C365 C368 1.396 . S
C365 C377 1.453 1_565 S
C365 C378 1.684 . S
H366 C390 0.948 . S
C367 C363 1.397 . S
C367 C368 1.394 . S
C367 C386 1.723 . S
C368 C365 1.396 . S
C368 C367 1.394 . S
C368 C398 1.723 1_565 S
H369 C392 0.947 . S
H370 C393 0.948 . S
H371 C399 0.982 . S
H372 C400 0.979 . S
H373 C400 0.980 . S
H374 C400 0.983 . S
H375 C399 0.979 . S
H376 C399 0.977 . S
C377 C365 1.453 1_545 S
C377 H406 0.982 . S
C377 H407 0.979 1_545 S
C377 H408 0.977 . S
C378 C365 1.684 . S
C378 H403 0.979 . S
C378 H404 0.980 . S
C378 H405 0.983 . S
C379 C380 1.394 . S
C379 C384 1.391 . S
C379 H409 0.948 . S
C380 C379 1.394 . S
C380 C381 1.388 1_565 S
C381 C380 1.388 1_545 S
C381 C382 1.392 . S
C381 H410 0.947 . S
C382 C381 1.392 . S
C382 C383 1.419 . S
C382 H411 0.948 . S
C383 C382 1.419 . S
C383 C384 1.391 1_545 S
C383 C387 1.397 . S
C384 C379 1.391 . S
C384 C383 1.391 1_565 S
C384 C385 1.399 . S
C385 C384 1.399 . S
C385 C386 1.396 . S
C385 C388 1.453 . S
C385 C389 1.684 . S
C386 C367 1.723 . S
C386 C385 1.396 . S
C386 C387 1.394 1_565 S
C387 C383 1.397 . S
C387 C386 1.394 1_545 S
C387 C397 1.723 . S
C388 C385 1.453 . S
C388 H412 0.982 . S
C388 H413 0.979 . S
C388 H414 0.977 . S
C389 C385 1.684 . S
C389 H415 0.979 . S
C389 H416 0.980 . S
C389 H417 0.983 . S
C390 H366 0.948 . S
C390 C391 1.391 . S
C390 C395 1.391 . S
C391 C390 1.391 . S
C391 C392 1.391 . S
C392 H369 0.947 . S
C392 C391 1.391 . S
C392 C393 1.392 . S
C393 H370 0.948 . S
C393 C392 1.392 . S
C393 C394 1.419 . S
C394 C393 1.419 . S
C394 C395 1.391 . S
C394 C398 1.397 . S
C395 C390 1.391 . S
C395 C394 1.391 . S
C395 C396 1.399 . S
C396 C395 1.399 . S
C396 C397 1.396 . S
C396 C399 1.453 . S
C396 C400 1.684 . S
C397 C387 1.723 . S
C397 C396 1.396 . S
C397 C398 1.394 . S
C398 C368 1.723 1_545 S
C398 C394 1.397 . S
C398 C397 1.394 . S
C399 H371 0.982 . S
C399 H375 0.979 . S
C399 H376 0.977 . S
C399 C396 1.453 . S
C400 H372 0.979 . S
C400 H373 0.980 . S
C400 H374 0.983 . S
C400 C396 1.684 . S
H401 C419 0.948 . S
H402 C360 0.948 . S
H403 C378 0.979 . S
H404 C378 0.980 . S
H405 C378 0.983 . S
H406 C377 0.982 . S
H407 C377 0.979 1_565 S
H408 C377 0.977 . S
H409 C379 0.948 . S
H410 C381 0.947 . S
H411 C382 0.948 . S
H412 C388 0.982 . S
H413 C388 0.979 . S
H414 C388 0.977 . S
H415 C389 0.979 . S
H416 C389 0.980 . S
H417 C389 0.983 . S
H418 C362 0.947 . S
C419 C362 1.392 . S
C419 C363 1.419 . S
C419 H401 0.948 . S
C420 C421 1.391 . S
C420 C424 1.391 . S
C420 H462 0.948 . S
C421 C420 1.391 . S
C421 C422 1.391 . S
C422 C421 1.391 . S
C422 H478 0.947 . S
C422 C479 1.392 . S
C423 C424 1.391 . S
C423 C427 1.397 . S
C423 C479 1.419 . S
C424 C420 1.391 . S
C424 C423 1.391 . S
C424 C425 1.399 . S
C425 C424 1.399 . S
C425 C428 1.396 . S
C425 C437 1.453 . S
C425 C438 1.684 . S
H426 C450 0.948 . S
C427 C423 1.397 . S
C427 C428 1.394 . S
C427 C446 1.723 . S
C428 C425 1.396 . S
C428 C427 1.394 . S
C428 C458 1.723 . S
H429 C452 0.947 . S
H430 C453 0.948 . S
H431 C459 0.982 . S
H432 C460 0.979 . S
H433 C460 0.980 . S
H434 C460 0.983 . S
H435 C459 0.979 . S
H436 C459 0.977 . S
C437 C425 1.453 . S
C437 H466 0.982 . S
C437 H467 0.979 . S
C437 H468 0.977 . S
C438 C425 1.684 . S
C438 H463 0.979 . S
C438 H464 0.980 . S
C438 H465 0.983 . S
C439 C440 1.391 . S
C439 C444 1.391 . S
C439 H469 0.948 . S
C440 C439 1.391 . S
C440 C441 1.391 . S
C441 C440 1.391 . S
C441 C442 1.392 . S
C441 H470 0.947 . S
C442 C441 1.392 . S
C442 C443 1.419 . S
C442 H471 0.948 . S
C443 C442 1.419 . S
C443 C444 1.391 . S
C443 C447 1.397 . S
C444 C439 1.391 . S
C444 C443 1.391 . S
C444 C445 1.399 . S
C445 C444 1.399 . S
C445 C446 1.396 . S
C445 C448 1.453 . S
C445 C449 1.684 . S
C446 C427 1.723 . S
C446 C445 1.396 . S
C446 C447 1.394 . S
C447 C443 1.397 . S
C447 C446 1.394 . S
C447 C457 1.723 . S
C448 C445 1.453 . S
C448 H472 0.982 . S
C448 H473 0.979 . S
C448 H474 0.977 . S
C449 C445 1.684 . S
C449 H475 0.979 . S
C449 H476 0.980 . S
C449 H477 0.983 . S
C450 H426 0.948 . S
C450 C451 1.391 . S
C450 C455 1.391 . S
C451 C450 1.391 . S
C451 C452 1.391 . S
C452 H429 0.947 . S
C452 C451 1.391 . S
C452 C453 1.392 . S
C453 H430 0.948 . S
C453 C452 1.392 . S
C453 C454 1.419 . S
C454 C453 1.419 . S
C454 C455 1.391 . S
C454 C458 1.397 . S
C455 C450 1.391 . S
C455 C454 1.391 . S
C455 C456 1.399 . S
C456 C455 1.399 . S
C456 C457 1.396 . S
C456 C459 1.453 . S
C456 C460 1.684 . S
C457 C447 1.723 . S
C457 C456 1.396 . S
C457 C458 1.394 . S
C458 C428 1.723 . S
C458 C454 1.397 . S
C458 C457 1.394 . S
C459 H431 0.982 . S
C459 H435 0.979 . S
C459 H436 0.977 . S
C459 C456 1.453 . S
C460 H432 0.979 . S
C460 H433 0.980 . S
C460 H434 0.983 . S
C460 C456 1.684 . S
H461 C479 0.948 . S
H462 C420 0.948 . S
H463 C438 0.979 . S
H464 C438 0.980 . S
H465 C438 0.983 . S
H466 C437 0.982 . S
H467 C437 0.979 . S
H468 C437 0.977 . S
H469 C439 0.948 . S
H470 C441 0.947 . S
H471 C442 0.948 . S
H472 C448 0.982 . S
H473 C448 0.979 . S
H474 C448 0.977 . S
H475 C449 0.979 . S
H476 C449 0.980 . S
H477 C449 0.983 . S
H478 C422 0.947 . S
C479 C422 1.392 . S
C479 C423 1.419 . S
C479 H461 0.948 . S
C480 C481 1.349 . S
C480 C482 1.327 . S
C480 H505 0.950 . S
C481 C480 1.349 . S
C481 C497 1.349 . S
C482 C480 1.327 . S
C482 C501 1.429 . S
C482 H506 0.950 . S
C483 C500 1.574 . S
C483 C502 1.368 . S
C483 H507 0.949 . S
H484 C488 0.949 . S
C485 C486 1.349 . S
C485 C487 1.327 . S
C485 H508 0.950 . S
C486 C485 1.349 . S
C486 C498 1.349 . S
C487 C485 1.327 . S
C487 C503 1.429 . S
C487 H509 0.950 . S
C488 H484 0.949 . S
C488 C496 1.574 . S
C488 C504 1.368 . S
H489 C497 0.950 . S
H490 C495 0.950 . S
H491 C496 0.949 . S
H492 C498 0.950 . S
H493 C499 0.950 . S
H494 C500 0.949 . S
C495 H490 0.950 . S
C495 C497 1.327 . S
C495 C501 1.429 . S
C496 C488 1.574 . S
C496 H491 0.949 . S
C496 C502 1.368 . S
C497 C481 1.349 . S
C497 H489 0.950 . S
C497 C495 1.327 . S
C498 C486 1.349 . S
C498 H492 0.950 . S
C498 C499 1.327 . S
C499 H493 0.950 . S
C499 C498 1.327 . S
C499 C503 1.429 . S
C500 C483 1.574 . S
C500 H494 0.949 . S
C500 C504 1.368 . S
C501 C482 1.429 . S
C501 C495 1.429 . S
C501 C502 1.523 . S
C502 C483 1.368 . S
C502 C496 1.368 . S
C502 C501 1.523 . S
C503 C487 1.429 . S
C503 C499 1.429 . S
C503 C504 1.523 . S
C504 C488 1.368 . S
C504 C500 1.368 . S
C504 C503 1.523 . S
H505 C480 0.950 . S
H506 C482 0.950 . S
H507 C483 0.949 . S
H508 C485 0.950 . S
H509 C487 0.950 . S
C510 C511 1.349 . S
C510 C512 1.327 . S
C510 H535 0.950 . S
C511 C510 1.349 . S
C511 C527 1.349 . S
C512 C510 1.327 . S
C512 C531 1.429 . S
C512 H536 0.950 . S
C513 C530 1.574 . S
C513 C532 1.368 . S
C513 H537 0.949 . S
H514 C518 0.949 . S
C515 C516 1.349 . S
C515 C517 1.327 . S
C515 H538 0.950 . S
C516 C515 1.349 . S
C516 C528 1.349 . S
C517 C515 1.327 . S
C517 C533 1.429 . S
C517 H539 0.950 . S
C518 H514 0.949 . S
C518 C526 1.574 . S
C518 C534 1.368 . S
H519 C527 0.950 . S
H520 C525 0.950 . S
H521 C526 0.949 . S
H522 C528 0.950 . S
H523 C529 0.950 . S
H524 C530 0.949 . S
C525 H520 0.950 . S
C525 C527 1.327 . S
C525 C531 1.429 . S
C526 C518 1.574 . S
C526 H521 0.949 . S
C526 C532 1.368 . S
C527 C511 1.349 . S
C527 H519 0.950 . S
C527 C525 1.327 . S
C528 C516 1.349 . S
C528 H522 0.950 . S
C528 C529 1.327 . S
C529 H523 0.950 . S
C529 C528 1.327 . S
C529 C533 1.429 . S
C530 C513 1.574 . S
C530 H524 0.949 . S
C530 C534 1.368 . S
C531 C512 1.429 . S
C531 C525 1.429 . S
C531 C532 1.523 . S
C532 C513 1.368 . S
C532 C526 1.368 . S
C532 C531 1.523 . S
C533 C517 1.429 . S
C533 C529 1.429 . S
C533 C534 1.523 . S
C534 C518 1.368 . S
C534 C530 1.368 . S
C534 C533 1.523 . S
H535 C510 0.950 . S
H536 C512 0.950 . S
H537 C513 0.949 . S
H538 C515 0.950 . S
H539 C517 0.950 . S
C540 C541 1.349 . S
C540 C542 1.327 . S
C540 H565 0.950 . S
C541 C540 1.349 . S
C541 C557 1.349 . S
C542 C540 1.327 . S
C542 C561 1.429 . S
C542 H566 0.950 . S
C543 C560 1.574 . S
C543 C562 1.368 . S
C543 H567 0.949 . S
H544 C548 0.949 . S
C545 C546 1.349 . S
C545 C547 1.327 . S
C545 H568 0.950 . S
C546 C545 1.349 . S
C546 C558 1.349 . S
C547 C545 1.327 . S
C547 C563 1.429 . S
C547 H569 0.950 . S
C548 H544 0.949 . S
C548 C556 1.574 . S
C548 C564 1.368 . S
H549 C557 0.950 . S
H550 C555 0.950 . S
H551 C556 0.949 . S
H552 C558 0.950 . S
H553 C559 0.950 . S
H554 C560 0.949 . S
C555 H550 0.950 . S
C555 C557 1.327 . S
C555 C561 1.429 . S
C556 C548 1.574 . S
C556 H551 0.949 . S
C556 C562 1.368 . S
C557 C541 1.349 . S
C557 H549 0.950 . S
C557 C555 1.327 . S
C558 C546 1.349 . S
C558 H552 0.950 . S
C558 C559 1.327 . S
C559 H553 0.950 . S
C559 C558 1.327 . S
C559 C563 1.429 . S
C560 C543 1.574 . S
C560 H554 0.949 . S
C560 C564 1.368 . S
C561 C542 1.429 . S
C561 C555 1.429 . S
C561 C562 1.523 . S
C562 C543 1.368 . S
C562 C556 1.368 . S
C562 C561 1.523 . S
C563 C547 1.429 . S
C563 C559 1.429 . S
C563 C564 1.523 . S
C564 C548 1.368 . S
C564 C560 1.368 . S
C564 C563 1.523 . S
H565 C540 0.950 . S
H566 C542 0.950 . S
H567 C543 0.949 . S
H568 C545 0.950 . S
H569 C547 0.950 . S
C570 C571 1.349 . S
C570 C572 1.327 . S
C570 H595 0.950 . S
C571 C570 1.349 . S
C571 C587 1.349 . S
C572 C570 1.327 . S
C572 C591 1.429 . S
C572 H596 0.950 . S
C573 C590 1.574 . S
C573 C592 1.368 . S
C573 H597 0.949 . S
H574 C578 0.949 . S
C575 C576 1.349 . S
C575 C577 1.327 . S
C575 H598 0.950 . S
C576 C575 1.349 . S
C576 C588 1.349 . S
C577 C575 1.327 . S
C577 C593 1.429 . S
C577 H599 0.950 . S
C578 H574 0.949 . S
C578 C586 1.574 . S
C578 C594 1.368 . S
H579 C587 0.950 . S
H580 C585 0.950 . S
H581 C586 0.949 . S
H582 C588 0.950 . S
H583 C589 0.950 . S
H584 C590 0.949 . S
C585 H580 0.950 . S
C585 C587 1.327 . S
C585 C591 1.429 . S
C586 C578 1.574 . S
C586 H581 0.949 . S
C586 C592 1.368 . S
C587 C571 1.349 . S
C587 H579 0.950 . S
C587 C585 1.327 . S
C588 C576 1.349 . S
C588 H582 0.950 . S
C588 C589 1.327 . S
C589 H583 0.950 . S
C589 C588 1.327 . S
C589 C593 1.429 . S
C590 C573 1.574 . S
C590 H584 0.949 . S
C590 C594 1.368 . S
C591 C572 1.429 . S
C591 C585 1.429 . S
C591 C592 1.523 . S
C592 C573 1.368 . S
C592 C586 1.368 . S
C592 C591 1.523 . S
C593 C577 1.429 . S
C593 C589 1.429 . S
C593 C594 1.523 . S
C594 C578 1.368 . S
C594 C590 1.368 . S
C594 C593 1.523 . S
H595 C570 0.950 . S
H596 C572 0.950 . S
H597 C573 0.949 . S
H598 C575 0.950 . S
H599 C577 0.950 . S
C600 C601 1.349 . S
C600 C602 1.327 . S
C600 H625 0.950 . S
C601 C600 1.349 . S
C601 C617 1.349 . S
C602 C600 1.327 . S
C602 C621 1.429 . S
C602 H626 0.950 . S
C603 C620 1.574 . S
C603 C622 1.368 . S
C603 H627 0.949 . S
H604 C608 0.949 . S
C605 C606 1.349 . S
C605 C607 1.327 . S
C605 H628 0.950 . S
C606 C605 1.349 . S
C606 C618 1.349 . S
C607 C605 1.327 . S
C607 C623 1.429 . S
C607 H629 0.950 . S
C608 H604 0.949 . S
C608 C616 1.574 . S
C608 C624 1.368 . S
H609 C617 0.950 . S
H610 C615 0.950 . S
H611 C616 0.949 . S
H612 C618 0.950 . S
H613 C619 0.950 . S
H614 C620 0.949 . S
C615 H610 0.950 . S
C615 C617 1.327 . S
C615 C621 1.429 . S
C616 C608 1.574 . S
C616 H611 0.949 . S
C616 C622 1.368 . S
C617 C601 1.349 . S
C617 H609 0.950 . S
C617 C615 1.327 . S
C618 C606 1.349 . S
C618 H612 0.950 . S
C618 C619 1.327 . S
C619 H613 0.950 . S
C619 C618 1.327 . S
C619 C623 1.429 . S
C620 C603 1.574 . S
C620 H614 0.949 . S
C620 C624 1.368 . S
C621 C602 1.429 . S
C621 C615 1.429 . S
C621 C622 1.523 . S
C622 C603 1.368 . S
C622 C616 1.368 . S
C622 C621 1.523 . S
C623 C607 1.429 . S
C623 C619 1.429 . S
C623 C624 1.523 . S
C624 C608 1.368 . S
C624 C620 1.368 . S
C624 C623 1.523 . S
H625 C600 0.950 . S
H626 C602 0.950 . S
H627 C603 0.949 . S
H628 C605 0.950 . S
H629 C607 0.950 . S
C630 C631 1.349 . S
C630 C632 1.327 . S
C630 H655 0.950 . S
C631 C630 1.349 . S
C631 C647 1.349 . S
C632 C630 1.327 . S
C632 C651 1.429 . S
C632 H656 0.950 . S
C633 C650 1.574 . S
C633 C652 1.368 . S
C633 H657 0.949 . S
H634 C638 0.949 . S
C635 C636 1.349 . S
C635 C637 1.327 . S
C635 H658 0.950 . S
C636 C635 1.349 . S
C636 C648 1.349 . S
C637 C635 1.327 . S
C637 C653 1.429 . S
C637 H659 0.950 . S
C638 H634 0.949 . S
C638 C646 1.574 . S
C638 C654 1.368 . S
H639 C647 0.950 . S
H640 C645 0.950 . S
H641 C646 0.949 . S
H642 C648 0.950 . S
H643 C649 0.950 . S
H644 C650 0.949 . S
C645 H640 0.950 . S
C645 C647 1.327 . S
C645 C651 1.429 . S
C646 C638 1.574 . S
C646 H641 0.949 . S
C646 C652 1.368 . S
C647 C631 1.349 . S
C647 H639 0.950 . S
C647 C645 1.327 . S
C648 C636 1.349 . S
C648 H642 0.950 . S
C648 C649 1.327 . S
C649 H643 0.950 . S
C649 C648 1.327 . S
C649 C653 1.429 . S
C650 C633 1.574 . S
C650 H644 0.949 . S
C650 C654 1.368 . S
C651 C632 1.429 . S
C651 C645 1.429 . S
C651 C652 1.523 . S
C652 C633 1.368 . S
C652 C646 1.368 . S
C652 C651 1.523 . S
C653 C637 1.429 . S
C653 C649 1.429 . S
C653 C654 1.523 . S
C654 C638 1.368 . S
C654 C650 1.368 . S
C654 C653 1.523 . S
H655 C630 0.950 . S
H656 C632 0.950 . S
H657 C633 0.949 . S
H658 C635 0.950 . S
H659 C637 0.950 . S
C660 C661 1.349 . S
C660 C662 1.327 . S
C660 H685 0.950 . S
C661 C660 1.349 . S
C661 C677 1.349 . S
C662 C660 1.327 . S
C662 C681 1.429 . S
C662 H686 0.950 . S
C663 C680 1.574 . S
C663 C682 1.368 . S
C663 H687 0.949 . S
H664 C668 0.949 . S
C665 C666 1.349 . S
C665 C667 1.327 . S
C665 H688 0.950 . S
C666 C665 1.349 . S
C666 C678 1.349 . S
C667 C665 1.327 . S
C667 C683 1.429 . S
C667 H689 0.950 . S
C668 H664 0.949 . S
C668 C676 1.574 . S
C668 C684 1.368 . S
H669 C677 0.950 . S
H670 C675 0.950 . S
H671 C676 0.949 . S
H672 C678 0.950 . S
H673 C679 0.950 . S
H674 C680 0.949 . S
C675 H670 0.950 . S
C675 C677 1.327 . S
C675 C681 1.429 . S
C676 C668 1.574 . S
C676 H671 0.949 . S
C676 C682 1.368 . S
C677 C661 1.349 . S
C677 H669 0.950 . S
C677 C675 1.327 . S
C678 C666 1.349 . S
C678 H672 0.950 . S
C678 C679 1.327 . S
C679 H673 0.950 . S
C679 C678 1.327 . S
C679 C683 1.429 . S
C680 C663 1.574 . S
C680 H674 0.949 . S
C680 C684 1.368 . S
C681 C662 1.429 . S
C681 C675 1.429 . S
C681 C682 1.523 . S
C682 C663 1.368 . S
C682 C676 1.368 . S
C682 C681 1.523 . S
C683 C667 1.429 . S
C683 C679 1.429 . S
C683 C684 1.523 . S
C684 C668 1.368 . S
C684 C680 1.368 . S
C684 C683 1.523 . S
H685 C660 0.950 . S
H686 C662 0.950 . S
H687 C663 0.949 . S
H688 C665 0.950 . S
H689 C667 0.950 . S
C690 C691 1.349 . S
C690 C692 1.327 . S
C690 H715 0.950 . S
C691 C690 1.349 . S
C691 C707 1.349 . S
C692 C690 1.327 . S
C692 C711 1.429 . S
C692 H716 0.950 . S
C693 C710 1.574 . S
C693 C712 1.368 . S
C693 H717 0.949 . S
H694 C698 0.949 . S
C695 C696 1.349 . S
C695 C697 1.327 . S
C695 H718 0.950 . S
C696 C695 1.349 . S
C696 C708 1.349 . S
C697 C695 1.327 . S
C697 C713 1.429 . S
C697 H719 0.950 . S
C698 H694 0.949 . S
C698 C706 1.574 . S
C698 C714 1.368 . S
H699 C707 0.950 . S
H700 C705 0.950 . S
H701 C706 0.949 . S
H702 C708 0.950 . S
H703 C709 0.950 . S
H704 C710 0.949 . S
C705 H700 0.950 . S
C705 C707 1.327 . S
C705 C711 1.429 . S
C706 C698 1.574 . S
C706 H701 0.949 . S
C706 C712 1.368 . S
C707 C691 1.349 . S
C707 H699 0.950 . S
C707 C705 1.327 . S
C708 C696 1.349 . S
C708 H702 0.950 . S
C708 C709 1.327 . S
C709 H703 0.950 . S
C709 C708 1.327 . S
C709 C713 1.429 . S
C710 C693 1.574 . S
C710 H704 0.949 . S
C710 C714 1.368 . S
C711 C692 1.429 . S
C711 C705 1.429 . S
C711 C712 1.523 . S
C712 C693 1.368 . S
C712 C706 1.368 . S
C712 C711 1.523 . S
C713 C697 1.429 . S
C713 C709 1.429 . S
C713 C714 1.523 . S
C714 C698 1.368 . S
C714 C710 1.368 . S
C714 C713 1.523 . S
H715 C690 0.950 . S
H716 C692 0.950 . S
H717 C693 0.949 . S
H718 C695 0.950 . S
H719 C697 0.950 . S
C720 C721 1.349 . S
C720 C722 1.327 . S
C720 H745 0.950 . S
C721 C720 1.349 . S
C721 C737 1.349 . S
C722 C720 1.327 . S
C722 C741 1.429 . S
C722 H746 0.950 . S
C723 C740 1.574 . S
C723 C742 1.368 . S
C723 H747 0.949 . S
H724 C728 0.949 . S
C725 C726 1.349 . S
C725 C727 1.327 . S
C725 H748 0.950 . S
C726 C725 1.349 . S
C726 C738 1.349 . S
C727 C725 1.327 . S
C727 C743 1.429 . S
C727 H749 0.950 . S
C728 H724 0.949 . S
C728 C736 1.574 . S
C728 C744 1.368 . S
H729 C737 0.950 . S
H730 C735 0.950 . S
H731 C736 0.949 . S
H732 C738 0.950 . S
H733 C739 0.950 . S
H734 C740 0.949 . S
C735 H730 0.950 . S
C735 C737 1.327 . S
C735 C741 1.429 . S
C736 C728 1.574 . S
C736 H731 0.949 . S
C736 C742 1.368 . S
C737 C721 1.349 . S
C737 H729 0.950 . S
C737 C735 1.327 . S
C738 C726 1.349 . S
C738 H732 0.950 . S
C738 C739 1.327 . S
C739 H733 0.950 . S
C739 C738 1.327 . S
C739 C743 1.429 . S
C740 C723 1.574 . S
C740 H734 0.949 . S
C740 C744 1.368 . S
C741 C722 1.429 . S
C741 C735 1.429 . S
C741 C742 1.523 . S
C742 C723 1.368 . S
C742 C736 1.368 . S
C742 C741 1.523 . S
C743 C727 1.429 . S
C743 C739 1.429 . S
C743 C744 1.523 . S
C744 C728 1.368 . S
C744 C740 1.368 . S
C744 C743 1.523 . S
H745 C720 0.950 . S
H746 C722 0.950 . S
H747 C723 0.949 . S
H748 C725 0.950 . S
H749 C727 0.950 . S
C750 C751 1.349 . S
C750 C752 1.327 . S
C750 H775 0.950 . S
C751 C750 1.349 . S
C751 C767 1.349 . S
C752 C750 1.327 . S
C752 C771 1.429 . S
C752 H776 0.950 . S
C753 C770 1.574 . S
C753 C772 1.368 . S
C753 H777 0.949 . S
H754 C758 0.949 . S
C755 C756 1.349 . S
C755 C757 1.327 . S
C755 H778 0.950 . S
C756 C755 1.349 . S
C756 C768 1.349 . S
C757 C755 1.327 . S
C757 C773 1.429 . S
C757 H779 0.950 . S
C758 H754 0.949 . S
C758 C766 1.574 . S
C758 C774 1.368 . S
H759 C767 0.950 . S
H760 C765 0.950 . S
H761 C766 0.949 . S
H762 C768 0.950 . S
H763 C769 0.950 . S
H764 C770 0.949 . S
C765 H760 0.950 . S
C765 C767 1.327 . S
C765 C771 1.429 . S
C766 C758 1.574 . S
C766 H761 0.949 . S
C766 C772 1.368 . S
C767 C751 1.349 . S
C767 H759 0.950 . S
C767 C765 1.327 . S
C768 C756 1.349 . S
C768 H762 0.950 . S
C768 C769 1.327 . S
C769 H763 0.950 . S
C769 C768 1.327 . S
C769 C773 1.429 . S
C770 C753 1.574 . S
C770 H764 0.949 . S
C770 C774 1.368 . S
C771 C752 1.429 . S
C771 C765 1.429 . S
C771 C772 1.523 . S
C772 C753 1.368 . S
C772 C766 1.368 . S
C772 C771 1.523 . S
C773 C757 1.429 . S
C773 C769 1.429 . S
C773 C774 1.523 . S
C774 C758 1.368 . S
C774 C770 1.368 . S
C774 C773 1.523 . S
H775 C750 0.950 . S
H776 C752 0.950 . S
H777 C753 0.949 . S
H778 C755 0.950 . S
H779 C757 0.950 . S
C780 C781 1.349 . S
C780 C782 1.327 . S
C780 H805 0.950 . S
C781 C780 1.349 . S
C781 C797 1.349 . S
C782 C780 1.327 . S
C782 C801 1.429 . S
C782 H806 0.950 . S
C783 C800 1.574 . S
C783 C802 1.368 . S
C783 H807 0.949 . S
H784 C788 0.949 . S
C785 C786 1.349 . S
C785 C787 1.327 . S
C785 H808 0.950 . S
C786 C785 1.349 . S
C786 C798 1.349 . S
C787 C785 1.327 . S
C787 C803 1.429 . S
C787 H809 0.950 . S
C788 H784 0.949 . S
C788 C796 1.574 . S
C788 C804 1.368 . S
H789 C797 0.950 . S
H790 C795 0.950 . S
H791 C796 0.949 . S
H792 C798 0.950 . S
H793 C799 0.950 . S
H794 C800 0.949 . S
C795 H790 0.950 . S
C795 C797 1.327 . S
C795 C801 1.429 . S
C796 C788 1.574 . S
C796 H791 0.949 . S
C796 C802 1.368 . S
C797 C781 1.349 . S
C797 H789 0.950 . S
C797 C795 1.327 . S
C798 C786 1.349 . S
C798 H792 0.950 . S
C798 C799 1.327 . S
C799 H793 0.950 . S
C799 C798 1.327 . S
C799 C803 1.429 . S
C800 C783 1.574 . S
C800 H794 0.949 . S
C800 C804 1.368 . S
C801 C782 1.429 . S
C801 C795 1.429 . S
C801 C802 1.523 . S
C802 C783 1.368 . S
C802 C796 1.368 . S
C802 C801 1.523 . S
C803 C787 1.429 . S
C803 C799 1.429 . S
C803 C804 1.523 . S
C804 C788 1.368 . S
C804 C800 1.368 . S
C804 C803 1.523 . S
H805 C780 0.950 . S
H806 C782 0.950 . S
H807 C783 0.949 . S
H808 C785 0.950 . S
H809 C787 0.950 . S
C810 C811 1.349 . S
C810 C812 1.327 . S
C810 H835 0.950 . S
C811 C810 1.349 . S
C811 C827 1.349 . S
C812 C810 1.327 . S
C812 C831 1.429 . S
C812 H836 0.950 . S
C813 C830 1.574 . S
C813 C832 1.368 . S
C813 H837 0.949 . S
H814 C818 0.949 . S
C815 C816 1.349 . S
C815 C817 1.327 . S
C815 H838 0.950 . S
C816 C815 1.349 . S
C816 C828 1.349 . S
C817 C815 1.327 . S
C817 C833 1.429 . S
C817 H839 0.950 . S
C818 H814 0.949 . S
C818 C826 1.574 . S
C818 C834 1.368 . S
H819 C827 0.950 . S
H820 C825 0.950 . S
H821 C826 0.949 . S
H822 C828 0.950 . S
H823 C829 0.950 . S
H824 C830 0.949 . S
C825 H820 0.950 . S
C825 C827 1.327 . S
C825 C831 1.429 . S
C826 C818 1.574 . S
C826 H821 0.949 . S
C826 C832 1.368 . S
C827 C811 1.349 . S
C827 H819 0.950 . S
C827 C825 1.327 . S
C828 C816 1.349 . S
C828 H822 0.950 . S
C828 C829 1.327 . S
C829 H823 0.950 . S
C829 C828 1.327 . S
C829 C833 1.429 . S
C830 C813 1.574 . S
C830 H824 0.949 . S
C830 C834 1.368 . S
C831 C812 1.429 . S
C831 C825 1.429 . S
C831 C832 1.523 . S
C832 C813 1.368 . S
C832 C826 1.368 . S
C832 C831 1.523 . S
C833 C817 1.429 . S
C833 C829 1.429 . S
C833 C834 1.523 . S
C834 C818 1.368 . S
C834 C830 1.368 . S
C834 C833 1.523 . S
H835 C810 0.950 . S
H836 C812 0.950 . S
H837 C813 0.949 . S
H838 C815 0.950 . S
H839 C817 0.950 . S
C840 C841 1.349 . S
C840 C842 1.327 . S
C840 H865 0.950 . S
C841 C840 1.349 . S
C841 C857 1.349 . S
C842 C840 1.327 . S
C842 C861 1.429 . S
C842 H866 0.950 . S
C843 C860 1.574 . S
C843 C862 1.368 . S
C843 H867 0.949 . S
H844 C848 0.949 . S
C845 C846 1.349 . S
C845 C847 1.327 1_556 S
C845 H868 0.950 . S
C846 C845 1.349 . S
C846 C858 1.349 . S
C847 C845 1.327 1_554 S
C847 C863 1.429 . S
C847 H869 0.950 . S
C848 H844 0.949 . S
C848 C856 1.574 . S
C848 C864 1.368 . S
H849 C857 0.950 . S
H850 C855 0.950 . S
H851 C856 0.949 . S
H852 C858 0.950 . S
H853 C859 0.950 . S
H854 C860 0.949 . S
C855 H850 0.950 . S
C855 C857 1.327 . S
C855 C861 1.429 . S
C856 C848 1.574 . S
C856 H851 0.949 . S
C856 C862 1.368 . S
C857 C841 1.349 . S
C857 H849 0.950 . S
C857 C855 1.327 . S
C858 C846 1.349 . S
C858 H852 0.950 . S
C858 C859 1.327 1_556 S
C859 H853 0.950 . S
C859 C858 1.327 1_554 S
C859 C863 1.429 . S
C860 C843 1.574 . S
C860 H854 0.949 . S
C860 C864 1.368 . S
C861 C842 1.429 . S
C861 C855 1.429 . S
C861 C862 1.523 . S
C862 C843 1.368 . S
C862 C856 1.368 . S
C862 C861 1.523 . S
C863 C847 1.429 . S
C863 C859 1.429 . S
C863 C864 1.523 . S
C864 C848 1.368 . S
C864 C860 1.368 . S
C864 C863 1.523 . S
H865 C840 0.950 . S
H866 C842 0.950 . S
H867 C843 0.949 . S
H868 C845 0.950 . S
H869 C847 0.950 . S
C870 C871 1.349 1_565 S
C870 C872 1.327 . S
C870 H895 0.950 . S
C871 C870 1.349 1_545 S
C871 C887 1.349 . S
C872 C870 1.327 . S
C872 C891 1.429 1_565 S
C872 H896 0.950 . S
C873 C890 1.574 . S
C873 C892 1.368 . S
C873 H897 0.949 . S
H874 C878 0.949 . S
C875 C876 1.349 . S
C875 C877 1.327 . S
C875 H898 0.950 . S
C876 C875 1.349 . S
C876 C888 1.349 1_545 S
C877 C875 1.327 . S
C877 C893 1.429 . S
C877 H899 0.950 . S
C878 H874 0.949 . S
C878 C886 1.574 . S
C878 C894 1.368 1_565 S
H879 C887 0.950 . S
H880 C885 0.950 . S
H881 C886 0.949 . S
H882 C888 0.950 . S
H883 C889 0.950 . S
H884 C890 0.949 . S
C885 H880 0.950 . S
C885 C887 1.327 . S
C885 C891 1.429 . S
C886 C878 1.574 . S
C886 H881 0.949 . S
C886 C892 1.368 1_565 S
C887 C871 1.349 . S
C887 H879 0.950 . S
C887 C885 1.327 . S
C888 C876 1.349 1_565 S
C888 H882 0.950 . S
C888 C889 1.327 . S
C889 H883 0.950 . S
C889 C888 1.327 . S
C889 C893 1.429 1_565 S
C890 C873 1.574 . S
C890 H884 0.949 . S
C890 C894 1.368 . S
C891 C872 1.429 1_545 S
C891 C885 1.429 . S
C891 C892 1.523 . S
C892 C873 1.368 . S
C892 C886 1.368 1_545 S
C892 C891 1.523 . S
C893 C877 1.429 . S
C893 C889 1.429 1_545 S
C893 C894 1.523 . S
C894 C878 1.368 1_545 S
C894 C890 1.368 . S
C894 C893 1.523 . S
H895 C870 0.950 . S
H896 C872 0.950 . S
H897 C873 0.949 . S
H898 C875 0.950 . S
H899 C877 0.950 . S
C900 C901 1.349 . S
C900 C902 1.327 . S
C900 H925 0.950 . S
C901 C900 1.349 . S
C901 C917 1.349 . S
C902 C900 1.327 . S
C902 C921 1.429 . S
C902 H926 0.950 . S
C903 C920 1.574 . S
C903 C922 1.368 . S
C903 H927 0.949 . S
H904 C908 0.949 . S
C905 C906 1.349 . S
C905 C907 1.327 . S
C905 H928 0.950 . S
C906 C905 1.349 . S
C906 C918 1.349 . S
C907 C905 1.327 . S
C907 C923 1.429 . S
C907 H929 0.950 . S
C908 H904 0.949 . S
C908 C916 1.574 . S
C908 C924 1.368 . S
H909 C917 0.950 . S
H910 C915 0.950 . S
H911 C916 0.949 . S
H912 C918 0.950 . S
H913 C919 0.950 . S
H914 C920 0.949 . S
C915 H910 0.950 . S
C915 C917 1.327 . S
C915 C921 1.429 . S
C916 C908 1.574 . S
C916 H911 0.949 . S
C916 C922 1.368 . S
C917 C901 1.349 . S
C917 H909 0.950 . S
C917 C915 1.327 . S
C918 C906 1.349 . S
C918 H912 0.950 . S
C918 C919 1.327 . S
C919 H913 0.950 . S
C919 C918 1.327 . S
C919 C923 1.429 . S
C920 C903 1.574 . S
C920 H914 0.949 . S
C920 C924 1.368 . S
C921 C902 1.429 . S
C921 C915 1.429 . S
C921 C922 1.523 . S
C922 C903 1.368 . S
C922 C916 1.368 . S
C922 C921 1.523 . S
C923 C907 1.429 . S
C923 C919 1.429 . S
C923 C924 1.523 . S
C924 C908 1.368 . S
C924 C920 1.368 . S
C924 C923 1.523 . S
H925 C900 0.950 . S
H926 C902 0.950 . S
H927 C903 0.949 . S
H928 C905 0.950 . S
H929 C907 0.950 . S
C930 C931 1.349 . S
C930 C932 1.327 . S
C930 H955 0.950 . S
C931 C930 1.349 . S
C931 C947 1.349 1_545 S
C932 C930 1.327 . S
C932 C951 1.429 . S
C932 H956 0.950 . S
C933 C950 1.574 . S
C933 C952 1.368 1_565 S
C933 H957 0.949 . S
H934 C938 0.949 . S
C935 C936 1.349 . S
C935 C937 1.327 . S
C935 H958 0.950 . S
C936 C935 1.349 . S
C936 C948 1.349 1_565 S
C937 C935 1.327 . S
C937 C953 1.444 . S
C937 H959 0.950 . S
C938 H934 0.949 . S
C938 C946 1.574 . S
C938 C954 1.402 . S
H939 C947 0.950 . S
H940 C945 0.950 . S
H941 C946 0.949 . S
H942 C948 0.950 . S
H943 C949 0.950 . S
H944 C950 0.949 . S
C945 H940 0.950 . S
C945 C947 1.327 . S
C945 C951 1.429 1_565 S
C946 C938 1.574 . S
C946 H941 0.949 . S
C946 C952 1.368 . S
C947 C931 1.349 1_565 S
C947 H939 0.950 . S
C947 C945 1.327 . S
C948 C936 1.349 1_545 S
C948 H942 0.950 . S
C948 C949 1.327 . S
C949 H943 0.950 . S
C949 C948 1.327 . S
C949 C953 1.415 1_545 S
C950 C933 1.574 . S
C950 H944 0.949 . S
C950 C954 1.337 1_565 S
C951 C932 1.429 . S
C951 C945 1.429 1_545 S
C951 C952 1.523 . S
C952 C933 1.368 1_545 S
C952 C946 1.368 . S
C952 C951 1.523 . S
C953 C937 1.444 . S
C953 C949 1.415 1_565 S
C953 C954 1.520 1_565 S
C954 C938 1.402 . S
C954 C950 1.337 1_545 S
C954 C953 1.520 1_545 S
H955 C930 0.950 . S
H956 C932 0.950 . S
H957 C933 0.949 . S
H958 C935 0.950 . S
H959 C937 0.950 . S
C960 C961 1.349 . S
C960 C962 1.327 . S
C960 H985 0.950 . S
C961 C960 1.349 . S
C961 C977 1.349 . S
C962 C960 1.327 . S
C962 C981 1.429 . S
C962 H986 0.950 . S
C963 C980 1.574 . S
C963 C982 1.368 . S
C963 H987 0.949 . S
H964 C968 0.949 . S
C965 C966 1.349 . S
C965 C967 1.327 1_554 S
C965 H988 0.950 . S
C966 C965 1.349 . S
C966 C978 1.349 . S
C967 C965 1.327 1_556 S
C967 C983 1.429 . S
C967 H989 0.950 . S
C968 H964 0.949 . S
C968 C976 1.574 . S
C968 C984 1.368 . S
H969 C977 0.950 . S
H970 C975 0.950 . S
H971 C976 0.949 . S
H972 C978 0.950 . S
H973 C979 0.950 . S
H974 C980 0.949 . S
C975 H970 0.950 . S
C975 C977 1.327 . S
C975 C981 1.429 . S
C976 C968 1.574 . S
C976 H971 0.949 . S
C976 C982 1.368 . S
C977 C961 1.349 . S
C977 H969 0.950 . S
C977 C975 1.327 . S
C978 C966 1.349 . S
C978 H972 0.950 . S
C978 C979 1.327 1_554 S
C979 H973 0.950 . S
C979 C978 1.327 1_556 S
C979 C983 1.429 . S
C980 C963 1.574 . S
C980 H974 0.949 . S
C980 C984 1.368 . S
C981 C962 1.429 . S
C981 C975 1.429 . S
C981 C982 1.523 . S
C982 C963 1.368 . S
C982 C976 1.368 . S
C982 C981 1.523 . S
C983 C967 1.429 . S
C983 C979 1.429 . S
C983 C984 1.523 . S
C984 C968 1.368 . S
C984 C980 1.368 . S
C984 C983 1.523 . S
H985 C960 0.950 . S
H986 C962 0.950 . S
H987 C963 0.949 . S
H988 C965 0.950 . S
H989 C967 0.950 . S
C990 C991 1.349 . S
C990 C992 1.327 . S
C990 H1015 0.950 . S
C991 C990 1.349 . S
C991 C1007 1.349 . S
C992 C990 1.327 . S
C992 C1011 1.429 . S
C992 H1016 0.950 . S
C993 C1010 1.574 . S
C993 C1012 1.368 . S
C993 H1017 0.949 . S
H994 C998 0.949 . S
C995 C996 1.353 . S
C995 C997 1.326 1_655 S
C995 H1018 0.961 . S
C996 C995 1.353 . S
C996 C1008 1.334 1_655 S
C997 C995 1.326 1_455 S
C997 C1013 1.429 . S
C997 H1019 0.950 . S
C998 H994 0.949 . S
C998 C1006 1.574 . S
C998 C1014 1.368 . S
H999 C1007 0.950 . S
H1000 C1005 0.950 . S
H1001 C1006 0.949 . S
H1002 C1008 0.928 . S
H1003 C1009 0.950 . S
H1004 C1010 0.949 . S
C1005 H1000 0.950 . S
C1005 C1007 1.327 . S
C1005 C1011 1.429 . S
C1006 C998 1.574 . S
C1006 H1001 0.949 . S
C1006 C1012 1.368 . S
C1007 C991 1.349 . S
C1007 H999 0.950 . S
C1007 C1005 1.327 . S
C1008 C996 1.334 1_455 S
C1008 H1002 0.928 . S
C1008 C1009 1.327 . S
C1009 H1003 0.950 . S
C1009 C1008 1.327 . S
C1009 C1013 1.429 . S
C1010 C993 1.574 . S
C1010 H1004 0.949 . S
C1010 C1014 1.368 . S
C1011 C992 1.429 . S
C1011 C1005 1.429 . S
C1011 C1012 1.523 . S
C1012 C993 1.368 . S
C1012 C1006 1.368 . S
C1012 C1011 1.523 . S
C1013 C997 1.429 . S
C1013 C1009 1.429 . S
C1013 C1014 1.523 . S
C1014 C998 1.368 . S
C1014 C1010 1.368 . S
C1014 C1013 1.523 . S
H1015 C990 0.950 . S
H1016 C992 0.950 . S
H1017 C993 0.949 . S
H1018 C995 0.961 . S
H1019 C997 0.950 . S
C481 C7 0.463 . S
C486 C451 0.411 . S
C511 C51 1.859 . S
C516 C301 1.740 . S
C541 C87 1.152 . S
C546 C361 1.121 . S
C571 C16 0.338 . S
C576 C421 0.410 . S
C606 C331 1.984 . S
C601 C42 1.970 . S
C636 C391 1.289 . S
C631 C96 1.278 . S
C661 C47 1.152 . S
C666 C181 1.113 . S
C691 C91 3.062 . S
C696 C271 3.056 . S
C721 C2 2.000 . S
C726 C151 2.023 . S
C756 C211 1.266 . S
C751 C56 1.252 . S
C786 C241 2.800 . S
C781 C82 2.926 . S
C811 C11 1.849 . S
C816 C121 1.735 . S
C846 C260 1.737 . S
C841 C19 1.703 . S
C871 C50 1.342 . S
C876 C140 1.355 . S
C901 C99 1.462 . S
C906 C200 1.480 . S
C936 C380 1.463 . S
C931 C59 1.451 . S
C966 C440 1.104 . S
C961 C90 1.098 . S
C991 C10 1.339 . S
C996 C320 1.349 1_655 S
