# Generated by pormake.
# Topology pts, (4,4)-cn, num edge types: 1
# Building blocks:
#     Node 0, Type 0, BuildingBlock: NAWXER_clean_linker_0, # of connection points: 4
#     Node 1, Type 0, BuildingBlock: NAWXER_clean_linker_0, # of connection points: 4
#     Node 2, Type 1, BuildingBlock: QUQFOY_clean_sbu_1, # of connection points: 4
#     Node 3, Type 1, BuildingBlock: QUQFOY_clean_sbu_1, # of connection points: 4
#     Edge 4, Type (0, 1), BuildingBlock: KIFKEQ_clean_linker_1, # of connection points: 2
#     Edge 5, Type (0, 1), BuildingBlock: KIFKEQ_clean_linker_1, # of connection points: 2
#     Edge 6, Type (0, 1), BuildingBlock: KIFKEQ_clean_linker_1, # of connection points: 2
#     Edge 7, Type (0, 1), BuildingBlock: KIFKEQ_clean_linker_1, # of connection points: 2
#     Edge 8, Type (0, 1), BuildingBlock: KIFKEQ_clean_linker_1, # of connection points: 2
#     Edge 9, Type (0, 1), BuildingBlock: KIFKEQ_clean_linker_1, # of connection points: 2
#     Edge 10, Type (0, 1), BuildingBlock: KIFKEQ_clean_linker_1, # of connection points: 2
#     Edge 11, Type (0, 1), BuildingBlock: KIFKEQ_clean_linker_1, # of connection points: 2
# Relax obj value: 0.095
# Max RMSD: 0.252
# Mean RMSD: 0.145
data_MOF--net-pts--node1-QUQFOY_clean_sbu_1--node2-NAWXER_clean_linker_0--edge1-KIFKEQ_clean_linker_1
_symmetry_space_group_name_H-M    P1
_symmetry_Int_Tables_number       1
_symmetry_cell_setting            triclinic
loop_
_symmetry_equiv_pos_as_xyz
'x, y, z'
_cell_length_a     28.5591
_cell_length_b     31.062976
_cell_length_c     45.413287
_cell_angle_alpha  90.04751
_cell_angle_beta   90.044567
_cell_angle_gamma 90.024995
loop_
_atom_site_label
_atom_site_type_symbol
_atom_site_fract_x
_atom_site_fract_y
_atom_site_fract_z
_atom_type_partial_charge
C0 C 0.64835 0.02515 0.95533 0.0
C1 C 0.64895 0.99553 0.93196 0.0
C2 C 0.61064 0.02603 0.97497 0.0
C3 C 0.57372 0.99634 0.97206 0.0
C4 C 0.61218 0.96592 0.92906 0.0
C5 C 0.57506 0.96621 0.94898 0.0
C6 C 0.53108 0.99901 0.99053 0.0
C7 C 0.64742 0.97882 0.05708 0.0
C8 C 0.64824 0.00834 0.08051 0.0
C9 C 0.60992 0.97853 0.03723 0.0
C10 C 0.57349 0.00874 0.03998 0.0
C11 C 0.61194 0.03842 0.08327 0.0
C12 C 0.57507 0.03873 0.06314 0.0
C13 C 0.53101 0.00678 0.02126 0.0
C14 C 0.33433 0.97547 0.05823 0.0
C15 C 0.32945 0.00838 0.07935 0.0
C16 C 0.37145 0.97612 0.0382 0.0
C17 C 0.40439 0.00965 0.03893 0.0
C18 C 0.36171 0.04262 0.07927 0.0
C19 C 0.39903 0.04299 0.05946 0.0
C20 C 0.44732 0.00762 0.02093 0.0
C21 C 0.33463 0.03305 0.95316 0.0
C22 C 0.32922 1.00011 0.93218 0.0
C23 C 0.37195 0.0321 0.97308 0.0
C24 C 0.40452 0.99827 0.97225 0.0
C25 C 0.3612 0.96577 0.93192 0.0
C26 C 0.39875 0.96509 0.9516 0.0
C27 C 0.44738 0.99968 0.99042 0.0
H28 H 0.67616 0.04864 0.9577 0.0
H29 H 0.60976 0.05074 0.99178 0.0
H30 H 0.61205 0.9427 0.91125 0.0
H31 H 0.54686 0.94325 0.94603 0.0
H32 H 0.67488 0.95501 0.0548 0.0
H33 H 0.60881 0.95391 0.02036 0.0
H34 H 0.61201 0.06157 0.10113 0.0
H35 H 0.54725 0.06208 0.06598 0.0
H36 H 0.3106 0.94828 0.0579 0.0
H37 H 0.37556 0.94946 0.02303 0.0
H38 H 0.35853 0.06895 0.09479 0.0
H39 H 0.42421 0.06906 0.06046 0.0
H40 H 0.31034 0.0598 0.9539 0.0
H41 H 0.37629 0.05858 0.98837 0.0
H42 H 0.35815 0.94021 0.91578 0.0
H43 H 0.42382 0.93897 0.95037 0.0
N44 N 0.48918 0.99562 0.9765 0.0
N45 N 0.48905 0.01092 0.03507 0.0
C46 C 0.02355 0.64833 0.55323 0.0
C47 C 0.98698 0.65711 0.57302 0.0
C48 C 0.02298 0.61085 0.53622 0.0
C49 C 0.98588 0.58138 0.53873 0.0
C50 C 0.9498 0.62763 0.57545 0.0
C51 C 0.94952 0.58985 0.55865 0.0
C52 C 0.98576 0.54123 0.52119 0.0
C53 C 0.95375 0.64789 0.45793 0.0
C54 C -0.00958 0.65659 0.43821 0.0
C55 C 0.95428 0.61054 0.47504 0.0
C56 C -0.00859 0.58111 0.47267 0.0
C57 C 0.02765 0.62716 0.43593 0.0
C58 C 0.02788 0.5895 0.45281 0.0
C59 C -0.00853 0.5411 0.4903 0.0
C60 C 0.95344 0.35774 0.45787 0.0
C61 C -0.0092 0.3484 0.4388 0.0
C62 C 0.95385 0.39525 0.47486 0.0
C63 C -0.00851 0.42422 0.47295 0.0
C64 C 0.02858 0.37731 0.43704 0.0
C65 C 0.02866 0.41517 0.45375 0.0
C66 C -0.00859 0.4644 0.49042 0.0
C67 C 0.02294 0.35803 0.55414 0.0
C68 C 0.98547 0.34894 0.57318 0.0
C69 C 0.02273 0.39539 0.53705 0.0
C70 C 0.98521 0.42448 0.53884 0.0
C71 C 0.9478 0.37796 0.57482 0.0
C72 C 0.94794 0.41569 0.55801 0.0
C73 C 0.98551 0.46453 0.52127 0.0
H74 H 0.05259 0.67051 0.55089 0.0
H75 H 0.05183 0.60462 0.52135 0.0
H76 H 0.92147 0.63334 0.59081 0.0
H77 H 0.92077 0.56736 0.56106 0.0
H78 H 0.92468 0.67004 0.46016 0.0
H79 H 0.92536 0.60437 0.48987 0.0
H80 H 0.05606 0.63283 0.42062 0.0
H81 H 0.05666 0.56704 0.45051 0.0
H82 H 0.92393 0.33598 0.45965 0.0
H83 H 0.92446 0.40193 0.48922 0.0
H84 H 0.05755 0.37109 0.42225 0.0
H85 H 0.05786 0.43726 0.45185 0.0
H86 H 0.05236 0.33617 0.55246 0.0
H87 H 0.05219 0.40187 0.5227 0.0
H88 H 0.91877 0.37194 0.58959 0.0
H89 H 0.91883 0.43788 0.55982 0.0
N90 N 0.98273 0.50293 0.53556 0.0
N91 N -0.00565 0.50268 0.47603 0.0
O92 O 0.92401 0.96983 0.23819 0.0
Cd93 Cd 0.98673 0.95803 0.25912 0.0
Cd94 Cd -0.00808 0.04691 0.25964 0.0
O95 O 0.93201 0.04026 0.23466 0.0
O96 O 0.98341 0.8954 0.26801 0.0
O97 O -0.00946 0.94504 0.30263 0.0
C98 C 0.98685 0.90489 0.29554 0.0
C99 C -0.00908 0.09994 0.2962 0.0
C100 C 0.90945 0.00601 0.22897 0.0
C101 C 0.06919 0.99966 0.22893 0.0
O102 O 0.05428 0.03562 0.23841 0.0
O103 O 0.04685 0.96513 0.23429 0.0
O104 O -0.00734 0.10961 0.26865 0.0
O105 O -0.00989 0.05967 0.30326 0.0
O106 O 0.92432 0.03576 0.77446 0.0
Cd107 Cd 0.98602 0.04803 0.75254 0.0
Cd108 Cd -0.008 0.95917 0.75198 0.0
O109 O 0.93308 0.96531 0.77793 0.0
O110 O 0.98445 0.11074 0.7437 0.0
O111 O 0.98639 0.06088 0.70895 0.0
C112 C 0.98552 0.10113 0.71611 0.0
C113 C -0.00883 0.90593 0.71555 0.0
C114 C 0.91044 0.99944 0.78389 0.0
C115 C 0.0701 0.00718 0.78143 0.0
O116 O 0.05523 0.97115 0.77207 0.0
O117 O 0.04714 0.04143 0.77646 0.0
O118 O -0.00434 0.89656 0.74301 0.0
O119 O 0.98673 0.94601 0.70852 0.0
H120 H 0.23879 0.98033 0.07302 0.0
H121 H 0.33582 0.03081 0.13756 0.0
H122 H 0.17838 0.97571 0.11087 0.0
H123 H 0.27492 0.02732 0.17501 0.0
H124 H 0.13321 0.06368 0.21987 0.0
H125 H 0.19735 0.06442 0.18442 0.0
H126 H 0.16307 0.93448 0.15836 0.0
H127 H 0.09886 0.93352 0.19385 0.0
C128 C 0.24738 0.99021 0.09525 0.0
C129 C 0.29218 0.00613 0.10215 0.0
C130 C 0.21275 0.98758 0.1169 0.0
C131 C 0.22205 1.00116 0.14584 0.0
C132 C 0.26669 0.01708 0.15279 0.0
C133 C 0.30145 0.01931 0.13125 0.0
C134 C 0.13961 0.03509 0.20681 0.0
C135 C 0.11085 0.99859 0.20962 0.0
C136 C 0.17642 0.0355 0.18659 0.0
C137 C 0.18491 0.99961 0.16854 0.0
C138 C 0.1569 0.96275 0.17179 0.0
C139 C 0.12041 0.96213 0.19226 0.0
H140 H 0.05697 0.32165 0.60814 0.0
H141 H 0.91642 0.28901 0.58106 0.0
H142 H 0.05794 0.25962 0.64126 0.0
H143 H 0.91756 0.22658 0.61414 0.0
H144 H 0.96463 0.09527 0.65722 0.0
H145 H 0.96509 0.15378 0.62087 0.0
H146 H 0.00943 0.24292 0.6883 0.0
H147 H 0.00831 0.18512 0.72454 0.0
C148 C 0.02652 0.3009 0.60905 0.0
C149 C 0.98657 0.31013 0.59213 0.0
C150 C 0.02699 0.26559 0.62807 0.0
C151 C 0.98781 0.23843 0.63022 0.0
C152 C 0.9483 0.24691 0.61272 0.0
C153 C 0.94753 0.28271 0.59403 0.0
C154 C 0.97452 0.12737 0.6642 0.0
C155 C 0.98637 0.13565 0.69371 0.0
C156 C 0.97459 0.16078 0.64347 0.0
C157 C 0.98747 0.20273 0.65183 0.0
C158 C -0.00023 0.21079 0.68124 0.0
C159 C -0.00113 0.17772 0.70199 0.0
H160 H 0.63868 0.99991 0.13971 0.0
H161 H 0.74225 0.01398 0.07123 0.0
H162 H 0.70087 0.9994 0.17697 0.0
H163 H 0.80447 0.01443 0.10859 0.0
H164 H 0.88739 0.06882 0.18949 0.0
H165 H 0.82359 0.0686 0.15359 0.0
H166 H 0.77462 0.94722 0.18795 0.0
H167 H 0.8391 0.94675 0.22357 0.0
C168 C 0.6748 0.00296 0.13273 0.0
C169 C 0.68593 0.00704 0.10274 0.0
C170 C 0.71021 1.00251 0.15395 0.0
C171 C 0.75721 0.00705 0.14553 0.0
C172 C 0.76836 0.01116 0.11554 0.0
C173 C 0.73298 0.01068 0.09425 0.0
C174 C 0.86278 0.04227 0.18961 0.0
C175 C 0.86822 0.00777 0.20934 0.0
C176 C 0.82657 0.04204 0.16893 0.0
C177 C 0.79459 0.00778 0.16801 0.0
C178 C 0.79895 0.97399 0.18833 0.0
C179 C 0.83577 0.97374 0.20863 0.0
H180 H 0.06065 0.68681 0.60531 0.0
H181 H 0.91679 0.71513 0.58337 0.0
H182 H 0.06265 0.74918 0.63811 0.0
H183 H 0.91883 0.7777 0.6163 0.0
H184 H 0.96235 0.91012 0.65791 0.0
H185 H 0.96184 0.85146 0.62164 0.0
H186 H 0.02058 0.76551 0.68651 0.0
H187 H 0.02069 0.82348 0.72264 0.0
C188 C 0.02963 0.70666 0.60728 0.0
C189 C 0.98852 0.69609 0.59188 0.0
C190 C 0.0307 0.74216 0.62616 0.0
C191 C -0.00914 0.76816 0.62976 0.0
C192 C 0.9501 0.75833 0.61377 0.0
C193 C 0.94882 0.7224 0.59517 0.0
C194 C 0.97524 0.8787 0.66433 0.0
C195 C -0.0085 0.87137 0.69312 0.0
C196 C 0.97474 0.84518 0.64365 0.0
C197 C -0.00868 0.80406 0.65129 0.0
C198 C 0.00803 0.79699 0.67995 0.0
C199 C 0.00783 0.83016 0.70067 0.0
H200 H 0.3047 0.06907 0.89841 0.0
H201 H 0.26961 0.93614 0.91511 0.0
H202 H 0.24535 0.07203 0.85981 0.0
H203 H 0.20932 0.93922 0.87716 0.0
H204 H 0.1348 0.94364 0.79011 0.0
H205 H 0.19911 0.94313 0.82531 0.0
H206 H 0.16307 0.07245 0.85228 0.0
H207 H 0.09993 0.0735 0.81629 0.0
C208 C 0.28379 0.04066 0.89405 0.0
C209 C 0.29166 1.00239 0.90974 0.0
C210 C 0.24978 0.04231 0.87195 0.0
C211 C 0.22261 0.00581 0.86523 0.0
C212 C 0.23024 0.96768 0.88125 0.0
C213 C 0.26455 0.96593 0.90314 0.0
C214 C 0.14098 0.97216 0.80331 0.0
C215 C 0.11212 0.00854 0.80048 0.0
C216 C 0.17761 0.97174 0.82369 0.0
C217 C 0.18595 0.00753 0.84196 0.0
C218 C 0.15801 0.04444 0.83842 0.0
C219 C 0.12166 0.04502 0.81781 0.0
H220 H 0.05967 0.28834 0.43091 0.0
H221 H 0.919 0.32086 0.40412 0.0
H222 H 0.05821 0.22566 0.39801 0.0
H223 H 0.9177 0.25855 0.37118 0.0
H224 H 0.96723 0.18367 0.28782 0.0
H225 H 0.96581 0.24156 0.32407 0.0
H226 H 0.01074 0.15283 0.39148 0.0
H227 H 0.01147 0.09424 0.35513 0.0
C228 C 0.02847 0.28195 0.41806 0.0
C229 C -0.01051 0.30942 0.41997 0.0
C230 C 0.02751 0.24601 0.39946 0.0
C231 C 0.98787 0.2374 0.38208 0.0
C232 C 0.94875 0.2646 0.38427 0.0
C233 C 0.94941 0.30007 0.40319 0.0
C234 C 0.97668 0.17638 0.31038 0.0
C235 C -0.01051 0.13441 0.31865 0.0
C236 C 0.97562 0.2095 0.33113 0.0
C237 C 0.98807 0.20159 0.36053 0.0
C238 C 0.00113 0.15971 0.36889 0.0
C239 C 0.00135 0.12625 0.34816 0.0
H240 H 0.63981 0.00308 0.87268 0.0
H241 H 0.74294 0.98995 0.94161 0.0
H242 H 0.70227 0.00368 0.83568 0.0
H243 H 0.80544 0.98966 0.90451 0.0
H244 H 0.8899 0.93672 0.82379 0.0
H245 H 0.82611 0.93612 0.85967 0.0
H246 H 0.77496 0.0565 0.82492 0.0
H247 H 0.83935 0.05777 0.78934 0.0
C248 C 0.67588 1.00019 0.87981 0.0
C249 C 0.68681 0.99641 0.90986 0.0
C250 C 0.71145 1.0007 0.85874 0.0
C251 C 0.75842 0.99656 0.86735 0.0
C252 C 0.76936 0.99262 0.8974 0.0
C253 C 0.73382 0.99301 0.91854 0.0
C254 C 0.86484 0.96288 0.82361 0.0
C255 C 0.86959 0.99732 0.80377 0.0
C256 C 0.82863 0.96264 0.84426 0.0
C257 C 0.79599 0.99636 0.84503 0.0
C258 C 0.79977 0.03013 0.82465 0.0
C259 C 0.83657 0.03084 0.80438 0.0
H260 H 0.91702 0.68573 0.40551 0.0
H261 H 0.06047 0.71486 0.42809 0.0
H262 H 0.9151 0.74794 0.37263 0.0
H263 H 0.05851 0.7773 0.3951 0.0
H264 H 0.01445 0.90944 0.35339 0.0
H265 H 0.01481 0.85087 0.38965 0.0
H266 H 0.95798 0.76431 0.32436 0.0
H267 H 0.95805 0.82221 0.28822 0.0
C268 C 0.94796 0.70573 0.40366 0.0
C269 C -0.01106 0.69544 0.41927 0.0
C270 C 0.94695 0.74113 0.38474 0.0
C271 C 0.98668 0.76733 0.38131 0.0
C272 C 0.02731 0.75776 0.39749 0.0
C273 C 0.02855 0.72192 0.41613 0.0
C274 C 0.00194 0.87791 0.34687 0.0
C275 C 0.98628 0.87039 0.31797 0.0
C276 C 0.00235 0.84444 0.36755 0.0
C277 C 0.98628 0.80317 0.35978 0.0
C278 C 0.97014 0.79591 0.33101 0.0
C279 C 0.97044 0.82904 0.31029 0.0
loop_
_geom_bond_atom_site_label_1
_geom_bond_atom_site_label_2
_geom_bond_distance
_geom_bond_site_symmetry_2
_ccdc_geom_bond_type
C0 C1 1.384 1_545 S
C0 C2 1.384 . S
C0 H28 0.931 . S
C1 C0 1.384 1_565 S
C1 C4 1.382 . S
C2 C0 1.384 . S
C2 C3 1.381 1_545 S
C2 H29 0.930 . S
C3 C2 1.381 1_565 S
C3 C5 1.381 . S
C3 C6 1.487 . S
C4 C1 1.382 . S
C4 C5 1.387 . S
C4 H30 0.930 . S
C5 C3 1.381 . S
C5 C4 1.387 . S
C5 H31 0.931 . S
C6 C3 1.487 . S
C6 C13 1.399 1_566 S
C6 N44 1.343 . S
C7 C8 1.384 1_565 S
C7 C9 1.384 . S
C7 H32 0.931 . S
C8 C7 1.384 1_545 S
C8 C11 1.382 . S
C9 C7 1.384 . S
C9 C10 1.381 1_565 S
C9 H33 0.930 . S
C10 C9 1.381 1_545 S
C10 C12 1.381 . S
C10 C13 1.487 . S
C11 C8 1.382 . S
C11 C12 1.387 . S
C11 H34 0.930 . S
C12 C10 1.381 . S
C12 C11 1.387 . S
C12 H35 0.931 . S
C13 C6 1.399 1_544 S
C13 C10 1.487 . S
C13 N45 1.343 . S
C14 C15 1.384 1_565 S
C14 C16 1.384 . S
C14 H36 0.931 . S
C15 C14 1.384 1_545 S
C15 C18 1.382 . S
C16 C14 1.384 . S
C16 C17 1.381 1_565 S
C16 H37 0.930 . S
C17 C16 1.381 1_545 S
C17 C19 1.381 . S
C17 C20 1.487 . S
C18 C15 1.382 . S
C18 C19 1.387 . S
C18 H38 0.930 . S
C19 C17 1.381 . S
C19 C18 1.387 . S
C19 H39 0.931 . S
C20 C17 1.487 . S
C20 C27 1.399 1_544 S
C20 N45 1.343 . S
C21 C22 1.384 1_545 S
C21 C23 1.384 . S
C21 H40 0.931 . S
C22 C21 1.384 1_565 S
C22 C25 1.382 . S
C23 C21 1.384 . S
C23 C24 1.381 1_545 S
C23 H41 0.930 . S
C24 C23 1.381 1_565 S
C24 C26 1.381 . S
C24 C27 1.487 . S
C25 C22 1.382 . S
C25 C26 1.387 . S
C25 H42 0.930 . S
C26 C24 1.381 . S
C26 C25 1.387 . S
C26 H43 0.931 . S
C27 C20 1.399 1_566 S
C27 C24 1.487 . S
C27 N44 1.343 . S
H28 C0 0.931 . S
H29 C2 0.930 . S
H30 C4 0.930 . S
H31 C5 0.931 . S
H32 C7 0.931 . S
H33 C9 0.930 . S
H34 C11 0.930 . S
H35 C12 0.931 . S
H36 C14 0.931 . S
H37 C16 0.930 . S
H38 C18 0.930 . S
H39 C19 0.931 . S
H40 C21 0.931 . S
H41 C23 0.930 . S
H42 C25 0.930 . S
H43 C26 0.931 . S
N44 C6 1.343 . S
N44 C27 1.343 . S
N45 C13 1.343 . S
N45 C20 1.343 . S
C46 C47 1.384 1_455 S
C46 C48 1.384 . S
C46 H74 0.931 . S
C47 C46 1.384 1_655 S
C47 C50 1.382 . S
C48 C46 1.384 . S
C48 C49 1.381 1_455 S
C48 H75 0.930 . S
C49 C48 1.381 1_655 S
C49 C51 1.381 . S
C49 C52 1.487 . S
C50 C47 1.382 . S
C50 C51 1.387 . S
C50 H76 0.930 . S
C51 C49 1.381 . S
C51 C50 1.387 . S
C51 H77 0.931 . S
C52 C49 1.487 . S
C52 C59 1.399 1_655 S
C52 N90 1.343 . S
C53 C54 1.384 1_655 S
C53 C55 1.384 . S
C53 H78 0.931 . S
C54 C53 1.384 1_455 S
C54 C57 1.382 . S
C55 C53 1.384 . S
C55 C56 1.381 1_655 S
C55 H79 0.930 . S
C56 C55 1.381 1_455 S
C56 C58 1.381 . S
C56 C59 1.487 . S
C57 C54 1.382 . S
C57 C58 1.387 . S
C57 H80 0.930 . S
C58 C56 1.381 . S
C58 C57 1.387 . S
C58 H81 0.931 . S
C59 C52 1.399 1_455 S
C59 C56 1.487 . S
C59 N91 1.343 . S
C60 C61 1.384 1_655 S
C60 C62 1.384 . S
C60 H82 0.931 . S
C61 C60 1.384 1_455 S
C61 C64 1.382 . S
C62 C60 1.384 . S
C62 C63 1.381 1_655 S
C62 H83 0.930 . S
C63 C62 1.381 1_455 S
C63 C65 1.381 . S
C63 C66 1.487 . S
C64 C61 1.382 . S
C64 C65 1.387 . S
C64 H84 0.930 . S
C65 C63 1.381 . S
C65 C64 1.387 . S
C65 H85 0.931 . S
C66 C63 1.487 . S
C66 C73 1.399 1_455 S
C66 N91 1.343 . S
C67 C68 1.384 1_455 S
C67 C69 1.384 . S
C67 H86 0.931 . S
C68 C67 1.384 1_655 S
C68 C71 1.382 . S
C69 C67 1.384 . S
C69 C70 1.381 1_455 S
C69 H87 0.930 . S
C70 C69 1.381 1_655 S
C70 C72 1.381 . S
C70 C73 1.487 . S
C71 C68 1.382 . S
C71 C72 1.387 . S
C71 H88 0.930 . S
C72 C70 1.381 . S
C72 C71 1.387 . S
C72 H89 0.931 . S
C73 C66 1.399 1_655 S
C73 C70 1.487 . S
C73 N90 1.343 . S
H74 C46 0.931 . S
H75 C48 0.930 . S
H76 C50 0.930 . S
H77 C51 0.931 . S
H78 C53 0.931 . S
H79 C55 0.930 . S
H80 C57 0.930 . S
H81 C58 0.931 . S
H82 C60 0.931 . S
H83 C62 0.930 . S
H84 C64 0.930 . S
H85 C65 0.931 . S
H86 C67 0.931 . S
H87 C69 0.930 . S
H88 C71 0.930 . S
H89 C72 0.931 . S
N90 C52 1.343 . S
N90 C73 1.343 . S
N91 C59 1.343 . S
N91 C66 1.343 . S
O92 Cd93 2.223 1_655 S
O92 C100 1.315 . S
Cd93 O92 2.223 1_455 S
Cd93 O96 2.297 1_455 S
Cd93 O97 2.439 1_455 S
Cd93 O103 2.240 1_565 S
Cd94 O95 2.240 1_545 S
Cd94 O102 2.223 1_655 S
Cd94 O104 2.297 1_655 S
Cd94 O105 2.439 1_655 S
O95 Cd94 2.240 1_565 S
O95 C100 1.279 . S
O96 Cd93 2.297 1_655 S
O96 C98 1.247 . S
O97 Cd93 2.439 1_655 S
O97 C98 1.208 . S
C98 O96 1.247 . S
C98 O97 1.208 . S
C99 O104 1.247 . S
C99 O105 1.208 . S
C100 O92 1.315 . S
C100 O95 1.279 . S
C101 O102 1.315 . S
C101 O103 1.279 . S
O102 Cd94 2.223 1_455 S
O102 C101 1.315 . S
O103 Cd93 2.240 1_545 S
O103 C101 1.279 . S
O104 Cd94 2.297 1_455 S
O104 C99 1.247 . S
O105 Cd94 2.439 1_455 S
O105 C99 1.208 . S
O106 Cd107 2.223 1_655 S
O106 C114 1.315 . S
Cd107 O106 2.223 1_455 S
Cd107 O110 2.297 1_455 S
Cd107 O111 2.439 1_455 S
Cd107 O117 2.240 1_545 S
Cd108 O109 2.240 1_565 S
Cd108 O116 2.223 1_655 S
Cd108 O118 2.297 1_655 S
Cd108 O119 2.439 1_655 S
O109 Cd108 2.240 1_545 S
O109 C114 1.279 . S
O110 Cd107 2.297 1_655 S
O110 C112 1.247 . S
O111 Cd107 2.439 1_655 S
O111 C112 1.208 . S
C112 O110 1.247 . S
C112 O111 1.208 . S
C113 O118 1.247 . S
C113 O119 1.208 . S
C114 O106 1.315 . S
C114 O109 1.279 . S
C115 O116 1.315 . S
C115 O117 1.279 . S
O116 Cd108 2.223 1_455 S
O116 C115 1.315 . S
O117 Cd107 2.240 1_565 S
O117 C115 1.279 . S
O118 Cd108 2.297 1_455 S
O118 C113 1.247 . S
O119 Cd108 2.439 1_455 S
O119 C113 1.208 . S
H120 C128 0.950 . S
H121 C133 0.950 . S
H122 C130 0.950 . S
H123 C132 0.950 . S
H124 C134 0.950 . S
H125 C136 0.950 . S
H126 C138 0.950 1_565 S
H127 C139 0.950 . S
C128 H120 0.950 . S
C128 C129 1.380 1_565 S
C128 C130 1.391 . S
C129 C128 1.380 1_545 S
C129 C133 1.401 . S
C130 H122 0.950 . S
C130 C128 1.391 . S
C130 C131 1.400 1_565 S
C131 C130 1.400 1_545 S
C131 C132 1.398 . S
C131 C137 1.491 . S
C132 H123 0.950 . S
C132 C131 1.398 . S
C132 C133 1.391 . S
C133 H121 0.950 . S
C133 C129 1.401 . S
C133 C132 1.391 . S
C134 H124 0.950 . S
C134 C135 1.386 . S
C134 C136 1.391 . S
C135 C134 1.386 . S
C135 C139 1.393 . S
C136 H125 0.950 . S
C136 C134 1.391 . S
C136 C137 1.400 . S
C137 C131 1.491 . S
C137 C136 1.400 . S
C137 C138 1.398 . S
C138 H126 0.950 1_545 S
C138 C137 1.398 . S
C138 C139 1.391 . S
C139 H127 0.950 . S
C139 C135 1.393 . S
C139 C138 1.391 . S
H140 C148 0.950 . S
H141 C153 0.950 . S
H142 C150 0.950 . S
H143 C152 0.950 . S
H144 C154 0.950 . S
H145 C156 0.950 . S
H146 C158 0.950 . S
H147 C159 0.950 1_455 S
C148 H140 0.950 . S
C148 C149 1.386 1_455 S
C148 C150 1.391 . S
C149 C148 1.386 1_655 S
C149 C153 1.393 . S
C150 H142 0.950 . S
C150 C148 1.391 . S
C150 C151 1.400 1_455 S
C151 C150 1.400 1_655 S
C151 C152 1.398 . S
C151 C157 1.491 . S
C152 H143 0.950 . S
C152 C151 1.398 . S
C152 C153 1.391 . S
C153 H141 0.950 . S
C153 C149 1.393 . S
C153 C152 1.391 . S
C154 H144 0.950 . S
C154 C155 1.386 . S
C154 C156 1.391 . S
C155 C154 1.386 . S
C155 C159 1.393 . S
C156 H145 0.950 . S
C156 C154 1.391 . S
C156 C157 1.400 . S
C157 C151 1.491 . S
C157 C156 1.400 . S
C157 C158 1.398 1_655 S
C158 H146 0.950 . S
C158 C157 1.398 1_455 S
C158 C159 1.391 1_455 S
C159 H147 0.950 1_655 S
C159 C155 1.393 . S
C159 C158 1.391 1_655 S
H160 C168 0.950 . S
H161 C173 0.950 . S
H162 C170 0.950 . S
H163 C172 0.950 . S
H164 C174 0.950 . S
H165 C176 0.950 . S
H166 C178 0.950 . S
H167 C179 0.950 . S
C168 H160 0.950 . S
C168 C169 1.386 . S
C168 C170 1.391 . S
C169 C168 1.386 . S
C169 C173 1.393 1_565 S
C170 H162 0.950 . S
C170 C168 1.391 . S
C170 C171 1.400 . S
C171 C170 1.400 . S
C171 C172 1.398 1_565 S
C171 C177 1.491 . S
C172 H163 0.950 . S
C172 C171 1.398 1_545 S
C172 C173 1.391 . S
C173 H161 0.950 . S
C173 C169 1.393 1_545 S
C173 C172 1.391 . S
C174 H164 0.950 . S
C174 C175 1.386 1_545 S
C174 C176 1.391 . S
C175 C174 1.386 1_565 S
C175 C179 1.393 . S
C176 H165 0.950 . S
C176 C174 1.391 . S
C176 C177 1.400 1_545 S
C177 C171 1.491 . S
C177 C176 1.400 1_565 S
C177 C178 1.398 . S
C178 H166 0.950 . S
C178 C177 1.398 . S
C178 C179 1.391 . S
C179 H167 0.950 . S
C179 C175 1.393 . S
C179 C178 1.391 . S
H180 C188 0.950 . S
H181 C193 0.950 . S
H182 C190 0.950 . S
H183 C192 0.950 . S
H184 C194 0.950 . S
H185 C196 0.950 . S
H186 C198 0.950 . S
H187 C199 0.950 . S
C188 H180 0.950 . S
C188 C189 1.386 . S
C188 C190 1.391 . S
C189 C188 1.386 . S
C189 C193 1.393 1_455 S
C190 H182 0.950 . S
C190 C188 1.391 . S
C190 C191 1.400 . S
C191 C190 1.400 . S
C191 C192 1.398 1_455 S
C191 C197 1.491 . S
C192 H183 0.950 . S
C192 C191 1.398 1_655 S
C192 C193 1.391 . S
C193 H181 0.950 . S
C193 C189 1.393 1_655 S
C193 C192 1.391 . S
C194 H184 0.950 . S
C194 C195 1.386 1_655 S
C194 C196 1.391 . S
C195 C194 1.386 1_455 S
C195 C199 1.393 . S
C196 H185 0.950 . S
C196 C194 1.391 . S
C196 C197 1.400 1_655 S
C197 C191 1.491 . S
C197 C196 1.400 1_455 S
C197 C198 1.398 . S
C198 H186 0.950 . S
C198 C197 1.398 . S
C198 C199 1.391 . S
C199 H187 0.950 . S
C199 C195 1.393 . S
C199 C198 1.391 . S
H200 C208 0.950 . S
H201 C213 0.950 . S
H202 C210 0.950 . S
H203 C212 0.950 . S
H204 C214 0.950 . S
H205 C216 0.950 . S
H206 C218 0.950 . S
H207 C219 0.950 . S
C208 H200 0.950 . S
C208 C209 1.386 1_545 S
C208 C210 1.391 . S
C209 C208 1.386 1_565 S
C209 C213 1.393 . S
C210 H202 0.950 . S
C210 C208 1.391 . S
C210 C211 1.400 1_545 S
C211 C210 1.400 1_565 S
C211 C212 1.398 . S
C211 C217 1.491 . S
C212 H203 0.950 . S
C212 C211 1.398 . S
C212 C213 1.391 . S
C213 H201 0.950 . S
C213 C209 1.393 . S
C213 C212 1.391 . S
C214 H204 0.950 . S
C214 C215 1.386 . S
C214 C216 1.391 . S
C215 C214 1.386 . S
C215 C219 1.393 1_565 S
C216 H205 0.950 . S
C216 C214 1.391 . S
C216 C217 1.400 . S
C217 C211 1.491 . S
C217 C216 1.400 . S
C217 C218 1.398 1_565 S
C218 H206 0.950 . S
C218 C217 1.398 1_545 S
C218 C219 1.391 . S
C219 H207 0.950 . S
C219 C215 1.393 1_545 S
C219 C218 1.391 . S
H220 C228 0.950 . S
H221 C233 0.950 . S
H222 C230 0.950 . S
H223 C232 0.950 . S
H224 C234 0.950 . S
H225 C236 0.950 . S
H226 C238 0.950 . S
H227 C239 0.950 . S
C228 H220 0.950 . S
C228 C229 1.386 . S
C228 C230 1.391 . S
C229 C228 1.386 . S
C229 C233 1.393 1_455 S
C230 H222 0.950 . S
C230 C228 1.391 . S
C230 C231 1.400 . S
C231 C230 1.400 . S
C231 C232 1.398 1_455 S
C231 C237 1.491 . S
C232 H223 0.950 . S
C232 C231 1.398 1_655 S
C232 C233 1.391 . S
C233 H221 0.950 . S
C233 C229 1.393 1_655 S
C233 C232 1.391 . S
C234 H224 0.950 . S
C234 C235 1.386 1_655 S
C234 C236 1.391 . S
C235 C234 1.386 1_455 S
C235 C239 1.393 . S
C236 H225 0.950 . S
C236 C234 1.391 . S
C236 C237 1.400 1_655 S
C237 C231 1.491 . S
C237 C236 1.400 1_455 S
C237 C238 1.398 . S
C238 H226 0.950 . S
C238 C237 1.398 . S
C238 C239 1.391 . S
C239 H227 0.950 . S
C239 C235 1.393 . S
C239 C238 1.391 . S
H240 C248 0.950 . S
H241 C253 0.950 . S
H242 C250 0.950 . S
H243 C252 0.950 . S
H244 C254 0.950 1_565 S
H245 C256 0.954 . S
H246 C258 0.950 . S
H247 C259 0.950 . S
C248 H240 0.950 . S
C248 C249 1.386 . S
C248 C250 1.391 . S
C249 C248 1.386 . S
C249 C253 1.393 1_545 S
C250 H242 0.950 . S
C250 C248 1.391 . S
C250 C251 1.400 . S
C251 C250 1.400 . S
C251 C252 1.398 1_545 S
C251 C257 1.491 . S
C252 H243 0.950 . S
C252 C251 1.398 1_565 S
C252 C253 1.391 . S
C253 H241 0.950 . S
C253 C249 1.393 1_565 S
C253 C252 1.391 . S
C254 H244 0.950 1_545 S
C254 C255 1.386 . S
C254 C256 1.391 1_545 S
C255 C254 1.386 . S
C255 C259 1.393 . S
C256 H245 0.954 . S
C256 C254 1.391 1_565 S
C256 C257 1.397 1_565 S
C257 C251 1.491 . S
C257 C256 1.397 1_545 S
C257 C258 1.398 . S
C258 H246 0.950 . S
C258 C257 1.398 . S
C258 C259 1.391 . S
C259 H247 0.950 . S
C259 C255 1.393 . S
C259 C258 1.391 . S
H260 C268 0.950 . S
H261 C273 0.950 . S
H262 C270 0.950 . S
H263 C272 0.950 . S
H264 C274 0.950 . S
H265 C276 0.950 . S
H266 C278 0.950 . S
H267 C279 0.950 . S
C268 H260 0.950 . S
C268 C269 1.386 . S
C268 C270 1.391 . S
C269 C268 1.386 . S
C269 C273 1.393 1_655 S
C270 H262 0.950 . S
C270 C268 1.391 . S
C270 C271 1.400 . S
C271 C270 1.400 . S
C271 C272 1.398 1_655 S
C271 C277 1.491 . S
C272 H263 0.950 . S
C272 C271 1.398 1_455 S
C272 C273 1.391 . S
C273 H261 0.950 . S
C273 C269 1.393 1_455 S
C273 C272 1.391 . S
C274 H264 0.950 . S
C274 C275 1.386 1_455 S
C274 C276 1.391 . S
C275 C274 1.386 1_655 S
C275 C279 1.393 . S
C276 H265 0.950 . S
C276 C274 1.391 . S
C276 C277 1.400 1_455 S
C277 C271 1.491 . S
C277 C276 1.400 1_655 S
C277 C278 1.398 . S
C278 H266 0.950 . S
C278 C277 1.398 . S
C278 C279 1.391 . S
C279 H267 0.950 . S
C279 C275 1.393 . S
C279 C278 1.391 . S
C135 C101 1.604 . S
C129 C15 1.602 . S
C155 C112 1.524 . S
C149 C68 1.593 . S
C175 C100 1.604 . S
C169 C8 1.603 1_565 S
C195 C113 1.521 . S
C189 C47 1.597 1_455 S
C215 C115 1.606 . S
C209 C22 1.606 . S
C235 C99 1.529 . S
C229 C61 1.596 . S
C255 C114 1.605 . S
C249 C1 1.608 1_545 S
C269 C54 1.598 1_655 S
C275 C98 1.524 . S
