# Generated by pormake.
# Topology pto, (3,4)-cn, num edge types: 1
# Building blocks:
#     Node 0, Type 0, BuildingBlock: WUSLED_clean_sbu_0, # of connection points: 3
#     Node 1, Type 0, BuildingBlock: WUSLED_clean_sbu_0, # of connection points: 3
#     Node 2, Type 0, BuildingBlock: WUSLED_clean_sbu_0, # of connection points: 3
#     Node 3, Type 0, BuildingBlock: WUSLED_clean_sbu_0, # of connection points: 3
#     Node 4, Type 0, BuildingBlock: WUSLED_clean_sbu_0, # of connection points: 3
#     Node 5, Type 0, BuildingBlock: WUSLED_clean_sbu_0, # of connection points: 3
#     Node 6, Type 0, BuildingBlock: WUSLED_clean_sbu_0, # of connection points: 3
#     Node 7, Type 0, BuildingBlock: WUSLED_clean_sbu_0, # of connection points: 3
#     Node 8, Type 1, BuildingBlock: GIZVER_clean_linker_0, # of connection points: 4
#     Node 9, Type 1, BuildingBlock: GIZVER_clean_linker_0, # of connection points: 4
#     Node 10, Type 1, BuildingBlock: GIZVER_clean_linker_0, # of connection points: 4
#     Node 11, Type 1, BuildingBlock: GIZVER_clean_linker_0, # of connection points: 4
#     Node 12, Type 1, BuildingBlock: GIZVER_clean_linker_0, # of connection points: 4
#     Node 13, Type 1, BuildingBlock: GIZVER_clean_linker_0, # of connection points: 4
#     Edge 14, Type (0, 1), BuildingBlock: TEMPAE_clean_linker_10, # of connection points: 2
#     Edge 15, Type (0, 1), BuildingBlock: TEMPAE_clean_linker_10, # of connection points: 2
#     Edge 16, Type (0, 1), BuildingBlock: TEMPAE_clean_linker_10, # of connection points: 2
#     Edge 17, Type (0, 1), BuildingBlock: TEMPAE_clean_linker_10, # of connection points: 2
#     Edge 18, Type (0, 1), BuildingBlock: TEMPAE_clean_linker_10, # of connection points: 2
#     Edge 19, Type (0, 1), BuildingBlock: TEMPAE_clean_linker_10, # of connection points: 2
#     Edge 20, Type (0, 1), BuildingBlock: TEMPAE_clean_linker_10, # of connection points: 2
#     Edge 21, Type (0, 1), BuildingBlock: TEMPAE_clean_linker_10, # of connection points: 2
#     Edge 22, Type (0, 1), BuildingBlock: TEMPAE_clean_linker_10, # of connection points: 2
#     Edge 23, Type (0, 1), BuildingBlock: TEMPAE_clean_linker_10, # of connection points: 2
#     Edge 24, Type (0, 1), BuildingBlock: TEMPAE_clean_linker_10, # of connection points: 2
#     Edge 25, Type (0, 1), BuildingBlock: TEMPAE_clean_linker_10, # of connection points: 2
#     Edge 26, Type (0, 1), BuildingBlock: TEMPAE_clean_linker_10, # of connection points: 2
#     Edge 27, Type (0, 1), BuildingBlock: TEMPAE_clean_linker_10, # of connection points: 2
#     Edge 28, Type (0, 1), BuildingBlock: TEMPAE_clean_linker_10, # of connection points: 2
#     Edge 29, Type (0, 1), BuildingBlock: TEMPAE_clean_linker_10, # of connection points: 2
#     Edge 30, Type (0, 1), BuildingBlock: TEMPAE_clean_linker_10, # of connection points: 2
#     Edge 31, Type (0, 1), BuildingBlock: TEMPAE_clean_linker_10, # of connection points: 2
#     Edge 32, Type (0, 1), BuildingBlock: TEMPAE_clean_linker_10, # of connection points: 2
#     Edge 33, Type (0, 1), BuildingBlock: TEMPAE_clean_linker_10, # of connection points: 2
#     Edge 34, Type (0, 1), BuildingBlock: TEMPAE_clean_linker_10, # of connection points: 2
#     Edge 35, Type (0, 1), BuildingBlock: TEMPAE_clean_linker_10, # of connection points: 2
#     Edge 36, Type (0, 1), BuildingBlock: TEMPAE_clean_linker_10, # of connection points: 2
#     Edge 37, Type (0, 1), BuildingBlock: TEMPAE_clean_linker_10, # of connection points: 2
# Relax obj value: 0.003
# Max RMSD: 0.031
# Mean RMSD: 0.021
data_MOF--net-pto--node1-WUSLED_clean_sbu_0--node2-GIZVER_clean_linker_0--edge1-TEMPAE_clean_linker_10
_symmetry_space_group_name_H-M    P1
_symmetry_Int_Tables_number       1
_symmetry_cell_setting            triclinic
loop_
_symmetry_equiv_pos_as_xyz
'x, y, z'
_cell_length_a     66.801726
_cell_length_b     54.274238
_cell_length_c     39.619044
_cell_angle_alpha  89.433529
_cell_angle_beta   90.365022
_cell_angle_gamma 90.15444
loop_
_atom_site_label
_atom_site_type_symbol
_atom_site_fract_x
_atom_site_fract_y
_atom_site_fract_z
_atom_type_partial_charge
C0 C 0.24771 0.25168 0.26257 0.0
C1 C 0.25907 0.23282 0.24805 0.0
C2 C 0.25313 0.20633 0.29707 0.0
C3 C 0.26169 0.21032 0.26509 0.0
C4 C 0.24177 0.22535 0.31139 0.0
C5 C 0.23904 0.24769 0.29425 0.0
U6 U 0.26785 0.30713 0.21292 0.0
O7 O 0.25411 0.32873 0.17167 0.0
O8 O 0.26179 0.34666 0.2195 0.0
C9 C 0.25252 0.3486 0.19023 0.0
C10 C 0.24498 0.27578 0.24569 0.0
C11 C 0.23263 0.36046 0.19107 0.0
C12 C 0.19636 0.35926 0.18425 0.0
C13 C 0.21497 0.34743 0.1835 0.0
C14 C 0.21274 0.39713 0.20085 0.0
C15 C 0.195 0.38432 0.1928 0.0
C16 C 0.23131 0.38536 0.19984 0.0
C17 C 0.32422 0.30696 0.1887 0.0
C18 C 0.35683 0.32686 0.19476 0.0
C19 C 0.34694 0.30981 0.14096 0.0
C20 C 0.32865 0.30236 0.1547 0.0
C21 C 0.36135 0.32195 0.16087 0.0
C22 C 0.33851 0.31938 0.20853 0.0
C23 C 0.30586 0.29655 0.20432 0.0
O24 O 0.25402 0.29442 0.2603 0.0
O25 O 0.24651 0.2762 0.21261 0.0
O26 O 0.29153 0.28928 0.18373 0.0
O27 O 0.29904 0.30762 0.23129 0.0
H28 H 0.26602 0.23549 0.22365 0.0
H29 H 0.27038 0.19606 0.25318 0.0
H30 H 0.23533 0.22322 0.33627 0.0
H31 H 0.23033 0.26205 0.30599 0.0
H32 H 0.18308 0.34886 0.17761 0.0
H33 H 0.21551 0.32813 0.17686 0.0
H34 H 0.2123 0.41628 0.20823 0.0
H35 H 0.2447 0.39573 0.20603 0.0
H36 H 0.3675 0.33635 0.21073 0.0
H37 H 0.35004 0.3053 0.11495 0.0
H38 H 0.31822 0.29241 0.13881 0.0
H39 H 0.33572 0.32289 0.23496 0.0
C40 C 0.24437 0.77187 0.7187 0.0
C41 C 0.25569 0.79092 0.73331 0.0
C42 C 0.24974 0.81702 0.68396 0.0
C43 C 0.25824 0.81336 0.71616 0.0
C44 C 0.23839 0.79794 0.6695 0.0
C45 C 0.23568 0.77562 0.68677 0.0
U46 U 0.26512 0.71738 0.76932 0.0
O47 O 0.25199 0.69662 0.81176 0.0
O48 O 0.25912 0.67767 0.76469 0.0
C49 C 0.25041 0.67622 0.79431 0.0
C50 C 0.24171 0.74787 0.73591 0.0
C51 C 0.23049 0.66457 0.79435 0.0
C52 C 0.19505 0.66511 0.77982 0.0
C53 C 0.21384 0.67664 0.78014 0.0
C54 C 0.20939 0.62943 0.80803 0.0
C55 C 0.19263 0.64128 0.79357 0.0
C56 C 0.22813 0.64098 0.80839 0.0
C57 C 0.32171 0.71962 0.79301 0.0
C58 C 0.34955 0.7267 0.83162 0.0
C59 C 0.34947 0.69058 0.79624 0.0
C60 C 0.331 0.69779 0.78241 0.0
C61 C 0.35897 0.705 0.82097 0.0
C62 C 0.3312 0.73393 0.81773 0.0
C63 C 0.30308 0.729 0.77708 0.0
O64 O 0.25069 0.72915 0.7217 0.0
O65 O 0.24347 0.74781 0.76899 0.0
O66 O 0.28898 0.73629 0.7977 0.0
O67 O 0.29607 0.71712 0.75072 0.0
H68 H 0.26271 0.78842 0.75782 0.0
H69 H 0.26721 0.82766 0.72774 0.0
H70 H 0.23152 0.80034 0.64484 0.0
H71 H 0.22689 0.76119 0.67507 0.0
H72 H 0.18251 0.67465 0.76822 0.0
H73 H 0.21543 0.69488 0.76909 0.0
H74 H 0.208 0.61124 0.81927 0.0
H75 H 0.2408 0.63143 0.81955 0.0
H76 H 0.3566 0.73843 0.85022 0.0
H77 H 0.35628 0.67368 0.78771 0.0
H78 H 0.32414 0.68641 0.76322 0.0
H79 H 0.32455 0.75103 0.82595 0.0
C80 C 0.7282 0.71583 0.20257 0.0
C81 C 0.72816 0.70116 0.17359 0.0
C82 C 0.69168 0.69885 0.17488 0.0
C83 C 0.71005 0.69278 0.15983 0.0
C84 C 0.69191 0.71275 0.20464 0.0
C85 C 0.71 0.72118 0.21828 0.0
U86 U 0.78542 0.71881 0.2188 0.0
O87 O 0.80502 0.75146 0.2155 0.0
O88 O 0.80151 0.73177 0.26379 0.0
C89 C 0.80854 0.75143 0.24817 0.0
C90 C 0.74671 0.72715 0.21569 0.0
C91 C 0.80546 0.77516 0.26518 0.0
C92 C 0.78748 0.80077 0.30477 0.0
C93 C 0.78954 0.77853 0.28767 0.0
C94 C 0.81666 0.81702 0.27605 0.0
C95 C 0.80114 0.82014 0.29938 0.0
C96 C 0.81884 0.79466 0.25922 0.0
C97 C 0.82171 0.66872 0.19241 0.0
C98 C 0.85528 0.66456 0.21601 0.0
C99 C 0.84564 0.64105 0.16684 0.0
C100 C 0.82661 0.65174 0.16742 0.0
C101 C 0.86014 0.64702 0.19143 0.0
C102 C 0.83627 0.67535 0.21642 0.0
C103 C 0.80128 0.67886 0.19367 0.0
O104 O 0.75539 0.71587 0.24136 0.0
O105 O 0.75946 0.73534 0.19302 0.0
O106 O 0.79816 0.69898 0.17565 0.0
O107 O 0.79329 0.67969 0.22388 0.0
H108 H 0.74207 0.69669 0.16116 0.0
H109 H 0.71039 0.68184 0.13713 0.0
H110 H 0.67806 0.71798 0.21666 0.0
H111 H 0.70972 0.73253 0.24063 0.0
H112 H 0.77528 0.8028 0.32239 0.0
H113 H 0.77884 0.76388 0.29238 0.0
H114 H 0.82747 0.83159 0.27163 0.0
H115 H 0.83118 0.79246 0.24188 0.0
H116 H 0.86595 0.66945 0.23551 0.0
H117 H 0.84896 0.62799 0.14716 0.0
H118 H 0.81564 0.64653 0.14852 0.0
H119 H 0.83281 0.68855 0.23587 0.0
C120 C 0.76567 0.23985 0.74183 0.0
C121 C 0.78447 0.23595 0.72731 0.0
C122 C 0.77305 0.19652 0.70538 0.0
C123 C 0.78813 0.21447 0.7092 0.0
C124 C 0.75441 0.20026 0.72082 0.0
C125 C 0.75076 0.22179 0.73885 0.0
U126 U 0.7819 0.30231 0.77575 0.0
O127 O 0.76643 0.33799 0.7725 0.0
O128 O 0.77296 0.32137 0.82203 0.0
C129 C 0.76336 0.33873 0.80521 0.0
C130 C 0.76121 0.26304 0.75894 0.0
C131 C 0.7424 0.34231 0.81524 0.0
C132 C 0.70781 0.32822 0.81636 0.0
C133 C 0.7276 0.32527 0.80576 0.0
C134 C 0.71737 0.36541 0.84578 0.0
C135 C 0.70249 0.3482 0.83678 0.0
C136 C 0.73715 0.36247 0.83508 0.0
C137 C 0.83749 0.32086 0.76611 0.0
C138 C 0.85162 0.36064 0.78093 0.0
C139 C 0.8731 0.32856 0.75951 0.0
C140 C 0.85658 0.31281 0.75693 0.0
C141 C 0.87083 0.35273 0.77135 0.0
C142 C 0.83508 0.34483 0.77832 0.0
C143 C 0.82037 0.30398 0.76225 0.0
O144 O 0.76957 0.26578 0.78878 0.0
O145 O 0.76244 0.2829 0.73981 0.0
O146 O 0.8064 0.311 0.74073 0.0
O147 O 0.81313 0.29453 0.79031 0.0
H148 H 0.79618 0.24971 0.72951 0.0
H149 H 0.80271 0.21198 0.69794 0.0
H150 H 0.74244 0.18692 0.71804 0.0
H151 H 0.73615 0.22457 0.74989 0.0
H152 H 0.6968 0.31448 0.80935 0.0
H153 H 0.73142 0.3095 0.79055 0.0
H154 H 0.71373 0.38113 0.86119 0.0
H155 H 0.74838 0.37581 0.84258 0.0
H156 H 0.8493 0.37923 0.78978 0.0
H157 H 0.88768 0.32176 0.75235 0.0
H158 H 0.85872 0.29431 0.74757 0.0
H159 H 0.8204 0.35135 0.78549 0.0
C160 C 0.8249 0.6663 0.80812 0.0
C161 C 0.83123 0.65523 0.77805 0.0
C162 C 0.8628 0.64314 0.80451 0.0
C163 C 0.84994 0.64383 0.77629 0.0
C164 C 0.85659 0.6544 0.83448 0.0
C165 C 0.83781 0.66573 0.83631 0.0
U166 U 0.78876 0.71919 0.78879 0.0
O167 O 0.75728 0.7191 0.77227 0.0
O168 O 0.76578 0.73704 0.81974 0.0
C169 C 0.75108 0.73027 0.79959 0.0
C170 C 0.80481 0.67786 0.81056 0.0
C171 C 0.7328 0.72056 0.816 0.0
C172 C 0.70502 0.69141 0.81929 0.0
C173 C 0.72339 0.69869 0.80542 0.0
C174 C 0.70535 0.72743 0.85484 0.0
C175 C 0.69573 0.7058 0.84402 0.0
C176 C 0.72362 0.73473 0.84093 0.0
C177 C 0.80831 0.77446 0.73851 0.0
C178 C 0.78692 0.80865 0.72171 0.0
C179 C 0.8218 0.8083 0.70527 0.0
C180 C 0.82441 0.78578 0.72204 0.0
C181 C 0.803 0.81996 0.70469 0.0
C182 C 0.78956 0.78607 0.73852 0.0
C183 C 0.81124 0.75035 0.75488 0.0
O184 O 0.80366 0.69772 0.82922 0.0
O185 O 0.79437 0.67963 0.78237 0.0
O186 O 0.80169 0.73189 0.74077 0.0
O187 O 0.81009 0.75013 0.78797 0.0
H188 H 0.82173 0.65521 0.75581 0.0
H189 H 0.85435 0.63553 0.75273 0.0
H190 H 0.86603 0.65391 0.8568 0.0
H191 H 0.83331 0.67387 0.85993 0.0
H192 H 0.69807 0.67454 0.81064 0.0
H193 H 0.73003 0.68741 0.7861 0.0
H194 H 0.69849 0.73915 0.87345 0.0
H195 H 0.73038 0.75184 0.84916 0.0
H196 H 0.7723 0.81722 0.72194 0.0
H197 H 0.83441 0.81623 0.69192 0.0
H198 H 0.83896 0.777 0.72172 0.0
H199 H 0.77697 0.77754 0.75123 0.0
C200 C 0.72849 0.3077 0.20465 0.0
C201 C 0.72779 0.32915 0.18464 0.0
C202 C 0.69183 0.32349 0.17594 0.0
C203 C 0.7096 0.33699 0.17038 0.0
C204 C 0.69269 0.30222 0.19648 0.0
C205 C 0.71083 0.29444 0.21066 0.0
U206 U 0.78546 0.31031 0.2235 0.0
O207 O 0.80107 0.29924 0.27031 0.0
O208 O 0.80697 0.27974 0.22317 0.0
C209 C 0.80988 0.28046 0.25599 0.0
C210 C 0.74738 0.29832 0.219 0.0
C211 C 0.80792 0.2568 0.27399 0.0
C212 C 0.78927 0.21948 0.28742 0.0
C213 C 0.79098 0.24176 0.26955 0.0
C214 C 0.82134 0.22716 0.31432 0.0
C215 C 0.80437 0.21204 0.3102 0.0
C216 C 0.82309 0.24932 0.29635 0.0
C217 C 0.81999 0.36232 0.19629 0.0
C218 C 0.85343 0.3671 0.22012 0.0
C219 C 0.84364 0.3909 0.17072 0.0
C220 C 0.82473 0.37974 0.17126 0.0
C221 C 0.8582 0.38492 0.19535 0.0
C222 C 0.83454 0.35585 0.22051 0.0
C223 C 0.79987 0.35108 0.19699 0.0
O224 O 0.7609 0.29127 0.19717 0.0
O225 O 0.75498 0.31079 0.24431 0.0
O226 O 0.79136 0.35006 0.22681 0.0
O227 O 0.79786 0.33059 0.17988 0.0
H228 H 0.74131 0.33965 0.17983 0.0
H229 H 0.70944 0.35357 0.15497 0.0
H230 H 0.67943 0.29114 0.20086 0.0
H231 H 0.71112 0.2778 0.22599 0.0
H232 H 0.77594 0.20834 0.28398 0.0
H233 H 0.77906 0.24736 0.25249 0.0
H234 H 0.83332 0.22179 0.3314 0.0
H235 H 0.83626 0.2607 0.30003 0.0
H236 H 0.86413 0.3622 0.23969 0.0
H237 H 0.84686 0.40418 0.15091 0.0
H238 H 0.81375 0.38481 0.15218 0.0
H239 H 0.83122 0.34231 0.23996 0.0
C240 C 0.24705 0.24932 0.73517 0.0
C241 C 0.2661 0.24307 0.72327 0.0
C242 C 0.25307 0.20415 0.70228 0.0
C243 C 0.26906 0.22073 0.70683 0.0
C244 C 0.23416 0.21014 0.71524 0.0
C245 C 0.23118 0.23261 0.73147 0.0
U246 U 0.26719 0.30643 0.77827 0.0
O247 O 0.25973 0.34554 0.77079 0.0
O248 O 0.25497 0.32796 0.8202 0.0
C249 C 0.25208 0.3476 0.8011 0.0
C250 C 0.2436 0.27336 0.75089 0.0
C251 C 0.23185 0.35826 0.80204 0.0
C252 C 0.19632 0.35646 0.78824 0.0
C253 C 0.21532 0.34556 0.78862 0.0
C254 C 0.21016 0.39267 0.81507 0.0
C255 C 0.19355 0.38028 0.80114 0.0
C256 C 0.22911 0.38177 0.81547 0.0
C257 C 0.32472 0.30788 0.79311 0.0
C258 C 0.34354 0.33717 0.82691 0.0
C259 C 0.36096 0.30517 0.79675 0.0
C260 C 0.3427 0.29654 0.78415 0.0
C261 C 0.36164 0.32541 0.81865 0.0
C262 C 0.32522 0.32846 0.81424 0.0
C263 C 0.30576 0.29704 0.78124 0.0
O264 O 0.24721 0.27426 0.78349 0.0
O265 O 0.25078 0.29244 0.7342 0.0
O266 O 0.29712 0.30792 0.75522 0.0
O267 O 0.29306 0.29024 0.80479 0.0
H268 H 0.2786 0.25565 0.72623 0.0
H269 H 0.28383 0.21648 0.69743 0.0
H270 H 0.22155 0.19781 0.71187 0.0
H271 H 0.2164 0.23712 0.74064 0.0
H272 H 0.18391 0.34649 0.77707 0.0
H273 H 0.21719 0.32739 0.77802 0.0
H274 H 0.20852 0.41086 0.82569 0.0
H275 H 0.24169 0.39181 0.82598 0.0
H276 H 0.34353 0.35296 0.84341 0.0
H277 H 0.3745 0.2954 0.79026 0.0
H278 H 0.34258 0.28056 0.76795 0.0
H279 H 0.31145 0.3375 0.82136 0.0
C280 C 0.21325 0.69912 0.23462 0.0
C281 C 0.21247 0.68349 0.20662 0.0
C282 C 0.1799 0.66775 0.22461 0.0
C283 C 0.19593 0.66799 0.20162 0.0
C284 C 0.18092 0.68334 0.25274 0.0
C285 C 0.1974 0.69887 0.25762 0.0
U286 U 0.26867 0.71888 0.22732 0.0
O287 O 0.28116 0.75575 0.21748 0.0
O288 O 0.28792 0.73665 0.26531 0.0
C289 C 0.28946 0.75715 0.24759 0.0
C290 C 0.23018 0.71611 0.24027 0.0
C291 C 0.28609 0.78004 0.26633 0.0
C292 C 0.2657 0.81539 0.28104 0.0
C293 C 0.2683 0.79363 0.26285 0.0
C294 C 0.29849 0.81001 0.3065 0.0
C295 C 0.28073 0.82369 0.30322 0.0
C296 C 0.30114 0.78844 0.28818 0.0
C297 C 0.30847 0.68086 0.18453 0.0
C298 C 0.34416 0.68765 0.19345 0.0
C299 C 0.33246 0.66769 0.14259 0.0
C300 C 0.31269 0.66967 0.15369 0.0
C301 C 0.34848 0.67675 0.16223 0.0
C302 C 0.32436 0.6898 0.20439 0.0
C303 C 0.28745 0.68408 0.19488 0.0
O304 O 0.24408 0.70835 0.26143 0.0
O305 O 0.23748 0.72721 0.21336 0.0
O306 O 0.27782 0.70207 0.17944 0.0
O307 O 0.2841 0.68314 0.22754 0.0
H308 H 0.22457 0.68338 0.18854 0.0
H309 H 0.19558 0.65642 0.17951 0.0
H310 H 0.16909 0.68335 0.2713 0.0
H311 H 0.19777 0.71073 0.27946 0.0
H312 H 0.2518 0.82545 0.27826 0.0
H313 H 0.25643 0.78741 0.24622 0.0
H314 H 0.31042 0.81609 0.32312 0.0
H315 H 0.31498 0.77825 0.29111 0.0
H316 H 0.35606 0.69461 0.20941 0.0
H317 H 0.33509 0.65965 0.11812 0.0
H318 H 0.30065 0.66287 0.13785 0.0
H319 H 0.32147 0.6987 0.22823 0.0
H320 H 1.00468 0.47547 0.17317 0.0
H321 H 1.00559 0.5549 0.17237 0.0
H322 H 0.95548 0.51581 0.21433 0.0
H323 H 0.02691 0.49835 0.13522 0.0
H324 H 0.02688 0.53111 0.134 0.0
H325 H 0.04988 0.47595 0.1719 0.0
H326 H 0.09817 0.51747 0.21582 0.0
H327 H 0.04683 0.55522 0.17551 0.0
C328 C 0.99811 0.49285 0.18044 0.0
C329 C 0.97923 0.49301 0.19595 0.0
C330 C 1.008 0.51515 0.17256 0.0
C331 C 0.99863 0.53769 0.18001 0.0
C332 C 0.97976 0.538 0.19553 0.0
C333 C 0.97051 0.51562 0.20409 0.0
C334 C 0.02682 0.51494 0.1515 0.0
C335 C 0.04579 0.51545 0.17262 0.0
C336 C 0.05616 0.49341 0.17988 0.0
C337 C 0.07506 0.49395 0.19575 0.0
C338 C 0.08318 0.51675 0.20518 0.0
C339 C 0.07318 0.53889 0.1981 0.0
C340 C 0.05439 0.53815 0.18195 0.0
H341 H 0.04742 0.54899 0.76371 0.0
H342 H 0.04739 0.46955 0.76546 0.0
H343 H 0.09641 0.50963 0.80928 0.0
H344 H 0.02613 0.52586 0.72504 0.0
H345 H 0.02694 0.49314 0.72422 0.0
H346 H 1.006 0.54751 0.76974 0.0
H347 H 0.953 0.50751 0.79802 0.0
H348 H 1.00202 0.46919 0.75303 0.0
C349 C 0.05407 0.53175 0.77195 0.0
C350 C 0.07269 0.53197 0.78868 0.0
C351 C 0.04457 0.50926 0.76411 0.0
C352 C 0.05406 0.4869 0.77295 0.0
C353 C 0.07268 0.48695 0.78975 0.0
C354 C 0.08155 0.50953 0.79808 0.0
C355 C 0.02621 0.50914 0.74152 0.0
C356 C 1.00675 0.50822 0.76092 0.0
C357 C 0.99806 0.53018 0.77266 0.0
C358 C 0.97873 0.52997 0.78653 0.0
C359 C 0.96821 0.50763 0.78859 0.0
C360 C 0.97631 0.48575 0.77623 0.0
C361 C 0.99585 0.48595 0.76333 0.0
H362 H 0.29242 0.04668 0.44925 0.0
H363 H 0.28532 0.03926 0.55689 0.0
H364 H 0.26184 0.10271 0.50461 0.0
H365 H 0.31257 0.01724 0.48108 0.0
H366 H 0.31133 0.01582 0.52601 0.0
H367 H 0.28998 0.99243 0.44615 0.0
H368 H 0.26031 0.93183 0.49578 0.0
H369 H 0.28643 0.98965 0.55467 0.0
C370 C 0.28638 0.05341 0.47274 0.0
C371 C 0.27664 0.07631 0.47331 0.0
C372 C 0.28947 0.03989 0.50283 0.0
C373 C 0.28246 0.04928 0.53357 0.0
C374 C 0.27234 0.07192 0.53435 0.0
C375 C 0.26926 0.08498 0.50405 0.0
C376 C 0.30199 0.0168 0.50267 0.0
C377 C 0.28909 0.99398 0.50057 0.0
C378 C 0.28462 0.98356 0.46901 0.0
C379 C 0.27411 0.96113 0.46699 0.0
C380 C 0.26752 0.94974 0.49689 0.0
C381 C 0.27187 0.95985 0.52852 0.0
C382 C 0.28259 0.98206 0.53026 0.0
H383 H 0.506 0.69488 0.94339 0.0
H384 H 0.49559 0.69776 0.05058 0.0
H385 H 0.4512 0.66675 0.98469 0.0
H386 H 0.52362 0.72491 0.98131 0.0
H387 H 0.52193 0.72193 0.02588 0.0
H388 H 0.54512 0.69711 0.94819 0.0
H389 H 0.59457 0.66633 0.00378 0.0
H390 H 0.54385 0.69431 0.05693 0.0
C391 C 0.49705 0.68991 0.96515 0.0
C392 C 0.4781 0.67917 0.96032 0.0
C393 C 0.50385 0.69587 -0.00213 0.0
C394 C 0.49116 0.69153 0.02571 0.0
C395 C 0.47196 0.68146 0.02087 0.0
C396 C 0.46614 0.67415 0.98846 0.0
C397 C 0.52269 0.71111 0.00221 0.0
C398 C 0.54162 0.69584 0.00244 0.0
C399 C 0.55163 0.69102 0.97196 0.0
C400 C 0.57067 0.68003 0.97231 0.0
C401 C 0.57936 0.67328 0.00333 0.0
C402 C 0.56997 0.67855 0.03393 0.0
C403 C 0.55091 0.68945 0.03336 0.0
H404 H 0.81563 0.03992 0.44883 0.0
H405 H 0.80902 0.0355 0.55672 0.0
H406 H 0.78444 0.0969 0.50137 0.0
H407 H 0.83811 0.01414 0.48332 0.0
H408 H 0.8355 0.01249 0.52803 0.0
H409 H 0.81615 0.98944 0.44576 0.0
H410 H 0.79108 0.92423 0.49088 0.0
H411 H 0.81407 0.98188 0.55407 0.0
C412 C 0.80955 0.0472 0.47197 0.0
C413 C 0.79891 0.06951 0.47119 0.0
C414 C 0.81319 0.03481 0.50275 0.0
C415 C 0.80581 0.0447 0.53289 0.0
C416 C 0.79513 0.06696 0.53251 0.0
C417 C 0.7916 0.079 0.50153 0.0
C418 C 0.82688 0.01277 0.50389 0.0
C419 C 0.81538 0.98896 0.50036 0.0
C420 C 0.81146 0.97935 0.46811 0.0
C421 C 0.80246 0.95614 0.46474 0.0
C422 C 0.79731 0.94259 0.49365 0.0
C423 C 0.80176 0.95146 0.52598 0.0
C424 C 0.81021 0.97506 0.52923 0.0
H425 H 0.50665 0.3726 0.93836 0.0
H426 H 0.50713 0.36904 0.04727 0.0
H427 H 0.45915 0.33575 0.99116 0.0
H428 H 0.52829 0.40008 0.97123 0.0
H429 H 0.52783 0.39957 0.0162 0.0
H430 H 0.55119 0.37361 0.94014 0.0
H431 H 0.59867 0.33924 -0.00317 0.0
H432 H 0.54875 0.37024 0.04897 0.0
C433 C 0.50023 0.36598 0.96182 0.0
C434 C 0.48212 0.35276 0.96119 0.0
C435 C 0.50968 0.37141 0.99285 0.0
C436 C 0.50049 0.36396 0.02328 0.0
C437 C 0.48237 0.35077 0.02274 0.0
C438 C 0.47361 0.3449 0.99164 0.0
C439 C 0.52817 0.38754 0.99362 0.0
C440 C 0.54727 0.37259 0.99438 0.0
C441 C 0.55737 0.36739 0.9641 0.0
C442 C 0.57586 0.35509 0.96486 0.0
C443 C 0.58396 0.34766 -0.00399 0.0
C444 C 0.57442 0.35311 0.02636 0.0
C445 C 0.55598 0.36549 0.02551 0.0
C446 C 0.158 0.3854 0.2053 0.0
C447 C 0.17528 0.39723 0.19312 0.0
C448 C 0.13952 0.39777 0.20646 0.0
C449 C 0.13832 0.42263 0.19553 0.0
C450 C 0.15563 0.43455 0.1828 0.0
C451 C 0.1738 0.42169 0.18154 0.0
C452 C 0.12137 0.38437 0.2199 0.0
C453 C 0.15506 0.46108 0.17093 0.0
C454 C 0.09058 0.45628 0.17075 0.0
C455 C 0.08789 0.4716 0.19867 0.0
C456 C 0.10609 0.43881 0.17031 0.0
C457 C 0.11929 0.43678 0.19834 0.0
C458 C 0.11562 0.45079 0.2276 0.0
C459 C 0.0999 0.4679 0.22747 0.0
C460 C 0.10926 0.42391 0.13885 0.0
C461 C 0.12925 0.44921 0.25808 0.0
H462 H 0.15897 0.3666 0.21461 0.0
H463 H 0.1869 0.43086 0.17137 0.0
H464 H 0.11638 0.39309 0.2436 0.0
H465 H 0.1088 0.38577 0.20156 0.0
H466 H 0.12443 0.36458 0.22515 0.0
H467 H 0.16979 0.46761 0.16149 0.0
H468 H 0.14381 0.46332 0.15042 0.0
H469 H 0.15044 0.47311 0.19198 0.0
H470 H 0.08146 0.45907 0.14831 0.0
H471 H 0.0977 0.47944 0.24932 0.0
H472 H 0.11245 0.40438 0.14541 0.0
H473 H 0.1224 0.43126 0.125 0.0
H474 H 0.09604 0.4246 0.1217 0.0
H475 H 0.12301 0.45901 0.28012 0.0
H476 H 0.14396 0.45757 0.25181 0.0
H477 H 0.13197 0.42972 0.26535 0.0
C478 C 0.15511 0.64114 0.79995 0.0
C479 C 0.17284 0.62854 0.79243 0.0
C480 C 0.13648 0.62894 0.79985 0.0
C481 C 0.13558 0.60356 0.79199 0.0
C482 C 0.15339 0.59089 0.7838 0.0
C483 C 0.17174 0.60351 0.78411 0.0
C484 C 0.11785 0.64306 0.80875 0.0
C485 C 0.15311 0.56385 0.77507 0.0
C486 C 0.09525 0.55951 0.82204 0.0
C487 C 0.08483 0.55483 0.79192 0.0
C488 C 0.11088 0.57682 0.82309 0.0
C489 C 0.11626 0.58974 0.79325 0.0
C490 C 0.10463 0.58665 0.76353 0.0
C491 C 0.08902 0.56923 0.76323 0.0
C492 C 0.1227 0.5797 0.85542 0.0
C493 C 0.10976 0.60016 0.73124 0.0
H494 H 0.15584 0.66044 0.80665 0.0
H495 H 0.1853 0.59375 0.77765 0.0
H496 H 0.10639 0.64106 0.78856 0.0
H497 H 0.11133 0.63536 0.83229 0.0
H498 H 0.12091 0.66298 0.81247 0.0
H499 H 0.1682 0.55685 0.76856 0.0
H500 H 0.14734 0.5529 0.79673 0.0
H501 H 0.14289 0.56065 0.75336 0.0
H502 H 0.09196 0.54848 0.84431 0.0
H503 H 0.08114 0.56553 0.7398 0.0
H504 H 0.1254 0.59946 0.86078 0.0
H505 H 0.13752 0.57077 0.85271 0.0
H506 H 0.11496 0.57115 0.87736 0.0
H507 H 0.11286 0.61989 0.73616 0.0
H508 H 0.09755 0.59881 0.71216 0.0
H509 H 0.12353 0.59211 0.7204 0.0
C510 C 0.88104 0.60899 0.18546 0.0
C511 C 0.87992 0.63428 0.19219 0.0
C512 C 0.89937 0.59644 0.18669 0.0
C513 C 0.91712 0.60938 0.19514 0.0
C514 C 0.91618 0.63491 0.20192 0.0
C515 C 0.89761 0.64707 0.20029 0.0
C516 C 0.89967 0.56917 0.1793 0.0
C517 C 0.93475 0.6493 0.21112 0.0
C518 C 0.95724 0.56589 0.22765 0.0
C519 C 0.96779 0.56092 0.198 0.0
C520 C 0.94169 0.58323 0.2278 0.0
C521 C 0.93645 0.59574 0.19747 0.0
C522 C 0.94819 0.59232 0.16823 0.0
C523 C 0.96378 0.57498 0.16887 0.0
C524 C 0.92979 0.58655 0.25969 0.0
C525 C 0.94315 0.60528 0.13539 0.0
H526 H 0.86748 0.59879 0.17984 0.0
H527 H 0.89696 0.66666 0.20519 0.0
H528 H 0.91019 0.56542 0.15843 0.0
H529 H 0.90508 0.5588 0.20183 0.0
H530 H 0.88466 0.56198 0.17219 0.0
H531 H 0.93156 0.66913 0.21521 0.0
H532 H 0.94155 0.6415 0.2345 0.0
H533 H 0.94605 0.64773 0.19086 0.0
H534 H 0.96037 0.55508 0.25023 0.0
H535 H 0.97175 0.57101 0.1458 0.0
H536 H 0.91504 0.57732 0.25694 0.0
H537 H 0.92696 0.60636 0.26426 0.0
H538 H 0.93755 0.57854 0.28211 0.0
H539 H 0.92939 0.597 0.12444 0.0
H540 H 0.9554 0.60368 0.1167 0.0
H541 H 0.94008 0.62508 0.13963 0.0
C542 C 0.90223 0.37069 0.74644 0.0
C543 C 0.88835 0.36978 0.77291 0.0
C544 C 0.91826 0.3875 0.74671 0.0
C545 C 0.9205 0.40387 0.77408 0.0
C546 C 0.90692 0.40253 0.80137 0.0
C547 C 0.89102 0.38554 0.80044 0.0
C548 C 0.93232 0.38841 0.71703 0.0
C549 C 0.90879 0.41962 0.83107 0.0
C550 C 0.96869 0.4408 0.78656 0.0
C551 C 0.96307 0.46382 0.77335 0.0
C552 C 0.95514 0.42084 0.78647 0.0
C553 C 0.93567 0.42406 0.77261 0.0
C554 C 0.9303 0.44705 0.7581 0.0
C555 C 0.94404 0.46657 0.75863 0.0
C556 C 0.96142 0.39658 0.80206 0.0
C557 C 0.90982 0.45128 0.74274 0.0
H558 H 0.90019 0.35877 0.72488 0.0
H559 H 0.88058 0.38468 0.82125 0.0
H560 H 0.93018 0.40597 0.70289 0.0
H561 H 0.94811 0.38794 0.72586 0.0
H562 H 0.92979 0.37289 0.69942 0.0
H563 H 0.89804 0.41495 0.85144 0.0
H564 H 0.9242 0.41894 0.84164 0.0
H565 H 0.906 0.43887 0.82261 0.0
H566 H 0.98339 0.43867 0.79793 0.0
H567 H 0.93979 0.48425 0.74786 0.0
H568 H 0.95889 0.3814 0.78396 0.0
H569 H 0.95212 0.39258 0.82457 0.0
H570 H 0.97742 0.39658 0.80986 0.0
H571 H 0.90675 0.43744 0.72293 0.0
H572 H 0.90829 0.46997 0.73136 0.0
H573 H 0.89818 0.44896 0.76239 0.0
C574 C 0.24131 0.1728 0.3363 0.0
C575 C 0.25657 0.18294 0.31627 0.0
C576 C 0.24503 0.15279 0.35809 0.0
C577 C 0.26441 0.14233 0.35952 0.0
C578 C 0.27948 0.15125 0.33758 0.0
C579 C 0.27544 0.17158 0.31641 0.0
C580 C 0.22855 0.14392 0.38117 0.0
C581 C 0.30023 0.14031 0.33791 0.0
C582 C 0.2794 0.11767 0.44565 0.0
C583 C 0.27533 0.0924 0.44278 0.0
C584 C 0.27639 0.1339 0.41846 0.0
C585 C 0.26952 0.12464 0.3872 0.0
C586 C 0.26645 0.09896 0.38344 0.0
C587 C 0.26932 0.08309 0.41139 0.0
C588 C 0.27987 0.16114 0.42366 0.0
C589 C 0.25953 0.08837 0.35028 0.0
H590 H 0.22654 0.18099 0.33571 0.0
H591 H 0.28739 0.17926 0.30118 0.0
H592 H 0.227 0.12361 0.37991 0.0
H593 H 0.23241 0.14858 0.40765 0.0
H594 H 0.21388 0.15241 0.37478 0.0
H595 H 0.30909 0.14635 0.31566 0.0
H596 H 0.3083 0.14613 0.36108 0.0
H597 H 0.29947 0.11989 0.33836 0.0
H598 H 0.28464 0.1249 0.46956 0.0
H599 H 0.26624 0.06357 0.40897 0.0
H600 H 0.26561 0.17129 0.41989 0.0
H601 H 0.29065 0.16836 0.40481 0.0
H602 H 0.28573 0.16524 0.44931 0.0
H603 H 0.24385 0.09404 0.34517 0.0
H604 H 0.26022 0.06792 0.35028 0.0
H605 H 0.2688 0.09565 0.32927 0.0
C606 C 0.39432 0.68962 0.81505 0.0
C607 C 0.37869 0.69777 0.83567 0.0
C608 C 0.41333 0.68418 0.82871 0.0
C609 C 0.41675 0.68695 0.86378 0.0
C610 C 0.40087 0.69461 0.88476 0.0
C611 C 0.38209 0.69989 0.87047 0.0
C612 C 0.42985 0.67604 0.80557 0.0
C613 C 0.40375 0.69757 0.92239 0.0
C614 C 0.45681 0.65745 0.91798 0.0
C615 C 0.46826 0.67818 0.92666 0.0
C616 C 0.44111 0.6593 0.89437 0.0
C617 C 0.43686 0.68242 0.87914 0.0
C618 C 0.45008 0.7025 0.88448 0.0
C619 C 0.46568 0.70012 0.90822 0.0
C620 C 0.42767 0.63728 0.88899 0.0
C621 C 0.44631 0.72738 0.86838 0.0
H622 H 0.39185 0.68814 0.78808 0.0
H623 H 0.37 0.70575 0.88662 0.0
H624 H 0.4416 0.69049 0.80434 0.0
H625 H 0.43703 0.65903 0.81555 0.0
H626 H 0.42431 0.67252 0.77956 0.0
H627 H 0.38979 0.70331 0.9352 0.0
H628 H 0.40888 0.67995 0.93391 0.0
H629 H 0.41549 0.71159 0.92738 0.0
H630 H 0.45886 0.64041 0.9321 0.0
H631 H 0.47442 0.71623 0.91492 0.0
H632 H 0.42295 0.63595 0.86218 0.0
H633 H 0.41395 0.63935 0.90437 0.0
H634 H 0.43514 0.61983 0.89668 0.0
H635 H 0.45975 0.73945 0.86977 0.0
H636 H 0.43388 0.73658 0.88173 0.0
H637 H 0.44178 0.72545 0.84155 0.0
C638 C 0.80109 0.86626 0.30397 0.0
C639 C 0.79988 0.84297 0.31951 0.0
C640 C 0.8006 0.88788 0.32323 0.0
C641 C 0.7993 0.88605 0.35882 0.0
C642 C 0.79794 0.86254 0.37453 0.0
C643 C 0.79809 0.84133 0.35466 0.0
C644 C 0.80163 0.91262 0.30558 0.0
C645 C 0.79683 0.85974 0.41247 0.0
C646 C 0.81929 0.93474 0.41797 0.0
C647 C 0.80155 0.9436 0.43192 0.0
C648 C 0.81881 0.91705 0.3924 0.0
C649 C 0.8001 0.90845 0.38017 0.0
C650 C 0.78217 0.91904 0.39217 0.0
C651 C 0.7831 0.93623 0.41841 0.0
C652 C 0.83827 0.90595 0.38082 0.0
C653 C 0.76197 0.91089 0.37915 0.0
H654 H 0.80232 0.86755 0.27674 0.0
H655 H 0.79739 0.82334 0.36674 0.0
H656 H 0.78889 0.92429 0.31339 0.0
H657 H 0.81557 0.92235 0.31303 0.0
H658 H 0.80134 0.91091 0.27766 0.0
H659 H 0.7959 0.84014 0.42067 0.0
H660 H 0.81025 0.86818 0.42435 0.0
H661 H 0.78354 0.86956 0.42212 0.0
H662 H 0.83353 0.94019 0.42895 0.0
H663 H 0.76941 0.94299 0.42953 0.0
H664 H 0.83871 0.90504 0.35289 0.0
H665 H 0.83947 0.8868 0.39071 0.0
H666 H 0.85148 0.91655 0.3898 0.0
H667 H 0.7621 0.90934 0.35125 0.0
H668 H 0.74991 0.92383 0.38643 0.0
H669 H 0.75834 0.89241 0.38971 0.0
C670 C 0.66506 0.34584 0.82919 0.0
C671 C 0.68175 0.35042 0.84997 0.0
C672 C 0.64548 0.3468 0.84202 0.0
C673 C 0.64254 0.3523 0.87649 0.0
C674 C 0.65932 0.35733 0.89741 0.0
C675 C 0.67866 0.35637 0.8839 0.0
C676 C 0.62799 0.34153 0.81889 0.0
C677 C 0.6569 0.36312 0.93439 0.0
C678 C 0.59431 0.37397 0.9164 0.0
C679 C 0.58864 0.35281 0.93454 0.0
C680 C 0.61098 0.37364 0.89489 0.0
C681 C 0.62215 0.35164 0.8916 0.0
C682 C 0.61522 0.32968 0.90724 0.0
C683 C 0.59852 0.33054 0.92848 0.0
C684 C 0.61769 0.39737 0.8783 0.0
C685 C 0.62653 0.30576 0.90427 0.0
H686 H 0.66732 0.3415 0.80284 0.0
H687 H 0.69146 0.35958 0.90025 0.0
H688 H 0.62023 0.32449 0.82739 0.0
H689 H 0.61695 0.35674 0.81995 0.0
H690 H 0.63268 0.33915 0.79227 0.0
H691 H 0.67141 0.36735 0.94694 0.0
H692 H 0.64679 0.37912 0.93738 0.0
H693 H 0.64992 0.3472 0.94765 0.0
H694 H 0.58681 0.39127 0.92119 0.0
H695 H 0.59408 0.31412 0.9424 0.0
H696 H 0.62247 0.39416 0.85195 0.0
H697 H 0.63077 0.40485 0.89229 0.0
H698 H 0.60567 0.41148 0.87817 0.0
H699 H 0.63069 0.30237 0.87766 0.0
H700 H 0.6177 0.28979 0.91375 0.0
H701 H 0.64061 0.3069 0.91921 0.0
C702 C 0.25033 0.86324 0.6806 0.0
C703 C 0.25305 0.84039 0.66504 0.0
C704 C 0.25297 0.8854 0.66247 0.0
C705 C 0.25869 0.88462 0.62814 0.0
C706 C 0.2618 0.86157 0.61255 0.0
C707 C 0.25884 0.83977 0.63114 0.0
C708 C 0.24931 0.9096 0.67979 0.0
C709 C 0.26815 0.85991 0.57611 0.0
C710 C 0.24827 0.93486 0.56354 0.0
C711 C 0.26739 0.94504 0.55917 0.0
C712 C 0.24486 0.91639 0.58786 0.0
C713 C 0.26103 0.90769 0.60789 0.0
C714 C 0.28004 0.91915 0.60519 0.0
C715 C 0.28297 0.93782 0.58091 0.0
C716 C 0.22428 0.90497 0.59032 0.0
C717 C 0.2977 0.91034 0.62593 0.0
H718 H 0.24573 0.86375 0.70677 0.0
H719 H 0.26123 0.82214 0.61919 0.0
H720 H 0.26275 0.92156 0.67787 0.0
H721 H 0.23682 0.91948 0.66703 0.0
H722 H 0.24553 0.90708 0.70688 0.0
H723 H 0.27057 0.84059 0.56812 0.0
H724 H 0.25655 0.86828 0.55948 0.0
H725 H 0.28222 0.87043 0.57216 0.0
H726 H 0.23621 0.94052 0.54675 0.0
H727 H 0.29781 0.9455 0.5773 0.0
H728 H 0.21976 0.90294 0.6171 0.0
H729 H 0.22454 0.88626 0.57928 0.0
H730 H 0.2128 0.91606 0.57667 0.0
H731 H 0.29351 0.908 0.65281 0.0
H732 H 0.3106 0.92325 0.62429 0.0
H733 H 0.30255 0.89207 0.61669 0.0
C734 C 0.66983 0.69554 0.12353 0.0
C735 C 0.67231 0.69223 0.15845 0.0
C736 C 0.65131 0.69118 0.10776 0.0
C737 C 0.63479 0.6832 0.12733 0.0
C738 C 0.63726 0.67925 0.16248 0.0
C739 C 0.65598 0.6839 0.17765 0.0
C740 C 0.64933 0.6957 0.07019 0.0
C741 C 0.62009 0.67047 0.18407 0.0
C742 C 0.58568 0.69861 0.08386 0.0
C743 C 0.58228 0.67716 0.06524 0.0
C744 C 0.6019 0.70021 0.10648 0.0
C745 C 0.61491 0.6798 0.11067 0.0
C746 C 0.61027 0.6573 0.09458 0.0
C747 C 0.59402 0.65627 0.07195 0.0
C748 C 0.60623 0.72453 0.12322 0.0
C749 C 0.6235 0.63497 0.09875 0.0
H750 H 0.68225 0.70233 0.10859 0.0
H751 H 0.65784 0.68107 0.20461 0.0
H752 H 0.64399 0.67875 0.05754 0.0
H753 H 0.63806 0.7103 0.06522 0.0
H754 H 0.66371 0.70146 0.05852 0.0
H755 H 0.62473 0.66698 0.21067 0.0
H756 H 0.60802 0.68447 0.1838 0.0
H757 H 0.61363 0.65327 0.17366 0.0
H758 H 0.57679 0.71489 0.07852 0.0
H759 H 0.59137 0.63963 0.05765 0.0
H760 H 0.61921 0.73347 0.11071 0.0
H761 H 0.61026 0.72171 0.15018 0.0
H762 H 0.59326 0.73726 0.12155 0.0
H763 H 0.63741 0.63777 0.08401 0.0
H764 H 0.61602 0.61795 0.08967 0.0
H765 H 0.62791 0.63227 0.12556 0.0
C766 C 0.7856 0.17751 0.65236 0.0
C767 C 0.77638 0.17465 0.68385 0.0
C768 C 0.78809 0.15741 0.63086 0.0
C769 C 0.78123 0.13379 0.64107 0.0
C770 C 0.77218 0.13065 0.67305 0.0
C771 C 0.7698 0.15116 0.69404 0.0
C772 C 0.79769 0.16159 0.59685 0.0
C773 C 0.76484 0.10572 0.68488 0.0
C774 C 0.77147 0.09198 0.56682 0.0
C775 C 0.78984 0.0797 0.56425 0.0
C776 C 0.76792 0.1085 0.59311 0.0
C777 C 0.78308 0.11273 0.61752 0.0
C778 C 0.80101 0.09889 0.61661 0.0
C779 C 0.8042 0.08255 0.58992 0.0
C780 C 0.74854 0.12275 0.59325 0.0
C781 C 0.81746 0.1027 0.64233 0.0
H782 H 0.79043 0.19566 0.6441 0.0
H783 H 0.76282 0.14882 0.71849 0.0
H784 H 0.81089 0.14941 0.59418 0.0
H785 H 0.78694 0.1568 0.57646 0.0
H786 H 0.8026 0.18099 0.59304 0.0
H787 H 0.75889 0.10618 0.71098 0.0
H788 H 0.75284 0.09908 0.66773 0.0
H789 H 0.77718 0.09211 0.68399 0.0
H790 H 0.76022 0.08957 0.54727 0.0
H791 H 0.81848 0.07326 0.58799 0.0
H792 H 0.75155 0.14226 0.58625 0.0
H793 H 0.74192 0.12261 0.61885 0.0
H794 H 0.73739 0.1152 0.57516 0.0
H795 H 0.82482 0.12074 0.63758 0.0
H796 H 0.82902 0.08806 0.64121 0.0
H797 H 0.81125 0.10309 0.66822 0.0
C798 C 0.39894 0.32469 0.16511 0.0
C799 C 0.38125 0.32856 0.14644 0.0
C800 C 0.41784 0.32899 0.15068 0.0
C801 C 0.41908 0.33718 0.11673 0.0
C802 C 0.40127 0.34192 0.09817 0.0
C803 C 0.38263 0.33765 0.11327 0.0
C804 C 0.43645 0.32391 0.17136 0.0
C805 C 0.40189 0.35075 0.0619 0.0
C806 C 0.4647 0.36516 0.07431 0.0
C807 C 0.47063 0.34567 0.05373 0.0
C808 C 0.44885 0.36218 0.09723 0.0
C809 C 0.43878 0.33921 0.09942 0.0
C810 C 0.44605 0.31889 0.08103 0.0
C811 C 0.46191 0.32238 0.05844 0.0
C812 C 0.44179 0.3842 0.11677 0.0
C813 C 0.43591 0.29402 0.08274 0.0
H814 H 0.39807 0.31747 0.19066 0.0
H815 H 0.36906 0.34116 0.09889 0.0
H816 H 0.44417 0.30747 0.16135 0.0
H817 H 0.44706 0.33962 0.16946 0.0
H818 H 0.433 0.32048 0.1984 0.0
H819 H 0.38673 0.35455 0.05145 0.0
H820 H 0.41101 0.36781 0.05984 0.0
H821 H 0.40912 0.33661 0.04606 0.0
H822 H 0.47131 0.38324 0.07055 0.0
H823 H 0.46656 0.30728 0.0426 0.0
H824 H 0.43816 0.3789 0.14315 0.0
H825 H 0.42791 0.39153 0.10491 0.0
H826 H 0.45317 0.39916 0.11711 0.0
H827 H 0.43318 0.28847 0.10933 0.0
H828 H 0.4449 0.27947 0.07047 0.0
H829 H 0.42115 0.29511 0.06981 0.0
C830 C 0.88325 0.60667 0.78783 0.0
C831 C 0.88227 0.62987 0.80297 0.0
C832 C 0.90127 0.59349 0.78673 0.0
C833 C 0.91887 0.60375 0.80102 0.0
C834 C 0.9181 0.62732 0.81597 0.0
C835 C 0.89978 0.64006 0.81692 0.0
C836 C 0.90135 0.56831 0.77078 0.0
C837 C 0.93656 0.63896 0.83119 0.0
C838 C 0.95635 0.55411 0.82405 0.0
C839 C 0.96777 0.55297 0.79452 0.0
C840 C 0.94136 0.57191 0.82773 0.0
C841 C 0.93774 0.58908 0.80126 0.0
C842 C 0.95055 0.58954 0.77287 0.0
C843 C 0.96544 0.57142 0.76981 0.0
C844 C 0.92819 0.57081 0.85854 0.0
C845 C 0.9474 0.60772 0.74429 0.0
H846 H 0.86975 0.59851 0.77743 0.0
H847 H 0.89917 0.65809 0.82837 0.0
H848 H 0.91251 0.5678 0.75018 0.0
H849 H 0.9058 0.5542 0.78983 0.0
H850 H 0.88648 0.56317 0.76024 0.0
H851 H 0.93366 0.65783 0.84055 0.0
H852 H 0.94212 0.62744 0.85253 0.0
H853 H 0.94868 0.63989 0.81219 0.0
H854 H 0.95823 0.53994 0.84331 0.0
H855 H 0.97413 0.57053 0.74683 0.0
H856 H 0.91332 0.56325 0.85142 0.0
H857 H 0.92578 0.5895 0.86876 0.0
H858 H 0.93467 0.55891 0.87879 0.0
H859 H 0.9341 0.60213 0.72927 0.0
H860 H 0.96052 0.60858 0.72721 0.0
H861 H 0.94449 0.62643 0.75413 0.0
C862 C 0.87921 0.42305 0.18844 0.0
C863 C 0.87801 0.39774 0.19574 0.0
C864 C 0.89761 0.4356 0.18915 0.0
C865 C 0.91534 0.42264 0.19766 0.0
C866 C 0.91431 0.39709 0.20502 0.0
C867 C 0.89568 0.38493 0.20389 0.0
C868 C 0.898 0.46288 0.18113 0.0
C869 C 0.93286 0.38266 0.21432 0.0
C870 C 0.96236 0.45658 0.17011 0.0
C871 C 0.96673 0.47042 0.19893 0.0
C872 C 0.94645 0.43955 0.16995 0.0
C873 C 0.93477 0.43623 0.1994 0.0
C874 C 0.94029 0.44858 0.22939 0.0
C875 C 0.95615 0.46561 0.22874 0.0
C876 C 0.94111 0.42677 0.13745 0.0
C877 C 0.92847 0.44534 0.26148 0.0
H878 H 0.86567 0.43326 0.18274 0.0
H879 H 0.89499 0.36532 0.20918 0.0
H880 H 0.90358 0.47319 0.20334 0.0
H881 H 0.90844 0.46666 0.16002 0.0
H882 H 0.88299 0.4701 0.17406 0.0
H883 H 0.92958 0.36285 0.21902 0.0
H884 H 0.94403 0.38419 0.1938 0.0
H885 H 0.93985 0.39047 0.23734 0.0
H886 H 0.97034 0.46044 0.1469 0.0
H887 H 0.95955 0.47627 0.25108 0.0
H888 H 0.92732 0.43514 0.12662 0.0
H889 H 0.93794 0.40697 0.14212 0.0
H890 H 0.95323 0.42841 0.11848 0.0
H891 H 0.91376 0.45461 0.25858 0.0
H892 H 0.93634 0.45333 0.28362 0.0
H893 H 0.92552 0.42554 0.26663 0.0
C894 C 0.17225 0.41748 0.79008 0.0
C895 C 0.17361 0.39253 0.79936 0.0
C896 C 0.15374 0.42963 0.78894 0.0
C897 C 0.13602 0.41656 0.79724 0.0
C898 C 0.1372 0.39126 0.8061 0.0
C899 C 0.15597 0.37953 0.80703 0.0
C900 C 0.15319 0.45661 0.77917 0.0
C901 C 0.11867 0.37671 0.81514 0.0
C902 C 0.09502 0.4599 0.82472 0.0
C903 C 0.08481 0.46422 0.79419 0.0
C904 C 0.11078 0.44289 0.82679 0.0
C905 C 0.11652 0.42991 0.79757 0.0
C906 C 0.10509 0.43259 0.76749 0.0
C907 C 0.08933 0.44972 0.76617 0.0
C908 C 0.12237 0.44045 0.85948 0.0
C909 C 0.1106 0.41901 0.73583 0.0
H910 H 0.18572 0.42755 0.78347 0.0
H911 H 0.1569 0.36029 0.81444 0.0
H912 H 0.14311 0.45942 0.75711 0.0
H913 H 0.1471 0.46753 0.80027 0.0
H914 H 0.16824 0.46396 0.77273 0.0
H915 H 0.12196 0.3569 0.81972 0.0
H916 H 0.11186 0.3844 0.83822 0.0
H917 H 0.10736 0.37828 0.79462 0.0
H918 H 0.09149 0.47102 0.84647 0.0
H919 H 0.08162 0.45314 0.74242 0.0
H920 H 0.1371 0.44974 0.85679 0.0
H921 H 0.12527 0.42079 0.86562 0.0
H922 H 0.11435 0.44891 0.88093 0.0
H923 H 0.12433 0.42733 0.72493 0.0
H924 H 0.09849 0.41993 0.7165 0.0
H925 H 0.1139 0.39939 0.74159 0.0
C926 C 0.14286 0.65908 0.22697 0.0
C927 C 0.16234 0.65107 0.21968 0.0
C928 C 0.12629 0.64322 0.22373 0.0
C929 C 0.12921 0.61876 0.21275 0.0
C930 C 0.14875 0.6107 0.20474 0.0
C931 C 0.16505 0.62689 0.20839 0.0
C932 C 0.10571 0.6525 0.23254 0.0
C933 C 0.15253 0.58476 0.19291 0.0
C934 C 0.09376 0.56639 0.23489 0.0
C935 C 0.08401 0.56243 0.20397 0.0
C936 C 0.10767 0.5856 0.23868 0.0
C937 C 0.11206 0.60115 0.21076 0.0
C938 C 0.10129 0.59823 0.18011 0.0
C939 C 0.08733 0.57891 0.17711 0.0
C940 C 0.11858 0.58825 0.27194 0.0
C941 C 0.1055 0.61439 0.14975 0.0
H942 H 0.14053 0.67784 0.23518 0.0
H943 H 0.18002 0.62038 0.20313 0.0
H944 H 0.09535 0.65011 0.21082 0.0
H945 H 0.09959 0.64154 0.2539 0.0
H946 H 0.10586 0.67225 0.23967 0.0
H947 H 0.16847 0.58167 0.18638 0.0
H948 H 0.14825 0.57139 0.21298 0.0
H949 H 0.14314 0.58077 0.17042 0.0
H950 H 0.09116 0.55369 0.25572 0.0
H951 H 0.08 0.57574 0.15304 0.0
H952 H 0.1184 0.60772 0.28021 0.0
H953 H 0.13448 0.58288 0.26887 0.0
H954 H 0.11193 0.57654 0.29213 0.0
H955 H 0.1057 0.6341 0.15692 0.0
H956 H 0.09426 0.61177 0.12931 0.0
H957 H 0.12052 0.60995 0.1397 0.0
C958 C 0.78323 0.84597 0.6638 0.0
C959 C 0.80011 0.84306 0.68472 0.0
C960 C 0.7817 0.866 0.64124 0.0
C961 C 0.79746 0.88345 0.63942 0.0
C962 C 0.81389 0.8815 0.66202 0.0
C963 C 0.81499 0.86136 0.68444 0.0
C964 C 0.76387 0.86749 0.6177 0.0
C965 C 0.83099 0.89973 0.66097 0.0
C966 C 0.80824 0.91067 0.55308 0.0
C967 C 0.80031 0.93448 0.55548 0.0
C968 C 0.80734 0.89404 0.58022 0.0
C969 C 0.79827 0.90132 0.61071 0.0
C970 C 0.7903 0.92539 0.61348 0.0
C971 C 0.79153 0.94181 0.58581 0.0
C972 C 0.81624 0.86866 0.57624 0.0
C973 C 0.78043 0.9337 0.64555 0.0
H974 H 0.7717 0.83189 0.6637 0.0
H975 H 0.82787 0.85952 0.70104 0.0
H976 H 0.75796 0.88656 0.61648 0.0
H977 H 0.76855 0.86248 0.59184 0.0
H978 H 0.75163 0.85484 0.62559 0.0
H979 H 0.84124 0.89757 0.68299 0.0
H980 H 0.83974 0.89699 0.6376 0.0
H981 H 0.82527 0.91889 0.66034 0.0
H982 H 0.81545 0.90512 0.52993 0.0
H983 H 0.78542 0.96022 0.5877 0.0
H984 H 0.80457 0.85439 0.58042 0.0
H985 H 0.82815 0.86561 0.59546 0.0
H986 H 0.82277 0.86595 0.55083 0.0
H987 H 0.76756 0.92148 0.65149 0.0
H988 H 0.775 0.953 0.64367 0.0
H989 H 0.79113 0.93224 0.667 0.0
C990 C 0.65436 0.32855 0.17627 0.0
C991 C 0.67264 0.33067 0.15913 0.0
C992 C 0.63604 0.3331 0.1597 0.0
C993 C 0.63598 0.33994 0.12514 0.0
C994 C 0.65441 0.34298 0.10804 0.0
C995 C 0.67247 0.3383 0.1252 0.0
C996 C 0.61674 0.3298 0.17885 0.0
C997 C 0.65503 0.35031 0.07116 0.0
C998 C 0.59372 0.3251 0.06451 0.0
C999 C 0.58565 0.34851 0.05816 0.0
C1000 C 0.60915 0.32171 0.08826 0.0
C1001 C 0.6168 0.3423 0.10592 0.0
C1002 C 0.60752 0.3656 0.10168 0.0
C1003 C 0.59199 0.36842 0.07782 0.0
C1004 C 0.61839 0.29649 0.09227 0.0
C1005 C 0.61513 0.38798 0.1201 0.0
H1006 H 0.65434 0.32305 0.20265 0.0
H1007 H 0.68646 0.33971 0.11159 0.0
H1008 H 0.60712 0.3463 0.17562 0.0
H1009 H 0.60832 0.31388 0.16856 0.0
H1010 H 0.61936 0.32653 0.20625 0.0
H1011 H 0.67056 0.35331 0.0621 0.0
H1012 H 0.64798 0.33568 0.05571 0.0
H1013 H 0.64636 0.36746 0.06681 0.0
H1014 H 0.58884 0.30973 0.04919 0.0
H1015 H 0.58594 0.3866 0.07263 0.0
H1016 H 0.62039 0.29171 0.11936 0.0
H1017 H 0.63342 0.29649 0.08052 0.0
H1018 H 0.60915 0.28195 0.08016 0.0
H1019 H 0.61804 0.38357 0.14709 0.0
H1020 H 0.60439 0.40356 0.11845 0.0
H1021 H 0.62951 0.39405 0.10885 0.0
C1022 C 0.26569 0.18271 0.65124 0.0
C1023 C 0.25586 0.18141 0.68234 0.0
C1024 C 0.26768 0.16182 0.63104 0.0
C1025 C 0.25982 0.13893 0.64234 0.0
C1026 C 0.25029 0.13733 0.6741 0.0
C1027 C 0.24827 0.15867 0.69365 0.0
C1028 C 0.27776 0.16442 0.59714 0.0
C1029 C 0.24201 0.11319 0.68718 0.0
C1030 C 0.24886 0.09669 0.56921 0.0
C1031 C 0.26699 0.0839 0.56663 0.0
C1032 C 0.24567 0.11342 0.59536 0.0
C1033 C 0.26089 0.11719 0.61979 0.0
C1034 C 0.27838 0.10249 0.61926 0.0
C1035 C 0.28127 0.08605 0.59255 0.0
C1036 C 0.22678 0.12864 0.59497 0.0
C1037 C 0.2948 0.10561 0.64521 0.0
H1038 H 0.27134 0.2003 0.64221 0.0
H1039 H 0.24081 0.15757 0.71783 0.0
H1040 H 0.29056 0.15151 0.59562 0.0
H1041 H 0.26706 0.15954 0.57672 0.0
H1042 H 0.28336 0.18343 0.59237 0.0
H1043 H 0.23624 0.11469 0.71332 0.0
H1044 H 0.22964 0.10689 0.67053 0.0
H1045 H 0.25377 0.09879 0.68678 0.0
H1046 H 0.23763 0.09476 0.54951 0.0
H1047 H 0.29535 0.07628 0.59069 0.0
H1048 H 0.23044 0.14782 0.58716 0.0
H1049 H 0.22017 0.1294 0.62054 0.0
H1050 H 0.21537 0.12126 0.57719 0.0
H1051 H 0.30319 0.12285 0.63974 0.0
H1052 H 0.30552 0.09 0.64503 0.0
H1053 H 0.28845 0.1072 0.6709 0.0
C1054 C 0.38248 0.69594 0.15376 0.0
C1055 C 0.36941 0.6759 0.14924 0.0
C1056 C 0.40136 0.6966 0.1383 0.0
C1057 C 0.40723 0.67693 0.11739 0.0
C1058 C 0.39465 0.65602 0.11435 0.0
C1059 C 0.37598 0.6557 0.13046 0.0
C1060 C 0.41442 0.71911 0.14258 0.0
C1061 C 0.40027 0.63467 0.09221 0.0
C1062 C 0.43758 0.69206 0.03953 0.0
C1063 C 0.45642 0.68214 0.04759 0.0
C1064 C 0.4217 0.69085 0.0623 0.0
C1065 C 0.42472 0.67988 0.09446 0.0
C1066 C 0.44399 0.67099 0.10358 0.0
C1067 C 0.45968 0.67218 0.07993 0.0
C1068 C 0.40147 0.70063 0.05138 0.0
C1069 C 0.44785 0.65957 0.13786 0.0
H1070 H 0.37761 0.71174 0.16803 0.0
H1071 H 0.36626 0.63984 0.1275 0.0
H1072 H 0.43026 0.71373 0.14684 0.0
H1073 H 0.41384 0.73048 0.11917 0.0
H1074 H 0.40948 0.73064 0.16396 0.0
H1075 H 0.39001 0.6187 0.0955 0.0
H1076 H 0.39975 0.64064 0.06535 0.0
H1077 H 0.41579 0.62859 0.0978 0.0
H1078 H 0.43512 0.7004 0.01487 0.0
H1079 H 0.47425 0.66466 0.0863 0.0
H1080 H 0.39628 0.71477 0.06931 0.0
H1081 H 0.3903 0.68547 0.05159 0.0
H1082 H 0.40175 0.70895 0.02565 0.0
H1083 H 0.44218 0.67173 0.158 0.0
H1084 H 0.46402 0.65606 0.14241 0.0
H1085 H 0.43966 0.64182 0.13997 0.0
C1086 C 0.80685 0.18893 0.36493 0.0
C1087 C 0.80231 0.18895 0.33034 0.0
C1088 C 0.80528 0.16736 0.38446 0.0
C1089 C 0.79909 0.14515 0.36904 0.0
C1090 C 0.79435 0.14502 0.33416 0.0
C1091 C 0.79595 0.16698 0.31521 0.0
C1092 C 0.81027 0.16836 0.42168 0.0
C1093 C 0.7878 0.12167 0.31685 0.0
C1094 C 0.81472 0.08909 0.42037 0.0
C1095 C 0.79761 0.0849 0.43998 0.0
C1096 C 0.81496 0.10754 0.39529 0.0
C1097 C 0.79771 0.12222 0.38984 0.0
C1098 C 0.77994 0.11679 0.40773 0.0
C1099 C 0.78009 0.09814 0.43251 0.0
C1100 C 0.83415 0.11257 0.37649 0.0
C1101 C 0.7612 0.13189 0.40259 0.0
H1102 H 0.81146 0.20595 0.37684 0.0
H1103 H 0.79256 0.16688 0.28842 0.0
H1104 H 0.79717 0.16231 0.43673 0.0
H1105 H 0.82274 0.15555 0.42765 0.0
H1106 H 0.81468 0.18715 0.42982 0.0
H1107 H 0.78433 0.12475 0.28968 0.0
H1108 H 0.79977 0.10761 0.31907 0.0
H1109 H 0.77433 0.11396 0.32937 0.0
H1110 H 0.82837 0.07909 0.42611 0.0
H1111 H 0.76673 0.09471 0.44724 0.0
H1112 H 0.84099 0.12987 0.38587 0.0
H1113 H 0.83113 0.11513 0.34912 0.0
H1114 H 0.84516 0.09743 0.37993 0.0
H1115 H 0.7635 0.15048 0.41341 0.0
H1116 H 0.74799 0.12329 0.41494 0.0
H1117 H 0.75789 0.13439 0.37531 0.0
C1118 C 0.39883 0.33297 0.8156 0.0
C1119 C 0.38103 0.33305 0.83432 0.0
C1120 C 0.41746 0.33764 0.83104 0.0
C1121 C 0.41833 0.34251 0.86605 0.0
C1122 C 0.40035 0.34359 0.88477 0.0
C1123 C 0.38197 0.33883 0.86872 0.0
C1124 C 0.43625 0.33647 0.81017 0.0
C1125 C 0.40058 0.34879 0.92217 0.0
C1126 C 0.46253 0.32619 0.92211 0.0
C1127 C 0.47016 0.34954 0.9299 0.0
C1128 C 0.44658 0.32347 0.89924 0.0
C1129 C 0.43796 0.34467 0.88396 0.0
C1130 C 0.44675 0.36809 0.88953 0.0
C1131 C 0.46282 0.37025 0.91246 0.0
C1132 C 0.43788 0.29811 0.89375 0.0
C1133 C 0.43813 0.39112 0.8736 0.0
H1134 H 0.39824 0.32891 0.78888 0.0
H1135 H 0.36838 0.33864 0.88353 0.0
H1136 H 0.44558 0.35313 0.81423 0.0
H1137 H 0.4453 0.32031 0.81825 0.0
H1138 H 0.43292 0.33485 0.78277 0.0
H1139 H 0.38527 0.35054 0.93262 0.0
H1140 H 0.4084 0.33365 0.93586 0.0
H1141 H 0.40895 0.36605 0.92725 0.0
H1142 H 0.46819 0.31019 0.93569 0.0
H1143 H 0.46854 0.38836 0.91878 0.0
H1144 H 0.43528 0.29485 0.86648 0.0
H1145 H 0.42318 0.2967 0.90653 0.0
H1146 H 0.44777 0.28335 0.90393 0.0
H1147 H 0.43456 0.38815 0.84656 0.0
H1148 H 0.44853 0.40705 0.87574 0.0
H1149 H 0.42395 0.39586 0.88643 0.0
C1150 C 0.28277 0.84592 0.35801 0.0
C1151 C 0.2779 0.84624 0.32356 0.0
C1152 C 0.28081 0.8671 0.37765 0.0
C1153 C 0.27392 0.88926 0.36244 0.0
C1154 C 0.26879 0.88969 0.32771 0.0
C1155 C 0.27076 0.8681 0.30867 0.0
C1156 C 0.28622 0.86575 0.41471 0.0
C1157 C 0.26153 0.91301 0.31061 0.0
C1158 C 0.25492 0.93402 0.42738 0.0
C1159 C 0.27237 0.94742 0.43477 0.0
C1160 C 0.2547 0.91619 0.40198 0.0
C1161 C 0.27232 0.91182 0.38333 0.0
C1162 C 0.28936 0.92692 0.38848 0.0
C1163 C 0.28922 0.94452 0.41423 0.0
C1164 C 0.23616 0.90061 0.3972 0.0
C1165 C 0.30837 0.92308 0.36883 0.0
H1166 H 0.28801 0.82897 0.36972 0.0
H1167 H 0.26712 0.86844 0.28196 0.0
H1168 H 0.29855 0.87887 0.42028 0.0
H1169 H 0.27319 0.87118 0.43017 0.0
H1170 H 0.29103 0.84699 0.42273 0.0
H1171 H 0.25757 0.91009 0.28367 0.0
H1172 H 0.24821 0.9202 0.32383 0.0
H1173 H 0.27332 0.9274 0.31205 0.0
H1174 H 0.24174 0.93649 0.44282 0.0
H1175 H 0.30281 0.95468 0.41984 0.0
H1176 H 0.23881 0.88197 0.40805 0.0
H1177 H 0.23269 0.89836 0.36999 0.0
H1178 H 0.22292 0.90867 0.40979 0.0
H1179 H 0.31581 0.90597 0.37788 0.0
H1180 H 0.31902 0.93867 0.37187 0.0
H1181 H 0.30501 0.9208 0.34159 0.0
C1182 C 0.67232 0.70114 0.89286 0.0
C1183 C 0.67589 0.69875 0.8582 0.0
C1184 C 0.6534 0.69617 0.90651 0.0
C1185 C 0.63756 0.68853 0.88504 0.0
C1186 C 0.64114 0.68547 0.85015 0.0
C1187 C 0.66028 0.69063 0.83713 0.0
C1188 C 0.6503 0.69946 0.94395 0.0
C1189 C 0.62468 0.67729 0.8265 0.0
C1190 C 0.59564 0.65931 0.93542 0.0
C1191 C 0.58364 0.67988 0.94197 0.0
C1192 C 0.61241 0.66126 0.91434 0.0
C1193 C 0.61726 0.68435 0.89953 0.0
C1194 C 0.604 0.70447 0.90327 0.0
C1195 C 0.58731 0.70198 0.92444 0.0
C1196 C 0.62593 0.63924 0.91066 0.0
C1197 C 0.60851 0.72935 0.88771 0.0
H1198 H 0.68438 0.70701 0.90939 0.0
H1199 H 0.66286 0.68894 0.81027 0.0
H1200 H 0.63868 0.71364 0.94823 0.0
H1201 H 0.64488 0.68199 0.9555 0.0
H1202 H 0.66424 0.70514 0.95723 0.0
H1203 H 0.63021 0.67417 0.80051 0.0
H1204 H 0.6177 0.66002 0.83602 0.0
H1205 H 0.61277 0.69148 0.82539 0.0
H1206 H 0.59277 0.64216 0.94881 0.0
H1207 H 0.5782 0.71799 0.9296 0.0
H1208 H 0.63943 0.64171 0.92675 0.0
H1209 H 0.63103 0.63745 0.88421 0.0
H1210 H 0.61838 0.62184 0.91846 0.0
H1211 H 0.62099 0.73813 0.90182 0.0
H1212 H 0.59534 0.7418 0.88841 0.0
H1213 H 0.61334 0.72742 0.86114 0.0
loop_
_geom_bond_atom_site_label_1
_geom_bond_atom_site_label_2
_geom_bond_distance
_geom_bond_site_symmetry_2
_ccdc_geom_bond_type
C0 C1 1.264 . S
C0 C5 1.479 . S
C0 C10 1.465 . S
C1 C0 1.264 . S
C1 C3 1.339 . S
C1 H28 0.931 . S
C2 C3 1.395 . S
C2 C4 1.320 . S
C3 C1 1.339 . S
C3 C2 1.395 . S
C3 H29 0.929 . S
C4 C2 1.320 . S
C4 C5 1.405 . S
C4 H30 0.930 . S
C5 C0 1.479 . S
C5 C4 1.405 . S
C5 H31 0.931 . S
U6 O7 2.454 . S
U6 O8 2.458 . S
U6 C9 2.984 . S
U6 C10 2.847 . S
U6 C23 2.882 . S
U6 O24 2.441 . S
U6 O25 2.420 . S
U6 O26 2.455 . S
U6 O27 2.449 . S
O7 U6 2.454 . S
O7 C9 1.353 . S
O8 U6 2.458 . S
O8 C9 1.286 . S
C9 U6 2.984 . S
C9 O7 1.353 . S
C9 O8 1.286 . S
C9 C11 1.363 . S
C10 C0 1.465 . S
C10 U6 2.847 . S
C10 O24 1.249 . S
C10 O25 1.202 . S
C11 C9 1.363 . S
C11 C13 1.408 . S
C11 C16 1.342 . S
C12 C13 1.310 . S
C12 C15 1.461 . S
C12 H32 0.932 . S
C13 C11 1.408 . S
C13 C12 1.310 . S
C13 H33 0.930 . S
C14 C15 1.474 . S
C14 C16 1.285 . S
C14 H34 0.929 . S
C15 C12 1.461 . S
C15 C14 1.474 . S
C16 C11 1.342 . S
C16 C14 1.285 . S
C16 H35 0.930 . S
C17 C20 1.424 . S
C17 C22 1.245 . S
C17 C23 1.428 . S
C18 C21 1.260 . S
C18 C22 1.477 . S
C18 H36 0.932 . S
C19 C20 1.384 . S
C19 C21 1.479 . S
C19 H37 0.929 . S
C20 C17 1.424 . S
C20 C19 1.384 . S
C20 H38 0.928 . S
C21 C18 1.260 . S
C21 C19 1.479 . S
C22 C17 1.245 . S
C22 C18 1.477 . S
C22 H39 0.932 . S
C23 U6 2.882 . S
C23 C17 1.428 . S
C23 O26 1.301 . S
C23 O27 1.282 . S
O24 U6 2.441 . S
O24 C10 1.249 . S
O25 U6 2.420 . S
O25 C10 1.202 . S
O26 U6 2.455 . S
O26 C23 1.301 . S
O27 U6 2.449 . S
O27 C23 1.282 . S
H28 C1 0.931 . S
H29 C3 0.929 . S
H30 C4 0.930 . S
H31 C5 0.931 . S
H32 C12 0.932 . S
H33 C13 0.930 . S
H34 C14 0.929 . S
H35 C16 0.930 . S
H36 C18 0.932 . S
H37 C19 0.929 . S
H38 C20 0.928 . S
H39 C22 0.932 . S
C40 C41 1.264 . S
C40 C45 1.479 . S
C40 C50 1.465 . S
C41 C40 1.264 . S
C41 C43 1.339 . S
C41 H68 0.931 . S
C42 C43 1.395 . S
C42 C44 1.320 . S
C43 C41 1.339 . S
C43 C42 1.395 . S
C43 H69 0.929 . S
C44 C42 1.320 . S
C44 C45 1.405 . S
C44 H70 0.930 . S
C45 C40 1.479 . S
C45 C44 1.405 . S
C45 H71 0.931 . S
U46 O47 2.454 . S
U46 O48 2.458 . S
U46 C49 2.984 . S
U46 C50 2.847 . S
U46 C63 2.882 . S
U46 O64 2.441 . S
U46 O65 2.420 . S
U46 O66 2.455 . S
U46 O67 2.449 . S
O47 U46 2.454 . S
O47 C49 1.353 . S
O48 U46 2.458 . S
O48 C49 1.286 . S
C49 U46 2.984 . S
C49 O47 1.353 . S
C49 O48 1.286 . S
C49 C51 1.363 . S
C50 C40 1.465 . S
C50 U46 2.847 . S
C50 O64 1.249 . S
C50 O65 1.202 . S
C51 C49 1.363 . S
C51 C53 1.408 . S
C51 C56 1.342 . S
C52 C53 1.310 . S
C52 C55 1.461 . S
C52 H72 0.932 . S
C53 C51 1.408 . S
C53 C52 1.310 . S
C53 H73 0.930 . S
C54 C55 1.474 . S
C54 C56 1.285 . S
C54 H74 0.929 . S
C55 C52 1.461 . S
C55 C54 1.474 . S
C56 C51 1.342 . S
C56 C54 1.285 . S
C56 H75 0.930 . S
C57 C60 1.424 . S
C57 C62 1.245 . S
C57 C63 1.428 . S
C58 C61 1.260 . S
C58 C62 1.477 . S
C58 H76 0.932 . S
C59 C60 1.384 . S
C59 C61 1.479 . S
C59 H77 0.929 . S
C60 C57 1.424 . S
C60 C59 1.384 . S
C60 H78 0.928 . S
C61 C58 1.260 . S
C61 C59 1.479 . S
C62 C57 1.245 . S
C62 C58 1.477 . S
C62 H79 0.932 . S
C63 U46 2.882 . S
C63 C57 1.428 . S
C63 O66 1.301 . S
C63 O67 1.282 . S
O64 U46 2.441 . S
O64 C50 1.249 . S
O65 U46 2.420 . S
O65 C50 1.202 . S
O66 U46 2.455 . S
O66 C63 1.301 . S
O67 U46 2.449 . S
O67 C63 1.282 . S
H68 C41 0.931 . S
H69 C43 0.929 . S
H70 C44 0.930 . S
H71 C45 0.931 . S
H72 C52 0.932 . S
H73 C53 0.930 . S
H74 C54 0.929 . S
H75 C56 0.930 . S
H76 C58 0.932 . S
H77 C59 0.929 . S
H78 C60 0.928 . S
H79 C62 0.932 . S
C80 C81 1.264 . S
C80 C85 1.479 . S
C80 C90 1.465 . S
C81 C80 1.264 . S
C81 C83 1.339 . S
C81 H108 0.931 . S
C82 C83 1.395 . S
C82 C84 1.320 . S
C83 C81 1.339 . S
C83 C82 1.395 . S
C83 H109 0.929 . S
C84 C82 1.320 . S
C84 C85 1.405 . S
C84 H110 0.930 . S
C85 C80 1.479 . S
C85 C84 1.405 . S
C85 H111 0.931 . S
U86 O87 2.454 . S
U86 O88 2.458 . S
U86 C89 2.984 . S
U86 C90 2.847 . S
U86 C103 2.882 . S
U86 O104 2.441 . S
U86 O105 2.420 . S
U86 O106 2.455 . S
U86 O107 2.449 . S
O87 U86 2.454 . S
O87 C89 1.353 . S
O88 U86 2.458 . S
O88 C89 1.286 . S
C89 U86 2.984 . S
C89 O87 1.353 . S
C89 O88 1.286 . S
C89 C91 1.363 . S
C90 C80 1.465 . S
C90 U86 2.847 . S
C90 O104 1.249 . S
C90 O105 1.202 . S
C91 C89 1.363 . S
C91 C93 1.408 . S
C91 C96 1.342 . S
C92 C93 1.310 . S
C92 C95 1.461 . S
C92 H112 0.932 . S
C93 C91 1.408 . S
C93 C92 1.310 . S
C93 H113 0.930 . S
C94 C95 1.474 . S
C94 C96 1.285 . S
C94 H114 0.929 . S
C95 C92 1.461 . S
C95 C94 1.474 . S
C96 C91 1.342 . S
C96 C94 1.285 . S
C96 H115 0.930 . S
C97 C100 1.424 . S
C97 C102 1.245 . S
C97 C103 1.428 . S
C98 C101 1.260 . S
C98 C102 1.477 . S
C98 H116 0.932 . S
C99 C100 1.384 . S
C99 C101 1.479 . S
C99 H117 0.929 . S
C100 C97 1.424 . S
C100 C99 1.384 . S
C100 H118 0.928 . S
C101 C98 1.260 . S
C101 C99 1.479 . S
C102 C97 1.245 . S
C102 C98 1.477 . S
C102 H119 0.932 . S
C103 U86 2.882 . S
C103 C97 1.428 . S
C103 O106 1.301 . S
C103 O107 1.282 . S
O104 U86 2.441 . S
O104 C90 1.249 . S
O105 U86 2.420 . S
O105 C90 1.202 . S
O106 U86 2.455 . S
O106 C103 1.301 . S
O107 U86 2.449 . S
O107 C103 1.282 . S
H108 C81 0.931 . S
H109 C83 0.929 . S
H110 C84 0.930 . S
H111 C85 0.931 . S
H112 C92 0.932 . S
H113 C93 0.930 . S
H114 C94 0.929 . S
H115 C96 0.930 . S
H116 C98 0.932 . S
H117 C99 0.929 . S
H118 C100 0.928 . S
H119 C102 0.932 . S
C120 C121 1.264 . S
C120 C125 1.479 . S
C120 C130 1.465 . S
C121 C120 1.264 . S
C121 C123 1.339 . S
C121 H148 0.931 . S
C122 C123 1.395 . S
C122 C124 1.320 . S
C123 C121 1.339 . S
C123 C122 1.395 . S
C123 H149 0.929 . S
C124 C122 1.320 . S
C124 C125 1.405 . S
C124 H150 0.930 . S
C125 C120 1.479 . S
C125 C124 1.405 . S
C125 H151 0.931 . S
U126 O127 2.454 . S
U126 O128 2.458 . S
U126 C129 2.984 . S
U126 C130 2.847 . S
U126 C143 2.882 . S
U126 O144 2.441 . S
U126 O145 2.420 . S
U126 O146 2.455 . S
U126 O147 2.449 . S
O127 U126 2.454 . S
O127 C129 1.353 . S
O128 U126 2.458 . S
O128 C129 1.286 . S
C129 U126 2.984 . S
C129 O127 1.353 . S
C129 O128 1.286 . S
C129 C131 1.363 . S
C130 C120 1.465 . S
C130 U126 2.847 . S
C130 O144 1.249 . S
C130 O145 1.202 . S
C131 C129 1.363 . S
C131 C133 1.408 . S
C131 C136 1.342 . S
C132 C133 1.310 . S
C132 C135 1.461 . S
C132 H152 0.932 . S
C133 C131 1.408 . S
C133 C132 1.310 . S
C133 H153 0.930 . S
C134 C135 1.474 . S
C134 C136 1.285 . S
C134 H154 0.929 . S
C135 C132 1.461 . S
C135 C134 1.474 . S
C136 C131 1.342 . S
C136 C134 1.285 . S
C136 H155 0.930 . S
C137 C140 1.424 . S
C137 C142 1.245 . S
C137 C143 1.428 . S
C138 C141 1.260 . S
C138 C142 1.477 . S
C138 H156 0.932 . S
C139 C140 1.384 . S
C139 C141 1.479 . S
C139 H157 0.929 . S
C140 C137 1.424 . S
C140 C139 1.384 . S
C140 H158 0.928 . S
C141 C138 1.260 . S
C141 C139 1.479 . S
C142 C137 1.245 . S
C142 C138 1.477 . S
C142 H159 0.932 . S
C143 U126 2.882 . S
C143 C137 1.428 . S
C143 O146 1.301 . S
C143 O147 1.282 . S
O144 U126 2.441 . S
O144 C130 1.249 . S
O145 U126 2.420 . S
O145 C130 1.202 . S
O146 U126 2.455 . S
O146 C143 1.301 . S
O147 U126 2.449 . S
O147 C143 1.282 . S
H148 C121 0.931 . S
H149 C123 0.929 . S
H150 C124 0.930 . S
H151 C125 0.931 . S
H152 C132 0.932 . S
H153 C133 0.930 . S
H154 C134 0.929 . S
H155 C136 0.930 . S
H156 C138 0.932 . S
H157 C139 0.929 . S
H158 C140 0.928 . S
H159 C142 0.932 . S
C160 C161 1.264 . S
C160 C165 1.479 . S
C160 C170 1.465 . S
C161 C160 1.264 . S
C161 C163 1.339 . S
C161 H188 0.931 . S
C162 C163 1.395 . S
C162 C164 1.320 . S
C163 C161 1.339 . S
C163 C162 1.395 . S
C163 H189 0.929 . S
C164 C162 1.320 . S
C164 C165 1.405 . S
C164 H190 0.930 . S
C165 C160 1.479 . S
C165 C164 1.405 . S
C165 H191 0.931 . S
U166 O167 2.454 . S
U166 O168 2.458 . S
U166 C169 2.984 . S
U166 C170 2.847 . S
U166 C183 2.882 . S
U166 O184 2.441 . S
U166 O185 2.420 . S
U166 O186 2.455 . S
U166 O187 2.449 . S
O167 U166 2.454 . S
O167 C169 1.353 . S
O168 U166 2.458 . S
O168 C169 1.286 . S
C169 U166 2.984 . S
C169 O167 1.353 . S
C169 O168 1.286 . S
C169 C171 1.363 . S
C170 C160 1.465 . S
C170 U166 2.847 . S
C170 O184 1.249 . S
C170 O185 1.202 . S
C171 C169 1.363 . S
C171 C173 1.408 . S
C171 C176 1.342 . S
C172 C173 1.310 . S
C172 C175 1.461 . S
C172 H192 0.932 . S
C173 C171 1.408 . S
C173 C172 1.310 . S
C173 H193 0.930 . S
C174 C175 1.474 . S
C174 C176 1.285 . S
C174 H194 0.929 . S
C175 C172 1.461 . S
C175 C174 1.474 . S
C176 C171 1.342 . S
C176 C174 1.285 . S
C176 H195 0.930 . S
C177 C180 1.424 . S
C177 C182 1.245 . S
C177 C183 1.428 . S
C178 C181 1.260 . S
C178 C182 1.477 . S
C178 H196 0.932 . S
C179 C180 1.384 . S
C179 C181 1.479 . S
C179 H197 0.929 . S
C180 C177 1.424 . S
C180 C179 1.384 . S
C180 H198 0.928 . S
C181 C178 1.260 . S
C181 C179 1.479 . S
C182 C177 1.245 . S
C182 C178 1.477 . S
C182 H199 0.932 . S
C183 U166 2.882 . S
C183 C177 1.428 . S
C183 O186 1.301 . S
C183 O187 1.282 . S
O184 U166 2.441 . S
O184 C170 1.249 . S
O185 U166 2.420 . S
O185 C170 1.202 . S
O186 U166 2.455 . S
O186 C183 1.301 . S
O187 U166 2.449 . S
O187 C183 1.282 . S
H188 C161 0.931 . S
H189 C163 0.929 . S
H190 C164 0.930 . S
H191 C165 0.931 . S
H192 C172 0.932 . S
H193 C173 0.930 . S
H194 C174 0.929 . S
H195 C176 0.930 . S
H196 C178 0.932 . S
H197 C179 0.929 . S
H198 C180 0.928 . S
H199 C182 0.932 . S
C200 C201 1.264 . S
C200 C205 1.479 . S
C200 C210 1.465 . S
C201 C200 1.264 . S
C201 C203 1.339 . S
C201 H228 0.931 . S
C202 C203 1.395 . S
C202 C204 1.320 . S
C203 C201 1.339 . S
C203 C202 1.395 . S
C203 H229 0.929 . S
C204 C202 1.320 . S
C204 C205 1.405 . S
C204 H230 0.930 . S
C205 C200 1.479 . S
C205 C204 1.405 . S
C205 H231 0.931 . S
U206 O207 2.454 . S
U206 O208 2.458 . S
U206 C209 2.984 . S
U206 C210 2.847 . S
U206 C223 2.882 . S
U206 O224 2.441 . S
U206 O225 2.420 . S
U206 O226 2.455 . S
U206 O227 2.449 . S
O207 U206 2.454 . S
O207 C209 1.353 . S
O208 U206 2.458 . S
O208 C209 1.286 . S
C209 U206 2.984 . S
C209 O207 1.353 . S
C209 O208 1.286 . S
C209 C211 1.363 . S
C210 C200 1.465 . S
C210 U206 2.847 . S
C210 O224 1.249 . S
C210 O225 1.202 . S
C211 C209 1.363 . S
C211 C213 1.408 . S
C211 C216 1.342 . S
C212 C213 1.310 . S
C212 C215 1.461 . S
C212 H232 0.932 . S
C213 C211 1.408 . S
C213 C212 1.310 . S
C213 H233 0.930 . S
C214 C215 1.474 . S
C214 C216 1.285 . S
C214 H234 0.929 . S
C215 C212 1.461 . S
C215 C214 1.474 . S
C216 C211 1.342 . S
C216 C214 1.285 . S
C216 H235 0.930 . S
C217 C220 1.424 . S
C217 C222 1.245 . S
C217 C223 1.428 . S
C218 C221 1.260 . S
C218 C222 1.477 . S
C218 H236 0.932 . S
C219 C220 1.384 . S
C219 C221 1.479 . S
C219 H237 0.929 . S
C220 C217 1.424 . S
C220 C219 1.384 . S
C220 H238 0.928 . S
C221 C218 1.260 . S
C221 C219 1.479 . S
C222 C217 1.245 . S
C222 C218 1.477 . S
C222 H239 0.932 . S
C223 U206 2.882 . S
C223 C217 1.428 . S
C223 O226 1.301 . S
C223 O227 1.282 . S
O224 U206 2.441 . S
O224 C210 1.249 . S
O225 U206 2.420 . S
O225 C210 1.202 . S
O226 U206 2.455 . S
O226 C223 1.301 . S
O227 U206 2.449 . S
O227 C223 1.282 . S
H228 C201 0.931 . S
H229 C203 0.929 . S
H230 C204 0.930 . S
H231 C205 0.931 . S
H232 C212 0.932 . S
H233 C213 0.930 . S
H234 C214 0.929 . S
H235 C216 0.930 . S
H236 C218 0.932 . S
H237 C219 0.929 . S
H238 C220 0.928 . S
H239 C222 0.932 . S
C240 C241 1.264 . S
C240 C245 1.479 . S
C240 C250 1.465 . S
C241 C240 1.264 . S
C241 C243 1.339 . S
C241 H268 0.931 . S
C242 C243 1.395 . S
C242 C244 1.320 . S
C243 C241 1.339 . S
C243 C242 1.395 . S
C243 H269 0.929 . S
C244 C242 1.320 . S
C244 C245 1.405 . S
C244 H270 0.930 . S
C245 C240 1.479 . S
C245 C244 1.405 . S
C245 H271 0.931 . S
U246 O247 2.454 . S
U246 O248 2.458 . S
U246 C249 2.984 . S
U246 C250 2.847 . S
U246 C263 2.882 . S
U246 O264 2.441 . S
U246 O265 2.420 . S
U246 O266 2.455 . S
U246 O267 2.449 . S
O247 U246 2.454 . S
O247 C249 1.353 . S
O248 U246 2.458 . S
O248 C249 1.286 . S
C249 U246 2.984 . S
C249 O247 1.353 . S
C249 O248 1.286 . S
C249 C251 1.363 . S
C250 C240 1.465 . S
C250 U246 2.847 . S
C250 O264 1.249 . S
C250 O265 1.202 . S
C251 C249 1.363 . S
C251 C253 1.408 . S
C251 C256 1.342 . S
C252 C253 1.310 . S
C252 C255 1.461 . S
C252 H272 0.932 . S
C253 C251 1.408 . S
C253 C252 1.310 . S
C253 H273 0.930 . S
C254 C255 1.474 . S
C254 C256 1.285 . S
C254 H274 0.929 . S
C255 C252 1.461 . S
C255 C254 1.474 . S
C256 C251 1.342 . S
C256 C254 1.285 . S
C256 H275 0.930 . S
C257 C260 1.424 . S
C257 C262 1.245 . S
C257 C263 1.428 . S
C258 C261 1.260 . S
C258 C262 1.477 . S
C258 H276 0.932 . S
C259 C260 1.384 . S
C259 C261 1.479 . S
C259 H277 0.929 . S
C260 C257 1.424 . S
C260 C259 1.384 . S
C260 H278 0.928 . S
C261 C258 1.260 . S
C261 C259 1.479 . S
C262 C257 1.245 . S
C262 C258 1.477 . S
C262 H279 0.932 . S
C263 U246 2.882 . S
C263 C257 1.428 . S
C263 O266 1.301 . S
C263 O267 1.282 . S
O264 U246 2.441 . S
O264 C250 1.249 . S
O265 U246 2.420 . S
O265 C250 1.202 . S
O266 U246 2.455 . S
O266 C263 1.301 . S
O267 U246 2.449 . S
O267 C263 1.282 . S
H268 C241 0.931 . S
H269 C243 0.929 . S
H270 C244 0.930 . S
H271 C245 0.931 . S
H272 C252 0.932 . S
H273 C253 0.930 . S
H274 C254 0.929 . S
H275 C256 0.930 . S
H276 C258 0.932 . S
H277 C259 0.929 . S
H278 C260 0.928 . S
H279 C262 0.932 . S
C280 C281 1.264 . S
C280 C285 1.479 . S
C280 C290 1.465 . S
C281 C280 1.264 . S
C281 C283 1.339 . S
C281 H308 0.931 . S
C282 C283 1.395 . S
C282 C284 1.320 . S
C283 C281 1.339 . S
C283 C282 1.395 . S
C283 H309 0.929 . S
C284 C282 1.320 . S
C284 C285 1.405 . S
C284 H310 0.930 . S
C285 C280 1.479 . S
C285 C284 1.405 . S
C285 H311 0.931 . S
U286 O287 2.454 . S
U286 O288 2.458 . S
U286 C289 2.984 . S
U286 C290 2.847 . S
U286 C303 2.882 . S
U286 O304 2.441 . S
U286 O305 2.420 . S
U286 O306 2.455 . S
U286 O307 2.449 . S
O287 U286 2.454 . S
O287 C289 1.353 . S
O288 U286 2.458 . S
O288 C289 1.286 . S
C289 U286 2.984 . S
C289 O287 1.353 . S
C289 O288 1.286 . S
C289 C291 1.363 . S
C290 C280 1.465 . S
C290 U286 2.847 . S
C290 O304 1.249 . S
C290 O305 1.202 . S
C291 C289 1.363 . S
C291 C293 1.408 . S
C291 C296 1.342 . S
C292 C293 1.310 . S
C292 C295 1.461 . S
C292 H312 0.932 . S
C293 C291 1.408 . S
C293 C292 1.310 . S
C293 H313 0.930 . S
C294 C295 1.474 . S
C294 C296 1.285 . S
C294 H314 0.929 . S
C295 C292 1.461 . S
C295 C294 1.474 . S
C296 C291 1.342 . S
C296 C294 1.285 . S
C296 H315 0.930 . S
C297 C300 1.424 . S
C297 C302 1.245 . S
C297 C303 1.428 . S
C298 C301 1.260 . S
C298 C302 1.477 . S
C298 H316 0.932 . S
C299 C300 1.384 . S
C299 C301 1.479 . S
C299 H317 0.929 . S
C300 C297 1.424 . S
C300 C299 1.384 . S
C300 H318 0.928 . S
C301 C298 1.260 . S
C301 C299 1.479 . S
C302 C297 1.245 . S
C302 C298 1.477 . S
C302 H319 0.932 . S
C303 U286 2.882 . S
C303 C297 1.428 . S
C303 O306 1.301 . S
C303 O307 1.282 . S
O304 U286 2.441 . S
O304 C290 1.249 . S
O305 U286 2.420 . S
O305 C290 1.202 . S
O306 U286 2.455 . S
O306 C303 1.301 . S
O307 U286 2.449 . S
O307 C303 1.282 . S
H308 C281 0.931 . S
H309 C283 0.929 . S
H310 C284 0.930 . S
H311 C285 0.931 . S
H312 C292 0.932 . S
H313 C293 0.930 . S
H314 C294 0.929 . S
H315 C296 0.930 . S
H316 C298 0.932 . S
H317 C299 0.929 . S
H318 C300 0.928 . S
H319 C302 0.932 . S
H320 C328 0.930 . S
H321 C331 0.930 . S
H322 C333 0.930 . S
H323 C334 0.970 . S
H324 C334 0.970 . S
H325 C336 0.930 . S
H326 C338 0.930 . S
H327 C340 0.930 . S
C328 H320 0.930 . S
C328 C329 1.382 . S
C328 C330 1.426 . S
C329 C328 1.382 . S
C329 C333 1.389 . S
C330 C328 1.426 . S
C330 C331 1.375 . S
C330 C334 1.532 1_655 S
C331 H321 0.930 . S
C331 C330 1.375 . S
C331 C332 1.416 . S
C332 C331 1.416 . S
C332 C333 1.371 . S
C333 H322 0.930 . S
C333 C329 1.389 . S
C333 C332 1.371 . S
C334 H323 0.970 . S
C334 H324 0.970 . S
C334 C330 1.532 1_455 S
C334 C335 1.499 . S
C335 C334 1.499 . S
C335 C336 1.370 . S
C335 C340 1.415 . S
C336 H325 0.930 . S
C336 C335 1.370 . S
C336 C337 1.407 . S
C337 C336 1.407 . S
C337 C338 1.365 . S
C338 H326 0.930 . S
C338 C337 1.365 . S
C338 C339 1.393 . S
C339 C338 1.393 . S
C339 C340 1.387 . S
C340 H327 0.930 . S
C340 C335 1.415 . S
C340 C339 1.387 . S
H341 C349 0.930 . S
H342 C352 0.930 . S
H343 C354 0.930 . S
H344 C355 0.970 . S
H345 C355 0.970 . S
H346 C357 0.930 . S
H347 C359 0.930 . S
H348 C361 0.930 . S
C349 H341 0.930 . S
C349 C350 1.382 . S
C349 C351 1.426 . S
C350 C349 1.382 . S
C350 C354 1.389 . S
C351 C349 1.426 . S
C351 C352 1.375 . S
C351 C355 1.532 . S
C352 H342 0.930 . S
C352 C351 1.375 . S
C352 C353 1.416 . S
C353 C352 1.416 . S
C353 C354 1.371 . S
C354 H343 0.930 . S
C354 C350 1.389 . S
C354 C353 1.371 . S
C355 H344 0.970 . S
C355 H345 0.970 . S
C355 C351 1.532 . S
C355 C356 1.499 1_455 S
C356 C355 1.499 1_655 S
C356 C357 1.370 . S
C356 C361 1.415 . S
C357 H346 0.930 . S
C357 C356 1.370 . S
C357 C358 1.407 . S
C358 C357 1.407 . S
C358 C359 1.365 . S
C359 H347 0.930 . S
C359 C358 1.365 . S
C359 C360 1.393 . S
C360 C359 1.393 . S
C360 C361 1.387 . S
C361 H348 0.930 . S
C361 C356 1.415 . S
C361 C360 1.387 . S
H362 C370 0.930 . S
H363 C373 0.930 . S
H364 C375 0.930 . S
H365 C376 0.970 . S
H366 C376 0.970 . S
H367 C378 0.930 . S
H368 C380 0.930 . S
H369 C382 0.930 . S
C370 H362 0.930 . S
C370 C371 1.382 . S
C370 C372 1.426 . S
C371 C370 1.382 . S
C371 C375 1.389 . S
C372 C370 1.426 . S
C372 C373 1.375 . S
C372 C376 1.532 . S
C373 H363 0.930 . S
C373 C372 1.375 . S
C373 C374 1.416 . S
C374 C373 1.416 . S
C374 C375 1.371 . S
C375 H364 0.930 . S
C375 C371 1.389 . S
C375 C374 1.371 . S
C376 H365 0.970 . S
C376 H366 0.970 . S
C376 C372 1.532 . S
C376 C377 1.499 1_545 S
C377 C376 1.499 1_565 S
C377 C378 1.370 . S
C377 C382 1.415 . S
C378 H367 0.930 . S
C378 C377 1.370 . S
C378 C379 1.407 . S
C379 C378 1.407 . S
C379 C380 1.365 . S
C380 H368 0.930 . S
C380 C379 1.365 . S
C380 C381 1.393 . S
C381 C380 1.393 . S
C381 C382 1.387 . S
C382 H369 0.930 . S
C382 C377 1.415 . S
C382 C381 1.387 . S
H383 C391 0.930 . S
H384 C394 0.930 . S
H385 C396 0.930 . S
H386 C397 0.970 1_556 S
H387 C397 0.970 . S
H388 C399 0.930 . S
H389 C401 0.930 . S
H390 C403 0.930 . S
C391 H383 0.930 . S
C391 C392 1.382 . S
C391 C393 1.426 1_556 S
C392 C391 1.382 . S
C392 C396 1.389 1_556 S
C393 C391 1.426 1_554 S
C393 C394 1.375 . S
C393 C397 1.532 . S
C394 H384 0.930 . S
C394 C393 1.375 . S
C394 C395 1.416 . S
C395 C394 1.416 . S
C395 C396 1.371 . S
C396 H385 0.930 . S
C396 C392 1.389 1_554 S
C396 C395 1.371 . S
C397 H386 0.970 1_554 S
C397 H387 0.970 . S
C397 C393 1.532 . S
C397 C398 1.499 . S
C398 C397 1.499 . S
C398 C399 1.370 1_554 S
C398 C403 1.415 . S
C399 H388 0.930 . S
C399 C398 1.370 1_556 S
C399 C400 1.407 . S
C400 C399 1.407 . S
C400 C401 1.365 1_556 S
C401 H389 0.930 . S
C401 C400 1.365 1_554 S
C401 C402 1.393 . S
C402 C401 1.393 . S
C402 C403 1.387 . S
C403 H390 0.930 . S
C403 C398 1.415 . S
C403 C402 1.387 . S
H404 C412 0.930 . S
H405 C415 0.930 . S
H406 C417 0.930 . S
H407 C418 0.970 . S
H408 C418 0.970 . S
H409 C420 0.930 . S
H410 C422 0.930 . S
H411 C424 0.930 . S
C412 H404 0.930 . S
C412 C413 1.382 . S
C412 C414 1.426 . S
C413 C412 1.382 . S
C413 C417 1.389 . S
C414 C412 1.426 . S
C414 C415 1.375 . S
C414 C418 1.532 . S
C415 H405 0.930 . S
C415 C414 1.375 . S
C415 C416 1.416 . S
C416 C415 1.416 . S
C416 C417 1.371 . S
C417 H406 0.930 . S
C417 C413 1.389 . S
C417 C416 1.371 . S
C418 H407 0.970 . S
C418 H408 0.970 . S
C418 C414 1.532 . S
C418 C419 1.499 1_545 S
C419 C418 1.499 1_565 S
C419 C420 1.370 . S
C419 C424 1.415 . S
C420 H409 0.930 . S
C420 C419 1.370 . S
C420 C421 1.407 . S
C421 C420 1.407 . S
C421 C422 1.365 . S
C422 H410 0.930 . S
C422 C421 1.365 . S
C422 C423 1.393 . S
C423 C422 1.393 . S
C423 C424 1.387 . S
C424 H411 0.930 . S
C424 C419 1.415 . S
C424 C423 1.387 . S
H425 C433 0.930 . S
H426 C436 0.930 . S
H427 C438 0.930 . S
H428 C439 0.970 . S
H429 C439 0.970 1_554 S
H430 C441 0.930 . S
H431 C443 0.930 . S
H432 C445 0.930 . S
C433 H425 0.930 . S
C433 C434 1.382 . S
C433 C435 1.426 . S
C434 C433 1.382 . S
C434 C438 1.389 . S
C435 C433 1.426 . S
C435 C436 1.375 1_556 S
C435 C439 1.532 . S
C436 H426 0.930 . S
C436 C435 1.375 1_554 S
C436 C437 1.416 . S
C437 C436 1.416 . S
C437 C438 1.371 1_554 S
C438 H427 0.930 . S
C438 C434 1.389 . S
C438 C437 1.371 1_556 S
C439 H428 0.970 . S
C439 H429 0.970 1_556 S
C439 C435 1.532 . S
C439 C440 1.499 1_556 S
C440 C439 1.499 1_554 S
C440 C441 1.368 1_554 S
C440 C445 1.418 . S
C441 H430 0.930 . S
C441 C440 1.368 1_556 S
C441 C442 1.407 . S
C442 C441 1.407 . S
C442 C443 1.365 1_556 S
C443 H431 0.930 . S
C443 C442 1.365 1_554 S
C443 C444 1.393 . S
C444 C443 1.393 . S
C444 C445 1.387 . S
C445 H432 0.930 . S
C445 C440 1.418 . S
C445 C444 1.387 . S
C446 C447 1.391 . S
C446 C448 1.394 . S
C446 H462 0.931 . S
C447 C446 1.391 . S
C447 C451 1.376 . S
C448 C446 1.394 . S
C448 C449 1.369 . S
C448 C452 1.531 . S
C449 C448 1.369 . S
C449 C450 1.410 . S
C449 C457 1.503 . S
C450 C449 1.410 . S
C450 C451 1.392 . S
C450 C453 1.511 . S
C451 C447 1.376 . S
C451 C450 1.392 . S
C451 H463 0.929 . S
C452 C448 1.531 . S
C452 H464 0.960 . S
C452 H465 0.962 . S
C452 H466 0.960 . S
C453 C450 1.511 . S
C453 H467 0.961 . S
C453 H468 0.961 . S
C453 H469 0.961 . S
C454 C455 1.370 . S
C454 C456 1.363 . S
C454 H470 0.931 . S
C455 C454 1.370 . S
C455 C459 1.408 . S
C456 C454 1.363 . S
C456 C457 1.370 . S
C456 C460 1.524 . S
C457 C449 1.503 . S
C457 C456 1.370 . S
C457 C458 1.403 . S
C458 C457 1.403 . S
C458 C459 1.404 . S
C458 C461 1.539 . S
C459 C455 1.408 . S
C459 C458 1.404 . S
C459 H471 0.930 . S
C460 C456 1.524 . S
C460 H472 0.956 . S
C460 H473 0.961 . S
C460 H474 0.961 . S
C461 C458 1.539 . S
C461 H475 0.958 . S
C461 H476 0.961 . S
C461 H477 0.960 . S
H462 C446 0.931 . S
H463 C451 0.929 . S
H464 C452 0.960 . S
H465 C452 0.962 . S
H466 C452 0.960 . S
H467 C453 0.961 . S
H468 C453 0.961 . S
H469 C453 0.961 . S
H470 C454 0.931 . S
H471 C459 0.930 . S
H472 C460 0.956 . S
H473 C460 0.961 . S
H474 C460 0.961 . S
H475 C461 0.958 . S
H476 C461 0.961 . S
H477 C461 0.960 . S
C478 C479 1.391 . S
C478 C480 1.394 . S
C478 H494 0.931 . S
C479 C478 1.391 . S
C479 C483 1.376 . S
C480 C478 1.394 . S
C480 C481 1.369 . S
C480 C484 1.531 . S
C481 C480 1.369 . S
C481 C482 1.410 . S
C481 C489 1.503 . S
C482 C481 1.410 . S
C482 C483 1.392 . S
C482 C485 1.511 . S
C483 C479 1.376 . S
C483 C482 1.392 . S
C483 H495 0.929 . S
C484 C480 1.531 . S
C484 H496 0.960 . S
C484 H497 0.962 . S
C484 H498 0.960 . S
C485 C482 1.511 . S
C485 H499 0.961 . S
C485 H500 0.961 . S
C485 H501 0.961 . S
C486 C487 1.370 . S
C486 C488 1.363 . S
C486 H502 0.931 . S
C487 C486 1.370 . S
C487 C491 1.408 . S
C488 C486 1.363 . S
C488 C489 1.370 . S
C488 C492 1.524 . S
C489 C481 1.503 . S
C489 C488 1.370 . S
C489 C490 1.403 . S
C490 C489 1.403 . S
C490 C491 1.404 . S
C490 C493 1.539 . S
C491 C487 1.408 . S
C491 C490 1.404 . S
C491 H503 0.930 . S
C492 C488 1.524 . S
C492 H504 0.956 . S
C492 H505 0.961 . S
C492 H506 0.961 . S
C493 C490 1.539 . S
C493 H507 0.958 . S
C493 H508 0.961 . S
C493 H509 0.960 . S
H494 C478 0.931 . S
H495 C483 0.929 . S
H496 C484 0.960 . S
H497 C484 0.962 . S
H498 C484 0.960 . S
H499 C485 0.961 . S
H500 C485 0.961 . S
H501 C485 0.961 . S
H502 C486 0.931 . S
H503 C491 0.930 . S
H504 C492 0.956 . S
H505 C492 0.961 . S
H506 C492 0.961 . S
H507 C493 0.958 . S
H508 C493 0.961 . S
H509 C493 0.960 . S
C510 C511 1.391 . S
C510 C512 1.394 . S
C510 H526 0.931 . S
C511 C510 1.391 . S
C511 C515 1.376 . S
C512 C510 1.394 . S
C512 C513 1.369 . S
C512 C516 1.531 . S
C513 C512 1.369 . S
C513 C514 1.410 . S
C513 C521 1.503 . S
C514 C513 1.410 . S
C514 C515 1.392 . S
C514 C517 1.511 . S
C515 C511 1.376 . S
C515 C514 1.392 . S
C515 H527 0.929 . S
C516 C512 1.531 . S
C516 H528 0.960 . S
C516 H529 0.962 . S
C516 H530 0.960 . S
C517 C514 1.511 . S
C517 H531 0.961 . S
C517 H532 0.961 . S
C517 H533 0.961 . S
C518 C519 1.370 . S
C518 C520 1.363 . S
C518 H534 0.931 . S
C519 C518 1.370 . S
C519 C523 1.408 . S
C520 C518 1.363 . S
C520 C521 1.370 . S
C520 C524 1.524 . S
C521 C513 1.503 . S
C521 C520 1.370 . S
C521 C522 1.403 . S
C522 C521 1.403 . S
C522 C523 1.404 . S
C522 C525 1.539 . S
C523 C519 1.408 . S
C523 C522 1.404 . S
C523 H535 0.930 . S
C524 C520 1.524 . S
C524 H536 0.956 . S
C524 H537 0.961 . S
C524 H538 0.961 . S
C525 C522 1.539 . S
C525 H539 0.958 . S
C525 H540 0.961 . S
C525 H541 0.960 . S
H526 C510 0.931 . S
H527 C515 0.929 . S
H528 C516 0.960 . S
H529 C516 0.962 . S
H530 C516 0.960 . S
H531 C517 0.961 . S
H532 C517 0.961 . S
H533 C517 0.961 . S
H534 C518 0.931 . S
H535 C523 0.930 . S
H536 C524 0.956 . S
H537 C524 0.961 . S
H538 C524 0.961 . S
H539 C525 0.958 . S
H540 C525 0.961 . S
H541 C525 0.960 . S
C542 C543 1.391 . S
C542 C544 1.394 . S
C542 H558 0.931 . S
C543 C542 1.391 . S
C543 C547 1.376 . S
C544 C542 1.394 . S
C544 C545 1.369 . S
C544 C548 1.531 . S
C545 C544 1.369 . S
C545 C546 1.410 . S
C545 C553 1.503 . S
C546 C545 1.410 . S
C546 C547 1.392 . S
C546 C549 1.511 . S
C547 C543 1.376 . S
C547 C546 1.392 . S
C547 H559 0.929 . S
C548 C544 1.531 . S
C548 H560 0.960 . S
C548 H561 0.962 . S
C548 H562 0.960 . S
C549 C546 1.511 . S
C549 H563 0.961 . S
C549 H564 0.961 . S
C549 H565 0.961 . S
C550 C551 1.370 . S
C550 C552 1.363 . S
C550 H566 0.931 . S
C551 C550 1.370 . S
C551 C555 1.408 . S
C552 C550 1.363 . S
C552 C553 1.370 . S
C552 C556 1.524 . S
C553 C545 1.503 . S
C553 C552 1.370 . S
C553 C554 1.403 . S
C554 C553 1.403 . S
C554 C555 1.404 . S
C554 C557 1.539 . S
C555 C551 1.408 . S
C555 C554 1.404 . S
C555 H567 0.930 . S
C556 C552 1.524 . S
C556 H568 0.956 . S
C556 H569 0.961 . S
C556 H570 0.961 . S
C557 C554 1.539 . S
C557 H571 0.958 . S
C557 H572 0.961 . S
C557 H573 0.960 . S
H558 C542 0.931 . S
H559 C547 0.929 . S
H560 C548 0.960 . S
H561 C548 0.962 . S
H562 C548 0.960 . S
H563 C549 0.961 . S
H564 C549 0.961 . S
H565 C549 0.961 . S
H566 C550 0.931 . S
H567 C555 0.930 . S
H568 C556 0.956 . S
H569 C556 0.961 . S
H570 C556 0.961 . S
H571 C557 0.958 . S
H572 C557 0.961 . S
H573 C557 0.960 . S
C574 C575 1.391 . S
C574 C576 1.394 . S
C574 H590 0.931 . S
C575 C574 1.391 . S
C575 C579 1.376 . S
C576 C574 1.394 . S
C576 C577 1.369 . S
C576 C580 1.531 . S
C577 C576 1.369 . S
C577 C578 1.410 . S
C577 C585 1.503 . S
C578 C577 1.410 . S
C578 C579 1.392 . S
C578 C581 1.511 . S
C579 C575 1.376 . S
C579 C578 1.392 . S
C579 H591 0.929 . S
C580 C576 1.531 . S
C580 H592 0.960 . S
C580 H593 0.962 . S
C580 H594 0.960 . S
C581 C578 1.511 . S
C581 H595 0.961 . S
C581 H596 0.961 . S
C581 H597 0.961 . S
C582 C583 1.370 . S
C582 C584 1.363 . S
C582 H598 0.931 . S
C583 C582 1.370 . S
C583 C587 1.408 . S
C584 C582 1.363 . S
C584 C585 1.370 . S
C584 C588 1.524 . S
C585 C577 1.503 . S
C585 C584 1.370 . S
C585 C586 1.403 . S
C586 C585 1.403 . S
C586 C587 1.404 . S
C586 C589 1.539 . S
C587 C583 1.408 . S
C587 C586 1.404 . S
C587 H599 0.930 . S
C588 C584 1.524 . S
C588 H600 0.956 . S
C588 H601 0.961 . S
C588 H602 0.961 . S
C589 C586 1.539 . S
C589 H603 0.958 . S
C589 H604 0.961 . S
C589 H605 0.960 . S
H590 C574 0.931 . S
H591 C579 0.929 . S
H592 C580 0.960 . S
H593 C580 0.962 . S
H594 C580 0.960 . S
H595 C581 0.961 . S
H596 C581 0.961 . S
H597 C581 0.961 . S
H598 C582 0.931 . S
H599 C587 0.930 . S
H600 C588 0.956 . S
H601 C588 0.961 . S
H602 C588 0.961 . S
H603 C589 0.958 . S
H604 C589 0.961 . S
H605 C589 0.960 . S
C606 C607 1.391 . S
C606 C608 1.394 . S
C606 H622 0.931 . S
C607 C606 1.391 . S
C607 C611 1.376 . S
C608 C606 1.394 . S
C608 C609 1.369 . S
C608 C612 1.531 . S
C609 C608 1.369 . S
C609 C610 1.410 . S
C609 C617 1.503 . S
C610 C609 1.410 . S
C610 C611 1.392 . S
C610 C613 1.511 . S
C611 C607 1.376 . S
C611 C610 1.392 . S
C611 H623 0.929 . S
C612 C608 1.531 . S
C612 H624 0.960 . S
C612 H625 0.962 . S
C612 H626 0.960 . S
C613 C610 1.511 . S
C613 H627 0.961 . S
C613 H628 0.961 . S
C613 H629 0.961 . S
C614 C615 1.370 . S
C614 C616 1.363 . S
C614 H630 0.931 . S
C615 C614 1.370 . S
C615 C619 1.408 . S
C616 C614 1.363 . S
C616 C617 1.370 . S
C616 C620 1.524 . S
C617 C609 1.503 . S
C617 C616 1.370 . S
C617 C618 1.403 . S
C618 C617 1.403 . S
C618 C619 1.404 . S
C618 C621 1.539 . S
C619 C615 1.408 . S
C619 C618 1.404 . S
C619 H631 0.930 . S
C620 C616 1.524 . S
C620 H632 0.956 . S
C620 H633 0.961 . S
C620 H634 0.961 . S
C621 C618 1.539 . S
C621 H635 0.958 . S
C621 H636 0.961 . S
C621 H637 0.960 . S
H622 C606 0.931 . S
H623 C611 0.929 . S
H624 C612 0.960 . S
H625 C612 0.962 . S
H626 C612 0.960 . S
H627 C613 0.961 . S
H628 C613 0.961 . S
H629 C613 0.961 . S
H630 C614 0.931 . S
H631 C619 0.930 . S
H632 C620 0.956 . S
H633 C620 0.961 . S
H634 C620 0.961 . S
H635 C621 0.958 . S
H636 C621 0.961 . S
H637 C621 0.960 . S
C638 C639 1.391 . S
C638 C640 1.394 . S
C638 H654 0.931 . S
C639 C638 1.391 . S
C639 C643 1.376 . S
C640 C638 1.394 . S
C640 C641 1.369 . S
C640 C644 1.531 . S
C641 C640 1.369 . S
C641 C642 1.410 . S
C641 C649 1.503 . S
C642 C641 1.410 . S
C642 C643 1.392 . S
C642 C645 1.511 . S
C643 C639 1.376 . S
C643 C642 1.392 . S
C643 H655 0.929 . S
C644 C640 1.531 . S
C644 H656 0.960 . S
C644 H657 0.962 . S
C644 H658 0.960 . S
C645 C642 1.511 . S
C645 H659 0.961 . S
C645 H660 0.961 . S
C645 H661 0.961 . S
C646 C647 1.370 . S
C646 C648 1.363 . S
C646 H662 0.931 . S
C647 C646 1.370 . S
C647 C651 1.408 . S
C648 C646 1.363 . S
C648 C649 1.370 . S
C648 C652 1.524 . S
C649 C641 1.503 . S
C649 C648 1.370 . S
C649 C650 1.403 . S
C650 C649 1.403 . S
C650 C651 1.404 . S
C650 C653 1.539 . S
C651 C647 1.408 . S
C651 C650 1.404 . S
C651 H663 0.930 . S
C652 C648 1.524 . S
C652 H664 0.956 . S
C652 H665 0.961 . S
C652 H666 0.961 . S
C653 C650 1.539 . S
C653 H667 0.958 . S
C653 H668 0.961 . S
C653 H669 0.960 . S
H654 C638 0.931 . S
H655 C643 0.929 . S
H656 C644 0.960 . S
H657 C644 0.962 . S
H658 C644 0.960 . S
H659 C645 0.961 . S
H660 C645 0.961 . S
H661 C645 0.961 . S
H662 C646 0.931 . S
H663 C651 0.930 . S
H664 C652 0.956 . S
H665 C652 0.961 . S
H666 C652 0.961 . S
H667 C653 0.958 . S
H668 C653 0.961 . S
H669 C653 0.960 . S
C670 C671 1.391 . S
C670 C672 1.394 . S
C670 H686 0.931 . S
C671 C670 1.391 . S
C671 C675 1.376 . S
C672 C670 1.394 . S
C672 C673 1.369 . S
C672 C676 1.531 . S
C673 C672 1.369 . S
C673 C674 1.410 . S
C673 C681 1.503 . S
C674 C673 1.410 . S
C674 C675 1.392 . S
C674 C677 1.511 . S
C675 C671 1.376 . S
C675 C674 1.392 . S
C675 H687 0.929 . S
C676 C672 1.531 . S
C676 H688 0.960 . S
C676 H689 0.962 . S
C676 H690 0.960 . S
C677 C674 1.511 . S
C677 H691 0.961 . S
C677 H692 0.961 . S
C677 H693 0.961 . S
C678 C679 1.370 . S
C678 C680 1.363 . S
C678 H694 0.931 . S
C679 C678 1.370 . S
C679 C683 1.408 . S
C680 C678 1.363 . S
C680 C681 1.370 . S
C680 C684 1.524 . S
C681 C673 1.503 . S
C681 C680 1.370 . S
C681 C682 1.403 . S
C682 C681 1.403 . S
C682 C683 1.404 . S
C682 C685 1.539 . S
C683 C679 1.408 . S
C683 C682 1.404 . S
C683 H695 0.930 . S
C684 C680 1.524 . S
C684 H696 0.956 . S
C684 H697 0.961 . S
C684 H698 0.961 . S
C685 C682 1.539 . S
C685 H699 0.958 . S
C685 H700 0.961 . S
C685 H701 0.960 . S
H686 C670 0.931 . S
H687 C675 0.929 . S
H688 C676 0.960 . S
H689 C676 0.962 . S
H690 C676 0.960 . S
H691 C677 0.961 . S
H692 C677 0.961 . S
H693 C677 0.961 . S
H694 C678 0.931 . S
H695 C683 0.930 . S
H696 C684 0.956 . S
H697 C684 0.961 . S
H698 C684 0.961 . S
H699 C685 0.958 . S
H700 C685 0.961 . S
H701 C685 0.960 . S
C702 C703 1.391 . S
C702 C704 1.394 . S
C702 H718 0.931 . S
C703 C702 1.391 . S
C703 C707 1.376 . S
C704 C702 1.394 . S
C704 C705 1.369 . S
C704 C708 1.531 . S
C705 C704 1.369 . S
C705 C706 1.410 . S
C705 C713 1.503 . S
C706 C705 1.410 . S
C706 C707 1.392 . S
C706 C709 1.511 . S
C707 C703 1.376 . S
C707 C706 1.392 . S
C707 H719 0.929 . S
C708 C704 1.531 . S
C708 H720 0.960 . S
C708 H721 0.962 . S
C708 H722 0.960 . S
C709 C706 1.511 . S
C709 H723 0.961 . S
C709 H724 0.961 . S
C709 H725 0.961 . S
C710 C711 1.370 . S
C710 C712 1.363 . S
C710 H726 0.931 . S
C711 C710 1.370 . S
C711 C715 1.408 . S
C712 C710 1.363 . S
C712 C713 1.370 . S
C712 C716 1.524 . S
C713 C705 1.503 . S
C713 C712 1.370 . S
C713 C714 1.403 . S
C714 C713 1.403 . S
C714 C715 1.404 . S
C714 C717 1.539 . S
C715 C711 1.408 . S
C715 C714 1.404 . S
C715 H727 0.930 . S
C716 C712 1.524 . S
C716 H728 0.956 . S
C716 H729 0.961 . S
C716 H730 0.961 . S
C717 C714 1.539 . S
C717 H731 0.958 . S
C717 H732 0.961 . S
C717 H733 0.960 . S
H718 C702 0.931 . S
H719 C707 0.929 . S
H720 C708 0.960 . S
H721 C708 0.962 . S
H722 C708 0.960 . S
H723 C709 0.961 . S
H724 C709 0.961 . S
H725 C709 0.961 . S
H726 C710 0.931 . S
H727 C715 0.930 . S
H728 C716 0.956 . S
H729 C716 0.961 . S
H730 C716 0.961 . S
H731 C717 0.958 . S
H732 C717 0.961 . S
H733 C717 0.960 . S
C734 C735 1.391 . S
C734 C736 1.394 . S
C734 H750 0.931 . S
C735 C734 1.391 . S
C735 C739 1.376 . S
C736 C734 1.394 . S
C736 C737 1.369 . S
C736 C740 1.531 . S
C737 C736 1.369 . S
C737 C738 1.410 . S
C737 C745 1.503 . S
C738 C737 1.410 . S
C738 C739 1.392 . S
C738 C741 1.511 . S
C739 C735 1.376 . S
C739 C738 1.392 . S
C739 H751 0.929 . S
C740 C736 1.531 . S
C740 H752 0.960 . S
C740 H753 0.962 . S
C740 H754 0.960 . S
C741 C738 1.511 . S
C741 H755 0.961 . S
C741 H756 0.961 . S
C741 H757 0.961 . S
C742 C743 1.370 . S
C742 C744 1.363 . S
C742 H758 0.931 . S
C743 C742 1.370 . S
C743 C747 1.408 . S
C744 C742 1.363 . S
C744 C745 1.370 . S
C744 C748 1.524 . S
C745 C737 1.503 . S
C745 C744 1.370 . S
C745 C746 1.403 . S
C746 C745 1.403 . S
C746 C747 1.404 . S
C746 C749 1.539 . S
C747 C743 1.408 . S
C747 C746 1.404 . S
C747 H759 0.930 . S
C748 C744 1.524 . S
C748 H760 0.956 . S
C748 H761 0.961 . S
C748 H762 0.961 . S
C749 C746 1.539 . S
C749 H763 0.958 . S
C749 H764 0.961 . S
C749 H765 0.960 . S
H750 C734 0.931 . S
H751 C739 0.929 . S
H752 C740 0.960 . S
H753 C740 0.962 . S
H754 C740 0.960 . S
H755 C741 0.961 . S
H756 C741 0.961 . S
H757 C741 0.961 . S
H758 C742 0.931 . S
H759 C747 0.930 . S
H760 C748 0.956 . S
H761 C748 0.961 . S
H762 C748 0.961 . S
H763 C749 0.958 . S
H764 C749 0.961 . S
H765 C749 0.960 . S
C766 C767 1.391 . S
C766 C768 1.394 . S
C766 H782 0.931 . S
C767 C766 1.391 . S
C767 C771 1.376 . S
C768 C766 1.394 . S
C768 C769 1.369 . S
C768 C772 1.531 . S
C769 C768 1.369 . S
C769 C770 1.410 . S
C769 C777 1.503 . S
C770 C769 1.410 . S
C770 C771 1.392 . S
C770 C773 1.511 . S
C771 C767 1.376 . S
C771 C770 1.392 . S
C771 H783 0.929 . S
C772 C768 1.531 . S
C772 H784 0.960 . S
C772 H785 0.962 . S
C772 H786 0.960 . S
C773 C770 1.511 . S
C773 H787 0.961 . S
C773 H788 0.961 . S
C773 H789 0.961 . S
C774 C775 1.370 . S
C774 C776 1.363 . S
C774 H790 0.931 . S
C775 C774 1.370 . S
C775 C779 1.408 . S
C776 C774 1.363 . S
C776 C777 1.370 . S
C776 C780 1.524 . S
C777 C769 1.503 . S
C777 C776 1.370 . S
C777 C778 1.403 . S
C778 C777 1.403 . S
C778 C779 1.404 . S
C778 C781 1.539 . S
C779 C775 1.408 . S
C779 C778 1.404 . S
C779 H791 0.930 . S
C780 C776 1.524 . S
C780 H792 0.956 . S
C780 H793 0.961 . S
C780 H794 0.961 . S
C781 C778 1.539 . S
C781 H795 0.958 . S
C781 H796 0.961 . S
C781 H797 0.960 . S
H782 C766 0.931 . S
H783 C771 0.929 . S
H784 C772 0.960 . S
H785 C772 0.962 . S
H786 C772 0.960 . S
H787 C773 0.961 . S
H788 C773 0.961 . S
H789 C773 0.961 . S
H790 C774 0.931 . S
H791 C779 0.930 . S
H792 C780 0.956 . S
H793 C780 0.961 . S
H794 C780 0.961 . S
H795 C781 0.958 . S
H796 C781 0.961 . S
H797 C781 0.960 . S
C798 C799 1.391 . S
C798 C800 1.394 . S
C798 H814 0.931 . S
C799 C798 1.391 . S
C799 C803 1.376 . S
C800 C798 1.394 . S
C800 C801 1.369 . S
C800 C804 1.531 . S
C801 C800 1.369 . S
C801 C802 1.410 . S
C801 C809 1.503 . S
C802 C801 1.410 . S
C802 C803 1.392 . S
C802 C805 1.511 . S
C803 C799 1.376 . S
C803 C802 1.392 . S
C803 H815 0.929 . S
C804 C800 1.531 . S
C804 H816 0.960 . S
C804 H817 0.962 . S
C804 H818 0.960 . S
C805 C802 1.511 . S
C805 H819 0.961 . S
C805 H820 0.961 . S
C805 H821 0.961 . S
C806 C807 1.370 . S
C806 C808 1.363 . S
C806 H822 0.931 . S
C807 C806 1.370 . S
C807 C811 1.408 . S
C808 C806 1.363 . S
C808 C809 1.370 . S
C808 C812 1.524 . S
C809 C801 1.503 . S
C809 C808 1.370 . S
C809 C810 1.403 . S
C810 C809 1.403 . S
C810 C811 1.404 . S
C810 C813 1.539 . S
C811 C807 1.408 . S
C811 C810 1.404 . S
C811 H823 0.930 . S
C812 C808 1.524 . S
C812 H824 0.956 . S
C812 H825 0.961 . S
C812 H826 0.961 . S
C813 C810 1.539 . S
C813 H827 0.958 . S
C813 H828 0.961 . S
C813 H829 0.960 . S
H814 C798 0.931 . S
H815 C803 0.929 . S
H816 C804 0.960 . S
H817 C804 0.962 . S
H818 C804 0.960 . S
H819 C805 0.961 . S
H820 C805 0.961 . S
H821 C805 0.961 . S
H822 C806 0.931 . S
H823 C811 0.930 . S
H824 C812 0.956 . S
H825 C812 0.961 . S
H826 C812 0.961 . S
H827 C813 0.958 . S
H828 C813 0.961 . S
H829 C813 0.960 . S
C830 C831 1.391 . S
C830 C832 1.394 . S
C830 H846 0.931 . S
C831 C830 1.391 . S
C831 C835 1.376 . S
C832 C830 1.394 . S
C832 C833 1.369 . S
C832 C836 1.531 . S
C833 C832 1.369 . S
C833 C834 1.410 . S
C833 C841 1.503 . S
C834 C833 1.410 . S
C834 C835 1.392 . S
C834 C837 1.511 . S
C835 C831 1.376 . S
C835 C834 1.392 . S
C835 H847 0.929 . S
C836 C832 1.531 . S
C836 H848 0.960 . S
C836 H849 0.962 . S
C836 H850 0.960 . S
C837 C834 1.511 . S
C837 H851 0.961 . S
C837 H852 0.961 . S
C837 H853 0.961 . S
C838 C839 1.370 . S
C838 C840 1.363 . S
C838 H854 0.931 . S
C839 C838 1.370 . S
C839 C843 1.408 . S
C840 C838 1.363 . S
C840 C841 1.370 . S
C840 C844 1.524 . S
C841 C833 1.503 . S
C841 C840 1.370 . S
C841 C842 1.403 . S
C842 C841 1.403 . S
C842 C843 1.404 . S
C842 C845 1.539 . S
C843 C839 1.408 . S
C843 C842 1.404 . S
C843 H855 0.930 . S
C844 C840 1.524 . S
C844 H856 0.956 . S
C844 H857 0.961 . S
C844 H858 0.961 . S
C845 C842 1.539 . S
C845 H859 0.958 . S
C845 H860 0.961 . S
C845 H861 0.960 . S
H846 C830 0.931 . S
H847 C835 0.929 . S
H848 C836 0.960 . S
H849 C836 0.962 . S
H850 C836 0.960 . S
H851 C837 0.961 . S
H852 C837 0.961 . S
H853 C837 0.961 . S
H854 C838 0.931 . S
H855 C843 0.930 . S
H856 C844 0.956 . S
H857 C844 0.961 . S
H858 C844 0.961 . S
H859 C845 0.958 . S
H860 C845 0.961 . S
H861 C845 0.960 . S
C862 C863 1.391 . S
C862 C864 1.394 . S
C862 H878 0.931 . S
C863 C862 1.391 . S
C863 C867 1.376 . S
C864 C862 1.394 . S
C864 C865 1.369 . S
C864 C868 1.531 . S
C865 C864 1.369 . S
C865 C866 1.410 . S
C865 C873 1.503 . S
C866 C865 1.410 . S
C866 C867 1.392 . S
C866 C869 1.511 . S
C867 C863 1.376 . S
C867 C866 1.392 . S
C867 H879 0.929 . S
C868 C864 1.531 . S
C868 H880 0.960 . S
C868 H881 0.962 . S
C868 H882 0.960 . S
C869 C866 1.511 . S
C869 H883 0.961 . S
C869 H884 0.961 . S
C869 H885 0.961 . S
C870 C871 1.370 . S
C870 C872 1.363 . S
C870 H886 0.931 . S
C871 C870 1.370 . S
C871 C875 1.408 . S
C872 C870 1.363 . S
C872 C873 1.370 . S
C872 C876 1.524 . S
C873 C865 1.503 . S
C873 C872 1.370 . S
C873 C874 1.403 . S
C874 C873 1.403 . S
C874 C875 1.404 . S
C874 C877 1.539 . S
C875 C871 1.408 . S
C875 C874 1.404 . S
C875 H887 0.930 . S
C876 C872 1.524 . S
C876 H888 0.956 . S
C876 H889 0.961 . S
C876 H890 0.961 . S
C877 C874 1.539 . S
C877 H891 0.958 . S
C877 H892 0.961 . S
C877 H893 0.960 . S
H878 C862 0.931 . S
H879 C867 0.929 . S
H880 C868 0.960 . S
H881 C868 0.962 . S
H882 C868 0.960 . S
H883 C869 0.961 . S
H884 C869 0.961 . S
H885 C869 0.961 . S
H886 C870 0.931 . S
H887 C875 0.930 . S
H888 C876 0.956 . S
H889 C876 0.961 . S
H890 C876 0.961 . S
H891 C877 0.958 . S
H892 C877 0.961 . S
H893 C877 0.960 . S
C894 C895 1.391 . S
C894 C896 1.394 . S
C894 H910 0.931 . S
C895 C894 1.391 . S
C895 C899 1.376 . S
C896 C894 1.394 . S
C896 C897 1.369 . S
C896 C900 1.531 . S
C897 C896 1.369 . S
C897 C898 1.410 . S
C897 C905 1.503 . S
C898 C897 1.410 . S
C898 C899 1.392 . S
C898 C901 1.511 . S
C899 C895 1.376 . S
C899 C898 1.392 . S
C899 H911 0.929 . S
C900 C896 1.531 . S
C900 H912 0.960 . S
C900 H913 0.962 . S
C900 H914 0.960 . S
C901 C898 1.511 . S
C901 H915 0.961 . S
C901 H916 0.961 . S
C901 H917 0.961 . S
C902 C903 1.370 . S
C902 C904 1.363 . S
C902 H918 0.931 . S
C903 C902 1.370 . S
C903 C907 1.408 . S
C904 C902 1.363 . S
C904 C905 1.370 . S
C904 C908 1.524 . S
C905 C897 1.503 . S
C905 C904 1.370 . S
C905 C906 1.403 . S
C906 C905 1.403 . S
C906 C907 1.404 . S
C906 C909 1.539 . S
C907 C903 1.408 . S
C907 C906 1.404 . S
C907 H919 0.930 . S
C908 C904 1.524 . S
C908 H920 0.956 . S
C908 H921 0.961 . S
C908 H922 0.961 . S
C909 C906 1.539 . S
C909 H923 0.958 . S
C909 H924 0.961 . S
C909 H925 0.960 . S
H910 C894 0.931 . S
H911 C899 0.929 . S
H912 C900 0.960 . S
H913 C900 0.962 . S
H914 C900 0.960 . S
H915 C901 0.961 . S
H916 C901 0.961 . S
H917 C901 0.961 . S
H918 C902 0.931 . S
H919 C907 0.930 . S
H920 C908 0.956 . S
H921 C908 0.961 . S
H922 C908 0.961 . S
H923 C909 0.958 . S
H924 C909 0.961 . S
H925 C909 0.960 . S
C926 C927 1.391 . S
C926 C928 1.394 . S
C926 H942 0.931 . S
C927 C926 1.391 . S
C927 C931 1.376 . S
C928 C926 1.394 . S
C928 C929 1.369 . S
C928 C932 1.531 . S
C929 C928 1.369 . S
C929 C930 1.410 . S
C929 C937 1.503 . S
C930 C929 1.410 . S
C930 C931 1.392 . S
C930 C933 1.511 . S
C931 C927 1.376 . S
C931 C930 1.392 . S
C931 H943 0.929 . S
C932 C928 1.531 . S
C932 H944 0.960 . S
C932 H945 0.962 . S
C932 H946 0.960 . S
C933 C930 1.511 . S
C933 H947 0.961 . S
C933 H948 0.961 . S
C933 H949 0.961 . S
C934 C935 1.370 . S
C934 C936 1.363 . S
C934 H950 0.931 . S
C935 C934 1.370 . S
C935 C939 1.408 . S
C936 C934 1.363 . S
C936 C937 1.370 . S
C936 C940 1.524 . S
C937 C929 1.503 . S
C937 C936 1.370 . S
C937 C938 1.403 . S
C938 C937 1.403 . S
C938 C939 1.404 . S
C938 C941 1.539 . S
C939 C935 1.408 . S
C939 C938 1.404 . S
C939 H951 0.930 . S
C940 C936 1.524 . S
C940 H952 0.956 . S
C940 H953 0.961 . S
C940 H954 0.961 . S
C941 C938 1.539 . S
C941 H955 0.958 . S
C941 H956 0.961 . S
C941 H957 0.960 . S
H942 C926 0.931 . S
H943 C931 0.929 . S
H944 C932 0.960 . S
H945 C932 0.962 . S
H946 C932 0.960 . S
H947 C933 0.961 . S
H948 C933 0.961 . S
H949 C933 0.961 . S
H950 C934 0.931 . S
H951 C939 0.930 . S
H952 C940 0.956 . S
H953 C940 0.961 . S
H954 C940 0.961 . S
H955 C941 0.958 . S
H956 C941 0.961 . S
H957 C941 0.960 . S
C958 C959 1.391 . S
C958 C960 1.394 . S
C958 H974 0.931 . S
C959 C958 1.391 . S
C959 C963 1.376 . S
C960 C958 1.394 . S
C960 C961 1.369 . S
C960 C964 1.531 . S
C961 C960 1.369 . S
C961 C962 1.410 . S
C961 C969 1.503 . S
C962 C961 1.410 . S
C962 C963 1.392 . S
C962 C965 1.511 . S
C963 C959 1.376 . S
C963 C962 1.392 . S
C963 H975 0.929 . S
C964 C960 1.531 . S
C964 H976 0.960 . S
C964 H977 0.962 . S
C964 H978 0.960 . S
C965 C962 1.511 . S
C965 H979 0.961 . S
C965 H980 0.961 . S
C965 H981 0.961 . S
C966 C967 1.370 . S
C966 C968 1.363 . S
C966 H982 0.931 . S
C967 C966 1.370 . S
C967 C971 1.408 . S
C968 C966 1.363 . S
C968 C969 1.370 . S
C968 C972 1.524 . S
C969 C961 1.503 . S
C969 C968 1.370 . S
C969 C970 1.403 . S
C970 C969 1.403 . S
C970 C971 1.404 . S
C970 C973 1.539 . S
C971 C967 1.408 . S
C971 C970 1.404 . S
C971 H983 0.930 . S
C972 C968 1.524 . S
C972 H984 0.956 . S
C972 H985 0.961 . S
C972 H986 0.961 . S
C973 C970 1.539 . S
C973 H987 0.958 . S
C973 H988 0.961 . S
C973 H989 0.960 . S
H974 C958 0.931 . S
H975 C963 0.929 . S
H976 C964 0.960 . S
H977 C964 0.962 . S
H978 C964 0.960 . S
H979 C965 0.961 . S
H980 C965 0.961 . S
H981 C965 0.961 . S
H982 C966 0.931 . S
H983 C971 0.930 . S
H984 C972 0.956 . S
H985 C972 0.961 . S
H986 C972 0.961 . S
H987 C973 0.958 . S
H988 C973 0.961 . S
H989 C973 0.960 . S
C990 C991 1.391 . S
C990 C992 1.394 . S
C990 H1006 0.931 . S
C991 C990 1.391 . S
C991 C995 1.376 . S
C992 C990 1.394 . S
C992 C993 1.369 . S
C992 C996 1.531 . S
C993 C992 1.369 . S
C993 C994 1.410 . S
C993 C1001 1.503 . S
C994 C993 1.410 . S
C994 C995 1.392 . S
C994 C997 1.511 . S
C995 C991 1.376 . S
C995 C994 1.392 . S
C995 H1007 0.929 . S
C996 C992 1.531 . S
C996 H1008 0.960 . S
C996 H1009 0.962 . S
C996 H1010 0.960 . S
C997 C994 1.511 . S
C997 H1011 0.961 . S
C997 H1012 0.961 . S
C997 H1013 0.961 . S
C998 C999 1.370 . S
C998 C1000 1.363 . S
C998 H1014 0.931 . S
C999 C998 1.370 . S
C999 C1003 1.408 . S
C1000 C998 1.363 . S
C1000 C1001 1.370 . S
C1000 C1004 1.524 . S
C1001 C993 1.503 . S
C1001 C1000 1.370 . S
C1001 C1002 1.403 . S
C1002 C1001 1.403 . S
C1002 C1003 1.404 . S
C1002 C1005 1.539 . S
C1003 C999 1.408 . S
C1003 C1002 1.404 . S
C1003 H1015 0.930 . S
C1004 C1000 1.524 . S
C1004 H1016 0.956 . S
C1004 H1017 0.961 . S
C1004 H1018 0.961 . S
C1005 C1002 1.539 . S
C1005 H1019 0.958 . S
C1005 H1020 0.961 . S
C1005 H1021 0.960 . S
H1006 C990 0.931 . S
H1007 C995 0.929 . S
H1008 C996 0.960 . S
H1009 C996 0.962 . S
H1010 C996 0.960 . S
H1011 C997 0.961 . S
H1012 C997 0.961 . S
H1013 C997 0.961 . S
H1014 C998 0.931 . S
H1015 C1003 0.930 . S
H1016 C1004 0.956 . S
H1017 C1004 0.961 . S
H1018 C1004 0.961 . S
H1019 C1005 0.958 . S
H1020 C1005 0.961 . S
H1021 C1005 0.960 . S
C1022 C1023 1.391 . S
C1022 C1024 1.394 . S
C1022 H1038 0.931 . S
C1023 C1022 1.391 . S
C1023 C1027 1.376 . S
C1024 C1022 1.394 . S
C1024 C1025 1.369 . S
C1024 C1028 1.531 . S
C1025 C1024 1.369 . S
C1025 C1026 1.410 . S
C1025 C1033 1.503 . S
C1026 C1025 1.410 . S
C1026 C1027 1.392 . S
C1026 C1029 1.511 . S
C1027 C1023 1.376 . S
C1027 C1026 1.392 . S
C1027 H1039 0.929 . S
C1028 C1024 1.531 . S
C1028 H1040 0.960 . S
C1028 H1041 0.962 . S
C1028 H1042 0.960 . S
C1029 C1026 1.511 . S
C1029 H1043 0.961 . S
C1029 H1044 0.961 . S
C1029 H1045 0.961 . S
C1030 C1031 1.370 . S
C1030 C1032 1.363 . S
C1030 H1046 0.931 . S
C1031 C1030 1.370 . S
C1031 C1035 1.408 . S
C1032 C1030 1.363 . S
C1032 C1033 1.370 . S
C1032 C1036 1.524 . S
C1033 C1025 1.503 . S
C1033 C1032 1.370 . S
C1033 C1034 1.403 . S
C1034 C1033 1.403 . S
C1034 C1035 1.404 . S
C1034 C1037 1.539 . S
C1035 C1031 1.408 . S
C1035 C1034 1.404 . S
C1035 H1047 0.930 . S
C1036 C1032 1.524 . S
C1036 H1048 0.956 . S
C1036 H1049 0.961 . S
C1036 H1050 0.961 . S
C1037 C1034 1.539 . S
C1037 H1051 0.958 . S
C1037 H1052 0.961 . S
C1037 H1053 0.960 . S
H1038 C1022 0.931 . S
H1039 C1027 0.929 . S
H1040 C1028 0.960 . S
H1041 C1028 0.962 . S
H1042 C1028 0.960 . S
H1043 C1029 0.961 . S
H1044 C1029 0.961 . S
H1045 C1029 0.961 . S
H1046 C1030 0.931 . S
H1047 C1035 0.930 . S
H1048 C1036 0.956 . S
H1049 C1036 0.961 . S
H1050 C1036 0.961 . S
H1051 C1037 0.958 . S
H1052 C1037 0.961 . S
H1053 C1037 0.960 . S
C1054 C1055 1.391 . S
C1054 C1056 1.394 . S
C1054 H1070 0.931 . S
C1055 C1054 1.391 . S
C1055 C1059 1.376 . S
C1056 C1054 1.394 . S
C1056 C1057 1.369 . S
C1056 C1060 1.531 . S
C1057 C1056 1.369 . S
C1057 C1058 1.410 . S
C1057 C1065 1.503 . S
C1058 C1057 1.410 . S
C1058 C1059 1.392 . S
C1058 C1061 1.511 . S
C1059 C1055 1.376 . S
C1059 C1058 1.392 . S
C1059 H1071 0.929 . S
C1060 C1056 1.531 . S
C1060 H1072 0.960 . S
C1060 H1073 0.962 . S
C1060 H1074 0.960 . S
C1061 C1058 1.511 . S
C1061 H1075 0.961 . S
C1061 H1076 0.961 . S
C1061 H1077 0.961 . S
C1062 C1063 1.370 . S
C1062 C1064 1.363 . S
C1062 H1078 0.931 . S
C1063 C1062 1.370 . S
C1063 C1067 1.408 . S
C1064 C1062 1.363 . S
C1064 C1065 1.370 . S
C1064 C1068 1.524 . S
C1065 C1057 1.503 . S
C1065 C1064 1.370 . S
C1065 C1066 1.403 . S
C1066 C1065 1.403 . S
C1066 C1067 1.404 . S
C1066 C1069 1.539 . S
C1067 C1063 1.408 . S
C1067 C1066 1.404 . S
C1067 H1079 0.930 . S
C1068 C1064 1.524 . S
C1068 H1080 0.956 . S
C1068 H1081 0.961 . S
C1068 H1082 0.961 . S
C1069 C1066 1.539 . S
C1069 H1083 0.958 . S
C1069 H1084 0.961 . S
C1069 H1085 0.960 . S
H1070 C1054 0.931 . S
H1071 C1059 0.929 . S
H1072 C1060 0.960 . S
H1073 C1060 0.962 . S
H1074 C1060 0.960 . S
H1075 C1061 0.961 . S
H1076 C1061 0.961 . S
H1077 C1061 0.961 . S
H1078 C1062 0.931 . S
H1079 C1067 0.930 . S
H1080 C1068 0.956 . S
H1081 C1068 0.961 . S
H1082 C1068 0.961 . S
H1083 C1069 0.958 . S
H1084 C1069 0.961 . S
H1085 C1069 0.960 . S
C1086 C1087 1.391 . S
C1086 C1088 1.394 . S
C1086 H1102 0.931 . S
C1087 C1086 1.391 . S
C1087 C1091 1.376 . S
C1088 C1086 1.394 . S
C1088 C1089 1.369 . S
C1088 C1092 1.531 . S
C1089 C1088 1.369 . S
C1089 C1090 1.410 . S
C1089 C1097 1.503 . S
C1090 C1089 1.410 . S
C1090 C1091 1.392 . S
C1090 C1093 1.511 . S
C1091 C1087 1.376 . S
C1091 C1090 1.392 . S
C1091 H1103 0.929 . S
C1092 C1088 1.531 . S
C1092 H1104 0.960 . S
C1092 H1105 0.962 . S
C1092 H1106 0.960 . S
C1093 C1090 1.511 . S
C1093 H1107 0.961 . S
C1093 H1108 0.961 . S
C1093 H1109 0.961 . S
C1094 C1095 1.370 . S
C1094 C1096 1.363 . S
C1094 H1110 0.931 . S
C1095 C1094 1.370 . S
C1095 C1099 1.408 . S
C1096 C1094 1.363 . S
C1096 C1097 1.370 . S
C1096 C1100 1.524 . S
C1097 C1089 1.503 . S
C1097 C1096 1.370 . S
C1097 C1098 1.403 . S
C1098 C1097 1.403 . S
C1098 C1099 1.404 . S
C1098 C1101 1.539 . S
C1099 C1095 1.408 . S
C1099 C1098 1.404 . S
C1099 H1111 0.930 . S
C1100 C1096 1.524 . S
C1100 H1112 0.956 . S
C1100 H1113 0.961 . S
C1100 H1114 0.961 . S
C1101 C1098 1.539 . S
C1101 H1115 0.958 . S
C1101 H1116 0.961 . S
C1101 H1117 0.960 . S
H1102 C1086 0.931 . S
H1103 C1091 0.929 . S
H1104 C1092 0.960 . S
H1105 C1092 0.962 . S
H1106 C1092 0.960 . S
H1107 C1093 0.961 . S
H1108 C1093 0.961 . S
H1109 C1093 0.961 . S
H1110 C1094 0.931 . S
H1111 C1099 0.930 . S
H1112 C1100 0.956 . S
H1113 C1100 0.961 . S
H1114 C1100 0.961 . S
H1115 C1101 0.958 . S
H1116 C1101 0.961 . S
H1117 C1101 0.960 . S
C1118 C1119 1.391 . S
C1118 C1120 1.394 . S
C1118 H1134 0.931 . S
C1119 C1118 1.391 . S
C1119 C1123 1.376 . S
C1120 C1118 1.394 . S
C1120 C1121 1.369 . S
C1120 C1124 1.531 . S
C1121 C1120 1.369 . S
C1121 C1122 1.410 . S
C1121 C1129 1.503 . S
C1122 C1121 1.410 . S
C1122 C1123 1.392 . S
C1122 C1125 1.511 . S
C1123 C1119 1.376 . S
C1123 C1122 1.392 . S
C1123 H1135 0.929 . S
C1124 C1120 1.531 . S
C1124 H1136 0.960 . S
C1124 H1137 0.962 . S
C1124 H1138 0.960 . S
C1125 C1122 1.511 . S
C1125 H1139 0.961 . S
C1125 H1140 0.961 . S
C1125 H1141 0.961 . S
C1126 C1127 1.370 . S
C1126 C1128 1.363 . S
C1126 H1142 0.931 . S
C1127 C1126 1.370 . S
C1127 C1131 1.408 . S
C1128 C1126 1.363 . S
C1128 C1129 1.370 . S
C1128 C1132 1.524 . S
C1129 C1121 1.503 . S
C1129 C1128 1.370 . S
C1129 C1130 1.403 . S
C1130 C1129 1.403 . S
C1130 C1131 1.404 . S
C1130 C1133 1.539 . S
C1131 C1127 1.408 . S
C1131 C1130 1.404 . S
C1131 H1143 0.930 . S
C1132 C1128 1.524 . S
C1132 H1144 0.956 . S
C1132 H1145 0.961 . S
C1132 H1146 0.961 . S
C1133 C1130 1.539 . S
C1133 H1147 0.958 . S
C1133 H1148 0.961 . S
C1133 H1149 0.960 . S
H1134 C1118 0.931 . S
H1135 C1123 0.929 . S
H1136 C1124 0.960 . S
H1137 C1124 0.962 . S
H1138 C1124 0.960 . S
H1139 C1125 0.961 . S
H1140 C1125 0.961 . S
H1141 C1125 0.961 . S
H1142 C1126 0.931 . S
H1143 C1131 0.930 . S
H1144 C1132 0.956 . S
H1145 C1132 0.961 . S
H1146 C1132 0.961 . S
H1147 C1133 0.958 . S
H1148 C1133 0.961 . S
H1149 C1133 0.960 . S
C1150 C1151 1.391 . S
C1150 C1152 1.394 . S
C1150 H1166 0.931 . S
C1151 C1150 1.391 . S
C1151 C1155 1.376 . S
C1152 C1150 1.394 . S
C1152 C1153 1.369 . S
C1152 C1156 1.531 . S
C1153 C1152 1.369 . S
C1153 C1154 1.410 . S
C1153 C1161 1.503 . S
C1154 C1153 1.410 . S
C1154 C1155 1.392 . S
C1154 C1157 1.511 . S
C1155 C1151 1.376 . S
C1155 C1154 1.392 . S
C1155 H1167 0.929 . S
C1156 C1152 1.531 . S
C1156 H1168 0.960 . S
C1156 H1169 0.962 . S
C1156 H1170 0.960 . S
C1157 C1154 1.511 . S
C1157 H1171 0.961 . S
C1157 H1172 0.961 . S
C1157 H1173 0.961 . S
C1158 C1159 1.370 . S
C1158 C1160 1.363 . S
C1158 H1174 0.931 . S
C1159 C1158 1.370 . S
C1159 C1163 1.408 . S
C1160 C1158 1.363 . S
C1160 C1161 1.370 . S
C1160 C1164 1.524 . S
C1161 C1153 1.503 . S
C1161 C1160 1.370 . S
C1161 C1162 1.403 . S
C1162 C1161 1.403 . S
C1162 C1163 1.404 . S
C1162 C1165 1.539 . S
C1163 C1159 1.408 . S
C1163 C1162 1.404 . S
C1163 H1175 0.930 . S
C1164 C1160 1.524 . S
C1164 H1176 0.956 . S
C1164 H1177 0.961 . S
C1164 H1178 0.961 . S
C1165 C1162 1.539 . S
C1165 H1179 0.958 . S
C1165 H1180 0.961 . S
C1165 H1181 0.960 . S
H1166 C1150 0.931 . S
H1167 C1155 0.929 . S
H1168 C1156 0.960 . S
H1169 C1156 0.962 . S
H1170 C1156 0.960 . S
H1171 C1157 0.961 . S
H1172 C1157 0.961 . S
H1173 C1157 0.961 . S
H1174 C1158 0.931 . S
H1175 C1163 0.930 . S
H1176 C1164 0.956 . S
H1177 C1164 0.961 . S
H1178 C1164 0.961 . S
H1179 C1165 0.958 . S
H1180 C1165 0.961 . S
H1181 C1165 0.960 . S
C1182 C1183 1.391 . S
C1182 C1184 1.394 . S
C1182 H1198 0.931 . S
C1183 C1182 1.391 . S
C1183 C1187 1.376 . S
C1184 C1182 1.394 . S
C1184 C1185 1.369 . S
C1184 C1188 1.531 . S
C1185 C1184 1.369 . S
C1185 C1186 1.410 . S
C1185 C1193 1.503 . S
C1186 C1185 1.410 . S
C1186 C1187 1.392 . S
C1186 C1189 1.511 . S
C1187 C1183 1.376 . S
C1187 C1186 1.392 . S
C1187 H1199 0.929 . S
C1188 C1184 1.531 . S
C1188 H1200 0.960 . S
C1188 H1201 0.962 . S
C1188 H1202 0.960 . S
C1189 C1186 1.511 . S
C1189 H1203 0.961 . S
C1189 H1204 0.961 . S
C1189 H1205 0.961 . S
C1190 C1191 1.370 . S
C1190 C1192 1.363 . S
C1190 H1206 0.931 . S
C1191 C1190 1.370 . S
C1191 C1195 1.408 . S
C1192 C1190 1.363 . S
C1192 C1193 1.370 . S
C1192 C1196 1.524 . S
C1193 C1185 1.503 . S
C1193 C1192 1.370 . S
C1193 C1194 1.403 . S
C1194 C1193 1.403 . S
C1194 C1195 1.404 . S
C1194 C1197 1.539 . S
C1195 C1191 1.408 . S
C1195 C1194 1.404 . S
C1195 H1207 0.930 . S
C1196 C1192 1.524 . S
C1196 H1208 0.956 . S
C1196 H1209 0.961 . S
C1196 H1210 0.961 . S
C1197 C1194 1.539 . S
C1197 H1211 0.958 . S
C1197 H1212 0.961 . S
C1197 H1213 0.960 . S
H1198 C1182 0.931 . S
H1199 C1187 0.929 . S
H1200 C1188 0.960 . S
H1201 C1188 0.962 . S
H1202 C1188 0.960 . S
H1203 C1189 0.961 . S
H1204 C1189 0.961 . S
H1205 C1189 0.961 . S
H1206 C1190 0.931 . S
H1207 C1195 0.930 . S
H1208 C1196 0.956 . S
H1209 C1196 0.961 . S
H1210 C1196 0.961 . S
H1211 C1197 0.958 . S
H1212 C1197 0.961 . S
H1213 C1197 0.960 . S
C455 C337 1.558 . S
C447 C15 1.663 . S
C487 C350 1.446 . S
C479 C55 1.613 . S
C519 C332 1.609 . S
C511 C101 1.627 . S
C551 C360 1.494 . S
C543 C141 1.632 . S
C583 C371 1.454 . S
C575 C2 1.499 . S
C615 C392 1.493 . S
C607 C61 1.575 . S
C639 C95 1.562 . S
C647 C421 1.492 . S
C679 C442 1.545 . S
C671 C135 1.618 . S
C711 C381 1.444 . S
C703 C42 1.517 . S
C735 C82 1.646 . S
C743 C402 1.575 . S
C775 C416 1.470 . S
C767 C122 1.567 . S
C807 C437 1.594 . S
C799 C21 1.628 . S
C831 C162 1.660 . S
C839 C358 1.493 . S
C871 C329 1.635 . S
C863 C221 1.720 . S
C895 C255 1.657 . S
C903 C353 1.440 . S
C927 C282 1.628 . S
C935 C339 1.626 . S
C967 C423 1.517 . S
C959 C181 1.587 . S
C999 C444 1.623 . S
C991 C202 1.669 . S
C1031 C374 1.424 . S
C1023 C242 1.560 . S
C1055 C301 1.672 . S
C1063 C395 1.537 . S
C1095 C413 1.497 . S
C1087 C215 1.597 . S
C1127 C434 1.594 . S
C1119 C261 1.657 . S
C1159 C379 1.437 . S
C1151 C295 1.536 . S
C1183 C175 1.640 . S
C1191 C400 1.504 . S
