# Generated by pormake.
# Topology ptr, (4,4)-cn, num edge types: 1
# Building blocks:
#     Node 0, Type 0, BuildingBlock: QUQFOY_clean_sbu_3, # of connection points: 4
#     Node 1, Type 0, BuildingBlock: QUQFOY_clean_sbu_3, # of connection points: 4
#     Node 2, Type 0, BuildingBlock: QUQFOY_clean_sbu_3, # of connection points: 4
#     Node 3, Type 0, BuildingBlock: QUQFOY_clean_sbu_3, # of connection points: 4
#     Node 4, Type 0, BuildingBlock: QUQFOY_clean_sbu_3, # of connection points: 4
#     Node 5, Type 0, BuildingBlock: QUQFOY_clean_sbu_3, # of connection points: 4
#     Node 6, Type 0, BuildingBlock: QUQFOY_clean_sbu_3, # of connection points: 4
#     Node 7, Type 0, BuildingBlock: QUQFOY_clean_sbu_3, # of connection points: 4
#     Node 8, Type 0, BuildingBlock: QUQFOY_clean_sbu_3, # of connection points: 4
#     Node 9, Type 0, BuildingBlock: QUQFOY_clean_sbu_3, # of connection points: 4
#     Node 10, Type 0, BuildingBlock: QUQFOY_clean_sbu_3, # of connection points: 4
#     Node 11, Type 0, BuildingBlock: QUQFOY_clean_sbu_3, # of connection points: 4
#     Node 12, Type 0, BuildingBlock: QUQFOY_clean_sbu_3, # of connection points: 4
#     Node 13, Type 0, BuildingBlock: QUQFOY_clean_sbu_3, # of connection points: 4
#     Node 14, Type 0, BuildingBlock: QUQFOY_clean_sbu_3, # of connection points: 4
#     Node 15, Type 0, BuildingBlock: QUQFOY_clean_sbu_3, # of connection points: 4
#     Node 16, Type 0, BuildingBlock: QUQFOY_clean_sbu_3, # of connection points: 4
#     Node 17, Type 0, BuildingBlock: QUQFOY_clean_sbu_3, # of connection points: 4
#     Node 18, Type 1, BuildingBlock: NAWXER_clean_linker_0, # of connection points: 4
#     Node 19, Type 1, BuildingBlock: NAWXER_clean_linker_0, # of connection points: 4
#     Node 20, Type 1, BuildingBlock: NAWXER_clean_linker_0, # of connection points: 4
#     Node 21, Type 1, BuildingBlock: NAWXER_clean_linker_0, # of connection points: 4
#     Node 22, Type 1, BuildingBlock: NAWXER_clean_linker_0, # of connection points: 4
#     Node 23, Type 1, BuildingBlock: NAWXER_clean_linker_0, # of connection points: 4
#     Node 24, Type 1, BuildingBlock: NAWXER_clean_linker_0, # of connection points: 4
#     Node 25, Type 1, BuildingBlock: NAWXER_clean_linker_0, # of connection points: 4
#     Node 26, Type 1, BuildingBlock: NAWXER_clean_linker_0, # of connection points: 4
#     Node 27, Type 1, BuildingBlock: NAWXER_clean_linker_0, # of connection points: 4
#     Node 28, Type 1, BuildingBlock: NAWXER_clean_linker_0, # of connection points: 4
#     Node 29, Type 1, BuildingBlock: NAWXER_clean_linker_0, # of connection points: 4
#     Node 30, Type 1, BuildingBlock: NAWXER_clean_linker_0, # of connection points: 4
#     Node 31, Type 1, BuildingBlock: NAWXER_clean_linker_0, # of connection points: 4
#     Node 32, Type 1, BuildingBlock: NAWXER_clean_linker_0, # of connection points: 4
#     Node 33, Type 1, BuildingBlock: NAWXER_clean_linker_0, # of connection points: 4
#     Node 34, Type 1, BuildingBlock: NAWXER_clean_linker_0, # of connection points: 4
#     Node 35, Type 1, BuildingBlock: NAWXER_clean_linker_0, # of connection points: 4
#     Edge 36, Type (0, 1), BuildingBlock: TEMPAE_clean_linker_10, # of connection points: 2
#     Edge 37, Type (0, 1), BuildingBlock: TEMPAE_clean_linker_10, # of connection points: 2
#     Edge 38, Type (0, 1), BuildingBlock: TEMPAE_clean_linker_10, # of connection points: 2
#     Edge 39, Type (0, 1), BuildingBlock: TEMPAE_clean_linker_10, # of connection points: 2
#     Edge 40, Type (0, 1), BuildingBlock: TEMPAE_clean_linker_10, # of connection points: 2
#     Edge 41, Type (0, 1), BuildingBlock: TEMPAE_clean_linker_10, # of connection points: 2
#     Edge 42, Type (0, 1), BuildingBlock: TEMPAE_clean_linker_10, # of connection points: 2
#     Edge 43, Type (0, 1), BuildingBlock: TEMPAE_clean_linker_10, # of connection points: 2
#     Edge 44, Type (0, 1), BuildingBlock: TEMPAE_clean_linker_10, # of connection points: 2
#     Edge 45, Type (0, 1), BuildingBlock: TEMPAE_clean_linker_10, # of connection points: 2
#     Edge 46, Type (0, 1), BuildingBlock: TEMPAE_clean_linker_10, # of connection points: 2
#     Edge 47, Type (0, 1), BuildingBlock: TEMPAE_clean_linker_10, # of connection points: 2
#     Edge 48, Type (0, 1), BuildingBlock: TEMPAE_clean_linker_10, # of connection points: 2
#     Edge 49, Type (0, 1), BuildingBlock: TEMPAE_clean_linker_10, # of connection points: 2
#     Edge 50, Type (0, 1), BuildingBlock: TEMPAE_clean_linker_10, # of connection points: 2
#     Edge 51, Type (0, 1), BuildingBlock: TEMPAE_clean_linker_10, # of connection points: 2
#     Edge 52, Type (0, 1), BuildingBlock: TEMPAE_clean_linker_10, # of connection points: 2
#     Edge 53, Type (0, 1), BuildingBlock: TEMPAE_clean_linker_10, # of connection points: 2
#     Edge 54, Type (0, 1), BuildingBlock: TEMPAE_clean_linker_10, # of connection points: 2
#     Edge 55, Type (0, 1), BuildingBlock: TEMPAE_clean_linker_10, # of connection points: 2
#     Edge 56, Type (0, 1), BuildingBlock: TEMPAE_clean_linker_10, # of connection points: 2
#     Edge 57, Type (0, 1), BuildingBlock: TEMPAE_clean_linker_10, # of connection points: 2
#     Edge 58, Type (0, 1), BuildingBlock: TEMPAE_clean_linker_10, # of connection points: 2
#     Edge 59, Type (0, 1), BuildingBlock: TEMPAE_clean_linker_10, # of connection points: 2
#     Edge 60, Type (0, 1), BuildingBlock: TEMPAE_clean_linker_10, # of connection points: 2
#     Edge 61, Type (0, 1), BuildingBlock: TEMPAE_clean_linker_10, # of connection points: 2
#     Edge 62, Type (0, 1), BuildingBlock: TEMPAE_clean_linker_10, # of connection points: 2
#     Edge 63, Type (0, 1), BuildingBlock: TEMPAE_clean_linker_10, # of connection points: 2
#     Edge 64, Type (0, 1), BuildingBlock: TEMPAE_clean_linker_10, # of connection points: 2
#     Edge 65, Type (0, 1), BuildingBlock: TEMPAE_clean_linker_10, # of connection points: 2
#     Edge 66, Type (0, 1), BuildingBlock: TEMPAE_clean_linker_10, # of connection points: 2
#     Edge 67, Type (0, 1), BuildingBlock: TEMPAE_clean_linker_10, # of connection points: 2
#     Edge 68, Type (0, 1), BuildingBlock: TEMPAE_clean_linker_10, # of connection points: 2
#     Edge 69, Type (0, 1), BuildingBlock: TEMPAE_clean_linker_10, # of connection points: 2
#     Edge 70, Type (0, 1), BuildingBlock: TEMPAE_clean_linker_10, # of connection points: 2
#     Edge 71, Type (0, 1), BuildingBlock: TEMPAE_clean_linker_10, # of connection points: 2
#     Edge 72, Type (0, 1), BuildingBlock: TEMPAE_clean_linker_10, # of connection points: 2
#     Edge 73, Type (0, 1), BuildingBlock: TEMPAE_clean_linker_10, # of connection points: 2
#     Edge 74, Type (0, 1), BuildingBlock: TEMPAE_clean_linker_10, # of connection points: 2
#     Edge 75, Type (0, 1), BuildingBlock: TEMPAE_clean_linker_10, # of connection points: 2
#     Edge 76, Type (0, 1), BuildingBlock: TEMPAE_clean_linker_10, # of connection points: 2
#     Edge 77, Type (0, 1), BuildingBlock: TEMPAE_clean_linker_10, # of connection points: 2
#     Edge 78, Type (0, 1), BuildingBlock: TEMPAE_clean_linker_10, # of connection points: 2
#     Edge 79, Type (0, 1), BuildingBlock: TEMPAE_clean_linker_10, # of connection points: 2
#     Edge 80, Type (0, 1), BuildingBlock: TEMPAE_clean_linker_10, # of connection points: 2
#     Edge 81, Type (0, 1), BuildingBlock: TEMPAE_clean_linker_10, # of connection points: 2
#     Edge 82, Type (0, 1), BuildingBlock: TEMPAE_clean_linker_10, # of connection points: 2
#     Edge 83, Type (0, 1), BuildingBlock: TEMPAE_clean_linker_10, # of connection points: 2
#     Edge 84, Type (0, 1), BuildingBlock: TEMPAE_clean_linker_10, # of connection points: 2
#     Edge 85, Type (0, 1), BuildingBlock: TEMPAE_clean_linker_10, # of connection points: 2
#     Edge 86, Type (0, 1), BuildingBlock: TEMPAE_clean_linker_10, # of connection points: 2
#     Edge 87, Type (0, 1), BuildingBlock: TEMPAE_clean_linker_10, # of connection points: 2
#     Edge 88, Type (0, 1), BuildingBlock: TEMPAE_clean_linker_10, # of connection points: 2
#     Edge 89, Type (0, 1), BuildingBlock: TEMPAE_clean_linker_10, # of connection points: 2
#     Edge 90, Type (0, 1), BuildingBlock: TEMPAE_clean_linker_10, # of connection points: 2
#     Edge 91, Type (0, 1), BuildingBlock: TEMPAE_clean_linker_10, # of connection points: 2
#     Edge 92, Type (0, 1), BuildingBlock: TEMPAE_clean_linker_10, # of connection points: 2
#     Edge 93, Type (0, 1), BuildingBlock: TEMPAE_clean_linker_10, # of connection points: 2
#     Edge 94, Type (0, 1), BuildingBlock: TEMPAE_clean_linker_10, # of connection points: 2
#     Edge 95, Type (0, 1), BuildingBlock: TEMPAE_clean_linker_10, # of connection points: 2
#     Edge 96, Type (0, 1), BuildingBlock: TEMPAE_clean_linker_10, # of connection points: 2
#     Edge 97, Type (0, 1), BuildingBlock: TEMPAE_clean_linker_10, # of connection points: 2
#     Edge 98, Type (0, 1), BuildingBlock: TEMPAE_clean_linker_10, # of connection points: 2
#     Edge 99, Type (0, 1), BuildingBlock: TEMPAE_clean_linker_10, # of connection points: 2
#     Edge 100, Type (0, 1), BuildingBlock: TEMPAE_clean_linker_10, # of connection points: 2
#     Edge 101, Type (0, 1), BuildingBlock: TEMPAE_clean_linker_10, # of connection points: 2
#     Edge 102, Type (0, 1), BuildingBlock: TEMPAE_clean_linker_10, # of connection points: 2
#     Edge 103, Type (0, 1), BuildingBlock: TEMPAE_clean_linker_10, # of connection points: 2
#     Edge 104, Type (0, 1), BuildingBlock: TEMPAE_clean_linker_10, # of connection points: 2
#     Edge 105, Type (0, 1), BuildingBlock: TEMPAE_clean_linker_10, # of connection points: 2
#     Edge 106, Type (0, 1), BuildingBlock: TEMPAE_clean_linker_10, # of connection points: 2
#     Edge 107, Type (0, 1), BuildingBlock: TEMPAE_clean_linker_10, # of connection points: 2
# Relax obj value: 0.029
# Max RMSD: 0.135
# Mean RMSD: 0.051
data_MOF--net-ptr--node1-QUQFOY_clean_sbu_3--node2-NAWXER_clean_linker_0--edge1-TEMPAE_clean_linker_10
_symmetry_space_group_name_H-M    P1
_symmetry_Int_Tables_number       1
_symmetry_cell_setting            triclinic
loop_
_symmetry_equiv_pos_as_xyz
'x, y, z'
_cell_length_a     88.722312
_cell_length_b     89.20242
_cell_length_c     65.690647
_cell_angle_alpha  90.403108
_cell_angle_beta   89.411185
_cell_angle_gamma 120.59256
loop_
_atom_site_label
_atom_site_type_symbol
_atom_site_fract_x
_atom_site_fract_y
_atom_site_fract_z
_atom_type_partial_charge
C0 C 0.97053 0.31293 0.98924 0.0
O1 O 0.96211 0.3206 0.99337 0.0
Cd2 Cd 0.97347 0.34758 0.01175 0.0
O3 O 0.98628 0.31932 0.99514 0.0
Cd4 Cd 0.00847 0.34505 0.01441 0.0
C5 C 0.00863 0.37379 0.98062 0.0
O6 O 0.98926 0.34666 0.04015 0.0
O7 O 0.01553 0.3688 0.03816 0.0
O8 O 0.01534 0.32702 0.03507 0.0
C9 C 0.00078 0.36134 0.04717 0.0
O10 O 0.99411 0.3701 0.98891 0.0
C11 C 0.03133 0.33408 0.02994 0.0
O12 O 0.01646 0.36563 0.98544 0.0
O13 O 0.0369 0.34612 0.01669 0.0
C14 C 0.6392 0.68143 0.02967 0.0
O15 O 0.62267 0.67325 0.02779 0.0
Cd16 Cd 0.6071 0.64589 0.01036 0.0
O17 O 0.64825 0.67559 0.0214 0.0
Cd18 Cd 0.64413 0.65104 -0.00046 0.0
C19 C 0.62157 0.62255 0.03715 0.0
O20 O 0.62102 0.64941 0.97782 0.0
O21 O 0.62593 0.62816 0.97522 0.0
O22 O 0.67074 0.67317 0.9826 0.0
C23 C 0.61786 0.6355 0.96881 0.0
O24 O 0.60913 0.62506 0.03245 0.0
C25 C 0.6781 0.66415 0.98192 0.0
O26 O 0.63641 0.63104 0.02828 0.0
O27 O 0.66969 0.64899 0.98959 0.0
C28 C 0.3099 0.96041 0.02484 0.0
O29 O 0.31748 0.95214 0.01953 0.0
Cd30 Cd 0.34459 0.96536 0.00047 0.0
O31 O 0.31633 0.97628 0.01983 0.0
Cd32 Cd 0.3411 -0.00043 0.00088 0.0
C33 C 0.36993 -0.00107 0.03348 0.0
O34 O 0.34189 0.98143 0.97336 0.0
O35 O 0.36349 0.00791 0.97467 0.0
O36 O 0.31914 0.00584 0.98898 0.0
C37 C 0.35601 0.99338 0.96549 0.0
O38 O 0.36706 0.98519 0.02409 0.0
C39 C 0.32851 0.02224 0.99092 0.0
O40 O 0.3612 0.00632 0.02954 0.0
O41 O 0.34376 0.02821 -0.00183 0.0
C42 C 0.95999 0.65215 0.99098 0.0
O43 O 0.95068 0.63662 0.99733 0.0
Cd44 Cd 0.96333 0.62125 0.01248 0.0
O45 O 0.97638 0.66081 0.99434 0.0
Cd46 Cd -0.0009 0.65834 0.01301 0.0
C47 C -0.00375 0.62997 0.9771 0.0
O48 O 0.98082 0.63858 0.04015 0.0
O49 O 0.00695 0.64286 0.03697 0.0
O50 O 0.00594 0.68604 0.02765 0.0
C51 C 0.99255 0.63575 0.04668 0.0
O52 O 0.98162 0.61952 0.98557 0.0
C53 C 0.02239 0.6934 0.02522 0.0
O54 O 0.00556 0.64561 0.98341 0.0
O55 O 0.02819 0.68456 0.01646 0.0
C56 C 0.31589 0.35372 0.03213 0.0
O57 O 0.32334 0.37014 0.03031 0.0
Cd58 Cd 0.35026 0.3868 0.01191 0.0
O59 O 0.32225 0.34537 0.02334 0.0
Cd60 Cd 0.34673 0.35058 0.00052 0.0
C61 C 0.3756 0.37387 0.03731 0.0
O62 O 0.34652 0.37294 0.97946 0.0
O63 O 0.36867 0.3694 0.97549 0.0
O64 O 0.32483 0.324 0.98386 0.0
C65 C 0.36044 0.37677 0.96975 0.0
O66 O 0.37221 0.38574 0.03297 0.0
C67 C 0.33432 0.31715 0.98258 0.0
O68 O 0.36752 0.35909 0.0285 0.0
O69 O 0.34965 0.32581 0.98987 0.0
C70 C 0.68637 0.03154 0.99258 0.0
O71 O 0.67906 0.04005 -0.00209 0.0
Cd72 Cd 0.65133 0.02704 0.01541 0.0
O73 O 0.67942 0.01553 0.99728 0.0
Cd74 Cd 0.65327 0.99321 0.01623 0.0
C75 C 0.6265 0.9941 0.98144 0.0
O76 O 0.65037 0.01027 0.0441 0.0
O77 O 0.62732 0.98578 0.03649 0.0
O78 O 0.67305 0.98611 0.03309 0.0
C79 C 0.63468 -0.00124 0.04838 0.0
O80 O 0.62948 0.00786 0.99088 0.0
C81 C 0.66385 0.96976 0.03056 0.0
O82 O 0.63482 0.98638 0.98582 0.0
O83 O 0.64966 0.9641 0.0208 0.0
C84 C 0.6243 0.63923 0.3234 0.0
O85 O 0.61457 0.64498 0.32945 0.0
Cd86 Cd 0.62746 0.67382 0.34321 0.0
O87 O 0.64063 0.6476 0.32711 0.0
Cd88 Cd 0.66164 0.67344 0.34729 0.0
C89 C 0.66175 0.69845 0.3097 0.0
O90 O 0.6433 0.67621 0.37349 0.0
O91 O 0.66778 0.69959 0.36621 0.0
O92 O 0.66872 0.65619 0.36926 0.0
C93 C 0.65441 0.69194 0.37772 0.0
O94 O 0.64667 0.6942 0.31684 0.0
C95 C 0.68477 0.66342 0.36428 0.0
O96 O 0.67048 0.69212 0.3173 0.0
O97 O 0.69027 0.67543 0.35101 0.0
C98 C 0.31057 0.02368 0.37106 0.0
O99 O 0.29407 0.01614 0.36906 0.0
Cd100 Cd 0.27676 0.98851 0.35267 0.0
O101 O 0.31902 0.01683 0.3637 0.0
Cd102 Cd 0.31287 0.99052 0.34397 0.0
C103 C 0.28729 0.96319 0.38156 0.0
O104 O 0.29084 0.98955 0.32101 0.0
O105 O 0.29391 0.96705 0.32079 0.0
O106 O 0.33819 0.00787 0.32221 0.0
C107 C 0.28693 0.97503 0.31306 0.0
O108 O 0.27592 0.96697 0.37601 0.0
C109 C 0.34593 -0.00043 0.32611 0.0
O110 O 0.30241 0.97052 0.37321 0.0
O111 O 0.33853 0.98723 0.3389 0.0
C112 C 0.98087 0.29714 0.36025 0.0
O113 O 0.98847 0.28837 0.35838 0.0
Cd114 Cd 0.01563 0.29805 0.34067 0.0
O115 O 0.98748 0.31222 0.35235 0.0
Cd116 Cd 0.01321 0.33263 0.3317 0.0
C117 C 0.04176 0.33544 0.368 0.0
O118 O 0.01189 0.30983 0.30998 0.0
O119 O 0.03264 0.33589 0.30298 0.0
O120 O 0.99323 0.34056 0.31681 0.0
C121 C 0.02476 0.31981 0.29874 0.0
O122 O 0.03772 0.32004 0.3629 0.0
C123 C 0.00391 0.35687 0.31744 0.0
O124 O 0.03436 0.34285 0.35966 0.0
O125 O 0.0188 0.3619 0.32521 0.0
C126 C 0.62464 0.97203 0.32169 0.0
O127 O 0.61707 0.95584 0.32548 0.0
Cd128 Cd 0.63098 0.94253 0.34252 0.0
O129 O 0.64028 0.98227 0.32754 0.0
Cd130 Cd 0.66368 0.98121 0.34661 0.0
C131 C 0.6665 0.95569 0.31034 0.0
O132 O 0.64476 0.95983 0.37205 0.0
O133 O 0.67169 0.96626 0.37152 0.0
O134 O 0.6692 0.00845 0.36192 0.0
C135 C 0.65673 0.95805 0.37994 0.0
O136 O 0.65211 0.94357 0.3177 0.0
C137 C 0.68567 0.01645 0.35932 0.0
O138 O 0.67346 0.97116 0.31729 0.0
O139 O 0.69198 0.00811 0.35048 0.0
C140 C 0.98413 0.68171 0.36878 0.0
O141 O 0.99027 0.69797 0.36692 0.0
Cd142 Cd 0.017 0.71682 0.34917 0.0
O143 O 0.99197 0.67453 0.36064 0.0
Cd144 Cd 0.0181 0.68263 0.33933 0.0
C145 C 0.04519 0.70882 0.3762 0.0
O146 O 0.01514 0.70291 0.31718 0.0
O147 O 0.03892 0.70212 0.3138 0.0
O148 O -0.00096 0.6551 0.32257 0.0
C149 C 0.02932 0.70783 0.30751 0.0
O150 O 0.04012 0.71931 0.37122 0.0
C151 C 0.00996 0.64992 0.3223 0.0
O152 O 0.03868 0.69393 0.36772 0.0
O153 O 0.02477 0.6599 0.33036 0.0
C154 C 0.35515 0.36982 0.31766 0.0
O155 O 0.34716 0.37815 0.32003 0.0
Cd156 Cd 0.31963 0.36688 0.33737 0.0
O157 O 0.34893 0.35468 0.32531 0.0
Cd158 Cd 0.32332 0.33387 0.34641 0.0
C159 C 0.29442 0.32916 0.30989 0.0
O160 O 0.32148 0.35486 0.36896 0.0
O161 O 0.29955 0.32851 0.36989 0.0
O162 O 0.34162 0.32845 0.36886 0.0
C163 C 0.30703 0.34384 0.37713 0.0
O164 O 0.29809 0.34444 0.31506 0.0
C165 C 0.33465 0.31235 0.3649 0.0
O166 O 0.30224 0.3221 0.3181 0.0
O167 O 0.3225 0.30609 0.35178 0.0
C168 C 0.29937 0.98362 0.65561 0.0
O169 O 0.2903 0.99085 0.65806 0.0
Cd170 Cd 0.30089 0.01845 0.67444 0.0
O171 O 0.31495 0.99085 0.66235 0.0
Cd172 Cd 0.33577 0.01756 0.68149 0.0
C173 C 0.33685 0.04418 0.64421 0.0
O174 O 0.31447 0.01778 0.70546 0.0
O175 O 0.34034 0.04052 0.70554 0.0
O176 O 0.34375 -0.00134 0.69904 0.0
C177 C 0.32514 0.03238 0.71338 0.0
O178 O 0.32161 0.04006 0.65054 0.0
C179 C 0.36018 0.00871 0.69727 0.0
O180 O 0.34493 0.0372 0.65194 0.0
O181 O 0.36537 0.02289 0.68775 0.0
C182 C 0.97458 0.3479 0.69374 0.0
O183 O 0.9582 0.33969 0.69057 0.0
Cd184 Cd 0.94267 0.31276 0.67247 0.0
O185 O 0.98415 0.34217 0.68669 0.0
Cd186 Cd 0.98071 0.31727 0.66576 0.0
C187 C 0.954 0.28771 0.70111 0.0
O188 O 0.95926 0.31639 0.64227 0.0
O189 O 0.96361 0.29473 0.64043 0.0
O190 O 0.00619 0.33658 0.64535 0.0
C191 C 0.9562 0.30251 0.63329 0.0
O192 O 0.94251 0.29118 0.69511 0.0
C193 C 0.01498 0.32937 0.64936 0.0
O194 O 0.9695 0.29581 0.69372 0.0
O195 O 0.00807 0.31663 0.66168 0.0
C196 C 0.64578 0.62695 0.69593 0.0
O197 O 0.65246 0.61741 0.69362 0.0
Cd198 Cd 0.6806 0.62825 0.67789 0.0
O199 O 0.65366 0.64244 0.68912 0.0
Cd200 Cd 0.68058 0.66219 0.67006 0.0
C201 C 0.70612 0.66375 0.70819 0.0
O202 O 0.68182 0.64189 0.64599 0.0
O203 O 0.70585 0.66653 0.6502 0.0
O204 O 0.66406 0.66953 0.64733 0.0
C205 C 0.69737 0.65248 0.6402 0.0
O206 O 0.70206 0.64855 0.70217 0.0
C207 C 0.6718 0.68559 0.65179 0.0
O208 O 0.69933 0.67179 0.69996 0.0
O209 O 0.68383 0.69099 0.66501 0.0
C210 C 0.28624 0.30948 0.65255 0.0
O211 O 0.27844 0.29305 0.65453 0.0
Cd212 Cd 0.29178 0.27849 0.67017 0.0
O213 O 0.30153 0.31908 0.65972 0.0
Cd214 Cd 0.32365 0.31618 0.67916 0.0
C215 C 0.3292 0.29393 0.64085 0.0
O216 O 0.304 0.29253 0.70197 0.0
O217 O 0.331 0.29902 0.70134 0.0
O218 O 0.32844 0.3402 0.70117 0.0
C219 C 0.31586 0.29022 0.70924 0.0
O220 O 0.31433 0.2813 0.64632 0.0
C221 C 0.34453 0.34992 0.69673 0.0
O222 O 0.33562 0.30872 0.64954 0.0
O223 O 0.35099 0.34402 0.68384 0.0
C224 C 0.65309 0.02343 0.69441 0.0
O225 O 0.66061 0.03949 0.6899 0.0
Cd226 Cd 0.68685 0.05397 0.66989 0.0
O227 O 0.65916 0.01404 0.68791 0.0
Cd228 Cd 0.68328 0.0165 0.66629 0.0
C229 C 0.71341 0.04517 0.69934 0.0
O230 O 0.68137 0.03534 0.64113 0.0
O231 O 0.70328 0.03138 0.6378 0.0
O232 O 0.66102 0.98773 0.6548 0.0
C233 C 0.69455 0.03781 0.63077 0.0
O234 O 0.70962 0.05612 0.69238 0.0
C235 C 0.6709 0.9813 0.65474 0.0
O236 O 0.70527 0.02941 0.69323 0.0
O237 O 0.68655 0.99115 0.66064 0.0
C238 C 0.01547 0.70199 0.65478 0.0
O239 O 0.00741 0.71024 0.65737 0.0
Cd240 Cd 0.97992 0.6993 0.67496 0.0
O241 O 0.00912 0.68664 0.66187 0.0
Cd242 Cd 0.98256 0.66546 0.68141 0.0
C243 C 0.95415 0.66332 0.64572 0.0
O244 O 0.98104 0.68574 0.7055 0.0
O245 O 0.95819 0.66002 0.70412 0.0
O246 O -0.00088 0.65745 0.70365 0.0
C247 C 0.96609 0.67484 0.71267 0.0
O248 O 0.95717 0.67791 0.65284 0.0
C249 C 0.9914 0.64149 0.69864 0.0
O250 O 0.96269 0.65627 0.65186 0.0
O251 O 0.97977 0.63657 0.68498 0.0
C252 C 0.20706 0.3035 0.13613 0.0
C253 C 0.20622 0.29494 0.11776 0.0
C254 C 0.19189 0.29876 0.1474 0.0
C255 C 0.17563 0.28519 0.14068 0.0
C256 C 0.18994 0.28118 0.11122 0.0
C257 C 0.17476 0.27643 0.12254 0.0
C258 C 0.15937 0.28158 0.1512 0.0
C259 C 0.19103 0.26979 0.19443 0.0
C260 C 0.19474 0.27903 0.2129 0.0
C261 C 0.17823 0.26897 0.18136 0.0
C262 C 0.16931 0.27782 0.18629 0.0
C263 C 0.18526 0.28719 0.21815 0.0
C264 C 0.17273 0.28659 0.20503 0.0
C265 C 0.15657 0.27849 0.17232 0.0
C266 C 0.08799 0.27816 0.18589 0.0
C267 C 0.09252 0.28616 0.20521 0.0
C268 C 0.09986 0.27534 0.17468 0.0
C269 C 0.1168 0.28127 0.18213 0.0
C270 C 0.10886 0.29049 0.2133 0.0
C271 C 0.12088 0.28835 0.20184 0.0
C272 C 0.13064 0.28039 0.17014 0.0
C273 C 0.11166 0.30756 0.12865 0.0
C274 C 0.10596 0.29979 0.10936 0.0
C275 C 0.12069 0.30244 0.14151 0.0
C276 C 0.12357 0.28889 0.13581 0.0
C277 C 0.10952 0.28669 0.1034 0.0
C278 C 0.11817 0.2813 0.11649 0.0
C279 C 0.13361 0.28367 0.14895 0.0
H280 H 0.21934 0.31439 0.14134 0.0
H281 H 0.19279 0.3061 0.161 0.0
H282 H 0.18892 0.2743 0.09718 0.0
H283 H 0.16228 0.2661 0.11697 0.0
H284 H 0.19805 0.26324 0.19011 0.0
H285 H 0.17548 0.2616 0.16735 0.0
H286 H 0.18797 0.29461 0.23214 0.0
H287 H 0.16607 0.29351 0.20933 0.0
H288 H 0.07549 0.27445 0.17913 0.0
H289 H 0.0959 0.26893 0.16004 0.0
H290 H 0.11259 0.29581 0.2285 0.0
H291 H 0.13361 0.29264 0.20837 0.0
H292 H 0.10908 0.31755 0.13399 0.0
H293 H 0.12538 0.30909 0.15595 0.0
H294 H 0.10583 0.2807 0.08851 0.0
H295 H 0.12072 0.27119 0.11147 0.0
N296 N 0.14771 0.28385 0.14038 0.0
N297 N 0.14228 0.27794 0.18077 0.0
C298 C 0.68664 0.88733 0.12998 0.0
C299 C 0.69679 0.89568 0.11257 0.0
C300 C 0.69079 0.87727 0.14234 0.0
C301 C 0.70517 0.87535 0.13758 0.0
C302 C 0.71121 0.8937 0.10788 0.0
C303 C 0.71524 0.88348 0.12016 0.0
C304 C 0.70875 0.86368 0.1498 0.0
C305 C 0.72008 0.90962 0.18982 0.0
C306 C 0.7112 0.90508 0.20862 0.0
C307 C 0.7203 0.89683 0.17751 0.0
C308 C 0.71116 0.87925 0.18359 0.0
C309 C 0.70243 0.88762 0.21482 0.0
C310 C 0.70238 0.87488 0.20245 0.0
C311 C 0.71087 0.86514 0.17115 0.0
C312 C 0.71545 0.80115 0.19277 0.0
C313 C 0.70547 0.79706 0.21081 0.0
C314 C 0.71732 0.81462 0.18016 0.0
C315 C 0.70884 0.82389 0.18515 0.0
C316 C 0.69745 0.80668 0.216 0.0
C317 C 0.69912 0.81992 0.20335 0.0
C318 C 0.70985 0.83783 0.17194 0.0
C319 C 0.68413 0.78949 0.13319 0.0
C320 C 0.69337 0.79047 0.11526 0.0
C321 C 0.68902 0.80435 0.14489 0.0
C322 C 0.70344 0.82045 0.1391 0.0
C323 C 0.70777 0.80662 0.10944 0.0
C324 C 0.7127 0.8215 0.12123 0.0
C325 C 0.7078 0.83643 0.15058 0.0
H326 H 0.67522 0.8882 0.13385 0.0
H327 H 0.68252 0.87068 0.15539 0.0
H328 H 0.71945 0.90009 0.09476 0.0
H329 H 0.72626 0.88197 0.11611 0.0
H330 H 0.727 0.92305 0.1848 0.0
H331 H 0.72771 0.90073 0.16341 0.0
H332 H 0.69527 0.88375 0.22912 0.0
H333 H 0.69523 0.86148 0.2076 0.0
H334 H 0.7219 0.79403 0.18853 0.0
H335 H 0.72534 0.81774 0.16655 0.0
H336 H 0.68949 0.80369 0.22967 0.0
H337 H 0.69246 0.82683 0.20763 0.0
H338 H 0.67274 0.77732 0.13782 0.0
H339 H 0.68126 0.80334 0.15822 0.0
H340 H 0.71517 0.80775 0.09573 0.0
H341 H 0.7237 0.83386 0.11633 0.0
N342 N 0.70748 0.84947 0.14035 0.0
N343 N 0.71134 0.85215 0.18124 0.0
C344 C 0.1036 0.79887 0.12594 0.0
C345 C 0.09532 0.8009 0.1089 0.0
C346 C 0.11369 0.81293 0.1388 0.0
C347 C 0.11568 0.82929 0.13495 0.0
C348 C 0.09734 0.81734 0.10511 0.0
C349 C 0.10757 0.83144 0.11793 0.0
C350 C 0.12754 0.84447 0.14752 0.0
C351 C 0.0821 0.8084 0.18846 0.0
C352 C 0.08722 0.8037 0.20635 0.0
C353 C 0.09464 0.82177 0.17608 0.0
C354 C 0.11248 0.83028 0.18122 0.0
C355 C 0.10501 0.8123 0.21145 0.0
C356 C 0.11747 0.82541 0.19905 0.0
C357 C 0.12627 0.84471 0.16895 0.0
C358 C 0.18912 0.9148 0.19185 0.0
C359 C 0.19308 0.90918 0.2099 0.0
C360 C 0.17622 0.90274 0.17875 0.0
C361 C 0.16737 0.88485 0.18332 0.0
C362 C 0.18408 0.89134 0.21449 0.0
C363 C 0.17139 0.87934 0.20137 0.0
C364 C 0.15355 0.8716 0.17002 0.0
C365 C 0.20207 0.89419 0.13099 0.0
C366 C 0.20134 0.9023 0.11305 0.0
C367 C 0.18709 0.88454 0.1429 0.0
C368 C 0.17112 0.88296 0.13726 0.0
C369 C 0.18536 0.90081 0.10752 0.0
C370 C 0.17035 0.89112 0.11946 0.0
C371 C 0.15493 0.87122 0.14862 0.0
H372 H 0.10265 0.78652 0.12907 0.0
H373 H 0.12031 0.81112 0.15149 0.0
H374 H 0.09101 0.81932 0.09225 0.0
H375 H 0.10916 0.84405 0.11457 0.0
H376 H 0.06842 0.80197 0.18429 0.0
H377 H 0.09036 0.82557 0.16271 0.0
H378 H 0.10935 0.80873 0.22497 0.0
H379 H 0.13111 0.83169 0.20338 0.0
H380 H 0.19579 0.92852 0.18807 0.0
H381 H 0.17306 0.90741 0.16521 0.0
H382 H 0.18704 0.88661 0.22814 0.0
H383 H 0.16481 0.86565 0.20529 0.0
H384 H 0.21408 0.89477 0.13543 0.0
H385 H 0.18787 0.87783 0.15616 0.0
H386 H 0.18443 0.90701 0.09386 0.0
H387 H 0.15809 0.88983 0.1147 0.0
N388 N 0.14177 0.85778 0.13819 0.0
N389 N 0.13928 0.85832 0.17922 0.0
C390 C 0.30434 0.10365 0.83306 0.0
C391 C 0.29237 0.09476 0.81733 0.0
C392 C 0.30232 0.11514 0.84576 0.0
C393 C 0.28814 0.11778 0.84319 0.0
C394 C 0.27808 0.09729 0.81494 0.0
C395 C 0.27606 0.10877 0.82768 0.0
C396 C 0.28687 0.1312 0.85516 0.0
C397 C 0.28163 0.09057 0.89938 0.0
C398 C 0.29384 0.09705 0.91526 0.0
C399 C 0.27948 0.10199 0.88693 0.0
C400 C 0.28991 0.12009 0.88979 0.0
C401 C 0.30375 0.11507 0.9186 0.0
C402 C 0.30183 0.12647 0.90597 0.0
C403 C 0.28839 0.13266 0.87658 0.0
C404 C 0.28333 0.19708 0.89386 0.0
C405 C 0.29595 0.20407 0.90929 0.0
C406 C 0.28055 0.18236 0.88297 0.0
C407 C 0.29075 0.17476 0.88693 0.0
C408 C 0.30562 0.19605 0.91377 0.0
C409 C 0.30307 0.18157 0.90268 0.0
C410 C 0.28872 0.15959 0.8752 0.0
C411 C 0.30446 0.20198 0.82866 0.0
C412 C 0.29207 0.19795 0.81327 0.0
C413 C 0.30277 0.18911 0.84204 0.0
C414 C 0.28849 0.17203 0.84051 0.0
C415 C 0.27784 0.18082 0.8117 0.0
C416 C 0.27612 0.16796 0.82514 0.0
C417 C 0.28714 0.15809 0.8538 0.0
H418 H 0.31567 0.10226 0.83504 0.0
H419 H 0.31215 0.12237 0.85718 0.0
H420 H 0.26857 0.09054 0.80307 0.0
H421 H 0.26514 0.11077 0.82528 0.0
H422 H 0.27369 0.07668 0.8967 0.0
H423 H 0.26969 0.09665 0.87511 0.0
H424 H 0.31333 0.12037 0.93067 0.0
H425 H 0.30993 0.14035 0.90866 0.0
H426 H 0.27556 0.20294 0.89034 0.0
H427 H 0.27049 0.177 0.87145 0.0
H428 H 0.3155 0.20127 0.92552 0.0
H429 H 0.31101 0.1759 0.90618 0.0
H430 H 0.31575 0.21498 0.82999 0.0
H431 H 0.31281 0.19243 0.85333 0.0
H432 H 0.26803 0.17735 0.80006 0.0
H433 H 0.26513 0.15481 0.82354 0.0
N434 N 0.28614 0.14389 0.84467 0.0
N435 N 0.28928 0.14681 0.88565 0.0
C436 C 0.91142 0.19545 0.89343 0.0
C437 C 0.90481 0.20214 0.90818 0.0
C438 C 0.9 0.1809 0.88177 0.0
C439 C 0.88176 0.1731 0.88431 0.0
C440 C 0.88663 0.19405 0.91105 0.0
C441 C 0.87525 0.17971 0.89926 0.0
C442 C 0.86918 0.15785 0.87206 0.0
C443 C 0.89794 0.20007 0.82526 0.0
C444 C 0.90705 0.1964 0.81027 0.0
C445 C 0.88662 0.18722 0.8389 0.0
C446 C 0.88429 0.17043 0.83802 0.0
C447 C 0.90489 0.17964 0.80961 0.0
C448 C 0.89353 0.16676 0.82328 0.0
C449 C 0.87081 0.15627 0.85083 0.0
C450 C 0.79985 0.1031 0.82465 0.0
C451 C 0.80357 0.09383 0.80999 0.0
C452 C 0.81261 0.11414 0.83847 0.0
C453 C 0.82932 0.11604 0.83807 0.0
C454 C 0.82022 0.09549 0.8099 0.0
C455 C 0.833 0.1066 0.82372 0.0
C456 C 0.84349 0.12933 0.85087 0.0
C457 C 0.80312 0.08942 0.8937 0.0
C458 C 0.79682 0.0963 0.9086 0.0
C459 C 0.81785 0.1005 0.88187 0.0
C460 C 0.8262 0.11868 0.88436 0.0
C461 C 0.80543 0.11441 0.91138 0.0
C462 C 0.81991 0.12545 0.89939 0.0
C463 C 0.84178 0.13096 0.87208 0.0
H464 H 0.92541 0.20135 0.89109 0.0
H465 H 0.90543 0.17574 0.87087 0.0
H466 H 0.88117 0.19904 0.92217 0.0
H467 H 0.86127 0.17395 0.90164 0.0
H468 H 0.89894 0.21268 0.82591 0.0
H469 H 0.87919 0.19023 0.84964 0.0
H470 H 0.91177 0.1764 0.79834 0.0
H471 H 0.89175 0.15383 0.82215 0.0
H472 H 0.78732 0.10244 0.82488 0.0
H473 H 0.80962 0.12171 0.84896 0.0
H474 H 0.82347 0.08844 0.79893 0.0
H475 H 0.84588 0.10804 0.82299 0.0
H476 H 0.79682 0.07547 0.89144 0.0
H477 H 0.82273 0.09483 0.87093 0.0
H478 H 0.80076 0.12007 0.92262 0.0
H479 H 0.8261 0.13938 0.90175 0.0
N480 N 0.85473 0.14514 0.88172 0.0
N481 N 0.85798 0.14199 0.84116 0.0
C482 C 0.80079 0.71743 0.89575 0.0
C483 C 0.79333 0.70434 0.91062 0.0
C484 C 0.81556 0.72022 0.88473 0.0
C485 C 0.82275 0.70955 0.88792 0.0
C486 C 0.80102 0.69428 0.91452 0.0
C487 C 0.81555 0.69683 0.90325 0.0
C488 C 0.83767 0.71131 0.87558 0.0
C489 C 0.79494 0.69718 0.8301 0.0
C490 C 0.79885 0.70977 0.815 0.0
C491 C 0.80793 0.69872 0.84318 0.0
C492 C 0.82506 0.71301 0.84165 0.0
C493 C 0.81599 0.72415 0.81359 0.0
C494 C 0.829 0.7257 0.82675 0.0
C495 C 0.83914 0.71379 0.85424 0.0
C496 C 0.89112 0.69365 0.83003 0.0
C497 C 0.90098 0.70614 0.81509 0.0
C498 C 0.87981 0.69586 0.84294 0.0
C499 C 0.87832 0.71076 0.84144 0.0
C500 C 0.89945 0.72103 0.81356 0.0
C501 C 0.88815 0.72327 0.82657 0.0
C502 C 0.86535 0.71247 0.85405 0.0
C503 C 0.90484 0.71366 0.89755 0.0
C504 C 0.89763 0.69827 0.90896 0.0
C505 C 0.89389 0.71764 0.88658 0.0
C506 C 0.87566 0.70632 0.88716 0.0
C507 C 0.87944 0.6871 0.9097 0.0
C508 C 0.86852 0.69119 0.89905 0.0
C509 C 0.86378 0.70986 0.87531 0.0
H510 H 0.79519 0.72551 0.8927 0.0
H511 H 0.82123 0.73059 0.87359 0.0
H512 H 0.79546 0.68405 0.92586 0.0
H513 H 0.82088 0.6885 0.90619 0.0
H514 H 0.782 0.68573 0.83126 0.0
H515 H 0.80471 0.68844 0.85409 0.0
H516 H 0.81938 0.73406 0.80213 0.0
H517 H 0.84219 0.7367 0.82516 0.0
H518 H 0.89167 0.68184 0.83128 0.0
H519 H 0.87183 0.68564 0.85368 0.0
H520 H 0.90692 0.73092 0.80225 0.0
H521 H 0.88701 0.73473 0.82495 0.0
H522 H 0.91888 0.72241 0.89691 0.0
H523 H 0.89961 0.72947 0.87764 0.0
H524 H 0.87372 0.6752 0.91852 0.0
H525 H 0.85449 0.68232 0.8997 0.0
N526 N 0.85004 0.70936 0.8852 0.0
N527 N 0.85301 0.71445 0.84436 0.0
C528 C 0.7574 0.61592 0.44777 0.0
C529 C 0.76423 0.63088 0.43552 0.0
C530 C 0.76863 0.61261 0.45921 0.0
C531 C 0.78681 0.62415 0.45837 0.0
C532 C 0.78242 0.6421 0.4343 0.0
C533 C 0.79362 0.63865 0.44545 0.0
C534 C 0.79898 0.62173 0.47118 0.0
C535 C 0.76807 0.63649 0.51332 0.0
C536 C 0.7617 0.62669 0.53135 0.0
C537 C 0.77983 0.63476 0.50066 0.0
C538 C 0.78478 0.62246 0.50504 0.0
C539 C 0.76697 0.61463 0.53587 0.0
C540 C 0.77821 0.61245 0.52279 0.0
C541 C 0.79812 0.6211 0.49268 0.0
C542 C 0.86968 0.63569 0.51554 0.0
C543 C 0.86546 0.62646 0.53404 0.0
C544 C 0.85654 0.6336 0.50225 0.0
C545 C 0.83884 0.62156 0.50656 0.0
C546 C 0.84769 0.61456 0.5384 0.0
C547 C 0.8346 0.6121 0.52479 0.0
C548 C 0.82458 0.62011 0.49345 0.0
C549 C 0.86004 0.61071 0.4532 0.0
C550 C 0.86768 0.6229 0.43737 0.0
C551 C 0.8457 0.60921 0.46409 0.0
C552 C 0.83919 0.62027 0.45967 0.0
C553 C 0.86047 0.6332 0.43227 0.0
C554 C 0.84638 0.63188 0.44329 0.0
C555 C 0.82508 0.6202 0.47191 0.0
H556 H 0.74339 0.6071 0.44893 0.0
H557 H 0.76315 0.60125 0.46895 0.0
H558 H 0.78798 0.65362 0.42482 0.0
H559 H 0.80761 0.64766 0.4445 0.0
H560 H 0.76424 0.64577 0.50903 0.0
H561 H 0.78537 0.64346 0.48781 0.0
H562 H 0.7629 0.60717 0.54982 0.0
H563 H 0.7821 0.60314 0.52683 0.0
H564 H 0.88314 0.64481 0.51138 0.0
H565 H 0.86028 0.64173 0.48884 0.0
H566 H 0.84374 0.60751 0.55264 0.0
H567 H 0.82105 0.60303 0.52876 0.0
H568 H 0.86529 0.60253 0.45729 0.0
H569 H 0.83999 0.59974 0.47624 0.0
H570 H 0.86623 0.64284 0.42029 0.0
H571 H 0.8415 0.64044 0.43946 0.0
N572 N 0.81239 0.62126 0.46172 0.0
N573 N 0.81095 0.62027 0.50287 0.0
C574 C 0.36091 0.23389 0.46736 0.0
C575 C 0.36836 0.23904 0.44778 0.0
C576 C 0.36521 0.22399 0.4798 0.0
C577 C 0.37762 0.2196 0.47335 0.0
C578 C 0.38046 0.23422 0.44117 0.0
C579 C 0.38504 0.22465 0.45383 0.0
C580 C 0.38157 0.20824 0.48583 0.0
C581 C 0.39288 0.25445 0.52555 0.0
C582 C 0.38365 0.24973 0.54415 0.0
C583 C 0.39372 0.24185 0.51349 0.0
C584 C 0.38483 0.22428 0.51958 0.0
C585 C 0.37536 0.23231 0.55048 0.0
C586 C 0.37593 0.21977 0.53835 0.0
C587 C 0.38457 0.21024 0.50708 0.0
C588 C 0.39176 0.14764 0.5284 0.0
C589 C 0.38233 0.14359 0.54685 0.0
C590 C 0.39292 0.16083 0.51582 0.0
C591 C 0.38427 0.16984 0.52126 0.0
C592 C 0.37422 0.15302 0.55253 0.0
C593 C 0.37519 0.16597 0.53991 0.0
C594 C 0.38437 0.18331 0.50801 0.0
C595 C 0.35822 0.13411 0.47073 0.0
C596 C 0.36711 0.1349 0.45257 0.0
C597 C 0.36309 0.14916 0.48207 0.0
C598 C 0.37712 0.16527 0.47563 0.0
C599 C 0.38113 0.15107 0.44612 0.0
C600 C 0.38602 0.16615 0.45751 0.0
C601 C 0.38147 0.18138 0.48681 0.0
H602 H 0.3517 0.23746 0.47317 0.0
H603 H 0.35861 0.2196 0.49436 0.0
H604 H 0.38617 0.23751 0.42605 0.0
H605 H 0.39429 0.22103 0.44826 0.0
H606 H 0.39943 0.26784 0.52042 0.0
H607 H 0.40114 0.2458 0.49938 0.0
H608 H 0.36793 0.22825 0.56459 0.0
H609 H 0.36899 0.20637 0.5435 0.0
H610 H 0.39828 0.14067 0.52377 0.0
H611 H 0.40049 0.1639 0.50185 0.0
H612 H 0.36666 0.15005 0.56651 0.0
H613 H 0.36842 0.1727 0.54455 0.0
H614 H 0.34711 0.12194 0.47587 0.0
H615 H 0.35563 0.14827 0.49563 0.0
H616 H 0.38827 0.15208 0.43223 0.0
H617 H 0.39671 0.17851 0.45214 0.0
N618 N 0.38036 0.19397 0.47658 0.0
N619 N 0.38581 0.19767 0.51716 0.0
C620 C 0.77209 0.1287 0.44823 0.0
C621 C 0.76162 0.12945 0.4328 0.0
C622 C 0.78271 0.14333 0.46002 0.0
C623 C 0.78308 0.15903 0.45669 0.0
C624 C 0.76233 0.14534 0.42918 0.0
C625 C 0.7731 0.16006 0.44096 0.0
C626 C 0.79437 0.1744 0.4693 0.0
C627 C 0.74984 0.13627 0.50993 0.0
C628 C 0.75553 0.13119 0.52705 0.0
C629 C 0.76192 0.15019 0.49785 0.0
C630 C 0.77985 0.15895 0.50255 0.0
C631 C 0.77344 0.1399 0.53156 0.0
C632 C 0.78544 0.15362 0.51948 0.0
C633 C 0.79308 0.17408 0.49073 0.0
C634 C 0.85508 0.24423 0.51547 0.0
C635 C 0.85982 0.23806 0.53245 0.0
C636 C 0.84178 0.23255 0.50248 0.0
C637 C 0.83336 0.21452 0.50605 0.0
C638 C 0.85112 0.22009 0.53615 0.0
C639 C 0.83805 0.20847 0.52313 0.0
C640 C 0.81958 0.20157 0.49245 0.0
C641 C 0.86832 0.22828 0.45469 0.0
C642 C 0.86742 0.23761 0.43808 0.0
C643 C 0.85321 0.21675 0.46541 0.0
C644 C 0.83695 0.21455 0.46 0.0
C645 C 0.85108 0.23518 0.4324 0.0
C646 C 0.83593 0.22367 0.44327 0.0
C647 C 0.82095 0.20185 0.47099 0.0
H648 H 0.77222 0.11682 0.45108 0.0
H649 H 0.79071 0.14242 0.47174 0.0
H650 H 0.75437 0.14633 0.41749 0.0
H651 H 0.7734 0.17214 0.43804 0.0
H652 H 0.73605 0.12977 0.50624 0.0
H653 H 0.75722 0.15429 0.48512 0.0
H654 H 0.77821 0.13605 0.54446 0.0
H655 H 0.79919 0.16007 0.52338 0.0
H656 H 0.86151 0.25807 0.51241 0.0
H657 H 0.83811 0.2376 0.48972 0.0
H658 H 0.85467 0.21495 0.54896 0.0
H659 H 0.83181 0.19465 0.52624 0.0
H660 H 0.88065 0.22953 0.45906 0.0
H661 H 0.85422 0.20933 0.47777 0.0
H662 H 0.85004 0.24217 0.4196 0.0
H663 H 0.82344 0.22191 0.43867 0.0
N664 N 0.8082 0.18832 0.4602 0.0
N665 N 0.80569 0.1877 0.50136 0.0
C666 C 0.96365 0.5349 0.16019 0.0
C667 C 0.97436 0.541 0.14273 0.0
C668 C 0.96334 0.52181 0.1721 0.0
C669 C 0.97404 0.5149 0.167 0.0
C670 C 0.98479 0.53386 0.13747 0.0
C671 C 0.98461 0.52094 0.14946 0.0
C672 C 0.97399 0.50102 0.17928 0.0
C673 C 0.99468 0.54706 0.22138 0.0
C674 C 0.98377 0.54469 0.23821 0.0
C675 C 0.99149 0.53299 0.209 0.0
C676 C 0.97727 0.51629 0.21312 0.0
C677 C 0.96958 0.52791 0.24236 0.0
C678 C 0.96645 0.51382 0.23 0.0
C679 C 0.97449 0.50123 0.20077 0.0
C680 C 0.99264 0.44763 0.22113 0.0
C681 C 0.98078 0.43848 0.23702 0.0
C682 C 0.99041 0.45916 0.20906 0.0
C683 C 0.97622 0.46167 0.21257 0.0
C684 C 0.96666 0.44116 0.24059 0.0
C685 C 0.96449 0.45276 0.22855 0.0
C686 C 0.97423 0.47439 0.20046 0.0
C687 C 0.96529 0.43058 0.15857 0.0
C688 C 0.97672 0.43585 0.14171 0.0
C689 C 0.96412 0.44294 0.17064 0.0
C690 C 0.97468 0.4608 0.16631 0.0
C691 C 0.98694 0.45366 0.13715 0.0
C692 C 0.98591 0.46599 0.14931 0.0
C693 C 0.97403 0.47428 0.17896 0.0
H694 H 0.95531 0.54003 0.16441 0.0
H695 H 0.95461 0.51699 0.18515 0.0
H696 H 0.99329 0.53845 0.1242 0.0
H697 H 0.99292 0.51578 0.14513 0.0
H698 H 0.00593 0.55972 0.21802 0.0
H699 H 0.00035 0.5351 0.19642 0.0
H700 H 0.96085 0.52568 0.2551 0.0
H701 H 0.95554 0.50098 0.23355 0.0
H702 H 0.00386 0.44616 0.21826 0.0
H703 H -8e-05 0.46631 0.19718 0.0
H704 H 0.95721 0.4342 0.25259 0.0
H705 H 0.95357 0.4547 0.23161 0.0
H706 H 0.95709 0.41689 0.16223 0.0
H707 H 0.95491 0.43852 0.18324 0.0
H708 H -0.00403 0.4581 0.12435 0.0
H709 H 0.99413 0.47966 0.14558 0.0
N710 N 0.97391 0.48761 0.16925 0.0
N711 N 0.97439 0.48781 0.21052 0.0
C712 C 0.47678 0.41432 0.15429 0.0
C713 C 0.47331 0.41938 0.13552 0.0
C714 C 0.48993 0.42668 0.16697 0.0
C715 C 0.49938 0.44435 0.16129 0.0
C716 C 0.48316 0.43691 0.12965 0.0
C717 C 0.49599 0.44921 0.14236 0.0
C718 C 0.51296 0.45816 0.17437 0.0
C719 C 0.46374 0.43476 0.2129 0.0
C720 C 0.46492 0.42738 0.23123 0.0
C721 C 0.47867 0.44496 0.20105 0.0
C722 C 0.49504 0.4478 0.20714 0.0
C723 C 0.48136 0.43026 0.23729 0.0
C724 C 0.49629 0.44046 0.2254 0.0
C725 C 0.51107 0.45968 0.19552 0.0
C726 C 0.56332 0.53442 0.21271 0.0
C727 C 0.56765 0.5329 0.23286 0.0
C728 C 0.5538 0.51968 0.20055 0.0
C729 C 0.54918 0.50308 0.20778 0.0
C730 C 0.56264 0.51617 0.2402 0.0
C731 C 0.55364 0.5015 0.22776 0.0
C732 C 0.53794 0.48713 0.19573 0.0
C733 C 0.58392 0.52207 0.15461 0.0
C734 C 0.5788 0.5256 0.1359 0.0
C735 C 0.57155 0.50873 0.16721 0.0
C736 C 0.55382 0.49919 0.16153 0.0
C737 C 0.56124 0.51561 0.13001 0.0
C738 C 0.54893 0.50263 0.14265 0.0
C739 C 0.53994 0.48549 0.17455 0.0
H740 H 0.46939 0.40084 0.15908 0.0
H741 H 0.49263 0.42244 0.18115 0.0
H742 H 0.48058 0.44123 0.11542 0.0
H743 H 0.50303 0.46269 0.13752 0.0
H744 H 0.45137 0.43313 0.20802 0.0
H745 H 0.47748 0.45097 0.18736 0.0
H746 H 0.48269 0.42467 0.25126 0.0
H747 H 0.50885 0.44271 0.23051 0.0
H748 H 0.56708 0.54699 0.20626 0.0
H749 H 0.54978 0.52132 0.18564 0.0
H750 H 0.5652 0.51425 0.25574 0.0
H751 H 0.54982 0.48881 0.23394 0.0
H752 H 0.59742 0.52959 0.15943 0.0
H753 H 0.57578 0.50603 0.18141 0.0
H754 H 0.55687 0.51822 0.11583 0.0
H755 H 0.5354 0.49551 0.13781 0.0
N756 N 0.52735 0.47108 0.16492 0.0
N757 N 0.5237 0.474 0.20533 0.0
C758 C 0.4595 0.02992 0.2313 0.0
C759 C 0.44918 0.01526 0.24354 0.0
C760 C 0.47303 0.03079 0.21925 0.0
C761 C 0.4765 0.01709 0.21952 0.0
C762 C 0.45279 0.00166 0.24385 0.0
C763 C 0.46647 0.00267 0.23212 0.0
C764 C 0.49075 0.01769 0.20714 0.0
C765 C 0.44825 0.00931 0.16354 0.0
C766 C 0.45368 0.02025 0.14636 0.0
C767 C 0.46051 0.00903 0.17644 0.0
C768 C 0.47854 0.02022 0.17305 0.0
C769 C 0.47175 0.03136 0.14293 0.0
C770 C 0.484 0.03138 0.15616 0.0
C771 C 0.49186 0.01938 0.18572 0.0
C772 C 0.54875 0.00306 0.16545 0.0
C773 C 0.5561 0.01377 0.14822 0.0
C774 C 0.53618 0.00404 0.17745 0.0
C775 C 0.53129 0.01641 0.17324 0.0
C776 C 0.55057 0.02562 0.14357 0.0
C777 C 0.53845 0.027 0.156 0.0
C778 C 0.51797 0.01772 0.18583 0.0
C779 C 0.55995 0.02431 0.22895 0.0
C780 C 0.55391 0.01132 0.24395 0.0
C781 C 0.54805 0.02637 0.21725 0.0
C782 C 0.52994 0.01516 0.22003 0.0
C783 C 0.53582 0.0006 0.24724 0.0
C784 C 0.52396 0.00253 0.23541 0.0
C785 C 0.517 0.01647 0.20733 0.0
H786 H 0.45692 0.04054 0.23083 0.0
H787 H 0.48079 0.04212 0.20979 0.0
H788 H 0.44509 0.99031 0.25331 0.0
H789 H 0.46905 0.99204 0.23263 0.0
H790 H 0.43449 0.00068 0.16688 0.0
H791 H 0.45578 -0.00037 0.18868 0.0
H792 H 0.47655 0.03967 0.12966 0.0
H793 H 0.49782 0.03993 0.15294 0.0
H794 H 0.55264 0.99385 0.1698 0.0
H795 H 0.53027 0.99501 0.18997 0.0
H796 H 0.55535 0.03372 0.13012 0.0
H797 H 0.5346 0.03635 0.15205 0.0
H798 H 0.57385 0.03288 0.22632 0.0
H799 H 0.55298 0.03657 0.2059 0.0
H800 H 0.53081 0.99039 0.25858 0.0
H801 H 0.51006 0.99384 0.23796 0.0
N802 N 0.50332 0.01628 0.21703 0.0
N803 N 0.50546 0.01935 0.17597 0.0
C804 C 0.54653 0.98822 0.79751 0.0
C805 C 0.54442 0.97754 0.78068 0.0
C806 C 0.53206 0.98558 0.8089 0.0
C807 C 0.5152 0.97205 0.80389 0.0
C808 C 0.52752 0.964 0.77563 0.0
C809 C 0.513 0.96134 0.78712 0.0
C810 C 0.49982 0.97009 0.81513 0.0
C811 C 0.52979 0.95683 0.8594 0.0
C812 C 0.53848 0.97011 0.87388 0.0
C813 C 0.51679 0.95653 0.84718 0.0
C814 C 0.51215 0.96935 0.84956 0.0
C815 C 0.53372 0.98282 0.87629 0.0
C816 C 0.52053 0.98232 0.8644 0.0
C817 C 0.49876 0.96957 0.83658 0.0
C818 C 0.4283 0.96282 0.85294 0.0
C819 C 0.43297 0.97377 0.87007 0.0
C820 C 0.44115 0.96181 0.84153 0.0
C821 C 0.45889 0.97201 0.84685 0.0
C822 C 0.45069 0.98379 0.87546 0.0
C823 C 0.46351 0.98287 0.864 0.0
C824 C 0.47277 0.97113 0.83518 0.0
C825 C 0.45038 0.99359 0.79253 0.0
C826 C 0.44086 0.98239 0.77639 0.0
C827 C 0.46106 0.9901 0.80466 0.0
C828 C 0.46243 0.97532 0.80096 0.0
C829 C 0.44253 0.96775 0.77251 0.0
C830 C 0.45334 0.96434 0.78459 0.0
C831 C 0.4739 0.97177 0.8137 0.0
H832 H 0.55931 -0.00096 0.80145 0.0
H833 H 0.53402 0.99447 0.82128 0.0
H834 H 0.52552 0.95556 0.76275 0.0
H835 H 0.50006 0.95098 0.78285 0.0
H836 H 0.53323 0.94687 0.85737 0.0
H837 H 0.51035 0.94631 0.83592 0.0
H838 H 0.54011 0.99306 0.88754 0.0
H839 H 0.51712 0.99229 0.8665 0.0
H840 H 0.41471 0.95479 0.84863 0.0
H841 H 0.43719 0.95293 0.82872 0.0
H842 H 0.45468 0.99248 0.88846 0.0
H843 H 0.47709 0.99082 0.86844 0.0
H844 H 0.44976 0.0052 0.79567 0.0
H845 H 0.46837 -0.00096 0.81686 0.0
H846 H 0.43529 0.95877 0.76033 0.0
H847 H 0.45438 0.95297 0.78138 0.0
N848 N 0.48731 0.97109 0.80447 0.0
N849 N 0.48532 0.97017 0.84578 0.0
C850 C 0.00625 0.55296 0.79735 0.0
C851 C 0.01469 0.55882 0.77834 0.0
C852 C 0.00942 0.54207 0.80952 0.0
C853 C 0.02165 0.53731 0.80342 0.0
C854 C 0.02649 0.55353 0.77198 0.0
C855 C 0.02996 0.54298 0.78439 0.0
C856 C 0.02483 0.52533 0.81585 0.0
C857 C 0.03703 0.57076 0.85742 0.0
C858 C 0.0271 0.56602 0.87552 0.0
C859 C 0.03703 0.55798 0.84489 0.0
C860 C 0.02669 0.54025 0.85002 0.0
C861 C 0.01705 0.54834 0.88074 0.0
C862 C 0.01687 0.53562 0.86815 0.0
C863 C 0.02644 0.52631 0.83734 0.0
C864 C 0.04124 0.46936 0.85849 0.0
C865 C 0.02854 0.46076 0.87378 0.0
C866 C 0.04088 0.48209 0.84647 0.0
C867 C 0.02799 0.48657 0.84982 0.0
C868 C 0.0157 0.46531 0.87708 0.0
C869 C 0.01556 0.47823 0.86537 0.0
C870 C 0.02734 0.50001 0.83742 0.0
C871 C 0.00837 0.45301 0.79743 0.0
C872 C 0.01874 0.45561 0.78 0.0
C873 C 0.0109 0.46712 0.80928 0.0
C874 C 0.024 0.48412 0.80412 0.0
C875 C 0.03181 0.47266 0.77479 0.0
C876 C 0.03435 0.4868 0.78671 0.0
C877 C 0.02604 0.49916 0.81602 0.0
H878 H -0.0028 0.5568 0.80298 0.0
H879 H 0.00214 0.53727 0.82363 0.0
H880 H 0.03292 0.55732 0.75727 0.0
H881 H 0.03912 0.53916 0.77905 0.0
H882 H 0.04498 0.58433 0.85316 0.0
H883 H 0.04515 0.56195 0.83131 0.0
H884 H 0.00911 0.5443 0.89448 0.0
H885 H 0.00886 0.52207 0.87253 0.0
H886 H 0.05129 0.46609 0.85573 0.0
H887 H 0.05072 0.48852 0.83467 0.0
H888 H 0.0059 0.459 0.88894 0.0
H889 H 0.00555 0.48154 0.86826 0.0
H890 H -0.0021 0.4401 0.80156 0.0
H891 H 0.00229 0.46477 0.8222 0.0
H892 H 0.04003 0.47506 0.76148 0.0
H893 H 0.04438 0.49984 0.78233 0.0
N894 N 0.02491 0.51186 0.80608 0.0
N895 N 0.02746 0.51351 0.8472 0.0
C896 C 0.523 0.57744 0.78241 0.0
C897 C 0.52979 0.57059 0.76811 0.0
C898 C 0.50786 0.56632 0.79356 0.0
C899 C 0.49963 0.54817 0.79096 0.0
C900 C 0.52115 0.55252 0.765 0.0
C901 C 0.50624 0.54144 0.7763 0.0
C902 C 0.48412 0.53586 0.80313 0.0
C903 C 0.527 0.56401 0.84896 0.0
C904 C 0.52353 0.57304 0.86415 0.0
C905 C 0.51381 0.55266 0.83578 0.0
C906 C 0.49695 0.55039 0.83721 0.0
C907 C 0.50665 0.57072 0.86563 0.0
C908 C 0.49347 0.55944 0.85231 0.0
C909 C 0.48257 0.5373 0.82441 0.0
C910 C 0.42693 0.46649 0.84866 0.0
C911 C 0.41795 0.47024 0.86369 0.0
C912 C 0.43868 0.47948 0.83549 0.0
C913 C 0.44142 0.49641 0.83679 0.0
C914 C 0.42064 0.48717 0.86496 0.0
C915 C 0.43233 0.50016 0.85164 0.0
C916 C 0.45513 0.51058 0.82426 0.0
C917 C 0.41494 0.47223 0.78064 0.0
C918 C 0.42148 0.46324 0.76945 0.0
C919 C 0.42637 0.4873 0.79151 0.0
C920 C 0.44446 0.49362 0.79112 0.0
C921 C 0.43959 0.4698 0.7688 0.0
C922 C 0.45099 0.48495 0.77938 0.0
C923 C 0.45682 0.50906 0.80307 0.0
H924 H 0.52937 0.59136 0.78491 0.0
H925 H 0.50271 0.57189 0.80428 0.0
H926 H 0.52623 0.5469 0.75423 0.0
H927 H 0.50012 0.52752 0.77391 0.0
H928 H 0.53977 0.56523 0.84774 0.0
H929 H 0.51667 0.54531 0.82482 0.0
H930 H 0.50361 0.57753 0.87717 0.0
H931 H 0.48049 0.55767 0.85391 0.0
H932 H 0.42546 0.45368 0.84764 0.0
H933 H 0.44609 0.4764 0.8248 0.0
H934 H 0.41389 0.49042 0.87641 0.0
H935 H 0.43448 0.51321 0.85313 0.0
H936 H 0.401 0.46738 0.78133 0.0
H937 H 0.4211 0.49394 0.8003 0.0
H938 H 0.44492 0.46317 0.76011 0.0
H939 H 0.46491 0.48966 0.77883 0.0
N940 N 0.47121 0.52174 0.79339 0.0
N941 N 0.46802 0.5247 0.83408 0.0
C942 C 0.64558 0.76964 0.50103 0.0
C943 C 0.6351 0.76322 0.48352 0.0
C944 C 0.64447 0.78159 0.51387 0.0
C945 C 0.63214 0.7867 0.51031 0.0
C946 C 0.62307 0.76873 0.47972 0.0
C947 C 0.62152 0.78018 0.49302 0.0
C948 C 0.63131 0.80009 0.52313 0.0
C949 C 0.62631 0.75933 0.56761 0.0
C950 C 0.64153 0.76573 0.57935 0.0
C951 C 0.62329 0.77078 0.55634 0.0
C952 C 0.63541 0.78875 0.55686 0.0
C953 C 0.65337 0.78372 0.58021 0.0
C954 C 0.65023 0.79515 0.56923 0.0
C955 C 0.63307 0.80113 0.54455 0.0
C956 C 0.62409 0.86249 0.56598 0.0
C957 C 0.63654 0.86945 0.5816 0.0
C958 C 0.62235 0.84862 0.55413 0.0
C959 C 0.63342 0.84187 0.55732 0.0
C960 C 0.64709 0.86225 0.58528 0.0
C961 C 0.64556 0.84862 0.57324 0.0
C962 C 0.63229 0.82748 0.54474 0.0
C963 C 0.64613 0.87082 0.50008 0.0
C964 C 0.63378 0.86666 0.48459 0.0
C965 C 0.64495 0.85786 0.51295 0.0
C966 C 0.63124 0.84055 0.5108 0.0
C967 C 0.62005 0.84932 0.48251 0.0
C968 C 0.61885 0.83638 0.49544 0.0
C969 C 0.63061 0.82654 0.52333 0.0
H970 H 0.65487 0.76566 0.50481 0.0
H971 H 0.65365 0.78708 0.52628 0.0
H972 H 0.61509 0.76462 0.46618 0.0
H973 H 0.61218 0.7842 0.48956 0.0
H974 H 0.61703 0.74547 0.56677 0.0
H975 H 0.61167 0.76565 0.54706 0.0
H976 H 0.6651 0.78893 0.58933 0.0
H977 H 0.65966 0.80899 0.56993 0.0
H978 H 0.61567 0.86773 0.56304 0.0
H979 H 0.61239 0.84322 0.5425 0.0
H980 H 0.65686 0.86748 0.59715 0.0
H981 H 0.65414 0.84356 0.57617 0.0
H982 H 0.65706 0.88398 0.5018 0.0
H983 H 0.65501 0.86131 0.52425 0.0
H984 H 0.61028 0.84574 0.47081 0.0
H985 H 0.60829 0.82307 0.49338 0.0
N986 N 0.63001 0.81281 0.51344 0.0
N987 N 0.63356 0.81478 0.55441 0.0
C988 C 0.14445 0.7556 0.49657 0.0
C989 C 0.14119 0.76169 0.47842 0.0
C990 C 0.15694 0.7673 0.51033 0.0
C991 C 0.166 0.78531 0.50637 0.0
C992 C 0.15062 0.77961 0.47428 0.0
C993 C 0.16286 0.79126 0.48807 0.0
C994 C 0.17895 0.79827 0.52072 0.0
C995 C 0.12811 0.77211 0.55628 0.0
C996 C 0.12844 0.76361 0.57408 0.0
C997 C 0.14356 0.78301 0.54557 0.0
C998 C 0.15964 0.78545 0.55227 0.0
C999 C 0.14457 0.76605 0.58071 0.0
C1000 C 0.16003 0.77695 0.56997 0.0
C1001 C 0.17621 0.79807 0.54199 0.0
C1002 C 0.2197 0.85941 0.58617 0.0
C1003 C 0.23794 0.8681 0.58327 0.0
C1004 C 0.20867 0.84502 0.5742 0.0
C1005 C 0.21561 0.83904 0.55904 0.0
C1006 C 0.24496 0.86165 0.56874 0.0
C1007 C 0.2339 0.84711 0.55689 0.0
C1008 C 0.20352 0.82478 0.5453 0.0
C1009 C 0.2405 0.85231 0.48476 0.0
C1010 C 0.24202 0.86871 0.48718 0.0
C1011 C 0.22931 0.83841 0.49736 0.0
C1012 C 0.2196 0.84066 0.51281 0.0
C1013 C 0.23264 0.87105 0.50306 0.0
C1014 C 0.22147 0.85714 0.51566 0.0
C1015 C 0.20587 0.82533 0.52395 0.0
H1016 H 0.13744 0.74181 0.50002 0.0
H1017 H 0.15948 0.76227 0.524 0.0
H1018 H 0.1482 0.78471 0.46056 0.0
H1019 H 0.16965 0.80504 0.48457 0.0
H1020 H 0.11598 0.77082 0.551 0.0
H1021 H 0.14298 0.78988 0.53236 0.0
H1022 H 0.14527 0.75961 0.59428 0.0
H1023 H 0.17232 0.77882 0.57555 0.0
H1024 H 0.21391 0.86415 0.59715 0.0
H1025 H 0.19463 0.83899 0.57628 0.0
H1026 H 0.25898 0.86795 0.56642 0.0
H1027 H 0.23964 0.84241 0.54579 0.0
H1028 H 0.24766 0.85012 0.47279 0.0
H1029 H 0.22791 0.82575 0.49475 0.0
H1030 H 0.23322 0.88339 0.50511 0.0
H1031 H 0.2137 0.8591 0.52702 0.0
N1032 N 0.19363 0.81195 0.51263 0.0
N1033 N 0.18871 0.81122 0.55343 0.0
C1034 C 0.24205 0.38268 0.49174 0.0
C1035 C 0.23686 0.37285 0.47365 0.0
C1036 C 0.2297 0.38392 0.504 0.0
C1037 C 0.21194 0.37506 0.49853 0.0
C1038 C 0.21914 0.36427 0.46812 0.0
C1039 C 0.20686 0.36541 0.48037 0.0
C1040 C 0.19836 0.3758 0.51112 0.0
C1041 C 0.21959 0.34992 0.55052 0.0
C1042 C 0.22737 0.35897 0.5686 0.0
C1043 C 0.20979 0.35469 0.53859 0.0
C1044 C 0.2078 0.36877 0.54435 0.0
C1045 C 0.22523 0.37298 0.57443 0.0
C1046 C 0.21544 0.37777 0.56244 0.0
C1047 C 0.19664 0.37324 0.53238 0.0
C1048 C 0.12316 0.35579 0.54926 0.0
C1049 C 0.12522 0.36285 0.56898 0.0
C1050 C 0.13772 0.3597 0.53713 0.0
C1051 C 0.15473 0.37136 0.54403 0.0
C1052 C 0.14229 0.37429 0.57598 0.0
C1053 C 0.15684 0.37852 0.56363 0.0
C1054 C 0.17037 0.37457 0.53209 0.0
C1055 C 0.13939 0.38889 0.48999 0.0
C1056 C 0.13545 0.38018 0.47116 0.0
C1057 C 0.15155 0.38836 0.50301 0.0
C1058 C 0.15942 0.37859 0.49762 0.0
C1059 C 0.14367 0.37084 0.46565 0.0
C1060 C 0.15546 0.37003 0.47871 0.0
C1061 C 0.17224 0.37737 0.51079 0.0
H1062 H 0.25566 0.38958 0.49626 0.0
H1063 H 0.23405 0.39184 0.51765 0.0
H1064 H 0.2147 0.3564 0.45443 0.0
H1065 H 0.19326 0.35846 0.47579 0.0
H1066 H 0.22066 0.33883 0.54586 0.0
H1067 H 0.20348 0.34714 0.52508 0.0
H1068 H 0.23112 0.38023 0.58825 0.0
H1069 H 0.21383 0.38852 0.56729 0.0
H1070 H 0.11027 0.34712 0.54314 0.0
H1071 H 0.13563 0.35329 0.52251 0.0
H1072 H 0.14451 0.3797 0.5912 0.0
H1073 H 0.16983 0.38719 0.56954 0.0
H1074 H 0.1332 0.3962 0.49451 0.0
H1075 H 0.15474 0.39552 0.51721 0.0
H1076 H 0.14066 0.36379 0.45136 0.0
H1077 H 0.16132 0.36243 0.47408 0.0
N1078 N 0.18613 0.37781 0.5013 0.0
N1079 N 0.18281 0.37286 0.54201 0.0
C1080 C 0.00979 0.38617 0.07129 0.0
C1081 C -0.00347 0.37044 0.06309 0.0
C1082 C 0.00586 0.39565 0.08529 0.0
C1083 C 0.98823 0.38931 0.09111 0.0
C1084 C 0.97483 0.37318 0.08338 0.0
C1085 C 0.97915 0.36388 0.0695 0.0
C1086 C 0.02054 0.41274 0.09335 0.0
C1087 C 0.95588 0.36605 0.08919 0.0
C1088 C 0.98054 0.41003 0.13778 0.0
C1089 C 0.9782 0.42293 0.12887 0.0
C1090 C 0.9834 0.39866 0.12568 0.0
C1091 C 0.98379 0.40019 0.10421 0.0
C1092 C 0.98082 0.41281 0.09516 0.0
C1093 C 0.97812 0.42407 0.10761 0.0
C1094 C 0.98662 0.38543 0.13585 0.0
C1095 C 0.98094 0.41473 0.07232 0.0
H1096 H 0.02326 0.39123 0.06651 0.0
H1097 H 0.96884 0.35172 0.06322 0.0
H1098 H 0.01893 0.42359 0.0879 0.0
H1099 H 0.02008 0.41288 0.11023 0.0
H1100 H 0.03363 0.41524 0.08842 0.0
H1101 H 0.94719 0.35277 0.08297 0.0
H1102 H 0.95435 0.36561 0.10599 0.0
H1103 H 0.95144 0.3748 0.08335 0.0
H1104 H 0.98073 0.40922 0.15423 0.0
H1105 H 0.97608 0.43389 0.10071 0.0
H1106 H 0.00021 0.38853 0.13258 0.0
H1107 H 0.97768 0.37223 0.12965 0.0
H1108 H 0.98476 0.38514 0.15263 0.0
H1109 H 0.99415 0.41877 0.06614 0.0
H1110 H 0.97742 0.42452 0.06771 0.0
H1111 H 0.9716 0.40205 0.06521 0.0
C1112 C 0.60214 0.60026 0.06269 0.0
C1113 C 0.61852 0.60948 0.05297 0.0
C1114 C 0.59864 0.5874 0.07715 0.0
C1115 C 0.61184 0.5836 0.0821 0.0
C1116 C 0.62856 0.59312 0.07277 0.0
C1117 C 0.63171 0.60594 0.05826 0.0
C1118 C 0.58061 0.57755 0.08675 0.0
C1119 C 0.64296 0.58947 0.07776 0.0
C1120 C 0.60046 0.5572 0.13061 0.0
C1121 C 0.59115 0.54025 0.12275 0.0
C1122 C 0.60868 0.57163 0.11752 0.0
C1123 C 0.60751 0.56892 0.09617 0.0
C1124 C 0.59953 0.55176 0.08832 0.0
C1125 C 0.59143 0.53763 0.10173 0.0
C1126 C 0.61722 0.58972 0.12649 0.0
C1127 C 0.59812 0.54827 0.06569 0.0
H1128 H 0.59188 0.60292 0.05884 0.0
H1129 H 0.64443 0.61304 0.05091 0.0
H1130 H 0.57423 0.56355 0.08266 0.0
H1131 H 0.58163 0.5785 0.10358 0.0
H1132 H 0.57203 0.58253 0.08179 0.0
H1133 H 0.65563 0.59898 0.07051 0.0
H1134 H 0.64477 0.58982 0.09448 0.0
H1135 H 0.63926 0.57621 0.07246 0.0
H1136 H 0.60021 0.55925 0.14687 0.0
H1137 H 0.5844 0.52448 0.09568 0.0
H1138 H 0.60841 0.59504 0.12461 0.0
H1139 H 0.62969 0.59859 0.11846 0.0
H1140 H 0.61989 0.58974 0.14298 0.0
H1141 H 0.58841 0.55122 0.05921 0.0
H1142 H 0.59386 0.53448 0.06217 0.0
H1143 H 0.61084 0.5568 0.05797 0.0
C1144 C 0.39813 0.00438 0.04762 0.0
C1145 C 0.38316 0.00575 0.04971 0.0
C1146 C 0.40997 0.00889 0.06366 0.0
C1147 C 0.40645 0.0144 0.08246 0.0
C1148 C 0.39163 0.01638 0.08444 0.0
C1149 C 0.38024 0.01224 0.06788 0.0
C1150 C 0.42586 0.00705 0.06074 0.0
C1151 C 0.38724 0.02186 0.10436 0.0
C1152 C 0.42553 0.00321 0.12711 0.0
C1153 C 0.44066 0.01925 0.13136 0.0
C1154 C 0.4138 0.00173 0.11202 0.0
C1155 C 0.41746 0.01652 0.10039 0.0
C1156 C 0.43241 0.03284 0.10486 0.0
C1157 C 0.4437 0.03406 0.12046 0.0
C1158 C 0.39782 0.98412 0.10797 0.0
C1159 C 0.43689 0.04885 0.09259 0.0
H1160 H 0.40046 -0.00049 0.03348 0.0
H1161 H 0.36857 0.01317 0.06953 0.0
H1162 H 0.43783 0.01905 0.06584 0.0
H1163 H 0.42446 0.99613 0.07015 0.0
H1164 H 0.42771 0.00447 0.0446 0.0
H1165 H 0.37636 0.02453 0.10282 0.0
H1166 H 0.38333 0.01135 0.11574 0.0
H1167 H 0.39886 0.03367 0.11044 0.0
H1168 H 0.4231 0.99158 0.13505 0.0
H1169 H 0.4551 0.0466 0.12385 0.0
H1170 H 0.39925 0.97914 0.09299 0.0
H1171 H 0.38593 0.98523 0.10731 0.0
H1172 H 0.39579 0.97442 0.11981 0.0
H1173 H 0.44013 0.0471 0.07672 0.0
H1174 H 0.44821 0.06081 0.09896 0.0
H1175 H 0.42549 0.05075 0.09192 0.0
C1176 C 0.35851 0.97279 0.94157 0.0
C1177 C 0.36483 0.98986 0.94851 0.0
C1178 C 0.36795 0.96912 0.92711 0.0
C1179 C 0.384 0.98287 0.91941 0.0
C1180 C 0.38994 0.00022 0.92556 0.0
C1181 C 0.38029 0.00351 0.94007 0.0
C1182 C 0.36121 0.95046 0.92086 0.0
C1183 C 0.40694 0.01525 0.91758 0.0
C1184 C 0.42007 0.97426 0.90378 0.0
C1185 C 0.41949 0.97475 0.8825 0.0
C1186 C 0.40821 0.97635 0.91593 0.0
C1187 C 0.39549 0.97904 0.90655 0.0
C1188 C 0.39448 0.97902 0.88505 0.0
C1189 C 0.40651 0.97683 0.87325 0.0
C1190 C 0.40963 0.97617 0.93881 0.0
C1191 C 0.3811 0.98189 0.87456 0.0
H1192 H 0.34653 0.9622 0.94799 0.0
H1193 H 0.38514 0.01675 0.94523 0.0
H1194 H 0.36141 0.94935 0.90405 0.0
H1195 H 0.36989 0.94605 0.92706 0.0
H1196 H 0.34767 0.94157 0.9265 0.0
H1197 H 0.40888 0.02807 0.92243 0.0
H1198 H 0.41807 0.01413 0.92324 0.0
H1199 H 0.40733 0.01488 0.90071 0.0
H1200 H 0.42993 0.97236 0.91095 0.0
H1201 H 0.40612 0.97732 0.85679 0.0
H1202 H 0.39684 0.96645 0.94558 0.0
H1203 H 0.4131 0.9891 0.94513 0.0
H1204 H 0.41968 0.97305 0.94367 0.0
H1205 H 0.36778 0.97274 0.88055 0.0
H1206 H 0.38116 0.98017 0.8578 0.0
H1207 H 0.38385 0.99528 0.87777 0.0
C1208 C 0.02405 0.3861 0.94731 0.0
C1209 C 0.01595 0.38761 0.965 0.0
C1210 C 0.02843 0.39797 0.93115 0.0
C1211 C 0.02492 0.41175 0.93301 0.0
C1212 C 0.01777 0.41388 0.95142 0.0
C1213 C 0.01322 0.40169 0.96706 0.0
C1214 C 0.03586 0.39516 0.91169 0.0
C1215 C 0.01413 0.42857 0.95428 0.0
C1216 C 0.04347 0.45108 0.89806 0.0
C1217 C 0.02865 0.44726 0.88667 0.0
C1218 C 0.04283 0.4392 0.91251 0.0
C1219 C 0.02708 0.42308 0.91534 0.0
C1220 C 0.01248 0.41875 0.90285 0.0
C1221 C 0.0134 0.43097 0.88882 0.0
C1222 C 0.0586 0.4444 0.92566 0.0
C1223 C -0.00446 0.4016 0.9051 0.0
H1224 H 0.02607 0.37515 0.94565 0.0
H1225 H 0.00711 0.40298 0.98083 0.0
H1226 H 0.02583 0.39065 0.89958 0.0
H1227 H 0.04734 0.40754 0.90643 0.0
H1228 H 0.03985 0.38529 0.91352 0.0
H1229 H 0.01018 0.42938 0.97016 0.0
H1230 H 0.02589 0.44121 0.95025 0.0
H1231 H 0.00344 0.42663 0.94397 0.0
H1232 H 0.05525 0.46373 0.89644 0.0
H1233 H 0.00201 0.42797 0.87983 0.0
H1234 H 0.06134 0.43361 0.92672 0.0
H1235 H 0.05589 0.44721 0.94132 0.0
H1236 H 0.07047 0.45617 0.91975 0.0
H1237 H -0.0019 0.39066 0.90532 0.0
H1238 H 0.98626 0.39935 0.89261 0.0
H1239 H 0.98915 0.40142 0.91978 0.0
C1240 C 0.59992 0.61111 0.94476 0.0
C1241 C 0.60442 0.62747 0.95277 0.0
C1242 C 0.58684 0.60303 0.93001 0.0
C1243 C 0.57811 0.61157 0.92299 0.0
C1244 C 0.58276 0.6282 0.93079 0.0
C1245 C 0.59584 0.63594 0.94564 0.0
C1246 C 0.58221 0.58525 0.92212 0.0
C1247 C 0.57381 0.63773 0.92357 0.0
C1248 C 0.55453 0.5954 0.8726 0.0
C1249 C 0.53726 0.58405 0.87908 0.0
C1250 C 0.56789 0.60488 0.88671 0.0
C1251 C 0.56389 0.60285 0.90779 0.0
C1252 C 0.5464 0.59175 0.91439 0.0
C1253 C 0.53328 0.58252 0.89995 0.0
C1254 C 0.58635 0.61672 0.87908 0.0
C1255 C 0.54163 0.58917 0.93674 0.0
H1256 H 0.6065 0.60448 0.95018 0.0
H1257 H 0.59928 0.64861 0.95173 0.0
H1258 H 0.56824 0.57574 0.92547 0.0
H1259 H 0.58392 0.58565 0.90534 0.0
H1260 H 0.59037 0.58046 0.92898 0.0
H1261 H 0.5793 0.6508 0.9307 0.0
H1262 H 0.57511 0.63931 0.9068 0.0
H1263 H 0.55961 0.63 0.92719 0.0
H1264 H 0.55761 0.59676 0.85646 0.0
H1265 H 0.52 0.5736 0.90504 0.0
H1266 H 0.59489 0.61176 0.88419 0.0
H1267 H 0.59171 0.62997 0.88558 0.0
H1268 H 0.58709 0.61769 0.86221 0.0
H1269 H 0.54829 0.58302 0.94423 0.0
H1270 H 0.52729 0.58081 0.93932 0.0
H1271 H 0.5462 0.60192 0.94429 0.0
C1272 C 0.99087 0.60746 0.95087 0.0
C1273 C 0.00246 0.62349 0.96002 0.0
C1274 C -0.00341 0.60031 0.93576 0.0
C1275 C 0.0144 0.60936 0.92966 0.0
C1276 C 0.02608 0.62585 0.93826 0.0
C1277 C 0.01995 0.63277 0.95334 0.0
C1278 C 0.98367 0.58275 0.92686 0.0
C1279 C 0.04516 0.63585 0.93212 0.0
C1280 C 0.02862 0.57849 0.91004 0.0
C1281 C 0.02675 0.57924 0.88898 0.0
C1282 C 0.02577 0.58913 0.9234 0.0
C1283 C 0.02084 0.60072 0.9155 0.0
C1284 C 0.02 0.60231 0.89415 0.0
C1285 C 0.02302 0.59154 0.8811 0.0
C1286 C 0.02698 0.58715 0.94604 0.0
C1287 C 0.01477 0.61451 0.88515 0.0
H1288 H 0.97728 0.60028 0.95575 0.0
H1289 H 0.02899 0.64518 0.9603 0.0
H1290 H 0.98392 0.58344 0.91 0.0
H1291 H 0.98739 0.57306 0.93113 0.0
H1292 H 0.97006 0.57797 0.93225 0.0
H1293 H 0.05211 0.6492 0.93866 0.0
H1294 H 0.0517 0.62881 0.93742 0.0
H1295 H 0.04651 0.63678 0.9153 0.0
H1296 H 0.03177 0.56915 0.91611 0.0
H1297 H 0.02153 0.59209 0.86481 0.0
H1298 H 0.01368 0.58091 0.95294 0.0
H1299 H 0.03493 0.60009 0.95335 0.0
H1300 H 0.03285 0.57906 0.9496 0.0
H1301 H 0.00062 0.60931 0.88802 0.0
H1302 H 0.01718 0.61608 0.86846 0.0
H1303 H 0.02204 0.62751 0.89248 0.0
C1304 C 0.35805 0.39805 0.94738 0.0
C1305 C 0.36746 0.39017 0.95362 0.0
C1306 C 0.36482 0.41107 0.9324 0.0
C1307 C 0.38139 0.41633 0.92358 0.0
C1308 C 0.39087 0.40832 0.9297 0.0
C1309 C 0.38376 0.39529 0.94461 0.0
C1310 C 0.35432 0.41928 0.92614 0.0
C1311 C 0.40862 0.41363 0.92067 0.0
C1312 C 0.39546 0.43957 0.87277 0.0
C1313 C 0.40691 0.4568 0.87889 0.0
C1314 C 0.38647 0.42633 0.88718 0.0
C1315 C 0.38908 0.43045 0.90817 0.0
C1316 C 0.40008 0.44794 0.91443 0.0
C1317 C 0.40885 0.46092 0.8997 0.0
C1318 C 0.37471 0.40786 0.87994 0.0
C1319 C 0.40324 0.45282 0.93668 0.0
H1320 H 0.34542 0.39411 0.95426 0.0
H1321 H 0.3911 0.38925 0.94936 0.0
H1322 H 0.36175 0.43343 0.92956 0.0
H1323 H 0.35208 0.41787 0.90948 0.0
H1324 H 0.34143 0.41337 0.93407 0.0
H1325 H 0.41422 0.40599 0.92696 0.0
H1326 H 0.40763 0.41186 0.90391 0.0
H1327 H 0.41787 0.42765 0.92369 0.0
H1328 H 0.39379 0.43639 0.85669 0.0
H1329 H 0.41784 0.47418 0.9045 0.0
H1330 H 0.36167 0.40209 0.88742 0.0
H1331 H 0.38043 0.39979 0.88421 0.0
H1332 H 0.37292 0.40707 0.86317 0.0
H1333 H 0.39061 0.44767 0.94497 0.0
H1334 H 0.41109 0.46714 0.93901 0.0
H1335 H 0.41031 0.44686 0.94361 0.0
C1336 C 0.59925 0.99053 0.96653 0.0
C1337 C 0.61314 0.98732 0.96528 0.0
C1338 C 0.58706 0.98557 0.95083 0.0
C1339 C 0.58898 0.97748 0.93318 0.0
C1340 C 0.60269 0.97372 0.93203 0.0
C1341 C 0.61455 0.97854 0.94825 0.0
C1342 C 0.57245 0.98951 0.95288 0.0
C1343 C 0.60527 0.96533 0.91334 0.0
C1344 C 0.54879 0.95682 0.89955 0.0
C1345 C 0.55236 0.9708 0.88682 0.0
C1346 C 0.56104 0.95839 0.91406 0.0
C1347 C 0.57728 0.97421 0.91556 0.0
C1348 C 0.58136 0.98789 0.90171 0.0
C1349 C 0.56876 0.98608 0.88765 0.0
C1350 C 0.55612 0.9436 0.92868 0.0
C1351 C 0.59862 0.00485 0.90254 0.0
H1352 H 0.59798 0.99711 0.97982 0.0
H1353 H 0.62531 0.9761 0.94722 0.0
H1354 H 0.57425 -0.00061 0.94144 0.0
H1355 H 0.55963 0.97762 0.94989 0.0
H1356 H 0.57196 0.99455 0.96825 0.0
H1357 H 0.61548 0.9618 0.91557 0.0
H1358 H 0.59283 0.95344 0.90914 0.0
H1359 H 0.60924 0.97446 0.90031 0.0
H1360 H 0.53605 0.94503 0.89891 0.0
H1361 H 0.57153 0.99681 0.87762 0.0
H1362 H 0.55365 0.94728 0.94399 0.0
H1363 H 0.56699 0.94095 0.93017 0.0
H1364 H 0.54416 0.93144 0.92382 0.0
H1365 H 0.59904 0.01215 0.91648 0.0
H1366 H 0.60066 0.0132 0.88912 0.0
H1367 H 0.60965 0.00236 0.90334 0.0
C1368 C 0.60744 -0.00181 0.05878 0.0
C1369 C 0.62432 0.00189 0.06364 0.0
C1370 C 0.5972 0.00099 0.07295 0.0
C1371 C 0.60377 0.00698 0.09275 0.0
C1372 C 0.62081 0.0106 0.0978 0.0
C1373 C 0.63105 0.00834 0.08299 0.0
C1374 C 0.57938 -0.00245 0.06671 0.0
C1375 C 0.628 0.0164 0.11895 0.0
C1376 C 0.58207 0.02683 0.12419 0.0
C1377 C 0.56906 0.01229 0.13487 0.0
C1378 C 0.59356 0.02535 0.11059 0.0
C1379 C 0.59257 0.0091 0.10816 0.0
C1380 C 0.58009 0.99457 0.11953 0.0
C1381 C 0.56828 0.99623 0.13238 0.0
C1382 C 0.60639 0.04106 0.09832 0.0
C1383 C 0.5789 0.9771 0.11777 0.0
H1384 H 0.60234 0.99337 0.04369 0.0
H1385 H 0.6441 0.01109 0.08671 0.0
H1386 H 0.56905 0.98675 0.07589 0.0
H1387 H 0.57832 0.00925 0.06969 0.0
H1388 H 0.57672 0.99406 0.05034 0.0
H1389 H 0.64144 0.0186 0.12044 0.0
H1390 H 0.62826 0.02862 0.12299 0.0
H1391 H 0.61932 0.00639 0.13018 0.0
H1392 H 0.58324 0.03943 0.12628 0.0
H1393 H 0.55819 0.98475 0.14009 0.0
H1394 H 0.6037 0.03824 0.08184 0.0
H1395 H 0.61995 0.04399 0.10092 0.0
H1396 H 0.60565 0.05282 0.10215 0.0
H1397 H 0.57407 0.97148 0.10246 0.0
H1398 H 0.56994 0.9677 0.12937 0.0
H1399 H 0.59205 0.97865 0.11951 0.0
C1400 C 0.97192 0.61217 0.07037 0.0
C1401 C 0.98903 0.62315 0.06314 0.0
C1402 C 0.9683 0.59908 0.08465 0.0
C1403 C 0.98213 0.59707 0.0919 0.0
C1404 C -0.00048 0.60861 0.0853 0.0
C1405 C 0.00274 0.62147 0.07094 0.0
C1406 C 0.9496 0.58698 0.09132 0.0
C1407 C 0.01465 0.60697 0.09282 0.0
C1408 C 0.97693 0.57012 0.13878 0.0
C1409 C 0.97479 0.55481 0.12993 0.0
C1410 C 0.97881 0.58386 0.12661 0.0
C1411 C 0.97841 0.58213 0.10515 0.0
C1412 C 0.97556 0.56642 0.0962 0.0
C1413 C 0.97384 0.55297 0.10871 0.0
C1414 C 0.98191 0.60045 0.13668 0.0
C1415 C 0.97488 0.56401 0.07338 0.0
H1416 H 0.96127 0.61342 0.0644 0.0
H1417 H 0.01601 0.63002 0.06554 0.0
H1418 H 0.94512 0.57364 0.08555 0.0
H1419 H 0.94865 0.58622 0.10817 0.0
H1420 H 0.94058 0.59118 0.08561 0.0
H1421 H 0.0275 0.61778 0.08738 0.0
H1422 H 0.01468 0.60681 0.1097 0.0
H1423 H 0.01318 0.59447 0.08745 0.0
H1424 H 0.97777 0.57158 0.1552 0.0
H1425 H 0.97193 0.54104 0.10186 0.0
H1426 H 0.97263 0.60421 0.13077 0.0
H1427 H 0.99533 0.6112 0.13298 0.0
H1428 H 0.98046 0.5992 0.1535 0.0
H1429 H 0.96513 0.56681 0.06676 0.0
H1430 H 0.97145 0.55061 0.06891 0.0
H1431 H 0.98781 0.57334 0.06656 0.0
C1432 C 0.39339 0.36484 0.05795 0.0
C1433 C 0.38911 0.37747 0.05278 0.0
C1434 C 0.40649 0.36847 0.07229 0.0
C1435 C 0.41551 0.38511 0.08157 0.0
C1436 C 0.41101 0.39777 0.07667 0.0
C1437 C 0.3979 0.3938 0.06238 0.0
C1438 C 0.41091 0.35465 0.07724 0.0
C1439 C 0.42032 0.4157 0.08621 0.0
C1440 C 0.44181 0.3971 0.1301 0.0
C1441 C 0.45887 0.40695 0.12228 0.0
C1442 C 0.42744 0.38853 0.11698 0.0
C1443 C 0.43031 0.38991 0.09564 0.0
C1444 C 0.44763 0.39848 0.08782 0.0
C1445 C 0.46171 0.40692 0.10126 0.0
C1446 C 0.40918 0.37937 0.12592 0.0
C1447 C 0.45129 0.40014 0.0652 0.0
H1448 H 0.38663 0.35217 0.05068 0.0
H1449 H 0.39466 0.40363 0.05859 0.0
H1450 H 0.42446 0.35897 0.0721 0.0
H1451 H 0.41041 0.35267 0.09394 0.0
H1452 H 0.40186 0.34199 0.06983 0.0
H1453 H 0.41487 0.42385 0.08123 0.0
H1454 H 0.41933 0.41463 0.10305 0.0
H1455 H 0.43444 0.42251 0.08211 0.0
H1456 H 0.4396 0.39714 0.14636 0.0
H1457 H 0.47494 0.41435 0.09524 0.0
H1458 H 0.4007 0.36689 0.11791 0.0
H1459 H 0.40331 0.38767 0.12397 0.0
H1460 H 0.40919 0.37673 0.14242 0.0
H1461 H 0.44313 0.38745 0.05746 0.0
H1462 H 0.46529 0.40489 0.0617 0.0
H1463 H 0.44789 0.40948 0.05872 0.0
C1464 C 0.65461 0.71852 0.3897 0.0
C1465 C 0.65088 0.70154 0.39352 0.0
C1466 C 0.65117 0.72785 0.40446 0.0
C1467 C 0.64453 0.72025 0.42377 0.0
C1468 C 0.64095 0.70314 0.42777 0.0
C1469 C 0.64382 0.69383 0.41239 0.0
C1470 C 0.65457 0.7458 0.39935 0.0
C1471 C 0.63452 0.69487 0.44841 0.0
C1472 C 0.65364 0.75283 0.46614 0.0
C1473 C 0.63724 0.75148 0.46889 0.0
C1474 C 0.65596 0.7422 0.45217 0.0
C1475 C 0.64179 0.73043 0.43989 0.0
C1476 C 0.62523 0.72896 0.44244 0.0
C1477 C 0.62307 0.7392 0.45719 0.0
C1478 C 0.67371 0.7438 0.45032 0.0
C1479 C 0.60992 0.71691 0.42922 0.0
H1480 H 0.6599 0.72437 0.37498 0.0
H1481 H 0.64105 0.68071 0.4153 0.0
H1482 H 0.64262 0.74652 0.40233 0.0
H1483 H 0.66506 0.75565 0.4092 0.0
H1484 H 0.65857 0.74931 0.38319 0.0
H1485 H 0.63255 0.68154 0.4491 0.0
H1486 H 0.64411 0.70304 0.46023 0.0
H1487 H 0.62197 0.69412 0.4523 0.0
H1488 H 0.66487 0.76245 0.47458 0.0
H1489 H 0.61022 0.73761 0.45938 0.0
H1490 H 0.67969 0.74948 0.43534 0.0
H1491 H 0.67235 0.73074 0.45112 0.0
H1492 H 0.6828 0.75216 0.46245 0.0
H1493 H 0.61333 0.72047 0.41297 0.0
H1494 H 0.59795 0.71742 0.43297 0.0
H1495 H 0.6069 0.7033 0.43095 0.0
C1496 C 0.26619 0.94251 0.40739 0.0
C1497 C 0.28265 0.95 0.39779 0.0
C1498 C 0.26123 0.9297 0.42238 0.0
C1499 C 0.27299 0.92417 0.42798 0.0
C1500 C 0.28972 0.9318 0.4186 0.0
C1501 C 0.29437 0.94465 0.40361 0.0
C1502 C 0.24326 0.92191 0.43202 0.0
C1503 C 0.30259 0.92622 0.4242 0.0
C1504 C 0.26194 0.90029 0.47849 0.0
C1505 C 0.25202 0.88286 0.47216 0.0
C1506 C 0.26965 0.91389 0.46425 0.0
C1507 C 0.26735 0.90997 0.44318 0.0
C1508 C 0.25808 0.89238 0.43671 0.0
C1509 C 0.25051 0.87905 0.45126 0.0
C1510 C 0.27952 0.93248 0.47176 0.0
C1511 C 0.25532 0.88764 0.41439 0.0
H1512 H 0.25703 0.94656 0.4031 0.0
H1513 H 0.30712 0.95036 0.39631 0.0
H1514 H 0.23558 0.90772 0.42882 0.0
H1515 H 0.24441 0.92354 0.4488 0.0
H1516 H 0.23584 0.92796 0.42633 0.0
H1517 H 0.31534 0.93392 0.41613 0.0
H1518 H 0.30495 0.92763 0.44085 0.0
H1519 H 0.29706 0.91225 0.42041 0.0
H1520 H 0.26338 0.90332 0.49462 0.0
H1521 H 0.24269 0.86566 0.4462 0.0
H1522 H 0.27201 0.93896 0.46818 0.0
H1523 H 0.29238 0.93986 0.46389 0.0
H1524 H 0.28172 0.93329 0.48845 0.0
H1525 H 0.24653 0.89177 0.40784 0.0
H1526 H 0.24939 0.87341 0.41184 0.0
H1527 H 0.26793 0.89457 0.40594 0.0
C1528 C 0.06266 0.33603 0.3936 0.0
C1529 C 0.0551 0.34459 0.38399 0.0
C1530 C 0.07542 0.34435 0.40859 0.0
C1531 C 0.08084 0.36172 0.41419 0.0
C1532 C 0.07313 0.37041 0.40482 0.0
C1533 C 0.06033 0.36174 0.3898 0.0
C1534 C 0.0833 0.33458 0.41822 0.0
C1535 C 0.0786 0.38893 0.41043 0.0
C1536 C 0.10499 0.37341 0.46424 0.0
C1537 C 0.12219 0.37978 0.45736 0.0
C1538 C 0.09138 0.36883 0.45034 0.0
C1539 C 0.09519 0.37076 0.42918 0.0
C1540 C 0.11279 0.3788 0.42239 0.0
C1541 C 0.12608 0.38316 0.43658 0.0
C1542 C 0.0728 0.36043 0.4582 0.0
C1543 C 0.11746 0.38128 0.40001 0.0
H1544 H 0.05868 0.32277 0.38934 0.0
H1545 H 0.05454 0.36845 0.38251 0.0
H1546 H 0.09756 0.34135 0.4149 0.0
H1547 H 0.08167 0.3343 0.435 0.0
H1548 H 0.07725 0.32096 0.4126 0.0
H1549 H 0.07062 0.3935 0.40263 0.0
H1550 H 0.07742 0.39008 0.42712 0.0
H1551 H 0.09256 0.39771 0.40627 0.0
H1552 H 0.10198 0.37076 0.48031 0.0
H1553 H 0.13945 0.38829 0.43132 0.0
H1554 H 0.06611 0.34617 0.45558 0.0
H1555 H 0.06537 0.36539 0.44995 0.0
H1556 H 0.0723 0.36276 0.47476 0.0
H1557 H 0.11358 0.36847 0.39299 0.0
H1558 H 0.13173 0.39011 0.39744 0.0
H1559 H 0.11028 0.38665 0.39206 0.0
C1560 C 0.03429 0.29924 0.28785 0.0
C1561 C 0.03154 0.31291 0.2831 0.0
C1562 C 0.04266 0.29383 0.27391 0.0
C1563 C 0.04765 0.30184 0.25453 0.0
C1564 C 0.04375 0.31485 0.24922 0.0
C1565 C 0.03612 0.32056 0.26381 0.0
C1566 C 0.0472 0.28041 0.28046 0.0
C1567 C 0.0482 0.32317 0.22842 0.0
C1568 C 0.08786 0.3052 0.22961 0.0
C1569 C 0.08067 0.29045 0.2169 0.0
C1570 C 0.07724 0.30889 0.24199 0.0
C1571 C 0.05884 0.29816 0.24089 0.0
C1572 C 0.05136 0.28383 0.22731 0.0
C1573 C 0.06236 0.27993 0.21576 0.0
C1574 C 0.08579 0.3241 0.25661 0.0
C1575 C 0.03176 0.27254 0.22513 0.0
H1576 H 0.03079 0.29345 0.30289 0.0
H1577 H 0.03378 0.33104 0.26018 0.0
H1578 H 0.04247 0.2697 0.26916 0.0
H1579 H 0.06165 0.28654 0.28125 0.0
H1580 H 0.04152 0.27476 0.2956 0.0
H1581 H 0.04173 0.33084 0.22561 0.0
H1582 H 0.06256 0.33203 0.22702 0.0
H1583 H 0.04421 0.31309 0.21637 0.0
H1584 H 0.1019 0.31392 0.23008 0.0
H1585 H 0.05656 0.26846 0.20613 0.0
H1586 H 0.0811 0.31961 0.27236 0.0
H1587 H 0.08214 0.33391 0.25275 0.0
H1588 H 0.1003 0.33057 0.25635 0.0
H1589 H 0.02598 0.26507 0.23934 0.0
H1590 H 0.02808 0.26318 0.21228 0.0
H1591 H 0.02586 0.28076 0.22269 0.0
C1592 C 0.68692 0.71855 0.28697 0.0
C1593 C 0.66937 0.71146 0.29305 0.0
C1594 C 0.69454 0.73192 0.27239 0.0
C1595 C 0.68436 0.7383 0.26369 0.0
C1596 C 0.66648 0.73073 0.2692 0.0
C1597 C 0.65923 0.71744 0.28379 0.0
C1598 C 0.71363 0.73965 0.26686 0.0
C1599 C 0.65513 0.73709 0.26021 0.0
C1600 C 0.7041 0.78473 0.24527 0.0
C1601 C 0.70275 0.78248 0.22409 0.0
C1602 C 0.69908 0.77056 0.25831 0.0
C1603 C 0.6925 0.7537 0.24997 0.0
C1604 C 0.69209 0.7515 0.22856 0.0
C1605 C 0.69726 0.76596 0.21584 0.0
C1606 C 0.6999 0.77351 0.28104 0.0
C1607 C 0.6852 0.73375 0.21909 0.0
H1608 H 0.69486 0.714 0.29399 0.0
H1609 H 0.64563 0.71198 0.28824 0.0
H1610 H 0.71533 0.74006 0.25008 0.0
H1611 H 0.72118 0.75326 0.27249 0.0
H1612 H 0.71929 0.73218 0.27349 0.0
H1613 H 0.64123 0.72912 0.26515 0.0
H1614 H 0.66011 0.75079 0.26488 0.0
H1615 H 0.6557 0.73683 0.24334 0.0
H1616 H 0.7086 0.79755 0.25167 0.0
H1617 H 0.69613 0.76416 0.19947 0.0
H1618 H 0.70658 0.76737 0.28848 0.0
H1619 H 0.68642 0.76732 0.28741 0.0
H1620 H 0.70689 0.78757 0.28504 0.0
H1621 H 0.69114 0.72681 0.22638 0.0
H1622 H 0.68786 0.73454 0.20245 0.0
H1623 H 0.67084 0.72581 0.22159 0.0
C1624 C 0.26515 0.97548 0.28953 0.0
C1625 C 0.27396 0.9672 0.29654 0.0
C1626 C 0.25228 0.96777 0.27444 0.0
C1627 C 0.2482 0.95144 0.2662 0.0
C1628 C 0.25737 0.94324 0.27286 0.0
C1629 C 0.27012 0.95122 0.28796 0.0
C1630 C 0.24276 0.97687 0.26771 0.0
C1631 C 0.2534 0.92582 0.2644 0.0
C1632 C 0.20331 0.92026 0.24502 0.0
C1633 C 0.20667 0.92165 0.22401 0.0
C1634 C 0.21656 0.93045 0.25888 0.0
C1635 C 0.23362 0.9423 0.25154 0.0
C1636 C 0.2369 0.94436 0.2303 0.0
C1637 C 0.22334 0.93401 0.21674 0.0
C1638 C 0.21249 0.92798 0.28141 0.0
C1639 C 0.25492 0.95687 0.22193 0.0
H1640 H 0.26809 0.98787 0.29605 0.0
H1641 H 0.27695 0.9448 0.29323 0.0
H1642 H 0.24341 0.9782 0.2509 0.0
H1643 H 0.22872 0.96895 0.27203 0.0
H1644 H 0.24825 0.99001 0.27465 0.0
H1645 H 0.26232 0.92163 0.27043 0.0
H1646 H 0.23973 0.91575 0.2683 0.0
H1647 H 0.25452 0.92642 0.24755 0.0
H1648 H 0.19034 0.91088 0.25063 0.0
H1649 H 0.22597 0.93502 0.2005 0.0
H1650 H 0.21683 0.94072 0.28888 0.0
H1651 H 0.21976 0.92231 0.28851 0.0
H1652 H 0.19829 0.91923 0.28455 0.0
H1653 H 0.26017 0.96992 0.22895 0.0
H1654 H 0.25491 0.95818 0.20512 0.0
H1655 H 0.26399 0.95221 0.22581 0.0
C1656 C 0.66646 0.93491 0.2847 0.0
C1657 C 0.67516 0.9515 0.29367 0.0
C1658 C 0.67455 0.93024 0.2696 0.0
C1659 C 0.69184 0.94242 0.26326 0.0
C1660 C 0.70058 0.95936 0.2718 0.0
C1661 C 0.69212 0.96373 0.28692 0.0
C1662 C 0.66471 0.91203 0.26082 0.0
C1663 C 0.71901 0.97268 0.26538 0.0
C1664 C 0.71375 0.9187 0.24256 0.0
C1665 C 0.71023 0.91811 0.22174 0.0
C1666 C 0.70924 0.92798 0.25614 0.0
C1667 C 0.70089 0.93675 0.24869 0.0
C1668 C 0.69872 0.93745 0.22744 0.0
C1669 C 0.70348 0.92811 0.21415 0.0
C1670 C 0.71198 0.92706 0.27865 0.0
C1671 C 0.68997 0.94675 0.21888 0.0
H1672 H 0.65331 0.92541 0.28965 0.0
H1673 H 0.69893 0.97659 0.29373 0.0
H1674 H 0.66432 0.91259 0.24398 0.0
H1675 H 0.67159 0.90495 0.26463 0.0
H1676 H 0.65106 0.90442 0.2667 0.0
H1677 H 0.72333 0.98574 0.27198 0.0
H1678 H 0.72815 0.96842 0.2704 0.0
H1679 H 0.72001 0.97378 0.24855 0.0
H1680 H 0.71919 0.91111 0.24836 0.0
H1681 H 0.70074 0.92762 0.19804 0.0
H1682 H 0.69919 0.91826 0.28611 0.0
H1683 H 0.71746 0.94008 0.28582 0.0
H1684 H 0.72091 0.92202 0.28166 0.0
H1685 H 0.67567 0.93886 0.22183 0.0
H1686 H 0.69213 0.94878 0.2022 0.0
H1687 H 0.69486 0.95956 0.22642 0.0
C1688 C 0.02476 0.72763 0.28489 0.0
C1689 C 0.03507 0.72063 0.29079 0.0
C1690 C 0.03062 0.74054 0.26982 0.0
C1691 C 0.04719 0.74658 0.26054 0.0
C1692 C 0.05737 0.73913 0.26597 0.0
C1693 C 0.05118 0.72624 0.28101 0.0
C1694 C 0.01939 0.74813 0.26432 0.0
C1695 C 0.07512 0.74522 0.25642 0.0
C1696 C 0.06276 0.77312 0.21197 0.0
C1697 C 0.07438 0.7897 0.21981 0.0
C1698 C 0.05286 0.759 0.22509 0.0
C1699 C 0.0547 0.76165 0.24643 0.0
C1700 C 0.06546 0.77864 0.25431 0.0
C1701 C 0.07517 0.79245 0.24089 0.0
C1702 C 0.0414 0.7411 0.21614 0.0
C1703 C 0.06768 0.78205 0.27695 0.0
H1704 H 0.01223 0.72327 0.29231 0.0
H1705 H 0.05916 0.7208 0.2854 0.0
H1706 H 0.02579 0.76186 0.26953 0.0
H1707 H 0.01799 0.74815 0.24756 0.0
H1708 H 0.00614 0.74081 0.27137 0.0
H1709 H 0.08092 0.7374 0.26146 0.0
H1710 H 0.0741 0.74448 0.23959 0.0
H1711 H 0.08422 0.75905 0.26051 0.0
H1712 H 0.06217 0.77099 0.19566 0.0
H1713 H 0.08399 0.80535 0.24691 0.0
H1714 H 0.02847 0.73431 0.22395 0.0
H1715 H 0.04765 0.73318 0.21842 0.0
H1716 H 0.03933 0.74163 0.19957 0.0
H1717 H 0.05474 0.77605 0.28469 0.0
H1718 H 0.07506 0.79619 0.28056 0.0
H1719 H 0.07486 0.77602 0.28337 0.0
C1720 C 0.27461 0.30211 0.28968 0.0
C1721 C 0.28066 0.31965 0.29437 0.0
C1722 C 0.26095 0.29299 0.27568 0.0
C1723 C 0.25322 0.30163 0.2662 0.0
C1724 C 0.25959 0.31943 0.27051 0.0
C1725 C 0.27318 0.32817 0.28449 0.0
C1726 C 0.25452 0.27404 0.27141 0.0
C1727 C 0.25176 0.32918 0.26071 0.0
C1728 C 0.22588 0.28702 0.21826 0.0
C1729 C 0.20911 0.28126 0.22631 0.0
C1730 C 0.24032 0.29249 0.23115 0.0
C1731 C 0.23787 0.29213 0.25253 0.0
C1732 C 0.22074 0.28497 0.26068 0.0
C1733 C 0.20658 0.27965 0.24747 0.0
C1734 C 0.25835 0.29993 0.22184 0.0
C1735 C 0.2175 0.2842 0.28336 0.0
H1736 H 0.28032 0.29541 0.29719 0.0
H1737 H 0.2778 0.34174 0.28785 0.0
H1738 H 0.24087 0.26592 0.27706 0.0
H1739 H 0.25437 0.27177 0.25476 0.0
H1740 H 0.26276 0.26957 0.27878 0.0
H1741 H 0.25866 0.34315 0.26513 0.0
H1742 H 0.25229 0.3283 0.24389 0.0
H1743 H 0.23778 0.32318 0.2652 0.0
H1744 H 0.22791 0.28834 0.20192 0.0
H1745 H 0.19358 0.27494 0.25373 0.0
H1746 H 0.26595 0.29506 0.22987 0.0
H1747 H 0.26557 0.31432 0.22343 0.0
H1748 H 0.25778 0.29667 0.2054 0.0
H1749 H 0.22466 0.27877 0.29127 0.0
H1750 H 0.20336 0.27616 0.28726 0.0
H1751 H 0.22247 0.29757 0.28931 0.0
C1752 C 0.30635 0.3663 0.3996 0.0
C1753 C 0.29849 0.34896 0.39295 0.0
C1754 C 0.2979 0.37145 0.41381 0.0
C1755 C 0.28121 0.35895 0.4215 0.0
C1756 C 0.27343 0.34134 0.41525 0.0
C1757 C 0.28217 0.33656 0.40106 0.0
C1758 C 0.30661 0.39033 0.42015 0.0
C1759 C 0.25564 0.32762 0.42312 0.0
C1760 C 0.26167 0.36724 0.46902 0.0
C1761 C 0.24965 0.37118 0.46054 0.0
C1762 C 0.27252 0.3638 0.45651 0.0
C1763 C 0.27129 0.36436 0.43507 0.0
C1764 C 0.25971 0.36906 0.42649 0.0
C1765 C 0.24905 0.37242 0.43933 0.0
C1766 C 0.28475 0.35888 0.4662 0.0
C1767 C 0.25809 0.36992 0.40372 0.0
H1768 H 0.31899 0.37594 0.39345 0.0
H1769 H 0.27604 0.32312 0.39608 0.0
H1770 H 0.29876 0.39601 0.41482 0.0
H1771 H 0.3072 0.39143 0.43699 0.0
H1772 H 0.3201 0.39818 0.41386 0.0
H1773 H 0.25183 0.31437 0.41758 0.0
H1774 H 0.25553 0.32754 0.44001 0.0
H1775 H 0.2456 0.3307 0.41819 0.0
H1776 H 0.2621 0.36616 0.4854 0.0
H1777 H 0.23998 0.37575 0.43273 0.0
H1778 H 0.29817 0.36691 0.45986 0.0
H1779 H 0.28033 0.34508 0.46268 0.0
H1780 H 0.28528 0.36054 0.48301 0.0
H1781 H 0.27115 0.37855 0.39675 0.0
H1782 H 0.24924 0.37479 0.39952 0.0
H1783 H 0.25291 0.35676 0.397 0.0
C1784 C 0.63605 0.93574 0.40482 0.0
C1785 C 0.65301 0.94557 0.39666 0.0
C1786 C 0.63218 0.92321 0.41993 0.0
C1787 C 0.6456 0.92045 0.42699 0.0
C1788 C 0.66282 0.9306 0.41913 0.0
C1789 C 0.66632 0.94306 0.40407 0.0
C1790 C 0.61367 0.91266 0.42801 0.0
C1791 C 0.67748 0.92803 0.42628 0.0
C1792 C 0.64041 0.89693 0.47686 0.0
C1793 C 0.63578 0.8802 0.47001 0.0
C1794 C 0.64327 0.91009 0.46306 0.0
C1795 C 0.64153 0.90643 0.44193 0.0
C1796 C 0.63653 0.88948 0.43496 0.0
C1797 C 0.63372 0.87658 0.44909 0.0
C1798 C 0.64847 0.92798 0.47106 0.0
C1799 C 0.6346 0.88509 0.41254 0.0
H1800 H 0.6257 0.93765 0.3992 0.0
H1801 H 0.67947 0.95064 0.39788 0.0
H1802 H 0.60819 0.89872 0.42408 0.0
H1803 H 0.61357 0.91358 0.44486 0.0
H1804 H 0.60497 0.91702 0.42172 0.0
H1805 H 0.69027 0.93744 0.41921 0.0
H1806 H 0.67873 0.92948 0.44307 0.0
H1807 H 0.67444 0.91464 0.42252 0.0
H1808 H 0.64182 0.89973 0.49304 0.0
H1809 H 0.63039 0.86375 0.44368 0.0
H1810 H 0.63935 0.93203 0.46536 0.0
H1811 H 0.66176 0.93761 0.46539 0.0
H1812 H 0.6485 0.92849 0.48796 0.0
H1813 H 0.62524 0.88828 0.40559 0.0
H1814 H 0.62995 0.87111 0.40968 0.0
H1815 H 0.64739 0.89306 0.40468 0.0
C1816 C 0.06563 0.70349 0.39705 0.0
C1817 C 0.05881 0.71415 0.39202 0.0
C1818 C 0.07885 0.7088 0.4117 0.0
C1819 C 0.08536 0.7251 0.42151 0.0
C1820 C 0.0783 0.73574 0.41676 0.0
C1821 C 0.06516 0.73015 0.40209 0.0
C1822 C 0.08608 0.69713 0.41641 0.0
C1823 C 0.08485 0.75322 0.42691 0.0
C1824 C 0.11051 0.73804 0.47104 0.0
C1825 C 0.1275 0.74974 0.46404 0.0
C1826 C 0.09673 0.72895 0.45728 0.0
C1827 C 0.1001 0.73163 0.43609 0.0
C1828 C 0.11747 0.74246 0.42898 0.0
C1829 C 0.13096 0.75141 0.44305 0.0
C1830 C 0.07839 0.71747 0.46546 0.0
C1831 C 0.12166 0.74556 0.40652 0.0
H1832 H 0.06079 0.69109 0.3894 0.0
H1833 H 0.05994 0.73845 0.39843 0.0
H1834 H 0.10011 0.7037 0.41195 0.0
H1835 H 0.08532 0.69464 0.43302 0.0
H1836 H 0.07896 0.68445 0.4083 0.0
H1837 H 0.07755 0.75963 0.42202 0.0
H1838 H 0.08366 0.75166 0.44369 0.0
H1839 H 0.09893 0.76198 0.42325 0.0
H1840 H 0.10779 0.73679 0.48727 0.0
H1841 H 0.14415 0.76026 0.43762 0.0
H1842 H 0.07165 0.70493 0.45707 0.0
H1843 H 0.07072 0.724 0.46322 0.0
H1844 H 0.0783 0.71475 0.48195 0.0
H1845 H 0.11545 0.73304 0.39808 0.0
H1846 H 0.13599 0.75259 0.40345 0.0
H1847 H 0.11628 0.75343 0.40041 0.0
C1848 C 0.33178 0.05671 0.73751 0.0
C1849 C 0.31974 0.04023 0.72971 0.0
C1850 C 0.32675 0.06471 0.75237 0.0
C1851 C 0.30925 0.05601 0.75965 0.0
C1852 C 0.29711 0.03923 0.75213 0.0
C1853 C 0.3025 0.03153 0.73723 0.0
C1854 C 0.34009 0.08262 0.76002 0.0
C1855 C 0.27835 0.02956 0.75956 0.0
C1856 C 0.30114 0.07263 0.80957 0.0
C1857 C 0.29542 0.08376 0.80273 0.0
C1858 C 0.30524 0.06312 0.79575 0.0
C1859 C 0.3036 0.06482 0.77459 0.0
C1860 C 0.29741 0.07568 0.76763 0.0
C1861 C 0.29341 0.08502 0.78177 0.0
C1862 C 0.31171 0.05159 0.80375 0.0
C1863 C 0.29553 0.07788 0.74518 0.0
H1864 H 0.34514 0.0635 0.73182 0.0
H1865 H 0.29313 0.01878 0.7313 0.0
H1866 H 0.33584 0.09202 0.75631 0.0
H1867 H 0.34109 0.08246 0.77683 0.0
H1868 H 0.35329 0.08739 0.75326 0.0
H1869 H 0.27073 0.01631 0.75284 0.0
H1870 H 0.27792 0.02837 0.77638 0.0
H1871 H 0.27186 0.03698 0.75561 0.0
H1872 H 0.30252 0.07144 0.82576 0.0
H1873 H 0.28923 0.09378 0.77635 0.0
H1874 H 0.3254 0.0566 0.79857 0.0
H1875 H 0.30369 0.03821 0.79759 0.0
H1876 H 0.31131 0.05094 0.82064 0.0
H1877 H 0.30858 0.08404 0.73766 0.0
H1878 H 0.28963 0.08605 0.74232 0.0
H1879 H 0.28727 0.06498 0.7379 0.0
C1880 C 0.96084 0.2691 0.72346 0.0
C1881 C 0.9491 0.27426 0.71709 0.0
C1882 C 0.95606 0.25637 0.73865 0.0
C1883 C 0.93919 0.24872 0.74771 0.0
C1884 C 0.92733 0.2539 0.74136 0.0
C1885 C 0.9324 0.26654 0.72615 0.0
C1886 C 0.969 0.25109 0.74499 0.0
C1887 C 0.90923 0.24611 0.75066 0.0
C1888 C 0.91634 0.20477 0.77392 0.0
C1889 C 0.9176 0.20963 0.79448 0.0
C1890 C 0.92431 0.21735 0.75855 0.0
C1891 C 0.93367 0.23523 0.76385 0.0
C1892 C 0.93585 0.24017 0.78463 0.0
C1893 C 0.92782 0.22731 0.79969 0.0
C1894 C 0.92174 0.21153 0.73659 0.0
C1895 C 0.94577 0.25909 0.79093 0.0
H1896 H 0.97375 0.27497 0.71655 0.0
H1897 H 0.92321 0.27041 0.72143 0.0
H1898 H 0.9717 0.25353 0.7615 0.0
H1899 H 0.96336 0.23692 0.74244 0.0
H1900 H 0.98158 0.25826 0.73646 0.0
H1901 H 0.90162 0.25163 0.74408 0.0
H1902 H 0.90184 0.2318 0.74825 0.0
H1903 H 0.91022 0.24844 0.76733 0.0
H1904 H 0.90836 0.19118 0.7697 0.0
H1905 H 0.92913 0.23115 0.81556 0.0
H1906 H 0.93435 0.21835 0.7281 0.0
H1907 H 0.91266 0.21492 0.72925 0.0
H1908 H 0.9162 0.19725 0.7351 0.0
H1909 H 0.95862 0.26609 0.78297 0.0
H1910 H 0.948 0.26069 0.80761 0.0
H1911 H 0.93826 0.26538 0.7865 0.0
C1912 C 0.72524 0.68949 0.73038 0.0
C1913 C 0.71913 0.67215 0.72465 0.0
C1914 C 0.73807 0.69764 0.74545 0.0
C1915 C 0.74489 0.6882 0.75499 0.0
C1916 C 0.73857 0.67062 0.7495 0.0
C1917 C 0.7258 0.66284 0.73442 0.0
C1918 C 0.74454 0.71641 0.75093 0.0
C1919 C 0.74547 0.66008 0.75939 0.0
C1920 C 0.78972 0.70936 0.77901 0.0
C1921 C 0.78539 0.70696 0.79979 0.0
C1922 C 0.77671 0.7043 0.76422 0.0
C1923 C 0.75897 0.69661 0.77038 0.0
C1924 C 0.75464 0.69515 0.79135 0.0
C1925 C 0.76792 0.70035 0.80582 0.0
C1926 C 0.78186 0.70613 0.74199 0.0
C1927 C 0.73588 0.68712 0.79851 0.0
H1928 H 0.72017 0.6968 0.72291 0.0
H1929 H 0.72114 0.64942 0.73019 0.0
H1930 H 0.74305 0.71765 0.76754 0.0
H1931 H 0.75869 0.72451 0.74724 0.0
H1932 H 0.7374 0.72172 0.7427 0.0
H1933 H 0.73889 0.64645 0.7537 0.0
H1934 H 0.75974 0.66623 0.7564 0.0
H1935 H 0.7436 0.65982 0.77613 0.0
H1936 H 0.80316 0.71432 0.77422 0.0
H1937 H 0.76456 0.69875 0.82188 0.0
H1938 H 0.77547 0.71202 0.73339 0.0
H1939 H 0.77734 0.69304 0.73538 0.0
H1940 H 0.79626 0.71424 0.73973 0.0
H1941 H 0.72918 0.69288 0.79029 0.0
H1942 H 0.73492 0.6889 0.81514 0.0
H1943 H 0.72874 0.67296 0.79513 0.0
C1944 C 0.72279 0.65115 0.62638 0.0
C1945 C 0.70576 0.64794 0.62387 0.0
C1946 C 0.73098 0.64682 0.611 0.0
C1947 C 0.72216 0.63984 0.59239 0.0
C1948 C 0.70501 0.63682 0.58971 0.0
C1949 C 0.69685 0.64058 0.60573 0.0
C1950 C 0.74902 0.64964 0.61469 0.0
C1951 C 0.6955 0.63008 0.5698 0.0
C1952 C 0.7525 0.64632 0.54805 0.0
C1953 C 0.75046 0.62969 0.54593 0.0
C1954 C 0.74269 0.64955 0.56241 0.0
C1955 C 0.73111 0.63606 0.57565 0.0
C1956 C 0.72881 0.61923 0.57357 0.0
C1957 C 0.73819 0.61615 0.55845 0.0
C1958 C 0.74507 0.66755 0.56373 0.0
C1959 C 0.71691 0.60462 0.5878 0.0
H1960 H 0.72955 0.65672 0.64056 0.0
H1961 H 0.6837 0.63827 0.60385 0.0
H1962 H 0.74906 0.63739 0.6118 0.0
H1963 H 0.75859 0.65956 0.604 0.0
H1964 H 0.75353 0.65404 0.63049 0.0
H1965 H 0.68231 0.62864 0.57015 0.0
H1966 H 0.70328 0.63914 0.55732 0.0
H1967 H 0.69404 0.61727 0.56607 0.0
H1968 H 0.7621 0.65705 0.5389 0.0
H1969 H 0.73605 0.60313 0.55669 0.0
H1970 H 0.75185 0.67395 0.57807 0.0
H1971 H 0.73216 0.66671 0.56402 0.0
H1972 H 0.75289 0.67593 0.55077 0.0
H1973 H 0.72151 0.60832 0.6037 0.0
H1974 H 0.7165 0.59225 0.58408 0.0
H1975 H 0.70341 0.60231 0.58721 0.0
C1976 C 0.33569 0.06421 0.61873 0.0
C1977 C 0.34526 0.0576 0.62808 0.0
C1978 C 0.34353 0.07769 0.60444 0.0
C1979 C 0.36142 0.08482 0.5993 0.0
C1980 C 0.37106 0.07788 0.60814 0.0
C1981 C 0.36286 0.06433 0.62245 0.0
C1982 C 0.33274 0.08466 0.59531 0.0
C1983 C 0.39014 0.08512 0.60296 0.0
C1984 C 0.37459 0.11261 0.55163 0.0
C1985 C 0.38012 0.12911 0.55997 0.0
C1986 C 0.36954 0.09814 0.56426 0.0
C1987 C 0.37008 0.10028 0.58569 0.0
C1988 C 0.37685 0.11714 0.5941 0.0
C1989 C 0.38177 0.13134 0.58113 0.0
C1990 C 0.36249 0.08039 0.5547 0.0
C1991 C 0.37777 0.12004 0.61684 0.0
H1992 H 0.32206 0.05904 0.6228 0.0
H1993 H 0.37035 0.05929 0.62955 0.0
H1994 H 0.33815 0.09843 0.59996 0.0
H1995 H 0.33337 0.08437 0.57845 0.0
H1996 H 0.31878 0.0771 0.60015 0.0
H1997 H 0.39535 0.07729 0.60968 0.0
H1998 H 0.39204 0.0856 0.5862 0.0
H1999 H 0.39795 0.09867 0.60871 0.0
H2000 H 0.37324 0.11082 0.53527 0.0
H2001 H 0.38632 0.14415 0.5876 0.0
H2002 H 0.34807 0.0727 0.55684 0.0
H2003 H 0.36803 0.07316 0.56217 0.0
H2004 H 0.36543 0.08125 0.53813 0.0
H2005 H 0.36432 0.11428 0.62319 0.0
H2006 H 0.3852 0.1341 0.62089 0.0
H2007 H 0.38403 0.11347 0.62426 0.0
C2008 C 0.93386 0.30288 0.61075 0.0
C2009 C 0.94324 0.29489 0.61675 0.0
C2010 C 0.92077 0.29525 0.59595 0.0
C2011 C 0.91701 0.27928 0.58692 0.0
C2012 C 0.92682 0.27144 0.59242 0.0
C2013 C 0.93981 0.27934 0.6073 0.0
C2014 C 0.91057 0.30397 0.59047 0.0
C2015 C 0.92321 0.25443 0.58305 0.0
C2016 C 0.87149 0.248 0.56739 0.0
C2017 C 0.87398 0.25009 0.54627 0.0
C2018 C 0.88528 0.25785 0.58079 0.0
C2019 C 0.90198 0.27005 0.57286 0.0
C2020 C 0.90442 0.27272 0.55156 0.0
C2021 C 0.89033 0.26271 0.53848 0.0
C2022 C 0.88211 0.25474 0.60341 0.0
C2023 C 0.92205 0.28563 0.54258 0.0
H2024 H 0.9365 0.31495 0.61794 0.0
H2025 H 0.94708 0.27316 0.61176 0.0
H2026 H 0.91058 0.30551 0.57373 0.0
H2027 H 0.89673 0.29568 0.59541 0.0
H2028 H 0.91598 0.31698 0.59774 0.0
H2029 H 0.93276 0.25065 0.58798 0.0
H2030 H 0.90986 0.24391 0.58742 0.0
H2031 H 0.92365 0.25535 0.5662 0.0
H2032 H 0.85878 0.2384 0.57343 0.0
H2033 H 0.89229 0.26424 0.52214 0.0
H2034 H 0.88627 0.2672 0.61147 0.0
H2035 H 0.89007 0.2494 0.6094 0.0
H2036 H 0.86813 0.24548 0.60714 0.0
H2037 H 0.92725 0.29855 0.54994 0.0
H2038 H 0.92143 0.28714 0.52589 0.0
H2039 H 0.93149 0.28124 0.54553 0.0
C2040 C 0.35634 0.30402 0.61938 0.0
C2041 C 0.33921 0.29102 0.62464 0.0
C2042 C 0.36618 0.30077 0.60496 0.0
C2043 C 0.35872 0.28415 0.5957 0.0
C2044 C 0.34126 0.27122 0.60044 0.0
C2045 C 0.33174 0.27482 0.6148 0.0
C2046 C 0.38471 0.31491 0.60016 0.0
C2047 C 0.33277 0.25331 0.59088 0.0
C2048 C 0.3746 0.27194 0.54823 0.0
C2049 C 0.38152 0.26238 0.55673 0.0
C2050 C 0.36846 0.28056 0.56077 0.0
C2051 C 0.36931 0.27952 0.5822 0.0
C2052 C 0.37785 0.2713 0.5907 0.0
C2053 C 0.38385 0.26282 0.57784 0.0
C2054 C 0.35966 0.2894 0.55111 0.0
C2055 C 0.37919 0.27001 0.61344 0.0
H2056 H 0.3622 0.31661 0.62683 0.0
H2057 H 0.31849 0.26472 0.61859 0.0
H2058 H 0.394 0.31131 0.60643 0.0
H2059 H 0.3869 0.31633 0.58345 0.0
H2060 H 0.38784 0.32769 0.6067 0.0
H2061 H 0.31882 0.24501 0.59549 0.0
H2062 H 0.33348 0.25437 0.57404 0.0
H2063 H 0.33992 0.24666 0.5954 0.0
H2064 H 0.37278 0.2716 0.5319 0.0
H2065 H 0.38943 0.25561 0.58438 0.0
H2066 H 0.36338 0.30185 0.55895 0.0
H2067 H 0.34525 0.28087 0.55257 0.0
H2068 H 0.36303 0.29202 0.53469 0.0
H2069 H 0.38366 0.28279 0.62085 0.0
H2070 H 0.38834 0.26547 0.61749 0.0
H2071 H 0.36607 0.26066 0.61979 0.0
C2072 C 0.69148 0.05746 0.60638 0.0
C2073 C 0.70064 0.04936 0.61282 0.0
C2074 C 0.69804 0.06972 0.59058 0.0
C2075 C 0.71412 0.07398 0.58112 0.0
C2076 C 0.72294 0.06518 0.58685 0.0
C2077 C 0.71607 0.05296 0.60263 0.0
C2078 C 0.68822 0.07875 0.58477 0.0
C2079 C 0.74013 0.06936 0.57707 0.0
C2080 C 0.73079 0.1007 0.53266 0.0
C2081 C 0.74307 0.11702 0.54058 0.0
C2082 C 0.72062 0.08659 0.5457 0.0
C2083 C 0.72285 0.08901 0.56703 0.0
C2084 C 0.73456 0.10572 0.57504 0.0
C2085 C 0.7445 0.11952 0.5617 0.0
C2086 C 0.70816 0.06897 0.53666 0.0
C2087 C 0.73723 0.10888 0.59769 0.0
H2088 H 0.67945 0.05461 0.61408 0.0
H2089 H 0.72312 0.04662 0.60742 0.0
H2090 H 0.69558 0.09249 0.59 0.0
H2091 H 0.68706 0.07892 0.56798 0.0
H2092 H 0.67489 0.0724 0.59164 0.0
H2093 H 0.74447 0.06026 0.58192 0.0
H2094 H 0.73902 0.06884 0.56024 0.0
H2095 H 0.7504 0.08281 0.58124 0.0
H2096 H 0.72973 0.09877 0.51631 0.0
H2097 H 0.7538 0.13224 0.5678 0.0
H2098 H 0.6952 0.06308 0.54435 0.0
H2099 H 0.71332 0.06011 0.53908 0.0
H2100 H 0.70637 0.06972 0.52006 0.0
H2101 H 0.72448 0.1042 0.60554 0.0
H2102 H 0.74599 0.12287 0.60143 0.0
H2103 H 0.74305 0.10144 0.6039 0.0
C2104 C 0.94336 0.64695 0.6129 0.0
C2105 C 0.94063 0.65484 0.62993 0.0
C2106 C 0.93143 0.64085 0.59668 0.0
C2107 C 0.91622 0.64224 0.5979 0.0
C2108 C 0.91299 0.64932 0.61562 0.0
C2109 C 0.92537 0.6558 0.63126 0.0
C2110 C 0.93557 0.6338 0.57783 0.0
C2111 C 0.89671 0.65059 0.61782 0.0
C2112 C 0.89401 0.64682 0.55131 0.0
C2113 C 0.87935 0.62999 0.54925 0.0
C2114 C 0.9066 0.65067 0.56634 0.0
C2115 C 0.90427 0.63756 0.58019 0.0
C2116 C 0.88978 0.62048 0.57802 0.0
C2117 C 0.87765 0.61684 0.56241 0.0
C2118 C 0.92207 0.66899 0.56786 0.0
C2119 C 0.88666 0.60623 0.59272 0.0
H2120 H 0.95525 0.64636 0.61182 0.0
H2121 H 0.92319 0.66177 0.64453 0.0
H2122 H 0.92418 0.62103 0.57351 0.0
H2123 H 0.9383 0.64283 0.56493 0.0
H2124 H 0.94711 0.63225 0.57992 0.0
H2125 H 0.8953 0.65476 0.63335 0.0
H2126 H 0.89717 0.66013 0.60672 0.0
H2127 H 0.88488 0.63783 0.61444 0.0
H2128 H 0.89544 0.65725 0.54164 0.0
H2129 H 0.86668 0.6037 0.56077 0.0
H2130 H 0.93442 0.66876 0.56904 0.0
H2131 H 0.92082 0.67534 0.58183 0.0
H2132 H 0.9231 0.67708 0.55454 0.0
H2133 H 0.89849 0.60508 0.5938 0.0
H2134 H 0.8754 0.59338 0.58822 0.0
H2135 H 0.88401 0.60955 0.60815 0.0
C2136 C 0.94035 0.66791 0.73501 0.0
C2137 C 0.95747 0.67983 0.72854 0.0
C2138 C 0.93176 0.67265 0.74947 0.0
C2139 C 0.94051 0.6897 0.75771 0.0
C2140 C 0.95788 0.70172 0.75146 0.0
C2141 C 0.96615 0.69664 0.73693 0.0
C2142 C 0.91323 0.65946 0.75576 0.0
C2143 C 0.96764 0.72001 0.75994 0.0
C2144 C 0.91179 0.70613 0.7797 0.0
C2145 C 0.91212 0.70311 0.80057 0.0
C2146 C 0.92126 0.70215 0.76562 0.0
C2147 C 0.93132 0.69501 0.77259 0.0
C2148 C 0.93207 0.69234 0.79368 0.0
C2149 C 0.92245 0.69641 0.80742 0.0
C2150 C 0.92011 0.70516 0.74324 0.0
C2151 C 0.94274 0.68484 0.8017 0.0
H2152 H 0.93356 0.65489 0.72861 0.0
H2153 H 0.97939 0.70592 0.73203 0.0
H2154 H 0.91248 0.65751 0.77249 0.0
H2155 H 0.90436 0.66436 0.75195 0.0
H2156 H 0.90838 0.64665 0.74818 0.0
H2157 H 0.98124 0.72763 0.75391 0.0
H2158 H 0.96062 0.72694 0.75612 0.0
H2159 H 0.96814 0.71962 0.77679 0.0
H2160 H 0.90367 0.71109 0.77428 0.0
H2161 H 0.92293 0.69426 0.82356 0.0
H2162 H 0.91393 0.69253 0.735 0.0
H2163 H 0.93342 0.7134 0.73669 0.0
H2164 H 0.91236 0.71154 0.7404 0.0
H2165 H 0.93756 0.67148 0.79563 0.0
H2166 H 0.94255 0.68428 0.8186 0.0
H2167 H 0.95653 0.69278 0.79643 0.0
C2168 C 0.32515 0.27406 0.73193 0.0
C2169 C 0.31197 0.27705 0.72515 0.0
C2170 C 0.32158 0.26132 0.74663 0.0
C2171 C 0.30444 0.25137 0.75479 0.0
C2172 C 0.29113 0.25447 0.7482 0.0
C2173 C 0.29505 0.26727 0.73343 0.0
C2174 C 0.33613 0.25837 0.75327 0.0
C2175 C 0.27271 0.24414 0.75661 0.0
C2176 C 0.29198 0.20754 0.77757 0.0
C2177 C 0.2944 0.21145 0.79842 0.0
C2178 C 0.29493 0.22035 0.76324 0.0
C2179 C 0.30042 0.23749 0.76992 0.0
C2180 C 0.30259 0.24146 0.79097 0.0
C2181 C 0.29957 0.22839 0.80498 0.0
C2182 C 0.29255 0.21564 0.7409 0.0
C2183 C 0.30832 0.25956 0.79867 0.0
H2184 H 0.33826 0.28158 0.72562 0.0
H2185 H 0.28481 0.26954 0.72829 0.0
H2186 H 0.33788 0.26012 0.76998 0.0
H2187 H 0.33262 0.2448 0.74974 0.0
H2188 H 0.3488 0.2674 0.74567 0.0
H2189 H 0.26397 0.24845 0.75028 0.0
H2190 H 0.2671 0.23012 0.75306 0.0
H2191 H 0.27285 0.24541 0.77343 0.0
H2192 H 0.28821 0.19453 0.7724 0.0
H2193 H 0.30126 0.23142 0.8211 0.0
H2194 H 0.30523 0.22333 0.73272 0.0
H2195 H 0.28322 0.21895 0.7341 0.0
H2196 H 0.28763 0.20158 0.73827 0.0
H2197 H 0.32152 0.26892 0.79251 0.0
H2198 H 0.30881 0.26036 0.81556 0.0
H2199 H 0.29924 0.26375 0.79324 0.0
C2200 C 0.73475 0.06777 0.72325 0.0
C2201 C 0.72707 0.05086 0.7152 0.0
C2202 C 0.74729 0.07336 0.73867 0.0
C2203 C 0.7524 0.0618 0.74622 0.0
C2204 C 0.74489 0.04477 0.73806 0.0
C2205 C 0.73226 0.03947 0.72267 0.0
C2206 C 0.75495 0.09162 0.74701 0.0
C2207 C 0.75014 0.03216 0.74564 0.0
C2208 C 0.79592 0.08464 0.77359 0.0
C2209 C 0.79056 0.08358 0.79397 0.0
C2210 C 0.78364 0.07675 0.75795 0.0
C2211 C 0.76555 0.06771 0.76278 0.0
C2212 C 0.76007 0.06587 0.78338 0.0
C2213 C 0.77263 0.07378 0.79873 0.0
C2214 C 0.79003 0.07893 0.73617 0.0
C2215 C 0.74089 0.0563 0.78916 0.0
H2216 H 0.73084 0.07669 0.71766 0.0
H2217 H 0.72644 0.02639 0.71653 0.0
H2218 H 0.75219 0.09112 0.76359 0.0
H2219 H 0.76938 0.09889 0.745 0.0
H2220 H 0.74959 0.099 0.73945 0.0
H2221 H 0.74332 0.01949 0.73746 0.0
H2222 H 0.76448 0.03784 0.74378 0.0
H2223 H 0.74712 0.02973 0.76214 0.0
H2224 H 0.80971 0.09232 0.7697 0.0
H2225 H 0.7684 0.07264 0.81447 0.0
H2226 H 0.78673 0.08775 0.72808 0.0
H2227 H 0.78341 0.06623 0.72809 0.0
H2228 H 0.80441 0.08448 0.73515 0.0
H2229 H 0.73475 0.06364 0.78357 0.0
H2230 H 0.73882 0.05464 0.80589 0.0
H2231 H 0.734 0.04327 0.78185 0.0
C2232 C 0.05849 0.33193 0.03064 0.0
C2233 C 0.04295 0.32903 0.03996 0.0
C2234 C 0.06948 0.32718 0.04043 0.0
C2235 C 0.06504 0.31986 0.06021 0.0
C2236 C 0.04944 0.3171 0.06973 0.0
C2237 C 0.03849 0.32149 0.05938 0.0
C2238 C 0.08575 0.32987 0.02959 0.0
C2239 C 0.04442 0.30974 0.09099 0.0
C2240 C 0.08294 0.29306 0.08292 0.0
C2241 C 0.09626 0.30524 0.09563 0.0
C2242 C 0.07329 0.29786 0.07051 0.0
C2243 C 0.07665 0.31515 0.07122 0.0
C2244 C 0.09022 0.3276 0.08371 0.0
C2245 C 0.10001 0.32256 0.0955 0.0
C2246 C 0.05914 0.28427 0.0571 0.0
C2247 C 0.09401 0.3461 0.08519 0.0
H2248 H 0.06192 0.33769 0.01559 0.0
H2249 H 0.02658 0.31938 0.06674 0.0
H2250 H 0.09754 0.33896 0.03841 0.0
H2251 H 0.08549 0.31732 0.0285 0.0
H2252 H 0.08706 0.33519 0.01401 0.0
H2253 H 0.03209 0.30884 0.09642 0.0
H2254 H 0.04274 0.29654 0.09144 0.0
H2255 H 0.05504 0.31804 0.10176 0.0
H2256 H 0.07966 0.27958 0.08299 0.0
H2257 H 0.11054 0.33225 0.10478 0.0
H2258 H 0.06048 0.28932 0.04138 0.0
H2259 H 0.0461 0.28119 0.06296 0.0
H2260 H 0.05953 0.27202 0.05647 0.0
H2261 H 0.09663 0.35207 0.06985 0.0
H2262 H 0.10539 0.35436 0.09507 0.0
H2263 H 0.08237 0.34615 0.09147 0.0
C2264 C 0.66625 0.70675 0.04426 0.0
C2265 C 0.64802 0.69776 0.0417 0.0
C2266 C 0.67471 0.72207 0.05591 0.0
C2267 C 0.6647 0.72856 0.06519 0.0
C2268 C 0.64633 0.71962 0.06258 0.0
C2269 C 0.63821 0.70434 0.05088 0.0
C2270 C 0.69434 0.73127 0.05838 0.0
C2271 C 0.63522 0.72617 0.07224 0.0
C2272 C 0.68208 0.75858 0.111 0.0
C2273 C 0.68737 0.77483 0.10223 0.0
C2274 C 0.6751 0.74346 0.09903 0.0
C2275 C 0.67336 0.74463 0.0778 0.0
C2276 C 0.67914 0.76105 0.06877 0.0
C2277 C 0.68609 0.77597 0.0811 0.0
C2278 C 0.66918 0.72617 0.10919 0.0
C2279 C 0.67747 0.7628 0.04617 0.0
H2280 H 0.67395 0.70179 0.03724 0.0
H2281 H 0.62413 0.69751 0.04899 0.0
H2282 H 0.70044 0.74485 0.05277 0.0
H2283 H 0.69763 0.73196 0.07473 0.0
H2284 H 0.70024 0.72462 0.05001 0.0
H2285 H 0.62112 0.7178 0.06856 0.0
H2286 H 0.63667 0.72669 0.08903 0.0
H2287 H 0.63973 0.73961 0.067 0.0
H2288 H 0.68328 0.75768 0.12729 0.0
H2289 H 0.68996 0.78846 0.07428 0.0
H2290 H 0.67553 0.71955 0.10178 0.0
H2291 H 0.65483 0.71756 0.10739 0.0
H2292 H 0.67225 0.72761 0.12569 0.0
H2293 H 0.68374 0.75668 0.03751 0.0
H2294 H 0.68353 0.77661 0.04137 0.0
H2295 H 0.66343 0.75585 0.04196 0.0
C2296 C 0.28723 0.93494 0.0449 0.0
C2297 C 0.29359 0.95174 0.03715 0.0
C2298 C 0.27204 0.92687 0.05705 0.0
C2299 C 0.26298 0.93579 0.06144 0.0
C2300 C 0.2692 0.95264 0.05347 0.0
C2301 C 0.28444 0.96043 0.04146 0.0
C2302 C 0.26579 0.90888 0.06537 0.0
C2303 C 0.25981 0.96249 0.05774 0.0
C2304 C 0.21555 0.90912 0.07858 0.0
C2305 C 0.21704 0.91154 0.09974 0.0
C2306 C 0.23039 0.91706 0.06589 0.0
C2307 C 0.24711 0.92758 0.07461 0.0
C2308 C 0.2487 0.93023 0.09593 0.0
C2309 C 0.23363 0.9222 0.10824 0.0
C2310 C 0.22821 0.91399 0.0432 0.0
C2311 C 0.26633 0.94141 0.10575 0.0
H2312 H 0.29422 0.92815 0.04168 0.0
H2313 H 0.28921 0.97338 0.03547 0.0
H2314 H 0.26566 0.90923 0.08225 0.0
H2315 H 0.25217 0.89978 0.06041 0.0
H2316 H 0.27419 0.90363 0.06032 0.0
H2317 H 0.26618 0.97537 0.05006 0.0
H2318 H 0.24604 0.95477 0.05257 0.0
H2319 H 0.25947 0.96457 0.07437 0.0
H2320 H 0.2028 0.90069 0.07195 0.0
H2321 H 0.23483 0.92429 0.12457 0.0
H2322 H 0.23537 0.90747 0.03792 0.0
H2323 H 0.23394 0.92662 0.03508 0.0
H2324 H 0.21425 0.90581 0.0388 0.0
H2325 H 0.27495 0.93607 0.10227 0.0
H2326 H 0.26529 0.9422 0.12255 0.0
H2327 H 0.27278 0.95479 0.09943 0.0
C2328 C 0.33444 0.05114 0.97854 0.0
C2329 C 0.32237 0.03377 0.98343 0.0
C2330 C 0.32905 0.06152 0.96873 0.0
C2331 C 0.31112 0.05442 0.96409 0.0
C2332 C 0.29875 0.03719 0.97005 0.0
C2333 C 0.30455 0.02701 0.97949 0.0
C2334 C 0.34265 0.07978 0.9624 0.0
C2335 C 0.27948 0.02931 0.96577 0.0
C2336 C 0.29702 0.08647 0.94916 0.0
C2337 C 0.29687 0.08519 0.92788 0.0
C2338 C 0.30114 0.07615 0.96123 0.0
C2339 C 0.30553 0.06458 0.95172 0.0
C2340 C 0.30512 0.06307 0.93022 0.0
C2341 C 0.30064 0.07331 0.91855 0.0
C2342 C 0.30108 0.07783 0.98412 0.0
C2343 C 0.30994 0.05103 0.9195 0.0
H2344 H 0.34824 0.05639 0.9815 0.0
H2345 H 0.29516 0.0136 0.9834 0.0
H2346 H 0.34329 0.08067 0.94554 0.0
H2347 H 0.33898 0.08924 0.96808 0.0
H2348 H 0.35589 0.08368 0.96815 0.0
H2349 H 0.27139 0.01647 0.97327 0.0
H2350 H 0.27489 0.03817 0.97105 0.0
H2351 H 0.27725 0.02754 0.94912 0.0
H2352 H 0.29398 0.09561 0.95634 0.0
H2353 H 0.30069 0.07248 0.90208 0.0
H2354 H 0.31452 0.08304 0.99 0.0
H2355 H 0.29269 0.06484 0.99112 0.0
H2356 H 0.29628 0.0866 0.98914 0.0
H2357 H 0.32362 0.05487 0.92318 0.0
H2358 H 0.30874 0.05124 0.9027 0.0
H2359 H 0.30138 0.03748 0.9249 0.0
C2360 C 0.9699 0.28637 0.97522 0.0
C2361 C 0.962 0.29652 0.97729 0.0
C2362 C 0.96183 0.27076 0.96402 0.0
C2363 C 0.94558 0.26528 0.95452 0.0
C2364 C 0.93764 0.27555 0.95638 0.0
C2365 C 0.9459 0.29098 0.96781 0.0
C2366 C 0.97059 0.26005 0.96252 0.0
C2367 C 0.92037 0.2702 0.94635 0.0
C2368 C 0.92962 0.23292 0.9107 0.0
C2369 C 0.91665 0.21777 0.92032 0.0
C2370 C 0.93958 0.24839 0.92177 0.0
C2371 C 0.93658 0.24862 0.94296 0.0
C2372 C 0.92405 0.23313 0.95288 0.0
C2373 C 0.91417 0.21791 0.94142 0.0
C2374 C 0.95274 0.26468 0.91063 0.0
C2375 C 0.92063 0.23277 0.97549 0.0
H2376 H 0.98232 0.29052 0.98252 0.0
H2377 H 0.93974 0.29878 0.96921 0.0
H2378 H 0.9619 0.24695 0.96911 0.0
H2379 H 0.97288 0.25815 0.94632 0.0
H2380 H 0.98332 0.26623 0.97059 0.0
H2381 H 0.91618 0.27988 0.94881 0.0
H2382 H 0.92136 0.26853 0.92973 0.0
H2383 H 0.91004 0.25746 0.95246 0.0
H2384 H 0.93146 0.23286 0.89436 0.0
H2385 H 0.90428 0.20614 0.94891 0.0
H2386 H 0.96564 0.27072 0.91824 0.0
H2387 H 0.94837 0.27433 0.91105 0.0
H2388 H 0.95444 0.26204 0.89447 0.0
H2389 H 0.93309 0.23826 0.98399 0.0
H2390 H 0.91151 0.21939 0.98113 0.0
H2391 H 0.91488 0.24101 0.979 0.0
C2392 C 0.70117 0.65945 0.96636 0.0
C2393 C 0.69548 0.67089 0.97227 0.0
C2394 C 0.71735 0.6656 0.95646 0.0
C2395 C 0.72822 0.68367 0.95274 0.0
C2396 C 0.72269 0.69533 0.95904 0.0
C2397 C 0.70629 0.68877 0.96856 0.0
C2398 C 0.72269 0.65273 0.94968 0.0
C2399 C 0.73407 0.71471 0.95569 0.0
C2400 C 0.77619 0.69929 0.94281 0.0
C2401 C 0.77712 0.70057 0.92154 0.0
C2402 C 0.76047 0.69436 0.95325 0.0
C2403 C 0.74529 0.69029 0.94206 0.0
C2404 C 0.74626 0.69186 0.92058 0.0
C2405 C 0.76224 0.69714 0.91058 0.0
C2406 C 0.76003 0.69318 0.97618 0.0
C2407 C 0.7303 0.68738 0.90811 0.0
H2408 H 0.69282 0.6456 0.96911 0.0
H2409 H 0.70198 0.69768 0.97322 0.0
H2410 H 0.7249 0.65364 0.93297 0.0
H2411 H 0.73521 0.6559 0.95693 0.0
H2412 H 0.71266 0.6391 0.95356 0.0
H2413 H 0.72811 0.72207 0.96212 0.0
H2414 H 0.74705 0.71957 0.9628 0.0
H2415 H 0.73638 0.71751 0.93916 0.0
H2416 H 0.78776 0.70205 0.95127 0.0
H2417 H 0.76295 0.69796 0.8941 0.0
H2418 H 0.75134 0.67945 0.98094 0.0
H2419 H 0.75455 0.70088 0.98283 0.0
H2420 H 0.77323 0.69795 0.98266 0.0
H2421 H 0.72026 0.67344 0.91026 0.0
H2422 H 0.73338 0.68979 0.8916 0.0
H2423 H 0.72441 0.69513 0.91334 0.0
C2424 C 0.96194 0.6741 0.96606 0.0
C2425 C 0.9518 0.66021 0.97932 0.0
C2426 C 0.95423 0.6814 0.95424 0.0
C2427 C 0.93603 0.67489 0.95608 0.0
C2428 C 0.92581 0.66117 0.96983 0.0
C2429 C 0.9338 0.65386 0.98113 0.0
C2430 C 0.96546 0.69578 0.93944 0.0
C2431 C 0.90641 0.6541 0.97248 0.0
C2432 C 0.9169 0.70205 0.93813 0.0
C2433 C 0.90892 0.69353 0.92 0.0
C2434 C 0.92609 0.69632 0.94993 0.0
C2435 C 0.92748 0.68196 0.94315 0.0
C2436 C 0.91996 0.67377 0.92438 0.0
C2437 C 0.91057 0.67956 0.91312 0.0
C2438 C 0.93372 0.70519 0.96999 0.0
C2439 C 0.92143 0.65862 0.91647 0.0
H2440 H 0.97586 0.67898 0.96452 0.0
H2441 H 0.92594 0.64322 0.99149 0.0
H2442 H 0.96076 0.69148 0.92369 0.0
H2443 H 0.96436 0.70742 0.94261 0.0
H2444 H 0.97948 0.69962 0.94015 0.0
H2445 H 0.90054 0.64407 0.98461 0.0
H2446 H 0.90399 0.66484 0.97634 0.0
H2447 H 0.89956 0.64823 0.95799 0.0
H2448 H 0.91539 0.71276 0.94339 0.0
H2449 H 0.9043 0.67304 0.89905 0.0
H2450 H 0.94784 0.70951 0.97059 0.0
H2451 H 0.92714 0.69582 0.98263 0.0
H2452 H 0.93217 0.71666 0.97262 0.0
H2453 H 0.93533 0.66207 0.91617 0.0
H2454 H 0.91599 0.6546 0.90092 0.0
H2455 H 0.91427 0.64731 0.9268 0.0
C2456 C 0.33962 0.29468 0.96678 0.0
C2457 C 0.32788 0.30007 0.97262 0.0
C2458 C 0.33376 0.27883 0.95654 0.0
C2459 C 0.3157 0.26801 0.95236 0.0
C2460 C 0.30375 0.27325 0.95856 0.0
C2461 C 0.31001 0.2893 0.96848 0.0
C2462 C 0.34693 0.27375 0.94994 0.0
C2463 C 0.28436 0.26192 0.95466 0.0
C2464 C 0.30327 0.23504 0.90961 0.0
C2465 C 0.29954 0.22002 0.92038 0.0
C2466 C 0.30832 0.25073 0.91986 0.0
C2467 C 0.30939 0.25128 0.94138 0.0
C2468 C 0.30502 0.23597 0.95235 0.0
C2469 C 0.30028 0.22054 0.94168 0.0
C2470 C 0.31308 0.26684 0.90764 0.0
C2471 C 0.30569 0.23597 0.97531 0.0
H2472 H 0.35346 0.30301 0.96986 0.0
H2473 H 0.30087 0.29338 0.97307 0.0
H2474 H 0.34363 0.26115 0.95694 0.0
H2475 H 0.34644 0.27194 0.93319 0.0
H2476 H 0.36052 0.28368 0.95423 0.0
H2477 H 0.27675 0.26766 0.96098 0.0
H2478 H 0.28197 0.25996 0.93805 0.0
H2479 H 0.27935 0.24888 0.96154 0.0
H2480 H 0.30285 0.23465 0.89311 0.0
H2481 H 0.29726 0.20885 0.94999 0.0
H2482 H 0.32703 0.2768 0.91016 0.0
H2483 H 0.30514 0.27257 0.91277 0.0
H2484 H 0.31104 0.26409 0.89106 0.0
H2485 H 0.31936 0.24462 0.98042 0.0
H2486 H 0.30086 0.22274 0.98157 0.0
H2487 H 0.2977 0.24119 0.98185 0.0
C2488 C 0.70856 0.05648 0.97153 0.0
C2489 C 0.70284 0.04019 0.98047 0.0
C2490 C 0.72391 0.06469 0.95967 0.0
C2491 C 0.73393 0.05655 0.95685 0.0
C2492 C 0.7283 0.04016 0.9659 0.0
C2493 C 0.71277 0.03212 0.9775 0.0
C2494 C 0.72938 0.0821 0.95011 0.0
C2495 C 0.73876 0.03118 0.96345 0.0
C2496 C 0.76558 0.07228 0.91188 0.0
C2497 C 0.78116 0.08481 0.92113 0.0
C2498 C 0.75017 0.06262 0.9234 0.0
C2499 C 0.75045 0.06542 0.94469 0.0
C2500 C 0.76634 0.07753 0.9542 0.0
C2501 C 0.78148 0.08716 0.94228 0.0
C2502 C 0.73344 0.04994 0.91269 0.0
C2503 C 0.76726 0.08071 0.97688 0.0
H2504 H 0.70094 0.06276 0.97361 0.0
H2505 H 0.70848 0.01956 0.98439 0.0
H2506 H 0.74241 0.09212 0.95588 0.0
H2507 H 0.73064 0.08133 0.93336 0.0
H2508 H 0.71991 0.08649 0.95335 0.0
H2509 H 0.7326 0.01846 0.97146 0.0
H2510 H 0.74016 0.02897 0.94707 0.0
H2511 H 0.75215 0.03962 0.96951 0.0
H2512 H 0.76529 0.07055 0.89551 0.0
H2513 H 0.79358 0.09672 0.94948 0.0
H2514 H 0.72394 0.0545 0.91398 0.0
H2515 H 0.72735 0.03696 0.92001 0.0
H2516 H 0.73564 0.04848 0.89629 0.0
H2517 H 0.75924 0.08659 0.98106 0.0
H2518 H 0.78087 0.08955 0.98211 0.0
H2519 H 0.76175 0.0682 0.98521 0.0
C2520 C 0.65675 0.94034 0.0429 0.0
C2521 C 0.66909 0.95799 0.03971 0.0
C2522 C 0.66119 0.92958 0.05365 0.0
C2523 C 0.67844 0.9366 0.06109 0.0
C2524 C 0.69114 0.95419 0.05707 0.0
C2525 C 0.68627 0.96471 0.04658 0.0
C2526 C 0.64724 0.91093 0.05782 0.0
C2527 C 0.70974 0.96208 0.06441 0.0
C2528 C 0.68597 0.91654 0.10785 0.0
C2529 C 0.69217 0.90621 0.09928 0.0
C2530 C 0.68122 0.92625 0.09557 0.0
C2531 C 0.68296 0.92589 0.07415 0.0
C2532 C 0.68934 0.91564 0.06535 0.0
C2533 C 0.69375 0.90583 0.078 0.0
C2534 C 0.6744 0.93697 0.10554 0.0
C2535 C 0.69155 0.91508 0.04259 0.0
H2536 H 0.64344 0.9351 0.03769 0.0
H2537 H 0.6959 0.97831 0.04402 0.0
H2538 H 0.65181 0.90198 0.05288 0.0
H2539 H 0.64461 0.90906 0.07444 0.0
H2540 H 0.63478 0.90717 0.04996 0.0
H2541 H 0.71836 0.97552 0.05861 0.0
H2542 H 0.70993 0.96249 0.08129 0.0
H2543 H 0.71528 0.95393 0.05952 0.0
H2544 H 0.68499 0.91719 0.12425 0.0
H2545 H 0.69825 0.8977 0.07117 0.0
H2546 H 0.66135 0.93322 0.09935 0.0
H2547 H 0.68329 0.95096 0.10207 0.0
H2548 H 0.67322 0.93534 0.12234 0.0
H2549 H 0.67879 0.91025 0.03498 0.0
H2550 H 0.69682 0.90657 0.03816 0.0
H2551 H 0.70057 0.92841 0.03678 0.0
C2552 C 0.0273 0.72128 0.04018 0.0
C2553 C 0.03416 0.71091 0.03374 0.0
C2554 C 0.03769 0.73694 0.05068 0.0
C2555 C 0.05529 0.74221 0.05509 0.0
C2556 C 0.06251 0.73219 0.04784 0.0
C2557 C 0.05186 0.71669 0.03711 0.0
C2558 C 0.0296 0.74742 0.05785 0.0
C2559 C 0.08119 0.73734 0.05236 0.0
C2560 C 0.0858 0.78835 0.07383 0.0
C2561 C 0.08488 0.78596 0.09501 0.0
C2562 C 0.07622 0.77425 0.06059 0.0
C2563 C 0.06562 0.75735 0.06873 0.0
C2564 C 0.06463 0.75484 0.09007 0.0
C2565 C 0.07417 0.76917 0.10293 0.0
C2566 C 0.07745 0.77743 0.03793 0.0
C2567 C 0.05348 0.73699 0.09933 0.0
H2568 H 0.01365 0.71695 0.03745 0.0
H2569 H 0.05721 0.70869 0.0322 0.0
H2570 H 0.02848 0.74687 0.0747 0.0
H2571 H 0.03807 0.7613 0.05356 0.0
H2572 H 0.01636 0.7425 0.05142 0.0
H2573 H 0.08525 0.729 0.0442 0.0
H2574 H 0.09025 0.75111 0.04806 0.0
H2575 H 0.08263 0.73626 0.06896 0.0
H2576 H 0.09423 0.80122 0.06755 0.0
H2577 H 0.07313 0.76724 0.11927 0.0
H2578 H 0.06423 0.77289 0.03171 0.0
H2579 H 0.0826 0.76983 0.03021 0.0
H2580 H 0.08608 0.79141 0.03406 0.0
H2581 H 0.03955 0.73167 0.0953 0.0
H2582 H 0.05451 0.73719 0.11618 0.0
H2583 H 0.05747 0.72792 0.09308 0.0
C2584 C 0.29286 0.35325 0.05487 0.0
C2585 C 0.29974 0.34419 0.04458 0.0
C2586 C 0.27761 0.34439 0.06675 0.0
C2587 C 0.26901 0.32603 0.06836 0.0
C2588 C 0.27586 0.31679 0.05805 0.0
C2589 C 0.29116 0.32599 0.04628 0.0
C2590 C 0.27066 0.35467 0.07755 0.0
C2591 C 0.26699 0.29721 0.05941 0.0
C2592 C 0.23831 0.30619 0.11354 0.0
C2593 C 0.22208 0.30128 0.1048 0.0
C2594 C 0.25367 0.31381 0.10172 0.0
C2595 C 0.25273 0.31655 0.08069 0.0
C2596 C 0.23632 0.31106 0.07165 0.0
C2597 C 0.22118 0.30351 0.08383 0.0
C2598 C 0.27096 0.31943 0.11185 0.0
C2599 C 0.23482 0.31377 0.04925 0.0
H2600 H 0.29941 0.3673 0.05367 0.0
H2601 H 0.29636 0.31887 0.03838 0.0
H2602 H 0.25719 0.35032 0.07233 0.0
H2603 H 0.2699 0.35227 0.09419 0.0
H2604 H 0.27897 0.3689 0.07485 0.0
H2605 H 0.27409 0.29199 0.0506 0.0
H2606 H 0.26606 0.29319 0.07553 0.0
H2607 H 0.25343 0.29113 0.05358 0.0
H2608 H 0.23902 0.30429 0.12971 0.0
H2609 H 0.2087 0.29995 0.07704 0.0
H2610 H 0.27941 0.33381 0.11105 0.0
H2611 H 0.27795 0.31379 0.10373 0.0
H2612 H 0.26932 0.31544 0.12808 0.0
H2613 H 0.24158 0.32792 0.04592 0.0
H2614 H 0.22098 0.3077 0.04433 0.0
H2615 H 0.24135 0.30822 0.04 0.0
C2616 C 0.71254 0.66252 0.36504 0.0
C2617 C 0.69641 0.65824 0.37394 0.0
C2618 C 0.7236 0.65761 0.37426 0.0
C2619 C 0.71855 0.64854 0.39303 0.0
C2620 C 0.7023 0.64424 0.40208 0.0
C2621 C 0.69135 0.64898 0.39232 0.0
C2622 C 0.74069 0.66214 0.36398 0.0
C2623 C 0.6966 0.63491 0.42228 0.0
C2624 C 0.73972 0.62323 0.41131 0.0
C2625 C 0.75247 0.63524 0.42458 0.0
C2626 C 0.72881 0.6275 0.40057 0.0
C2627 C 0.73047 0.64403 0.40358 0.0
C2628 C 0.74323 0.65612 0.41716 0.0
C2629 C 0.75419 0.65163 0.42734 0.0
C2630 C 0.71555 0.61439 0.38597 0.0
C2631 C 0.74516 0.6737 0.42115 0.0
H2632 H 0.71645 0.66959 0.35077 0.0
H2633 H 0.67894 0.64571 0.39933 0.0
H2634 H 0.75181 0.67108 0.3738 0.0
H2635 H 0.74146 0.65021 0.36174 0.0
H2636 H 0.74231 0.66847 0.34896 0.0
H2637 H 0.68354 0.6325 0.42726 0.0
H2638 H 0.69607 0.62224 0.42128 0.0
H2639 H 0.7063 0.64276 0.43415 0.0
H2640 H 0.73851 0.6106 0.4091 0.0
H2641 H 0.76398 0.66086 0.43776 0.0
H2642 H 0.71758 0.62025 0.37061 0.0
H2643 H 0.70213 0.61069 0.39101 0.0
H2644 H 0.71638 0.6024 0.38477 0.0
H2645 H 0.74815 0.68113 0.40673 0.0
H2646 H 0.75568 0.68156 0.43224 0.0
H2647 H 0.73264 0.672 0.42715 0.0
C2648 C 0.33825 0.04917 0.38429 0.0
C2649 C 0.31997 0.0404 0.38231 0.0
C2650 C 0.34722 0.06484 0.39525 0.0
C2651 C 0.33766 0.07187 0.40446 0.0
C2652 C 0.31924 0.06315 0.40242 0.0
C2653 C 0.31063 0.04754 0.39135 0.0
C2654 C 0.36688 0.07384 0.39707 0.0
C2655 C 0.3086 0.07023 0.41207 0.0
C2656 C 0.35609 0.10298 0.4492 0.0
C2657 C 0.36112 0.119 0.43997 0.0
C2658 C 0.34894 0.08759 0.43771 0.0
C2659 C 0.34681 0.08825 0.41647 0.0
C2660 C 0.35245 0.10446 0.40694 0.0
C2661 C 0.35952 0.11965 0.41882 0.0
C2662 C 0.34314 0.07054 0.4484 0.0
C2663 C 0.35041 0.10568 0.38432 0.0
H2664 H 0.3456 0.04377 0.37733 0.0
H2665 H 0.29651 0.04088 0.38993 0.0
H2666 H 0.37302 0.08728 0.39101 0.0
H2667 H 0.37057 0.07489 0.41333 0.0
H2668 H 0.3724 0.06681 0.38874 0.0
H2669 H 0.29439 0.06195 0.40888 0.0
H2670 H 0.31045 0.0712 0.4288 0.0
H2671 H 0.31318 0.08356 0.40635 0.0
H2672 H 0.35756 0.10245 0.4655 0.0
H2673 H 0.3632 0.13196 0.41162 0.0
H2674 H 0.34916 0.06361 0.44099 0.0
H2675 H 0.32873 0.06201 0.44717 0.0
H2676 H 0.34666 0.07239 0.46478 0.0
H2677 H 0.35625 0.09908 0.37577 0.0
H2678 H 0.35666 0.11939 0.37904 0.0
H2679 H 0.33629 0.09892 0.38049 0.0
C2680 C 0.95546 0.29915 0.37381 0.0
C2681 C 0.96405 0.28966 0.37151 0.0
C2682 C 0.93944 0.29211 0.38432 0.0
C2683 C 0.93186 0.2752 0.39269 0.0
C2684 C 0.94044 0.26557 0.39043 0.0
C2685 C 0.95643 0.27292 0.37988 0.0
C2686 C 0.93063 0.30274 0.3865 0.0
C2687 C 0.93274 0.24748 0.39916 0.0
C2688 C 0.89919 0.26019 0.43624 0.0
C2689 C 0.88348 0.24907 0.42619 0.0
C2690 C 0.91498 0.26945 0.42538 0.0
C2691 C 0.915 0.26749 0.40399 0.0
C2692 C 0.89904 0.25698 0.39366 0.0
C2693 C 0.88343 0.24788 0.40491 0.0
C2694 C 0.93172 0.28066 0.43691 0.0
C2695 C 0.89858 0.25461 0.37085 0.0
H2696 H 0.96123 0.3121 0.36739 0.0
H2697 H 0.96295 0.26548 0.37818 0.0
H2698 H 0.91739 0.29562 0.37969 0.0
H2699 H 0.92891 0.30474 0.40285 0.0
H2700 H 0.93823 0.31567 0.37905 0.0
H2701 H 0.94102 0.24168 0.39595 0.0
H2702 H 0.93114 0.24787 0.4159 0.0
H2703 H 0.91954 0.23879 0.39274 0.0
H2704 H 0.89919 0.26132 0.45268 0.0
H2705 H 0.87132 0.2392 0.39712 0.0
H2706 H 0.93916 0.29382 0.43003 0.0
H2707 H 0.94014 0.2748 0.43592 0.0
H2708 H 0.92925 0.28204 0.45324 0.0
H2709 H 0.90578 0.26743 0.36314 0.0
H2710 H 0.88498 0.24738 0.36496 0.0
H2711 H 0.9052 0.24729 0.36666 0.0
C2712 C 0.01269 0.38679 0.30563 0.0
C2713 C -0.00039 0.36932 0.30832 0.0
C2714 C 0.00926 0.39834 0.29512 0.0
C2715 C 0.9923 0.39229 0.28732 0.0
C2716 C 0.97885 0.37486 0.29075 0.0
C2717 C 0.98269 0.36355 0.30114 0.0
C2718 C 0.02395 0.41683 0.29166 0.0
C2719 C 0.96055 0.36802 0.28285 0.0
C2720 C 0.98067 0.4259 0.27108 0.0
C2721 C 0.98329 0.42635 0.24994 0.0
C2722 C 0.98336 0.41473 0.28346 0.0
C2723 C 0.98893 0.40388 0.27448 0.0
C2724 C 0.99151 0.40421 0.25315 0.0
C2725 C 0.98857 0.41537 0.24113 0.0
C2726 C 0.98041 0.41465 0.30615 0.0
C2727 C -0.00252 0.39284 0.24303 0.0
H2728 H 0.0258 0.39132 0.31114 0.0
H2729 H 0.9725 0.35008 0.30329 0.0
H2730 H 0.02695 0.41904 0.27514 0.0
H2731 H 0.01994 0.42616 0.29683 0.0
H2732 H 0.03609 0.41977 0.29977 0.0
H2733 H 0.95128 0.35456 0.28816 0.0
H2734 H 0.95555 0.37661 0.28782 0.0
H2735 H 0.96077 0.36803 0.26596 0.0
H2736 H 0.97681 0.43451 0.27802 0.0
H2737 H 0.99034 0.41545 0.22478 0.0
H2738 H 0.99282 0.41877 0.31427 0.0
H2739 H 0.97081 0.40126 0.31132 0.0
H2740 H 0.97552 0.42346 0.31066 0.0
H2741 H 0.01026 0.3958 0.24935 0.0
H2742 H -0.00109 0.39469 0.22627 0.0
H2743 H 0.98797 0.37893 0.24623 0.0
C2744 C 0.62614 0.62189 0.29465 0.0
C2745 C 0.61675 0.62312 0.31121 0.0
C2746 C 0.61865 0.60719 0.28192 0.0
C2747 C 0.60162 0.59316 0.28636 0.0
C2748 C 0.59236 0.59408 0.30356 0.0
C2749 C 0.59992 0.60923 0.31556 0.0
C2750 C 0.62868 0.60696 0.26333 0.0
C2751 C 0.57443 0.57915 0.30918 0.0
C2752 C 0.57383 0.56254 0.24418 0.0
C2753 C 0.57672 0.54854 0.24638 0.0
C2754 C 0.58219 0.57729 0.25675 0.0
C2755 C 0.59319 0.57783 0.27252 0.0
C2756 C 0.59601 0.56372 0.27512 0.0
C2757 C 0.58804 0.54943 0.26179 0.0
C2758 C 0.5792 0.59229 0.25315 0.0
C2759 C 0.60729 0.56363 0.29213 0.0
H2760 H 0.6391 0.63274 0.29119 0.0
H2761 H 0.59272 0.61016 0.32848 0.0
H2762 H 0.63027 0.59542 0.26363 0.0
H2763 H 0.62122 0.60592 0.24941 0.0
H2764 H 0.64185 0.61886 0.26216 0.0
H2765 H 0.56963 0.58135 0.32395 0.0
H2766 H 0.56491 0.5773 0.2972 0.0
H2767 H 0.57471 0.56687 0.31016 0.0
H2768 H 0.56482 0.56197 0.23279 0.0
H2769 H 0.59075 0.53896 0.2635 0.0
H2770 H 0.59194 0.6046 0.25143 0.0
H2771 H 0.57235 0.59389 0.26646 0.0
H2772 H 0.57126 0.59035 0.23935 0.0
H2773 H 0.6209 0.57466 0.29029 0.0
H2774 H 0.60757 0.55133 0.29261 0.0
H2775 H 0.60233 0.56541 0.30699 0.0
C2776 C 0.36711 0.0133 0.29733 0.0
C2777 C 0.36225 0.0035 0.31533 0.0
C2778 C 0.38174 0.01601 0.28593 0.0
C2779 C 0.39194 0.00905 0.29291 0.0
C2780 C 0.38748 -0.00032 0.31145 0.0
C2781 C 0.37255 0.99686 0.32235 0.0
C2782 C 0.38589 0.0258 0.26606 0.0
C2783 C 0.39826 0.99234 0.31956 0.0
C2784 C 0.41777 -0.00069 0.25406 0.0
C2785 C 0.43455 0.01396 0.25591 0.0
C2786 C 0.40377 -0.00237 0.26591 0.0
C2787 C 0.40673 0.01078 0.28024 0.0
C2788 C 0.42371 0.02558 0.28223 0.0
C2789 C 0.43741 0.02709 0.26985 0.0
C2790 C 0.38579 0.98183 0.26303 0.0
C2791 C 0.42742 0.0397 0.29759 0.0
H2792 H 0.35914 0.0184 0.29177 0.0
H2793 H 0.36889 0.98936 0.33631 0.0
H2794 H 0.39957 0.03689 0.26604 0.0
H2795 H 0.38475 0.01707 0.2533 0.0
H2796 H 0.37699 0.03088 0.26311 0.0
H2797 H 0.39382 0.98655 0.33494 0.0
H2798 H 0.39738 0.98213 0.30908 0.0
H2799 H 0.41225 0.00271 0.32035 0.0
H2800 H 0.41559 0.98923 0.24315 0.0
H2801 H 0.45046 0.03834 0.27136 0.0
H2802 H 0.37633 0.98596 0.25896 0.0
H2803 H 0.38113 0.97441 0.27746 0.0
H2804 H 0.38563 0.97299 0.25093 0.0
H2805 H 0.41925 0.04554 0.29439 0.0
H2806 H 0.4414 0.05021 0.29749 0.0
H2807 H 0.42387 0.03403 0.3131 0.0
C2808 C 0.59913 0.96762 0.30115 0.0
C2809 C 0.61524 0.97901 0.31029 0.0
C2810 C 0.59007 0.97399 0.29025 0.0
C2811 C 0.59722 0.99219 0.28858 0.0
C2812 C 0.61347 0.00378 0.29774 0.0
C2813 C 0.62234 0.99705 0.30843 0.0
C2814 C 0.57281 0.96122 0.28055 0.0
C2815 C 0.62141 0.02327 0.29637 0.0
C2816 C 0.57947 0.00683 0.24562 0.0
C2817 C 0.5663 0.00834 0.2557 0.0
C2818 C 0.59006 0.00212 0.25627 0.0
C2819 C 0.58745 -0.00102 0.27747 0.0
C2820 C 0.57468 0.00123 0.28785 0.0
C2821 C 0.56419 0.00582 0.2768 0.0
C2822 C 0.60348 -0.00026 0.24467 0.0
C2823 C 0.57166 -0.00181 0.31049 0.0
H2824 H 0.59359 0.95367 0.30242 0.0
H2825 H 0.63477 0.00595 0.31548 0.0
H2826 H 0.56222 0.96301 0.28702 0.0
H2827 H 0.57342 0.9637 0.26395 0.0
H2828 H 0.56924 0.94747 0.28291 0.0
H2829 H 0.63422 0.03051 0.30421 0.0
H2830 H 0.62331 0.02735 0.28019 0.0
H2831 H 0.61236 0.02705 0.30328 0.0
H2832 H 0.581 0.00863 0.22927 0.0
H2833 H 0.55414 0.00718 0.28463 0.0
H2834 H 0.5997 0.98582 0.24499 0.0
H2835 H 0.61648 0.00728 0.252 0.0
H2836 H 0.60474 0.0039 0.22854 0.0
H2837 H 0.56656 0.98425 0.31388 0.0
H2838 H 0.56217 0.0018 0.31648 0.0
H2839 H 0.58419 0.00584 0.31875 0.0
C2840 C 0.98878 0.62195 0.3054 0.0
C2841 C 0.00584 0.63344 0.31216 0.0
C2842 C 0.98486 0.6069 0.29438 0.0
C2843 C -0.00163 0.60335 0.28987 0.0
C2844 C 0.01552 0.61465 0.29711 0.0
C2845 C 0.01904 0.62955 0.30827 0.0
C2846 C 0.96637 0.59505 0.2871 0.0
C2847 C 0.03026 0.6113 0.29249 0.0
C2848 C 0.98582 0.55774 0.27275 0.0
C2849 C 0.98737 0.55966 0.25152 0.0
C2850 C 0.98936 0.57185 0.28547 0.0
C2851 C 0.9947 0.58828 0.27672 0.0
C2852 C -0.00366 0.59032 0.25532 0.0
C2853 C 0.99257 0.57597 0.24298 0.0
C2854 C 0.9874 0.56919 0.30823 0.0
C2855 C 0.00201 0.60767 0.24545 0.0
H2856 H 0.97849 0.62484 0.30847 0.0
H2857 H 0.03225 0.6384 0.31343 0.0
H2858 H 0.96612 0.59505 0.27021 0.0
H2859 H 0.96159 0.58146 0.29198 0.0
H2860 H 0.95717 0.59909 0.29295 0.0
H2861 H 0.04264 0.62085 0.30011 0.0
H2862 H 0.02664 0.598 0.29742 0.0
H2863 H 0.03266 0.61202 0.27582 0.0
H2864 H 0.98205 0.54524 0.27947 0.0
H2865 H 0.99354 0.57749 0.22658 0.0
H2866 H 0.97778 0.57259 0.31421 0.0
H2867 H 7e-05 0.57797 0.31575 0.0
H2868 H 0.98301 0.55555 0.3126 0.0
H2869 H 0.99254 0.61191 0.24926 0.0
H2870 H 0.00301 0.60715 0.22861 0.0
H2871 H 0.01494 0.61773 0.25143 0.0
C2872 C 0.37806 0.39399 0.29633 0.0
C2873 C 0.37164 0.37768 0.30557 0.0
C2874 C 0.39341 0.40149 0.28448 0.0
C2875 C 0.40263 0.39251 0.2818 0.0
C2876 C 0.39633 0.37611 0.29117 0.0
C2877 C 0.38089 0.36888 0.30293 0.0
C2878 C 0.39971 0.419 0.27471 0.0
C2879 C 0.40585 0.3662 0.2887 0.0
C2880 C 0.43291 0.40571 0.23576 0.0
C2881 C 0.44918 0.41742 0.24438 0.0
C2882 C 0.41772 0.39714 0.24785 0.0
C2883 C 0.41882 0.40034 0.26908 0.0
C2884 C 0.43527 0.41175 0.27796 0.0
C2885 C 0.45024 0.42017 0.26551 0.0
C2886 C 0.40042 0.38503 0.23782 0.0
C2887 C 0.43697 0.41549 0.30054 0.0
H2888 H 0.37103 0.4009 0.29824 0.0
H2889 H 0.37606 0.35629 0.31001 0.0
H2890 H 0.41316 0.42846 0.27987 0.0
H2891 H 0.40028 0.41786 0.25792 0.0
H2892 H 0.39109 0.42433 0.27838 0.0
H2893 H 0.39934 0.35368 0.29714 0.0
H2894 H 0.40661 0.36343 0.27235 0.0
H2895 H 0.41949 0.37422 0.29421 0.0
H2896 H 0.43205 0.40333 0.21949 0.0
H2897 H 0.46272 0.42936 0.27226 0.0
H2898 H 0.39151 0.39027 0.23966 0.0
H2899 H 0.39401 0.37208 0.24528 0.0
H2900 H 0.40192 0.38327 0.22131 0.0
H2901 H 0.42977 0.42223 0.30478 0.0
H2902 H 0.45083 0.42377 0.30525 0.0
H2903 H 0.43099 0.40314 0.30926 0.0
C2904 C 0.33672 0.28544 0.36766 0.0
C2905 C 0.34001 0.30138 0.3758 0.0
C2906 C 0.3416 0.27492 0.37822 0.0
C2907 C 0.34949 0.28029 0.3976 0.0
C2908 C 0.35274 0.29635 0.4059 0.0
C2909 C 0.34817 0.30679 0.39478 0.0
C2910 C 0.33833 0.25809 0.36867 0.0
C2911 C 0.36074 0.30236 0.42671 0.0
C2912 C 0.34623 0.24629 0.43473 0.0
C2913 C 0.36335 0.24918 0.43426 0.0
C2914 C 0.34151 0.25621 0.42276 0.0
C2915 C 0.35405 0.26902 0.4095 0.0
C2916 C 0.37116 0.27164 0.40839 0.0
C2917 C 0.37567 0.26188 0.42096 0.0
C2918 C 0.3232 0.25322 0.42464 0.0
C2919 C 0.38481 0.28497 0.39416 0.0
H2920 H 0.3305 0.28127 0.35294 0.0
H2921 H 0.35061 0.31905 0.40121 0.0
H2922 H 0.35074 0.25792 0.36779 0.0
H2923 H 0.32909 0.24692 0.37827 0.0
H2924 H 0.33282 0.25617 0.35312 0.0
H2925 H 0.36224 0.3151 0.43106 0.0
H2926 H 0.35242 0.29256 0.43832 0.0
H2927 H 0.3738 0.30355 0.4271 0.0
H2928 H 0.33643 0.23626 0.44449 0.0
H2929 H 0.389 0.26447 0.4206 0.0
H2930 H 0.31671 0.24978 0.4096 0.0
H2931 H 0.32379 0.26539 0.42977 0.0
H2932 H 0.31497 0.24269 0.4356 0.0
H2933 H 0.37957 0.28297 0.37848 0.0
H2934 H 0.39701 0.28436 0.39381 0.0
H2935 H 0.38815 0.29824 0.39901 0.0
C2936 C 0.71515 0.04142 0.3685 0.0
C2937 C 0.69699 0.0343 0.36723 0.0
C2938 C 0.72581 0.05764 0.37782 0.0
C2939 C 0.71813 0.06701 0.38582 0.0
C2940 C 0.69993 0.06025 0.38374 0.0
C2941 C 0.68956 0.04391 0.37457 0.0
C2942 C 0.74516 0.06437 0.3799 0.0
C2943 C 0.69132 0.06998 0.39183 0.0
C2944 C 0.74086 0.09731 0.43026 0.0
C2945 C 0.75 0.11361 0.42069 0.0
C2946 C 0.73044 0.08209 0.41906 0.0
C2947 C 0.7289 0.08318 0.39777 0.0
C2948 C 0.73776 0.0996 0.38804 0.0
C2949 C 0.74828 0.11464 0.39961 0.0
C2950 C 0.72121 0.06481 0.43001 0.0
C2951 C 0.73628 0.10126 0.36539 0.0
H2952 H 0.72096 0.03404 0.36285 0.0
H2953 H 0.67554 0.03853 0.37348 0.0
H2954 H 0.7529 0.07786 0.37398 0.0
H2955 H 0.74843 0.0648 0.39623 0.0
H2956 H 0.74927 0.0561 0.37166 0.0
H2957 H 0.67736 0.06372 0.38734 0.0
H2958 H 0.692 0.07053 0.4087 0.0
H2959 H 0.69836 0.0836 0.38622 0.0
H2960 H 0.74182 0.09644 0.4466 0.0
H2961 H 0.75543 0.12715 0.39207 0.0
H2962 H 0.72549 0.05603 0.42357 0.0
H2963 H 0.70687 0.05839 0.42774 0.0
H2964 H 0.72384 0.06621 0.44662 0.0
H2965 H 0.74163 0.09411 0.35705 0.0
H2966 H 0.74341 0.11504 0.36029 0.0
H2967 H 0.72231 0.09527 0.36111 0.0
C2968 C 0.95973 0.65275 0.3808 0.0
C2969 C 0.96745 0.67094 0.37994 0.0
C2970 C 0.94349 0.64238 0.3905 0.0
C2971 C 0.93483 0.65041 0.39952 0.0
C2972 C 0.94275 0.66877 0.39913 0.0
C2973 C 0.95895 0.6788 0.38934 0.0
C2974 C 0.93542 0.62285 0.39068 0.0
C2975 C 0.93391 0.67781 0.40866 0.0
C2976 C 0.88581 0.62838 0.40602 0.0
C2977 C 0.88401 0.62618 0.42717 0.0
C2978 C 0.9022 0.63511 0.39655 0.0
C2979 C 0.9171 0.63977 0.40859 0.0
C2980 C 0.91512 0.63627 0.42974 0.0
C2981 C 0.89853 0.62947 0.43881 0.0
C2982 C 0.90375 0.63848 0.37392 0.0
C2983 C 0.93069 0.64097 0.44305 0.0
H2984 H 0.96623 0.64656 0.37361 0.0
H2985 H 0.96484 0.69283 0.38886 0.0
H2986 H 0.93186 0.61784 0.40646 0.0
H2987 H 0.92317 0.61667 0.38172 0.0
H2988 H 0.94436 0.61873 0.38418 0.0
H2989 H 0.94212 0.69222 0.40768 0.0
H2990 H 0.92132 0.67362 0.40091 0.0
H2991 H 0.93088 0.67411 0.42491 0.0
H2992 H 0.87451 0.6256 0.397 0.0
H2993 H 0.89717 0.62787 0.4552 0.0
H2994 H 0.91189 0.63375 0.36661 0.0
H2995 H 0.91033 0.65271 0.37117 0.0
H2996 H 0.89076 0.6321 0.36642 0.0
H2997 H 0.93933 0.63678 0.43589 0.0
H2998 H 0.92667 0.63499 0.4584 0.0
H2999 H 0.93852 0.65533 0.44491 0.0
C3000 C 0.36649 0.98773 0.71474 0.0
C3001 C 0.37257 0.0044 0.70672 0.0
C3002 C 0.37779 0.98374 0.72501 0.0
C3003 C 0.39557 0.99679 0.72753 0.0
C3004 C 0.40189 0.01353 0.71907 0.0
C3005 C 0.39032 0.01711 0.70865 0.0
C3006 C 0.37061 0.96568 0.73361 0.0
C3007 C 0.42072 0.02782 0.72159 0.0
C3008 C 0.41912 0.99227 0.77288 0.0
C3009 C 0.42923 0.98601 0.76376 0.0
C3010 C 0.40827 0.99599 0.76123 0.0
C3011 C 0.4073 0.99317 0.73993 0.0
C3012 C 0.41734 0.98673 0.73061 0.0
C3013 C 0.42825 0.9833 0.74262 0.0
C3014 C 0.39779 0.00288 0.77174 0.0
C3015 C 0.41655 0.98346 0.70795 0.0
H3016 H 0.3528 0.97782 0.7132 0.0
H3017 H 0.3951 0.03002 0.70253 0.0
H3018 H 0.37862 0.96009 0.72826 0.0
H3019 H 0.37135 0.96635 0.75046 0.0
H3020 H 0.35678 0.95671 0.72921 0.0
H3021 H 0.42378 0.03986 0.71326 0.0
H3022 H 0.42352 0.03105 0.73797 0.0
H3023 H 0.42965 0.02337 0.71604 0.0
H3024 H 0.41954 0.99411 0.78924 0.0
H3025 H 0.43618 0.9787 0.73539 0.0
H3026 H 0.3836 0.99373 0.76948 0.0
H3027 H 0.40097 0.01553 0.76496 0.0
H3028 H 0.40036 0.00477 0.78835 0.0
H3029 H 0.40288 0.97404 0.70345 0.0
H3030 H 0.42504 0.97826 0.70308 0.0
H3031 H 0.42067 0.99573 0.69959 0.0
C3032 C 0.97183 0.36991 0.71468 0.0
C3033 C 0.98251 0.36418 0.70589 0.0
C3034 C 0.979 0.38514 0.72644 0.0
C3035 C -0.00269 0.39495 0.72947 0.0
C3036 C 0.00821 0.38934 0.72058 0.0
C3037 C 0.00068 0.37399 0.70891 0.0
C3038 C 0.96692 0.39067 0.73572 0.0
C3039 C 0.0278 0.39953 0.72345 0.0
C3040 C 0.01459 0.44177 0.74562 0.0
C3041 C 0.01521 0.44058 0.76684 0.0
C3042 C 0.00951 0.42716 0.73315 0.0
C3043 C 0.00489 0.41098 0.74214 0.0
C3044 C 0.00619 0.40987 0.76346 0.0
C3045 C 0.01136 0.42469 0.77556 0.0
C3046 C 0.00831 0.42885 0.71045 0.0
C3047 C 0.00142 0.39285 0.7736 0.0
H3048 H 0.95779 0.36243 0.71247 0.0
H3049 H 0.00904 0.36969 0.70216 0.0
H3050 H 0.96816 0.39128 0.75254 0.0
H3051 H 0.9707 0.40391 0.73039 0.0
H3052 H 0.95299 0.38163 0.73181 0.0
H3053 H 0.03448 0.39353 0.71533 0.0
H3054 H 0.03325 0.41304 0.71784 0.0
H3055 H 0.03091 0.40041 0.73989 0.0
H3056 H 0.01737 0.45396 0.7388 0.0
H3057 H 0.0121 0.42378 0.79193 0.0
H3058 H 0.99439 0.42139 0.70576 0.0
H3059 H 0.01528 0.42326 0.70215 0.0
H3060 H 0.01391 0.44262 0.70568 0.0
H3061 H 0.98722 0.38348 0.77173 0.0
H3062 H 0.00442 0.39447 0.79012 0.0
H3063 H 0.00857 0.38702 0.76626 0.0
C3064 C 0.62033 0.62982 0.70722 0.0
C3065 C 0.62877 0.62011 0.70663 0.0
C3066 C 0.60414 0.62343 0.71718 0.0
C3067 C 0.5963 0.60701 0.72685 0.0
C3068 C 0.60484 0.59724 0.72651 0.0
C3069 C 0.62094 0.60389 0.71634 0.0
C3070 C 0.59534 0.63413 0.71715 0.0
C3071 C 0.59689 0.5797 0.73676 0.0
C3072 C 0.56136 0.59376 0.76773 0.0
C3073 C 0.54632 0.58196 0.75703 0.0
C3074 C 0.57771 0.60264 0.75789 0.0
C3075 C 0.57892 0.59969 0.73689 0.0
C3076 C 0.56358 0.58856 0.7258 0.0
C3077 C 0.54746 0.57976 0.73605 0.0
C3078 C 0.5938 0.61439 0.77021 0.0
C3079 C 0.56432 0.58526 0.70333 0.0
H3080 H 0.62628 0.64237 0.69974 0.0
H3081 H 0.62742 0.59635 0.71605 0.0
H3082 H 0.5825 0.6268 0.70943 0.0
H3083 H 0.59273 0.63662 0.733 0.0
H3084 H 0.60337 0.64683 0.70932 0.0
H3085 H 0.60545 0.57399 0.73559 0.0
H3086 H 0.5944 0.58091 0.7531 0.0
H3087 H 0.58409 0.57051 0.72975 0.0
H3088 H 0.56049 0.59535 0.784 0.0
H3089 H 0.53576 0.57076 0.72775 0.0
H3090 H 0.60174 0.62717 0.76256 0.0
H3091 H 0.60211 0.60844 0.77135 0.0
H3092 H 0.59045 0.61662 0.78585 0.0
H3093 H 0.57174 0.59776 0.695 0.0
H3094 H 0.55106 0.57757 0.69659 0.0
H3095 H 0.57131 0.57802 0.70093 0.0
C3096 C 0.67193 0.71366 0.65017 0.0
C3097 C 0.66701 0.69733 0.64178 0.0
C3098 C 0.66729 0.72479 0.6407 0.0
C3099 C 0.65785 0.71955 0.62224 0.0
C3100 C 0.65291 0.70309 0.61369 0.0
C3101 C 0.65741 0.69211 0.62368 0.0
C3102 C 0.67252 0.74215 0.6504 0.0
C3103 C 0.64313 0.6972 0.59382 0.0
C3104 C 0.63338 0.74154 0.60401 0.0
C3105 C 0.64548 0.75373 0.59024 0.0
C3106 C 0.63734 0.73049 0.61485 0.0
C3107 C 0.65363 0.73149 0.61144 0.0
C3108 C 0.66578 0.74367 0.59733 0.0
C3109 C 0.66161 0.75477 0.58703 0.0
C3110 C 0.62419 0.71783 0.63001 0.0
C3111 C 0.68311 0.74487 0.59297 0.0
H3112 H 0.67925 0.71767 0.66424 0.0
H3113 H 0.65366 0.67952 0.61709 0.0
H3114 H 0.68152 0.75286 0.64009 0.0
H3115 H 0.66079 0.74336 0.65284 0.0
H3116 H 0.67913 0.74392 0.66525 0.0
H3117 H 0.6402 0.68397 0.58928 0.0
H3118 H 0.63062 0.69714 0.59504 0.0
H3119 H 0.65099 0.70647 0.58154 0.0
H3120 H 0.62097 0.74089 0.60655 0.0
H3121 H 0.67088 0.76414 0.57622 0.0
H3122 H 0.63028 0.72006 0.64524 0.0
H3123 H 0.62006 0.70429 0.62545 0.0
H3124 H 0.61236 0.71905 0.63131 0.0
H3125 H 0.69083 0.74799 0.60715 0.0
H3126 H 0.69102 0.75496 0.58142 0.0
H3127 H 0.68086 0.73212 0.5874 0.0
C3128 C 0.30029 0.95707 0.6447 0.0
C3129 C 0.29166 0.9666 0.64497 0.0
C3130 C 0.29288 0.94078 0.63497 0.0
C3131 C 0.27654 0.93395 0.62516 0.0
C3132 C 0.26786 0.94359 0.6252 0.0
C3133 C 0.27549 0.95974 0.63515 0.0
C3134 C 0.30244 0.93081 0.63534 0.0
C3135 C 0.25046 0.9368 0.61477 0.0
C3136 C 0.26199 0.89928 0.5841 0.0
C3137 C 0.24937 0.88444 0.59456 0.0
C3138 C 0.27145 0.91539 0.59407 0.0
C3139 C 0.26827 0.91664 0.615 0.0
C3140 C 0.25614 0.90152 0.62585 0.0
C3141 C 0.24678 0.88561 0.61547 0.0
C3142 C 0.2842 0.93124 0.58195 0.0
C3143 C 0.25254 0.90229 0.64823 0.0
H3144 H 0.31277 0.96224 0.65228 0.0
H3145 H 0.26875 0.96703 0.63519 0.0
H3146 H 0.29417 0.91806 0.64292 0.0
H3147 H 0.30498 0.9281 0.61957 0.0
H3148 H 0.31511 0.938 0.64347 0.0
H3149 H 0.2456 0.94606 0.61585 0.0
H3150 H 0.25166 0.93424 0.59846 0.0
H3151 H 0.24054 0.92426 0.62171 0.0
H3152 H 0.2639 0.89846 0.5679 0.0
H3153 H 0.23717 0.8741 0.62363 0.0
H3154 H 0.29703 0.93827 0.58971 0.0
H3155 H 0.27919 0.94034 0.58091 0.0
H3156 H 0.28625 0.92782 0.56628 0.0
H3157 H 0.26498 0.90883 0.65682 0.0
H3158 H 0.24391 0.88915 0.6548 0.0
H3159 H 0.24613 0.91011 0.65046 0.0
C3160 C 0.0441 0.3312 0.64749 0.0
C3161 C 0.03196 0.33503 0.63917 0.0
C3162 C 0.06001 0.33615 0.6374 0.0
C3163 C 0.06356 0.34465 0.61831 0.0
C3164 C 0.05133 0.34854 0.60991 0.0
C3165 C 0.0358 0.34389 0.62057 0.0
C3166 C 0.07297 0.33221 0.64709 0.0
C3167 C 0.05441 0.3572 0.58937 0.0
C3168 C 0.10948 0.37017 0.59588 0.0
C3169 C 0.10965 0.35802 0.58228 0.0
C3170 C 0.09484 0.36578 0.6083 0.0
C3171 C 0.07977 0.349 0.6067 0.0
C3172 C 0.07984 0.33664 0.59315 0.0
C3173 C 0.09484 0.3412 0.58136 0.0
C3174 C 0.09538 0.37921 0.62287 0.0
C3175 C 0.06392 0.31869 0.59074 0.0
H3176 H 0.04121 0.32444 0.66193 0.0
H3177 H 0.02638 0.34675 0.61401 0.0
H3178 H 0.07469 0.32293 0.63743 0.0
H3179 H 0.08596 0.3443 0.64823 0.0
H3180 H 0.06872 0.32652 0.66253 0.0
H3181 H 0.04357 0.35931 0.58498 0.0
H3182 H 0.06678 0.36997 0.58947 0.0
H3183 H 0.05582 0.34905 0.57753 0.0
H3184 H 0.12069 0.38326 0.59661 0.0
H3185 H 0.0949 0.33151 0.57138 0.0
H3186 H 0.09141 0.37361 0.63837 0.0
H3187 H 0.08593 0.38312 0.61801 0.0
H3188 H 0.1086 0.39106 0.62366 0.0
H3189 H 0.06019 0.31187 0.6056 0.0
H3190 H 0.06613 0.31056 0.5796 0.0
H3191 H 0.05266 0.31981 0.58557 0.0
C3192 C 0.26109 0.30705 0.63282 0.0
C3193 C 0.27771 0.31751 0.64136 0.0
C3194 C 0.25315 0.31441 0.62151 0.0
C3195 C 0.26203 0.33266 0.61868 0.0
C3196 C 0.27868 0.34334 0.6275 0.0
C3197 C 0.28632 0.33563 0.63873 0.0
C3198 C 0.23536 0.30261 0.61233 0.0
C3199 C 0.28851 0.36287 0.62482 0.0
C3200 C 0.24865 0.34867 0.57283 0.0
C3201 C 0.23715 0.35334 0.58163 0.0
C3202 C 0.25712 0.34226 0.58479 0.0
C3203 C 0.25403 0.3405 0.60605 0.0
C3204 C 0.24278 0.3456 0.61511 0.0
C3205 C 0.23446 0.35196 0.60277 0.0
C3206 C 0.26911 0.33704 0.5746 0.0
C3207 C 0.23917 0.3439 0.63774 0.0
H3208 H 0.25431 0.29304 0.63477 0.0
H3209 H 0.29915 0.34384 0.6453 0.0
H3210 H 0.22599 0.30659 0.61759 0.0
H3211 H 0.23625 0.3038 0.5955 0.0
H3212 H 0.23001 0.28872 0.61639 0.0
H3213 H 0.30111 0.36937 0.63316 0.0
H3214 H 0.29127 0.36614 0.60843 0.0
H3215 H 0.28038 0.36828 0.6303 0.0
H3216 H 0.25096 0.34995 0.55653 0.0
H3217 H 0.22543 0.35537 0.60962 0.0
H3218 H 0.26385 0.3229 0.57677 0.0
H3219 H 0.28224 0.34403 0.5817 0.0
H3220 H 0.27064 0.33984 0.55801 0.0
H3221 H 0.23248 0.32998 0.64216 0.0
H3222 H 0.23083 0.34931 0.64254 0.0
H3223 H 0.25165 0.35074 0.64625 0.0
C3224 C 0.67683 0.9586 0.64111 0.0
C3225 C 0.66474 0.96359 0.64681 0.0
C3226 C 0.67131 0.94257 0.63146 0.0
C3227 C 0.65325 0.93118 0.62776 0.0
C3228 C 0.64092 0.93582 0.6343 0.0
C3229 C 0.64684 0.95206 0.64361 0.0
C3230 C 0.68486 0.93813 0.62452 0.0
C3231 C 0.62154 0.92385 0.63097 0.0
C3232 C 0.642 0.89973 0.58361 0.0
C3233 C 0.63913 0.88466 0.59358 0.0
C3234 C 0.64628 0.91489 0.59463 0.0
C3235 C 0.64743 0.91483 0.61611 0.0
C3236 C 0.64383 0.89941 0.6263 0.0
C3237 C 0.63987 0.88453 0.61487 0.0
C3238 C 0.65022 0.93114 0.58321 0.0
C3239 C 0.64459 0.89877 0.64921 0.0
H3240 H 0.69068 0.9675 0.64348 0.0
H3241 H 0.63744 0.95583 0.64811 0.0
H3242 H 0.6818 0.92538 0.63086 0.0
H3243 H 0.68461 0.93693 0.60768 0.0
H3244 H 0.69831 0.94814 0.62919 0.0
H3245 H 0.61359 0.92875 0.63847 0.0
H3246 H 0.61874 0.92249 0.61442 0.0
H3247 H 0.61729 0.91066 0.63691 0.0
H3248 H 0.64158 0.89985 0.56713 0.0
H3249 H 0.6375 0.87279 0.62255 0.0
H3250 H 0.66401 0.94149 0.58582 0.0
H3251 H 0.64178 0.93612 0.58895 0.0
H3252 H 0.64817 0.92884 0.56656 0.0
H3253 H 0.65822 0.90754 0.65436 0.0
H3254 H 0.64011 0.88542 0.65485 0.0
H3255 H 0.63635 0.90348 0.65632 0.0
C3256 C 0.03907 0.72702 0.63506 0.0
C3257 C 0.03226 0.71026 0.64321 0.0
C3258 C 0.0548 0.73502 0.62389 0.0
C3259 C 0.06402 0.72609 0.62077 0.0
C3260 C 0.05728 0.7092 0.62896 0.0
C3261 C 0.04148 0.70148 0.64008 0.0
C3262 C 0.06154 0.75305 0.6154 0.0
C3263 C 0.06677 0.69929 0.62597 0.0
C3264 C 0.09623 0.74184 0.57639 0.0
C3265 C 0.11213 0.75294 0.58615 0.0
C3266 C 0.08054 0.73263 0.58752 0.0
C3267 C 0.08073 0.73455 0.60895 0.0
C3268 C 0.0968 0.74533 0.61896 0.0
C3269 C 0.11229 0.75441 0.60745 0.0
C3270 C 0.06368 0.7212 0.5763 0.0
C3271 C 0.09755 0.74773 0.64178 0.0
H3272 H 0.03207 0.73393 0.63734 0.0
H3273 H 0.03635 0.68854 0.6463 0.0
H3274 H 0.07476 0.76215 0.62149 0.0
H3275 H 0.06283 0.75284 0.59859 0.0
H3276 H 0.05281 0.75823 0.61918 0.0
H3277 H 0.05981 0.68628 0.63331 0.0
H3278 H 0.06825 0.69754 0.60948 0.0
H3279 H 0.08014 0.70684 0.63238 0.0
H3280 H 0.09604 0.74044 0.55997 0.0
H3281 H 0.12447 0.76312 0.6151 0.0
H3282 H 0.05477 0.72643 0.57825 0.0
H3283 H 0.0569 0.70786 0.58274 0.0
H3284 H 0.06588 0.72037 0.55975 0.0
H3285 H 0.09023 0.75428 0.64632 0.0
H3286 H 0.1112 0.75566 0.64735 0.0
H3287 H 0.09118 0.7349 0.64949 0.0
C3288 C 0.99125 0.61331 0.69999 0.0
C3289 C 0.99526 0.62917 0.70906 0.0
C3290 C 0.99461 0.60148 0.71012 0.0
C3291 C 0.00167 0.60543 0.73 0.0
C3292 C 0.00564 0.6214 0.73924 0.0
C3293 C 0.00261 0.63317 0.72856 0.0
C3294 C 0.99063 0.58479 0.69956 0.0
C3295 C 0.01279 0.62593 0.7606 0.0
C3296 C 0.99447 0.56856 0.76504 0.0
C3297 C 0.01114 0.57031 0.76522 0.0
C3298 C 0.99117 0.57978 0.75353 0.0
C3299 C 0.00471 0.59281 0.74138 0.0
C3300 C 0.02138 0.59432 0.7409 0.0
C3301 C 0.02446 0.58325 0.75302 0.0
C3302 C 0.9733 0.57793 0.75475 0.0
C3303 C 0.03607 0.60783 0.72784 0.0
H3304 H 0.98564 0.61022 0.68488 0.0
H3305 H 0.00559 0.64535 0.73572 0.0
H3306 H 0.00255 0.5837 0.69902 0.0
H3307 H 0.98051 0.57344 0.70825 0.0
H3308 H 0.9859 0.58401 0.68377 0.0
H3309 H 0.01494 0.63877 0.76571 0.0
H3310 H 0.00356 0.61581 0.77138 0.0
H3311 H 0.02539 0.62619 0.76145 0.0
H3312 H 0.98391 0.55839 0.77393 0.0
H3313 H 0.03747 0.58501 0.75318 0.0
H3314 H 0.96748 0.57562 0.73936 0.0
H3315 H 0.97451 0.59021 0.76059 0.0
H3316 H 0.96416 0.56708 0.76485 0.0
H3317 H 0.03159 0.60697 0.71194 0.0
H3318 H 0.04775 0.60632 0.72776 0.0
H3319 H 0.04002 0.62106 0.73355 0.0
C3320 C 0.37171 0.37925 0.6986 0.0
C3321 C 0.35526 0.36706 0.7066 0.0
C3322 C 0.38217 0.39537 0.70823 0.0
C3323 C 0.37616 0.39921 0.72647 0.0
C3324 C 0.35951 0.387 0.73453 0.0
C3325 C 0.34919 0.37113 0.72438 0.0
C3326 C 0.39974 0.4082 0.69902 0.0
C3327 C 0.35279 0.39051 0.75414 0.0
C3328 C 0.41064 0.43195 0.76226 0.0
C3329 C 0.40951 0.44682 0.75878 0.0
C3330 C 0.39972 0.41632 0.75199 0.0
C3331 C 0.3876 0.41567 0.73764 0.0
C3332 C 0.38642 0.43068 0.73405 0.0
C3333 C 0.3973 0.44607 0.74485 0.0
C3334 C 0.40113 0.4005 0.75652 0.0
C3335 C 0.37384 0.43052 0.71864 0.0
H3336 H 0.3764 0.37619 0.68478 0.0
H3337 H 0.33652 0.36172 0.73068 0.0
H3338 H 0.40071 0.42099 0.69681 0.0
H3339 H 0.41035 0.41031 0.70955 0.0
H3340 H 0.40203 0.40367 0.68414 0.0
H3341 H 0.33939 0.37982 0.75812 0.0
H3342 H 0.3617 0.39214 0.76679 0.0
H3343 H 0.35262 0.40281 0.75295 0.0
H3344 H 0.42001 0.43254 0.77319 0.0
H3345 H 0.39656 0.45765 0.74209 0.0
H3346 H 0.4049 0.39615 0.74251 0.0
H3347 H 0.38823 0.38959 0.76161 0.0
H3348 H 0.41094 0.40309 0.76849 0.0
H3349 H 0.37666 0.427 0.70341 0.0
H3350 H 0.37464 0.44333 0.71753 0.0
H3351 H 0.36022 0.4205 0.72276 0.0
C3352 C 0.63084 0.0259 0.7155 0.0
C3353 C 0.63701 0.0155 0.70713 0.0
C3354 C 0.61556 0.01857 0.72743 0.0
C3355 C 0.6062 0.00041 0.73101 0.0
C3356 C 0.61234 0.98982 0.72266 0.0
C3357 C 0.62771 -0.0025 0.71083 0.0
C3358 C 0.60942 0.03029 0.73618 0.0
C3359 C 0.60263 0.97039 0.72615 0.0
C3360 C 0.57582 0.98592 0.77681 0.0
C3361 C 0.55977 0.98135 0.76781 0.0
C3362 C 0.59096 0.99157 0.76493 0.0
C3363 C 0.58998 0.99259 0.74355 0.0
C3364 C 0.57367 0.98724 0.73429 0.0
C3365 C 0.55874 0.9817 0.74655 0.0
C3366 C 0.60813 0.9971 0.77533 0.0
C3367 C 0.57213 0.98811 0.71151 0.0
H3368 H 0.63795 0.03981 0.71276 0.0
H3369 H 0.63236 0.98936 0.70439 0.0
H3370 H 0.59607 0.02611 0.73064 0.0
H3371 H 0.60864 0.02923 0.75302 0.0
H3372 H 0.61825 0.04416 0.73202 0.0
H3373 H 0.60917 0.964 0.7186 0.0
H3374 H 0.60159 0.96761 0.7427 0.0
H3375 H 0.5891 0.96444 0.72026 0.0
H3376 H 0.5766 0.98542 0.79323 0.0
H3377 H 0.5464 0.97835 0.73953 0.0
H3378 H 0.61715 0.01128 0.77315 0.0
H3379 H 0.61451 0.99033 0.76842 0.0
H3380 H 0.60643 0.99434 0.79192 0.0
H3381 H 0.57932 0.00191 0.70654 0.0
H3382 H 0.55829 0.9821 0.70659 0.0
H3383 H 0.57818 0.98143 0.70359 0.0
loop_
_geom_bond_atom_site_label_1
_geom_bond_atom_site_label_2
_geom_bond_distance
_geom_bond_site_symmetry_2
_ccdc_geom_bond_type
C0 O1 1.306 1_556 S
C0 O3 1.160 . S
O1 C0 1.306 1_554 S
O1 Cd2 2.228 . S
Cd2 O1 2.228 . S
Cd2 O6 2.273 . S
Cd2 O10 2.277 1_554 S
O3 C0 1.160 . S
O3 Cd4 2.203 1_656 S
Cd4 O3 2.203 1_454 S
Cd4 O6 2.411 1_455 S
Cd4 O7 2.333 . S
Cd4 O8 2.352 . S
Cd4 O12 2.277 1_554 S
Cd4 O13 2.356 . S
C5 O10 1.209 1_455 S
C5 O12 1.226 . S
O6 Cd2 2.273 . S
O6 Cd4 2.411 1_655 S
O6 C9 1.304 1_655 S
O7 Cd4 2.333 . S
O7 C9 1.257 . S
O8 Cd4 2.352 . S
O8 C11 1.258 . S
C9 O6 1.304 1_455 S
C9 O7 1.257 . S
O10 Cd2 2.277 1_556 S
O10 C5 1.209 1_655 S
C11 O8 1.258 . S
C11 O13 1.282 . S
O12 Cd4 2.277 1_556 S
O12 C5 1.226 . S
O13 Cd4 2.356 . S
O13 C11 1.282 . S
C14 O15 1.306 . S
C14 O17 1.160 . S
O15 C14 1.306 . S
O15 Cd16 2.228 . S
Cd16 O15 2.228 . S
Cd16 O20 2.273 1_554 S
Cd16 O24 2.277 . S
O17 C14 1.160 . S
O17 Cd18 2.203 . S
Cd18 O17 2.203 . S
Cd18 O20 2.411 1_554 S
Cd18 O21 2.333 1_554 S
Cd18 O22 2.352 1_554 S
Cd18 O26 2.277 . S
Cd18 O27 2.362 . S
C19 O24 1.209 . S
C19 O26 1.226 . S
O20 Cd16 2.273 1_556 S
O20 Cd18 2.411 1_556 S
O20 C23 1.320 . S
O21 Cd18 2.333 1_556 S
O21 C23 1.214 . S
O22 Cd18 2.352 1_556 S
O22 C25 1.258 . S
C23 O20 1.320 . S
C23 O21 1.214 . S
O24 Cd16 2.277 . S
O24 C19 1.209 . S
C25 O22 1.258 . S
C25 O27 1.269 1_556 S
O26 Cd18 2.277 . S
O26 C19 1.226 . S
O27 Cd18 2.362 . S
O27 C25 1.269 1_554 S
C28 O29 1.306 . S
C28 O31 1.160 . S
O29 C28 1.306 . S
O29 Cd30 2.228 . S
Cd30 O29 2.228 . S
Cd30 O34 2.273 1_554 S
Cd30 O38 2.277 . S
O31 C28 1.160 . S
O31 Cd32 2.203 1_565 S
Cd32 O31 2.203 1_545 S
Cd32 O34 2.411 1_544 S
Cd32 O35 2.333 1_554 S
Cd32 O36 2.352 1_554 S
Cd32 O40 2.277 . S
Cd32 O41 2.356 . S
C33 O38 1.209 1_545 S
C33 O40 1.226 . S
O34 Cd30 2.273 1_556 S
O34 Cd32 2.411 1_566 S
O34 C37 1.320 1_565 S
O35 Cd32 2.333 1_556 S
O35 C37 1.214 . S
O36 Cd32 2.352 1_556 S
O36 C39 1.258 . S
C37 O34 1.320 1_545 S
C37 O35 1.214 . S
O38 Cd30 2.277 . S
O38 C33 1.209 1_565 S
C39 O36 1.258 . S
C39 O41 1.282 1_556 S
O40 Cd32 2.277 . S
O40 C33 1.226 . S
O41 Cd32 2.356 . S
O41 C39 1.282 1_554 S
C42 O43 1.309 . S
C42 O45 1.160 . S
O43 C42 1.309 . S
O43 Cd44 2.226 1_556 S
Cd44 O43 2.226 1_554 S
Cd44 O48 2.273 . S
Cd44 O52 2.277 1_554 S
O45 C42 1.160 . S
O45 Cd46 2.203 1_656 S
Cd46 O45 2.203 1_454 S
Cd46 O48 2.411 1_455 S
Cd46 O49 2.333 . S
Cd46 O50 2.352 . S
Cd46 O54 2.277 1_554 S
Cd46 O55 2.356 . S
C47 O52 1.209 1_455 S
C47 O54 1.226 . S
O48 Cd44 2.273 . S
O48 Cd46 2.411 1_655 S
O48 C51 1.320 . S
O49 Cd46 2.333 . S
O49 C51 1.214 1_455 S
O50 Cd46 2.352 . S
O50 C53 1.258 . S
C51 O48 1.320 . S
C51 O49 1.214 1_655 S
O52 Cd44 2.277 1_556 S
O52 C47 1.209 1_655 S
C53 O50 1.258 . S
C53 O55 1.282 . S
O54 Cd46 2.277 1_556 S
O54 C47 1.226 . S
O55 Cd46 2.356 . S
O55 C53 1.282 . S
C56 O57 1.306 . S
C56 O59 1.160 . S
O57 C56 1.306 . S
O57 Cd58 2.228 . S
Cd58 O57 2.228 . S
Cd58 O62 2.273 1_554 S
Cd58 O66 2.277 . S
O59 C56 1.160 . S
O59 Cd60 2.203 . S
Cd60 O59 2.203 . S
Cd60 O62 2.411 1_554 S
Cd60 O63 2.333 1_554 S
Cd60 O64 2.352 1_554 S
Cd60 O68 2.277 . S
Cd60 O69 2.344 1_554 S
C61 O66 1.209 . S
C61 O68 1.226 . S
O62 Cd58 2.273 1_556 S
O62 Cd60 2.411 1_556 S
O62 C65 1.320 . S
O63 Cd60 2.333 1_556 S
O63 C65 1.214 . S
O64 Cd60 2.352 1_556 S
O64 C67 1.258 . S
C65 O62 1.320 . S
C65 O63 1.214 . S
O66 Cd58 2.277 . S
O66 C61 1.209 . S
C67 O64 1.258 . S
C67 O69 1.309 . S
O68 Cd60 2.277 . S
O68 C61 1.226 . S
O69 Cd60 2.344 1_556 S
O69 C67 1.309 . S
C70 O71 1.290 1_556 S
C70 O73 1.160 . S
O71 C70 1.290 1_554 S
O71 Cd72 2.238 . S
Cd72 O71 2.238 . S
Cd72 O76 2.273 . S
Cd72 O80 2.277 1_554 S
O73 C70 1.160 . S
O73 Cd74 2.203 1_546 S
Cd74 O73 2.203 1_564 S
Cd74 O76 2.411 1_565 S
Cd74 O77 2.333 . S
Cd74 O78 2.352 . S
Cd74 O82 2.277 1_554 S
Cd74 O83 2.356 . S
C75 O80 1.209 1_565 S
C75 O82 1.226 . S
O76 Cd72 2.273 . S
O76 Cd74 2.411 1_545 S
O76 C79 1.320 . S
O77 Cd74 2.333 . S
O77 C79 1.214 1_565 S
O78 Cd74 2.352 . S
O78 C81 1.258 . S
C79 O76 1.320 . S
C79 O77 1.214 1_545 S
O80 Cd72 2.277 1_556 S
O80 C75 1.209 1_545 S
C81 O78 1.258 . S
C81 O83 1.282 . S
O82 Cd74 2.277 1_556 S
O82 C75 1.226 . S
O83 Cd74 2.356 . S
O83 C81 1.282 . S
C84 O85 1.306 . S
C84 O87 1.160 . S
O85 C84 1.306 . S
O85 Cd86 2.228 . S
Cd86 O85 2.228 . S
Cd86 O90 2.273 . S
Cd86 O94 2.277 . S
O87 C84 1.160 . S
O87 Cd88 2.203 . S
Cd88 O87 2.203 . S
Cd88 O90 2.411 . S
Cd88 O91 2.333 . S
Cd88 O92 2.352 . S
Cd88 O96 2.277 . S
Cd88 O97 2.356 . S
C89 O94 1.209 . S
C89 O96 1.226 . S
O90 Cd86 2.273 . S
O90 Cd88 2.411 . S
O90 C93 1.320 . S
O91 Cd88 2.333 . S
O91 C93 1.214 . S
O92 Cd88 2.352 . S
O92 C95 1.258 . S
C93 O90 1.320 . S
C93 O91 1.214 . S
O94 Cd86 2.277 . S
O94 C89 1.209 . S
C95 O92 1.258 . S
C95 O97 1.282 . S
O96 Cd88 2.277 . S
O96 C89 1.226 . S
O97 Cd88 2.356 . S
O97 C95 1.282 . S
C98 O99 1.306 . S
C98 O101 1.160 . S
O99 C98 1.306 . S
O99 Cd100 2.228 1_545 S
Cd100 O99 2.228 1_565 S
Cd100 O104 2.273 . S
Cd100 O108 2.277 . S
O101 C98 1.160 . S
O101 Cd102 2.203 1_545 S
Cd102 O101 2.203 1_565 S
Cd102 O104 2.411 . S
Cd102 O105 2.333 . S
Cd102 O106 2.351 . S
Cd102 O110 2.277 . S
Cd102 O111 2.356 . S
C103 O108 1.209 . S
C103 O110 1.226 . S
O104 Cd100 2.273 . S
O104 Cd102 2.411 . S
O104 C107 1.320 . S
O105 Cd102 2.333 . S
O105 C107 1.214 . S
O106 Cd102 2.351 . S
O106 C109 1.256 . S
C107 O104 1.320 . S
C107 O105 1.214 . S
O108 Cd100 2.277 . S
O108 C103 1.209 . S
C109 O106 1.256 . S
C109 O111 1.282 . S
O110 Cd102 2.277 . S
O110 C103 1.226 . S
O111 Cd102 2.356 . S
O111 C109 1.282 . S
C112 O113 1.306 . S
C112 O115 1.160 1_655 S
O113 C112 1.306 . S
O113 Cd114 2.228 1_655 S
Cd114 O113 2.228 1_455 S
Cd114 O118 2.273 . S
Cd114 O122 2.277 . S
O115 C112 1.160 1_455 S
O115 Cd116 2.237 . S
Cd116 O115 2.237 . S
Cd116 O118 2.411 . S
Cd116 O119 2.333 . S
Cd116 O120 2.352 . S
Cd116 O124 2.277 . S
Cd116 O125 2.356 . S
C117 O122 1.209 . S
C117 O124 1.226 . S
O118 Cd114 2.273 . S
O118 Cd116 2.411 . S
O118 C121 1.320 . S
O119 Cd116 2.333 . S
O119 C121 1.214 . S
O120 Cd116 2.352 . S
O120 C123 1.258 . S
C121 O118 1.320 . S
C121 O119 1.214 . S
O122 Cd114 2.277 . S
O122 C117 1.209 . S
C123 O120 1.258 . S
C123 O125 1.282 . S
O124 Cd116 2.277 . S
O124 C117 1.226 . S
O125 Cd116 2.356 . S
O125 C123 1.282 . S
C126 O127 1.306 . S
C126 O129 1.160 . S
O127 C126 1.306 . S
O127 Cd128 2.228 . S
Cd128 O127 2.228 . S
Cd128 O132 2.273 . S
Cd128 O136 2.277 . S
O129 C126 1.160 . S
O129 Cd130 2.203 . S
Cd130 O129 2.203 . S
Cd130 O132 2.411 . S
Cd130 O133 2.333 . S
Cd130 O134 2.352 1_565 S
Cd130 O138 2.277 . S
Cd130 O139 2.356 1_565 S
C131 O136 1.209 . S
C131 O138 1.226 . S
O132 Cd128 2.273 . S
O132 Cd130 2.411 . S
O132 C135 1.320 . S
O133 Cd130 2.333 . S
O133 C135 1.214 . S
O134 Cd130 2.352 1_545 S
O134 C137 1.258 . S
C135 O132 1.320 . S
C135 O133 1.214 . S
O136 Cd128 2.277 . S
O136 C131 1.209 . S
C137 O134 1.258 . S
C137 O139 1.282 . S
O138 Cd130 2.277 . S
O138 C131 1.226 . S
O139 Cd130 2.356 1_545 S
O139 C137 1.282 . S
C140 O141 1.306 . S
C140 O143 1.160 . S
O141 C140 1.306 . S
O141 Cd142 2.228 1_655 S
Cd142 O141 2.228 1_455 S
Cd142 O146 2.273 . S
Cd142 O150 2.277 . S
O143 C140 1.160 . S
O143 Cd144 2.203 1_655 S
Cd144 O143 2.203 1_455 S
Cd144 O146 2.411 . S
Cd144 O147 2.333 . S
Cd144 O148 2.352 . S
Cd144 O152 2.277 . S
Cd144 O153 2.356 . S
C145 O150 1.209 . S
C145 O152 1.226 . S
O146 Cd142 2.273 . S
O146 Cd144 2.411 . S
O146 C149 1.320 . S
O147 Cd144 2.333 . S
O147 C149 1.214 . S
O148 Cd144 2.352 . S
O148 C151 1.258 . S
C149 O146 1.320 . S
C149 O147 1.214 . S
O150 Cd142 2.277 . S
O150 C145 1.209 . S
C151 O148 1.258 . S
C151 O153 1.282 . S
O152 Cd144 2.277 . S
O152 C145 1.226 . S
O153 Cd144 2.356 . S
O153 C151 1.282 . S
C154 O155 1.306 . S
C154 O157 1.160 . S
O155 C154 1.306 . S
O155 Cd156 2.228 . S
Cd156 O155 2.228 . S
Cd156 O160 2.273 . S
Cd156 O164 2.277 . S
O157 C154 1.160 . S
O157 Cd158 2.203 . S
Cd158 O157 2.203 . S
Cd158 O160 2.411 . S
Cd158 O161 2.333 . S
Cd158 O162 2.352 . S
Cd158 O166 2.277 . S
Cd158 O167 2.356 . S
C159 O164 1.209 . S
C159 O166 1.226 . S
O160 Cd156 2.273 . S
O160 Cd158 2.411 . S
O160 C163 1.320 . S
O161 Cd158 2.333 . S
O161 C163 1.214 . S
O162 Cd158 2.352 . S
O162 C165 1.258 . S
C163 O160 1.320 . S
C163 O161 1.214 . S
O164 Cd156 2.277 . S
O164 C159 1.209 . S
C165 O162 1.258 . S
C165 O167 1.282 . S
O166 Cd158 2.277 . S
O166 C159 1.226 . S
O167 Cd158 2.356 . S
O167 C165 1.282 . S
C168 O169 1.306 . S
C168 O171 1.160 . S
O169 C168 1.306 . S
O169 Cd170 2.228 1_565 S
Cd170 O169 2.228 1_545 S
Cd170 O174 2.273 . S
Cd170 O178 2.277 . S
O171 C168 1.160 . S
O171 Cd172 2.203 1_565 S
Cd172 O171 2.203 1_545 S
Cd172 O174 2.411 . S
Cd172 O175 2.333 . S
Cd172 O176 2.352 . S
Cd172 O180 2.277 . S
Cd172 O181 2.356 . S
C173 O178 1.209 . S
C173 O180 1.226 . S
O174 Cd170 2.273 . S
O174 Cd172 2.411 . S
O174 C177 1.320 . S
O175 Cd172 2.333 . S
O175 C177 1.214 . S
O176 Cd172 2.352 . S
O176 C179 1.258 . S
C177 O174 1.320 . S
C177 O175 1.214 . S
O178 Cd170 2.277 . S
O178 C173 1.209 . S
C179 O176 1.258 . S
C179 O181 1.282 . S
O180 Cd172 2.277 . S
O180 C173 1.226 . S
O181 Cd172 2.356 . S
O181 C179 1.282 . S
C182 O183 1.306 . S
C182 O185 1.184 . S
O183 C182 1.306 . S
O183 Cd184 2.228 . S
Cd184 O183 2.228 . S
Cd184 O188 2.273 . S
Cd184 O192 2.277 . S
O185 C182 1.184 . S
O185 Cd186 2.200 . S
Cd186 O185 2.200 . S
Cd186 O188 2.411 . S
Cd186 O189 2.333 . S
Cd186 O190 2.352 1_655 S
Cd186 O194 2.277 . S
Cd186 O195 2.356 1_655 S
C187 O192 1.209 . S
C187 O194 1.226 . S
O188 Cd184 2.273 . S
O188 Cd186 2.411 . S
O188 C191 1.320 . S
O189 Cd186 2.333 . S
O189 C191 1.214 . S
O190 Cd186 2.352 1_455 S
O190 C193 1.258 . S
C191 O188 1.320 . S
C191 O189 1.214 . S
O192 Cd184 2.277 . S
O192 C187 1.209 . S
C193 O190 1.258 . S
C193 O195 1.282 . S
O194 Cd186 2.277 . S
O194 C187 1.226 . S
O195 Cd186 2.356 1_455 S
O195 C193 1.282 . S
C196 O197 1.306 . S
C196 O199 1.160 . S
O197 C196 1.306 . S
O197 Cd198 2.228 . S
Cd198 O197 2.228 . S
Cd198 O202 2.273 . S
Cd198 O206 2.277 . S
O199 C196 1.160 . S
O199 Cd200 2.203 . S
Cd200 O199 2.203 . S
Cd200 O202 2.411 . S
Cd200 O203 2.333 . S
Cd200 O204 2.352 . S
Cd200 O208 2.277 . S
Cd200 O209 2.356 . S
C201 O206 1.209 . S
C201 O208 1.226 . S
O202 Cd198 2.273 . S
O202 Cd200 2.411 . S
O202 C205 1.320 . S
O203 Cd200 2.333 . S
O203 C205 1.214 . S
O204 Cd200 2.352 . S
O204 C207 1.258 . S
C205 O202 1.320 . S
C205 O203 1.214 . S
O206 Cd198 2.277 . S
O206 C201 1.209 . S
C207 O204 1.258 . S
C207 O209 1.282 . S
O208 Cd200 2.277 . S
O208 C201 1.226 . S
O209 Cd200 2.356 . S
O209 C207 1.282 . S
C210 O211 1.306 . S
C210 O213 1.160 . S
O211 C210 1.306 . S
O211 Cd212 2.228 . S
Cd212 O211 2.228 . S
Cd212 O216 2.273 . S
Cd212 O220 2.277 . S
O213 C210 1.160 . S
O213 Cd214 2.203 . S
Cd214 O213 2.203 . S
Cd214 O216 2.411 . S
Cd214 O217 2.333 . S
Cd214 O218 2.352 . S
Cd214 O222 2.277 . S
Cd214 O223 2.356 . S
C215 O220 1.209 . S
C215 O222 1.226 . S
O216 Cd212 2.273 . S
O216 Cd214 2.411 . S
O216 C219 1.320 . S
O217 Cd214 2.333 . S
O217 C219 1.214 . S
O218 Cd214 2.352 . S
O218 C221 1.258 . S
C219 O216 1.320 . S
C219 O217 1.214 . S
O220 Cd212 2.277 . S
O220 C215 1.209 . S
C221 O218 1.258 . S
C221 O223 1.282 . S
O222 Cd214 2.277 . S
O222 C215 1.226 . S
O223 Cd214 2.356 . S
O223 C221 1.282 . S
C224 O225 1.306 . S
C224 O227 1.160 . S
O225 C224 1.306 . S
O225 Cd226 2.228 . S
Cd226 O225 2.228 . S
Cd226 O230 2.273 . S
Cd226 O234 2.277 . S
O227 C224 1.160 . S
O227 Cd228 2.203 . S
Cd228 O227 2.203 . S
Cd228 O230 2.411 . S
Cd228 O231 2.333 . S
Cd228 O232 2.352 1_545 S
Cd228 O236 2.277 . S
Cd228 O237 2.356 1_545 S
C229 O234 1.209 . S
C229 O236 1.226 . S
O230 Cd226 2.273 . S
O230 Cd228 2.411 . S
O230 C233 1.320 . S
O231 Cd228 2.333 . S
O231 C233 1.214 . S
O232 Cd228 2.352 1_565 S
O232 C235 1.258 . S
C233 O230 1.320 . S
C233 O231 1.214 . S
O234 Cd226 2.277 . S
O234 C229 1.209 . S
C235 O232 1.258 . S
C235 O237 1.282 . S
O236 Cd228 2.277 . S
O236 C229 1.226 . S
O237 Cd228 2.356 1_565 S
O237 C235 1.282 . S
C238 O239 1.306 . S
C238 O241 1.160 . S
O239 C238 1.306 . S
O239 Cd240 2.228 1_455 S
Cd240 O239 2.228 1_655 S
Cd240 O244 2.273 . S
Cd240 O248 2.277 . S
O241 C238 1.160 . S
O241 Cd242 2.203 1_455 S
Cd242 O241 2.203 1_655 S
Cd242 O244 2.411 . S
Cd242 O245 2.333 . S
Cd242 O246 2.374 . S
Cd242 O250 2.277 . S
Cd242 O251 2.356 . S
C243 O248 1.209 . S
C243 O250 1.226 . S
O244 Cd240 2.273 . S
O244 Cd242 2.411 . S
O244 C247 1.320 . S
O245 Cd242 2.333 . S
O245 C247 1.214 . S
O246 Cd242 2.374 . S
O246 C249 1.260 . S
C247 O244 1.320 . S
C247 O245 1.214 . S
O248 Cd240 2.277 . S
O248 C243 1.209 . S
C249 O246 1.260 . S
C249 O251 1.282 . S
O250 Cd242 2.277 . S
O250 C243 1.226 . S
O251 Cd242 2.356 . S
O251 C249 1.282 . S
C252 C253 1.384 . S
C252 C254 1.384 . S
C252 H280 0.931 . S
C253 C252 1.384 . S
C253 C256 1.382 . S
C254 C252 1.384 . S
C254 C255 1.381 . S
C254 H281 0.930 . S
C255 C254 1.381 . S
C255 C257 1.381 . S
C255 C258 1.487 . S
C256 C253 1.382 . S
C256 C257 1.387 . S
C256 H282 0.930 . S
C257 C255 1.381 . S
C257 C256 1.387 . S
C257 H283 0.931 . S
C258 C255 1.487 . S
C258 C265 1.399 . S
C258 N296 1.343 . S
C259 C260 1.384 . S
C259 C261 1.384 . S
C259 H284 0.931 . S
C260 C259 1.384 . S
C260 C263 1.382 . S
C261 C259 1.384 . S
C261 C262 1.381 . S
C261 H285 0.930 . S
C262 C261 1.381 . S
C262 C264 1.381 . S
C262 C265 1.487 . S
C263 C260 1.382 . S
C263 C264 1.387 . S
C263 H286 0.930 . S
C264 C262 1.381 . S
C264 C263 1.387 . S
C264 H287 0.931 . S
C265 C258 1.399 . S
C265 C262 1.487 . S
C265 N297 1.343 . S
C266 C267 1.384 . S
C266 C268 1.384 . S
C266 H288 0.931 . S
C267 C266 1.384 . S
C267 C270 1.382 . S
C268 C266 1.384 . S
C268 C269 1.381 . S
C268 H289 0.930 . S
C269 C268 1.381 . S
C269 C271 1.381 . S
C269 C272 1.487 . S
C270 C267 1.382 . S
C270 C271 1.387 . S
C270 H290 0.930 . S
C271 C269 1.381 . S
C271 C270 1.387 . S
C271 H291 0.931 . S
C272 C269 1.487 . S
C272 C279 1.399 . S
C272 N297 1.343 . S
C273 C274 1.384 . S
C273 C275 1.384 . S
C273 H292 0.931 . S
C274 C273 1.384 . S
C274 C277 1.382 . S
C275 C273 1.384 . S
C275 C276 1.381 . S
C275 H293 0.930 . S
C276 C275 1.381 . S
C276 C278 1.381 . S
C276 C279 1.487 . S
C277 C274 1.382 . S
C277 C278 1.387 . S
C277 H294 0.930 . S
C278 C276 1.381 . S
C278 C277 1.387 . S
C278 H295 0.931 . S
C279 C272 1.399 . S
C279 C276 1.487 . S
C279 N296 1.343 . S
H280 C252 0.931 . S
H281 C254 0.930 . S
H282 C256 0.930 . S
H283 C257 0.931 . S
H284 C259 0.931 . S
H285 C261 0.930 . S
H286 C263 0.930 . S
H287 C264 0.931 . S
H288 C266 0.931 . S
H289 C268 0.930 . S
H290 C270 0.930 . S
H291 C271 0.931 . S
H292 C273 0.931 . S
H293 C275 0.930 . S
H294 C277 0.930 . S
H295 C278 0.931 . S
N296 C258 1.343 . S
N296 C279 1.343 . S
N297 C265 1.343 . S
N297 C272 1.343 . S
C298 C299 1.384 . S
C298 C300 1.384 . S
C298 H326 0.931 . S
C299 C298 1.384 . S
C299 C302 1.382 . S
C300 C298 1.384 . S
C300 C301 1.381 . S
C300 H327 0.930 . S
C301 C300 1.381 . S
C301 C303 1.381 . S
C301 C304 1.487 . S
C302 C299 1.382 . S
C302 C303 1.387 . S
C302 H328 0.930 . S
C303 C301 1.381 . S
C303 C302 1.387 . S
C303 H329 0.931 . S
C304 C301 1.487 . S
C304 C311 1.399 . S
C304 N342 1.343 . S
C305 C306 1.384 . S
C305 C307 1.384 . S
C305 H330 0.931 . S
C306 C305 1.384 . S
C306 C309 1.382 . S
C307 C305 1.384 . S
C307 C308 1.381 . S
C307 H331 0.930 . S
C308 C307 1.381 . S
C308 C310 1.381 . S
C308 C311 1.487 . S
C309 C306 1.382 . S
C309 C310 1.387 . S
C309 H332 0.930 . S
C310 C308 1.381 . S
C310 C309 1.387 . S
C310 H333 0.931 . S
C311 C304 1.399 . S
C311 C308 1.487 . S
C311 N343 1.343 . S
C312 C313 1.384 . S
C312 C314 1.384 . S
C312 H334 0.931 . S
C313 C312 1.384 . S
C313 C316 1.382 . S
C314 C312 1.384 . S
C314 C315 1.381 . S
C314 H335 0.930 . S
C315 C314 1.381 . S
C315 C317 1.381 . S
C315 C318 1.487 . S
C316 C313 1.382 . S
C316 C317 1.387 . S
C316 H336 0.930 . S
C317 C315 1.381 . S
C317 C316 1.387 . S
C317 H337 0.931 . S
C318 C315 1.487 . S
C318 C325 1.399 . S
C318 N343 1.343 . S
C319 C320 1.384 . S
C319 C321 1.384 . S
C319 H338 0.931 . S
C320 C319 1.384 . S
C320 C323 1.382 . S
C321 C319 1.384 . S
C321 C322 1.381 . S
C321 H339 0.930 . S
C322 C321 1.381 . S
C322 C324 1.381 . S
C322 C325 1.487 . S
C323 C320 1.382 . S
C323 C324 1.387 . S
C323 H340 0.930 . S
C324 C322 1.381 . S
C324 C323 1.387 . S
C324 H341 0.931 . S
C325 C318 1.399 . S
C325 C322 1.487 . S
C325 N342 1.343 . S
H326 C298 0.931 . S
H327 C300 0.930 . S
H328 C302 0.930 . S
H329 C303 0.931 . S
H330 C305 0.931 . S
H331 C307 0.930 . S
H332 C309 0.930 . S
H333 C310 0.931 . S
H334 C312 0.931 . S
H335 C314 0.930 . S
H336 C316 0.930 . S
H337 C317 0.931 . S
H338 C319 0.931 . S
H339 C321 0.930 . S
H340 C323 0.930 . S
H341 C324 0.931 . S
N342 C304 1.343 . S
N342 C325 1.343 . S
N343 C311 1.343 . S
N343 C318 1.343 . S
C344 C345 1.384 . S
C344 C346 1.384 . S
C344 H372 0.931 . S
C345 C344 1.384 . S
C345 C348 1.382 . S
C346 C344 1.384 . S
C346 C347 1.381 . S
C346 H373 0.930 . S
C347 C346 1.381 . S
C347 C349 1.381 . S
C347 C350 1.487 . S
C348 C345 1.382 . S
C348 C349 1.387 . S
C348 H374 0.930 . S
C349 C347 1.381 . S
C349 C348 1.387 . S
C349 H375 0.931 . S
C350 C347 1.487 . S
C350 C357 1.399 . S
C350 N388 1.343 . S
C351 C352 1.384 . S
C351 C353 1.384 . S
C351 H376 0.931 . S
C352 C351 1.384 . S
C352 C355 1.382 . S
C353 C351 1.384 . S
C353 C354 1.381 . S
C353 H377 0.930 . S
C354 C353 1.381 . S
C354 C356 1.381 . S
C354 C357 1.487 . S
C355 C352 1.382 . S
C355 C356 1.387 . S
C355 H378 0.930 . S
C356 C354 1.381 . S
C356 C355 1.387 . S
C356 H379 0.931 . S
C357 C350 1.399 . S
C357 C354 1.487 . S
C357 N389 1.343 . S
C358 C359 1.384 . S
C358 C360 1.384 . S
C358 H380 0.931 . S
C359 C358 1.384 . S
C359 C362 1.382 . S
C360 C358 1.384 . S
C360 C361 1.381 . S
C360 H381 0.930 . S
C361 C360 1.381 . S
C361 C363 1.381 . S
C361 C364 1.487 . S
C362 C359 1.382 . S
C362 C363 1.387 . S
C362 H382 0.930 . S
C363 C361 1.381 . S
C363 C362 1.387 . S
C363 H383 0.931 . S
C364 C361 1.487 . S
C364 C371 1.399 . S
C364 N389 1.343 . S
C365 C366 1.384 . S
C365 C367 1.384 . S
C365 H384 0.931 . S
C366 C365 1.384 . S
C366 C369 1.382 . S
C367 C365 1.384 . S
C367 C368 1.381 . S
C367 H385 0.930 . S
C368 C367 1.381 . S
C368 C370 1.381 . S
C368 C371 1.487 . S
C369 C366 1.382 . S
C369 C370 1.387 . S
C369 H386 0.930 . S
C370 C368 1.381 . S
C370 C369 1.387 . S
C370 H387 0.931 . S
C371 C364 1.399 . S
C371 C368 1.487 . S
C371 N388 1.343 . S
H372 C344 0.931 . S
H373 C346 0.930 . S
H374 C348 0.930 . S
H375 C349 0.931 . S
H376 C351 0.931 . S
H377 C353 0.930 . S
H378 C355 0.930 . S
H379 C356 0.931 . S
H380 C358 0.931 . S
H381 C360 0.930 . S
H382 C362 0.930 . S
H383 C363 0.931 . S
H384 C365 0.931 . S
H385 C367 0.930 . S
H386 C369 0.930 . S
H387 C370 0.931 . S
N388 C350 1.343 . S
N388 C371 1.343 . S
N389 C357 1.343 . S
N389 C364 1.343 . S
C390 C391 1.384 . S
C390 C392 1.384 . S
C390 H418 0.931 . S
C391 C390 1.384 . S
C391 C394 1.382 . S
C392 C390 1.384 . S
C392 C393 1.381 . S
C392 H419 0.930 . S
C393 C392 1.381 . S
C393 C395 1.381 . S
C393 C396 1.487 . S
C394 C391 1.382 . S
C394 C395 1.387 . S
C394 H420 0.930 . S
C395 C393 1.381 . S
C395 C394 1.387 . S
C395 H421 0.931 . S
C396 C393 1.487 . S
C396 C403 1.399 . S
C396 N434 1.343 . S
C397 C398 1.384 . S
C397 C399 1.384 . S
C397 H422 0.931 . S
C398 C397 1.384 . S
C398 C401 1.382 . S
C399 C397 1.384 . S
C399 C400 1.381 . S
C399 H423 0.930 . S
C400 C399 1.381 . S
C400 C402 1.381 . S
C400 C403 1.487 . S
C401 C398 1.382 . S
C401 C402 1.387 . S
C401 H424 0.930 . S
C402 C400 1.381 . S
C402 C401 1.387 . S
C402 H425 0.931 . S
C403 C396 1.399 . S
C403 C400 1.487 . S
C403 N435 1.343 . S
C404 C405 1.384 . S
C404 C406 1.384 . S
C404 H426 0.931 . S
C405 C404 1.384 . S
C405 C408 1.382 . S
C406 C404 1.384 . S
C406 C407 1.381 . S
C406 H427 0.930 . S
C407 C406 1.381 . S
C407 C409 1.381 . S
C407 C410 1.487 . S
C408 C405 1.382 . S
C408 C409 1.387 . S
C408 H428 0.930 . S
C409 C407 1.381 . S
C409 C408 1.387 . S
C409 H429 0.931 . S
C410 C407 1.487 . S
C410 C417 1.399 . S
C410 N435 1.343 . S
C411 C412 1.384 . S
C411 C413 1.384 . S
C411 H430 0.931 . S
C412 C411 1.384 . S
C412 C415 1.382 . S
C413 C411 1.384 . S
C413 C414 1.381 . S
C413 H431 0.930 . S
C414 C413 1.381 . S
C414 C416 1.381 . S
C414 C417 1.487 . S
C415 C412 1.382 . S
C415 C416 1.387 . S
C415 H432 0.930 . S
C416 C414 1.381 . S
C416 C415 1.387 . S
C416 H433 0.931 . S
C417 C410 1.399 . S
C417 C414 1.487 . S
C417 N434 1.343 . S
H418 C390 0.931 . S
H419 C392 0.930 . S
H420 C394 0.930 . S
H421 C395 0.931 . S
H422 C397 0.931 . S
H423 C399 0.930 . S
H424 C401 0.930 . S
H425 C402 0.931 . S
H426 C404 0.931 . S
H427 C406 0.930 . S
H428 C408 0.930 . S
H429 C409 0.931 . S
H430 C411 0.931 . S
H431 C413 0.930 . S
H432 C415 0.930 . S
H433 C416 0.931 . S
N434 C396 1.343 . S
N434 C417 1.343 . S
N435 C403 1.343 . S
N435 C410 1.343 . S
C436 C437 1.384 . S
C436 C438 1.384 . S
C436 H464 0.931 . S
C437 C436 1.384 . S
C437 C440 1.382 . S
C438 C436 1.384 . S
C438 C439 1.381 . S
C438 H465 0.930 . S
C439 C438 1.381 . S
C439 C441 1.381 . S
C439 C442 1.487 . S
C440 C437 1.382 . S
C440 C441 1.387 . S
C440 H466 0.930 . S
C441 C439 1.381 . S
C441 C440 1.387 . S
C441 H467 0.931 . S
C442 C439 1.487 . S
C442 C449 1.399 . S
C442 N480 1.343 . S
C443 C444 1.384 . S
C443 C445 1.384 . S
C443 H468 0.931 . S
C444 C443 1.384 . S
C444 C447 1.382 . S
C445 C443 1.384 . S
C445 C446 1.381 . S
C445 H469 0.930 . S
C446 C445 1.381 . S
C446 C448 1.381 . S
C446 C449 1.487 . S
C447 C444 1.382 . S
C447 C448 1.387 . S
C447 H470 0.930 . S
C448 C446 1.381 . S
C448 C447 1.387 . S
C448 H471 0.931 . S
C449 C442 1.399 . S
C449 C446 1.487 . S
C449 N481 1.343 . S
C450 C451 1.384 . S
C450 C452 1.384 . S
C450 H472 0.931 . S
C451 C450 1.384 . S
C451 C454 1.382 . S
C452 C450 1.384 . S
C452 C453 1.381 . S
C452 H473 0.930 . S
C453 C452 1.381 . S
C453 C455 1.381 . S
C453 C456 1.487 . S
C454 C451 1.382 . S
C454 C455 1.387 . S
C454 H474 0.930 . S
C455 C453 1.381 . S
C455 C454 1.387 . S
C455 H475 0.931 . S
C456 C453 1.487 . S
C456 C463 1.399 . S
C456 N481 1.343 . S
C457 C458 1.384 . S
C457 C459 1.384 . S
C457 H476 0.931 . S
C458 C457 1.384 . S
C458 C461 1.382 . S
C459 C457 1.384 . S
C459 C460 1.381 . S
C459 H477 0.930 . S
C460 C459 1.381 . S
C460 C462 1.381 . S
C460 C463 1.487 . S
C461 C458 1.382 . S
C461 C462 1.387 . S
C461 H478 0.930 . S
C462 C460 1.381 . S
C462 C461 1.387 . S
C462 H479 0.931 . S
C463 C456 1.399 . S
C463 C460 1.487 . S
C463 N480 1.343 . S
H464 C436 0.931 . S
H465 C438 0.930 . S
H466 C440 0.930 . S
H467 C441 0.931 . S
H468 C443 0.931 . S
H469 C445 0.930 . S
H470 C447 0.930 . S
H471 C448 0.931 . S
H472 C450 0.931 . S
H473 C452 0.930 . S
H474 C454 0.930 . S
H475 C455 0.931 . S
H476 C457 0.931 . S
H477 C459 0.930 . S
H478 C461 0.930 . S
H479 C462 0.931 . S
N480 C442 1.343 . S
N480 C463 1.343 . S
N481 C449 1.343 . S
N481 C456 1.343 . S
C482 C483 1.384 . S
C482 C484 1.384 . S
C482 H510 0.931 . S
C483 C482 1.384 . S
C483 C486 1.382 . S
C484 C482 1.384 . S
C484 C485 1.381 . S
C484 H511 0.930 . S
C485 C484 1.381 . S
C485 C487 1.381 . S
C485 C488 1.487 . S
C486 C483 1.382 . S
C486 C487 1.387 . S
C486 H512 0.930 . S
C487 C485 1.381 . S
C487 C486 1.387 . S
C487 H513 0.931 . S
C488 C485 1.487 . S
C488 C495 1.399 . S
C488 N526 1.343 . S
C489 C490 1.384 . S
C489 C491 1.384 . S
C489 H514 0.931 . S
C490 C489 1.384 . S
C490 C493 1.382 . S
C491 C489 1.384 . S
C491 C492 1.381 . S
C491 H515 0.930 . S
C492 C491 1.381 . S
C492 C494 1.381 . S
C492 C495 1.487 . S
C493 C490 1.382 . S
C493 C494 1.387 . S
C493 H516 0.930 . S
C494 C492 1.381 . S
C494 C493 1.387 . S
C494 H517 0.931 . S
C495 C488 1.399 . S
C495 C492 1.487 . S
C495 N527 1.343 . S
C496 C497 1.384 . S
C496 C498 1.384 . S
C496 H518 0.931 . S
C497 C496 1.384 . S
C497 C500 1.382 . S
C498 C496 1.384 . S
C498 C499 1.381 . S
C498 H519 0.930 . S
C499 C498 1.381 . S
C499 C501 1.381 . S
C499 C502 1.487 . S
C500 C497 1.382 . S
C500 C501 1.387 . S
C500 H520 0.930 . S
C501 C499 1.381 . S
C501 C500 1.387 . S
C501 H521 0.931 . S
C502 C499 1.487 . S
C502 C509 1.399 . S
C502 N527 1.343 . S
C503 C504 1.384 . S
C503 C505 1.384 . S
C503 H522 0.931 . S
C504 C503 1.384 . S
C504 C507 1.382 . S
C505 C503 1.384 . S
C505 C506 1.381 . S
C505 H523 0.930 . S
C506 C505 1.381 . S
C506 C508 1.381 . S
C506 C509 1.487 . S
C507 C504 1.382 . S
C507 C508 1.387 . S
C507 H524 0.930 . S
C508 C506 1.381 . S
C508 C507 1.387 . S
C508 H525 0.931 . S
C509 C502 1.399 . S
C509 C506 1.487 . S
C509 N526 1.343 . S
H510 C482 0.931 . S
H511 C484 0.930 . S
H512 C486 0.930 . S
H513 C487 0.931 . S
H514 C489 0.931 . S
H515 C491 0.930 . S
H516 C493 0.930 . S
H517 C494 0.931 . S
H518 C496 0.931 . S
H519 C498 0.930 . S
H520 C500 0.930 . S
H521 C501 0.931 . S
H522 C503 0.931 . S
H523 C505 0.930 . S
H524 C507 0.930 . S
H525 C508 0.931 . S
N526 C488 1.343 . S
N526 C509 1.343 . S
N527 C495 1.343 . S
N527 C502 1.343 . S
C528 C529 1.384 . S
C528 C530 1.384 . S
C528 H556 0.931 . S
C529 C528 1.384 . S
C529 C532 1.382 . S
C530 C528 1.384 . S
C530 C531 1.381 . S
C530 H557 0.930 . S
C531 C530 1.381 . S
C531 C533 1.381 . S
C531 C534 1.487 . S
C532 C529 1.382 . S
C532 C533 1.387 . S
C532 H558 0.930 . S
C533 C531 1.381 . S
C533 C532 1.387 . S
C533 H559 0.931 . S
C534 C531 1.487 . S
C534 C541 1.399 . S
C534 N572 1.343 . S
C535 C536 1.384 . S
C535 C537 1.384 . S
C535 H560 0.931 . S
C536 C535 1.384 . S
C536 C539 1.382 . S
C537 C535 1.384 . S
C537 C538 1.381 . S
C537 H561 0.930 . S
C538 C537 1.381 . S
C538 C540 1.381 . S
C538 C541 1.487 . S
C539 C536 1.382 . S
C539 C540 1.387 . S
C539 H562 0.930 . S
C540 C538 1.381 . S
C540 C539 1.387 . S
C540 H563 0.931 . S
C541 C534 1.399 . S
C541 C538 1.487 . S
C541 N573 1.343 . S
C542 C543 1.384 . S
C542 C544 1.384 . S
C542 H564 0.931 . S
C543 C542 1.384 . S
C543 C546 1.382 . S
C544 C542 1.384 . S
C544 C545 1.381 . S
C544 H565 0.930 . S
C545 C544 1.381 . S
C545 C547 1.381 . S
C545 C548 1.487 . S
C546 C543 1.382 . S
C546 C547 1.387 . S
C546 H566 0.930 . S
C547 C545 1.381 . S
C547 C546 1.387 . S
C547 H567 0.931 . S
C548 C545 1.487 . S
C548 C555 1.399 . S
C548 N573 1.343 . S
C549 C550 1.384 . S
C549 C551 1.384 . S
C549 H568 0.931 . S
C550 C549 1.384 . S
C550 C553 1.382 . S
C551 C549 1.384 . S
C551 C552 1.381 . S
C551 H569 0.930 . S
C552 C551 1.381 . S
C552 C554 1.381 . S
C552 C555 1.487 . S
C553 C550 1.382 . S
C553 C554 1.387 . S
C553 H570 0.930 . S
C554 C552 1.381 . S
C554 C553 1.387 . S
C554 H571 0.931 . S
C555 C548 1.399 . S
C555 C552 1.487 . S
C555 N572 1.343 . S
H556 C528 0.931 . S
H557 C530 0.930 . S
H558 C532 0.930 . S
H559 C533 0.931 . S
H560 C535 0.931 . S
H561 C537 0.930 . S
H562 C539 0.930 . S
H563 C540 0.931 . S
H564 C542 0.931 . S
H565 C544 0.930 . S
H566 C546 0.930 . S
H567 C547 0.931 . S
H568 C549 0.931 . S
H569 C551 0.930 . S
H570 C553 0.930 . S
H571 C554 0.931 . S
N572 C534 1.343 . S
N572 C555 1.343 . S
N573 C541 1.343 . S
N573 C548 1.343 . S
C574 C575 1.384 . S
C574 C576 1.384 . S
C574 H602 0.931 . S
C575 C574 1.384 . S
C575 C578 1.382 . S
C576 C574 1.384 . S
C576 C577 1.381 . S
C576 H603 0.930 . S
C577 C576 1.381 . S
C577 C579 1.381 . S
C577 C580 1.487 . S
C578 C575 1.382 . S
C578 C579 1.387 . S
C578 H604 0.930 . S
C579 C577 1.381 . S
C579 C578 1.387 . S
C579 H605 0.931 . S
C580 C577 1.487 . S
C580 C587 1.399 . S
C580 N618 1.343 . S
C581 C582 1.384 . S
C581 C583 1.384 . S
C581 H606 0.931 . S
C582 C581 1.384 . S
C582 C585 1.382 . S
C583 C581 1.384 . S
C583 C584 1.381 . S
C583 H607 0.930 . S
C584 C583 1.381 . S
C584 C586 1.381 . S
C584 C587 1.487 . S
C585 C582 1.382 . S
C585 C586 1.387 . S
C585 H608 0.930 . S
C586 C584 1.381 . S
C586 C585 1.387 . S
C586 H609 0.931 . S
C587 C580 1.399 . S
C587 C584 1.487 . S
C587 N619 1.343 . S
C588 C589 1.384 . S
C588 C590 1.384 . S
C588 H610 0.931 . S
C589 C588 1.384 . S
C589 C592 1.382 . S
C590 C588 1.384 . S
C590 C591 1.381 . S
C590 H611 0.930 . S
C591 C590 1.381 . S
C591 C593 1.381 . S
C591 C594 1.487 . S
C592 C589 1.382 . S
C592 C593 1.387 . S
C592 H612 0.930 . S
C593 C591 1.381 . S
C593 C592 1.387 . S
C593 H613 0.931 . S
C594 C591 1.487 . S
C594 C601 1.399 . S
C594 N619 1.343 . S
C595 C596 1.384 . S
C595 C597 1.384 . S
C595 H614 0.931 . S
C596 C595 1.384 . S
C596 C599 1.382 . S
C597 C595 1.384 . S
C597 C598 1.381 . S
C597 H615 0.930 . S
C598 C597 1.381 . S
C598 C600 1.381 . S
C598 C601 1.487 . S
C599 C596 1.382 . S
C599 C600 1.387 . S
C599 H616 0.930 . S
C600 C598 1.381 . S
C600 C599 1.387 . S
C600 H617 0.931 . S
C601 C594 1.399 . S
C601 C598 1.487 . S
C601 N618 1.343 . S
H602 C574 0.931 . S
H603 C576 0.930 . S
H604 C578 0.930 . S
H605 C579 0.931 . S
H606 C581 0.931 . S
H607 C583 0.930 . S
H608 C585 0.930 . S
H609 C586 0.931 . S
H610 C588 0.931 . S
H611 C590 0.930 . S
H612 C592 0.930 . S
H613 C593 0.931 . S
H614 C595 0.931 . S
H615 C597 0.930 . S
H616 C599 0.930 . S
H617 C600 0.931 . S
N618 C580 1.343 . S
N618 C601 1.343 . S
N619 C587 1.343 . S
N619 C594 1.343 . S
C620 C621 1.384 . S
C620 C622 1.384 . S
C620 H648 0.931 . S
C621 C620 1.384 . S
C621 C624 1.382 . S
C622 C620 1.384 . S
C622 C623 1.381 . S
C622 H649 0.930 . S
C623 C622 1.381 . S
C623 C625 1.381 . S
C623 C626 1.487 . S
C624 C621 1.382 . S
C624 C625 1.387 . S
C624 H650 0.930 . S
C625 C623 1.381 . S
C625 C624 1.387 . S
C625 H651 0.931 . S
C626 C623 1.487 . S
C626 C633 1.399 . S
C626 N664 1.343 . S
C627 C628 1.384 . S
C627 C629 1.384 . S
C627 H652 0.931 . S
C628 C627 1.384 . S
C628 C631 1.382 . S
C629 C627 1.384 . S
C629 C630 1.381 . S
C629 H653 0.930 . S
C630 C629 1.381 . S
C630 C632 1.381 . S
C630 C633 1.487 . S
C631 C628 1.382 . S
C631 C632 1.387 . S
C631 H654 0.930 . S
C632 C630 1.381 . S
C632 C631 1.387 . S
C632 H655 0.931 . S
C633 C626 1.399 . S
C633 C630 1.487 . S
C633 N665 1.343 . S
C634 C635 1.384 . S
C634 C636 1.384 . S
C634 H656 0.931 . S
C635 C634 1.384 . S
C635 C638 1.382 . S
C636 C634 1.384 . S
C636 C637 1.381 . S
C636 H657 0.930 . S
C637 C636 1.381 . S
C637 C639 1.381 . S
C637 C640 1.487 . S
C638 C635 1.382 . S
C638 C639 1.387 . S
C638 H658 0.930 . S
C639 C637 1.381 . S
C639 C638 1.387 . S
C639 H659 0.931 . S
C640 C637 1.487 . S
C640 C647 1.399 . S
C640 N665 1.343 . S
C641 C642 1.384 . S
C641 C643 1.384 . S
C641 H660 0.931 . S
C642 C641 1.384 . S
C642 C645 1.382 . S
C643 C641 1.384 . S
C643 C644 1.381 . S
C643 H661 0.930 . S
C644 C643 1.381 . S
C644 C646 1.381 . S
C644 C647 1.487 . S
C645 C642 1.382 . S
C645 C646 1.387 . S
C645 H662 0.930 . S
C646 C644 1.381 . S
C646 C645 1.387 . S
C646 H663 0.931 . S
C647 C640 1.399 . S
C647 C644 1.487 . S
C647 N664 1.343 . S
H648 C620 0.931 . S
H649 C622 0.930 . S
H650 C624 0.930 . S
H651 C625 0.931 . S
H652 C627 0.931 . S
H653 C629 0.930 . S
H654 C631 0.930 . S
H655 C632 0.931 . S
H656 C634 0.931 . S
H657 C636 0.930 . S
H658 C638 0.930 . S
H659 C639 0.931 . S
H660 C641 0.931 . S
H661 C643 0.930 . S
H662 C645 0.930 . S
H663 C646 0.931 . S
N664 C626 1.343 . S
N664 C647 1.343 . S
N665 C633 1.343 . S
N665 C640 1.343 . S
C666 C667 1.384 . S
C666 C668 1.384 . S
C666 H694 0.931 . S
C667 C666 1.384 . S
C667 C670 1.382 1_655 S
C668 C666 1.384 . S
C668 C669 1.404 . S
C668 H695 0.930 . S
C669 C668 1.404 . S
C669 C671 1.370 1_655 S
C669 C672 1.473 1_655 S
C670 C667 1.382 1_455 S
C670 C671 1.387 . S
C670 H696 0.930 . S
C671 C669 1.370 1_455 S
C671 C670 1.387 . S
C671 H697 0.931 . S
C672 C669 1.473 1_455 S
C672 C679 1.399 1_455 S
C672 N710 1.316 . S
C673 C674 1.384 . S
C673 C675 1.384 . S
C673 H698 0.931 . S
C674 C673 1.384 . S
C674 C677 1.382 1_455 S
C675 C673 1.384 . S
C675 C676 1.382 . S
C675 H699 0.930 . S
C676 C675 1.382 . S
C676 C678 1.379 1_455 S
C676 C679 1.492 1_455 S
C677 C674 1.382 1_655 S
C677 C678 1.387 . S
C677 H700 0.930 . S
C678 C676 1.379 1_655 S
C678 C677 1.387 . S
C678 H701 0.931 . S
C679 C672 1.399 1_655 S
C679 C676 1.492 1_655 S
C679 N711 1.361 . S
C680 C681 1.384 . S
C680 C682 1.384 . S
C680 H702 0.931 . S
C681 C680 1.384 . S
C681 C684 1.382 1_455 S
C682 C680 1.384 . S
C682 C683 1.420 . S
C682 H703 0.930 . S
C683 C682 1.420 . S
C683 C685 1.362 1_455 S
C683 C686 1.466 . S
C684 C681 1.382 1_655 S
C684 C685 1.387 . S
C684 H704 0.930 . S
C685 C683 1.362 1_655 S
C685 C684 1.387 . S
C685 H705 0.931 . S
C686 C683 1.466 . S
C686 C693 1.399 . S
C686 N711 1.323 1_455 S
C687 C688 1.384 . S
C687 C689 1.384 . S
C687 H706 0.931 . S
C688 C687 1.384 . S
C688 C691 1.382 1_655 S
C689 C687 1.384 . S
C689 C690 1.382 1_655 S
C689 H707 0.930 . S
C690 C689 1.382 1_455 S
C690 C692 1.379 . S
C690 C693 1.499 . S
C691 C688 1.382 1_455 S
C691 C692 1.387 . S
C691 H708 0.930 . S
C692 C690 1.379 . S
C692 C691 1.387 . S
C692 H709 0.931 . S
C693 C686 1.399 . S
C693 C690 1.499 . S
C693 N710 1.361 . S
H694 C666 0.931 . S
H695 C668 0.930 . S
H696 C670 0.930 . S
H697 C671 0.931 . S
H698 C673 0.931 . S
H699 C675 0.930 . S
H700 C677 0.930 . S
H701 C678 0.931 . S
H702 C680 0.931 . S
H703 C682 0.930 . S
H704 C684 0.930 . S
H705 C685 0.931 . S
H706 C687 0.931 . S
H707 C689 0.930 . S
H708 C691 0.930 . S
H709 C692 0.931 . S
N710 C672 1.316 . S
N710 C693 1.361 . S
N711 C679 1.361 . S
N711 C686 1.323 1_655 S
C712 C713 1.384 . S
C712 C714 1.384 . S
C712 H740 0.931 . S
C713 C712 1.384 . S
C713 C716 1.382 . S
C714 C712 1.384 . S
C714 C715 1.381 . S
C714 H741 0.930 . S
C715 C714 1.381 . S
C715 C717 1.381 . S
C715 C718 1.487 . S
C716 C713 1.382 . S
C716 C717 1.387 . S
C716 H742 0.930 . S
C717 C715 1.381 . S
C717 C716 1.387 . S
C717 H743 0.931 . S
C718 C715 1.487 . S
C718 C725 1.399 . S
C718 N756 1.343 . S
C719 C720 1.384 . S
C719 C721 1.384 . S
C719 H744 0.931 . S
C720 C719 1.384 . S
C720 C723 1.382 . S
C721 C719 1.384 . S
C721 C722 1.381 . S
C721 H745 0.930 . S
C722 C721 1.381 . S
C722 C724 1.381 . S
C722 C725 1.487 . S
C723 C720 1.382 . S
C723 C724 1.387 . S
C723 H746 0.930 . S
C724 C722 1.381 . S
C724 C723 1.387 . S
C724 H747 0.931 . S
C725 C718 1.399 . S
C725 C722 1.487 . S
C725 N757 1.343 . S
C726 C727 1.384 . S
C726 C728 1.384 . S
C726 H748 0.931 . S
C727 C726 1.384 . S
C727 C730 1.382 . S
C728 C726 1.384 . S
C728 C729 1.381 . S
C728 H749 0.930 . S
C729 C728 1.381 . S
C729 C731 1.381 . S
C729 C732 1.487 . S
C730 C727 1.382 . S
C730 C731 1.387 . S
C730 H750 0.930 . S
C731 C729 1.381 . S
C731 C730 1.387 . S
C731 H751 0.931 . S
C732 C729 1.487 . S
C732 C739 1.399 . S
C732 N757 1.343 . S
C733 C734 1.384 . S
C733 C735 1.384 . S
C733 H752 0.931 . S
C734 C733 1.384 . S
C734 C737 1.382 . S
C735 C733 1.384 . S
C735 C736 1.381 . S
C735 H753 0.930 . S
C736 C735 1.381 . S
C736 C738 1.381 . S
C736 C739 1.487 . S
C737 C734 1.382 . S
C737 C738 1.387 . S
C737 H754 0.930 . S
C738 C736 1.381 . S
C738 C737 1.387 . S
C738 H755 0.931 . S
C739 C732 1.399 . S
C739 C736 1.487 . S
C739 N756 1.343 . S
H740 C712 0.931 . S
H741 C714 0.930 . S
H742 C716 0.930 . S
H743 C717 0.931 . S
H744 C719 0.931 . S
H745 C721 0.930 . S
H746 C723 0.930 . S
H747 C724 0.931 . S
H748 C726 0.931 . S
H749 C728 0.930 . S
H750 C730 0.930 . S
H751 C731 0.931 . S
H752 C733 0.931 . S
H753 C735 0.930 . S
H754 C737 0.930 . S
H755 C738 0.931 . S
N756 C718 1.343 . S
N756 C739 1.343 . S
N757 C725 1.343 . S
N757 C732 1.343 . S
C758 C759 1.384 1_545 S
C758 C760 1.384 . S
C758 H786 0.931 . S
C759 C758 1.384 1_565 S
C759 C762 1.382 . S
C760 C758 1.384 . S
C760 C761 1.381 1_545 S
C760 H787 0.930 . S
C761 C760 1.381 1_565 S
C761 C763 1.381 . S
C761 C764 1.487 . S
C762 C759 1.382 . S
C762 C763 1.387 . S
C762 H788 0.930 . S
C763 C761 1.381 . S
C763 C762 1.387 . S
C763 H789 0.931 . S
C764 C761 1.487 . S
C764 C771 1.399 1_565 S
C764 N802 1.343 . S
C765 C766 1.384 1_565 S
C765 C767 1.384 . S
C765 H790 0.931 . S
C766 C765 1.384 1_545 S
C766 C769 1.382 . S
C767 C765 1.384 . S
C767 C768 1.381 1_565 S
C767 H791 0.930 . S
C768 C767 1.381 1_545 S
C768 C770 1.381 . S
C768 C771 1.487 . S
C769 C766 1.382 . S
C769 C770 1.387 . S
C769 H792 0.930 . S
C770 C768 1.381 . S
C770 C769 1.387 . S
C770 H793 0.931 . S
C771 C764 1.399 1_545 S
C771 C768 1.487 . S
C771 N803 1.343 . S
C772 C773 1.384 1_565 S
C772 C774 1.384 . S
C772 H794 0.931 . S
C773 C772 1.384 1_545 S
C773 C776 1.382 . S
C774 C772 1.384 . S
C774 C775 1.381 1_565 S
C774 H795 0.930 . S
C775 C774 1.381 1_545 S
C775 C777 1.381 . S
C775 C778 1.487 . S
C776 C773 1.382 . S
C776 C777 1.387 . S
C776 H796 0.930 . S
C777 C775 1.381 . S
C777 C776 1.387 . S
C777 H797 0.931 . S
C778 C775 1.487 . S
C778 C785 1.399 1_545 S
C778 N803 1.343 . S
C779 C780 1.384 1_545 S
C779 C781 1.384 . S
C779 H798 0.931 . S
C780 C779 1.384 1_565 S
C780 C783 1.382 . S
C781 C779 1.384 . S
C781 C782 1.381 1_545 S
C781 H799 0.930 . S
C782 C781 1.381 1_565 S
C782 C784 1.381 . S
C782 C785 1.487 . S
C783 C780 1.382 . S
C783 C784 1.387 . S
C783 H800 0.930 . S
C784 C782 1.381 . S
C784 C783 1.387 . S
C784 H801 0.931 . S
C785 C778 1.399 1_565 S
C785 C782 1.487 . S
C785 N802 1.343 . S
H786 C758 0.931 . S
H787 C760 0.930 . S
H788 C762 0.930 . S
H789 C763 0.931 . S
H790 C765 0.931 . S
H791 C767 0.930 . S
H792 C769 0.930 . S
H793 C770 0.931 . S
H794 C772 0.931 . S
H795 C774 0.930 . S
H796 C776 0.930 . S
H797 C777 0.931 . S
H798 C779 0.931 . S
H799 C781 0.930 . S
H800 C783 0.930 . S
H801 C784 0.931 . S
N802 C764 1.343 . S
N802 C785 1.343 . S
N803 C771 1.343 . S
N803 C778 1.343 . S
C804 C805 1.384 . S
C804 C806 1.384 . S
C804 H832 0.931 . S
C805 C804 1.384 . S
C805 C808 1.382 1_545 S
C806 C804 1.384 . S
C806 C807 1.381 . S
C806 H833 0.930 . S
C807 C806 1.381 . S
C807 C809 1.383 1_545 S
C807 C810 1.490 1_545 S
C808 C805 1.382 1_565 S
C808 C809 1.387 . S
C808 H834 0.930 . S
C809 C807 1.383 1_565 S
C809 C808 1.387 . S
C809 H835 0.931 . S
C810 C807 1.490 1_565 S
C810 C817 1.399 1_565 S
C810 N848 1.363 . S
C811 C812 1.384 . S
C811 C813 1.384 . S
C811 H836 0.931 . S
C812 C811 1.384 . S
C812 C815 1.382 1_565 S
C813 C811 1.384 . S
C813 C814 1.394 . S
C813 H837 0.930 . S
C814 C813 1.394 . S
C814 C816 1.375 1_565 S
C814 C817 1.476 1_565 S
C815 C812 1.382 1_545 S
C815 C816 1.387 . S
C815 H838 0.930 . S
C816 C814 1.375 1_545 S
C816 C815 1.387 . S
C816 H839 0.931 . S
C817 C810 1.399 1_545 S
C817 C814 1.476 1_545 S
C817 N849 1.314 . S
C818 C819 1.384 . S
C818 C820 1.384 . S
C818 H840 0.931 . S
C819 C818 1.384 . S
C819 C822 1.382 1_565 S
C820 C818 1.384 . S
C820 C821 1.381 1_565 S
C820 H841 0.930 . S
C821 C820 1.381 1_545 S
C821 C823 1.383 . S
C821 C824 1.498 . S
C822 C819 1.382 1_545 S
C822 C823 1.387 . S
C822 H842 0.930 . S
C823 C821 1.383 . S
C823 C822 1.387 . S
C823 H843 0.931 . S
C824 C821 1.498 . S
C824 C831 1.399 1_545 S
C824 N849 1.363 . S
C825 C826 1.384 . S
C825 C827 1.384 . S
C825 H844 0.931 . S
C826 C825 1.384 . S
C826 C829 1.382 1_545 S
C827 C825 1.384 . S
C827 C828 1.411 . S
C827 H845 0.930 . S
C828 C827 1.411 . S
C828 C830 1.366 1_545 S
C828 C831 1.476 1_545 S
C829 C826 1.382 1_565 S
C829 C830 1.387 . S
C829 H846 0.930 . S
C830 C828 1.366 1_565 S
C830 C829 1.387 . S
C830 H847 0.931 . S
C831 C824 1.399 1_565 S
C831 C828 1.476 1_565 S
C831 N848 1.314 . S
H832 C804 0.931 . S
H833 C806 0.930 . S
H834 C808 0.930 . S
H835 C809 0.931 . S
H836 C811 0.931 . S
H837 C813 0.930 . S
H838 C815 0.930 . S
H839 C816 0.931 . S
H840 C818 0.931 . S
H841 C820 0.930 . S
H842 C822 0.930 . S
H843 C823 0.931 . S
H844 C825 0.931 . S
H845 C827 0.930 . S
H846 C829 0.930 . S
H847 C830 0.931 . S
N848 C810 1.363 . S
N848 C831 1.314 . S
N849 C817 1.314 . S
N849 C824 1.363 . S
C850 C851 1.384 . S
C850 C852 1.384 . S
C850 H878 0.931 . S
C851 C850 1.384 . S
C851 C854 1.382 1_655 S
C852 C850 1.384 . S
C852 C853 1.413 . S
C852 H879 0.930 . S
C853 C852 1.413 . S
C853 C855 1.365 1_655 S
C853 C856 1.475 1_655 S
C854 C851 1.382 1_455 S
C854 C855 1.387 . S
C854 H880 0.930 . S
C855 C853 1.365 1_455 S
C855 C854 1.387 . S
C855 H881 0.931 . S
C856 C853 1.475 1_455 S
C856 C863 1.399 1_455 S
C856 N894 1.315 . S
C857 C858 1.384 . S
C857 C859 1.384 . S
C857 H882 0.931 . S
C858 C857 1.384 . S
C858 C861 1.382 1_455 S
C859 C857 1.384 . S
C859 C860 1.382 1_455 S
C859 H883 0.930 . S
C860 C859 1.382 1_655 S
C860 C862 1.381 . S
C860 C863 1.499 . S
C861 C858 1.382 1_655 S
C861 C862 1.387 . S
C861 H884 0.930 . S
C862 C860 1.381 . S
C862 C861 1.387 . S
C862 H885 0.931 . S
C863 C856 1.399 1_655 S
C863 C860 1.499 . S
C863 N895 1.363 . S
C864 C865 1.384 . S
C864 C866 1.384 . S
C864 H886 0.931 . S
C865 C864 1.384 . S
C865 C868 1.382 1_455 S
C866 C864 1.384 . S
C866 C867 1.396 . S
C866 H887 0.930 . S
C867 C866 1.396 . S
C867 C869 1.374 1_455 S
C867 C870 1.475 1_455 S
C868 C865 1.382 1_655 S
C868 C869 1.387 . S
C868 H888 0.930 . S
C869 C867 1.374 1_655 S
C869 C868 1.387 . S
C869 H889 0.931 . S
C870 C867 1.475 1_655 S
C870 C877 1.399 1_655 S
C870 N895 1.315 . S
C871 C872 1.384 . S
C871 C873 1.384 . S
C871 H890 0.931 . S
C872 C871 1.384 . S
C872 C875 1.382 1_655 S
C873 C871 1.384 . S
C873 C874 1.382 . S
C873 H891 0.930 . S
C874 C873 1.382 . S
C874 C876 1.381 1_655 S
C874 C877 1.491 1_655 S
C875 C872 1.382 1_455 S
C875 C876 1.387 . S
C875 H892 0.930 . S
C876 C874 1.381 1_455 S
C876 C875 1.387 . S
C876 H893 0.931 . S
C877 C870 1.399 1_455 S
C877 C874 1.491 1_455 S
C877 N894 1.363 . S
H878 C850 0.931 . S
H879 C852 0.930 . S
H880 C854 0.930 . S
H881 C855 0.931 . S
H882 C857 0.931 . S
H883 C859 0.930 . S
H884 C861 0.930 . S
H885 C862 0.931 . S
H886 C864 0.931 . S
H887 C866 0.930 . S
H888 C868 0.930 . S
H889 C869 0.931 . S
H890 C871 0.931 . S
H891 C873 0.930 . S
H892 C875 0.930 . S
H893 C876 0.931 . S
N894 C856 1.315 . S
N894 C877 1.363 . S
N895 C863 1.363 . S
N895 C870 1.315 . S
C896 C897 1.384 . S
C896 C898 1.384 . S
C896 H924 0.931 . S
C897 C896 1.384 . S
C897 C900 1.382 . S
C898 C896 1.384 . S
C898 C899 1.381 . S
C898 H925 0.930 . S
C899 C898 1.381 . S
C899 C901 1.381 . S
C899 C902 1.487 . S
C900 C897 1.382 . S
C900 C901 1.387 . S
C900 H926 0.930 . S
C901 C899 1.381 . S
C901 C900 1.387 . S
C901 H927 0.931 . S
C902 C899 1.487 . S
C902 C909 1.399 . S
C902 N940 1.343 . S
C903 C904 1.384 . S
C903 C905 1.384 . S
C903 H928 0.931 . S
C904 C903 1.384 . S
C904 C907 1.382 . S
C905 C903 1.384 . S
C905 C906 1.381 . S
C905 H929 0.930 . S
C906 C905 1.381 . S
C906 C908 1.381 . S
C906 C909 1.487 . S
C907 C904 1.382 . S
C907 C908 1.387 . S
C907 H930 0.930 . S
C908 C906 1.381 . S
C908 C907 1.387 . S
C908 H931 0.931 . S
C909 C902 1.399 . S
C909 C906 1.487 . S
C909 N941 1.343 . S
C910 C911 1.384 . S
C910 C912 1.384 . S
C910 H932 0.931 . S
C911 C910 1.384 . S
C911 C914 1.382 . S
C912 C910 1.384 . S
C912 C913 1.381 . S
C912 H933 0.930 . S
C913 C912 1.381 . S
C913 C915 1.381 . S
C913 C916 1.487 . S
C914 C911 1.382 . S
C914 C915 1.387 . S
C914 H934 0.930 . S
C915 C913 1.381 . S
C915 C914 1.387 . S
C915 H935 0.931 . S
C916 C913 1.487 . S
C916 C923 1.399 . S
C916 N941 1.343 . S
C917 C918 1.384 . S
C917 C919 1.384 . S
C917 H936 0.931 . S
C918 C917 1.384 . S
C918 C921 1.382 . S
C919 C917 1.384 . S
C919 C920 1.381 . S
C919 H937 0.930 . S
C920 C919 1.381 . S
C920 C922 1.381 . S
C920 C923 1.487 . S
C921 C918 1.382 . S
C921 C922 1.387 . S
C921 H938 0.930 . S
C922 C920 1.381 . S
C922 C921 1.387 . S
C922 H939 0.931 . S
C923 C916 1.399 . S
C923 C920 1.487 . S
C923 N940 1.343 . S
H924 C896 0.931 . S
H925 C898 0.930 . S
H926 C900 0.930 . S
H927 C901 0.931 . S
H928 C903 0.931 . S
H929 C905 0.930 . S
H930 C907 0.930 . S
H931 C908 0.931 . S
H932 C910 0.931 . S
H933 C912 0.930 . S
H934 C914 0.930 . S
H935 C915 0.931 . S
H936 C917 0.931 . S
H937 C919 0.930 . S
H938 C921 0.930 . S
H939 C922 0.931 . S
N940 C902 1.343 . S
N940 C923 1.343 . S
N941 C909 1.343 . S
N941 C916 1.343 . S
C942 C943 1.384 . S
C942 C944 1.384 . S
C942 H970 0.931 . S
C943 C942 1.384 . S
C943 C946 1.382 . S
C944 C942 1.384 . S
C944 C945 1.381 . S
C944 H971 0.930 . S
C945 C944 1.381 . S
C945 C947 1.381 . S
C945 C948 1.487 . S
C946 C943 1.382 . S
C946 C947 1.387 . S
C946 H972 0.930 . S
C947 C945 1.381 . S
C947 C946 1.387 . S
C947 H973 0.931 . S
C948 C945 1.487 . S
C948 C955 1.399 . S
C948 N986 1.343 . S
C949 C950 1.384 . S
C949 C951 1.384 . S
C949 H974 0.931 . S
C950 C949 1.384 . S
C950 C953 1.382 . S
C951 C949 1.384 . S
C951 C952 1.381 . S
C951 H975 0.930 . S
C952 C951 1.381 . S
C952 C954 1.381 . S
C952 C955 1.487 . S
C953 C950 1.382 . S
C953 C954 1.387 . S
C953 H976 0.930 . S
C954 C952 1.381 . S
C954 C953 1.387 . S
C954 H977 0.931 . S
C955 C948 1.399 . S
C955 C952 1.487 . S
C955 N987 1.343 . S
C956 C957 1.384 . S
C956 C958 1.384 . S
C956 H978 0.931 . S
C957 C956 1.384 . S
C957 C960 1.382 . S
C958 C956 1.384 . S
C958 C959 1.381 . S
C958 H979 0.930 . S
C959 C958 1.381 . S
C959 C961 1.381 . S
C959 C962 1.487 . S
C960 C957 1.382 . S
C960 C961 1.387 . S
C960 H980 0.930 . S
C961 C959 1.381 . S
C961 C960 1.387 . S
C961 H981 0.931 . S
C962 C959 1.487 . S
C962 C969 1.399 . S
C962 N987 1.343 . S
C963 C964 1.384 . S
C963 C965 1.384 . S
C963 H982 0.931 . S
C964 C963 1.384 . S
C964 C967 1.382 . S
C965 C963 1.384 . S
C965 C966 1.381 . S
C965 H983 0.930 . S
C966 C965 1.381 . S
C966 C968 1.381 . S
C966 C969 1.487 . S
C967 C964 1.382 . S
C967 C968 1.387 . S
C967 H984 0.930 . S
C968 C966 1.381 . S
C968 C967 1.387 . S
C968 H985 0.931 . S
C969 C962 1.399 . S
C969 C966 1.487 . S
C969 N986 1.343 . S
H970 C942 0.931 . S
H971 C944 0.930 . S
H972 C946 0.930 . S
H973 C947 0.931 . S
H974 C949 0.931 . S
H975 C951 0.930 . S
H976 C953 0.930 . S
H977 C954 0.931 . S
H978 C956 0.931 . S
H979 C958 0.930 . S
H980 C960 0.930 . S
H981 C961 0.931 . S
H982 C963 0.931 . S
H983 C965 0.930 . S
H984 C967 0.930 . S
H985 C968 0.931 . S
N986 C948 1.343 . S
N986 C969 1.343 . S
N987 C955 1.343 . S
N987 C962 1.343 . S
C988 C989 1.384 . S
C988 C990 1.384 . S
C988 H1016 0.931 . S
C989 C988 1.384 . S
C989 C992 1.382 . S
C990 C988 1.384 . S
C990 C991 1.381 . S
C990 H1017 0.930 . S
C991 C990 1.381 . S
C991 C993 1.381 . S
C991 C994 1.487 . S
C992 C989 1.382 . S
C992 C993 1.387 . S
C992 H1018 0.930 . S
C993 C991 1.381 . S
C993 C992 1.387 . S
C993 H1019 0.931 . S
C994 C991 1.487 . S
C994 C1001 1.399 . S
C994 N1032 1.343 . S
C995 C996 1.384 . S
C995 C997 1.384 . S
C995 H1020 0.931 . S
C996 C995 1.384 . S
C996 C999 1.382 . S
C997 C995 1.384 . S
C997 C998 1.381 . S
C997 H1021 0.930 . S
C998 C997 1.381 . S
C998 C1000 1.381 . S
C998 C1001 1.487 . S
C999 C996 1.382 . S
C999 C1000 1.387 . S
C999 H1022 0.930 . S
C1000 C998 1.381 . S
C1000 C999 1.387 . S
C1000 H1023 0.931 . S
C1001 C994 1.399 . S
C1001 C998 1.487 . S
C1001 N1033 1.343 . S
C1002 C1003 1.384 . S
C1002 C1004 1.384 . S
C1002 H1024 0.931 . S
C1003 C1002 1.384 . S
C1003 C1006 1.382 . S
C1004 C1002 1.384 . S
C1004 C1005 1.381 . S
C1004 H1025 0.930 . S
C1005 C1004 1.381 . S
C1005 C1007 1.381 . S
C1005 C1008 1.487 . S
C1006 C1003 1.382 . S
C1006 C1007 1.387 . S
C1006 H1026 0.930 . S
C1007 C1005 1.381 . S
C1007 C1006 1.387 . S
C1007 H1027 0.931 . S
C1008 C1005 1.487 . S
C1008 C1015 1.399 . S
C1008 N1033 1.343 . S
C1009 C1010 1.384 . S
C1009 C1011 1.384 . S
C1009 H1028 0.931 . S
C1010 C1009 1.384 . S
C1010 C1013 1.382 . S
C1011 C1009 1.384 . S
C1011 C1012 1.381 . S
C1011 H1029 0.930 . S
C1012 C1011 1.381 . S
C1012 C1014 1.381 . S
C1012 C1015 1.487 . S
C1013 C1010 1.382 . S
C1013 C1014 1.387 . S
C1013 H1030 0.930 . S
C1014 C1012 1.381 . S
C1014 C1013 1.387 . S
C1014 H1031 0.931 . S
C1015 C1008 1.399 . S
C1015 C1012 1.487 . S
C1015 N1032 1.343 . S
H1016 C988 0.931 . S
H1017 C990 0.930 . S
H1018 C992 0.930 . S
H1019 C993 0.931 . S
H1020 C995 0.931 . S
H1021 C997 0.930 . S
H1022 C999 0.930 . S
H1023 C1000 0.931 . S
H1024 C1002 0.931 . S
H1025 C1004 0.930 . S
H1026 C1006 0.930 . S
H1027 C1007 0.931 . S
H1028 C1009 0.931 . S
H1029 C1011 0.930 . S
H1030 C1013 0.930 . S
H1031 C1014 0.931 . S
N1032 C994 1.343 . S
N1032 C1015 1.343 . S
N1033 C1001 1.343 . S
N1033 C1008 1.343 . S
C1034 C1035 1.384 . S
C1034 C1036 1.384 . S
C1034 H1062 0.931 . S
C1035 C1034 1.384 . S
C1035 C1038 1.382 . S
C1036 C1034 1.384 . S
C1036 C1037 1.381 . S
C1036 H1063 0.930 . S
C1037 C1036 1.381 . S
C1037 C1039 1.381 . S
C1037 C1040 1.487 . S
C1038 C1035 1.382 . S
C1038 C1039 1.387 . S
C1038 H1064 0.930 . S
C1039 C1037 1.381 . S
C1039 C1038 1.387 . S
C1039 H1065 0.931 . S
C1040 C1037 1.487 . S
C1040 C1047 1.399 . S
C1040 N1078 1.343 . S
C1041 C1042 1.384 . S
C1041 C1043 1.384 . S
C1041 H1066 0.931 . S
C1042 C1041 1.384 . S
C1042 C1045 1.382 . S
C1043 C1041 1.384 . S
C1043 C1044 1.381 . S
C1043 H1067 0.930 . S
C1044 C1043 1.381 . S
C1044 C1046 1.381 . S
C1044 C1047 1.487 . S
C1045 C1042 1.382 . S
C1045 C1046 1.387 . S
C1045 H1068 0.930 . S
C1046 C1044 1.381 . S
C1046 C1045 1.387 . S
C1046 H1069 0.931 . S
C1047 C1040 1.399 . S
C1047 C1044 1.487 . S
C1047 N1079 1.343 . S
C1048 C1049 1.384 . S
C1048 C1050 1.384 . S
C1048 H1070 0.931 . S
C1049 C1048 1.384 . S
C1049 C1052 1.382 . S
C1050 C1048 1.384 . S
C1050 C1051 1.381 . S
C1050 H1071 0.930 . S
C1051 C1050 1.381 . S
C1051 C1053 1.381 . S
C1051 C1054 1.487 . S
C1052 C1049 1.382 . S
C1052 C1053 1.387 . S
C1052 H1072 0.930 . S
C1053 C1051 1.381 . S
C1053 C1052 1.387 . S
C1053 H1073 0.931 . S
C1054 C1051 1.487 . S
C1054 C1061 1.399 . S
C1054 N1079 1.343 . S
C1055 C1056 1.384 . S
C1055 C1057 1.384 . S
C1055 H1074 0.931 . S
C1056 C1055 1.384 . S
C1056 C1059 1.382 . S
C1057 C1055 1.384 . S
C1057 C1058 1.381 . S
C1057 H1075 0.930 . S
C1058 C1057 1.381 . S
C1058 C1060 1.381 . S
C1058 C1061 1.487 . S
C1059 C1056 1.382 . S
C1059 C1060 1.387 . S
C1059 H1076 0.930 . S
C1060 C1058 1.381 . S
C1060 C1059 1.387 . S
C1060 H1077 0.931 . S
C1061 C1054 1.399 . S
C1061 C1058 1.487 . S
C1061 N1078 1.343 . S
H1062 C1034 0.931 . S
H1063 C1036 0.930 . S
H1064 C1038 0.930 . S
H1065 C1039 0.931 . S
H1066 C1041 0.931 . S
H1067 C1043 0.930 . S
H1068 C1045 0.930 . S
H1069 C1046 0.931 . S
H1070 C1048 0.931 . S
H1071 C1050 0.930 . S
H1072 C1052 0.930 . S
H1073 C1053 0.931 . S
H1074 C1055 0.931 . S
H1075 C1057 0.930 . S
H1076 C1059 0.930 . S
H1077 C1060 0.931 . S
N1078 C1040 1.343 . S
N1078 C1061 1.343 . S
N1079 C1047 1.343 . S
N1079 C1054 1.343 . S
C1080 C1081 1.391 1_455 S
C1080 C1082 1.394 . S
C1080 H1096 0.931 . S
C1081 C1080 1.391 1_655 S
C1081 C1085 1.376 . S
C1082 C1080 1.394 . S
C1082 C1083 1.369 1_455 S
C1082 C1086 1.531 . S
C1083 C1082 1.369 1_655 S
C1083 C1084 1.410 . S
C1083 C1091 1.503 . S
C1084 C1083 1.410 . S
C1084 C1085 1.392 . S
C1084 C1087 1.511 . S
C1085 C1081 1.376 . S
C1085 C1084 1.392 . S
C1085 H1097 0.929 . S
C1086 C1082 1.531 . S
C1086 H1098 0.960 . S
C1086 H1099 0.962 . S
C1086 H1100 0.960 . S
C1087 C1084 1.511 . S
C1087 H1101 0.961 . S
C1087 H1102 0.961 . S
C1087 H1103 0.961 . S
C1088 C1089 1.370 . S
C1088 C1090 1.363 . S
C1088 H1104 0.931 . S
C1089 C1088 1.370 . S
C1089 C1093 1.409 . S
C1090 C1088 1.363 . S
C1090 C1091 1.370 . S
C1090 C1094 1.524 . S
C1091 C1083 1.503 . S
C1091 C1090 1.370 . S
C1091 C1092 1.414 1_655 S
C1092 C1091 1.414 1_455 S
C1092 C1093 1.395 1_455 S
C1092 C1095 1.537 . S
C1093 C1089 1.409 . S
C1093 C1092 1.395 1_655 S
C1093 H1105 0.927 1_655 S
C1094 C1090 1.524 . S
C1094 H1106 0.956 1_655 S
C1094 H1107 0.961 . S
C1094 H1108 0.961 . S
C1095 C1092 1.537 . S
C1095 H1109 0.958 . S
C1095 H1110 0.961 1_455 S
C1095 H1111 0.960 1_455 S
H1096 C1080 0.931 . S
H1097 C1085 0.929 . S
H1098 C1086 0.960 . S
H1099 C1086 0.962 . S
H1100 C1086 0.960 . S
H1101 C1087 0.961 . S
H1102 C1087 0.961 . S
H1103 C1087 0.961 . S
H1104 C1088 0.931 . S
H1105 C1093 0.927 1_455 S
H1106 C1094 0.956 1_455 S
H1107 C1094 0.961 . S
H1108 C1094 0.961 . S
H1109 C1095 0.958 . S
H1110 C1095 0.961 1_655 S
H1111 C1095 0.960 1_655 S
C1112 C1113 1.391 . S
C1112 C1114 1.394 . S
C1112 H1128 0.931 . S
C1113 C1112 1.391 . S
C1113 C1117 1.376 . S
C1114 C1112 1.394 . S
C1114 C1115 1.369 . S
C1114 C1118 1.531 . S
C1115 C1114 1.369 . S
C1115 C1116 1.410 . S
C1115 C1123 1.503 . S
C1116 C1115 1.410 . S
C1116 C1117 1.392 . S
C1116 C1119 1.511 . S
C1117 C1113 1.376 . S
C1117 C1116 1.392 . S
C1117 H1129 0.929 . S
C1118 C1114 1.531 . S
C1118 H1130 0.960 . S
C1118 H1131 0.962 . S
C1118 H1132 0.960 . S
C1119 C1116 1.511 . S
C1119 H1133 0.961 . S
C1119 H1134 0.961 . S
C1119 H1135 0.961 . S
C1120 C1121 1.370 . S
C1120 C1122 1.363 . S
C1120 H1136 0.931 . S
C1121 C1120 1.370 . S
C1121 C1125 1.408 . S
C1122 C1120 1.363 . S
C1122 C1123 1.370 . S
C1122 C1126 1.524 . S
C1123 C1115 1.503 . S
C1123 C1122 1.370 . S
C1123 C1124 1.403 . S
C1124 C1123 1.403 . S
C1124 C1125 1.404 . S
C1124 C1127 1.539 . S
C1125 C1121 1.408 . S
C1125 C1124 1.404 . S
C1125 H1137 0.930 . S
C1126 C1122 1.524 . S
C1126 H1138 0.956 . S
C1126 H1139 0.961 . S
C1126 H1140 0.961 . S
C1127 C1124 1.539 . S
C1127 H1141 0.958 . S
C1127 H1142 0.961 . S
C1127 H1143 0.960 . S
H1128 C1112 0.931 . S
H1129 C1117 0.929 . S
H1130 C1118 0.960 . S
H1131 C1118 0.962 . S
H1132 C1118 0.960 . S
H1133 C1119 0.961 . S
H1134 C1119 0.961 . S
H1135 C1119 0.961 . S
H1136 C1120 0.931 . S
H1137 C1125 0.930 . S
H1138 C1126 0.956 . S
H1139 C1126 0.961 . S
H1140 C1126 0.961 . S
H1141 C1127 0.958 . S
H1142 C1127 0.961 . S
H1143 C1127 0.960 . S
C1144 C1145 1.391 . S
C1144 C1146 1.394 . S
C1144 H1160 0.931 . S
C1145 C1144 1.391 . S
C1145 C1149 1.376 . S
C1146 C1144 1.394 . S
C1146 C1147 1.369 . S
C1146 C1150 1.531 . S
C1147 C1146 1.369 . S
C1147 C1148 1.410 . S
C1147 C1155 1.503 . S
C1148 C1147 1.410 . S
C1148 C1149 1.392 . S
C1148 C1151 1.511 1_545 S
C1149 C1145 1.376 . S
C1149 C1148 1.392 . S
C1149 H1161 0.929 1_545 S
C1150 C1146 1.531 . S
C1150 H1162 0.960 . S
C1150 H1163 0.962 . S
C1150 H1164 0.960 . S
C1151 C1148 1.511 1_565 S
C1151 H1165 0.961 . S
C1151 H1166 0.961 . S
C1151 H1167 0.924 1_565 S
C1152 C1153 1.370 1_565 S
C1152 C1154 1.363 . S
C1152 H1168 0.931 . S
C1153 C1152 1.370 1_545 S
C1153 C1157 1.408 . S
C1154 C1152 1.363 . S
C1154 C1155 1.370 1_565 S
C1154 C1158 1.524 . S
C1155 C1147 1.503 . S
C1155 C1154 1.370 1_545 S
C1155 C1156 1.403 . S
C1156 C1155 1.403 . S
C1156 C1157 1.404 . S
C1156 C1159 1.539 . S
C1157 C1153 1.408 . S
C1157 C1156 1.404 . S
C1157 H1169 0.930 . S
C1158 C1154 1.524 . S
C1158 H1170 0.956 . S
C1158 H1171 0.961 . S
C1158 H1172 0.961 . S
C1159 C1156 1.539 . S
C1159 H1173 0.958 . S
C1159 H1174 0.961 . S
C1159 H1175 0.960 . S
H1160 C1144 0.931 . S
H1161 C1149 0.929 1_565 S
H1162 C1150 0.960 . S
H1163 C1150 0.962 . S
H1164 C1150 0.960 . S
H1165 C1151 0.961 . S
H1166 C1151 0.961 . S
H1167 C1151 0.924 1_545 S
H1168 C1152 0.931 . S
H1169 C1157 0.930 . S
H1170 C1158 0.956 . S
H1171 C1158 0.961 . S
H1172 C1158 0.961 . S
H1173 C1159 0.958 . S
H1174 C1159 0.961 . S
H1175 C1159 0.960 . S
C1176 C1177 1.391 . S
C1176 C1178 1.394 . S
C1176 H1192 0.931 . S
C1177 C1176 1.391 . S
C1177 C1181 1.376 1_565 S
C1178 C1176 1.394 . S
C1178 C1179 1.369 . S
C1178 C1182 1.531 . S
C1179 C1178 1.369 . S
C1179 C1180 1.410 1_565 S
C1179 C1187 1.503 . S
C1180 C1179 1.410 1_545 S
C1180 C1181 1.392 . S
C1180 C1183 1.511 . S
C1181 C1177 1.376 1_545 S
C1181 C1180 1.392 . S
C1181 H1193 0.929 . S
C1182 C1178 1.531 . S
C1182 H1194 0.960 . S
C1182 H1195 0.962 . S
C1182 H1196 0.960 . S
C1183 C1180 1.511 . S
C1183 H1197 0.961 . S
C1183 H1198 0.961 . S
C1183 H1199 0.961 . S
C1184 C1185 1.370 . S
C1184 C1186 1.363 . S
C1184 H1200 0.931 . S
C1185 C1184 1.370 . S
C1185 C1189 1.413 . S
C1186 C1184 1.363 . S
C1186 C1187 1.370 . S
C1186 C1190 1.524 . S
C1187 C1179 1.503 . S
C1187 C1186 1.370 . S
C1187 C1188 1.403 . S
C1188 C1187 1.403 . S
C1188 C1189 1.401 . S
C1188 C1191 1.539 1_565 S
C1189 C1185 1.413 . S
C1189 C1188 1.401 . S
C1189 H1201 0.929 1_565 S
C1190 C1186 1.524 . S
C1190 H1202 0.956 . S
C1190 H1203 0.961 1_565 S
C1190 H1204 0.961 . S
C1191 C1188 1.539 1_545 S
C1191 H1205 0.958 1_545 S
C1191 H1206 0.961 . S
C1191 H1207 0.960 . S
H1192 C1176 0.931 . S
H1193 C1181 0.929 . S
H1194 C1182 0.960 . S
H1195 C1182 0.962 . S
H1196 C1182 0.960 . S
H1197 C1183 0.961 . S
H1198 C1183 0.961 . S
H1199 C1183 0.961 . S
H1200 C1184 0.931 . S
H1201 C1189 0.929 1_545 S
H1202 C1190 0.956 . S
H1203 C1190 0.961 1_545 S
H1204 C1190 0.961 . S
H1205 C1191 0.958 1_565 S
H1206 C1191 0.961 . S
H1207 C1191 0.960 . S
C1208 C1209 1.391 . S
C1208 C1210 1.394 . S
C1208 H1224 0.931 . S
C1209 C1208 1.391 . S
C1209 C1213 1.376 . S
C1210 C1208 1.394 . S
C1210 C1211 1.369 . S
C1210 C1214 1.531 1_455 S
C1211 C1210 1.369 . S
C1211 C1212 1.410 . S
C1211 C1219 1.503 . S
C1212 C1211 1.410 . S
C1212 C1213 1.392 . S
C1212 C1215 1.511 . S
C1213 C1209 1.376 . S
C1213 C1212 1.392 . S
C1213 H1225 0.929 . S
C1214 C1210 1.531 1_655 S
C1214 H1226 0.960 . S
C1214 H1227 0.962 1_655 S
C1214 H1228 0.960 . S
C1215 C1212 1.511 . S
C1215 H1229 0.961 . S
C1215 H1230 0.961 . S
C1215 H1231 0.961 1_455 S
C1216 C1217 1.370 . S
C1216 C1218 1.363 . S
C1216 H1232 0.931 . S
C1217 C1216 1.370 . S
C1217 C1221 1.408 1_455 S
C1218 C1216 1.363 . S
C1218 C1219 1.370 . S
C1218 C1222 1.524 . S
C1219 C1211 1.503 . S
C1219 C1218 1.370 . S
C1219 C1220 1.403 1_455 S
C1220 C1219 1.403 1_655 S
C1220 C1221 1.404 . S
C1220 C1223 1.539 . S
C1221 C1217 1.408 1_655 S
C1221 C1220 1.404 . S
C1221 H1233 0.930 . S
C1222 C1218 1.524 . S
C1222 H1234 0.956 . S
C1222 H1235 0.961 . S
C1222 H1236 0.961 . S
C1223 C1220 1.539 . S
C1223 H1237 0.958 . S
C1223 H1238 0.961 . S
C1223 H1239 0.960 . S
H1224 C1208 0.931 . S
H1225 C1213 0.929 . S
H1226 C1214 0.960 . S
H1227 C1214 0.962 1_455 S
H1228 C1214 0.960 . S
H1229 C1215 0.961 . S
H1230 C1215 0.961 . S
H1231 C1215 0.961 1_655 S
H1232 C1216 0.931 . S
H1233 C1221 0.930 . S
H1234 C1222 0.956 . S
H1235 C1222 0.961 . S
H1236 C1222 0.961 . S
H1237 C1223 0.958 . S
H1238 C1223 0.961 . S
H1239 C1223 0.960 . S
C1240 C1241 1.391 . S
C1240 C1242 1.394 . S
C1240 H1256 0.931 . S
C1241 C1240 1.391 . S
C1241 C1245 1.376 . S
C1242 C1240 1.394 . S
C1242 C1243 1.369 . S
C1242 C1246 1.531 . S
C1243 C1242 1.369 . S
C1243 C1244 1.410 . S
C1243 C1251 1.503 . S
C1244 C1243 1.410 . S
C1244 C1245 1.392 . S
C1244 C1247 1.511 . S
C1245 C1241 1.376 . S
C1245 C1244 1.392 . S
C1245 H1257 0.929 . S
C1246 C1242 1.531 . S
C1246 H1258 0.960 . S
C1246 H1259 0.962 . S
C1246 H1260 0.960 . S
C1247 C1244 1.511 . S
C1247 H1261 0.961 . S
C1247 H1262 0.961 . S
C1247 H1263 0.961 . S
C1248 C1249 1.370 . S
C1248 C1250 1.363 . S
C1248 H1264 0.931 . S
C1249 C1248 1.370 . S
C1249 C1253 1.408 . S
C1250 C1248 1.363 . S
C1250 C1251 1.370 . S
C1250 C1254 1.524 . S
C1251 C1243 1.503 . S
C1251 C1250 1.370 . S
C1251 C1252 1.403 . S
C1252 C1251 1.403 . S
C1252 C1253 1.404 . S
C1252 C1255 1.539 . S
C1253 C1249 1.408 . S
C1253 C1252 1.404 . S
C1253 H1265 0.930 . S
C1254 C1250 1.524 . S
C1254 H1266 0.956 . S
C1254 H1267 0.961 . S
C1254 H1268 0.961 . S
C1255 C1252 1.539 . S
C1255 H1269 0.958 . S
C1255 H1270 0.961 . S
C1255 H1271 0.960 . S
H1256 C1240 0.931 . S
H1257 C1245 0.929 . S
H1258 C1246 0.960 . S
H1259 C1246 0.962 . S
H1260 C1246 0.960 . S
H1261 C1247 0.961 . S
H1262 C1247 0.961 . S
H1263 C1247 0.961 . S
H1264 C1248 0.931 . S
H1265 C1253 0.930 . S
H1266 C1254 0.956 . S
H1267 C1254 0.961 . S
H1268 C1254 0.961 . S
H1269 C1255 0.958 . S
H1270 C1255 0.961 . S
H1271 C1255 0.960 . S
C1272 C1273 1.391 1_655 S
C1272 C1274 1.394 . S
C1272 H1288 0.931 . S
C1273 C1272 1.391 1_455 S
C1273 C1277 1.376 . S
C1274 C1272 1.394 . S
C1274 C1275 1.369 1_655 S
C1274 C1278 1.531 . S
C1275 C1274 1.369 1_455 S
C1275 C1276 1.410 . S
C1275 C1283 1.503 . S
C1276 C1275 1.410 . S
C1276 C1277 1.392 . S
C1276 C1279 1.511 . S
C1277 C1273 1.376 . S
C1277 C1276 1.392 . S
C1277 H1289 0.929 . S
C1278 C1274 1.531 . S
C1278 H1290 0.960 . S
C1278 H1291 0.962 . S
C1278 H1292 0.960 . S
C1279 C1276 1.511 . S
C1279 H1293 0.961 . S
C1279 H1294 0.961 . S
C1279 H1295 0.961 . S
C1280 C1281 1.370 1_655 S
C1280 C1282 1.363 . S
C1280 H1296 0.931 . S
C1281 C1280 1.370 1_455 S
C1281 C1285 1.408 . S
C1282 C1280 1.363 . S
C1282 C1283 1.370 1_655 S
C1282 C1286 1.524 . S
C1283 C1275 1.503 . S
C1283 C1282 1.370 1_455 S
C1283 C1284 1.403 . S
C1284 C1283 1.403 . S
C1284 C1285 1.404 . S
C1284 C1287 1.539 . S
C1285 C1281 1.408 . S
C1285 C1284 1.404 . S
C1285 H1297 0.930 . S
C1286 C1282 1.524 . S
C1286 H1298 0.956 . S
C1286 H1299 0.961 . S
C1286 H1300 0.961 . S
C1287 C1284 1.539 . S
C1287 H1301 0.958 . S
C1287 H1302 0.961 . S
C1287 H1303 0.960 . S
H1288 C1272 0.931 . S
H1289 C1277 0.929 . S
H1290 C1278 0.960 . S
H1291 C1278 0.962 . S
H1292 C1278 0.960 . S
H1293 C1279 0.961 . S
H1294 C1279 0.961 . S
H1295 C1279 0.961 . S
H1296 C1280 0.931 . S
H1297 C1285 0.930 . S
H1298 C1286 0.956 . S
H1299 C1286 0.961 . S
H1300 C1286 0.961 . S
H1301 C1287 0.958 . S
H1302 C1287 0.961 . S
H1303 C1287 0.960 . S
C1304 C1305 1.391 . S
C1304 C1306 1.394 . S
C1304 H1320 0.931 . S
C1305 C1304 1.391 . S
C1305 C1309 1.376 . S
C1306 C1304 1.394 . S
C1306 C1307 1.369 . S
C1306 C1310 1.531 . S
C1307 C1306 1.369 . S
C1307 C1308 1.410 . S
C1307 C1315 1.503 . S
C1308 C1307 1.410 . S
C1308 C1309 1.392 . S
C1308 C1311 1.511 . S
C1309 C1305 1.376 . S
C1309 C1308 1.392 . S
C1309 H1321 0.929 . S
C1310 C1306 1.531 . S
C1310 H1322 0.960 . S
C1310 H1323 0.962 . S
C1310 H1324 0.960 . S
C1311 C1308 1.511 . S
C1311 H1325 0.961 . S
C1311 H1326 0.961 . S
C1311 H1327 0.961 . S
C1312 C1313 1.370 . S
C1312 C1314 1.363 . S
C1312 H1328 0.931 . S
C1313 C1312 1.370 . S
C1313 C1317 1.408 . S
C1314 C1312 1.363 . S
C1314 C1315 1.370 . S
C1314 C1318 1.524 . S
C1315 C1307 1.503 . S
C1315 C1314 1.370 . S
C1315 C1316 1.403 . S
C1316 C1315 1.403 . S
C1316 C1317 1.404 . S
C1316 C1319 1.539 . S
C1317 C1313 1.408 . S
C1317 C1316 1.404 . S
C1317 H1329 0.930 . S
C1318 C1314 1.524 . S
C1318 H1330 0.956 . S
C1318 H1331 0.961 . S
C1318 H1332 0.961 . S
C1319 C1316 1.539 . S
C1319 H1333 0.958 . S
C1319 H1334 0.961 . S
C1319 H1335 0.960 . S
H1320 C1304 0.931 . S
H1321 C1309 0.929 . S
H1322 C1310 0.960 . S
H1323 C1310 0.962 . S
H1324 C1310 0.960 . S
H1325 C1311 0.961 . S
H1326 C1311 0.961 . S
H1327 C1311 0.961 . S
H1328 C1312 0.931 . S
H1329 C1317 0.930 . S
H1330 C1318 0.956 . S
H1331 C1318 0.961 . S
H1332 C1318 0.961 . S
H1333 C1319 0.958 . S
H1334 C1319 0.961 . S
H1335 C1319 0.960 . S
C1336 C1337 1.391 . S
C1336 C1338 1.394 . S
C1336 H1352 0.931 . S
C1337 C1336 1.391 . S
C1337 C1341 1.376 1_565 S
C1338 C1336 1.394 . S
C1338 C1339 1.367 . S
C1338 C1342 1.531 . S
C1339 C1338 1.367 . S
C1339 C1340 1.408 1_565 S
C1339 C1347 1.530 . S
C1340 C1339 1.408 1_545 S
C1340 C1341 1.392 . S
C1340 C1343 1.511 . S
C1341 C1337 1.376 1_545 S
C1341 C1340 1.392 . S
C1341 H1353 0.929 . S
C1342 C1338 1.531 . S
C1342 H1354 0.960 . S
C1342 H1355 0.962 . S
C1342 H1356 0.960 . S
C1343 C1340 1.511 . S
C1343 H1357 0.961 . S
C1343 H1358 0.961 . S
C1343 H1359 0.961 . S
C1344 C1345 1.370 . S
C1344 C1346 1.363 . S
C1344 H1360 0.931 . S
C1345 C1344 1.370 . S
C1345 C1349 1.408 1_565 S
C1346 C1344 1.363 . S
C1346 C1347 1.414 . S
C1346 C1350 1.524 . S
C1347 C1339 1.530 . S
C1347 C1346 1.414 . S
C1347 C1348 1.338 1_565 S
C1348 C1347 1.338 1_545 S
C1348 C1349 1.404 . S
C1348 C1351 1.539 . S
C1349 C1345 1.408 1_545 S
C1349 C1348 1.404 . S
C1349 H1361 0.930 . S
C1350 C1346 1.524 . S
C1350 H1362 0.956 . S
C1350 H1363 0.961 . S
C1350 H1364 0.961 . S
C1351 C1348 1.539 . S
C1351 H1365 0.958 . S
C1351 H1366 0.961 . S
C1351 H1367 0.960 . S
H1352 C1336 0.931 . S
H1353 C1341 0.929 . S
H1354 C1342 0.960 . S
H1355 C1342 0.962 . S
H1356 C1342 0.960 . S
H1357 C1343 0.961 . S
H1358 C1343 0.961 . S
H1359 C1343 0.961 . S
H1360 C1344 0.931 . S
H1361 C1349 0.930 . S
H1362 C1350 0.956 . S
H1363 C1350 0.961 . S
H1364 C1350 0.961 . S
H1365 C1351 0.958 . S
H1366 C1351 0.961 . S
H1367 C1351 0.960 . S
C1368 C1369 1.391 . S
C1368 C1370 1.394 . S
C1368 H1384 0.931 . S
C1369 C1368 1.391 . S
C1369 C1373 1.376 1_545 S
C1370 C1368 1.394 . S
C1370 C1371 1.390 . S
C1370 C1374 1.531 . S
C1371 C1370 1.390 . S
C1371 C1372 1.373 1_545 S
C1371 C1379 1.524 . S
C1372 C1371 1.373 1_565 S
C1372 C1373 1.392 . S
C1372 C1375 1.511 . S
C1373 C1369 1.376 1_565 S
C1373 C1372 1.392 . S
C1373 H1385 0.929 . S
C1374 C1370 1.531 . S
C1374 H1386 0.960 . S
C1374 H1387 0.962 . S
C1374 H1388 0.960 . S
C1375 C1372 1.511 . S
C1375 H1389 0.961 . S
C1375 H1390 0.961 . S
C1375 H1391 0.961 . S
C1376 C1377 1.370 . S
C1376 C1378 1.363 . S
C1376 H1392 0.931 . S
C1377 C1376 1.370 . S
C1377 C1381 1.408 1_545 S
C1378 C1376 1.363 . S
C1378 C1379 1.370 . S
C1378 C1382 1.524 . S
C1379 C1371 1.524 . S
C1379 C1378 1.370 . S
C1379 C1380 1.403 1_545 S
C1380 C1379 1.403 1_565 S
C1380 C1381 1.404 . S
C1380 C1383 1.539 . S
C1381 C1377 1.408 1_565 S
C1381 C1380 1.404 . S
C1381 H1393 0.930 . S
C1382 C1378 1.524 . S
C1382 H1394 0.956 . S
C1382 H1395 0.961 . S
C1382 H1396 0.961 . S
C1383 C1380 1.539 . S
C1383 H1397 0.958 . S
C1383 H1398 0.961 . S
C1383 H1399 0.960 . S
H1384 C1368 0.931 . S
H1385 C1373 0.929 . S
H1386 C1374 0.960 . S
H1387 C1374 0.962 . S
H1388 C1374 0.960 . S
H1389 C1375 0.961 . S
H1390 C1375 0.961 . S
H1391 C1375 0.961 . S
H1392 C1376 0.931 . S
H1393 C1381 0.930 . S
H1394 C1382 0.956 . S
H1395 C1382 0.961 . S
H1396 C1382 0.961 . S
H1397 C1383 0.958 . S
H1398 C1383 0.961 . S
H1399 C1383 0.960 . S
C1400 C1401 1.391 . S
C1400 C1402 1.394 . S
C1400 H1416 0.931 . S
C1401 C1400 1.391 . S
C1401 C1405 1.376 1_655 S
C1402 C1400 1.394 . S
C1402 C1403 1.369 . S
C1402 C1406 1.531 . S
C1403 C1402 1.369 . S
C1403 C1404 1.410 1_655 S
C1403 C1411 1.503 . S
C1404 C1403 1.410 1_455 S
C1404 C1405 1.392 . S
C1404 C1407 1.511 . S
C1405 C1401 1.376 1_455 S
C1405 C1404 1.392 . S
C1405 H1417 0.929 . S
C1406 C1402 1.531 . S
C1406 H1418 0.960 . S
C1406 H1419 0.962 . S
C1406 H1420 0.960 . S
C1407 C1404 1.511 . S
C1407 H1421 0.961 . S
C1407 H1422 0.961 . S
C1407 H1423 0.961 . S
C1408 C1409 1.370 . S
C1408 C1410 1.363 . S
C1408 H1424 0.931 . S
C1409 C1408 1.370 . S
C1409 C1413 1.408 1_655 S
C1410 C1408 1.363 . S
C1410 C1411 1.370 . S
C1410 C1414 1.524 . S
C1411 C1403 1.503 . S
C1411 C1410 1.370 . S
C1411 C1412 1.403 1_655 S
C1412 C1411 1.403 1_455 S
C1412 C1413 1.404 . S
C1412 C1415 1.539 . S
C1413 C1409 1.408 1_455 S
C1413 C1412 1.404 . S
C1413 H1425 0.930 . S
C1414 C1410 1.524 . S
C1414 H1426 0.956 . S
C1414 H1427 0.961 . S
C1414 H1428 0.961 . S
C1415 C1412 1.539 . S
C1415 H1429 0.958 . S
C1415 H1430 0.961 . S
C1415 H1431 0.960 . S
H1416 C1400 0.931 . S
H1417 C1405 0.929 . S
H1418 C1406 0.960 . S
H1419 C1406 0.962 . S
H1420 C1406 0.960 . S
H1421 C1407 0.961 . S
H1422 C1407 0.961 . S
H1423 C1407 0.961 . S
H1424 C1408 0.931 . S
H1425 C1413 0.930 . S
H1426 C1414 0.956 . S
H1427 C1414 0.961 . S
H1428 C1414 0.961 . S
H1429 C1415 0.958 . S
H1430 C1415 0.961 . S
H1431 C1415 0.960 . S
C1432 C1433 1.391 . S
C1432 C1434 1.394 . S
C1432 H1448 0.931 . S
C1433 C1432 1.391 . S
C1433 C1437 1.376 . S
C1434 C1432 1.394 . S
C1434 C1435 1.369 . S
C1434 C1438 1.531 . S
C1435 C1434 1.369 . S
C1435 C1436 1.410 . S
C1435 C1443 1.503 . S
C1436 C1435 1.410 . S
C1436 C1437 1.392 . S
C1436 C1439 1.511 . S
C1437 C1433 1.376 . S
C1437 C1436 1.392 . S
C1437 H1449 0.929 . S
C1438 C1434 1.531 . S
C1438 H1450 0.960 . S
C1438 H1451 0.962 . S
C1438 H1452 0.960 . S
C1439 C1436 1.511 . S
C1439 H1453 0.961 . S
C1439 H1454 0.961 . S
C1439 H1455 0.961 . S
C1440 C1441 1.370 . S
C1440 C1442 1.363 . S
C1440 H1456 0.931 . S
C1441 C1440 1.370 . S
C1441 C1445 1.408 . S
C1442 C1440 1.363 . S
C1442 C1443 1.370 . S
C1442 C1446 1.524 . S
C1443 C1435 1.503 . S
C1443 C1442 1.370 . S
C1443 C1444 1.403 . S
C1444 C1443 1.403 . S
C1444 C1445 1.404 . S
C1444 C1447 1.539 . S
C1445 C1441 1.408 . S
C1445 C1444 1.404 . S
C1445 H1457 0.930 . S
C1446 C1442 1.524 . S
C1446 H1458 0.956 . S
C1446 H1459 0.961 . S
C1446 H1460 0.961 . S
C1447 C1444 1.539 . S
C1447 H1461 0.958 . S
C1447 H1462 0.961 . S
C1447 H1463 0.960 . S
H1448 C1432 0.931 . S
H1449 C1437 0.929 . S
H1450 C1438 0.960 . S
H1451 C1438 0.962 . S
H1452 C1438 0.960 . S
H1453 C1439 0.961 . S
H1454 C1439 0.961 . S
H1455 C1439 0.961 . S
H1456 C1440 0.931 . S
H1457 C1445 0.930 . S
H1458 C1446 0.956 . S
H1459 C1446 0.961 . S
H1460 C1446 0.961 . S
H1461 C1447 0.958 . S
H1462 C1447 0.961 . S
H1463 C1447 0.960 . S
C1464 C1465 1.391 . S
C1464 C1466 1.394 . S
C1464 H1480 0.931 . S
C1465 C1464 1.391 . S
C1465 C1469 1.376 . S
C1466 C1464 1.394 . S
C1466 C1467 1.369 . S
C1466 C1470 1.531 . S
C1467 C1466 1.369 . S
C1467 C1468 1.410 . S
C1467 C1475 1.503 . S
C1468 C1467 1.410 . S
C1468 C1469 1.392 . S
C1468 C1471 1.511 . S
C1469 C1465 1.376 . S
C1469 C1468 1.392 . S
C1469 H1481 0.929 . S
C1470 C1466 1.531 . S
C1470 H1482 0.960 . S
C1470 H1483 0.962 . S
C1470 H1484 0.960 . S
C1471 C1468 1.511 . S
C1471 H1485 0.961 . S
C1471 H1486 0.961 . S
C1471 H1487 0.961 . S
C1472 C1473 1.370 . S
C1472 C1474 1.363 . S
C1472 H1488 0.931 . S
C1473 C1472 1.370 . S
C1473 C1477 1.408 . S
C1474 C1472 1.363 . S
C1474 C1475 1.370 . S
C1474 C1478 1.524 . S
C1475 C1467 1.503 . S
C1475 C1474 1.370 . S
C1475 C1476 1.403 . S
C1476 C1475 1.403 . S
C1476 C1477 1.404 . S
C1476 C1479 1.539 . S
C1477 C1473 1.408 . S
C1477 C1476 1.404 . S
C1477 H1489 0.930 . S
C1478 C1474 1.524 . S
C1478 H1490 0.956 . S
C1478 H1491 0.961 . S
C1478 H1492 0.961 . S
C1479 C1476 1.539 . S
C1479 H1493 0.958 . S
C1479 H1494 0.961 . S
C1479 H1495 0.960 . S
H1480 C1464 0.931 . S
H1481 C1469 0.929 . S
H1482 C1470 0.960 . S
H1483 C1470 0.962 . S
H1484 C1470 0.960 . S
H1485 C1471 0.961 . S
H1486 C1471 0.961 . S
H1487 C1471 0.961 . S
H1488 C1472 0.931 . S
H1489 C1477 0.930 . S
H1490 C1478 0.956 . S
H1491 C1478 0.961 . S
H1492 C1478 0.961 . S
H1493 C1479 0.958 . S
H1494 C1479 0.961 . S
H1495 C1479 0.960 . S
C1496 C1497 1.391 . S
C1496 C1498 1.394 . S
C1496 H1512 0.931 . S
C1497 C1496 1.391 . S
C1497 C1501 1.376 . S
C1498 C1496 1.394 . S
C1498 C1499 1.369 . S
C1498 C1502 1.531 . S
C1499 C1498 1.369 . S
C1499 C1500 1.410 . S
C1499 C1507 1.503 . S
C1500 C1499 1.410 . S
C1500 C1501 1.392 . S
C1500 C1503 1.511 . S
C1501 C1497 1.376 . S
C1501 C1500 1.392 . S
C1501 H1513 0.929 . S
C1502 C1498 1.531 . S
C1502 H1514 0.960 . S
C1502 H1515 0.962 . S
C1502 H1516 0.960 . S
C1503 C1500 1.511 . S
C1503 H1517 0.961 . S
C1503 H1518 0.961 . S
C1503 H1519 0.961 . S
C1504 C1505 1.370 . S
C1504 C1506 1.363 . S
C1504 H1520 0.931 . S
C1505 C1504 1.370 . S
C1505 C1509 1.408 . S
C1506 C1504 1.363 . S
C1506 C1507 1.370 . S
C1506 C1510 1.524 . S
C1507 C1499 1.503 . S
C1507 C1506 1.370 . S
C1507 C1508 1.403 . S
C1508 C1507 1.403 . S
C1508 C1509 1.404 . S
C1508 C1511 1.539 . S
C1509 C1505 1.408 . S
C1509 C1508 1.404 . S
C1509 H1521 0.930 . S
C1510 C1506 1.524 . S
C1510 H1522 0.956 . S
C1510 H1523 0.961 . S
C1510 H1524 0.961 . S
C1511 C1508 1.539 . S
C1511 H1525 0.958 . S
C1511 H1526 0.961 . S
C1511 H1527 0.960 . S
H1512 C1496 0.931 . S
H1513 C1501 0.929 . S
H1514 C1502 0.960 . S
H1515 C1502 0.962 . S
H1516 C1502 0.960 . S
H1517 C1503 0.961 . S
H1518 C1503 0.961 . S
H1519 C1503 0.961 . S
H1520 C1504 0.931 . S
H1521 C1509 0.930 . S
H1522 C1510 0.956 . S
H1523 C1510 0.961 . S
H1524 C1510 0.961 . S
H1525 C1511 0.958 . S
H1526 C1511 0.961 . S
H1527 C1511 0.960 . S
C1528 C1529 1.391 . S
C1528 C1530 1.394 . S
C1528 H1544 0.931 . S
C1529 C1528 1.391 . S
C1529 C1533 1.376 . S
C1530 C1528 1.394 . S
C1530 C1531 1.369 . S
C1530 C1534 1.531 . S
C1531 C1530 1.369 . S
C1531 C1532 1.410 . S
C1531 C1539 1.503 . S
C1532 C1531 1.410 . S
C1532 C1533 1.392 . S
C1532 C1535 1.511 . S
C1533 C1529 1.376 . S
C1533 C1532 1.392 . S
C1533 H1545 0.929 . S
C1534 C1530 1.531 . S
C1534 H1546 0.960 . S
C1534 H1547 0.962 . S
C1534 H1548 0.960 . S
C1535 C1532 1.511 . S
C1535 H1549 0.961 . S
C1535 H1550 0.961 . S
C1535 H1551 0.961 . S
C1536 C1537 1.370 . S
C1536 C1538 1.363 . S
C1536 H1552 0.931 . S
C1537 C1536 1.370 . S
C1537 C1541 1.408 . S
C1538 C1536 1.363 . S
C1538 C1539 1.370 . S
C1538 C1542 1.524 . S
C1539 C1531 1.503 . S
C1539 C1538 1.370 . S
C1539 C1540 1.403 . S
C1540 C1539 1.403 . S
C1540 C1541 1.404 . S
C1540 C1543 1.539 . S
C1541 C1537 1.408 . S
C1541 C1540 1.404 . S
C1541 H1553 0.930 . S
C1542 C1538 1.524 . S
C1542 H1554 0.956 . S
C1542 H1555 0.961 . S
C1542 H1556 0.961 . S
C1543 C1540 1.539 . S
C1543 H1557 0.958 . S
C1543 H1558 0.961 . S
C1543 H1559 0.960 . S
H1544 C1528 0.931 . S
H1545 C1533 0.929 . S
H1546 C1534 0.960 . S
H1547 C1534 0.962 . S
H1548 C1534 0.960 . S
H1549 C1535 0.961 . S
H1550 C1535 0.961 . S
H1551 C1535 0.961 . S
H1552 C1536 0.931 . S
H1553 C1541 0.930 . S
H1554 C1542 0.956 . S
H1555 C1542 0.961 . S
H1556 C1542 0.961 . S
H1557 C1543 0.958 . S
H1558 C1543 0.961 . S
H1559 C1543 0.960 . S
C1560 C1561 1.391 . S
C1560 C1562 1.394 . S
C1560 H1576 0.931 . S
C1561 C1560 1.391 . S
C1561 C1565 1.376 . S
C1562 C1560 1.394 . S
C1562 C1563 1.369 . S
C1562 C1566 1.531 . S
C1563 C1562 1.369 . S
C1563 C1564 1.410 . S
C1563 C1571 1.503 . S
C1564 C1563 1.410 . S
C1564 C1565 1.392 . S
C1564 C1567 1.511 . S
C1565 C1561 1.376 . S
C1565 C1564 1.392 . S
C1565 H1577 0.929 . S
C1566 C1562 1.531 . S
C1566 H1578 0.960 . S
C1566 H1579 0.962 . S
C1566 H1580 0.960 . S
C1567 C1564 1.511 . S
C1567 H1581 0.961 . S
C1567 H1582 0.961 . S
C1567 H1583 0.961 . S
C1568 C1569 1.370 . S
C1568 C1570 1.363 . S
C1568 H1584 0.931 . S
C1569 C1568 1.370 . S
C1569 C1573 1.408 . S
C1570 C1568 1.363 . S
C1570 C1571 1.370 . S
C1570 C1574 1.524 . S
C1571 C1563 1.503 . S
C1571 C1570 1.370 . S
C1571 C1572 1.403 . S
C1572 C1571 1.403 . S
C1572 C1573 1.404 . S
C1572 C1575 1.539 . S
C1573 C1569 1.408 . S
C1573 C1572 1.404 . S
C1573 H1585 0.930 . S
C1574 C1570 1.524 . S
C1574 H1586 0.956 . S
C1574 H1587 0.961 . S
C1574 H1588 0.961 . S
C1575 C1572 1.539 . S
C1575 H1589 0.958 . S
C1575 H1590 0.961 . S
C1575 H1591 0.960 . S
H1576 C1560 0.931 . S
H1577 C1565 0.929 . S
H1578 C1566 0.960 . S
H1579 C1566 0.962 . S
H1580 C1566 0.960 . S
H1581 C1567 0.961 . S
H1582 C1567 0.961 . S
H1583 C1567 0.961 . S
H1584 C1568 0.931 . S
H1585 C1573 0.930 . S
H1586 C1574 0.956 . S
H1587 C1574 0.961 . S
H1588 C1574 0.961 . S
H1589 C1575 0.958 . S
H1590 C1575 0.961 . S
H1591 C1575 0.960 . S
C1592 C1593 1.391 . S
C1592 C1594 1.394 . S
C1592 H1608 0.931 . S
C1593 C1592 1.391 . S
C1593 C1597 1.376 . S
C1594 C1592 1.394 . S
C1594 C1595 1.369 . S
C1594 C1598 1.531 . S
C1595 C1594 1.369 . S
C1595 C1596 1.410 . S
C1595 C1603 1.503 . S
C1596 C1595 1.410 . S
C1596 C1597 1.392 . S
C1596 C1599 1.511 . S
C1597 C1593 1.376 . S
C1597 C1596 1.392 . S
C1597 H1609 0.929 . S
C1598 C1594 1.531 . S
C1598 H1610 0.960 . S
C1598 H1611 0.962 . S
C1598 H1612 0.960 . S
C1599 C1596 1.511 . S
C1599 H1613 0.961 . S
C1599 H1614 0.961 . S
C1599 H1615 0.961 . S
C1600 C1601 1.370 . S
C1600 C1602 1.363 . S
C1600 H1616 0.931 . S
C1601 C1600 1.370 . S
C1601 C1605 1.408 . S
C1602 C1600 1.363 . S
C1602 C1603 1.370 . S
C1602 C1606 1.524 . S
C1603 C1595 1.503 . S
C1603 C1602 1.370 . S
C1603 C1604 1.403 . S
C1604 C1603 1.403 . S
C1604 C1605 1.404 . S
C1604 C1607 1.539 . S
C1605 C1601 1.408 . S
C1605 C1604 1.404 . S
C1605 H1617 0.930 . S
C1606 C1602 1.524 . S
C1606 H1618 0.956 . S
C1606 H1619 0.961 . S
C1606 H1620 0.961 . S
C1607 C1604 1.539 . S
C1607 H1621 0.958 . S
C1607 H1622 0.961 . S
C1607 H1623 0.960 . S
H1608 C1592 0.931 . S
H1609 C1597 0.929 . S
H1610 C1598 0.960 . S
H1611 C1598 0.962 . S
H1612 C1598 0.960 . S
H1613 C1599 0.961 . S
H1614 C1599 0.961 . S
H1615 C1599 0.961 . S
H1616 C1600 0.931 . S
H1617 C1605 0.930 . S
H1618 C1606 0.956 . S
H1619 C1606 0.961 . S
H1620 C1606 0.961 . S
H1621 C1607 0.958 . S
H1622 C1607 0.961 . S
H1623 C1607 0.960 . S
C1624 C1625 1.391 . S
C1624 C1626 1.394 . S
C1624 H1640 0.931 . S
C1625 C1624 1.391 . S
C1625 C1629 1.376 . S
C1626 C1624 1.394 . S
C1626 C1627 1.369 . S
C1626 C1630 1.531 . S
C1627 C1626 1.369 . S
C1627 C1628 1.410 . S
C1627 C1635 1.503 . S
C1628 C1627 1.410 . S
C1628 C1629 1.392 . S
C1628 C1631 1.511 . S
C1629 C1625 1.376 . S
C1629 C1628 1.392 . S
C1629 H1641 0.929 . S
C1630 C1626 1.531 . S
C1630 H1642 0.960 . S
C1630 H1643 0.962 . S
C1630 H1644 0.960 . S
C1631 C1628 1.511 . S
C1631 H1645 0.961 . S
C1631 H1646 0.961 . S
C1631 H1647 0.961 . S
C1632 C1633 1.370 . S
C1632 C1634 1.363 . S
C1632 H1648 0.931 . S
C1633 C1632 1.370 . S
C1633 C1637 1.408 . S
C1634 C1632 1.363 . S
C1634 C1635 1.370 . S
C1634 C1638 1.524 . S
C1635 C1627 1.503 . S
C1635 C1634 1.370 . S
C1635 C1636 1.403 . S
C1636 C1635 1.403 . S
C1636 C1637 1.404 . S
C1636 C1639 1.539 . S
C1637 C1633 1.408 . S
C1637 C1636 1.404 . S
C1637 H1649 0.930 . S
C1638 C1634 1.524 . S
C1638 H1650 0.956 . S
C1638 H1651 0.961 . S
C1638 H1652 0.961 . S
C1639 C1636 1.539 . S
C1639 H1653 0.958 . S
C1639 H1654 0.961 . S
C1639 H1655 0.960 . S
H1640 C1624 0.931 . S
H1641 C1629 0.929 . S
H1642 C1630 0.960 . S
H1643 C1630 0.962 . S
H1644 C1630 0.960 . S
H1645 C1631 0.961 . S
H1646 C1631 0.961 . S
H1647 C1631 0.961 . S
H1648 C1632 0.931 . S
H1649 C1637 0.930 . S
H1650 C1638 0.956 . S
H1651 C1638 0.961 . S
H1652 C1638 0.961 . S
H1653 C1639 0.958 . S
H1654 C1639 0.961 . S
H1655 C1639 0.960 . S
C1656 C1657 1.391 . S
C1656 C1658 1.394 . S
C1656 H1672 0.931 . S
C1657 C1656 1.391 . S
C1657 C1661 1.376 . S
C1658 C1656 1.394 . S
C1658 C1659 1.369 . S
C1658 C1662 1.531 . S
C1659 C1658 1.369 . S
C1659 C1660 1.410 . S
C1659 C1667 1.503 . S
C1660 C1659 1.410 . S
C1660 C1661 1.392 . S
C1660 C1663 1.511 . S
C1661 C1657 1.376 . S
C1661 C1660 1.392 . S
C1661 H1673 0.929 . S
C1662 C1658 1.531 . S
C1662 H1674 0.960 . S
C1662 H1675 0.962 . S
C1662 H1676 0.960 . S
C1663 C1660 1.511 . S
C1663 H1677 0.961 . S
C1663 H1678 0.961 . S
C1663 H1679 0.961 . S
C1664 C1665 1.370 . S
C1664 C1666 1.363 . S
C1664 H1680 0.931 . S
C1665 C1664 1.370 . S
C1665 C1669 1.408 . S
C1666 C1664 1.363 . S
C1666 C1667 1.370 . S
C1666 C1670 1.524 . S
C1667 C1659 1.503 . S
C1667 C1666 1.370 . S
C1667 C1668 1.403 . S
C1668 C1667 1.403 . S
C1668 C1669 1.404 . S
C1668 C1671 1.539 . S
C1669 C1665 1.408 . S
C1669 C1668 1.404 . S
C1669 H1681 0.930 . S
C1670 C1666 1.524 . S
C1670 H1682 0.956 . S
C1670 H1683 0.961 . S
C1670 H1684 0.961 . S
C1671 C1668 1.539 . S
C1671 H1685 0.958 . S
C1671 H1686 0.961 . S
C1671 H1687 0.960 . S
H1672 C1656 0.931 . S
H1673 C1661 0.929 . S
H1674 C1662 0.960 . S
H1675 C1662 0.962 . S
H1676 C1662 0.960 . S
H1677 C1663 0.961 . S
H1678 C1663 0.961 . S
H1679 C1663 0.961 . S
H1680 C1664 0.931 . S
H1681 C1669 0.930 . S
H1682 C1670 0.956 . S
H1683 C1670 0.961 . S
H1684 C1670 0.961 . S
H1685 C1671 0.958 . S
H1686 C1671 0.961 . S
H1687 C1671 0.960 . S
C1688 C1689 1.391 . S
C1688 C1690 1.394 . S
C1688 H1704 0.931 . S
C1689 C1688 1.391 . S
C1689 C1693 1.376 . S
C1690 C1688 1.394 . S
C1690 C1691 1.369 . S
C1690 C1694 1.531 . S
C1691 C1690 1.369 . S
C1691 C1692 1.410 . S
C1691 C1699 1.503 . S
C1692 C1691 1.410 . S
C1692 C1693 1.392 . S
C1692 C1695 1.511 . S
C1693 C1689 1.376 . S
C1693 C1692 1.392 . S
C1693 H1705 0.929 . S
C1694 C1690 1.531 . S
C1694 H1706 0.960 . S
C1694 H1707 0.962 . S
C1694 H1708 0.960 . S
C1695 C1692 1.511 . S
C1695 H1709 0.961 . S
C1695 H1710 0.961 . S
C1695 H1711 0.961 . S
C1696 C1697 1.370 . S
C1696 C1698 1.363 . S
C1696 H1712 0.931 . S
C1697 C1696 1.370 . S
C1697 C1701 1.408 . S
C1698 C1696 1.363 . S
C1698 C1699 1.370 . S
C1698 C1702 1.524 . S
C1699 C1691 1.503 . S
C1699 C1698 1.370 . S
C1699 C1700 1.403 . S
C1700 C1699 1.403 . S
C1700 C1701 1.404 . S
C1700 C1703 1.539 . S
C1701 C1697 1.408 . S
C1701 C1700 1.404 . S
C1701 H1713 0.930 . S
C1702 C1698 1.524 . S
C1702 H1714 0.956 . S
C1702 H1715 0.961 . S
C1702 H1716 0.961 . S
C1703 C1700 1.539 . S
C1703 H1717 0.958 . S
C1703 H1718 0.961 . S
C1703 H1719 0.960 . S
H1704 C1688 0.931 . S
H1705 C1693 0.929 . S
H1706 C1694 0.960 . S
H1707 C1694 0.962 . S
H1708 C1694 0.960 . S
H1709 C1695 0.961 . S
H1710 C1695 0.961 . S
H1711 C1695 0.961 . S
H1712 C1696 0.931 . S
H1713 C1701 0.930 . S
H1714 C1702 0.956 . S
H1715 C1702 0.961 . S
H1716 C1702 0.961 . S
H1717 C1703 0.958 . S
H1718 C1703 0.961 . S
H1719 C1703 0.960 . S
C1720 C1721 1.391 . S
C1720 C1722 1.394 . S
C1720 H1736 0.931 . S
C1721 C1720 1.391 . S
C1721 C1725 1.376 . S
C1722 C1720 1.394 . S
C1722 C1723 1.369 . S
C1722 C1726 1.531 . S
C1723 C1722 1.369 . S
C1723 C1724 1.410 . S
C1723 C1731 1.503 . S
C1724 C1723 1.410 . S
C1724 C1725 1.392 . S
C1724 C1727 1.511 . S
C1725 C1721 1.376 . S
C1725 C1724 1.392 . S
C1725 H1737 0.929 . S
C1726 C1722 1.531 . S
C1726 H1738 0.960 . S
C1726 H1739 0.962 . S
C1726 H1740 0.960 . S
C1727 C1724 1.511 . S
C1727 H1741 0.961 . S
C1727 H1742 0.961 . S
C1727 H1743 0.961 . S
C1728 C1729 1.370 . S
C1728 C1730 1.363 . S
C1728 H1744 0.931 . S
C1729 C1728 1.370 . S
C1729 C1733 1.408 . S
C1730 C1728 1.363 . S
C1730 C1731 1.370 . S
C1730 C1734 1.524 . S
C1731 C1723 1.503 . S
C1731 C1730 1.370 . S
C1731 C1732 1.403 . S
C1732 C1731 1.403 . S
C1732 C1733 1.404 . S
C1732 C1735 1.539 . S
C1733 C1729 1.408 . S
C1733 C1732 1.404 . S
C1733 H1745 0.930 . S
C1734 C1730 1.524 . S
C1734 H1746 0.956 . S
C1734 H1747 0.961 . S
C1734 H1748 0.961 . S
C1735 C1732 1.539 . S
C1735 H1749 0.958 . S
C1735 H1750 0.961 . S
C1735 H1751 0.960 . S
H1736 C1720 0.931 . S
H1737 C1725 0.929 . S
H1738 C1726 0.960 . S
H1739 C1726 0.962 . S
H1740 C1726 0.960 . S
H1741 C1727 0.961 . S
H1742 C1727 0.961 . S
H1743 C1727 0.961 . S
H1744 C1728 0.931 . S
H1745 C1733 0.930 . S
H1746 C1734 0.956 . S
H1747 C1734 0.961 . S
H1748 C1734 0.961 . S
H1749 C1735 0.958 . S
H1750 C1735 0.961 . S
H1751 C1735 0.960 . S
C1752 C1753 1.391 . S
C1752 C1754 1.394 . S
C1752 H1768 0.931 . S
C1753 C1752 1.391 . S
C1753 C1757 1.376 . S
C1754 C1752 1.394 . S
C1754 C1755 1.369 . S
C1754 C1758 1.531 . S
C1755 C1754 1.369 . S
C1755 C1756 1.410 . S
C1755 C1763 1.503 . S
C1756 C1755 1.410 . S
C1756 C1757 1.392 . S
C1756 C1759 1.511 . S
C1757 C1753 1.376 . S
C1757 C1756 1.392 . S
C1757 H1769 0.929 . S
C1758 C1754 1.531 . S
C1758 H1770 0.960 . S
C1758 H1771 0.962 . S
C1758 H1772 0.960 . S
C1759 C1756 1.511 . S
C1759 H1773 0.961 . S
C1759 H1774 0.961 . S
C1759 H1775 0.961 . S
C1760 C1761 1.370 . S
C1760 C1762 1.363 . S
C1760 H1776 0.931 . S
C1761 C1760 1.370 . S
C1761 C1765 1.408 . S
C1762 C1760 1.363 . S
C1762 C1763 1.370 . S
C1762 C1766 1.524 . S
C1763 C1755 1.503 . S
C1763 C1762 1.370 . S
C1763 C1764 1.403 . S
C1764 C1763 1.403 . S
C1764 C1765 1.404 . S
C1764 C1767 1.539 . S
C1765 C1761 1.408 . S
C1765 C1764 1.404 . S
C1765 H1777 0.930 . S
C1766 C1762 1.524 . S
C1766 H1778 0.956 . S
C1766 H1779 0.961 . S
C1766 H1780 0.961 . S
C1767 C1764 1.539 . S
C1767 H1781 0.958 . S
C1767 H1782 0.961 . S
C1767 H1783 0.960 . S
H1768 C1752 0.931 . S
H1769 C1757 0.929 . S
H1770 C1758 0.960 . S
H1771 C1758 0.962 . S
H1772 C1758 0.960 . S
H1773 C1759 0.961 . S
H1774 C1759 0.961 . S
H1775 C1759 0.961 . S
H1776 C1760 0.931 . S
H1777 C1765 0.930 . S
H1778 C1766 0.956 . S
H1779 C1766 0.961 . S
H1780 C1766 0.961 . S
H1781 C1767 0.958 . S
H1782 C1767 0.961 . S
H1783 C1767 0.960 . S
C1784 C1785 1.391 . S
C1784 C1786 1.394 . S
C1784 H1800 0.931 . S
C1785 C1784 1.391 . S
C1785 C1789 1.376 . S
C1786 C1784 1.394 . S
C1786 C1787 1.369 . S
C1786 C1790 1.531 . S
C1787 C1786 1.369 . S
C1787 C1788 1.410 . S
C1787 C1795 1.503 . S
C1788 C1787 1.410 . S
C1788 C1789 1.392 . S
C1788 C1791 1.511 . S
C1789 C1785 1.376 . S
C1789 C1788 1.392 . S
C1789 H1801 0.929 . S
C1790 C1786 1.531 . S
C1790 H1802 0.960 . S
C1790 H1803 0.962 . S
C1790 H1804 0.960 . S
C1791 C1788 1.511 . S
C1791 H1805 0.961 . S
C1791 H1806 0.961 . S
C1791 H1807 0.961 . S
C1792 C1793 1.370 . S
C1792 C1794 1.363 . S
C1792 H1808 0.931 . S
C1793 C1792 1.370 . S
C1793 C1797 1.408 . S
C1794 C1792 1.363 . S
C1794 C1795 1.370 . S
C1794 C1798 1.524 . S
C1795 C1787 1.503 . S
C1795 C1794 1.370 . S
C1795 C1796 1.403 . S
C1796 C1795 1.403 . S
C1796 C1797 1.404 . S
C1796 C1799 1.539 . S
C1797 C1793 1.408 . S
C1797 C1796 1.404 . S
C1797 H1809 0.930 . S
C1798 C1794 1.524 . S
C1798 H1810 0.956 . S
C1798 H1811 0.961 . S
C1798 H1812 0.961 . S
C1799 C1796 1.539 . S
C1799 H1813 0.958 . S
C1799 H1814 0.961 . S
C1799 H1815 0.960 . S
H1800 C1784 0.931 . S
H1801 C1789 0.929 . S
H1802 C1790 0.960 . S
H1803 C1790 0.962 . S
H1804 C1790 0.960 . S
H1805 C1791 0.961 . S
H1806 C1791 0.961 . S
H1807 C1791 0.961 . S
H1808 C1792 0.931 . S
H1809 C1797 0.930 . S
H1810 C1798 0.956 . S
H1811 C1798 0.961 . S
H1812 C1798 0.961 . S
H1813 C1799 0.958 . S
H1814 C1799 0.961 . S
H1815 C1799 0.960 . S
C1816 C1817 1.391 . S
C1816 C1818 1.394 . S
C1816 H1832 0.931 . S
C1817 C1816 1.391 . S
C1817 C1821 1.376 . S
C1818 C1816 1.394 . S
C1818 C1819 1.369 . S
C1818 C1822 1.531 . S
C1819 C1818 1.369 . S
C1819 C1820 1.410 . S
C1819 C1827 1.503 . S
C1820 C1819 1.410 . S
C1820 C1821 1.392 . S
C1820 C1823 1.511 . S
C1821 C1817 1.376 . S
C1821 C1820 1.392 . S
C1821 H1833 0.929 . S
C1822 C1818 1.531 . S
C1822 H1834 0.960 . S
C1822 H1835 0.962 . S
C1822 H1836 0.960 . S
C1823 C1820 1.511 . S
C1823 H1837 0.961 . S
C1823 H1838 0.961 . S
C1823 H1839 0.961 . S
C1824 C1825 1.370 . S
C1824 C1826 1.363 . S
C1824 H1840 0.931 . S
C1825 C1824 1.370 . S
C1825 C1829 1.408 . S
C1826 C1824 1.363 . S
C1826 C1827 1.370 . S
C1826 C1830 1.524 . S
C1827 C1819 1.503 . S
C1827 C1826 1.370 . S
C1827 C1828 1.403 . S
C1828 C1827 1.403 . S
C1828 C1829 1.404 . S
C1828 C1831 1.539 . S
C1829 C1825 1.408 . S
C1829 C1828 1.404 . S
C1829 H1841 0.930 . S
C1830 C1826 1.524 . S
C1830 H1842 0.956 . S
C1830 H1843 0.961 . S
C1830 H1844 0.961 . S
C1831 C1828 1.539 . S
C1831 H1845 0.958 . S
C1831 H1846 0.961 . S
C1831 H1847 0.960 . S
H1832 C1816 0.931 . S
H1833 C1821 0.929 . S
H1834 C1822 0.960 . S
H1835 C1822 0.962 . S
H1836 C1822 0.960 . S
H1837 C1823 0.961 . S
H1838 C1823 0.961 . S
H1839 C1823 0.961 . S
H1840 C1824 0.931 . S
H1841 C1829 0.930 . S
H1842 C1830 0.956 . S
H1843 C1830 0.961 . S
H1844 C1830 0.961 . S
H1845 C1831 0.958 . S
H1846 C1831 0.961 . S
H1847 C1831 0.960 . S
C1848 C1849 1.391 . S
C1848 C1850 1.394 . S
C1848 H1864 0.931 . S
C1849 C1848 1.391 . S
C1849 C1853 1.376 . S
C1850 C1848 1.394 . S
C1850 C1851 1.369 . S
C1850 C1854 1.531 . S
C1851 C1850 1.369 . S
C1851 C1852 1.410 . S
C1851 C1859 1.503 . S
C1852 C1851 1.410 . S
C1852 C1853 1.392 . S
C1852 C1855 1.511 . S
C1853 C1849 1.376 . S
C1853 C1852 1.392 . S
C1853 H1865 0.929 . S
C1854 C1850 1.531 . S
C1854 H1866 0.960 . S
C1854 H1867 0.962 . S
C1854 H1868 0.960 . S
C1855 C1852 1.511 . S
C1855 H1869 0.961 . S
C1855 H1870 0.961 . S
C1855 H1871 0.961 . S
C1856 C1857 1.370 . S
C1856 C1858 1.363 . S
C1856 H1872 0.931 . S
C1857 C1856 1.370 . S
C1857 C1861 1.408 . S
C1858 C1856 1.363 . S
C1858 C1859 1.370 . S
C1858 C1862 1.524 . S
C1859 C1851 1.503 . S
C1859 C1858 1.370 . S
C1859 C1860 1.403 . S
C1860 C1859 1.403 . S
C1860 C1861 1.404 . S
C1860 C1863 1.539 . S
C1861 C1857 1.408 . S
C1861 C1860 1.404 . S
C1861 H1873 0.930 . S
C1862 C1858 1.524 . S
C1862 H1874 0.956 . S
C1862 H1875 0.961 . S
C1862 H1876 0.961 . S
C1863 C1860 1.539 . S
C1863 H1877 0.958 . S
C1863 H1878 0.961 . S
C1863 H1879 0.960 . S
H1864 C1848 0.931 . S
H1865 C1853 0.929 . S
H1866 C1854 0.960 . S
H1867 C1854 0.962 . S
H1868 C1854 0.960 . S
H1869 C1855 0.961 . S
H1870 C1855 0.961 . S
H1871 C1855 0.961 . S
H1872 C1856 0.931 . S
H1873 C1861 0.930 . S
H1874 C1862 0.956 . S
H1875 C1862 0.961 . S
H1876 C1862 0.961 . S
H1877 C1863 0.958 . S
H1878 C1863 0.961 . S
H1879 C1863 0.960 . S
C1880 C1881 1.391 . S
C1880 C1882 1.394 . S
C1880 H1896 0.931 . S
C1881 C1880 1.391 . S
C1881 C1885 1.376 . S
C1882 C1880 1.394 . S
C1882 C1883 1.369 . S
C1882 C1886 1.531 . S
C1883 C1882 1.369 . S
C1883 C1884 1.410 . S
C1883 C1891 1.503 . S
C1884 C1883 1.410 . S
C1884 C1885 1.392 . S
C1884 C1887 1.511 . S
C1885 C1881 1.376 . S
C1885 C1884 1.392 . S
C1885 H1897 0.929 . S
C1886 C1882 1.531 . S
C1886 H1898 0.960 . S
C1886 H1899 0.962 . S
C1886 H1900 0.960 . S
C1887 C1884 1.511 . S
C1887 H1901 0.961 . S
C1887 H1902 0.961 . S
C1887 H1903 0.961 . S
C1888 C1889 1.370 . S
C1888 C1890 1.363 . S
C1888 H1904 0.931 . S
C1889 C1888 1.370 . S
C1889 C1893 1.408 . S
C1890 C1888 1.363 . S
C1890 C1891 1.370 . S
C1890 C1894 1.524 . S
C1891 C1883 1.503 . S
C1891 C1890 1.370 . S
C1891 C1892 1.403 . S
C1892 C1891 1.403 . S
C1892 C1893 1.404 . S
C1892 C1895 1.539 . S
C1893 C1889 1.408 . S
C1893 C1892 1.404 . S
C1893 H1905 0.930 . S
C1894 C1890 1.524 . S
C1894 H1906 0.956 . S
C1894 H1907 0.961 . S
C1894 H1908 0.961 . S
C1895 C1892 1.539 . S
C1895 H1909 0.958 . S
C1895 H1910 0.961 . S
C1895 H1911 0.960 . S
H1896 C1880 0.931 . S
H1897 C1885 0.929 . S
H1898 C1886 0.960 . S
H1899 C1886 0.962 . S
H1900 C1886 0.960 . S
H1901 C1887 0.961 . S
H1902 C1887 0.961 . S
H1903 C1887 0.961 . S
H1904 C1888 0.931 . S
H1905 C1893 0.930 . S
H1906 C1894 0.956 . S
H1907 C1894 0.961 . S
H1908 C1894 0.961 . S
H1909 C1895 0.958 . S
H1910 C1895 0.961 . S
H1911 C1895 0.960 . S
C1912 C1913 1.391 . S
C1912 C1914 1.394 . S
C1912 H1928 0.931 . S
C1913 C1912 1.391 . S
C1913 C1917 1.376 . S
C1914 C1912 1.394 . S
C1914 C1915 1.369 . S
C1914 C1918 1.531 . S
C1915 C1914 1.369 . S
C1915 C1916 1.410 . S
C1915 C1923 1.503 . S
C1916 C1915 1.410 . S
C1916 C1917 1.392 . S
C1916 C1919 1.511 . S
C1917 C1913 1.376 . S
C1917 C1916 1.392 . S
C1917 H1929 0.929 . S
C1918 C1914 1.531 . S
C1918 H1930 0.960 . S
C1918 H1931 0.962 . S
C1918 H1932 0.960 . S
C1919 C1916 1.511 . S
C1919 H1933 0.961 . S
C1919 H1934 0.961 . S
C1919 H1935 0.961 . S
C1920 C1921 1.370 . S
C1920 C1922 1.363 . S
C1920 H1936 0.931 . S
C1921 C1920 1.370 . S
C1921 C1925 1.408 . S
C1922 C1920 1.363 . S
C1922 C1923 1.370 . S
C1922 C1926 1.524 . S
C1923 C1915 1.503 . S
C1923 C1922 1.370 . S
C1923 C1924 1.403 . S
C1924 C1923 1.403 . S
C1924 C1925 1.404 . S
C1924 C1927 1.539 . S
C1925 C1921 1.408 . S
C1925 C1924 1.404 . S
C1925 H1937 0.930 . S
C1926 C1922 1.524 . S
C1926 H1938 0.956 . S
C1926 H1939 0.961 . S
C1926 H1940 0.961 . S
C1927 C1924 1.539 . S
C1927 H1941 0.958 . S
C1927 H1942 0.961 . S
C1927 H1943 0.960 . S
H1928 C1912 0.931 . S
H1929 C1917 0.929 . S
H1930 C1918 0.960 . S
H1931 C1918 0.962 . S
H1932 C1918 0.960 . S
H1933 C1919 0.961 . S
H1934 C1919 0.961 . S
H1935 C1919 0.961 . S
H1936 C1920 0.931 . S
H1937 C1925 0.930 . S
H1938 C1926 0.956 . S
H1939 C1926 0.961 . S
H1940 C1926 0.961 . S
H1941 C1927 0.958 . S
H1942 C1927 0.961 . S
H1943 C1927 0.960 . S
C1944 C1945 1.391 . S
C1944 C1946 1.394 . S
C1944 H1960 0.931 . S
C1945 C1944 1.391 . S
C1945 C1949 1.376 . S
C1946 C1944 1.394 . S
C1946 C1947 1.369 . S
C1946 C1950 1.531 . S
C1947 C1946 1.369 . S
C1947 C1948 1.410 . S
C1947 C1955 1.503 . S
C1948 C1947 1.410 . S
C1948 C1949 1.392 . S
C1948 C1951 1.511 . S
C1949 C1945 1.376 . S
C1949 C1948 1.392 . S
C1949 H1961 0.929 . S
C1950 C1946 1.531 . S
C1950 H1962 0.960 . S
C1950 H1963 0.962 . S
C1950 H1964 0.960 . S
C1951 C1948 1.511 . S
C1951 H1965 0.961 . S
C1951 H1966 0.961 . S
C1951 H1967 0.961 . S
C1952 C1953 1.370 . S
C1952 C1954 1.363 . S
C1952 H1968 0.931 . S
C1953 C1952 1.370 . S
C1953 C1957 1.408 . S
C1954 C1952 1.363 . S
C1954 C1955 1.370 . S
C1954 C1958 1.524 . S
C1955 C1947 1.503 . S
C1955 C1954 1.370 . S
C1955 C1956 1.403 . S
C1956 C1955 1.403 . S
C1956 C1957 1.404 . S
C1956 C1959 1.539 . S
C1957 C1953 1.408 . S
C1957 C1956 1.404 . S
C1957 H1969 0.930 . S
C1958 C1954 1.524 . S
C1958 H1970 0.956 . S
C1958 H1971 0.961 . S
C1958 H1972 0.961 . S
C1959 C1956 1.539 . S
C1959 H1973 0.958 . S
C1959 H1974 0.961 . S
C1959 H1975 0.960 . S
H1960 C1944 0.931 . S
H1961 C1949 0.929 . S
H1962 C1950 0.960 . S
H1963 C1950 0.962 . S
H1964 C1950 0.960 . S
H1965 C1951 0.961 . S
H1966 C1951 0.961 . S
H1967 C1951 0.961 . S
H1968 C1952 0.931 . S
H1969 C1957 0.930 . S
H1970 C1958 0.956 . S
H1971 C1958 0.961 . S
H1972 C1958 0.961 . S
H1973 C1959 0.958 . S
H1974 C1959 0.961 . S
H1975 C1959 0.960 . S
C1976 C1977 1.391 . S
C1976 C1978 1.394 . S
C1976 H1992 0.931 . S
C1977 C1976 1.391 . S
C1977 C1981 1.376 . S
C1978 C1976 1.394 . S
C1978 C1979 1.369 . S
C1978 C1982 1.531 . S
C1979 C1978 1.369 . S
C1979 C1980 1.410 . S
C1979 C1987 1.503 . S
C1980 C1979 1.410 . S
C1980 C1981 1.392 . S
C1980 C1983 1.511 . S
C1981 C1977 1.376 . S
C1981 C1980 1.392 . S
C1981 H1993 0.929 . S
C1982 C1978 1.531 . S
C1982 H1994 0.960 . S
C1982 H1995 0.962 . S
C1982 H1996 0.960 . S
C1983 C1980 1.511 . S
C1983 H1997 0.961 . S
C1983 H1998 0.961 . S
C1983 H1999 0.961 . S
C1984 C1985 1.370 . S
C1984 C1986 1.363 . S
C1984 H2000 0.931 . S
C1985 C1984 1.370 . S
C1985 C1989 1.408 . S
C1986 C1984 1.363 . S
C1986 C1987 1.370 . S
C1986 C1990 1.524 . S
C1987 C1979 1.503 . S
C1987 C1986 1.370 . S
C1987 C1988 1.403 . S
C1988 C1987 1.403 . S
C1988 C1989 1.404 . S
C1988 C1991 1.539 . S
C1989 C1985 1.408 . S
C1989 C1988 1.404 . S
C1989 H2001 0.930 . S
C1990 C1986 1.524 . S
C1990 H2002 0.956 . S
C1990 H2003 0.961 . S
C1990 H2004 0.961 . S
C1991 C1988 1.539 . S
C1991 H2005 0.958 . S
C1991 H2006 0.961 . S
C1991 H2007 0.960 . S
H1992 C1976 0.931 . S
H1993 C1981 0.929 . S
H1994 C1982 0.960 . S
H1995 C1982 0.962 . S
H1996 C1982 0.960 . S
H1997 C1983 0.961 . S
H1998 C1983 0.961 . S
H1999 C1983 0.961 . S
H2000 C1984 0.931 . S
H2001 C1989 0.930 . S
H2002 C1990 0.956 . S
H2003 C1990 0.961 . S
H2004 C1990 0.961 . S
H2005 C1991 0.958 . S
H2006 C1991 0.961 . S
H2007 C1991 0.960 . S
C2008 C2009 1.391 . S
C2008 C2010 1.394 . S
C2008 H2024 0.931 . S
C2009 C2008 1.391 . S
C2009 C2013 1.376 . S
C2010 C2008 1.394 . S
C2010 C2011 1.369 . S
C2010 C2014 1.531 . S
C2011 C2010 1.369 . S
C2011 C2012 1.410 . S
C2011 C2019 1.503 . S
C2012 C2011 1.410 . S
C2012 C2013 1.392 . S
C2012 C2015 1.511 . S
C2013 C2009 1.376 . S
C2013 C2012 1.392 . S
C2013 H2025 0.929 . S
C2014 C2010 1.531 . S
C2014 H2026 0.960 . S
C2014 H2027 0.962 . S
C2014 H2028 0.960 . S
C2015 C2012 1.511 . S
C2015 H2029 0.961 . S
C2015 H2030 0.961 . S
C2015 H2031 0.961 . S
C2016 C2017 1.370 . S
C2016 C2018 1.363 . S
C2016 H2032 0.931 . S
C2017 C2016 1.370 . S
C2017 C2021 1.408 . S
C2018 C2016 1.363 . S
C2018 C2019 1.370 . S
C2018 C2022 1.524 . S
C2019 C2011 1.503 . S
C2019 C2018 1.370 . S
C2019 C2020 1.403 . S
C2020 C2019 1.403 . S
C2020 C2021 1.404 . S
C2020 C2023 1.539 . S
C2021 C2017 1.408 . S
C2021 C2020 1.404 . S
C2021 H2033 0.930 . S
C2022 C2018 1.524 . S
C2022 H2034 0.956 . S
C2022 H2035 0.961 . S
C2022 H2036 0.961 . S
C2023 C2020 1.539 . S
C2023 H2037 0.958 . S
C2023 H2038 0.961 . S
C2023 H2039 0.960 . S
H2024 C2008 0.931 . S
H2025 C2013 0.929 . S
H2026 C2014 0.960 . S
H2027 C2014 0.962 . S
H2028 C2014 0.960 . S
H2029 C2015 0.961 . S
H2030 C2015 0.961 . S
H2031 C2015 0.961 . S
H2032 C2016 0.931 . S
H2033 C2021 0.930 . S
H2034 C2022 0.956 . S
H2035 C2022 0.961 . S
H2036 C2022 0.961 . S
H2037 C2023 0.958 . S
H2038 C2023 0.961 . S
H2039 C2023 0.960 . S
C2040 C2041 1.391 . S
C2040 C2042 1.394 . S
C2040 H2056 0.931 . S
C2041 C2040 1.391 . S
C2041 C2045 1.376 . S
C2042 C2040 1.394 . S
C2042 C2043 1.369 . S
C2042 C2046 1.531 . S
C2043 C2042 1.369 . S
C2043 C2044 1.410 . S
C2043 C2051 1.503 . S
C2044 C2043 1.410 . S
C2044 C2045 1.392 . S
C2044 C2047 1.511 . S
C2045 C2041 1.376 . S
C2045 C2044 1.392 . S
C2045 H2057 0.929 . S
C2046 C2042 1.531 . S
C2046 H2058 0.960 . S
C2046 H2059 0.962 . S
C2046 H2060 0.960 . S
C2047 C2044 1.511 . S
C2047 H2061 0.961 . S
C2047 H2062 0.961 . S
C2047 H2063 0.961 . S
C2048 C2049 1.370 . S
C2048 C2050 1.363 . S
C2048 H2064 0.931 . S
C2049 C2048 1.370 . S
C2049 C2053 1.408 . S
C2050 C2048 1.363 . S
C2050 C2051 1.370 . S
C2050 C2054 1.524 . S
C2051 C2043 1.503 . S
C2051 C2050 1.370 . S
C2051 C2052 1.403 . S
C2052 C2051 1.403 . S
C2052 C2053 1.404 . S
C2052 C2055 1.539 . S
C2053 C2049 1.408 . S
C2053 C2052 1.404 . S
C2053 H2065 0.930 . S
C2054 C2050 1.524 . S
C2054 H2066 0.956 . S
C2054 H2067 0.961 . S
C2054 H2068 0.961 . S
C2055 C2052 1.539 . S
C2055 H2069 0.958 . S
C2055 H2070 0.961 . S
C2055 H2071 0.960 . S
H2056 C2040 0.931 . S
H2057 C2045 0.929 . S
H2058 C2046 0.960 . S
H2059 C2046 0.962 . S
H2060 C2046 0.960 . S
H2061 C2047 0.961 . S
H2062 C2047 0.961 . S
H2063 C2047 0.961 . S
H2064 C2048 0.931 . S
H2065 C2053 0.930 . S
H2066 C2054 0.956 . S
H2067 C2054 0.961 . S
H2068 C2054 0.961 . S
H2069 C2055 0.958 . S
H2070 C2055 0.961 . S
H2071 C2055 0.960 . S
C2072 C2073 1.391 . S
C2072 C2074 1.394 . S
C2072 H2088 0.931 . S
C2073 C2072 1.391 . S
C2073 C2077 1.376 . S
C2074 C2072 1.394 . S
C2074 C2075 1.369 . S
C2074 C2078 1.531 . S
C2075 C2074 1.369 . S
C2075 C2076 1.410 . S
C2075 C2083 1.503 . S
C2076 C2075 1.410 . S
C2076 C2077 1.392 . S
C2076 C2079 1.511 . S
C2077 C2073 1.376 . S
C2077 C2076 1.392 . S
C2077 H2089 0.929 . S
C2078 C2074 1.531 . S
C2078 H2090 0.960 . S
C2078 H2091 0.962 . S
C2078 H2092 0.960 . S
C2079 C2076 1.511 . S
C2079 H2093 0.961 . S
C2079 H2094 0.961 . S
C2079 H2095 0.961 . S
C2080 C2081 1.370 . S
C2080 C2082 1.363 . S
C2080 H2096 0.931 . S
C2081 C2080 1.370 . S
C2081 C2085 1.408 . S
C2082 C2080 1.363 . S
C2082 C2083 1.370 . S
C2082 C2086 1.524 . S
C2083 C2075 1.503 . S
C2083 C2082 1.370 . S
C2083 C2084 1.403 . S
C2084 C2083 1.403 . S
C2084 C2085 1.404 . S
C2084 C2087 1.539 . S
C2085 C2081 1.408 . S
C2085 C2084 1.404 . S
C2085 H2097 0.930 . S
C2086 C2082 1.524 . S
C2086 H2098 0.956 . S
C2086 H2099 0.961 . S
C2086 H2100 0.961 . S
C2087 C2084 1.539 . S
C2087 H2101 0.958 . S
C2087 H2102 0.961 . S
C2087 H2103 0.960 . S
H2088 C2072 0.931 . S
H2089 C2077 0.929 . S
H2090 C2078 0.960 . S
H2091 C2078 0.962 . S
H2092 C2078 0.960 . S
H2093 C2079 0.961 . S
H2094 C2079 0.961 . S
H2095 C2079 0.961 . S
H2096 C2080 0.931 . S
H2097 C2085 0.930 . S
H2098 C2086 0.956 . S
H2099 C2086 0.961 . S
H2100 C2086 0.961 . S
H2101 C2087 0.958 . S
H2102 C2087 0.961 . S
H2103 C2087 0.960 . S
C2104 C2105 1.391 . S
C2104 C2106 1.394 . S
C2104 H2120 0.931 . S
C2105 C2104 1.391 . S
C2105 C2109 1.376 . S
C2106 C2104 1.394 . S
C2106 C2107 1.369 . S
C2106 C2110 1.531 . S
C2107 C2106 1.369 . S
C2107 C2108 1.410 . S
C2107 C2115 1.503 . S
C2108 C2107 1.410 . S
C2108 C2109 1.392 . S
C2108 C2111 1.511 . S
C2109 C2105 1.376 . S
C2109 C2108 1.392 . S
C2109 H2121 0.929 . S
C2110 C2106 1.531 . S
C2110 H2122 0.960 . S
C2110 H2123 0.962 . S
C2110 H2124 0.960 . S
C2111 C2108 1.511 . S
C2111 H2125 0.961 . S
C2111 H2126 0.961 . S
C2111 H2127 0.961 . S
C2112 C2113 1.370 . S
C2112 C2114 1.363 . S
C2112 H2128 0.931 . S
C2113 C2112 1.370 . S
C2113 C2117 1.408 . S
C2114 C2112 1.363 . S
C2114 C2115 1.370 . S
C2114 C2118 1.524 . S
C2115 C2107 1.503 . S
C2115 C2114 1.370 . S
C2115 C2116 1.403 . S
C2116 C2115 1.403 . S
C2116 C2117 1.404 . S
C2116 C2119 1.539 . S
C2117 C2113 1.408 . S
C2117 C2116 1.404 . S
C2117 H2129 0.930 . S
C2118 C2114 1.524 . S
C2118 H2130 0.956 . S
C2118 H2131 0.961 . S
C2118 H2132 0.961 . S
C2119 C2116 1.539 . S
C2119 H2133 0.958 . S
C2119 H2134 0.961 . S
C2119 H2135 0.960 . S
H2120 C2104 0.931 . S
H2121 C2109 0.929 . S
H2122 C2110 0.960 . S
H2123 C2110 0.962 . S
H2124 C2110 0.960 . S
H2125 C2111 0.961 . S
H2126 C2111 0.961 . S
H2127 C2111 0.961 . S
H2128 C2112 0.931 . S
H2129 C2117 0.930 . S
H2130 C2118 0.956 . S
H2131 C2118 0.961 . S
H2132 C2118 0.961 . S
H2133 C2119 0.958 . S
H2134 C2119 0.961 . S
H2135 C2119 0.960 . S
C2136 C2137 1.391 . S
C2136 C2138 1.394 . S
C2136 H2152 0.931 . S
C2137 C2136 1.391 . S
C2137 C2141 1.376 . S
C2138 C2136 1.394 . S
C2138 C2139 1.369 . S
C2138 C2142 1.531 . S
C2139 C2138 1.369 . S
C2139 C2140 1.410 . S
C2139 C2147 1.503 . S
C2140 C2139 1.410 . S
C2140 C2141 1.392 . S
C2140 C2143 1.511 . S
C2141 C2137 1.376 . S
C2141 C2140 1.392 . S
C2141 H2153 0.929 . S
C2142 C2138 1.531 . S
C2142 H2154 0.960 . S
C2142 H2155 0.962 . S
C2142 H2156 0.960 . S
C2143 C2140 1.511 . S
C2143 H2157 0.961 . S
C2143 H2158 0.961 . S
C2143 H2159 0.961 . S
C2144 C2145 1.370 . S
C2144 C2146 1.363 . S
C2144 H2160 0.931 . S
C2145 C2144 1.370 . S
C2145 C2149 1.408 . S
C2146 C2144 1.363 . S
C2146 C2147 1.370 . S
C2146 C2150 1.524 . S
C2147 C2139 1.503 . S
C2147 C2146 1.370 . S
C2147 C2148 1.403 . S
C2148 C2147 1.403 . S
C2148 C2149 1.404 . S
C2148 C2151 1.539 . S
C2149 C2145 1.408 . S
C2149 C2148 1.404 . S
C2149 H2161 0.930 . S
C2150 C2146 1.524 . S
C2150 H2162 0.956 . S
C2150 H2163 0.961 . S
C2150 H2164 0.961 . S
C2151 C2148 1.539 . S
C2151 H2165 0.958 . S
C2151 H2166 0.961 . S
C2151 H2167 0.960 . S
H2152 C2136 0.931 . S
H2153 C2141 0.929 . S
H2154 C2142 0.960 . S
H2155 C2142 0.962 . S
H2156 C2142 0.960 . S
H2157 C2143 0.961 . S
H2158 C2143 0.961 . S
H2159 C2143 0.961 . S
H2160 C2144 0.931 . S
H2161 C2149 0.930 . S
H2162 C2150 0.956 . S
H2163 C2150 0.961 . S
H2164 C2150 0.961 . S
H2165 C2151 0.958 . S
H2166 C2151 0.961 . S
H2167 C2151 0.960 . S
C2168 C2169 1.391 . S
C2168 C2170 1.394 . S
C2168 H2184 0.931 . S
C2169 C2168 1.391 . S
C2169 C2173 1.376 . S
C2170 C2168 1.394 . S
C2170 C2171 1.369 . S
C2170 C2174 1.531 . S
C2171 C2170 1.369 . S
C2171 C2172 1.410 . S
C2171 C2179 1.503 . S
C2172 C2171 1.410 . S
C2172 C2173 1.392 . S
C2172 C2175 1.511 . S
C2173 C2169 1.376 . S
C2173 C2172 1.392 . S
C2173 H2185 0.929 . S
C2174 C2170 1.531 . S
C2174 H2186 0.960 . S
C2174 H2187 0.962 . S
C2174 H2188 0.960 . S
C2175 C2172 1.511 . S
C2175 H2189 0.961 . S
C2175 H2190 0.961 . S
C2175 H2191 0.961 . S
C2176 C2177 1.370 . S
C2176 C2178 1.363 . S
C2176 H2192 0.931 . S
C2177 C2176 1.370 . S
C2177 C2181 1.408 . S
C2178 C2176 1.363 . S
C2178 C2179 1.370 . S
C2178 C2182 1.524 . S
C2179 C2171 1.503 . S
C2179 C2178 1.370 . S
C2179 C2180 1.403 . S
C2180 C2179 1.403 . S
C2180 C2181 1.404 . S
C2180 C2183 1.539 . S
C2181 C2177 1.408 . S
C2181 C2180 1.404 . S
C2181 H2193 0.930 . S
C2182 C2178 1.524 . S
C2182 H2194 0.956 . S
C2182 H2195 0.961 . S
C2182 H2196 0.961 . S
C2183 C2180 1.539 . S
C2183 H2197 0.958 . S
C2183 H2198 0.961 . S
C2183 H2199 0.960 . S
H2184 C2168 0.931 . S
H2185 C2173 0.929 . S
H2186 C2174 0.960 . S
H2187 C2174 0.962 . S
H2188 C2174 0.960 . S
H2189 C2175 0.961 . S
H2190 C2175 0.961 . S
H2191 C2175 0.961 . S
H2192 C2176 0.931 . S
H2193 C2181 0.930 . S
H2194 C2182 0.956 . S
H2195 C2182 0.961 . S
H2196 C2182 0.961 . S
H2197 C2183 0.958 . S
H2198 C2183 0.961 . S
H2199 C2183 0.960 . S
C2200 C2201 1.391 . S
C2200 C2202 1.394 . S
C2200 H2216 0.931 . S
C2201 C2200 1.391 . S
C2201 C2205 1.376 . S
C2202 C2200 1.394 . S
C2202 C2203 1.369 . S
C2202 C2206 1.531 . S
C2203 C2202 1.369 . S
C2203 C2204 1.410 . S
C2203 C2211 1.503 . S
C2204 C2203 1.410 . S
C2204 C2205 1.392 . S
C2204 C2207 1.511 . S
C2205 C2201 1.376 . S
C2205 C2204 1.392 . S
C2205 H2217 0.929 . S
C2206 C2202 1.531 . S
C2206 H2218 0.960 . S
C2206 H2219 0.962 . S
C2206 H2220 0.960 . S
C2207 C2204 1.511 . S
C2207 H2221 0.961 . S
C2207 H2222 0.961 . S
C2207 H2223 0.961 . S
C2208 C2209 1.370 . S
C2208 C2210 1.363 . S
C2208 H2224 0.931 . S
C2209 C2208 1.370 . S
C2209 C2213 1.408 . S
C2210 C2208 1.363 . S
C2210 C2211 1.370 . S
C2210 C2214 1.524 . S
C2211 C2203 1.503 . S
C2211 C2210 1.370 . S
C2211 C2212 1.403 . S
C2212 C2211 1.403 . S
C2212 C2213 1.404 . S
C2212 C2215 1.539 . S
C2213 C2209 1.408 . S
C2213 C2212 1.404 . S
C2213 H2225 0.930 . S
C2214 C2210 1.524 . S
C2214 H2226 0.956 . S
C2214 H2227 0.961 . S
C2214 H2228 0.961 . S
C2215 C2212 1.539 . S
C2215 H2229 0.958 . S
C2215 H2230 0.961 . S
C2215 H2231 0.960 . S
H2216 C2200 0.931 . S
H2217 C2205 0.929 . S
H2218 C2206 0.960 . S
H2219 C2206 0.962 . S
H2220 C2206 0.960 . S
H2221 C2207 0.961 . S
H2222 C2207 0.961 . S
H2223 C2207 0.961 . S
H2224 C2208 0.931 . S
H2225 C2213 0.930 . S
H2226 C2214 0.956 . S
H2227 C2214 0.961 . S
H2228 C2214 0.961 . S
H2229 C2215 0.958 . S
H2230 C2215 0.961 . S
H2231 C2215 0.960 . S
C2232 C2233 1.391 . S
C2232 C2234 1.394 . S
C2232 H2248 0.931 . S
C2233 C2232 1.391 . S
C2233 C2237 1.376 . S
C2234 C2232 1.394 . S
C2234 C2235 1.369 . S
C2234 C2238 1.531 . S
C2235 C2234 1.369 . S
C2235 C2236 1.410 . S
C2235 C2243 1.503 . S
C2236 C2235 1.410 . S
C2236 C2237 1.392 . S
C2236 C2239 1.511 . S
C2237 C2233 1.376 . S
C2237 C2236 1.392 . S
C2237 H2249 0.929 . S
C2238 C2234 1.531 . S
C2238 H2250 0.960 . S
C2238 H2251 0.962 . S
C2238 H2252 0.960 . S
C2239 C2236 1.511 . S
C2239 H2253 0.961 . S
C2239 H2254 0.961 . S
C2239 H2255 0.961 . S
C2240 C2241 1.370 . S
C2240 C2242 1.363 . S
C2240 H2256 0.931 . S
C2241 C2240 1.370 . S
C2241 C2245 1.408 . S
C2242 C2240 1.363 . S
C2242 C2243 1.370 . S
C2242 C2246 1.524 . S
C2243 C2235 1.503 . S
C2243 C2242 1.370 . S
C2243 C2244 1.403 . S
C2244 C2243 1.403 . S
C2244 C2245 1.404 . S
C2244 C2247 1.539 . S
C2245 C2241 1.408 . S
C2245 C2244 1.404 . S
C2245 H2257 0.930 . S
C2246 C2242 1.524 . S
C2246 H2258 0.956 . S
C2246 H2259 0.961 . S
C2246 H2260 0.961 . S
C2247 C2244 1.539 . S
C2247 H2261 0.958 . S
C2247 H2262 0.961 . S
C2247 H2263 0.960 . S
H2248 C2232 0.931 . S
H2249 C2237 0.929 . S
H2250 C2238 0.960 . S
H2251 C2238 0.962 . S
H2252 C2238 0.960 . S
H2253 C2239 0.961 . S
H2254 C2239 0.961 . S
H2255 C2239 0.961 . S
H2256 C2240 0.931 . S
H2257 C2245 0.930 . S
H2258 C2246 0.956 . S
H2259 C2246 0.961 . S
H2260 C2246 0.961 . S
H2261 C2247 0.958 . S
H2262 C2247 0.961 . S
H2263 C2247 0.960 . S
C2264 C2265 1.391 . S
C2264 C2266 1.394 . S
C2264 H2280 0.931 . S
C2265 C2264 1.391 . S
C2265 C2269 1.376 . S
C2266 C2264 1.394 . S
C2266 C2267 1.369 . S
C2266 C2270 1.531 . S
C2267 C2266 1.369 . S
C2267 C2268 1.410 . S
C2267 C2275 1.503 . S
C2268 C2267 1.410 . S
C2268 C2269 1.392 . S
C2268 C2271 1.511 . S
C2269 C2265 1.376 . S
C2269 C2268 1.392 . S
C2269 H2281 0.929 . S
C2270 C2266 1.531 . S
C2270 H2282 0.960 . S
C2270 H2283 0.962 . S
C2270 H2284 0.960 . S
C2271 C2268 1.511 . S
C2271 H2285 0.961 . S
C2271 H2286 0.961 . S
C2271 H2287 0.961 . S
C2272 C2273 1.370 . S
C2272 C2274 1.363 . S
C2272 H2288 0.931 . S
C2273 C2272 1.370 . S
C2273 C2277 1.408 . S
C2274 C2272 1.363 . S
C2274 C2275 1.370 . S
C2274 C2278 1.524 . S
C2275 C2267 1.503 . S
C2275 C2274 1.370 . S
C2275 C2276 1.403 . S
C2276 C2275 1.403 . S
C2276 C2277 1.404 . S
C2276 C2279 1.539 . S
C2277 C2273 1.408 . S
C2277 C2276 1.404 . S
C2277 H2289 0.930 . S
C2278 C2274 1.524 . S
C2278 H2290 0.956 . S
C2278 H2291 0.961 . S
C2278 H2292 0.961 . S
C2279 C2276 1.539 . S
C2279 H2293 0.958 . S
C2279 H2294 0.961 . S
C2279 H2295 0.960 . S
H2280 C2264 0.931 . S
H2281 C2269 0.929 . S
H2282 C2270 0.960 . S
H2283 C2270 0.962 . S
H2284 C2270 0.960 . S
H2285 C2271 0.961 . S
H2286 C2271 0.961 . S
H2287 C2271 0.961 . S
H2288 C2272 0.931 . S
H2289 C2277 0.930 . S
H2290 C2278 0.956 . S
H2291 C2278 0.961 . S
H2292 C2278 0.961 . S
H2293 C2279 0.958 . S
H2294 C2279 0.961 . S
H2295 C2279 0.960 . S
C2296 C2297 1.391 . S
C2296 C2298 1.394 . S
C2296 H2312 0.931 . S
C2297 C2296 1.391 . S
C2297 C2301 1.376 . S
C2298 C2296 1.394 . S
C2298 C2299 1.369 . S
C2298 C2302 1.531 . S
C2299 C2298 1.369 . S
C2299 C2300 1.410 . S
C2299 C2307 1.503 . S
C2300 C2299 1.410 . S
C2300 C2301 1.392 . S
C2300 C2303 1.511 . S
C2301 C2297 1.376 . S
C2301 C2300 1.392 . S
C2301 H2313 0.929 . S
C2302 C2298 1.531 . S
C2302 H2314 0.960 . S
C2302 H2315 0.962 . S
C2302 H2316 0.960 . S
C2303 C2300 1.511 . S
C2303 H2317 0.961 . S
C2303 H2318 0.961 . S
C2303 H2319 0.961 . S
C2304 C2305 1.370 . S
C2304 C2306 1.363 . S
C2304 H2320 0.931 . S
C2305 C2304 1.370 . S
C2305 C2309 1.408 . S
C2306 C2304 1.363 . S
C2306 C2307 1.370 . S
C2306 C2310 1.524 . S
C2307 C2299 1.503 . S
C2307 C2306 1.370 . S
C2307 C2308 1.403 . S
C2308 C2307 1.403 . S
C2308 C2309 1.404 . S
C2308 C2311 1.539 . S
C2309 C2305 1.408 . S
C2309 C2308 1.404 . S
C2309 H2321 0.930 . S
C2310 C2306 1.524 . S
C2310 H2322 0.956 . S
C2310 H2323 0.961 . S
C2310 H2324 0.961 . S
C2311 C2308 1.539 . S
C2311 H2325 0.958 . S
C2311 H2326 0.961 . S
C2311 H2327 0.960 . S
H2312 C2296 0.931 . S
H2313 C2301 0.929 . S
H2314 C2302 0.960 . S
H2315 C2302 0.962 . S
H2316 C2302 0.960 . S
H2317 C2303 0.961 . S
H2318 C2303 0.961 . S
H2319 C2303 0.961 . S
H2320 C2304 0.931 . S
H2321 C2309 0.930 . S
H2322 C2310 0.956 . S
H2323 C2310 0.961 . S
H2324 C2310 0.961 . S
H2325 C2311 0.958 . S
H2326 C2311 0.961 . S
H2327 C2311 0.960 . S
C2328 C2329 1.391 . S
C2328 C2330 1.394 . S
C2328 H2344 0.931 . S
C2329 C2328 1.391 . S
C2329 C2333 1.376 . S
C2330 C2328 1.394 . S
C2330 C2331 1.369 . S
C2330 C2334 1.531 . S
C2331 C2330 1.369 . S
C2331 C2332 1.410 . S
C2331 C2339 1.503 . S
C2332 C2331 1.410 . S
C2332 C2333 1.392 . S
C2332 C2335 1.511 . S
C2333 C2329 1.376 . S
C2333 C2332 1.392 . S
C2333 H2345 0.926 . S
C2334 C2330 1.531 . S
C2334 H2346 0.960 . S
C2334 H2347 0.962 . S
C2334 H2348 0.960 . S
C2335 C2332 1.511 . S
C2335 H2349 0.990 . S
C2335 H2350 0.961 . S
C2335 H2351 0.961 . S
C2336 C2337 1.370 . S
C2336 C2338 1.363 . S
C2336 H2352 0.931 . S
C2337 C2336 1.370 . S
C2337 C2341 1.408 . S
C2338 C2336 1.363 . S
C2338 C2339 1.370 . S
C2338 C2342 1.524 . S
C2339 C2331 1.503 . S
C2339 C2338 1.370 . S
C2339 C2340 1.403 . S
C2340 C2339 1.403 . S
C2340 C2341 1.404 . S
C2340 C2343 1.539 . S
C2341 C2337 1.408 . S
C2341 C2340 1.404 . S
C2341 H2353 0.930 . S
C2342 C2338 1.524 . S
C2342 H2354 0.956 . S
C2342 H2355 0.961 . S
C2342 H2356 0.961 . S
C2343 C2340 1.539 . S
C2343 H2357 0.958 . S
C2343 H2358 0.961 . S
C2343 H2359 0.960 . S
H2344 C2328 0.931 . S
H2345 C2333 0.926 . S
H2346 C2334 0.960 . S
H2347 C2334 0.962 . S
H2348 C2334 0.960 . S
H2349 C2335 0.990 . S
H2350 C2335 0.961 . S
H2351 C2335 0.961 . S
H2352 C2336 0.931 . S
H2353 C2341 0.930 . S
H2354 C2342 0.956 . S
H2355 C2342 0.961 . S
H2356 C2342 0.961 . S
H2357 C2343 0.958 . S
H2358 C2343 0.961 . S
H2359 C2343 0.960 . S
C2360 C2361 1.391 . S
C2360 C2362 1.394 . S
C2360 H2376 0.931 . S
C2361 C2360 1.391 . S
C2361 C2365 1.376 . S
C2362 C2360 1.394 . S
C2362 C2363 1.369 . S
C2362 C2366 1.531 . S
C2363 C2362 1.369 . S
C2363 C2364 1.410 . S
C2363 C2371 1.503 . S
C2364 C2363 1.410 . S
C2364 C2365 1.392 . S
C2364 C2367 1.511 . S
C2365 C2361 1.376 . S
C2365 C2364 1.392 . S
C2365 H2377 0.929 . S
C2366 C2362 1.531 . S
C2366 H2378 0.960 . S
C2366 H2379 0.962 . S
C2366 H2380 0.960 . S
C2367 C2364 1.511 . S
C2367 H2381 0.961 . S
C2367 H2382 0.961 . S
C2367 H2383 0.961 . S
C2368 C2369 1.370 . S
C2368 C2370 1.363 . S
C2368 H2384 0.931 . S
C2369 C2368 1.370 . S
C2369 C2373 1.408 . S
C2370 C2368 1.363 . S
C2370 C2371 1.370 . S
C2370 C2374 1.524 . S
C2371 C2363 1.503 . S
C2371 C2370 1.370 . S
C2371 C2372 1.403 . S
C2372 C2371 1.403 . S
C2372 C2373 1.404 . S
C2372 C2375 1.539 . S
C2373 C2369 1.408 . S
C2373 C2372 1.404 . S
C2373 H2385 0.930 . S
C2374 C2370 1.524 . S
C2374 H2386 0.956 . S
C2374 H2387 0.961 . S
C2374 H2388 0.961 . S
C2375 C2372 1.539 . S
C2375 H2389 0.958 . S
C2375 H2390 0.961 . S
C2375 H2391 0.960 . S
H2376 C2360 0.931 . S
H2377 C2365 0.929 . S
H2378 C2366 0.960 . S
H2379 C2366 0.962 . S
H2380 C2366 0.960 . S
H2381 C2367 0.961 . S
H2382 C2367 0.961 . S
H2383 C2367 0.961 . S
H2384 C2368 0.931 . S
H2385 C2373 0.930 . S
H2386 C2374 0.956 . S
H2387 C2374 0.961 . S
H2388 C2374 0.961 . S
H2389 C2375 0.958 . S
H2390 C2375 0.961 . S
H2391 C2375 0.960 . S
C2392 C2393 1.391 . S
C2392 C2394 1.394 . S
C2392 H2408 0.931 . S
C2393 C2392 1.391 . S
C2393 C2397 1.376 . S
C2394 C2392 1.394 . S
C2394 C2395 1.369 . S
C2394 C2398 1.531 . S
C2395 C2394 1.369 . S
C2395 C2396 1.410 . S
C2395 C2403 1.503 . S
C2396 C2395 1.410 . S
C2396 C2397 1.392 . S
C2396 C2399 1.511 . S
C2397 C2393 1.376 . S
C2397 C2396 1.392 . S
C2397 H2409 0.929 . S
C2398 C2394 1.531 . S
C2398 H2410 0.960 . S
C2398 H2411 0.962 . S
C2398 H2412 0.960 . S
C2399 C2396 1.511 . S
C2399 H2413 0.961 . S
C2399 H2414 0.961 . S
C2399 H2415 0.961 . S
C2400 C2401 1.370 . S
C2400 C2402 1.363 . S
C2400 H2416 0.931 . S
C2401 C2400 1.370 . S
C2401 C2405 1.408 . S
C2402 C2400 1.363 . S
C2402 C2403 1.370 . S
C2402 C2406 1.524 . S
C2403 C2395 1.503 . S
C2403 C2402 1.370 . S
C2403 C2404 1.403 . S
C2404 C2403 1.403 . S
C2404 C2405 1.404 . S
C2404 C2407 1.539 . S
C2405 C2401 1.408 . S
C2405 C2404 1.404 . S
C2405 H2417 0.930 . S
C2406 C2402 1.524 . S
C2406 H2418 0.956 . S
C2406 H2419 0.961 . S
C2406 H2420 0.961 . S
C2407 C2404 1.539 . S
C2407 H2421 0.958 . S
C2407 H2422 0.961 . S
C2407 H2423 0.960 . S
H2408 C2392 0.931 . S
H2409 C2397 0.929 . S
H2410 C2398 0.960 . S
H2411 C2398 0.962 . S
H2412 C2398 0.960 . S
H2413 C2399 0.961 . S
H2414 C2399 0.961 . S
H2415 C2399 0.961 . S
H2416 C2400 0.931 . S
H2417 C2405 0.930 . S
H2418 C2406 0.956 . S
H2419 C2406 0.961 . S
H2420 C2406 0.961 . S
H2421 C2407 0.958 . S
H2422 C2407 0.961 . S
H2423 C2407 0.960 . S
C2424 C2425 1.391 . S
C2424 C2426 1.394 . S
C2424 H2440 0.931 . S
C2425 C2424 1.391 . S
C2425 C2429 1.376 . S
C2426 C2424 1.394 . S
C2426 C2427 1.369 . S
C2426 C2430 1.531 . S
C2427 C2426 1.369 . S
C2427 C2428 1.410 . S
C2427 C2435 1.503 . S
C2428 C2427 1.410 . S
C2428 C2429 1.392 . S
C2428 C2431 1.511 . S
C2429 C2425 1.376 . S
C2429 C2428 1.392 . S
C2429 H2441 0.929 1_556 S
C2430 C2426 1.531 . S
C2430 H2442 0.960 . S
C2430 H2443 0.962 . S
C2430 H2444 0.960 . S
C2431 C2428 1.511 . S
C2431 H2445 0.961 1_556 S
C2431 H2446 0.961 . S
C2431 H2447 0.973 . S
C2432 C2433 1.370 . S
C2432 C2434 1.363 . S
C2432 H2448 0.931 . S
C2433 C2432 1.370 . S
C2433 C2437 1.408 . S
C2434 C2432 1.363 . S
C2434 C2435 1.370 . S
C2434 C2438 1.524 . S
C2435 C2427 1.503 . S
C2435 C2434 1.370 . S
C2435 C2436 1.403 . S
C2436 C2435 1.403 . S
C2436 C2437 1.404 . S
C2436 C2439 1.539 . S
C2437 C2433 1.408 . S
C2437 C2436 1.404 . S
C2437 H2449 0.930 . S
C2438 C2434 1.524 . S
C2438 H2450 0.956 . S
C2438 H2451 0.961 . S
C2438 H2452 0.961 . S
C2439 C2436 1.539 . S
C2439 H2453 0.958 . S
C2439 H2454 0.961 . S
C2439 H2455 0.960 . S
H2440 C2424 0.931 . S
H2441 C2429 0.929 1_554 S
H2442 C2430 0.960 . S
H2443 C2430 0.962 . S
H2444 C2430 0.960 . S
H2445 C2431 0.961 1_554 S
H2446 C2431 0.961 . S
H2447 C2431 0.973 . S
H2448 C2432 0.931 . S
H2449 C2437 0.930 . S
H2450 C2438 0.956 . S
H2451 C2438 0.961 . S
H2452 C2438 0.961 . S
H2453 C2439 0.958 . S
H2454 C2439 0.961 . S
H2455 C2439 0.960 . S
C2456 C2457 1.391 . S
C2456 C2458 1.394 . S
C2456 H2472 0.931 . S
C2457 C2456 1.391 . S
C2457 C2461 1.376 . S
C2458 C2456 1.394 . S
C2458 C2459 1.369 . S
C2458 C2462 1.531 . S
C2459 C2458 1.369 . S
C2459 C2460 1.410 . S
C2459 C2467 1.503 . S
C2460 C2459 1.410 . S
C2460 C2461 1.392 . S
C2460 C2463 1.511 . S
C2461 C2457 1.376 . S
C2461 C2460 1.392 . S
C2461 H2473 0.929 . S
C2462 C2458 1.531 . S
C2462 H2474 0.960 . S
C2462 H2475 0.962 . S
C2462 H2476 0.960 . S
C2463 C2460 1.511 . S
C2463 H2477 0.961 . S
C2463 H2478 0.961 . S
C2463 H2479 0.961 . S
C2464 C2465 1.370 . S
C2464 C2466 1.363 . S
C2464 H2480 0.931 . S
C2465 C2464 1.370 . S
C2465 C2469 1.408 . S
C2466 C2464 1.363 . S
C2466 C2467 1.370 . S
C2466 C2470 1.524 . S
C2467 C2459 1.503 . S
C2467 C2466 1.370 . S
C2467 C2468 1.403 . S
C2468 C2467 1.403 . S
C2468 C2469 1.404 . S
C2468 C2471 1.539 . S
C2469 C2465 1.408 . S
C2469 C2468 1.404 . S
C2469 H2481 0.930 . S
C2470 C2466 1.524 . S
C2470 H2482 0.956 . S
C2470 H2483 0.961 . S
C2470 H2484 0.961 . S
C2471 C2468 1.539 . S
C2471 H2485 0.958 . S
C2471 H2486 0.961 . S
C2471 H2487 0.960 . S
H2472 C2456 0.931 . S
H2473 C2461 0.929 . S
H2474 C2462 0.960 . S
H2475 C2462 0.962 . S
H2476 C2462 0.960 . S
H2477 C2463 0.961 . S
H2478 C2463 0.961 . S
H2479 C2463 0.961 . S
H2480 C2464 0.931 . S
H2481 C2469 0.930 . S
H2482 C2470 0.956 . S
H2483 C2470 0.961 . S
H2484 C2470 0.961 . S
H2485 C2471 0.958 . S
H2486 C2471 0.961 . S
H2487 C2471 0.960 . S
C2488 C2489 1.391 . S
C2488 C2490 1.394 . S
C2488 H2504 0.931 . S
C2489 C2488 1.391 . S
C2489 C2493 1.376 . S
C2490 C2488 1.394 . S
C2490 C2491 1.369 . S
C2490 C2494 1.531 . S
C2491 C2490 1.369 . S
C2491 C2492 1.410 . S
C2491 C2499 1.503 . S
C2492 C2491 1.410 . S
C2492 C2493 1.392 . S
C2492 C2495 1.511 . S
C2493 C2489 1.376 . S
C2493 C2492 1.392 . S
C2493 H2505 0.959 . S
C2494 C2490 1.531 . S
C2494 H2506 0.960 . S
C2494 H2507 0.962 . S
C2494 H2508 0.960 . S
C2495 C2492 1.511 . S
C2495 H2509 0.961 . S
C2495 H2510 0.961 . S
C2495 H2511 0.961 . S
C2496 C2497 1.370 . S
C2496 C2498 1.363 . S
C2496 H2512 0.931 . S
C2497 C2496 1.370 . S
C2497 C2501 1.408 . S
C2498 C2496 1.363 . S
C2498 C2499 1.370 . S
C2498 C2502 1.524 . S
C2499 C2491 1.503 . S
C2499 C2498 1.370 . S
C2499 C2500 1.403 . S
C2500 C2499 1.403 . S
C2500 C2501 1.404 . S
C2500 C2503 1.539 . S
C2501 C2497 1.408 . S
C2501 C2500 1.404 . S
C2501 H2513 0.930 . S
C2502 C2498 1.524 . S
C2502 H2514 0.956 . S
C2502 H2515 0.961 . S
C2502 H2516 0.961 . S
C2503 C2500 1.539 . S
C2503 H2517 0.958 . S
C2503 H2518 0.961 . S
C2503 H2519 0.960 . S
H2504 C2488 0.931 . S
H2505 C2493 0.959 . S
H2506 C2494 0.960 . S
H2507 C2494 0.962 . S
H2508 C2494 0.960 . S
H2509 C2495 0.961 . S
H2510 C2495 0.961 . S
H2511 C2495 0.961 . S
H2512 C2496 0.931 . S
H2513 C2501 0.930 . S
H2514 C2502 0.956 . S
H2515 C2502 0.961 . S
H2516 C2502 0.961 . S
H2517 C2503 0.958 . S
H2518 C2503 0.961 . S
H2519 C2503 0.960 . S
C2520 C2521 1.391 . S
C2520 C2522 1.394 . S
C2520 H2536 0.931 . S
C2521 C2520 1.391 . S
C2521 C2525 1.376 . S
C2522 C2520 1.394 . S
C2522 C2523 1.369 . S
C2522 C2526 1.531 . S
C2523 C2522 1.369 . S
C2523 C2524 1.410 . S
C2523 C2531 1.503 . S
C2524 C2523 1.410 . S
C2524 C2525 1.392 . S
C2524 C2527 1.511 . S
C2525 C2521 1.376 . S
C2525 C2524 1.392 . S
C2525 H2537 0.929 . S
C2526 C2522 1.531 . S
C2526 H2538 0.960 . S
C2526 H2539 0.962 . S
C2526 H2540 0.960 . S
C2527 C2524 1.511 . S
C2527 H2541 0.961 . S
C2527 H2542 0.961 . S
C2527 H2543 0.961 . S
C2528 C2529 1.370 . S
C2528 C2530 1.363 . S
C2528 H2544 0.931 . S
C2529 C2528 1.370 . S
C2529 C2533 1.408 . S
C2530 C2528 1.363 . S
C2530 C2531 1.370 . S
C2530 C2534 1.524 . S
C2531 C2523 1.503 . S
C2531 C2530 1.370 . S
C2531 C2532 1.403 . S
C2532 C2531 1.403 . S
C2532 C2533 1.404 . S
C2532 C2535 1.539 . S
C2533 C2529 1.408 . S
C2533 C2532 1.404 . S
C2533 H2545 0.930 . S
C2534 C2530 1.524 . S
C2534 H2546 0.956 . S
C2534 H2547 0.961 . S
C2534 H2548 0.961 . S
C2535 C2532 1.539 . S
C2535 H2549 0.958 . S
C2535 H2550 0.961 . S
C2535 H2551 0.960 . S
H2536 C2520 0.931 . S
H2537 C2525 0.929 . S
H2538 C2526 0.960 . S
H2539 C2526 0.962 . S
H2540 C2526 0.960 . S
H2541 C2527 0.961 . S
H2542 C2527 0.961 . S
H2543 C2527 0.961 . S
H2544 C2528 0.931 . S
H2545 C2533 0.930 . S
H2546 C2534 0.956 . S
H2547 C2534 0.961 . S
H2548 C2534 0.961 . S
H2549 C2535 0.958 . S
H2550 C2535 0.961 . S
H2551 C2535 0.960 . S
C2552 C2553 1.391 . S
C2552 C2554 1.394 . S
C2552 H2568 0.931 . S
C2553 C2552 1.391 . S
C2553 C2557 1.376 . S
C2554 C2552 1.394 . S
C2554 C2555 1.369 . S
C2554 C2558 1.531 . S
C2555 C2554 1.369 . S
C2555 C2556 1.410 . S
C2555 C2563 1.503 . S
C2556 C2555 1.410 . S
C2556 C2557 1.392 . S
C2556 C2559 1.511 . S
C2557 C2553 1.376 . S
C2557 C2556 1.392 . S
C2557 H2569 0.929 . S
C2558 C2554 1.531 . S
C2558 H2570 0.960 . S
C2558 H2571 0.962 . S
C2558 H2572 0.960 . S
C2559 C2556 1.511 . S
C2559 H2573 0.961 . S
C2559 H2574 0.961 . S
C2559 H2575 0.961 . S
C2560 C2561 1.370 . S
C2560 C2562 1.363 . S
C2560 H2576 0.931 . S
C2561 C2560 1.370 . S
C2561 C2565 1.408 . S
C2562 C2560 1.363 . S
C2562 C2563 1.370 . S
C2562 C2566 1.524 . S
C2563 C2555 1.503 . S
C2563 C2562 1.370 . S
C2563 C2564 1.403 . S
C2564 C2563 1.403 . S
C2564 C2565 1.404 . S
C2564 C2567 1.539 . S
C2565 C2561 1.408 . S
C2565 C2564 1.404 . S
C2565 H2577 0.930 . S
C2566 C2562 1.524 . S
C2566 H2578 0.956 . S
C2566 H2579 0.961 . S
C2566 H2580 0.961 . S
C2567 C2564 1.539 . S
C2567 H2581 0.958 . S
C2567 H2582 0.961 . S
C2567 H2583 0.960 . S
H2568 C2552 0.931 . S
H2569 C2557 0.929 . S
H2570 C2558 0.960 . S
H2571 C2558 0.962 . S
H2572 C2558 0.960 . S
H2573 C2559 0.961 . S
H2574 C2559 0.961 . S
H2575 C2559 0.961 . S
H2576 C2560 0.931 . S
H2577 C2565 0.930 . S
H2578 C2566 0.956 . S
H2579 C2566 0.961 . S
H2580 C2566 0.961 . S
H2581 C2567 0.958 . S
H2582 C2567 0.961 . S
H2583 C2567 0.960 . S
C2584 C2585 1.391 . S
C2584 C2586 1.394 . S
C2584 H2600 0.931 . S
C2585 C2584 1.391 . S
C2585 C2589 1.376 . S
C2586 C2584 1.394 . S
C2586 C2587 1.369 . S
C2586 C2590 1.531 . S
C2587 C2586 1.369 . S
C2587 C2588 1.410 . S
C2587 C2595 1.503 . S
C2588 C2587 1.410 . S
C2588 C2589 1.392 . S
C2588 C2591 1.511 . S
C2589 C2585 1.376 . S
C2589 C2588 1.392 . S
C2589 H2601 0.929 . S
C2590 C2586 1.531 . S
C2590 H2602 0.960 . S
C2590 H2603 0.962 . S
C2590 H2604 0.960 . S
C2591 C2588 1.511 . S
C2591 H2605 0.961 . S
C2591 H2606 0.961 . S
C2591 H2607 0.961 . S
C2592 C2593 1.370 . S
C2592 C2594 1.363 . S
C2592 H2608 0.931 . S
C2593 C2592 1.370 . S
C2593 C2597 1.408 . S
C2594 C2592 1.363 . S
C2594 C2595 1.370 . S
C2594 C2598 1.524 . S
C2595 C2587 1.503 . S
C2595 C2594 1.370 . S
C2595 C2596 1.403 . S
C2596 C2595 1.403 . S
C2596 C2597 1.404 . S
C2596 C2599 1.539 . S
C2597 C2593 1.408 . S
C2597 C2596 1.404 . S
C2597 H2609 0.930 . S
C2598 C2594 1.524 . S
C2598 H2610 0.956 . S
C2598 H2611 0.961 . S
C2598 H2612 0.961 . S
C2599 C2596 1.539 . S
C2599 H2613 0.958 . S
C2599 H2614 0.961 . S
C2599 H2615 0.960 . S
H2600 C2584 0.931 . S
H2601 C2589 0.929 . S
H2602 C2590 0.960 . S
H2603 C2590 0.962 . S
H2604 C2590 0.960 . S
H2605 C2591 0.961 . S
H2606 C2591 0.961 . S
H2607 C2591 0.961 . S
H2608 C2592 0.931 . S
H2609 C2597 0.930 . S
H2610 C2598 0.956 . S
H2611 C2598 0.961 . S
H2612 C2598 0.961 . S
H2613 C2599 0.958 . S
H2614 C2599 0.961 . S
H2615 C2599 0.960 . S
C2616 C2617 1.391 . S
C2616 C2618 1.394 . S
C2616 H2632 0.931 . S
C2617 C2616 1.391 . S
C2617 C2621 1.376 . S
C2618 C2616 1.394 . S
C2618 C2619 1.369 . S
C2618 C2622 1.531 . S
C2619 C2618 1.369 . S
C2619 C2620 1.410 . S
C2619 C2627 1.503 . S
C2620 C2619 1.410 . S
C2620 C2621 1.392 . S
C2620 C2623 1.511 . S
C2621 C2617 1.376 . S
C2621 C2620 1.392 . S
C2621 H2633 0.929 . S
C2622 C2618 1.531 . S
C2622 H2634 0.960 . S
C2622 H2635 0.962 . S
C2622 H2636 0.960 . S
C2623 C2620 1.511 . S
C2623 H2637 0.961 . S
C2623 H2638 0.961 . S
C2623 H2639 0.961 . S
C2624 C2625 1.370 . S
C2624 C2626 1.363 . S
C2624 H2640 0.931 . S
C2625 C2624 1.370 . S
C2625 C2629 1.408 . S
C2626 C2624 1.363 . S
C2626 C2627 1.370 . S
C2626 C2630 1.524 . S
C2627 C2619 1.503 . S
C2627 C2626 1.370 . S
C2627 C2628 1.403 . S
C2628 C2627 1.403 . S
C2628 C2629 1.404 . S
C2628 C2631 1.539 . S
C2629 C2625 1.408 . S
C2629 C2628 1.404 . S
C2629 H2641 0.930 . S
C2630 C2626 1.524 . S
C2630 H2642 0.956 . S
C2630 H2643 0.961 . S
C2630 H2644 0.961 . S
C2631 C2628 1.539 . S
C2631 H2645 0.958 . S
C2631 H2646 0.961 . S
C2631 H2647 0.960 . S
H2632 C2616 0.931 . S
H2633 C2621 0.929 . S
H2634 C2622 0.960 . S
H2635 C2622 0.962 . S
H2636 C2622 0.960 . S
H2637 C2623 0.961 . S
H2638 C2623 0.961 . S
H2639 C2623 0.961 . S
H2640 C2624 0.931 . S
H2641 C2629 0.930 . S
H2642 C2630 0.956 . S
H2643 C2630 0.961 . S
H2644 C2630 0.961 . S
H2645 C2631 0.958 . S
H2646 C2631 0.961 . S
H2647 C2631 0.960 . S
C2648 C2649 1.391 . S
C2648 C2650 1.394 . S
C2648 H2664 0.931 . S
C2649 C2648 1.391 . S
C2649 C2653 1.376 . S
C2650 C2648 1.394 . S
C2650 C2651 1.369 . S
C2650 C2654 1.531 . S
C2651 C2650 1.369 . S
C2651 C2652 1.410 . S
C2651 C2659 1.503 . S
C2652 C2651 1.410 . S
C2652 C2653 1.392 . S
C2652 C2655 1.511 . S
C2653 C2649 1.376 . S
C2653 C2652 1.392 . S
C2653 H2665 0.929 . S
C2654 C2650 1.531 . S
C2654 H2666 0.960 . S
C2654 H2667 0.962 . S
C2654 H2668 0.960 . S
C2655 C2652 1.511 . S
C2655 H2669 0.961 . S
C2655 H2670 0.961 . S
C2655 H2671 0.961 . S
C2656 C2657 1.370 . S
C2656 C2658 1.363 . S
C2656 H2672 0.931 . S
C2657 C2656 1.370 . S
C2657 C2661 1.408 . S
C2658 C2656 1.363 . S
C2658 C2659 1.370 . S
C2658 C2662 1.524 . S
C2659 C2651 1.503 . S
C2659 C2658 1.370 . S
C2659 C2660 1.403 . S
C2660 C2659 1.403 . S
C2660 C2661 1.404 . S
C2660 C2663 1.539 . S
C2661 C2657 1.408 . S
C2661 C2660 1.404 . S
C2661 H2673 0.930 . S
C2662 C2658 1.524 . S
C2662 H2674 0.956 . S
C2662 H2675 0.961 . S
C2662 H2676 0.961 . S
C2663 C2660 1.539 . S
C2663 H2677 0.958 . S
C2663 H2678 0.961 . S
C2663 H2679 0.960 . S
H2664 C2648 0.931 . S
H2665 C2653 0.929 . S
H2666 C2654 0.960 . S
H2667 C2654 0.962 . S
H2668 C2654 0.960 . S
H2669 C2655 0.961 . S
H2670 C2655 0.961 . S
H2671 C2655 0.961 . S
H2672 C2656 0.931 . S
H2673 C2661 0.930 . S
H2674 C2662 0.956 . S
H2675 C2662 0.961 . S
H2676 C2662 0.961 . S
H2677 C2663 0.958 . S
H2678 C2663 0.961 . S
H2679 C2663 0.960 . S
C2680 C2681 1.391 . S
C2680 C2682 1.394 . S
C2680 H2696 0.931 . S
C2681 C2680 1.391 . S
C2681 C2685 1.376 . S
C2682 C2680 1.394 . S
C2682 C2683 1.369 . S
C2682 C2686 1.531 . S
C2683 C2682 1.369 . S
C2683 C2684 1.410 . S
C2683 C2691 1.503 . S
C2684 C2683 1.410 . S
C2684 C2685 1.392 . S
C2684 C2687 1.511 . S
C2685 C2681 1.376 . S
C2685 C2684 1.392 . S
C2685 H2697 0.929 . S
C2686 C2682 1.531 . S
C2686 H2698 0.960 . S
C2686 H2699 0.962 . S
C2686 H2700 0.960 . S
C2687 C2684 1.511 . S
C2687 H2701 0.961 . S
C2687 H2702 0.961 . S
C2687 H2703 0.961 . S
C2688 C2689 1.370 . S
C2688 C2690 1.363 . S
C2688 H2704 0.931 . S
C2689 C2688 1.370 . S
C2689 C2693 1.408 . S
C2690 C2688 1.363 . S
C2690 C2691 1.370 . S
C2690 C2694 1.524 . S
C2691 C2683 1.503 . S
C2691 C2690 1.370 . S
C2691 C2692 1.403 . S
C2692 C2691 1.403 . S
C2692 C2693 1.404 . S
C2692 C2695 1.539 . S
C2693 C2689 1.408 . S
C2693 C2692 1.404 . S
C2693 H2705 0.930 . S
C2694 C2690 1.524 . S
C2694 H2706 0.956 . S
C2694 H2707 0.961 . S
C2694 H2708 0.961 . S
C2695 C2692 1.539 . S
C2695 H2709 0.958 . S
C2695 H2710 0.961 . S
C2695 H2711 0.960 . S
H2696 C2680 0.931 . S
H2697 C2685 0.929 . S
H2698 C2686 0.960 . S
H2699 C2686 0.962 . S
H2700 C2686 0.960 . S
H2701 C2687 0.961 . S
H2702 C2687 0.961 . S
H2703 C2687 0.961 . S
H2704 C2688 0.931 . S
H2705 C2693 0.930 . S
H2706 C2694 0.956 . S
H2707 C2694 0.961 . S
H2708 C2694 0.961 . S
H2709 C2695 0.958 . S
H2710 C2695 0.961 . S
H2711 C2695 0.960 . S
C2712 C2713 1.391 . S
C2712 C2714 1.394 . S
C2712 H2728 0.931 . S
C2713 C2712 1.391 . S
C2713 C2717 1.374 . S
C2714 C2712 1.394 . S
C2714 C2715 1.369 . S
C2714 C2718 1.531 . S
C2715 C2714 1.369 . S
C2715 C2716 1.410 1_455 S
C2715 C2723 1.503 . S
C2716 C2715 1.410 1_655 S
C2716 C2717 1.393 1_655 S
C2716 C2719 1.511 . S
C2717 C2713 1.374 . S
C2717 C2716 1.393 1_455 S
C2717 H2729 0.930 1_455 S
C2718 C2714 1.531 . S
C2718 H2730 0.960 . S
C2718 H2731 0.962 . S
C2718 H2732 0.960 . S
C2719 C2716 1.511 . S
C2719 H2733 0.961 . S
C2719 H2734 0.961 . S
C2719 H2735 0.961 . S
C2720 C2721 1.370 . S
C2720 C2722 1.363 . S
C2720 H2736 0.931 . S
C2721 C2720 1.370 . S
C2721 C2725 1.408 1_455 S
C2722 C2720 1.363 . S
C2722 C2723 1.370 . S
C2722 C2726 1.524 . S
C2723 C2715 1.503 . S
C2723 C2722 1.370 . S
C2723 C2724 1.403 1_455 S
C2724 C2723 1.403 1_655 S
C2724 C2725 1.404 . S
C2724 C2727 1.539 . S
C2725 C2721 1.408 1_655 S
C2725 C2724 1.404 . S
C2725 H2737 0.930 . S
C2726 C2722 1.524 . S
C2726 H2738 0.956 . S
C2726 H2739 0.961 . S
C2726 H2740 0.961 . S
C2727 C2724 1.539 . S
C2727 H2741 0.958 . S
C2727 H2742 0.961 . S
C2727 H2743 0.960 . S
H2728 C2712 0.931 . S
H2729 C2717 0.930 1_655 S
H2730 C2718 0.960 . S
H2731 C2718 0.962 . S
H2732 C2718 0.960 . S
H2733 C2719 0.961 . S
H2734 C2719 0.961 . S
H2735 C2719 0.961 . S
H2736 C2720 0.931 . S
H2737 C2725 0.930 . S
H2738 C2726 0.956 . S
H2739 C2726 0.961 . S
H2740 C2726 0.961 . S
H2741 C2727 0.958 . S
H2742 C2727 0.961 . S
H2743 C2727 0.960 . S
C2744 C2745 1.391 . S
C2744 C2746 1.394 . S
C2744 H2760 0.931 . S
C2745 C2744 1.391 . S
C2745 C2749 1.376 . S
C2746 C2744 1.394 . S
C2746 C2747 1.369 . S
C2746 C2750 1.531 . S
C2747 C2746 1.369 . S
C2747 C2748 1.410 . S
C2747 C2755 1.503 . S
C2748 C2747 1.410 . S
C2748 C2749 1.392 . S
C2748 C2751 1.511 . S
C2749 C2745 1.376 . S
C2749 C2748 1.392 . S
C2749 H2761 0.929 . S
C2750 C2746 1.531 . S
C2750 H2762 0.960 . S
C2750 H2763 0.962 . S
C2750 H2764 0.960 . S
C2751 C2748 1.511 . S
C2751 H2765 0.961 . S
C2751 H2766 0.961 . S
C2751 H2767 0.961 . S
C2752 C2753 1.370 . S
C2752 C2754 1.363 . S
C2752 H2768 0.931 . S
C2753 C2752 1.370 . S
C2753 C2757 1.408 . S
C2754 C2752 1.363 . S
C2754 C2755 1.370 . S
C2754 C2758 1.524 . S
C2755 C2747 1.503 . S
C2755 C2754 1.370 . S
C2755 C2756 1.403 . S
C2756 C2755 1.403 . S
C2756 C2757 1.404 . S
C2756 C2759 1.539 . S
C2757 C2753 1.408 . S
C2757 C2756 1.404 . S
C2757 H2769 0.930 . S
C2758 C2754 1.524 . S
C2758 H2770 0.956 . S
C2758 H2771 0.961 . S
C2758 H2772 0.961 . S
C2759 C2756 1.539 . S
C2759 H2773 0.958 . S
C2759 H2774 0.961 . S
C2759 H2775 0.960 . S
H2760 C2744 0.931 . S
H2761 C2749 0.929 . S
H2762 C2750 0.960 . S
H2763 C2750 0.962 . S
H2764 C2750 0.960 . S
H2765 C2751 0.961 . S
H2766 C2751 0.961 . S
H2767 C2751 0.961 . S
H2768 C2752 0.931 . S
H2769 C2757 0.930 . S
H2770 C2758 0.956 . S
H2771 C2758 0.961 . S
H2772 C2758 0.961 . S
H2773 C2759 0.958 . S
H2774 C2759 0.961 . S
H2775 C2759 0.960 . S
C2776 C2777 1.391 . S
C2776 C2778 1.394 1_565 S
C2776 H2792 0.930 1_565 S
C2777 C2776 1.391 . S
C2777 C2781 1.376 . S
C2778 C2776 1.394 1_545 S
C2778 C2779 1.354 1_545 S
C2778 C2782 1.531 . S
C2779 C2778 1.354 1_565 S
C2779 C2780 1.415 . S
C2779 C2787 1.482 . S
C2780 C2779 1.415 . S
C2780 C2781 1.392 . S
C2780 C2783 1.511 . S
C2781 C2777 1.376 . S
C2781 C2780 1.392 . S
C2781 H2793 0.929 . S
C2782 C2778 1.531 . S
C2782 H2794 0.960 . S
C2782 H2795 0.962 1_545 S
C2782 H2796 0.960 . S
C2783 C2780 1.511 . S
C2783 H2797 0.961 . S
C2783 H2798 0.961 . S
C2783 H2799 0.961 1_565 S
C2784 C2785 1.370 . S
C2784 C2786 1.363 . S
C2784 H2800 0.931 . S
C2785 C2784 1.370 . S
C2785 C2789 1.408 1_565 S
C2786 C2784 1.363 . S
C2786 C2787 1.440 . S
C2786 C2790 1.524 . S
C2787 C2779 1.482 . S
C2787 C2786 1.440 . S
C2787 C2788 1.369 1_565 S
C2788 C2787 1.369 1_545 S
C2788 C2789 1.404 . S
C2788 C2791 1.539 . S
C2789 C2785 1.408 1_545 S
C2789 C2788 1.404 . S
C2789 H2801 0.930 . S
C2790 C2786 1.524 . S
C2790 H2802 0.956 . S
C2790 H2803 0.961 . S
C2790 H2804 0.961 . S
C2791 C2788 1.539 . S
C2791 H2805 0.958 . S
C2791 H2806 0.961 . S
C2791 H2807 0.960 . S
H2792 C2776 0.930 1_545 S
H2793 C2781 0.929 . S
H2794 C2782 0.960 . S
H2795 C2782 0.962 1_565 S
H2796 C2782 0.960 . S
H2797 C2783 0.961 . S
H2798 C2783 0.961 . S
H2799 C2783 0.961 1_545 S
H2800 C2784 0.931 . S
H2801 C2789 0.930 . S
H2802 C2790 0.956 . S
H2803 C2790 0.961 . S
H2804 C2790 0.961 . S
H2805 C2791 0.958 . S
H2806 C2791 0.961 . S
H2807 C2791 0.960 . S
C2808 C2809 1.391 . S
C2808 C2810 1.394 . S
C2808 H2824 0.931 . S
C2809 C2808 1.391 . S
C2809 C2813 1.381 . S
C2810 C2808 1.394 . S
C2810 C2811 1.369 . S
C2810 C2814 1.531 . S
C2811 C2810 1.369 . S
C2811 C2812 1.411 . S
C2811 C2819 1.503 . S
C2812 C2811 1.411 . S
C2812 C2813 1.391 . S
C2812 C2815 1.509 1_565 S
C2813 C2809 1.381 . S
C2813 C2812 1.391 . S
C2813 H2825 0.927 1_565 S
C2814 C2810 1.531 . S
C2814 H2826 0.960 . S
C2814 H2827 0.962 . S
C2814 H2828 0.960 . S
C2815 C2812 1.509 1_545 S
C2815 H2829 0.961 . S
C2815 H2830 0.961 . S
C2815 H2831 0.961 . S
C2816 C2817 1.370 1_545 S
C2816 C2818 1.363 . S
C2816 H2832 0.931 . S
C2817 C2816 1.370 1_565 S
C2817 C2821 1.408 . S
C2818 C2816 1.363 . S
C2818 C2819 1.370 1_545 S
C2818 C2822 1.524 . S
C2819 C2811 1.503 . S
C2819 C2818 1.370 1_565 S
C2819 C2820 1.403 . S
C2820 C2819 1.403 . S
C2820 C2821 1.404 . S
C2820 C2823 1.539 . S
C2821 C2817 1.408 . S
C2821 C2820 1.404 . S
C2821 H2833 0.930 . S
C2822 C2818 1.524 . S
C2822 H2834 0.956 . S
C2822 H2835 0.961 . S
C2822 H2836 0.961 . S
C2823 C2820 1.539 . S
C2823 H2837 0.958 . S
C2823 H2838 0.961 . S
C2823 H2839 0.960 . S
H2824 C2808 0.931 . S
H2825 C2813 0.927 1_545 S
H2826 C2814 0.960 . S
H2827 C2814 0.962 . S
H2828 C2814 0.960 . S
H2829 C2815 0.961 . S
H2830 C2815 0.961 . S
H2831 C2815 0.961 . S
H2832 C2816 0.931 . S
H2833 C2821 0.930 . S
H2834 C2822 0.956 . S
H2835 C2822 0.961 . S
H2836 C2822 0.961 . S
H2837 C2823 0.958 . S
H2838 C2823 0.961 . S
H2839 C2823 0.960 . S
C2840 C2841 1.391 1_655 S
C2840 C2842 1.394 . S
C2840 H2856 0.931 . S
C2841 C2840 1.391 1_455 S
C2841 C2845 1.376 . S
C2842 C2840 1.394 . S
C2842 C2843 1.369 1_655 S
C2842 C2846 1.531 . S
C2843 C2842 1.369 1_455 S
C2843 C2844 1.410 . S
C2843 C2851 1.503 . S
C2844 C2843 1.410 . S
C2844 C2845 1.392 . S
C2844 C2847 1.511 . S
C2845 C2841 1.376 . S
C2845 C2844 1.392 . S
C2845 H2857 0.929 . S
C2846 C2842 1.531 . S
C2846 H2858 0.960 . S
C2846 H2859 0.962 . S
C2846 H2860 0.960 . S
C2847 C2844 1.511 . S
C2847 H2861 0.961 . S
C2847 H2862 0.961 . S
C2847 H2863 0.961 . S
C2848 C2849 1.370 . S
C2848 C2850 1.363 . S
C2848 H2864 0.931 . S
C2849 C2848 1.370 . S
C2849 C2853 1.408 1_455 S
C2850 C2848 1.363 . S
C2850 C2851 1.370 . S
C2850 C2854 1.524 . S
C2851 C2843 1.503 . S
C2851 C2850 1.370 . S
C2851 C2852 1.403 1_455 S
C2852 C2851 1.403 1_655 S
C2852 C2853 1.404 . S
C2852 C2855 1.539 . S
C2853 C2849 1.408 1_655 S
C2853 C2852 1.404 . S
C2853 H2865 0.930 . S
C2854 C2850 1.524 . S
C2854 H2866 0.956 . S
C2854 H2867 0.961 . S
C2854 H2868 0.961 . S
C2855 C2852 1.539 . S
C2855 H2869 0.958 . S
C2855 H2870 0.961 . S
C2855 H2871 0.960 . S
H2856 C2840 0.931 . S
H2857 C2845 0.929 . S
H2858 C2846 0.960 . S
H2859 C2846 0.962 . S
H2860 C2846 0.960 . S
H2861 C2847 0.961 . S
H2862 C2847 0.961 . S
H2863 C2847 0.961 . S
H2864 C2848 0.931 . S
H2865 C2853 0.930 . S
H2866 C2854 0.956 . S
H2867 C2854 0.961 . S
H2868 C2854 0.961 . S
H2869 C2855 0.958 . S
H2870 C2855 0.961 . S
H2871 C2855 0.960 . S
C2872 C2873 1.391 . S
C2872 C2874 1.394 . S
C2872 H2888 0.931 . S
C2873 C2872 1.391 . S
C2873 C2877 1.376 . S
C2874 C2872 1.394 . S
C2874 C2875 1.369 . S
C2874 C2878 1.531 . S
C2875 C2874 1.369 . S
C2875 C2876 1.410 . S
C2875 C2883 1.503 . S
C2876 C2875 1.410 . S
C2876 C2877 1.392 . S
C2876 C2879 1.511 . S
C2877 C2873 1.376 . S
C2877 C2876 1.392 . S
C2877 H2889 0.929 . S
C2878 C2874 1.531 . S
C2878 H2890 0.960 . S
C2878 H2891 0.962 . S
C2878 H2892 0.960 . S
C2879 C2876 1.511 . S
C2879 H2893 0.961 . S
C2879 H2894 0.961 . S
C2879 H2895 0.961 . S
C2880 C2881 1.370 . S
C2880 C2882 1.363 . S
C2880 H2896 0.931 . S
C2881 C2880 1.370 . S
C2881 C2885 1.408 . S
C2882 C2880 1.363 . S
C2882 C2883 1.370 . S
C2882 C2886 1.524 . S
C2883 C2875 1.503 . S
C2883 C2882 1.370 . S
C2883 C2884 1.403 . S
C2884 C2883 1.403 . S
C2884 C2885 1.404 . S
C2884 C2887 1.539 . S
C2885 C2881 1.408 . S
C2885 C2884 1.404 . S
C2885 H2897 0.930 . S
C2886 C2882 1.524 . S
C2886 H2898 0.956 . S
C2886 H2899 0.961 . S
C2886 H2900 0.961 . S
C2887 C2884 1.539 . S
C2887 H2901 0.958 . S
C2887 H2902 0.961 . S
C2887 H2903 0.960 . S
H2888 C2872 0.931 . S
H2889 C2877 0.929 . S
H2890 C2878 0.960 . S
H2891 C2878 0.962 . S
H2892 C2878 0.960 . S
H2893 C2879 0.961 . S
H2894 C2879 0.961 . S
H2895 C2879 0.961 . S
H2896 C2880 0.931 . S
H2897 C2885 0.930 . S
H2898 C2886 0.956 . S
H2899 C2886 0.961 . S
H2900 C2886 0.961 . S
H2901 C2887 0.958 . S
H2902 C2887 0.961 . S
H2903 C2887 0.960 . S
C2904 C2905 1.391 . S
C2904 C2906 1.394 . S
C2904 H2920 0.931 . S
C2905 C2904 1.391 . S
C2905 C2909 1.376 . S
C2906 C2904 1.394 . S
C2906 C2907 1.369 . S
C2906 C2910 1.531 . S
C2907 C2906 1.369 . S
C2907 C2908 1.410 . S
C2907 C2915 1.503 . S
C2908 C2907 1.410 . S
C2908 C2909 1.392 . S
C2908 C2911 1.511 . S
C2909 C2905 1.376 . S
C2909 C2908 1.392 . S
C2909 H2921 0.929 . S
C2910 C2906 1.531 . S
C2910 H2922 0.960 . S
C2910 H2923 0.962 . S
C2910 H2924 0.960 . S
C2911 C2908 1.511 . S
C2911 H2925 0.961 . S
C2911 H2926 0.961 . S
C2911 H2927 0.961 . S
C2912 C2913 1.370 . S
C2912 C2914 1.363 . S
C2912 H2928 0.931 . S
C2913 C2912 1.370 . S
C2913 C2917 1.408 . S
C2914 C2912 1.363 . S
C2914 C2915 1.370 . S
C2914 C2918 1.524 . S
C2915 C2907 1.503 . S
C2915 C2914 1.370 . S
C2915 C2916 1.403 . S
C2916 C2915 1.403 . S
C2916 C2917 1.404 . S
C2916 C2919 1.539 . S
C2917 C2913 1.408 . S
C2917 C2916 1.404 . S
C2917 H2929 0.930 . S
C2918 C2914 1.524 . S
C2918 H2930 0.956 . S
C2918 H2931 0.961 . S
C2918 H2932 0.961 . S
C2919 C2916 1.539 . S
C2919 H2933 0.958 . S
C2919 H2934 0.961 . S
C2919 H2935 0.960 . S
H2920 C2904 0.931 . S
H2921 C2909 0.929 . S
H2922 C2910 0.960 . S
H2923 C2910 0.962 . S
H2924 C2910 0.960 . S
H2925 C2911 0.961 . S
H2926 C2911 0.961 . S
H2927 C2911 0.961 . S
H2928 C2912 0.931 . S
H2929 C2917 0.930 . S
H2930 C2918 0.956 . S
H2931 C2918 0.961 . S
H2932 C2918 0.961 . S
H2933 C2919 0.958 . S
H2934 C2919 0.961 . S
H2935 C2919 0.960 . S
C2936 C2937 1.391 . S
C2936 C2938 1.394 . S
C2936 H2952 0.931 . S
C2937 C2936 1.391 . S
C2937 C2941 1.376 . S
C2938 C2936 1.394 . S
C2938 C2939 1.369 . S
C2938 C2942 1.531 . S
C2939 C2938 1.369 . S
C2939 C2940 1.410 . S
C2939 C2947 1.503 . S
C2940 C2939 1.410 . S
C2940 C2941 1.392 . S
C2940 C2943 1.511 . S
C2941 C2937 1.376 . S
C2941 C2940 1.392 . S
C2941 H2953 0.929 . S
C2942 C2938 1.531 . S
C2942 H2954 0.960 . S
C2942 H2955 0.962 . S
C2942 H2956 0.960 . S
C2943 C2940 1.511 . S
C2943 H2957 0.961 . S
C2943 H2958 0.961 . S
C2943 H2959 0.961 . S
C2944 C2945 1.370 . S
C2944 C2946 1.363 . S
C2944 H2960 0.931 . S
C2945 C2944 1.370 . S
C2945 C2949 1.408 . S
C2946 C2944 1.363 . S
C2946 C2947 1.370 . S
C2946 C2950 1.524 . S
C2947 C2939 1.503 . S
C2947 C2946 1.370 . S
C2947 C2948 1.403 . S
C2948 C2947 1.403 . S
C2948 C2949 1.404 . S
C2948 C2951 1.539 . S
C2949 C2945 1.408 . S
C2949 C2948 1.404 . S
C2949 H2961 0.930 . S
C2950 C2946 1.524 . S
C2950 H2962 0.956 . S
C2950 H2963 0.961 . S
C2950 H2964 0.961 . S
C2951 C2948 1.539 . S
C2951 H2965 0.958 . S
C2951 H2966 0.961 . S
C2951 H2967 0.960 . S
H2952 C2936 0.931 . S
H2953 C2941 0.929 . S
H2954 C2942 0.960 . S
H2955 C2942 0.962 . S
H2956 C2942 0.960 . S
H2957 C2943 0.961 . S
H2958 C2943 0.961 . S
H2959 C2943 0.961 . S
H2960 C2944 0.931 . S
H2961 C2949 0.930 . S
H2962 C2950 0.956 . S
H2963 C2950 0.961 . S
H2964 C2950 0.961 . S
H2965 C2951 0.958 . S
H2966 C2951 0.961 . S
H2967 C2951 0.960 . S
C2968 C2969 1.391 . S
C2968 C2970 1.394 . S
C2968 H2984 0.931 . S
C2969 C2968 1.391 . S
C2969 C2973 1.376 . S
C2970 C2968 1.394 . S
C2970 C2971 1.369 . S
C2970 C2974 1.531 . S
C2971 C2970 1.369 . S
C2971 C2972 1.410 . S
C2971 C2979 1.503 . S
C2972 C2971 1.410 . S
C2972 C2973 1.392 . S
C2972 C2975 1.511 . S
C2973 C2969 1.376 . S
C2973 C2972 1.392 . S
C2973 H2985 0.929 . S
C2974 C2970 1.531 . S
C2974 H2986 0.960 . S
C2974 H2987 0.962 . S
C2974 H2988 0.960 . S
C2975 C2972 1.511 . S
C2975 H2989 0.961 . S
C2975 H2990 0.961 . S
C2975 H2991 0.961 . S
C2976 C2977 1.370 . S
C2976 C2978 1.363 . S
C2976 H2992 0.931 . S
C2977 C2976 1.370 . S
C2977 C2981 1.408 . S
C2978 C2976 1.363 . S
C2978 C2979 1.370 . S
C2978 C2982 1.524 . S
C2979 C2971 1.503 . S
C2979 C2978 1.370 . S
C2979 C2980 1.403 . S
C2980 C2979 1.403 . S
C2980 C2981 1.404 . S
C2980 C2983 1.539 . S
C2981 C2977 1.408 . S
C2981 C2980 1.404 . S
C2981 H2993 0.930 . S
C2982 C2978 1.524 . S
C2982 H2994 0.956 . S
C2982 H2995 0.961 . S
C2982 H2996 0.961 . S
C2983 C2980 1.539 . S
C2983 H2997 0.958 . S
C2983 H2998 0.961 . S
C2983 H2999 0.960 . S
H2984 C2968 0.931 . S
H2985 C2973 0.929 . S
H2986 C2974 0.960 . S
H2987 C2974 0.962 . S
H2988 C2974 0.960 . S
H2989 C2975 0.961 . S
H2990 C2975 0.961 . S
H2991 C2975 0.961 . S
H2992 C2976 0.931 . S
H2993 C2981 0.930 . S
H2994 C2982 0.956 . S
H2995 C2982 0.961 . S
H2996 C2982 0.961 . S
H2997 C2983 0.958 . S
H2998 C2983 0.961 . S
H2999 C2983 0.960 . S
C3000 C3001 1.391 1_565 S
C3000 C3002 1.394 . S
C3000 H3016 0.931 . S
C3001 C3000 1.391 1_545 S
C3001 C3005 1.376 . S
C3002 C3000 1.394 . S
C3002 C3003 1.369 1_565 S
C3002 C3006 1.531 . S
C3003 C3002 1.369 1_545 S
C3003 C3004 1.410 . S
C3003 C3011 1.503 . S
C3004 C3003 1.410 . S
C3004 C3005 1.392 . S
C3004 C3007 1.511 . S
C3005 C3001 1.376 . S
C3005 C3004 1.392 . S
C3005 H3017 0.929 . S
C3006 C3002 1.531 . S
C3006 H3018 0.960 . S
C3006 H3019 0.962 . S
C3006 H3020 0.960 . S
C3007 C3004 1.511 . S
C3007 H3021 0.961 . S
C3007 H3022 0.961 . S
C3007 H3023 0.961 . S
C3008 C3009 1.370 . S
C3008 C3010 1.363 . S
C3008 H3024 0.931 . S
C3009 C3008 1.370 . S
C3009 C3013 1.408 1_545 S
C3010 C3008 1.363 . S
C3010 C3011 1.370 . S
C3010 C3014 1.524 . S
C3011 C3003 1.503 . S
C3011 C3010 1.370 . S
C3011 C3012 1.403 1_545 S
C3012 C3011 1.403 1_565 S
C3012 C3013 1.404 . S
C3012 C3015 1.539 . S
C3013 C3009 1.408 1_565 S
C3013 C3012 1.404 . S
C3013 H3025 0.930 . S
C3014 C3010 1.524 . S
C3014 H3026 0.956 . S
C3014 H3027 0.961 . S
C3014 H3028 0.961 . S
C3015 C3012 1.539 . S
C3015 H3029 0.958 . S
C3015 H3030 0.961 . S
C3015 H3031 0.960 . S
H3016 C3000 0.931 . S
H3017 C3005 0.929 . S
H3018 C3006 0.960 . S
H3019 C3006 0.962 . S
H3020 C3006 0.960 . S
H3021 C3007 0.961 . S
H3022 C3007 0.961 . S
H3023 C3007 0.961 . S
H3024 C3008 0.931 . S
H3025 C3013 0.930 . S
H3026 C3014 0.956 . S
H3027 C3014 0.961 . S
H3028 C3014 0.961 . S
H3029 C3015 0.958 . S
H3030 C3015 0.961 . S
H3031 C3015 0.960 . S
C3032 C3033 1.391 . S
C3032 C3034 1.394 . S
C3032 H3048 0.931 . S
C3033 C3032 1.391 . S
C3033 C3037 1.376 1_655 S
C3034 C3032 1.394 . S
C3034 C3035 1.369 . S
C3034 C3038 1.531 . S
C3035 C3034 1.369 . S
C3035 C3036 1.410 1_655 S
C3035 C3043 1.503 . S
C3036 C3035 1.410 1_455 S
C3036 C3037 1.392 . S
C3036 C3039 1.511 . S
C3037 C3033 1.376 1_455 S
C3037 C3036 1.392 . S
C3037 H3049 0.929 . S
C3038 C3034 1.531 . S
C3038 H3050 0.960 . S
C3038 H3051 0.962 . S
C3038 H3052 0.960 . S
C3039 C3036 1.511 . S
C3039 H3053 0.961 . S
C3039 H3054 0.961 . S
C3039 H3055 0.961 . S
C3040 C3041 1.370 . S
C3040 C3042 1.363 . S
C3040 H3056 0.931 . S
C3041 C3040 1.370 . S
C3041 C3045 1.408 1_655 S
C3042 C3040 1.363 . S
C3042 C3043 1.370 . S
C3042 C3046 1.524 . S
C3043 C3035 1.503 . S
C3043 C3042 1.370 . S
C3043 C3044 1.403 1_655 S
C3044 C3043 1.403 1_455 S
C3044 C3045 1.404 . S
C3044 C3047 1.539 . S
C3045 C3041 1.408 1_455 S
C3045 C3044 1.404 . S
C3045 H3057 0.930 . S
C3046 C3042 1.524 . S
C3046 H3058 0.956 . S
C3046 H3059 0.961 . S
C3046 H3060 0.961 . S
C3047 C3044 1.539 . S
C3047 H3061 0.958 . S
C3047 H3062 0.961 . S
C3047 H3063 0.960 . S
H3048 C3032 0.931 . S
H3049 C3037 0.929 . S
H3050 C3038 0.960 . S
H3051 C3038 0.962 . S
H3052 C3038 0.960 . S
H3053 C3039 0.961 . S
H3054 C3039 0.961 . S
H3055 C3039 0.961 . S
H3056 C3040 0.931 . S
H3057 C3045 0.930 . S
H3058 C3046 0.956 . S
H3059 C3046 0.961 . S
H3060 C3046 0.961 . S
H3061 C3047 0.958 . S
H3062 C3047 0.961 . S
H3063 C3047 0.960 . S
C3064 C3065 1.391 . S
C3064 C3066 1.394 . S
C3064 H3080 0.931 . S
C3065 C3064 1.391 . S
C3065 C3069 1.376 . S
C3066 C3064 1.394 . S
C3066 C3067 1.369 . S
C3066 C3070 1.531 . S
C3067 C3066 1.369 . S
C3067 C3068 1.410 . S
C3067 C3075 1.503 . S
C3068 C3067 1.410 . S
C3068 C3069 1.392 . S
C3068 C3071 1.511 . S
C3069 C3065 1.376 . S
C3069 C3068 1.392 . S
C3069 H3081 0.929 . S
C3070 C3066 1.531 . S
C3070 H3082 0.960 . S
C3070 H3083 0.962 . S
C3070 H3084 0.960 . S
C3071 C3068 1.511 . S
C3071 H3085 0.961 . S
C3071 H3086 0.961 . S
C3071 H3087 0.961 . S
C3072 C3073 1.370 . S
C3072 C3074 1.363 . S
C3072 H3088 0.931 . S
C3073 C3072 1.370 . S
C3073 C3077 1.408 . S
C3074 C3072 1.363 . S
C3074 C3075 1.370 . S
C3074 C3078 1.524 . S
C3075 C3067 1.503 . S
C3075 C3074 1.370 . S
C3075 C3076 1.403 . S
C3076 C3075 1.403 . S
C3076 C3077 1.404 . S
C3076 C3079 1.539 . S
C3077 C3073 1.408 . S
C3077 C3076 1.404 . S
C3077 H3089 0.930 . S
C3078 C3074 1.524 . S
C3078 H3090 0.956 . S
C3078 H3091 0.961 . S
C3078 H3092 0.961 . S
C3079 C3076 1.539 . S
C3079 H3093 0.958 . S
C3079 H3094 0.961 . S
C3079 H3095 0.960 . S
H3080 C3064 0.931 . S
H3081 C3069 0.929 . S
H3082 C3070 0.960 . S
H3083 C3070 0.962 . S
H3084 C3070 0.960 . S
H3085 C3071 0.961 . S
H3086 C3071 0.961 . S
H3087 C3071 0.961 . S
H3088 C3072 0.931 . S
H3089 C3077 0.930 . S
H3090 C3078 0.956 . S
H3091 C3078 0.961 . S
H3092 C3078 0.961 . S
H3093 C3079 0.958 . S
H3094 C3079 0.961 . S
H3095 C3079 0.960 . S
C3096 C3097 1.391 . S
C3096 C3098 1.394 . S
C3096 H3112 0.931 . S
C3097 C3096 1.391 . S
C3097 C3101 1.376 . S
C3098 C3096 1.394 . S
C3098 C3099 1.369 . S
C3098 C3102 1.531 . S
C3099 C3098 1.369 . S
C3099 C3100 1.410 . S
C3099 C3107 1.503 . S
C3100 C3099 1.410 . S
C3100 C3101 1.392 . S
C3100 C3103 1.511 . S
C3101 C3097 1.376 . S
C3101 C3100 1.392 . S
C3101 H3113 0.929 . S
C3102 C3098 1.531 . S
C3102 H3114 0.960 . S
C3102 H3115 0.962 . S
C3102 H3116 0.960 . S
C3103 C3100 1.511 . S
C3103 H3117 0.961 . S
C3103 H3118 0.961 . S
C3103 H3119 0.961 . S
C3104 C3105 1.370 . S
C3104 C3106 1.363 . S
C3104 H3120 0.931 . S
C3105 C3104 1.370 . S
C3105 C3109 1.408 . S
C3106 C3104 1.363 . S
C3106 C3107 1.370 . S
C3106 C3110 1.524 . S
C3107 C3099 1.503 . S
C3107 C3106 1.370 . S
C3107 C3108 1.403 . S
C3108 C3107 1.403 . S
C3108 C3109 1.404 . S
C3108 C3111 1.539 . S
C3109 C3105 1.408 . S
C3109 C3108 1.404 . S
C3109 H3121 0.930 . S
C3110 C3106 1.524 . S
C3110 H3122 0.956 . S
C3110 H3123 0.961 . S
C3110 H3124 0.961 . S
C3111 C3108 1.539 . S
C3111 H3125 0.958 . S
C3111 H3126 0.961 . S
C3111 H3127 0.960 . S
H3112 C3096 0.931 . S
H3113 C3101 0.929 . S
H3114 C3102 0.960 . S
H3115 C3102 0.962 . S
H3116 C3102 0.960 . S
H3117 C3103 0.961 . S
H3118 C3103 0.961 . S
H3119 C3103 0.961 . S
H3120 C3104 0.931 . S
H3121 C3109 0.930 . S
H3122 C3110 0.956 . S
H3123 C3110 0.961 . S
H3124 C3110 0.961 . S
H3125 C3111 0.958 . S
H3126 C3111 0.961 . S
H3127 C3111 0.960 . S
C3128 C3129 1.391 . S
C3128 C3130 1.394 . S
C3128 H3144 0.931 . S
C3129 C3128 1.391 . S
C3129 C3133 1.376 . S
C3130 C3128 1.394 . S
C3130 C3131 1.369 . S
C3130 C3134 1.531 . S
C3131 C3130 1.369 . S
C3131 C3132 1.410 . S
C3131 C3139 1.503 . S
C3132 C3131 1.410 . S
C3132 C3133 1.392 . S
C3132 C3135 1.511 . S
C3133 C3129 1.376 . S
C3133 C3132 1.392 . S
C3133 H3145 0.929 . S
C3134 C3130 1.531 . S
C3134 H3146 0.960 . S
C3134 H3147 0.962 . S
C3134 H3148 0.960 . S
C3135 C3132 1.511 . S
C3135 H3149 0.961 . S
C3135 H3150 0.961 . S
C3135 H3151 0.961 . S
C3136 C3137 1.370 . S
C3136 C3138 1.363 . S
C3136 H3152 0.931 . S
C3137 C3136 1.370 . S
C3137 C3141 1.408 . S
C3138 C3136 1.363 . S
C3138 C3139 1.370 . S
C3138 C3142 1.524 . S
C3139 C3131 1.503 . S
C3139 C3138 1.370 . S
C3139 C3140 1.403 . S
C3140 C3139 1.403 . S
C3140 C3141 1.404 . S
C3140 C3143 1.539 . S
C3141 C3137 1.408 . S
C3141 C3140 1.404 . S
C3141 H3153 0.930 . S
C3142 C3138 1.524 . S
C3142 H3154 0.956 . S
C3142 H3155 0.961 . S
C3142 H3156 0.961 . S
C3143 C3140 1.539 . S
C3143 H3157 0.958 . S
C3143 H3158 0.961 . S
C3143 H3159 0.960 . S
H3144 C3128 0.931 . S
H3145 C3133 0.929 . S
H3146 C3134 0.960 . S
H3147 C3134 0.962 . S
H3148 C3134 0.960 . S
H3149 C3135 0.961 . S
H3150 C3135 0.961 . S
H3151 C3135 0.961 . S
H3152 C3136 0.931 . S
H3153 C3141 0.930 . S
H3154 C3142 0.956 . S
H3155 C3142 0.961 . S
H3156 C3142 0.961 . S
H3157 C3143 0.958 . S
H3158 C3143 0.961 . S
H3159 C3143 0.960 . S
C3160 C3161 1.391 . S
C3160 C3162 1.394 . S
C3160 H3176 0.931 . S
C3161 C3160 1.391 . S
C3161 C3165 1.376 . S
C3162 C3160 1.394 . S
C3162 C3163 1.369 . S
C3162 C3166 1.531 . S
C3163 C3162 1.369 . S
C3163 C3164 1.410 . S
C3163 C3171 1.503 . S
C3164 C3163 1.410 . S
C3164 C3165 1.392 . S
C3164 C3167 1.511 . S
C3165 C3161 1.376 . S
C3165 C3164 1.392 . S
C3165 H3177 0.929 . S
C3166 C3162 1.531 . S
C3166 H3178 0.960 . S
C3166 H3179 0.962 . S
C3166 H3180 0.960 . S
C3167 C3164 1.511 . S
C3167 H3181 0.961 . S
C3167 H3182 0.961 . S
C3167 H3183 0.961 . S
C3168 C3169 1.370 . S
C3168 C3170 1.363 . S
C3168 H3184 0.931 . S
C3169 C3168 1.370 . S
C3169 C3173 1.408 . S
C3170 C3168 1.363 . S
C3170 C3171 1.370 . S
C3170 C3174 1.524 . S
C3171 C3163 1.503 . S
C3171 C3170 1.370 . S
C3171 C3172 1.403 . S
C3172 C3171 1.403 . S
C3172 C3173 1.404 . S
C3172 C3175 1.539 . S
C3173 C3169 1.408 . S
C3173 C3172 1.404 . S
C3173 H3185 0.930 . S
C3174 C3170 1.524 . S
C3174 H3186 0.956 . S
C3174 H3187 0.961 . S
C3174 H3188 0.961 . S
C3175 C3172 1.539 . S
C3175 H3189 0.958 . S
C3175 H3190 0.961 . S
C3175 H3191 0.960 . S
H3176 C3160 0.931 . S
H3177 C3165 0.929 . S
H3178 C3166 0.960 . S
H3179 C3166 0.962 . S
H3180 C3166 0.960 . S
H3181 C3167 0.961 . S
H3182 C3167 0.961 . S
H3183 C3167 0.961 . S
H3184 C3168 0.931 . S
H3185 C3173 0.930 . S
H3186 C3174 0.956 . S
H3187 C3174 0.961 . S
H3188 C3174 0.961 . S
H3189 C3175 0.958 . S
H3190 C3175 0.961 . S
H3191 C3175 0.960 . S
C3192 C3193 1.391 . S
C3192 C3194 1.394 . S
C3192 H3208 0.931 . S
C3193 C3192 1.391 . S
C3193 C3197 1.376 . S
C3194 C3192 1.394 . S
C3194 C3195 1.369 . S
C3194 C3198 1.531 . S
C3195 C3194 1.369 . S
C3195 C3196 1.410 . S
C3195 C3203 1.503 . S
C3196 C3195 1.410 . S
C3196 C3197 1.392 . S
C3196 C3199 1.511 . S
C3197 C3193 1.376 . S
C3197 C3196 1.392 . S
C3197 H3209 0.929 . S
C3198 C3194 1.531 . S
C3198 H3210 0.960 . S
C3198 H3211 0.962 . S
C3198 H3212 0.960 . S
C3199 C3196 1.511 . S
C3199 H3213 0.961 . S
C3199 H3214 0.961 . S
C3199 H3215 0.961 . S
C3200 C3201 1.370 . S
C3200 C3202 1.363 . S
C3200 H3216 0.931 . S
C3201 C3200 1.370 . S
C3201 C3205 1.408 . S
C3202 C3200 1.363 . S
C3202 C3203 1.370 . S
C3202 C3206 1.524 . S
C3203 C3195 1.503 . S
C3203 C3202 1.370 . S
C3203 C3204 1.403 . S
C3204 C3203 1.403 . S
C3204 C3205 1.404 . S
C3204 C3207 1.539 . S
C3205 C3201 1.408 . S
C3205 C3204 1.404 . S
C3205 H3217 0.930 . S
C3206 C3202 1.524 . S
C3206 H3218 0.956 . S
C3206 H3219 0.961 . S
C3206 H3220 0.961 . S
C3207 C3204 1.539 . S
C3207 H3221 0.958 . S
C3207 H3222 0.961 . S
C3207 H3223 0.960 . S
H3208 C3192 0.931 . S
H3209 C3197 0.929 . S
H3210 C3198 0.960 . S
H3211 C3198 0.962 . S
H3212 C3198 0.960 . S
H3213 C3199 0.961 . S
H3214 C3199 0.961 . S
H3215 C3199 0.961 . S
H3216 C3200 0.931 . S
H3217 C3205 0.930 . S
H3218 C3206 0.956 . S
H3219 C3206 0.961 . S
H3220 C3206 0.961 . S
H3221 C3207 0.958 . S
H3222 C3207 0.961 . S
H3223 C3207 0.960 . S
C3224 C3225 1.391 . S
C3224 C3226 1.394 . S
C3224 H3240 0.931 . S
C3225 C3224 1.391 . S
C3225 C3229 1.376 . S
C3226 C3224 1.394 . S
C3226 C3227 1.369 . S
C3226 C3230 1.531 . S
C3227 C3226 1.369 . S
C3227 C3228 1.410 . S
C3227 C3235 1.503 . S
C3228 C3227 1.410 . S
C3228 C3229 1.392 . S
C3228 C3231 1.511 . S
C3229 C3225 1.376 . S
C3229 C3228 1.392 . S
C3229 H3241 0.929 . S
C3230 C3226 1.531 . S
C3230 H3242 0.960 . S
C3230 H3243 0.962 . S
C3230 H3244 0.960 . S
C3231 C3228 1.511 . S
C3231 H3245 0.961 . S
C3231 H3246 0.961 . S
C3231 H3247 0.961 . S
C3232 C3233 1.370 . S
C3232 C3234 1.363 . S
C3232 H3248 0.931 . S
C3233 C3232 1.370 . S
C3233 C3237 1.408 . S
C3234 C3232 1.363 . S
C3234 C3235 1.370 . S
C3234 C3238 1.524 . S
C3235 C3227 1.503 . S
C3235 C3234 1.370 . S
C3235 C3236 1.403 . S
C3236 C3235 1.403 . S
C3236 C3237 1.404 . S
C3236 C3239 1.539 . S
C3237 C3233 1.408 . S
C3237 C3236 1.404 . S
C3237 H3249 0.930 . S
C3238 C3234 1.524 . S
C3238 H3250 0.956 . S
C3238 H3251 0.961 . S
C3238 H3252 0.961 . S
C3239 C3236 1.539 . S
C3239 H3253 0.958 . S
C3239 H3254 0.961 . S
C3239 H3255 0.960 . S
H3240 C3224 0.931 . S
H3241 C3229 0.929 . S
H3242 C3230 0.960 . S
H3243 C3230 0.962 . S
H3244 C3230 0.960 . S
H3245 C3231 0.961 . S
H3246 C3231 0.961 . S
H3247 C3231 0.961 . S
H3248 C3232 0.931 . S
H3249 C3237 0.930 . S
H3250 C3238 0.956 . S
H3251 C3238 0.961 . S
H3252 C3238 0.961 . S
H3253 C3239 0.958 . S
H3254 C3239 0.961 . S
H3255 C3239 0.960 . S
C3256 C3257 1.391 . S
C3256 C3258 1.394 . S
C3256 H3272 0.931 . S
C3257 C3256 1.391 . S
C3257 C3261 1.376 . S
C3258 C3256 1.394 . S
C3258 C3259 1.369 . S
C3258 C3262 1.531 . S
C3259 C3258 1.369 . S
C3259 C3260 1.410 . S
C3259 C3267 1.503 . S
C3260 C3259 1.410 . S
C3260 C3261 1.392 . S
C3260 C3263 1.511 . S
C3261 C3257 1.376 . S
C3261 C3260 1.392 . S
C3261 H3273 0.929 . S
C3262 C3258 1.531 . S
C3262 H3274 0.960 . S
C3262 H3275 0.962 . S
C3262 H3276 0.960 . S
C3263 C3260 1.511 . S
C3263 H3277 0.961 . S
C3263 H3278 0.961 . S
C3263 H3279 0.961 . S
C3264 C3265 1.370 . S
C3264 C3266 1.363 . S
C3264 H3280 0.931 . S
C3265 C3264 1.370 . S
C3265 C3269 1.408 . S
C3266 C3264 1.363 . S
C3266 C3267 1.370 . S
C3266 C3270 1.524 . S
C3267 C3259 1.503 . S
C3267 C3266 1.370 . S
C3267 C3268 1.403 . S
C3268 C3267 1.403 . S
C3268 C3269 1.404 . S
C3268 C3271 1.539 . S
C3269 C3265 1.408 . S
C3269 C3268 1.404 . S
C3269 H3281 0.930 . S
C3270 C3266 1.524 . S
C3270 H3282 0.956 . S
C3270 H3283 0.961 . S
C3270 H3284 0.961 . S
C3271 C3268 1.539 . S
C3271 H3285 0.958 . S
C3271 H3286 0.961 . S
C3271 H3287 0.960 . S
H3272 C3256 0.931 . S
H3273 C3261 0.929 . S
H3274 C3262 0.960 . S
H3275 C3262 0.962 . S
H3276 C3262 0.960 . S
H3277 C3263 0.961 . S
H3278 C3263 0.961 . S
H3279 C3263 0.961 . S
H3280 C3264 0.931 . S
H3281 C3269 0.930 . S
H3282 C3270 0.956 . S
H3283 C3270 0.961 . S
H3284 C3270 0.961 . S
H3285 C3271 0.958 . S
H3286 C3271 0.961 . S
H3287 C3271 0.960 . S
C3288 C3289 1.391 . S
C3288 C3290 1.394 . S
C3288 H3304 0.931 . S
C3289 C3288 1.391 . S
C3289 C3293 1.376 . S
C3290 C3288 1.394 . S
C3290 C3291 1.369 . S
C3290 C3294 1.496 1_655 S
C3291 C3290 1.369 . S
C3291 C3292 1.410 . S
C3291 C3299 1.503 . S
C3292 C3291 1.410 . S
C3292 C3293 1.392 . S
C3292 C3295 1.511 . S
C3293 C3289 1.376 . S
C3293 C3292 1.392 . S
C3293 H3305 0.929 . S
C3294 C3290 1.496 1_455 S
C3294 H3306 1.016 . S
C3294 H3307 0.923 1_455 S
C3294 H3308 0.984 . S
C3295 C3292 1.511 . S
C3295 H3309 0.961 . S
C3295 H3310 0.961 . S
C3295 H3311 0.961 1_655 S
C3296 C3297 1.370 . S
C3296 C3298 1.363 . S
C3296 H3312 0.931 . S
C3297 C3296 1.370 . S
C3297 C3301 1.408 1_655 S
C3298 C3296 1.363 . S
C3298 C3299 1.370 . S
C3298 C3302 1.524 . S
C3299 C3291 1.503 . S
C3299 C3298 1.370 . S
C3299 C3300 1.403 1_655 S
C3300 C3299 1.403 1_455 S
C3300 C3301 1.404 . S
C3300 C3303 1.539 . S
C3301 C3297 1.408 1_455 S
C3301 C3300 1.404 . S
C3301 H3313 0.930 . S
C3302 C3298 1.524 . S
C3302 H3314 0.956 . S
C3302 H3315 0.961 . S
C3302 H3316 0.961 . S
C3303 C3300 1.539 . S
C3303 H3317 0.958 . S
C3303 H3318 0.961 . S
C3303 H3319 0.960 . S
H3304 C3288 0.931 . S
H3305 C3293 0.929 . S
H3306 C3294 1.016 . S
H3307 C3294 0.923 1_655 S
H3308 C3294 0.984 . S
H3309 C3295 0.961 . S
H3310 C3295 0.961 . S
H3311 C3295 0.961 1_455 S
H3312 C3296 0.931 . S
H3313 C3301 0.930 . S
H3314 C3302 0.956 . S
H3315 C3302 0.961 . S
H3316 C3302 0.961 . S
H3317 C3303 0.958 . S
H3318 C3303 0.961 . S
H3319 C3303 0.960 . S
C3320 C3321 1.391 . S
C3320 C3322 1.394 . S
C3320 H3336 0.931 . S
C3321 C3320 1.391 . S
C3321 C3325 1.376 . S
C3322 C3320 1.394 . S
C3322 C3323 1.369 . S
C3322 C3326 1.531 . S
C3323 C3322 1.369 . S
C3323 C3324 1.410 . S
C3323 C3331 1.503 . S
C3324 C3323 1.410 . S
C3324 C3325 1.392 . S
C3324 C3327 1.511 . S
C3325 C3321 1.376 . S
C3325 C3324 1.392 . S
C3325 H3337 0.929 . S
C3326 C3322 1.531 . S
C3326 H3338 0.960 . S
C3326 H3339 0.962 . S
C3326 H3340 0.960 . S
C3327 C3324 1.511 . S
C3327 H3341 0.961 . S
C3327 H3342 0.961 . S
C3327 H3343 0.961 . S
C3328 C3329 1.370 . S
C3328 C3330 1.363 . S
C3328 H3344 0.931 . S
C3329 C3328 1.370 . S
C3329 C3333 1.408 . S
C3330 C3328 1.363 . S
C3330 C3331 1.370 . S
C3330 C3334 1.524 . S
C3331 C3323 1.503 . S
C3331 C3330 1.370 . S
C3331 C3332 1.403 . S
C3332 C3331 1.403 . S
C3332 C3333 1.404 . S
C3332 C3335 1.539 . S
C3333 C3329 1.408 . S
C3333 C3332 1.404 . S
C3333 H3345 0.930 . S
C3334 C3330 1.524 . S
C3334 H3346 0.956 . S
C3334 H3347 0.961 . S
C3334 H3348 0.961 . S
C3335 C3332 1.539 . S
C3335 H3349 0.958 . S
C3335 H3350 0.961 . S
C3335 H3351 0.960 . S
H3336 C3320 0.931 . S
H3337 C3325 0.929 . S
H3338 C3326 0.960 . S
H3339 C3326 0.962 . S
H3340 C3326 0.960 . S
H3341 C3327 0.961 . S
H3342 C3327 0.961 . S
H3343 C3327 0.961 . S
H3344 C3328 0.931 . S
H3345 C3333 0.930 . S
H3346 C3334 0.956 . S
H3347 C3334 0.961 . S
H3348 C3334 0.961 . S
H3349 C3335 0.958 . S
H3350 C3335 0.961 . S
H3351 C3335 0.960 . S
C3352 C3353 1.391 . S
C3352 C3354 1.394 . S
C3352 H3368 0.931 . S
C3353 C3352 1.391 . S
C3353 C3357 1.376 1_545 S
C3354 C3352 1.394 . S
C3354 C3355 1.369 . S
C3354 C3358 1.531 . S
C3355 C3354 1.369 . S
C3355 C3356 1.410 1_545 S
C3355 C3363 1.503 . S
C3356 C3355 1.410 1_565 S
C3356 C3357 1.392 . S
C3356 C3359 1.511 . S
C3357 C3353 1.376 1_565 S
C3357 C3356 1.392 . S
C3357 H3369 0.929 . S
C3358 C3354 1.531 . S
C3358 H3370 0.960 . S
C3358 H3371 0.962 . S
C3358 H3372 0.960 . S
C3359 C3356 1.511 . S
C3359 H3373 0.961 . S
C3359 H3374 0.961 . S
C3359 H3375 0.961 . S
C3360 C3361 1.370 . S
C3360 C3362 1.363 . S
C3360 H3376 0.931 . S
C3361 C3360 1.370 . S
C3361 C3365 1.408 1_545 S
C3362 C3360 1.363 . S
C3362 C3363 1.370 . S
C3362 C3366 1.524 . S
C3363 C3355 1.503 . S
C3363 C3362 1.370 . S
C3363 C3364 1.403 1_545 S
C3364 C3363 1.403 1_565 S
C3364 C3365 1.404 . S
C3364 C3367 1.539 . S
C3365 C3361 1.408 1_565 S
C3365 C3364 1.404 . S
C3365 H3377 0.930 . S
C3366 C3362 1.524 . S
C3366 H3378 0.956 . S
C3366 H3379 0.961 . S
C3366 H3380 0.961 . S
C3367 C3364 1.539 . S
C3367 H3381 0.953 1_565 S
C3367 H3382 0.961 . S
C3367 H3383 0.960 . S
H3368 C3352 0.931 . S
H3369 C3357 0.929 . S
H3370 C3358 0.960 . S
H3371 C3358 0.962 . S
H3372 C3358 0.960 . S
H3373 C3359 0.961 . S
H3374 C3359 0.961 . S
H3375 C3359 0.961 . S
H3376 C3360 0.931 . S
H3377 C3365 0.930 . S
H3378 C3366 0.956 . S
H3379 C3366 0.961 . S
H3380 C3366 0.961 . S
H3381 C3367 0.953 1_545 S
H3382 C3367 0.961 . S
H3383 C3367 0.960 . S
C1081 C9 1.407 1_655 S
C1089 C688 1.454 . S
C1113 C19 1.570 . S
C1121 C734 1.555 . S
C1153 C766 1.502 . S
C1145 C33 1.505 . S
C1177 C37 1.459 1_565 S
C1185 C819 1.471 . S
C1209 C5 1.428 . S
C1217 C865 1.454 . S
C1241 C23 1.610 . S
C1249 C904 1.601 . S
C1273 C47 1.471 . S
C1281 C858 1.468 . S
C1313 C911 1.617 . S
C1305 C65 1.625 . S
C1345 C812 1.467 . S
C1337 C75 1.447 . S
C1369 C79 1.376 . S
C1377 C773 1.409 . S
C1409 C667 1.489 . S
C1401 C51 1.462 . S
C1433 C61 1.590 . S
C1441 C713 1.580 . S
C1465 C93 1.718 . S
C1473 C943 1.708 . S
C1497 C103 1.638 . S
C1505 C1010 1.630 . S
C1537 C1056 1.648 . S
C1529 C117 1.654 . S
C1561 C121 1.620 . S
C1569 C267 1.601 . S
C1593 C89 1.646 . S
C1601 C313 1.620 . S
C1625 C107 1.659 . S
C1633 C359 1.634 . S
C1657 C131 1.599 . S
C1665 C306 1.584 . S
C1689 C149 1.669 . S
C1697 C352 1.639 . S
C1729 C260 1.618 . S
C1721 C159 1.627 . S
C1761 C1035 1.659 . S
C1753 C163 1.685 . S
C1793 C964 1.666 . S
C1785 C135 1.685 . S
C1825 C989 1.638 . S
C1817 C145 1.669 . S
C1849 C177 1.613 . S
C1857 C391 1.601 . S
C1881 C187 1.612 . S
C1889 C444 1.605 . S
C1913 C201 1.674 . S
C1921 C490 1.658 . S
C1945 C205 1.720 . S
C1953 C536 1.711 . S
C1985 C589 1.622 . S
C1977 C173 1.629 . S
C2017 C635 1.675 . S
C2009 C191 1.697 . S
C2049 C582 1.682 . S
C2041 C215 1.699 . S
C2081 C628 1.673 . S
C2073 C233 1.707 . S
C2105 C243 1.613 . S
C2113 C543 1.617 . S
C2145 C497 1.565 . S
C2137 C247 1.573 . S
C2169 C219 1.698 . S
C2177 C412 1.689 . S
C2209 C451 1.636 . S
C2201 C229 1.649 . S
C2241 C274 1.580 . S
C2233 C11 1.598 . S
C2265 C14 1.530 . S
C2273 C320 1.513 . S
C2305 C366 1.665 . S
C2297 C28 1.676 . S
C2337 C398 1.647 . S
C2329 C39 1.665 . S
C2369 C437 1.593 . S
C2361 C0 1.624 . S
C2401 C483 1.464 . S
C2393 C25 1.495 . S
C2425 C42 1.673 . S
C2433 C504 1.642 . S
C2457 C67 1.547 . S
C2465 C405 1.526 . S
C2489 C70 1.571 . S
C2497 C458 1.541 . S
C2521 C81 1.592 . S
C2529 C299 1.591 . S
C2561 C345 1.628 . S
C2553 C53 1.647 . S
C2585 C56 1.571 . S
C2593 C253 1.556 . S
C2625 C529 1.518 . S
C2617 C95 1.549 . S
C2649 C98 1.653 . S
C2657 C596 1.644 . S
C2681 C112 1.727 . S
C2689 C642 1.715 . S
C2721 C681 1.423 . S
C2713 C123 1.422 . S
C2745 C84 1.585 . S
C2753 C727 1.576 . S
C2777 C109 1.368 . S
C2785 C759 1.368 . S
C2809 C126 1.424 . S
C2817 C780 1.448 . S
C2841 C151 1.404 . S
C2849 C674 1.403 . S
C2881 C720 1.539 . S
C2873 C154 1.546 . S
C2905 C165 1.540 . S
C2913 C575 1.532 . S
C2937 C137 1.678 . S
C2945 C621 1.670 . S
C2977 C550 1.659 . S
C2969 C140 1.688 . S
C3009 C826 1.400 . S
C3001 C179 1.391 . S
C3033 C182 1.393 . S
C3041 C872 1.399 . S
C3065 C196 1.646 . S
C3073 C897 1.624 . S
C3105 C950 1.582 . S
C3097 C207 1.621 . S
C3137 C1003 1.639 . S
C3129 C168 1.649 . S
C3161 C193 1.623 . S
C3169 C1049 1.607 . S
C3193 C210 1.633 . S
C3201 C1042 1.621 . S
C3225 C235 1.675 . S
C3233 C957 1.657 . S
C3265 C996 1.615 . S
C3257 C238 1.619 . S
C3297 C851 1.356 . S
C3289 C249 1.361 . S
C3329 C918 1.581 . S
C3321 C221 1.605 . S
C3353 C224 1.423 . S
C3361 C805 1.433 . S
