# Generated by pormake.
# Topology rtl, (3,6)-cn, num edge types: 1
# Building blocks:
#     Node 0, Type 0, BuildingBlock: BETDAH_clean_linker_0, # of connection points: 3
#     Node 1, Type 0, BuildingBlock: BETDAH_clean_linker_0, # of connection points: 3
#     Node 2, Type 0, BuildingBlock: BETDAH_clean_linker_0, # of connection points: 3
#     Node 3, Type 0, BuildingBlock: BETDAH_clean_linker_0, # of connection points: 3
#     Node 4, Type 1, BuildingBlock: LEVNOQ01_clean_sbu_1, # of connection points: 6
#     Node 5, Type 1, BuildingBlock: LEVNOQ01_clean_sbu_1, # of connection points: 6
#     Edge 6, Type (0, 1), BuildingBlock: XUDNAN_clean_linker_2, # of connection points: 2
#     Edge 7, Type (0, 1), BuildingBlock: XUDNAN_clean_linker_2, # of connection points: 2
#     Edge 8, Type (0, 1), BuildingBlock: XUDNAN_clean_linker_2, # of connection points: 2
#     Edge 9, Type (0, 1), BuildingBlock: XUDNAN_clean_linker_2, # of connection points: 2
#     Edge 10, Type (0, 1), BuildingBlock: XUDNAN_clean_linker_2, # of connection points: 2
#     Edge 11, Type (0, 1), BuildingBlock: XUDNAN_clean_linker_2, # of connection points: 2
#     Edge 12, Type (0, 1), BuildingBlock: XUDNAN_clean_linker_2, # of connection points: 2
#     Edge 13, Type (0, 1), BuildingBlock: XUDNAN_clean_linker_2, # of connection points: 2
#     Edge 14, Type (0, 1), BuildingBlock: XUDNAN_clean_linker_2, # of connection points: 2
#     Edge 15, Type (0, 1), BuildingBlock: XUDNAN_clean_linker_2, # of connection points: 2
#     Edge 16, Type (0, 1), BuildingBlock: XUDNAN_clean_linker_2, # of connection points: 2
#     Edge 17, Type (0, 1), BuildingBlock: XUDNAN_clean_linker_2, # of connection points: 2
# Relax obj value: 0.016
# Max RMSD: 0.115
# Mean RMSD: 0.086
data_MOF--net-rtl--node1-LEVNOQ01_clean_sbu_1--node2-BETDAH_clean_linker_0--edge1-XUDNAN_clean_linker_2
_symmetry_space_group_name_H-M    P1
_symmetry_Int_Tables_number       1
_symmetry_cell_setting            triclinic
loop_
_symmetry_equiv_pos_as_xyz
'x, y, z'
_cell_length_a     35.61346
_cell_length_b     35.520739
_cell_length_c     22.181258
_cell_angle_alpha  91.322558
_cell_angle_beta   99.028894
_cell_angle_gamma 89.940017
loop_
_atom_site_label
_atom_site_type_symbol
_atom_site_fract_x
_atom_site_fract_y
_atom_site_fract_z
_atom_type_partial_charge
H0 H 0.1463 0.88121 0.06293 0.0
H1 H 0.20894 0.79368 0.16722 0.0
H2 H 0.17055 0.77666 0.97705 0.0
C3 C 0.159 0.85376 0.06635 0.0
C4 C 0.15816 0.83196 0.01209 0.0
C5 C 0.17561 0.84017 0.12415 0.0
C6 C 0.19396 0.80474 0.12528 0.0
C7 C 0.19162 0.78203 0.07226 0.0
C8 C 0.17298 0.7953 0.01679 0.0
N9 N 0.20534 0.7445 0.07373 0.0
C10 C 0.23874 0.73259 0.10919 0.0
H11 H 0.65974 0.63627 0.58281 0.0
H12 H 0.71143 0.73751 0.52946 0.0
H13 H 0.70546 0.7192 0.71849 0.0
C14 C 0.6742 0.6629 0.59456 0.0
C15 C 0.682 0.67475 0.65596 0.0
C16 C 0.68399 0.68566 0.54823 0.0
C17 C 0.70368 0.71971 0.56458 0.0
C18 C 0.71136 0.73174 0.62627 0.0
C19 C 0.69976 0.70957 0.67117 0.0
N20 N 0.72951 0.76653 0.6447 0.0
C21 C 0.75777 0.78182 0.61625 0.0
H22 H 0.8672 0.14571 0.98815 0.0
H23 H 0.85006 0.25503 0.06696 0.0
H24 H 0.81688 0.23525 0.87462 0.0
C25 C 0.85616 0.17411 0.98327 0.0
C26 C 0.84146 0.18721 0.92479 0.0
C27 C 0.85939 0.19832 0.03503 0.0
C28 C 0.84724 0.2358 0.02783 0.0
C29 C 0.83104 0.24874 0.97045 0.0
C30 C 0.82811 0.2245 0.91915 0.0
N31 N 0.8217 0.28732 0.96391 0.0
C32 C 0.78452 0.2998 0.94854 0.0
H33 H 0.37275 0.37945 0.5266 0.0
H34 H 0.27519 0.34002 0.59934 0.0
H35 H 0.26718 0.3568 0.407 0.0
C36 C 0.34371 0.36913 0.51927 0.0
C37 C 0.3223 0.36912 0.46022 0.0
C38 C 0.32704 0.35863 0.5698 0.0
C39 C 0.28873 0.34735 0.56071 0.0
C40 C 0.26753 0.34614 0.50188 0.0
C41 C 0.28423 0.35709 0.452 0.0
N42 N 0.22831 0.3376 0.49359 0.0
C43 C 0.21491 0.30128 0.47963 0.0
O44 O 0.98929 0.0871 0.64013 0.0
Mg45 Mg 0.04311 0.06614 0.63396 0.0
O46 O 0.96169 0.04146 0.579 0.0
Mg47 Mg 0.00847 0.01474 0.52403 0.0
O48 O 0.05172 0.06378 0.54511 0.0
O49 O 0.08267 0.10369 0.61534 0.0
O50 O 0.05543 0.9873 0.47311 0.0
O51 O 0.98181 0.05503 0.44035 0.0
Mg52 Mg 0.97441 0.98378 0.42454 0.0
O53 O 0.9667 0.96143 0.50675 0.0
O54 O 0.02309 0.9795 0.38149 0.0
O55 O 0.93446 0.02268 0.38989 0.0
O56 O 0.95067 0.93247 0.41495 0.0
C57 C 0.05332 0.9846 0.66251 0.0
C58 C 0.95976 0.06922 0.6164 0.0
C59 C 0.07577 0.09122 0.5596 0.0
C60 C 0.05441 0.97887 0.4168 0.0
C61 C 0.95205 0.05344 0.39941 0.0
C62 C 0.9508 0.93345 0.47301 0.0
O63 O 0.06012 0.01765 0.68404 0.0
O64 O 0.03608 0.9789 0.60797 0.0
O65 O 0.59418 0.51227 0.19763 0.0
Mg66 Mg 0.56676 0.46301 0.15921 0.0
O67 O 0.55178 0.54777 0.14117 0.0
Mg68 Mg 0.51546 0.51039 0.06362 0.0
O69 O 0.55992 0.46203 0.06567 0.0
O70 O 0.59892 0.42325 0.12408 0.0
O71 O 0.48 0.47212 0.98533 0.0
O72 O 0.55261 0.53732 0.99647 0.0
Mg73 Mg 0.47036 0.554 0.97366 0.0
O74 O 0.47014 0.56027 0.06573 0.0
O75 O 0.43961 0.50888 0.92895 0.0
O76 O 0.51586 0.57572 0.9373 0.0
O77 O 0.43672 0.59579 0.99316 0.0
C78 C 0.48535 0.45877 0.1751 0.0
C79 C 0.58019 0.54423 0.18369 0.0
C80 C 0.58486 0.43504 0.07072 0.0
C81 C 0.45236 0.47639 0.94176 0.0
C82 C 0.54814 0.56166 0.95461 0.0
C83 C 0.446 0.58742 0.04981 0.0
O84 O 0.51804 0.44536 0.19325 0.0
O85 O 0.4802 0.48217 0.13165 0.0
H86 H 0.14073 0.28498 0.46939 0.0
H87 H 0.25153 0.23518 0.46858 0.0
H88 H 0.22263 0.17139 0.46297 0.0
H89 H 0.11142 0.22562 0.56836 0.0
H90 H 0.06216 0.22331 0.53361 0.0
H91 H 0.09017 0.26378 0.5228 0.0
H92 H 0.07315 0.25391 0.40543 0.0
H93 H 0.04541 0.21283 0.41617 0.0
H94 H 0.08309 0.20935 0.37076 0.0
H95 H 0.18402 0.11437 0.47751 0.0
H96 H 0.14084 0.07046 0.51843 0.0
H97 H 0.05498 0.15708 0.50855 0.0
C98 C 0.15851 0.26051 0.4658 0.0
C99 C 0.19801 0.26445 0.46847 0.0
C100 C 0.22101 0.2323 0.46567 0.0
C101 C 0.20478 0.19611 0.46212 0.0
C102 C 0.16556 0.19287 0.46084 0.0
C103 C 0.1427 0.22434 0.4623 0.0
C104 C 0.10257 0.21362 0.46955 0.0
C105 C 0.09095 0.23268 0.52699 0.0
C106 C 0.07439 0.22298 0.41204 0.0
C107 C 0.10695 0.17147 0.4762 0.0
C108 C 0.14314 0.15978 0.46909 0.0
C109 C 0.15527 0.12292 0.48116 0.0
C110 C 0.13053 0.09802 0.5039 0.0
C111 C 0.09435 0.11028 0.5144 0.0
C112 C 0.08194 0.14681 0.49811 0.0
H113 H 0.30725 0.74929 0.0819 0.0
H114 H 0.24846 0.67386 0.1857 0.0
H115 H 0.30588 0.63373 0.20497 0.0
H116 H 0.34464 0.68346 1.00288 0.0
H117 H 0.38953 0.70613 0.99961 0.0
H118 H 0.34903 0.73401 0.01006 0.0
H119 H 0.38665 0.76384 0.10915 0.0
H120 H 0.42754 0.73583 0.09885 0.0
H121 H 0.40841 0.7339 0.16929 0.0
H122 H 0.36347 0.59477 0.19192 0.0
H123 H 0.41276 0.56091 0.14442 0.0
H124 H 0.434 0.66194 0.04977 0.0
C125 C 0.30739 0.72539 0.11143 0.0
C126 C 0.2742 0.71495 0.13379 0.0
C127 C 0.27423 0.68265 0.1697 0.0
C128 C 0.30672 0.65976 0.18082 0.0
C129 C 0.33887 0.66983 0.15591 0.0
C130 C 0.33951 0.70229 0.12251 0.0
C131 C 0.37452 0.70383 0.09189 0.0
C132 C 0.36376 0.70699 0.02204 0.0
C133 C 0.40084 0.73628 0.11894 0.0
C134 C 0.3921 0.66605 0.10944 0.0
C135 C 0.37194 0.64718 0.14792 0.0
C136 C 0.38015 0.60973 0.16335 0.0
C137 C 0.40834 0.59069 0.13655 0.0
C138 C 0.42732 0.60909 0.09419 0.0
C139 C 0.42032 0.6476 0.08309 0.0
H140 H 0.78907 0.8507 0.64203 0.0
H141 H 0.79725 0.74755 0.53685 0.0
H142 H 0.85309 0.77333 0.49731 0.0
H143 H 0.81193 0.91324 0.53022 0.0
H144 H 0.83884 0.94546 0.58441 0.0
H145 H 0.80122 0.91787 0.60684 0.0
H146 H 0.84864 0.89166 0.69673 0.0
H147 H 0.88651 0.9189 0.67393 0.0
H148 H 0.89143 0.86864 0.68149 0.0
H149 H 0.9047 0.81123 0.46506 0.0
H150 H 0.9473 0.8602 0.43679 0.0
H151 H 0.9072 0.93902 0.56459 0.0
C152 C 0.80286 0.83368 0.61078 0.0
C153 C 0.78932 0.79736 0.59194 0.0
C154 C 0.80755 0.77555 0.55124 0.0
C155 C 0.83927 0.78985 0.52904 0.0
C156 C 0.85226 0.82582 0.54856 0.0
C157 C 0.83461 0.84756 0.58832 0.0
C158 C 0.85317 0.88603 0.5996 0.0
C159 C 0.82459 0.9175 0.57901 0.0
C160 C 0.871 0.89162 0.66695 0.0
C161 C 0.88348 0.88285 0.55885 0.0
C162 C 0.88262 0.84769 0.53042 0.0
C163 C 0.906 0.83866 0.48756 0.0
C164 C 0.93009 0.86662 0.47185 0.0
C165 C 0.93073 0.90311 0.49907 0.0
C166 C 0.90789 0.91103 0.54433 0.0
H167 H 0.76959 0.37325 0.96109 0.0
H168 H 0.7164 0.26418 0.92153 0.0
H169 H 0.65307 0.293 0.92338 0.0
H170 H 0.71858 0.40057 0.069 0.0
H171 H 0.71502 0.44975 0.05057 0.0
H172 H 0.75384 0.42237 0.03098 0.0
H173 H 0.73554 0.44129 0.91794 0.0
H174 H 0.6961 0.46844 0.93733 0.0
H175 H 0.68808 0.43216 0.87857 0.0
H176 H 0.59841 0.33079 0.94996 0.0
H177 H 0.559 0.37231 0.0055 0.0
H178 H 0.6471 0.45727 0.02673 0.0
C179 C 0.74432 0.35588 0.95045 0.0
C180 C 0.74732 0.31684 0.94007 0.0
C181 C 0.71424 0.29435 0.92847 0.0
C182 C 0.67826 0.31055 0.92916 0.0
C183 C 0.67608 0.34926 0.94103 0.0
C184 C 0.70834 0.37168 0.95111 0.0
C185 C 0.6993 0.41113 0.97188 0.0
C186 C 0.72306 0.42151 0.03429 0.0
C187 C 0.7051 0.43996 0.92354 0.0
C188 C 0.65752 0.40676 0.97622 0.0
C189 C 0.64428 0.37125 0.95633 0.0
C190 C 0.60804 0.35904 0.96366 0.0
C191 C 0.58565 0.38288 0.99478 0.0
C192 C 0.59965 0.41835 0.01813 0.0
C193 C 0.63524 0.43098 0.00652 0.0
H194 H 0.1552 0.91596 0.14178 0.0
H195 H 0.18371 0.81331 0.24325 0.0
H196 H 0.16961 0.84518 0.33501 0.0
H197 H 0.17902 0.98635 0.26696 0.0
H198 H 0.13692 0.01341 0.24134 0.0
H199 H 0.15978 0.98713 0.18682 0.0
H200 H 0.09646 0.95236 0.14696 0.0
H201 H 0.07348 0.97871 0.20077 0.0
H202 H 0.0723 0.92796 0.20016 0.0
H203 H 0.14455 0.8849 0.41482 0.0
H204 H 0.10178 0.92414 0.46785 0.0
H205 H 0.07903 0.99516 0.31029 0.0
C206 C 0.15882 0.89944 0.18242 0.0
C207 C 0.1713 0.86137 0.18281 0.0
C208 C 0.17578 0.84257 0.23962 0.0
C209 C 0.16749 0.86051 0.29301 0.0
C210 C 0.15385 0.89722 0.28971 0.0
C211 C 0.14896 0.91623 0.23551 0.0
C212 C 0.12724 0.95259 0.24088 0.0
C213 C 0.15225 0.9869 0.23357 0.0
C214 C 0.09019 0.95289 0.19448 0.0
C215 C 0.11933 0.9502 0.30584 0.0
C216 C 0.13634 0.91888 0.33416 0.0
C217 C 0.13148 0.90974 0.39334 0.0
C218 C 0.10735 0.93228 0.42332 0.0
C219 C 0.08754 0.96274 0.39322 0.0
C220 C 0.09444 0.97234 0.33451 0.0
H221 H 0.6375 0.69674 0.73889 0.0
H222 H 0.69899 0.60083 0.68037 0.0
H223 H 0.67818 0.5626 0.76153 0.0
H224 H 0.65279 0.67876 0.90291 0.0
H225 H 0.60537 0.69338 0.91131 0.0
H226 H 0.62883 0.71391 0.85361 0.0
H227 H 0.57238 0.69419 0.77019 0.0
H228 H 0.54866 0.67403 0.82762 0.0
H229 H 0.55754 0.64556 0.76305 0.0
H230 H 0.64795 0.53451 0.84758 0.0
H231 H 0.6044 0.51708 0.91966 0.0
H232 H 0.56109 0.63119 0.91606 0.0
C233 C 0.64709 0.66787 0.74397 0.0
C234 C 0.67015 0.6517 0.70429 0.0
C235 C 0.68137 0.61359 0.71081 0.0
C236 C 0.66997 0.59186 0.75696 0.0
C237 C 0.64718 0.60873 0.79564 0.0
C238 C 0.63554 0.64579 0.78896 0.0
C239 C 0.60805 0.65641 0.83178 0.0
C240 C 0.62478 0.68745 0.87762 0.0
C241 C 0.56938 0.66821 0.79602 0.0
C242 C 0.60535 0.61938 0.86291 0.0
C243 C 0.62873 0.59234 0.84274 0.0
C244 C 0.62972 0.55554 0.86391 0.0
C245 C 0.60515 0.54593 0.90504 0.0
C246 C 0.57961 0.57289 0.92312 0.0
C247 C 0.58054 0.61016 0.903 0.0
H248 H 0.84275 0.13354 0.0897 0.0
H249 H 0.91494 0.23255 0.11818 0.0
H250 H 0.94452 0.20899 0.21887 0.0
H251 H 0.8273 0.12629 0.24733 0.0
H252 H 0.82781 0.07554 0.24471 0.0
H253 H 0.81184 0.10113 0.17627 0.0
H254 H 0.86159 0.06651 0.12151 0.0
H255 H 0.87749 0.04071 0.18959 0.0
H256 H 0.91102 0.06786 0.15545 0.0
H257 H 0.9693 0.17121 0.31482 0.0
H258 H 0.98523 0.12388 0.39557 0.0
H259 H 0.89393 0.05244 0.30392 0.0
C260 C 0.86474 0.15028 0.11719 0.0
C261 C 0.8766 0.1848 0.09616 0.0
C262 C 0.90523 0.20611 0.1337 0.0
C263 C 0.92224 0.19292 0.19087 0.0
C264 C 0.90993 0.15862 0.21023 0.0
C265 C 0.88158 0.13782 0.17452 0.0
C266 C 0.8736 0.1017 0.20489 0.0
C267 C 0.83271 0.10116 0.21915 0.0
C268 C 0.88141 0.06717 0.16553 0.0
C269 C 0.90234 0.10494 0.26271 0.0
C270 C 0.92316 0.13786 0.26539 0.0
C271 C 0.95278 0.14557 0.31345 0.0
C272 C 0.9616 0.1186 0.35924 0.0
C273 C 0.94074 0.0845 0.35657 0.0
C274 C 0.91033 0.07829 0.30805 0.0
H275 H 0.30615 0.39858 0.66522 0.0
H276 H 0.39767 0.33085 0.6136 0.0
H277 H 0.43659 0.34486 0.71442 0.0
H278 H 0.36281 0.47063 0.73084 0.0
H279 H 0.33565 0.48158 0.79104 0.0
H280 H 0.31271 0.4599 0.72098 0.0
H281 H 0.28927 0.40543 0.7816 0.0
H282 H 0.31236 0.427 0.8521 0.0
H283 H 0.3232 0.37904 0.83291 0.0
H284 H 0.46797 0.37225 0.81667 0.0
H285 H 0.49093 0.41554 0.90395 0.0
H286 H 0.37969 0.46749 0.88492 0.0
C287 C 0.33387 0.38564 0.67611 0.0
C288 C 0.34873 0.36309 0.63235 0.0
C289 C 0.38572 0.34788 0.64699 0.0
C290 C 0.40787 0.35551 0.7042 0.0
C291 C 0.39266 0.37854 0.7461 0.0
C292 C 0.35648 0.39349 0.73248 0.0
C293 C 0.34856 0.42152 0.78128 0.0
C294 C 0.33943 0.46071 0.75442 0.0
C295 C 0.31644 0.40739 0.81391 0.0
C296 C 0.3864 0.42126 0.82325 0.0
C297 C 0.41117 0.3955 0.8034 0.0
C298 C 0.44861 0.39212 0.83307 0.0
C299 C 0.46139 0.41664 0.88279 0.0
C300 C 0.43698 0.44465 0.90114 0.0
C301 C 0.3988 0.44605 0.8721 0.0
H302 H 0.61469 0.6586 0.49444 0.0
H303 H 0.72693 0.68595 0.45547 0.0
H304 H 0.70857 0.66102 0.34972 0.0
H305 H 0.6055 0.57258 0.41843 0.0
H306 H 0.55541 0.57671 0.39018 0.0
H307 H 0.57573 0.6016 0.45901 0.0
H308 H 0.54963 0.66445 0.4123 0.0
H309 H 0.52936 0.63967 0.34297 0.0
H310 H 0.56158 0.67844 0.34002 0.0
H311 H 0.68112 0.62431 0.25412 0.0
H312 H 0.64673 0.57981 0.17701 0.0
H313 H 0.55185 0.57842 0.27711 0.0
C314 C 0.63526 0.65979 0.46339 0.0
C315 C 0.6723 0.67406 0.48315 0.0
C316 C 0.69832 0.6754 0.44111 0.0
C317 C 0.68811 0.66132 0.381 0.0
C318 C 0.65158 0.64663 0.36343 0.0
C319 C 0.62544 0.64616 0.40334 0.0
C320 C 0.58906 0.62634 0.37507 0.0
C321 C 0.58099 0.59229 0.41291 0.0
C322 C 0.55542 0.65388 0.36711 0.0
C323 C 0.59934 0.61413 0.31391 0.0
C324 C 0.63534 0.62653 0.30764 0.0
C325 C 0.65252 0.6154 0.25774 0.0
C326 C 0.63282 0.59029 0.2141 0.0
C327 C 0.59631 0.57696 0.22045 0.0
C328 C 0.5791 0.5896 0.27019 0.0
H329 H 0.8672 0.20873 0.82141 0.0
H330 H 0.82465 0.11169 0.90469 0.0
H331 H 0.83828 0.07133 0.8182 0.0
H332 H 0.83656 0.17826 0.65692 0.0
H333 H 0.87956 0.19704 0.63587 0.0
H334 H 0.85897 0.21908 0.69701 0.0
H335 H 0.92278 0.21172 0.77018 0.0
H336 H 0.94347 0.19008 0.70938 0.0
H337 H 0.944 0.16571 0.77991 0.0
H338 H 0.86571 0.04027 0.73031 0.0
H339 H 0.90934 0.02175 0.65804 0.0
H340 H 0.9338 0.13923 0.63379 0.0
C341 C 0.85925 0.17927 0.82027 0.0
C342 C 0.8443 0.1635 0.86937 0.0
C343 C 0.83592 0.12445 0.86739 0.0
C344 C 0.84328 0.10137 0.81816 0.0
C345 C 0.85889 0.11775 0.77105 0.0
C346 C 0.86669 0.15593 0.77187 0.0
C347 C 0.88833 0.16605 0.72101 0.0
C348 C 0.86441 0.19162 0.67497 0.0
C349 C 0.92691 0.18443 0.74668 0.0
C350 C 0.89323 0.12741 0.69316 0.0
C351 C 0.87517 0.0999 0.72128 0.0
C352 C 0.87919 0.06168 0.70707 0.0
C353 C 0.90374 0.05134 0.66551 0.0
C354 C 0.92435 0.07915 0.63977 0.0
C355 C 0.91759 0.11754 0.6518 0.0
H356 H 0.39407 0.35709 0.43335 0.0
H357 H 0.2886 0.41541 0.37001 0.0
H358 H 0.31741 0.4425 0.28639 0.0
H359 H 0.45544 0.43152 0.40767 0.0
H360 H 0.49106 0.40096 0.3838 0.0
H361 H 0.46114 0.38434 0.4359 0.0
H362 H 0.43998 0.3277 0.36261 0.0
H363 H 0.46986 0.34418 0.31025 0.0
H364 H 0.4199 0.33618 0.28434 0.0
H365 H 0.35945 0.46602 0.21243 0.0
H366 H 0.4109 0.48315 0.15475 0.0
H367 H 0.48812 0.40953 0.26838 0.0
C368 C 0.37696 0.37547 0.40184 0.0
C369 C 0.339 0.38391 0.4081 0.0
C370 C 0.31754 0.40796 0.36556 0.0
C371 C 0.33372 0.42368 0.31809 0.0
C372 C 0.37136 0.41502 0.31364 0.0
C373 C 0.39263 0.39138 0.35433 0.0
C374 C 0.43278 0.3874 0.34096 0.0
C375 C 0.4618 0.40193 0.3953 0.0
C376 C 0.4411 0.34643 0.32349 0.0
C377 C 0.43095 0.41282 0.28683 0.0
C378 C 0.39533 0.42846 0.27145 0.0
C379 C 0.3874 0.4537 0.22381 0.0
C380 C 0.41677 0.46326 0.1913 0.0
C381 C 0.45355 0.44765 0.20679 0.0
C382 C 0.46035 0.42192 0.25499 0.0
H383 H 0.10171 0.88624 0.98291 0.0
H384 H 0.17917 0.81394 0.89999 0.0
H385 H 0.15432 0.83927 0.79976 0.0
H386 H 0.02369 0.88816 0.85671 0.0
H387 H 0.01476 0.93763 0.86742 0.0
H388 H 0.03416 0.9098 0.9318 0.0
H389 H 0.09126 0.95575 0.95679 0.0
H390 H 0.07187 0.98386 0.89294 0.0
H391 H 0.11959 0.96582 0.89848 0.0
H392 H 0.12221 0.87416 0.70721 0.0
H393 H 0.09251 0.92187 0.63466 0.0
H394 H 0.04377 0.97681 0.78063 0.0
C395 C 0.1139 0.87558 0.94427 0.0
C396 C 0.14225 0.84723 0.95059 0.0
C397 C 0.15653 0.83443 0.8973 0.0
C398 C 0.14277 0.84891 0.83969 0.0
C399 C 0.11517 0.87688 0.83558 0.0
C400 C 0.10141 0.89055 0.88667 0.0
C401 C 0.07492 0.92352 0.87115 0.0
C402 C 0.03449 0.9142 0.88244 0.0
C403 C 0.09035 0.95935 0.90695 0.0
C404 C 0.07643 0.92662 0.80356 0.0
C405 C 0.09894 0.89882 0.78342 0.0
C406 C 0.10454 0.89608 0.72252 0.0
C407 C 0.08746 0.92307 0.68157 0.0
C408 C 0.06601 0.95283 0.70229 0.0
C409 C 0.06008 0.95424 0.76379 0.0
loop_
_geom_bond_atom_site_label_1
_geom_bond_atom_site_label_2
_geom_bond_distance
_geom_bond_site_symmetry_2
_ccdc_geom_bond_type
H0 C3 0.929 . S
H1 C6 0.929 . S
H2 C8 0.930 1_556 S
C3 H0 0.929 . S
C3 C4 1.398 . S
C3 C5 1.396 . S
C4 C3 1.398 . S
C4 C8 1.407 . S
C5 C3 1.396 . S
C5 C6 1.394 . S
C6 H1 0.929 . S
C6 C5 1.394 . S
C6 C7 1.382 . S
C7 C6 1.382 . S
C7 C8 1.392 . S
C7 N9 1.420 . S
C8 H2 0.930 1_554 S
C8 C4 1.407 . S
C8 C7 1.392 . S
N9 C7 1.420 . S
N9 C10 1.244 . S
C10 N9 1.244 . S
H11 C14 0.929 . S
H12 C17 0.929 . S
H13 C19 0.930 . S
C14 H11 0.929 . S
C14 C15 1.398 . S
C14 C16 1.396 . S
C15 C14 1.398 . S
C15 C19 1.407 . S
C16 C14 1.396 . S
C16 C17 1.394 . S
C17 H12 0.929 . S
C17 C16 1.394 . S
C17 C18 1.382 . S
C18 C17 1.382 . S
C18 C19 1.392 . S
C18 N20 1.420 . S
C19 H13 0.930 . S
C19 C15 1.407 . S
C19 C18 1.392 . S
N20 C18 1.420 . S
N20 C21 1.244 . S
C21 N20 1.244 . S
H22 C25 0.929 . S
H23 C28 0.929 . S
H24 C30 0.930 . S
C25 H22 0.929 . S
C25 C26 1.398 1_554 S
C25 C27 1.396 . S
C26 C25 1.398 1_556 S
C26 C30 1.407 . S
C27 C25 1.396 . S
C27 C28 1.394 . S
C28 H23 0.929 . S
C28 C27 1.394 . S
C28 C29 1.382 1_554 S
C29 C28 1.382 1_556 S
C29 C30 1.392 . S
C29 N31 1.420 . S
C30 H24 0.930 . S
C30 C26 1.407 . S
C30 C29 1.392 . S
N31 C29 1.420 . S
N31 C32 1.244 1_556 S
C32 N31 1.244 1_554 S
H33 C36 0.929 . S
H34 C39 0.929 . S
H35 C41 0.930 . S
C36 H33 0.929 . S
C36 C37 1.398 . S
C36 C38 1.396 . S
C37 C36 1.398 . S
C37 C41 1.407 . S
C38 C36 1.396 . S
C38 C39 1.394 . S
C39 H34 0.929 . S
C39 C38 1.394 . S
C39 C40 1.382 . S
C40 C39 1.382 . S
C40 C41 1.392 . S
C40 N42 1.420 . S
C41 H35 0.930 . S
C41 C37 1.407 . S
C41 C40 1.392 . S
N42 C40 1.420 . S
N42 C43 1.244 . S
C43 N42 1.244 . S
O44 Mg45 1.990 . S
O44 C58 1.253 1_455 S
Mg45 O44 1.990 . S
Mg45 O48 2.180 . S
Mg45 O49 2.117 . S
Mg45 O63 2.030 . S
O46 Mg47 2.072 1_655 S
O46 C58 1.260 . S
Mg47 O46 2.072 1_455 S
Mg47 O48 2.099 . S
Mg47 O50 2.079 1_545 S
Mg47 O51 2.072 1_455 S
Mg47 O53 2.099 1_445 S
Mg47 O64 2.079 1_545 S
O48 Mg45 2.180 . S
O48 Mg47 2.099 . S
O48 C59 1.279 . S
O49 Mg45 2.117 . S
O49 C59 1.250 . S
O50 Mg47 2.079 1_565 S
O50 C60 1.264 . S
O51 Mg47 2.072 1_655 S
O51 C61 1.260 . S
Mg52 O53 2.180 . S
Mg52 O54 2.030 1_655 S
Mg52 O55 1.990 1_565 S
Mg52 O56 2.117 . S
O53 Mg47 2.099 1_665 S
O53 Mg52 2.180 . S
O53 C62 1.279 . S
O54 Mg52 2.030 1_455 S
O54 C60 1.248 . S
O55 Mg52 1.990 1_545 S
O55 C61 1.253 . S
O56 Mg52 2.117 . S
O56 C62 1.250 . S
C57 O63 1.248 1_565 S
C57 O64 1.264 . S
C58 O44 1.253 1_655 S
C58 O46 1.260 . S
C59 O48 1.279 . S
C59 O49 1.250 . S
C60 O50 1.264 . S
C60 O54 1.248 . S
C61 O51 1.260 . S
C61 O55 1.253 . S
C62 O53 1.279 . S
C62 O56 1.250 . S
O63 Mg45 2.030 . S
O63 C57 1.248 1_545 S
O64 Mg47 2.079 1_565 S
O64 C57 1.264 . S
O65 Mg66 1.990 . S
O65 C79 1.253 . S
Mg66 O65 1.990 . S
Mg66 O69 2.180 . S
Mg66 O70 2.117 . S
Mg66 O84 2.030 . S
O67 Mg68 2.072 . S
O67 C79 1.260 . S
Mg68 O67 2.072 . S
Mg68 O69 2.099 . S
Mg68 O71 2.079 1_554 S
Mg68 O72 2.072 1_554 S
Mg68 O74 2.099 . S
Mg68 O85 2.079 . S
O69 Mg66 2.180 . S
O69 Mg68 2.099 . S
O69 C80 1.279 . S
O70 Mg66 2.117 . S
O70 C80 1.250 . S
O71 Mg68 2.079 1_556 S
O71 C81 1.264 . S
O72 Mg68 2.072 1_556 S
O72 C82 1.260 . S
Mg73 O74 2.180 1_556 S
Mg73 O75 2.030 . S
Mg73 O76 1.990 . S
Mg73 O77 2.117 . S
O74 Mg68 2.099 . S
O74 Mg73 2.180 1_554 S
O74 C83 1.279 . S
O75 Mg73 2.030 . S
O75 C81 1.248 . S
O76 Mg73 1.990 . S
O76 C82 1.253 . S
O77 Mg73 2.117 . S
O77 C83 1.250 1_556 S
C78 O84 1.248 . S
C78 O85 1.264 . S
C79 O65 1.253 . S
C79 O67 1.260 . S
C80 O69 1.279 . S
C80 O70 1.250 . S
C81 O71 1.264 . S
C81 O75 1.248 . S
C82 O72 1.260 . S
C82 O76 1.253 . S
C83 O74 1.279 . S
C83 O77 1.250 1_554 S
O84 Mg66 2.030 . S
O84 C78 1.248 . S
O85 Mg68 2.079 . S
O85 C78 1.264 . S
H86 C98 0.930 . S
H87 C100 0.930 . S
H88 C101 0.930 . S
H89 C105 0.959 . S
H90 C105 0.959 . S
H91 C105 0.961 . S
H92 C106 0.960 . S
H93 C106 0.961 . S
H94 C106 0.959 . S
H95 C109 0.929 . S
H96 C110 0.931 . S
H97 C112 0.930 . S
C98 H86 0.930 . S
C98 C99 1.399 . S
C98 C103 1.399 . S
C99 C98 1.399 . S
C99 C100 1.376 . S
C100 H87 0.930 . S
C100 C99 1.376 . S
C100 C101 1.388 . S
C101 H88 0.930 . S
C101 C100 1.388 . S
C101 C102 1.390 . S
C102 C101 1.390 . S
C102 C103 1.394 . S
C102 C108 1.465 . S
C103 C98 1.399 . S
C103 C102 1.394 . S
C103 C104 1.516 . S
C104 C103 1.516 . S
C104 C105 1.502 . S
C104 C106 1.561 . S
C104 C107 1.526 . S
C105 H89 0.959 . S
C105 H90 0.959 . S
C105 H91 0.961 . S
C105 C104 1.502 . S
C106 H92 0.960 . S
C106 H93 0.961 . S
C106 H94 0.959 . S
C106 C104 1.561 . S
C107 C104 1.526 . S
C107 C108 1.396 . S
C107 C112 1.390 . S
C108 C102 1.465 . S
C108 C107 1.396 . S
C108 C109 1.399 . S
C109 H95 0.929 . S
C109 C108 1.399 . S
C109 C110 1.385 . S
C110 H96 0.931 . S
C110 C109 1.385 . S
C110 C111 1.389 . S
C111 C110 1.389 . S
C111 C112 1.387 . S
C112 H97 0.930 . S
C112 C107 1.390 . S
C112 C111 1.387 . S
H113 C125 0.930 . S
H114 C127 0.930 . S
H115 C128 0.930 . S
H116 C132 0.959 . S
H117 C132 0.959 . S
H118 C132 0.961 . S
H119 C133 0.960 . S
H120 C133 0.961 . S
H121 C133 0.959 . S
H122 C136 0.929 . S
H123 C137 0.931 . S
H124 C139 0.930 1_556 S
C125 H113 0.930 . S
C125 C126 1.399 . S
C125 C130 1.399 . S
C126 C125 1.399 . S
C126 C127 1.376 . S
C127 H114 0.930 . S
C127 C126 1.376 . S
C127 C128 1.388 . S
C128 H115 0.930 . S
C128 C127 1.388 . S
C128 C129 1.390 . S
C129 C128 1.390 . S
C129 C130 1.394 . S
C129 C135 1.465 . S
C130 C125 1.399 . S
C130 C129 1.394 . S
C130 C131 1.516 . S
C131 C130 1.516 . S
C131 C132 1.502 1_554 S
C131 C133 1.561 1_554 S
C131 C134 1.526 . S
C132 H116 0.959 . S
C132 H117 0.959 . S
C132 H118 0.961 . S
C132 C131 1.502 1_556 S
C133 H119 0.960 . S
C133 H120 0.961 . S
C133 H121 0.959 . S
C133 C131 1.561 1_556 S
C134 C131 1.526 . S
C134 C135 1.396 . S
C134 C139 1.390 . S
C135 C129 1.465 . S
C135 C134 1.396 . S
C135 C136 1.399 . S
C136 H122 0.929 . S
C136 C135 1.399 . S
C136 C137 1.385 . S
C137 H123 0.931 . S
C137 C136 1.385 . S
C137 C138 1.389 . S
C138 C137 1.389 . S
C138 C139 1.387 . S
C139 H124 0.930 1_554 S
C139 C134 1.390 . S
C139 C138 1.387 . S
H140 C152 0.930 . S
H141 C154 0.930 . S
H142 C155 0.930 . S
H143 C159 0.959 . S
H144 C159 0.959 . S
H145 C159 0.961 . S
H146 C160 0.960 . S
H147 C160 0.961 . S
H148 C160 0.959 . S
H149 C163 0.929 . S
H150 C164 0.931 . S
H151 C166 0.930 . S
C152 H140 0.930 . S
C152 C153 1.399 . S
C152 C157 1.399 . S
C153 C152 1.399 . S
C153 C154 1.376 . S
C154 H141 0.930 . S
C154 C153 1.376 . S
C154 C155 1.388 . S
C155 H142 0.930 . S
C155 C154 1.388 . S
C155 C156 1.390 . S
C156 C155 1.390 . S
C156 C157 1.394 . S
C156 C162 1.465 . S
C157 C152 1.399 . S
C157 C156 1.394 . S
C157 C158 1.516 . S
C158 C157 1.516 . S
C158 C159 1.502 . S
C158 C160 1.561 . S
C158 C161 1.526 . S
C159 H143 0.959 . S
C159 H144 0.959 . S
C159 H145 0.961 . S
C159 C158 1.502 . S
C160 H146 0.960 . S
C160 H147 0.961 . S
C160 H148 0.959 . S
C160 C158 1.561 . S
C161 C158 1.526 . S
C161 C162 1.396 . S
C161 C166 1.390 . S
C162 C156 1.465 . S
C162 C161 1.396 . S
C162 C163 1.399 . S
C163 H149 0.929 . S
C163 C162 1.399 . S
C163 C164 1.385 . S
C164 H150 0.931 . S
C164 C163 1.385 . S
C164 C165 1.389 . S
C165 C164 1.389 . S
C165 C166 1.387 . S
C166 H151 0.930 . S
C166 C161 1.390 . S
C166 C165 1.387 . S
H167 C179 0.930 . S
H168 C181 0.930 . S
H169 C182 0.930 . S
H170 C186 0.959 . S
H171 C186 0.959 . S
H172 C186 0.961 . S
H173 C187 0.960 . S
H174 C187 0.961 . S
H175 C187 0.959 . S
H176 C190 0.929 . S
H177 C191 0.931 . S
H178 C193 0.930 . S
C179 H167 0.930 . S
C179 C180 1.399 1_556 S
C179 C184 1.399 . S
C180 C179 1.399 1_554 S
C180 C181 1.376 . S
C181 H168 0.930 . S
C181 C180 1.376 . S
C181 C182 1.388 . S
C182 H169 0.930 . S
C182 C181 1.388 . S
C182 C183 1.390 . S
C183 C182 1.390 . S
C183 C184 1.394 1_554 S
C183 C189 1.465 . S
C184 C179 1.399 . S
C184 C183 1.394 1_556 S
C184 C185 1.516 . S
C185 C184 1.516 . S
C185 C186 1.502 . S
C185 C187 1.561 . S
C185 C188 1.526 . S
C186 H170 0.959 . S
C186 H171 0.959 . S
C186 H172 0.961 . S
C186 C185 1.502 . S
C187 H173 0.960 . S
C187 H174 0.961 . S
C187 H175 0.959 . S
C187 C185 1.561 . S
C188 C185 1.526 . S
C188 C189 1.396 1_556 S
C188 C193 1.390 . S
C189 C183 1.465 . S
C189 C188 1.396 1_554 S
C189 C190 1.399 . S
C190 H176 0.929 . S
C190 C189 1.399 . S
C190 C191 1.385 . S
C191 H177 0.931 . S
C191 C190 1.385 . S
C191 C192 1.389 . S
C192 C191 1.389 . S
C192 C193 1.387 1_554 S
C193 H178 0.930 . S
C193 C188 1.390 . S
C193 C192 1.387 1_556 S
H194 C206 0.930 . S
H195 C208 0.930 . S
H196 C209 0.930 . S
H197 C213 0.959 . S
H198 C213 0.959 1_545 S
H199 C213 0.961 . S
H200 C214 0.960 . S
H201 C214 0.961 . S
H202 C214 0.959 . S
H203 C217 0.929 . S
H204 C218 0.931 . S
H205 C220 0.930 . S
C206 H194 0.930 . S
C206 C207 1.399 . S
C206 C211 1.399 . S
C207 C206 1.399 . S
C207 C208 1.376 . S
C208 H195 0.930 . S
C208 C207 1.376 . S
C208 C209 1.388 . S
C209 H196 0.930 . S
C209 C208 1.388 . S
C209 C210 1.390 . S
C210 C209 1.390 . S
C210 C211 1.394 . S
C210 C216 1.465 . S
C211 C206 1.399 . S
C211 C210 1.394 . S
C211 C212 1.516 . S
C212 C211 1.516 . S
C212 C213 1.502 . S
C212 C214 1.561 . S
C212 C215 1.526 . S
C213 H197 0.959 . S
C213 H198 0.959 1_565 S
C213 H199 0.961 . S
C213 C212 1.502 . S
C214 H200 0.960 . S
C214 H201 0.961 . S
C214 H202 0.959 . S
C214 C212 1.561 . S
C215 C212 1.526 . S
C215 C216 1.396 . S
C215 C220 1.390 . S
C216 C210 1.465 . S
C216 C215 1.396 . S
C216 C217 1.399 . S
C217 H203 0.929 . S
C217 C216 1.399 . S
C217 C218 1.385 . S
C218 H204 0.931 . S
C218 C217 1.385 . S
C218 C219 1.389 . S
C219 C218 1.389 . S
C219 C220 1.387 . S
C220 H205 0.930 . S
C220 C215 1.390 . S
C220 C219 1.387 . S
H221 C233 0.930 . S
H222 C235 0.930 . S
H223 C236 0.930 . S
H224 C240 0.959 . S
H225 C240 0.959 . S
H226 C240 0.961 . S
H227 C241 0.960 . S
H228 C241 0.961 . S
H229 C241 0.959 . S
H230 C244 0.929 . S
H231 C245 0.931 . S
H232 C247 0.930 . S
C233 H221 0.930 . S
C233 C234 1.399 . S
C233 C238 1.399 . S
C234 C233 1.399 . S
C234 C235 1.376 . S
C235 H222 0.930 . S
C235 C234 1.376 . S
C235 C236 1.388 . S
C236 H223 0.930 . S
C236 C235 1.388 . S
C236 C237 1.390 . S
C237 C236 1.390 . S
C237 C238 1.394 . S
C237 C243 1.465 . S
C238 C233 1.399 . S
C238 C237 1.394 . S
C238 C239 1.516 . S
C239 C238 1.516 . S
C239 C240 1.502 . S
C239 C241 1.561 . S
C239 C242 1.526 . S
C240 H224 0.959 . S
C240 H225 0.959 . S
C240 H226 0.961 . S
C240 C239 1.502 . S
C241 H227 0.960 . S
C241 H228 0.961 . S
C241 H229 0.959 . S
C241 C239 1.561 . S
C242 C239 1.526 . S
C242 C243 1.396 . S
C242 C247 1.390 . S
C243 C237 1.465 . S
C243 C242 1.396 . S
C243 C244 1.399 . S
C244 H230 0.929 . S
C244 C243 1.399 . S
C244 C245 1.385 . S
C245 H231 0.931 . S
C245 C244 1.385 . S
C245 C246 1.389 . S
C246 C245 1.389 . S
C246 C247 1.387 . S
C247 H232 0.930 . S
C247 C242 1.390 . S
C247 C246 1.387 . S
H248 C260 0.930 . S
H249 C262 0.930 . S
H250 C263 0.930 . S
H251 C267 0.959 . S
H252 C267 0.959 . S
H253 C267 0.961 . S
H254 C268 0.960 . S
H255 C268 0.961 . S
H256 C268 0.959 . S
H257 C271 0.929 . S
H258 C272 0.931 1_455 S
H259 C274 0.930 . S
C260 H248 0.930 . S
C260 C261 1.399 . S
C260 C265 1.399 . S
C261 C260 1.399 . S
C261 C262 1.376 . S
C262 H249 0.930 . S
C262 C261 1.376 . S
C262 C263 1.388 . S
C263 H250 0.930 . S
C263 C262 1.388 . S
C263 C264 1.390 . S
C264 C263 1.390 . S
C264 C265 1.394 . S
C264 C270 1.465 . S
C265 C260 1.399 . S
C265 C264 1.394 . S
C265 C266 1.516 . S
C266 C265 1.516 . S
C266 C267 1.502 . S
C266 C268 1.561 . S
C266 C269 1.526 . S
C267 H251 0.959 . S
C267 H252 0.959 . S
C267 H253 0.961 . S
C267 C266 1.502 . S
C268 H254 0.960 . S
C268 H255 0.961 . S
C268 H256 0.959 . S
C268 C266 1.561 . S
C269 C266 1.526 . S
C269 C270 1.396 . S
C269 C274 1.390 . S
C270 C264 1.465 . S
C270 C269 1.396 . S
C270 C271 1.399 . S
C271 H257 0.929 . S
C271 C270 1.399 . S
C271 C272 1.385 . S
C272 H258 0.931 1_655 S
C272 C271 1.385 . S
C272 C273 1.389 . S
C273 C272 1.389 . S
C273 C274 1.387 . S
C274 H259 0.930 . S
C274 C269 1.390 . S
C274 C273 1.387 . S
H275 C287 0.930 . S
H276 C289 0.930 . S
H277 C290 0.930 . S
H278 C294 0.959 . S
H279 C294 0.959 . S
H280 C294 0.961 . S
H281 C295 0.960 . S
H282 C295 0.961 . S
H283 C295 0.959 . S
H284 C298 0.929 . S
H285 C299 0.931 . S
H286 C301 0.930 . S
C287 H275 0.930 . S
C287 C288 1.399 . S
C287 C292 1.399 . S
C288 C287 1.399 . S
C288 C289 1.376 . S
C289 H276 0.930 . S
C289 C288 1.376 . S
C289 C290 1.388 . S
C290 H277 0.930 . S
C290 C289 1.388 . S
C290 C291 1.390 . S
C291 C290 1.390 . S
C291 C292 1.394 . S
C291 C297 1.465 . S
C292 C287 1.399 . S
C292 C291 1.394 . S
C292 C293 1.516 . S
C293 C292 1.516 . S
C293 C294 1.502 . S
C293 C295 1.561 . S
C293 C296 1.526 . S
C294 H278 0.959 . S
C294 H279 0.959 . S
C294 H280 0.961 . S
C294 C293 1.502 . S
C295 H281 0.960 . S
C295 H282 0.961 . S
C295 H283 0.959 . S
C295 C293 1.561 . S
C296 C293 1.526 . S
C296 C297 1.396 . S
C296 C301 1.390 . S
C297 C291 1.465 . S
C297 C296 1.396 . S
C297 C298 1.399 . S
C298 H284 0.929 . S
C298 C297 1.399 . S
C298 C299 1.385 . S
C299 H285 0.931 . S
C299 C298 1.385 . S
C299 C300 1.389 . S
C300 C299 1.389 . S
C300 C301 1.387 . S
C301 H286 0.930 . S
C301 C296 1.390 . S
C301 C300 1.387 . S
H302 C314 0.930 . S
H303 C316 0.930 . S
H304 C317 0.930 . S
H305 C321 0.959 . S
H306 C321 0.959 . S
H307 C321 0.961 . S
H308 C322 0.960 . S
H309 C322 0.961 . S
H310 C322 0.959 . S
H311 C325 0.929 . S
H312 C326 0.931 . S
H313 C328 0.930 . S
C314 H302 0.930 . S
C314 C315 1.399 . S
C314 C319 1.399 . S
C315 C314 1.399 . S
C315 C316 1.376 . S
C316 H303 0.930 . S
C316 C315 1.376 . S
C316 C317 1.388 . S
C317 H304 0.930 . S
C317 C316 1.388 . S
C317 C318 1.390 . S
C318 C317 1.390 . S
C318 C319 1.394 . S
C318 C324 1.465 . S
C319 C314 1.399 . S
C319 C318 1.394 . S
C319 C320 1.516 . S
C320 C319 1.516 . S
C320 C321 1.502 . S
C320 C322 1.561 . S
C320 C323 1.526 . S
C321 H305 0.959 . S
C321 H306 0.959 . S
C321 H307 0.961 . S
C321 C320 1.502 . S
C322 H308 0.960 . S
C322 H309 0.961 . S
C322 H310 0.959 . S
C322 C320 1.561 . S
C323 C320 1.526 . S
C323 C324 1.396 . S
C323 C328 1.390 . S
C324 C318 1.465 . S
C324 C323 1.396 . S
C324 C325 1.399 . S
C325 H311 0.929 . S
C325 C324 1.399 . S
C325 C326 1.385 . S
C326 H312 0.931 . S
C326 C325 1.385 . S
C326 C327 1.389 . S
C327 C326 1.389 . S
C327 C328 1.387 . S
C328 H313 0.930 . S
C328 C323 1.390 . S
C328 C327 1.387 . S
H329 C341 0.930 . S
H330 C343 0.930 . S
H331 C344 0.930 . S
H332 C348 0.959 . S
H333 C348 0.959 . S
H334 C348 0.961 . S
H335 C349 0.960 . S
H336 C349 0.961 . S
H337 C349 0.959 . S
H338 C352 0.929 . S
H339 C353 0.931 . S
H340 C355 0.930 . S
C341 H329 0.930 . S
C341 C342 1.399 . S
C341 C346 1.399 . S
C342 C341 1.399 . S
C342 C343 1.376 . S
C343 H330 0.930 . S
C343 C342 1.376 . S
C343 C344 1.388 . S
C344 H331 0.930 . S
C344 C343 1.388 . S
C344 C345 1.390 . S
C345 C344 1.390 . S
C345 C346 1.394 . S
C345 C351 1.465 . S
C346 C341 1.399 . S
C346 C345 1.394 . S
C346 C347 1.516 . S
C347 C346 1.516 . S
C347 C348 1.502 . S
C347 C349 1.561 . S
C347 C350 1.526 . S
C348 H332 0.959 . S
C348 H333 0.959 . S
C348 H334 0.961 . S
C348 C347 1.502 . S
C349 H335 0.960 . S
C349 H336 0.961 . S
C349 H337 0.959 . S
C349 C347 1.561 . S
C350 C347 1.526 . S
C350 C351 1.396 . S
C350 C355 1.390 . S
C351 C345 1.465 . S
C351 C350 1.396 . S
C351 C352 1.399 . S
C352 H338 0.929 . S
C352 C351 1.399 . S
C352 C353 1.385 . S
C353 H339 0.931 . S
C353 C352 1.385 . S
C353 C354 1.389 . S
C354 C353 1.389 . S
C354 C355 1.387 . S
C355 H340 0.930 . S
C355 C350 1.390 . S
C355 C354 1.387 . S
H356 C368 0.930 . S
H357 C370 0.930 . S
H358 C371 0.930 . S
H359 C375 0.959 . S
H360 C375 0.959 . S
H361 C375 0.961 . S
H362 C376 0.960 . S
H363 C376 0.961 . S
H364 C376 0.959 . S
H365 C379 0.929 . S
H366 C380 0.931 . S
H367 C382 0.930 . S
C368 H356 0.930 . S
C368 C369 1.399 . S
C368 C373 1.399 . S
C369 C368 1.399 . S
C369 C370 1.376 . S
C370 H357 0.930 . S
C370 C369 1.376 . S
C370 C371 1.388 . S
C371 H358 0.930 . S
C371 C370 1.388 . S
C371 C372 1.390 . S
C372 C371 1.390 . S
C372 C373 1.394 . S
C372 C378 1.465 . S
C373 C368 1.399 . S
C373 C372 1.394 . S
C373 C374 1.516 . S
C374 C373 1.516 . S
C374 C375 1.502 . S
C374 C376 1.561 . S
C374 C377 1.526 . S
C375 H359 0.959 . S
C375 H360 0.959 . S
C375 H361 0.961 . S
C375 C374 1.502 . S
C376 H362 0.960 . S
C376 H363 0.961 . S
C376 H364 0.959 . S
C376 C374 1.561 . S
C377 C374 1.526 . S
C377 C378 1.396 . S
C377 C382 1.390 . S
C378 C372 1.465 . S
C378 C377 1.396 . S
C378 C379 1.399 . S
C379 H365 0.929 . S
C379 C378 1.399 . S
C379 C380 1.385 . S
C380 H366 0.931 . S
C380 C379 1.385 . S
C380 C381 1.389 . S
C381 C380 1.389 . S
C381 C382 1.387 . S
C382 H367 0.930 . S
C382 C377 1.390 . S
C382 C381 1.387 . S
H383 C395 0.930 . S
H384 C397 0.930 . S
H385 C398 0.930 . S
H386 C402 0.959 . S
H387 C402 0.959 . S
H388 C402 0.961 . S
H389 C403 0.960 . S
H390 C403 0.961 . S
H391 C403 0.959 . S
H392 C406 0.929 . S
H393 C407 0.941 . S
H394 C409 0.930 . S
C395 H383 0.930 . S
C395 C396 1.399 . S
C395 C400 1.399 . S
C396 C395 1.399 . S
C396 C397 1.376 . S
C397 H384 0.930 . S
C397 C396 1.376 . S
C397 C398 1.388 . S
C398 H385 0.930 . S
C398 C397 1.388 . S
C398 C399 1.390 . S
C399 C398 1.390 . S
C399 C400 1.394 . S
C399 C405 1.465 . S
C400 C395 1.399 . S
C400 C399 1.394 . S
C400 C401 1.516 . S
C401 C400 1.516 . S
C401 C402 1.502 . S
C401 C403 1.561 . S
C401 C404 1.526 . S
C402 H386 0.959 . S
C402 H387 0.959 . S
C402 H388 0.961 . S
C402 C401 1.502 . S
C403 H389 0.960 . S
C403 H390 0.961 . S
C403 H391 0.959 . S
C403 C401 1.561 . S
C404 C401 1.526 . S
C404 C405 1.396 . S
C404 C409 1.390 . S
C405 C399 1.465 . S
C405 C404 1.396 . S
C405 C406 1.399 . S
C406 H392 0.929 . S
C406 C405 1.399 . S
C406 C407 1.385 . S
C407 H393 0.941 . S
C407 C406 1.385 . S
C407 C408 1.389 . S
C408 C407 1.389 . S
C408 C409 1.387 . S
C409 H394 0.930 . S
C409 C404 1.390 . S
C409 C408 1.387 . S
C111 C59 1.200 . S
C99 C43 1.430 . S
C126 C10 1.474 . S
C138 C83 1.349 . S
C153 C21 1.572 . S
C165 C62 1.334 . S
C180 C32 1.573 . S
C192 C80 1.314 . S
C219 C60 1.480 . S
C207 C5 1.504 . S
C246 C82 1.537 . S
C234 C15 1.589 . S
C261 C27 1.575 . S
C273 C61 1.576 . S
C288 C38 1.488 . S
C300 C81 1.451 . S
C327 C79 1.432 . S
C315 C16 1.519 . S
C354 C58 1.493 . S
C342 C26 1.517 . S
C381 C78 1.444 . S
C369 C37 1.456 . S
C396 C4 1.454 1_556 S
C408 C57 1.361 . S
