# Generated by pormake.
# Topology zzz, (3,6)-cn, num edge types: 1
# Building blocks:
#     Node 0, Type 0, BuildingBlock: BELTOD_clean_linker_0, # of connection points: 3
#     Node 1, Type 0, BuildingBlock: BELTOD_clean_linker_0, # of connection points: 3
#     Node 2, Type 0, BuildingBlock: BELTOD_clean_linker_0, # of connection points: 3
#     Node 3, Type 0, BuildingBlock: BELTOD_clean_linker_0, # of connection points: 3
#     Node 4, Type 0, BuildingBlock: BELTOD_clean_linker_0, # of connection points: 3
#     Node 5, Type 0, BuildingBlock: BELTOD_clean_linker_0, # of connection points: 3
#     Node 6, Type 0, BuildingBlock: BELTOD_clean_linker_0, # of connection points: 3
#     Node 7, Type 0, BuildingBlock: BELTOD_clean_linker_0, # of connection points: 3
#     Node 8, Type 1, BuildingBlock: BETFAJ_clean_sbu_0, # of connection points: 6
#     Node 9, Type 1, BuildingBlock: BETFAJ_clean_sbu_0, # of connection points: 6
#     Node 10, Type 1, BuildingBlock: BETFAJ_clean_sbu_0, # of connection points: 6
#     Node 11, Type 1, BuildingBlock: BETFAJ_clean_sbu_0, # of connection points: 6
#     Edge 12, Type (0, 1), BuildingBlock: KIFKEQ_clean_linker_1, # of connection points: 2
#     Edge 13, Type (0, 1), BuildingBlock: KIFKEQ_clean_linker_1, # of connection points: 2
#     Edge 14, Type (0, 1), BuildingBlock: KIFKEQ_clean_linker_1, # of connection points: 2
#     Edge 15, Type (0, 1), BuildingBlock: KIFKEQ_clean_linker_1, # of connection points: 2
#     Edge 16, Type (0, 1), BuildingBlock: KIFKEQ_clean_linker_1, # of connection points: 2
#     Edge 17, Type (0, 1), BuildingBlock: KIFKEQ_clean_linker_1, # of connection points: 2
#     Edge 18, Type (0, 1), BuildingBlock: KIFKEQ_clean_linker_1, # of connection points: 2
#     Edge 19, Type (0, 1), BuildingBlock: KIFKEQ_clean_linker_1, # of connection points: 2
#     Edge 20, Type (0, 1), BuildingBlock: KIFKEQ_clean_linker_1, # of connection points: 2
#     Edge 21, Type (0, 1), BuildingBlock: KIFKEQ_clean_linker_1, # of connection points: 2
#     Edge 22, Type (0, 1), BuildingBlock: KIFKEQ_clean_linker_1, # of connection points: 2
#     Edge 23, Type (0, 1), BuildingBlock: KIFKEQ_clean_linker_1, # of connection points: 2
#     Edge 24, Type (0, 1), BuildingBlock: KIFKEQ_clean_linker_1, # of connection points: 2
#     Edge 25, Type (0, 1), BuildingBlock: KIFKEQ_clean_linker_1, # of connection points: 2
#     Edge 26, Type (0, 1), BuildingBlock: KIFKEQ_clean_linker_1, # of connection points: 2
#     Edge 27, Type (0, 1), BuildingBlock: KIFKEQ_clean_linker_1, # of connection points: 2
#     Edge 28, Type (0, 1), BuildingBlock: KIFKEQ_clean_linker_1, # of connection points: 2
#     Edge 29, Type (0, 1), BuildingBlock: KIFKEQ_clean_linker_1, # of connection points: 2
#     Edge 30, Type (0, 1), BuildingBlock: KIFKEQ_clean_linker_1, # of connection points: 2
#     Edge 31, Type (0, 1), BuildingBlock: KIFKEQ_clean_linker_1, # of connection points: 2
#     Edge 32, Type (0, 1), BuildingBlock: KIFKEQ_clean_linker_1, # of connection points: 2
#     Edge 33, Type (0, 1), BuildingBlock: KIFKEQ_clean_linker_1, # of connection points: 2
#     Edge 34, Type (0, 1), BuildingBlock: KIFKEQ_clean_linker_1, # of connection points: 2
#     Edge 35, Type (0, 1), BuildingBlock: KIFKEQ_clean_linker_1, # of connection points: 2
# Relax obj value: 0.434
# Max RMSD: 0.258
# Mean RMSD: 0.245
data_MOF--net-zzz--node1-BETFAJ_clean_sbu_0--node2-BELTOD_clean_linker_0--edge1-KIFKEQ_clean_linker_1
_symmetry_space_group_name_H-M    P1
_symmetry_Int_Tables_number       1
_symmetry_cell_setting            triclinic
loop_
_symmetry_equiv_pos_as_xyz
'x, y, z'
_cell_length_a     56.861517
_cell_length_b     56.813608
_cell_length_c     17.239912
_cell_angle_alpha  89.692508
_cell_angle_beta   89.986029
_cell_angle_gamma 89.981383
loop_
_atom_site_label
_atom_site_type_symbol
_atom_site_fract_x
_atom_site_fract_y
_atom_site_fract_z
_atom_type_partial_charge
P0 P 0.71431 0.4822 0.42849 0.0
H1 H 0.73347 0.46916 0.58197 0.0
H2 H 0.77245 0.47719 0.63529 0.0
H3 H 0.78108 0.53421 0.47218 0.0
H4 H 0.74175 0.52657 0.41989 0.0
H5 H 0.67568 0.45198 0.38425 0.0
H6 H 0.64349 0.4576 0.29522 0.0
H7 H 0.65496 0.53267 0.29924 0.0
H8 H 0.68721 0.52687 0.39298 0.0
H9 H 0.75755 0.45856 0.38864 0.0
H10 H 0.71084 0.50891 0.2795 0.0
O11 O 0.71353 0.45418 0.45826 0.0
H12 H 0.78529 0.46394 0.28149 0.0
H13 H 0.73822 0.51368 0.17321 0.0
C14 C 0.73429 0.49709 0.49584 0.0
C15 C 0.74306 0.48423 0.55988 0.0
C16 C 0.76565 0.48864 0.59009 0.0
C17 C 0.7802 0.50598 0.55681 0.0
C18 C 0.7705 0.52046 0.49839 0.0
C19 C 0.74771 0.51634 0.46929 0.0
C20 C 0.68432 0.48895 0.39604 0.0
C21 C 0.67086 0.46987 0.36937 0.0
C22 C 0.65252 0.47307 0.31631 0.0
C23 C 0.64703 0.49552 0.28665 0.0
C24 C 0.65872 0.51503 0.31978 0.0
C25 C 0.67707 0.51178 0.37448 0.0
C26 C 0.73163 0.48262 0.34154 0.0
C27 C 0.75282 0.47008 0.34085 0.0
C28 C 0.76868 0.47329 0.28037 0.0
C29 C 0.76342 0.489 0.21992 0.0
C30 C 0.74223 0.50131 0.2194 0.0
C31 C 0.72648 0.49829 0.28031 0.0
P32 P 0.02822 0.71586 0.42565 0.0
H33 H 0.0446 0.73525 0.57377 0.0
H34 H 0.03633 0.77346 0.62926 0.0
H35 H 0.97291 0.77813 0.49238 0.0
H36 H 0.98195 0.74 0.43419 0.0
H37 H 0.05828 0.67902 0.36703 0.0
H38 H 0.05129 0.64672 0.27972 0.0
H39 H 0.97645 0.65513 0.31044 0.0
H40 H 0.9837 0.6881 0.3999 0.0
H41 H 0.04854 0.76111 0.38923 0.0
H42 H 1.00096 0.71234 0.27835 0.0
O43 O 0.05671 0.71534 0.44917 0.0
H44 H 0.04421 0.78791 0.27849 0.0
H45 H 0.99711 0.73889 0.16847 0.0
C46 C 0.0141 0.73443 0.49851 0.0
C47 C 0.02834 0.74387 0.55758 0.0
C48 C 0.02363 0.76612 0.58936 0.0
C49 C 1.00429 0.7796 0.5639 0.0
C50 C 0.98845 0.76881 0.51186 0.0
C51 C 0.99326 0.74653 0.4798 0.0
C52 C 0.02157 0.68612 0.39185 0.0
C53 C 0.04027 0.67344 0.35857 0.0
C54 C 0.03625 0.65484 0.30741 0.0
C55 C 0.01329 0.64827 0.2868 0.0
C56 C 0.99441 0.65983 0.32421 0.0
C57 C 0.99851 0.67841 0.37683 0.0
C58 C 0.02592 0.73424 0.34118 0.0
C59 C 0.03755 0.75593 0.3409 0.0
C60 C 0.03492 0.77125 0.27839 0.0
C61 C 0.02056 0.76502 0.21577 0.0
C62 C 0.00833 0.74375 0.21661 0.0
C63 C 0.01087 0.72846 0.27935 0.0
P64 P 0.7989 0.02968 0.42627 0.0
H65 H 0.77944 0.04354 0.57772 0.0
H66 H 0.74053 0.03515 0.63101 0.0
H67 H 0.73364 0.97635 0.47604 0.0
H68 H 0.77302 0.98421 0.42442 0.0
H69 H 0.83354 0.06002 0.35801 0.0
H70 H 0.86517 0.05333 0.26882 0.0
H71 H 0.86127 0.97859 0.31538 0.0
H72 H 0.82816 0.98567 0.4045 0.0
H73 H 0.7567 0.05439 0.3808 0.0
H74 H 0.80045 0.99893 0.2884 0.0
O75 O 0.79939 0.05791 0.4528 0.0
H76 H 0.72761 0.04647 0.28 0.0
H77 H 0.77176 0.99167 0.18709 0.0
C78 C 0.77951 0.01474 0.49575 0.0
C79 C 0.77028 0.02802 0.55761 0.0
C80 C 0.74771 0.02342 0.5877 0.0
C81 C 0.73364 1.00547 0.55639 0.0
C82 C 0.74383 0.99059 0.50055 0.0
C83 C 0.76666 0.99487 0.47184 0.0
C84 C 0.82845 0.02346 0.39001 0.0
C85 C 0.83996 0.04217 0.35225 0.0
C86 C 0.8583 0.03825 0.30001 0.0
C87 C 0.86615 0.01534 0.28344 0.0
C88 C 0.85567 0.99653 0.32528 0.0
C89 C 0.83701 1.00054 0.37801 0.0
C90 C 0.78118 0.02792 0.34085 0.0
C91 C 0.7605 0.04118 0.33747 0.0
C92 C 0.74383 0.03645 0.28086 0.0
C93 C 0.74778 0.01848 0.22696 0.0
C94 C 0.76869 1.00568 0.2283 0.0
C95 C 0.78521 0.01017 0.28575 0.0
P96 P 0.483 0.79906 0.42995 0.0
H97 H 0.46816 0.78044 0.58223 0.0
H98 H 0.47613 0.74171 0.63862 0.0
H99 H 0.53587 0.73396 0.48749 0.0
H100 H 0.5281 0.77299 0.4313 0.0
H101 H 0.45561 0.84181 0.40508 0.0
H102 H 0.46118 0.87455 0.31768 0.0
H103 H 0.53372 0.85418 0.28527 0.0
H104 H 0.52819 0.82173 0.37808 0.0
H105 H 0.46809 0.75095 0.40693 0.0
H106 H 0.49785 0.80636 0.26415 0.0
O107 O 0.45487 0.80073 0.45726 0.0
H108 H 0.47116 0.72403 0.29728 0.0
H109 H 0.50128 0.77931 0.15693 0.0
C110 C 0.49743 0.78 0.50157 0.0
C111 C 0.48379 0.77117 0.56367 0.0
C112 C 0.48817 0.74874 0.59566 0.0
C113 C 0.50637 0.73459 0.56659 0.0
C114 C 0.5216 0.74441 0.51071 0.0
C115 C 0.5174 0.76701 0.47949 0.0
C116 C 0.49138 0.8288 0.39854 0.0
C117 C 0.47309 0.84473 0.38218 0.0
C118 C 0.47618 0.8634 0.3298 0.0
C119 C 0.49761 0.86668 0.29017 0.0
C120 C 0.51679 0.85233 0.31327 0.0
C121 C 0.51377 0.83378 0.36763 0.0
C122 C 0.48311 0.78071 0.34523 0.0
C123 C 0.47534 0.75739 0.35271 0.0
C124 C 0.47726 0.742 0.29066 0.0
C125 C 0.4868 0.74983 0.22025 0.0
C126 C 0.49429 0.77306 0.21178 0.0
C127 C 0.49231 0.78851 0.27378 0.0
P128 P 0.29946 0.48228 0.0157 0.0
H129 H 0.2791 0.46208 0.87449 0.0
H130 H 0.24084 0.46822 0.81764 0.0
H131 H 0.23528 0.53487 0.93603 0.0
H132 H 0.2734 0.52764 0.99714 0.0
H133 H 0.33846 0.45441 0.07273 0.0
H134 H 0.37091 0.46401 0.15789 0.0
H135 H 0.35855 0.53789 0.11883 0.0
H136 H 0.32596 0.52819 0.02956 0.0
H137 H 0.2579 0.45839 0.07232 0.0
H138 H 0.30138 0.51671 0.14445 0.0
O139 O 0.30048 0.45332 0.99977 0.0
H140 H 0.22812 0.47038 0.1666 0.0
H141 H 0.27219 0.52803 0.23838 0.0
C142 C 0.27952 0.49419 0.94148 0.0
C143 C 0.27019 0.47848 0.88665 0.0
C144 C 0.24783 0.48205 0.8538 0.0
C145 C 0.234 0.50179 0.87324 0.0
C146 C 0.24463 0.51893 0.92125 0.0
C147 C 0.26698 0.51514 0.95497 0.0
C148 C 0.32942 0.49051 0.04373 0.0
C149 C 0.34323 0.47276 0.07839 0.0
C150 C 0.36184 0.47822 0.12821 0.0
C151 C 0.36719 0.50164 0.14569 0.0
C152 C 0.35484 0.51961 0.10621 0.0
C153 C 0.33637 0.51407 0.05433 0.0
C154 C 0.28219 0.48627 0.10164 0.0
C155 C 0.26163 0.47299 0.11053 0.0
C156 C 0.24464 0.47986 0.16397 0.0
C157 C 0.2482 0.49997 0.20931 0.0
C158 C 0.26942 0.51222 0.2047 0.0
C159 C 0.28621 0.50558 0.15053 0.0
P160 P 0.03601 0.29773 0.01836 0.0
H161 H 0.05067 0.28204 0.86297 0.0
H162 H 0.04371 0.24474 0.79843 0.0
H163 H 0.98664 0.23031 0.95737 0.0
H164 H 0.9929 0.26829 0.01817 0.0
H165 H 0.06351 0.33768 0.06802 0.0
H166 H 0.05414 0.37043 0.15089 0.0
H167 H 0.98008 0.35656 0.12075 0.0
H168 H 0.98981 0.32318 0.03569 0.0
H169 H 0.0567 0.25316 0.06487 0.0
H170 H 0.00849 0.30367 0.16395 0.0
O171 O 0.0646 0.29877 0.99642 0.0
H172 H 0.04484 0.22455 0.16451 0.0
H173 H 0.99656 0.27523 0.26 0.0
C174 C 0.02256 0.27822 0.94665 0.0
C175 C 0.03593 0.2714 0.88189 0.0
C176 C 0.03227 0.24952 0.84596 0.0
C177 C 0.0152 0.23355 0.87403 0.0
C178 C 1.0001 0.24165 0.93339 0.0
C179 C 1.00355 0.26376 0.96836 0.0
C180 C 0.02745 0.32772 0.04448 0.0
C181 C 0.04515 0.34215 0.07554 0.0
C182 C 0.03973 0.36104 0.12412 0.0
C183 C 0.01632 0.36617 0.14412 0.0
C184 C 0.99836 0.35301 0.10765 0.0
C185 C 1.00387 0.33417 0.0574 0.0
C186 C 0.03356 0.28067 0.10604 0.0
C187 C 0.04434 0.25848 0.10929 0.0
C188 C 0.03752 0.24215 0.16568 0.0
C189 C 0.01981 0.24797 0.21879 0.0
C190 C 0.01026 0.27058 0.21911 0.0
C191 C 0.01717 0.28688 0.16343 0.0
P192 P 0.21614 0.03547 0.01443 0.0
H193 H 0.23308 0.05283 0.86329 0.0
H194 H 0.27099 0.04671 0.80114 0.0
H195 H 0.28257 0.98548 0.94551 0.0
H196 H 0.24423 0.99139 0.00602 0.0
H197 H 0.1775 0.06337 0.0725 0.0
H198 H 0.14525 0.05349 0.15879 0.0
H199 H 0.1569 0.97976 0.11699 0.0
H200 H 0.18938 0.98975 0.02727 0.0
H201 H 0.26023 0.05616 0.06367 0.0
H202 H 0.21109 1.00484 0.15384 0.0
O203 O 0.21548 0.06436 0.99605 0.0
H204 H 0.28824 0.04478 0.16462 0.0
H205 H 0.23831 0.99415 0.25404 0.0
C206 C 0.23553 0.02282 0.94069 0.0
C207 C 0.24319 0.03744 0.87959 0.0
C208 C 0.26535 0.0342 0.84492 0.0
C209 C 0.2806 0.01611 0.86997 0.0
C210 C 0.27167 0.99977 0.92456 0.0
C211 C 0.24939 1.00299 0.95898 0.0
C212 C 0.18612 0.02738 0.04221 0.0
C213 C 0.17256 0.04503 0.07783 0.0
C214 C 0.15412 0.03941 0.12835 0.0
C215 C 0.14868 0.01591 0.14536 0.0
C216 C 0.16071 0.99808 0.10475 0.0
C217 C 0.17906 1.0038 0.0524 0.0
C218 C 0.23333 0.03168 0.10096 0.0
C219 C 0.25507 0.04313 0.10649 0.0
C220 C 0.27105 0.03658 0.16402 0.0
C221 C 0.26541 0.01847 0.21668 0.0
C222 C 0.24319 0.00794 0.2135 0.0
C223 C 0.22739 0.01435 0.15591 0.0
P224 P 0.48318 0.21696 0.00982 0.0
H225 H 0.46827 0.23303 0.85461 0.0
H226 H 0.47473 0.27156 0.79498 0.0
H227 H 0.53388 0.28288 0.9465 0.0
H228 H 0.52772 0.24404 0.00501 0.0
H229 H 0.45382 0.18023 0.07175 0.0
H230 H 0.46156 0.14748 0.15614 0.0
H231 H 0.53604 0.15429 0.11097 0.0
H232 H 0.52787 0.18851 0.02675 0.0
H233 H 0.46432 0.26264 0.04924 0.0
H234 H 0.51082 0.21159 0.15509 0.0
O235 O 0.45456 0.21692 0.98819 0.0
H236 H 0.47531 0.2911 0.14822 0.0
H237 H 0.52103 0.23938 0.25449 0.0
C238 C 0.49718 0.23546 0.93592 0.0
C239 C 0.48344 0.24313 0.87262 0.0
C240 C 0.48697 0.26546 0.83882 0.0
C241 C 0.50435 0.28072 0.86762 0.0
C242 C 0.51997 0.27182 0.92406 0.0
C243 C 0.51671 0.24929 0.95669 0.0
C244 C 0.49013 0.18694 0.04107 0.0
C245 C 0.47184 0.17428 0.07672 0.0
C246 C 0.47637 0.15525 0.12612 0.0
C247 C 0.49951 0.14786 0.14185 0.0
C248 C 0.51794 0.15948 0.10166 0.0
C249 C 0.5133 0.17881 0.05169 0.0
C250 C 0.48637 0.2348 0.09483 0.0
C251 C 0.47617 0.25723 0.09521 0.0
C252 C 0.48254 0.27348 0.15164 0.0
C253 C 0.4991 0.26743 0.20893 0.0
C254 C 0.50847 0.24462 0.21041 0.0
C255 C 0.50231 0.22851 0.15357 0.0
Sm256 Sm 0.02532 1.00361 0.77248 0.0
Sm257 Sm 0.99032 0.01194 0.65715 0.0
C258 C 0.04835 0.98539 0.89022 0.0
C259 C 0.04616 0.96111 0.91911 0.0
C260 C 0.024 0.95213 0.94044 0.0
C261 C 0.02106 0.92818 0.95438 0.0
C262 C 0.04014 0.91272 0.94668 0.0
C263 C 0.06237 0.92173 0.92683 0.0
C264 C 0.06536 0.94576 0.91343 0.0
C265 C 0.04546 0.01215 0.62867 0.0
C266 C 1.00113 0.95749 0.68493 0.0
C267 C 0.9661 0.03021 0.54158 0.0
C268 C 0.96652 0.05469 0.51454 0.0
C269 C 0.98766 0.06749 0.51717 0.0
C270 C 0.98784 0.09139 0.49993 0.0
C271 C 0.96699 0.10279 0.47849 0.0
C272 C 0.94585 0.09009 0.47528 0.0
C273 C 0.94558 0.06615 0.49412 0.0
C274 C 0.97057 1.00318 0.80122 0.0
C275 C 0.01448 0.05783 0.74535 0.0
O276 O 0.0299 0.9988 0.89926 0.0
O277 O 0.05772 0.98745 0.82134 0.0
O278 O 0.02768 0.99925 0.64119 0.0
O279 O 0.05298 0.02124 0.69313 0.0
O280 O 0.01108 0.96563 0.74878 0.0
O281 O 0.99292 0.97235 0.63268 0.0
O282 O 0.98551 0.0183 0.53114 0.0
O283 O 0.95717 0.02718 0.61062 0.0
O284 O 0.98808 0.01633 0.78792 0.0
O285 O 0.96296 0.99397 0.73714 0.0
O286 O 1.00506 0.04978 0.6807 0.0
O287 O 0.02207 0.04304 0.79856 0.0
H288 H 0.00869 0.96342 0.94413 0.0
H289 H 1.00384 0.92178 0.97109 0.0
H290 H 0.07735 0.91014 0.92003 0.0
H291 H 0.08247 0.95223 0.89566 0.0
H292 H 1.00409 0.05908 0.53297 0.0
H293 H 1.00439 0.10086 0.50133 0.0
H294 H 0.92964 0.09871 0.45831 0.0
H295 H 0.92908 0.05663 0.49327 0.0
Sm296 Sm 0.51193 0.02676 0.77894 0.0
Sm297 Sm 0.50193 0.98712 0.64691 0.0
C298 C 0.52792 0.04599 0.90585 0.0
C299 C 0.5524 0.04487 0.93181 0.0
C300 C 0.56476 0.02355 0.9259 0.0
C301 C 0.58882 0.02284 0.93862 0.0
C302 C 0.60106 0.04347 0.95657 0.0
C303 C 0.58887 0.06489 0.9622 0.0
C304 C 0.56462 0.0656 0.9495 0.0
C305 C 0.5081 0.04784 0.63344 0.0
C306 C 0.55684 1.00166 0.68046 0.0
C307 C 0.48506 0.96801 0.52083 0.0
C308 C 0.46033 0.96884 0.4959 0.0
C309 C 0.44864 0.99058 0.48969 0.0
C310 C 0.42445 0.9914 0.47874 0.0
C311 C 0.4114 0.97053 0.47406 0.0
C312 C 0.42297 0.94876 0.47942 0.0
C313 C 0.4473 0.94792 0.49053 0.0
C314 C 0.50608 0.96607 0.79287 0.0
C315 C 0.45696 0.0128 0.74301 0.0
O316 O 0.51624 0.02607 0.90683 0.0
O317 O 0.5249 0.05807 0.84192 0.0
O318 O 0.50599 0.02624 0.65056 0.0
O319 O 0.51142 0.05939 0.69723 0.0
O320 O 0.54937 0.01396 0.74133 0.0
O321 O 0.54217 0.99063 0.63295 0.0
O322 O 0.49659 0.98797 0.51946 0.0
O323 O 0.48879 0.95579 0.5841 0.0
O324 O 0.50806 0.98766 0.77551 0.0
O325 O 0.50277 0.95451 0.72907 0.0
O326 O 0.46456 0.99968 0.6844 0.0
O327 O 0.47149 0.02432 0.78968 0.0
H328 H 0.55601 0.00743 0.90949 0.0
H329 H 0.5978 1.00605 0.93539 0.0
H330 H 0.5981 0.08099 0.97624 0.0
H331 H 0.55551 0.08233 0.9517 0.0
H332 H 0.45799 1.00705 0.49531 0.0
H333 H 0.41597 0.00841 0.47321 0.0
H334 H 0.41317 0.93245 0.47599 0.0
H335 H 0.45584 0.93098 0.49716 0.0
Sm336 Sm 0.48776 0.51163 0.78231 0.0
Sm337 Sm 0.52655 0.50313 0.64523 0.0
C338 C 0.46892 0.52722 0.91056 0.0
C339 C 0.46989 0.55162 0.93824 0.0
C340 C 0.49168 0.56271 0.95048 0.0
C341 C 0.49283 0.58691 0.96165 0.0
C342 C 0.47228 0.60056 0.96 0.0
C343 C 0.45046 0.58946 0.94883 0.0
C344 C 0.44928 0.56518 0.93858 0.0
C345 C 0.466 0.50636 0.63845 0.0
C346 C 0.51108 0.55751 0.68311 0.0
C347 C 0.54454 0.48684 0.51649 0.0
C348 C 0.5444 0.46201 0.49203 0.0
C349 C 0.52298 0.45064 0.47621 0.0
C350 C 0.52225 0.42637 0.4667 0.0
C351 C 0.54287 0.41292 0.47257 0.0
C352 C 0.56439 0.4242 0.48642 0.0
C353 C 0.56514 0.44858 0.49626 0.0
C354 C 0.54875 0.507 0.78899 0.0
C355 C 0.50271 0.45727 0.74395 0.0
O356 O 0.48876 0.51543 0.91034 0.0
O357 O 0.45671 0.52445 0.84698 0.0
O358 O 0.48767 0.50614 0.65433 0.0
O359 O 0.45457 0.50824 0.70334 0.0
O360 O 0.49958 0.54947 0.74515 0.0
O361 O 0.52176 0.54333 0.63312 0.0
O362 O 0.52412 0.49754 0.51827 0.0
O363 O 0.55748 0.49128 0.57743 0.0
O364 O 0.52695 0.50846 0.77444 0.0
O365 O 0.55975 0.50451 0.72354 0.0
O366 O 0.51471 0.46531 0.68293 0.0
O367 O 0.49196 0.47146 0.79358 0.0
H368 H 0.50797 0.5529 0.94911 0.0
H369 H 0.50985 0.5949 0.97163 0.0
H370 H 0.43434 0.59959 0.9465 0.0
H371 H 0.43235 0.55713 0.92752 0.0
H372 H 0.5066 0.46034 0.47327 0.0
H373 H 0.5055 0.41811 0.45423 0.0
H374 H 0.58052 0.41412 0.4909 0.0
H375 H 0.58181 0.45685 0.50963 0.0
Sm376 Sm 1.00286 0.48831 0.77573 0.0
Sm377 Sm 0.01124 0.52671 0.66073 0.0
C378 C 0.9863 0.46855 0.9023 0.0
C379 C 0.9617 0.46903 0.92777 0.0
C380 C 0.949 0.49027 0.9243 0.0
C381 C 0.92508 0.49053 0.94015 0.0
C382 C 0.91348 0.46964 0.95944 0.0
C383 C 0.92591 0.44836 0.96294 0.0
C384 C 0.94997 0.44803 0.94646 0.0
C385 C 0.00666 0.46574 0.6339 0.0
C386 C 0.95728 0.51109 0.67951 0.0
C387 C 0.03023 0.55426 0.55493 0.0
C388 C 0.05402 0.55202 0.52335 0.0
C389 C 0.06422 0.52957 0.51848 0.0
C390 C 0.08736 0.52706 0.49451 0.0
C391 C 0.10072 0.5469 0.47451 0.0
C392 C 0.09092 0.56946 0.48186 0.0
C393 C 0.06759 0.572 0.50636 0.0
C394 C 1.00052 0.54267 0.80767 0.0
C395 C 0.05739 0.50008 0.74614 0.0
O396 O 0.99726 0.48878 0.90294 0.0
O397 O 0.9902 0.45658 0.83919 0.0
O398 O 0.00832 0.48779 0.6437 0.0
O399 O 1.00479 0.45509 0.70019 0.0
O400 O 0.96499 0.50127 0.74449 0.0
O401 O 0.97229 0.52048 0.62978 0.0
O402 O 0.01565 0.53726 0.53739 0.0
O403 O 0.02955 0.55983 0.62818 0.0
O404 O 0.01448 0.52612 0.79097 0.0
O405 O 0.99084 0.55094 0.74495 0.0
O406 O 0.04934 0.51304 0.68771 0.0
O407 O 0.04285 0.48898 0.79342 0.0
H408 H 0.95743 0.5067 0.90839 0.0
H409 H 0.91565 0.50713 0.93857 0.0
H410 H 0.91704 0.43217 0.97887 0.0
H411 H 0.95937 0.43144 0.94766 0.0
H412 H 0.05432 0.51389 0.53328 0.0
H413 H 0.09473 0.50952 0.49 0.0
H414 H 0.10101 0.58495 0.46628 0.0
H415 H 0.06014 0.58947 0.51186 0.0
H416 H 0.10035 0.0154 0.14979 0.0
H417 H 0.16153 1.00642 0.2939 0.0
H418 H 0.07502 0.01325 0.265 0.0
H419 H 0.13652 1.00405 0.40911 0.0
H420 H 0.0892 0.03075 0.60441 0.0
H421 H 0.11339 0.02929 0.48787 0.0
H422 H 0.05894 0.99018 0.37082 0.0
H423 H 0.03455 0.99196 0.48805 0.0
C424 C 0.10831 0.01242 0.20606 0.0
C425 C 0.13289 0.01072 0.21269 0.0
C426 C 0.09382 0.01121 0.27234 0.0
C427 C 0.10356 0.00868 0.34728 0.0
C428 C 0.12822 1.00638 0.35307 0.0
C429 C 0.14262 0.00739 0.28685 0.0
C430 C 0.08231 0.02188 0.55382 0.0
C431 C 0.05984 0.01154 0.55588 0.0
C432 C 0.09633 0.02083 0.4868 0.0
C433 C 0.08836 0.00948 0.41916 0.0
C434 C 0.06574 0.99926 0.4211 0.0
C435 C 0.05173 1.0002 0.48856 0.0
H436 H 0.53716 0.14392 0.24356 0.0
H437 H 0.47174 0.10983 0.18438 0.0
H438 H 0.54163 0.11731 0.35349 0.0
H439 H 0.47513 0.08478 0.29786 0.0
H440 H 0.49096 0.03241 0.49123 0.0
H441 H 0.49147 0.05368 0.36715 0.0
H442 H 0.52777 0.11141 0.47729 0.0
H443 H 0.52775 0.08985 0.59876 0.0
C444 C 0.52375 0.13071 0.25319 0.0
C445 C 0.50388 0.12957 0.20447 0.0
C446 C 0.5261 0.11558 0.31773 0.0
C447 C 0.50853 0.09892 0.33671 0.0
C448 C 0.4892 0.09711 0.28603 0.0
C449 C 0.48704 0.11195 0.22094 0.0
C450 C 0.49932 0.04943 0.48827 0.0
C451 C 0.50922 0.05933 0.55519 0.0
C452 C 0.49945 0.06189 0.41714 0.0
C453 C 0.50964 0.08457 0.4109 0.0
C454 C 0.52004 0.09401 0.47804 0.0
C455 C 0.51979 0.08165 0.5486 0.0
H456 H 0.41561 0.50146 0.1504 0.0
H457 H 0.35443 0.5112 0.2937 0.0
H458 H 0.44084 0.50268 0.26584 0.0
H459 H 0.37924 0.51305 0.40874 0.0
H460 H 0.42274 0.48899 0.61036 0.0
H461 H 0.40032 0.48924 0.49084 0.0
H462 H 0.45877 0.52201 0.3718 0.0
H463 H 0.48171 0.52064 0.4927 0.0
C464 C 0.40764 0.5044 0.20659 0.0
C465 C 0.38307 0.50652 0.21289 0.0
C466 C 0.42209 0.50509 0.2731 0.0
C467 C 0.41231 0.50756 0.34799 0.0
C468 C 0.38767 0.51052 0.35313 0.0
C469 C 0.37333 0.50989 0.28683 0.0
C470 C 0.43098 0.49598 0.55846 0.0
C471 C 0.45414 0.50456 0.56125 0.0
C472 C 0.41792 0.49648 0.48956 0.0
C473 C 0.42728 0.50612 0.42063 0.0
C474 C 0.4508 0.51428 0.42292 0.0
C475 C 0.46409 0.51343 0.49229 0.0
H476 H 0.03805 0.40868 0.17302 0.0
H477 H 0.98385 0.36287 0.26261 0.0
H478 H 0.03451 0.43349 0.2873 0.0
H479 H 0.97961 0.38822 0.3756 0.0
H480 H 1.00014 0.41893 0.61139 0.0
H481 H 1.00022 0.39689 0.49109 0.0
H482 H 0.01251 0.46119 0.36257 0.0
H483 H 0.01283 0.48333 0.48468 0.0
C484 C 0.02511 0.40402 0.21656 0.0
C485 C 0.01137 0.38351 0.20812 0.0
C486 C 0.02293 0.41847 0.28219 0.0
C487 C 0.00693 0.41294 0.34199 0.0
C488 C 0.99246 0.39298 0.33193 0.0
C489 C 0.99463 0.37854 0.26617 0.0
C490 C 1.00289 0.42846 0.55757 0.0
C491 C 0.00665 0.45295 0.55813 0.0
C492 C 1.00269 0.41577 0.488 0.0
C493 C 1.00626 0.42707 0.41604 0.0
C494 C 0.00991 0.4517 0.41649 0.0
C495 C 0.01003 0.46448 0.48655 0.0
H496 H 0.87002 0.97781 0.18189 0.0
H497 H 0.90272 0.04431 0.23639 0.0
H498 H 0.89629 0.9735 0.07169 0.0
H499 H 0.92728 0.04113 0.12252 0.0
H500 H 0.98174 0.02431 0.93936 0.0
H501 H 0.9586 0.02554 0.05837 0.0
H502 H 0.90393 0.98501 0.94691 0.0
H503 H 0.92776 0.98288 0.82995 0.0
C504 C 0.88282 0.99153 0.17103 0.0
C505 C 0.88381 0.01152 0.21898 0.0
C506 C 0.89773 0.98928 0.10622 0.0
C507 C 0.91402 0.00708 0.0861 0.0
C508 C 0.91536 0.02679 0.13527 0.0
C509 C 0.90078 0.02883 0.20069 0.0
C510 C 0.96486 0.01548 0.94071 0.0
C511 C 0.9567 1.00344 0.87495 0.0
C512 C 0.95135 0.01635 0.00905 0.0
C513 C 0.92905 1.00542 0.01371 0.0
C514 C 0.92105 0.9933 0.94745 0.0
C515 C 0.93469 0.99222 0.87954 0.0
H516 H 0.53591 0.89247 0.23378 0.0
H517 H 0.46244 0.87921 0.18733 0.0
H518 H 0.53774 0.91786 0.11883 0.0
H519 H 0.46392 0.90559 0.07742 0.0
H520 H 0.47916 0.92882 0.83065 0.0
H521 H 0.47741 0.9066 0.95076 0.0
H522 H 0.52714 0.9545 0.05464 0.0
H523 H 0.52889 0.97684 0.93184 0.0
C524 C 0.52007 0.895 0.19999 0.0
C525 C 0.499 0.88356 0.22166 0.0
C526 C 0.52106 0.90993 0.13417 0.0
C527 C 0.50102 0.91395 0.08757 0.0
C528 C 0.47993 0.90285 0.11022 0.0
C529 C 0.47899 0.88786 0.17513 0.0
C530 C 0.48964 0.93481 0.87919 0.0
C531 C 0.50414 0.95472 0.87127 0.0
C532 C 0.48852 0.92206 0.94889 0.0
C533 C 0.50206 0.92855 0.01381 0.0
C534 C 0.51651 0.94872 0.00627 0.0
C535 C 0.51737 0.96176 0.93607 0.0
H536 H 0.64369 0.46589 0.16206 0.0
H537 H 0.61403 0.53031 0.25074 0.0
H538 H 0.61833 0.46831 0.04989 0.0
H539 H 0.58906 0.53339 0.13475 0.0
H540 H 0.53333 0.51989 0.93732 0.0
H541 H 0.55571 0.5177 0.05958 0.0
H542 H 0.61504 0.4895 0.93425 0.0
H543 H 0.59283 0.49143 0.81484 0.0
C544 C 0.63161 0.48058 0.15827 0.0
C545 C 0.63096 0.49776 0.21701 0.0
C546 C 0.61717 0.48218 0.09256 0.0
C547 C 0.60157 0.50119 0.0818 0.0
C548 C 0.60065 0.51837 0.14068 0.0
C549 C 0.61521 0.51675 0.20706 0.0
C550 C 0.55106 0.51313 0.93636 0.0
C551 C 0.56112 0.50584 0.86587 0.0
C552 C 0.56404 0.51201 0.00643 0.0
C553 C 0.58733 0.50321 0.00786 0.0
C554 C 0.59715 0.49596 0.9369 0.0
C555 C 0.58435 0.49728 0.86763 0.0
H556 H 0.98155 0.65057 0.16669 0.0
H557 H 0.03714 0.60695 0.25787 0.0
H558 H 0.97847 0.62544 0.05451 0.0
H559 H 0.03331 0.58068 0.14865 0.0
H560 H 0.03582 0.54396 0.91609 0.0
H561 H 0.0387 0.56866 0.0299 0.0
H562 H 0.96866 0.59546 0.98361 0.0
H563 H 0.96723 0.57227 0.86618 0.0
C564 C 0.99276 0.63519 0.16376 0.0
C565 C 0.00954 0.63092 0.22207 0.0
C566 C 0.991 0.62044 0.09868 0.0
C567 C 1.00559 0.60041 0.08988 0.0
C568 C 0.02196 0.59591 0.15 0.0
C569 C 0.02405 0.61099 0.21413 0.0
C570 C 0.02106 0.55516 0.93066 0.0
C571 C 1.00129 0.55611 0.88188 0.0
C572 C 0.02255 0.56942 0.99704 0.0
C573 C 1.00395 0.58467 0.01859 0.0
C574 C 0.98386 0.58485 0.97004 0.0
C575 C 0.98276 0.57116 0.90241 0.0
H576 H 0.03922 0.22468 0.34052 0.0
H577 H 0.97618 0.23059 0.20281 0.0
H578 H 0.02162 0.19227 0.4141 0.0
H579 H 0.95813 0.19862 0.27696 0.0
H580 H 0.95461 0.11915 0.33766 0.0
H581 H 0.96439 0.15731 0.2821 0.0
H582 H 0.9919 0.17967 0.50384 0.0
H583 H 0.98304 0.14077 0.55811 0.0
C584 C 0.02148 0.21909 0.32704 0.0
C585 C 0.00896 0.2297 0.26657 0.0
C586 C 0.01126 0.20083 0.36943 0.0
C587 C 0.98847 0.19291 0.35124 0.0
C588 C 0.97577 0.20421 0.29189 0.0
C589 C 0.98598 0.22248 0.2498 0.0
C590 C 0.96212 0.13251 0.37482 0.0
C591 C 0.96812 0.12727 0.45169 0.0
C592 C 0.96769 0.15438 0.34326 0.0
C593 C 0.97907 0.17145 0.38855 0.0
C594 C 0.98352 0.16669 0.46728 0.0
C595 C 0.9783 0.14462 0.49848 0.0
H596 H 0.29598 0.0435 0.30544 0.0
H597 H 0.27516 0.97252 0.24825 0.0
H598 H 0.32797 0.02804 0.3844 0.0
H599 H 0.30637 0.957 0.33045 0.0
H600 H 0.38751 0.94698 0.36298 0.0
H601 H 0.34836 0.95604 0.31498 0.0
H602 H 0.33899 1.00633 0.49992 0.0
H603 H 0.37858 0.99754 0.54685 0.0
C604 C 0.29805 0.0246 0.31089 0.0
C605 C 0.28322 0.00922 0.27074 0.0
C606 C 0.3161 0.01572 0.35701 0.0
C607 C 0.31957 0.99128 0.3639 0.0
C608 C 0.30415 0.9759 0.32595 0.0
C609 C 0.28618 0.98479 0.27949 0.0
C610 C 0.37678 0.9594 0.39472 0.0
C611 C 0.38606 0.97186 0.45758 0.0
C612 C 0.35433 0.96459 0.36741 0.0
C613 C 0.3408 0.9822 0.40303 0.0
C614 C 0.34929 0.99307 0.47041 0.0
C615 C 0.37183 0.988 0.49734 0.0
H616 H 0.54421 0.27497 0.25726 0.0
H617 H 0.47296 0.30014 0.28489 0.0
H618 H 0.55826 0.30587 0.34311 0.0
H619 H 0.48709 0.33171 0.36685 0.0
H620 H 0.51239 0.38135 0.5365 0.0
H621 H 0.50444 0.34165 0.49004 0.0
H622 H 0.56226 0.34797 0.32823 0.0
H623 H 0.57051 0.38728 0.37633 0.0
C624 C 0.53151 0.28688 0.28262 0.0
C625 C 0.50746 0.28519 0.26452 0.0
C626 C 0.5396 0.30467 0.33119 0.0
C627 C 0.52379 0.32112 0.36205 0.0
C628 C 0.49968 0.31901 0.34538 0.0
C629 C 0.4916 0.30117 0.29734 0.0
C630 C 0.52374 0.37391 0.49251 0.0
C631 C 0.54174 0.3874 0.4587 0.0
C632 C 0.51917 0.35129 0.46577 0.0
C633 C 0.53235 0.34198 0.40421 0.0
C634 C 0.55181 0.35463 0.37585 0.0
C635 C 0.55653 0.37717 0.40319 0.0
H636 H 0.24431 0.50903 0.3641 0.0
H637 H 0.20846 0.51572 0.1445 0.0
H638 H 0.20946 0.52468 0.43082 0.0
H639 H 0.17433 0.53225 0.20954 0.0
H640 H 0.10927 0.51948 0.35207 0.0
H641 H 0.14657 0.51139 0.29051 0.0
H642 H 0.18141 0.55871 0.44908 0.0
H643 H 0.14341 0.56634 0.51312 0.0
C644 C 0.229 0.51411 0.33053 0.0
C645 C 0.22839 0.51052 0.25019 0.0
C646 C 0.20931 0.52329 0.36819 0.0
C647 C 0.18912 0.52922 0.32528 0.0
C648 C 0.18944 0.52721 0.24413 0.0
C649 C 0.20882 0.5177 0.20701 0.0
C650 C 0.12488 0.52814 0.37391 0.0
C651 C 0.12364 0.54343 0.43716 0.0
C652 C 0.1462 0.52374 0.33817 0.0
C653 C 0.16679 0.53472 0.36436 0.0
C654 C 0.16569 0.55011 0.42786 0.0
C655 C 0.1441 0.55458 0.46393 0.0
H656 H 0.05419 0.7701 0.10853 0.0
H657 H 0.98539 0.79482 0.1749 0.0
H658 H 0.05781 0.80258 0.01593 0.0
H659 H 0.98903 0.82773 0.08313 0.0
H660 H 1.00355 0.88435 0.90283 0.0
H661 H 0.9965 0.84362 0.94416 0.0
H662 H 0.06264 0.84379 0.06748 0.0
H663 H 0.06944 0.8842 0.02811 0.0
C664 C 0.03957 0.78213 0.10092 0.0
C665 C 0.01966 0.78044 0.14822 0.0
C666 C 0.0416 0.8006 0.04834 0.0
C667 C 0.02383 0.81768 0.04345 0.0
C668 C 1.00287 0.81463 0.08557 0.0
C669 C 1.00081 0.796 0.13811 0.0
C670 C 0.01662 0.87553 0.93824 0.0
C671 C 0.037 0.88742 0.96273 0.0
C672 C 0.01264 0.85229 0.96126 0.0
C673 C 0.02912 0.84065 0.00816 0.0
C674 C 0.04992 0.85222 0.02967 0.0
C675 C 0.0538 0.87539 0.00728 0.0
H676 H 0.74934 0.02622 0.07222 0.0
H677 H 0.70528 1.0001 0.25745 0.0
H678 H 0.71457 0.03096 0.98918 0.0
H679 H 0.67071 1.00447 0.17474 0.0
H680 H 0.62115 0.0603 0.08641 0.0
H681 H 0.6592 0.04886 0.13909 0.0
H682 H 0.67471 0.01017 0.93025 0.0
H683 H 0.63628 0.02162 0.87734 0.0
C684 C 0.73233 0.02051 0.09346 0.0
C685 C 0.72951 0.01327 0.17068 0.0
C686 C 0.71258 0.02324 0.0464 0.0
C687 C 0.69022 0.01869 0.07711 0.0
C688 C 0.68791 0.00849 0.15098 0.0
C689 C 0.70754 1.00587 0.19787 0.0
C690 C 0.63297 0.05001 0.05077 0.0
C691 C 0.62591 0.04168 0.9782 0.0
C692 C 0.6545 0.04319 0.08119 0.0
C693 C 0.66926 0.02812 0.03915 0.0
C694 C 0.66327 0.02152 0.96368 0.0
C695 C 0.64151 0.02815 0.93349 0.0
H696 H 0.45052 0.74143 0.12587 0.0
H697 H 0.52278 0.72258 0.16986 0.0
H698 H 0.44692 0.70877 0.03507 0.0
H699 H 0.51925 0.68951 0.07981 0.0
H700 H 0.50504 0.63208 0.90564 0.0
H701 H 0.50953 0.67323 0.94452 0.0
H702 H 0.44689 0.66733 0.08519 0.0
H703 H 0.44263 0.62656 0.04815 0.0
C704 C 0.4658 0.73065 0.11373 0.0
C705 C 0.48681 0.73405 0.15412 0.0
C706 C 0.46379 0.71207 0.06216 0.0
C707 C 0.48273 0.6966 0.05136 0.0
C708 C 0.50447 0.70136 0.08677 0.0
C709 C 0.50648 0.72005 0.1384 0.0
C710 C 0.49212 0.63973 0.94419 0.0
C711 C 0.47352 0.62611 0.97422 0.0
C712 C 0.49465 0.66322 0.9659 0.0
C713 C 0.47846 0.67337 0.01716 0.0
C714 C 0.45931 0.66006 0.04406 0.0
C715 C 0.45688 0.63667 0.02292 0.0
H716 H 0.76663 0.46641 0.08338 0.0
H717 H 0.79954 0.51943 0.22477 0.0
H718 H 0.80231 0.46364 1.00427 0.0
H719 H 0.83508 0.51707 0.14532 0.0
H720 H 0.89921 0.47004 0.10672 0.0
H721 H 0.86009 0.47989 0.15434 0.0
H722 H 0.83438 0.48378 0.9186 0.0
H723 H 0.87403 0.47392 0.87101 0.0
C724 C 0.78121 0.47816 0.09494 0.0
C725 C 0.78085 0.49293 0.15959 0.0
C726 C 0.80149 0.47662 0.04998 0.0
C727 C 0.82142 0.48977 0.07024 0.0
C728 C 0.81995 0.50651 0.12973 0.0
C729 C 0.79972 0.50798 0.17465 0.0
C730 C 0.88504 0.47257 0.06547 0.0
C731 C 0.8892 0.4711 0.98581 0.0
C732 C 0.86287 0.4786 0.09232 0.0
C733 C 0.84455 0.48318 0.03974 0.0
C734 C 0.84842 0.48061 0.95984 0.0
C735 C 0.87083 0.47483 0.93284 0.0
H736 H 0.97713 0.20272 0.86707 0.0
H737 H 0.05166 0.2058 0.81818 0.0
H738 H 0.97705 0.16106 0.83416 0.0
H739 H 0.05111 0.16448 0.78218 0.0
H740 H 0.03557 0.09285 0.65952 0.0
H741 H 0.03556 0.13542 0.68513 0.0
H742 H 0.99308 0.12358 0.88919 0.0
H743 H 0.99383 0.08114 0.86461 0.0
C744 C 0.99355 0.19475 0.84943 0.0
C745 C 0.01442 0.2082 0.84625 0.0
C746 C 0.99344 0.17069 0.83014 0.0
C747 C 0.0141 0.15918 0.80577 0.0
C748 C 0.03478 0.17267 0.79993 0.0
C749 C 0.035 0.19664 0.82035 0.0
C750 C 0.02634 0.09942 0.70995 0.0
C751 C 0.01486 0.08366 0.76041 0.0
C752 C 0.02635 0.12381 0.72482 0.0
C753 C 0.01424 0.13313 0.78924 0.0
C754 C 1.00246 0.11722 0.8388 0.0
C755 C 1.00303 0.09284 0.82513 0.0
H756 H 0.31022 0.05357 0.83943 0.0
H757 H 0.30958 0.97757 0.84387 0.0
H758 H 0.35172 0.05313 0.80503 0.0
H759 H 0.35144 0.97721 0.81221 0.0
H760 H 0.42233 0.9839 0.68596 0.0
H761 H 0.38018 0.9848 0.71203 0.0
H762 H 0.38993 0.04511 0.85986 0.0
H763 H 0.43217 0.04424 0.83347 0.0
C764 C 0.31875 0.03668 0.83241 0.0
C765 C 0.3061 0.01558 0.8445 0.0
C766 C 0.34285 0.03646 0.81368 0.0
C767 C 0.35529 0.01515 0.80613 0.0
C768 C 0.34261 0.99403 0.81681 0.0
C769 C 0.31849 0.99424 0.83585 0.0
C770 C 0.41555 0.99746 0.72383 0.0
C771 C 0.4309 0.01398 0.75759 0.0
C772 C 0.39125 0.99786 0.73934 0.0
C773 C 0.38134 0.01496 0.78848 0.0
C774 C 0.39668 0.03174 0.82124 0.0
C775 C 0.42105 0.03116 0.80646 0.0
H776 H 0.50191 0.30132 0.72183 0.0
H777 H 0.50603 0.31849 0.96471 0.0
H778 H 0.50042 0.34339 0.6892 0.0
H779 H 0.50478 0.36029 0.93274 0.0
H780 H 0.48034 0.43325 0.86195 0.0
H781 H 0.47995 0.39107 0.88786 0.0
H782 H 0.52285 0.37941 0.68499 0.0
H783 H 0.52276 0.42163 0.65788 0.0
C784 C 0.50261 0.31407 0.76826 0.0
C785 C 0.50442 0.30642 0.84591 0.0
C786 C 0.50187 0.33826 0.7496 0.0
C787 C 0.50245 0.35555 0.80816 0.0
C788 C 0.50405 0.34775 0.88576 0.0
C789 C 0.5051 0.32366 0.90421 0.0
C790 C 0.48964 0.42176 0.82247 0.0
C791 C 0.50171 0.43114 0.75796 0.0
C792 C 0.48955 0.39742 0.83771 0.0
C793 C 0.50156 0.38153 0.78913 0.0
C794 C 0.5132 0.39087 0.72359 0.0
C795 C 0.51328 0.41525 0.70827 0.0
H796 H 0.19679 0.52409 0.94751 0.0
H797 H 0.21172 0.48281 0.74336 0.0
H798 H 0.15536 0.52425 0.91395 0.0
H799 H 0.17 0.48159 0.7134 0.0
H800 H 0.09399 0.50083 0.64167 0.0
H801 H 0.13625 0.50234 0.66846 0.0
H802 H 0.12169 0.4998 0.91433 0.0
H803 H 0.07959 0.49843 0.88687 0.0
C804 C 0.19152 0.51513 0.89511 0.0
C805 C 0.20829 0.50335 0.84889 0.0
C806 C 0.16739 0.51486 0.87653 0.0
C807 C 0.15888 0.50263 0.81132 0.0
C808 C 0.1756 0.49133 0.76393 0.0
C809 C 0.19977 0.49177 0.78208 0.0
C810 C 0.09987 0.50059 0.70136 0.0
C811 C 0.08332 0.49946 0.76196 0.0
C812 C 0.1242 0.50131 0.71697 0.0
C813 C 0.13278 0.50136 0.79389 0.0
C814 C 0.11606 0.50013 0.85436 0.0
C815 C 0.09179 0.49903 0.83863 0.0
H816 H 0.01572 0.80177 0.70223 0.0
H817 H 0.98836 0.81645 0.47404 0.0
H818 H 0.01425 0.84296 0.73305 0.0
H819 H 0.9869 0.85748 0.50261 0.0
H820 H 0.98326 0.93435 0.55846 0.0
H821 H 0.98259 0.89302 0.53215 0.0
H822 H 0.01716 0.87965 0.75266 0.0
H823 H 0.01683 0.92121 0.77833 0.0
C824 C 0.00934 0.81384 0.65822 0.0
C825 C 1.00198 0.80531 0.58559 0.0
C826 C 0.00847 0.83804 0.67584 0.0
C827 C 1.00042 0.85503 0.62126 0.0
C828 C 0.99301 0.84612 0.54854 0.0
C829 C 0.9937 0.82195 0.53142 0.0
C830 C 0.99054 0.92249 0.60163 0.0
C831 C 1.00002 0.93141 0.6707 0.0
C832 C 0.9904 0.89819 0.58633 0.0
C833 C 0.99999 0.88151 0.63917 0.0
C834 C 0.00934 0.8908 0.70899 0.0
C835 C 0.00927 0.91514 0.72437 0.0
H836 H 0.6963 1.00662 0.45685 0.0
H837 H 0.71262 1.00139 0.70018 0.0
H838 H 0.65444 1.00589 0.48645 0.0
H839 H 0.67073 0.99899 0.73065 0.0
H840 H 0.59351 0.01586 0.77354 0.0
H841 H 0.63531 0.01686 0.74397 0.0
H842 H 0.62143 0.98592 0.5204 0.0
H843 H 0.57952 0.98609 0.54874 0.0
C844 C 0.69088 1.0048 0.51684 0.0
C845 C 0.70791 1.00379 0.57597 0.0
C846 C 0.6667 1.00423 0.53414 0.0
C847 C 0.65855 1.00213 0.61132 0.0
C848 C 0.67579 1.00101 0.67049 0.0
C849 C 0.70001 1.00214 0.65314 0.0
C850 C 0.59933 0.00922 0.71806 0.0
C851 C 0.58285 1.00084 0.66387 0.0
C852 C 0.62356 0.00955 0.70125 0.0
C853 C 0.63239 1.00138 0.62973 0.0
C854 C 0.61579 0.99275 0.57581 0.0
C855 C 0.59152 0.99255 0.59249 0.0
H856 H 0.49561 0.69783 0.47309 0.0
H857 H 0.51879 0.71324 0.70499 0.0
H858 H 0.49628 0.65577 0.5026 0.0
H859 H 0.52069 0.67096 0.73442 0.0
H860 H 0.50158 0.59352 0.78514 0.0
H861 H 0.50024 0.63578 0.75917 0.0
H862 H 0.52028 0.62314 0.5213 0.0
H863 H 0.521 0.58097 0.54701 0.0
C864 C 0.50123 0.69211 0.53023 0.0
C865 C 0.50747 0.70886 0.58627 0.0
C866 C 0.50176 0.6679 0.54728 0.0
C867 C 0.50889 0.6595 0.62083 0.0
C868 C 0.51491 0.67644 0.6773 0.0
C869 C 0.51402 0.70076 0.66041 0.0
C870 C 0.5057 0.59974 0.72723 0.0
C871 C 0.5114 0.58361 0.66827 0.0
C872 C 0.50512 0.62415 0.71236 0.0
C873 C 0.51007 0.63332 0.63784 0.0
C874 C 0.51596 0.61708 0.57919 0.0
C875 C 0.51666 0.59271 0.59417 0.0
H876 H 0.81767 0.5028 0.45854 0.0
H877 H 0.80118 0.51132 0.70047 0.0
H878 H 0.85946 0.50349 0.48828 0.0
H879 H 0.8431 0.51374 0.73087 0.0
H880 H 0.92081 0.49859 0.77629 0.0
H881 H 0.87895 0.49724 0.74881 0.0
H882 H 0.89238 0.52367 0.51737 0.0
H883 H 0.93434 0.52406 0.54468 0.0
C884 C 0.82304 0.50534 0.5182 0.0
C885 C 0.80596 0.50734 0.57682 0.0
C886 C 0.84722 0.50591 0.53558 0.0
C887 C 0.85537 0.50907 0.61229 0.0
C888 C 0.83807 0.51099 0.6711 0.0
C889 C 0.81382 0.50984 0.65374 0.0
C890 C 0.91487 0.5041 0.71946 0.0
C891 C 0.93125 0.51139 0.66291 0.0
C892 C 0.89057 0.5035 0.70357 0.0
C893 C 0.88158 0.5102 0.63029 0.0
C894 C 0.89811 0.51782 0.57409 0.0
C895 C 0.92242 0.51834 0.59003 0.0
loop_
_geom_bond_atom_site_label_1
_geom_bond_atom_site_label_2
_geom_bond_distance
_geom_bond_site_symmetry_2
_ccdc_geom_bond_type
P0 O11 1.490 . S
P0 C14 1.812 . S
P0 C20 1.803 . S
P0 C26 1.819 . S
H1 C15 0.941 . S
H2 C16 0.939 . S
H3 C18 0.940 . S
H4 C19 0.940 . S
H5 C21 0.939 . S
H6 C22 0.942 . S
H7 C24 0.940 . S
H8 C25 0.939 . S
H9 C27 0.941 . S
H10 C31 0.939 . S
O11 P0 1.490 . S
H12 C28 0.939 . S
H13 C30 0.940 . S
C14 P0 1.812 . S
C14 C15 1.389 . S
C14 C19 1.391 . S
C15 H1 0.941 . S
C15 C14 1.389 . S
C15 C16 1.397 . S
C16 H2 0.939 . S
C16 C15 1.397 . S
C16 C17 1.378 . S
C17 C16 1.378 . S
C17 C18 1.378 . S
C18 H3 0.940 . S
C18 C17 1.378 . S
C18 C19 1.396 . S
C19 H4 0.940 . S
C19 C14 1.391 . S
C19 C18 1.396 . S
C20 P0 1.803 . S
C20 C21 1.378 . S
C20 C25 1.400 . S
C21 H5 0.939 . S
C21 C20 1.378 . S
C21 C22 1.361 . S
C22 H6 0.942 . S
C22 C21 1.361 . S
C22 C23 1.369 . S
C23 C22 1.369 . S
C23 C24 1.404 . S
C24 H7 0.940 . S
C24 C23 1.404 . S
C24 C25 1.389 . S
C25 H8 0.939 . S
C25 C20 1.400 . S
C25 C24 1.389 . S
C26 P0 1.819 . S
C26 C27 1.391 . S
C26 C31 1.391 . S
C27 H9 0.941 . S
C27 C26 1.391 . S
C27 C28 1.396 . S
C28 H12 0.939 . S
C28 C27 1.396 . S
C28 C29 1.397 . S
C29 C28 1.397 . S
C29 C30 1.385 . S
C30 H13 0.940 . S
C30 C29 1.385 . S
C30 C31 1.388 . S
C31 H10 0.939 . S
C31 C26 1.391 . S
C31 C30 1.388 . S
P32 O43 1.490 . S
P32 C46 1.812 . S
P32 C52 1.803 . S
P32 C58 1.819 . S
H33 C47 0.941 . S
H34 C48 0.939 . S
H35 C50 0.940 . S
H36 C51 0.950 . S
H37 C53 0.939 . S
H38 C54 0.942 . S
H39 C56 0.940 . S
H40 C57 0.959 . S
H41 C59 0.941 . S
H42 C63 0.929 1_655 S
O43 P32 1.490 . S
H44 C60 0.939 . S
H45 C62 0.940 . S
C46 P32 1.812 . S
C46 C47 1.389 . S
C46 C51 1.375 1_455 S
C47 H33 0.941 . S
C47 C46 1.389 . S
C47 C48 1.397 . S
C48 H34 0.939 . S
C48 C47 1.397 . S
C48 C49 1.378 . S
C49 C48 1.378 . S
C49 C50 1.378 1_455 S
C50 H35 0.940 . S
C50 C49 1.378 1_655 S
C50 C51 1.403 . S
C51 H36 0.950 . S
C51 C46 1.375 1_655 S
C51 C50 1.403 . S
C52 P32 1.803 . S
C52 C53 1.378 . S
C52 C57 1.368 1_455 S
C53 H37 0.939 . S
C53 C52 1.378 . S
C53 C54 1.361 . S
C54 H38 0.942 . S
C54 C53 1.361 . S
C54 C55 1.369 . S
C55 C54 1.369 . S
C55 C56 1.404 1_455 S
C56 H39 0.940 . S
C56 C55 1.404 1_655 S
C56 C57 1.402 . S
C57 H40 0.959 . S
C57 C52 1.368 1_655 S
C57 C56 1.402 . S
C58 P32 1.819 . S
C58 C59 1.391 . S
C58 C63 1.391 . S
C59 H41 0.941 . S
C59 C58 1.391 . S
C59 C60 1.396 . S
C60 H44 0.939 . S
C60 C59 1.396 . S
C60 C61 1.397 . S
C61 C60 1.397 . S
C61 C62 1.385 1_455 S
C62 H45 0.940 . S
C62 C61 1.385 1_655 S
C62 C63 1.388 1_655 S
C63 H42 0.929 1_455 S
C63 C58 1.391 . S
C63 C62 1.388 1_455 S
P64 O75 1.490 . S
P64 C78 1.812 . S
P64 C84 1.803 . S
P64 C90 1.819 . S
H65 C79 0.941 . S
H66 C80 0.939 . S
H67 C82 0.940 . S
H68 C83 0.950 . S
H69 C85 0.939 . S
H70 C86 0.942 . S
H71 C88 0.940 . S
H72 C89 0.959 . S
H73 C91 0.941 . S
H74 C95 0.929 1_565 S
O75 P64 1.490 . S
H76 C92 0.939 . S
H77 C94 0.940 . S
C78 P64 1.812 . S
C78 C79 1.389 . S
C78 C83 1.375 1_545 S
C79 H65 0.941 . S
C79 C78 1.389 . S
C79 C80 1.397 . S
C80 H66 0.939 . S
C80 C79 1.397 . S
C80 C81 1.378 . S
C81 C80 1.378 . S
C81 C82 1.378 1_545 S
C82 H67 0.940 . S
C82 C81 1.378 1_565 S
C82 C83 1.403 . S
C83 H68 0.950 . S
C83 C78 1.375 1_565 S
C83 C82 1.403 . S
C84 P64 1.803 . S
C84 C85 1.378 . S
C84 C89 1.368 1_545 S
C85 H69 0.939 . S
C85 C84 1.378 . S
C85 C86 1.361 . S
C86 H70 0.942 . S
C86 C85 1.361 . S
C86 C87 1.369 . S
C87 C86 1.369 . S
C87 C88 1.404 1_545 S
C88 H71 0.940 . S
C88 C87 1.404 1_565 S
C88 C89 1.402 . S
C89 H72 0.959 . S
C89 C84 1.368 1_565 S
C89 C88 1.402 . S
C90 P64 1.819 . S
C90 C91 1.391 . S
C90 C95 1.391 . S
C91 H73 0.941 . S
C91 C90 1.391 . S
C91 C92 1.396 . S
C92 H76 0.939 . S
C92 C91 1.396 . S
C92 C93 1.397 . S
C93 C92 1.397 . S
C93 C94 1.385 1_545 S
C94 H77 0.940 . S
C94 C93 1.385 1_565 S
C94 C95 1.388 1_565 S
C95 H74 0.929 1_545 S
C95 C90 1.391 . S
C95 C94 1.388 1_545 S
P96 O107 1.490 . S
P96 C110 1.812 . S
P96 C116 1.803 . S
P96 C122 1.819 . S
H97 C111 0.941 . S
H98 C112 0.939 . S
H99 C114 0.940 . S
H100 C115 0.940 . S
H101 C117 0.939 . S
H102 C118 0.942 . S
H103 C120 0.940 . S
H104 C121 0.939 . S
H105 C123 0.941 . S
H106 C127 0.939 . S
O107 P96 1.490 . S
H108 C124 0.939 . S
H109 C126 0.940 . S
C110 P96 1.812 . S
C110 C111 1.389 . S
C110 C115 1.391 . S
C111 H97 0.941 . S
C111 C110 1.389 . S
C111 C112 1.397 . S
C112 H98 0.939 . S
C112 C111 1.397 . S
C112 C113 1.378 . S
C113 C112 1.378 . S
C113 C114 1.378 . S
C114 H99 0.940 . S
C114 C113 1.378 . S
C114 C115 1.396 . S
C115 H100 0.940 . S
C115 C110 1.391 . S
C115 C114 1.396 . S
C116 P96 1.803 . S
C116 C117 1.378 . S
C116 C121 1.400 . S
C117 H101 0.939 . S
C117 C116 1.378 . S
C117 C118 1.361 . S
C118 H102 0.942 . S
C118 C117 1.361 . S
C118 C119 1.369 . S
C119 C118 1.369 . S
C119 C120 1.404 . S
C120 H103 0.940 . S
C120 C119 1.404 . S
C120 C121 1.389 . S
C121 H104 0.939 . S
C121 C116 1.400 . S
C121 C120 1.389 . S
C122 P96 1.819 . S
C122 C123 1.391 . S
C122 C127 1.391 . S
C123 H105 0.941 . S
C123 C122 1.391 . S
C123 C124 1.396 . S
C124 H108 0.939 . S
C124 C123 1.396 . S
C124 C125 1.397 . S
C125 C124 1.397 . S
C125 C126 1.385 . S
C126 H109 0.940 . S
C126 C125 1.385 . S
C126 C127 1.388 . S
C127 H106 0.939 . S
C127 C122 1.391 . S
C127 C126 1.388 . S
P128 O139 1.490 . S
P128 C142 1.812 1_554 S
P128 C148 1.803 . S
P128 C154 1.819 . S
H129 C143 0.941 . S
H130 C144 0.939 . S
H131 C146 0.940 . S
H132 C147 0.940 . S
H133 C149 0.939 . S
H134 C150 0.942 . S
H135 C152 0.940 . S
H136 C153 0.939 . S
H137 C155 0.941 . S
H138 C159 0.939 . S
O139 P128 1.490 . S
H140 C156 0.939 . S
H141 C158 0.940 . S
C142 P128 1.812 1_556 S
C142 C143 1.389 . S
C142 C147 1.391 . S
C143 H129 0.941 . S
C143 C142 1.389 . S
C143 C144 1.397 . S
C144 H130 0.939 . S
C144 C143 1.397 . S
C144 C145 1.378 . S
C145 C144 1.378 . S
C145 C146 1.378 . S
C146 H131 0.940 . S
C146 C145 1.378 . S
C146 C147 1.396 . S
C147 H132 0.940 . S
C147 C142 1.391 . S
C147 C146 1.396 . S
C148 P128 1.803 . S
C148 C149 1.378 . S
C148 C153 1.400 . S
C149 H133 0.939 . S
C149 C148 1.378 . S
C149 C150 1.361 . S
C150 H134 0.942 . S
C150 C149 1.361 . S
C150 C151 1.369 . S
C151 C150 1.369 . S
C151 C152 1.404 . S
C152 H135 0.940 . S
C152 C151 1.404 . S
C152 C153 1.389 . S
C153 H136 0.939 . S
C153 C148 1.400 . S
C153 C152 1.389 . S
C154 P128 1.819 . S
C154 C155 1.391 . S
C154 C159 1.391 . S
C155 H137 0.941 . S
C155 C154 1.391 . S
C155 C156 1.396 . S
C156 H140 0.939 . S
C156 C155 1.396 . S
C156 C157 1.397 . S
C157 C156 1.397 . S
C157 C158 1.385 . S
C158 H141 0.940 . S
C158 C157 1.385 . S
C158 C159 1.388 . S
C159 H138 0.939 . S
C159 C154 1.391 . S
C159 C158 1.388 . S
P160 O171 1.490 . S
P160 C174 1.812 1_554 S
P160 C180 1.803 . S
P160 C186 1.819 . S
H161 C175 0.941 . S
H162 C176 0.939 . S
H163 C178 0.940 . S
H164 C179 0.944 . S
H165 C181 0.939 . S
H166 C182 0.942 . S
H167 C184 0.940 . S
H168 C185 0.952 . S
H169 C187 0.941 . S
H170 C191 0.933 1_655 S
O171 P160 1.490 . S
H172 C188 0.939 . S
H173 C190 0.940 . S
C174 P160 1.812 1_556 S
C174 C175 1.389 . S
C174 C179 1.385 1_455 S
C175 H161 0.941 . S
C175 C174 1.389 . S
C175 C176 1.397 . S
C176 H162 0.939 . S
C176 C175 1.397 . S
C176 C177 1.378 . S
C177 C176 1.378 . S
C177 C178 1.378 1_455 S
C178 H163 0.940 . S
C178 C177 1.378 1_655 S
C178 C179 1.399 . S
C179 H164 0.944 . S
C179 C174 1.385 1_655 S
C179 C178 1.399 . S
C180 P160 1.803 . S
C180 C181 1.378 . S
C180 C185 1.379 1_455 S
C181 H165 0.939 . S
C181 C180 1.378 . S
C181 C182 1.361 . S
C182 H166 0.942 . S
C182 C181 1.361 . S
C182 C183 1.369 . S
C183 C182 1.369 . S
C183 C184 1.404 1_455 S
C184 H167 0.940 . S
C184 C183 1.404 1_655 S
C184 C185 1.397 . S
C185 H168 0.952 . S
C185 C180 1.379 1_655 S
C185 C184 1.397 . S
C186 P160 1.819 . S
C186 C187 1.391 . S
C186 C191 1.391 . S
C187 H169 0.941 . S
C187 C186 1.391 . S
C187 C188 1.396 . S
C188 H172 0.939 . S
C188 C187 1.396 . S
C188 C189 1.397 . S
C189 C188 1.397 . S
C189 C190 1.385 1_455 S
C190 H173 0.940 . S
C190 C189 1.385 1_655 S
C190 C191 1.388 1_655 S
C191 H170 0.933 1_455 S
C191 C186 1.391 . S
C191 C190 1.388 1_455 S
P192 O203 1.490 . S
P192 C206 1.812 1_554 S
P192 C212 1.803 . S
P192 C218 1.819 . S
H193 C207 0.941 . S
H194 C208 0.939 . S
H195 C210 0.940 . S
H196 C211 0.944 . S
H197 C213 0.939 . S
H198 C214 0.942 . S
H199 C216 0.940 . S
H200 C217 0.952 . S
H201 C219 0.941 . S
H202 C223 0.933 1_565 S
O203 P192 1.490 . S
H204 C220 0.939 . S
H205 C222 0.940 . S
C206 P192 1.812 1_556 S
C206 C207 1.389 . S
C206 C211 1.385 1_545 S
C207 H193 0.941 . S
C207 C206 1.389 . S
C207 C208 1.397 . S
C208 H194 0.939 . S
C208 C207 1.397 . S
C208 C209 1.378 . S
C209 C208 1.378 . S
C209 C210 1.378 1_545 S
C210 H195 0.940 . S
C210 C209 1.378 1_565 S
C210 C211 1.399 . S
C211 H196 0.944 . S
C211 C206 1.385 1_565 S
C211 C210 1.399 . S
C212 P192 1.803 . S
C212 C213 1.378 . S
C212 C217 1.379 1_545 S
C213 H197 0.939 . S
C213 C212 1.378 . S
C213 C214 1.361 . S
C214 H198 0.942 . S
C214 C213 1.361 . S
C214 C215 1.369 . S
C215 C214 1.369 . S
C215 C216 1.404 1_545 S
C216 H199 0.940 . S
C216 C215 1.404 1_565 S
C216 C217 1.397 . S
C217 H200 0.952 . S
C217 C212 1.379 1_565 S
C217 C216 1.397 . S
C218 P192 1.819 . S
C218 C219 1.391 . S
C218 C223 1.391 . S
C219 H201 0.941 . S
C219 C218 1.391 . S
C219 C220 1.396 . S
C220 H204 0.939 . S
C220 C219 1.396 . S
C220 C221 1.397 . S
C221 C220 1.397 . S
C221 C222 1.385 1_545 S
C222 H205 0.940 . S
C222 C221 1.385 1_565 S
C222 C223 1.388 1_565 S
C223 H202 0.933 1_545 S
C223 C218 1.391 . S
C223 C222 1.388 1_545 S
P224 O235 1.490 . S
P224 C238 1.812 1_554 S
P224 C244 1.803 . S
P224 C250 1.819 . S
H225 C239 0.941 . S
H226 C240 0.939 . S
H227 C242 0.940 . S
H228 C243 0.940 . S
H229 C245 0.939 . S
H230 C246 0.942 . S
H231 C248 0.940 . S
H232 C249 0.939 . S
H233 C251 0.941 . S
H234 C255 0.939 . S
O235 P224 1.490 . S
H236 C252 0.939 . S
H237 C254 0.940 . S
C238 P224 1.812 1_556 S
C238 C239 1.389 . S
C238 C243 1.391 . S
C239 H225 0.941 . S
C239 C238 1.389 . S
C239 C240 1.397 . S
C240 H226 0.939 . S
C240 C239 1.397 . S
C240 C241 1.378 . S
C241 C240 1.378 . S
C241 C242 1.378 . S
C242 H227 0.940 . S
C242 C241 1.378 . S
C242 C243 1.396 . S
C243 H228 0.940 . S
C243 C238 1.391 . S
C243 C242 1.396 . S
C244 P224 1.803 . S
C244 C245 1.378 . S
C244 C249 1.400 . S
C245 H229 0.939 . S
C245 C244 1.378 . S
C245 C246 1.361 . S
C246 H230 0.942 . S
C246 C245 1.361 . S
C246 C247 1.369 . S
C247 C246 1.369 . S
C247 C248 1.404 . S
C248 H231 0.940 . S
C248 C247 1.404 . S
C248 C249 1.389 . S
C249 H232 0.939 . S
C249 C244 1.400 . S
C249 C248 1.389 . S
C250 P224 1.819 . S
C250 C251 1.391 . S
C250 C255 1.391 . S
C251 H233 0.941 . S
C251 C250 1.391 . S
C251 C252 1.396 . S
C252 H236 0.939 . S
C252 C251 1.396 . S
C252 C253 1.397 . S
C253 C252 1.397 . S
C253 C254 1.385 . S
C254 H237 0.940 . S
C254 C253 1.385 . S
C254 C255 1.388 . S
C255 H234 0.939 . S
C255 C250 1.391 . S
C255 C254 1.388 . S
Sm256 C258 2.846 . S
Sm256 O276 2.543 . S
Sm256 O277 2.450 . S
Sm256 O278 2.681 1_565 S
Sm256 O279 2.464 . S
Sm256 O280 2.396 . S
Sm256 O284 2.386 1_455 S
Sm256 O287 2.408 1_565 S
Sm257 C267 2.846 . S
Sm257 O278 2.386 1_655 S
Sm257 O281 2.408 1_545 S
Sm257 O282 2.543 . S
Sm257 O283 2.450 . S
Sm257 O284 2.681 1_545 S
Sm257 O285 2.464 . S
Sm257 O286 2.396 . S
C258 Sm256 2.846 . S
C258 C259 1.506 . S
C258 O276 1.261 . S
C258 O277 1.242 . S
C259 C258 1.506 . S
C259 C260 1.358 . S
C259 C264 1.382 . S
C260 C259 1.358 . S
C260 C261 1.385 . S
C260 H288 0.930 1_455 S
C261 C260 1.385 . S
C261 C262 1.395 . S
C261 H289 0.904 1_455 S
C262 C261 1.395 . S
C262 C263 1.335 . S
C263 C262 1.335 . S
C263 C264 1.398 . S
C263 H290 0.930 . S
C264 C259 1.382 . S
C264 C263 1.398 . S
C264 H291 0.929 . S
C265 O278 1.271 1_565 S
C265 O279 1.251 . S
C266 O280 1.252 1_655 S
C266 O281 1.272 . S
C267 Sm257 2.846 . S
C267 C268 1.506 . S
C267 O282 1.261 . S
C267 O283 1.242 . S
C268 C267 1.506 . S
C268 C269 1.358 . S
C268 C273 1.382 . S
C269 C268 1.358 . S
C269 C270 1.385 . S
C269 H292 0.930 1_655 S
C270 C269 1.385 . S
C270 C271 1.395 . S
C270 H293 0.895 1_655 S
C271 C270 1.395 . S
C271 C272 1.335 . S
C272 C271 1.335 . S
C272 C273 1.398 . S
C272 H294 0.930 . S
C273 C268 1.382 . S
C273 C272 1.398 . S
C273 H295 0.929 . S
C274 O284 1.271 1_545 S
C274 O285 1.251 . S
C275 O286 1.252 1_455 S
C275 O287 1.272 . S
O276 Sm256 2.543 . S
O276 C258 1.261 . S
O277 Sm256 2.450 . S
O277 C258 1.242 . S
O278 Sm256 2.681 1_545 S
O278 Sm257 2.386 1_455 S
O278 C265 1.271 1_545 S
O279 Sm256 2.464 . S
O279 C265 1.251 . S
O280 Sm256 2.396 . S
O280 C266 1.252 1_455 S
O281 Sm257 2.408 1_565 S
O281 C266 1.272 . S
O282 Sm257 2.543 . S
O282 C267 1.261 . S
O283 Sm257 2.450 . S
O283 C267 1.242 . S
O284 Sm256 2.386 1_655 S
O284 Sm257 2.681 1_565 S
O284 C274 1.271 1_565 S
O285 Sm257 2.464 . S
O285 C274 1.251 . S
O286 Sm257 2.396 . S
O286 C275 1.252 1_655 S
O287 Sm256 2.408 1_545 S
O287 C275 1.272 . S
H288 C260 0.930 1_655 S
H289 C261 0.904 1_655 S
H290 C263 0.930 . S
H291 C264 0.929 . S
H292 C269 0.930 1_455 S
H293 C270 0.895 1_455 S
H294 C272 0.930 . S
H295 C273 0.929 . S
Sm296 C298 2.846 . S
Sm296 O316 2.543 . S
Sm296 O317 2.450 . S
Sm296 O318 2.681 . S
Sm296 O319 2.464 . S
Sm296 O320 2.396 . S
Sm296 O324 2.386 1_545 S
Sm296 O327 2.408 . S
Sm297 C307 2.846 . S
Sm297 O318 2.386 1_565 S
Sm297 O321 2.408 . S
Sm297 O322 2.543 . S
Sm297 O323 2.450 . S
Sm297 O324 2.681 . S
Sm297 O325 2.464 . S
Sm297 O326 2.396 . S
C298 Sm296 2.846 . S
C298 C299 1.506 . S
C298 O316 1.261 . S
C298 O317 1.242 . S
C299 C298 1.506 . S
C299 C300 1.358 . S
C299 C304 1.382 . S
C300 C299 1.358 . S
C300 C301 1.385 . S
C300 H328 0.930 1_545 S
C301 C300 1.385 . S
C301 C302 1.395 . S
C301 H329 0.929 1_545 S
C302 C301 1.395 . S
C302 C303 1.335 . S
C303 C302 1.335 . S
C303 C304 1.398 . S
C303 H330 0.930 . S
C304 C299 1.382 . S
C304 C303 1.398 . S
C304 H331 0.929 . S
C305 O318 1.271 . S
C305 O319 1.251 . S
C306 O320 1.252 1_565 S
C306 O321 1.272 . S
C307 Sm297 2.846 . S
C307 C308 1.506 . S
C307 O322 1.261 . S
C307 O323 1.242 . S
C308 C307 1.506 . S
C308 C309 1.358 . S
C308 C313 1.382 . S
C309 C308 1.358 . S
C309 C310 1.385 . S
C309 H332 0.930 1_565 S
C310 C309 1.385 . S
C310 C311 1.395 . S
C310 H333 0.929 1_565 S
C311 C310 1.395 . S
C311 C312 1.335 . S
C312 C311 1.335 . S
C312 C313 1.398 . S
C312 H334 0.930 . S
C313 C308 1.382 . S
C313 C312 1.398 . S
C313 H335 0.929 . S
C314 O324 1.271 . S
C314 O325 1.251 . S
C315 O326 1.252 1_545 S
C315 O327 1.272 . S
O316 Sm296 2.543 . S
O316 C298 1.261 . S
O317 Sm296 2.450 . S
O317 C298 1.242 . S
O318 Sm296 2.681 . S
O318 Sm297 2.386 1_545 S
O318 C305 1.271 . S
O319 Sm296 2.464 . S
O319 C305 1.251 . S
O320 Sm296 2.396 . S
O320 C306 1.252 1_545 S
O321 Sm297 2.408 . S
O321 C306 1.272 . S
O322 Sm297 2.543 . S
O322 C307 1.261 . S
O323 Sm297 2.450 . S
O323 C307 1.242 . S
O324 Sm296 2.386 1_565 S
O324 Sm297 2.681 . S
O324 C314 1.271 . S
O325 Sm297 2.464 . S
O325 C314 1.251 . S
O326 Sm297 2.396 . S
O326 C315 1.252 1_565 S
O327 Sm296 2.408 . S
O327 C315 1.272 . S
H328 C300 0.930 1_565 S
H329 C301 0.929 1_565 S
H330 C303 0.930 . S
H331 C304 0.929 . S
H332 C309 0.930 1_545 S
H333 C310 0.929 1_545 S
H334 C312 0.930 . S
H335 C313 0.929 . S
Sm336 C338 2.846 . S
Sm336 O356 2.543 . S
Sm336 O357 2.450 . S
Sm336 O358 2.681 . S
Sm336 O359 2.464 . S
Sm336 O360 2.396 . S
Sm336 O364 2.386 . S
Sm336 O367 2.408 . S
Sm337 C347 2.846 . S
Sm337 O358 2.386 . S
Sm337 O361 2.408 . S
Sm337 O362 2.543 . S
Sm337 O363 2.450 . S
Sm337 O364 2.681 . S
Sm337 O365 2.464 . S
Sm337 O366 2.396 . S
C338 Sm336 2.846 . S
C338 C339 1.506 . S
C338 O356 1.261 . S
C338 O357 1.242 . S
C339 C338 1.506 . S
C339 C340 1.358 . S
C339 C344 1.382 . S
C340 C339 1.358 . S
C340 C341 1.385 . S
C340 H368 0.930 . S
C341 C340 1.385 . S
C341 C342 1.395 . S
C341 H369 0.929 . S
C342 C341 1.395 . S
C342 C343 1.335 . S
C343 C342 1.335 . S
C343 C344 1.398 . S
C343 H370 0.930 . S
C344 C339 1.382 . S
C344 C343 1.398 . S
C344 H371 0.929 . S
C345 O358 1.271 . S
C345 O359 1.251 . S
C346 O360 1.252 . S
C346 O361 1.272 . S
C347 Sm337 2.846 . S
C347 C348 1.506 . S
C347 O362 1.261 . S
C347 O363 1.242 . S
C348 C347 1.506 . S
C348 C349 1.358 . S
C348 C353 1.382 . S
C349 C348 1.358 . S
C349 C350 1.385 . S
C349 H372 0.930 . S
C350 C349 1.385 . S
C350 C351 1.395 . S
C350 H373 0.929 . S
C351 C350 1.395 . S
C351 C352 1.335 . S
C352 C351 1.335 . S
C352 C353 1.398 . S
C352 H374 0.930 . S
C353 C348 1.382 . S
C353 C352 1.398 . S
C353 H375 0.929 . S
C354 O364 1.271 . S
C354 O365 1.251 . S
C355 O366 1.252 . S
C355 O367 1.272 . S
O356 Sm336 2.543 . S
O356 C338 1.261 . S
O357 Sm336 2.450 . S
O357 C338 1.242 . S
O358 Sm336 2.681 . S
O358 Sm337 2.386 . S
O358 C345 1.271 . S
O359 Sm336 2.464 . S
O359 C345 1.251 . S
O360 Sm336 2.396 . S
O360 C346 1.252 . S
O361 Sm337 2.408 . S
O361 C346 1.272 . S
O362 Sm337 2.543 . S
O362 C347 1.261 . S
O363 Sm337 2.450 . S
O363 C347 1.242 . S
O364 Sm336 2.386 . S
O364 Sm337 2.681 . S
O364 C354 1.271 . S
O365 Sm337 2.464 . S
O365 C354 1.251 . S
O366 Sm337 2.396 . S
O366 C355 1.252 . S
O367 Sm336 2.408 . S
O367 C355 1.272 . S
H368 C340 0.930 . S
H369 C341 0.929 . S
H370 C343 0.930 . S
H371 C344 0.929 . S
H372 C349 0.930 . S
H373 C350 0.929 . S
H374 C352 0.930 . S
H375 C353 0.929 . S
Sm376 C378 2.846 . S
Sm376 O396 2.543 . S
Sm376 O397 2.450 . S
Sm376 O398 2.681 1_655 S
Sm376 O399 2.464 . S
Sm376 O400 2.396 . S
Sm376 O404 2.386 . S
Sm376 O407 2.408 1_655 S
Sm377 C387 2.846 . S
Sm377 O398 2.386 . S
Sm377 O401 2.408 1_455 S
Sm377 O402 2.543 . S
Sm377 O403 2.450 . S
Sm377 O404 2.681 1_455 S
Sm377 O405 2.464 . S
Sm377 O406 2.396 . S
C378 Sm376 2.846 . S
C378 C379 1.506 . S
C378 O396 1.261 . S
C378 O397 1.242 . S
C379 C378 1.506 . S
C379 C380 1.358 . S
C379 C384 1.382 . S
C380 C379 1.358 . S
C380 C381 1.385 . S
C380 H408 0.930 . S
C381 C380 1.385 . S
C381 C382 1.395 . S
C381 H409 0.929 . S
C382 C381 1.395 . S
C382 C383 1.335 . S
C383 C382 1.335 . S
C383 C384 1.398 . S
C383 H410 0.930 . S
C384 C379 1.382 . S
C384 C383 1.398 . S
C384 H411 0.929 . S
C385 O398 1.261 1_655 S
C385 O399 1.268 . S
C386 O400 1.252 . S
C386 O401 1.272 . S
C387 Sm377 2.846 . S
C387 C388 1.506 . S
C387 O402 1.261 . S
C387 O403 1.242 . S
C388 C387 1.506 . S
C388 C389 1.358 . S
C388 C393 1.382 . S
C389 C388 1.358 . S
C389 C390 1.385 . S
C389 H412 0.930 . S
C390 C389 1.385 . S
C390 C391 1.395 . S
C390 H413 0.929 . S
C391 C390 1.395 . S
C391 C392 1.335 . S
C392 C391 1.335 . S
C392 C393 1.398 . S
C392 H414 0.930 . S
C393 C388 1.382 . S
C393 C392 1.398 . S
C393 H415 0.929 . S
C394 O404 1.258 1_455 S
C394 O405 1.274 . S
C395 O406 1.252 . S
C395 O407 1.272 . S
O396 Sm376 2.543 . S
O396 C378 1.261 . S
O397 Sm376 2.450 . S
O397 C378 1.242 . S
O398 Sm376 2.681 1_455 S
O398 Sm377 2.386 . S
O398 C385 1.261 1_455 S
O399 Sm376 2.464 . S
O399 C385 1.268 . S
O400 Sm376 2.396 . S
O400 C386 1.252 . S
O401 Sm377 2.408 1_655 S
O401 C386 1.272 . S
O402 Sm377 2.543 . S
O402 C387 1.261 . S
O403 Sm377 2.450 . S
O403 C387 1.242 . S
O404 Sm376 2.386 . S
O404 Sm377 2.681 1_655 S
O404 C394 1.258 1_655 S
O405 Sm377 2.464 . S
O405 C394 1.274 . S
O406 Sm377 2.396 . S
O406 C395 1.252 . S
O407 Sm376 2.408 1_455 S
O407 C395 1.272 . S
H408 C380 0.930 . S
H409 C381 0.929 . S
H410 C383 0.930 . S
H411 C384 0.929 . S
H412 C389 0.930 . S
H413 C390 0.929 . S
H414 C392 0.930 . S
H415 C393 0.929 . S
H416 C424 0.950 . S
H417 C429 0.950 . S
H418 C426 0.950 . S
H419 C428 0.950 . S
H420 C430 0.950 . S
H421 C432 0.950 . S
H422 C434 0.950 . S
H423 C435 0.950 . S
C424 H416 0.950 . S
C424 C425 1.391 . S
C424 C426 1.391 . S
C425 C424 1.391 . S
C425 C429 1.388 1_565 S
C426 H418 0.950 . S
C426 C424 1.391 . S
C426 C427 1.399 1_565 S
C427 C426 1.399 1_545 S
C427 C428 1.399 . S
C427 C433 1.491 . S
C428 H419 0.950 . S
C428 C427 1.399 . S
C428 C429 1.391 . S
C429 H417 0.950 . S
C429 C425 1.388 1_545 S
C429 C428 1.391 . S
C430 H420 0.950 . S
C430 C431 1.386 . S
C430 C432 1.391 . S
C431 C430 1.386 . S
C431 C435 1.393 1_545 S
C432 H421 0.950 . S
C432 C430 1.391 . S
C432 C433 1.400 . S
C433 C427 1.491 . S
C433 C432 1.400 . S
C433 C434 1.398 1_545 S
C434 H422 0.950 . S
C434 C433 1.398 1_565 S
C434 C435 1.391 . S
C435 H423 0.950 . S
C435 C431 1.393 1_565 S
C435 C434 1.391 . S
H436 C444 0.950 . S
H437 C449 0.950 . S
H438 C446 0.950 . S
H439 C448 0.950 . S
H440 C450 0.950 . S
H441 C452 0.950 . S
H442 C454 0.950 . S
H443 C455 0.950 . S
C444 H436 0.950 . S
C444 C445 1.386 . S
C444 C446 1.391 . S
C445 C444 1.386 . S
C445 C449 1.393 . S
C446 H438 0.950 . S
C446 C444 1.391 . S
C446 C447 1.400 . S
C447 C446 1.400 . S
C447 C448 1.398 . S
C447 C453 1.491 . S
C448 H439 0.950 . S
C448 C447 1.398 . S
C448 C449 1.391 . S
C449 H437 0.950 . S
C449 C445 1.393 . S
C449 C448 1.391 . S
C450 H440 0.950 . S
C450 C451 1.386 . S
C450 C452 1.391 . S
C451 C450 1.386 . S
C451 C455 1.393 . S
C452 H441 0.950 . S
C452 C450 1.391 . S
C452 C453 1.400 . S
C453 C447 1.491 . S
C453 C452 1.400 . S
C453 C454 1.398 . S
C454 H442 0.950 . S
C454 C453 1.398 . S
C454 C455 1.391 . S
C455 H443 0.950 . S
C455 C451 1.393 . S
C455 C454 1.391 . S
H456 C464 0.950 . S
H457 C469 0.950 . S
H458 C466 0.950 . S
H459 C468 0.950 . S
H460 C470 0.950 . S
H461 C472 0.950 . S
H462 C474 0.950 . S
H463 C475 0.950 . S
C464 H456 0.950 . S
C464 C465 1.386 . S
C464 C466 1.391 . S
C465 C464 1.386 . S
C465 C469 1.393 . S
C466 H458 0.950 . S
C466 C464 1.391 . S
C466 C467 1.400 . S
C467 C466 1.400 . S
C467 C468 1.398 . S
C467 C473 1.491 . S
C468 H459 0.950 . S
C468 C467 1.398 . S
C468 C469 1.391 . S
C469 H457 0.950 . S
C469 C465 1.393 . S
C469 C468 1.391 . S
C470 H460 0.950 . S
C470 C471 1.386 . S
C470 C472 1.391 . S
C471 C470 1.386 . S
C471 C475 1.393 . S
C472 H461 0.950 . S
C472 C470 1.391 . S
C472 C473 1.400 . S
C473 C467 1.491 . S
C473 C472 1.400 . S
C473 C474 1.398 . S
C474 H462 0.950 . S
C474 C473 1.398 . S
C474 C475 1.391 . S
C475 H463 0.950 . S
C475 C471 1.393 . S
C475 C474 1.391 . S
H476 C484 0.950 . S
H477 C489 0.950 . S
H478 C486 0.950 . S
H479 C488 0.950 . S
H480 C490 0.950 . S
H481 C492 0.950 . S
H482 C494 0.950 . S
H483 C495 0.950 . S
C484 H476 0.950 . S
C484 C485 1.379 1_455 S
C484 C486 1.391 . S
C485 C484 1.379 1_655 S
C485 C489 1.400 . S
C486 H478 0.950 . S
C486 C484 1.391 . S
C486 C487 1.406 . S
C487 C486 1.406 . S
C487 C488 1.392 1_455 S
C487 C493 1.492 . S
C488 H479 0.950 . S
C488 C487 1.392 1_655 S
C488 C489 1.391 . S
C489 H477 0.950 . S
C489 C485 1.400 . S
C489 C488 1.391 . S
C490 H480 0.950 . S
C490 C491 1.386 1_655 S
C490 C492 1.391 . S
C491 C490 1.386 1_455 S
C491 C495 1.393 . S
C492 H481 0.950 . S
C492 C490 1.391 . S
C492 C493 1.400 1_655 S
C493 C487 1.492 . S
C493 C492 1.400 1_455 S
C493 C494 1.398 . S
C494 H482 0.950 . S
C494 C493 1.398 . S
C494 C495 1.391 . S
C495 H483 0.950 . S
C495 C491 1.393 . S
C495 C494 1.391 . S
H496 C504 0.950 . S
H497 C509 0.950 . S
H498 C506 0.950 . S
H499 C508 0.950 . S
H500 C510 0.950 . S
H501 C512 0.950 . S
H502 C514 0.950 . S
H503 C515 0.950 . S
C504 H496 0.950 . S
C504 C505 1.370 1_565 S
C504 C506 1.391 . S
C505 C504 1.370 1_545 S
C505 C509 1.409 . S
C506 H498 0.950 . S
C506 C504 1.391 . S
C506 C507 1.402 . S
C507 C506 1.402 . S
C507 C508 1.397 1_565 S
C507 C513 1.490 . S
C508 H499 0.950 . S
C508 C507 1.397 1_545 S
C508 C509 1.391 . S
C509 H497 0.950 . S
C509 C505 1.409 . S
C509 C508 1.391 . S
C510 H500 0.950 . S
C510 C511 1.386 1_545 S
C510 C512 1.391 1_556 S
C511 C510 1.386 1_565 S
C511 C515 1.393 . S
C512 H501 0.950 . S
C512 C510 1.391 1_554 S
C512 C513 1.369 1_545 S
C513 C507 1.490 . S
C513 C512 1.369 1_565 S
C513 C514 1.432 1_554 S
C514 H502 0.950 . S
C514 C513 1.432 1_556 S
C514 C515 1.391 . S
C515 H503 0.950 . S
C515 C511 1.393 . S
C515 C514 1.391 . S
H516 C524 0.950 . S
H517 C529 0.950 . S
H518 C526 0.950 . S
H519 C528 0.950 . S
H520 C530 0.950 . S
H521 C532 0.950 . S
H522 C534 0.950 1_554 S
H523 C535 0.950 . S
C524 H516 0.950 . S
C524 C525 1.386 . S
C524 C526 1.391 . S
C525 C524 1.386 . S
C525 C529 1.393 . S
C526 H518 0.950 . S
C526 C524 1.391 . S
C526 C527 1.400 . S
C527 C526 1.400 . S
C527 C528 1.398 . S
C527 C533 1.491 . S
C528 H519 0.950 . S
C528 C527 1.398 . S
C528 C529 1.391 . S
C529 H517 0.950 . S
C529 C525 1.393 . S
C529 C528 1.391 . S
C530 H520 0.950 . S
C530 C531 1.386 . S
C530 C532 1.391 . S
C531 C530 1.386 . S
C531 C535 1.393 . S
C532 H521 0.950 . S
C532 C530 1.391 . S
C532 C533 1.400 1_556 S
C533 C527 1.491 . S
C533 C532 1.400 1_554 S
C533 C534 1.398 1_554 S
C534 H522 0.950 1_556 S
C534 C533 1.398 1_556 S
C534 C535 1.391 . S
C535 H523 0.950 . S
C535 C531 1.393 . S
C535 C534 1.391 . S
H536 C544 0.950 . S
H537 C549 0.950 . S
H538 C546 0.950 . S
H539 C548 0.950 . S
H540 C550 0.950 . S
H541 C552 0.950 . S
H542 C554 0.950 . S
H543 C555 0.950 . S
C544 H536 0.950 . S
C544 C545 1.386 . S
C544 C546 1.391 . S
C545 C544 1.386 . S
C545 C549 1.393 . S
C546 H538 0.950 . S
C546 C544 1.391 . S
C546 C547 1.400 . S
C547 C546 1.400 . S
C547 C548 1.398 . S
C547 C553 1.491 . S
C548 H539 0.950 . S
C548 C547 1.398 . S
C548 C549 1.391 . S
C549 H537 0.950 . S
C549 C545 1.393 . S
C549 C548 1.391 . S
C550 H540 0.950 . S
C550 C551 1.386 . S
C550 C552 1.391 1_556 S
C551 C550 1.386 . S
C551 C555 1.393 . S
C552 H541 0.950 . S
C552 C550 1.391 1_554 S
C552 C553 1.400 . S
C553 C547 1.491 . S
C553 C552 1.400 . S
C553 C554 1.398 1_554 S
C554 H542 0.950 . S
C554 C553 1.398 1_556 S
C554 C555 1.391 . S
C555 H543 0.950 . S
C555 C551 1.393 . S
C555 C554 1.391 . S
H556 C564 0.950 . S
H557 C569 0.950 . S
H558 C566 0.950 . S
H559 C568 0.950 . S
H560 C570 0.950 . S
H561 C572 0.950 1_554 S
H562 C574 0.950 . S
H563 C575 0.950 . S
C564 H556 0.950 . S
C564 C565 1.387 1_655 S
C564 C566 1.391 . S
C565 C564 1.387 1_455 S
C565 C569 1.392 . S
C566 H558 0.950 . S
C566 C564 1.391 . S
C566 C567 1.424 . S
C567 C566 1.424 . S
C567 C568 1.374 1_655 S
C567 C573 1.492 . S
C568 H559 0.950 . S
C568 C567 1.374 1_455 S
C568 C569 1.391 . S
C569 H557 0.950 . S
C569 C565 1.392 . S
C569 C568 1.391 . S
C570 H560 0.950 . S
C570 C571 1.386 1_455 S
C570 C572 1.391 . S
C571 C570 1.386 1_655 S
C571 C575 1.393 . S
C572 H561 0.950 1_556 S
C572 C570 1.391 . S
C572 C573 1.400 1_456 S
C573 C567 1.492 . S
C573 C572 1.400 1_654 S
C573 C574 1.398 1_554 S
C574 H562 0.950 . S
C574 C573 1.398 1_556 S
C574 C575 1.391 . S
C575 H563 0.950 . S
C575 C571 1.393 . S
C575 C574 1.391 . S
H576 C584 0.950 . S
H577 C589 0.950 . S
H578 C586 0.951 1_455 S
H579 C588 0.950 . S
H580 C590 0.950 . S
H581 C592 0.950 . S
H582 C594 0.950 . S
H583 C595 0.950 . S
C584 H576 0.950 . S
C584 C585 1.386 . S
C584 C586 1.392 1_455 S
C585 C584 1.386 . S
C585 C589 1.393 1_455 S
C586 H578 0.951 1_655 S
C586 C584 1.392 1_655 S
C586 C587 1.399 . S
C587 C586 1.399 . S
C587 C588 1.398 . S
C587 C593 1.491 . S
C588 H579 0.950 . S
C588 C587 1.398 . S
C588 C589 1.391 . S
C589 H577 0.950 . S
C589 C585 1.393 1_655 S
C589 C588 1.391 . S
C590 H580 0.950 . S
C590 C591 1.386 . S
C590 C592 1.391 . S
C591 C590 1.386 . S
C591 C595 1.393 . S
C592 H581 0.950 . S
C592 C590 1.391 . S
C592 C593 1.400 . S
C593 C587 1.491 . S
C593 C592 1.400 . S
C593 C594 1.398 . S
C594 H582 0.950 . S
C594 C593 1.398 . S
C594 C595 1.391 . S
C595 H583 0.950 . S
C595 C591 1.393 . S
C595 C594 1.391 . S
H596 C604 0.950 . S
H597 C609 0.950 . S
H598 C606 0.950 . S
H599 C608 0.950 . S
H600 C610 0.950 . S
H601 C612 0.950 . S
H602 C614 0.950 1_545 S
H603 C615 0.950 . S
C604 H596 0.950 . S
C604 C605 1.386 . S
C604 C606 1.391 . S
C605 C604 1.386 . S
C605 C609 1.393 1_545 S
C606 H598 0.950 . S
C606 C604 1.391 . S
C606 C607 1.400 1_545 S
C607 C606 1.400 1_565 S
C607 C608 1.398 . S
C607 C613 1.491 . S
C608 H599 0.950 . S
C608 C607 1.398 . S
C608 C609 1.391 . S
C609 H597 0.950 . S
C609 C605 1.393 1_565 S
C609 C608 1.391 . S
C610 H600 0.950 . S
C610 C611 1.386 . S
C610 C612 1.391 . S
C611 C610 1.386 . S
C611 C615 1.393 . S
C612 H601 0.950 . S
C612 C610 1.391 . S
C612 C613 1.400 . S
C613 C607 1.491 . S
C613 C612 1.400 . S
C613 C614 1.398 . S
C614 H602 0.950 1_565 S
C614 C613 1.398 . S
C614 C615 1.391 . S
C615 H603 0.950 . S
C615 C611 1.393 . S
C615 C614 1.391 . S
H616 C624 0.950 . S
H617 C629 0.950 . S
H618 C626 0.950 . S
H619 C628 0.950 . S
H620 C630 0.950 . S
H621 C632 0.950 . S
H622 C634 0.950 . S
H623 C635 0.950 . S
C624 H616 0.950 . S
C624 C625 1.386 . S
C624 C626 1.391 . S
C625 C624 1.386 . S
C625 C629 1.393 . S
C626 H618 0.950 . S
C626 C624 1.391 . S
C626 C627 1.400 . S
C627 C626 1.400 . S
C627 C628 1.398 . S
C627 C633 1.491 . S
C628 H619 0.950 . S
C628 C627 1.398 . S
C628 C629 1.391 . S
C629 H617 0.950 . S
C629 C625 1.393 . S
C629 C628 1.391 . S
C630 H620 0.950 . S
C630 C631 1.386 . S
C630 C632 1.391 . S
C631 C630 1.386 . S
C631 C635 1.393 . S
C632 H621 0.950 . S
C632 C630 1.391 . S
C632 C633 1.400 . S
C633 C627 1.491 . S
C633 C632 1.400 . S
C633 C634 1.398 . S
C634 H622 0.950 . S
C634 C633 1.398 . S
C634 C635 1.391 . S
C635 H623 0.950 . S
C635 C631 1.393 . S
C635 C634 1.391 . S
H636 C644 0.950 . S
H637 C649 0.950 . S
H638 C646 0.950 . S
H639 C648 0.950 . S
H640 C650 0.950 . S
H641 C652 0.950 . S
H642 C654 0.950 . S
H643 C655 0.950 . S
C644 H636 0.950 . S
C644 C645 1.386 . S
C644 C646 1.391 . S
C645 C644 1.386 . S
C645 C649 1.393 . S
C646 H638 0.950 . S
C646 C644 1.391 . S
C646 C647 1.400 . S
C647 C646 1.400 . S
C647 C648 1.398 . S
C647 C653 1.491 . S
C648 H639 0.950 . S
C648 C647 1.398 . S
C648 C649 1.391 . S
C649 H637 0.950 . S
C649 C645 1.393 . S
C649 C648 1.391 . S
C650 H640 0.950 . S
C650 C651 1.386 . S
C650 C652 1.391 . S
C651 C650 1.386 . S
C651 C655 1.393 . S
C652 H641 0.950 . S
C652 C650 1.391 . S
C652 C653 1.400 . S
C653 C647 1.491 . S
C653 C652 1.400 . S
C653 C654 1.398 . S
C654 H642 0.950 . S
C654 C653 1.398 . S
C654 C655 1.391 . S
C655 H643 0.950 . S
C655 C651 1.393 . S
C655 C654 1.391 . S
H656 C664 0.950 . S
H657 C669 0.950 . S
H658 C666 0.950 . S
H659 C668 0.950 . S
H660 C670 0.950 . S
H661 C672 0.950 1_655 S
H662 C674 0.950 . S
H663 C675 0.950 . S
C664 H656 0.950 . S
C664 C665 1.386 1_455 S
C664 C666 1.391 . S
C665 C664 1.386 1_655 S
C665 C669 1.393 . S
C666 H658 0.950 . S
C666 C664 1.391 . S
C666 C667 1.400 . S
C667 C666 1.400 . S
C667 C668 1.398 1_455 S
C667 C673 1.491 . S
C668 H659 0.950 . S
C668 C667 1.398 1_655 S
C668 C669 1.391 . S
C669 H657 0.950 . S
C669 C665 1.393 . S
C669 C668 1.391 . S
C670 H660 0.950 . S
C670 C671 1.386 . S
C670 C672 1.391 1_556 S
C671 C670 1.386 . S
C671 C675 1.393 1_556 S
C672 H661 0.950 1_455 S
C672 C670 1.391 1_554 S
C672 C673 1.400 . S
C673 C667 1.491 . S
C673 C672 1.400 . S
C673 C674 1.398 . S
C674 H662 0.950 . S
C674 C673 1.398 . S
C674 C675 1.391 . S
C675 H663 0.950 . S
C675 C671 1.393 1_554 S
C675 C674 1.391 . S
H676 C684 0.950 . S
H677 C689 0.950 . S
H678 C686 0.950 . S
H679 C688 0.950 . S
H680 C690 0.950 . S
H681 C692 0.950 . S
H682 C694 0.950 . S
H683 C695 0.950 . S
C684 H676 0.950 . S
C684 C685 1.386 . S
C684 C686 1.391 1_565 S
C685 C684 1.386 . S
C685 C689 1.393 1_565 S
C686 H678 0.950 . S
C686 C684 1.391 1_545 S
C686 C687 1.400 . S
C687 C686 1.400 . S
C687 C688 1.398 . S
C687 C693 1.491 . S
C688 H679 0.950 . S
C688 C687 1.398 . S
C688 C689 1.391 . S
C689 H677 0.950 . S
C689 C685 1.393 1_545 S
C689 C688 1.391 . S
C690 H680 0.950 . S
C690 C691 1.386 1_554 S
C690 C692 1.391 . S
C691 C690 1.386 1_556 S
C691 C695 1.393 . S
C692 H681 0.950 . S
C692 C690 1.391 . S
C692 C693 1.400 . S
C693 C687 1.491 . S
C693 C692 1.400 . S
C693 C694 1.398 1_554 S
C694 H682 0.950 . S
C694 C693 1.398 1_556 S
C694 C695 1.391 . S
C695 H683 0.950 . S
C695 C691 1.393 . S
C695 C694 1.391 . S
H696 C704 0.950 . S
H697 C709 0.950 . S
H698 C706 0.950 . S
H699 C708 0.950 . S
H700 C710 0.950 . S
H701 C712 0.950 1_556 S
H702 C714 0.950 . S
H703 C715 0.950 . S
C704 H696 0.950 . S
C704 C705 1.386 . S
C704 C706 1.391 . S
C705 C704 1.386 . S
C705 C709 1.393 . S
C706 H698 0.950 . S
C706 C704 1.391 . S
C706 C707 1.400 . S
C707 C706 1.400 . S
C707 C708 1.398 . S
C707 C713 1.491 . S
C708 H699 0.950 . S
C708 C707 1.398 . S
C708 C709 1.391 . S
C709 H697 0.950 . S
C709 C705 1.393 . S
C709 C708 1.391 . S
C710 H700 0.950 . S
C710 C711 1.386 . S
C710 C712 1.391 1_556 S
C711 C710 1.386 . S
C711 C715 1.393 1_556 S
C712 H701 0.950 1_554 S
C712 C710 1.391 1_554 S
C712 C713 1.400 . S
C713 C707 1.491 . S
C713 C712 1.400 . S
C713 C714 1.398 . S
C714 H702 0.950 . S
C714 C713 1.398 . S
C714 C715 1.391 . S
C715 H703 0.950 . S
C715 C711 1.393 1_554 S
C715 C714 1.391 . S
H716 C724 0.950 . S
H717 C729 0.950 . S
H718 C726 0.950 . S
H719 C728 0.950 . S
H720 C730 0.950 . S
H721 C732 0.950 . S
H722 C734 0.950 . S
H723 C735 0.950 . S
C724 H716 0.950 . S
C724 C725 1.386 . S
C724 C726 1.391 . S
C725 C724 1.386 . S
C725 C729 1.393 . S
C726 H718 0.950 . S
C726 C724 1.391 . S
C726 C727 1.400 . S
C727 C726 1.400 . S
C727 C728 1.398 . S
C727 C733 1.491 . S
C728 H719 0.950 . S
C728 C727 1.398 . S
C728 C729 1.391 . S
C729 H717 0.950 . S
C729 C725 1.393 . S
C729 C728 1.391 . S
C730 H720 0.950 . S
C730 C731 1.386 1_554 S
C730 C732 1.391 . S
C731 C730 1.386 1_556 S
C731 C735 1.393 . S
C732 H721 0.950 . S
C732 C730 1.391 . S
C732 C733 1.400 . S
C733 C727 1.491 . S
C733 C732 1.400 . S
C733 C734 1.397 1_554 S
C734 H722 0.950 . S
C734 C733 1.397 1_556 S
C734 C735 1.391 . S
C735 H723 0.950 . S
C735 C731 1.393 . S
C735 C734 1.391 . S
H736 C744 0.950 . S
H737 C749 0.950 . S
H738 C746 0.950 . S
H739 C748 0.950 . S
H740 C750 0.950 . S
H741 C752 0.950 . S
H742 C754 0.950 . S
H743 C755 0.950 . S
C744 H736 0.950 . S
C744 C745 1.386 1_655 S
C744 C746 1.391 . S
C745 C744 1.386 1_455 S
C745 C749 1.393 . S
C746 H738 0.950 . S
C746 C744 1.391 . S
C746 C747 1.400 1_655 S
C747 C746 1.400 1_455 S
C747 C748 1.398 . S
C747 C753 1.491 . S
C748 H739 0.950 . S
C748 C747 1.398 . S
C748 C749 1.391 . S
C749 H737 0.950 . S
C749 C745 1.393 . S
C749 C748 1.391 . S
C750 H740 0.950 . S
C750 C751 1.386 . S
C750 C752 1.391 . S
C751 C750 1.386 . S
C751 C755 1.393 1_455 S
C752 H741 0.950 . S
C752 C750 1.391 . S
C752 C753 1.400 . S
C753 C747 1.491 . S
C753 C752 1.400 . S
C753 C754 1.398 1_455 S
C754 H742 0.950 . S
C754 C753 1.398 1_655 S
C754 C755 1.391 . S
C755 H743 0.950 . S
C755 C751 1.393 1_655 S
C755 C754 1.391 . S
H756 C764 0.950 . S
H757 C769 0.950 . S
H758 C766 0.950 . S
H759 C768 0.950 . S
H760 C770 0.950 . S
H761 C772 0.950 . S
H762 C774 0.950 . S
H763 C775 0.950 . S
C764 H756 0.950 . S
C764 C765 1.386 . S
C764 C766 1.391 . S
C765 C764 1.386 . S
C765 C769 1.393 1_545 S
C766 H758 0.950 . S
C766 C764 1.391 . S
C766 C767 1.400 . S
C767 C766 1.400 . S
C767 C768 1.398 1_545 S
C767 C773 1.491 . S
C768 H759 0.950 . S
C768 C767 1.398 1_565 S
C768 C769 1.391 . S
C769 H757 0.950 . S
C769 C765 1.393 1_565 S
C769 C768 1.391 . S
C770 H760 0.950 . S
C770 C771 1.386 1_565 S
C770 C772 1.391 . S
C771 C770 1.386 1_545 S
C771 C775 1.393 . S
C772 H761 0.950 . S
C772 C770 1.391 . S
C772 C773 1.400 1_565 S
C773 C767 1.491 . S
C773 C772 1.400 1_545 S
C773 C774 1.398 . S
C774 H762 0.950 . S
C774 C773 1.398 . S
C774 C775 1.391 . S
C775 H763 0.950 . S
C775 C771 1.393 . S
C775 C774 1.391 . S
H776 C784 0.950 . S
H777 C789 0.950 . S
H778 C786 0.950 . S
H779 C788 0.950 . S
H780 C790 0.950 . S
H781 C792 0.950 . S
H782 C794 0.950 . S
H783 C795 0.950 . S
C784 H776 0.950 . S
C784 C785 1.386 . S
C784 C786 1.391 . S
C785 C784 1.386 . S
C785 C789 1.393 . S
C786 H778 0.950 . S
C786 C784 1.391 . S
C786 C787 1.400 . S
C787 C786 1.400 . S
C787 C788 1.398 . S
C787 C793 1.491 . S
C788 H779 0.950 . S
C788 C787 1.398 . S
C788 C789 1.391 . S
C789 H777 0.950 . S
C789 C785 1.393 . S
C789 C788 1.391 . S
C790 H780 0.950 . S
C790 C791 1.386 . S
C790 C792 1.391 . S
C791 C790 1.386 . S
C791 C795 1.393 . S
C792 H781 0.950 . S
C792 C790 1.391 . S
C792 C793 1.400 . S
C793 C787 1.491 . S
C793 C792 1.400 . S
C793 C794 1.398 . S
C794 H782 0.950 . S
C794 C793 1.398 . S
C794 C795 1.391 . S
C795 H783 0.950 . S
C795 C791 1.393 . S
C795 C794 1.391 . S
H796 C804 0.950 . S
H797 C809 0.950 . S
H798 C806 0.950 . S
H799 C808 0.950 . S
H800 C810 0.950 . S
H801 C812 0.950 . S
H802 C814 0.950 . S
H803 C815 0.950 . S
C804 H796 0.950 . S
C804 C805 1.386 . S
C804 C806 1.391 . S
C805 C804 1.386 . S
C805 C809 1.393 . S
C806 H798 0.950 . S
C806 C804 1.391 . S
C806 C807 1.400 . S
C807 C806 1.400 . S
C807 C808 1.398 . S
C807 C813 1.491 . S
C808 H799 0.950 . S
C808 C807 1.398 . S
C808 C809 1.391 . S
C809 H797 0.950 . S
C809 C805 1.393 . S
C809 C808 1.391 . S
C810 H800 0.950 . S
C810 C811 1.386 . S
C810 C812 1.391 . S
C811 C810 1.386 . S
C811 C815 1.393 . S
C812 H801 0.950 . S
C812 C810 1.391 . S
C812 C813 1.400 . S
C813 C807 1.491 . S
C813 C812 1.400 . S
C813 C814 1.398 . S
C814 H802 0.950 . S
C814 C813 1.398 . S
C814 C815 1.391 . S
C815 H803 0.950 . S
C815 C811 1.393 . S
C815 C814 1.391 . S
H816 C824 0.950 . S
H817 C829 0.950 . S
H818 C826 0.959 . S
H819 C828 0.950 . S
H820 C830 0.950 . S
H821 C832 0.950 . S
H822 C834 0.961 . S
H823 C835 0.950 . S
C824 H816 0.950 . S
C824 C825 1.386 1_455 S
C824 C826 1.395 . S
C825 C824 1.386 1_655 S
C825 C829 1.393 . S
C826 H818 0.959 . S
C826 C824 1.395 . S
C826 C827 1.390 1_455 S
C827 C826 1.390 1_655 S
C827 C828 1.398 . S
C827 C833 1.491 . S
C828 H819 0.950 . S
C828 C827 1.398 . S
C828 C829 1.391 . S
C829 H817 0.950 . S
C829 C825 1.393 . S
C829 C828 1.391 . S
C830 H820 0.950 . S
C830 C831 1.386 . S
C830 C832 1.391 . S
C831 C830 1.386 . S
C831 C835 1.393 . S
C832 H821 0.950 . S
C832 C830 1.391 . S
C832 C833 1.400 . S
C833 C827 1.491 . S
C833 C832 1.400 . S
C833 C834 1.398 . S
C834 H822 0.961 . S
C834 C833 1.398 . S
C834 C835 1.391 . S
C835 H823 0.950 . S
C835 C831 1.393 . S
C835 C834 1.391 . S
H836 C844 0.946 1_545 S
H837 C849 0.950 . S
H838 C846 0.950 1_545 S
H839 C848 0.950 . S
H840 C850 0.950 . S
H841 C852 0.950 . S
H842 C854 0.948 1_545 S
H843 C855 0.950 . S
C844 H836 0.946 1_565 S
C844 C845 1.389 . S
C844 C846 1.393 . S
C845 C844 1.389 . S
C845 C849 1.393 . S
C846 H838 0.950 1_565 S
C846 C844 1.393 . S
C846 C847 1.400 . S
C847 C846 1.400 . S
C847 C848 1.398 . S
C847 C853 1.491 . S
C848 H839 0.950 . S
C848 C847 1.398 . S
C848 C849 1.391 . S
C849 H837 0.950 . S
C849 C845 1.393 . S
C849 C848 1.391 . S
C850 H840 0.950 . S
C850 C851 1.386 . S
C850 C852 1.391 . S
C851 C850 1.386 . S
C851 C855 1.393 . S
C852 H841 0.950 . S
C852 C850 1.391 . S
C852 C853 1.400 . S
C853 C847 1.491 . S
C853 C852 1.400 . S
C853 C854 1.398 . S
C854 H842 0.948 1_565 S
C854 C853 1.398 . S
C854 C855 1.391 . S
C855 H843 0.950 . S
C855 C851 1.393 . S
C855 C854 1.391 . S
H856 C864 0.950 . S
H857 C869 0.950 . S
H858 C866 0.950 . S
H859 C868 0.950 . S
H860 C870 0.950 . S
H861 C872 0.950 . S
H862 C874 0.950 . S
H863 C875 0.950 . S
C864 H856 0.950 . S
C864 C865 1.386 . S
C864 C866 1.391 . S
C865 C864 1.386 . S
C865 C869 1.393 . S
C866 H858 0.950 . S
C866 C864 1.391 . S
C866 C867 1.400 . S
C867 C866 1.400 . S
C867 C868 1.398 . S
C867 C873 1.491 . S
C868 H859 0.950 . S
C868 C867 1.398 . S
C868 C869 1.391 . S
C869 H857 0.950 . S
C869 C865 1.393 . S
C869 C868 1.391 . S
C870 H860 0.950 . S
C870 C871 1.386 . S
C870 C872 1.391 . S
C871 C870 1.386 . S
C871 C875 1.393 . S
C872 H861 0.950 . S
C872 C870 1.391 . S
C872 C873 1.400 . S
C873 C867 1.491 . S
C873 C872 1.400 . S
C873 C874 1.398 . S
C874 H862 0.950 . S
C874 C873 1.398 . S
C874 C875 1.391 . S
C875 H863 0.950 . S
C875 C871 1.393 . S
C875 C874 1.391 . S
H876 C884 0.950 . S
H877 C889 0.950 . S
H878 C886 0.950 . S
H879 C888 0.950 . S
H880 C890 0.950 . S
H881 C892 0.950 . S
H882 C894 0.950 . S
H883 C895 0.950 . S
C884 H876 0.950 . S
C884 C885 1.386 . S
C884 C886 1.391 . S
C885 C884 1.386 . S
C885 C889 1.393 . S
C886 H878 0.950 . S
C886 C884 1.391 . S
C886 C887 1.400 . S
C887 C886 1.400 . S
C887 C888 1.398 . S
C887 C893 1.491 . S
C888 H879 0.950 . S
C888 C887 1.398 . S
C888 C889 1.391 . S
C889 H877 0.950 . S
C889 C885 1.393 . S
C889 C888 1.391 . S
C890 H880 0.950 . S
C890 C891 1.386 . S
C890 C892 1.391 . S
C891 C890 1.386 . S
C891 C895 1.393 . S
C892 H881 0.950 . S
C892 C890 1.391 . S
C892 C893 1.400 . S
C893 C887 1.491 . S
C893 C892 1.400 . S
C893 C894 1.398 . S
C894 H882 0.950 . S
C894 C893 1.398 . S
C894 C895 1.391 . S
C895 H883 0.950 . S
C895 C891 1.393 . S
C895 C894 1.391 . S
C425 C215 1.988 1_565 S
C431 C265 2.153 1_545 S
C451 C305 2.158 . S
C445 C247 1.977 . S
C471 C345 2.168 . S
C465 C151 1.998 . S
C491 C385 2.157 1_455 S
C485 C183 2.000 1_655 S
C511 C274 2.154 1_565 S
C505 C87 1.984 . S
C525 C119 1.996 . S
C531 C314 2.163 . S
C545 C23 2.018 . S
C551 C354 2.167 . S
C565 C55 1.983 . S
C571 C394 2.154 1_655 S
C591 C271 0.422 . S
C585 C189 0.401 . S
C611 C311 0.444 . S
C605 C221 0.416 . S
C631 C351 0.459 . S
C625 C253 0.382 . S
C645 C157 0.388 . S
C651 C391 0.420 . S
C665 C61 0.556 1_655 S
C671 C262 0.452 . S
C691 C302 0.497 . S
C685 C93 0.578 1_565 S
C711 C342 0.445 . S
C705 C125 0.536 . S
C725 C29 0.581 . S
C731 C382 0.491 . S
C745 C177 2.505 . S
C751 C275 2.799 . S
C765 C209 2.460 . S
C771 C315 2.781 . S
C791 C355 2.765 . S
C785 C241 2.454 . S
C811 C395 2.796 . S
C805 C145 2.485 . S
C825 C49 2.510 1_655 S
C831 C266 2.811 . S
C851 C306 2.775 . S
C845 C81 2.502 1_565 S
C871 C346 2.765 . S
C865 C113 2.497 . S
C885 C17 2.518 . S
C891 C386 2.792 . S
