# Generated by pormake.
# Topology anh, (6,3)-cn, num edge types: 1
# Building blocks:
#     Node 0, Type 0, BuildingBlock: CUKXOW_clean_sbu_0, # of connection points: 6
#     Node 1, Type 0, BuildingBlock: CUKXOW_clean_sbu_0, # of connection points: 6
#     Node 2, Type 0, BuildingBlock: CUKXOW_clean_sbu_0, # of connection points: 6
#     Node 3, Type 1, BuildingBlock: MIDCAF_clean_linker_0, # of connection points: 3
#     Node 4, Type 1, BuildingBlock: MIDCAF_clean_linker_0, # of connection points: 3
#     Node 5, Type 1, BuildingBlock: MIDCAF_clean_linker_0, # of connection points: 3
#     Node 6, Type 1, BuildingBlock: MIDCAF_clean_linker_0, # of connection points: 3
#     Node 7, Type 1, BuildingBlock: MIDCAF_clean_linker_0, # of connection points: 3
#     Node 8, Type 1, BuildingBlock: MIDCAF_clean_linker_0, # of connection points: 3
#     Edge 9, Type (0, 1), BuildingBlock: OJICUG_clean_linker_0, # of connection points: 2
#     Edge 10, Type (0, 1), BuildingBlock: OJICUG_clean_linker_0, # of connection points: 2
#     Edge 11, Type (0, 1), BuildingBlock: OJICUG_clean_linker_0, # of connection points: 2
#     Edge 12, Type (0, 1), BuildingBlock: OJICUG_clean_linker_0, # of connection points: 2
#     Edge 13, Type (0, 1), BuildingBlock: OJICUG_clean_linker_0, # of connection points: 2
#     Edge 14, Type (0, 1), BuildingBlock: OJICUG_clean_linker_0, # of connection points: 2
#     Edge 15, Type (0, 1), BuildingBlock: OJICUG_clean_linker_0, # of connection points: 2
#     Edge 16, Type (0, 1), BuildingBlock: OJICUG_clean_linker_0, # of connection points: 2
#     Edge 17, Type (0, 1), BuildingBlock: OJICUG_clean_linker_0, # of connection points: 2
#     Edge 18, Type (0, 1), BuildingBlock: OJICUG_clean_linker_0, # of connection points: 2
#     Edge 19, Type (0, 1), BuildingBlock: OJICUG_clean_linker_0, # of connection points: 2
#     Edge 20, Type (0, 1), BuildingBlock: OJICUG_clean_linker_0, # of connection points: 2
#     Edge 21, Type (0, 1), BuildingBlock: OJICUG_clean_linker_0, # of connection points: 2
#     Edge 22, Type (0, 1), BuildingBlock: OJICUG_clean_linker_0, # of connection points: 2
#     Edge 23, Type (0, 1), BuildingBlock: OJICUG_clean_linker_0, # of connection points: 2
#     Edge 24, Type (0, 1), BuildingBlock: OJICUG_clean_linker_0, # of connection points: 2
#     Edge 25, Type (0, 1), BuildingBlock: OJICUG_clean_linker_0, # of connection points: 2
#     Edge 26, Type (0, 1), BuildingBlock: OJICUG_clean_linker_0, # of connection points: 2
# Relax obj value: 0.137
# Max RMSD: 0.194
# Mean RMSD: 0.141
data_MOF--net-anh--node1-CUKXOW_clean_sbu_0--node2-MIDCAF_clean_linker_0--edge1-OJICUG_clean_linker_0
_symmetry_space_group_name_H-M    P1
_symmetry_Int_Tables_number       1
_symmetry_cell_setting            triclinic
loop_
_symmetry_equiv_pos_as_xyz
'x, y, z'
_cell_length_a     26.838232
_cell_length_b     26.001389
_cell_length_c     50.683718
_cell_angle_alpha  95.756085
_cell_angle_beta   90.438715
_cell_angle_gamma 112.36671
loop_
_atom_site_label
_atom_site_type_symbol
_atom_site_fract_x
_atom_site_fract_y
_atom_site_fract_z
_atom_type_partial_charge
Tb0 Tb 0.08947 0.53418 0.14681 0.0
C1 C 0.06336 0.49362 0.20346 0.0
Tb2 Tb 1.01902 0.4072 0.15154 0.0
O3 O 1.0222 0.5578 0.15968 0.0
O4 O 1.00669 0.47866 0.1403 0.0
O5 O 0.09497 0.53312 0.18957 0.0
C6 C 0.92841 0.32098 0.15858 0.0
O7 O 0.0286 0.44433 0.19255 0.0
C8 C 0.12484 0.42817 0.1535 0.0
C9 C 0.0484 0.44643 0.09493 0.0
O10 O 0.94282 0.37143 0.17042 0.0
O11 O 0.96574 0.31839 0.14282 0.0
O12 O 0.08749 0.37894 0.15553 0.0
O13 O 0.09987 0.46006 0.15152 0.0
O14 O 1.01513 0.4081 0.1089 0.0
O15 O 0.08304 0.49638 0.10571 0.0
C16 C 0.17474 0.62768 0.14159 0.0
O17 O 0.12523 0.61887 0.13434 0.0
O18 O 0.17569 0.58418 0.15165 0.0
C19 C 0.98456 0.50882 0.1524 0.0
Tb20 Tb 0.49258 0.00718 0.50279 0.0
C21 C 0.54482 0.03145 0.44764 0.0
Tb22 Tb 0.61573 0.089 0.50139 0.0
O23 O 0.46829 0.07198 0.48882 0.0
O24 O 0.54064 0.09353 0.51081 0.0
O25 O 0.50486 0.99733 0.46053 0.0
C26 C 0.69654 0.1856 0.49705 0.0
O27 O 0.58839 0.07209 0.45959 0.0
C28 C 0.60278 0.9825 0.49825 0.0
C29 C 0.56577 0.05677 0.55644 0.0
O30 O 0.649 0.16892 0.48535 0.0
O31 O 0.69918 0.14736 0.51111 0.0
O32 O 0.64995 0.02302 0.49791 0.0
O33 O 0.56883 0.0048 0.49947 0.0
O34 O 0.60427 0.09364 0.54385 0.0
O35 O 0.52187 0.01693 0.54415 0.0
C36 C 0.40078 0.92146 0.50806 0.0
O37 O 0.41013 0.97348 0.51618 0.0
O38 O 0.44286 0.91795 0.49686 0.0
C39 C 0.51288 0.11274 0.49779 0.0
Tb40 Tb 0.53562 0.57267 0.83162 0.0
C41 C 0.59625 0.58774 0.88816 0.0
Tb42 Tb 0.65183 0.58079 0.83393 0.0
O43 O 0.50349 0.48116 0.82183 0.0
O44 O 0.57627 0.52288 0.84329 0.0
O45 O 0.55457 0.59041 0.87469 0.0
C46 C 0.72446 0.5363 0.82451 0.0
O47 O 0.63662 0.57858 0.87617 0.0
C48 C 0.64064 0.6767 0.83526 0.0
C49 C 0.59182 0.56779 0.7776 0.0
O50 O 0.73538 0.58636 0.83661 0.0
O51 O 0.67356 0.51232 0.81802 0.0
O52 O 0.68403 0.67225 0.84472 0.0
O53 O 0.61117 0.63056 0.82284 0.0
O54 O 0.63405 0.56662 0.7909 0.0
O55 O 0.55172 0.57667 0.78966 0.0
C56 C 0.45032 0.60019 0.8319 0.0
O57 O 0.45324 0.55623 0.81867 0.0
O58 O 0.49462 0.62759 0.84616 0.0
C59 C 0.54624 0.47633 0.8315 0.0
C60 C 0.35123 0.86855 0.1831 0.0
C61 C 0.35848 0.83427 0.1615 0.0
C62 C 0.41069 0.84649 0.15231 0.0
C63 C 0.45508 0.89068 0.16529 0.0
H64 H 0.60896 0.04674 0.15784 0.0
H65 H 0.69292 0.1142 0.14236 0.0
H66 H 0.75985 0.15839 0.22294 0.0
H67 H 0.67787 0.09203 0.23838 0.0
H68 H 0.59283 0.09036 0.28333 0.0
H69 H 0.59262 0.09651 0.3314 0.0
H70 H 0.46696 0.93085 0.32624 0.0
H71 H 0.46562 0.92583 0.27786 0.0
H72 H 0.38881 0.93588 0.21365 0.0
H73 H 0.31165 0.85984 0.19081 0.0
H74 H 0.41733 0.8207 0.13567 0.0
H75 H 0.49511 0.89789 0.1585 0.0
N76 N 0.54186 0.99299 0.19395 0.0
N77 N 0.57907 0.03333 0.23669 0.0
N78 N 0.49064 0.96738 0.23152 0.0
C79 C 0.58434 0.02889 0.21005 0.0
C80 C 0.53276 1.00282 0.2476 0.0
C81 C 0.49469 0.96239 0.20472 0.0
C82 C 0.63609 0.0645 0.19942 0.0
C83 C 0.6419 0.07035 0.17216 0.0
C84 C 0.68987 0.10874 0.16328 0.0
C85 C 0.73234 0.1419 0.18157 0.0
C86 C 0.72736 0.13398 0.2085 0.0
C87 C 0.68009 0.09581 0.21729 0.0
C88 C 0.52951 0.00744 0.27679 0.0
C89 C 0.56491 0.05533 0.29243 0.0
C90 C 0.56505 0.05867 0.32005 0.0
C91 C 0.53043 0.0138 0.3328 0.0
C92 C 0.49392 0.9664 0.31713 0.0
C93 C 0.49323 0.9634 0.28939 0.0
C94 C 0.44799 0.92241 0.18799 0.0
C95 C 0.39552 0.91181 0.19632 0.0
C96 C 0.50502 0.36268 0.50446 0.0
C97 C 0.55039 0.34808 0.5022 0.0
C98 C 0.6021 0.39092 0.50637 0.0
C99 C 0.60815 0.44594 0.51488 0.0
H100 H 0.59278 0.63845 0.49217 0.0
H101 H 0.59537 0.72712 0.47803 0.0
H102 H 0.55177 0.77277 0.55617 0.0
H103 H 0.54869 0.68536 0.57007 0.0
H104 H 0.62895 0.64639 0.61607 0.0
H105 H 0.63425 0.64649 0.66432 0.0
H106 H 0.54346 0.46816 0.65579 0.0
H107 H 0.53923 0.46746 0.60744 0.0
H108 H 0.4756 0.42715 0.51645 0.0
H109 H 0.46459 0.33087 0.50171 0.0
H110 H 0.63795 0.38145 0.50437 0.0
H111 H 0.64826 0.47724 0.51996 0.0
N112 N 0.56778 0.5572 0.52549 0.0
N113 N 0.57832 0.60303 0.56881 0.0
N114 N 0.57375 0.51111 0.5624 0.0
C115 C 0.57256 0.60363 0.5422 0.0
C116 C 0.57889 0.55712 0.57903 0.0
C117 C 0.56854 0.51093 0.53574 0.0
C118 C 0.57085 0.65484 0.53228 0.0
C119 C 0.58318 0.66725 0.50615 0.0
C120 C 0.58497 0.7181 0.49813 0.0
C121 C 0.57361 0.75695 0.51596 0.0
C122 C 0.56 0.74361 0.54179 0.0
C123 C 0.55874 0.69347 0.54984 0.0
C124 C 0.58365 0.55691 0.60804 0.0
C125 C 0.61041 0.60716 0.62448 0.0
C126 C 0.61369 0.60726 0.65199 0.0
C127 C 0.58923 0.55735 0.66354 0.0
C128 C 0.56254 0.50709 0.6472 0.0
C129 C 0.56034 0.50675 0.61963 0.0
C130 C 0.56273 0.45941 0.51888 0.0
C131 C 0.51119 0.41787 0.5128 0.0
C132 C 0.86009 0.38805 0.84136 0.0
C133 C 0.86796 0.42136 0.82043 0.0
C134 C 0.91642 0.43675 0.8074 0.0
C135 C 0.95924 0.42589 0.81759 0.0
H136 H 0.11609 0.5216 0.82338 0.0
H137 H 0.20323 0.58765 0.81167 0.0
H138 H 0.2705 0.58806 0.88952 0.0
H139 H 0.18407 0.52374 0.90139 0.0
H140 H 0.12562 0.40916 0.93105 0.0
H141 H 0.12531 0.40936 0.97906 0.0
H142 H 0.95439 0.37388 0.97629 0.0
H143 H 0.95446 0.3731 0.92806 0.0
H144 H 0.89777 0.35737 0.86979 0.0
H145 H 0.82266 0.37552 0.85155 0.0
H146 H 0.92279 0.46181 0.79096 0.0
H147 H 0.99771 0.44262 0.8085 0.0
N148 N 0.05046 0.45083 0.85174 0.0
N149 N 0.09069 0.44754 0.89213 0.0
N150 N 0.99995 0.3903 0.88167 0.0
C151 C 0.09411 0.46951 0.86882 0.0
C152 C 0.04409 0.40776 0.89867 0.0
C153 C 1.00332 0.41103 0.85784 0.0
C154 C 0.14386 0.51562 0.86292 0.0
C155 C 0.14925 0.53677 0.83818 0.0
C156 C 0.19893 0.57504 0.83154 0.0
C157 C 0.24392 0.59228 0.84947 0.0
C158 C 0.23673 0.57593 0.87522 0.0
C159 C 0.18723 0.5379 0.88186 0.0
C160 C 0.04024 0.39213 0.92592 0.0
C161 C 0.08767 0.39997 0.9406 0.0
C162 C 0.08761 0.40042 0.96807 0.0
C163 C 0.04015 0.39309 0.98136 0.0
C164 C 0.99159 0.3798 0.96649 0.0
C165 C 0.9916 0.3792 0.93888 0.0
C166 C 0.95432 0.40085 0.84133 0.0
C167 C 0.9032 0.37781 0.85182 0.0
C168 C 0.17093 0.748 0.46601 0.0
C169 C 0.19737 0.73992 0.48826 0.0
C170 C 0.17895 0.68703 0.49755 0.0
C171 C 0.13576 0.64234 0.48416 0.0
H172 H 0.98782 0.49159 0.49142 0.0
H173 H 0.91477 0.41498 0.50909 0.0
H174 H 0.83773 0.36031 0.43056 0.0
H175 H 0.90939 0.43582 0.41299 0.0
H176 H 0.96434 0.48555 0.36416 0.0
H177 H 0.97279 0.47373 0.31654 0.0
H178 H 0.13341 0.60252 0.32502 0.0
H179 H 0.12441 0.61561 0.37286 0.0
H180 H 0.11066 0.71 0.4345 0.0
H181 H 0.18487 0.78825 0.45829 0.0
H182 H 0.19906 0.67994 0.51461 0.0
H183 H 0.12325 0.6014 0.49108 0.0
N184 N 0.03406 0.55951 0.45531 0.0
N185 N 1.00112 0.51407 0.41273 0.0
N186 N 0.07501 0.59946 0.41743 0.0
C187 C 0.99785 0.51564 0.43948 0.0
C188 C 0.03963 0.55547 0.40153 0.0
C189 C 0.07233 0.60179 0.44426 0.0
C190 C 0.95446 0.46996 0.4508 0.0
C191 C 0.95515 0.46327 0.47799 0.0
C192 C 0.91359 0.4194 0.4881 0.0
C193 C 0.87047 0.3822 0.47121 0.0
C194 C 0.87002 0.38894 0.44411 0.0
C195 C 0.91146 0.43211 0.43402 0.0
C196 C 0.04387 0.55123 0.37238 0.0
C197 C 1.00145 0.51159 0.35594 0.0
C198 C 1.00642 0.50455 0.32861 0.0
C199 C 0.05412 0.53656 0.31701 0.0
C200 C 0.09604 0.57738 0.33332 0.0
C201 C 0.09091 0.58476 0.36074 0.0
C202 C 0.11171 0.64983 0.46092 0.0
C203 C 0.12886 0.70321 0.4523 0.0
C204 C 0.63423 0.27358 0.82123 0.0
C205 C 0.58331 0.27068 0.82926 0.0
C206 C 0.54276 0.21783 0.83151 0.0
C207 C 0.55197 0.16882 0.82427 0.0
H208 H 0.63503 0.01688 0.84389 0.0
H209 H 0.64062 0.93123 0.85805 0.0
H210 H 0.5812 0.84545 0.77981 0.0
H211 H 0.57412 0.92844 0.76621 0.0
H212 H 0.59051 0.98898 0.71858 0.0
H213 H 0.58155 0.98506 0.67061 0.0
H214 H 0.60224 0.15899 0.67816 0.0
H215 H 0.61177 0.16345 0.72636 0.0
H216 H 0.68116 0.22801 0.80529 0.0
H217 H 0.66602 0.3136 0.81906 0.0
H218 H 0.50319 0.21439 0.83772 0.0
H219 H 0.519 0.12861 0.82444 0.0
N220 N 0.60447 0.07685 0.80954 0.0
N221 N 0.60469 0.03274 0.76677 0.0
N222 N 0.60536 0.12306 0.77168 0.0
C223 C 0.60473 0.03147 0.79348 0.0
C224 C 0.60493 0.07797 0.75568 0.0
C225 C 0.60512 0.12293 0.79846 0.0
C226 C 0.60432 0.97981 0.80389 0.0
C227 C 0.62239 0.97931 0.82997 0.0
C228 C 0.62604 0.93045 0.83798 0.0
C229 C 0.6111 0.88121 0.82013 0.0
C230 C 0.5921 0.88194 0.79434 0.0
C231 C 0.58857 0.93015 0.78642 0.0
C232 C 0.60179 0.07657 0.72642 0.0
C233 C 0.59346 0.02661 0.71013 0.0
C234 C 0.58791 0.02414 0.6826 0.0
C235 C 0.59086 0.07159 0.67068 0.0
C236 C 0.60012 0.12185 0.68684 0.0
C237 C 0.60536 0.12428 0.71445 0.0
C238 C 0.60157 0.17193 0.81434 0.0
C239 C 0.64302 0.22465 0.81351 0.0
C240 C 0.72804 0.44987 0.11622 0.0
C241 C 0.75561 0.47632 0.14067 0.0
C242 C 0.7284 0.50008 0.15894 0.0
C243 C 0.67672 0.49953 0.1524 0.0
H244 H 0.47356 0.57176 0.12623 0.0
H245 H 0.38187 0.55891 0.1373 0.0
H246 H 0.34861 0.38601 0.14748 0.0
H247 H 0.44198 0.40069 0.13781 0.0
H248 H 0.51215 0.56624 0.05512 0.0
H249 H 0.52137 0.59206 0.0099 0.0
H250 H 0.64328 0.52219 -0.00187 0.0
H251 H 0.63571 0.4988 0.04339 0.0
H252 H 0.65887 0.43125 0.09009 0.0
H253 H 0.747 0.43166 0.10132 0.0
H254 H 0.74754 0.52032 0.17813 0.0
H255 H 0.65852 0.5207 0.16634 0.0
N256 N 0.55826 0.48162 0.13042 0.0
N257 N 0.52366 0.51032 0.09407 0.0
N258 N 0.60726 0.50218 0.09184 0.0
C259 C 0.51776 0.49356 0.11884 0.0
C260 C 0.56797 0.51439 0.08039 0.0
C261 C 0.60372 0.48643 0.1167 0.0
C262 C 0.46581 0.48765 0.13161 0.0
C263 C 0.44708 0.53142 0.13165 0.0
C264 C 0.39366 0.52353 0.13753 0.0
C265 C 0.35599 0.4709 0.1429 0.0
C266 C 0.37555 0.4275 0.14381 0.0
C267 C 0.42959 0.43584 0.13838 0.0
C268 C 0.57324 0.53054 0.05296 0.0
C269 C 0.54106 0.55665 0.04287 0.0
C270 C 0.54622 0.57125 0.01686 0.0
C271 C 0.58324 0.55948 0.0002 0.0
C272 C 0.61525 0.53326 0.01041 0.0
C273 C 0.61059 0.51938 0.03644 0.0
C274 C 0.6509 0.47555 0.12733 0.0
C275 C 0.67702 0.44969 0.1097 0.0
C276 C 0.20834 0.40952 0.16399 0.0
C277 C 0.18429 0.44131 0.15181 0.0
H278 H 0.28005 0.39462 0.17184 0.0
C279 C 0.21702 0.48301 0.13682 0.0
H280 H 0.18436 0.37677 0.17558 0.0
C281 C 0.27206 0.49265 0.13408 0.0
C282 C 0.29676 0.46119 0.14643 0.0
H283 H 0.19961 0.50681 0.12626 0.0
H284 H 0.29468 0.52395 0.12153 0.0
C285 C 0.26355 0.41958 0.16159 0.0
C286 C 0.79365 0.25061 0.50303 0.0
C287 C 0.74075 0.2388 0.49349 0.0
H288 H 0.87687 0.30611 0.50343 0.0
C289 C 0.73027 0.27722 0.4791 0.0
H290 H 0.80253 0.22161 0.5143 0.0
C291 C 0.77233 0.32524 0.47305 0.0
C292 C 0.82574 0.33578 0.48124 0.0
H293 H 0.68966 0.26947 0.47187 0.0
H294 H 0.76325 0.35348 0.46131 0.0
C295 C 0.83598 0.29895 0.49695 0.0
C296 C 0.5852 0.72751 0.82053 0.0
C297 C 0.63179 0.72925 0.83399 0.0
H298 H 0.54082 0.77333 0.8069 0.0
C299 C 0.66978 0.78132 0.84507 0.0
H300 H 0.55533 0.68819 0.81158 0.0
C301 C 0.66217 0.83092 0.84174 0.0
C302 C 0.61627 0.82914 0.82739 0.0
H303 H 0.70607 0.78386 0.85559 0.0
H304 H 0.69325 0.87065 0.84941 0.0
C305 C 0.57719 0.77658 0.81759 0.0
C306 C 0.90662 0.53856 0.16251 0.0
C307 C 0.92523 0.49768 0.15134 0.0
H308 H 0.84008 0.56451 0.16797 0.0
C309 C 0.88687 0.44796 0.13817 0.0
H310 H 0.9348 0.57744 0.17282 0.0
C311 C 0.83196 0.44018 0.13556 0.0
C312 C 0.81341 0.48193 0.14596 0.0
H313 H 0.89942 0.41539 0.12937 0.0
H314 H 0.80408 0.40136 0.12509 0.0
C315 C 0.85182 0.53088 0.15988 0.0
C316 C 0.34591 0.81934 0.50315 0.0
C317 C 0.3486 0.87442 0.50815 0.0
H318 H 0.29497 0.73295 0.49361 0.0
C319 C 0.30077 0.88414 0.51044 0.0
H320 H 0.38239 0.81094 0.50142 0.0
C321 C 0.25083 0.83964 0.50565 0.0
C322 C 0.24822 0.78485 0.4991 0.0
H323 H 0.30199 0.92635 0.51429 0.0
H324 H 0.21437 0.84824 0.50585 0.0
C325 C 0.29602 0.77479 0.49889 0.0
C326 C 0.51751 0.37332 0.81855 0.0
C327 C 0.55382 0.42301 0.83258 0.0
H328 H 0.49814 0.28609 0.8068 0.0
C329 C 0.5977 0.42131 0.84729 0.0
H330 H 0.48313 0.37326 0.80719 0.0
C331 C 0.60671 0.37158 0.84681 0.0
C332 C 0.57116 0.32216 0.8322 0.0
H333 H 0.62573 0.45869 0.85878 0.0
H334 H 0.64178 0.37186 0.85765 0.0
C335 C 0.52592 0.32336 0.81847 0.0
C336 C 0.63021 0.90053 0.49134 0.0
C337 C 0.59269 0.92317 0.50032 0.0
H338 H 0.65325 0.82976 0.48888 0.0
C339 C 0.5473 0.88974 0.51291 0.0
H340 H 0.66582 0.92572 0.48174 0.0
C341 C 0.53985 0.83491 0.51685 0.0
C342 C 0.57799 0.81242 0.50851 0.0
H343 H 0.51892 0.9068 0.52091 0.0
H344 H 0.50484 0.81055 0.52709 0.0
C345 C 0.62278 0.84551 0.49523 0.0
C346 C 0.81764 0.5379 0.82418 0.0
C347 C 0.76199 0.50799 0.82042 0.0
H348 H 0.89528 0.53301 0.82628 0.0
C349 C 0.74157 0.44964 0.8137 0.0
H350 H 0.83408 0.58288 0.82925 0.0
C351 C 0.77629 0.4211 0.81227 0.0
C352 C 0.83182 0.45082 0.81689 0.0
H353 H 0.69858 0.42575 0.8106 0.0
H354 H 0.75984 0.37588 0.80838 0.0
C355 C 0.85245 0.50948 0.8222 0.0
C356 C 0.27401 0.68038 0.1453 0.0
C357 C 0.22213 0.68051 0.14174 0.0
H358 H 0.35803 0.72919 0.1538 0.0
C359 C 0.21614 0.73173 0.14125 0.0
H360 H 0.27967 0.64134 0.14567 0.0
C361 C 0.26107 0.7822 0.14619 0.0
C362 C 0.31269 0.78208 0.15118 0.0
H363 H 0.1765 0.73285 0.13859 0.0
H364 H 0.25521 0.82131 0.14711 0.0
C365 C 0.31892 0.73065 0.14976 0.0
C366 C 0.49215 0.1907 0.4815 0.0
C367 C 0.52481 0.17295 0.49704 0.0
H368 H 0.47523 0.26005 0.47036 0.0
C369 C 0.56772 0.21322 0.51291 0.0
H370 H 0.45886 0.16047 0.46902 0.0
C371 C 0.57711 0.27003 0.51373 0.0
C372 C 0.54368 0.28807 0.49875 0.0
H373 H 0.5932 0.20073 0.52535 0.0
H374 H 0.60931 0.29955 0.52703 0.0
C375 C 0.50148 0.24769 0.48233 0.0
C376 C 0.39439 0.64884 0.85293 0.0
C377 C 0.402 0.6132 0.83213 0.0
H378 H 0.33644 0.67229 0.87435 0.0
C379 C 0.36015 0.58408 0.81307 0.0
H380 H 0.42676 0.67262 0.86752 0.0
C381 C 0.30901 0.58423 0.81676 0.0
C382 C 0.29907 0.61301 0.83979 0.0
H383 H 0.36574 0.55744 0.79647 0.0
H384 H 0.27633 0.55631 0.80322 0.0
C385 C 0.34292 0.64884 0.85673 0.0
C386 C 0.84323 0.28458 0.1819 0.0
C387 C 0.87726 0.27485 0.16288 0.0
H388 H 0.77061 0.25015 0.20236 0.0
C389 C 0.8618 0.22151 0.14858 0.0
H390 H 0.85381 0.3254 0.19305 0.0
C391 C 0.81346 0.17821 0.15379 0.0
C392 C 0.78054 0.18778 0.17354 0.0
H393 H 0.88726 0.21315 0.13367 0.0
H394 H 0.80268 0.137 0.14304 0.0
C395 C 0.79557 0.24155 0.18722 0.0
C396 C 1.00516 0.38404 0.05336 0.0
C397 C 0.04617 0.43267 0.06589 0.0
H398 H 0.97131 0.33308 0.01672 0.0
C399 C 0.08539 0.46744 0.05044 0.0
H400 H 0.97425 0.35632 0.06469 0.0
C401 C 0.08369 0.45387 0.02306 0.0
C402 C 0.04267 0.40538 0.01054 0.0
H403 H 0.11753 0.50511 0.05945 0.0
H404 H 0.11401 0.48198 0.0116 0.0
C405 C 1.00331 0.37067 0.02591 0.0
C406 C 0.58742 0.04666 0.404 0.0
C407 C 0.54083 0.02456 0.41831 0.0
H408 H 0.62092 0.05892 0.36602 0.0
C409 C 0.49067 0.99728 0.40434 0.0
H410 H 0.62679 0.06728 0.41415 0.0
C411 C 0.48709 0.99346 0.37659 0.0
C412 C 0.53371 0.01631 0.36226 0.0
H413 H 0.45399 0.98007 0.41484 0.0
H414 H 0.44767 0.97371 0.36646 0.0
C415 C 0.58396 0.0422 0.37635 0.0
C416 C 0.63996 0.58034 0.73522 0.0
C417 C 0.59137 0.56359 0.74838 0.0
H418 H 0.67718 0.59229 0.69777 0.0
C419 C 0.54217 0.54352 0.7334 0.0
H420 H 0.67844 0.59617 0.74631 0.0
C421 C 0.54154 0.54023 0.70573 0.0
C422 C 0.5901 0.55817 0.69266 0.0
H423 H 0.50415 0.53006 0.74307 0.0
H424 H 0.50317 0.5248 0.69454 0.0
C425 C 0.63931 0.57831 0.70755 0.0
C426 C 0.53647 0.01889 0.59974 0.0
C427 C 0.5717 0.06094 0.5857 0.0
H428 H 0.51476 0.98956 0.63762 0.0
C429 C 0.61291 0.10692 0.5999 0.0
H430 H 0.50429 0.98291 0.58945 0.0
C431 C 0.61883 0.11066 0.6275 0.0
C432 C 0.58394 0.06834 0.64147 0.0
H433 H 0.64072 0.14014 0.58974 0.0
H434 H 0.6513 0.14623 0.63788 0.0
C435 C 0.54263 0.0225 0.62732 0.0
C436 C 0.64047 0.59495 0.93285 0.0
C437 C 0.59403 0.5871 0.91734 0.0
H438 H 0.67403 0.59463 0.97117 0.0
C439 C 0.54466 0.57424 0.92969 0.0
H440 H 0.67924 0.60547 0.92401 0.0
C441 C 0.54134 0.56668 0.95667 0.0
C442 C 0.58747 0.57254 0.97206 0.0
H443 H 0.508 0.56756 0.91829 0.0
H444 H 0.50212 0.55404 0.96514 0.0
C445 C 0.63733 0.58823 0.9599 0.0
C446 C 0.08742 0.56011 0.24534 0.0
C447 C 0.06521 0.50508 0.23267 0.0
H448 H 0.10048 0.61347 0.28194 0.0
C449 C 0.0421 0.46067 0.24809 0.0
H450 H 0.10537 0.59523 0.23397 0.0
C451 C 0.0398 0.47103 0.27546 0.0
C452 C 0.06005 0.5261 0.2881 0.0
H453 H 1.02529 0.4177 0.23902 0.0
H454 H 1.02184 0.43573 0.28672 0.0
C455 C 0.08472 0.57055 0.27282 0.0
loop_
_geom_bond_atom_site_label_1
_geom_bond_atom_site_label_2
_geom_bond_distance
_geom_bond_site_symmetry_2
_ccdc_geom_bond_type
Tb0 O3 2.453 1_455 S
Tb0 O4 2.596 1_455 S
Tb0 O5 2.374 . S
Tb0 O13 2.343 . S
Tb0 O15 2.353 . S
Tb0 O17 2.427 . S
Tb0 O18 2.513 . S
C1 O5 1.251 . S
C1 O7 1.263 . S
Tb2 O4 2.343 1_455 S
Tb2 O7 2.353 . S
Tb2 O10 2.427 1_455 S
Tb2 O11 2.513 1_455 S
Tb2 O12 2.453 . S
Tb2 O13 2.596 . S
Tb2 O14 2.374 . S
O3 Tb0 2.453 1_655 S
O3 C19 1.245 . S
O4 Tb0 2.596 1_655 S
O4 Tb2 2.343 1_655 S
O4 C19 1.259 . S
O5 Tb0 2.374 . S
O5 C1 1.251 . S
C6 O10 1.275 . S
C6 O11 1.246 . S
O7 C1 1.263 . S
O7 Tb2 2.353 . S
C8 O12 1.245 . S
C8 O13 1.259 . S
C9 O14 1.250 . S
C9 O15 1.263 . S
O10 Tb2 2.427 1_655 S
O10 C6 1.275 . S
O11 Tb2 2.513 1_655 S
O11 C6 1.246 . S
O12 Tb2 2.453 . S
O12 C8 1.245 . S
O13 Tb0 2.343 . S
O13 Tb2 2.596 . S
O13 C8 1.259 . S
O14 Tb2 2.374 . S
O14 C9 1.250 . S
O15 Tb0 2.353 . S
O15 C9 1.263 . S
C16 O17 1.275 . S
C16 O18 1.246 . S
O17 Tb0 2.427 . S
O17 C16 1.275 . S
O18 Tb0 2.513 . S
O18 C16 1.246 . S
C19 O3 1.245 . S
C19 O4 1.259 . S
Tb20 O23 2.453 . S
Tb20 O24 2.596 . S
Tb20 O25 2.374 . S
Tb20 O33 2.343 1_545 S
Tb20 O35 2.353 . S
Tb20 O37 2.427 1_545 S
Tb20 O38 2.513 1_545 S
C21 O25 1.251 . S
C21 O27 1.263 . S
Tb22 O24 2.343 . S
Tb22 O27 2.353 . S
Tb22 O30 2.427 . S
Tb22 O31 2.513 . S
Tb22 O32 2.453 1_545 S
Tb22 O33 2.596 1_545 S
Tb22 O34 2.374 . S
O23 Tb20 2.453 . S
O23 C39 1.245 . S
O24 Tb20 2.596 . S
O24 Tb22 2.343 . S
O24 C39 1.259 . S
O25 Tb20 2.374 . S
O25 C21 1.251 . S
C26 O30 1.275 . S
C26 O31 1.246 . S
O27 C21 1.263 . S
O27 Tb22 2.353 . S
C28 O32 1.245 . S
C28 O33 1.259 . S
C29 O34 1.250 . S
C29 O35 1.263 . S
O30 Tb22 2.427 . S
O30 C26 1.275 . S
O31 Tb22 2.513 . S
O31 C26 1.246 . S
O32 Tb22 2.453 1_565 S
O32 C28 1.245 . S
O33 Tb20 2.343 1_565 S
O33 Tb22 2.596 1_565 S
O33 C28 1.259 . S
O34 Tb22 2.374 . S
O34 C29 1.250 . S
O35 Tb20 2.353 . S
O35 C29 1.263 . S
C36 O37 1.275 . S
C36 O38 1.246 . S
O37 Tb20 2.427 1_565 S
O37 C36 1.275 . S
O38 Tb20 2.513 1_565 S
O38 C36 1.246 . S
C39 O23 1.245 . S
C39 O24 1.259 . S
Tb40 O43 2.453 . S
Tb40 O44 2.596 . S
Tb40 O45 2.374 . S
Tb40 O53 2.343 . S
Tb40 O55 2.353 . S
Tb40 O57 2.427 . S
Tb40 O58 2.513 . S
C41 O45 1.251 . S
C41 O47 1.263 . S
Tb42 O44 2.343 . S
Tb42 O47 2.353 . S
Tb42 O50 2.427 . S
Tb42 O51 2.513 . S
Tb42 O52 2.453 . S
Tb42 O53 2.596 . S
Tb42 O54 2.374 . S
O43 Tb40 2.453 . S
O43 C59 1.245 . S
O44 Tb40 2.596 . S
O44 Tb42 2.343 . S
O44 C59 1.259 . S
O45 Tb40 2.374 . S
O45 C41 1.251 . S
C46 O50 1.275 . S
C46 O51 1.246 . S
O47 C41 1.263 . S
O47 Tb42 2.353 . S
C48 O52 1.245 . S
C48 O53 1.259 . S
C49 O54 1.250 . S
C49 O55 1.263 . S
O50 Tb42 2.427 . S
O50 C46 1.275 . S
O51 Tb42 2.513 . S
O51 C46 1.246 . S
O52 Tb42 2.453 . S
O52 C48 1.245 . S
O53 Tb40 2.343 . S
O53 Tb42 2.596 . S
O53 C48 1.259 . S
O54 Tb42 2.374 . S
O54 C49 1.250 . S
O55 Tb40 2.353 . S
O55 C49 1.263 . S
C56 O57 1.275 . S
C56 O58 1.246 . S
O57 Tb40 2.427 . S
O57 C56 1.275 . S
O58 Tb40 2.513 . S
O58 C56 1.246 . S
C59 O43 1.245 . S
C59 O44 1.259 . S
C60 C61 1.384 . S
C60 H73 0.947 . S
C60 C95 1.382 . S
C61 C60 1.384 . S
C61 C62 1.378 . S
C62 C61 1.378 . S
C62 C63 1.378 . S
C62 H74 0.952 . S
C63 C62 1.378 . S
C63 H75 0.950 . S
C63 C94 1.383 . S
H64 C83 0.947 . S
H65 C84 0.946 . S
H66 C86 0.953 . S
H67 C87 0.945 . S
H68 C89 0.952 . S
H69 C90 0.949 . S
H70 C92 0.950 1_565 S
H71 C93 0.948 1_565 S
H72 C95 0.951 . S
H73 C60 0.947 . S
H74 C62 0.952 . S
H75 C63 0.950 . S
N76 C79 1.382 . S
N76 C81 1.363 1_545 S
N77 C79 1.371 . S
N77 C80 1.372 . S
N78 C80 1.361 1_565 S
N78 C81 1.377 . S
C79 N76 1.382 . S
C79 N77 1.371 . S
C79 C82 1.480 . S
C80 N77 1.372 . S
C80 N78 1.361 1_545 S
C80 C88 1.457 . S
C81 N76 1.363 1_565 S
C81 N78 1.377 . S
C81 C94 1.479 . S
C82 C79 1.480 . S
C82 C83 1.383 . S
C82 C87 1.385 . S
C83 H64 0.947 . S
C83 C82 1.383 . S
C83 C84 1.388 . S
C84 H65 0.946 . S
C84 C83 1.388 . S
C84 C85 1.384 . S
C85 C84 1.384 . S
C85 C86 1.377 . S
C86 H66 0.953 . S
C86 C85 1.377 . S
C86 C87 1.369 . S
C87 H67 0.945 . S
C87 C82 1.385 . S
C87 C86 1.369 . S
C88 C80 1.457 . S
C88 C89 1.372 . S
C88 C93 1.364 . S
C89 H68 0.952 . S
C89 C88 1.372 . S
C89 C90 1.389 . S
C90 H69 0.949 . S
C90 C89 1.389 . S
C90 C91 1.387 . S
C91 C90 1.387 . S
C91 C92 1.372 . S
C92 H70 0.950 1_545 S
C92 C91 1.372 . S
C92 C93 1.379 . S
C93 H71 0.948 1_545 S
C93 C88 1.364 . S
C93 C92 1.379 . S
C94 C63 1.383 . S
C94 C81 1.479 . S
C94 C95 1.398 . S
C95 C60 1.382 . S
C95 H72 0.951 . S
C95 C94 1.398 . S
C96 C97 1.384 . S
C96 H109 0.947 . S
C96 C131 1.382 . S
C97 C96 1.384 . S
C97 C98 1.378 . S
C98 C97 1.378 . S
C98 C99 1.378 . S
C98 H110 0.952 . S
C99 C98 1.378 . S
C99 H111 0.950 . S
C99 C130 1.383 . S
H100 C119 0.947 . S
H101 C120 0.946 . S
H102 C122 0.953 . S
H103 C123 0.945 . S
H104 C125 0.952 . S
H105 C126 0.949 . S
H106 C128 0.950 . S
H107 C129 0.948 . S
H108 C131 0.951 . S
H109 C96 0.947 . S
H110 C98 0.952 . S
H111 C99 0.950 . S
N112 C115 1.382 . S
N112 C117 1.363 . S
N113 C115 1.371 . S
N113 C116 1.372 . S
N114 C116 1.361 . S
N114 C117 1.377 . S
C115 N112 1.382 . S
C115 N113 1.371 . S
C115 C118 1.480 . S
C116 N113 1.372 . S
C116 N114 1.361 . S
C116 C124 1.457 . S
C117 N112 1.363 . S
C117 N114 1.377 . S
C117 C130 1.479 . S
C118 C115 1.480 . S
C118 C119 1.383 . S
C118 C123 1.385 . S
C119 H100 0.947 . S
C119 C118 1.383 . S
C119 C120 1.388 . S
C120 H101 0.946 . S
C120 C119 1.388 . S
C120 C121 1.384 . S
C121 C120 1.384 . S
C121 C122 1.377 . S
C122 H102 0.953 . S
C122 C121 1.377 . S
C122 C123 1.369 . S
C123 H103 0.945 . S
C123 C118 1.385 . S
C123 C122 1.369 . S
C124 C116 1.457 . S
C124 C125 1.372 . S
C124 C129 1.364 . S
C125 H104 0.952 . S
C125 C124 1.372 . S
C125 C126 1.389 . S
C126 H105 0.949 . S
C126 C125 1.389 . S
C126 C127 1.387 . S
C127 C126 1.387 . S
C127 C128 1.372 . S
C128 H106 0.950 . S
C128 C127 1.372 . S
C128 C129 1.379 . S
C129 H107 0.948 . S
C129 C124 1.364 . S
C129 C128 1.379 . S
C130 C99 1.383 . S
C130 C117 1.479 . S
C130 C131 1.398 . S
C131 C96 1.382 . S
C131 H108 0.951 . S
C131 C130 1.398 . S
C132 C133 1.384 . S
C132 H145 0.947 . S
C132 C167 1.382 . S
C133 C132 1.384 . S
C133 C134 1.378 . S
C134 C133 1.378 . S
C134 C135 1.378 . S
C134 H146 0.952 . S
C135 C134 1.378 . S
C135 H147 0.950 1_655 S
C135 C166 1.383 . S
H136 C155 0.947 . S
H137 C156 0.946 . S
H138 C158 0.953 . S
H139 C159 0.945 . S
H140 C161 0.952 . S
H141 C162 0.949 . S
H142 C164 0.950 1_655 S
H143 C165 0.948 1_655 S
H144 C167 0.951 . S
H145 C132 0.947 . S
H146 C134 0.952 . S
H147 C135 0.950 1_455 S
N148 C151 1.382 . S
N148 C153 1.363 . S
N149 C151 1.371 . S
N149 C152 1.372 . S
N150 C152 1.361 . S
N150 C153 1.377 . S
C151 N148 1.382 . S
C151 N149 1.371 . S
C151 C154 1.480 . S
C152 N149 1.372 . S
C152 N150 1.361 . S
C152 C160 1.457 . S
C153 N148 1.363 . S
C153 N150 1.377 . S
C153 C166 1.479 1_455 S
C154 C151 1.480 . S
C154 C155 1.383 . S
C154 C159 1.385 . S
C155 H136 0.947 . S
C155 C154 1.383 . S
C155 C156 1.388 . S
C156 H137 0.946 . S
C156 C155 1.388 . S
C156 C157 1.384 . S
C157 C156 1.384 . S
C157 C158 1.377 . S
C158 H138 0.953 . S
C158 C157 1.377 . S
C158 C159 1.369 . S
C159 H139 0.945 . S
C159 C154 1.385 . S
C159 C158 1.369 . S
C160 C152 1.457 . S
C160 C161 1.372 . S
C160 C165 1.364 . S
C161 H140 0.952 . S
C161 C160 1.372 . S
C161 C162 1.389 . S
C162 H141 0.949 . S
C162 C161 1.389 . S
C162 C163 1.397 . S
C163 C162 1.397 . S
C163 C164 1.384 . S
C164 H142 0.950 1_455 S
C164 C163 1.384 . S
C164 C165 1.379 . S
C165 H143 0.948 1_455 S
C165 C160 1.364 . S
C165 C164 1.379 . S
C166 C135 1.383 . S
C166 C153 1.479 1_655 S
C166 C167 1.398 . S
C167 C132 1.382 . S
C167 H144 0.951 . S
C167 C166 1.398 . S
C168 C169 1.384 . S
C168 H181 0.947 . S
C168 C203 1.382 . S
C169 C168 1.384 . S
C169 C170 1.378 . S
C170 C169 1.378 . S
C170 C171 1.378 . S
C170 H182 0.952 . S
C171 C170 1.378 . S
C171 H183 0.950 . S
C171 C202 1.383 . S
H172 C191 0.947 . S
H173 C192 0.946 . S
H174 C194 0.953 . S
H175 C195 0.945 . S
H176 C197 0.952 . S
H177 C198 0.949 . S
H178 C200 0.950 . S
H179 C201 0.948 . S
H180 C203 0.951 . S
H181 C168 0.947 . S
H182 C170 0.952 . S
H183 C171 0.950 . S
N184 C187 1.382 1_455 S
N184 C189 1.363 . S
N185 C187 1.371 . S
N185 C188 1.372 1_655 S
N186 C188 1.361 . S
N186 C189 1.377 . S
C187 N184 1.382 1_655 S
C187 N185 1.371 . S
C187 C190 1.480 . S
C188 N185 1.372 1_455 S
C188 N186 1.361 . S
C188 C196 1.457 . S
C189 N184 1.363 . S
C189 N186 1.377 . S
C189 C202 1.479 . S
C190 C187 1.480 . S
C190 C191 1.383 . S
C190 C195 1.385 . S
C191 H172 0.947 . S
C191 C190 1.383 . S
C191 C192 1.388 . S
C192 H173 0.946 . S
C192 C191 1.388 . S
C192 C193 1.384 . S
C193 C192 1.384 . S
C193 C194 1.377 . S
C194 H174 0.953 . S
C194 C193 1.377 . S
C194 C195 1.369 . S
C195 H175 0.945 . S
C195 C190 1.385 . S
C195 C194 1.369 . S
C196 C188 1.457 . S
C196 C197 1.372 1_455 S
C196 C201 1.364 . S
C197 H176 0.952 . S
C197 C196 1.372 1_655 S
C197 C198 1.389 . S
C198 H177 0.949 . S
C198 C197 1.389 . S
C198 C199 1.387 1_655 S
C199 C198 1.387 1_455 S
C199 C200 1.372 . S
C200 H178 0.950 . S
C200 C199 1.372 . S
C200 C201 1.379 . S
C201 H179 0.948 . S
C201 C196 1.364 . S
C201 C200 1.379 . S
C202 C171 1.383 . S
C202 C189 1.479 . S
C202 C203 1.398 . S
C203 C168 1.382 . S
C203 H180 0.951 . S
C203 C202 1.398 . S
C204 C205 1.384 . S
C204 H217 0.947 . S
C204 C239 1.382 . S
C205 C204 1.384 . S
C205 C206 1.378 . S
C206 C205 1.378 . S
C206 C207 1.378 . S
C206 H218 0.952 . S
C207 C206 1.378 . S
C207 H219 0.950 . S
C207 C238 1.383 . S
H208 C227 0.947 . S
H209 C228 0.946 . S
H210 C230 0.953 . S
H211 C231 0.945 . S
H212 C233 0.952 . S
H213 C234 0.949 . S
H214 C236 0.950 . S
H215 C237 0.948 . S
H216 C239 0.951 . S
H217 C204 0.947 . S
H218 C206 0.952 . S
H219 C207 0.950 . S
N220 C223 1.382 1_545 S
N220 C225 1.363 . S
N221 C223 1.371 . S
N221 C224 1.372 1_565 S
N222 C224 1.361 . S
N222 C225 1.377 . S
C223 N220 1.382 1_565 S
C223 N221 1.371 . S
C223 C226 1.480 . S
C224 N221 1.372 1_545 S
C224 N222 1.361 . S
C224 C232 1.457 . S
C225 N220 1.363 . S
C225 N222 1.377 . S
C225 C238 1.479 . S
C226 C223 1.480 . S
C226 C227 1.383 . S
C226 C231 1.385 . S
C227 H208 0.947 . S
C227 C226 1.383 . S
C227 C228 1.388 . S
C228 H209 0.946 . S
C228 C227 1.388 . S
C228 C229 1.384 . S
C229 C228 1.384 . S
C229 C230 1.377 . S
C230 H210 0.953 . S
C230 C229 1.377 . S
C230 C231 1.369 . S
C231 H211 0.945 . S
C231 C226 1.385 . S
C231 C230 1.369 . S
C232 C224 1.457 . S
C232 C233 1.372 1_545 S
C232 C237 1.364 . S
C233 H212 0.952 . S
C233 C232 1.372 1_565 S
C233 C234 1.389 . S
C234 H213 0.949 . S
C234 C233 1.389 . S
C234 C235 1.387 1_565 S
C235 C234 1.387 1_545 S
C235 C236 1.372 . S
C236 H214 0.950 . S
C236 C235 1.372 . S
C236 C237 1.379 . S
C237 H215 0.948 . S
C237 C232 1.364 . S
C237 C236 1.379 . S
C238 C207 1.383 . S
C238 C225 1.479 . S
C238 C239 1.398 . S
C239 C204 1.382 . S
C239 H216 0.951 . S
C239 C238 1.398 . S
C240 C241 1.384 . S
C240 H253 0.947 . S
C240 C275 1.382 . S
C241 C240 1.384 . S
C241 C242 1.378 . S
C242 C241 1.378 . S
C242 C243 1.378 . S
C242 H254 0.952 . S
C243 C242 1.378 . S
C243 H255 0.950 . S
C243 C274 1.383 . S
H244 C263 0.947 . S
H245 C264 0.946 . S
H246 C266 0.953 . S
H247 C267 0.945 . S
H248 C269 0.952 . S
H249 C270 0.949 . S
H250 C272 0.950 . S
H251 C273 0.948 . S
H252 C275 0.951 . S
H253 C240 0.947 . S
H254 C242 0.952 . S
H255 C243 0.950 . S
N256 C259 1.382 . S
N256 C261 1.363 . S
N257 C259 1.371 . S
N257 C260 1.372 . S
N258 C260 1.361 . S
N258 C261 1.377 . S
C259 N256 1.382 . S
C259 N257 1.371 . S
C259 C262 1.480 . S
C260 N257 1.372 . S
C260 N258 1.361 . S
C260 C268 1.457 . S
C261 N256 1.363 . S
C261 N258 1.377 . S
C261 C274 1.479 . S
C262 C259 1.480 . S
C262 C263 1.383 . S
C262 C267 1.385 . S
C263 H244 0.947 . S
C263 C262 1.383 . S
C263 C264 1.388 . S
C264 H245 0.946 . S
C264 C263 1.388 . S
C264 C265 1.384 . S
C265 C264 1.384 . S
C265 C266 1.377 . S
C266 H246 0.953 . S
C266 C265 1.377 . S
C266 C267 1.369 . S
C267 H247 0.945 . S
C267 C262 1.385 . S
C267 C266 1.369 . S
C268 C260 1.457 . S
C268 C269 1.372 . S
C268 C273 1.364 . S
C269 H248 0.952 . S
C269 C268 1.372 . S
C269 C270 1.389 . S
C270 H249 0.949 . S
C270 C269 1.389 . S
C270 C271 1.387 1_554 S
C271 C270 1.387 1_556 S
C271 C272 1.372 1_556 S
C272 H250 0.950 . S
C272 C271 1.372 1_554 S
C272 C273 1.379 . S
C273 H251 0.948 . S
C273 C268 1.364 . S
C273 C272 1.379 . S
C274 C243 1.383 . S
C274 C261 1.479 . S
C274 C275 1.398 . S
C275 C240 1.382 . S
C275 H252 0.951 . S
C275 C274 1.398 . S
C276 C277 1.387 . S
C276 H280 0.950 . S
C276 C285 1.390 . S
C277 C276 1.387 . S
C277 C279 1.387 . S
H278 C285 0.950 . S
C279 C277 1.387 . S
C279 C281 1.390 . S
C279 H283 0.950 . S
H280 C276 0.950 . S
C281 C279 1.390 . S
C281 C282 1.387 . S
C281 H284 0.950 . S
C282 C281 1.387 . S
C282 C285 1.387 . S
H283 C279 0.950 . S
H284 C281 0.950 . S
C285 C276 1.390 . S
C285 H278 0.950 . S
C285 C282 1.387 . S
C286 C287 1.387 . S
C286 H290 0.950 . S
C286 C295 1.390 . S
C287 C286 1.387 . S
C287 C289 1.387 . S
H288 C295 0.950 . S
C289 C287 1.387 . S
C289 C291 1.390 . S
C289 H293 0.950 . S
H290 C286 0.950 . S
C291 C289 1.390 . S
C291 C292 1.387 . S
C291 H294 0.950 . S
C292 C291 1.387 . S
C292 C295 1.387 . S
H293 C289 0.950 . S
H294 C291 0.950 . S
C295 C286 1.390 . S
C295 H288 0.950 . S
C295 C292 1.387 . S
C296 C297 1.387 . S
C296 H300 0.950 . S
C296 C305 1.390 . S
C297 C296 1.387 . S
C297 C299 1.387 . S
H298 C305 0.950 . S
C299 C297 1.387 . S
C299 C301 1.390 . S
C299 H303 0.950 . S
H300 C296 0.950 . S
C301 C299 1.390 . S
C301 C302 1.387 . S
C301 H304 0.950 . S
C302 C301 1.387 . S
C302 C305 1.387 . S
H303 C299 0.950 . S
H304 C301 0.950 . S
C305 C296 1.390 . S
C305 H298 0.950 . S
C305 C302 1.387 . S
C306 C307 1.387 . S
C306 H310 0.950 . S
C306 C315 1.390 . S
C307 C306 1.387 . S
C307 C309 1.387 . S
H308 C315 0.950 . S
C309 C307 1.387 . S
C309 C311 1.390 . S
C309 H313 0.950 . S
H310 C306 0.950 . S
C311 C309 1.390 . S
C311 C312 1.387 . S
C311 H314 0.950 . S
C312 C311 1.387 . S
C312 C315 1.387 . S
H313 C309 0.950 . S
H314 C311 0.950 . S
C315 C306 1.390 . S
C315 H308 0.950 . S
C315 C312 1.387 . S
C316 C317 1.387 . S
C316 H320 0.950 . S
C316 C325 1.390 . S
C317 C316 1.387 . S
C317 C319 1.387 . S
H318 C325 0.950 . S
C319 C317 1.387 . S
C319 C321 1.390 . S
C319 H323 0.950 . S
H320 C316 0.950 . S
C321 C319 1.390 . S
C321 C322 1.387 . S
C321 H324 0.950 . S
C322 C321 1.387 . S
C322 C325 1.387 . S
H323 C319 0.950 . S
H324 C321 0.950 . S
C325 C316 1.390 . S
C325 H318 0.950 . S
C325 C322 1.387 . S
C326 C327 1.387 . S
C326 H330 0.950 . S
C326 C335 1.390 . S
C327 C326 1.387 . S
C327 C329 1.387 . S
H328 C335 0.950 . S
C329 C327 1.387 . S
C329 C331 1.390 . S
C329 H333 0.950 . S
H330 C326 0.950 . S
C331 C329 1.390 . S
C331 C332 1.387 . S
C331 H334 0.950 . S
C332 C331 1.387 . S
C332 C335 1.387 . S
H333 C329 0.950 . S
H334 C331 0.950 . S
C335 C326 1.390 . S
C335 H328 0.950 . S
C335 C332 1.387 . S
C336 C337 1.387 . S
C336 H340 0.950 . S
C336 C345 1.390 . S
C337 C336 1.387 . S
C337 C339 1.387 . S
H338 C345 0.950 . S
C339 C337 1.387 . S
C339 C341 1.390 . S
C339 H343 0.950 . S
H340 C336 0.950 . S
C341 C339 1.390 . S
C341 C342 1.387 . S
C341 H344 0.950 . S
C342 C341 1.387 . S
C342 C345 1.387 . S
H343 C339 0.950 . S
H344 C341 0.950 . S
C345 C336 1.390 . S
C345 H338 0.950 . S
C345 C342 1.387 . S
C346 C347 1.387 . S
C346 H350 0.950 . S
C346 C355 1.390 . S
C347 C346 1.387 . S
C347 C349 1.387 . S
H348 C355 0.950 . S
C349 C347 1.387 . S
C349 C351 1.390 . S
C349 H353 0.950 . S
H350 C346 0.950 . S
C351 C349 1.390 . S
C351 C352 1.387 . S
C351 H354 0.950 . S
C352 C351 1.387 . S
C352 C355 1.387 . S
H353 C349 0.950 . S
H354 C351 0.950 . S
C355 C346 1.390 . S
C355 H348 0.950 . S
C355 C352 1.387 . S
C356 C357 1.387 . S
C356 H360 0.950 . S
C356 C365 1.390 . S
C357 C356 1.387 . S
C357 C359 1.387 . S
H358 C365 0.950 . S
C359 C357 1.387 . S
C359 C361 1.390 . S
C359 H363 0.950 . S
H360 C356 0.950 . S
C361 C359 1.390 . S
C361 C362 1.387 . S
C361 H364 0.950 . S
C362 C361 1.387 . S
C362 C365 1.387 . S
H363 C359 0.950 . S
H364 C361 0.950 . S
C365 C356 1.390 . S
C365 H358 0.950 . S
C365 C362 1.387 . S
C366 C367 1.387 . S
C366 H370 0.950 . S
C366 C375 1.390 . S
C367 C366 1.387 . S
C367 C369 1.387 . S
H368 C375 0.950 . S
C369 C367 1.387 . S
C369 C371 1.390 . S
C369 H373 0.950 . S
H370 C366 0.950 . S
C371 C369 1.390 . S
C371 C372 1.387 . S
C371 H374 0.950 . S
C372 C371 1.387 . S
C372 C375 1.387 . S
H373 C369 0.950 . S
H374 C371 0.950 . S
C375 C366 1.390 . S
C375 H368 0.950 . S
C375 C372 1.387 . S
C376 C377 1.387 . S
C376 H380 0.950 . S
C376 C385 1.390 . S
C377 C376 1.387 . S
C377 C379 1.387 . S
H378 C385 0.950 . S
C379 C377 1.387 . S
C379 C381 1.390 . S
C379 H383 0.950 . S
H380 C376 0.950 . S
C381 C379 1.390 . S
C381 C382 1.387 . S
C381 H384 0.950 . S
C382 C381 1.387 . S
C382 C385 1.387 . S
H383 C379 0.950 . S
H384 C381 0.950 . S
C385 C376 1.390 . S
C385 H378 0.950 . S
C385 C382 1.387 . S
C386 C387 1.387 . S
C386 H390 0.950 . S
C386 C395 1.390 . S
C387 C386 1.387 . S
C387 C389 1.387 . S
H388 C395 0.950 . S
C389 C387 1.387 . S
C389 C391 1.390 . S
C389 H393 0.950 . S
H390 C386 0.950 . S
C391 C389 1.390 . S
C391 C392 1.387 . S
C391 H394 0.950 . S
C392 C391 1.387 . S
C392 C395 1.387 . S
H393 C389 0.950 . S
H394 C391 0.950 . S
C395 C386 1.390 . S
C395 H388 0.950 . S
C395 C392 1.387 . S
C396 C397 1.387 . S
C396 H400 0.950 1_455 S
C396 C405 1.390 . S
C397 C396 1.387 . S
C397 C399 1.387 . S
H398 C405 0.950 1_655 S
C399 C397 1.387 . S
C399 C401 1.390 . S
C399 H403 0.950 . S
H400 C396 0.950 1_655 S
C401 C399 1.390 . S
C401 C402 1.387 . S
C401 H404 0.950 . S
C402 C401 1.387 . S
C402 C405 1.387 . S
H403 C399 0.950 . S
H404 C401 0.950 . S
C405 C396 1.390 . S
C405 H398 0.950 1_455 S
C405 C402 1.387 . S
C406 C407 1.387 . S
C406 H410 0.950 . S
C406 C415 1.390 . S
C407 C406 1.387 . S
C407 C409 1.387 . S
H408 C415 0.950 . S
C409 C407 1.387 . S
C409 C411 1.390 . S
C409 H413 0.950 . S
H410 C406 0.950 . S
C411 C409 1.390 . S
C411 C412 1.387 . S
C411 H414 0.950 . S
C412 C411 1.387 . S
C412 C415 1.387 . S
H413 C409 0.950 . S
H414 C411 0.950 . S
C415 C406 1.390 . S
C415 H408 0.950 . S
C415 C412 1.387 . S
C416 C417 1.387 . S
C416 H420 0.950 . S
C416 C425 1.390 . S
C417 C416 1.387 . S
C417 C419 1.387 . S
H418 C425 0.950 . S
C419 C417 1.387 . S
C419 C421 1.390 . S
C419 H423 0.950 . S
H420 C416 0.950 . S
C421 C419 1.390 . S
C421 C422 1.387 . S
C421 H424 0.950 . S
C422 C421 1.387 . S
C422 C425 1.387 . S
H423 C419 0.950 . S
H424 C421 0.950 . S
C425 C416 1.390 . S
C425 H418 0.950 . S
C425 C422 1.387 . S
C426 C427 1.387 1_565 S
C426 H430 0.950 . S
C426 C435 1.390 . S
C427 C426 1.387 1_545 S
C427 C429 1.387 . S
H428 C435 0.950 . S
C429 C427 1.387 . S
C429 C431 1.390 . S
C429 H433 0.950 . S
H430 C426 0.950 . S
C431 C429 1.390 . S
C431 C432 1.387 . S
C431 H434 0.950 . S
C432 C431 1.387 . S
C432 C435 1.387 1_545 S
H433 C429 0.950 . S
H434 C431 0.950 . S
C435 C426 1.390 . S
C435 H428 0.950 . S
C435 C432 1.387 1_565 S
C436 C437 1.387 . S
C436 H440 0.950 . S
C436 C445 1.390 . S
C437 C436 1.387 . S
C437 C439 1.387 . S
H438 C445 0.950 . S
C439 C437 1.387 . S
C439 C441 1.390 . S
C439 H443 0.950 . S
H440 C436 0.950 . S
C441 C439 1.390 . S
C441 C442 1.387 . S
C441 H444 0.950 . S
C442 C441 1.387 . S
C442 C445 1.387 . S
H443 C439 0.950 . S
H444 C441 0.950 . S
C445 C436 1.390 . S
C445 H438 0.950 . S
C445 C442 1.387 . S
C446 C447 1.387 . S
C446 H450 0.950 . S
C446 C455 1.390 . S
C447 C446 1.387 . S
C447 C449 1.387 . S
H448 C455 0.950 . S
C449 C447 1.387 . S
C449 C451 1.389 1_455 S
C449 H453 0.950 . S
H450 C446 0.950 . S
C451 C449 1.389 1_655 S
C451 C452 1.398 1_655 S
C451 H454 0.948 . S
C452 C451 1.398 1_455 S
C452 C455 1.383 . S
H453 C449 0.950 . S
H454 C451 0.948 . S
C455 C446 1.390 . S
C455 H448 0.950 . S
C455 C452 1.383 . S
C277 C8 2.062 . S
C282 C265 2.086 . S
C287 C26 1.417 . S
C292 C193 1.372 . S
C297 C48 1.578 . S
C302 C229 1.581 . S
C307 C19 1.959 . S
C312 C241 1.956 . S
C322 C169 1.566 . S
C317 C36 1.572 . S
C332 C205 1.824 . S
C327 C59 1.817 . S
C337 C28 1.603 . S
C342 C121 1.606 . S
C347 C46 1.287 . S
C352 C133 1.287 . S
C357 C16 1.641 . S
C362 C61 1.629 . S
C372 C97 1.793 . S
C367 C39 1.799 . S
C382 C157 1.099 . S
C377 C56 1.111 . S
C387 C6 1.484 . S
C392 C85 1.416 . S
C402 C163 1.415 1_554 S
C397 C9 1.409 . S
C407 C21 1.517 . S
C412 C91 1.505 . S
C417 C49 1.484 . S
C422 C127 1.484 . S
C432 C235 1.471 . S
C427 C29 1.480 . S
C442 C271 1.593 . S
C437 C41 1.575 . S
C447 C1 1.505 . S
C452 C199 1.506 . S
