# Generated by pormake.
# Topology anh, (6,3)-cn, num edge types: 1
# Building blocks:
#     Node 0, Type 0, BuildingBlock: VOLQOD_clean_sbu_1, # of connection points: 6
#     Node 1, Type 0, BuildingBlock: VOLQOD_clean_sbu_1, # of connection points: 6
#     Node 2, Type 0, BuildingBlock: VOLQOD_clean_sbu_1, # of connection points: 6
#     Node 3, Type 1, BuildingBlock: INOVEN_clean_linker_0, # of connection points: 3
#     Node 4, Type 1, BuildingBlock: INOVEN_clean_linker_0, # of connection points: 3
#     Node 5, Type 1, BuildingBlock: INOVEN_clean_linker_0, # of connection points: 3
#     Node 6, Type 1, BuildingBlock: INOVEN_clean_linker_0, # of connection points: 3
#     Node 7, Type 1, BuildingBlock: INOVEN_clean_linker_0, # of connection points: 3
#     Node 8, Type 1, BuildingBlock: INOVEN_clean_linker_0, # of connection points: 3
#     Edge 9, Type (0, 1), BuildingBlock: UVAHIK_clean_linker_0, # of connection points: 2
#     Edge 10, Type (0, 1), BuildingBlock: UVAHIK_clean_linker_0, # of connection points: 2
#     Edge 11, Type (0, 1), BuildingBlock: UVAHIK_clean_linker_0, # of connection points: 2
#     Edge 12, Type (0, 1), BuildingBlock: UVAHIK_clean_linker_0, # of connection points: 2
#     Edge 13, Type (0, 1), BuildingBlock: UVAHIK_clean_linker_0, # of connection points: 2
#     Edge 14, Type (0, 1), BuildingBlock: UVAHIK_clean_linker_0, # of connection points: 2
#     Edge 15, Type (0, 1), BuildingBlock: UVAHIK_clean_linker_0, # of connection points: 2
#     Edge 16, Type (0, 1), BuildingBlock: UVAHIK_clean_linker_0, # of connection points: 2
#     Edge 17, Type (0, 1), BuildingBlock: UVAHIK_clean_linker_0, # of connection points: 2
#     Edge 18, Type (0, 1), BuildingBlock: UVAHIK_clean_linker_0, # of connection points: 2
#     Edge 19, Type (0, 1), BuildingBlock: UVAHIK_clean_linker_0, # of connection points: 2
#     Edge 20, Type (0, 1), BuildingBlock: UVAHIK_clean_linker_0, # of connection points: 2
#     Edge 21, Type (0, 1), BuildingBlock: UVAHIK_clean_linker_0, # of connection points: 2
#     Edge 22, Type (0, 1), BuildingBlock: UVAHIK_clean_linker_0, # of connection points: 2
#     Edge 23, Type (0, 1), BuildingBlock: UVAHIK_clean_linker_0, # of connection points: 2
#     Edge 24, Type (0, 1), BuildingBlock: UVAHIK_clean_linker_0, # of connection points: 2
#     Edge 25, Type (0, 1), BuildingBlock: UVAHIK_clean_linker_0, # of connection points: 2
#     Edge 26, Type (0, 1), BuildingBlock: UVAHIK_clean_linker_0, # of connection points: 2
# Relax obj value: 0.154
# Max RMSD: 0.215
# Mean RMSD: 0.135
data_MOF--net-anh--node1-VOLQOD_clean_sbu_1--node2-INOVEN_clean_linker_0--edge1-UVAHIK_clean_linker_0
_symmetry_space_group_name_H-M    P1
_symmetry_Int_Tables_number       1
_symmetry_cell_setting            triclinic
loop_
_symmetry_equiv_pos_as_xyz
'x, y, z'
_cell_length_a     37.625411
_cell_length_b     37.685279
_cell_length_c     72.908878
_cell_angle_alpha  92.368702
_cell_angle_beta   92.232769
_cell_angle_gamma 120.32071
loop_
_atom_site_label
_atom_site_type_symbol
_atom_site_fract_x
_atom_site_fract_y
_atom_site_fract_z
_atom_type_partial_charge
O0 O 0.02622 0.62124 0.19861 0.0
Zn1 Zn 0.03093 0.63046 0.17146 0.0
O2 O 0.0402 0.58968 0.15805 0.0
Zn3 Zn -0.00415 0.55808 0.13907 0.0
Zn4 Zn 0.04218 0.55252 0.17531 0.0
Zn5 Zn 0.09201 0.61689 0.14616 0.0
O6 O 0.01668 0.5626 0.11389 0.0
O7 O 0.08448 0.60255 0.11882 0.0
O8 O 0.9771 0.6253 0.16219 0.0
O9 O 0.95572 0.57797 0.13872 0.0
O10 O 0.96411 0.49789 0.14383 0.0
O11 O -0.00227 0.4942 0.16866 0.0
O12 O 0.09661 0.55493 0.17627 0.0
O13 O 0.07757 0.68853 0.1684 0.0
O14 O 0.13237 0.60159 0.15664 0.0
O15 O 0.11735 0.67781 0.14989 0.0
C16 C 0.02707 0.59404 0.20812 0.0
C17 C 0.05257 0.58094 0.10794 0.0
C18 C 0.96871 0.47705 0.15603 0.0
C19 C 0.95132 0.60368 0.14879 0.0
C20 C 0.12969 0.57623 0.1683 0.0
C21 C 0.10915 0.70206 0.15897 0.0
O22 O 0.03292 0.56635 0.20079 0.0
O23 O 0.47025 0.04821 0.4524 0.0
Zn24 Zn 0.45629 0.05072 0.47867 0.0
O25 O 0.4929 0.04222 0.49544 0.0
Zn26 Zn 0.52546 0.09091 0.5119 0.0
Zn27 Zn 0.52984 0.03121 0.48126 0.0
Zn28 Zn 0.4608 -0.00326 0.51057 0.0
O29 O 0.52333 0.07829 0.53829 0.0
O30 O 0.47205 0.01359 0.53771 0.0
O31 O 0.46113 0.10627 0.48441 0.0
O32 O 0.5047 0.1297 0.50938 0.0
O33 O 0.58465 0.12086 0.5059 0.0
O34 O 0.58845 0.07941 0.48456 0.0
O35 O 0.52875 0.97968 0.48876 0.0
O36 O 0.39688 0.00566 0.48063 0.0
O37 O 0.47745 0.95431 0.5074 0.0
O38 O 0.4002 0.97045 0.50373 0.0
C39 C 0.49213 0.03561 0.44474 0.0
C40 C 0.49946 0.04666 0.54659 0.0
C41 C 0.60531 0.11281 0.4948 0.0
C42 C 0.48073 0.1331 0.49775 0.0
C43 C 0.50532 0.95186 0.49906 0.0
C44 C 0.37943 0.97669 0.49141 0.0
O45 O 0.51417 0.02515 0.45415 0.0
O46 O 0.54713 0.49273 0.79388 0.0
Zn47 Zn 0.52822 0.47538 0.81928 0.0
O48 O 0.56583 0.51718 0.8386 0.0
Zn49 Zn 0.53649 0.53839 0.85261 0.0
Zn50 Zn 0.61164 0.56185 0.8272 0.0
Zn51 Zn 0.58816 0.49377 0.85562 0.0
O52 O 0.53728 0.52868 0.87961 0.0
O53 O 0.57223 0.4959 0.88135 0.0
O54 O 0.47043 0.46598 0.82005 0.0
O55 O 0.47689 0.50886 0.84355 0.0
O56 O 0.56045 0.59918 0.84986 0.0
O57 O 0.61501 0.61544 0.8338 0.0
O58 O 0.66602 0.56699 0.83464 0.0
O59 O 0.5257 0.42118 0.82259 0.0
O60 O 0.65001 0.52166 0.85582 0.0
O61 O 0.56632 0.43475 0.84797 0.0
C62 C 0.57782 0.52477 0.78834 0.0
C63 C 0.55209 0.51065 0.88889 0.0
C64 C 0.59236 0.62569 0.84236 0.0
C65 C 0.45501 0.48146 0.83073 0.0
C66 C 0.67655 0.54938 0.84639 0.0
C67 C 0.54236 0.40988 0.83481 0.0
O68 O 0.60434 0.55339 0.79969 0.0
H69 H 0.516 0.06779 0.19733 0.0
H70 H 0.46399 0.01591 0.24786 0.0
H71 H 0.59154 0.11052 0.24831 0.0
N72 N 0.59167 0.11751 0.21132 0.0
N73 N 0.62784 0.13583 0.21825 0.0
C74 C 0.51921 0.06672 0.21211 0.0
C75 C 0.48538 0.03896 0.22148 0.0
C76 C 0.55775 0.0919 0.22156 0.0
C77 C 0.56206 0.09064 0.24076 0.0
C78 C 0.52819 0.06323 0.25022 0.0
C79 C 0.49016 0.03711 0.24051 0.0
H80 H 0.60685 0.57454 0.54041 0.0
H81 H 0.61033 0.51041 0.58725 0.0
H82 H 0.6176 0.62767 0.59511 0.0
N83 N 0.61044 0.63758 0.55884 0.0
N84 N 0.6032 0.66145 0.56812 0.0
C85 C 0.61006 0.57335 0.55518 0.0
C86 C 0.60876 0.53892 0.56245 0.0
C87 C 0.61342 0.60545 0.56683 0.0
C88 C 0.61621 0.60344 0.58604 0.0
C89 C 0.61515 0.56919 0.59353 0.0
C90 C 0.61197 0.53733 0.58161 0.0
H91 H 0.06249 0.52966 0.85842 0.0
H92 H 0.03297 0.57061 0.90844 0.0
H93 H 0.10811 0.51476 0.91089 0.0
N94 N 0.10881 0.50207 0.87545 0.0
N95 N 0.10877 0.49662 0.85846 0.0
C96 C 0.06514 0.53373 0.87331 0.0
C97 C 0.04558 0.55231 0.88222 0.0
C98 C 0.08814 0.5206 0.88373 0.0
C99 C 0.09096 0.52563 0.90297 0.0
C100 C 0.07088 0.54336 0.91199 0.0
C101 C 0.0487 0.55701 0.90151 0.0
H102 H 0.00026 0.58177 0.45444 0.0
H103 H 0.01595 0.64122 0.40365 0.0
H104 H 0.93831 0.51018 0.40388 0.0
N105 N 0.9479 0.50642 0.44054 0.0
N106 N 0.92897 0.47116 0.4326 0.0
C107 C -0.00671 0.58054 0.43979 0.0
C108 C 0.01196 0.61667 0.43024 0.0
C109 C 0.96665 0.54215 0.43042 0.0
C110 C 0.95869 0.53974 0.41126 0.0
C111 C 0.97652 0.57544 0.40155 0.0
C112 C 0.00233 0.61371 0.41119 0.0
H113 H 0.61822 0.06675 0.79251 0.0
H114 H 0.59559 0.1137 0.74346 0.0
H115 H 0.6176 0.01225 0.73941 0.0
N116 N 0.62576 0.00795 0.77629 0.0
N117 N 0.62481 0.97793 0.76794 0.0
C118 C 0.61554 0.0662 0.77762 0.0
C119 C 0.60718 0.09409 0.76917 0.0
C120 C 0.61953 0.03684 0.76703 0.0
C121 C 0.61504 0.03528 0.7477 0.0
C122 C 0.60682 0.06328 0.73907 0.0
C123 C 0.6034 0.0929 0.74993 0.0
H124 H 0.50599 0.48884 0.13332 0.0
H125 H 0.54887 0.47085 0.0821 0.0
H126 H 0.42641 0.45249 0.0837 0.0
N127 N 0.43068 0.47131 0.11911 0.0
N128 N 0.4363 0.48497 0.13549 0.0
C129 C 0.50014 0.48008 0.11869 0.0
C130 C 0.531 0.4796 0.10877 0.0
C131 C 0.46205 0.46966 0.10965 0.0
C132 C 0.45548 0.45954 0.09064 0.0
C133 C 0.48663 0.45989 0.0805 0.0
C134 C 0.52402 0.46918 0.08979 0.0
C135 C 0.20188 0.59299 0.16338 0.0
C136 C 0.16486 0.5697 0.1719 0.0
C137 C 0.23351 0.58402 0.16528 0.0
C138 C 0.3021 0.5675 0.17633 0.0
H139 H 0.26435 0.45182 0.16518 0.0
C140 C 0.41545 0.51111 0.1614 0.0
C141 C 0.4051 0.48784 0.14454 0.0
C142 C 0.38655 0.51839 0.16962 0.0
C143 C 0.27535 0.48416 0.1685 0.0
H144 H 0.13297 0.5202 0.18996 0.0
H145 H 0.18827 0.50455 0.19319 0.0
H146 H 0.21425 0.4731 0.17106 0.0
H147 H 0.35581 0.45163 0.12345 0.0
H148 H 0.3054 0.46413 0.13775 0.0
H149 H 0.36303 0.57872 0.17274 0.0
C150 C 0.19256 0.52947 0.18491 0.0
C151 C 0.24674 0.49633 0.17202 0.0
C152 C 0.16096 0.53853 0.18308 0.0
C153 C 0.36472 0.46997 0.13643 0.0
C154 C 0.33576 0.47685 0.14471 0.0
C155 C 0.33076 0.55528 0.17289 0.0
C156 C 0.22877 0.55153 0.17571 0.0
C157 C 0.2597 0.53827 0.17535 0.0
C158 C 0.34664 0.50189 0.16116 0.0
C159 C 0.31747 0.51365 0.16831 0.0
H160 H 0.20601 0.61734 0.15476 0.0
H161 H 0.26087 0.60127 0.15785 0.0
H162 H 0.31297 0.59998 0.17907 0.0
H163 H 0.44642 0.52493 0.16782 0.0
H164 H 0.39563 0.5376 0.18236 0.0
C165 C 0.66774 0.14474 0.47645 0.0
C166 C 0.64864 0.14483 0.49262 0.0
C167 C 0.70596 0.17855 0.47308 0.0
C168 C 0.76705 0.28997 0.48576 0.0
H169 H 0.84718 0.28441 0.45577 0.0
C170 C 0.90365 0.43681 0.46133 0.0
C171 C 0.90802 0.43506 0.4423 0.0
C172 C 0.879 0.40067 0.47 0.0
C173 C 0.82509 0.28641 0.46419 0.0
H174 H 0.65622 0.17878 0.51863 0.0
H175 H 0.72332 0.23709 0.51301 0.0
H176 H 0.79139 0.22127 0.46689 0.0
H177 H 0.89194 0.39496 0.41764 0.0
H178 H 0.84867 0.33159 0.4327 0.0
H179 H 0.80004 0.35482 0.48274 0.0
C180 C 0.70824 0.2116 0.50264 0.0
C181 C 0.79308 0.25026 0.47052 0.0
C182 C 0.66986 0.17805 0.50591 0.0
C183 C 0.88891 0.39673 0.43232 0.0
C184 C 0.86445 0.3606 0.44097 0.0
C185 C 0.79911 0.32603 0.47954 0.0
C186 C 0.72608 0.21296 0.4859 0.0
C187 C 0.76314 0.25151 0.48106 0.0
C188 C 0.85847 0.36225 0.45983 0.0
C189 C 0.82795 0.32457 0.46835 0.0
H190 H 0.65216 0.11963 0.46592 0.0
H191 H 0.71854 0.1786 0.45997 0.0
H192 H 0.74421 0.29216 0.49354 0.0
H193 H 0.91816 0.46606 0.46939 0.0
H194 H 0.87527 0.40285 0.48459 0.0
C195 C 0.63911 0.69914 0.83596 0.0
C196 C 0.60107 0.66841 0.84168 0.0
C197 C 0.64484 0.73745 0.83192 0.0
C198 C 0.65141 0.82128 0.82876 0.0
H199 H 0.56319 0.80675 0.79422 0.0
C200 C 0.64015 0.9542 0.7966 0.0
C201 C 0.62916 0.94831 0.77757 0.0
C202 C 0.64003 0.92267 0.80604 0.0
C203 C 0.58805 0.81121 0.80383 0.0
H204 H 0.54037 0.65484 0.84909 0.0
H205 H 0.55036 0.72184 0.84184 0.0
H206 H 0.55608 0.74804 0.81007 0.0
H207 H 0.61134 0.90644 0.75342 0.0
H208 H 0.61064 0.85074 0.76997 0.0
H209 H 0.68357 0.88454 0.82219 0.0
C210 C 0.57556 0.71603 0.8404 0.0
C211 C 0.58376 0.77782 0.81308 0.0
C212 C 0.56995 0.6778 0.84462 0.0
C213 C 0.6197 0.91128 0.76807 0.0
C214 C 0.6191 0.87957 0.77753 0.0
C215 C 0.6555 0.85492 0.81963 0.0
C216 C 0.61253 0.7456 0.8334 0.0
C217 C 0.61559 0.78239 0.82545 0.0
C218 C 0.62851 0.88476 0.79665 0.0
C219 C 0.6241 0.84991 0.80686 0.0
H220 H 0.66384 0.69295 0.83375 0.0
H221 H 0.67358 0.75965 0.82648 0.0
H222 H 0.67638 0.82552 0.83823 0.0
H223 H 0.64786 0.9827 0.80425 0.0
H224 H 0.64733 0.92734 0.82078 0.0
C225 C 0.89499 0.59855 0.1279 0.0
C226 C 0.91308 0.60483 0.14579 0.0
C227 C 0.85503 0.59151 0.12507 0.0
C228 C 0.76689 0.58848 0.14843 0.0
H229 H 0.704 0.5028 0.10966 0.0
C230 C 0.59711 0.5342 0.12483 0.0
C231 C 0.57208 0.49329 0.11766 0.0
C232 C 0.63859 0.5493 0.13026 0.0
C233 C 0.72081 0.52625 0.12076 0.0
H234 H 0.90492 0.61105 0.17474 0.0
H235 H 0.83425 0.59685 0.16993 0.0
H236 H 0.77711 0.52934 0.1147 0.0
H237 H 0.56914 0.43519 0.11162 0.0
H238 H 0.64092 0.46066 0.122 0.0
H239 H 0.70966 0.58361 0.15499 0.0
C240 C 0.85112 0.59842 0.15801 0.0
C241 C 0.76316 0.54226 0.12339 0.0
C242 C 0.89159 0.60649 0.1608 0.0
C243 C 0.58816 0.46693 0.11705 0.0
C244 C 0.62932 0.48173 0.1228 0.0
C245 C 0.7242 0.57198 0.14595 0.0
C246 C 0.83185 0.58932 0.14012 0.0
C247 C 0.78688 0.57373 0.13718 0.0
C248 C 0.65548 0.5235 0.12881 0.0
C249 C 0.70065 0.54059 0.13207 0.0
H250 H 0.91124 0.59764 0.1161 0.0
H251 H 0.84176 0.58612 0.11108 0.0
H252 H 0.78419 0.61284 0.15912 0.0
H253 H 0.58521 0.55506 0.12523 0.0
H254 H 0.6578 0.58166 0.13467 0.0
C255 C 0.3135 0.94127 0.47154 0.0
C256 C 0.33447 0.94762 0.48879 0.0
C257 C 0.2724 0.90975 0.46833 0.0
C258 C 0.19837 0.81017 0.48643 0.0
H259 H 0.12596 0.81111 0.44739 0.0
C260 C 0.04004 0.66794 0.45808 0.0
C261 C 0.04316 0.65719 0.43971 0.0
C262 C 0.07011 0.70592 0.46677 0.0
C263 C 0.14566 0.8107 0.45852 0.0
H264 H 0.32804 0.92814 0.51663 0.0
H265 H 0.25583 0.87436 0.51131 0.0
H266 H 0.18824 0.87535 0.4584 0.0
H267 H 0.08155 0.67805 0.41643 0.0
H268 H 0.1321 0.74457 0.43127 0.0
H269 H 0.15547 0.74523 0.48632 0.0
C270 C 0.27144 0.89253 0.5 0.0
C271 C 0.18155 0.84731 0.46471 0.0
C272 C 0.31279 0.92356 0.5031 0.0
C273 C 0.077 0.68549 0.43032 0.0
C274 C 0.10627 0.72361 0.43883 0.0
C275 C 0.16202 0.77373 0.48048 0.0
C276 C 0.25104 0.88431 0.48241 0.0
C277 C 0.20928 0.84725 0.47823 0.0
C278 C 0.10318 0.73407 0.45711 0.0
C279 C 0.13623 0.77353 0.46605 0.0
H280 H 0.32944 0.9592 0.46022 0.0
H281 H 0.25818 0.90415 0.45452 0.0
H282 H 0.219 0.80854 0.49669 0.0
H283 H 0.01433 0.64721 0.46572 0.0
H284 H 0.06744 0.71345 0.48096 0.0
C285 C 0.51704 0.34206 0.81706 0.0
C286 C 0.53713 0.3683 0.83296 0.0
C287 C 0.51839 0.30592 0.81407 0.0
C288 C 0.58966 0.27087 0.82406 0.0
H289 H 0.50369 0.16627 0.8007 0.0
C290 C 0.56945 0.10774 0.79325 0.0
C291 C 0.59959 0.12276 0.78033 0.0
C292 C 0.5597 0.13435 0.80269 0.0
C293 C 0.52781 0.19516 0.80745 0.0
H294 H 0.57103 0.37525 0.85897 0.0
H295 H 0.57348 0.31242 0.85362 0.0
H296 H 0.48608 0.21707 0.81236 0.0
H297 H 0.64402 0.17699 0.76744 0.0
H298 H 0.62763 0.22386 0.78428 0.0
H299 H 0.63164 0.24982 0.81845 0.0
C300 C 0.55725 0.32013 0.8434 0.0
C301 C 0.5178 0.22418 0.81399 0.0
C302 C 0.5558 0.35609 0.84642 0.0
C303 C 0.62069 0.16486 0.77736 0.0
C304 C 0.61146 0.19156 0.78702 0.0
C305 C 0.59971 0.24216 0.81732 0.0
C306 C 0.53988 0.29554 0.82692 0.0
C307 C 0.5488 0.26253 0.82208 0.0
C308 C 0.58052 0.17641 0.79956 0.0
C309 C 0.56901 0.20444 0.80865 0.0
H310 H 0.50216 0.35045 0.80648 0.0
H311 H 0.50489 0.28752 0.8012 0.0
H312 H 0.61424 0.30041 0.83004 0.0
H313 H 0.55256 0.07522 0.7956 0.0
H314 H 0.53579 0.12212 0.81233 0.0
C315 C 0.54036 0.91117 0.49291 0.0
C316 C 0.51262 0.9177 0.50282 0.0
C317 C 0.54962 0.88103 0.49775 0.0
C318 C 0.51423 0.79052 0.52626 0.0
H319 H 0.62845 0.81792 0.52637 0.0
C320 C 0.57957 0.71041 0.56977 0.0
C321 C 0.59813 0.6922 0.55994 0.0
C322 C 0.5701 0.73763 0.56149 0.0
C323 C 0.59642 0.80987 0.52626 0.0
H324 H 0.47234 0.89719 0.52538 0.0
H325 H 0.48931 0.84605 0.5341 0.0
H326 H 0.60817 0.86451 0.51349 0.0
H327 H 0.62361 0.68951 0.53404 0.0
H328 H 0.60805 0.73826 0.51968 0.0
H329 H 0.50309 0.73687 0.53984 0.0
C330 C 0.50321 0.86319 0.52229 0.0
C331 C 0.58468 0.8363 0.51878 0.0
C332 C 0.49363 0.89285 0.51734 0.0
C333 C 0.609 0.70302 0.54189 0.0
C334 C 0.60024 0.73089 0.53371 0.0
C335 C 0.52614 0.76458 0.534 0.0
C336 C 0.5316 0.85711 0.51269 0.0
C337 C 0.54351 0.82724 0.51895 0.0
C338 C 0.5799 0.74765 0.54332 0.0
C339 C 0.56738 0.77433 0.53428 0.0
H340 H 0.55536 0.92969 0.48159 0.0
H341 H 0.57114 0.87674 0.48987 0.0
H342 H 0.48209 0.78196 0.52621 0.0
H343 H 0.57111 0.70238 0.58367 0.0
H344 H 0.55476 0.75056 0.5692 0.0
C345 C 0.73401 0.5468 0.86351 0.0
C346 C 0.72007 0.55979 0.84849 0.0
C347 C 0.77442 0.55451 0.86497 0.0
C348 C 0.85887 0.56988 0.83739 0.0
H349 H 0.92231 0.60582 0.88448 0.0
C350 C 0.98688 0.53567 0.85948 0.0
C351 C 0.01919 0.56438 0.87188 0.0
C352 C 0.95593 0.5433 0.8532 0.0
C353 C 0.9054 0.59646 0.87113 0.0
H354 H 0.73777 0.59146 0.8233 0.0
H355 H 0.80842 0.60448 0.82581 0.0
H356 H 0.85679 0.60402 0.88118 0.0
H357 H 0.04714 0.62524 0.88586 0.0
H358 H -0.00667 0.63875 0.87477 0.0
H359 H 0.90707 0.56109 0.82753 0.0
C360 C 0.78795 0.58843 0.83643 0.0
C361 C 0.86768 0.59501 0.86933 0.0
C362 C 0.74762 0.58117 0.83508 0.0
C363 C 0.02215 0.60237 0.87651 0.0
C364 C 0.99134 0.61003 0.87022 0.0
C365 C 0.89658 0.57099 0.83924 0.0
C366 C 0.80163 0.575 0.85136 0.0
C367 C 0.84366 0.58092 0.85257 0.0
C368 C 0.95694 0.57978 0.85921 0.0
C369 C 0.91987 0.58364 0.85624 0.0
H370 H 0.7136 0.5303 0.87408 0.0
H371 H 0.78406 0.54344 0.87653 0.0
H372 H 0.84081 0.55871 0.82433 0.0
H373 H 0.98382 0.50607 0.85578 0.0
H374 H 0.92971 0.51932 0.84479 0.0
C375 C 0.14437 0.77256 0.17512 0.0
C376 C 0.13936 0.74661 0.15965 0.0
C377 C 0.17889 0.81229 0.1775 0.0
C378 C 0.28525 0.8608 0.1658 0.0
H379 H 0.29676 0.95712 0.19299 0.0
C380 C 0.42599 0.02571 0.19979 0.0
C381 C 0.44537 0.01069 0.21138 0.0
C382 C 0.38763 -0.00146 0.19057 0.0
C383 C 0.29389 0.93065 0.18514 0.0
H384 H 0.16342 0.74335 0.13347 0.0
H385 H 0.22309 0.81277 0.13746 0.0
H386 H 0.22805 0.90187 0.18089 0.0
H387 H 0.44076 0.95602 0.22226 0.0
H388 H 0.37424 0.90849 0.2059 0.0
H389 H 0.35058 0.88849 0.17074 0.0
C390 C 0.20116 0.80215 0.14801 0.0
C391 C 0.25471 0.89904 0.17833 0.0
C392 C 0.16701 0.76243 0.14573 0.0
C393 C 0.42624 0.96825 0.21346 0.0
C394 C 0.38843 0.94116 0.20405 0.0
C395 C 0.32412 0.89205 0.17272 0.0
C396 C 0.20863 0.82665 0.16434 0.0
C397 C 0.24996 0.86337 0.16897 0.0
C398 C 0.3688 0.95604 0.19256 0.0
C399 C 0.32862 0.92665 0.18287 0.0
H400 H 0.12342 0.76118 0.18603 0.0
H401 H 0.18387 0.8304 0.19027 0.0
H402 H 0.28268 0.83352 0.15889 0.0
H403 H 0.44023 0.05843 0.19808 0.0
H404 H 0.37294 0.01057 0.18176 0.0
C405 C 0.47012 0.18231 0.51665 0.0
C406 C 0.47845 0.17072 0.49959 0.0
C407 C 0.47895 0.22254 0.52054 0.0
C408 C 0.51478 0.32466 0.50172 0.0
H409 H 0.57054 0.36289 0.55045 0.0
C410 C 0.56443 0.48444 0.5378 0.0
C411 C 0.59931 0.50241 0.55033 0.0
C412 C 0.55093 0.44592 0.52875 0.0
C413 C 0.55566 0.35301 0.53669 0.0
H414 H 0.4999 0.1906 0.47274 0.0
H415 H 0.51676 0.2618 0.4797 0.0
H416 H 0.53977 0.29104 0.54019 0.0
H417 H 0.64945 0.49622 0.56209 0.0
H418 H 0.62675 0.42952 0.54587 0.0
H419 H 0.53201 0.38748 0.49821 0.0
C420 C 0.5025 0.23966 0.48994 0.0
C421 C 0.53717 0.31149 0.53093 0.0
C422 C 0.49281 0.19896 0.48592 0.0
C423 C 0.62217 0.48268 0.55266 0.0
C424 C 0.60899 0.44445 0.54345 0.0
C425 C 0.53355 0.36654 0.5075 0.0
C426 C 0.4975 0.25227 0.50762 0.0
C427 C 0.51614 0.29665 0.51347 0.0
C428 C 0.57228 0.42486 0.53198 0.0
C429 C 0.55417 0.38112 0.52509 0.0
H430 H 0.45899 0.16083 0.52736 0.0
H431 H 0.47354 0.23096 0.53409 0.0
H432 H 0.4989 0.31419 0.48817 0.0
H433 H 0.5461 0.49896 0.53589 0.0
H434 H 0.52243 0.43164 0.52011 0.0
C435 C 0.3894 0.45666 0.81113 0.0
C436 C 0.41061 0.46714 0.8286 0.0
C437 C 0.34805 0.44655 0.80935 0.0
C438 C 0.25472 0.41029 0.83418 0.0
H439 H 0.23847 0.49259 0.81132 0.0
C440 C 0.1502 0.46335 0.86239 0.0
C441 C 0.13086 0.47871 0.85096 0.0
C442 C 0.17513 0.44963 0.85509 0.0
C443 C 0.24178 0.46849 0.81729 0.0
H444 H 0.40507 0.47326 0.85788 0.0
H445 H 0.33278 0.4544 0.85481 0.0
H446 H 0.30077 0.48972 0.80636 0.0
H447 H 0.1205 0.48972 0.82299 0.0
H448 H 0.16446 0.46547 0.80998 0.0
H449 H 0.1967 0.38995 0.84572 0.0
C450 C 0.34808 0.45444 0.84251 0.0
C451 C 0.27753 0.46694 0.81446 0.0
C452 C 0.38946 0.46555 0.84425 0.0
C453 C 0.13537 0.4782 0.83199 0.0
C454 C 0.16054 0.46448 0.82462 0.0
C455 C 0.21877 0.41142 0.83681 0.0
C456 C 0.32722 0.44555 0.82506 0.0
C457 C 0.28515 0.43923 0.82365 0.0
C458 C 0.18135 0.45078 0.83617 0.0
C459 C 0.21302 0.44208 0.82926 0.0
H460 H 0.40519 0.45784 0.79885 0.0
H461 H 0.33251 0.44006 0.79576 0.0
H462 H 0.2599 0.38842 0.84127 0.0
H463 H 0.14715 0.46309 0.8771 0.0
H464 H 0.19119 0.44006 0.86449 0.0
C465 C 0.93957 0.41077 0.17134 0.0
C466 C 0.93759 0.43286 0.15665 0.0
C467 C 0.90708 0.37117 0.17363 0.0
C468 C 0.79555 0.31021 0.16336 0.0
H469 H 0.80735 0.22661 0.18754 0.0
C470 C 0.65586 0.16866 0.18955 0.0
C471 C 0.66161 0.16142 0.20791 0.0
C472 C 0.68965 0.19549 0.18004 0.0
C473 C 0.80363 0.24968 0.18075 0.0
H474 H 0.90143 0.42931 0.13197 0.0
H475 H 0.84491 0.35982 0.13585 0.0
H476 H 0.86762 0.28441 0.17558 0.0
H477 H 0.70639 0.17509 0.23048 0.0
H478 H 0.76581 0.22252 0.21393 0.0
H479 H 0.73192 0.27624 0.16898 0.0
C480 C 0.87123 0.37359 0.14583 0.0
C481 C 0.83807 0.28273 0.17391 0.0
C482 C 0.9037 0.41334 0.14357 0.0
C483 C 0.70155 0.18044 0.21636 0.0
C484 C 0.73538 0.20718 0.20684 0.0
C485 C 0.76114 0.27711 0.1701 0.0
C486 C 0.87194 0.35264 0.16123 0.0
C487 C 0.83463 0.314 0.16561 0.0
C488 C 0.72969 0.21543 0.18866 0.0
C489 C 0.76505 0.24713 0.17932 0.0
H490 H 0.96531 0.42475 0.18162 0.0
H491 H 0.90854 0.35615 0.18575 0.0
H492 H 0.79185 0.33402 0.15731 0.0
H493 H 0.62531 0.15415 0.18264 0.0
H494 H 0.68441 0.20101 0.16599 0.0
C495 C 0.02195 0.55861 0.07555 0.0
C496 C 0.05706 0.57746 0.08797 0.0
C497 C 0.02593 0.55601 0.05668 0.0
C498 C 0.09475 0.55669 0.02235 0.0
H499 H 0.02945 0.58406 0.9898 0.0
C500 C 0.1086 0.56188 0.94326 0.0
C501 C 0.07153 0.54642 0.93234 0.0
C502 C 0.109 0.56646 0.96243 0.0
C503 C 0.04756 0.57586 -0.00133 0.0
H504 H 0.12394 0.60782 0.09028 0.0
H505 H 0.13078 0.60303 0.05719 0.0
H506 H 0.02617 0.59063 0.02294 0.0
H507 H 0.00561 0.52171 0.93286 0.0
H508 H 0.00614 0.52914 0.96618 0.0
H509 H 0.11563 0.54126 -0.002 0.0
C510 C 0.10022 0.59028 0.06216 0.0
C511 C 0.04573 0.57972 0.01766 0.0
C512 C 0.09627 0.59319 0.08108 0.0
C513 C 0.03477 0.53453 0.94093 0.0
C514 C 0.03512 0.5389 0.96001 0.0
C515 C 0.09642 0.55258 0.00329 0.0
C516 C 0.06508 0.57197 0.04978 0.0
C517 C 0.0689 0.56973 0.02968 0.0
C518 C 0.07229 0.55547 0.97099 0.0
C519 C 0.07241 0.56163 0.99124 0.0
H520 H 0.99127 0.5461 0.08037 0.0
H521 H -0.00173 0.54123 0.04747 0.0
H522 H 0.11275 0.54854 0.03132 0.0
H523 H 0.13739 0.57143 0.93696 0.0
H524 H 0.13817 0.57956 0.97049 0.0
C525 C 0.50602 0.01034 0.41513 0.0
C526 C 0.4942 0.03562 0.42457 0.0
C527 C 0.51057 0.01237 0.39621 0.0
C528 C 0.5389 0.08244 0.3603 0.0
H529 H 0.47768 0.98638 0.32608 0.0
C530 C 0.53716 0.09541 0.28181 0.0
C531 C 0.5317 0.06208 0.27033 0.0
C532 C 0.53521 0.09239 0.30082 0.0
C533 C 0.49578 0.01341 0.33543 0.0
H534 H 0.47771 0.08267 0.42162 0.0
H535 H 0.48681 0.08692 0.38858 0.0
H536 H 0.46831 0.97974 0.35891 0.0
H537 H 0.52172 0.00027 0.26935 0.0
H538 H 0.52068 -0.00445 0.30264 0.0
H539 H 0.56756 0.11606 0.33714 0.0
C540 C 0.49206 0.06532 0.39586 0.0
C541 C 0.49004 0.00955 0.35421 0.0
C542 C 0.48662 0.06265 0.4147 0.0
C543 C 0.52593 0.02629 0.27807 0.0
C544 C 0.52486 0.02352 0.2971 0.0
C545 C 0.54533 0.08619 0.34157 0.0
C546 C 0.50428 0.04035 0.38652 0.0
C547 C 0.51119 0.04412 0.36674 0.0
C548 C 0.52849 0.05616 0.30872 0.0
C549 C 0.5235 0.05181 0.32883 0.0
H550 H 0.51197 0.98916 0.42239 0.0
H551 H 0.52005 0.99288 0.38923 0.0
H552 H 0.5559 0.10941 0.36981 0.0
H553 H 0.54114 0.1231 0.276 0.0
H554 H 0.53745 0.11793 0.30918 0.0
C555 C 0.61459 0.56597 0.76206 0.0
C556 C 0.58292 0.52918 0.76836 0.0
C557 C 0.61942 0.5705 0.74326 0.0
C558 C 0.59503 0.51135 0.69856 0.0
H559 H 0.61468 0.61309 0.6786 0.0
C560 C 0.58544 0.52748 0.6206 0.0
C561 C 0.61399 0.56501 0.61369 0.0
C562 C 0.5833 0.52349 0.63953 0.0
C563 C 0.60982 0.58472 0.68398 0.0
H564 H 0.53162 0.4682 0.75974 0.0
H565 H 0.5401 0.4762 0.72686 0.0
H566 H 0.60746 0.60516 0.7115 0.0
H567 H 0.66297 0.62768 0.6212 0.0
H568 H 0.65958 0.62064 0.65437 0.0
H569 H 0.59752 0.49091 0.67108 0.0
C570 C 0.56132 0.50141 0.73655 0.0
C571 C 0.60558 0.58015 0.70283 0.0
C572 C 0.55633 0.49693 0.75538 0.0
C573 C 0.64046 0.59848 0.62614 0.0
C574 C 0.63842 0.59444 0.64512 0.0
C575 C 0.59945 0.51598 0.67972 0.0
C576 C 0.59285 0.5383 0.73029 0.0
C577 C 0.59792 0.54333 0.7103 0.0
C578 C 0.60971 0.5569 0.65203 0.0
C579 C 0.60663 0.55262 0.67218 0.0
H580 H 0.63569 0.59145 0.77165 0.0
H581 H 0.64428 0.59911 0.73887 0.0
H582 H 0.5898 0.48287 0.70396 0.0
H583 H 0.56404 0.50136 0.61137 0.0
H584 H 0.56027 0.49439 0.64435 0.0
C585 C 0.48614 0.01127 0.57604 0.0
C586 C 0.50569 0.04771 0.5668 0.0
C587 C 0.49522 0.0119 0.59486 0.0
C588 C 0.53989 0.08093 0.63709 0.0
H589 H 0.56418 -0.00179 0.65332 0.0
C590 C 0.61521 0.09581 0.7091 0.0
C591 C 0.59879 0.0601 0.71886 0.0
C592 C 0.60405 0.09334 0.69042 0.0
C593 C 0.55706 0.02124 0.64904 0.0
H594 H 0.5489 0.11362 0.57021 0.0
H595 H 0.5646 0.11463 0.60297 0.0
H596 H 0.54137 -0.0047 0.62121 0.0
H597 H 0.55855 0.99372 0.71665 0.0
H598 H 0.53894 0.98936 0.68398 0.0
H599 H 0.5555 0.1069 0.66487 0.0
C600 C 0.54223 0.08561 0.5957 0.0
C601 C 0.54392 0.01953 0.63068 0.0
C602 C 0.53337 0.08497 0.57689 0.0
C603 C 0.57209 0.02169 0.70942 0.0
C604 C 0.56081 0.01922 0.69072 0.0
C605 C 0.5529 0.08258 0.65545 0.0
C606 C 0.52374 0.04901 0.60482 0.0
C607 C 0.53549 0.04953 0.62449 0.0
C608 C 0.5761 0.05512 0.68111 0.0
C609 C 0.56194 0.05296 0.6616 0.0
H610 H 0.46465 0.98205 0.56867 0.0
H611 H 0.48014 0.9833 0.60161 0.0
H612 H 0.53307 0.10414 0.63277 0.0
H613 H 0.63629 0.12576 0.71599 0.0
H614 H 0.61706 0.12145 0.6833 0.0
C615 C 0.55668 0.48127 0.91846 0.0
C616 C 0.54394 0.50463 0.90857 0.0
C617 C 0.54725 0.47359 0.93671 0.0
C618 C 0.47635 0.47183 0.97089 0.0
H619 H 0.55869 0.47524 0.00575 0.0
C620 C 0.46732 0.47635 0.05006 0.0
C621 C 0.48244 0.45509 0.06009 0.0
C622 C 0.47004 0.47781 0.03101 0.0
C623 C 0.53511 0.47353 0.99613 0.0
H624 H 0.51165 0.53869 0.91026 0.0
H625 H 0.49593 0.52595 0.9423 0.0
H626 H 0.57467 0.48919 0.97393 0.0
H627 H 0.50922 0.41603 0.05787 0.0
H628 H 0.51393 0.41854 0.02461 0.0
H629 H 0.43712 0.45691 0.99333 0.0
C630 C 0.51259 0.51295 0.93578 0.0
C631 C 0.5443 0.4816 0.97788 0.0
C632 C 0.52192 0.52055 0.91746 0.0
C633 C 0.49795 0.43322 0.05054 0.0
C634 C 0.50073 0.43474 0.03153 0.0
C635 C 0.46721 0.46391 0.98921 0.0
C636 C 0.52502 0.48923 0.94559 0.0
C637 C 0.51506 0.48084 0.96503 0.0
C638 C 0.48799 0.4581 0.02165 0.0
C639 C 0.49652 0.46464 0.00201 0.0
H640 H 0.57344 0.46827 0.91203 0.0
H641 H 0.55679 0.45471 0.94377 0.0
H642 H 0.45292 0.47042 0.96127 0.0
H643 H 0.45561 0.49388 0.05704 0.0
H644 H 0.46019 0.49627 0.0238 0.0
C645 C 0.01952 0.5627 0.23835 0.0
C646 C 0.01921 0.5931 0.2279 0.0
C647 C 0.01012 0.56017 0.25673 0.0
C648 C 0.00638 0.62031 0.29678 0.0
H649 H 0.93892 0.51247 0.31516 0.0
C650 C 0.96483 0.60207 0.37229 0.0
C651 C 0.97084 0.57294 0.38119 0.0
C652 C 0.96481 0.60292 0.35316 0.0
C653 C 0.95793 0.54278 0.31025 0.0
H654 H 0.0092 0.64502 0.22871 0.0
H655 H -0.00728 0.6405 0.26092 0.0
H656 H 0.95155 0.51817 0.28256 0.0
H657 H 0.98015 0.52099 0.37697 0.0
H658 H 0.98008 0.5224 0.34361 0.0
H659 H 0.01344 0.64488 0.32452 0.0
C660 C 0.00047 0.61878 0.25483 0.0
C661 C 0.96521 0.54605 0.29159 0.0
C662 C 0.00983 0.62131 0.23637 0.0
C663 C 0.97495 0.5435 0.3705 0.0
C664 C 0.97494 0.54434 0.35138 0.0
C665 C -0.00089 0.61703 0.31545 0.0
C666 C 0.00019 0.58795 0.26515 0.0
C667 C 0.99006 0.5848 0.28471 0.0
C668 C 0.97077 0.57462 0.34252 0.0
C669 C 0.9753 0.57819 0.32244 0.0
H670 H 0.02675 0.54054 0.23232 0.0
H671 H 0.01096 0.53657 0.26441 0.0
H672 H 0.026 0.65056 0.29194 0.0
H673 H 0.96094 0.62475 0.38016 0.0
H674 H 0.96078 0.62615 0.34671 0.0
loop_
_geom_bond_atom_site_label_1
_geom_bond_atom_site_label_2
_geom_bond_distance
_geom_bond_site_symmetry_2
_ccdc_geom_bond_type
O0 Zn1 1.953 . S
O0 C16 1.225 . S
Zn1 O0 1.953 . S
Zn1 O2 1.949 . S
Zn1 O8 1.919 1_455 S
Zn1 O13 1.924 . S
O2 Zn1 1.949 . S
O2 Zn3 1.913 1_455 S
O2 Zn4 1.950 . S
O2 Zn5 1.945 . S
Zn3 O2 1.913 1_655 S
Zn3 O6 1.930 1_655 S
Zn3 O9 1.958 . S
Zn3 O10 1.966 . S
Zn4 O2 1.950 . S
Zn4 O11 1.938 . S
Zn4 O12 1.906 . S
Zn4 O22 1.953 . S
Zn5 O2 1.945 . S
Zn5 O7 1.932 . S
Zn5 O14 1.977 . S
Zn5 O15 1.910 . S
O6 Zn3 1.930 1_455 S
O6 C17 1.226 . S
O7 Zn5 1.932 . S
O7 C17 1.307 . S
O8 Zn1 1.919 1_655 S
O8 C19 1.253 . S
O9 Zn3 1.958 . S
O9 C19 1.283 . S
O10 Zn3 1.966 . S
O10 C18 1.303 . S
O11 Zn4 1.938 . S
O11 C18 1.247 1_455 S
O12 Zn4 1.906 . S
O12 C20 1.304 . S
O13 Zn1 1.924 . S
O13 C21 1.311 . S
O14 Zn5 1.977 . S
O14 C20 1.272 . S
O15 Zn5 1.910 . S
O15 C21 1.231 . S
C16 O0 1.225 . S
C16 O22 1.298 . S
C17 O6 1.226 . S
C17 O7 1.307 . S
C18 O10 1.303 . S
C18 O11 1.247 1_655 S
C19 O8 1.253 . S
C19 O9 1.283 . S
C20 O12 1.304 . S
C20 O14 1.272 . S
C21 O13 1.311 . S
C21 O15 1.231 . S
O22 Zn4 1.953 . S
O22 C16 1.298 . S
O23 Zn24 1.953 . S
O23 C39 1.225 . S
Zn24 O23 1.953 . S
Zn24 O25 1.949 . S
Zn24 O31 1.919 . S
Zn24 O36 1.924 . S
O25 Zn24 1.949 . S
O25 Zn26 1.923 . S
O25 Zn27 1.950 . S
O25 Zn28 1.945 . S
Zn26 O25 1.923 . S
Zn26 O29 1.933 . S
Zn26 O32 1.941 . S
Zn26 O33 1.965 . S
Zn27 O25 1.950 . S
Zn27 O34 1.938 . S
Zn27 O35 1.906 1_545 S
Zn27 O45 1.953 . S
Zn28 O25 1.945 . S
Zn28 O30 1.932 . S
Zn28 O37 1.977 1_545 S
Zn28 O38 1.910 1_545 S
O29 Zn26 1.933 . S
O29 C40 1.226 . S
O30 Zn28 1.932 . S
O30 C40 1.307 . S
O31 Zn24 1.919 . S
O31 C42 1.253 . S
O32 Zn26 1.941 . S
O32 C42 1.283 . S
O33 Zn26 1.965 . S
O33 C41 1.303 . S
O34 Zn27 1.938 . S
O34 C41 1.247 . S
O35 Zn27 1.906 1_565 S
O35 C43 1.304 . S
O36 Zn24 1.924 . S
O36 C44 1.311 1_545 S
O37 Zn28 1.977 1_565 S
O37 C43 1.272 . S
O38 Zn28 1.910 1_565 S
O38 C44 1.231 . S
C39 O23 1.225 . S
C39 O45 1.298 . S
C40 O29 1.226 . S
C40 O30 1.307 . S
C41 O33 1.303 . S
C41 O34 1.247 . S
C42 O31 1.253 . S
C42 O32 1.283 . S
C43 O35 1.304 . S
C43 O37 1.272 . S
C44 O36 1.311 1_565 S
C44 O38 1.231 . S
O45 Zn27 1.953 . S
O45 C39 1.298 . S
O46 Zn47 1.953 . S
O46 C62 1.225 . S
Zn47 O46 1.953 . S
Zn47 O48 1.949 . S
Zn47 O54 1.919 . S
Zn47 O59 1.924 . S
O48 Zn47 1.949 . S
O48 Zn49 1.923 . S
O48 Zn50 1.950 . S
O48 Zn51 1.945 . S
Zn49 O48 1.923 . S
Zn49 O52 1.933 . S
Zn49 O55 1.941 . S
Zn49 O56 1.965 . S
Zn50 O48 1.950 . S
Zn50 O57 1.938 . S
Zn50 O58 1.906 . S
Zn50 O68 1.953 . S
Zn51 O48 1.945 . S
Zn51 O53 1.932 . S
Zn51 O60 1.977 . S
Zn51 O61 1.910 . S
O52 Zn49 1.933 . S
O52 C63 1.226 . S
O53 Zn51 1.932 . S
O53 C63 1.307 . S
O54 Zn47 1.919 . S
O54 C65 1.253 . S
O55 Zn49 1.941 . S
O55 C65 1.283 . S
O56 Zn49 1.965 . S
O56 C64 1.303 . S
O57 Zn50 1.938 . S
O57 C64 1.247 . S
O58 Zn50 1.906 . S
O58 C66 1.304 . S
O59 Zn47 1.924 . S
O59 C67 1.311 . S
O60 Zn51 1.977 . S
O60 C66 1.272 . S
O61 Zn51 1.910 . S
O61 C67 1.231 . S
C62 O46 1.225 . S
C62 O68 1.298 . S
C63 O52 1.226 . S
C63 O53 1.307 . S
C64 O56 1.303 . S
C64 O57 1.247 . S
C65 O54 1.253 . S
C65 O55 1.283 . S
C66 O58 1.304 . S
C66 O60 1.272 . S
C67 O59 1.311 . S
C67 O61 1.231 . S
O68 Zn50 1.953 . S
O68 C62 1.298 . S
H69 C74 0.929 . S
H70 C79 0.931 . S
H71 C77 0.930 . S
N72 N73 1.234 . S
N72 C76 1.453 . S
N73 N72 1.234 . S
C74 H69 0.929 . S
C74 C75 1.373 . S
C74 C76 1.368 . S
C75 C74 1.373 . S
C75 C79 1.397 . S
C76 N72 1.453 . S
C76 C74 1.368 . S
C76 C77 1.373 . S
C77 H71 0.930 . S
C77 C76 1.373 . S
C77 C78 1.371 . S
C78 C77 1.371 . S
C78 C79 1.383 . S
C79 H70 0.931 . S
C79 C75 1.397 . S
C79 C78 1.383 . S
H80 C85 0.929 . S
H81 C90 0.931 . S
H82 C88 0.930 . S
N83 N84 1.234 . S
N83 C87 1.453 . S
N84 N83 1.234 . S
C85 H80 0.929 . S
C85 C86 1.373 . S
C85 C87 1.368 . S
C86 C85 1.373 . S
C86 C90 1.397 . S
C87 N83 1.453 . S
C87 C85 1.368 . S
C87 C88 1.373 . S
C88 H82 0.930 . S
C88 C87 1.373 . S
C88 C89 1.371 . S
C89 C88 1.371 . S
C89 C90 1.383 . S
C90 H81 0.931 . S
C90 C86 1.397 . S
C90 C89 1.383 . S
H91 C96 0.929 . S
H92 C101 0.931 . S
H93 C99 0.930 . S
N94 N95 1.234 . S
N94 C98 1.453 . S
N95 N94 1.234 . S
C96 H91 0.929 . S
C96 C97 1.373 . S
C96 C98 1.368 . S
C97 C96 1.373 . S
C97 C101 1.397 . S
C98 N94 1.453 . S
C98 C96 1.368 . S
C98 C99 1.373 . S
C99 H93 0.930 . S
C99 C98 1.373 . S
C99 C100 1.371 . S
C100 C99 1.371 . S
C100 C101 1.383 . S
C101 H92 0.931 . S
C101 C97 1.397 . S
C101 C100 1.383 . S
H102 C107 0.929 . S
H103 C112 0.931 . S
H104 C110 0.930 1_655 S
N105 N106 1.234 . S
N105 C109 1.453 1_655 S
N106 N105 1.234 . S
C107 H102 0.929 . S
C107 C108 1.373 . S
C107 C109 1.368 . S
C108 C107 1.373 . S
C108 C112 1.397 . S
C109 N105 1.453 1_455 S
C109 C107 1.368 . S
C109 C110 1.373 . S
C110 H104 0.930 1_455 S
C110 C109 1.373 . S
C110 C111 1.371 . S
C111 C110 1.371 . S
C111 C112 1.383 . S
C112 H103 0.931 . S
C112 C108 1.397 . S
C112 C111 1.383 . S
H113 C118 0.929 . S
H114 C123 0.931 . S
H115 C121 0.930 1_565 S
N116 N117 1.234 . S
N116 C120 1.453 1_565 S
N117 N116 1.234 . S
C118 H113 0.929 . S
C118 C119 1.373 . S
C118 C120 1.368 . S
C119 C118 1.373 . S
C119 C123 1.397 . S
C120 N116 1.453 1_545 S
C120 C118 1.368 . S
C120 C121 1.373 . S
C121 H115 0.930 1_545 S
C121 C120 1.373 . S
C121 C122 1.371 . S
C122 C121 1.371 . S
C122 C123 1.383 . S
C123 H114 0.931 . S
C123 C119 1.397 . S
C123 C122 1.383 . S
H124 C129 0.929 . S
H125 C134 0.931 . S
H126 C132 0.930 . S
N127 N128 1.234 . S
N127 C131 1.453 . S
N128 N127 1.234 . S
C129 H124 0.929 . S
C129 C130 1.373 . S
C129 C131 1.368 . S
C130 C129 1.373 . S
C130 C134 1.397 . S
C131 N127 1.453 . S
C131 C129 1.368 . S
C131 C132 1.373 . S
C132 H126 0.930 . S
C132 C131 1.373 . S
C132 C133 1.371 . S
C133 C132 1.371 . S
C133 C134 1.383 . S
C134 H125 0.931 . S
C134 C130 1.397 . S
C134 C133 1.383 . S
C135 C136 1.349 . S
C135 C137 1.327 . S
C135 H160 0.950 . S
C136 C135 1.349 . S
C136 C152 1.349 . S
C137 C135 1.327 . S
C137 C156 1.429 . S
C137 H161 0.950 . S
C138 C155 1.574 . S
C138 C157 1.368 . S
C138 H162 0.949 . S
H139 C143 0.949 . S
C140 C141 1.349 . S
C140 C142 1.327 . S
C140 H163 0.950 . S
C141 C140 1.349 . S
C141 C153 1.349 . S
C142 C140 1.327 . S
C142 C158 1.429 . S
C142 H164 0.950 . S
C143 H139 0.949 . S
C143 C151 1.574 . S
C143 C159 1.368 . S
H144 C152 0.950 . S
H145 C150 0.950 . S
H146 C151 0.949 . S
H147 C153 0.950 . S
H148 C154 0.950 . S
H149 C155 0.949 . S
C150 H145 0.950 . S
C150 C152 1.327 . S
C150 C156 1.429 . S
C151 C143 1.574 . S
C151 H146 0.949 . S
C151 C157 1.368 . S
C152 C136 1.349 . S
C152 H144 0.950 . S
C152 C150 1.327 . S
C153 C141 1.349 . S
C153 H147 0.950 . S
C153 C154 1.327 . S
C154 H148 0.950 . S
C154 C153 1.327 . S
C154 C158 1.429 . S
C155 C138 1.574 . S
C155 H149 0.949 . S
C155 C159 1.368 . S
C156 C137 1.429 . S
C156 C150 1.429 . S
C156 C157 1.523 . S
C157 C138 1.368 . S
C157 C151 1.368 . S
C157 C156 1.523 . S
C158 C142 1.429 . S
C158 C154 1.429 . S
C158 C159 1.523 . S
C159 C143 1.368 . S
C159 C155 1.368 . S
C159 C158 1.523 . S
H160 C135 0.950 . S
H161 C137 0.950 . S
H162 C138 0.949 . S
H163 C140 0.950 . S
H164 C142 0.950 . S
C165 C166 1.349 . S
C165 C167 1.327 . S
C165 H190 0.950 . S
C166 C165 1.349 . S
C166 C182 1.349 . S
C167 C165 1.327 . S
C167 C186 1.429 . S
C167 H191 0.950 . S
C168 C185 1.574 . S
C168 C187 1.368 . S
C168 H192 0.949 . S
H169 C173 0.949 . S
C170 C171 1.349 . S
C170 C172 1.327 . S
C170 H193 0.950 . S
C171 C170 1.349 . S
C171 C183 1.349 . S
C172 C170 1.327 . S
C172 C188 1.429 . S
C172 H194 0.950 . S
C173 H169 0.949 . S
C173 C181 1.574 . S
C173 C189 1.368 . S
H174 C182 0.950 . S
H175 C180 0.950 . S
H176 C181 0.949 . S
H177 C183 0.950 . S
H178 C184 0.950 . S
H179 C185 0.949 . S
C180 H175 0.950 . S
C180 C182 1.327 . S
C180 C186 1.429 . S
C181 C173 1.574 . S
C181 H176 0.949 . S
C181 C187 1.368 . S
C182 C166 1.349 . S
C182 H174 0.950 . S
C182 C180 1.327 . S
C183 C171 1.349 . S
C183 H177 0.950 . S
C183 C184 1.327 . S
C184 H178 0.950 . S
C184 C183 1.327 . S
C184 C188 1.429 . S
C185 C168 1.574 . S
C185 H179 0.949 . S
C185 C189 1.368 . S
C186 C167 1.429 . S
C186 C180 1.429 . S
C186 C187 1.523 . S
C187 C168 1.368 . S
C187 C181 1.368 . S
C187 C186 1.523 . S
C188 C172 1.429 . S
C188 C184 1.429 . S
C188 C189 1.523 . S
C189 C173 1.368 . S
C189 C185 1.368 . S
C189 C188 1.523 . S
H190 C165 0.950 . S
H191 C167 0.950 . S
H192 C168 0.949 . S
H193 C170 0.950 . S
H194 C172 0.950 . S
C195 C196 1.349 . S
C195 C197 1.327 . S
C195 H220 0.950 . S
C196 C195 1.349 . S
C196 C212 1.349 . S
C197 C195 1.327 . S
C197 C216 1.429 . S
C197 H221 0.950 . S
C198 C215 1.574 . S
C198 C217 1.368 . S
C198 H222 0.949 . S
H199 C203 0.949 . S
C200 C201 1.349 . S
C200 C202 1.327 . S
C200 H223 0.950 . S
C201 C200 1.349 . S
C201 C213 1.349 . S
C202 C200 1.327 . S
C202 C218 1.429 . S
C202 H224 0.950 . S
C203 H199 0.949 . S
C203 C211 1.574 . S
C203 C219 1.368 . S
H204 C212 0.950 . S
H205 C210 0.950 . S
H206 C211 0.949 . S
H207 C213 0.950 . S
H208 C214 0.950 . S
H209 C215 0.949 . S
C210 H205 0.950 . S
C210 C212 1.327 . S
C210 C216 1.429 . S
C211 C203 1.574 . S
C211 H206 0.949 . S
C211 C217 1.368 . S
C212 C196 1.349 . S
C212 H204 0.950 . S
C212 C210 1.327 . S
C213 C201 1.349 . S
C213 H207 0.950 . S
C213 C214 1.327 . S
C214 H208 0.950 . S
C214 C213 1.327 . S
C214 C218 1.429 . S
C215 C198 1.574 . S
C215 H209 0.949 . S
C215 C219 1.368 . S
C216 C197 1.429 . S
C216 C210 1.429 . S
C216 C217 1.523 . S
C217 C198 1.368 . S
C217 C211 1.368 . S
C217 C216 1.523 . S
C218 C202 1.429 . S
C218 C214 1.429 . S
C218 C219 1.523 . S
C219 C203 1.368 . S
C219 C215 1.368 . S
C219 C218 1.523 . S
H220 C195 0.950 . S
H221 C197 0.950 . S
H222 C198 0.949 . S
H223 C200 0.950 . S
H224 C202 0.950 . S
C225 C226 1.349 . S
C225 C227 1.327 . S
C225 H250 0.950 . S
C226 C225 1.349 . S
C226 C242 1.349 . S
C227 C225 1.327 . S
C227 C246 1.429 . S
C227 H251 0.950 . S
C228 C245 1.574 . S
C228 C247 1.368 . S
C228 H252 0.949 . S
H229 C233 0.949 . S
C230 C231 1.349 . S
C230 C232 1.327 . S
C230 H253 0.950 . S
C231 C230 1.349 . S
C231 C243 1.349 . S
C232 C230 1.327 . S
C232 C248 1.429 . S
C232 H254 0.950 . S
C233 H229 0.949 . S
C233 C241 1.574 . S
C233 C249 1.368 . S
H234 C242 0.950 . S
H235 C240 0.950 . S
H236 C241 0.949 . S
H237 C243 0.950 . S
H238 C244 0.950 . S
H239 C245 0.949 . S
C240 H235 0.950 . S
C240 C242 1.327 . S
C240 C246 1.429 . S
C241 C233 1.574 . S
C241 H236 0.949 . S
C241 C247 1.368 . S
C242 C226 1.349 . S
C242 H234 0.950 . S
C242 C240 1.327 . S
C243 C231 1.349 . S
C243 H237 0.950 . S
C243 C244 1.327 . S
C244 H238 0.950 . S
C244 C243 1.327 . S
C244 C248 1.429 . S
C245 C228 1.574 . S
C245 H239 0.949 . S
C245 C249 1.368 . S
C246 C227 1.429 . S
C246 C240 1.429 . S
C246 C247 1.523 . S
C247 C228 1.368 . S
C247 C241 1.368 . S
C247 C246 1.523 . S
C248 C232 1.429 . S
C248 C244 1.429 . S
C248 C249 1.523 . S
C249 C233 1.368 . S
C249 C245 1.368 . S
C249 C248 1.523 . S
H250 C225 0.950 . S
H251 C227 0.950 . S
H252 C228 0.949 . S
H253 C230 0.950 . S
H254 C232 0.950 . S
C255 C256 1.349 . S
C255 C257 1.327 . S
C255 H280 0.950 . S
C256 C255 1.349 . S
C256 C272 1.349 . S
C257 C255 1.327 . S
C257 C276 1.429 . S
C257 H281 0.950 . S
C258 C275 1.574 . S
C258 C277 1.368 . S
C258 H282 0.949 . S
H259 C263 0.949 . S
C260 C261 1.349 . S
C260 C262 1.327 . S
C260 H283 0.950 . S
C261 C260 1.349 . S
C261 C273 1.349 . S
C262 C260 1.327 . S
C262 C278 1.429 . S
C262 H284 0.950 . S
C263 H259 0.949 . S
C263 C271 1.574 . S
C263 C279 1.368 . S
H264 C272 0.950 . S
H265 C270 0.950 . S
H266 C271 0.949 . S
H267 C273 0.950 . S
H268 C274 0.950 . S
H269 C275 0.949 . S
C270 H265 0.950 . S
C270 C272 1.327 . S
C270 C276 1.429 . S
C271 C263 1.574 . S
C271 H266 0.949 . S
C271 C277 1.368 . S
C272 C256 1.349 . S
C272 H264 0.950 . S
C272 C270 1.327 . S
C273 C261 1.349 . S
C273 H267 0.950 . S
C273 C274 1.327 . S
C274 H268 0.950 . S
C274 C273 1.327 . S
C274 C278 1.429 . S
C275 C258 1.574 . S
C275 H269 0.949 . S
C275 C279 1.368 . S
C276 C257 1.429 . S
C276 C270 1.429 . S
C276 C277 1.523 . S
C277 C258 1.368 . S
C277 C271 1.368 . S
C277 C276 1.523 . S
C278 C262 1.429 . S
C278 C274 1.429 . S
C278 C279 1.523 . S
C279 C263 1.368 . S
C279 C275 1.368 . S
C279 C278 1.523 . S
H280 C255 0.950 . S
H281 C257 0.950 . S
H282 C258 0.949 . S
H283 C260 0.950 . S
H284 C262 0.950 . S
C285 C286 1.349 . S
C285 C287 1.327 . S
C285 H310 0.950 . S
C286 C285 1.349 . S
C286 C302 1.349 . S
C287 C285 1.327 . S
C287 C306 1.429 . S
C287 H311 0.950 . S
C288 C305 1.574 . S
C288 C307 1.368 . S
C288 H312 0.949 . S
H289 C293 0.949 . S
C290 C291 1.349 . S
C290 C292 1.327 . S
C290 H313 0.950 . S
C291 C290 1.349 . S
C291 C303 1.349 . S
C292 C290 1.327 . S
C292 C308 1.429 . S
C292 H314 0.950 . S
C293 H289 0.949 . S
C293 C301 1.574 . S
C293 C309 1.368 . S
H294 C302 0.950 . S
H295 C300 0.950 . S
H296 C301 0.949 . S
H297 C303 0.950 . S
H298 C304 0.950 . S
H299 C305 0.949 . S
C300 H295 0.950 . S
C300 C302 1.327 . S
C300 C306 1.429 . S
C301 C293 1.574 . S
C301 H296 0.949 . S
C301 C307 1.368 . S
C302 C286 1.349 . S
C302 H294 0.950 . S
C302 C300 1.327 . S
C303 C291 1.349 . S
C303 H297 0.950 . S
C303 C304 1.327 . S
C304 H298 0.950 . S
C304 C303 1.327 . S
C304 C308 1.429 . S
C305 C288 1.574 . S
C305 H299 0.949 . S
C305 C309 1.368 . S
C306 C287 1.429 . S
C306 C300 1.429 . S
C306 C307 1.523 . S
C307 C288 1.368 . S
C307 C301 1.368 . S
C307 C306 1.523 . S
C308 C292 1.429 . S
C308 C304 1.429 . S
C308 C309 1.523 . S
C309 C293 1.368 . S
C309 C305 1.368 . S
C309 C308 1.523 . S
H310 C285 0.950 . S
H311 C287 0.950 . S
H312 C288 0.949 . S
H313 C290 0.950 . S
H314 C292 0.950 . S
C315 C316 1.349 . S
C315 C317 1.327 . S
C315 H340 0.950 . S
C316 C315 1.349 . S
C316 C332 1.349 . S
C317 C315 1.327 . S
C317 C336 1.429 . S
C317 H341 0.950 . S
C318 C335 1.574 . S
C318 C337 1.368 . S
C318 H342 0.949 . S
H319 C323 0.949 . S
C320 C321 1.349 . S
C320 C322 1.327 . S
C320 H343 0.950 . S
C321 C320 1.349 . S
C321 C333 1.349 . S
C322 C320 1.327 . S
C322 C338 1.429 . S
C322 H344 0.950 . S
C323 H319 0.949 . S
C323 C331 1.574 . S
C323 C339 1.368 . S
H324 C332 0.950 . S
H325 C330 0.950 . S
H326 C331 0.949 . S
H327 C333 0.950 . S
H328 C334 0.950 . S
H329 C335 0.949 . S
C330 H325 0.950 . S
C330 C332 1.327 . S
C330 C336 1.429 . S
C331 C323 1.574 . S
C331 H326 0.949 . S
C331 C337 1.368 . S
C332 C316 1.349 . S
C332 H324 0.950 . S
C332 C330 1.327 . S
C333 C321 1.349 . S
C333 H327 0.950 . S
C333 C334 1.327 . S
C334 H328 0.950 . S
C334 C333 1.327 . S
C334 C338 1.429 . S
C335 C318 1.574 . S
C335 H329 0.949 . S
C335 C339 1.368 . S
C336 C317 1.429 . S
C336 C330 1.429 . S
C336 C337 1.523 . S
C337 C318 1.368 . S
C337 C331 1.368 . S
C337 C336 1.523 . S
C338 C322 1.429 . S
C338 C334 1.429 . S
C338 C339 1.523 . S
C339 C323 1.368 . S
C339 C335 1.368 . S
C339 C338 1.523 . S
H340 C315 0.950 . S
H341 C317 0.950 . S
H342 C318 0.949 . S
H343 C320 0.950 . S
H344 C322 0.950 . S
C345 C346 1.349 . S
C345 C347 1.327 . S
C345 H370 0.950 . S
C346 C345 1.349 . S
C346 C362 1.349 . S
C347 C345 1.327 . S
C347 C366 1.429 . S
C347 H371 0.950 . S
C348 C365 1.574 . S
C348 C367 1.368 . S
C348 H372 0.949 . S
H349 C353 0.949 . S
C350 C351 1.349 . S
C350 C352 1.327 . S
C350 H373 0.950 . S
C351 C350 1.349 . S
C351 C363 1.349 . S
C352 C350 1.327 . S
C352 C368 1.429 . S
C352 H374 0.950 . S
C353 H349 0.949 . S
C353 C361 1.574 . S
C353 C369 1.368 . S
H354 C362 0.950 . S
H355 C360 0.950 . S
H356 C361 0.949 . S
H357 C363 0.950 1_455 S
H358 C364 0.950 . S
H359 C365 0.949 . S
C360 H355 0.950 . S
C360 C362 1.327 . S
C360 C366 1.429 . S
C361 C353 1.574 . S
C361 H356 0.949 . S
C361 C367 1.368 . S
C362 C346 1.349 . S
C362 H354 0.950 . S
C362 C360 1.327 . S
C363 C351 1.349 . S
C363 H357 0.950 1_655 S
C363 C364 1.327 . S
C364 H358 0.950 . S
C364 C363 1.327 . S
C364 C368 1.429 . S
C365 C348 1.574 . S
C365 H359 0.949 . S
C365 C369 1.368 . S
C366 C347 1.429 . S
C366 C360 1.429 . S
C366 C367 1.523 . S
C367 C348 1.368 . S
C367 C361 1.368 . S
C367 C366 1.523 . S
C368 C352 1.429 . S
C368 C364 1.429 . S
C368 C369 1.523 . S
C369 C353 1.368 . S
C369 C365 1.368 . S
C369 C368 1.523 . S
H370 C345 0.950 . S
H371 C347 0.950 . S
H372 C348 0.949 . S
H373 C350 0.950 . S
H374 C352 0.950 . S
C375 C376 1.349 . S
C375 C377 1.327 . S
C375 H400 0.950 . S
C376 C375 1.349 . S
C376 C392 1.349 . S
C377 C375 1.327 . S
C377 C396 1.429 . S
C377 H401 0.950 . S
C378 C395 1.574 . S
C378 C397 1.368 . S
C378 H402 0.949 . S
H379 C383 0.949 . S
C380 C381 1.349 . S
C380 C382 1.327 . S
C380 H403 0.950 1_565 S
C381 C380 1.349 . S
C381 C393 1.349 . S
C382 C380 1.327 . S
C382 C398 1.429 . S
C382 H404 0.950 . S
C383 H379 0.949 . S
C383 C391 1.574 . S
C383 C399 1.368 . S
H384 C392 0.950 . S
H385 C390 0.950 . S
H386 C391 0.949 . S
H387 C393 0.950 . S
H388 C394 0.950 . S
H389 C395 0.949 . S
C390 H385 0.950 . S
C390 C392 1.327 . S
C390 C396 1.429 . S
C391 C383 1.574 . S
C391 H386 0.949 . S
C391 C397 1.368 . S
C392 C376 1.349 . S
C392 H384 0.950 . S
C392 C390 1.327 . S
C393 C381 1.349 . S
C393 H387 0.950 . S
C393 C394 1.327 . S
C394 H388 0.950 . S
C394 C393 1.327 . S
C394 C398 1.429 . S
C395 C378 1.574 . S
C395 H389 0.949 . S
C395 C399 1.368 . S
C396 C377 1.429 . S
C396 C390 1.429 . S
C396 C397 1.523 . S
C397 C378 1.368 . S
C397 C391 1.368 . S
C397 C396 1.523 . S
C398 C382 1.429 . S
C398 C394 1.429 . S
C398 C399 1.523 . S
C399 C383 1.368 . S
C399 C395 1.368 . S
C399 C398 1.523 . S
H400 C375 0.950 . S
H401 C377 0.950 . S
H402 C378 0.949 . S
H403 C380 0.950 1_545 S
H404 C382 0.950 . S
C405 C406 1.349 . S
C405 C407 1.327 . S
C405 H430 0.950 . S
C406 C405 1.349 . S
C406 C422 1.349 . S
C407 C405 1.327 . S
C407 C426 1.429 . S
C407 H431 0.950 . S
C408 C425 1.574 . S
C408 C427 1.368 . S
C408 H432 0.949 . S
H409 C413 0.949 . S
C410 C411 1.349 . S
C410 C412 1.327 . S
C410 H433 0.950 . S
C411 C410 1.349 . S
C411 C423 1.349 . S
C412 C410 1.327 . S
C412 C428 1.429 . S
C412 H434 0.950 . S
C413 H409 0.949 . S
C413 C421 1.574 . S
C413 C429 1.368 . S
H414 C422 0.950 . S
H415 C420 0.950 . S
H416 C421 0.949 . S
H417 C423 0.950 . S
H418 C424 0.950 . S
H419 C425 0.949 . S
C420 H415 0.950 . S
C420 C422 1.327 . S
C420 C426 1.429 . S
C421 C413 1.574 . S
C421 H416 0.949 . S
C421 C427 1.368 . S
C422 C406 1.349 . S
C422 H414 0.950 . S
C422 C420 1.327 . S
C423 C411 1.349 . S
C423 H417 0.950 . S
C423 C424 1.327 . S
C424 H418 0.950 . S
C424 C423 1.327 . S
C424 C428 1.429 . S
C425 C408 1.574 . S
C425 H419 0.949 . S
C425 C429 1.368 . S
C426 C407 1.429 . S
C426 C420 1.429 . S
C426 C427 1.523 . S
C427 C408 1.368 . S
C427 C421 1.368 . S
C427 C426 1.523 . S
C428 C412 1.429 . S
C428 C424 1.429 . S
C428 C429 1.523 . S
C429 C413 1.368 . S
C429 C425 1.368 . S
C429 C428 1.523 . S
H430 C405 0.950 . S
H431 C407 0.950 . S
H432 C408 0.949 . S
H433 C410 0.950 . S
H434 C412 0.950 . S
C435 C436 1.349 . S
C435 C437 1.327 . S
C435 H460 0.950 . S
C436 C435 1.349 . S
C436 C452 1.349 . S
C437 C435 1.327 . S
C437 C456 1.429 . S
C437 H461 0.950 . S
C438 C455 1.574 . S
C438 C457 1.368 . S
C438 H462 0.949 . S
H439 C443 0.949 . S
C440 C441 1.349 . S
C440 C442 1.327 . S
C440 H463 0.950 . S
C441 C440 1.349 . S
C441 C453 1.349 . S
C442 C440 1.327 . S
C442 C458 1.429 . S
C442 H464 0.950 . S
C443 H439 0.949 . S
C443 C451 1.574 . S
C443 C459 1.368 . S
H444 C452 0.950 . S
H445 C450 0.950 . S
H446 C451 0.949 . S
H447 C453 0.950 . S
H448 C454 0.950 . S
H449 C455 0.949 . S
C450 H445 0.950 . S
C450 C452 1.327 . S
C450 C456 1.429 . S
C451 C443 1.574 . S
C451 H446 0.949 . S
C451 C457 1.368 . S
C452 C436 1.349 . S
C452 H444 0.950 . S
C452 C450 1.327 . S
C453 C441 1.349 . S
C453 H447 0.950 . S
C453 C454 1.327 . S
C454 H448 0.950 . S
C454 C453 1.327 . S
C454 C458 1.429 . S
C455 C438 1.574 . S
C455 H449 0.949 . S
C455 C459 1.368 . S
C456 C437 1.429 . S
C456 C450 1.429 . S
C456 C457 1.523 . S
C457 C438 1.368 . S
C457 C451 1.368 . S
C457 C456 1.523 . S
C458 C442 1.429 . S
C458 C454 1.429 . S
C458 C459 1.523 . S
C459 C443 1.368 . S
C459 C455 1.368 . S
C459 C458 1.523 . S
H460 C435 0.950 . S
H461 C437 0.950 . S
H462 C438 0.949 . S
H463 C440 0.950 . S
H464 C442 0.950 . S
C465 C466 1.349 . S
C465 C467 1.327 . S
C465 H490 0.950 . S
C466 C465 1.349 . S
C466 C482 1.349 . S
C467 C465 1.327 . S
C467 C486 1.429 . S
C467 H491 0.950 . S
C468 C485 1.574 . S
C468 C487 1.368 . S
C468 H492 0.949 . S
H469 C473 0.949 . S
C470 C471 1.349 . S
C470 C472 1.327 . S
C470 H493 0.950 . S
C471 C470 1.349 . S
C471 C483 1.349 . S
C472 C470 1.327 . S
C472 C488 1.429 . S
C472 H494 0.950 . S
C473 H469 0.949 . S
C473 C481 1.574 . S
C473 C489 1.368 . S
H474 C482 0.950 . S
H475 C480 0.950 . S
H476 C481 0.949 . S
H477 C483 0.950 . S
H478 C484 0.950 . S
H479 C485 0.949 . S
C480 H475 0.950 . S
C480 C482 1.327 . S
C480 C486 1.429 . S
C481 C473 1.574 . S
C481 H476 0.949 . S
C481 C487 1.368 . S
C482 C466 1.349 . S
C482 H474 0.950 . S
C482 C480 1.327 . S
C483 C471 1.349 . S
C483 H477 0.950 . S
C483 C484 1.327 . S
C484 H478 0.950 . S
C484 C483 1.327 . S
C484 C488 1.429 . S
C485 C468 1.574 . S
C485 H479 0.949 . S
C485 C489 1.368 . S
C486 C467 1.429 . S
C486 C480 1.429 . S
C486 C487 1.523 . S
C487 C468 1.368 . S
C487 C481 1.368 . S
C487 C486 1.523 . S
C488 C472 1.429 . S
C488 C484 1.429 . S
C488 C489 1.523 . S
C489 C473 1.368 . S
C489 C485 1.368 . S
C489 C488 1.523 . S
H490 C465 0.950 . S
H491 C467 0.950 . S
H492 C468 0.949 . S
H493 C470 0.950 . S
H494 C472 0.950 . S
C495 C496 1.349 . S
C495 C497 1.327 . S
C495 H520 0.950 1_455 S
C496 C495 1.349 . S
C496 C512 1.349 . S
C497 C495 1.327 . S
C497 C516 1.429 . S
C497 H521 0.950 1_455 S
C498 C515 1.574 . S
C498 C517 1.368 . S
C498 H522 0.949 . S
H499 C503 0.929 1_556 S
C500 C501 1.349 . S
C500 C502 1.327 . S
C500 H523 0.950 . S
C501 C500 1.349 . S
C501 C513 1.349 . S
C502 C500 1.327 . S
C502 C518 1.429 . S
C502 H524 0.950 . S
C503 H499 0.929 1_554 S
C503 C511 1.574 . S
C503 C519 1.395 . S
H504 C512 0.950 . S
H505 C510 0.950 . S
H506 C511 0.949 1_655 S
H507 C513 0.950 . S
H508 C514 0.950 . S
H509 C515 0.949 . S
C510 H505 0.950 . S
C510 C512 1.327 . S
C510 C516 1.429 . S
C511 C503 1.574 . S
C511 H506 0.949 1_455 S
C511 C517 1.368 . S
C512 C496 1.349 . S
C512 H504 0.950 . S
C512 C510 1.327 . S
C513 C501 1.349 . S
C513 H507 0.950 . S
C513 C514 1.327 . S
C514 H508 0.950 . S
C514 C513 1.327 . S
C514 C518 1.429 . S
C515 C498 1.574 . S
C515 H509 0.949 . S
C515 C519 1.392 . S
C516 C497 1.429 . S
C516 C510 1.429 . S
C516 C517 1.523 . S
C517 C498 1.368 . S
C517 C511 1.368 . S
C517 C516 1.523 . S
C518 C502 1.429 . S
C518 C514 1.429 . S
C518 C519 1.461 1_556 S
C519 C503 1.395 . S
C519 C515 1.392 . S
C519 C518 1.461 1_554 S
H520 C495 0.950 1_655 S
H521 C497 0.950 1_655 S
H522 C498 0.949 . S
H523 C500 0.950 . S
H524 C502 0.950 . S
C525 C526 1.349 . S
C525 C527 1.327 . S
C525 H550 0.950 . S
C526 C525 1.349 . S
C526 C542 1.349 . S
C527 C525 1.327 . S
C527 C546 1.429 . S
C527 H551 0.950 . S
C528 C545 1.574 . S
C528 C547 1.368 . S
C528 H552 0.949 . S
H529 C533 0.949 . S
C530 C531 1.349 . S
C530 C532 1.327 . S
C530 H553 0.950 . S
C531 C530 1.349 . S
C531 C543 1.349 . S
C532 C530 1.327 . S
C532 C548 1.429 . S
C532 H554 0.950 . S
C533 H529 0.949 . S
C533 C541 1.574 . S
C533 C549 1.368 . S
H534 C542 0.950 . S
H535 C540 0.950 . S
H536 C541 0.949 . S
H537 C543 0.950 . S
H538 C544 0.950 . S
H539 C545 0.949 . S
C540 H535 0.950 . S
C540 C542 1.327 . S
C540 C546 1.429 . S
C541 C533 1.574 . S
C541 H536 0.949 . S
C541 C547 1.368 . S
C542 C526 1.349 . S
C542 H534 0.950 . S
C542 C540 1.327 . S
C543 C531 1.349 . S
C543 H537 0.950 . S
C543 C544 1.327 . S
C544 H538 0.950 . S
C544 C543 1.327 . S
C544 C548 1.429 . S
C545 C528 1.574 . S
C545 H539 0.949 . S
C545 C549 1.368 . S
C546 C527 1.429 . S
C546 C540 1.429 . S
C546 C547 1.523 . S
C547 C528 1.368 . S
C547 C541 1.368 . S
C547 C546 1.523 . S
C548 C532 1.429 . S
C548 C544 1.429 . S
C548 C549 1.523 . S
C549 C533 1.368 . S
C549 C545 1.368 . S
C549 C548 1.523 . S
H550 C525 0.950 . S
H551 C527 0.950 . S
H552 C528 0.949 . S
H553 C530 0.950 . S
H554 C532 0.950 . S
C555 C556 1.349 . S
C555 C557 1.327 . S
C555 H580 0.950 . S
C556 C555 1.349 . S
C556 C572 1.349 . S
C557 C555 1.327 . S
C557 C576 1.429 . S
C557 H581 0.950 . S
C558 C575 1.574 . S
C558 C577 1.368 . S
C558 H582 0.949 . S
H559 C563 0.949 . S
C560 C561 1.349 . S
C560 C562 1.327 . S
C560 H583 0.950 . S
C561 C560 1.349 . S
C561 C573 1.349 . S
C562 C560 1.327 . S
C562 C578 1.429 . S
C562 H584 0.950 . S
C563 H559 0.949 . S
C563 C571 1.574 . S
C563 C579 1.368 . S
H564 C572 0.950 . S
H565 C570 0.950 . S
H566 C571 0.949 . S
H567 C573 0.950 . S
H568 C574 0.950 . S
H569 C575 0.949 . S
C570 H565 0.950 . S
C570 C572 1.327 . S
C570 C576 1.429 . S
C571 C563 1.574 . S
C571 H566 0.949 . S
C571 C577 1.368 . S
C572 C556 1.349 . S
C572 H564 0.950 . S
C572 C570 1.327 . S
C573 C561 1.349 . S
C573 H567 0.950 . S
C573 C574 1.327 . S
C574 H568 0.950 . S
C574 C573 1.327 . S
C574 C578 1.429 . S
C575 C558 1.574 . S
C575 H569 0.949 . S
C575 C579 1.368 . S
C576 C557 1.429 . S
C576 C570 1.429 . S
C576 C577 1.523 . S
C577 C558 1.368 . S
C577 C571 1.368 . S
C577 C576 1.523 . S
C578 C562 1.429 . S
C578 C574 1.429 . S
C578 C579 1.523 . S
C579 C563 1.368 . S
C579 C575 1.368 . S
C579 C578 1.523 . S
H580 C555 0.950 . S
H581 C557 0.950 . S
H582 C558 0.949 . S
H583 C560 0.950 . S
H584 C562 0.950 . S
C585 C586 1.349 . S
C585 C587 1.327 . S
C585 H610 0.950 . S
C586 C585 1.349 . S
C586 C602 1.349 . S
C587 C585 1.327 . S
C587 C606 1.429 . S
C587 H611 0.950 . S
C588 C605 1.574 . S
C588 C607 1.368 . S
C588 H612 0.949 . S
H589 C593 0.949 1_565 S
C590 C591 1.349 . S
C590 C592 1.327 . S
C590 H613 0.950 . S
C591 C590 1.349 . S
C591 C603 1.349 . S
C592 C590 1.327 . S
C592 C608 1.429 . S
C592 H614 0.950 . S
C593 H589 0.949 1_545 S
C593 C601 1.574 . S
C593 C609 1.368 . S
H594 C602 0.950 . S
H595 C600 0.950 . S
H596 C601 0.941 1_565 S
H597 C603 0.950 1_565 S
H598 C604 0.950 1_565 S
H599 C605 0.949 . S
C600 H595 0.950 . S
C600 C602 1.327 . S
C600 C606 1.429 . S
C601 C593 1.574 . S
C601 H596 0.941 1_545 S
C601 C607 1.368 . S
C602 C586 1.349 . S
C602 H594 0.950 . S
C602 C600 1.327 . S
C603 C591 1.349 . S
C603 H597 0.950 1_545 S
C603 C604 1.327 . S
C604 H598 0.950 1_545 S
C604 C603 1.327 . S
C604 C608 1.429 . S
C605 C588 1.574 . S
C605 H599 0.949 . S
C605 C609 1.368 . S
C606 C587 1.429 . S
C606 C600 1.429 . S
C606 C607 1.523 . S
C607 C588 1.368 . S
C607 C601 1.368 . S
C607 C606 1.523 . S
C608 C592 1.429 . S
C608 C604 1.429 . S
C608 C609 1.523 . S
C609 C593 1.368 . S
C609 C605 1.368 . S
C609 C608 1.523 . S
H610 C585 0.950 . S
H611 C587 0.950 . S
H612 C588 0.949 . S
H613 C590 0.950 . S
H614 C592 0.950 . S
C615 C616 1.349 . S
C615 C617 1.327 . S
C615 H640 0.950 . S
C616 C615 1.349 . S
C616 C632 1.349 . S
C617 C615 1.327 . S
C617 C636 1.429 . S
C617 H641 0.950 . S
C618 C635 1.574 . S
C618 C637 1.368 . S
C618 H642 0.949 . S
H619 C623 0.949 . S
C620 C621 1.349 . S
C620 C622 1.327 . S
C620 H643 0.950 . S
C621 C620 1.349 . S
C621 C633 1.349 . S
C622 C620 1.327 . S
C622 C638 1.429 . S
C622 H644 0.950 . S
C623 H619 0.949 . S
C623 C631 1.574 . S
C623 C639 1.368 . S
H624 C632 0.950 . S
H625 C630 0.950 . S
H626 C631 0.949 . S
H627 C633 0.950 . S
H628 C634 0.950 . S
H629 C635 0.949 . S
C630 H625 0.950 . S
C630 C632 1.327 . S
C630 C636 1.429 . S
C631 C623 1.574 . S
C631 H626 0.949 . S
C631 C637 1.368 . S
C632 C616 1.349 . S
C632 H624 0.950 . S
C632 C630 1.327 . S
C633 C621 1.349 . S
C633 H627 0.950 . S
C633 C634 1.327 . S
C634 H628 0.950 . S
C634 C633 1.327 . S
C634 C638 1.429 . S
C635 C618 1.574 . S
C635 H629 0.949 . S
C635 C639 1.368 . S
C636 C617 1.429 . S
C636 C630 1.429 . S
C636 C637 1.523 . S
C637 C618 1.368 . S
C637 C631 1.368 . S
C637 C636 1.523 . S
C638 C622 1.429 . S
C638 C634 1.429 . S
C638 C639 1.523 1_554 S
C639 C623 1.368 . S
C639 C635 1.368 . S
C639 C638 1.523 1_556 S
H640 C615 0.950 . S
H641 C617 0.950 . S
H642 C618 0.949 . S
H643 C620 0.950 . S
H644 C622 0.950 . S
C645 C646 1.349 . S
C645 C647 1.327 . S
C645 H670 0.950 . S
C646 C645 1.349 . S
C646 C662 1.349 . S
C647 C645 1.327 . S
C647 C666 1.429 . S
C647 H671 0.950 . S
C648 C665 1.574 . S
C648 C667 1.368 . S
C648 H672 0.949 . S
H649 C653 0.949 . S
C650 C651 1.349 . S
C650 C652 1.327 . S
C650 H673 0.950 . S
C651 C650 1.349 . S
C651 C663 1.349 . S
C652 C650 1.327 . S
C652 C668 1.429 . S
C652 H674 0.950 . S
C653 H649 0.949 . S
C653 C661 1.574 . S
C653 C669 1.368 . S
H654 C662 0.950 . S
H655 C660 0.950 . S
H656 C661 0.949 . S
H657 C663 0.950 . S
H658 C664 0.950 . S
H659 C665 0.949 . S
C660 H655 0.950 . S
C660 C662 1.327 . S
C660 C666 1.429 . S
C661 C653 1.574 . S
C661 H656 0.949 . S
C661 C667 1.368 . S
C662 C646 1.349 . S
C662 H654 0.950 . S
C662 C660 1.327 . S
C663 C651 1.349 . S
C663 H657 0.950 . S
C663 C664 1.327 . S
C664 H658 0.950 . S
C664 C663 1.327 . S
C664 C668 1.429 . S
C665 C648 1.574 . S
C665 H659 0.949 . S
C665 C669 1.368 . S
C666 C647 1.429 . S
C666 C660 1.429 . S
C666 C667 1.523 . S
C667 C648 1.368 . S
C667 C661 1.368 . S
C667 C666 1.523 . S
C668 C652 1.429 . S
C668 C664 1.429 . S
C668 C669 1.523 . S
C669 C653 1.368 . S
C669 C665 1.368 . S
C669 C668 1.523 . S
H670 C645 0.950 . S
H671 C647 0.950 . S
H672 C648 0.949 . S
H673 C650 0.950 . S
H674 C652 0.950 . S
C136 C20 1.208 . S
C141 N128 1.212 . S
C166 C41 1.234 . S
C171 N106 1.215 . S
C196 C64 1.249 . S
C201 N117 1.230 . S
C226 C19 1.170 . S
C231 C130 1.218 . S
C261 C108 1.182 . S
C256 C44 1.175 . S
C291 C119 1.149 . S
C286 C67 1.146 . S
C316 C43 1.198 . S
C321 N84 1.205 . S
C346 C66 1.100 . S
C351 C97 1.129 1_655 S
C376 C21 1.173 . S
C381 C75 1.181 1_565 S
C411 C86 1.204 . S
C406 C42 1.158 . S
C441 N95 1.230 . S
C436 C65 1.212 . S
C466 C18 1.234 . S
C471 N73 1.216 . S
C501 C100 1.512 . S
C496 C17 1.514 . S
C526 C39 1.523 . S
C531 C78 1.516 . S
C556 C62 1.531 . S
C561 C89 1.524 . S
C591 C122 1.501 . S
C586 C40 1.503 . S
C621 C133 1.511 . S
C616 C63 1.517 . S
C646 C16 1.520 . S
C651 C111 1.513 . S
