# Generated by pormake.
# Topology csq, (4,8)-cn, num edge types: 1
# Building blocks:
#     Node 0, Type 0, BuildingBlock: MUDLON_clean_linker_0, # of connection points: 4
#     Node 1, Type 0, BuildingBlock: MUDLON_clean_linker_0, # of connection points: 4
#     Node 2, Type 0, BuildingBlock: MUDLON_clean_linker_0, # of connection points: 4
#     Node 3, Type 0, BuildingBlock: MUDLON_clean_linker_0, # of connection points: 4
#     Node 4, Type 0, BuildingBlock: MUDLON_clean_linker_0, # of connection points: 4
#     Node 5, Type 0, BuildingBlock: MUDLON_clean_linker_0, # of connection points: 4
#     Node 6, Type 1, BuildingBlock: TAGTUT_clean_sbu_3, # of connection points: 8
#     Node 7, Type 1, BuildingBlock: TAGTUT_clean_sbu_3, # of connection points: 8
#     Node 8, Type 1, BuildingBlock: TAGTUT_clean_sbu_3, # of connection points: 8
#     Edge 9, Type (0, 1), BuildingBlock: KIFKEQ_clean_linker_1, # of connection points: 2
#     Edge 10, Type (0, 1), BuildingBlock: KIFKEQ_clean_linker_1, # of connection points: 2
#     Edge 11, Type (0, 1), BuildingBlock: KIFKEQ_clean_linker_1, # of connection points: 2
#     Edge 12, Type (0, 1), BuildingBlock: KIFKEQ_clean_linker_1, # of connection points: 2
#     Edge 13, Type (0, 1), BuildingBlock: KIFKEQ_clean_linker_1, # of connection points: 2
#     Edge 14, Type (0, 1), BuildingBlock: KIFKEQ_clean_linker_1, # of connection points: 2
#     Edge 15, Type (0, 1), BuildingBlock: KIFKEQ_clean_linker_1, # of connection points: 2
#     Edge 16, Type (0, 1), BuildingBlock: KIFKEQ_clean_linker_1, # of connection points: 2
#     Edge 17, Type (0, 1), BuildingBlock: KIFKEQ_clean_linker_1, # of connection points: 2
#     Edge 18, Type (0, 1), BuildingBlock: KIFKEQ_clean_linker_1, # of connection points: 2
#     Edge 19, Type (0, 1), BuildingBlock: KIFKEQ_clean_linker_1, # of connection points: 2
#     Edge 20, Type (0, 1), BuildingBlock: KIFKEQ_clean_linker_1, # of connection points: 2
#     Edge 21, Type (0, 1), BuildingBlock: KIFKEQ_clean_linker_1, # of connection points: 2
#     Edge 22, Type (0, 1), BuildingBlock: KIFKEQ_clean_linker_1, # of connection points: 2
#     Edge 23, Type (0, 1), BuildingBlock: KIFKEQ_clean_linker_1, # of connection points: 2
#     Edge 24, Type (0, 1), BuildingBlock: KIFKEQ_clean_linker_1, # of connection points: 2
#     Edge 25, Type (0, 1), BuildingBlock: KIFKEQ_clean_linker_1, # of connection points: 2
#     Edge 26, Type (0, 1), BuildingBlock: KIFKEQ_clean_linker_1, # of connection points: 2
#     Edge 27, Type (0, 1), BuildingBlock: KIFKEQ_clean_linker_1, # of connection points: 2
#     Edge 28, Type (0, 1), BuildingBlock: KIFKEQ_clean_linker_1, # of connection points: 2
#     Edge 29, Type (0, 1), BuildingBlock: KIFKEQ_clean_linker_1, # of connection points: 2
#     Edge 30, Type (0, 1), BuildingBlock: KIFKEQ_clean_linker_1, # of connection points: 2
#     Edge 31, Type (0, 1), BuildingBlock: KIFKEQ_clean_linker_1, # of connection points: 2
#     Edge 32, Type (0, 1), BuildingBlock: KIFKEQ_clean_linker_1, # of connection points: 2
# Relax obj value: 0.039
# Max RMSD: 0.119
# Mean RMSD: 0.079
data_MOF--net-csq--node1-TAGTUT_clean_sbu_3--node2-MUDLON_clean_linker_0--edge1-KIFKEQ_clean_linker_1
_symmetry_space_group_name_H-M    P1
_symmetry_Int_Tables_number       1
_symmetry_cell_setting            triclinic
loop_
_symmetry_equiv_pos_as_xyz
'x, y, z'
_cell_length_a     71.672131
_cell_length_b     70.850413
_cell_length_c     23.366393
_cell_angle_alpha  92.553874
_cell_angle_beta   92.719099
_cell_angle_gamma 119.95083
loop_
_atom_site_label
_atom_site_type_symbol
_atom_site_fract_x
_atom_site_fract_y
_atom_site_fract_z
_atom_type_partial_charge
H0 H 0.34378 0.53675 0.24306 0.0
N1 N 0.32695 0.5136 0.14269 0.0
H2 H 0.36373 0.52991 0.31974 0.0
H3 H 0.32837 0.47589 0.15135 0.0
H4 H 0.34796 0.46891 0.22755 0.0
H5 H 0.31542 0.48295 0.04994 0.0
H6 H 0.34037 0.4814 0.98664 0.0
H7 H 0.36524 0.5465 0.12295 0.0
H8 H 0.39042 0.5452 0.05797 0.0
H9 H 0.30706 0.53643 0.15162 0.0
H10 H 0.29461 0.4705 0.12369 0.0
H11 H 0.26843 0.52275 0.1519 0.0
H12 H 0.25622 0.45682 0.1168 0.0
H13 H 0.1638 0.49094 0.13789 0.0
H14 H 0.14557 0.50143 0.20779 0.0
H15 H 0.13453 0.44647 0.30359 0.0
H16 H 0.15238 0.43589 0.23282 0.0
H17 H 0.13483 0.41368 0.10546 0.0
H18 H 0.10853 0.40169 0.02152 0.0
H19 H 0.14333 0.46651 0.96255 0.0
H20 H 0.16922 0.47817 0.04524 0.0
H21 H 0.19732 0.4951 0.11001 0.0
H22 H 0.2356 0.50882 0.10488 0.0
H23 H 0.2275 0.4486 0.16661 0.0
N24 N 0.16698 0.45392 0.13597 0.0
H25 H 0.18871 0.43417 0.16441 0.0
C26 C 0.33462 0.50695 0.19158 0.0
C27 C 0.34416 0.52164 0.24036 0.0
C28 C 0.35553 0.51771 0.28395 0.0
C29 C 0.35759 0.49901 0.27909 0.0
C30 C 0.34686 0.48361 0.23192 0.0
C31 C 0.33542 0.48749 0.18859 0.0
C32 C 0.33844 0.51482 0.09248 0.0
C33 C 0.33145 0.49695 0.05153 0.0
C34 C 0.34586 0.49606 0.01479 0.0
C35 C 0.36753 0.51298 0.01814 0.0
C36 C 0.37394 0.5317 0.05521 0.0
C37 C 0.35949 0.53261 0.09172 0.0
C38 C 0.30389 0.50473 0.13607 0.0
C39 C 0.29593 0.51905 0.14362 0.0
C40 C 0.27372 0.51111 0.14332 0.0
C41 C 0.25881 0.48853 0.13405 0.0
C42 C 0.26693 0.47424 0.12528 0.0
C43 C 0.28915 0.48216 0.12771 0.0
C44 C 0.15928 0.46247 0.18013 0.0
C45 C 0.15778 0.48136 0.17437 0.0
C46 C 0.14738 0.48738 0.21446 0.0
C47 C 0.13832 0.47459 0.26071 0.0
C48 C 0.14094 0.45641 0.26778 0.0
C49 C 0.15128 0.45043 0.2278 0.0
C50 C 0.15408 0.44674 0.08185 0.0
C51 C 0.13701 0.42508 0.07351 0.0
C52 C 0.12198 0.41831 0.0258 0.0
C53 C 0.12385 0.43315 0.98538 0.0
C54 C 0.14161 0.45455 0.99229 0.0
C55 C 0.15651 0.46131 0.04011 0.0
C56 C 0.18998 0.4632 0.13553 0.0
C57 C 0.20363 0.48456 0.12055 0.0
C58 C 0.22581 0.49263 0.119 0.0
C59 C 0.23502 0.47988 0.1348 0.0
C60 C 0.22123 0.45878 0.15203 0.0
C61 C 0.19899 0.45051 0.15159 0.0
H62 H 0.71673 0.11781 0.09771 0.0
N63 N 0.72162 0.15585 0.06974 0.0
H64 H 0.69406 0.09501 0.17004 0.0
H65 H 0.70607 0.16991 0.15665 0.0
H66 H 0.68305 0.14712 0.22833 0.0
H67 H 0.69428 0.17244 0.06061 0.0
H68 H 0.65992 0.15572 0.00099 0.0
H69 H 0.70817 0.12454 0.9856 0.0
H70 H 0.67379 0.10766 0.9265 0.0
H71 H 0.75348 0.17512 0.15568 0.0
H72 H 0.73012 0.18851 0.99708 0.0
H73 H 0.78451 0.21191 0.16315 0.0
H74 H 0.76105 0.22512 0.00529 0.0
H75 H 0.89392 0.31948 0.13144 0.0
H76 H 0.91089 0.34225 0.22124 0.0
H77 H 0.8499 0.33679 0.25789 0.0
H78 H 0.83325 0.31443 0.16748 0.0
H79 H 0.8446 0.3371 0.08126 0.0
H80 H 0.85388 0.36238 0.00561 0.0
H81 H 0.87713 0.32589 0.90962 0.0
H82 H 0.8684 0.30096 0.9864 0.0
H83 H 0.84977 0.26547 0.10548 0.0
H84 H 0.81645 0.23019 0.1056 0.0
H85 H 0.77904 0.2612 0.06686 0.0
N86 N 0.85374 0.30381 0.08681 0.0
H87 H 0.8125 0.29647 0.06714 0.0
C88 C 0.71296 0.14542 0.12149 0.0
C89 C 0.70997 0.12451 0.12737 0.0
C90 C 0.69681 0.11145 0.16814 0.0
C91 C 0.68645 0.11914 0.20402 0.0
C92 C 0.69083 0.14075 0.20127 0.0
C93 C 0.70396 0.1538 0.16029 0.0
C94 C 0.70385 0.14971 0.02722 0.0
C95 C 0.69015 0.15863 0.03048 0.0
C96 C 0.67054 0.14907 0.99664 0.0
C97 C 0.66417 0.13024 0.96012 0.0
C98 C 0.67827 0.122 0.95504 0.0
C99 C 0.69797 0.13174 0.98809 0.0
C100 C 0.73831 0.17883 0.0776 0.0
C101 C 0.75443 0.18602 0.12346 0.0
C102 C 0.77242 0.20705 0.12743 0.0
C103 C 0.77507 0.22144 0.08509 0.0
C104 C 0.75915 0.21454 0.03931 0.0
C105 C 0.74122 0.19343 0.035 0.0
C106 C 0.86245 0.31536 0.14264 0.0
C107 C 0.88421 0.32298 0.15937 0.0
C108 C 0.89379 0.33581 0.21091 0.0
C109 C 0.88174 0.34133 0.2468 0.0
C110 C 0.85966 0.33298 0.23097 0.0
C111 C 0.85009 0.32012 0.17935 0.0
C112 C 0.85626 0.31732 0.03999 0.0
C113 C 0.85158 0.33441 0.04396 0.0
C114 C 0.85681 0.34883 0.00061 0.0
C115 C 0.86629 0.34613 0.95196 0.0
C116 C 0.86969 0.32827 0.94647 0.0
C117 C 0.86481 0.31409 0.99027 0.0
C118 C 0.83365 0.28346 0.08575 0.0
C119 C 0.83436 0.26459 0.09706 0.0
C120 C 0.81534 0.24455 0.09754 0.0
C121 C 0.79515 0.24298 0.08643 0.0
C122 C 0.79439 0.26193 0.07517 0.0
C123 C 0.81349 0.28208 0.07525 0.0
H124 H 0.59853 0.8939 0.02338 0.0
N125 N 0.5742 0.85721 0.07223 0.0
H126 H 0.58765 0.90922 0.94548 0.0
H127 H 0.53475 0.83716 0.01005 0.0
H128 H 0.52376 0.85214 0.93152 0.0
H129 H 0.53734 0.85523 0.10767 0.0
H130 H 0.53223 0.86617 0.20323 0.0
H131 H 0.60342 0.87538 0.16175 0.0
H132 H 0.59836 0.88627 0.25836 0.0
H133 H 0.59933 0.84332 0.02985 0.0
H134 H 0.53852 0.82053 0.10438 0.0
H135 H 0.59491 0.80689 0.03186 0.0
H136 H 0.53478 0.78477 0.11118 0.0
H137 H 0.58768 0.69621 0.07155 0.0
H138 H 0.58627 0.67563 0.98318 0.0
H139 H 0.53217 0.68084 0.91333 0.0
H140 H 0.53296 0.70015 0.00272 0.0
H141 H 0.51952 0.67676 0.09136 0.0
H142 H 0.50319 0.65037 0.16379 0.0
H143 H 0.56102 0.68761 0.27785 0.0
H144 H 0.57737 0.71361 0.20479 0.0
H145 H 0.59615 0.75014 0.10728 0.0
H146 H 0.59809 0.78517 0.09762 0.0
H147 H 0.52837 0.7518 0.06909 0.0
N148 N 0.56132 0.71082 0.09815 0.0
H149 H 0.52675 0.71709 0.08361 0.0
C150 C 0.56753 0.86451 0.0227 0.0
C151 C 0.58228 0.88461 0.00289 0.0
C152 C 0.57605 0.89324 0.95811 0.0
C153 C 0.55481 0.88192 0.9322 0.0
C154 C 0.54018 0.86139 0.95092 0.0
C155 C 0.54647 0.85274 0.99571 0.0
C156 C 0.57092 0.86469 0.12732 0.0
C157 C 0.55083 0.86213 0.13993 0.0
C158 C 0.54783 0.86814 0.19497 0.0
C159 C 0.56484 0.87689 0.23852 0.0
C160 C 0.58497 0.87965 0.22566 0.0
C161 C 0.58792 0.8735 0.17062 0.0
C162 C 0.5696 0.83488 0.06789 0.0
C163 C 0.58502 0.83043 0.0466 0.0
C164 C 0.58257 0.80964 0.04865 0.0
C165 C 0.56475 0.79287 0.07318 0.0
C166 C 0.54871 0.79711 0.09185 0.0
C167 C 0.55096 0.81778 0.08854 0.0
C168 C 0.56061 0.69986 0.04391 0.0
C169 C 0.57563 0.69298 0.0369 0.0
C170 C 0.5749 0.68142 0.98606 0.0
C171 C 0.55916 0.67664 0.94072 0.0
C172 C 0.54437 0.68399 0.94743 0.0
C173 C 0.54494 0.69529 0.99864 0.0
C174 C 0.54986 0.697 0.14254 0.0
C175 C 0.52857 0.6794 0.13218 0.0
C176 C 0.51925 0.66432 0.17356 0.0
C177 C 0.53087 0.66687 0.22635 0.0
C178 C 0.55159 0.68529 0.23783 0.0
C179 C 0.56099 0.70012 0.19617 0.0
C180 C 0.56143 0.73112 0.09562 0.0
C181 C 0.58133 0.75053 0.09958 0.0
C182 C 0.58236 0.77049 0.09311 0.0
C183 C 0.56341 0.77145 0.08131 0.0
C184 C 0.54333 0.75186 0.07843 0.0
C185 C 0.54234 0.73191 0.08623 0.0
H186 H 0.91057 0.60417 0.0384 0.0
N187 N 0.86843 0.57709 0.01939 0.0
H188 H 0.93539 0.60185 0.10967 0.0
H189 H 0.85652 0.55052 0.10835 0.0
H190 H 0.88119 0.54811 0.17976 0.0
H191 H 0.85597 0.53355 0.00971 0.0
H192 H 0.86528 0.51551 0.93454 0.0
H193 H 0.88255 0.59208 0.91925 0.0
H194 H 0.89268 0.5745 0.84479 0.0
H195 H 0.86371 0.61096 0.04722 0.0
H196 H 0.82784 0.54073 0.0185 0.0
H197 H 0.83052 0.61092 0.06703 0.0
H198 H 0.79456 0.54055 0.03556 0.0
H199 H 0.73353 0.6077 0.16033 0.0
H200 H 0.71127 0.60253 0.2405 0.0
H201 H 0.68783 0.53307 0.22156 0.0
H202 H 0.70841 0.53824 0.13859 0.0
H203 H 0.71368 0.53574 0.03249 0.0
H204 H 0.68192 0.51849 0.9627 0.0
H205 H 0.67899 0.57796 0.97175 0.0
H206 H 0.71081 0.59512 0.04077 0.0
H207 H 0.7647 0.60531 0.03592 0.0
H208 H 0.79798 0.60513 0.01881 0.0
H209 H 0.77532 0.5463 0.108 0.0
N210 N 0.73131 0.57662 0.08803 0.0
H211 H 0.74195 0.5461 0.12252 0.0
C212 C 0.88177 0.57769 0.06828 0.0
C213 C 0.90407 0.59225 0.07006 0.0
C214 C 0.91819 0.59072 0.11022 0.0
C215 C 0.91021 0.57465 0.14973 0.0
C216 C 0.88776 0.56072 0.1499 0.0
C217 C 0.87363 0.56213 0.10926 0.0
C218 C 0.86856 0.56428 0.96993 0.0
C219 C 0.86314 0.54232 0.97271 0.0
C220 C 0.86874 0.53207 0.92996 0.0
C221 C 0.88002 0.54361 0.88401 0.0
C222 C 0.8838 0.56496 0.87912 0.0
C223 C 0.87806 0.57512 0.92167 0.0
C224 C 0.84834 0.576 0.03075 0.0
C225 C 0.84863 0.59556 0.04478 0.0
C226 C 0.82962 0.59548 0.05567 0.0
C227 C 0.80978 0.57574 0.05241 0.0
C228 C 0.80955 0.55605 0.03903 0.0
C229 C 0.82865 0.55614 0.02864 0.0
C230 C 0.72295 0.57352 0.1438 0.0
C231 C 0.72407 0.59147 0.17478 0.0
C232 C 0.71132 0.58844 0.22076 0.0
C233 C 0.69738 0.56729 0.23708 0.0
C234 C 0.69791 0.54953 0.20935 0.0
C235 C 0.71019 0.55253 0.16247 0.0
C236 C 0.7147 0.56685 0.04136 0.0
C237 C 0.70647 0.54518 0.01857 0.0
C238 C 0.68828 0.53531 0.97897 0.0
C239 C 0.67788 0.54683 0.96257 0.0
C240 C 0.6865 0.56861 0.98438 0.0
C241 C 0.70477 0.57851 0.02317 0.0
C242 C 0.75086 0.57597 0.08091 0.0
C243 C 0.767 0.59243 0.05182 0.0
C244 C 0.78605 0.59235 0.04244 0.0
C245 C 0.78943 0.57576 0.06235 0.0
C246 C 0.77318 0.55919 0.0915 0.0
C247 C 0.75404 0.5592 0.1004 0.0
H248 H 0.16831 0.68654 0.16171 0.0
N249 N 0.16082 0.71984 0.13754 0.0
H250 H 0.16154 0.66824 0.25055 0.0
H251 H 0.1508 0.73182 0.23535 0.0
H252 H 0.14516 0.71443 0.32597 0.0
H253 H 0.11929 0.70138 0.10256 0.0
H254 H 0.09956 0.67399 0.02184 0.0
H255 H 0.1783 0.70359 0.06126 0.0
H256 H 0.15871 0.67635 0.98008 0.0
H257 H 0.20183 0.72673 0.1582 0.0
H258 H 0.16529 0.75599 0.09653 0.0
H259 H 0.23548 0.76033 0.1458 0.0
H260 H 0.19878 0.78931 0.081 0.0
H261 H 0.32717 0.84417 0.07671 0.0
H262 H 0.36075 0.85771 0.13871 0.0
H263 H 0.34559 0.9009 0.23568 0.0
H264 H 0.31168 0.88668 0.17525 0.0
H265 H 0.307 0.89745 0.05727 0.0
H266 H 0.32014 0.9141 0.96824 0.0
H267 H 0.3107 0.85253 0.89425 0.0
H268 H 0.2992 0.83666 0.98523 0.0
H269 H 0.29136 0.81662 0.06631 0.0
H270 H 0.25804 0.78265 0.07708 0.0
H271 H 0.2282 0.81967 0.13289 0.0
N272 N 0.29792 0.85813 0.08449 0.0
H273 H 0.26139 0.85356 0.11899 0.0
C274 C 0.15949 0.71025 0.19149 0.0
C275 C 0.16329 0.69275 0.19733 0.0
C276 C 0.15966 0.68244 0.24865 0.0
C277 C 0.15252 0.68964 0.29551 0.0
C278 C 0.15011 0.70806 0.29047 0.0
C279 C 0.15345 0.71813 0.2389 0.0
C280 C 0.15018 0.70459 0.08781 0.0
C281 C 0.12798 0.69608 0.0757 0.0
C282 C 0.11678 0.68043 0.0298 0.0
C283 C 0.12763 0.67306 0.99477 0.0
C284 C 0.15001 0.68193 0.00605 0.0
C285 C 0.16119 0.69745 0.05249 0.0
C286 C 0.18105 0.73907 0.12915 0.0
C287 C 0.20106 0.74039 0.14182 0.0
C288 C 0.22031 0.75957 0.13409 0.0
C289 C 0.21991 0.77766 0.11277 0.0
C290 C 0.19978 0.77596 0.09879 0.0
C291 C 0.18061 0.7569 0.10718 0.0
C292 C 0.31675 0.86416 0.1224 0.0
C293 C 0.33075 0.85605 0.11234 0.0
C294 C 0.34999 0.86392 0.14728 0.0
C295 C 0.35566 0.88037 0.19146 0.0
C296 C 0.34156 0.88829 0.20157 0.0
C297 C 0.32221 0.88012 0.16754 0.0
C298 C 0.3021 0.8659 0.02807 0.0
C299 C 0.30747 0.88751 0.02139 0.0
C300 C 0.31481 0.89692 0.97001 0.0
C301 C 0.31661 0.88475 0.92349 0.0
C302 C 0.30998 0.8626 0.9293 0.0
C303 C 0.30311 0.85335 0.98135 0.0
C304 C 0.27872 0.83767 0.09117 0.0
C305 C 0.27763 0.81746 0.08029 0.0
C306 C 0.25855 0.79798 0.08709 0.0
C307 C 0.24032 0.79833 0.10563 0.0
C308 C 0.2417 0.81867 0.11732 0.0
C309 C 0.26067 0.83808 0.10985 0.0
H310 H 0.48581 0.32433 0.09924 0.0
N311 N 0.44596 0.28986 0.11542 0.0
H312 H 0.49565 0.34545 0.01458 0.0
H313 H 0.42268 0.28026 0.01576 0.0
H314 H 0.43257 0.30058 0.92986 0.0
H315 H 0.42139 0.30644 0.14408 0.0
H316 H 0.42668 0.33094 0.22779 0.0
H317 H 0.47839 0.30466 0.20279 0.0
H318 H 0.48292 0.32764 0.28828 0.0
H319 H 0.48265 0.28696 0.12031 0.0
H320 H 0.41347 0.24976 0.12221 0.0
H321 H 0.48487 0.25431 0.13631 0.0
H322 H 0.41507 0.21656 0.13277 0.0
H323 H 0.48445 0.1513 0.12536 0.0
H324 H 0.49504 0.13959 0.03991 0.0
H325 H 0.43504 0.12528 0.94785 0.0
H326 H 0.42392 0.13561 0.0356 0.0
H327 H 0.41533 0.11226 0.17399 0.0
H328 H 0.41899 0.09218 0.25193 0.0
H329 H 0.48477 0.14449 0.29388 0.0
H330 H 0.48029 0.16498 0.2179 0.0
H331 H 0.47868 0.18718 0.10069 0.0
H332 H 0.47958 0.22174 0.09696 0.0
H333 H 0.42303 0.19693 0.19375 0.0
N334 N 0.4457 0.14947 0.13834 0.0
H335 H 0.42106 0.16159 0.19201 0.0
C336 C 0.45333 0.30096 0.06393 0.0
C337 C 0.47421 0.31899 0.06221 0.0
C338 C 0.47985 0.33095 0.01351 0.0
C339 C 0.4648 0.32493 0.96551 0.0
C340 C 0.4444 0.30603 0.96642 0.0
C341 C 0.43874 0.29428 0.01522 0.0
C342 C 0.44925 0.30347 0.16705 0.0
C343 C 0.43481 0.31102 0.17562 0.0
C344 C 0.43777 0.32485 0.22394 0.0
C345 C 0.45518 0.33126 0.26546 0.0
C346 C 0.4695 0.32338 0.25709 0.0
C347 C 0.46675 0.30991 0.20812 0.0
C348 C 0.44786 0.27075 0.1213 0.0
C349 C 0.46792 0.27167 0.12396 0.0
C350 C 0.46909 0.25285 0.13247 0.0
C351 C 0.45017 0.2326 0.13663 0.0
C352 C 0.43011 0.23182 0.13194 0.0
C353 C 0.42905 0.25072 0.12503 0.0
C354 C 0.453 0.14369 0.08742 0.0
C355 C 0.47339 0.14535 0.08723 0.0
C356 C 0.47964 0.139 0.03763 0.0
C357 C 0.46588 0.1313 0.98666 0.0
C358 C 0.44587 0.13058 0.9865 0.0
C359 C 0.43949 0.13658 0.03646 0.0
C360 C 0.44763 0.13978 0.18957 0.0
C361 C 0.43034 0.11953 0.20096 0.0
C362 C 0.43257 0.10803 0.2452 0.0
C363 C 0.45237 0.11642 0.27843 0.0
C364 C 0.46927 0.13749 0.26937 0.0
C365 C 0.46685 0.14916 0.22558 0.0
C366 C 0.44936 0.17145 0.14544 0.0
C367 C 0.46644 0.18909 0.12116 0.0
C368 C 0.46707 0.20911 0.11958 0.0
C369 C 0.45106 0.21219 0.14383 0.0
C370 C 0.43515 0.19505 0.17246 0.0
C371 C 0.43417 0.17487 0.17246 0.0
C372 C 0.04291 0.49059 0.53816 0.0
C373 C 0.02346 0.45472 0.73651 0.0
C374 C 0.9649 0.45625 0.70628 0.0
Mg375 Mg 0.02792 0.52247 0.47934 0.0
Mg376 Mg 0.01907 0.55506 0.5628 0.0
O377 O 0.01126 0.52617 0.54114 0.0
Mg378 Mg 0.01505 0.50898 0.60109 0.0
O379 O 0.01892 0.49036 0.65674 0.0
Mg380 Mg 0.00178 0.46087 0.61284 0.0
Mg381 Mg 0.01173 0.4916 0.73218 0.0
C382 C 0.9879 0.53011 0.65917 0.0
O383 O 0.03983 0.5394 0.66048 0.0
O384 O 0.01306 0.53868 0.42129 0.0
O385 O 0.02976 0.52697 0.74787 0.0
O386 O 0.05822 0.55646 0.50101 0.0
O387 O 0.00738 0.56036 0.48284 0.0
O388 O 0.05357 0.57588 0.57044 0.0
O389 O 0.98992 0.47753 0.54872 0.0
O390 O 0.99795 0.48867 0.46065 0.0
C391 C 0.98651 0.47394 0.49391 0.0
C392 C 0.00637 0.55223 0.43191 0.0
O393 O 0.98978 0.51306 0.65035 0.0
O394 O 0.01647 0.4486 0.68334 0.0
O395 O 0.99923 0.54786 0.63478 0.0
O396 O 0.97156 0.44953 0.66453 0.0
O397 O 0.02325 0.47083 0.76323 0.0
O398 O 0.97739 0.47425 0.73563 0.0
O399 O 0.03992 0.50686 0.54674 0.0
O400 O 0.03139 0.47262 0.56113 0.0
C401 C 0.06553 0.57367 0.53519 0.0
C402 C 0.04048 0.54244 0.71549 0.0
C403 C 0.4985 0.02364 0.48803 0.0
C404 C 0.5691 0.02105 0.44982 0.0
C405 C 0.53638 0.95907 0.52361 0.0
Mg406 Mg 0.46582 0.00294 0.58795 0.0
Mg407 Mg 0.48319 0.9958 0.7123 0.0
O408 O 0.47942 0.98868 0.63307 0.0
Mg409 Mg 0.50603 0.99801 0.59124 0.0
O410 O 0.53119 0.00725 0.54369 0.0
Mg411 Mg 0.51606 0.98947 0.46961 0.0
Mg412 Mg 0.5555 0.00612 0.57168 0.0
C413 C 0.51125 0.97252 0.70134 0.0
O414 O 0.52922 0.02539 0.6598 0.0
O415 O 0.43596 0.98397 0.64051 0.0
O416 O 0.56069 0.02559 0.65137 0.0
O417 O 0.47841 0.03307 0.65399 0.0
O418 O 0.44942 0.98068 0.72636 0.0
O419 O 0.49703 0.03026 0.72882 0.0
O420 O 0.48528 0.97171 0.51944 0.0
O421 O 0.45497 0.97345 0.52295 0.0
C422 C 0.46566 0.96514 0.50148 0.0
C423 C 0.43358 0.97761 0.69168 0.0
O424 O 0.51329 0.97541 0.6473 0.0
O425 O 0.54918 0.01014 0.42956 0.0
O426 O 0.50196 0.98035 0.73232 0.0
O427 O 0.52522 0.96352 0.48831 0.0
O428 O 0.57484 0.02179 0.50299 0.0
O429 O 0.54864 0.97276 0.56491 0.0
O430 O 0.49716 0.01995 0.54134 0.0
O431 O 0.50627 0.01503 0.45432 0.0
C432 C 0.49028 0.04109 0.70124 0.0
C433 C 0.54913 0.03227 0.67597 0.0
C434 C 0.52969 0.54708 0.70292 0.0
C435 C 0.46701 0.48194 0.79659 0.0
C436 C 0.49086 0.44308 0.71339 0.0
Mg437 Mg 0.5506 0.54799 0.58388 0.0
Mg438 Mg 0.52237 0.51266 0.47462 0.0
O439 O 0.53273 0.51668 0.55179 0.0
Mg440 Mg 0.51206 0.50437 0.61278 0.0
O441 O 0.49334 0.49399 0.67807 0.0
Mg442 Mg 0.5151 0.49831 0.74233 0.0
Mg443 Mg 0.46803 0.46662 0.6702 0.0
C444 C 0.49545 0.464 0.51329 0.0
O445 O 0.4827 0.50195 0.55961 0.0
O446 O 0.57383 0.55194 0.51331 0.0
O447 O 0.45463 0.47197 0.59143 0.0
O448 O 0.53331 0.56068 0.52366 0.0
O449 O 0.55365 0.52646 0.44117 0.0
O450 O 0.51045 0.5345 0.45812 0.0
O451 O 0.53886 0.50463 0.67132 0.0
O452 O 0.56693 0.53498 0.64426 0.0
C453 C 0.55916 0.5185 0.6747 0.0
C454 C 0.57183 0.54211 0.46383 0.0
O455 O 0.50006 0.47006 0.56739 0.0
O456 O 0.48782 0.4924 0.8031 0.0
O457 O 0.50072 0.47749 0.47385 0.0
O458 O 0.50457 0.46161 0.73908 0.0
O459 O 0.45645 0.47091 0.74962 0.0
O460 O 0.47582 0.44113 0.67779 0.0
O461 O 0.52514 0.53952 0.65026 0.0
O462 O 0.52629 0.53461 0.74382 0.0
C463 C 0.51891 0.5539 0.48145 0.0
C464 C 0.46246 0.48737 0.5572 0.0
H465 H 0.14624 0.51421 0.31046 0.0
H466 H 0.09967 0.4451 0.29711 0.0
H467 H 0.12431 0.52057 0.37794 0.0
H468 H 0.07801 0.4514 0.36368 0.0
H469 H 0.05952 0.46371 0.53421 0.0
H470 H 0.08344 0.4621 0.46707 0.0
H471 H 0.08752 0.51775 0.38743 0.0
H472 H 0.06346 0.51965 0.45622 0.0
C473 C 0.13129 0.50044 0.32158 0.0
C474 C 0.12491 0.47909 0.29946 0.0
C475 C 0.11874 0.50409 0.36003 0.0
C476 C 0.09965 0.48644 0.37685 0.0
C477 C 0.09293 0.46528 0.35276 0.0
C478 C 0.10538 0.46166 0.31469 0.0
C479 C 0.06549 0.47571 0.50262 0.0
C480 C 0.05923 0.49157 0.49993 0.0
C481 C 0.07919 0.47473 0.46396 0.0
C482 C 0.08697 0.48948 0.42113 0.0
C483 C 0.08168 0.50611 0.41993 0.0
C484 C 0.06789 0.50717 0.45915 0.0
H485 H 0.65446 0.07718 0.17447 0.0
H486 H 0.68036 0.12729 0.31519 0.0
H487 H 0.62605 0.05267 0.23266 0.0
H488 H 0.6516 0.10294 0.37294 0.0
H489 H 0.61242 0.04575 0.47907 0.0
H490 H 0.64067 0.06876 0.41938 0.0
H491 H 0.59339 0.04947 0.27474 0.0
H492 H 0.56482 0.02606 0.33459 0.0
C493 C 0.65419 0.08288 0.21805 0.0
C494 C 0.66976 0.1041 0.24051 0.0
C495 C 0.63775 0.06894 0.25103 0.0
C496 C 0.63659 0.07588 0.30728 0.0
C497 C 0.65221 0.09706 0.32987 0.0
C498 C 0.66859 0.11105 0.29675 0.0
C499 C 0.60792 0.04626 0.4345 0.0
C500 C 0.58625 0.03407 0.41174 0.0
C501 C 0.62417 0.0596 0.40041 0.0
C502 C 0.61924 0.06108 0.34258 0.0
C503 C 0.59768 0.04855 0.31919 0.0
C504 C 0.58132 0.0352 0.35349 0.0
H505 H 0.51342 0.6231 0.20161 0.0
H506 H 0.53011 0.67141 0.34313 0.0
H507 H 0.50567 0.59534 0.26877 0.0
H508 H 0.52156 0.64347 0.41089 0.0
H509 H 0.54021 0.59823 0.50382 0.0
H510 H 0.53832 0.62475 0.44572 0.0
H511 H 0.48511 0.57251 0.33847 0.0
H512 H 0.48769 0.54579 0.39555 0.0
C513 C 0.51478 0.62762 0.24716 0.0
C514 C 0.52255 0.64946 0.26712 0.0
C515 C 0.51026 0.61166 0.28588 0.0
C516 C 0.51317 0.61709 0.34563 0.0
C517 C 0.5196 0.63872 0.36535 0.0
C518 C 0.5244 0.65474 0.32657 0.0
C519 C 0.52781 0.59234 0.46856 0.0
C520 C 0.51436 0.56982 0.45383 0.0
C521 C 0.52662 0.60765 0.43519 0.0
C522 C 0.51176 0.60088 0.38656 0.0
C523 C 0.49714 0.57836 0.37463 0.0
C524 C 0.49849 0.56301 0.40769 0.0
H525 H 0.9462 0.57328 0.12313 0.0
H526 H 0.90815 0.56949 0.26466 0.0
H527 H 0.97131 0.56882 0.18812 0.0
H528 H 0.93308 0.56483 0.32938 0.0
H529 H 0.99423 0.58301 0.438 0.0
H530 H 0.97195 0.58874 0.36759 0.0
H531 H 0.97104 0.53957 0.24969 0.0
H532 H 0.99351 0.53361 0.32067 0.0
C533 C 0.94329 0.57159 0.16819 0.0
C534 C 0.92533 0.57188 0.18906 0.0
C535 C 0.95752 0.56885 0.20513 0.0
C536 C 0.95418 0.5666 0.26372 0.0
C537 C 0.93616 0.56678 0.28447 0.0
C538 C 0.92182 0.56929 0.24746 0.0
C539 C 0.9895 0.57347 0.39697 0.0
C540 C 0.99547 0.55762 0.38532 0.0
C541 C 0.97663 0.57673 0.35676 0.0
C542 C 0.96948 0.56434 0.30369 0.0
C543 C 0.97634 0.54932 0.29044 0.0
C544 C 0.9892 0.54593 0.33102 0.0
H545 H 0.36945 0.85955 0.26255 0.0
H546 H 0.38801 0.92255 0.20084 0.0
H547 H 0.40079 0.87677 0.33387 0.0
H548 H 0.41941 0.93971 0.27103 0.0
H549 H 0.47826 0.96533 0.3931 0.0
H550 H 0.45517 0.9415 0.30905 0.0
H551 H 0.40517 0.90357 0.41983 0.0
H552 H 0.42792 0.9276 0.50281 0.0
C553 C 0.38061 0.87696 0.26324 0.0
C554 C 0.37638 0.88983 0.22685 0.0
C555 C 0.39847 0.88679 0.30387 0.0
C556 C 0.41251 0.90955 0.3078 0.0
C557 C 0.40904 0.92211 0.26846 0.0
C558 C 0.39101 0.91236 0.22868 0.0
C559 C 0.46263 0.95142 0.39934 0.0
C560 C 0.45474 0.94815 0.45397 0.0
C561 C 0.44942 0.9379 0.35146 0.0
C562 C 0.42841 0.92072 0.35806 0.0
C563 C 0.42136 0.91649 0.41353 0.0
C564 C 0.43432 0.93025 0.46096 0.0
H565 H 0.49404 0.36338 0.31838 0.0
H566 H 0.42502 0.33507 0.32621 0.0
H567 H 0.50027 0.39124 0.39334 0.0
H568 H 0.43155 0.36395 0.3991 0.0
H569 H 0.46286 0.44258 0.43026 0.0
H570 H 0.45035 0.40641 0.38276 0.0
H571 H 0.49239 0.39715 0.50216 0.0
H572 H 0.50449 0.43331 0.55104 0.0
C573 C 0.48016 0.3627 0.33676 0.0
C574 C 0.45898 0.34695 0.31547 0.0
C575 C 0.48379 0.37875 0.3798 0.0
C576 C 0.46639 0.37968 0.4019 0.0
C577 C 0.44523 0.36356 0.38254 0.0
C578 C 0.44155 0.34721 0.34027 0.0
C579 C 0.46889 0.43251 0.44743 0.0
C580 C 0.48467 0.44065 0.49395 0.0
C581 C 0.46169 0.41182 0.42045 0.0
C582 C 0.47052 0.39912 0.43871 0.0
C583 C 0.48539 0.40671 0.48739 0.0
C584 C 0.49221 0.42726 0.5154 0.0
H585 H 0.51682 0.88218 0.92512 0.0
H586 H 0.57648 0.90575 0.84319 0.0
H587 H 0.50648 0.90269 0.86321 0.0
H588 H 0.56623 0.92683 0.78186 0.0
H589 H 0.52763 0.94784 0.65335 0.0
H590 H 0.53791 0.92412 0.70301 0.0
H591 H 0.52232 0.94315 0.86376 0.0
H592 H 0.51235 0.96664 0.81539 0.0
C593 C 0.52757 0.8914 0.89319 0.0
C594 C 0.54756 0.8924 0.88946 0.0
C595 C 0.52173 0.90334 0.85806 0.0
C596 C 0.53567 0.91659 0.81819 0.0
C597 C 0.55516 0.91675 0.81215 0.0
C598 C 0.56109 0.90484 0.84764 0.0
C599 C 0.52661 0.9471 0.69932 0.0
C600 C 0.519 0.9591 0.73009 0.0
C601 C 0.53246 0.93349 0.72769 0.0
C602 C 0.53054 0.9315 0.78711 0.0
C603 C 0.52349 0.94392 0.81777 0.0
C604 C 0.51787 0.95753 0.78982 0.0
H605 H 0.67073 0.52394 0.85888 0.0
H606 H 0.64021 0.54626 0.97774 0.0
H607 H 0.63949 0.51103 0.78874 0.0
H608 H 0.60911 0.53346 0.90785 0.0
H609 H 0.55106 0.49913 0.77705 0.0
H610 H 0.57791 0.50037 0.84877 0.0
H611 H 0.62805 0.53428 0.73473 0.0
H612 H 0.60154 0.53326 0.66395 0.0
C613 C 0.65715 0.52566 0.87037 0.0
C614 C 0.65795 0.53634 0.92325 0.0
C615 C 0.63934 0.51834 0.8303 0.0
C616 C 0.62194 0.52133 0.84284 0.0
C617 C 0.62219 0.53076 0.8972 0.0
C618 C 0.64008 0.5383 0.9369 0.0
C619 C 0.56776 0.50649 0.7671 0.0
C620 C 0.57428 0.51635 0.71532 0.0
C621 C 0.58309 0.50725 0.80809 0.0
C622 C 0.60504 0.51743 0.79724 0.0
C623 C 0.61125 0.52612 0.74407 0.0
C624 C 0.59607 0.52571 0.70376 0.0
H625 H 0.13697 0.67123 0.88271 0.0
H626 H 0.09066 0.63476 0.00338 0.0
H627 H 0.11583 0.6419 0.8071 0.0
H628 H 0.07005 0.60533 0.9294 0.0
H629 H 0.02582 0.56254 0.78479 0.0
H630 H 0.047 0.59622 0.84602 0.0
H631 H 0.10526 0.60507 0.775 0.0
H632 H 0.08353 0.57175 0.71108 0.0
C633 C 0.12233 0.65688 0.89303 0.0
C634 C 0.11529 0.65534 0.94867 0.0
C635 C 0.11025 0.64007 0.84985 0.0
C636 C 0.09101 0.62132 0.86173 0.0
C637 C 0.08435 0.61976 0.9179 0.0
C638 C 0.09623 0.63659 0.96059 0.0
C639 C 0.04312 0.572 0.78155 0.0
C640 C 0.05316 0.56461 0.74389 0.0
C641 C 0.05532 0.59116 0.81701 0.0
C642 C 0.07796 0.60308 0.81684 0.0
C643 C 0.08788 0.59634 0.77637 0.0
C644 C 0.0755 0.57729 0.7398 0.0
H645 H 0.43911 0.09694 0.90906 0.0
H646 H 0.50629 0.14638 0.94737 0.0
H647 H 0.44896 0.0812 0.83004 0.0
H648 H 0.51614 0.12973 0.86934 0.0
H649 H 0.51689 0.06514 0.79648 0.0
H650 H 0.51358 0.09197 0.85762 0.0
H651 H 0.46574 0.08947 0.73331 0.0
H652 H 0.46901 0.06272 0.67188 0.0
C653 C 0.45593 0.1048 0.90007 0.0
C654 C 0.47187 0.12296 0.93509 0.0
C655 C 0.46157 0.09569 0.85467 0.0
C656 C 0.48331 0.10429 0.84351 0.0
C657 C 0.49926 0.12275 0.87725 0.0
C658 C 0.49359 0.13213 0.92222 0.0
C659 C 0.50613 0.07078 0.78133 0.0
C660 C 0.49287 0.06143 0.72987 0.0
C661 C 0.50431 0.08622 0.8163 0.0
C662 C 0.48911 0.09245 0.80058 0.0
C663 C 0.47736 0.08467 0.74672 0.0
C664 C 0.47933 0.06942 0.71146 0.0
H665 H 0.40792 0.52284 0.05993 0.0
H666 H 0.36353 0.49596 0.90778 0.0
H667 H 0.43309 0.51462 0.01336 0.0
H668 H 0.38868 0.4878 0.86121 0.0
H669 H 0.42495 0.45436 0.81405 0.0
H670 H 0.40187 0.46237 0.87105 0.0
H671 H 0.45702 0.52443 0.93447 0.0
H672 H 0.48031 0.51619 0.87795 0.0
C673 C 0.4037 0.51554 0.01614 0.0
C674 C 0.3837 0.51003 0.9875 0.0
C675 C 0.4181 0.51074 0.9896 0.0
C676 C 0.41276 0.50028 0.93393 0.0
C677 C 0.39305 0.49538 0.90472 0.0
C678 C 0.37867 0.50016 0.93122 0.0
C679 C 0.43225 0.46954 0.84105 0.0
C680 C 0.45442 0.48474 0.8411 0.0
C681 C 0.41898 0.47422 0.87325 0.0
C682 C 0.4275 0.49428 0.90607 0.0
C683 C 0.44995 0.50885 0.90948 0.0
C684 C 0.46331 0.50409 0.87733 0.0
H685 H 0.89207 0.38995 0.97469 0.0
H686 H 0.85978 0.34023 0.83457 0.0
H687 H 0.91075 0.41706 0.90705 0.0
H688 H 0.87758 0.36759 0.76582 0.0
H689 H 0.94007 0.41232 0.6796 0.0
H690 H 0.91163 0.38626 0.73347 0.0
H691 H 0.9127 0.43933 0.83541 0.0
H692 H 0.94229 0.4655 0.78343 0.0
C693 C 0.88846 0.38499 0.92911 0.0
C694 C 0.87463 0.36298 0.90985 0.0
C695 C 0.8991 0.40059 0.89003 0.0
C696 C 0.89591 0.39464 0.83051 0.0
C697 C 0.8809 0.37277 0.81123 0.0
C698 C 0.87057 0.35708 0.85051 0.0
C699 C 0.93393 0.41849 0.71257 0.0
C700 C 0.94379 0.44103 0.7279 0.0
C701 C 0.91742 0.40344 0.74357 0.0
C702 C 0.91005 0.41055 0.79004 0.0
C703 C 0.91841 0.43317 0.80129 0.0
C704 C 0.93524 0.44824 0.77098 0.0
H705 H 0.88466 0.54747 0.76855 0.0
H706 H 0.89984 0.52058 0.91428 0.0
H707 H 0.90921 0.54096 0.71312 0.0
H708 H 0.92373 0.51344 0.85786 0.0
H709 H 0.95591 0.49461 0.70758 0.0
H710 H 0.92628 0.49324 0.75928 0.0
H711 H 0.95147 0.56187 0.73994 0.0
H712 H 0.98117 0.56355 0.69054 0.0
C713 C 0.89284 0.53976 0.78838 0.0
C714 C 0.89055 0.53492 0.84618 0.0
C715 C 0.90679 0.53596 0.75658 0.0
C716 C 0.91849 0.52698 0.78168 0.0
C717 C 0.9148 0.52031 0.83761 0.0
C718 C 0.90102 0.52435 0.86974 0.0
C719 C 0.95534 0.50946 0.71537 0.0
C720 C 0.97098 0.52917 0.69497 0.0
C721 C 0.9383 0.50861 0.74443 0.0
C722 C 0.93646 0.52735 0.75238 0.0
C723 C 0.9523 0.54708 0.73317 0.0
C724 C 0.96941 0.54803 0.70518 0.0
H725 H 0.31602 0.91898 0.87305 0.0
H726 H 0.3427 0.87616 0.8577 0.0
H727 H 0.34067 0.94214 0.80476 0.0
H728 H 0.36593 0.89849 0.7867 0.0
H729 H 0.3985 0.94166 0.638 0.0
H730 H 0.36471 0.91734 0.68099 0.0
H731 H 0.3863 0.9621 0.83284 0.0
H732 H 0.42027 0.98581 0.79111 0.0
C733 C 0.32672 0.91418 0.85447 0.0
C734 C 0.3276 0.89586 0.87225 0.0
C735 C 0.34059 0.92732 0.81482 0.0
C736 C 0.35506 0.92198 0.79076 0.0
C737 C 0.35465 0.90272 0.8043 0.0
C738 C 0.34122 0.88988 0.84499 0.0
C739 C 0.39567 0.94649 0.67988 0.0
C740 C 0.41181 0.96547 0.71152 0.0
C741 C 0.37647 0.93263 0.70434 0.0
C742 C 0.373 0.93804 0.75984 0.0
C743 C 0.38855 0.95779 0.78966 0.0
C744 C 0.40795 0.97126 0.766 0.0
H745 H 0.43739 0.33483 0.90636 0.0
H746 H 0.50316 0.34776 0.91494 0.0
H747 H 0.44554 0.36035 0.833 0.0
H748 H 0.5114 0.3737 0.84128 0.0
H749 H 0.52032 0.44102 0.78776 0.0
H750 H 0.51505 0.40977 0.83863 0.0
H751 H 0.45516 0.36868 0.73516 0.0
H752 H 0.46016 0.40013 0.68485 0.0
C753 C 0.45349 0.3427 0.89165 0.0
C754 C 0.46961 0.33917 0.9168 0.0
C755 C 0.45816 0.35738 0.84933 0.0
C756 C 0.47912 0.36907 0.83101 0.0
C757 C 0.49514 0.3651 0.85479 0.0
C758 C 0.49043 0.3503 0.89715 0.0
C759 C 0.50625 0.42524 0.7748 0.0
C760 C 0.49043 0.42322 0.73299 0.0
C761 C 0.50329 0.40724 0.80389 0.0
C762 C 0.48446 0.38679 0.7918 0.0
C763 C 0.46961 0.38434 0.74638 0.0
C764 C 0.47257 0.40235 0.7172 0.0
H765 H 0.12724 0.44303 0.87291 0.0
H766 H 0.08046 0.41098 0.99667 0.0
H767 H 0.09894 0.44143 0.80706 0.0
H768 H 0.0521 0.40881 0.93018 0.0
H769 H 0.02691 0.4526 0.8519 0.0
H770 H 0.048 0.44014 0.90559 0.0
H771 H 0.06383 0.41995 0.74669 0.0
H772 H 0.04256 0.43259 0.69244 0.0
C773 C 0.11081 0.43512 0.88539 0.0
C774 C 0.10615 0.42747 0.94034 0.0
C775 C 0.09456 0.434 0.84744 0.0
C776 C 0.07336 0.42526 0.86383 0.0
C777 C 0.06836 0.41589 0.91673 0.0
C778 C 0.08459 0.41697 0.95461 0.0
C779 C 0.03455 0.44514 0.82831 0.0
C780 C 0.0333 0.44381 0.76799 0.0
C781 C 0.04648 0.4378 0.85911 0.0
C782 C 0.05762 0.4291 0.83035 0.0
C783 C 0.05548 0.42669 0.76992 0.0
C784 C 0.04325 0.43383 0.73895 0.0
H785 H 0.63425 0.08738 0.96181 0.0
H786 H 0.64558 0.14663 0.8881 0.0
H787 H 0.601 0.06644 0.89946 0.0
H788 H 0.61217 0.12561 0.82514 0.0
H789 H 0.58416 0.07121 0.66608 0.0
H790 H 0.60751 0.09813 0.74343 0.0
H791 H 0.56319 0.05973 0.86631 0.0
H792 H 0.53942 0.03278 0.78765 0.0
C793 C 0.62933 0.09594 0.93291 0.0
C794 C 0.64255 0.11849 0.92879 0.0
C795 C 0.61018 0.08402 0.89782 0.0
C796 C 0.60405 0.09442 0.85745 0.0
C797 C 0.61658 0.11723 0.85594 0.0
C798 C 0.63564 0.12922 0.89174 0.0
C799 C 0.57912 0.06891 0.70945 0.0
C800 C 0.56023 0.05002 0.72143 0.0
C801 C 0.59237 0.08437 0.75365 0.0
C802 C 0.58718 0.08097 0.81085 0.0
C803 C 0.56751 0.06268 0.82248 0.0
C804 C 0.55395 0.04735 0.77777 0.0
H805 H 0.52214 0.64518 0.87928 0.0
H806 H 0.59176 0.67611 0.88439 0.0
H807 H 0.51875 0.6186 0.80411 0.0
H808 H 0.58814 0.64876 0.81043 0.0
H809 H 0.5179 0.57494 0.65827 0.0
H810 H 0.52777 0.61134 0.7014 0.0
H811 H 0.57224 0.60792 0.82605 0.0
H812 H 0.56206 0.57166 0.78406 0.0
C813 C 0.53676 0.64676 0.86337 0.0
C814 C 0.55724 0.66266 0.88871 0.0
C815 C 0.53477 0.63148 0.82011 0.0
C816 C 0.55318 0.6316 0.80169 0.0
C817 C 0.5737 0.64827 0.82421 0.0
C818 C 0.57572 0.66375 0.86697 0.0
C819 C 0.53025 0.58235 0.69375 0.0
C820 C 0.5391 0.57057 0.71843 0.0
C821 C 0.53582 0.60306 0.71847 0.0
C822 C 0.55069 0.61235 0.76712 0.0
C823 C 0.56089 0.60126 0.7883 0.0
C824 C 0.55498 0.58047 0.76453 0.0
H825 H 0.43725 0.07265 0.26102 0.0
H826 H 0.47617 0.12804 0.38365 0.0
H827 H 0.44589 0.04996 0.31814 0.0
H828 H 0.48567 0.10521 0.43982 0.0
H829 H 0.48494 0.04944 0.54361 0.0
H830 H 0.47159 0.07169 0.49898 0.0
H831 H 0.48024 0.05041 0.3313 0.0
H832 H 0.49315 0.02834 0.37486 0.0
C833 C 0.44733 0.07997 0.30075 0.0
C834 C 0.45604 0.10229 0.31747 0.0
C835 C 0.4525 0.06695 0.33319 0.0
C836 C 0.46671 0.07587 0.38302 0.0
C837 C 0.47465 0.09789 0.40162 0.0
C838 C 0.46939 0.111 0.36907 0.0
C839 C 0.48384 0.04947 0.49724 0.0
C840 C 0.49006 0.03704 0.46289 0.0
C841 C 0.47632 0.06227 0.47178 0.0
C842 C 0.47466 0.06261 0.41161 0.0
C843 C 0.48092 0.0502 0.37768 0.0
C844 C 0.4885 0.03763 0.40286 0.0
H845 H 0.36111 0.50487 0.39646 0.0
H846 H 0.38779 0.488 0.25425 0.0
H847 H 0.38684 0.50223 0.46358 0.0
H848 H 0.41323 0.48506 0.32122 0.0
H849 H 0.47082 0.50729 0.45627 0.0
H850 H 0.44534 0.51029 0.38937 0.0
H851 H 0.39374 0.47284 0.49647 0.0
H852 H 0.41922 0.47022 0.56367 0.0
C853 C 0.37241 0.50053 0.37967 0.0
C854 C 0.37238 0.49649 0.32029 0.0
C855 C 0.38703 0.49891 0.41797 0.0
C856 C 0.40202 0.49347 0.39749 0.0
C857 C 0.40198 0.48946 0.33811 0.0
C858 C 0.38725 0.49088 0.29991 0.0
C859 C 0.45412 0.49991 0.46571 0.0
C860 C 0.44712 0.48872 0.5154 0.0
C861 C 0.43948 0.50142 0.4272 0.0
C862 C 0.41758 0.49186 0.43795 0.0
C863 C 0.41057 0.48058 0.48749 0.0
C864 C 0.42515 0.47894 0.52566 0.0
H865 H 0.8759 0.37527 0.28008 0.0
H866 H 0.91288 0.34445 0.32629 0.0
H867 H 0.89822 0.40561 0.35096 0.0
H868 H 0.93563 0.37528 0.39652 0.0
H869 H 0.96632 0.43356 0.53822 0.0
H870 H 0.93748 0.39899 0.48889 0.0
H871 H 0.93748 0.43322 0.34054 0.0
H872 H 0.96597 0.4672 0.38869 0.0
C873 C 0.8884 0.37465 0.30641 0.0
C874 C 0.89277 0.35756 0.29702 0.0
C875 C 0.90128 0.39212 0.34675 0.0
C876 C 0.91879 0.39289 0.37864 0.0
C877 C 0.92219 0.37505 0.37259 0.0
C878 C 0.90932 0.35755 0.33197 0.0
C879 C 0.95998 0.43361 0.49526 0.0
C880 C 0.96851 0.45303 0.46714 0.0
C881 C 0.94357 0.4139 0.46712 0.0
C882 C 0.93516 0.41352 0.41115 0.0
C883 C 0.9434 0.43306 0.38396 0.0
C884 C 0.9599 0.45251 0.41143 0.0
H885 H 0.59204 0.91453 0.30461 0.0
H886 H 0.53042 0.85508 0.30295 0.0
H887 H 0.58457 0.92851 0.39218 0.0
H888 H 0.52297 0.86895 0.39135 0.0
H889 H 0.50643 0.92188 0.46154 0.0
H890 H 0.51387 0.89699 0.4062 0.0
H891 H 0.5779 0.92732 0.49313 0.0
H892 H 0.57049 0.95269 0.54799 0.0
C893 C 0.57715 0.90419 0.32389 0.0
C894 C 0.56166 0.88388 0.29635 0.0
C895 C 0.57289 0.91214 0.37443 0.0
C896 C 0.55307 0.89992 0.39871 0.0
C897 C 0.53824 0.87892 0.3733 0.0
C898 C 0.54246 0.87102 0.32257 0.0
C899 C 0.52182 0.92273 0.47042 0.0
C900 C 0.53804 0.93955 0.50808 0.0
C901 C 0.5261 0.90836 0.43875 0.0
C902 C 0.54671 0.91052 0.44412 0.0
C903 C 0.56203 0.92559 0.48708 0.0
C904 C 0.55769 0.93996 0.51903 0.0
H905 H 0.65592 0.53302 0.23037 0.0
H906 H 0.6998 0.59303 0.33278 0.0
H907 H 0.62704 0.52793 0.28837 0.0
H908 H 0.67011 0.5887 0.38839 0.0
H909 H 0.61393 0.56166 0.50822 0.0
H910 H 0.64529 0.56795 0.45717 0.0
H911 H 0.60479 0.54335 0.29766 0.0
H912 H 0.57352 0.53626 0.3489 0.0
C913 C 0.65958 0.54505 0.26574 0.0
C914 C 0.68036 0.56344 0.27677 0.0
C915 C 0.64278 0.54234 0.29835 0.0
C916 C 0.64608 0.55814 0.34229 0.0
C917 C 0.66698 0.57621 0.35482 0.0
C918 C 0.68396 0.5788 0.32252 0.0
C919 C 0.61183 0.55779 0.46216 0.0
C920 C 0.59125 0.54823 0.43261 0.0
C921 C 0.6298 0.56143 0.43289 0.0
C922 C 0.62751 0.5558 0.37345 0.0
C923 C 0.60705 0.54724 0.34372 0.0
C924 C 0.58912 0.54333 0.373 0.0
H925 H 0.11845 0.68166 0.3584 0.0
H926 H 0.17075 0.66807 0.34913 0.0
H927 H 0.10426 0.65712 0.43391 0.0
H928 H 0.15604 0.64285 0.4245 0.0
H929 H 0.09611 0.57489 0.46737 0.0
H930 H 0.12289 0.60675 0.42339 0.0
H931 H 0.10899 0.6483 0.53237 0.0
H932 H 0.08188 0.61634 0.57602 0.0
C933 C 0.12733 0.67395 0.37349 0.0
C934 C 0.14573 0.67683 0.34712 0.0
C935 C 0.11915 0.65981 0.41707 0.0
C936 C 0.12901 0.648 0.43532 0.0
C937 C 0.14798 0.6516 0.41104 0.0
C938 C 0.15632 0.66594 0.36761 0.0
C939 C 0.09923 0.59087 0.48341 0.0
C940 C 0.08639 0.59298 0.5241 0.0
C941 C 0.1147 0.6092 0.45827 0.0
C942 C 0.11766 0.63 0.47335 0.0
C943 C 0.1067 0.6324 0.51897 0.0
C944 C 0.09126 0.61407 0.54429 0.0
loop_
_geom_bond_atom_site_label_1
_geom_bond_atom_site_label_2
_geom_bond_distance
_geom_bond_site_symmetry_2
_ccdc_geom_bond_type
H0 C27 0.929 . S
N1 C26 1.433 . S
N1 C32 1.435 . S
N1 C38 1.423 . S
H2 C28 0.930 . S
H3 C31 0.931 . S
H4 C30 0.929 . S
H5 C33 0.930 . S
H6 C34 0.932 . S
H7 C37 0.929 . S
H8 C36 0.931 . S
H9 C39 0.929 . S
H10 C43 0.932 . S
H11 C40 0.931 . S
H12 C42 0.929 . S
H13 C45 0.929 . S
H14 C46 0.930 . S
H15 C48 0.929 . S
H16 C49 0.931 . S
H17 C51 0.930 . S
H18 C52 0.932 . S
H19 C54 0.931 . S
H20 C55 0.929 . S
H21 C57 0.929 . S
H22 C58 0.931 . S
H23 C60 0.929 . S
N24 C44 1.433 . S
N24 C50 1.435 . S
N24 C56 1.423 . S
H25 C61 0.932 . S
C26 N1 1.433 . S
C26 C27 1.363 . S
C26 C31 1.370 . S
C27 H0 0.929 . S
C27 C26 1.363 . S
C27 C28 1.385 . S
C28 H2 0.930 . S
C28 C27 1.385 . S
C28 C29 1.357 . S
C29 C28 1.357 . S
C29 C30 1.406 . S
C30 H4 0.929 . S
C30 C29 1.406 . S
C30 C31 1.391 . S
C31 H3 0.931 . S
C31 C26 1.370 . S
C31 C30 1.391 . S
C32 N1 1.435 . S
C32 C33 1.358 . S
C32 C37 1.371 . S
C33 H5 0.930 . S
C33 C32 1.358 . S
C33 C34 1.405 . S
C34 H6 0.932 . S
C34 C33 1.405 . S
C34 C35 1.383 . S
C35 C34 1.383 . S
C35 C36 1.393 . S
C36 H8 0.931 . S
C36 C35 1.393 . S
C36 C37 1.382 . S
C37 H7 0.929 . S
C37 C32 1.371 . S
C37 C36 1.382 . S
C38 N1 1.423 . S
C38 C39 1.362 . S
C38 C43 1.388 . S
C39 H9 0.929 . S
C39 C38 1.362 . S
C39 C40 1.376 . S
C40 H11 0.931 . S
C40 C39 1.376 . S
C40 C41 1.396 . S
C41 C40 1.396 . S
C41 C42 1.348 . S
C41 C59 1.472 . S
C42 H12 0.929 . S
C42 C41 1.348 . S
C42 C43 1.443 . S
C43 H10 0.932 . S
C43 C38 1.388 . S
C43 C42 1.443 . S
C44 N24 1.433 . S
C44 C45 1.363 . S
C44 C49 1.370 . S
C45 H13 0.929 . S
C45 C44 1.363 . S
C45 C46 1.385 . S
C46 H14 0.930 . S
C46 C45 1.385 . S
C46 C47 1.357 . S
C47 C46 1.357 . S
C47 C48 1.406 . S
C48 H15 0.929 . S
C48 C47 1.406 . S
C48 C49 1.391 . S
C49 H16 0.931 . S
C49 C44 1.370 . S
C49 C48 1.391 . S
C50 N24 1.435 . S
C50 C51 1.358 . S
C50 C55 1.371 . S
C51 H17 0.930 . S
C51 C50 1.358 . S
C51 C52 1.405 . S
C52 H18 0.932 . S
C52 C51 1.405 . S
C52 C53 1.383 . S
C53 C52 1.383 . S
C53 C54 1.393 . S
C54 H19 0.931 . S
C54 C53 1.393 . S
C54 C55 1.382 . S
C55 H20 0.929 . S
C55 C50 1.371 . S
C55 C54 1.382 . S
C56 N24 1.423 . S
C56 C57 1.362 . S
C56 C61 1.388 . S
C57 H21 0.929 . S
C57 C56 1.362 . S
C57 C58 1.376 . S
C58 H22 0.931 . S
C58 C57 1.376 . S
C58 C59 1.396 . S
C59 C41 1.472 . S
C59 C58 1.396 . S
C59 C60 1.348 . S
C60 H23 0.929 . S
C60 C59 1.348 . S
C60 C61 1.443 . S
C61 H25 0.932 . S
C61 C56 1.388 . S
C61 C60 1.443 . S
H62 C89 0.929 . S
N63 C88 1.433 . S
N63 C94 1.435 . S
N63 C100 1.423 . S
H64 C90 0.930 . S
H65 C93 0.931 . S
H66 C92 0.929 . S
H67 C95 0.930 . S
H68 C96 0.932 . S
H69 C99 0.929 . S
H70 C98 0.931 . S
H71 C101 0.929 . S
H72 C105 0.932 . S
H73 C102 0.931 . S
H74 C104 0.929 . S
H75 C107 0.929 . S
H76 C108 0.930 . S
H77 C110 0.929 . S
H78 C111 0.931 . S
H79 C113 0.930 . S
H80 C114 0.932 . S
H81 C116 0.931 . S
H82 C117 0.929 . S
H83 C119 0.929 . S
H84 C120 0.931 . S
H85 C122 0.929 . S
N86 C106 1.433 . S
N86 C112 1.435 . S
N86 C118 1.423 . S
H87 C123 0.932 . S
C88 N63 1.433 . S
C88 C89 1.363 . S
C88 C93 1.370 . S
C89 H62 0.929 . S
C89 C88 1.363 . S
C89 C90 1.385 . S
C90 H64 0.930 . S
C90 C89 1.385 . S
C90 C91 1.357 . S
C91 C90 1.357 . S
C91 C92 1.406 . S
C92 H66 0.929 . S
C92 C91 1.406 . S
C92 C93 1.391 . S
C93 H65 0.931 . S
C93 C88 1.370 . S
C93 C92 1.391 . S
C94 N63 1.435 . S
C94 C95 1.358 . S
C94 C99 1.371 1_554 S
C95 H67 0.930 . S
C95 C94 1.358 . S
C95 C96 1.405 1_554 S
C96 H68 0.932 . S
C96 C95 1.405 1_556 S
C96 C97 1.383 . S
C97 C96 1.383 . S
C97 C98 1.393 . S
C98 H70 0.931 . S
C98 C97 1.393 . S
C98 C99 1.382 . S
C99 H69 0.929 . S
C99 C94 1.371 1_556 S
C99 C98 1.382 . S
C100 N63 1.423 . S
C100 C101 1.362 . S
C100 C105 1.388 . S
C101 H71 0.929 . S
C101 C100 1.362 . S
C101 C102 1.376 . S
C102 H73 0.931 . S
C102 C101 1.376 . S
C102 C103 1.396 . S
C103 C102 1.396 . S
C103 C104 1.348 . S
C103 C121 1.472 . S
C104 H74 0.929 . S
C104 C103 1.348 . S
C104 C105 1.443 . S
C105 H72 0.932 . S
C105 C100 1.388 . S
C105 C104 1.443 . S
C106 N86 1.433 . S
C106 C107 1.363 . S
C106 C111 1.370 . S
C107 H75 0.929 . S
C107 C106 1.363 . S
C107 C108 1.385 . S
C108 H76 0.930 . S
C108 C107 1.385 . S
C108 C109 1.357 . S
C109 C108 1.357 . S
C109 C110 1.406 . S
C110 H77 0.929 . S
C110 C109 1.406 . S
C110 C111 1.391 . S
C111 H78 0.931 . S
C111 C106 1.370 . S
C111 C110 1.391 . S
C112 N86 1.435 . S
C112 C113 1.358 . S
C112 C117 1.367 1_554 S
C113 H79 0.930 . S
C113 C112 1.358 . S
C113 C114 1.405 . S
C114 H80 0.932 . S
C114 C113 1.405 . S
C114 C115 1.383 1_554 S
C115 C114 1.383 1_556 S
C115 C116 1.393 . S
C116 H81 0.931 . S
C116 C115 1.393 . S
C116 C117 1.386 . S
C117 H82 0.929 . S
C117 C112 1.367 1_556 S
C117 C116 1.386 . S
C118 N86 1.423 . S
C118 C119 1.362 . S
C118 C123 1.388 . S
C119 H83 0.929 . S
C119 C118 1.362 . S
C119 C120 1.376 . S
C120 H84 0.931 . S
C120 C119 1.376 . S
C120 C121 1.396 . S
C121 C103 1.472 . S
C121 C120 1.396 . S
C121 C122 1.348 . S
C122 H85 0.929 . S
C122 C121 1.348 . S
C122 C123 1.443 . S
C123 H87 0.932 . S
C123 C118 1.388 . S
C123 C122 1.443 . S
H124 C151 0.929 . S
N125 C150 1.433 1_554 S
N125 C156 1.435 . S
N125 C162 1.423 . S
H126 C152 0.930 . S
H127 C155 0.931 . S
H128 C154 0.929 . S
H129 C157 0.930 . S
H130 C158 0.932 . S
H131 C161 0.929 . S
H132 C160 0.931 . S
H133 C163 0.929 1_556 S
H134 C167 0.932 . S
H135 C164 0.931 1_556 S
H136 C166 0.929 . S
H137 C169 0.929 . S
H138 C170 0.930 . S
H139 C172 0.929 . S
H140 C173 0.931 . S
H141 C175 0.930 . S
H142 C176 0.932 . S
H143 C178 0.931 . S
H144 C179 0.929 . S
H145 C181 0.929 1_556 S
H146 C182 0.931 1_556 S
H147 C184 0.929 . S
N148 C168 1.433 1_554 S
N148 C174 1.435 . S
N148 C180 1.423 . S
H149 C185 0.932 . S
C150 N125 1.433 1_556 S
C150 C151 1.363 . S
C150 C155 1.370 . S
C151 H124 0.929 . S
C151 C150 1.363 . S
C151 C152 1.385 . S
C152 H126 0.930 . S
C152 C151 1.385 . S
C152 C153 1.357 . S
C153 C152 1.357 . S
C153 C154 1.406 . S
C154 H128 0.929 . S
C154 C153 1.406 . S
C154 C155 1.391 . S
C155 H127 0.931 . S
C155 C150 1.370 . S
C155 C154 1.391 . S
C156 N125 1.435 . S
C156 C157 1.358 . S
C156 C161 1.371 . S
C157 H129 0.930 . S
C157 C156 1.358 . S
C157 C158 1.405 . S
C158 H130 0.932 . S
C158 C157 1.405 . S
C158 C159 1.383 . S
C159 C158 1.383 . S
C159 C160 1.393 . S
C160 H132 0.931 . S
C160 C159 1.393 . S
C160 C161 1.382 . S
C161 H131 0.929 . S
C161 C156 1.371 . S
C161 C160 1.382 . S
C162 N125 1.423 . S
C162 C163 1.362 . S
C162 C167 1.388 . S
C163 H133 0.929 1_554 S
C163 C162 1.362 . S
C163 C164 1.376 . S
C164 H135 0.931 1_554 S
C164 C163 1.376 . S
C164 C165 1.396 . S
C165 C164 1.396 . S
C165 C166 1.348 . S
C165 C183 1.472 . S
C166 H136 0.929 . S
C166 C165 1.348 . S
C166 C167 1.443 . S
C167 H134 0.932 . S
C167 C162 1.388 . S
C167 C166 1.443 . S
C168 N148 1.433 1_556 S
C168 C169 1.363 . S
C168 C173 1.370 . S
C169 H137 0.929 . S
C169 C168 1.363 . S
C169 C170 1.385 . S
C170 H138 0.930 . S
C170 C169 1.385 . S
C170 C171 1.357 . S
C171 C170 1.357 . S
C171 C172 1.406 . S
C172 H139 0.929 . S
C172 C171 1.406 . S
C172 C173 1.391 . S
C173 H140 0.931 . S
C173 C168 1.370 . S
C173 C172 1.391 . S
C174 N148 1.435 . S
C174 C175 1.358 . S
C174 C179 1.371 . S
C175 H141 0.930 . S
C175 C174 1.358 . S
C175 C176 1.405 . S
C176 H142 0.932 . S
C176 C175 1.405 . S
C176 C177 1.383 . S
C177 C176 1.383 . S
C177 C178 1.393 . S
C178 H143 0.931 . S
C178 C177 1.393 . S
C178 C179 1.382 . S
C179 H144 0.929 . S
C179 C174 1.371 . S
C179 C178 1.382 . S
C180 N148 1.423 . S
C180 C181 1.362 . S
C180 C185 1.388 . S
C181 H145 0.929 1_554 S
C181 C180 1.362 . S
C181 C182 1.376 . S
C182 H146 0.931 1_554 S
C182 C181 1.376 . S
C182 C183 1.396 . S
C183 C165 1.472 . S
C183 C182 1.396 . S
C183 C184 1.348 . S
C184 H147 0.929 . S
C184 C183 1.348 . S
C184 C185 1.443 . S
C185 H149 0.932 . S
C185 C180 1.388 . S
C185 C184 1.443 . S
H186 C213 0.929 . S
N187 C212 1.433 . S
N187 C218 1.435 1_554 S
N187 C224 1.423 . S
H188 C214 0.930 . S
H189 C217 0.931 . S
H190 C216 0.929 . S
H191 C219 0.918 1_554 S
H192 C220 0.932 . S
H193 C223 0.929 . S
H194 C222 0.931 . S
H195 C225 0.929 . S
H196 C229 0.932 . S
H197 C226 0.931 . S
H198 C228 0.929 . S
H199 C231 0.929 . S
H200 C232 0.930 . S
H201 C234 0.929 . S
H202 C235 0.931 . S
H203 C237 0.930 . S
H204 C238 0.932 . S
H205 C240 0.931 . S
H206 C241 0.929 . S
H207 C243 0.929 . S
H208 C244 0.931 . S
H209 C246 0.929 . S
N210 C230 1.433 . S
N210 C236 1.435 1_554 S
N210 C242 1.423 . S
H211 C247 0.932 . S
C212 N187 1.433 . S
C212 C213 1.363 . S
C212 C217 1.370 . S
C213 H186 0.929 . S
C213 C212 1.363 . S
C213 C214 1.385 . S
C214 H188 0.930 . S
C214 C213 1.385 . S
C214 C215 1.357 . S
C215 C214 1.357 . S
C215 C216 1.406 . S
C216 H190 0.929 . S
C216 C215 1.406 . S
C216 C217 1.391 . S
C217 H189 0.931 . S
C217 C212 1.370 . S
C217 C216 1.391 . S
C218 N187 1.435 1_556 S
C218 C219 1.358 . S
C218 C223 1.371 . S
C219 H191 0.918 1_556 S
C219 C218 1.358 . S
C219 C220 1.405 . S
C220 H192 0.932 . S
C220 C219 1.405 . S
C220 C221 1.383 . S
C221 C220 1.383 . S
C221 C222 1.393 . S
C222 H194 0.931 . S
C222 C221 1.393 . S
C222 C223 1.382 . S
C223 H193 0.929 . S
C223 C218 1.371 . S
C223 C222 1.382 . S
C224 N187 1.423 . S
C224 C225 1.362 . S
C224 C229 1.388 1_554 S
C225 H195 0.929 . S
C225 C224 1.362 . S
C225 C226 1.376 . S
C226 H197 0.931 . S
C226 C225 1.376 . S
C226 C227 1.396 . S
C227 C226 1.396 . S
C227 C228 1.348 1_554 S
C227 C245 1.472 . S
C228 H198 0.929 . S
C228 C227 1.348 1_556 S
C228 C229 1.443 . S
C229 H196 0.932 . S
C229 C224 1.388 1_556 S
C229 C228 1.443 . S
C230 N210 1.433 . S
C230 C231 1.363 . S
C230 C235 1.370 . S
C231 H199 0.929 . S
C231 C230 1.363 . S
C231 C232 1.385 . S
C232 H200 0.930 . S
C232 C231 1.385 . S
C232 C233 1.357 . S
C233 C232 1.357 . S
C233 C234 1.406 . S
C234 H201 0.929 . S
C234 C233 1.406 . S
C234 C235 1.391 . S
C235 H202 0.931 . S
C235 C230 1.370 . S
C235 C234 1.391 . S
C236 N210 1.435 1_556 S
C236 C237 1.358 . S
C236 C241 1.371 . S
C237 H203 0.930 . S
C237 C236 1.358 . S
C237 C238 1.405 . S
C238 H204 0.932 . S
C238 C237 1.405 . S
C238 C239 1.383 . S
C239 C238 1.383 . S
C239 C240 1.393 . S
C240 H205 0.931 . S
C240 C239 1.393 . S
C240 C241 1.382 . S
C241 H206 0.929 . S
C241 C236 1.371 . S
C241 C240 1.382 . S
C242 N210 1.423 . S
C242 C243 1.362 . S
C242 C247 1.388 1_554 S
C243 H207 0.929 . S
C243 C242 1.362 . S
C243 C244 1.376 . S
C244 H208 0.931 . S
C244 C243 1.376 . S
C244 C245 1.396 . S
C245 C227 1.472 . S
C245 C244 1.396 . S
C245 C246 1.348 1_554 S
C246 H209 0.929 . S
C246 C245 1.348 1_556 S
C246 C247 1.443 . S
C247 H211 0.932 . S
C247 C242 1.388 1_556 S
C247 C246 1.443 . S
H248 C275 0.929 . S
N249 C274 1.433 . S
N249 C280 1.435 . S
N249 C286 1.423 . S
H250 C276 0.930 . S
H251 C279 0.931 . S
H252 C278 0.929 . S
H253 C281 0.930 . S
H254 C282 0.932 . S
H255 C285 0.929 . S
H256 C284 0.931 . S
H257 C287 0.929 . S
H258 C291 0.932 . S
H259 C288 0.931 . S
H260 C290 0.929 . S
H261 C293 0.929 . S
H262 C294 0.930 . S
H263 C296 0.929 . S
H264 C297 0.931 . S
H265 C299 0.930 . S
H266 C300 0.932 . S
H267 C302 0.931 . S
H268 C303 0.929 . S
H269 C305 0.929 . S
H270 C306 0.931 . S
H271 C308 0.929 . S
N272 C292 1.433 . S
N272 C298 1.435 . S
N272 C304 1.423 . S
H273 C309 0.932 . S
C274 N249 1.433 . S
C274 C275 1.363 . S
C274 C279 1.370 . S
C275 H248 0.929 . S
C275 C274 1.363 . S
C275 C276 1.385 . S
C276 H250 0.930 . S
C276 C275 1.385 . S
C276 C277 1.357 . S
C277 C276 1.357 . S
C277 C278 1.406 . S
C278 H252 0.929 . S
C278 C277 1.406 . S
C278 C279 1.391 . S
C279 H251 0.931 . S
C279 C274 1.370 . S
C279 C278 1.391 . S
C280 N249 1.435 . S
C280 C281 1.358 . S
C280 C285 1.371 1_554 S
C281 H253 0.930 . S
C281 C280 1.358 . S
C281 C282 1.405 . S
C282 H254 0.932 . S
C282 C281 1.405 . S
C282 C283 1.383 1_554 S
C283 C282 1.383 1_556 S
C283 C284 1.393 . S
C284 H256 0.931 . S
C284 C283 1.393 . S
C284 C285 1.382 . S
C285 H255 0.929 . S
C285 C280 1.371 1_556 S
C285 C284 1.382 . S
C286 N249 1.423 . S
C286 C287 1.362 . S
C286 C291 1.388 . S
C287 H257 0.929 . S
C287 C286 1.362 . S
C287 C288 1.376 . S
C288 H259 0.931 . S
C288 C287 1.376 . S
C288 C289 1.396 . S
C289 C288 1.396 . S
C289 C290 1.348 . S
C289 C307 1.472 . S
C290 H260 0.929 . S
C290 C289 1.348 . S
C290 C291 1.443 . S
C291 H258 0.932 . S
C291 C286 1.388 . S
C291 C290 1.443 . S
C292 N272 1.433 . S
C292 C293 1.363 . S
C292 C297 1.370 . S
C293 H261 0.929 . S
C293 C292 1.363 . S
C293 C294 1.385 . S
C294 H262 0.930 . S
C294 C293 1.385 . S
C294 C295 1.357 . S
C295 C294 1.357 . S
C295 C296 1.406 . S
C296 H263 0.929 . S
C296 C295 1.406 . S
C296 C297 1.391 . S
C297 H264 0.931 . S
C297 C292 1.370 . S
C297 C296 1.391 . S
C298 N272 1.435 . S
C298 C299 1.358 . S
C298 C303 1.371 . S
C299 H265 0.930 . S
C299 C298 1.358 . S
C299 C300 1.405 . S
C300 H266 0.932 . S
C300 C299 1.405 . S
C300 C301 1.383 1_554 S
C301 C300 1.383 1_556 S
C301 C302 1.393 . S
C302 H267 0.931 . S
C302 C301 1.393 . S
C302 C303 1.382 1_556 S
C303 H268 0.929 . S
C303 C298 1.371 . S
C303 C302 1.382 1_554 S
C304 N272 1.423 . S
C304 C305 1.362 . S
C304 C309 1.388 . S
C305 H269 0.929 . S
C305 C304 1.362 . S
C305 C306 1.376 . S
C306 H270 0.931 . S
C306 C305 1.376 . S
C306 C307 1.396 . S
C307 C289 1.472 . S
C307 C306 1.396 . S
C307 C308 1.348 . S
C308 H271 0.929 . S
C308 C307 1.348 . S
C308 C309 1.443 . S
C309 H273 0.932 . S
C309 C304 1.388 . S
C309 C308 1.443 . S
H310 C337 0.929 . S
N311 C336 1.433 . S
N311 C342 1.435 . S
N311 C348 1.423 . S
H312 C338 0.930 . S
H313 C341 0.931 . S
H314 C340 0.929 1_556 S
H315 C343 0.930 . S
H316 C344 0.932 . S
H317 C347 0.929 . S
H318 C346 0.931 . S
H319 C349 0.929 . S
H320 C353 0.932 . S
H321 C350 0.931 . S
H322 C352 0.929 . S
H323 C355 0.929 . S
H324 C356 0.930 . S
H325 C358 0.929 1_556 S
H326 C359 0.931 . S
H327 C361 0.930 . S
H328 C362 0.932 . S
H329 C364 0.931 . S
H330 C365 0.929 . S
H331 C367 0.929 . S
H332 C368 0.931 . S
H333 C370 0.929 . S
N334 C354 1.433 . S
N334 C360 1.435 . S
N334 C366 1.423 . S
H335 C371 0.932 . S
C336 N311 1.433 . S
C336 C337 1.363 . S
C336 C341 1.370 . S
C337 H310 0.929 . S
C337 C336 1.363 . S
C337 C338 1.385 . S
C338 H312 0.930 . S
C338 C337 1.385 . S
C338 C339 1.357 . S
C339 C338 1.357 . S
C339 C340 1.406 . S
C340 H314 0.929 1_554 S
C340 C339 1.406 . S
C340 C341 1.391 . S
C341 H313 0.931 . S
C341 C336 1.370 . S
C341 C340 1.391 . S
C342 N311 1.435 . S
C342 C343 1.358 . S
C342 C347 1.371 . S
C343 H315 0.930 . S
C343 C342 1.358 . S
C343 C344 1.405 . S
C344 H316 0.932 . S
C344 C343 1.405 . S
C344 C345 1.383 . S
C345 C344 1.383 . S
C345 C346 1.393 . S
C346 H318 0.931 . S
C346 C345 1.393 . S
C346 C347 1.382 . S
C347 H317 0.929 . S
C347 C342 1.371 . S
C347 C346 1.382 . S
C348 N311 1.423 . S
C348 C349 1.362 . S
C348 C353 1.388 . S
C349 H319 0.929 . S
C349 C348 1.362 . S
C349 C350 1.376 . S
C350 H321 0.931 . S
C350 C349 1.376 . S
C350 C351 1.396 . S
C351 C350 1.396 . S
C351 C352 1.348 . S
C351 C369 1.472 . S
C352 H322 0.929 . S
C352 C351 1.348 . S
C352 C353 1.443 . S
C353 H320 0.932 . S
C353 C348 1.388 . S
C353 C352 1.443 . S
C354 N334 1.433 . S
C354 C355 1.363 . S
C354 C359 1.370 . S
C355 H323 0.929 . S
C355 C354 1.363 . S
C355 C356 1.385 . S
C356 H324 0.930 . S
C356 C355 1.385 . S
C356 C357 1.351 1_554 S
C357 C356 1.351 1_556 S
C357 C358 1.405 1_556 S
C358 H325 0.929 1_554 S
C358 C357 1.405 1_554 S
C358 C359 1.391 . S
C359 H326 0.931 . S
C359 C354 1.370 . S
C359 C358 1.391 . S
C360 N334 1.435 . S
C360 C361 1.358 . S
C360 C365 1.371 . S
C361 H327 0.930 . S
C361 C360 1.358 . S
C361 C362 1.405 . S
C362 H328 0.932 . S
C362 C361 1.405 . S
C362 C363 1.383 . S
C363 C362 1.383 . S
C363 C364 1.393 . S
C364 H329 0.931 . S
C364 C363 1.393 . S
C364 C365 1.382 . S
C365 H330 0.929 . S
C365 C360 1.371 . S
C365 C364 1.382 . S
C366 N334 1.423 . S
C366 C367 1.362 . S
C366 C371 1.388 . S
C367 H331 0.929 . S
C367 C366 1.362 . S
C367 C368 1.376 . S
C368 H332 0.931 . S
C368 C367 1.376 . S
C368 C369 1.396 . S
C369 C351 1.472 . S
C369 C368 1.396 . S
C369 C370 1.348 . S
C370 H333 0.929 . S
C370 C369 1.348 . S
C370 C371 1.443 . S
C371 H335 0.932 . S
C371 C366 1.388 . S
C371 C370 1.443 . S
C372 O399 1.312 . S
C372 O400 1.208 . S
C373 O394 1.331 . S
C373 O397 1.244 . S
C374 O396 1.264 . S
C374 O398 1.273 . S
Mg375 O377 1.938 . S
Mg375 O384 2.081 1_455 S
Mg375 O386 2.023 . S
Mg375 O390 2.031 1_455 S
Mg375 O399 2.291 . S
Mg376 O377 1.983 . S
Mg376 O387 1.917 1_455 S
Mg376 O388 1.989 . S
Mg376 O395 1.964 1_455 S
O377 Mg375 1.938 . S
O377 Mg376 1.983 . S
O377 Mg378 1.918 . S
Mg378 O377 1.918 . S
Mg378 O379 1.915 . S
Mg378 O383 2.013 . S
Mg378 O389 2.114 1_455 S
Mg378 O393 2.013 1_455 S
Mg378 O399 2.114 . S
O379 Mg378 1.915 . S
O379 Mg380 1.936 . S
O379 Mg381 1.963 . S
Mg380 O379 1.936 . S
Mg380 O389 2.291 1_455 S
Mg380 O394 2.081 . S
Mg380 O396 2.023 1_455 S
Mg380 O400 2.031 . S
Mg381 O379 1.963 . S
Mg381 O385 1.986 . S
Mg381 O397 1.942 . S
Mg381 O398 1.955 1_455 S
C382 O393 1.191 . S
C382 O395 1.307 . S
O383 Mg378 2.013 . S
O383 C402 1.191 . S
O384 Mg375 2.081 1_655 S
O384 C392 1.331 . S
O385 Mg381 1.986 . S
O385 C402 1.307 . S
O386 Mg375 2.023 . S
O386 C401 1.264 . S
O387 Mg376 1.917 1_655 S
O387 C392 1.244 . S
O388 Mg376 1.989 . S
O388 C401 1.273 . S
O389 Mg378 2.114 1_655 S
O389 Mg380 2.291 1_655 S
O389 C391 1.312 . S
O390 Mg375 2.031 1_655 S
O390 C391 1.208 . S
C391 O389 1.312 . S
C391 O390 1.208 . S
C392 O384 1.331 . S
C392 O387 1.244 . S
O393 Mg378 2.013 1_655 S
O393 C382 1.191 . S
O394 C373 1.331 . S
O394 Mg380 2.081 . S
O395 Mg376 1.964 1_655 S
O395 C382 1.307 . S
O396 C374 1.264 . S
O396 Mg380 2.023 1_655 S
O397 C373 1.244 . S
O397 Mg381 1.942 . S
O398 C374 1.273 . S
O398 Mg381 1.955 1_655 S
O399 C372 1.312 . S
O399 Mg375 2.291 . S
O399 Mg378 2.114 . S
O400 C372 1.208 . S
O400 Mg380 2.031 . S
C401 O386 1.264 . S
C401 O388 1.273 . S
C402 O383 1.191 . S
C402 O385 1.307 . S
C403 O430 1.312 . S
C403 O431 1.208 . S
C404 O425 1.331 . S
C404 O428 1.244 . S
C405 O427 1.264 . S
C405 O429 1.273 . S
Mg406 O408 1.936 1_545 S
Mg406 O415 2.081 1_545 S
Mg406 O417 2.023 . S
Mg406 O421 2.031 1_545 S
Mg406 O430 2.291 . S
Mg407 O408 1.955 . S
Mg407 O418 1.952 . S
Mg407 O419 1.897 1_565 S
Mg407 O426 2.040 . S
O408 Mg406 1.936 1_565 S
O408 Mg407 1.955 . S
O408 Mg409 1.915 1_565 S
Mg409 O408 1.915 1_545 S
Mg409 O410 1.915 . S
Mg409 O414 2.013 . S
Mg409 O420 2.114 1_545 S
Mg409 O424 2.013 1_545 S
Mg409 O430 2.114 . S
O410 Mg409 1.915 . S
O410 Mg411 1.936 . S
O410 Mg412 1.963 . S
Mg411 O410 1.936 . S
Mg411 O420 2.291 1_545 S
Mg411 O425 2.081 . S
Mg411 O427 2.023 1_545 S
Mg411 O431 2.031 . S
Mg412 O410 1.963 . S
Mg412 O416 1.986 . S
Mg412 O428 1.942 . S
Mg412 O429 1.955 1_545 S
C413 O424 1.191 . S
C413 O426 1.307 . S
O414 Mg409 2.013 . S
O414 C433 1.191 . S
O415 Mg406 2.081 1_565 S
O415 C423 1.331 . S
O416 Mg412 1.986 . S
O416 C433 1.307 . S
O417 Mg406 2.023 . S
O417 C432 1.264 . S
O418 Mg407 1.952 . S
O418 C423 1.244 . S
O419 Mg407 1.897 1_545 S
O419 C432 1.273 . S
O420 Mg409 2.114 1_565 S
O420 Mg411 2.291 1_565 S
O420 C422 1.312 . S
O421 Mg406 2.031 1_565 S
O421 C422 1.208 . S
C422 O420 1.312 . S
C422 O421 1.208 . S
C423 O415 1.331 . S
C423 O418 1.244 . S
O424 Mg409 2.013 1_565 S
O424 C413 1.191 . S
O425 C404 1.331 . S
O425 Mg411 2.081 . S
O426 Mg407 2.040 . S
O426 C413 1.307 . S
O427 C405 1.264 . S
O427 Mg411 2.023 1_565 S
O428 C404 1.244 . S
O428 Mg412 1.942 . S
O429 C405 1.273 . S
O429 Mg412 1.955 1_565 S
O430 C403 1.312 . S
O430 Mg406 2.291 . S
O430 Mg409 2.114 . S
O431 C403 1.208 . S
O431 Mg411 2.031 . S
C432 O417 1.264 . S
C432 O419 1.273 . S
C433 O414 1.191 . S
C433 O416 1.307 . S
C434 O461 1.312 . S
C434 O462 1.208 . S
C435 O456 1.331 . S
C435 O459 1.244 . S
C436 O458 1.264 . S
C436 O460 1.273 . S
Mg437 O439 1.936 . S
Mg437 O446 2.081 . S
Mg437 O448 2.023 . S
Mg437 O452 2.031 . S
Mg437 O461 2.291 . S
Mg438 O439 1.963 . S
Mg438 O449 1.942 . S
Mg438 O450 1.955 . S
Mg438 O457 1.986 . S
O439 Mg437 1.936 . S
O439 Mg438 1.963 . S
O439 Mg440 1.915 . S
Mg440 O439 1.915 . S
Mg440 O441 1.915 . S
Mg440 O445 2.013 . S
Mg440 O451 2.114 . S
Mg440 O455 2.013 . S
Mg440 O461 2.114 . S
O441 Mg440 1.915 . S
O441 Mg442 1.936 . S
O441 Mg443 1.963 . S
Mg442 O441 1.936 . S
Mg442 O451 2.291 . S
Mg442 O456 2.081 . S
Mg442 O458 2.023 . S
Mg442 O462 2.031 . S
Mg443 O441 1.963 . S
Mg443 O447 1.986 . S
Mg443 O459 1.942 . S
Mg443 O460 1.955 . S
C444 O455 1.191 . S
C444 O457 1.307 . S
O445 Mg440 2.013 . S
O445 C464 1.191 . S
O446 Mg437 2.081 . S
O446 C454 1.331 . S
O447 Mg443 1.986 . S
O447 C464 1.307 . S
O448 Mg437 2.023 . S
O448 C463 1.264 . S
O449 Mg438 1.942 . S
O449 C454 1.244 . S
O450 Mg438 1.955 . S
O450 C463 1.273 . S
O451 Mg440 2.114 . S
O451 Mg442 2.291 . S
O451 C453 1.312 . S
O452 Mg437 2.031 . S
O452 C453 1.208 . S
C453 O451 1.312 . S
C453 O452 1.208 . S
C454 O446 1.331 . S
C454 O449 1.244 . S
O455 Mg440 2.013 . S
O455 C444 1.191 . S
O456 C435 1.331 . S
O456 Mg442 2.081 . S
O457 Mg438 1.986 . S
O457 C444 1.307 . S
O458 C436 1.264 . S
O458 Mg442 2.023 . S
O459 C435 1.244 . S
O459 Mg443 1.942 . S
O460 C436 1.273 . S
O460 Mg443 1.955 . S
O461 C434 1.312 . S
O461 Mg437 2.291 . S
O461 Mg440 2.114 . S
O462 C434 1.208 . S
O462 Mg442 2.031 . S
C463 O448 1.264 . S
C463 O450 1.273 . S
C464 O445 1.191 . S
C464 O447 1.307 . S
H465 C473 0.950 . S
H466 C478 0.950 . S
H467 C475 0.950 . S
H468 C477 0.950 . S
H469 C479 0.950 . S
H470 C481 0.950 . S
H471 C483 0.950 . S
H472 C484 0.950 . S
C473 H465 0.950 . S
C473 C474 1.386 . S
C473 C475 1.391 . S
C474 C473 1.386 . S
C474 C478 1.393 . S
C475 H467 0.950 . S
C475 C473 1.391 . S
C475 C476 1.400 . S
C476 C475 1.400 . S
C476 C477 1.398 . S
C476 C482 1.491 . S
C477 H468 0.950 . S
C477 C476 1.398 . S
C477 C478 1.391 . S
C478 H466 0.950 . S
C478 C474 1.393 . S
C478 C477 1.391 . S
C479 H469 0.950 . S
C479 C480 1.386 . S
C479 C481 1.391 . S
C480 C479 1.386 . S
C480 C484 1.393 . S
C481 H470 0.950 . S
C481 C479 1.391 . S
C481 C482 1.400 . S
C482 C476 1.491 . S
C482 C481 1.400 . S
C482 C483 1.398 . S
C483 H471 0.950 . S
C483 C482 1.398 . S
C483 C484 1.391 . S
C484 H472 0.950 . S
C484 C480 1.393 . S
C484 C483 1.391 . S
H485 C493 0.950 . S
H486 C498 0.950 . S
H487 C495 0.950 . S
H488 C497 0.950 . S
H489 C499 0.950 . S
H490 C501 0.950 . S
H491 C503 0.950 . S
H492 C504 0.950 . S
C493 H485 0.950 . S
C493 C494 1.386 . S
C493 C495 1.391 . S
C494 C493 1.386 . S
C494 C498 1.393 . S
C495 H487 0.950 . S
C495 C493 1.391 . S
C495 C496 1.400 . S
C496 C495 1.400 . S
C496 C497 1.398 . S
C496 C502 1.491 . S
C497 H488 0.950 . S
C497 C496 1.398 . S
C497 C498 1.391 . S
C498 H486 0.950 . S
C498 C494 1.393 . S
C498 C497 1.391 . S
C499 H489 0.950 . S
C499 C500 1.386 . S
C499 C501 1.391 . S
C500 C499 1.386 . S
C500 C504 1.393 . S
C501 H490 0.950 . S
C501 C499 1.391 . S
C501 C502 1.400 . S
C502 C496 1.491 . S
C502 C501 1.400 . S
C502 C503 1.398 . S
C503 H491 0.950 . S
C503 C502 1.398 . S
C503 C504 1.391 . S
C504 H492 0.950 . S
C504 C500 1.393 . S
C504 C503 1.391 . S
H505 C513 0.950 . S
H506 C518 0.950 . S
H507 C515 0.950 . S
H508 C517 0.950 . S
H509 C519 0.950 . S
H510 C521 0.950 . S
H511 C523 0.950 . S
H512 C524 0.950 . S
C513 H505 0.950 . S
C513 C514 1.386 . S
C513 C515 1.391 . S
C514 C513 1.386 . S
C514 C518 1.393 . S
C515 H507 0.950 . S
C515 C513 1.391 . S
C515 C516 1.400 . S
C516 C515 1.400 . S
C516 C517 1.398 . S
C516 C522 1.491 . S
C517 H508 0.950 . S
C517 C516 1.398 . S
C517 C518 1.391 . S
C518 H506 0.950 . S
C518 C514 1.393 . S
C518 C517 1.391 . S
C519 H509 0.950 . S
C519 C520 1.386 . S
C519 C521 1.391 . S
C520 C519 1.386 . S
C520 C524 1.393 . S
C521 H510 0.950 . S
C521 C519 1.391 . S
C521 C522 1.400 . S
C522 C516 1.491 . S
C522 C521 1.400 . S
C522 C523 1.398 . S
C523 H511 0.950 . S
C523 C522 1.398 . S
C523 C524 1.391 . S
C524 H512 0.950 . S
C524 C520 1.393 . S
C524 C523 1.391 . S
H525 C533 0.950 . S
H526 C538 0.950 . S
H527 C535 0.950 . S
H528 C537 0.950 . S
H529 C539 0.950 . S
H530 C541 0.950 . S
H531 C543 0.950 . S
H532 C544 0.950 . S
C533 H525 0.950 . S
C533 C534 1.386 . S
C533 C535 1.391 . S
C534 C533 1.386 . S
C534 C538 1.393 . S
C535 H527 0.950 . S
C535 C533 1.391 . S
C535 C536 1.400 . S
C536 C535 1.400 . S
C536 C537 1.398 . S
C536 C542 1.491 . S
C537 H528 0.950 . S
C537 C536 1.398 . S
C537 C538 1.391 . S
C538 H526 0.950 . S
C538 C534 1.393 . S
C538 C537 1.391 . S
C539 H529 0.950 . S
C539 C540 1.386 . S
C539 C541 1.391 . S
C540 C539 1.386 . S
C540 C544 1.393 . S
C541 H530 0.950 . S
C541 C539 1.391 . S
C541 C542 1.400 . S
C542 C536 1.491 . S
C542 C541 1.400 . S
C542 C543 1.398 . S
C543 H531 0.950 . S
C543 C542 1.398 . S
C543 C544 1.391 . S
C544 H532 0.950 . S
C544 C540 1.393 . S
C544 C543 1.391 . S
H545 C553 0.950 . S
H546 C558 0.950 . S
H547 C555 0.950 . S
H548 C557 0.950 . S
H549 C559 0.950 . S
H550 C561 0.950 . S
H551 C563 0.950 . S
H552 C564 0.950 . S
C553 H545 0.950 . S
C553 C554 1.386 . S
C553 C555 1.391 . S
C554 C553 1.386 . S
C554 C558 1.393 . S
C555 H547 0.950 . S
C555 C553 1.391 . S
C555 C556 1.400 . S
C556 C555 1.400 . S
C556 C557 1.398 . S
C556 C562 1.491 . S
C557 H548 0.950 . S
C557 C556 1.398 . S
C557 C558 1.391 . S
C558 H546 0.950 . S
C558 C554 1.393 . S
C558 C557 1.391 . S
C559 H549 0.950 . S
C559 C560 1.386 . S
C559 C561 1.391 . S
C560 C559 1.386 . S
C560 C564 1.393 . S
C561 H550 0.950 . S
C561 C559 1.391 . S
C561 C562 1.400 . S
C562 C556 1.491 . S
C562 C561 1.400 . S
C562 C563 1.398 . S
C563 H551 0.950 . S
C563 C562 1.398 . S
C563 C564 1.391 . S
C564 H552 0.950 . S
C564 C560 1.393 . S
C564 C563 1.391 . S
H565 C573 0.950 . S
H566 C578 0.950 . S
H567 C575 0.950 . S
H568 C577 0.950 . S
H569 C579 0.950 . S
H570 C581 0.950 . S
H571 C583 0.950 . S
H572 C584 0.950 . S
C573 H565 0.950 . S
C573 C574 1.386 . S
C573 C575 1.391 . S
C574 C573 1.386 . S
C574 C578 1.393 . S
C575 H567 0.950 . S
C575 C573 1.391 . S
C575 C576 1.400 . S
C576 C575 1.400 . S
C576 C577 1.398 . S
C576 C582 1.491 . S
C577 H568 0.950 . S
C577 C576 1.398 . S
C577 C578 1.391 . S
C578 H566 0.950 . S
C578 C574 1.393 . S
C578 C577 1.391 . S
C579 H569 0.950 . S
C579 C580 1.386 . S
C579 C581 1.391 . S
C580 C579 1.386 . S
C580 C584 1.393 . S
C581 H570 0.950 . S
C581 C579 1.391 . S
C581 C582 1.400 . S
C582 C576 1.491 . S
C582 C581 1.400 . S
C582 C583 1.398 . S
C583 H571 0.950 . S
C583 C582 1.398 . S
C583 C584 1.391 . S
C584 H572 0.950 . S
C584 C580 1.393 . S
C584 C583 1.391 . S
H585 C593 0.950 . S
H586 C598 0.950 . S
H587 C595 0.950 . S
H588 C597 0.950 . S
H589 C599 0.950 . S
H590 C601 0.950 . S
H591 C603 0.950 . S
H592 C604 0.950 . S
C593 H585 0.950 . S
C593 C594 1.386 . S
C593 C595 1.391 . S
C594 C593 1.386 . S
C594 C598 1.393 . S
C595 H587 0.950 . S
C595 C593 1.391 . S
C595 C596 1.400 . S
C596 C595 1.400 . S
C596 C597 1.398 . S
C596 C602 1.491 . S
C597 H588 0.950 . S
C597 C596 1.398 . S
C597 C598 1.391 . S
C598 H586 0.950 . S
C598 C594 1.393 . S
C598 C597 1.391 . S
C599 H589 0.950 . S
C599 C600 1.386 . S
C599 C601 1.391 . S
C600 C599 1.386 . S
C600 C604 1.393 . S
C601 H590 0.950 . S
C601 C599 1.391 . S
C601 C602 1.400 . S
C602 C596 1.491 . S
C602 C601 1.400 . S
C602 C603 1.398 . S
C603 H591 0.950 . S
C603 C602 1.398 . S
C603 C604 1.391 . S
C604 H592 0.950 . S
C604 C600 1.393 . S
C604 C603 1.391 . S
H605 C613 0.950 . S
H606 C618 0.950 . S
H607 C615 0.950 . S
H608 C617 0.950 . S
H609 C619 0.950 . S
H610 C621 0.950 . S
H611 C623 0.950 . S
H612 C624 0.950 . S
C613 H605 0.950 . S
C613 C614 1.386 . S
C613 C615 1.391 . S
C614 C613 1.386 . S
C614 C618 1.393 . S
C615 H607 0.950 . S
C615 C613 1.391 . S
C615 C616 1.400 . S
C616 C615 1.400 . S
C616 C617 1.398 . S
C616 C622 1.491 . S
C617 H608 0.950 . S
C617 C616 1.398 . S
C617 C618 1.391 . S
C618 H606 0.950 . S
C618 C614 1.393 . S
C618 C617 1.391 . S
C619 H609 0.950 . S
C619 C620 1.386 . S
C619 C621 1.391 . S
C620 C619 1.386 . S
C620 C624 1.393 . S
C621 H610 0.950 . S
C621 C619 1.391 . S
C621 C622 1.400 . S
C622 C616 1.491 . S
C622 C621 1.400 . S
C622 C623 1.398 . S
C623 H611 0.950 . S
C623 C622 1.398 . S
C623 C624 1.391 . S
C624 H612 0.950 . S
C624 C620 1.393 . S
C624 C623 1.391 . S
H625 C633 0.950 . S
H626 C638 0.950 . S
H627 C635 0.950 . S
H628 C637 0.950 . S
H629 C639 0.950 . S
H630 C641 0.950 . S
H631 C643 0.950 . S
H632 C644 0.950 . S
C633 H625 0.950 . S
C633 C634 1.386 . S
C633 C635 1.391 . S
C634 C633 1.386 . S
C634 C638 1.393 . S
C635 H627 0.950 . S
C635 C633 1.391 . S
C635 C636 1.400 . S
C636 C635 1.400 . S
C636 C637 1.398 . S
C636 C642 1.491 . S
C637 H628 0.950 . S
C637 C636 1.398 . S
C637 C638 1.391 . S
C638 H626 0.950 . S
C638 C634 1.393 . S
C638 C637 1.391 . S
C639 H629 0.950 . S
C639 C640 1.386 . S
C639 C641 1.391 . S
C640 C639 1.386 . S
C640 C644 1.393 . S
C641 H630 0.950 . S
C641 C639 1.391 . S
C641 C642 1.400 . S
C642 C636 1.491 . S
C642 C641 1.400 . S
C642 C643 1.398 . S
C643 H631 0.950 . S
C643 C642 1.398 . S
C643 C644 1.391 . S
C644 H632 0.950 . S
C644 C640 1.393 . S
C644 C643 1.391 . S
H645 C653 0.950 . S
H646 C658 0.950 . S
H647 C655 0.950 . S
H648 C657 0.950 . S
H649 C659 0.950 . S
H650 C661 0.950 . S
H651 C663 0.950 . S
H652 C664 0.950 . S
C653 H645 0.950 . S
C653 C654 1.386 . S
C653 C655 1.391 . S
C654 C653 1.386 . S
C654 C658 1.393 . S
C655 H647 0.950 . S
C655 C653 1.391 . S
C655 C656 1.400 . S
C656 C655 1.400 . S
C656 C657 1.398 . S
C656 C662 1.491 . S
C657 H648 0.950 . S
C657 C656 1.398 . S
C657 C658 1.391 . S
C658 H646 0.950 . S
C658 C654 1.393 . S
C658 C657 1.391 . S
C659 H649 0.950 . S
C659 C660 1.386 . S
C659 C661 1.391 . S
C660 C659 1.386 . S
C660 C664 1.393 . S
C661 H650 0.950 . S
C661 C659 1.391 . S
C661 C662 1.400 . S
C662 C656 1.491 . S
C662 C661 1.400 . S
C662 C663 1.398 . S
C663 H651 0.950 . S
C663 C662 1.398 . S
C663 C664 1.391 . S
C664 H652 0.950 . S
C664 C660 1.393 . S
C664 C663 1.391 . S
H665 C673 0.950 . S
H666 C678 0.952 . S
H667 C675 0.950 . S
H668 C677 0.950 . S
H669 C679 0.950 . S
H670 C681 0.950 . S
H671 C683 0.950 . S
H672 C684 0.950 . S
C673 H665 0.950 . S
C673 C674 1.386 . S
C673 C675 1.391 . S
C674 C673 1.386 . S
C674 C678 1.393 . S
C675 H667 0.950 . S
C675 C673 1.391 . S
C675 C676 1.400 . S
C676 C675 1.400 . S
C676 C677 1.398 . S
C676 C682 1.491 . S
C677 H668 0.950 . S
C677 C676 1.398 . S
C677 C678 1.391 . S
C678 H666 0.952 . S
C678 C674 1.393 . S
C678 C677 1.391 . S
C679 H669 0.950 . S
C679 C680 1.386 . S
C679 C681 1.391 . S
C680 C679 1.386 . S
C680 C684 1.393 . S
C681 H670 0.950 . S
C681 C679 1.391 . S
C681 C682 1.400 . S
C682 C676 1.491 . S
C682 C681 1.400 . S
C682 C683 1.398 . S
C683 H671 0.950 . S
C683 C682 1.398 . S
C683 C684 1.391 . S
C684 H672 0.950 . S
C684 C680 1.393 . S
C684 C683 1.391 . S
H685 C693 0.950 . S
H686 C698 0.950 . S
H687 C695 0.950 . S
H688 C697 0.950 . S
H689 C699 0.950 . S
H690 C701 0.950 . S
H691 C703 0.950 . S
H692 C704 0.950 . S
C693 H685 0.950 . S
C693 C694 1.386 . S
C693 C695 1.391 . S
C694 C693 1.386 . S
C694 C698 1.393 . S
C695 H687 0.950 . S
C695 C693 1.391 . S
C695 C696 1.400 . S
C696 C695 1.400 . S
C696 C697 1.398 . S
C696 C702 1.491 . S
C697 H688 0.950 . S
C697 C696 1.398 . S
C697 C698 1.391 . S
C698 H686 0.950 . S
C698 C694 1.393 . S
C698 C697 1.391 . S
C699 H689 0.950 . S
C699 C700 1.386 . S
C699 C701 1.391 . S
C700 C699 1.386 . S
C700 C704 1.393 . S
C701 H690 0.950 . S
C701 C699 1.391 . S
C701 C702 1.400 . S
C702 C696 1.491 . S
C702 C701 1.400 . S
C702 C703 1.398 . S
C703 H691 0.950 . S
C703 C702 1.398 . S
C703 C704 1.391 . S
C704 H692 0.950 . S
C704 C700 1.393 . S
C704 C703 1.391 . S
H705 C713 0.950 . S
H706 C718 0.950 . S
H707 C715 0.950 . S
H708 C717 0.950 . S
H709 C719 0.950 . S
H710 C721 0.950 . S
H711 C723 0.950 . S
H712 C724 0.950 . S
C713 H705 0.950 . S
C713 C714 1.386 . S
C713 C715 1.391 . S
C714 C713 1.386 . S
C714 C718 1.393 . S
C715 H707 0.950 . S
C715 C713 1.391 . S
C715 C716 1.400 . S
C716 C715 1.400 . S
C716 C717 1.398 . S
C716 C722 1.491 . S
C717 H708 0.950 . S
C717 C716 1.398 . S
C717 C718 1.391 . S
C718 H706 0.950 . S
C718 C714 1.393 . S
C718 C717 1.391 . S
C719 H709 0.950 . S
C719 C720 1.386 . S
C719 C721 1.391 . S
C720 C719 1.386 . S
C720 C724 1.393 . S
C721 H710 0.950 . S
C721 C719 1.391 . S
C721 C722 1.400 . S
C722 C716 1.491 . S
C722 C721 1.400 . S
C722 C723 1.398 . S
C723 H711 0.950 . S
C723 C722 1.398 . S
C723 C724 1.391 . S
C724 H712 0.950 . S
C724 C720 1.393 . S
C724 C723 1.391 . S
H725 C733 0.950 . S
H726 C738 0.950 . S
H727 C735 0.950 . S
H728 C737 0.950 . S
H729 C739 0.950 . S
H730 C741 0.950 . S
H731 C743 0.950 . S
H732 C744 0.950 . S
C733 H725 0.950 . S
C733 C734 1.386 . S
C733 C735 1.391 . S
C734 C733 1.386 . S
C734 C738 1.393 . S
C735 H727 0.950 . S
C735 C733 1.391 . S
C735 C736 1.400 . S
C736 C735 1.400 . S
C736 C737 1.398 . S
C736 C742 1.491 . S
C737 H728 0.950 . S
C737 C736 1.398 . S
C737 C738 1.391 . S
C738 H726 0.950 . S
C738 C734 1.393 . S
C738 C737 1.391 . S
C739 H729 0.950 . S
C739 C740 1.386 . S
C739 C741 1.391 . S
C740 C739 1.386 . S
C740 C744 1.393 . S
C741 H730 0.950 . S
C741 C739 1.391 . S
C741 C742 1.400 . S
C742 C736 1.491 . S
C742 C741 1.400 . S
C742 C743 1.398 . S
C743 H731 0.950 . S
C743 C742 1.398 . S
C743 C744 1.391 . S
C744 H732 0.950 . S
C744 C740 1.393 . S
C744 C743 1.391 . S
H745 C753 0.950 . S
H746 C758 0.950 . S
H747 C755 0.950 . S
H748 C757 0.950 . S
H749 C759 0.950 . S
H750 C761 0.950 . S
H751 C763 0.950 . S
H752 C764 0.950 . S
C753 H745 0.950 . S
C753 C754 1.386 . S
C753 C755 1.391 . S
C754 C753 1.386 . S
C754 C758 1.393 . S
C755 H747 0.950 . S
C755 C753 1.391 . S
C755 C756 1.400 . S
C756 C755 1.400 . S
C756 C757 1.398 . S
C756 C762 1.491 . S
C757 H748 0.950 . S
C757 C756 1.398 . S
C757 C758 1.391 . S
C758 H746 0.950 . S
C758 C754 1.393 . S
C758 C757 1.391 . S
C759 H749 0.950 . S
C759 C760 1.386 . S
C759 C761 1.391 . S
C760 C759 1.386 . S
C760 C764 1.393 . S
C761 H750 0.950 . S
C761 C759 1.391 . S
C761 C762 1.400 . S
C762 C756 1.491 . S
C762 C761 1.400 . S
C762 C763 1.398 . S
C763 H751 0.950 . S
C763 C762 1.398 . S
C763 C764 1.391 . S
C764 H752 0.950 . S
C764 C760 1.393 . S
C764 C763 1.391 . S
H765 C773 0.950 . S
H766 C778 0.950 1_554 S
H767 C775 0.950 . S
H768 C777 0.950 . S
H769 C779 0.950 . S
H770 C781 0.950 . S
H771 C783 0.950 . S
H772 C784 0.950 . S
C773 H765 0.950 . S
C773 C774 1.386 . S
C773 C775 1.391 . S
C774 C773 1.386 . S
C774 C778 1.393 . S
C775 H767 0.950 . S
C775 C773 1.391 . S
C775 C776 1.400 . S
C776 C775 1.400 . S
C776 C777 1.398 . S
C776 C782 1.491 . S
C777 H768 0.950 . S
C777 C776 1.398 . S
C777 C778 1.391 . S
C778 H766 0.950 1_556 S
C778 C774 1.393 . S
C778 C777 1.391 . S
C779 H769 0.950 . S
C779 C780 1.386 . S
C779 C781 1.391 . S
C780 C779 1.386 . S
C780 C784 1.393 . S
C781 H770 0.950 . S
C781 C779 1.391 . S
C781 C782 1.400 . S
C782 C776 1.491 . S
C782 C781 1.400 . S
C782 C783 1.398 . S
C783 H771 0.950 . S
C783 C782 1.398 . S
C783 C784 1.391 . S
C784 H772 0.950 . S
C784 C780 1.393 . S
C784 C783 1.391 . S
H785 C793 0.950 . S
H786 C798 0.950 . S
H787 C795 0.950 . S
H788 C797 0.950 . S
H789 C799 0.950 . S
H790 C801 0.950 . S
H791 C803 0.950 . S
H792 C804 0.950 . S
C793 H785 0.950 . S
C793 C794 1.386 . S
C793 C795 1.391 . S
C794 C793 1.386 . S
C794 C798 1.393 . S
C795 H787 0.950 . S
C795 C793 1.391 . S
C795 C796 1.400 . S
C796 C795 1.400 . S
C796 C797 1.398 . S
C796 C802 1.491 . S
C797 H788 0.950 . S
C797 C796 1.398 . S
C797 C798 1.391 . S
C798 H786 0.950 . S
C798 C794 1.393 . S
C798 C797 1.391 . S
C799 H789 0.950 . S
C799 C800 1.386 . S
C799 C801 1.391 . S
C800 C799 1.386 . S
C800 C804 1.393 . S
C801 H790 0.950 . S
C801 C799 1.391 . S
C801 C802 1.400 . S
C802 C796 1.491 . S
C802 C801 1.400 . S
C802 C803 1.398 . S
C803 H791 0.950 . S
C803 C802 1.398 . S
C803 C804 1.391 . S
C804 H792 0.950 . S
C804 C800 1.393 . S
C804 C803 1.391 . S
H805 C813 0.950 . S
H806 C818 0.950 . S
H807 C815 0.950 . S
H808 C817 0.950 . S
H809 C819 0.950 . S
H810 C821 0.950 . S
H811 C823 0.950 . S
H812 C824 0.950 . S
C813 H805 0.950 . S
C813 C814 1.386 . S
C813 C815 1.391 . S
C814 C813 1.386 . S
C814 C818 1.393 . S
C815 H807 0.950 . S
C815 C813 1.391 . S
C815 C816 1.400 . S
C816 C815 1.400 . S
C816 C817 1.398 . S
C816 C822 1.491 . S
C817 H808 0.950 . S
C817 C816 1.398 . S
C817 C818 1.391 . S
C818 H806 0.950 . S
C818 C814 1.393 . S
C818 C817 1.391 . S
C819 H809 0.950 . S
C819 C820 1.386 . S
C819 C821 1.391 . S
C820 C819 1.386 . S
C820 C824 1.393 . S
C821 H810 0.950 . S
C821 C819 1.391 . S
C821 C822 1.400 . S
C822 C816 1.491 . S
C822 C821 1.400 . S
C822 C823 1.398 . S
C823 H811 0.950 . S
C823 C822 1.398 . S
C823 C824 1.391 . S
C824 H812 0.950 . S
C824 C820 1.393 . S
C824 C823 1.391 . S
H825 C833 0.950 . S
H826 C838 0.950 . S
H827 C835 0.950 . S
H828 C837 0.950 . S
H829 C839 0.950 . S
H830 C841 0.950 . S
H831 C843 0.950 . S
H832 C844 0.950 . S
C833 H825 0.950 . S
C833 C834 1.386 . S
C833 C835 1.391 . S
C834 C833 1.386 . S
C834 C838 1.393 . S
C835 H827 0.950 . S
C835 C833 1.391 . S
C835 C836 1.400 . S
C836 C835 1.400 . S
C836 C837 1.398 . S
C836 C842 1.491 . S
C837 H828 0.950 . S
C837 C836 1.398 . S
C837 C838 1.391 . S
C838 H826 0.950 . S
C838 C834 1.393 . S
C838 C837 1.391 . S
C839 H829 0.950 . S
C839 C840 1.386 . S
C839 C841 1.391 . S
C840 C839 1.386 . S
C840 C844 1.393 . S
C841 H830 0.950 . S
C841 C839 1.391 . S
C841 C842 1.400 . S
C842 C836 1.491 . S
C842 C841 1.400 . S
C842 C843 1.398 . S
C843 H831 0.950 . S
C843 C842 1.398 . S
C843 C844 1.391 . S
C844 H832 0.950 . S
C844 C840 1.393 . S
C844 C843 1.391 . S
H845 C853 0.950 . S
H846 C858 0.950 . S
H847 C855 0.950 . S
H848 C857 0.950 . S
H849 C859 0.950 . S
H850 C861 0.950 . S
H851 C863 0.950 . S
H852 C864 0.950 . S
C853 H845 0.950 . S
C853 C854 1.386 . S
C853 C855 1.391 . S
C854 C853 1.386 . S
C854 C858 1.393 . S
C855 H847 0.950 . S
C855 C853 1.391 . S
C855 C856 1.400 . S
C856 C855 1.400 . S
C856 C857 1.398 . S
C856 C862 1.491 . S
C857 H848 0.950 . S
C857 C856 1.398 . S
C857 C858 1.391 . S
C858 H846 0.950 . S
C858 C854 1.393 . S
C858 C857 1.391 . S
C859 H849 0.950 . S
C859 C860 1.386 . S
C859 C861 1.391 . S
C860 C859 1.386 . S
C860 C864 1.393 . S
C861 H850 0.950 . S
C861 C859 1.391 . S
C861 C862 1.400 . S
C862 C856 1.491 . S
C862 C861 1.400 . S
C862 C863 1.398 . S
C863 H851 0.950 . S
C863 C862 1.398 . S
C863 C864 1.391 . S
C864 H852 0.950 . S
C864 C860 1.393 . S
C864 C863 1.391 . S
H865 C873 0.950 . S
H866 C878 0.950 . S
H867 C875 0.950 . S
H868 C877 0.950 . S
H869 C879 0.950 . S
H870 C881 0.950 . S
H871 C883 0.950 . S
H872 C884 0.950 . S
C873 H865 0.950 . S
C873 C874 1.386 . S
C873 C875 1.391 . S
C874 C873 1.386 . S
C874 C878 1.393 . S
C875 H867 0.950 . S
C875 C873 1.391 . S
C875 C876 1.400 . S
C876 C875 1.400 . S
C876 C877 1.398 . S
C876 C882 1.491 . S
C877 H868 0.950 . S
C877 C876 1.398 . S
C877 C878 1.391 . S
C878 H866 0.950 . S
C878 C874 1.393 . S
C878 C877 1.391 . S
C879 H869 0.950 . S
C879 C880 1.386 . S
C879 C881 1.391 . S
C880 C879 1.386 . S
C880 C884 1.393 . S
C881 H870 0.950 . S
C881 C879 1.391 . S
C881 C882 1.400 . S
C882 C876 1.491 . S
C882 C881 1.400 . S
C882 C883 1.398 . S
C883 H871 0.950 . S
C883 C882 1.398 . S
C883 C884 1.391 . S
C884 H872 0.950 . S
C884 C880 1.393 . S
C884 C883 1.391 . S
H885 C893 0.950 . S
H886 C898 0.950 . S
H887 C895 0.950 . S
H888 C897 0.950 . S
H889 C899 0.950 . S
H890 C901 0.950 . S
H891 C903 0.950 . S
H892 C904 0.950 . S
C893 H885 0.950 . S
C893 C894 1.386 . S
C893 C895 1.391 . S
C894 C893 1.386 . S
C894 C898 1.393 . S
C895 H887 0.950 . S
C895 C893 1.391 . S
C895 C896 1.400 . S
C896 C895 1.400 . S
C896 C897 1.398 . S
C896 C902 1.491 . S
C897 H888 0.950 . S
C897 C896 1.398 . S
C897 C898 1.391 . S
C898 H886 0.950 . S
C898 C894 1.393 . S
C898 C897 1.391 . S
C899 H889 0.950 . S
C899 C900 1.386 . S
C899 C901 1.391 . S
C900 C899 1.386 . S
C900 C904 1.393 . S
C901 H890 0.950 . S
C901 C899 1.391 . S
C901 C902 1.400 . S
C902 C896 1.491 . S
C902 C901 1.400 . S
C902 C903 1.398 . S
C903 H891 0.950 . S
C903 C902 1.398 . S
C903 C904 1.391 . S
C904 H892 0.950 . S
C904 C900 1.393 . S
C904 C903 1.391 . S
H905 C913 0.950 . S
H906 C918 0.950 . S
H907 C915 0.950 . S
H908 C917 0.950 . S
H909 C919 0.950 . S
H910 C921 0.950 . S
H911 C923 0.950 . S
H912 C924 0.950 . S
C913 H905 0.950 . S
C913 C914 1.386 . S
C913 C915 1.391 . S
C914 C913 1.386 . S
C914 C918 1.393 . S
C915 H907 0.950 . S
C915 C913 1.391 . S
C915 C916 1.400 . S
C916 C915 1.400 . S
C916 C917 1.398 . S
C916 C922 1.491 . S
C917 H908 0.950 . S
C917 C916 1.398 . S
C917 C918 1.391 . S
C918 H906 0.950 . S
C918 C914 1.393 . S
C918 C917 1.391 . S
C919 H909 0.950 . S
C919 C920 1.386 . S
C919 C921 1.391 . S
C920 C919 1.386 . S
C920 C924 1.393 . S
C921 H910 0.950 . S
C921 C919 1.391 . S
C921 C922 1.400 . S
C922 C916 1.491 . S
C922 C921 1.400 . S
C922 C923 1.398 . S
C923 H911 0.950 . S
C923 C922 1.398 . S
C923 C924 1.391 . S
C924 H912 0.950 . S
C924 C920 1.393 . S
C924 C923 1.391 . S
H925 C933 0.950 . S
H926 C938 0.950 . S
H927 C935 0.950 . S
H928 C937 0.950 . S
H929 C939 0.950 . S
H930 C941 0.950 . S
H931 C943 0.950 . S
H932 C944 0.950 . S
C933 H925 0.950 . S
C933 C934 1.386 . S
C933 C935 1.391 . S
C934 C933 1.386 . S
C934 C938 1.393 . S
C935 H927 0.950 . S
C935 C933 1.391 . S
C935 C936 1.400 . S
C936 C935 1.400 . S
C936 C937 1.398 . S
C936 C942 1.491 . S
C937 H928 0.950 . S
C937 C936 1.398 . S
C937 C938 1.391 . S
C938 H926 0.950 . S
C938 C934 1.393 . S
C938 C937 1.391 . S
C939 H929 0.950 . S
C939 C940 1.386 . S
C939 C941 1.391 . S
C940 C939 1.386 . S
C940 C944 1.393 . S
C941 H930 0.950 . S
C941 C939 1.391 . S
C941 C942 1.400 . S
C942 C936 1.491 . S
C942 C941 1.400 . S
C942 C943 1.398 . S
C943 H931 0.950 . S
C943 C942 1.398 . S
C943 C944 1.391 . S
C944 H932 0.950 . S
C944 C940 1.393 . S
C944 C943 1.391 . S
C474 C47 1.889 . S
C480 C372 2.002 . S
C494 C91 1.791 . S
C500 C404 1.869 . S
C520 C463 1.909 . S
C514 C177 1.974 . S
C540 C392 1.715 . S
C534 C215 1.687 . S
C554 C295 1.777 . S
C560 C422 1.825 . S
C580 C444 1.119 . S
C574 C345 1.076 . S
C600 C413 2.002 . S
C594 C153 1.873 . S
C614 C239 1.170 . S
C620 C453 1.136 . S
C640 C402 1.531 . S
C634 C283 1.531 . S
C654 C357 1.726 . S
C660 C432 1.779 . S
C674 C35 1.863 1_556 S
C680 C435 1.830 . S
C700 C374 1.558 . S
C694 C115 1.589 . S
C720 C382 1.521 . S
C714 C221 1.546 . S
C740 C423 1.489 . S
C734 C301 1.488 . S
C760 C436 2.223 . S
C754 C339 2.139 1_556 S
C780 C373 1.472 . S
C774 C53 1.504 1_556 S
C800 C433 1.461 . S
C794 C97 1.524 . S
C814 C171 1.428 . S
C820 C434 1.500 . S
C840 C403 1.504 . S
C834 C363 1.542 . S
C860 C464 1.520 . S
C854 C29 1.395 . S
C880 C391 1.789 . S
C874 C109 1.802 . S
C900 C405 1.548 . S
C894 C159 1.594 . S
C914 C233 2.098 . S
C920 C454 2.115 . S
C934 C277 1.803 . S
C940 C401 1.946 . S
