# Generated by pormake.
# Topology nom, (4,4)-cn, num edge types: 1
# Building blocks:
#     Node 0, Type 0, BuildingBlock: GIZVER_clean_linker_0, # of connection points: 4
#     Node 1, Type 0, BuildingBlock: GIZVER_clean_linker_0, # of connection points: 4
#     Node 2, Type 0, BuildingBlock: GIZVER_clean_linker_0, # of connection points: 4
#     Node 3, Type 0, BuildingBlock: GIZVER_clean_linker_0, # of connection points: 4
#     Node 4, Type 0, BuildingBlock: GIZVER_clean_linker_0, # of connection points: 4
#     Node 5, Type 0, BuildingBlock: GIZVER_clean_linker_0, # of connection points: 4
#     Node 6, Type 1, BuildingBlock: CEKHIL_clean_sbu_0, # of connection points: 4
#     Node 7, Type 1, BuildingBlock: CEKHIL_clean_sbu_0, # of connection points: 4
#     Node 8, Type 1, BuildingBlock: CEKHIL_clean_sbu_0, # of connection points: 4
#     Node 9, Type 1, BuildingBlock: CEKHIL_clean_sbu_0, # of connection points: 4
#     Node 10, Type 1, BuildingBlock: CEKHIL_clean_sbu_0, # of connection points: 4
#     Node 11, Type 1, BuildingBlock: CEKHIL_clean_sbu_0, # of connection points: 4
#     Edge 12, Type (0, 1), BuildingBlock: OJICUG_clean_linker_0, # of connection points: 2
#     Edge 13, Type (0, 1), BuildingBlock: OJICUG_clean_linker_0, # of connection points: 2
#     Edge 14, Type (0, 1), BuildingBlock: OJICUG_clean_linker_0, # of connection points: 2
#     Edge 15, Type (0, 1), BuildingBlock: OJICUG_clean_linker_0, # of connection points: 2
#     Edge 16, Type (0, 1), BuildingBlock: OJICUG_clean_linker_0, # of connection points: 2
#     Edge 17, Type (0, 1), BuildingBlock: OJICUG_clean_linker_0, # of connection points: 2
#     Edge 18, Type (0, 1), BuildingBlock: OJICUG_clean_linker_0, # of connection points: 2
#     Edge 19, Type (0, 1), BuildingBlock: OJICUG_clean_linker_0, # of connection points: 2
#     Edge 20, Type (0, 1), BuildingBlock: OJICUG_clean_linker_0, # of connection points: 2
#     Edge 21, Type (0, 1), BuildingBlock: OJICUG_clean_linker_0, # of connection points: 2
#     Edge 22, Type (0, 1), BuildingBlock: OJICUG_clean_linker_0, # of connection points: 2
#     Edge 23, Type (0, 1), BuildingBlock: OJICUG_clean_linker_0, # of connection points: 2
#     Edge 24, Type (0, 1), BuildingBlock: OJICUG_clean_linker_0, # of connection points: 2
#     Edge 25, Type (0, 1), BuildingBlock: OJICUG_clean_linker_0, # of connection points: 2
#     Edge 26, Type (0, 1), BuildingBlock: OJICUG_clean_linker_0, # of connection points: 2
#     Edge 27, Type (0, 1), BuildingBlock: OJICUG_clean_linker_0, # of connection points: 2
#     Edge 28, Type (0, 1), BuildingBlock: OJICUG_clean_linker_0, # of connection points: 2
#     Edge 29, Type (0, 1), BuildingBlock: OJICUG_clean_linker_0, # of connection points: 2
#     Edge 30, Type (0, 1), BuildingBlock: OJICUG_clean_linker_0, # of connection points: 2
#     Edge 31, Type (0, 1), BuildingBlock: OJICUG_clean_linker_0, # of connection points: 2
#     Edge 32, Type (0, 1), BuildingBlock: OJICUG_clean_linker_0, # of connection points: 2
#     Edge 33, Type (0, 1), BuildingBlock: OJICUG_clean_linker_0, # of connection points: 2
#     Edge 34, Type (0, 1), BuildingBlock: OJICUG_clean_linker_0, # of connection points: 2
#     Edge 35, Type (0, 1), BuildingBlock: OJICUG_clean_linker_0, # of connection points: 2
# Relax obj value: 0.005
# Max RMSD: 0.073
# Mean RMSD: 0.053
data_MOF--net-nom--node1-CEKHIL_clean_sbu_0--node2-GIZVER_clean_linker_0--edge1-OJICUG_clean_linker_0
_symmetry_space_group_name_H-M    P1
_symmetry_Int_Tables_number       1
_symmetry_cell_setting            triclinic
loop_
_symmetry_equiv_pos_as_xyz
'x, y, z'
_cell_length_a     34.297046
_cell_length_b     33.916758
_cell_length_c     34.497021
_cell_angle_alpha  89.99584
_cell_angle_beta   89.985242
_cell_angle_gamma 121.33788
loop_
_atom_site_label
_atom_site_type_symbol
_atom_site_fract_x
_atom_site_fract_y
_atom_site_fract_z
_atom_type_partial_charge
H0 H 0.94889 0.57479 0.37131 0.0
H1 H 1.00307 0.5834 0.25617 0.0
H2 H 0.86448 0.48026 0.28209 0.0
H3 H 0.02108 0.64347 0.35184 0.0
H4 H 0.03599 0.65224 0.3018 0.0
H5 H 0.04065 0.59266 0.39154 0.0
H6 H 0.17117 0.61231 0.36279 0.0
H7 H 0.10362 0.65361 0.28199 0.0
C8 C 0.9449 0.56169 0.34203 0.0
C9 C 0.90244 0.52366 0.33024 0.0
C10 C 0.98201 0.58316 0.31547 0.0
C11 C 0.97561 0.5666 0.27711 0.0
C12 C 0.93306 0.52973 0.26543 0.0
C13 C 0.89737 0.50844 0.29195 0.0
C14 C 0.02627 0.6271 0.32599 0.0
C15 C 0.06547 0.61956 0.33417 0.0
C16 C 0.06766 0.60207 0.37057 0.0
C17 C 0.10628 0.60041 0.38124 0.0
C18 C 0.14161 0.61396 0.35441 0.0
C19 C 0.14254 0.6354 0.31937 0.0
C20 C 0.10343 0.6367 0.30869 0.0
H21 H 0.38973 0.92084 0.52614 0.0
H22 H 0.43897 0.99308 0.41763 0.0
H23 H 0.42013 0.85871 0.43148 0.0
H24 H 0.39538 0.99373 0.5179 0.0
H25 H 0.39361 1.00947 0.46898 0.0
H26 H 0.4732 0.02534 0.5505 0.0
H27 H 0.57185 0.16407 0.51732 0.0
H28 H 0.45442 0.08277 0.44519 0.0
C29 C 0.40336 0.92302 0.49737 0.0
C30 C 0.40227 0.88413 0.48131 0.0
C31 C 0.41885 0.96365 0.47502 0.0
C32 C 0.4314 0.96407 0.4361 0.0
C33 C 0.43113 0.92584 0.42028 0.0
C34 C 0.41985 0.8879 0.44392 0.0
C35 C 0.41441 1.0032 0.48999 0.0
C36 C 0.46011 0.04755 0.49565 0.0
C37 C 0.48559 0.05305 0.52946 0.0
C38 C 0.52581 0.09519 0.53695 0.0
C39 C 0.54092 0.13146 0.51072 0.0
C40 C 0.51496 0.12825 0.47837 0.0
C41 C 0.47502 0.08559 0.47005 0.0
H42 H 0.38685 0.43599 0.60161 0.0
H43 H 0.44349 0.44564 0.71578 0.0
H44 H 0.41041 0.54545 0.67933 0.0
H45 H 0.38739 0.36933 0.63029 0.0
H46 H 0.40386 0.37126 0.67955 0.0
H47 H 0.44981 0.41106 0.57927 0.0
H48 H 0.56337 0.39345 0.59755 0.0
H49 H 0.47563 0.37663 0.69314 0.0
C50 C 0.39961 0.4539 0.62895 0.0
C51 C 0.39809 0.49404 0.63649 0.0
C52 C 0.41699 0.43656 0.65732 0.0
C53 C 0.43169 0.45931 0.6933 0.0
C54 C 0.42902 0.49836 0.70089 0.0
C55 C 0.41299 0.51561 0.67252 0.0
C56 C 0.41441 0.39082 0.65179 0.0
C57 C 0.45904 0.39605 0.63829 0.0
C58 C 0.47117 0.40554 0.59896 0.0
C59 C 0.50912 0.40511 0.58447 0.0
C60 C 0.53563 0.39618 0.60956 0.0
C61 C 0.52427 0.3858 0.64874 0.0
C62 C 0.48566 0.3858 0.66315 0.0
H63 H 0.95989 0.39125 0.77918 0.0
H64 H 1.00404 0.42506 0.89801 0.0
H65 H 0.87681 0.40865 0.86247 0.0
H66 H 0.01779 0.37648 0.80662 0.0
H67 H 0.03335 0.38775 0.85638 0.0
H68 H 0.0493 0.44445 0.75926 0.0
H69 H 0.18876 0.54723 0.7825 0.0
H70 H 0.10555 0.4559 0.87392 0.0
C71 C 0.95515 0.40071 0.80802 0.0
C72 C 0.91511 0.40115 0.81672 0.0
C73 C 0.98814 0.4104 0.83714 0.0
C74 C 0.98027 0.42003 0.87507 0.0
C75 C 0.94032 0.41995 0.88406 0.0
C76 C 0.9088 0.41147 0.8547 0.0
C77 C 0.02735 0.40263 0.82992 0.0
C78 C 0.07153 0.44602 0.81836 0.0
C79 C 0.0772 0.46164 0.77974 0.0
C80 C 0.11967 0.49782 0.76713 0.0
C81 C 0.15595 0.51959 0.79306 0.0
C82 C 0.15145 0.50552 0.83167 0.0
C83 C 0.10907 0.46814 0.84438 0.0
H84 H 0.65832 0.1055 0.02292 0.0
H85 H 0.61484 0.03972 0.91129 0.0
H86 H 0.6314 0.17249 0.93005 0.0
H87 H 0.65699 0.03492 0.01068 0.0
H88 H 0.6558 0.01883 0.9613 0.0
H89 H 0.5786 1.00799 0.04385 0.0
H90 H 0.47849 0.86774 0.01641 0.0
H91 H 0.59606 0.94305 0.94299 0.0
C92 C 0.64597 0.10484 -0.00611 0.0
C93 C 0.64717 0.14432 0.97917 0.0
C94 C 0.63214 0.06575 0.9699 0.0
C95 C 0.62123 0.06749 0.93083 0.0
C96 C 0.62167 0.10638 0.91632 0.0
C97 C 0.63132 0.14266 0.94144 0.0
C98 C 0.63656 0.0257 0.98355 0.0
C99 C 0.59079 0.98198 -0.00929 0.0
C100 C 0.56574 0.97894 0.02415 0.0
C101 C 0.52533 0.93762 0.0331 0.0
C102 C 0.50967 0.8996 0.00871 0.0
C103 C 0.53552 0.90018 0.97714 0.0
C104 C 0.57558 0.94211 0.96729 0.0
H105 H 0.66588 0.59593 0.10406 0.0
H106 H 0.60931 0.58459 0.21862 0.0
H107 H 0.6429 0.48568 0.18054 0.0
H108 H 0.66465 0.66222 0.1337 0.0
H109 H 0.64706 0.65897 0.18291 0.0
H110 H 0.59777 0.60778 0.08496 0.0
H111 H 0.48572 0.62891 0.09702 0.0
H112 H 0.58319 0.66864 0.1895 0.0
C113 C 0.65337 0.57778 0.13134 0.0
C114 C 0.655 0.5376 0.13836 0.0
C115 C 0.63587 0.59465 0.16007 0.0
C116 C 0.62135 0.57143 0.19592 0.0
C117 C 0.62425 0.53239 0.20297 0.0
C118 C 0.64034 0.51564 0.17424 0.0
C119 C 0.63748 0.64004 0.15485 0.0
C120 C 0.59274 0.63404 0.14063 0.0
C121 C 0.57801 0.61738 0.10284 0.0
C122 C 0.53984 0.61623 0.087 0.0
C123 C 0.51537 0.63031 0.10957 0.0
C124 C 0.53159 0.6516 0.14569 0.0
C125 C 0.56979 0.65205 0.16179 0.0
Co126 Co 0.64035 0.38317 0.39098 0.0
O127 O 0.69136 0.38666 0.36375 0.0
O128 O 0.69725 0.4384 0.40609 0.0
C129 C 0.60571 0.30782 0.40797 0.0
O130 O 0.59769 0.39112 0.4266 0.0
Co131 Co 0.53948 0.31959 0.36527 0.0
O132 O 0.52442 0.33679 0.41551 0.0
C133 C 0.59722 0.40961 0.32645 0.0
C134 C 0.71749 0.42468 0.38266 0.0
C135 C 0.55496 0.37078 0.43497 0.0
O136 O 0.63101 0.41871 0.34879 0.0
O137 O 0.55912 0.37111 0.32711 0.0
O138 O 0.63999 0.33945 0.4278 0.0
O139 O 0.59597 0.32179 0.37665 0.0
Co140 Co 0.27508 0.6257 0.56713 0.0
O141 O 0.32336 0.62373 0.59415 0.0
O142 O 0.27487 0.56969 0.5539 0.0
C143 C 0.31798 0.70046 0.54804 0.0
O144 O 0.22273 0.616 0.53225 0.0
Co145 Co 0.24143 0.69131 0.59177 0.0
O146 O 0.20466 0.66981 0.54376 0.0
C147 C 0.20738 0.60295 0.63319 0.0
C148 C 0.30992 0.58475 0.57676 0.0
C149 C 0.19958 0.63522 0.5248 0.0
O150 O 0.23073 0.59239 0.61086 0.0
O151 O 0.20922 0.64157 0.63146 0.0
O152 O 0.31869 0.66792 0.52871 0.0
O153 O 0.29461 0.68765 0.57973 0.0
Co154 Co 0.66684 0.27179 0.72121 0.0
O155 O 0.66417 0.3171 0.68891 0.0
O156 O 0.61184 0.2731 0.73202 0.0
C157 C 0.74124 0.31739 0.73904 0.0
O158 O 0.65726 0.22304 0.76093 0.0
Co159 Co 0.7309 0.23431 0.70369 0.0
O160 O 0.70758 0.20015 0.75304 0.0
C161 C 0.64398 0.1967 0.66094 0.0
C162 C 0.62604 0.30567 0.70627 0.0
C163 C 0.67418 0.19839 0.77086 0.0
O164 O 0.63324 0.22165 0.68119 0.0
O165 O 0.68253 0.19944 0.66369 0.0
O166 O 0.70942 0.32099 0.75609 0.0
O167 O 0.72789 0.28944 0.70991 0.0
Co168 Co 0.41348 0.64224 0.89362 0.0
O169 O 0.36351 0.6408 0.86635 0.0
O170 O 0.35582 0.58729 0.90755 0.0
C171 C 0.44889 0.71722 0.91205 0.0
O172 O 0.4546 0.63175 0.92904 0.0
Co173 Co 0.51493 0.70485 0.86958 0.0
O174 O 0.52862 0.68394 0.91854 0.0
C175 C 0.45642 0.61701 0.82809 0.0
C176 C 0.33653 0.60238 0.88445 0.0
C177 C 0.49711 0.64997 0.93737 0.0
O178 O 0.42258 0.60752 0.85053 0.0
O179 O 0.49485 0.65511 0.82965 0.0
O180 O 0.4142 0.68533 0.93137 0.0
O181 O 0.45889 0.7038 0.88055 0.0
Co182 Co 0.77082 0.39923 0.06951 0.0
O183 O 0.72403 0.40385 0.09658 0.0
O184 O 0.77329 0.45625 0.05563 0.0
C185 C 0.72595 0.32453 0.05104 0.0
O186 O 0.82187 0.40595 0.03443 0.0
Co187 Co 0.80112 0.33113 0.09521 0.0
O188 O 0.83594 0.34927 0.04607 0.0
C189 C 0.83922 0.42115 0.13484 0.0
C190 C 0.73862 0.44278 0.07871 0.0
C191 C 0.84261 0.38426 0.02675 0.0
O192 O 0.81617 0.4322 0.11265 0.0
O193 O 0.83588 0.38178 0.13368 0.0
O194 O 0.72612 0.35748 0.03163 0.0
O195 O 0.74933 0.33701 0.08273 0.0
Co196 Co 0.39194 0.76885 0.22171 0.0
O197 O 0.39517 0.72484 0.18818 0.0
O198 O 0.44756 0.7683 0.23156 0.0
C199 C 0.31839 0.72293 0.24136 0.0
O200 O 0.40135 0.81705 0.26179 0.0
Co201 Co 0.32622 0.80444 0.20547 0.0
O202 O 0.34976 0.83843 0.25493 0.0
C203 C 0.41185 0.84266 0.16095 0.0
C204 C 0.43384 0.73693 0.20478 0.0
C205 C 0.38369 0.84082 0.27232 0.0
O206 O 0.42394 0.81899 0.18145 0.0
O207 O 0.37287 0.83889 0.16412 0.0
O208 O 0.3511 0.72009 0.25749 0.0
O209 O 0.33016 0.74978 0.21154 0.0
C210 C 0.1896 0.66198 0.25702 0.0
C211 C 0.18702 0.661 0.29779 0.0
H212 H 0.23358 0.68286 0.20688 0.0
C213 C 0.22829 0.68377 0.31894 0.0
H214 H 0.15875 0.64528 0.23975 0.0
C215 C 0.27045 0.70343 0.30038 0.0
C216 C 0.27303 0.70292 0.25996 0.0
H217 H 0.22824 0.68607 0.35024 0.0
H218 H 0.30123 0.71951 0.3178 0.0
C219 C 0.23236 0.68323 0.23824 0.0
C220 C 0.54009 0.21157 0.47931 0.0
C221 C 0.52877 0.17199 0.45733 0.0
H222 H 0.5743 0.28529 0.481 0.0
C223 C 0.53798 0.17698 0.41734 0.0
H224 H 0.53269 0.20879 0.51008 0.0
C225 C 0.5611 0.22125 0.40043 0.0
C226 C 0.57599 0.2608 0.42354 0.0
H227 H 0.52979 0.14718 0.39976 0.0
H228 H 0.56967 0.22474 0.3699 0.0
C229 C 0.56411 0.25541 0.4628 0.0
C230 C 0.33208 0.48812 0.59906 0.0
C231 C 0.37846 0.51367 0.60959 0.0
H232 H 0.27365 0.49073 0.57992 0.0
C233 C 0.40304 0.56166 0.60319 0.0
H234 H 0.31212 0.45125 0.60419 0.0
C235 C 0.38088 0.58422 0.59081 0.0
C236 C 0.33382 0.5593 0.58335 0.0
H237 H 0.4388 0.58229 0.61103 0.0
H238 H 0.4003 0.62155 0.58869 0.0
C239 C 0.30998 0.51079 0.58565 0.0
C240 C 0.8599 0.34432 0.76739 0.0
C241 C 0.8761 0.38511 0.78905 0.0
H242 H 0.80439 0.29085 0.73432 0.0
C243 C 0.84968 0.40597 0.78972 0.0
H244 H 0.87902 0.32708 0.76644 0.0
C245 C 0.8064 0.38436 0.77273 0.0
C246 C 0.78897 0.34214 0.75335 0.0
H247 H 0.86142 0.43788 0.80541 0.0
H248 H 0.78611 0.40024 0.77552 0.0
C249 C 0.81687 0.32326 0.74938 0.0
C250 C 0.50722 0.81606 0.98243 0.0
C251 C 0.52145 0.85495 0.95851 0.0
H252 H 0.47223 0.74243 0.9865 0.0
C253 C 0.51648 0.84845 0.91816 0.0
H254 H 0.5117 0.81986 0.01358 0.0
C255 C 0.49474 0.80355 0.9025 0.0
C256 C 0.47705 0.7648 0.92709 0.0
H257 H 0.52714 0.87763 0.89901 0.0
H258 H 0.48957 0.79902 0.87147 0.0
C259 C 0.48457 0.77162 0.96702 0.0
C260 C 0.64797 0.47009 0.10337 0.0
C261 C 0.67391 0.51781 0.11089 0.0
H262 H 0.64843 0.4091 0.08826 0.0
C263 C 0.72068 0.54207 0.10155 0.0
H264 H 0.61193 0.45042 0.11045 0.0
C265 C 0.74165 0.51823 0.08822 0.0
C266 C 0.71625 0.46979 0.08489 0.0
H267 H 0.74167 0.57865 0.10766 0.0
H268 H 0.7782 0.53718 0.08348 0.0
C269 C 0.66897 0.44631 0.09113 0.0
C270 C 0.35353 0.79761 0.47693 0.0
C271 C 0.37818 0.83746 0.50019 0.0
H272 H 0.31688 0.72385 0.4736 0.0
C273 C 0.3801 0.83149 0.54038 0.0
H274 H 0.34895 0.80025 0.44619 0.0
C275 C 0.35958 0.78684 0.55637 0.0
C276 C 0.33777 0.74761 0.53232 0.0
H277 H 0.39834 0.86113 0.55927 0.0
H278 H 0.36201 0.783 0.58729 0.0
C279 C 0.33461 0.75351 0.4926 0.0
C280 C 0.59851 0.39285 0.66693 0.0
C281 C 0.5508 0.37008 0.67169 0.0
H282 H 0.65915 0.39005 0.67323 0.0
C283 C 0.52869 0.32795 0.69202 0.0
H284 H 0.61679 0.42561 0.65183 0.0
C285 C 0.55333 0.3077 0.70479 0.0
C286 C 0.60038 0.32888 0.69699 0.0
H287 H 0.49201 0.30925 0.69588 0.0
H288 H 0.53512 0.27436 0.71896 0.0
C289 C 0.62282 0.37231 0.67895 0.0
C290 C 0.21973 0.57794 0.85545 0.0
C291 C 0.19338 0.52938 0.85604 0.0
H292 H 0.28561 0.63874 0.86309 0.0
C293 C 0.21292 0.50515 0.87137 0.0
H294 H 0.2056 0.59757 0.84381 0.0
C295 C 0.25903 0.52899 0.88284 0.0
C296 C 0.28635 0.57725 0.87849 0.0
H297 H 0.1937 0.46776 0.87168 0.0
H298 H 0.274 0.50942 0.89264 0.0
C299 C 0.26573 0.60151 0.86605 0.0
C300 C 0.66501 0.1939 0.03976 0.0
C301 C 0.67012 0.18987 -0.00026 0.0
H302 H 0.67917 0.24024 0.08774 0.0
C303 C 0.69654 0.23073 0.97804 0.0
H304 H 0.64535 0.16336 0.05743 0.0
C305 C 0.71403 0.27403 -0.00514 0.0
C306 C 0.70753 0.27807 0.03431 0.0
H307 H 0.70339 0.22943 0.94757 0.0
H308 H 0.73319 0.30453 0.97698 0.0
C309 C 0.68406 0.23779 0.05701 0.0
C310 C 0.4959 0.69992 0.1379 0.0
C311 C 0.51078 0.67731 0.16287 0.0
H312 H 0.45901 0.73465 0.13149 0.0
C313 C 0.50333 0.6781 0.20296 0.0
H314 H 0.50274 0.70239 0.10707 0.0
C315 C 0.47958 0.69886 0.21716 0.0
C316 C 0.46214 0.71823 0.19144 0.0
H317 H 0.51447 0.66149 0.22314 0.0
H318 H 0.47332 0.69818 0.248 0.0
C319 C 0.47109 0.71899 0.15183 0.0
C320 C 0.83565 0.45135 0.35588 0.0
C321 C 0.86094 0.49994 0.35516 0.0
H322 H 0.77046 0.3898 0.36416 0.0
C323 C 0.84027 0.52368 0.36915 0.0
H324 H 0.85063 0.43209 0.34521 0.0
C325 C 0.79407 0.49921 0.38049 0.0
C326 C 0.76779 0.45076 0.37726 0.0
H327 H 0.85862 0.56105 0.36838 0.0
H328 H 0.77818 0.5183 0.38915 0.0
C329 C 0.78956 0.42712 0.36625 0.0
C330 C 0.11536 0.62695 0.44955 0.0
C331 C 0.11659 0.59679 0.42239 0.0
H332 H 0.14084 0.66302 0.50306 0.0
C333 C 0.13908 0.57338 0.43231 0.0
H334 H 0.09874 0.64588 0.44268 0.0
C335 C 0.16409 0.58386 0.46674 0.0
C336 C 0.16691 0.61783 0.49194 0.0
H337 H 0.14041 0.54979 0.41194 0.0
H338 H 0.1834 0.56739 0.47235 0.0
C339 C 0.1403 0.63742 0.48393 0.0
C340 C 0.59371 0.11402 0.57618 0.0
C341 C 0.54952 0.10646 0.57448 0.0
H342 H 0.65832 0.14855 0.60481 0.0
C343 C 0.53479 0.12448 0.60376 0.0
H344 H 0.60608 0.10152 0.55323 0.0
C345 C 0.56499 0.15269 0.63269 0.0
C346 C 0.61038 0.16308 0.6329 0.0
H347 H 0.50119 0.1201 0.60228 0.0
H348 H 0.55332 0.16792 0.65381 0.0
C349 C 0.62377 0.14174 0.60533 0.0
C350 C 0.40342 0.51035 0.76443 0.0
C351 C 0.43949 0.52093 0.73897 0.0
H352 H 0.38023 0.53253 0.81257 0.0
C353 C 0.4821 0.56096 0.74493 0.0
H354 H 0.36992 0.48014 0.75953 0.0
C355 C 0.48799 0.59136 0.77478 0.0
C356 C 0.45113 0.58243 0.79896 0.0
H357 H 0.50993 0.57022 0.7249 0.0
H358 H 0.52096 0.62281 0.77776 0.0
C359 C 0.4092 0.54075 0.79431 0.0
C360 C 0.9241 0.38733 0.9509 0.0
C361 C 0.92607 0.41988 0.92462 0.0
H362 H 0.89596 0.35029 0.00368 0.0
C363 C 0.9053 0.44494 0.93462 0.0
H364 H 0.9393 0.36712 0.94376 0.0
C365 C 0.87985 0.43491 0.96872 0.0
C366 C 0.87464 0.39957 -0.00651 0.0
H367 H 0.9064 0.47029 0.91481 0.0
H368 H 0.86248 0.45332 0.97461 0.0
C369 C 0.8986 0.37722 0.98498 0.0
C370 C 0.51916 0.91454 0.10157 0.0
C371 C 0.50254 0.9289 0.07092 0.0
H372 H 0.50326 0.87516 0.15389 0.0
C373 C 0.45772 0.91968 0.07248 0.0
H374 H 0.55331 0.92027 0.10033 0.0
C375 C 0.42887 0.89357 0.10287 0.0
C376 C 0.44418 0.87551 0.13183 0.0
H377 H 0.44395 0.9294 0.04857 0.0
H378 H 0.39378 0.88513 0.10225 0.0
C379 C 0.49017 0.88786 0.13172 0.0
C380 C 0.57112 0.46823 0.24571 0.0
C381 C 0.61348 0.5089 0.24067 0.0
H382 H 0.53269 0.40485 0.27671 0.0
C383 C 0.64937 0.51901 0.26617 0.0
H384 H 0.54346 0.45931 0.2256 0.0
C385 C 0.64377 0.48753 0.29501 0.0
C386 C 0.6022 0.44523 0.29858 0.0
H387 H 0.68272 0.5497 0.26195 0.0
H388 H 0.67266 0.49544 0.31325 0.0
C389 C 0.56541 0.43675 0.27452 0.0
C390 C 0.39679 0.91955 0.35561 0.0
C391 C 0.43059 0.91871 0.37791 0.0
H392 H 0.35496 0.89507 0.30496 0.0
C393 C 0.45382 0.89836 0.36225 0.0
H394 H 0.37793 0.93449 0.36714 0.0
C395 C 0.44006 0.87486 0.32694 0.0
C396 C 0.40293 0.87149 0.30654 0.0
H397 H 0.47999 0.89724 0.37893 0.0
H398 H 0.45689 0.85721 0.3168 0.0
C399 C 0.38304 0.89612 0.32027 0.0
C400 C 0.56252 0.43272 0.52829 0.0
C401 C 0.51776 0.40578 0.54245 0.0
H402 H 0.60947 0.44286 0.48315 0.0
C403 C 0.48385 0.37187 0.51847 0.0
H404 H 0.58923 0.45907 0.54634 0.0
C405 C 0.49542 0.3621 0.48239 0.0
C406 C 0.54111 0.38615 0.46974 0.0
H407 H 0.44919 0.35031 0.52893 0.0
H408 H 0.46901 0.33388 0.46554 0.0
C409 C 0.57412 0.42304 0.49227 0.0
C410 C 0.12251 0.54946 0.71539 0.0
C411 C 0.12897 0.51367 0.72675 0.0
H412 H 0.14236 0.60593 0.67673 0.0
C413 C 0.15674 0.50346 0.70426 0.0
H414 H 0.10202 0.55843 0.73292 0.0
C415 C 0.18055 0.53099 0.67243 0.0
C416 C 0.17727 0.56945 0.66296 0.0
H417 H 0.16288 0.47653 0.71324 0.0
H418 H 0.20363 0.52383 0.65686 0.0
C419 C 0.14639 0.57711 0.68369 0.0
C420 C 0.60158 0.13742 0.85902 0.0
C421 C 0.62412 0.11611 0.87425 0.0
H422 H 0.60011 0.18078 0.81476 0.0
C423 C 0.65872 0.1164 0.85227 0.0
H424 H 0.57479 0.1377 0.87544 0.0
C425 C 0.67369 0.14153 0.81776 0.0
C426 C 0.65429 0.16683 0.80453 0.0
H427 H 0.67711 0.10081 0.86348 0.0
H428 H 0.7022 0.14316 0.80269 0.0
C429 C 0.61661 0.16267 0.82457 0.0
C430 C 0.56607 0.64367 0.01999 0.0
C431 C 0.53126 0.61209 0.04475 0.0
H432 H 0.5826 0.68079 0.96651 0.0
C433 C 0.48626 0.58683 0.03079 0.0
H434 H 0.60101 0.66394 0.03012 0.0
C435 C 0.47549 0.59697 -0.00543 0.0
C436 C 0.5096 0.63252 0.97165 0.0
H437 H 0.45885 0.56223 0.04937 0.0
H438 H 0.44 0.57908 0.9858 0.0
C439 C 0.55534 0.65386 0.98375 0.0
C440 C 0.89614 0.52392 0.20252 0.0
C441 C 0.92285 0.51269 0.2254 0.0
H442 H 0.84834 0.50359 0.15584 0.0
C443 C 0.92649 0.47477 0.21533 0.0
H444 H 0.89207 0.55247 0.21056 0.0
C445 C 0.90088 0.44625 0.18461 0.0
C446 C 0.871 0.45509 0.1636 0.0
H447 H 0.94606 0.46498 0.23324 0.0
H448 H 0.90278 0.41592 0.17872 0.0
C449 C 0.87054 0.49547 0.17169 0.0
loop_
_geom_bond_atom_site_label_1
_geom_bond_atom_site_label_2
_geom_bond_distance
_geom_bond_site_symmetry_2
_ccdc_geom_bond_type
H0 C8 0.930 . S
H1 C11 0.930 . S
H2 C13 0.930 . S
H3 C14 0.970 . S
H4 C14 0.970 . S
H5 C16 0.930 . S
H6 C18 0.930 . S
H7 C20 0.930 . S
C8 H0 0.930 . S
C8 C9 1.382 . S
C8 C10 1.426 . S
C9 C8 1.382 . S
C9 C13 1.389 . S
C10 C8 1.426 . S
C10 C11 1.375 . S
C10 C14 1.532 1_655 S
C11 H1 0.930 . S
C11 C10 1.375 . S
C11 C12 1.416 . S
C12 C11 1.416 . S
C12 C13 1.371 . S
C13 H2 0.930 . S
C13 C9 1.389 . S
C13 C12 1.371 . S
C14 H3 0.970 . S
C14 H4 0.970 . S
C14 C10 1.532 1_455 S
C14 C15 1.499 . S
C15 C14 1.499 . S
C15 C16 1.370 . S
C15 C20 1.415 . S
C16 H5 0.930 . S
C16 C15 1.370 . S
C16 C17 1.407 . S
C17 C16 1.407 . S
C17 C18 1.365 . S
C18 H6 0.930 . S
C18 C17 1.365 . S
C18 C19 1.393 . S
C19 C18 1.393 . S
C19 C20 1.387 . S
C20 H7 0.930 . S
C20 C15 1.415 . S
C20 C19 1.387 . S
H21 C29 0.930 . S
H22 C32 0.930 . S
H23 C34 0.930 . S
H24 C35 0.970 . S
H25 C35 0.970 . S
H26 C37 0.930 . S
H27 C39 0.930 . S
H28 C41 0.930 . S
C29 H21 0.930 . S
C29 C30 1.382 . S
C29 C31 1.426 . S
C30 C29 1.382 . S
C30 C34 1.389 . S
C31 C29 1.426 . S
C31 C32 1.375 . S
C31 C35 1.532 1_565 S
C32 H22 0.930 . S
C32 C31 1.375 . S
C32 C33 1.416 . S
C33 C32 1.416 . S
C33 C34 1.371 . S
C34 H23 0.930 . S
C34 C30 1.389 . S
C34 C33 1.371 . S
C35 H24 0.970 . S
C35 H25 0.970 . S
C35 C31 1.532 1_545 S
C35 C36 1.499 . S
C36 C35 1.499 . S
C36 C37 1.370 . S
C36 C41 1.415 . S
C37 H26 0.930 . S
C37 C36 1.370 . S
C37 C38 1.407 . S
C38 C37 1.407 . S
C38 C39 1.365 . S
C39 H27 0.930 . S
C39 C38 1.365 . S
C39 C40 1.393 . S
C40 C39 1.393 . S
C40 C41 1.387 . S
C41 H28 0.930 . S
C41 C36 1.415 . S
C41 C40 1.387 . S
H42 C50 0.930 . S
H43 C53 0.930 . S
H44 C55 0.930 . S
H45 C56 0.970 . S
H46 C56 0.970 . S
H47 C58 0.930 . S
H48 C60 0.930 . S
H49 C62 0.930 . S
C50 H42 0.930 . S
C50 C51 1.382 . S
C50 C52 1.426 . S
C51 C50 1.382 . S
C51 C55 1.389 . S
C52 C50 1.426 . S
C52 C53 1.375 . S
C52 C56 1.532 . S
C53 H43 0.930 . S
C53 C52 1.375 . S
C53 C54 1.416 . S
C54 C53 1.416 . S
C54 C55 1.371 . S
C55 H44 0.930 . S
C55 C51 1.389 . S
C55 C54 1.371 . S
C56 H45 0.970 . S
C56 H46 0.970 . S
C56 C52 1.532 . S
C56 C57 1.499 . S
C57 C56 1.499 . S
C57 C58 1.370 . S
C57 C62 1.415 . S
C58 H47 0.930 . S
C58 C57 1.370 . S
C58 C59 1.407 . S
C59 C58 1.407 . S
C59 C60 1.365 . S
C60 H48 0.930 . S
C60 C59 1.365 . S
C60 C61 1.393 . S
C61 C60 1.393 . S
C61 C62 1.387 . S
C62 H49 0.930 . S
C62 C57 1.415 . S
C62 C61 1.387 . S
H63 C71 0.930 . S
H64 C74 0.930 . S
H65 C76 0.930 . S
H66 C77 0.970 1_655 S
H67 C77 0.970 . S
H68 C79 0.930 . S
H69 C81 0.930 . S
H70 C83 0.930 . S
C71 H63 0.930 . S
C71 C72 1.382 . S
C71 C73 1.426 . S
C72 C71 1.382 . S
C72 C76 1.389 . S
C73 C71 1.426 . S
C73 C74 1.375 . S
C73 C77 1.532 1_655 S
C74 H64 0.930 . S
C74 C73 1.375 . S
C74 C75 1.416 . S
C75 C74 1.416 . S
C75 C76 1.371 . S
C76 H65 0.930 . S
C76 C72 1.389 . S
C76 C75 1.371 . S
C77 H66 0.970 1_455 S
C77 H67 0.970 . S
C77 C73 1.532 1_455 S
C77 C78 1.499 . S
C78 C77 1.499 . S
C78 C79 1.370 . S
C78 C83 1.415 . S
C79 H68 0.930 . S
C79 C78 1.370 . S
C79 C80 1.407 . S
C80 C79 1.407 . S
C80 C81 1.365 . S
C81 H69 0.930 . S
C81 C80 1.365 . S
C81 C82 1.393 . S
C82 C81 1.393 . S
C82 C83 1.387 . S
C83 H70 0.930 . S
C83 C78 1.415 . S
C83 C82 1.387 . S
H84 C92 0.930 . S
H85 C95 0.930 . S
H86 C97 0.930 . S
H87 C98 0.970 1_554 S
H88 C98 0.970 1_565 S
H89 C100 0.930 . S
H90 C102 0.930 . S
H91 C104 0.930 . S
C92 H84 0.930 . S
C92 C93 1.382 . S
C92 C94 1.426 1_554 S
C93 C92 1.382 . S
C93 C97 1.389 1_554 S
C94 C92 1.426 1_556 S
C94 C95 1.375 . S
C94 C98 1.532 . S
C95 H85 0.930 . S
C95 C94 1.375 . S
C95 C96 1.416 . S
C96 C95 1.416 . S
C96 C97 1.371 . S
C97 H86 0.930 . S
C97 C93 1.389 1_556 S
C97 C96 1.371 . S
C98 H87 0.970 1_556 S
C98 H88 0.970 1_545 S
C98 C94 1.532 . S
C98 C99 1.499 1_546 S
C99 C98 1.499 1_564 S
C99 C100 1.370 . S
C99 C104 1.415 1_554 S
C100 H89 0.930 . S
C100 C99 1.370 . S
C100 C101 1.407 . S
C101 C100 1.407 . S
C101 C102 1.365 . S
C102 H90 0.930 . S
C102 C101 1.365 . S
C102 C103 1.393 1_554 S
C103 C102 1.393 1_556 S
C103 C104 1.387 . S
C104 H91 0.930 . S
C104 C99 1.415 1_556 S
C104 C103 1.387 . S
H105 C113 0.930 . S
H106 C116 0.930 . S
H107 C118 0.930 . S
H108 C119 0.970 . S
H109 C119 0.970 . S
H110 C121 0.930 . S
H111 C123 0.930 . S
H112 C125 0.930 . S
C113 H105 0.930 . S
C113 C114 1.382 . S
C113 C115 1.426 . S
C114 C113 1.382 . S
C114 C118 1.389 . S
C115 C113 1.426 . S
C115 C116 1.375 . S
C115 C119 1.532 . S
C116 H106 0.930 . S
C116 C115 1.375 . S
C116 C117 1.416 . S
C117 C116 1.416 . S
C117 C118 1.371 . S
C118 H107 0.930 . S
C118 C114 1.389 . S
C118 C117 1.371 . S
C119 H108 0.970 . S
C119 H109 0.970 . S
C119 C115 1.532 . S
C119 C120 1.499 . S
C120 C119 1.499 . S
C120 C121 1.370 . S
C120 C125 1.415 . S
C121 H110 0.930 . S
C121 C120 1.370 . S
C121 C122 1.407 . S
C122 C121 1.407 . S
C122 C123 1.365 . S
C123 H111 0.930 . S
C123 C122 1.365 . S
C123 C124 1.393 . S
C124 C123 1.393 . S
C124 C125 1.387 . S
C125 H112 0.930 . S
C125 C120 1.415 . S
C125 C124 1.387 . S
Co126 O127 2.216 . S
Co126 O128 2.091 . S
Co126 O130 2.004 . S
Co126 O136 2.021 . S
Co126 O138 2.137 . S
Co126 O139 2.244 . S
O127 Co126 2.216 . S
O127 C134 1.247 . S
O128 Co126 2.091 . S
O128 C134 1.261 . S
C129 O138 1.247 . S
C129 O139 1.272 . S
O130 Co126 2.004 . S
O130 C135 1.259 . S
Co131 O132 2.061 . S
Co131 O137 2.052 . S
Co131 O139 2.135 . S
O132 Co131 2.061 . S
O132 C135 1.235 . S
C133 O136 1.238 . S
C133 O137 1.241 . S
C134 O127 1.247 . S
C134 O128 1.261 . S
C135 O130 1.259 . S
C135 O132 1.235 . S
O136 Co126 2.021 . S
O136 C133 1.238 . S
O137 Co131 2.052 . S
O137 C133 1.241 . S
O138 Co126 2.137 . S
O138 C129 1.247 . S
O139 Co126 2.244 . S
O139 C129 1.272 . S
O139 Co131 2.135 . S
Co140 O141 2.216 . S
Co140 O142 2.091 . S
Co140 O144 2.004 . S
Co140 O150 2.021 . S
Co140 O152 2.137 . S
Co140 O153 2.244 . S
O141 Co140 2.216 . S
O141 C148 1.247 . S
O142 Co140 2.091 . S
O142 C148 1.261 . S
C143 O152 1.247 . S
C143 O153 1.272 . S
O144 Co140 2.004 . S
O144 C149 1.259 . S
Co145 O146 2.061 . S
Co145 O151 2.052 . S
Co145 O153 2.135 . S
O146 Co145 2.061 . S
O146 C149 1.235 . S
C147 O150 1.238 . S
C147 O151 1.241 . S
C148 O141 1.247 . S
C148 O142 1.261 . S
C149 O144 1.259 . S
C149 O146 1.235 . S
O150 Co140 2.021 . S
O150 C147 1.238 . S
O151 Co145 2.052 . S
O151 C147 1.241 . S
O152 Co140 2.137 . S
O152 C143 1.247 . S
O153 Co140 2.244 . S
O153 C143 1.272 . S
O153 Co145 2.135 . S
Co154 O155 2.216 . S
Co154 O156 2.091 . S
Co154 O158 2.004 . S
Co154 O164 2.021 . S
Co154 O166 2.137 . S
Co154 O167 2.244 . S
O155 Co154 2.216 . S
O155 C162 1.247 . S
O156 Co154 2.091 . S
O156 C162 1.261 . S
C157 O166 1.247 . S
C157 O167 1.272 . S
O158 Co154 2.004 . S
O158 C163 1.259 . S
Co159 O160 2.061 . S
Co159 O165 2.052 . S
Co159 O167 2.135 . S
O160 Co159 2.061 . S
O160 C163 1.235 . S
C161 O164 1.238 . S
C161 O165 1.241 . S
C162 O155 1.247 . S
C162 O156 1.261 . S
C163 O158 1.259 . S
C163 O160 1.235 . S
O164 Co154 2.021 . S
O164 C161 1.238 . S
O165 Co159 2.052 . S
O165 C161 1.241 . S
O166 Co154 2.137 . S
O166 C157 1.247 . S
O167 Co154 2.244 . S
O167 C157 1.272 . S
O167 Co159 2.135 . S
Co168 O169 2.216 . S
Co168 O170 2.091 . S
Co168 O172 2.004 . S
Co168 O178 2.021 . S
Co168 O180 2.137 . S
Co168 O181 2.244 . S
O169 Co168 2.216 . S
O169 C176 1.247 . S
O170 Co168 2.091 . S
O170 C176 1.261 . S
C171 O180 1.247 . S
C171 O181 1.272 . S
O172 Co168 2.004 . S
O172 C177 1.259 . S
Co173 O174 2.061 . S
Co173 O179 2.052 . S
Co173 O181 2.135 . S
O174 Co173 2.061 . S
O174 C177 1.235 . S
C175 O178 1.238 . S
C175 O179 1.241 . S
C176 O169 1.247 . S
C176 O170 1.261 . S
C177 O172 1.259 . S
C177 O174 1.235 . S
O178 Co168 2.021 . S
O178 C175 1.238 . S
O179 Co173 2.052 . S
O179 C175 1.241 . S
O180 Co168 2.137 . S
O180 C171 1.247 . S
O181 Co168 2.244 . S
O181 C171 1.272 . S
O181 Co173 2.135 . S
Co182 O183 2.216 . S
Co182 O184 2.091 . S
Co182 O186 2.004 . S
Co182 O192 2.021 . S
Co182 O194 2.137 . S
Co182 O195 2.244 . S
O183 Co182 2.216 . S
O183 C190 1.247 . S
O184 Co182 2.091 . S
O184 C190 1.261 . S
C185 O194 1.247 . S
C185 O195 1.272 . S
O186 Co182 2.004 . S
O186 C191 1.259 . S
Co187 O188 2.061 . S
Co187 O193 2.052 . S
Co187 O195 2.135 . S
O188 Co187 2.061 . S
O188 C191 1.235 . S
C189 O192 1.238 . S
C189 O193 1.241 . S
C190 O183 1.247 . S
C190 O184 1.261 . S
C191 O186 1.259 . S
C191 O188 1.235 . S
O192 Co182 2.021 . S
O192 C189 1.238 . S
O193 Co187 2.052 . S
O193 C189 1.241 . S
O194 Co182 2.137 . S
O194 C185 1.247 . S
O195 Co182 2.244 . S
O195 C185 1.272 . S
O195 Co187 2.135 . S
Co196 O197 2.216 . S
Co196 O198 2.091 . S
Co196 O200 2.004 . S
Co196 O206 2.021 . S
Co196 O208 2.137 . S
Co196 O209 2.244 . S
O197 Co196 2.216 . S
O197 C204 1.247 . S
O198 Co196 2.091 . S
O198 C204 1.261 . S
C199 O208 1.247 . S
C199 O209 1.272 . S
O200 Co196 2.004 . S
O200 C205 1.259 . S
Co201 O202 2.061 . S
Co201 O207 2.052 . S
Co201 O209 2.135 . S
O202 Co201 2.061 . S
O202 C205 1.235 . S
C203 O206 1.238 . S
C203 O207 1.241 . S
C204 O197 1.247 . S
C204 O198 1.261 . S
C205 O200 1.259 . S
C205 O202 1.235 . S
O206 Co196 2.021 . S
O206 C203 1.238 . S
O207 Co201 2.052 . S
O207 C203 1.241 . S
O208 Co196 2.137 . S
O208 C199 1.247 . S
O209 Co196 2.244 . S
O209 C199 1.272 . S
O209 Co201 2.135 . S
C210 C211 1.387 . S
C210 H214 0.950 . S
C210 C219 1.390 . S
C211 C210 1.387 . S
C211 C213 1.387 . S
H212 C219 0.950 . S
C213 C211 1.387 . S
C213 C215 1.390 . S
C213 H217 0.950 . S
H214 C210 0.950 . S
C215 C213 1.390 . S
C215 C216 1.387 . S
C215 H218 0.950 . S
C216 C215 1.387 . S
C216 C219 1.387 . S
H217 C213 0.950 . S
H218 C215 0.950 . S
C219 C210 1.390 . S
C219 H212 0.950 . S
C219 C216 1.387 . S
C220 C221 1.387 . S
C220 H224 0.950 . S
C220 C229 1.390 . S
C221 C220 1.387 . S
C221 C223 1.387 . S
H222 C229 0.950 . S
C223 C221 1.387 . S
C223 C225 1.390 . S
C223 H227 0.950 . S
H224 C220 0.950 . S
C225 C223 1.390 . S
C225 C226 1.387 . S
C225 H228 0.950 . S
C226 C225 1.387 . S
C226 C229 1.387 . S
H227 C223 0.950 . S
H228 C225 0.950 . S
C229 C220 1.390 . S
C229 H222 0.950 . S
C229 C226 1.387 . S
C230 C231 1.387 . S
C230 H234 0.950 . S
C230 C239 1.390 . S
C231 C230 1.387 . S
C231 C233 1.387 . S
H232 C239 0.950 . S
C233 C231 1.387 . S
C233 C235 1.390 . S
C233 H237 0.950 . S
H234 C230 0.950 . S
C235 C233 1.390 . S
C235 C236 1.387 . S
C235 H238 0.950 . S
C236 C235 1.387 . S
C236 C239 1.387 . S
H237 C233 0.950 . S
H238 C235 0.950 . S
C239 C230 1.390 . S
C239 H232 0.950 . S
C239 C236 1.387 . S
C240 C241 1.387 . S
C240 H244 0.950 . S
C240 C249 1.390 . S
C241 C240 1.387 . S
C241 C243 1.387 . S
H242 C249 0.950 . S
C243 C241 1.387 . S
C243 C245 1.390 . S
C243 H247 0.950 . S
H244 C240 0.950 . S
C245 C243 1.390 . S
C245 C246 1.387 . S
C245 H248 0.950 . S
C246 C245 1.387 . S
C246 C249 1.387 . S
H247 C243 0.950 . S
H248 C245 0.950 . S
C249 C240 1.390 . S
C249 H242 0.950 . S
C249 C246 1.387 . S
C250 C251 1.387 . S
C250 H254 0.950 1_556 S
C250 C259 1.390 . S
C251 C250 1.387 . S
C251 C253 1.387 . S
H252 C259 0.950 . S
C253 C251 1.387 . S
C253 C255 1.390 . S
C253 H257 0.950 . S
H254 C250 0.950 1_554 S
C255 C253 1.390 . S
C255 C256 1.387 . S
C255 H258 0.950 . S
C256 C255 1.387 . S
C256 C259 1.387 . S
H257 C253 0.950 . S
H258 C255 0.950 . S
C259 C250 1.390 . S
C259 H252 0.950 . S
C259 C256 1.387 . S
C260 C261 1.387 . S
C260 H264 0.950 . S
C260 C269 1.390 . S
C261 C260 1.387 . S
C261 C263 1.387 . S
H262 C269 0.950 . S
C263 C261 1.387 . S
C263 C265 1.390 . S
C263 H267 0.950 . S
H264 C260 0.950 . S
C265 C263 1.390 . S
C265 C266 1.387 . S
C265 H268 0.950 . S
C266 C265 1.387 . S
C266 C269 1.387 . S
H267 C263 0.950 . S
H268 C265 0.950 . S
C269 C260 1.390 . S
C269 H262 0.950 . S
C269 C266 1.387 . S
C270 C271 1.387 . S
C270 H274 0.950 . S
C270 C279 1.390 . S
C271 C270 1.387 . S
C271 C273 1.387 . S
H272 C279 0.950 . S
C273 C271 1.387 . S
C273 C275 1.390 . S
C273 H277 0.950 . S
H274 C270 0.950 . S
C275 C273 1.390 . S
C275 C276 1.387 . S
C275 H278 0.950 . S
C276 C275 1.387 . S
C276 C279 1.387 . S
H277 C273 0.950 . S
H278 C275 0.950 . S
C279 C270 1.390 . S
C279 H272 0.950 . S
C279 C276 1.387 . S
C280 C281 1.387 . S
C280 H284 0.950 . S
C280 C289 1.390 . S
C281 C280 1.387 . S
C281 C283 1.387 . S
H282 C289 0.950 . S
C283 C281 1.387 . S
C283 C285 1.390 . S
C283 H287 0.950 . S
H284 C280 0.950 . S
C285 C283 1.390 . S
C285 C286 1.387 . S
C285 H288 0.950 . S
C286 C285 1.387 . S
C286 C289 1.387 . S
H287 C283 0.950 . S
H288 C285 0.950 . S
C289 C280 1.390 . S
C289 H282 0.950 . S
C289 C286 1.387 . S
C290 C291 1.387 . S
C290 H294 0.950 . S
C290 C299 1.390 . S
C291 C290 1.387 . S
C291 C293 1.387 . S
H292 C299 0.950 . S
C293 C291 1.387 . S
C293 C295 1.390 . S
C293 H297 0.950 . S
H294 C290 0.950 . S
C295 C293 1.390 . S
C295 C296 1.387 . S
C295 H298 0.950 . S
C296 C295 1.387 . S
C296 C299 1.387 . S
H297 C293 0.950 . S
H298 C295 0.950 . S
C299 C290 1.390 . S
C299 H292 0.950 . S
C299 C296 1.387 . S
C300 C301 1.387 . S
C300 H304 0.950 . S
C300 C309 1.390 . S
C301 C300 1.387 . S
C301 C303 1.387 1_554 S
H302 C309 0.950 . S
C303 C301 1.387 1_556 S
C303 C305 1.390 1_556 S
C303 H307 0.950 . S
H304 C300 0.950 . S
C305 C303 1.390 1_554 S
C305 C306 1.387 . S
C305 H308 0.950 1_554 S
C306 C305 1.387 . S
C306 C309 1.387 . S
H307 C303 0.950 . S
H308 C305 0.950 1_556 S
C309 C300 1.390 . S
C309 H302 0.950 . S
C309 C306 1.387 . S
C310 C311 1.387 . S
C310 H314 0.950 . S
C310 C319 1.390 . S
C311 C310 1.387 . S
C311 C313 1.387 . S
H312 C319 0.950 . S
C313 C311 1.387 . S
C313 C315 1.390 . S
C313 H317 0.950 . S
H314 C310 0.950 . S
C315 C313 1.390 . S
C315 C316 1.387 . S
C315 H318 0.950 . S
C316 C315 1.387 . S
C316 C319 1.387 . S
H317 C313 0.950 . S
H318 C315 0.950 . S
C319 C310 1.390 . S
C319 H312 0.950 . S
C319 C316 1.387 . S
C320 C321 1.387 . S
C320 H324 0.950 . S
C320 C329 1.390 . S
C321 C320 1.387 . S
C321 C323 1.387 . S
H322 C329 0.950 . S
C323 C321 1.387 . S
C323 C325 1.390 . S
C323 H327 0.950 . S
H324 C320 0.950 . S
C325 C323 1.390 . S
C325 C326 1.387 . S
C325 H328 0.950 . S
C326 C325 1.387 . S
C326 C329 1.387 . S
H327 C323 0.950 . S
H328 C325 0.950 . S
C329 C320 1.390 . S
C329 H322 0.950 . S
C329 C326 1.387 . S
C330 C331 1.387 . S
C330 H334 0.950 . S
C330 C339 1.390 . S
C331 C330 1.387 . S
C331 C333 1.387 . S
H332 C339 0.950 . S
C333 C331 1.387 . S
C333 C335 1.390 . S
C333 H337 0.950 . S
H334 C330 0.950 . S
C335 C333 1.390 . S
C335 C336 1.387 . S
C335 H338 0.950 . S
C336 C335 1.387 . S
C336 C339 1.387 . S
H337 C333 0.950 . S
H338 C335 0.950 . S
C339 C330 1.390 . S
C339 H332 0.950 . S
C339 C336 1.387 . S
C340 C341 1.387 . S
C340 H344 0.950 . S
C340 C349 1.390 . S
C341 C340 1.387 . S
C341 C343 1.387 . S
H342 C349 0.950 . S
C343 C341 1.387 . S
C343 C345 1.390 . S
C343 H347 0.950 . S
H344 C340 0.950 . S
C345 C343 1.390 . S
C345 C346 1.387 . S
C345 H348 0.950 . S
C346 C345 1.387 . S
C346 C349 1.387 . S
H347 C343 0.950 . S
H348 C345 0.950 . S
C349 C340 1.390 . S
C349 H342 0.950 . S
C349 C346 1.387 . S
C350 C351 1.387 . S
C350 H354 0.950 . S
C350 C359 1.390 . S
C351 C350 1.387 . S
C351 C353 1.387 . S
H352 C359 0.950 . S
C353 C351 1.387 . S
C353 C355 1.390 . S
C353 H357 0.950 . S
H354 C350 0.950 . S
C355 C353 1.390 . S
C355 C356 1.387 . S
C355 H358 0.950 . S
C356 C355 1.387 . S
C356 C359 1.387 . S
H357 C353 0.950 . S
H358 C355 0.950 . S
C359 C350 1.390 . S
C359 H352 0.950 . S
C359 C356 1.387 . S
C360 C361 1.387 . S
C360 H364 0.950 . S
C360 C369 1.390 . S
C361 C360 1.387 . S
C361 C363 1.387 . S
H362 C369 0.950 . S
C363 C361 1.387 . S
C363 C365 1.390 . S
C363 H367 0.950 . S
H364 C360 0.950 . S
C365 C363 1.390 . S
C365 C366 1.387 . S
C365 H368 0.950 1_556 S
C366 C365 1.387 . S
C366 C369 1.387 . S
H367 C363 0.950 . S
H368 C365 0.950 1_554 S
C369 C360 1.390 . S
C369 H362 0.950 . S
C369 C366 1.387 . S
C370 C371 1.387 . S
C370 H374 0.950 . S
C370 C379 1.390 . S
C371 C370 1.387 . S
C371 C373 1.387 . S
H372 C379 0.950 . S
C373 C371 1.387 . S
C373 C375 1.390 . S
C373 H377 0.950 . S
H374 C370 0.950 . S
C375 C373 1.390 . S
C375 C376 1.387 . S
C375 H378 0.950 . S
C376 C375 1.387 . S
C376 C379 1.387 . S
H377 C373 0.950 . S
H378 C375 0.950 . S
C379 C370 1.390 . S
C379 H372 0.950 . S
C379 C376 1.387 . S
C380 C381 1.387 . S
C380 H384 0.950 . S
C380 C389 1.390 . S
C381 C380 1.387 . S
C381 C383 1.387 . S
H382 C389 0.950 . S
C383 C381 1.387 . S
C383 C385 1.390 . S
C383 H387 0.950 . S
H384 C380 0.950 . S
C385 C383 1.390 . S
C385 C386 1.387 . S
C385 H388 0.950 . S
C386 C385 1.387 . S
C386 C389 1.387 . S
H387 C383 0.950 . S
H388 C385 0.950 . S
C389 C380 1.390 . S
C389 H382 0.950 . S
C389 C386 1.387 . S
C390 C391 1.387 . S
C390 H394 0.950 . S
C390 C399 1.390 . S
C391 C390 1.387 . S
C391 C393 1.387 . S
H392 C399 0.950 . S
C393 C391 1.387 . S
C393 C395 1.390 . S
C393 H397 0.950 . S
H394 C390 0.950 . S
C395 C393 1.390 . S
C395 C396 1.387 . S
C395 H398 0.950 . S
C396 C395 1.387 . S
C396 C399 1.387 . S
H397 C393 0.950 . S
H398 C395 0.950 . S
C399 C390 1.390 . S
C399 H392 0.950 . S
C399 C396 1.387 . S
C400 C401 1.387 . S
C400 H404 0.950 . S
C400 C409 1.390 . S
C401 C400 1.387 . S
C401 C403 1.387 . S
H402 C409 0.950 . S
C403 C401 1.387 . S
C403 C405 1.390 . S
C403 H407 0.950 . S
H404 C400 0.950 . S
C405 C403 1.390 . S
C405 C406 1.387 . S
C405 H408 0.950 . S
C406 C405 1.387 . S
C406 C409 1.387 . S
H407 C403 0.950 . S
H408 C405 0.950 . S
C409 C400 1.390 . S
C409 H402 0.950 . S
C409 C406 1.387 . S
C410 C411 1.387 . S
C410 H414 0.950 . S
C410 C419 1.390 . S
C411 C410 1.387 . S
C411 C413 1.387 . S
H412 C419 0.950 . S
C413 C411 1.387 . S
C413 C415 1.390 . S
C413 H417 0.950 . S
H414 C410 0.950 . S
C415 C413 1.390 . S
C415 C416 1.387 . S
C415 H418 0.950 . S
C416 C415 1.387 . S
C416 C419 1.387 . S
H417 C413 0.950 . S
H418 C415 0.950 . S
C419 C410 1.390 . S
C419 H412 0.950 . S
C419 C416 1.387 . S
C420 C421 1.387 . S
C420 H424 0.950 . S
C420 C429 1.390 . S
C421 C420 1.387 . S
C421 C423 1.387 . S
H422 C429 0.950 . S
C423 C421 1.387 . S
C423 C425 1.390 . S
C423 H427 0.950 . S
H424 C420 0.950 . S
C425 C423 1.390 . S
C425 C426 1.387 . S
C425 H428 0.950 . S
C426 C425 1.387 . S
C426 C429 1.387 . S
H427 C423 0.950 . S
H428 C425 0.950 . S
C429 C420 1.390 . S
C429 H422 0.950 . S
C429 C426 1.387 . S
C430 C431 1.387 . S
C430 H434 0.950 . S
C430 C439 1.390 . S
C431 C430 1.387 . S
C431 C433 1.387 . S
H432 C439 0.950 . S
C433 C431 1.387 . S
C433 C435 1.390 . S
C433 H437 0.950 . S
H434 C430 0.950 . S
C435 C433 1.390 . S
C435 C436 1.387 . S
C435 H438 0.950 1_554 S
C436 C435 1.387 . S
C436 C439 1.387 . S
H437 C433 0.950 . S
H438 C435 0.950 1_556 S
C439 C430 1.390 . S
C439 H432 0.950 . S
C439 C436 1.387 . S
C440 C441 1.387 . S
C440 H444 0.950 . S
C440 C449 1.390 . S
C441 C440 1.387 . S
C441 C443 1.387 . S
H442 C449 0.950 . S
C443 C441 1.387 . S
C443 C445 1.390 . S
C443 H447 0.950 . S
H444 C440 0.950 . S
C445 C443 1.390 . S
C445 C446 1.387 . S
C445 H448 0.950 . S
C446 C445 1.387 . S
C446 C449 1.387 . S
H447 C443 0.950 . S
H448 C445 0.950 . S
C449 C440 1.390 . S
C449 H442 0.950 . S
C449 C446 1.387 . S
C216 C199 1.579 . S
C211 C19 1.481 . S
C221 C40 1.492 . S
C226 C129 1.578 . S
C231 C51 1.480 . S
C236 C148 1.595 . S
C241 C72 1.467 . S
C246 C157 1.582 . S
C256 C171 1.576 . S
C251 C103 1.491 . S
C261 C114 1.478 . S
C266 C190 1.589 . S
C271 C30 1.469 . S
C276 C143 1.576 . S
C281 C61 1.478 . S
C286 C162 1.576 . S
C291 C82 1.482 . S
C296 C176 1.571 . S
C306 C185 1.570 . S
C301 C93 1.465 . S
C316 C204 1.575 . S
C311 C124 1.475 . S
C326 C134 1.575 . S
C321 C9 1.469 . S
C331 C17 1.434 . S
C336 C149 1.508 . S
C341 C38 1.443 . S
C346 C161 1.494 . S
C356 C175 1.480 . S
C351 C54 1.417 . S
C361 C75 1.428 . S
C366 C191 1.506 1_556 S
C376 C203 1.492 . S
C371 C101 1.439 . S
C386 C133 1.484 . S
C381 C117 1.422 . S
C396 C205 1.510 . S
C391 C33 1.432 . S
C401 C59 1.428 . S
C406 C135 1.517 . S
C416 C147 1.496 . S
C411 C80 1.440 . S
C421 C96 1.436 . S
C426 C163 1.512 . S
C431 C122 1.427 . S
C436 C177 1.516 1_554 S
C441 C12 1.430 . S
C446 C189 1.494 . S
