# Generated by pormake.
# Topology pth, (4,4)-cn, num edge types: 1
# Building blocks:
#     Node 0, Type 0, BuildingBlock: GALJAG_clean_sbu_0, # of connection points: 4
#     Node 1, Type 0, BuildingBlock: GALJAG_clean_sbu_0, # of connection points: 4
#     Node 2, Type 0, BuildingBlock: GALJAG_clean_sbu_0, # of connection points: 4
#     Node 3, Type 1, BuildingBlock: NAHDIM_clean_linker_0, # of connection points: 4
#     Node 4, Type 1, BuildingBlock: NAHDIM_clean_linker_0, # of connection points: 4
#     Node 5, Type 1, BuildingBlock: NAHDIM_clean_linker_0, # of connection points: 4
#     Edge 6, Type (0, 1), BuildingBlock: FUNLAD_clean_linker_0, # of connection points: 2
#     Edge 7, Type (0, 1), BuildingBlock: FUNLAD_clean_linker_0, # of connection points: 2
#     Edge 8, Type (0, 1), BuildingBlock: FUNLAD_clean_linker_0, # of connection points: 2
#     Edge 9, Type (0, 1), BuildingBlock: FUNLAD_clean_linker_0, # of connection points: 2
#     Edge 10, Type (0, 1), BuildingBlock: FUNLAD_clean_linker_0, # of connection points: 2
#     Edge 11, Type (0, 1), BuildingBlock: FUNLAD_clean_linker_0, # of connection points: 2
#     Edge 12, Type (0, 1), BuildingBlock: FUNLAD_clean_linker_0, # of connection points: 2
#     Edge 13, Type (0, 1), BuildingBlock: FUNLAD_clean_linker_0, # of connection points: 2
#     Edge 14, Type (0, 1), BuildingBlock: FUNLAD_clean_linker_0, # of connection points: 2
#     Edge 15, Type (0, 1), BuildingBlock: FUNLAD_clean_linker_0, # of connection points: 2
#     Edge 16, Type (0, 1), BuildingBlock: FUNLAD_clean_linker_0, # of connection points: 2
#     Edge 17, Type (0, 1), BuildingBlock: FUNLAD_clean_linker_0, # of connection points: 2
# Relax obj value: 0.024
# Max RMSD: 0.067
# Mean RMSD: 0.066
data_MOF--net-pth--node1-GALJAG_clean_sbu_0--node2-NAHDIM_clean_linker_0--edge1-FUNLAD_clean_linker_0
_symmetry_space_group_name_H-M    P1
_symmetry_Int_Tables_number       1
_symmetry_cell_setting            triclinic
loop_
_symmetry_equiv_pos_as_xyz
'x, y, z'
_cell_length_a     36.276731
_cell_length_b     36.225106
_cell_length_c     88.158378
_cell_angle_alpha  89.880483
_cell_angle_beta   90.809874
_cell_angle_gamma 119.9734
loop_
_atom_site_label
_atom_site_type_symbol
_atom_site_fract_x
_atom_site_fract_y
_atom_site_fract_z
_atom_type_partial_charge
In0 In 0.99494 0.04544 0.05659 0.0
O1 O 0.96386 0.08182 0.06626 0.0
O2 O 0.01203 0.07917 0.07943 0.0
C3 C 0.9379 0.99818 0.03473 0.0
C4 C 0.05838 0.10923 0.04115 0.0
C5 C 0.00042 0.98458 0.07239 0.0
O6 O 0.9268 0.00698 0.04709 0.0
O7 O 0.97744 0.01356 0.0334 0.0
O8 O 0.03242 0.01506 0.06622 0.0
O9 O 0.96607 0.98495 0.07051 0.0
C10 C 0.98632 0.09292 0.07827 0.0
O11 O 0.06117 0.07782 0.04599 0.0
O12 O 0.02387 0.10804 0.04407 0.0
In13 In 0.00124 0.04043 0.38278 0.0
O14 O 0.04383 0.10745 0.37359 0.0
O15 O 0.9803 0.0725 0.36512 0.0
C16 C 0.05643 0.03577 0.4024 0.0
C17 C 0.94359 0.04038 0.40184 0.0
C18 C 0.99132 0.97875 0.36326 0.0
O19 O 0.06644 0.06854 0.39452 0.0
O20 O 0.01878 0.00569 0.40037 0.0
O21 O 0.96285 0.97369 0.37247 0.0
O22 O 0.02426 0.0151 0.36371 0.0
C23 C 0.01554 0.10675 0.3649 0.0
O24 O 0.93283 0.01529 0.39062 0.0
O25 O 0.98311 0.06512 0.40339 0.0
In26 In 0.00697 0.04099 0.72135 0.0
O27 O 0.9707 0.96958 0.72574 0.0
O28 O 0.95544 0.00874 0.73911 0.0
C29 C 0.06419 0.03173 0.70488 0.0
C30 C 0.95411 0.05541 0.70367 0.0
C31 C 0.06083 0.10222 0.74099 0.0
O32 O 0.04639 0.00943 0.71636 0.0
O33 O 0.05312 0.05876 0.70164 0.0
O34 O 0.05263 0.11051 0.72791 0.0
O35 O 0.04173 0.06315 0.74421 0.0
C36 C 0.94841 0.97166 0.73619 0.0
O37 O 0.97118 0.07627 0.71566 0.0
O38 O 0.9637 0.0273 0.70058 0.0
C39 C 0.91952 0.61372 0.31672 0.0
C40 C 0.94967 0.64891 0.30603 0.0
C41 C 0.95407 0.62397 0.28099 0.0
C42 C 0.99808 0.64685 0.27862 0.0
C43 C 0.01721 0.63106 0.26883 0.0
C44 C 0.99172 0.59147 0.26139 0.0
C45 C 0.94703 0.56932 0.26328 0.0
C46 C 0.9287 0.58636 0.27289 0.0
C47 C 0.06476 0.65609 0.26676 0.0
C48 C 0.91883 0.52683 0.25566 0.0
C49 C 0.13601 0.48601 0.32382 0.0
C50 C 0.10423 0.45638 0.31179 0.0
C51 C 0.10331 0.48128 0.28623 0.0
C52 C 0.05942 0.45807 0.28313 0.0
C53 C 0.04097 0.47212 0.27212 0.0
C54 C 0.06698 0.51034 0.26419 0.0
C55 C 0.11154 0.53273 0.26686 0.0
C56 C 0.1292 0.51738 0.2777 0.0
C57 C 0.99356 0.44679 0.26924 0.0
C58 C 0.14026 0.57381 0.25876 0.0
C59 C 0.08808 0.44045 0.16998 0.0
C60 C 0.04641 0.42175 0.17539 0.0
C61 C 0.03068 0.44708 0.18126 0.0
C62 C 0.05752 0.49189 0.18196 0.0
C63 C 0.09881 0.51085 0.17581 0.0
C64 C 0.11331 0.48477 0.16967 0.0
C65 C 0.98581 0.42587 0.1871 0.0
C66 C 0.12813 0.55851 0.1762 0.0
C67 C 0.93741 0.70406 0.17281 0.0
C68 C 0.97279 0.70918 0.16226 0.0
C69 C 0.97737 0.64455 0.16373 0.0
C70 C 0.9481 0.60152 0.16606 0.0
C71 C 0.96006 0.57519 0.17385 0.0
C72 C 0.00254 0.5924 0.17913 0.0
C73 C 0.03287 0.63534 0.176 0.0
C74 C 0.01995 0.66098 0.1683 0.0
C75 C 0.92711 0.52943 0.17686 0.0
C76 C 0.07872 0.65433 0.18108 0.0
C77 C 0.01204 0.57123 0.25288 0.0
C78 C 0.02959 0.55098 0.26133 0.0
C79 C 0.04725 0.52907 0.25427 0.0
C80 C 0.0465 0.5262 0.23827 0.0
C81 C 0.06211 0.5027 0.2308 0.0
C82 C 0.06126 0.50018 0.21505 0.0
C83 C 0.04484 0.52113 0.20615 0.0
C84 C 0.04352 0.51848 0.19011 0.0
C85 C 0.02889 0.54136 0.18161 0.0
C86 C 0.01486 0.56649 0.18872 0.0
C87 C 0.01409 0.56796 0.20474 0.0
C88 C 0.99856 0.59157 0.21225 0.0
C89 C 0.9978 0.59269 0.22802 0.0
C90 C 0.01299 0.57065 0.23687 0.0
C91 C 0.02966 0.54744 0.22954 0.0
C92 C 0.02946 0.54545 0.21346 0.0
C93 C 0.14133 0.38232 0.17486 0.0
C94 C 0.09822 0.379 0.17171 0.0
O95 O 0.93545 0.63718 0.29119 0.0
O96 O 0.96375 0.6694 0.157 0.0
O97 O 0.10495 0.41663 0.16513 0.0
O98 O 0.12143 0.47007 0.29755 0.0
H99 H 0.98171 0.65229 0.30776 0.0
H100 H 0.91925 0.58362 0.31406 0.0
H101 H 0.88655 0.608 0.31544 0.0
H102 H 0.93031 0.6226 0.3287 0.0
H103 H 0.01744 0.67682 0.28454 0.0
H104 H 0.89466 0.56935 0.27468 0.0
H105 H 0.07963 0.63963 0.27269 0.0
H106 H 0.07904 0.68898 0.2714 0.0
H107 H 0.07249 0.65781 0.25455 0.0
H108 H 0.88504 0.51253 0.25904 0.0
H109 H 0.93014 0.50426 0.25856 0.0
H110 H 0.9205 0.53083 0.24316 0.0
H111 H 0.07489 0.45865 0.31307 0.0
H112 H 0.12285 0.47576 0.33535 0.0
H113 H 0.1424 0.51905 0.32203 0.0
H114 H 0.1666 0.48607 0.32311 0.0
H115 H 0.03958 0.42921 0.28941 0.0
H116 H 0.16314 0.53465 0.28007 0.0
H117 H 0.98655 0.44281 0.25686 0.0
H118 H 0.97849 0.46437 0.27396 0.0
H119 H 0.97886 0.41483 0.27458 0.0
H120 H 0.17393 0.58839 0.26267 0.0
H121 H 0.12923 0.59704 0.26061 0.0
H122 H 0.13879 0.56774 0.24637 0.0
H123 H 0.08253 0.37426 0.1829 0.0
H124 H 0.0263 0.3874 0.1751 0.0
H125 H 0.14517 0.49881 0.1652 0.0
H126 H 0.98672 0.42722 0.19968 0.0
H127 H 0.96697 0.39193 0.18351 0.0
H128 H 0.96932 0.44295 0.183 0.0
H129 H 0.16005 0.56806 0.17164 0.0
H130 H 0.13202 0.57049 0.18803 0.0
H131 H 0.11388 0.57416 0.16938 0.0
H132 H 0.00305 0.72465 0.16897 0.0
H133 H 0.94402 0.73568 0.17707 0.0
H134 H 0.93571 0.68429 0.18272 0.0
H135 H 0.90608 0.6882 0.1668 0.0
H136 H 0.91547 0.58901 0.16222 0.0
H137 H 0.04313 0.69379 0.16584 0.0
H138 H 0.92327 0.52416 0.18929 0.0
H139 H 0.93797 0.50795 0.17232 0.0
H140 H 0.89567 0.52056 0.17166 0.0
H141 H 0.09896 0.68733 0.17688 0.0
H142 H 0.09177 0.63425 0.177 0.0
H143 H 0.08059 0.65489 0.19367 0.0
H144 H 0.02944 0.55223 0.27363 0.0
H145 H 0.07499 0.48586 0.23708 0.0
H146 H 0.07383 0.48169 0.20994 0.0
H147 H 0.02879 0.5399 0.16931 0.0
H148 H 0.98649 0.6092 0.20603 0.0
H149 H 0.98535 0.61121 0.2332 0.0
H150 H 0.15902 0.38737 0.16415 0.0
H151 H 0.13696 0.35281 0.18038 0.0
H152 H 0.16067 0.40965 0.18261 0.0
C153 C 0.38055 0.0101 0.65812 0.0
C154 C 0.37213 0.03528 0.64595 0.0
C155 C 0.39555 0.02603 0.62124 0.0
C156 C 0.42138 0.06854 0.61681 0.0
C157 C 0.45342 0.07952 0.60609 0.0
C158 C 0.45965 0.04728 0.5997 0.0
C159 C 0.43253 0.00418 0.60374 0.0
C160 C 0.40037 0.99408 0.61434 0.0
C161 C 0.48096 0.12563 0.60174 0.0
C162 C 0.43813 0.96895 0.59711 0.0
C163 C 0.80841 0.17507 0.59744 0.0
C164 C 0.76746 0.13782 0.60359 0.0
C165 C 0.69846 0.1343 0.60416 0.0
C166 C 0.67259 0.09016 0.60191 0.0
C167 C 0.63011 0.07276 0.59699 0.0
C168 C 0.61345 0.10014 0.59422 0.0
C169 C 0.63878 0.14427 0.59733 0.0
C170 C 0.68091 0.16069 0.60244 0.0
C171 C 0.60349 0.02539 0.59424 0.0
C172 C 0.62184 0.17429 0.59471 0.0
C173 C 0.65855 0.08997 0.49678 0.0
C174 C 0.63377 0.05059 0.50383 0.0
C175 C 0.5971 0.04208 0.51175 0.0
C176 C 0.58558 0.07403 0.51283 0.0
C177 C 0.60967 0.11316 0.50517 0.0
C178 C 0.64564 0.12038 0.49703 0.0
C179 C 0.57134 0.99938 0.5193 0.0
C180 C 0.59827 0.14785 0.50601 0.0
C181 C 0.26096 0.00186 0.51472 0.0
C182 C 0.29457 0.03136 0.50348 0.0
C183 C 0.35731 0.02289 0.50484 0.0
C184 C 0.36585 0.98976 0.50729 0.0
C185 C 0.40475 0.99769 0.51373 0.0
C186 C 0.43598 0.03995 0.51756 0.0
C187 C 0.4283 0.07388 0.51443 0.0
C188 C 0.38907 0.06501 0.50803 0.0
C189 C 0.41222 0.96092 0.51674 0.0
C190 C 0.46147 0.11946 0.51797 0.0
C191 C 0.49561 0.05879 0.58931 0.0
C192 C 0.53584 0.07246 0.5958 0.0
C193 C 0.57113 0.08348 0.58675 0.0
C194 C 0.56626 0.07994 0.57079 0.0
C195 C 0.60101 0.09004 0.56138 0.0
C196 C 0.59588 0.08602 0.54571 0.0
C197 C 0.5559 0.07224 0.5388 0.0
C198 C 0.5503 0.06757 0.52286 0.0
C199 C 0.51074 0.05628 0.51629 0.0
C200 C 0.4762 0.04878 0.52527 0.0
C201 C 0.48062 0.05111 0.54127 0.0
C202 C 0.44605 0.04197 0.55066 0.0
C203 C 0.45078 0.0443 0.56639 0.0
C204 C 0.49036 0.05631 0.57333 0.0
C205 C 0.52575 0.06637 0.56407 0.0
C206 C 0.52072 0.06315 0.54803 0.0
C207 C 0.76008 0.14263 0.50325 0.0
C208 C 0.72898 0.09831 0.49688 0.0
O209 O 0.36558 0.01491 0.63204 0.0
O210 O 0.31858 0.01318 0.49909 0.0
O211 O 0.69514 0.09928 0.48975 0.0
O212 O 0.74045 0.15261 0.60781 0.0
H213 H 0.40076 0.06767 0.64575 0.0
H214 H 0.40974 0.00896 0.65534 0.0
H215 H 0.3535 0.97688 0.65875 0.0
H216 H 0.38543 0.0257 0.66938 0.0
H217 H 0.41641 0.09312 0.62167 0.0
H218 H 0.37972 0.96128 0.61767 0.0
H219 H 0.51378 0.13753 0.60619 0.0
H220 H 0.46893 0.1461 0.60633 0.0
H221 H 0.48271 0.12874 0.5892 0.0
H222 H 0.41557 0.9373 0.60192 0.0
H223 H 0.47115 0.97565 0.59928 0.0
H224 H 0.43311 0.96758 0.58463 0.0
H225 H 0.75305 0.11429 0.59412 0.0
H226 H 0.8306 0.164 0.59391 0.0
H227 H 0.82444 0.20052 0.60618 0.0
H228 H 0.80088 0.18879 0.58739 0.0
H229 H 0.68557 0.06932 0.60385 0.0
H230 H 0.70097 0.19459 0.6045 0.0
H231 H 0.57219 0.01263 0.5998 0.0
H232 H 0.61937 0.00791 0.59853 0.0
H233 H 0.59734 0.01916 0.58187 0.0
H234 H 0.64555 0.20775 0.59775 0.0
H235 H 0.59292 0.1641 0.60156 0.0
H236 H 0.61249 0.17307 0.58259 0.0
H237 H 0.71757 0.07559 0.50654 0.0
H238 H 0.64327 0.02665 0.50317 0.0
H239 H 0.66484 0.15046 0.49133 0.0
H240 H 0.57666 0.00331 0.53176 0.0
H241 H 0.58029 0.97585 0.51535 0.0
H242 H 0.53683 0.98645 0.51703 0.0
H243 H 0.62156 0.17728 0.50008 0.0
H244 H 0.59669 0.15584 0.51805 0.0
H245 H 0.56631 0.13632 0.50079 0.0
H246 H 0.31459 0.06232 0.50939 0.0
H247 H 0.24122 0.01576 0.51834 0.0
H248 H 0.27679 0.99777 0.52495 0.0
H249 H 0.23992 0.96999 0.50955 0.0
H250 H 0.34143 0.95746 0.50449 0.0
H251 H 0.38359 0.09108 0.50538 0.0
H252 H 0.41777 0.95916 0.52908 0.0
H253 H 0.44124 0.9662 0.5108 0.0
H254 H 0.38492 0.92993 0.51294 0.0
H255 H 0.45132 0.1424 0.51427 0.0
H256 H 0.49172 0.12756 0.5123 0.0
H257 H 0.46804 0.12328 0.53038 0.0
H258 H 0.5398 0.07489 0.60804 0.0
H259 H 0.63261 0.10093 0.56601 0.0
H260 H 0.62381 0.09411 0.53909 0.0
H261 H 0.50685 0.05361 0.50405 0.0
H262 H 0.41485 0.03261 0.54596 0.0
H263 H 0.42306 0.03675 0.57305 0.0
H264 H 0.77245 0.16654 0.494 0.0
H265 H 0.78727 0.14247 0.50916 0.0
H266 H 0.74367 0.15224 0.51157 0.0
C267 C 0.75057 0.67515 0.83511 0.0
C268 C 0.72038 0.68102 0.8243 0.0
C269 C 0.65532 0.66004 0.83882 0.0
C270 C 0.63005 0.6751 0.845 0.0
C271 C 0.59142 0.64742 0.85199 0.0
C272 C 0.5783 0.6036 0.85312 0.0
C273 C 0.60359 0.588 0.84683 0.0
C274 C 0.64165 0.61628 0.83962 0.0
C275 C 0.56486 0.66509 0.85828 0.0
C276 C 0.59056 0.54144 0.84779 0.0
C277 C 0.30585 0.35981 0.79712 0.0
C278 C 0.34416 0.39251 0.8056 0.0
C279 C 0.365 0.43169 0.82929 0.0
C280 C 0.39503 0.42183 0.8353 0.0
C281 C 0.42681 0.4496 0.84547 0.0
C282 C 0.42875 0.4882 0.84967 0.0
C283 C 0.3977 0.49765 0.84403 0.0
C284 C 0.36577 0.46887 0.83402 0.0
C285 C 0.45853 0.43779 0.85168 0.0
C286 C 0.39866 0.53832 0.84844 0.0
C287 C 0.3351 0.42588 0.94245 0.0
C288 C 0.36405 0.41169 0.93971 0.0
C289 C 0.40486 0.43984 0.9343 0.0
C290 C 0.41685 0.48293 0.93168 0.0
C291 C 0.38872 0.49783 0.93538 0.0
C292 C 0.34821 0.46904 0.94083 0.0
C293 C 0.43468 0.42333 0.93088 0.0
C294 C 0.40083 0.54375 0.93297 0.0
C295 C 0.75967 0.69778 0.94478 0.0
C296 C 0.72133 0.70151 0.94959 0.0
C297 C 0.6506 0.63888 0.94939 0.0
C298 C 0.63372 0.59501 0.94778 0.0
C299 C 0.59431 0.56969 0.94046 0.0
C300 C 0.57087 0.5888 0.93506 0.0
C301 C 0.58637 0.63269 0.93776 0.0
C302 C 0.62636 0.65741 0.9448 0.0
C303 C 0.57854 0.5229 0.93796 0.0
C304 C 0.56142 0.65376 0.93273 0.0
C305 C 0.53874 0.57432 0.86124 0.0
C306 C 0.50225 0.54798 0.85262 0.0
C307 C 0.46425 0.519 0.85957 0.0
C308 C 0.46189 0.51729 0.87557 0.0
C309 C 0.42379 0.48954 0.88291 0.0
C310 C 0.42195 0.48782 0.89866 0.0
C311 C 0.45834 0.51328 0.90769 0.0
C312 C 0.45694 0.51134 0.92372 0.0
C313 C 0.49377 0.53659 0.93236 0.0
C314 C 0.53238 0.56384 0.92538 0.0
C315 C 0.53435 0.56642 0.90935 0.0
C316 C 0.57274 0.59324 0.90195 0.0
C317 C 0.57425 0.59599 0.88622 0.0
C318 C 0.53754 0.5717 0.87724 0.0
C319 C 0.49878 0.54359 0.88443 0.0
C320 C 0.49712 0.5412 0.90051 0.0
C321 C 0.22819 0.3493 0.93539 0.0
C322 C 0.26964 0.35637 0.94277 0.0
O323 O 0.69262 0.68893 0.83243 0.0
O324 O 0.69051 0.66258 0.95523 0.0
O325 O 0.29438 0.39911 0.94662 0.0
O326 O 0.33483 0.40561 0.81909 0.0
H327 H 0.70215 0.6516 0.81732 0.0
H328 H 0.73249 0.647 0.84245 0.0
H329 H 0.76852 0.70354 0.84255 0.0
H330 H 0.77353 0.67001 0.82852 0.0
H331 H 0.64075 0.70884 0.8443 0.0
H332 H 0.66061 0.60391 0.83485 0.0
H333 H 0.53121 0.64532 0.85444 0.0
H334 H 0.5767 0.6986 0.85477 0.0
H335 H 0.56549 0.664 0.87085 0.0
H336 H 0.61622 0.53534 0.84414 0.0
H337 H 0.56222 0.52267 0.84037 0.0
H338 H 0.58165 0.52977 0.85958 0.0
H339 H 0.36772 0.41983 0.79872 0.0
H340 H 0.31331 0.30587 0.79732 0.0
H341 H 0.30495 0.37603 0.78632 0.0
H342 H 0.2775 0.35986 0.80217 0.0
H343 H 0.39356 0.39226 0.83222 0.0
H344 H 0.34199 0.47586 0.8295 0.0
H345 H 0.45837 0.4381 0.86428 0.0
H346 H 0.49103 0.46172 0.84808 0.0
H347 H 0.45167 0.40581 0.84777 0.0
H348 H 0.37187 0.54074 0.84325 0.0
H349 H 0.42913 0.56612 0.84484 0.0
H350 H 0.39716 0.5401 0.86097 0.0
H351 H 0.28564 0.34691 0.93418 0.0
H352 H 0.35482 0.37869 0.94169 0.0
H353 H 0.3259 0.47979 0.94331 0.0
H354 H 0.44019 0.42494 0.91847 0.0
H355 H 0.42192 0.38986 0.93461 0.0
H356 H 0.46597 0.4437 0.93657 0.0
H357 H 0.37634 0.55084 0.93723 0.0
H358 H 0.40521 0.55116 0.92068 0.0
H359 H 0.43161 0.56508 0.93882 0.0
H360 H 0.70935 0.71013 0.93923 0.0
H361 H 0.78472 0.72848 0.94005 0.0
H362 H 0.74974 0.67281 0.93587 0.0
H363 H 0.77321 0.68894 0.95459 0.0
H364 H 0.65248 0.581 0.95165 0.0
H365 H 0.63887 0.69122 0.9466 0.0
H366 H 0.57326 0.5153 0.92565 0.0
H367 H 0.54753 0.50368 0.94363 0.0
H368 H 0.60121 0.51323 0.94246 0.0
H369 H 0.57424 0.68596 0.93785 0.0
H370 H 0.52746 0.63383 0.93583 0.0
H371 H 0.56277 0.65703 0.9202 0.0
H372 H 0.50376 0.54926 0.84033 0.0
H373 H 0.39488 0.46904 0.87655 0.0
H374 H 0.39163 0.46601 0.90366 0.0
H375 H 0.49242 0.53479 0.94464 0.0
H376 H 0.60213 0.61256 0.90821 0.0
H377 H 0.60469 0.61728 0.8812 0.0
H378 H 0.20785 0.31541 0.93192 0.0
H379 H 0.23539 0.3694 0.92511 0.0
H380 H 0.21029 0.35802 0.94338 0.0
C381 C 0.00712 0.12927 0.10346 0.0
C382 C 0.98591 0.12298 0.08944 0.0
C383 C 0.01165 0.16134 0.11335 0.0
C384 C 0.99515 0.18798 0.10941 0.0
C385 C 0.97295 0.18093 0.09556 0.0
C386 C 0.96797 0.14842 0.08572 0.0
C387 C 0.00469 0.2259 0.11875 0.0
C388 C 0.01212 0.22783 0.13381 0.0
C389 C 0.02954 0.26773 0.14289 0.0
C390 C 0.02381 0.26482 0.15864 0.0
C391 C 0.04438 0.30117 0.16782 0.0
C392 C 0.07134 0.34123 0.16144 0.0
H393 H 0.06211 0.31145 0.12441 0.0
C394 C 0.07658 0.34435 0.14564 0.0
C395 C 0.05575 0.30803 0.13644 0.0
H396 H 0.09801 0.37464 0.14046 0.0
H397 H 0.02144 0.11025 0.10659 0.0
H398 H 0.02999 0.16646 0.12371 0.0
H399 H 0.9603 0.20126 0.09218 0.0
H400 H 0.95173 0.14446 0.07492 0.0
H401 H 0.00652 0.25322 0.11293 0.0
H402 H 0.00612 0.19915 0.1398 0.0
H403 H 0.00429 0.23414 0.16392 0.0
H404 H 0.04041 0.29779 0.17999 0.0
C405 C 0.92697 0.0663 0.42555 0.0
C406 C 0.91263 0.04156 0.41224 0.0
C407 C 0.89817 0.06879 0.43524 0.0
C408 C 0.85432 0.04662 0.43179 0.0
C409 C 0.83999 0.02201 0.41845 0.0
C410 C 0.86882 0.01914 0.40883 0.0
C411 C 0.82338 0.05077 0.44146 0.0
C412 C 0.8291 0.0574 0.45655 0.0
C413 C 0.80039 0.06498 0.46624 0.0
C414 C 0.79784 0.05493 0.48171 0.0
C415 C 0.77357 0.06443 0.49141 0.0
C416 C 0.75157 0.08455 0.48588 0.0
H417 H 0.78072 0.09459 0.4489 0.0
C418 C 0.75441 0.095 0.47041 0.0
C419 C 0.7783 0.08504 0.46065 0.0
H420 H 0.73888 0.11167 0.46589 0.0
H421 H 0.96058 0.08411 0.42844 0.0
H422 H 0.91054 0.08908 0.44518 0.0
H423 H 0.80641 0.00498 0.41547 0.0
H424 H 0.8569 -0.0 0.3986 0.0
H425 H 0.79477 0.04734 0.43602 0.0
H426 H 0.85549 0.05647 0.46216 0.0
H427 H 0.81506 0.04008 0.48634 0.0
H428 H 0.77271 0.05691 0.50335 0.0
C429 C 0.89187 0.93727 0.75569 0.0
C430 C 0.91758 0.93381 0.74468 0.0
C431 C 0.86391 0.90177 0.76415 0.0
C432 C 0.86154 0.86213 0.76189 0.0
C433 C 0.88643 0.85857 0.75056 0.0
C434 C 0.91421 0.89401 0.74206 0.0
C435 C 0.83357 0.8238 0.771 0.0
C436 C 0.81938 0.82577 0.78486 0.0
C437 C 0.79349 0.78791 0.7945 0.0
C438 C 0.79054 0.79446 0.81003 0.0
C439 C 0.76692 0.76008 0.8196 0.0
C440 C 0.74555 0.71822 0.81386 0.0
H441 H 0.77164 0.73933 0.77676 0.0
C442 C 0.74806 0.71153 0.79831 0.0
C443 C 0.77148 0.74597 0.7887 0.0
H444 H 0.73166 0.67961 0.79357 0.0
H445 H 0.89341 0.96745 0.75781 0.0
H446 H 0.84417 0.90567 0.77233 0.0
H447 H 0.88494 0.82839 0.74845 0.0
H448 H 0.9335 0.89034 0.73359 0.0
H449 H 0.82701 0.7933 0.76644 0.0
H450 H 0.82903 0.85667 0.78988 0.0
H451 H 0.80682 0.82633 0.81482 0.0
H452 H 0.76538 0.76615 0.83154 0.0
C453 C 0.96586 0.9187 0.08807 0.0
C454 C 0.00282 0.95164 0.08156 0.0
C455 C 0.96791 0.88845 0.09731 0.0
C456 C 0.00705 0.89025 0.10018 0.0
C457 C 0.04399 0.92312 0.0936 0.0
C458 C 0.04191 0.95343 0.08431 0.0
C459 C 0.01079 0.86026 0.11078 0.0
C460 C 0.97796 0.8213 0.11399 0.0
C461 C 0.97976 0.79275 0.12576 0.0
C462 C 0.00952 0.80824 0.13786 0.0
C463 C 0.00788 0.78091 0.14937 0.0
C464 C 0.97659 0.73757 0.14907 0.0
H465 H 0.92488 0.73665 0.11641 0.0
C466 C 0.94694 0.72205 0.13698 0.0
C467 C 0.94856 0.74936 0.12546 0.0
H468 H 0.92198 0.68895 0.13661 0.0
H469 H 0.9353 0.91667 0.08624 0.0
H470 H 0.93889 0.86463 0.10254 0.0
H471 H 0.07462 0.92556 0.09574 0.0
H472 H 0.07096 0.97858 0.07949 0.0
H473 H 0.04182 0.87074 0.11595 0.0
H474 H 0.94819 0.80936 0.10769 0.0
H475 H 0.03317 0.84164 0.13886 0.0
H476 H 0.03053 0.79389 0.15873 0.0
C477 C 0.12739 0.06728 0.4157 0.0
C478 C 0.08613 0.03271 0.41328 0.0
C479 C 0.15508 0.06424 0.42618 0.0
C480 C 0.14187 0.02652 0.4345 0.0
C481 C 0.10088 0.99183 0.43182 0.0
C482 C 0.07325 0.9949 0.42139 0.0
C483 C 0.16972 0.02159 0.44589 0.0
C484 C 0.2027 0.05452 0.45312 0.0
C485 C 0.22789 0.04867 0.46538 0.0
C486 C 0.24802 0.08058 0.4765 0.0
C487 C 0.27023 0.07535 0.48861 0.0
C488 C 0.27339 0.03833 0.48973 0.0
H489 H 0.21811 0.98729 0.45772 0.0
C490 C 0.25414 0.0068 0.47842 0.0
C491 C 0.23194 0.01202 0.46631 0.0
H492 H 0.2559 0.97785 0.47905 0.0
H493 H 0.1383 0.09669 0.4095 0.0
H494 H 0.18682 0.09128 0.42755 0.0
H495 H 0.08994 0.96228 0.43795 0.0
H496 H 0.04172 0.96761 0.41971 0.0
H497 H 0.16057 0.98926 0.44917 0.0
H498 H 0.20957 0.08682 0.45092 0.0
H499 H 0.24566 0.10923 0.47602 0.0
H500 H 0.28445 0.1 0.49724 0.0
C501 C 0.11459 0.17815 0.74695 0.0
C502 C 0.0916 0.13538 0.75149 0.0
C503 C 0.14564 0.20908 0.75654 0.0
C504 C 0.15437 0.19772 0.77087 0.0
C505 C 0.1301 0.15528 0.77562 0.0
C506 C 0.09919 0.12435 0.76601 0.0
C507 C 0.18909 0.22884 0.78099 0.0
C508 C 0.22442 0.26273 0.77572 0.0
C509 C 0.26169 0.28979 0.78546 0.0
C510 C 0.31196 0.32014 0.77607 0.0
C511 C 0.36012 0.35232 0.78679 0.0
C512 C 0.35198 0.35852 0.80719 0.0
H513 H 0.22756 0.26848 0.8113 0.0
C514 C 0.30414 0.3192 0.81769 0.0
C515 C 0.25779 0.28808 0.80592 0.0
H516 H 0.30168 0.32113 0.82985 0.0
H517 H 0.10906 0.18767 0.73588 0.0
H518 H 0.16268 0.24172 0.75266 0.0
H519 H 0.13588 0.14573 0.78665 0.0
H520 H 0.08174 0.09167 0.76988 0.0
H521 H 0.18716 0.22099 0.79294 0.0
H522 H 0.22821 0.26881 0.76363 0.0
H523 H 0.31324 0.31883 0.76385 0.0
H524 H 0.38962 0.37345 0.78119 0.0
C525 C 0.90789 0.03986 0.68054 0.0
C526 C 0.92606 0.064 0.6938 0.0
C527 C 0.88298 0.04925 0.67081 0.0
C528 C 0.87555 0.08295 0.67419 0.0
C529 C 0.8934 0.1067 0.68755 0.0
C530 C 0.91822 0.09723 0.69729 0.0
C531 C 0.85241 0.09649 0.66356 0.0
C532 C 0.82469 0.07097 0.65278 0.0
C533 C 0.80622 0.08657 0.64096 0.0
C534 C 0.79411 0.06532 0.6269 0.0
C535 C 0.78024 0.08109 0.615 0.0
C536 C 0.77753 0.11809 0.61698 0.0
H537 H 0.80931 0.13912 0.65394 0.0
C538 C 0.78788 0.13839 0.63123 0.0
C539 C 0.80179 0.12266 0.64314 0.0
H540 H 0.7861 0.16702 0.63305 0.0
H541 H 0.91358 0.01418 0.67752 0.0
H542 H 0.87104 0.03093 0.66043 0.0
H543 H 0.88852 0.13303 0.69038 0.0
H544 H 0.93185 0.11643 0.70743 0.0
H545 H 0.85992 0.1294 0.66446 0.0
H546 H 0.81715 0.03805 0.65187 0.0
H547 H 0.79687 0.03728 0.62494 0.0
H548 H 0.77265 0.06496 0.6041 0.0
C549 C 0.86407 0.94375 0.02638 0.0
C550 C 0.90728 0.97008 0.02302 0.0
C551 C 0.83614 0.91418 0.01567 0.0
C552 C 0.851 0.91079 0.00137 0.0
C553 C 0.89369 0.93867 0.99779 0.0
C554 C 0.92167 0.96772 0.00855 0.0
C555 C 0.82346 0.87792 0.99004 0.0
C556 C 0.7922 0.83884 0.99397 0.0
C557 C 0.77018 0.80369 0.98275 0.0
C558 C 0.75681 0.76178 0.98732 0.0
C559 C 0.73974 0.72841 0.97675 0.0
C560 C 0.7348 0.7362 0.96144 0.0
H561 H 0.77281 0.84301 0.96368 0.0
C562 C 0.74661 0.77787 0.95698 0.0
C563 C 0.76392 0.81128 0.96753 0.0
H564 H 0.74336 0.78475 0.94523 0.0
H565 H 0.85211 0.94511 0.03743 0.0
H566 H 0.80311 0.89393 0.01863 0.0
H567 H 0.90583 0.93697 0.98681 0.0
H568 H 0.95476 0.98789 0.0056 0.0
H569 H 0.83264 0.88449 0.97824 0.0
H570 H 0.78597 0.83087 0.00589 0.0
H571 H 0.76116 0.75507 0.99899 0.0
H572 H 0.73148 0.69671 0.98047 0.0
C573 C 0.95144 0.90339 0.35387 0.0
C574 C 0.98783 0.94404 0.35349 0.0
C575 C 0.94979 0.86959 0.34567 0.0
C576 C 0.98453 0.87589 0.33685 0.0
C577 C 0.02047 0.9168 0.33624 0.0
C578 C 0.02207 0.95058 0.34441 0.0
C579 C 0.986 0.84007 0.32925 0.0
C580 C 0.95111 0.80284 0.3255 0.0
C581 C 0.95306 0.76553 0.31953 0.0
C582 C 0.91814 0.7341 0.31123 0.0
C583 C 0.91752 0.69704 0.30643 0.0
C584 C 0.95179 0.69056 0.30992 0.0
H585 H 0.01435 0.78175 0.32973 0.0
C586 C 0.98679 0.72201 0.31816 0.0
C587 C 0.98749 0.7591 0.32292 0.0
H588 H 0.01325 0.71745 0.32125 0.0
H589 H 0.92468 0.89736 0.36085 0.0
H590 H 0.92195 0.83839 0.34681 0.0
H591 H 0.0478 0.92252 0.32964 0.0
H592 H 0.05062 0.98156 0.34392 0.0
H593 H 0.01725 0.84487 0.32663 0.0
H594 H 0.91979 0.79935 0.32672 0.0
H595 H 0.89098 0.73797 0.30863 0.0
H596 H 0.88987 0.67297 0.30028 0.0
C597 C 0.11798 0.05503 0.68425 0.0
C598 C 0.096 0.02696 0.69612 0.0
C599 C 0.1491 0.05128 0.67633 0.0
C600 C 0.15886 0.01933 0.68017 0.0
C601 C 0.13595 0.99058 0.69173 0.0
C602 C 0.10504 0.99449 0.6997 0.0
C603 C 0.19259 0.01491 0.67242 0.0
C604 C 0.22683 0.04791 0.6661 0.0
C605 C 0.26282 0.04426 0.65995 0.0
C606 C 0.30374 0.08026 0.66034 0.0
C607 C 0.33884 0.07755 0.65552 0.0
C608 C 0.33364 0.03891 0.64994 0.0
H609 H 0.22615 0.97775 0.65303 0.0
C610 C 0.29248 0.0032 0.64904 0.0
C611 C 0.25738 0.00584 0.65395 0.0
H612 H 0.28761 0.97305 0.64475 0.0
H613 H 0.11137 0.08013 0.68115 0.0
H614 H 0.16512 0.07323 0.66717 0.0
H615 H 0.14253 0.96546 0.69483 0.0
H616 H 0.08841 0.97218 0.70872 0.0
H617 H 0.19085 0.98414 0.67316 0.0
H618 H 0.23069 0.0796 0.66668 0.0
H619 H 0.30879 0.11031 0.66481 0.0
H620 H 0.37019 0.10554 0.65639 0.0
C621 C 0.12749 0.14254 0.02721 0.0
C622 C 0.09207 0.14446 0.03242 0.0
C623 C 0.15782 0.17525 0.0182 0.0
C624 C 0.15311 0.21044 0.01429 0.0
C625 C 0.11852 0.21287 0.02004 0.0
C626 C 0.08824 0.18022 0.02892 0.0
C627 C 0.18246 0.24489 0.00402 0.0
C628 C 0.20662 0.24021 0.99357 0.0
C629 C 0.22864 0.27221 0.98146 0.0
C630 C 0.23523 0.25837 0.96743 0.0
C631 C 0.25048 0.28624 0.95513 0.0
C632 C 0.25988 0.32866 0.95668 0.0
H633 H 0.2376 0.32785 0.99403 0.0
C634 C 0.25537 0.34312 0.97094 0.0
C635 C 0.24055 0.31541 0.98325 0.0
H636 H 0.26216 0.37559 0.9725 0.0
H637 H 0.1314 0.11547 0.02987 0.0
H638 H 0.18468 0.17276 0.01435 0.0
H639 H 0.11423 0.2397 0.01734 0.0
H640 H 0.06151 0.18284 0.03289 0.0
H641 H 0.18022 0.27366 0.00401 0.0
H642 H 0.20617 0.21012 0.99264 0.0
H643 H 0.22669 0.22539 0.96575 0.0
H644 H 0.25338 0.27422 0.94424 0.0
C645 C 0.06201 0.18149 0.35601 0.0
C646 C 0.02242 0.14373 0.3557 0.0
C647 C 0.06772 0.2174 0.34809 0.0
C648 C 0.03392 0.21618 0.33961 0.0
C649 C 0.99454 0.17817 0.33916 0.0
C650 C 0.98888 0.14224 0.34705 0.0
C651 C 0.0375 0.25472 0.3322 0.0
C652 C 0.07485 0.2885 0.32815 0.0
C653 C 0.07923 0.32927 0.32259 0.0
C654 C 0.11621 0.35773 0.31482 0.0
C655 C 0.1236 0.39817 0.31077 0.0
C656 C 0.09412 0.41103 0.31443 0.0
H657 H 0.02113 0.32174 0.33242 0.0
C658 C 0.05681 0.38242 0.32198 0.0
C659 C 0.04938 0.34198 0.32603 0.0
H660 H 0.03396 0.39184 0.32519 0.0
H661 H 0.08836 0.18365 0.36266 0.0
H662 H 0.0982 0.24635 0.34915 0.0
H663 H 0.96786 0.17642 0.33285 0.0
H664 H 0.95794 0.11359 0.34663 0.0
H665 H 0.00809 0.25496 0.33003 0.0
H666 H 0.10372 0.28655 0.32896 0.0
H667 H 0.13996 0.34902 0.31217 0.0
H668 H 0.15295 0.41988 0.30516 0.0
loop_
_geom_bond_atom_site_label_1
_geom_bond_atom_site_label_2
_geom_bond_distance
_geom_bond_site_symmetry_2
_ccdc_geom_bond_type
In0 O1 2.294 1_455 S
In0 O2 2.326 . S
In0 O6 2.266 1_455 S
In0 O7 2.326 1_445 S
In0 O8 2.266 . S
In0 O9 2.326 1_445 S
In0 O11 2.294 . S
In0 O12 2.326 . S
O1 In0 2.294 1_655 S
O1 C10 1.240 1_655 S
O2 In0 2.326 . S
O2 C10 1.252 . S
C3 O6 1.252 1_565 S
C3 O7 1.260 . S
C4 O11 1.240 . S
C4 O12 1.252 . S
C5 O8 1.252 1_565 S
C5 O9 1.260 1_455 S
O6 In0 2.266 1_655 S
O6 C3 1.252 1_545 S
O7 In0 2.326 1_665 S
O7 C3 1.260 . S
O8 In0 2.266 . S
O8 C5 1.252 1_545 S
O9 In0 2.326 1_665 S
O9 C5 1.260 1_655 S
C10 O1 1.240 1_455 S
C10 O2 1.252 . S
O11 In0 2.294 . S
O11 C4 1.240 . S
O12 In0 2.326 . S
O12 C4 1.252 . S
In13 O14 2.294 . S
In13 O15 2.326 1_455 S
In13 O19 2.266 . S
In13 O20 2.326 . S
In13 O21 2.266 1_445 S
In13 O22 2.326 . S
In13 O24 2.294 1_455 S
In13 O25 2.326 1_455 S
O14 In13 2.294 . S
O14 C23 1.240 . S
O15 In13 2.326 1_655 S
O15 C23 1.252 1_655 S
C16 O19 1.252 . S
C16 O20 1.260 . S
C17 O24 1.240 . S
C17 O25 1.252 . S
C18 O21 1.252 1_455 S
C18 O22 1.260 1_565 S
O19 In13 2.266 . S
O19 C16 1.252 . S
O20 In13 2.326 . S
O20 C16 1.260 . S
O21 In13 2.266 1_665 S
O21 C18 1.252 1_655 S
O22 In13 2.326 . S
O22 C18 1.260 1_545 S
C23 O14 1.240 . S
C23 O15 1.252 1_455 S
O24 In13 2.294 1_655 S
O24 C17 1.240 . S
O25 In13 2.326 1_655 S
O25 C17 1.252 . S
In26 O27 2.294 1_445 S
In26 O28 2.326 1_455 S
In26 O32 2.266 . S
In26 O33 2.326 . S
In26 O34 2.266 . S
In26 O35 2.326 . S
In26 O37 2.294 1_455 S
In26 O38 2.326 1_455 S
O27 In26 2.294 1_665 S
O27 C36 1.240 . S
O28 In26 2.326 1_655 S
O28 C36 1.252 1_545 S
C29 O32 1.252 . S
C29 O33 1.260 . S
C30 O37 1.240 . S
C30 O38 1.252 . S
C31 O34 1.252 . S
C31 O35 1.260 . S
O32 In26 2.266 . S
O32 C29 1.252 . S
O33 In26 2.326 . S
O33 C29 1.260 . S
O34 In26 2.266 . S
O34 C31 1.252 . S
O35 In26 2.326 . S
O35 C31 1.260 . S
C36 O27 1.240 . S
C36 O28 1.252 1_565 S
O37 In26 2.294 1_655 S
O37 C30 1.240 . S
O38 In26 2.326 1_655 S
O38 C30 1.252 . S
C39 C40 1.560 . S
C39 H100 0.959 . S
C39 H101 0.959 . S
C39 H102 0.960 . S
C40 C39 1.560 . S
C40 O95 1.426 . S
C40 H99 0.980 1_655 S
C41 C42 1.407 1_655 S
C41 C46 1.418 . S
C41 O95 1.334 . S
C42 C41 1.407 1_455 S
C42 C43 1.360 . S
C42 H103 0.929 . S
C43 C42 1.360 . S
C43 C44 1.401 . S
C43 C47 1.527 . S
C44 C43 1.401 . S
C44 C45 1.405 1_455 S
C44 C77 1.587 . S
C45 C44 1.405 1_655 S
C45 C46 1.332 . S
C45 C48 1.496 . S
C46 C41 1.418 . S
C46 C45 1.332 . S
C46 H104 0.929 . S
C47 C43 1.527 . S
C47 H105 0.959 . S
C47 H106 0.961 . S
C47 H107 0.961 . S
C48 C45 1.496 . S
C48 H108 0.960 . S
C48 H109 0.960 . S
C48 H110 0.961 . S
C49 C50 1.517 . S
C49 H112 0.961 . S
C49 H113 0.960 . S
C49 H114 0.959 . S
C50 C49 1.517 . S
C50 O98 1.468 . S
C50 H111 0.980 . S
C51 C52 1.349 . S
C51 C56 1.367 . S
C51 O98 1.408 . S
C52 C51 1.349 . S
C52 C53 1.407 . S
C52 H115 0.930 . S
C53 C52 1.407 . S
C53 C54 1.449 . S
C53 C57 1.535 1_455 S
C54 C53 1.449 . S
C54 C55 1.384 . S
C54 C79 1.553 . S
C55 C54 1.384 . S
C55 C56 1.364 . S
C55 C58 1.450 . S
C56 C51 1.367 . S
C56 C55 1.364 . S
C56 H116 0.931 . S
C57 C53 1.535 1_655 S
C57 H117 0.959 . S
C57 H118 0.961 . S
C57 H119 0.959 . S
C58 C55 1.450 . S
C58 H120 0.960 . S
C58 H121 0.960 . S
C58 H122 0.960 . S
C59 C60 1.309 . S
C59 C64 1.304 . S
C59 O97 1.435 . S
C60 C59 1.309 . S
C60 C61 1.476 . S
C60 H124 0.930 1_455 S
C61 C60 1.476 . S
C61 C62 1.400 . S
C61 C65 1.567 1_455 S
C62 C61 1.400 . S
C62 C63 1.373 . S
C62 C84 1.432 . S
C63 C62 1.373 . S
C63 C64 1.339 . S
C63 C66 1.530 . S
C64 C59 1.304 . S
C64 C63 1.339 . S
C64 H125 0.930 . S
C65 C61 1.567 1_655 S
C65 H126 0.961 . S
C65 H127 0.960 . S
C65 H128 0.958 . S
C66 C63 1.530 . S
C66 H129 0.961 . S
C66 H130 0.960 . S
C66 H131 0.960 . S
C67 C68 1.530 1_655 S
C67 H133 0.961 . S
C67 H134 0.961 . S
C67 H135 0.959 . S
C68 C67 1.530 1_455 S
C68 O96 1.412 1_455 S
C68 H132 0.980 . S
C69 C70 1.288 . S
C69 C74 1.377 1_655 S
C69 O96 1.393 . S
C70 C69 1.288 . S
C70 C71 1.369 . S
C70 H136 0.932 . S
C71 C70 1.369 . S
C71 C72 1.398 1_655 S
C71 C75 1.527 . S
C72 C71 1.398 1_455 S
C72 C73 1.380 . S
C72 C86 1.497 . S
C73 C72 1.380 . S
C73 C74 1.383 . S
C73 C76 1.603 . S
C74 C69 1.377 1_455 S
C74 C73 1.383 . S
C74 H137 0.929 . S
C75 C71 1.527 . S
C75 H138 0.961 . S
C75 H139 0.959 . S
C75 H140 0.959 . S
C76 C73 1.603 . S
C76 H141 0.960 . S
C76 H142 0.962 . S
C76 H143 0.961 . S
C77 C44 1.587 . S
C77 C78 1.360 . S
C77 C90 1.412 . S
C78 C77 1.360 . S
C78 C79 1.365 . S
C78 H144 0.929 . S
C79 C54 1.553 . S
C79 C78 1.365 . S
C79 C80 1.404 . S
C80 C79 1.404 . S
C80 C81 1.395 . S
C80 C91 1.451 . S
C81 C80 1.395 . S
C81 C82 1.322 . S
C81 H145 0.930 . S
C82 C81 1.322 . S
C82 C83 1.459 . S
C82 H146 0.929 . S
C83 C82 1.459 . S
C83 C84 1.445 . S
C83 C92 1.395 . S
C84 C62 1.432 . S
C84 C83 1.445 . S
C84 C85 1.370 . S
C85 C84 1.370 . S
C85 C86 1.438 . S
C85 H147 0.930 . S
C86 C72 1.497 . S
C86 C85 1.438 . S
C86 C87 1.360 . S
C87 C86 1.360 . S
C87 C88 1.401 . S
C87 C92 1.446 . S
C88 C87 1.401 . S
C88 C89 1.347 . S
C88 H148 0.929 . S
C89 C88 1.347 . S
C89 C90 1.455 . S
C89 H149 0.930 . S
C90 C77 1.412 . S
C90 C89 1.455 . S
C90 C91 1.331 . S
C91 C80 1.451 . S
C91 C90 1.331 . S
C91 C92 1.497 . S
C92 C83 1.395 . S
C92 C87 1.446 . S
C92 C91 1.497 . S
C93 C94 1.582 . S
C93 H150 0.962 . S
C93 H151 0.959 . S
C93 H152 0.958 . S
C94 C93 1.582 . S
C94 O97 1.458 . S
C94 H123 0.980 . S
O95 C40 1.426 . S
O95 C41 1.334 . S
O96 C68 1.412 1_655 S
O96 C69 1.393 . S
O97 C59 1.435 . S
O97 C94 1.458 . S
O98 C50 1.468 . S
O98 C51 1.408 . S
H99 C40 0.980 1_455 S
H100 C39 0.959 . S
H101 C39 0.959 . S
H102 C39 0.960 . S
H103 C42 0.929 . S
H104 C46 0.929 . S
H105 C47 0.959 . S
H106 C47 0.961 . S
H107 C47 0.961 . S
H108 C48 0.960 . S
H109 C48 0.960 . S
H110 C48 0.961 . S
H111 C50 0.980 . S
H112 C49 0.961 . S
H113 C49 0.960 . S
H114 C49 0.959 . S
H115 C52 0.930 . S
H116 C56 0.931 . S
H117 C57 0.959 . S
H118 C57 0.961 . S
H119 C57 0.959 . S
H120 C58 0.960 . S
H121 C58 0.960 . S
H122 C58 0.960 . S
H123 C94 0.980 . S
H124 C60 0.930 1_655 S
H125 C64 0.930 . S
H126 C65 0.961 . S
H127 C65 0.960 . S
H128 C65 0.958 . S
H129 C66 0.961 . S
H130 C66 0.960 . S
H131 C66 0.960 . S
H132 C68 0.980 . S
H133 C67 0.961 . S
H134 C67 0.961 . S
H135 C67 0.959 . S
H136 C70 0.932 . S
H137 C74 0.929 . S
H138 C75 0.961 . S
H139 C75 0.959 . S
H140 C75 0.959 . S
H141 C76 0.960 . S
H142 C76 0.962 . S
H143 C76 0.961 . S
H144 C78 0.929 . S
H145 C81 0.930 . S
H146 C82 0.929 . S
H147 C85 0.930 . S
H148 C88 0.929 . S
H149 C89 0.930 . S
H150 C93 0.962 . S
H151 C93 0.959 . S
H152 C93 0.958 . S
C153 C154 1.560 1_565 S
C153 H214 0.959 . S
C153 H215 0.959 . S
C153 H216 0.960 1_565 S
C154 C153 1.560 1_545 S
C154 O209 1.426 . S
C154 H213 0.980 . S
C155 C156 1.407 . S
C155 C160 1.418 1_545 S
C155 O209 1.334 . S
C156 C155 1.407 . S
C156 C157 1.360 . S
C156 H217 0.929 . S
C157 C156 1.360 . S
C157 C158 1.401 . S
C157 C161 1.527 . S
C158 C157 1.401 . S
C158 C159 1.405 . S
C158 C191 1.587 . S
C159 C158 1.405 . S
C159 C160 1.332 1_545 S
C159 C162 1.496 1_545 S
C160 C155 1.418 1_565 S
C160 C159 1.332 1_565 S
C160 H218 0.929 . S
C161 C157 1.527 . S
C161 H219 0.959 . S
C161 H220 0.961 . S
C161 H221 0.961 . S
C162 C159 1.496 1_565 S
C162 H222 0.960 . S
C162 H223 0.960 . S
C162 H224 0.961 . S
C163 C164 1.517 . S
C163 H226 0.961 . S
C163 H227 0.960 . S
C163 H228 0.959 . S
C164 C163 1.517 . S
C164 O212 1.468 . S
C164 H225 0.980 . S
C165 C166 1.349 . S
C165 C170 1.367 . S
C165 O212 1.408 . S
C166 C165 1.349 . S
C166 C167 1.407 . S
C166 H229 0.930 . S
C167 C166 1.407 . S
C167 C168 1.449 . S
C167 C171 1.535 . S
C168 C167 1.449 . S
C168 C169 1.384 . S
C168 C193 1.553 . S
C169 C168 1.384 . S
C169 C170 1.364 . S
C169 C172 1.450 . S
C170 C165 1.367 . S
C170 C169 1.364 . S
C170 H230 0.931 . S
C171 C167 1.535 . S
C171 H231 0.959 . S
C171 H232 0.961 1_545 S
C171 H233 0.959 1_545 S
C172 C169 1.450 . S
C172 H234 0.960 . S
C172 H235 0.960 . S
C172 H236 0.960 . S
C173 C174 1.309 . S
C173 C178 1.304 . S
C173 O211 1.435 . S
C174 C173 1.309 . S
C174 C175 1.476 . S
C174 H238 0.930 . S
C175 C174 1.476 . S
C175 C176 1.400 . S
C175 C179 1.546 1_545 S
C176 C175 1.400 . S
C176 C177 1.373 . S
C176 C198 1.432 . S
C177 C176 1.373 . S
C177 C178 1.339 . S
C177 C180 1.530 . S
C178 C173 1.304 . S
C178 C177 1.339 . S
C178 H239 0.930 . S
C179 C175 1.546 1_565 S
C179 H240 0.949 1_565 S
C179 H241 0.988 . S
C179 H242 0.964 . S
C180 C177 1.530 . S
C180 H243 0.961 . S
C180 H244 0.960 . S
C180 H245 0.960 . S
C181 C182 1.530 . S
C181 H247 0.961 . S
C181 H248 0.961 1_545 S
C181 H249 0.959 1_545 S
C182 C181 1.530 . S
C182 O210 1.412 . S
C182 H246 0.980 . S
C183 C184 1.288 1_545 S
C183 C188 1.377 . S
C183 O210 1.393 . S
C184 C183 1.288 1_565 S
C184 C185 1.369 1_565 S
C184 H250 0.932 . S
C185 C184 1.369 1_545 S
C185 C186 1.398 . S
C185 C189 1.527 1_545 S
C186 C185 1.398 . S
C186 C187 1.380 . S
C186 C200 1.497 . S
C187 C186 1.380 . S
C187 C188 1.383 . S
C187 C190 1.603 . S
C188 C183 1.377 . S
C188 C187 1.383 . S
C188 H251 0.929 . S
C189 C185 1.527 1_565 S
C189 H252 0.961 . S
C189 H253 0.959 . S
C189 H254 0.959 . S
C190 C187 1.603 . S
C190 H255 0.960 . S
C190 H256 0.962 . S
C190 H257 0.961 . S
C191 C158 1.587 . S
C191 C192 1.360 . S
C191 C204 1.412 . S
C192 C191 1.360 . S
C192 C193 1.365 . S
C192 H258 0.929 . S
C193 C168 1.553 . S
C193 C192 1.365 . S
C193 C194 1.404 . S
C194 C193 1.404 . S
C194 C195 1.395 . S
C194 C205 1.451 . S
C195 C194 1.395 . S
C195 C196 1.322 . S
C195 H259 0.930 . S
C196 C195 1.322 . S
C196 C197 1.459 . S
C196 H260 0.929 . S
C197 C196 1.459 . S
C197 C198 1.445 . S
C197 C206 1.395 . S
C198 C176 1.432 . S
C198 C197 1.445 . S
C198 C199 1.370 . S
C199 C198 1.370 . S
C199 C200 1.438 . S
C199 H261 0.930 . S
C200 C186 1.497 . S
C200 C199 1.438 . S
C200 C201 1.360 . S
C201 C200 1.360 . S
C201 C202 1.401 . S
C201 C206 1.446 . S
C202 C201 1.401 . S
C202 C203 1.347 . S
C202 H262 0.929 . S
C203 C202 1.347 . S
C203 C204 1.455 . S
C203 H263 0.930 . S
C204 C191 1.412 . S
C204 C203 1.455 . S
C204 C205 1.331 . S
C205 C194 1.451 . S
C205 C204 1.331 . S
C205 C206 1.497 . S
C206 C197 1.395 . S
C206 C201 1.446 . S
C206 C205 1.497 . S
C207 C208 1.582 . S
C207 H264 0.962 . S
C207 H265 0.959 . S
C207 H266 0.958 . S
C208 C207 1.582 . S
C208 O211 1.458 . S
C208 H237 0.980 . S
O209 C154 1.426 . S
O209 C155 1.334 . S
O210 C182 1.412 . S
O210 C183 1.393 . S
O211 C173 1.435 . S
O211 C208 1.458 . S
O212 C164 1.468 . S
O212 C165 1.408 . S
H213 C154 0.980 . S
H214 C153 0.959 . S
H215 C153 0.959 . S
H216 C153 0.960 1_545 S
H217 C156 0.929 . S
H218 C160 0.929 . S
H219 C161 0.959 . S
H220 C161 0.961 . S
H221 C161 0.961 . S
H222 C162 0.960 . S
H223 C162 0.960 . S
H224 C162 0.961 . S
H225 C164 0.980 . S
H226 C163 0.961 . S
H227 C163 0.960 . S
H228 C163 0.959 . S
H229 C166 0.930 . S
H230 C170 0.931 . S
H231 C171 0.959 . S
H232 C171 0.961 1_565 S
H233 C171 0.959 1_565 S
H234 C172 0.960 . S
H235 C172 0.960 . S
H236 C172 0.960 . S
H237 C208 0.980 . S
H238 C174 0.930 . S
H239 C178 0.930 . S
H240 C179 0.949 1_545 S
H241 C179 0.988 . S
H242 C179 0.964 . S
H243 C180 0.961 . S
H244 C180 0.960 . S
H245 C180 0.960 . S
H246 C182 0.980 . S
H247 C181 0.961 . S
H248 C181 0.961 1_565 S
H249 C181 0.959 1_565 S
H250 C184 0.932 . S
H251 C188 0.929 . S
H252 C189 0.961 . S
H253 C189 0.959 . S
H254 C189 0.959 . S
H255 C190 0.960 . S
H256 C190 0.962 . S
H257 C190 0.961 . S
H258 C192 0.929 . S
H259 C195 0.930 . S
H260 C196 0.929 . S
H261 C199 0.930 . S
H262 C202 0.929 . S
H263 C203 0.930 . S
H264 C207 0.962 . S
H265 C207 0.959 . S
H266 C207 0.958 . S
C267 C268 1.560 . S
C267 H328 0.959 . S
C267 H329 0.959 . S
C267 H330 0.960 . S
C268 C267 1.560 . S
C268 O323 1.426 . S
C268 H327 0.980 . S
C269 C270 1.407 . S
C269 C274 1.418 . S
C269 O323 1.334 . S
C270 C269 1.407 . S
C270 C271 1.360 . S
C270 H331 0.929 . S
C271 C270 1.360 . S
C271 C272 1.401 . S
C271 C275 1.527 . S
C272 C271 1.401 . S
C272 C273 1.405 . S
C272 C305 1.587 . S
C273 C272 1.405 . S
C273 C274 1.332 . S
C273 C276 1.496 . S
C274 C269 1.418 . S
C274 C273 1.332 . S
C274 H332 0.929 . S
C275 C271 1.527 . S
C275 H333 0.959 . S
C275 H334 0.961 . S
C275 H335 0.961 . S
C276 C273 1.496 . S
C276 H336 0.960 . S
C276 H337 0.960 . S
C276 H338 0.961 . S
C277 C278 1.517 . S
C277 H340 0.961 . S
C277 H341 0.960 . S
C277 H342 0.959 . S
C278 C277 1.517 . S
C278 O326 1.468 . S
C278 H339 0.980 . S
C279 C280 1.349 . S
C279 C284 1.367 . S
C279 O326 1.408 . S
C280 C279 1.349 . S
C280 C281 1.407 . S
C280 H343 0.930 . S
C281 C280 1.407 . S
C281 C282 1.449 . S
C281 C285 1.535 . S
C282 C281 1.449 . S
C282 C283 1.384 . S
C282 C307 1.553 . S
C283 C282 1.384 . S
C283 C284 1.364 . S
C283 C286 1.450 . S
C284 C279 1.367 . S
C284 C283 1.364 . S
C284 H344 0.931 . S
C285 C281 1.535 . S
C285 H345 0.959 . S
C285 H346 0.961 . S
C285 H347 0.959 . S
C286 C283 1.450 . S
C286 H348 0.960 . S
C286 H349 0.960 . S
C286 H350 0.960 . S
C287 C288 1.309 . S
C287 C292 1.304 . S
C287 O325 1.435 . S
C288 C287 1.309 . S
C288 C289 1.476 . S
C288 H352 0.930 . S
C289 C288 1.476 . S
C289 C290 1.400 . S
C289 C293 1.567 . S
C290 C289 1.400 . S
C290 C291 1.373 . S
C290 C312 1.432 . S
C291 C290 1.373 . S
C291 C292 1.339 . S
C291 C294 1.530 . S
C292 C287 1.304 . S
C292 C291 1.339 . S
C292 H353 0.930 . S
C293 C289 1.567 . S
C293 H354 0.961 . S
C293 H355 0.960 . S
C293 H356 0.958 . S
C294 C291 1.530 . S
C294 H357 0.961 . S
C294 H358 0.960 . S
C294 H359 0.960 . S
C295 C296 1.530 . S
C295 H361 0.961 . S
C295 H362 0.961 . S
C295 H363 0.959 . S
C296 C295 1.530 . S
C296 O324 1.412 . S
C296 H360 0.980 . S
C297 C298 1.288 . S
C297 C302 1.377 . S
C297 O324 1.393 . S
C298 C297 1.288 . S
C298 C299 1.369 . S
C298 H364 0.932 . S
C299 C298 1.369 . S
C299 C300 1.398 . S
C299 C303 1.527 . S
C300 C299 1.398 . S
C300 C301 1.380 . S
C300 C314 1.497 . S
C301 C300 1.380 . S
C301 C302 1.383 . S
C301 C304 1.603 . S
C302 C297 1.377 . S
C302 C301 1.383 . S
C302 H365 0.929 . S
C303 C299 1.527 . S
C303 H366 0.961 . S
C303 H367 0.959 . S
C303 H368 0.959 . S
C304 C301 1.603 . S
C304 H369 0.960 . S
C304 H370 0.962 . S
C304 H371 0.961 . S
C305 C272 1.587 . S
C305 C306 1.360 . S
C305 C318 1.412 . S
C306 C305 1.360 . S
C306 C307 1.365 . S
C306 H372 0.929 . S
C307 C282 1.553 . S
C307 C306 1.365 . S
C307 C308 1.404 . S
C308 C307 1.404 . S
C308 C309 1.395 . S
C308 C319 1.451 . S
C309 C308 1.395 . S
C309 C310 1.322 . S
C309 H373 0.930 . S
C310 C309 1.322 . S
C310 C311 1.459 . S
C310 H374 0.929 . S
C311 C310 1.459 . S
C311 C312 1.445 . S
C311 C320 1.395 . S
C312 C290 1.432 . S
C312 C311 1.445 . S
C312 C313 1.370 . S
C313 C312 1.370 . S
C313 C314 1.438 . S
C313 H375 0.930 . S
C314 C300 1.497 . S
C314 C313 1.438 . S
C314 C315 1.360 . S
C315 C314 1.360 . S
C315 C316 1.401 . S
C315 C320 1.446 . S
C316 C315 1.401 . S
C316 C317 1.347 . S
C316 H376 0.929 . S
C317 C316 1.347 . S
C317 C318 1.455 . S
C317 H377 0.930 . S
C318 C305 1.412 . S
C318 C317 1.455 . S
C318 C319 1.331 . S
C319 C308 1.451 . S
C319 C318 1.331 . S
C319 C320 1.497 . S
C320 C311 1.395 . S
C320 C315 1.446 . S
C320 C319 1.497 . S
C321 C322 1.582 . S
C321 H378 0.962 . S
C321 H379 0.959 . S
C321 H380 0.958 . S
C322 C321 1.582 . S
C322 O325 1.458 . S
C322 H351 0.980 . S
O323 C268 1.426 . S
O323 C269 1.334 . S
O324 C296 1.412 . S
O324 C297 1.393 . S
O325 C287 1.435 . S
O325 C322 1.458 . S
O326 C278 1.468 . S
O326 C279 1.408 . S
H327 C268 0.980 . S
H328 C267 0.959 . S
H329 C267 0.959 . S
H330 C267 0.960 . S
H331 C270 0.929 . S
H332 C274 0.929 . S
H333 C275 0.959 . S
H334 C275 0.961 . S
H335 C275 0.961 . S
H336 C276 0.960 . S
H337 C276 0.960 . S
H338 C276 0.961 . S
H339 C278 0.980 . S
H340 C277 0.961 . S
H341 C277 0.960 . S
H342 C277 0.959 . S
H343 C280 0.930 . S
H344 C284 0.931 . S
H345 C285 0.959 . S
H346 C285 0.961 . S
H347 C285 0.959 . S
H348 C286 0.960 . S
H349 C286 0.960 . S
H350 C286 0.960 . S
H351 C322 0.980 . S
H352 C288 0.930 . S
H353 C292 0.930 . S
H354 C293 0.961 . S
H355 C293 0.960 . S
H356 C293 0.958 . S
H357 C294 0.961 . S
H358 C294 0.960 . S
H359 C294 0.960 . S
H360 C296 0.980 . S
H361 C295 0.961 . S
H362 C295 0.961 . S
H363 C295 0.959 . S
H364 C298 0.932 . S
H365 C302 0.929 . S
H366 C303 0.961 . S
H367 C303 0.959 . S
H368 C303 0.959 . S
H369 C304 0.960 . S
H370 C304 0.962 . S
H371 C304 0.961 . S
H372 C306 0.929 . S
H373 C309 0.930 . S
H374 C310 0.929 . S
H375 C313 0.930 . S
H376 C316 0.929 . S
H377 C317 0.930 . S
H378 C321 0.962 . S
H379 C321 0.959 . S
H380 C321 0.958 . S
C381 C382 1.386 . S
C381 C383 1.383 . S
C381 H397 0.951 . S
C382 C381 1.386 . S
C382 C386 1.383 . S
C383 C381 1.383 . S
C383 C384 1.402 . S
C383 H398 0.951 . S
C384 C383 1.402 . S
C384 C385 1.375 . S
C384 C387 1.481 . S
C385 C384 1.375 . S
C385 C386 1.367 . S
C385 H399 0.951 . S
C386 C382 1.383 . S
C386 C385 1.367 . S
C386 H400 0.950 . S
C387 C384 1.481 . S
C387 C388 1.297 . S
C387 H401 0.950 . S
C388 C387 1.297 . S
C388 C389 1.479 . S
C388 H402 0.950 . S
C389 C388 1.479 . S
C389 C390 1.375 . S
C389 C395 1.404 . S
C390 C389 1.375 . S
C390 C391 1.369 . S
C390 H403 0.950 . S
C391 C390 1.369 . S
C391 C392 1.392 . S
C391 H404 0.951 . S
C392 C391 1.392 . S
C392 C394 1.384 . S
H393 C395 0.949 . S
C394 C392 1.384 . S
C394 C395 1.385 . S
C394 H396 0.950 . S
C395 C389 1.404 . S
C395 H393 0.949 . S
C395 C394 1.385 . S
H396 C394 0.950 . S
H397 C381 0.951 . S
H398 C383 0.951 . S
H399 C385 0.951 . S
H400 C386 0.950 . S
H401 C387 0.950 . S
H402 C388 0.950 . S
H403 C390 0.950 . S
H404 C391 0.951 . S
C405 C406 1.386 . S
C405 C407 1.383 . S
C405 H421 0.951 . S
C406 C405 1.386 . S
C406 C410 1.383 . S
C407 C405 1.383 . S
C407 C408 1.402 . S
C407 H422 0.951 . S
C408 C407 1.402 . S
C408 C409 1.375 . S
C408 C411 1.481 . S
C409 C408 1.375 . S
C409 C410 1.367 . S
C409 H423 0.951 . S
C410 C406 1.383 . S
C410 C409 1.367 . S
C410 H424 0.950 . S
C411 C408 1.481 . S
C411 C412 1.297 . S
C411 H425 0.950 . S
C412 C411 1.297 . S
C412 C413 1.479 . S
C412 H426 0.950 . S
C413 C412 1.479 . S
C413 C414 1.375 . S
C413 C419 1.404 . S
C414 C413 1.375 . S
C414 C415 1.369 . S
C414 H427 0.950 . S
C415 C414 1.369 . S
C415 C416 1.392 . S
C415 H428 0.951 . S
C416 C415 1.392 . S
C416 C418 1.384 . S
H417 C419 0.949 . S
C418 C416 1.384 . S
C418 C419 1.385 . S
C418 H420 0.950 . S
C419 C413 1.404 . S
C419 H417 0.949 . S
C419 C418 1.385 . S
H420 C418 0.950 . S
H421 C405 0.951 . S
H422 C407 0.951 . S
H423 C409 0.951 . S
H424 C410 0.950 . S
H425 C411 0.950 . S
H426 C412 0.950 . S
H427 C414 0.950 . S
H428 C415 0.951 . S
C429 C430 1.386 . S
C429 C431 1.383 . S
C429 H445 0.951 . S
C430 C429 1.386 . S
C430 C434 1.383 . S
C431 C429 1.383 . S
C431 C432 1.402 . S
C431 H446 0.951 . S
C432 C431 1.402 . S
C432 C433 1.375 . S
C432 C435 1.481 . S
C433 C432 1.375 . S
C433 C434 1.367 . S
C433 H447 0.951 . S
C434 C430 1.383 . S
C434 C433 1.367 . S
C434 H448 0.950 . S
C435 C432 1.481 . S
C435 C436 1.297 . S
C435 H449 0.950 . S
C436 C435 1.297 . S
C436 C437 1.479 . S
C436 H450 0.950 . S
C437 C436 1.479 . S
C437 C438 1.375 . S
C437 C443 1.404 . S
C438 C437 1.375 . S
C438 C439 1.369 . S
C438 H451 0.950 . S
C439 C438 1.369 . S
C439 C440 1.392 . S
C439 H452 0.951 . S
C440 C439 1.392 . S
C440 C442 1.384 . S
H441 C443 0.949 . S
C442 C440 1.384 . S
C442 C443 1.385 . S
C442 H444 0.950 . S
C443 C437 1.404 . S
C443 H441 0.949 . S
C443 C442 1.385 . S
H444 C442 0.950 . S
H445 C429 0.951 . S
H446 C431 0.951 . S
H447 C433 0.951 . S
H448 C434 0.950 . S
H449 C435 0.950 . S
H450 C436 0.950 . S
H451 C438 0.950 . S
H452 C439 0.951 . S
C453 C454 1.386 1_655 S
C453 C455 1.383 . S
C453 H469 0.951 . S
C454 C453 1.386 1_455 S
C454 C458 1.383 . S
C455 C453 1.383 . S
C455 C456 1.402 1_655 S
C455 H470 0.951 . S
C456 C455 1.402 1_455 S
C456 C457 1.375 . S
C456 C459 1.481 . S
C457 C456 1.375 . S
C457 C458 1.367 . S
C457 H471 0.951 . S
C458 C454 1.383 . S
C458 C457 1.367 . S
C458 H472 0.950 . S
C459 C456 1.481 . S
C459 C460 1.297 1_455 S
C459 H473 0.950 . S
C460 C459 1.297 1_655 S
C460 C461 1.469 1_655 S
C460 H474 0.950 . S
C461 C460 1.469 1_455 S
C461 C462 1.368 1_455 S
C461 C467 1.422 . S
C462 C461 1.368 1_655 S
C462 C463 1.369 . S
C462 H475 0.950 . S
C463 C462 1.369 . S
C463 C464 1.392 1_655 S
C463 H476 0.951 . S
C464 C463 1.392 1_455 S
C464 C466 1.384 . S
H465 C467 0.949 . S
C466 C464 1.384 . S
C466 C467 1.385 . S
C466 H468 0.950 . S
C467 C461 1.422 . S
C467 H465 0.949 . S
C467 C466 1.385 . S
H468 C466 0.950 . S
H469 C453 0.951 . S
H470 C455 0.951 . S
H471 C457 0.951 . S
H472 C458 0.950 . S
H473 C459 0.950 . S
H474 C460 0.950 . S
H475 C462 0.950 . S
H476 C463 0.951 . S
C477 C478 1.386 . S
C477 C479 1.383 . S
C477 H493 0.951 . S
C478 C477 1.386 . S
C478 C482 1.383 . S
C479 C477 1.383 . S
C479 C480 1.402 . S
C479 H494 0.951 . S
C480 C479 1.402 . S
C480 C481 1.375 . S
C480 C483 1.481 . S
C481 C480 1.375 . S
C481 C482 1.367 . S
C481 H495 0.951 1_545 S
C482 C478 1.383 . S
C482 C481 1.367 . S
C482 H496 0.950 1_545 S
C483 C480 1.481 . S
C483 C484 1.297 . S
C483 H497 0.950 . S
C484 C483 1.297 . S
C484 C485 1.479 . S
C484 H498 0.950 . S
C485 C484 1.479 . S
C485 C486 1.375 . S
C485 C491 1.404 . S
C486 C485 1.375 . S
C486 C487 1.369 . S
C486 H499 0.950 . S
C487 C486 1.369 . S
C487 C488 1.392 . S
C487 H500 0.951 . S
C488 C487 1.392 . S
C488 C490 1.384 . S
H489 C491 0.951 . S
C490 C488 1.384 . S
C490 C491 1.385 . S
C490 H492 0.950 1_545 S
C491 C485 1.404 . S
C491 H489 0.951 . S
C491 C490 1.385 . S
H492 C490 0.950 1_565 S
H493 C477 0.951 . S
H494 C479 0.951 . S
H495 C481 0.951 1_565 S
H496 C482 0.950 1_565 S
H497 C483 0.950 . S
H498 C484 0.950 . S
H499 C486 0.950 . S
H500 C487 0.951 . S
C501 C502 1.386 . S
C501 C503 1.383 . S
C501 H517 0.951 . S
C502 C501 1.386 . S
C502 C506 1.383 . S
C503 C501 1.383 . S
C503 C504 1.402 . S
C503 H518 0.951 . S
C504 C503 1.402 . S
C504 C505 1.375 . S
C504 C507 1.481 . S
C505 C504 1.375 . S
C505 C506 1.367 . S
C505 H519 0.951 . S
C506 C502 1.383 . S
C506 C505 1.367 . S
C506 H520 0.950 . S
C507 C504 1.481 . S
C507 C508 1.297 . S
C507 H521 0.950 . S
C508 C507 1.297 . S
C508 C509 1.479 . S
C508 H522 0.950 . S
C509 C508 1.479 . S
C509 C510 1.375 . S
C509 C515 1.404 . S
C510 C509 1.375 . S
C510 C511 1.369 . S
C510 H523 0.950 . S
C511 C510 1.369 . S
C511 C512 1.392 . S
C511 H524 0.951 . S
C512 C511 1.392 . S
C512 C514 1.384 . S
H513 C515 0.949 . S
C514 C512 1.384 . S
C514 C515 1.385 . S
C514 H516 0.950 . S
C515 C509 1.404 . S
C515 H513 0.949 . S
C515 C514 1.385 . S
H516 C514 0.950 . S
H517 C501 0.951 . S
H518 C503 0.951 . S
H519 C505 0.951 . S
H520 C506 0.950 . S
H521 C507 0.950 . S
H522 C508 0.950 . S
H523 C510 0.950 . S
H524 C511 0.951 . S
C525 C526 1.386 . S
C525 C527 1.383 . S
C525 H541 0.951 1_545 S
C526 C525 1.386 . S
C526 C530 1.383 . S
C527 C525 1.383 . S
C527 C528 1.402 . S
C527 H542 0.951 1_545 S
C528 C527 1.402 . S
C528 C529 1.375 . S
C528 C531 1.481 . S
C529 C528 1.375 . S
C529 C530 1.367 . S
C529 H543 0.951 . S
C530 C526 1.383 . S
C530 C529 1.367 . S
C530 H544 0.950 . S
C531 C528 1.481 . S
C531 C532 1.297 . S
C531 H545 0.950 . S
C532 C531 1.297 . S
C532 C533 1.479 . S
C532 H546 0.950 . S
C533 C532 1.479 . S
C533 C534 1.375 . S
C533 C539 1.404 . S
C534 C533 1.375 . S
C534 C535 1.369 . S
C534 H547 0.950 1_545 S
C535 C534 1.369 . S
C535 C536 1.392 . S
C535 H548 0.951 1_545 S
C536 C535 1.392 . S
C536 C538 1.384 . S
H537 C539 0.949 . S
C538 C536 1.384 . S
C538 C539 1.385 . S
C538 H540 0.950 . S
C539 C533 1.404 . S
C539 H537 0.949 . S
C539 C538 1.385 . S
H540 C538 0.950 . S
H541 C525 0.951 1_565 S
H542 C527 0.951 1_565 S
H543 C529 0.951 . S
H544 C530 0.950 . S
H545 C531 0.950 . S
H546 C532 0.950 . S
H547 C534 0.950 1_565 S
H548 C535 0.951 1_565 S
C549 C550 1.386 . S
C549 C551 1.383 . S
C549 H565 0.951 . S
C550 C549 1.386 . S
C550 C554 1.383 . S
C551 C549 1.383 . S
C551 C552 1.402 . S
C551 H566 0.951 . S
C552 C551 1.402 . S
C552 C553 1.375 . S
C552 C555 1.481 1_554 S
C553 C552 1.375 . S
C553 C554 1.367 . S
C553 H567 0.951 1_554 S
C554 C550 1.383 . S
C554 C553 1.367 . S
C554 H568 0.950 . S
C555 C552 1.481 1_556 S
C555 C556 1.297 . S
C555 H569 0.950 . S
C556 C555 1.297 . S
C556 C557 1.478 . S
C556 H570 0.952 1_556 S
C557 C556 1.478 . S
C557 C558 1.375 . S
C557 C563 1.404 . S
C558 C557 1.375 . S
C558 C559 1.369 . S
C558 H571 0.950 1_556 S
C559 C558 1.369 . S
C559 C560 1.392 . S
C559 H572 0.951 . S
C560 C559 1.392 . S
C560 C562 1.384 . S
H561 C563 0.949 . S
C562 C560 1.384 . S
C562 C563 1.385 . S
C562 H564 0.950 . S
C563 C557 1.404 . S
C563 H561 0.949 . S
C563 C562 1.385 . S
H564 C562 0.950 . S
H565 C549 0.951 . S
H566 C551 0.951 . S
H567 C553 0.951 1_556 S
H568 C554 0.950 . S
H569 C555 0.950 . S
H570 C556 0.952 1_554 S
H571 C558 0.950 1_554 S
H572 C559 0.951 . S
C573 C574 1.386 1_655 S
C573 C575 1.383 1_655 S
C573 H589 0.951 . S
C574 C573 1.386 1_455 S
C574 C578 1.383 . S
C575 C573 1.383 1_455 S
C575 C576 1.402 . S
C575 H590 0.951 1_455 S
C576 C575 1.402 . S
C576 C577 1.375 . S
C576 C579 1.481 . S
C577 C576 1.375 . S
C577 C578 1.367 . S
C577 H591 0.951 . S
C578 C574 1.383 . S
C578 C577 1.367 . S
C578 H592 0.950 . S
C579 C576 1.481 . S
C579 C580 1.297 . S
C579 H593 0.950 . S
C580 C579 1.297 . S
C580 C581 1.479 . S
C580 H594 0.950 . S
C581 C580 1.479 . S
C581 C582 1.375 1_455 S
C581 C587 1.404 . S
C582 C581 1.375 1_655 S
C582 C583 1.369 . S
C582 H595 0.950 . S
C583 C582 1.369 . S
C583 C584 1.392 1_655 S
C583 H596 0.951 . S
C584 C583 1.392 1_455 S
C584 C586 1.384 . S
H585 C587 0.949 . S
C586 C584 1.384 . S
C586 C587 1.385 . S
C586 H588 0.950 . S
C587 C581 1.404 . S
C587 H585 0.949 . S
C587 C586 1.385 . S
H588 C586 0.950 . S
H589 C573 0.951 . S
H590 C575 0.951 1_655 S
H591 C577 0.951 . S
H592 C578 0.950 . S
H593 C579 0.950 . S
H594 C580 0.950 . S
H595 C582 0.950 . S
H596 C583 0.951 . S
C597 C598 1.386 . S
C597 C599 1.383 . S
C597 H613 0.951 . S
C598 C597 1.386 . S
C598 C602 1.383 . S
C599 C597 1.383 . S
C599 C600 1.402 . S
C599 H614 0.951 . S
C600 C599 1.402 . S
C600 C601 1.386 . S
C600 C603 1.481 . S
C601 C600 1.386 . S
C601 C602 1.379 . S
C601 H615 0.927 1_545 S
C602 C598 1.383 . S
C602 C601 1.379 . S
C602 H616 0.950 1_545 S
C603 C600 1.481 . S
C603 C604 1.297 . S
C603 H617 0.946 1_545 S
C604 C603 1.297 . S
C604 C605 1.479 . S
C604 H618 0.950 . S
C605 C604 1.479 . S
C605 C606 1.375 . S
C605 C611 1.404 . S
C606 C605 1.375 . S
C606 C607 1.369 . S
C606 H619 0.950 . S
C607 C606 1.369 . S
C607 C608 1.392 . S
C607 H620 0.951 . S
C608 C607 1.392 . S
C608 C610 1.384 . S
H609 C611 0.949 1_565 S
C610 C608 1.384 . S
C610 C611 1.385 . S
C610 H612 0.950 1_545 S
C611 C605 1.404 . S
C611 H609 0.949 1_545 S
C611 C610 1.385 . S
H612 C610 0.950 1_565 S
H613 C597 0.951 . S
H614 C599 0.951 . S
H615 C601 0.927 1_565 S
H616 C602 0.950 1_565 S
H617 C603 0.946 1_565 S
H618 C604 0.950 . S
H619 C606 0.950 . S
H620 C607 0.951 . S
C621 C622 1.386 . S
C621 C623 1.383 . S
C621 H637 0.951 . S
C622 C621 1.386 . S
C622 C626 1.383 . S
C623 C621 1.383 . S
C623 C624 1.402 . S
C623 H638 0.951 . S
C624 C623 1.402 . S
C624 C625 1.375 . S
C624 C627 1.481 1_554 S
C625 C624 1.375 . S
C625 C626 1.367 . S
C625 H639 0.951 . S
C626 C622 1.383 . S
C626 C625 1.367 . S
C626 H640 0.950 . S
C627 C624 1.481 1_556 S
C627 C628 1.297 . S
C627 H641 0.950 . S
C628 C627 1.297 . S
C628 C629 1.479 . S
C628 H642 0.950 . S
C629 C628 1.479 . S
C629 C630 1.375 . S
C629 C635 1.404 . S
C630 C629 1.375 . S
C630 C631 1.369 . S
C630 H643 0.950 . S
C631 C630 1.369 . S
C631 C632 1.392 . S
C631 H644 0.951 . S
C632 C631 1.392 . S
C632 C634 1.384 . S
H633 C635 0.949 . S
C634 C632 1.384 . S
C634 C635 1.385 . S
C634 H636 0.950 . S
C635 C629 1.404 . S
C635 H633 0.949 . S
C635 C634 1.385 . S
H636 C634 0.950 . S
H637 C621 0.951 . S
H638 C623 0.951 . S
H639 C625 0.951 . S
H640 C626 0.950 . S
H641 C627 0.950 . S
H642 C628 0.950 . S
H643 C630 0.950 . S
H644 C631 0.951 . S
C645 C646 1.386 . S
C645 C647 1.383 . S
C645 H661 0.951 . S
C646 C645 1.386 . S
C646 C650 1.383 1_455 S
C647 C645 1.383 . S
C647 C648 1.402 . S
C647 H662 0.951 . S
C648 C647 1.402 . S
C648 C649 1.375 1_455 S
C648 C651 1.481 1_455 S
C649 C648 1.375 1_655 S
C649 C650 1.367 . S
C649 H663 0.951 . S
C650 C646 1.383 1_655 S
C650 C649 1.367 . S
C650 H664 0.950 . S
C651 C648 1.481 1_655 S
C651 C652 1.297 1_655 S
C651 H665 0.950 . S
C652 C651 1.297 1_455 S
C652 C653 1.479 . S
C652 H666 0.950 . S
C653 C652 1.479 . S
C653 C654 1.375 . S
C653 C659 1.404 1_455 S
C654 C653 1.375 . S
C654 C655 1.369 . S
C654 H667 0.950 . S
C655 C654 1.369 . S
C655 C656 1.392 . S
C655 H668 0.951 . S
C656 C655 1.392 . S
C656 C658 1.384 1_455 S
H657 C659 0.949 . S
C658 C656 1.384 1_655 S
C658 C659 1.385 . S
C658 H660 0.950 . S
C659 C653 1.404 1_655 S
C659 H657 0.949 . S
C659 C658 1.385 . S
H660 C658 0.950 . S
H661 C645 0.951 . S
H662 C647 0.951 . S
H663 C649 0.951 . S
H664 C650 0.950 . S
H665 C651 0.950 . S
H666 C652 0.950 . S
H667 C654 0.950 . S
H668 C655 0.951 . S
C392 C94 1.062 . S
C382 C10 1.614 . S
C406 C17 1.621 . S
C416 C208 1.153 . S
C430 C36 1.371 . S
C440 C268 1.070 . S
C454 C5 1.466 . S
C464 C68 1.136 . S
C488 C182 1.091 . S
C478 C16 1.477 . S
C502 C31 1.525 . S
C512 C278 0.895 . S
C536 C164 0.903 . S
C526 C30 1.531 . S
C550 C3 1.468 . S
C560 C296 1.250 . S
C584 C40 1.223 1_455 S
C574 C18 1.376 . S
C608 C154 1.039 . S
C598 C29 1.378 . S
C632 C322 1.064 . S
C622 C4 1.619 . S
C646 C23 1.520 . S
C656 C50 1.080 . S
