# Generated by pormake.
# Topology zzz, (3,6)-cn, num edge types: 1
# Building blocks:
#     Node 0, Type 0, BuildingBlock: BETDAH_clean_linker_0, # of connection points: 3
#     Node 1, Type 0, BuildingBlock: BETDAH_clean_linker_0, # of connection points: 3
#     Node 2, Type 0, BuildingBlock: BETDAH_clean_linker_0, # of connection points: 3
#     Node 3, Type 0, BuildingBlock: BETDAH_clean_linker_0, # of connection points: 3
#     Node 4, Type 0, BuildingBlock: BETDAH_clean_linker_0, # of connection points: 3
#     Node 5, Type 0, BuildingBlock: BETDAH_clean_linker_0, # of connection points: 3
#     Node 6, Type 0, BuildingBlock: BETDAH_clean_linker_0, # of connection points: 3
#     Node 7, Type 0, BuildingBlock: BETDAH_clean_linker_0, # of connection points: 3
#     Node 8, Type 1, BuildingBlock: CUWYAW_clean_sbu_0, # of connection points: 6
#     Node 9, Type 1, BuildingBlock: CUWYAW_clean_sbu_0, # of connection points: 6
#     Node 10, Type 1, BuildingBlock: CUWYAW_clean_sbu_0, # of connection points: 6
#     Node 11, Type 1, BuildingBlock: CUWYAW_clean_sbu_0, # of connection points: 6
#     Edge 12, Type (0, 1), BuildingBlock: AJUNOK_clean_linker_0, # of connection points: 2
#     Edge 13, Type (0, 1), BuildingBlock: AJUNOK_clean_linker_0, # of connection points: 2
#     Edge 14, Type (0, 1), BuildingBlock: AJUNOK_clean_linker_0, # of connection points: 2
#     Edge 15, Type (0, 1), BuildingBlock: AJUNOK_clean_linker_0, # of connection points: 2
#     Edge 16, Type (0, 1), BuildingBlock: AJUNOK_clean_linker_0, # of connection points: 2
#     Edge 17, Type (0, 1), BuildingBlock: AJUNOK_clean_linker_0, # of connection points: 2
#     Edge 18, Type (0, 1), BuildingBlock: AJUNOK_clean_linker_0, # of connection points: 2
#     Edge 19, Type (0, 1), BuildingBlock: AJUNOK_clean_linker_0, # of connection points: 2
#     Edge 20, Type (0, 1), BuildingBlock: AJUNOK_clean_linker_0, # of connection points: 2
#     Edge 21, Type (0, 1), BuildingBlock: AJUNOK_clean_linker_0, # of connection points: 2
#     Edge 22, Type (0, 1), BuildingBlock: AJUNOK_clean_linker_0, # of connection points: 2
#     Edge 23, Type (0, 1), BuildingBlock: AJUNOK_clean_linker_0, # of connection points: 2
#     Edge 24, Type (0, 1), BuildingBlock: AJUNOK_clean_linker_0, # of connection points: 2
#     Edge 25, Type (0, 1), BuildingBlock: AJUNOK_clean_linker_0, # of connection points: 2
#     Edge 26, Type (0, 1), BuildingBlock: AJUNOK_clean_linker_0, # of connection points: 2
#     Edge 27, Type (0, 1), BuildingBlock: AJUNOK_clean_linker_0, # of connection points: 2
#     Edge 28, Type (0, 1), BuildingBlock: AJUNOK_clean_linker_0, # of connection points: 2
#     Edge 29, Type (0, 1), BuildingBlock: AJUNOK_clean_linker_0, # of connection points: 2
#     Edge 30, Type (0, 1), BuildingBlock: AJUNOK_clean_linker_0, # of connection points: 2
#     Edge 31, Type (0, 1), BuildingBlock: AJUNOK_clean_linker_0, # of connection points: 2
#     Edge 32, Type (0, 1), BuildingBlock: AJUNOK_clean_linker_0, # of connection points: 2
#     Edge 33, Type (0, 1), BuildingBlock: AJUNOK_clean_linker_0, # of connection points: 2
#     Edge 34, Type (0, 1), BuildingBlock: AJUNOK_clean_linker_0, # of connection points: 2
#     Edge 35, Type (0, 1), BuildingBlock: AJUNOK_clean_linker_0, # of connection points: 2
# Relax obj value: 0.355
# Max RMSD: 0.187
# Mean RMSD: 0.137
data_MOF--net-zzz--node1-CUWYAW_clean_sbu_0--node2-BETDAH_clean_linker_0--edge1-AJUNOK_clean_linker_0
_symmetry_space_group_name_H-M    P1
_symmetry_Int_Tables_number       1
_symmetry_cell_setting            triclinic
loop_
_symmetry_equiv_pos_as_xyz
'x, y, z'
_cell_length_a     35.718988
_cell_length_b     35.98033
_cell_length_c     10.93958
_cell_angle_alpha  90.28551
_cell_angle_beta   89.689943
_cell_angle_gamma 89.886762
loop_
_atom_site_label
_atom_site_type_symbol
_atom_site_fract_x
_atom_site_fract_y
_atom_site_fract_z
_atom_type_partial_charge
H0 H 0.87316 0.60693 0.48421 0.0
H1 H 0.76304 0.59249 0.33655 0.0
H2 H 0.79539 0.53624 0.66791 0.0
C3 C 0.84471 0.59679 0.49286 0.0
C4 C 0.83723 0.57251 0.58864 0.0
C5 C 0.81875 0.60302 0.39889 0.0
C6 C 0.78279 0.58792 0.40969 0.0
C7 C 0.7736 0.56432 0.50771 0.0
C8 C 0.80135 0.55609 0.59632 0.0
N9 N 0.73782 0.54661 0.51329 0.0
C10 C 0.71074 0.54918 0.42121 0.0
H11 H 0.98842 0.85356 0.50806 0.0
H12 H 1.0177 0.76171 0.27466 0.0
H13 H 0.08422 0.78768 0.58997 0.0
C14 C 1.00451 0.8286 0.48948 0.0
C15 C 1.03632 0.82334 0.5603 0.0
C16 C 1.00127 0.8104 0.37607 0.0
C17 C 1.02128 0.77706 0.3591 0.0
C18 C 1.05015 0.76728 0.44047 0.0
C19 C 0.05906 0.792 0.53706 0.0
N20 N 0.07328 0.73553 0.41867 0.0
C21 C 0.06955 0.71146 0.31867 0.0
H22 H 0.7545 0.131 0.51431 0.0
H23 H 0.85685 0.12123 0.30843 0.0
H24 H 0.82541 1.03613 0.56351 0.0
C25 C 0.7809 0.11708 0.49603 0.0
C26 C 0.78767 0.08323 0.55477 0.0
C27 C 0.80492 0.13071 0.40406 0.0
C28 C 0.83776 0.1107 0.37651 0.0
C29 C 0.84489 0.07615 0.43118 0.0
C30 C 0.82007 0.06287 0.52192 0.0
N31 N 0.87531 1.05322 0.3914 0.0
C32 C 0.89543 0.05792 0.28222 0.0
H33 H 0.50699 0.73901 0.50961 0.0
H34 H 0.52554 0.84789 0.36214 0.0
H35 H 0.60246 0.8017 0.62423 0.0
C36 C 0.52243 0.76495 0.50888 0.0
C37 C 0.55471 0.76748 0.57981 0.0
C38 C 0.512 0.79337 0.42827 0.0
C39 C 0.53365 0.82588 0.42353 0.0
C40 C 0.56643 0.82923 0.49401 0.0
C41 C 0.57684 0.79978 0.57208 0.0
N42 N 0.59017 0.86097 0.48411 0.0
C43 C 0.58735 0.88767 0.39206 0.0
H44 H 0.26783 0.61298 0.12566 0.0
H45 H 0.37505 0.59098 0.28489 0.0
H46 H 0.32853 0.51531 0.01824 0.0
C47 C 0.29352 0.5969 0.12737 0.0
C48 C 0.2953 0.56439 0.05707 0.0
C49 C 0.32214 0.60698 0.20875 0.0
C50 C 0.35351 0.58377 0.21971 0.0
C51 C 0.35624 0.55065 0.15097 0.0
C52 C 0.32695 0.54109 0.06959 0.0
N53 N 0.3873 0.526 0.16524 0.0
C54 C 0.41397 0.52862 0.2585 0.0
H55 H 0.99467 0.24627 0.0844 0.0
H56 H 1.02129 0.34339 0.29362 0.0
H57 H 0.09405 0.30758 0.99839 0.0
C58 C 1.01171 0.27096 0.09636 0.0
C59 C 1.04406 0.27475 0.02529 0.0
C60 C 1.00306 0.29565 0.19179 0.0
C61 C 1.02729 0.32531 0.21652 0.0
C62 C 0.06004 0.33021 0.14567 0.0
C63 C 0.06837 0.30463 0.05053 0.0
N64 N 0.08582 0.3594 0.17141 0.0
C65 C 0.08261 0.38391 0.27049 0.0
H66 H 0.35797 0.9705 0.08353 0.0
H67 H 0.25532 1.00133 0.25269 0.0
H68 H 0.29469 0.06206 0.94073 0.0
C69 C 0.33178 0.98582 0.07837 0.0
C70 C 0.32955 1.01586 0.99801 0.0
C71 C 0.30657 0.98284 0.17591 0.0
C72 C 0.27333 1.00305 0.17374 0.0
C73 C 0.26762 1.03084 0.08603 0.0
C74 C 0.29679 1.03826 1.00054 0.0
N75 N 0.23515 0.05414 0.09302 0.0
C76 C 0.20874 1.0522 0.18848 0.0
H77 H 0.62326 0.34615 0.17103 0.0
H78 H 0.60746 0.23614 0.31357 0.0
H79 H 0.52854 0.28217 0.05765 0.0
C80 C 0.60831 0.31993 0.17138 0.0
C81 C 0.57575 0.31711 0.10188 0.0
C82 C 0.61966 0.29128 0.24992 0.0
C83 C 0.59864 0.2584 0.25408 0.0
C84 C 0.56563 0.25482 0.185 0.0
C85 C 0.5543 0.28439 0.10897 0.0
N86 N 0.54277 0.22248 0.19335 0.0
C87 C 0.54685 0.19495 0.28213 0.0
C88 C 0.99551 0.07076 0.44587 0.0
Eu89 Eu 1.03334 0.06087 0.64438 0.0
C90 C 0.97233 0.1031 0.41429 0.0
C91 C 0.94952 0.12035 0.50365 0.0
C92 C 0.93683 0.15674 0.4872 0.0
C93 C 0.94632 0.17596 0.38064 0.0
C94 C 0.96623 0.15754 0.28713 0.0
C95 C 0.97926 0.1214 0.304 0.0
C96 C 0.99495 0.06337 0.85986 0.0
C97 C 0.0627 0.13186 0.791 0.0
C98 C 0.10578 1.03216 0.066 0.0
Eu99 Eu 0.0804 1.04485 0.8497 0.0
C100 C 0.08812 1.00487 0.14845 0.0
C101 C 0.1061 0.97095 0.17041 0.0
C102 C 0.08523 0.93961 0.20223 0.0
C103 C 1.04571 0.94112 0.20692 0.0
C104 C 1.02863 0.97618 0.19942 0.0
C105 C 1.04962 1.00779 0.17354 0.0
C106 C 0.11889 1.04617 0.63294 0.0
C107 C 1.0511 0.97579 0.70989 0.0
O108 O 1.03134 0.07789 0.45374 0.0
O109 O 0.98341 1.05016 0.53589 0.0
O110 O 0.99164 0.08729 0.77306 0.0
O111 O 1.01866 1.03858 0.83018 0.0
O112 O 1.0468 0.12076 0.68853 0.0
O113 O 0.07672 0.10769 0.86882 0.0
O114 O 0.08565 0.06157 0.04089 0.0
O115 O 0.12111 1.01766 0.96784 0.0
O116 O 0.12525 1.02281 0.71994 0.0
O117 O 0.09414 0.06913 0.66611 0.0
O118 O 1.05451 0.98848 0.82189 0.0
O119 O 1.04912 0.99959 0.6187 0.0
H120 H 0.94398 0.10698 0.59029 0.0
H121 H 0.92208 0.17073 0.56101 0.0
H122 H 0.97466 0.17231 0.20539 0.0
H123 H 0.99713 0.10886 0.23477 0.0
H124 H 0.13573 0.96778 0.15172 0.0
H125 H 0.10008 0.91368 0.21503 0.0
H126 H 0.99883 0.97942 0.20324 0.0
H127 H 1.0348 1.03372 0.16003 0.0
C128 C 0.5473 0.9639 0.5743 0.0
Eu129 Eu 0.56608 1.00806 0.75149 0.0
C130 C 0.51107 0.96636 0.51431 0.0
C131 C 0.49423 0.9361 0.45638 0.0
C132 C 0.45663 0.93853 0.42123 0.0
C133 C 0.43463 0.96996 0.45391 0.0
C134 C 0.45233 0.99916 0.51651 0.0
C135 C 0.49041 0.9987 0.53528 0.0
C136 C 0.58616 0.9885 0.9819 0.0
C137 C 0.48708 1.03753 0.88045 0.0
C138 C 0.58708 0.12298 0.06521 0.0
Eu139 Eu 0.5674 0.07155 0.91167 0.0
C140 C 0.62458 0.13826 0.08785 0.0
C141 C 0.63074 0.17684 0.08793 0.0
C142 C 0.66672 0.19109 0.10784 0.0
C143 C 0.69706 0.16672 0.12261 0.0
C144 C 0.69084 0.12817 0.11797 0.0
C145 C 0.6551 0.11412 0.10125 0.0
C146 C 0.5477 0.08975 0.68033 0.0
C147 C 0.6462 1.04269 0.77934 0.0
O148 O 0.56835 0.99314 0.5586 0.0
O149 O 0.54526 0.95418 0.6891 0.0
O150 O 0.60077 0.97481 0.88256 0.0
O151 O 0.56062 1.01148 0.955 0.0
O152 O 0.50382 1.01922 0.79053 0.0
O153 O 0.50696 0.05846 0.95483 0.0
O154 O 0.58168 0.08835 0.09726 0.0
O155 O 0.57347 0.13029 0.95766 0.0
O156 O 0.53025 0.1013 0.77747 0.0
O157 O 0.57386 0.0679 0.70989 0.0
O158 O 0.63003 0.06349 0.86509 0.0
O159 O 0.62633 1.01923 0.71479 0.0
H160 H 0.50983 0.91081 0.43931 0.0
H161 H 0.44511 0.91549 0.3702 0.0
H162 H 0.43742 1.02219 0.55696 0.0
H163 H 0.50326 1.02311 0.57472 0.0
H164 H 0.6077 0.19581 0.07366 0.0
H165 H 0.67078 0.22088 0.11269 0.0
H166 H 0.71352 0.10865 0.13241 0.0
H167 H 0.65147 0.08424 0.09965 0.0
C168 C 0.65031 0.50648 0.64099 0.0
Eu169 Eu 0.59634 0.53519 0.7721 0.0
C170 C 0.65822 0.46746 0.61026 0.0
C171 C 0.69515 0.4543 0.59888 0.0
C172 C 0.70196 0.41683 0.56993 0.0
C173 C 0.67186 0.39213 0.55535 0.0
C174 C 0.63508 0.40558 0.56872 0.0
C175 C 0.62837 0.44271 0.59558 0.0
C176 C 0.61102 0.55844 0.0047 0.0
C177 C 0.55454 0.46533 0.907 0.0
C178 C 0.47533 0.57761 0.03401 0.0
Eu179 Eu 0.52945 0.54869 0.90428 0.0
C180 C 0.46874 0.61662 0.06793 0.0
C181 C 0.43233 0.63138 0.0749 0.0
C182 C 0.42682 0.66895 0.10537 0.0
C183 C 0.45782 0.69219 0.12492 0.0
C184 C 0.49409 0.67716 0.11603 0.0
C185 C 0.49947 0.63992 0.08807 0.0
C186 C 0.51488 0.52484 0.67269 0.0
C187 C 0.57204 0.6186 0.7721 0.0
O188 O 0.6198 0.52046 0.59396 0.0
O189 O 0.65387 0.51499 0.75617 0.0
O190 O 0.62679 0.57176 0.90747 0.0
O191 O 0.58635 0.53498 0.97415 0.0
O192 O 0.57578 0.47632 0.81472 0.0
O193 O 0.53515 0.48997 0.97005 0.0
O194 O 0.5049 0.56205 0.08204 0.0
O195 O 0.47242 0.57038 0.91769 0.0
O196 O 0.49941 0.5115 0.77035 0.0
O197 O 0.5393 0.54871 0.70225 0.0
O198 O 0.55079 0.60755 0.86433 0.0
O199 O 0.59094 0.59396 0.70762 0.0
H200 H 0.71856 0.47306 0.61039 0.0
H201 H 0.73049 0.40729 0.5571 0.0
H202 H 0.6112 0.38768 0.5532 0.0
H203 H 0.59963 0.45212 0.60276 0.0
H204 H 0.40835 0.61384 0.05762 0.0
H205 H 0.39861 0.67975 0.11446 0.0
H206 H 0.51852 0.69399 0.13511 0.0
H207 H 0.52783 0.6293 0.08352 0.0
C208 C 0.1007 0.6078 0.5138 0.0
Eu209 Eu 0.07324 0.5719 0.698 0.0
C210 C 0.13923 0.62166 0.49531 0.0
C211 C 0.14837 0.65921 0.51724 0.0
C212 C 0.18551 0.67142 0.5062 0.0
C213 C 0.21393 0.64602 0.47557 0.0
C214 C 0.20463 0.60866 0.4539 0.0
C215 C 0.16786 0.59666 0.46326 0.0
C216 C 0.05882 0.60778 0.91237 0.0
C217 C 0.14628 0.54123 0.85597 0.0
C218 C 1.02952 0.49648 0.09015 0.0
Eu219 Eu 0.06138 0.52115 0.89712 0.0
C220 C 0.99825 0.51875 0.13939 0.0
C221 C 0.96286 0.5029 0.15527 0.0
C222 C 0.93121 0.52562 0.16614 0.0
C223 C 0.93397 0.56465 0.1536 0.0
C224 C 0.96962 0.58014 0.13785 0.0
C225 C 1.0013 0.55768 0.1356 0.0
C226 C 0.07725 0.4849 0.6851 0.0
C227 C 0.98964 0.55325 0.74748 0.0
O228 O 0.09671 0.57162 0.51442 0.0
O229 O 0.08126 0.62408 0.60024 0.0
O230 O 1.04371 0.61682 0.80919 0.0
O231 O 0.07988 0.57991 0.8979 0.0
O232 O 0.1335 0.55801 0.75671 0.0
O233 O 0.12307 0.52514 0.93307 0.0
O234 O 0.06239 0.51245 0.09477 0.0
O235 O 1.02285 0.48184 0.98281 0.0
O236 O 0.08954 0.47462 0.79116 0.0
O237 O 1.05583 0.51274 0.69629 0.0
O238 O 1.00322 0.54603 0.85685 0.0
O239 O 1.01282 0.5594 0.65608 0.0
H240 H 0.12681 0.6791 0.54221 0.0
H241 H 0.192 0.70048 0.5209 0.0
H242 H 0.22584 0.58869 0.42619 0.0
H243 H 0.16205 0.56761 0.44534 0.0
H244 H 0.95949 0.47298 0.15416 0.0
H245 H 0.9045 0.51231 0.18203 0.0
H246 H 0.97339 0.60941 0.122 0.0
H247 H 1.02807 0.57087 0.12046 0.0
C248 C 0.16657 0.08199 0.34262 0.0
C249 C 0.18359 1.0498 0.29406 0.0
C250 C 0.14472 0.08063 0.45047 0.0
C251 C 0.13995 1.04716 0.51506 0.0
H252 H 0.17061 0.10851 0.29805 0.0
H253 H 0.13246 0.10613 0.48544 0.0
S254 S 0.17556 0.95449 0.41955 0.0
N255 N 0.19106 0.98295 0.3128 0.0
N256 N 0.15209 0.98076 0.51764 0.0
C257 C 0.15607 1.01472 0.46539 0.0
C258 C 0.17738 1.01594 0.35435 0.0
C259 C 0.51447 0.15565 0.43367 0.0
C260 C 0.54789 0.1665 0.37598 0.0
C261 C 0.51459 0.12954 0.52887 0.0
C262 C 0.54806 0.11283 0.5682 0.0
H263 H 0.4881 0.16803 0.40692 0.0
H264 H 0.48833 0.12287 0.57363 0.0
S265 S 0.64325 0.13207 0.44612 0.0
N266 N 0.6154 0.15918 0.36567 0.0
N267 N 0.61563 0.10899 0.54057 0.0
C268 C 0.58162 0.12276 0.50858 0.0
C269 C 0.58153 0.14996 0.41349 0.0
C270 C 0.44842 0.49493 0.41999 0.0
C271 C 0.44152 0.52811 0.3566 0.0
C272 C 0.4735 0.49386 0.51883 0.0
C273 C 0.49326 0.52574 0.55651 0.0
H274 H 0.43369 0.46976 0.39481 0.0
H275 H 0.47694 0.46798 0.56776 0.0
S276 S 0.4849 0.61966 0.42 0.0
N277 N 0.45594 0.59371 0.33909 0.0
N278 N 0.50408 0.59156 0.52107 0.0
C279 C 0.4873 0.55891 0.49135 0.0
C280 C 0.46114 0.56012 0.39238 0.0
C281 C 0.11185 0.41421 0.44998 0.0
C282 C 0.08077 0.40965 0.37318 0.0
C283 C 0.11055 0.4388 0.55046 0.0
C284 C 0.07834 0.46013 0.57611 0.0
H285 H 0.13727 0.39851 0.43281 0.0
H286 H 0.13499 0.44129 0.60814 0.0
S287 S 0.98865 0.45587 0.40784 0.0
N288 N 1.01633 0.42672 0.33282 0.0
N289 N 1.01406 0.47347 0.51958 0.0
C290 C 1.04709 0.45564 0.49976 0.0
C291 C 1.04826 0.43022 0.39876 0.0
C292 C 0.93991 1.02825 0.13688 0.0
C293 C 0.91839 0.05933 0.17159 0.0
C294 C 0.96435 1.02944 0.03522 0.0
C295 C 0.96851 0.06195 0.96577 0.0
H296 H 0.93779 1.00282 0.18898 0.0
H297 H 0.98002 1.00472 0.01039 0.0
S298 S 0.91468 0.14953 0.00984 0.0
N299 N 0.89984 0.12228 0.12098 0.0
N300 N 0.94633 0.12514 0.93351 0.0
C301 C 0.94584 0.09276 0.99695 0.0
C302 C 0.92063 0.0913 0.09906 0.0
C303 C 0.56504 0.90661 0.18784 0.0
C304 C 0.5856 0.9147 0.29372 0.0
C305 C 0.5645 0.93132 0.08874 0.0
C306 C 0.58422 0.96513 0.09263 0.0
H307 H 0.54987 0.88069 0.18031 0.0
H308 H 0.54906 0.92364 0.00747 0.0
S309 S 0.64165 0.9997 0.34968 0.0
N310 N 0.62607 0.95893 0.39692 0.0
N311 N 0.62415 1.0058 0.21164 0.0
C312 C 0.60419 0.97394 0.19889 0.0
C313 C 0.60512 0.94857 0.29934 0.0
C314 C 0.67796 0.58523 0.26053 0.0
C315 C 0.68329 0.55162 0.32308 0.0
C316 C 0.65333 0.58755 0.16056 0.0
C317 C 0.63247 0.55655 0.12112 0.0
H318 H 0.6936 0.60973 0.28707 0.0
H319 H 0.65109 0.61367 0.11227 0.0
S320 S 0.63664 0.46195 0.25474 0.0
N321 N 0.66635 0.48653 0.33729 0.0
N322 N 0.61889 0.49112 0.15421 0.0
C323 C 0.63685 0.52302 0.18554 0.0
C324 C 0.66259 0.5205 0.28526 0.0
C325 C 1.03422 0.68253 0.14783 0.0
C326 C 0.06733 0.68572 0.21599 0.0
C327 C 1.03184 0.65763 0.0484 0.0
C328 C 0.062 0.63416 0.01674 0.0
H329 H 1.01006 0.69945 0.17102 0.0
H330 H 1.006 0.65629 0.99715 0.0
S331 S 0.156 0.63458 0.15987 0.0
N332 N 0.13188 0.66595 0.23827 0.0
N333 N 0.1268 0.61761 0.05734 0.0
C334 C 0.09535 0.63746 0.08391 0.0
C335 C 0.09812 0.6636 0.18227 0.0
C336 C 0.98799 0.2692 0.39101 0.0
C337 C 0.97432 0.28331 0.2804 0.0
C338 C 0.97397 0.23584 0.43737 0.0
C339 C 0.94508 0.2168 0.37703 0.0
H340 H 1.01396 0.27968 0.42853 0.0
H341 H 0.98991 0.22205 0.50771 0.0
S342 S 0.8905 0.25071 0.11422 0.0
N343 N 0.92337 0.2824 0.1343 0.0
N344 N 0.89663 0.21966 0.22317 0.0
C345 C 0.92609 0.23496 0.28295 0.0
C346 C 0.94044 0.26889 0.2355 0.0
C347 C 0.33998 0.94302 0.32402 0.0
C348 C 0.32472 0.97765 0.29452 0.0
C349 C 0.3736 0.9408 0.38882 0.0
C350 C 0.39438 0.97312 0.41742 0.0
H351 H 0.32789 0.91784 0.28674 0.0
H352 H 0.38452 0.91338 0.4076 0.0
S353 S 0.36101 0.0708 0.37274 0.0
N354 N 0.3269 1.04438 0.32203 0.0
N355 N 0.39322 1.04145 0.4193 0.0
C356 C 0.37677 1.00799 0.39821 0.0
C357 C 0.34089 1.00979 0.34384 0.0
C358 C 0.67892 0.32292 0.3083 0.0
C359 C 0.6486 0.30014 0.34277 0.0
C360 C 0.69251 0.35012 0.38862 0.0
C361 C 0.67691 0.35406 0.50608 0.0
H362 H 0.68778 0.32396 0.21348 0.0
H363 H 0.71083 0.37138 0.35223 0.0
S364 S 0.61139 0.28932 0.65789 0.0
N365 N 0.61322 0.27493 0.51441 0.0
N366 N 0.64081 0.32456 0.66687 0.0
C367 C 0.6541 0.32531 0.55026 0.0
C368 C 0.63934 0.29842 0.4678 0.0
C369 C 0.31205 0.62479 0.42373 0.0
C370 C 0.31366 0.63624 0.30112 0.0
C371 C 0.28179 0.63546 0.4977 0.0
C372 C 0.25283 0.65753 0.44965 0.0
H373 H 0.32961 0.60225 0.45533 0.0
H374 H 0.27755 0.62065 0.58252 0.0
S375 S 0.25616 0.70977 0.15963 0.0
N376 N 0.29383 0.68304 0.15578 0.0
N377 N 0.23562 0.70171 0.29253 0.0
C378 C 0.26004 0.67696 0.34133 0.0
C379 C 0.29137 0.66676 0.26735 0.0
C380 C 1.02354 0.83832 0.18527 0.0
C381 C 0.9937 0.83493 0.26898 0.0
C382 C 1.03853 0.87325 0.15901 0.0
C383 C 1.02332 0.9059 0.21144 0.0
H384 H 1.0396 0.8142 0.15681 0.0
H385 H 0.06365 0.8742 0.1033 0.0
S386 S 0.93106 0.91068 0.37205 0.0
N387 N 0.9384 0.8659 0.34869 0.0
N388 N 0.96781 0.93196 0.31329 0.0
C389 C 0.98772 0.90275 0.2681 0.0
C390 C 0.97172 0.8669 0.28814 0.0
C391 C 0.79434 0.1535 0.19322 0.0
C392 C 0.79028 0.15998 0.32029 0.0
C393 C 0.7658 0.16262 0.11436 0.0
C394 C 0.73424 0.17962 0.16247 0.0
H395 H 0.81569 0.13493 0.15777 0.0
H396 H 0.76566 0.15076 0.02306 0.0
S397 S 0.7212 0.23887 0.4724 0.0
N398 N 0.73429 0.21062 0.35147 0.0
N399 N 0.71544 0.22196 0.33078 0.0
C400 C 0.73799 0.19699 0.28863 0.0
C401 C 0.76485 0.18622 0.37385 0.0
C402 C 0.45228 0.76262 0.36882 0.0
C403 C 0.48334 0.78446 0.33439 0.0
C404 C 0.43815 0.73546 0.28932 0.0
C405 C 0.45401 0.73054 0.17265 0.0
H406 H 0.44303 0.76229 0.46332 0.0
H407 H 0.41902 0.71493 0.32588 0.0
S408 S 0.52275 0.79196 0.021 0.0
N409 N 0.52057 0.80728 0.16339 0.0
N410 N 0.49207 0.75779 0.01241 0.0
C411 C 0.47805 0.75824 0.12816 0.0
C412 C 0.4933 0.78509 0.20981 0.0
C413 C 0.83185 0.58654 0.1864 0.0
C414 C 0.83378 0.61417 0.27751 0.0
C415 C 0.86476 0.5735 0.13104 0.0
C416 C 0.89976 0.58845 0.16413 0.0
H417 H 0.8068 0.56994 0.17583 0.0
H418 H 0.8631 0.54892 0.07381 0.0
S419 S 0.91285 0.6775 0.33376 0.0
N420 N 0.86763 0.66869 0.34451 0.0
N421 N 0.93072 0.64321 0.25124 0.0
C422 C 0.89953 0.62315 0.22565 0.0
C423 C 0.86541 0.63716 0.27598 0.0
C424 C 0.08614 0.22298 0.95225 0.0
C425 C 1.05315 0.24393 0.93767 0.0
C426 C 0.09003 0.18745 0.89867 0.0
C427 C 0.06132 0.17178 0.82712 0.0
H428 H 0.10784 0.23277 0.01316 0.0
H429 H 0.11499 0.17143 0.91801 0.0
S430 S 0.96972 0.21562 0.75963 0.0
N431 N 0.99202 0.24701 0.8419 0.0
N432 N 0.99911 0.18046 0.74319 0.0
C433 C 1.02917 0.19337 0.80606 0.0
C434 C 1.02521 0.22939 0.86051 0.0
C435 C 0.38565 0.05768 0.98157 0.0
C436 C 0.36564 1.02669 0.93725 0.0
C437 C 0.42459 0.06148 0.96097 0.0
C438 C 0.44529 1.03439 0.89553 0.0
H439 H 0.37166 0.0778 0.04003 0.0
H440 H 0.43875 0.08531 0.99992 0.0
S441 S 0.4059 0.94799 0.75999 0.0
N442 N 0.36935 0.96916 0.82178 0.0
N443 N 0.44202 0.97538 0.78642 0.0
C444 C 0.42522 1.00395 0.84724 0.0
C445 C 0.38565 1.00041 0.86695 0.0
C446 C 0.58636 0.36452 0.93892 0.0
C447 C 0.56363 0.35078 0.03381 0.0
C448 C 0.58184 0.40083 0.89426 0.0
C449 C 0.5548 0.4253 0.9441 0.0
H450 H 0.60917 0.34769 0.90345 0.0
H451 H 0.60113 0.41031 0.82457 0.0
S452 S 0.48714 0.402 0.19139 0.0
N453 N 0.51216 0.3637 0.17305 0.0
N454 N 0.50353 0.4319 0.09041 0.0
C455 C 0.53082 0.41123 0.03581 0.0
C456 C 0.53527 0.37406 0.08028 0.0
C457 C 0.24101 0.52203 0.00681 0.0
C458 C 0.26152 0.55459 0.98228 0.0
C459 C 0.20433 0.5171 0.96163 0.0
C460 C 0.18686 0.54425 0.88851 0.0
H461 H 0.25238 0.50132 0.06786 0.0
H462 H 0.18908 0.49235 0.98754 0.0
S463 S 0.22865 0.63432 0.79693 0.0
N464 N 0.26175 0.61394 0.87737 0.0
N465 N 0.19348 0.60469 0.79292 0.0
C466 C 0.20777 0.57611 0.85885 0.0
C467 C 0.24484 0.58123 0.90543 0.0
C468 C 0.07133 0.88256 0.55677 0.0
C469 C 1.0496 0.85731 0.62501 0.0
C470 C 0.07193 0.92069 0.58556 0.0
C471 C 1.05173 0.93504 0.68597 0.0
H472 H 0.08519 0.87334 0.47357 0.0
H473 H 0.08741 0.93922 0.52637 0.0
S474 S 0.99051 0.88104 0.89381 0.0
N475 N 1.00703 0.84973 0.79643 0.0
N476 N 1.01012 0.92092 0.85564 0.0
C477 C 1.03158 0.9099 0.75913 0.0
C478 C 1.03009 0.8712 0.72757 0.0
C479 C 0.7391 0.09165 0.72104 0.0
C480 C 0.75721 0.06809 0.63543 0.0
C481 C 0.70446 0.08216 0.77433 0.0
C482 C 0.68631 1.04867 0.74415 0.0
H483 H 0.75079 0.11872 0.74163 0.0
H484 H 0.69082 0.1023 0.83357 0.0
S485 S 0.72456 0.9745 0.54074 0.0
N486 N 0.75605 1.00795 0.53385 0.0
N487 N 0.69176 0.98962 0.63565 0.0
C488 C 0.70565 1.02348 0.66689 0.0
C489 C 0.74088 1.03324 0.61246 0.0
C490 C 0.54195 0.71993 0.74083 0.0
C491 C 0.56591 0.73372 0.64918 0.0
C492 C 0.5455 0.68343 0.78476 0.0
C493 C 0.57272 0.65879 0.73705 0.0
H494 H 0.5189 0.73688 0.77381 0.0
H495 H 0.52532 0.67391 0.85174 0.0
S496 S 0.6436 0.6821 0.49948 0.0
N497 N 0.61884 0.72064 0.5161 0.0
N498 N 0.62563 0.65207 0.59716 0.0
C499 C 0.59796 0.67289 0.64904 0.0
C500 C 0.59453 0.71027 0.60553 0.0
C501 C 0.89354 0.53227 0.61321 0.0
C502 C 0.87056 0.56076 0.66133 0.0
C503 C 0.93165 0.52932 0.64478 0.0
C504 C 0.94836 0.55438 0.72712 0.0
H505 H 0.88276 0.51398 0.54277 0.0
H506 H 0.9485 0.50803 0.60098 0.0
S507 S 0.90077 0.63346 0.88106 0.0
N508 N 0.86764 0.61429 0.79689 0.0
N509 N 0.9387 0.60779 0.85966 0.0
C510 C 0.92536 0.58169 0.78121 0.0
C511 C 0.88668 0.58511 0.74746 0.0
loop_
_geom_bond_atom_site_label_1
_geom_bond_atom_site_label_2
_geom_bond_distance
_geom_bond_site_symmetry_2
_ccdc_geom_bond_type
H0 C3 0.929 . S
H1 C6 0.929 . S
H2 C8 0.930 . S
C3 H0 0.929 . S
C3 C4 1.398 . S
C3 C5 1.396 . S
C4 C3 1.398 . S
C4 C8 1.407 . S
C5 C3 1.396 . S
C5 C6 1.394 . S
C6 H1 0.929 . S
C6 C5 1.394 . S
C6 C7 1.382 . S
C7 C6 1.382 . S
C7 C8 1.392 . S
C7 N9 1.420 . S
C8 H2 0.930 . S
C8 C4 1.407 . S
C8 C7 1.392 . S
N9 C7 1.420 . S
N9 C10 1.244 . S
C10 N9 1.244 . S
H11 C14 0.929 . S
H12 C17 0.929 . S
H13 C19 0.930 . S
C14 H11 0.929 . S
C14 C15 1.395 1_655 S
C14 C16 1.394 1_655 S
C15 C14 1.395 1_455 S
C15 C19 1.414 . S
C16 C14 1.394 1_455 S
C16 C17 1.397 . S
C17 H12 0.929 . S
C17 C16 1.397 . S
C17 C18 1.382 . S
C18 C17 1.382 . S
C18 C19 1.392 . S
C18 N20 1.420 . S
C19 H13 0.930 . S
C19 C15 1.414 . S
C19 C18 1.392 . S
N20 C18 1.420 . S
N20 C21 1.232 1_455 S
C21 N20 1.232 1_655 S
H22 C25 0.929 . S
H23 C28 0.929 . S
H24 C30 0.930 . S
C25 H22 0.929 . S
C25 C26 1.395 1_565 S
C25 C27 1.395 1_565 S
C26 C25 1.395 1_545 S
C26 C30 1.414 . S
C27 C25 1.395 1_545 S
C27 C28 1.397 . S
C28 H23 0.929 . S
C28 C27 1.397 . S
C28 C29 1.382 . S
C29 C28 1.382 . S
C29 C30 1.392 . S
C29 N31 1.420 . S
C30 H24 0.930 . S
C30 C26 1.414 . S
C30 C29 1.392 . S
N31 C29 1.420 . S
N31 C32 1.231 1_545 S
C32 N31 1.231 1_565 S
H33 C36 0.929 . S
H34 C39 0.929 . S
H35 C41 0.930 . S
C36 H33 0.929 . S
C36 C37 1.398 . S
C36 C38 1.396 . S
C37 C36 1.398 . S
C37 C41 1.407 . S
C38 C36 1.396 . S
C38 C39 1.394 . S
C39 H34 0.929 . S
C39 C38 1.394 . S
C39 C40 1.382 . S
C40 C39 1.382 . S
C40 C41 1.392 . S
C40 N42 1.420 . S
C41 H35 0.930 . S
C41 C37 1.407 . S
C41 C40 1.392 . S
N42 C40 1.420 . S
N42 C43 1.244 . S
C43 N42 1.244 . S
H44 C47 0.929 . S
H45 C50 0.929 . S
H46 C52 0.930 . S
C47 H44 0.929 . S
C47 C48 1.398 1_554 S
C47 C49 1.396 . S
C48 C47 1.398 1_556 S
C48 C52 1.407 . S
C49 C47 1.396 . S
C49 C50 1.394 . S
C50 H45 0.929 . S
C50 C49 1.394 . S
C50 C51 1.382 . S
C51 C50 1.382 . S
C51 C52 1.392 1_554 S
C51 N53 1.420 . S
C52 H46 0.930 . S
C52 C48 1.407 . S
C52 C51 1.392 1_556 S
N53 C51 1.420 . S
N53 C54 1.244 . S
C54 N53 1.244 . S
H55 C58 0.929 . S
H56 C61 0.929 . S
H57 C63 0.930 . S
C58 H55 0.929 . S
C58 C59 1.398 1_654 S
C58 C60 1.394 1_655 S
C59 C58 1.398 1_456 S
C59 C63 1.407 . S
C60 C58 1.394 1_455 S
C60 C61 1.398 . S
C61 H56 0.929 . S
C61 C60 1.398 . S
C61 C62 1.382 . S
C62 C61 1.382 . S
C62 C63 1.392 1_554 S
C62 N64 1.420 . S
C63 H57 0.930 . S
C63 C59 1.407 . S
C63 C62 1.392 1_556 S
N64 C62 1.420 . S
N64 C65 1.235 1_455 S
C65 N64 1.235 1_655 S
H66 C69 0.929 . S
H67 C72 0.929 . S
H68 C74 0.930 . S
C69 H66 0.929 . S
C69 C70 1.398 1_564 S
C69 C71 1.393 1_565 S
C70 C69 1.398 1_546 S
C70 C74 1.407 . S
C71 C69 1.393 1_545 S
C71 C72 1.398 . S
C72 H67 0.929 . S
C72 C71 1.398 . S
C72 C73 1.382 . S
C73 C72 1.382 . S
C73 C74 1.392 1_554 S
C73 N75 1.420 . S
C74 H68 0.930 . S
C74 C70 1.407 . S
C74 C73 1.392 1_556 S
N75 C73 1.420 . S
N75 C76 1.235 1_545 S
C76 N75 1.235 1_565 S
H77 C80 0.929 . S
H78 C83 0.929 . S
H79 C85 0.930 . S
C80 H77 0.929 . S
C80 C81 1.398 1_554 S
C80 C82 1.396 . S
C81 C80 1.398 1_556 S
C81 C85 1.407 . S
C82 C80 1.396 . S
C82 C83 1.394 . S
C83 H78 0.929 . S
C83 C82 1.394 . S
C83 C84 1.382 . S
C84 C83 1.382 . S
C84 C85 1.392 1_554 S
C84 N86 1.420 . S
C85 H79 0.930 . S
C85 C81 1.407 . S
C85 C84 1.392 1_556 S
N86 C84 1.420 . S
N86 C87 1.244 . S
C87 N86 1.244 . S
C88 Eu89 2.835 . S
C88 C90 1.500 . S
C88 O108 1.257 . S
C88 O109 1.260 . S
Eu89 C88 2.835 . S
Eu89 O108 2.473 . S
Eu89 O109 2.480 . S
Eu89 O110 2.430 . S
Eu89 O111 2.670 1_545 S
Eu89 O112 2.394 . S
Eu89 O117 2.355 1_655 S
Eu89 O119 2.374 1_545 S
C90 C88 1.500 . S
C90 C91 1.377 . S
C90 C95 1.377 . S
C91 C90 1.377 . S
C91 C92 1.395 . S
C91 H120 0.931 . S
C92 C91 1.395 . S
C92 C93 1.383 . S
C92 H121 0.931 . S
C93 C92 1.383 . S
C93 C94 1.394 . S
C94 C93 1.394 . S
C94 C95 1.378 . S
C94 H122 0.931 1_655 S
C95 C90 1.377 . S
C95 C94 1.378 . S
C95 H123 0.931 1_655 S
C96 O110 1.259 . S
C96 O111 1.270 1_545 S
C97 O112 1.251 1_455 S
C97 O113 1.251 . S
C98 Eu99 2.835 1_554 S
C98 C100 1.500 . S
C98 O114 1.257 . S
C98 O115 1.262 . S
Eu99 C98 2.835 1_556 S
Eu99 O111 2.355 1_455 S
Eu99 O113 2.374 1_565 S
Eu99 O114 2.473 1_556 S
Eu99 O115 2.478 1_556 S
Eu99 O116 2.430 . S
Eu99 O117 2.670 1_565 S
Eu99 O118 2.394 . S
C100 C98 1.500 . S
C100 C101 1.377 . S
C100 C105 1.377 . S
C101 C100 1.377 . S
C101 C102 1.395 . S
C101 H124 0.931 . S
C102 C101 1.395 . S
C102 C103 1.383 . S
C102 H125 0.931 . S
C103 C102 1.383 . S
C103 C104 1.394 . S
C104 C103 1.394 . S
C104 C105 1.378 . S
C104 H126 0.931 1_455 S
C105 C100 1.377 . S
C105 C104 1.378 . S
C105 H127 0.931 1_455 S
C106 O116 1.259 . S
C106 O117 1.270 1_565 S
C107 O118 1.251 1_655 S
C107 O119 1.251 . S
O108 C88 1.257 . S
O108 Eu89 2.473 . S
O109 C88 1.260 . S
O109 Eu89 2.480 . S
O110 Eu89 2.430 . S
O110 C96 1.259 . S
O111 Eu89 2.670 1_565 S
O111 C96 1.270 1_565 S
O111 Eu99 2.355 1_655 S
O112 Eu89 2.394 . S
O112 C97 1.251 1_655 S
O113 C97 1.251 . S
O113 Eu99 2.374 1_545 S
O114 C98 1.257 . S
O114 Eu99 2.473 1_554 S
O115 C98 1.262 . S
O115 Eu99 2.478 1_554 S
O116 Eu99 2.430 . S
O116 C106 1.259 . S
O117 Eu89 2.355 1_455 S
O117 Eu99 2.670 1_545 S
O117 C106 1.270 1_545 S
O118 Eu99 2.394 . S
O118 C107 1.251 1_455 S
O119 Eu89 2.374 1_565 S
O119 C107 1.251 . S
H120 C91 0.931 . S
H121 C92 0.931 . S
H122 C94 0.931 1_455 S
H123 C95 0.931 1_455 S
H124 C101 0.931 . S
H125 C102 0.931 . S
H126 C104 0.931 1_655 S
H127 C105 0.931 1_655 S
C128 Eu129 2.835 . S
C128 C130 1.500 . S
C128 O148 1.257 . S
C128 O149 1.260 . S
Eu129 C128 2.835 . S
Eu129 O148 2.473 . S
Eu129 O149 2.480 . S
Eu129 O150 2.430 . S
Eu129 O151 2.670 . S
Eu129 O152 2.394 . S
Eu129 O157 2.355 1_565 S
Eu129 O159 2.374 . S
C130 C128 1.500 . S
C130 C131 1.377 . S
C130 C135 1.377 . S
C131 C130 1.377 . S
C131 C132 1.395 . S
C131 H160 0.931 . S
C132 C131 1.395 . S
C132 C133 1.383 . S
C132 H161 0.931 . S
C133 C132 1.383 . S
C133 C134 1.394 . S
C134 C133 1.394 . S
C134 C135 1.378 . S
C134 H162 0.931 1_565 S
C135 C130 1.377 . S
C135 C134 1.378 . S
C135 H163 0.931 1_565 S
C136 O150 1.259 . S
C136 O151 1.270 . S
C137 O152 1.251 1_545 S
C137 O153 1.251 . S
C138 Eu139 2.835 1_554 S
C138 C140 1.500 . S
C138 O154 1.257 . S
C138 O155 1.263 . S
Eu139 C138 2.835 1_556 S
Eu139 O151 2.355 1_545 S
Eu139 O153 2.374 . S
Eu139 O154 2.473 1_556 S
Eu139 O155 2.477 1_556 S
Eu139 O156 2.430 . S
Eu139 O157 2.670 . S
Eu139 O158 2.394 . S
C140 C138 1.500 . S
C140 C141 1.377 . S
C140 C145 1.377 . S
C141 C140 1.377 . S
C141 C142 1.395 . S
C141 H164 0.931 . S
C142 C141 1.395 . S
C142 C143 1.383 . S
C142 H165 0.931 . S
C143 C142 1.383 . S
C143 C144 1.394 . S
C144 C143 1.394 . S
C144 C145 1.378 . S
C144 H166 0.931 1_545 S
C145 C140 1.377 . S
C145 C144 1.378 . S
C145 H167 0.931 1_545 S
C146 O156 1.259 . S
C146 O157 1.270 . S
C147 O158 1.251 1_565 S
C147 O159 1.251 . S
O148 C128 1.257 . S
O148 Eu129 2.473 . S
O149 C128 1.260 . S
O149 Eu129 2.480 . S
O150 Eu129 2.430 . S
O150 C136 1.259 . S
O151 Eu129 2.670 . S
O151 C136 1.270 . S
O151 Eu139 2.355 1_565 S
O152 Eu129 2.394 . S
O152 C137 1.251 1_565 S
O153 C137 1.251 . S
O153 Eu139 2.374 . S
O154 C138 1.257 . S
O154 Eu139 2.473 1_554 S
O155 C138 1.263 . S
O155 Eu139 2.477 1_554 S
O156 Eu139 2.430 . S
O156 C146 1.259 . S
O157 Eu129 2.355 1_545 S
O157 Eu139 2.670 . S
O157 C146 1.270 . S
O158 Eu139 2.394 . S
O158 C147 1.251 1_545 S
O159 Eu129 2.374 . S
O159 C147 1.251 . S
H160 C131 0.931 . S
H161 C132 0.931 . S
H162 C134 0.931 1_545 S
H163 C135 0.931 1_545 S
H164 C141 0.931 . S
H165 C142 0.931 . S
H166 C144 0.931 1_565 S
H167 C145 0.931 1_565 S
C168 Eu169 2.835 . S
C168 C170 1.500 . S
C168 O188 1.257 . S
C168 O189 1.260 . S
Eu169 C168 2.835 . S
Eu169 O188 2.473 . S
Eu169 O189 2.480 . S
Eu169 O190 2.430 . S
Eu169 O191 2.670 . S
Eu169 O192 2.394 . S
Eu169 O197 2.355 . S
Eu169 O199 2.374 . S
C170 C168 1.500 . S
C170 C171 1.377 . S
C170 C175 1.377 . S
C171 C170 1.377 . S
C171 C172 1.395 . S
C171 H200 0.931 . S
C172 C171 1.395 . S
C172 C173 1.383 . S
C172 H201 0.931 . S
C173 C172 1.383 . S
C173 C174 1.394 . S
C174 C173 1.394 . S
C174 C175 1.378 . S
C174 H202 0.931 . S
C175 C170 1.377 . S
C175 C174 1.378 . S
C175 H203 0.931 . S
C176 O190 1.259 . S
C176 O191 1.270 . S
C177 O192 1.251 . S
C177 O193 1.251 . S
C178 Eu179 2.835 1_554 S
C178 C180 1.500 . S
C178 O194 1.257 . S
C178 O195 1.260 . S
Eu179 C178 2.835 1_556 S
Eu179 O191 2.355 . S
Eu179 O193 2.374 . S
Eu179 O194 2.473 1_556 S
Eu179 O195 2.480 1_556 S
Eu179 O196 2.430 . S
Eu179 O197 2.670 . S
Eu179 O198 2.394 . S
C180 C178 1.500 . S
C180 C181 1.377 . S
C180 C185 1.377 . S
C181 C180 1.377 . S
C181 C182 1.395 . S
C181 H204 0.931 . S
C182 C181 1.395 . S
C182 C183 1.383 . S
C182 H205 0.931 . S
C183 C182 1.383 . S
C183 C184 1.394 . S
C184 C183 1.394 . S
C184 C185 1.378 . S
C184 H206 0.931 . S
C185 C180 1.377 . S
C185 C184 1.378 . S
C185 H207 0.931 . S
C186 O196 1.259 . S
C186 O197 1.270 . S
C187 O198 1.251 . S
C187 O199 1.251 . S
O188 C168 1.257 . S
O188 Eu169 2.473 . S
O189 C168 1.260 . S
O189 Eu169 2.480 . S
O190 Eu169 2.430 . S
O190 C176 1.259 . S
O191 Eu169 2.670 . S
O191 C176 1.270 . S
O191 Eu179 2.355 . S
O192 Eu169 2.394 . S
O192 C177 1.251 . S
O193 C177 1.251 . S
O193 Eu179 2.374 . S
O194 C178 1.257 . S
O194 Eu179 2.473 1_554 S
O195 C178 1.260 . S
O195 Eu179 2.480 1_554 S
O196 Eu179 2.430 . S
O196 C186 1.259 . S
O197 Eu169 2.355 . S
O197 Eu179 2.670 . S
O197 C186 1.270 . S
O198 Eu179 2.394 . S
O198 C187 1.251 . S
O199 Eu169 2.374 . S
O199 C187 1.251 . S
H200 C171 0.931 . S
H201 C172 0.931 . S
H202 C174 0.931 . S
H203 C175 0.931 . S
H204 C181 0.931 . S
H205 C182 0.931 . S
H206 C184 0.931 . S
H207 C185 0.931 . S
C208 Eu209 2.835 . S
C208 C210 1.500 . S
C208 O228 1.257 . S
C208 O229 1.260 . S
Eu209 C208 2.835 . S
Eu209 O228 2.473 . S
Eu209 O229 2.480 . S
Eu209 O230 2.430 . S
Eu209 O231 2.670 1_455 S
Eu209 O232 2.394 . S
Eu209 O237 2.355 . S
Eu209 O239 2.374 1_455 S
C210 C208 1.500 . S
C210 C211 1.377 . S
C210 C215 1.377 . S
C211 C210 1.377 . S
C211 C212 1.395 . S
C211 H240 0.931 . S
C212 C211 1.395 . S
C212 C213 1.383 . S
C212 H241 0.931 . S
C213 C212 1.383 . S
C213 C214 1.394 . S
C214 C213 1.394 . S
C214 C215 1.378 . S
C214 H242 0.931 . S
C215 C210 1.377 . S
C215 C214 1.378 . S
C215 H243 0.931 . S
C216 O230 1.263 . S
C216 O231 1.267 1_455 S
C217 O232 1.251 . S
C217 O233 1.251 . S
C218 Eu219 2.835 1_554 S
C218 C220 1.500 . S
C218 O234 1.257 . S
C218 O235 1.260 . S
Eu219 C218 2.835 1_556 S
Eu219 O231 2.355 . S
Eu219 O233 2.374 1_655 S
Eu219 O234 2.473 1_556 S
Eu219 O235 2.480 1_556 S
Eu219 O236 2.430 . S
Eu219 O237 2.670 1_655 S
Eu219 O238 2.394 . S
C220 C218 1.500 . S
C220 C221 1.377 . S
C220 C225 1.377 . S
C221 C220 1.377 . S
C221 C222 1.395 . S
C221 H244 0.931 . S
C222 C221 1.395 . S
C222 C223 1.383 . S
C222 H245 0.931 . S
C223 C222 1.383 . S
C223 C224 1.394 . S
C224 C223 1.394 . S
C224 C225 1.378 . S
C224 H246 0.931 . S
C225 C220 1.377 . S
C225 C224 1.378 . S
C225 H247 0.931 . S
C226 O236 1.259 . S
C226 O237 1.270 1_655 S
C227 O238 1.251 . S
C227 O239 1.251 . S
O228 C208 1.257 . S
O228 Eu209 2.473 . S
O229 C208 1.260 . S
O229 Eu209 2.480 . S
O230 Eu209 2.430 . S
O230 C216 1.263 . S
O231 Eu209 2.670 1_655 S
O231 C216 1.267 1_655 S
O231 Eu219 2.355 . S
O232 Eu209 2.394 . S
O232 C217 1.251 . S
O233 C217 1.251 . S
O233 Eu219 2.374 1_455 S
O234 C218 1.257 . S
O234 Eu219 2.473 1_554 S
O235 C218 1.260 . S
O235 Eu219 2.480 1_554 S
O236 Eu219 2.430 . S
O236 C226 1.259 . S
O237 Eu209 2.355 . S
O237 Eu219 2.670 1_455 S
O237 C226 1.270 1_455 S
O238 Eu219 2.394 . S
O238 C227 1.251 . S
O239 Eu209 2.374 1_655 S
O239 C227 1.251 . S
H240 C211 0.931 . S
H241 C212 0.931 . S
H242 C214 0.931 . S
H243 C215 0.931 . S
H244 C221 0.931 . S
H245 C222 0.931 . S
H246 C224 0.931 . S
H247 C225 0.931 . S
C248 C249 1.363 1_545 S
C248 C250 1.419 . S
C248 H252 0.930 . S
C249 C248 1.363 1_565 S
C249 C258 1.435 . S
C250 C248 1.419 . S
C250 C251 1.353 1_545 S
C250 H253 0.929 . S
C251 C250 1.353 1_565 S
C251 C257 1.439 . S
H252 C248 0.930 . S
H253 C250 0.929 . S
S254 N255 1.613 . S
S254 N256 1.610 . S
N255 S254 1.613 . S
N255 C258 1.350 . S
N256 S254 1.610 . S
N256 C257 1.351 . S
C257 C251 1.439 . S
C257 N256 1.351 . S
C257 C258 1.434 . S
C258 C249 1.435 . S
C258 N255 1.350 . S
C258 C257 1.434 . S
C259 C260 1.369 . S
C259 C261 1.419 . S
C259 H263 0.930 . S
C260 C259 1.369 . S
C260 C269 1.429 . S
C261 C259 1.419 . S
C261 C262 1.363 . S
C261 H264 0.929 . S
C262 C261 1.363 . S
C262 C268 1.428 . S
H263 C259 0.930 . S
H264 C261 0.929 . S
S265 N266 1.613 . S
S265 N267 1.610 . S
N266 S265 1.613 . S
N266 C269 1.350 . S
N267 S265 1.610 . S
N267 C268 1.351 . S
C268 C262 1.428 . S
C268 N267 1.351 . S
C268 C269 1.434 . S
C269 C260 1.429 . S
C269 N266 1.350 . S
C269 C268 1.434 . S
C270 C271 1.369 . S
C270 C272 1.419 . S
C270 H274 0.930 . S
C271 C270 1.369 . S
C271 C280 1.429 . S
C272 C270 1.419 . S
C272 C273 1.363 . S
C272 H275 0.929 . S
C273 C272 1.363 . S
C273 C279 1.428 . S
H274 C270 0.930 . S
H275 C272 0.929 . S
S276 N277 1.613 . S
S276 N278 1.610 . S
N277 S276 1.613 . S
N277 C280 1.350 . S
N278 S276 1.610 . S
N278 C279 1.351 . S
C279 C273 1.428 . S
C279 N278 1.351 . S
C279 C280 1.434 . S
C280 C271 1.429 . S
C280 N277 1.350 . S
C280 C279 1.434 . S
C281 C282 1.373 . S
C281 C283 1.419 . S
C281 H285 0.930 . S
C282 C281 1.373 . S
C282 C291 1.425 1_455 S
C283 C281 1.419 . S
C283 C284 1.383 . S
C283 H286 0.929 . S
C284 C283 1.383 . S
C284 C290 1.408 1_455 S
H285 C281 0.930 . S
H286 C283 0.929 . S
S287 N288 1.613 . S
S287 N289 1.610 . S
N288 S287 1.613 . S
N288 C291 1.350 . S
N289 S287 1.610 . S
N289 C290 1.351 . S
C290 C284 1.408 1_655 S
C290 N289 1.351 . S
C290 C291 1.434 . S
C291 C282 1.425 1_655 S
C291 N288 1.350 . S
C291 C290 1.434 . S
C292 C293 1.353 1_565 S
C292 C294 1.419 . S
C292 H296 0.930 . S
C293 C292 1.353 1_545 S
C293 C302 1.445 . S
C294 C292 1.419 . S
C294 C295 1.342 1_565 S
C294 H297 0.929 . S
C295 C294 1.342 1_545 S
C295 C301 1.451 . S
H296 C292 0.930 . S
H297 C294 0.929 . S
S298 N299 1.613 . S
S298 N300 1.610 . S
N299 S298 1.613 . S
N299 C302 1.350 . S
N300 S298 1.610 . S
N300 C301 1.351 . S
C301 C295 1.451 . S
C301 N300 1.351 . S
C301 C302 1.434 . S
C302 C293 1.445 . S
C302 N299 1.350 . S
C302 C301 1.434 . S
C303 C304 1.369 . S
C303 C305 1.419 . S
C303 H307 0.930 . S
C304 C303 1.369 . S
C304 C313 1.429 . S
C305 C303 1.419 . S
C305 C306 1.363 . S
C305 H308 0.929 . S
C306 C305 1.363 . S
C306 C312 1.428 . S
H307 C303 0.930 . S
H308 C305 0.929 . S
S309 N310 1.613 . S
S309 N311 1.610 . S
N310 S309 1.613 . S
N310 C313 1.350 . S
N311 S309 1.610 . S
N311 C312 1.351 . S
C312 C306 1.428 . S
C312 N311 1.351 . S
C312 C313 1.434 . S
C313 C304 1.429 . S
C313 N310 1.350 . S
C313 C312 1.434 . S
C314 C315 1.369 . S
C314 C316 1.419 . S
C314 H318 0.930 . S
C315 C314 1.369 . S
C315 C324 1.429 . S
C316 C314 1.419 . S
C316 C317 1.363 . S
C316 H319 0.929 . S
C317 C316 1.363 . S
C317 C323 1.428 . S
H318 C314 0.930 . S
H319 C316 0.929 . S
S320 N321 1.613 . S
S320 N322 1.610 . S
N321 S320 1.613 . S
N321 C324 1.350 . S
N322 S320 1.610 . S
N322 C323 1.351 . S
C323 C317 1.428 . S
C323 N322 1.351 . S
C323 C324 1.434 . S
C324 C315 1.429 . S
C324 N321 1.350 . S
C324 C323 1.434 . S
C325 C326 1.371 . S
C325 C327 1.419 . S
C325 H329 0.930 . S
C326 C325 1.371 . S
C326 C335 1.426 1_655 S
C327 C325 1.419 . S
C327 C328 1.384 . S
C327 H330 0.929 . S
C328 C327 1.384 . S
C328 C334 1.407 1_655 S
H329 C325 0.930 . S
H330 C327 0.929 . S
S331 N332 1.613 . S
S331 N333 1.610 . S
N332 S331 1.613 . S
N332 C335 1.350 . S
N333 S331 1.610 . S
N333 C334 1.351 . S
C334 C328 1.407 1_455 S
C334 N333 1.351 . S
C334 C335 1.434 . S
C335 C326 1.426 1_455 S
C335 N332 1.350 . S
C335 C334 1.434 . S
C336 C337 1.368 1_455 S
C336 C338 1.419 1_455 S
C336 H340 0.930 . S
C337 C336 1.368 1_655 S
C337 C346 1.440 . S
C338 C336 1.419 1_655 S
C338 C339 1.363 . S
C338 H341 0.929 . S
C339 C338 1.363 . S
C339 C345 1.428 . S
H340 C336 0.930 . S
H341 C338 0.929 . S
S342 N343 1.613 . S
S342 N344 1.610 . S
N343 S342 1.613 . S
N343 C346 1.350 . S
N344 S342 1.610 . S
N344 C345 1.351 . S
C345 C339 1.428 . S
C345 N344 1.351 . S
C345 C346 1.434 . S
C346 C337 1.440 . S
C346 N343 1.350 . S
C346 C345 1.434 . S
C347 C348 1.367 . S
C347 C349 1.419 . S
C347 H351 0.930 . S
C348 C347 1.367 . S
C348 C357 1.429 1_565 S
C349 C347 1.419 . S
C349 C350 1.363 . S
C349 H352 0.929 . S
C350 C349 1.363 . S
C350 C356 1.428 . S
H351 C347 0.930 . S
H352 C349 0.929 . S
S353 N354 1.613 . S
S353 N355 1.610 . S
N354 S353 1.613 . S
N354 C357 1.350 . S
N355 S353 1.610 . S
N355 C356 1.351 1_545 S
C356 C350 1.428 . S
C356 N355 1.351 1_565 S
C356 C357 1.434 1_565 S
C357 C348 1.429 1_545 S
C357 N354 1.350 . S
C357 C356 1.434 1_545 S
C358 C359 1.369 . S
C358 C360 1.419 . S
C358 H362 0.930 . S
C359 C358 1.369 . S
C359 C368 1.429 . S
C360 C358 1.419 . S
C360 C361 1.363 . S
C360 H363 0.929 . S
C361 C360 1.363 . S
C361 C367 1.428 . S
H362 C358 0.930 . S
H363 C360 0.929 . S
S364 N365 1.613 . S
S364 N366 1.610 . S
N365 S364 1.613 . S
N365 C368 1.350 . S
N366 S364 1.610 . S
N366 C367 1.351 . S
C367 C361 1.428 . S
C367 N366 1.351 . S
C367 C368 1.434 . S
C368 C359 1.429 . S
C368 N365 1.350 . S
C368 C367 1.434 . S
C369 C370 1.369 . S
C369 C371 1.419 . S
C369 H373 0.930 . S
C370 C369 1.369 . S
C370 C379 1.429 . S
C371 C369 1.419 . S
C371 C372 1.363 . S
C371 H374 0.929 . S
C372 C371 1.363 . S
C372 C378 1.428 . S
H373 C369 0.930 . S
H374 C371 0.929 . S
S375 N376 1.613 . S
S375 N377 1.610 . S
N376 S375 1.613 . S
N376 C379 1.350 . S
N377 S375 1.610 . S
N377 C378 1.351 . S
C378 C372 1.428 . S
C378 N377 1.351 . S
C378 C379 1.434 . S
C379 C370 1.429 . S
C379 N376 1.350 . S
C379 C378 1.434 . S
C380 C381 1.369 . S
C380 C382 1.419 . S
C380 H384 0.930 . S
C381 C380 1.369 . S
C381 C390 1.429 1_455 S
C382 C380 1.419 . S
C382 C383 1.363 . S
C382 H385 0.929 . S
C383 C382 1.363 . S
C383 C389 1.428 . S
H384 C380 0.930 . S
H385 C382 0.929 . S
S386 N387 1.613 . S
S386 N388 1.610 1_655 S
N387 S386 1.613 . S
N387 C390 1.350 . S
N388 S386 1.610 1_455 S
N388 C389 1.351 . S
C389 C383 1.428 . S
C389 N388 1.351 . S
C389 C390 1.434 1_455 S
C390 C381 1.429 1_655 S
C390 N387 1.350 . S
C390 C389 1.434 1_655 S
C391 C392 1.372 . S
C391 C393 1.419 . S
C391 H395 0.930 . S
C392 C391 1.372 . S
C392 C401 1.433 . S
C393 C391 1.419 . S
C393 C394 1.363 . S
C393 H396 0.929 . S
C394 C393 1.363 . S
C394 C400 1.428 . S
H395 C391 0.930 . S
H396 C393 0.929 . S
S397 N398 1.613 . S
S397 N399 1.610 . S
N398 S397 1.613 . S
N398 C401 1.350 . S
N399 S397 1.610 . S
N399 C400 1.351 . S
C400 C394 1.428 . S
C400 N399 1.351 . S
C400 C401 1.434 . S
C401 C392 1.433 . S
C401 N398 1.350 . S
C401 C400 1.434 . S
C402 C403 1.369 . S
C402 C404 1.419 . S
C402 H406 0.930 . S
C403 C402 1.369 . S
C403 C412 1.429 . S
C404 C402 1.419 . S
C404 C405 1.363 . S
C404 H407 0.929 . S
C405 C404 1.363 . S
C405 C411 1.428 . S
H406 C402 0.930 . S
H407 C404 0.929 . S
S408 N409 1.613 . S
S408 N410 1.610 . S
N409 S408 1.613 . S
N409 C412 1.350 . S
N410 S408 1.610 . S
N410 C411 1.351 . S
C411 C405 1.428 . S
C411 N410 1.351 . S
C411 C412 1.434 . S
C412 C403 1.429 . S
C412 N409 1.350 . S
C412 C411 1.434 . S
C413 C414 1.369 . S
C413 C415 1.419 . S
C413 H417 0.930 . S
C414 C413 1.369 . S
C414 C423 1.429 . S
C415 C413 1.419 . S
C415 C416 1.363 . S
C415 H418 0.929 . S
C416 C415 1.363 . S
C416 C422 1.428 . S
H417 C413 0.930 . S
H418 C415 0.929 . S
S419 N420 1.613 . S
S419 N421 1.610 . S
N420 S419 1.613 . S
N420 C423 1.350 . S
N421 S419 1.610 . S
N421 C422 1.351 . S
C422 C416 1.428 . S
C422 N421 1.351 . S
C422 C423 1.434 . S
C423 C414 1.429 . S
C423 N420 1.350 . S
C423 C422 1.434 . S
C424 C425 1.369 . S
C424 C426 1.419 . S
C424 H428 0.930 1_556 S
C425 C424 1.369 . S
C425 C434 1.429 1_455 S
C426 C424 1.419 . S
C426 C427 1.363 . S
C426 H429 0.929 1_556 S
C427 C426 1.363 . S
C427 C433 1.428 . S
H428 C424 0.930 1_554 S
H429 C426 0.929 1_554 S
S430 N431 1.613 . S
S430 N432 1.610 . S
N431 S430 1.613 . S
N431 C434 1.350 . S
N432 S430 1.610 . S
N432 C433 1.351 1_655 S
C433 C427 1.428 . S
C433 N432 1.351 1_455 S
C433 C434 1.434 1_455 S
C434 C425 1.429 1_655 S
C434 N431 1.350 . S
C434 C433 1.434 1_655 S
C435 C436 1.369 . S
C435 C437 1.419 . S
C435 H439 0.930 . S
C436 C435 1.369 . S
C436 C445 1.429 1_545 S
C437 C435 1.419 . S
C437 C438 1.363 . S
C437 H440 0.929 . S
C438 C437 1.363 . S
C438 C444 1.428 1_545 S
H439 C435 0.930 . S
H440 C437 0.929 . S
S441 N442 1.613 . S
S441 N443 1.610 . S
N442 S441 1.613 . S
N442 C445 1.350 . S
N443 S441 1.610 . S
N443 C444 1.351 . S
C444 C438 1.428 1_565 S
C444 N443 1.351 . S
C444 C445 1.434 . S
C445 C436 1.429 1_565 S
C445 N442 1.350 . S
C445 C444 1.434 . S
C446 C447 1.369 . S
C446 C448 1.419 . S
C446 H450 0.930 . S
C447 C446 1.369 . S
C447 C456 1.429 . S
C448 C446 1.419 . S
C448 C449 1.363 . S
C448 H451 0.929 . S
C449 C448 1.363 . S
C449 C455 1.428 . S
H450 C446 0.930 . S
H451 C448 0.929 . S
S452 N453 1.613 . S
S452 N454 1.610 . S
N453 S452 1.613 . S
N453 C456 1.350 . S
N454 S452 1.610 . S
N454 C455 1.351 . S
C455 C449 1.428 . S
C455 N454 1.351 . S
C455 C456 1.434 . S
C456 C447 1.429 . S
C456 N453 1.350 . S
C456 C455 1.434 . S
C457 C458 1.369 . S
C457 C459 1.419 . S
C457 H461 0.930 . S
C458 C457 1.369 . S
C458 C467 1.429 . S
C459 C457 1.419 . S
C459 C460 1.363 . S
C459 H462 0.929 . S
C460 C459 1.363 . S
C460 C466 1.428 . S
H461 C457 0.930 . S
H462 C459 0.929 . S
S463 N464 1.613 . S
S463 N465 1.610 . S
N464 S463 1.613 . S
N464 C467 1.350 . S
N465 S463 1.610 . S
N465 C466 1.351 . S
C466 C460 1.428 . S
C466 N465 1.351 . S
C466 C467 1.434 . S
C467 C458 1.429 . S
C467 N464 1.350 . S
C467 C466 1.434 . S
C468 C469 1.369 1_455 S
C468 C470 1.419 . S
C468 H472 0.930 . S
C469 C468 1.369 1_655 S
C469 C478 1.429 . S
C470 C468 1.419 . S
C470 C471 1.363 1_455 S
C470 H473 0.929 . S
C471 C470 1.363 1_655 S
C471 C477 1.428 . S
H472 C468 0.930 . S
H473 C470 0.929 . S
S474 N475 1.613 . S
S474 N476 1.610 . S
N475 S474 1.613 . S
N475 C478 1.350 . S
N476 S474 1.610 . S
N476 C477 1.351 . S
C477 C471 1.428 . S
C477 N476 1.351 . S
C477 C478 1.434 . S
C478 C469 1.429 . S
C478 N475 1.350 . S
C478 C477 1.434 . S
C479 C480 1.369 1_545 S
C479 C481 1.419 . S
C479 H483 0.930 . S
C480 C479 1.369 1_565 S
C480 C489 1.429 . S
C481 C479 1.419 . S
C481 C482 1.363 1_545 S
C481 H484 0.929 . S
C482 C481 1.363 1_565 S
C482 C488 1.428 . S
H483 C479 0.930 . S
H484 C481 0.929 . S
S485 N486 1.613 . S
S485 N487 1.610 . S
N486 S485 1.613 . S
N486 C489 1.350 . S
N487 S485 1.610 . S
N487 C488 1.351 . S
C488 C482 1.428 . S
C488 N487 1.351 . S
C488 C489 1.434 . S
C489 C480 1.429 . S
C489 N486 1.350 . S
C489 C488 1.434 . S
C490 C491 1.369 . S
C490 C492 1.419 . S
C490 H494 0.930 . S
C491 C490 1.369 . S
C491 C500 1.429 . S
C492 C490 1.419 . S
C492 C493 1.363 . S
C492 H495 0.929 . S
C493 C492 1.363 . S
C493 C499 1.428 . S
H494 C490 0.930 . S
H495 C492 0.929 . S
S496 N497 1.613 . S
S496 N498 1.610 . S
N497 S496 1.613 . S
N497 C500 1.350 . S
N498 S496 1.610 . S
N498 C499 1.351 . S
C499 C493 1.428 . S
C499 N498 1.351 . S
C499 C500 1.434 . S
C500 C491 1.429 . S
C500 N497 1.350 . S
C500 C499 1.434 . S
C501 C502 1.369 . S
C501 C503 1.419 . S
C501 H505 0.930 . S
C502 C501 1.369 . S
C502 C511 1.429 . S
C503 C501 1.419 . S
C503 C504 1.363 . S
C503 H506 0.929 . S
C504 C503 1.363 . S
C504 C510 1.428 . S
H505 C501 0.930 . S
H506 C503 0.929 . S
S507 N508 1.613 1_554 S
S507 N509 1.610 1_554 S
N508 S507 1.613 1_556 S
N508 C511 1.350 . S
N509 S507 1.610 1_556 S
N509 C510 1.351 . S
C510 C504 1.428 . S
C510 N509 1.351 . S
C510 C511 1.434 . S
C511 C502 1.429 . S
C511 N508 1.350 . S
C511 C510 1.434 . S
C249 C76 1.956 . S
C251 C106 2.222 . S
C262 C146 2.242 . S
C260 C87 1.972 . S
C273 C186 2.253 . S
C271 C54 1.993 . S
C284 C226 2.234 1_455 S
C282 C65 1.978 1_455 S
C295 C96 2.223 1_554 S
C293 C32 1.963 1_545 S
C304 C43 1.983 . S
C306 C136 2.244 1_554 S
C315 C10 1.991 . S
C317 C176 2.252 1_554 S
C326 C21 1.968 . S
C328 C216 2.234 1_654 S
C339 C93 0.771 . S
C337 C60 0.772 1_655 S
C350 C133 0.761 . S
C348 C71 0.770 1_565 S
C361 C173 0.748 . S
C359 C82 0.765 . S
C370 C49 0.762 . S
C372 C213 0.755 . S
C381 C16 0.776 . S
C383 C103 0.763 . S
C394 C143 0.767 . S
C392 C27 0.763 . S
C405 C183 0.749 . S
C403 C38 0.766 . S
C414 C5 0.766 . S
C416 C223 0.750 . S
C425 C59 2.239 . S
C427 C97 2.551 . S
C436 C70 2.190 . S
C438 C137 2.510 . S
C449 C177 2.496 . S
C447 C81 2.176 . S
C460 C217 2.538 . S
C458 C48 2.210 . S
C469 C15 2.238 1_655 S
C471 C107 2.561 . S
C482 C147 2.513 . S
C480 C26 2.196 1_565 S
C493 C187 2.495 . S
C491 C37 2.179 . S
C502 C4 2.232 . S
C504 C227 2.543 . S
