# Generated by pormake.
# Topology pth, (4,4)-cn, num edge types: 1
# Building blocks:
#     Node 0, Type 0, BuildingBlock: NAHDIM_clean_sbu_0, # of connection points: 4
#     Node 1, Type 0, BuildingBlock: NAHDIM_clean_sbu_0, # of connection points: 4
#     Node 2, Type 0, BuildingBlock: NAHDIM_clean_sbu_0, # of connection points: 4
#     Node 3, Type 1, BuildingBlock: NAHDIM_clean_linker_0, # of connection points: 4
#     Node 4, Type 1, BuildingBlock: NAHDIM_clean_linker_0, # of connection points: 4
#     Node 5, Type 1, BuildingBlock: NAHDIM_clean_linker_0, # of connection points: 4
#     Edge 6, Type (0, 1), BuildingBlock: XIVTED_clean_linker_0, # of connection points: 2
#     Edge 7, Type (0, 1), BuildingBlock: XIVTED_clean_linker_0, # of connection points: 2
#     Edge 8, Type (0, 1), BuildingBlock: XIVTED_clean_linker_0, # of connection points: 2
#     Edge 9, Type (0, 1), BuildingBlock: XIVTED_clean_linker_0, # of connection points: 2
#     Edge 10, Type (0, 1), BuildingBlock: XIVTED_clean_linker_0, # of connection points: 2
#     Edge 11, Type (0, 1), BuildingBlock: XIVTED_clean_linker_0, # of connection points: 2
#     Edge 12, Type (0, 1), BuildingBlock: XIVTED_clean_linker_0, # of connection points: 2
#     Edge 13, Type (0, 1), BuildingBlock: XIVTED_clean_linker_0, # of connection points: 2
#     Edge 14, Type (0, 1), BuildingBlock: XIVTED_clean_linker_0, # of connection points: 2
#     Edge 15, Type (0, 1), BuildingBlock: XIVTED_clean_linker_0, # of connection points: 2
#     Edge 16, Type (0, 1), BuildingBlock: XIVTED_clean_linker_0, # of connection points: 2
#     Edge 17, Type (0, 1), BuildingBlock: XIVTED_clean_linker_0, # of connection points: 2
# Relax obj value: 0.059
# Max RMSD: 0.179
# Mean RMSD: 0.115
data_MOF--net-pth--node1-NAHDIM_clean_sbu_0--node2-NAHDIM_clean_linker_0--edge1-XIVTED_clean_linker_0
_symmetry_space_group_name_H-M    P1
_symmetry_Int_Tables_number       1
_symmetry_cell_setting            triclinic
loop_
_symmetry_equiv_pos_as_xyz
'x, y, z'
_cell_length_a     31.701565
_cell_length_b     31.841398
_cell_length_c     79.439109
_cell_angle_alpha  91.746282
_cell_angle_beta   90.368316
_cell_angle_gamma 120.57784
loop_
_atom_site_label
_atom_site_type_symbol
_atom_site_fract_x
_atom_site_fract_y
_atom_site_fract_z
_atom_type_partial_charge
C0 C 0.09621 0.03532 0.07297 0.0
O1 O 0.11193 0.07974 0.07914 0.0
O2 O 0.05017 0.11027 0.06117 0.0
Zn3 Zn 0.06107 0.06676 0.045 0.0
O4 O 0.99962 0.02154 0.03154 0.0
C5 C 0.15037 0.14964 0.03326 0.0
O6 O 0.1572 0.16397 0.04924 0.0
O7 O 0.07675 0.02346 0.05827 0.0
C8 C 0.9881 0.03291 0.01777 0.0
O9 O 0.0157 0.07727 0.0124 0.0
C10 C 0.05125 0.14866 0.05654 0.0
O11 O 0.0568 0.15908 0.04054 0.0
O12 O 0.11375 0.10826 0.02888 0.0
C13 C 0.11638 0.16113 0.34519 0.0
O14 O 0.10565 0.11827 0.33872 0.0
O15 O 0.08361 0.05064 0.36463 0.0
Zn16 Zn 0.10691 0.11508 0.37703 0.0
O17 O 0.05455 0.11144 0.39214 0.0
C18 C 0.17469 0.14466 0.40601 0.0
O19 O 0.14762 0.16096 0.41265 0.0
O20 O 0.12194 0.16873 0.36106 0.0
C21 C 0.03427 0.08097 0.40362 0.0
O22 O 0.04683 0.04808 0.40599 0.0
C23 C 0.04106 0.02219 0.35829 0.0
O24 O 0.00744 0.03458 0.35939 0.0
O25 O 0.16562 0.12722 0.39095 0.0
C26 C 0.12934 0.05805 0.68528 0.0
O27 O 0.14273 0.10338 0.68961 0.0
O28 O 0.00275 0.05558 0.68709 0.0
Zn29 Zn 0.04247 0.03916 0.70254 0.0
O30 O 0.08227 0.09819 0.71798 0.0
C31 C 0.97527 0.98866 0.72861 0.0
O32 O 0.98205 0.03251 0.73163 0.0
O33 O 0.08724 0.02387 0.68929 0.0
C34 C 0.10432 0.09726 0.73124 0.0
O35 O 0.10229 0.05643 0.73507 0.0
C36 C 0.95722 0.02705 0.68403 0.0
O37 O 0.93496 0.98355 0.6904 0.0
O38 O 0.99764 0.98202 0.71654 0.0
C39 C 0.9131 0.65499 0.3216 0.0
C40 C 0.95554 0.69107 0.311 0.0
C41 C 0.96391 0.66754 0.28241 0.0
C42 C 0.01511 0.69128 0.28156 0.0
C43 C 0.03744 0.67474 0.27005 0.0
C44 C 0.00784 0.6333 0.25935 0.0
C45 C 0.95609 0.61025 0.25989 0.0
C46 C 0.93486 0.62844 0.2712 0.0
C47 C 0.09262 0.70091 0.26956 0.0
C48 C 0.92312 0.56542 0.24895 0.0
C49 C 0.09035 0.34567 0.28698 0.0
C50 C 0.07523 0.37234 0.27585 0.0
C51 C 0.0929 0.45461 0.27054 0.0
C52 C 0.04735 0.43914 0.26251 0.0
C53 C 0.03726 0.47274 0.25526 0.0
C54 C 0.07373 0.52281 0.25575 0.0
C55 C 0.11933 0.53872 0.26401 0.0
C56 C 0.1282 0.50433 0.27141 0.0
C57 C 0.98774 0.45458 0.24687 0.0
C58 C 0.15889 0.59187 0.26472 0.0
C59 C 0.11072 0.47728 0.1482 0.0
C60 C 0.0631 0.45755 0.15423 0.0
C61 C 0.04884 0.48736 0.16279 0.0
C62 C 0.08311 0.53783 0.16543 0.0
C63 C 0.13043 0.5581 0.15868 0.0
C64 C 0.14342 0.52751 0.14994 0.0
C65 C 0.99745 0.46476 0.16928 0.0
C66 C 0.16767 0.61176 0.16114 0.0
C67 C 0.91398 0.76807 0.15512 0.0
C68 C 0.96235 0.76887 0.15324 0.0
C69 C 0.97492 0.69948 0.15411 0.0
C70 C 0.94789 0.64873 0.1548 0.0
C71 C 0.9681 0.6231 0.16208 0.0
C72 C 0.01712 0.64905 0.16834 0.0
C73 C 0.04573 0.70017 0.16664 0.0
C74 C 0.02418 0.72499 0.15966 0.0
C75 C 0.93663 0.56851 0.16349 0.0
C76 C 0.09868 0.72866 0.17255 0.0
C77 C 0.03079 0.61175 0.24861 0.0
C78 C 0.04583 0.58254 0.25639 0.0
C79 C 0.06432 0.55791 0.24703 0.0
C80 C 0.06874 0.56287 0.22942 0.0
C81 C 0.08745 0.53872 0.21966 0.0
C82 C 0.08884 0.5413 0.20223 0.0
C83 C 0.07154 0.56811 0.19386 0.0
C84 C 0.07017 0.56861 0.17607 0.0
C85 C 0.05356 0.5963 0.16814 0.0
C86 C 0.03732 0.62301 0.17753 0.0
C87 C 0.03757 0.62224 0.19534 0.0
C88 C 0.02047 0.6478 0.20519 0.0
C89 C 0.01939 0.64548 0.22266 0.0
C90 C 0.03452 0.61682 0.23096 0.0
C91 C 0.05309 0.59183 0.22132 0.0
C92 C 0.05454 0.59448 0.2035 0.0
C93 C 0.16599 0.4129 0.15409 0.0
C94 C 0.11818 0.40483 0.14619 0.0
O95 O 0.94163 0.68106 0.2941 0.0
O96 O 0.95221 0.72258 0.14814 0.0
O97 O 0.12588 0.44887 0.14046 0.0
O98 O 0.10401 0.42274 0.27748 0.0
H99 H 0.98672 0.68528 0.31374 0.0
H100 H 0.90431 0.61718 0.31831 0.0
H101 H 0.87975 0.65727 0.31924 0.0
H102 H 0.92335 0.66261 0.33523 0.0
H103 H 0.03755 0.72255 0.28994 0.0
H104 H 0.89534 0.61079 0.27189 0.0
H105 H 0.10558 0.67755 0.27495 0.0
H106 H 0.11016 0.7363 0.27687 0.0
H107 H 0.10482 0.70766 0.25634 0.0
H108 H 0.88399 0.54868 0.2523 0.0
H109 H 0.93425 0.5377 0.2501 0.0
H110 H 0.92659 0.57538 0.23556 0.0
H111 H 0.06595 0.35805 0.26252 0.0
H112 H 0.02805 0.30959 0.30467 0.0
H113 H 0.12936 0.3724 0.2913 0.0
H114 H 0.10057 0.32375 0.27826 0.0
H115 H 0.0194 0.40086 0.2618 0.0
H116 H 0.16312 0.51603 0.27768 0.0
H117 H 0.99209 0.45939 0.23309 0.0
H118 H 0.97151 0.47624 0.25166 0.0
H119 H 0.96176 0.41539 0.24904 0.0
H120 H 0.19269 0.59834 0.27141 0.0
H121 H 0.1452 0.61379 0.27124 0.0
H122 H 0.16826 0.60512 0.25174 0.0
H123 H 0.09023 0.39089 0.15616 0.0
H124 H 0.03705 0.41893 0.15221 0.0
H125 H 0.1798 0.54242 0.14493 0.0
H126 H 0.99871 0.46454 0.18324 0.0
H127 H 0.97349 0.42664 0.16433 0.0
H128 H 0.98079 0.48674 0.16575 0.0
H129 H 0.20323 0.6217 0.15536 0.0
H130 H 0.17408 0.62186 0.17481 0.0
H131 H 0.15327 0.63357 0.15547 0.0
H132 H 0.98094 0.77923 0.16591 0.0
H133 H 0.92094 0.80462 0.15945 0.0
H134 H 0.89131 0.74127 0.1646 0.0
H135 H 0.89302 0.75738 0.14294 0.0
H136 H 0.91015 0.6294 0.15021 0.0
H137 H 0.04577 0.76421 0.15859 0.0
H138 H 0.93605 0.55858 0.17681 0.0
H139 H 0.95252 0.5502 0.15597 0.0
H140 H 0.89833 0.55424 0.15894 0.0
H141 H 0.11766 0.76677 0.16828 0.0
H142 H 0.1185 0.7104 0.16785 0.0
H143 H 0.10065 0.72977 0.18653 0.0
H144 H 0.04148 0.57754 0.26986 0.0
H145 H 0.10077 0.51708 0.22539 0.0
H146 H 0.10318 0.52153 0.19538 0.0
H147 H 0.05216 0.59614 0.15448 0.0
H148 H 0.00734 0.66962 0.1995 0.0
H149 H 0.00579 0.6658 0.22958 0.0
H150 H 0.19542 0.42663 0.14466 0.0
H151 H 0.16068 0.37826 0.159 0.0
H152 H 0.17787 0.44019 0.16476 0.0
C153 C 0.36798 0.93325 0.65249 0.0
C154 C 0.37501 0.97485 0.64149 0.0
C155 C 0.40441 0.98383 0.613 0.0
C156 C 0.42782 0.03467 0.61194 0.0
C157 C 0.46615 0.05938 0.60074 0.0
C158 C 0.48189 0.03266 0.59069 0.0
C159 C 0.45689 0.98106 0.59132 0.0
C160 C 0.41764 0.95725 0.60223 0.0
C161 C 0.49076 0.11417 0.60007 0.0
C162 C 0.47301 0.95113 0.58111 0.0
C163 C 0.7935 0.22999 0.65673 0.0
C164 C 0.77245 0.18463 0.64493 0.0
C165 C 0.74077 0.17474 0.61634 0.0
C166 C 0.71469 0.12366 0.61458 0.0
C167 C 0.67594 0.09945 0.60272 0.0
C168 C 0.6622 0.12697 0.59278 0.0
C169 C 0.68939 0.17868 0.59429 0.0
C170 C 0.72922 0.20187 0.60579 0.0
C171 C 0.64901 0.04442 0.60114 0.0
C172 C 0.67536 0.20955 0.58431 0.0
C173 C 0.75426 0.13381 0.4875 0.0
C174 C 0.7222 0.08544 0.49182 0.0
C175 C 0.67666 0.07192 0.49878 0.0
C176 C 0.66299 0.10753 0.5014 0.0
C177 C 0.6941 0.15567 0.49617 0.0
C178 C 0.7393 0.16808 0.48911 0.0
C179 C 0.64366 0.01987 0.50374 0.0
C180 C 0.68032 0.1943 0.49861 0.0
C181 C 0.2626 0.95406 0.4847 0.0
C182 C 0.31089 0.00229 0.48324 0.0
C183 C 0.39224 0.01191 0.4838 0.0
C184 C 0.41351 0.98282 0.48384 0.0
C185 C 0.45921 0.99941 0.49182 0.0
C186 C 0.48466 0.04689 0.49948 0.0
C187 C 0.46486 0.07782 0.49835 0.0
C188 C 0.41857 0.05983 0.49064 0.0
C189 C 0.47942 0.96562 0.49259 0.0
C190 C 0.4919 0.12939 0.50573 0.0
C191 C 0.52761 0.05874 0.58103 0.0
C192 C 0.57203 0.08059 0.59015 0.0
C193 C 0.61684 0.10179 0.58205 0.0
C194 C 0.61753 0.0998 0.56426 0.0
C195 C 0.66158 0.11685 0.55567 0.0
C196 C 0.66182 0.11512 0.53815 0.0
C197 C 0.61807 0.09689 0.52855 0.0
C198 C 0.61792 0.09503 0.51073 0.0
C199 C 0.57418 0.07898 0.50158 0.0
C200 C 0.52991 0.06283 0.50979 0.0
C201 C 0.52891 0.06172 0.52759 0.0
C202 C 0.48461 0.04291 0.53623 0.0
C203 C 0.48404 0.04193 0.55373 0.0
C204 C 0.52774 0.06005 0.56327 0.0
C205 C 0.57286 0.07992 0.55485 0.0
C206 C 0.5733 0.07965 0.53698 0.0
C207 C 0.8711 0.17984 0.49928 0.0
C208 C 0.83234 0.13635 0.48853 0.0
O209 O 0.37014 0.95976 0.62468 0.0
O210 O 0.34612 0.99249 0.47726 0.0
O211 O 0.79963 0.14833 0.48167 0.0
O212 O 0.77631 0.1987 0.62841 0.0
H213 H 0.41292 0.00574 0.64439 0.0
H214 H 0.39675 0.92406 0.64978 0.0
H215 H 0.33159 0.90001 0.64993 0.0
H216 H 0.37117 0.94443 0.66605 0.0
H217 H 0.4165 0.05501 0.62001 0.0
H218 H 0.39883 0.91792 0.60308 0.0
H219 H 0.5266 0.13128 0.60697 0.0
H220 H 0.46833 0.12816 0.60592 0.0
H221 H 0.49785 0.12568 0.58683 0.0
H222 H 0.45335 0.91222 0.58453 0.0
H223 H 0.513 0.96623 0.58296 0.0
H224 H 0.46586 0.95271 0.56752 0.0
H225 H 0.73303 0.16145 0.64808 0.0
H226 H 0.79066 0.21952 0.67007 0.0
H227 H 0.77251 0.24887 0.65499 0.0
H228 H 0.83256 0.2559 0.65403 0.0
H229 H 0.72447 0.10268 0.6225 0.0
H230 H 0.74996 0.24135 0.60721 0.0
H231 H 0.64093 0.03175 0.5877 0.0
H232 H 0.61358 0.02936 0.60763 0.0
H233 H 0.67031 0.02938 0.60693 0.0
H234 H 0.6954 0.2484 0.58886 0.0
H235 H 0.63539 0.19537 0.58502 0.0
H236 H 0.68396 0.20803 0.57087 0.0
H237 H 0.81354 0.10522 0.49703 0.0
H238 H 0.73275 0.05827 0.4898 0.0
H239 H 0.76399 0.2051 0.4854 0.0
H240 H 0.64036 0.01881 0.51765 0.0
H241 H 0.65774 0.9957 0.49963 0.0
H242 H 0.60633 0.00524 0.49817 0.0
H243 H 0.70782 0.22967 0.49339 0.0
H244 H 0.67681 0.20014 0.51226 0.0
H245 H 0.64413 0.18181 0.49242 0.0
H246 H 0.32127 0.0195 0.49618 0.0
H247 H 0.23378 0.96075 0.4897 0.0
H248 H 0.26764 0.93042 0.49351 0.0
H249 H 0.25011 0.93441 0.47223 0.0
H250 H 0.39314 0.94618 0.47823 0.0
H251 H 0.40288 0.08307 0.49006 0.0
H252 H 0.48707 0.96141 0.50591 0.0
H253 H 0.51462 0.98166 0.48591 0.0
H254 H 0.45386 0.92892 0.48678 0.0
H255 H 0.47581 0.15115 0.50134 0.0
H256 H 0.53112 0.14802 0.50235 0.0
H257 H 0.49026 0.12853 0.51968 0.0
H258 H 0.5717 0.08082 0.60382 0.0
H259 H 0.69631 0.13138 0.56241 0.0
H260 H 0.69685 0.12871 0.53223 0.0
H261 H 0.57451 0.0785 0.48792 0.0
H262 H 0.44977 0.02833 0.52957 0.0
H263 H 0.44896 0.02705 0.55973 0.0
H264 H 0.89778 0.17105 0.50489 0.0
H265 H 0.8532 0.18852 0.50969 0.0
H266 H 0.89111 0.2126 0.49158 0.0
C267 C 0.77224 0.70476 0.81326 0.0
C268 C 0.74273 0.70803 0.79849 0.0
C269 C 0.66392 0.68511 0.81175 0.0
C270 C 0.63538 0.70368 0.81803 0.0
C271 C 0.59193 0.67408 0.82649 0.0
C272 C 0.57686 0.62456 0.8288 0.0
C273 C 0.60474 0.605 0.82206 0.0
C274 C 0.64789 0.63539 0.81351 0.0
C275 C 0.56272 0.696 0.83328 0.0
C276 C 0.58943 0.55225 0.82424 0.0
C277 C 0.17384 0.37205 0.82101 0.0
C278 C 0.22189 0.3742 0.81679 0.0
C279 C 0.30259 0.44793 0.81674 0.0
C280 C 0.3306 0.42696 0.82117 0.0
C281 C 0.37845 0.45607 0.82783 0.0
C282 C 0.3983 0.507 0.83028 0.0
C283 C 0.37109 0.52845 0.82496 0.0
C284 C 0.32368 0.49855 0.81804 0.0
C285 C 0.40717 0.43223 0.83278 0.0
C286 C 0.39131 0.58267 0.82721 0.0
C287 C 0.32404 0.45764 0.93797 0.0
C288 C 0.35051 0.43623 0.93186 0.0
C289 C 0.39487 0.46421 0.92364 0.0
C290 C 0.41277 0.5144 0.92139 0.0
C291 C 0.3872 0.53642 0.9282 0.0
C292 C 0.34336 0.50773 0.9366 0.0
C293 C 0.4221 0.43995 0.91703 0.0
C294 C 0.40543 0.58991 0.92617 0.0
C295 C 0.8014 0.76306 0.92433 0.0
C296 C 0.7642 0.77075 0.93403 0.0
C297 C 0.68398 0.69695 0.93459 0.0
C298 C 0.66666 0.64696 0.93299 0.0
C299 C 0.62052 0.61475 0.92551 0.0
C300 C 0.59083 0.63318 0.91991 0.0
C301 C 0.60697 0.68336 0.92251 0.0
C302 C 0.65353 0.7148 0.92981 0.0
C303 C 0.60413 0.56137 0.92311 0.0
C304 C 0.57547 0.7039 0.91722 0.0
C305 C 0.53337 0.59407 0.83903 0.0
C306 C 0.48807 0.56478 0.83072 0.0
C307 C 0.44549 0.53703 0.83975 0.0
C308 C 0.44788 0.53855 0.85757 0.0
C309 C 0.40555 0.5121 0.86706 0.0
C310 C 0.40829 0.51355 0.88457 0.0
C311 C 0.45344 0.54163 0.89331 0.0
C312 C 0.45663 0.54319 0.91112 0.0
C313 C 0.50184 0.5728 0.91943 0.0
C314 C 0.54433 0.60076 0.91039 0.0
C315 C 0.54211 0.59862 0.89257 0.0
C316 C 0.58441 0.62533 0.8831 0.0
C317 C 0.58173 0.62366 0.86558 0.0
C318 C 0.53662 0.59527 0.85684 0.0
C319 C 0.49366 0.56755 0.86612 0.0
C320 C 0.49643 0.56916 0.88401 0.0
C321 C 0.19502 0.37742 0.93946 0.0
C322 C 0.2455 0.38264 0.94141 0.0
O323 O 0.70664 0.71671 0.80436 0.0
O324 O 0.73006 0.72704 0.94087 0.0
O325 O 0.27982 0.43122 0.94519 0.0
O326 O 0.25505 0.42043 0.81144 0.0
H327 H 0.72557 0.67331 0.79076 0.0
H328 H 0.74845 0.67363 0.82117 0.0
H329 H 0.78885 0.73877 0.82135 0.0
H330 H 0.8019 0.69908 0.80847 0.0
H331 H 0.64777 0.74193 0.8165 0.0
H332 H 0.66902 0.6201 0.80847 0.0
H333 H 0.52367 0.67303 0.82917 0.0
H334 H 0.57687 0.73374 0.82909 0.0
H335 H 0.56417 0.69694 0.84726 0.0
H336 H 0.61522 0.54256 0.81836 0.0
H337 H 0.5523 0.52821 0.81853 0.0
H338 H 0.58734 0.54478 0.83787 0.0
H339 H 0.23548 0.36692 0.82869 0.0
H340 H 0.14663 0.33528 0.82536 0.0
H341 H 0.15833 0.38021 0.80984 0.0
H342 H 0.18054 0.3994 0.83127 0.0
H343 H 0.31501 0.38788 0.81957 0.0
H344 H 0.30199 0.51439 0.81429 0.0
H345 H 0.44505 0.45307 0.82805 0.0
H346 H 0.38967 0.39383 0.82785 0.0
H347 H 0.40985 0.43248 0.84672 0.0
H348 H 0.36517 0.59356 0.82265 0.0
H349 H 0.42584 0.60276 0.82022 0.0
H350 H 0.40021 0.59399 0.84074 0.0
H351 H 0.25327 0.37072 0.92906 0.0
H352 H 0.33659 0.39775 0.93347 0.0
H353 H 0.32299 0.52398 0.94162 0.0
H354 H 0.42023 0.43815 0.90305 0.0
H355 H 0.40658 0.40229 0.92151 0.0
H356 H 0.46139 0.4618 0.92099 0.0
H357 H 0.38042 0.60112 0.93173 0.0
H358 H 0.40937 0.59812 0.91259 0.0
H359 H 0.44219 0.6122 0.93235 0.0
H360 H 0.74642 0.78313 0.92488 0.0
H361 H 0.82906 0.79758 0.91865 0.0
H362 H 0.78232 0.73502 0.91401 0.0
H363 H 0.82043 0.75045 0.9328 0.0
H364 H 0.69021 0.63352 0.93705 0.0
H365 H 0.66613 0.75325 0.93178 0.0
H366 H 0.59748 0.55062 0.90949 0.0
H367 H 0.56899 0.53897 0.92955 0.0
H368 H 0.63159 0.55282 0.92813 0.0
H369 H 0.591 0.74247 0.92172 0.0
H370 H 0.53801 0.68169 0.92216 0.0
H371 H 0.57208 0.70212 0.90326 0.0
H372 H 0.48586 0.56395 0.81706 0.0
H373 H 0.3697 0.48995 0.86109 0.0
H374 H 0.37444 0.49243 0.89115 0.0
H375 H 0.50391 0.57441 0.93309 0.0
H376 H 0.62016 0.64789 0.88911 0.0
H377 H 0.61553 0.64502 0.859 0.0
H378 H 0.18483 0.38912 0.95132 0.0
H379 H 0.16676 0.33889 0.93616 0.0
H380 H 0.19545 0.40057 0.9292 0.0
H381 H 0.03105 0.13525 0.09006 0.0
H382 H 0.14102 0.41775 0.1124 0.0
H383 H 0.07573 0.24331 0.05216 0.0
H384 H 0.05959 0.30566 0.14772 0.0
H385 H 0.11838 0.35455 0.09018 0.0
H386 H 0.04165 0.19696 0.11144 0.0
C387 C 0.04266 0.17184 0.08621 0.0
C388 C 0.05271 0.18419 0.06931 0.0
C389 C 0.10485 0.34377 0.10273 0.0
C390 C 0.06548 0.25512 0.09374 0.0
C391 C 0.11764 0.37985 0.11541 0.0
C392 C 0.10125 0.36691 0.13186 0.0
C393 C 0.07643 0.29435 0.1066 0.0
C394 C 0.07227 0.31714 0.13514 0.0
C395 C 0.04866 0.20704 0.09842 0.0
C396 C 0.06755 0.23215 0.06504 0.0
N397 N 0.06099 0.28266 0.12265 0.0
N398 N 0.07398 0.266 0.07721 0.0
H399 H 0.00044 0.14446 0.40182 0.0
H400 H 0.85293 0.0623 0.48749 0.0
H401 H 0.98899 0.02736 0.43119 0.0
H402 H 0.8685 0.18164 0.4586 0.0
H403 H 0.89778 0.04502 0.46605 0.0
H404 H 0.94718 0.15453 0.42145 0.0
C405 C 0.98654 0.12065 0.41236 0.0
C406 C 0.99949 0.08516 0.41491 0.0
C407 C 0.891 0.0747 0.4643 0.0
C408 C 0.93843 0.09669 0.43752 0.0
C409 C 0.86529 0.08444 0.4765 0.0
C410 C 0.85645 0.12302 0.47468 0.0
C411 C 0.90844 0.10406 0.45024 0.0
C412 C 0.87398 0.15116 0.46036 0.0
C413 C 0.9561 0.12647 0.42358 0.0
C414 C 0.98012 0.05529 0.42876 0.0
N415 N 0.89919 0.14116 0.44871 0.0
N416 N 0.95076 0.06189 0.43959 0.0
H417 H 0.9281 0.99225 0.75682 0.0
H418 H 0.78458 0.70338 0.76874 0.0
H419 H 0.94536 0.89152 0.72409 0.0
H420 H 0.78 0.80677 0.80391 0.0
H421 H 0.84157 0.77122 0.75165 0.0
H422 H 0.87177 0.9242 0.77369 0.0
C423 C 0.92005 0.9558 0.75317 0.0
C424 C 0.94149 0.94761 0.739 0.0
C425 C 0.82792 0.77905 0.76307 0.0
C426 C 0.87679 0.86933 0.75829 0.0
C427 C 0.79529 0.74036 0.77276 0.0
C428 C 0.77676 0.74943 0.78755 0.0
C429 C 0.84236 0.8272 0.76826 0.0
C430 C 0.79265 0.79811 0.79242 0.0
C431 C 0.88788 0.91692 0.76283 0.0
C432 C 0.92973 0.89956 0.73492 0.0
N433 N 0.82433 0.83509 0.78277 0.0
N434 N 0.89808 0.86221 0.7445 0.0
H435 H 0.12419 0.04463 0.10626 0.0
H436 H 0.95951 0.75868 0.11851 0.0
H437 H 0.05661 0.93785 0.06514 0.0
H438 H 0.0346 0.86404 0.1594 0.0
H439 H 0.00359 0.82274 0.09845 0.0
H440 H 0.10173 0.97848 0.12551 0.0
C441 C 0.10537 0.00735 0.10122 0.0
C442 C 0.09152 0.99679 0.0841 0.0
C443 C 0.0111 0.83177 0.1118 0.0
C444 C 0.06512 0.92082 0.10611 0.0
C445 C 0.98605 0.79516 0.12324 0.0
C446 C 0.99383 0.80608 0.14062 0.0
C447 C 0.04352 0.87988 0.11779 0.0
C448 C 0.02789 0.85412 0.14609 0.0
C449 C 0.09241 0.96954 0.11224 0.0
C450 C 0.06749 0.94775 0.07828 0.0
N451 N 0.05118 0.88934 0.13472 0.0
N452 N 0.05443 0.91159 0.0893 0.0
H453 H 0.23291 0.10788 0.39663 0.0
H454 H 0.29135 0.07468 0.49167 0.0
H455 H 0.19321 0.16413 0.44002 0.0
H456 H 0.31204 0.00245 0.44846 0.0
H457 H 0.26938 0.12029 0.47276 0.0
H458 H 0.2769 0.08273 0.41523 0.0
C459 C 0.23403 0.11564 0.41005 0.0
C460 C 0.20862 0.13749 0.41679 0.0
C461 C 0.27947 0.09504 0.4674 0.0
C462 C 0.25865 0.10831 0.43818 0.0
C463 C 0.29216 0.06918 0.47818 0.0
C464 C 0.30396 0.03515 0.4716 0.0
C465 C 0.27814 0.08647 0.4499 0.0
C466 C 0.3037 0.02874 0.45403 0.0
C467 C 0.25906 0.10109 0.42067 0.0
C468 C 0.21183 0.14698 0.43427 0.0
N469 N 0.29073 0.05397 0.4438 0.0
N470 N 0.23583 0.13178 0.44438 0.0
H471 H 0.11898 0.18838 0.72632 0.0
H472 H 0.21879 0.28716 0.82036 0.0
H473 H 0.14532 0.10545 0.76257 0.0
H474 H 0.20318 0.3736 0.78281 0.0
H475 H 0.19655 0.22184 0.79895 0.0
H476 H 0.1541 0.25815 0.74634 0.0
C477 C 0.13241 0.1849 0.73846 0.0
C478 C 0.12884 0.14082 0.74282 0.0
C479 C 0.19846 0.25526 0.79533 0.0
C480 C 0.16897 0.22067 0.76587 0.0
C481 C 0.21124 0.29253 0.80754 0.0
C482 C 0.21301 0.33583 0.8033 0.0
C483 C 0.1868 0.2611 0.7788 0.0
C484 C 0.20246 0.34084 0.78655 0.0
C485 C 0.15253 0.22483 0.74989 0.0
C486 C 0.14714 0.13862 0.7587 0.0
N487 N 0.18952 0.30381 0.77494 0.0
N488 N 0.16607 0.17786 0.7697 0.0
H489 H 0.85748 0.98292 0.68041 0.0
H490 H 0.86661 0.2103 0.63639 0.0
H491 H 0.99195 0.11223 0.66744 0.0
H492 H 0.73866 0.09706 0.65997 0.0
H493 H 0.91085 0.16813 0.64326 0.0
H494 H 0.81116 0.01745 0.66834 0.0
C495 C 0.87728 0.01832 0.67485 0.0
C496 C 0.9287 0.04495 0.67509 0.0
C497 C 0.87297 0.15233 0.64681 0.0
C498 C 0.87588 0.08469 0.66131 0.0
C499 C 0.84779 0.17629 0.64286 0.0
C500 C 0.79904 0.15712 0.64767 0.0
C501 C 0.84916 0.10884 0.65557 0.0
C502 C 0.77624 0.11304 0.65606 0.0
C503 C 0.85079 0.03808 0.66803 0.0
C504 C 0.95235 0.09062 0.66767 0.0
N505 N 0.80152 0.09045 0.65979 0.0
N506 N 0.92576 0.10917 0.66117 0.0
H507 H 0.93006 0.9357 0.0237 0.0
H508 H 0.79626 0.86843 0.93287 0.0
H509 H 0.95431 0.043 0.98717 0.0
H510 H 0.7931 0.76214 0.96601 0.0
H511 H 0.84474 0.9329 0.95423 0.0
H512 H 0.86978 0.87187 0.0044 0.0
C513 C 0.92239 0.94596 0.01169 0.0
C514 C 0.94769 0.9948 0.00698 0.0
C515 C 0.83296 0.89541 0.95691 0.0
C516 C 0.87875 0.92171 0.98479 0.0
C517 C 0.80517 0.85866 0.94477 0.0
C518 C 0.79003 0.80986 0.9478 0.0
C519 C 0.84602 0.88332 0.97216 0.0
C520 C 0.80336 0.7992 0.96328 0.0
C521 C 0.88804 0.90942 0.00065 0.0
C522 C 0.93598 0.00583 0.99128 0.0
N523 N 0.83061 0.83564 0.97487 0.0
N524 N 0.90257 0.96952 0.9807 0.0
H525 H 0.10134 0.98452 0.3555 0.0
H526 H 0.90388 0.73817 0.30585 0.0
H527 H 0.95556 0.95294 0.34209 0.0
H528 H 0.03937 0.76132 0.32762 0.0
H529 H 0.92532 0.82029 0.31615 0.0
H530 H 0.08224 0.90634 0.34251 0.0
C531 C 0.06528 0.96121 0.34979 0.0
C532 C 0.02989 0.97528 0.34998 0.0
C533 C 0.95045 0.80747 0.31859 0.0
C534 C 0.00779 0.88541 0.33502 0.0
C535 C 0.93832 0.76078 0.31267 0.0
C536 C 0.96991 0.74301 0.31592 0.0
C537 C 0.99459 0.83663 0.32775 0.0
C538 C 0.01402 0.77363 0.32484 0.0
C539 C 0.0544 0.91647 0.34238 0.0
C540 C 0.98388 0.9435 0.34231 0.0
N541 N 0.02501 0.81887 0.33046 0.0
N542 N 0.97412 0.89998 0.33515 0.0
H543 H 0.11092 0.97014 0.67151 0.0
H544 H 0.39222 0.06171 0.65602 0.0
H545 H 0.22655 0.12018 0.67961 0.0
H546 H 0.27452 0.92278 0.63657 0.0
H547 H 0.33203 0.08375 0.66486 0.0
H548 H 0.16998 0.95155 0.65887 0.0
C549 C 0.14867 0.99923 0.67056 0.0
C550 C 0.16388 0.04675 0.67672 0.0
C551 C 0.31931 0.04858 0.65854 0.0
C552 C 0.23166 0.02564 0.66236 0.0
C553 C 0.35365 0.03601 0.65351 0.0
C554 C 0.33824 0.99025 0.64566 0.0
C555 C 0.2691 0.01491 0.6559 0.0
C556 C 0.28783 0.9583 0.64268 0.0
C557 C 0.18232 0.98861 0.6633 0.0
C558 C 0.2132 0.08302 0.67508 0.0
N559 N 0.255 0.97104 0.64795 0.0
N560 N 0.2454 0.07162 0.66818 0.0
H561 H 0.21322 0.24835 0.03726 0.0
H562 H 0.22763 0.2891 0.93809 0.0
H563 H 0.15009 0.13111 0.99937 0.0
H564 H 0.25886 0.40205 0.97584 0.0
H565 H 0.21547 0.23305 0.96048 0.0
H566 H 0.24714 0.3071 0.01494 0.0
C567 C 0.20725 0.23487 0.02427 0.0
C568 C 0.17826 0.18473 0.02017 0.0
C569 C 0.22573 0.27032 0.96386 0.0
C570 C 0.21672 0.25181 0.99459 0.0
C571 C 0.23287 0.3023 0.95111 0.0
C572 C 0.24477 0.35036 0.95513 0.0
C573 C 0.23023 0.28641 0.98079 0.0
C574 C 0.25031 0.36547 0.9722 0.0
C575 C 0.2264 0.26847 0.01153 0.0
C576 C 0.17178 0.16944 0.00311 0.0
N577 N 0.2428 0.33354 0.9844 0.0
N578 N 0.19047 0.20287 0.99094 0.0
H579 H 0.08643 0.1489 0.31213 0.0
H580 H 0.07994 0.41751 0.31189 0.0
H581 H 0.13707 0.25382 0.35411 0.0
H582 H 0.99026 0.27026 0.26974 0.0
H583 H 0.1141 0.35996 0.32838 0.0
H584 H 0.06785 0.20225 0.29625 0.0
C585 C 0.0944 0.18347 0.31793 0.0
C586 C 0.11278 0.1966 0.33457 0.0
C587 C 0.09048 0.34556 0.31726 0.0
C588 C 0.09127 0.2575 0.31649 0.0
C589 C 0.06714 0.38002 0.30794 0.0
C590 C 0.03683 0.35285 0.28704 0.0
C591 C 0.07434 0.287 0.30811 0.0
C592 C 0.01048 0.28711 0.28141 0.0
C593 C 0.08349 0.21375 0.30888 0.0
C594 C 0.12247 0.24201 0.34138 0.0
N595 N 0.03619 0.26267 0.29193 0.0
N596 N 0.11121 0.27075 0.33234 0.0
loop_
_geom_bond_atom_site_label_1
_geom_bond_atom_site_label_2
_geom_bond_distance
_geom_bond_site_symmetry_2
_ccdc_geom_bond_type
C0 O1 1.150 1_565 S
C0 O7 1.180 1_565 S
O1 C0 1.150 1_545 S
O2 Zn3 1.899 . S
O2 C10 1.284 . S
Zn3 O2 1.899 . S
Zn3 O4 2.032 1_455 S
Zn3 O7 2.086 . S
Zn3 O12 1.977 . S
O4 Zn3 2.032 1_655 S
O4 C8 1.278 . S
C5 O6 1.203 . S
C5 O12 1.267 . S
O6 C5 1.203 . S
O7 C0 1.180 1_545 S
O7 Zn3 2.086 . S
C8 O4 1.278 . S
C8 O9 1.211 . S
O9 C8 1.211 . S
C10 O2 1.284 . S
C10 O11 1.273 1_455 S
O11 C10 1.273 1_655 S
O12 Zn3 1.977 . S
O12 C5 1.267 . S
C13 O14 1.160 . S
C13 O20 1.185 . S
O14 C13 1.160 . S
O15 Zn16 1.899 . S
O15 C23 1.284 . S
Zn16 O15 1.899 . S
Zn16 O17 2.032 . S
Zn16 O20 2.086 . S
Zn16 O25 1.977 . S
O17 Zn16 2.032 . S
O17 C21 1.278 . S
C18 O19 1.203 . S
C18 O25 1.267 . S
O19 C18 1.203 . S
O20 C13 1.185 . S
O20 Zn16 2.086 . S
C21 O17 1.278 . S
C21 O22 1.211 . S
O22 C21 1.211 . S
C23 O15 1.284 . S
C23 O24 1.273 . S
O24 C23 1.273 . S
O25 Zn16 1.977 . S
O25 C18 1.267 . S
C26 O27 1.160 . S
C26 O33 1.185 . S
O27 C26 1.160 . S
O28 Zn29 1.899 1_655 S
O28 C36 1.284 . S
Zn29 O28 1.899 1_455 S
Zn29 O30 2.032 . S
Zn29 O33 2.086 . S
Zn29 O38 1.977 1_545 S
O30 Zn29 2.032 . S
O30 C34 1.278 . S
C31 O32 1.203 . S
C31 O38 1.267 1_655 S
O32 C31 1.203 . S
O33 C26 1.185 . S
O33 Zn29 2.086 . S
C34 O30 1.278 . S
C34 O35 1.211 . S
O35 C34 1.211 . S
C36 O28 1.284 . S
C36 O37 1.273 . S
O37 C36 1.273 . S
O38 Zn29 1.977 1_565 S
O38 C31 1.267 1_455 S
C39 C40 1.560 1_655 S
C39 H100 0.959 . S
C39 H101 0.959 . S
C39 H102 0.960 . S
C40 C39 1.560 1_455 S
C40 O95 1.426 1_455 S
C40 H99 0.980 . S
C41 C42 1.407 . S
C41 C46 1.418 1_455 S
C41 O95 1.334 1_455 S
C42 C41 1.407 . S
C42 C43 1.360 . S
C42 H103 0.929 . S
C43 C42 1.360 . S
C43 C44 1.401 . S
C43 C47 1.527 . S
C44 C43 1.401 . S
C44 C45 1.405 1_455 S
C44 C77 1.587 . S
C45 C44 1.405 1_655 S
C45 C46 1.332 . S
C45 C48 1.496 . S
C46 C41 1.418 1_655 S
C46 C45 1.332 . S
C46 H104 0.929 . S
C47 C43 1.527 . S
C47 H105 0.959 . S
C47 H106 0.961 . S
C47 H107 0.961 . S
C48 C45 1.496 . S
C48 H108 0.960 . S
C48 H109 0.960 . S
C48 H110 0.961 . S
C49 C50 1.517 . S
C49 H112 0.961 . S
C49 H113 0.960 . S
C49 H114 0.959 . S
C50 C49 1.517 . S
C50 O98 1.468 . S
C50 H111 0.980 . S
C51 C52 1.349 . S
C51 C56 1.367 . S
C51 O98 1.408 . S
C52 C51 1.349 . S
C52 C53 1.407 . S
C52 H115 0.930 . S
C53 C52 1.407 . S
C53 C54 1.449 . S
C53 C57 1.535 1_455 S
C54 C53 1.449 . S
C54 C55 1.384 . S
C54 C79 1.553 . S
C55 C54 1.384 . S
C55 C56 1.364 . S
C55 C58 1.450 . S
C56 C51 1.367 . S
C56 C55 1.364 . S
C56 H116 0.931 . S
C57 C53 1.535 1_655 S
C57 H117 0.959 . S
C57 H118 0.961 . S
C57 H119 0.959 . S
C58 C55 1.450 . S
C58 H120 0.960 . S
C58 H121 0.960 . S
C58 H122 0.960 . S
C59 C60 1.309 . S
C59 C64 1.304 . S
C59 O97 1.435 . S
C60 C59 1.309 . S
C60 C61 1.476 . S
C60 H124 0.930 1_455 S
C61 C60 1.476 . S
C61 C62 1.400 . S
C61 C65 1.567 1_455 S
C62 C61 1.400 . S
C62 C63 1.373 . S
C62 C84 1.432 . S
C63 C62 1.373 . S
C63 C64 1.339 . S
C63 C66 1.530 . S
C64 C59 1.304 . S
C64 C63 1.339 . S
C64 H125 0.930 . S
C65 C61 1.567 1_655 S
C65 H126 0.961 . S
C65 H127 0.960 . S
C65 H128 0.958 . S
C66 C63 1.530 . S
C66 H129 0.961 . S
C66 H130 0.960 . S
C66 H131 0.960 . S
C67 C68 1.530 1_655 S
C67 H133 0.961 . S
C67 H134 0.961 . S
C67 H135 0.959 . S
C68 C67 1.530 1_455 S
C68 O96 1.412 1_455 S
C68 H132 0.980 . S
C69 C70 1.288 . S
C69 C74 1.377 1_655 S
C69 O96 1.393 . S
C70 C69 1.288 . S
C70 C71 1.369 . S
C70 H136 0.932 . S
C71 C70 1.369 . S
C71 C72 1.398 1_655 S
C71 C75 1.527 . S
C72 C71 1.398 1_455 S
C72 C73 1.380 . S
C72 C86 1.497 . S
C73 C72 1.380 . S
C73 C74 1.383 . S
C73 C76 1.603 . S
C74 C69 1.377 1_455 S
C74 C73 1.383 . S
C74 H137 0.929 . S
C75 C71 1.527 . S
C75 H138 0.961 . S
C75 H139 0.959 . S
C75 H140 0.959 . S
C76 C73 1.603 . S
C76 H141 0.960 . S
C76 H142 0.962 . S
C76 H143 0.961 . S
C77 C44 1.587 . S
C77 C78 1.360 . S
C77 C90 1.412 . S
C78 C77 1.360 . S
C78 C79 1.365 . S
C78 H144 0.929 . S
C79 C54 1.553 . S
C79 C78 1.365 . S
C79 C80 1.404 . S
C80 C79 1.404 . S
C80 C81 1.395 . S
C80 C91 1.451 . S
C81 C80 1.395 . S
C81 C82 1.322 . S
C81 H145 0.930 . S
C82 C81 1.322 . S
C82 C83 1.459 . S
C82 H146 0.929 . S
C83 C82 1.459 . S
C83 C84 1.445 . S
C83 C92 1.395 . S
C84 C62 1.432 . S
C84 C83 1.445 . S
C84 C85 1.370 . S
C85 C84 1.370 . S
C85 C86 1.438 . S
C85 H147 0.930 . S
C86 C72 1.497 . S
C86 C85 1.438 . S
C86 C87 1.360 . S
C87 C86 1.360 . S
C87 C88 1.401 . S
C87 C92 1.446 . S
C88 C87 1.401 . S
C88 C89 1.347 . S
C88 H148 0.929 . S
C89 C88 1.347 . S
C89 C90 1.455 . S
C89 H149 0.930 . S
C90 C77 1.412 . S
C90 C89 1.455 . S
C90 C91 1.331 . S
C91 C80 1.451 . S
C91 C90 1.331 . S
C91 C92 1.497 . S
C92 C83 1.395 . S
C92 C87 1.446 . S
C92 C91 1.497 . S
C93 C94 1.582 . S
C93 H150 0.962 . S
C93 H151 0.959 . S
C93 H152 0.958 . S
C94 C93 1.582 . S
C94 O97 1.458 . S
C94 H123 0.980 . S
O95 C40 1.426 1_655 S
O95 C41 1.334 1_655 S
O96 C68 1.412 1_655 S
O96 C69 1.393 . S
O97 C59 1.435 . S
O97 C94 1.458 . S
O98 C50 1.468 . S
O98 C51 1.408 . S
H99 C40 0.980 . S
H100 C39 0.959 . S
H101 C39 0.959 . S
H102 C39 0.960 . S
H103 C42 0.929 . S
H104 C46 0.929 . S
H105 C47 0.959 . S
H106 C47 0.961 . S
H107 C47 0.961 . S
H108 C48 0.960 . S
H109 C48 0.960 . S
H110 C48 0.961 . S
H111 C50 0.980 . S
H112 C49 0.961 . S
H113 C49 0.960 . S
H114 C49 0.959 . S
H115 C52 0.930 . S
H116 C56 0.931 . S
H117 C57 0.959 . S
H118 C57 0.961 . S
H119 C57 0.959 . S
H120 C58 0.960 . S
H121 C58 0.960 . S
H122 C58 0.960 . S
H123 C94 0.980 . S
H124 C60 0.930 1_655 S
H125 C64 0.930 . S
H126 C65 0.961 . S
H127 C65 0.960 . S
H128 C65 0.958 . S
H129 C66 0.961 . S
H130 C66 0.960 . S
H131 C66 0.960 . S
H132 C68 0.980 . S
H133 C67 0.961 . S
H134 C67 0.961 . S
H135 C67 0.959 . S
H136 C70 0.932 . S
H137 C74 0.929 . S
H138 C75 0.961 . S
H139 C75 0.959 . S
H140 C75 0.959 . S
H141 C76 0.960 . S
H142 C76 0.962 . S
H143 C76 0.961 . S
H144 C78 0.929 . S
H145 C81 0.930 . S
H146 C82 0.929 . S
H147 C85 0.930 . S
H148 C88 0.929 . S
H149 C89 0.930 . S
H150 C93 0.962 . S
H151 C93 0.959 . S
H152 C93 0.958 . S
C153 C154 1.560 1_565 S
C153 H214 0.959 . S
C153 H215 0.959 . S
C153 H216 0.960 1_565 S
C154 C153 1.560 1_545 S
C154 O209 1.426 . S
C154 H213 0.980 . S
C155 C156 1.407 . S
C155 C160 1.418 1_545 S
C155 O209 1.334 . S
C156 C155 1.407 . S
C156 C157 1.360 . S
C156 H217 0.929 . S
C157 C156 1.360 . S
C157 C158 1.401 . S
C157 C161 1.527 . S
C158 C157 1.401 . S
C158 C159 1.405 . S
C158 C191 1.587 . S
C159 C158 1.405 . S
C159 C160 1.332 1_545 S
C159 C162 1.496 1_545 S
C160 C155 1.418 1_565 S
C160 C159 1.332 1_565 S
C160 H218 0.929 . S
C161 C157 1.527 . S
C161 H219 0.959 . S
C161 H220 0.961 . S
C161 H221 0.961 . S
C162 C159 1.496 1_565 S
C162 H222 0.960 . S
C162 H223 0.960 . S
C162 H224 0.961 . S
C163 C164 1.517 . S
C163 H226 0.961 . S
C163 H227 0.960 . S
C163 H228 0.959 . S
C164 C163 1.517 . S
C164 O212 1.468 . S
C164 H225 0.980 . S
C165 C166 1.349 . S
C165 C170 1.367 . S
C165 O212 1.408 . S
C166 C165 1.349 . S
C166 C167 1.407 . S
C166 H229 0.930 . S
C167 C166 1.407 . S
C167 C168 1.449 . S
C167 C171 1.535 . S
C168 C167 1.449 . S
C168 C169 1.384 . S
C168 C193 1.553 . S
C169 C168 1.384 . S
C169 C170 1.364 . S
C169 C172 1.450 . S
C170 C165 1.367 . S
C170 C169 1.364 . S
C170 H230 0.931 . S
C171 C167 1.535 . S
C171 H231 0.959 . S
C171 H232 0.961 1_545 S
C171 H233 0.959 1_545 S
C172 C169 1.450 . S
C172 H234 0.960 . S
C172 H235 0.960 . S
C172 H236 0.960 . S
C173 C174 1.309 . S
C173 C178 1.304 . S
C173 O211 1.435 . S
C174 C173 1.309 . S
C174 C175 1.476 . S
C174 H238 0.930 . S
C175 C174 1.476 . S
C175 C176 1.400 . S
C175 C179 1.567 . S
C176 C175 1.400 . S
C176 C177 1.373 . S
C176 C198 1.432 . S
C177 C176 1.373 . S
C177 C178 1.339 . S
C177 C180 1.530 . S
C178 C173 1.304 . S
C178 C177 1.339 . S
C178 H239 0.930 . S
C179 C175 1.567 . S
C179 H240 0.961 . S
C179 H241 0.960 1_545 S
C179 H242 0.958 1_545 S
C180 C177 1.530 . S
C180 H243 0.961 . S
C180 H244 0.960 . S
C180 H245 0.960 . S
C181 C182 1.530 . S
C181 H247 0.961 . S
C181 H248 0.961 . S
C181 H249 0.959 . S
C182 C181 1.530 . S
C182 O210 1.412 . S
C182 H246 0.980 . S
C183 C184 1.288 . S
C183 C188 1.377 . S
C183 O210 1.393 . S
C184 C183 1.288 . S
C184 C185 1.369 . S
C184 H250 0.932 1_545 S
C185 C184 1.369 . S
C185 C186 1.398 . S
C185 C189 1.527 1_545 S
C186 C185 1.398 . S
C186 C187 1.380 . S
C186 C200 1.497 . S
C187 C186 1.380 . S
C187 C188 1.383 . S
C187 C190 1.603 . S
C188 C183 1.377 . S
C188 C187 1.383 . S
C188 H251 0.929 . S
C189 C185 1.527 1_565 S
C189 H252 0.961 . S
C189 H253 0.959 . S
C189 H254 0.959 . S
C190 C187 1.603 . S
C190 H255 0.960 . S
C190 H256 0.962 . S
C190 H257 0.961 . S
C191 C158 1.587 . S
C191 C192 1.360 . S
C191 C204 1.412 . S
C192 C191 1.360 . S
C192 C193 1.365 . S
C192 H258 0.929 . S
C193 C168 1.553 . S
C193 C192 1.365 . S
C193 C194 1.404 . S
C194 C193 1.404 . S
C194 C195 1.395 . S
C194 C205 1.451 . S
C195 C194 1.395 . S
C195 C196 1.322 . S
C195 H259 0.930 . S
C196 C195 1.322 . S
C196 C197 1.459 . S
C196 H260 0.929 . S
C197 C196 1.459 . S
C197 C198 1.445 . S
C197 C206 1.395 . S
C198 C176 1.432 . S
C198 C197 1.445 . S
C198 C199 1.370 . S
C199 C198 1.370 . S
C199 C200 1.438 . S
C199 H261 0.930 . S
C200 C186 1.497 . S
C200 C199 1.438 . S
C200 C201 1.360 . S
C201 C200 1.360 . S
C201 C202 1.401 . S
C201 C206 1.446 . S
C202 C201 1.401 . S
C202 C203 1.347 . S
C202 H262 0.929 . S
C203 C202 1.347 . S
C203 C204 1.455 . S
C203 H263 0.930 . S
C204 C191 1.412 . S
C204 C203 1.455 . S
C204 C205 1.331 . S
C205 C194 1.451 . S
C205 C204 1.331 . S
C205 C206 1.497 . S
C206 C197 1.395 . S
C206 C201 1.446 . S
C206 C205 1.497 . S
C207 C208 1.582 . S
C207 H264 0.962 . S
C207 H265 0.959 . S
C207 H266 0.958 . S
C208 C207 1.582 . S
C208 O211 1.458 . S
C208 H237 0.980 . S
O209 C154 1.426 . S
O209 C155 1.334 . S
O210 C182 1.412 . S
O210 C183 1.393 . S
O211 C173 1.435 . S
O211 C208 1.458 . S
O212 C164 1.468 . S
O212 C165 1.408 . S
H213 C154 0.980 . S
H214 C153 0.959 . S
H215 C153 0.959 . S
H216 C153 0.960 1_545 S
H217 C156 0.929 . S
H218 C160 0.929 . S
H219 C161 0.959 . S
H220 C161 0.961 . S
H221 C161 0.961 . S
H222 C162 0.960 . S
H223 C162 0.960 . S
H224 C162 0.961 . S
H225 C164 0.980 . S
H226 C163 0.961 . S
H227 C163 0.960 . S
H228 C163 0.959 . S
H229 C166 0.930 . S
H230 C170 0.931 . S
H231 C171 0.959 . S
H232 C171 0.961 1_565 S
H233 C171 0.959 1_565 S
H234 C172 0.960 . S
H235 C172 0.960 . S
H236 C172 0.960 . S
H237 C208 0.980 . S
H238 C174 0.930 . S
H239 C178 0.930 . S
H240 C179 0.961 . S
H241 C179 0.960 1_565 S
H242 C179 0.958 1_565 S
H243 C180 0.961 . S
H244 C180 0.960 . S
H245 C180 0.960 . S
H246 C182 0.980 . S
H247 C181 0.961 . S
H248 C181 0.961 . S
H249 C181 0.959 . S
H250 C184 0.932 1_565 S
H251 C188 0.929 . S
H252 C189 0.961 . S
H253 C189 0.959 . S
H254 C189 0.959 . S
H255 C190 0.960 . S
H256 C190 0.962 . S
H257 C190 0.961 . S
H258 C192 0.929 . S
H259 C195 0.930 . S
H260 C196 0.929 . S
H261 C199 0.930 . S
H262 C202 0.929 . S
H263 C203 0.930 . S
H264 C207 0.962 . S
H265 C207 0.959 . S
H266 C207 0.958 . S
C267 C268 1.560 . S
C267 H328 0.959 . S
C267 H329 0.959 . S
C267 H330 0.960 . S
C268 C267 1.560 . S
C268 O323 1.426 . S
C268 H327 0.980 . S
C269 C270 1.407 . S
C269 C274 1.418 . S
C269 O323 1.334 . S
C270 C269 1.407 . S
C270 C271 1.360 . S
C270 H331 0.929 . S
C271 C270 1.360 . S
C271 C272 1.401 . S
C271 C275 1.527 . S
C272 C271 1.401 . S
C272 C273 1.405 . S
C272 C305 1.587 . S
C273 C272 1.405 . S
C273 C274 1.332 . S
C273 C276 1.496 . S
C274 C269 1.418 . S
C274 C273 1.332 . S
C274 H332 0.929 . S
C275 C271 1.527 . S
C275 H333 0.959 . S
C275 H334 0.961 . S
C275 H335 0.961 . S
C276 C273 1.496 . S
C276 H336 0.960 . S
C276 H337 0.960 . S
C276 H338 0.961 . S
C277 C278 1.517 . S
C277 H340 0.961 . S
C277 H341 0.960 . S
C277 H342 0.959 . S
C278 C277 1.517 . S
C278 O326 1.468 . S
C278 H339 0.980 . S
C279 C280 1.349 . S
C279 C284 1.367 . S
C279 O326 1.408 . S
C280 C279 1.349 . S
C280 C281 1.407 . S
C280 H343 0.930 . S
C281 C280 1.407 . S
C281 C282 1.449 . S
C281 C285 1.535 . S
C282 C281 1.449 . S
C282 C283 1.384 . S
C282 C307 1.553 . S
C283 C282 1.384 . S
C283 C284 1.364 . S
C283 C286 1.450 . S
C284 C279 1.367 . S
C284 C283 1.364 . S
C284 H344 0.931 . S
C285 C281 1.535 . S
C285 H345 0.959 . S
C285 H346 0.961 . S
C285 H347 0.959 . S
C286 C283 1.450 . S
C286 H348 0.960 . S
C286 H349 0.960 . S
C286 H350 0.960 . S
C287 C288 1.309 . S
C287 C292 1.304 . S
C287 O325 1.435 . S
C288 C287 1.309 . S
C288 C289 1.476 . S
C288 H352 0.930 . S
C289 C288 1.476 . S
C289 C290 1.400 . S
C289 C293 1.567 . S
C290 C289 1.400 . S
C290 C291 1.373 . S
C290 C312 1.432 . S
C291 C290 1.373 . S
C291 C292 1.339 . S
C291 C294 1.530 . S
C292 C287 1.304 . S
C292 C291 1.339 . S
C292 H353 0.930 . S
C293 C289 1.567 . S
C293 H354 0.961 . S
C293 H355 0.960 . S
C293 H356 0.958 . S
C294 C291 1.530 . S
C294 H357 0.961 . S
C294 H358 0.960 . S
C294 H359 0.960 . S
C295 C296 1.530 . S
C295 H361 0.961 . S
C295 H362 0.961 . S
C295 H363 0.959 . S
C296 C295 1.530 . S
C296 O324 1.412 . S
C296 H360 0.980 . S
C297 C298 1.288 . S
C297 C302 1.377 . S
C297 O324 1.393 . S
C298 C297 1.288 . S
C298 C299 1.369 . S
C298 H364 0.932 . S
C299 C298 1.369 . S
C299 C300 1.398 . S
C299 C303 1.527 . S
C300 C299 1.398 . S
C300 C301 1.380 . S
C300 C314 1.497 . S
C301 C300 1.380 . S
C301 C302 1.383 . S
C301 C304 1.603 . S
C302 C297 1.377 . S
C302 C301 1.383 . S
C302 H365 0.929 . S
C303 C299 1.527 . S
C303 H366 0.961 . S
C303 H367 0.959 . S
C303 H368 0.959 . S
C304 C301 1.603 . S
C304 H369 0.960 . S
C304 H370 0.962 . S
C304 H371 0.961 . S
C305 C272 1.587 . S
C305 C306 1.360 . S
C305 C318 1.412 . S
C306 C305 1.360 . S
C306 C307 1.365 . S
C306 H372 0.929 . S
C307 C282 1.553 . S
C307 C306 1.365 . S
C307 C308 1.404 . S
C308 C307 1.404 . S
C308 C309 1.395 . S
C308 C319 1.451 . S
C309 C308 1.395 . S
C309 C310 1.322 . S
C309 H373 0.930 . S
C310 C309 1.322 . S
C310 C311 1.459 . S
C310 H374 0.929 . S
C311 C310 1.459 . S
C311 C312 1.445 . S
C311 C320 1.395 . S
C312 C290 1.432 . S
C312 C311 1.445 . S
C312 C313 1.370 . S
C313 C312 1.370 . S
C313 C314 1.438 . S
C313 H375 0.930 . S
C314 C300 1.497 . S
C314 C313 1.438 . S
C314 C315 1.360 . S
C315 C314 1.360 . S
C315 C316 1.401 . S
C315 C320 1.446 . S
C316 C315 1.401 . S
C316 C317 1.347 . S
C316 H376 0.929 . S
C317 C316 1.347 . S
C317 C318 1.455 . S
C317 H377 0.930 . S
C318 C305 1.412 . S
C318 C317 1.455 . S
C318 C319 1.331 . S
C319 C308 1.451 . S
C319 C318 1.331 . S
C319 C320 1.497 . S
C320 C311 1.395 . S
C320 C315 1.446 . S
C320 C319 1.497 . S
C321 C322 1.582 . S
C321 H378 0.962 . S
C321 H379 0.959 . S
C321 H380 0.958 . S
C322 C321 1.582 . S
C322 O325 1.458 . S
C322 H351 0.980 . S
O323 C268 1.426 . S
O323 C269 1.334 . S
O324 C296 1.412 . S
O324 C297 1.393 . S
O325 C287 1.435 . S
O325 C322 1.458 . S
O326 C278 1.468 . S
O326 C279 1.408 . S
H327 C268 0.980 . S
H328 C267 0.959 . S
H329 C267 0.959 . S
H330 C267 0.960 . S
H331 C270 0.929 . S
H332 C274 0.929 . S
H333 C275 0.959 . S
H334 C275 0.961 . S
H335 C275 0.961 . S
H336 C276 0.960 . S
H337 C276 0.960 . S
H338 C276 0.961 . S
H339 C278 0.980 . S
H340 C277 0.961 . S
H341 C277 0.960 . S
H342 C277 0.959 . S
H343 C280 0.930 . S
H344 C284 0.931 . S
H345 C285 0.959 . S
H346 C285 0.961 . S
H347 C285 0.959 . S
H348 C286 0.960 . S
H349 C286 0.960 . S
H350 C286 0.960 . S
H351 C322 0.980 . S
H352 C288 0.930 . S
H353 C292 0.930 . S
H354 C293 0.961 . S
H355 C293 0.960 . S
H356 C293 0.958 . S
H357 C294 0.961 . S
H358 C294 0.960 . S
H359 C294 0.960 . S
H360 C296 0.980 . S
H361 C295 0.961 . S
H362 C295 0.961 . S
H363 C295 0.959 . S
H364 C298 0.932 . S
H365 C302 0.929 . S
H366 C303 0.961 . S
H367 C303 0.959 . S
H368 C303 0.959 . S
H369 C304 0.960 . S
H370 C304 0.962 . S
H371 C304 0.961 . S
H372 C306 0.929 . S
H373 C309 0.930 . S
H374 C310 0.929 . S
H375 C313 0.930 . S
H376 C316 0.929 . S
H377 C317 0.930 . S
H378 C321 0.962 . S
H379 C321 0.959 . S
H380 C321 0.958 . S
H381 C387 0.930 . S
H382 C391 0.930 . S
H383 C396 0.928 1_655 S
H384 C394 0.929 . S
H385 C389 0.929 . S
H386 C395 0.929 . S
C387 H381 0.930 . S
C387 C388 1.367 . S
C387 C395 1.378 . S
C388 C387 1.367 . S
C388 C396 1.437 . S
C389 H385 0.929 . S
C389 C391 1.378 . S
C389 C393 1.350 1_655 S
C390 C393 1.463 . S
C390 C395 1.350 . S
C390 N398 1.422 1_455 S
C391 H382 0.930 . S
C391 C389 1.378 . S
C391 C392 1.367 1_655 S
C392 C391 1.367 1_455 S
C392 C394 1.433 . S
C393 C389 1.350 1_455 S
C393 C390 1.463 . S
C393 N397 1.427 . S
C394 H384 0.929 . S
C394 C392 1.433 . S
C394 N397 1.384 . S
C395 H386 0.929 . S
C395 C387 1.378 . S
C395 C390 1.350 . S
C396 H383 0.928 1_455 S
C396 C388 1.437 . S
C396 N398 1.376 1_455 S
N397 C393 1.427 . S
N397 C394 1.384 . S
N398 C390 1.422 1_655 S
N398 C396 1.376 1_655 S
H399 C405 0.930 . S
H400 C409 0.946 . S
H401 C414 0.929 . S
H402 C412 0.929 . S
H403 C407 0.929 . S
H404 C413 0.929 . S
C405 H399 0.930 . S
C405 C406 1.367 . S
C405 C413 1.378 . S
C406 C405 1.367 . S
C406 C414 1.433 . S
C407 H403 0.929 . S
C407 C409 1.378 . S
C407 C411 1.350 . S
C408 C411 1.463 . S
C408 C413 1.350 . S
C408 N416 1.427 . S
C409 H400 0.946 . S
C409 C407 1.378 . S
C409 C410 1.367 . S
C410 C409 1.367 . S
C410 C412 1.433 . S
C411 C407 1.350 . S
C411 C408 1.463 . S
C411 N415 1.427 . S
C412 H402 0.929 . S
C412 C410 1.433 . S
C412 N415 1.384 . S
C413 H404 0.929 . S
C413 C405 1.378 . S
C413 C408 1.350 . S
C414 H401 0.929 . S
C414 C406 1.433 . S
C414 N416 1.384 . S
N415 C411 1.427 . S
N415 C412 1.384 . S
N416 C408 1.427 . S
N416 C414 1.384 . S
H417 C423 0.930 . S
H418 C427 0.930 . S
H419 C432 0.929 . S
H420 C430 0.929 . S
H421 C425 0.929 . S
H422 C431 0.929 . S
C423 H417 0.930 . S
C423 C424 1.367 . S
C423 C431 1.378 . S
C424 C423 1.367 . S
C424 C432 1.433 . S
C425 H421 0.929 . S
C425 C427 1.378 . S
C425 C429 1.350 . S
C426 C429 1.463 . S
C426 C431 1.350 . S
C426 N434 1.427 . S
C427 H418 0.930 . S
C427 C425 1.378 . S
C427 C428 1.367 . S
C428 C427 1.367 . S
C428 C430 1.433 . S
C429 C425 1.350 . S
C429 C426 1.463 . S
C429 N433 1.427 . S
C430 H420 0.929 . S
C430 C428 1.433 . S
C430 N433 1.384 . S
C431 H422 0.929 . S
C431 C423 1.378 . S
C431 C426 1.350 . S
C432 H419 0.929 . S
C432 C424 1.433 . S
C432 N434 1.384 . S
N433 C429 1.427 . S
N433 C430 1.384 . S
N434 C426 1.427 . S
N434 C432 1.384 . S
H435 C441 0.930 . S
H436 C445 0.930 . S
H437 C450 0.929 . S
H438 C448 0.929 . S
H439 C443 0.929 . S
H440 C449 0.929 . S
C441 H435 0.930 . S
C441 C442 1.367 . S
C441 C449 1.378 . S
C442 C441 1.367 . S
C442 C450 1.433 . S
C443 H439 0.929 . S
C443 C445 1.378 . S
C443 C447 1.350 . S
C444 C447 1.463 . S
C444 C449 1.350 . S
C444 N452 1.427 . S
C445 H436 0.930 . S
C445 C443 1.378 . S
C445 C446 1.367 . S
C446 C445 1.367 . S
C446 C448 1.433 . S
C447 C443 1.350 . S
C447 C444 1.463 . S
C447 N451 1.427 . S
C448 H438 0.929 . S
C448 C446 1.433 . S
C448 N451 1.384 . S
C449 H440 0.929 . S
C449 C441 1.378 . S
C449 C444 1.350 . S
C450 H437 0.929 . S
C450 C442 1.433 . S
C450 N452 1.384 . S
N451 C447 1.427 . S
N451 C448 1.384 . S
N452 C444 1.427 . S
N452 C450 1.384 . S
H453 C459 0.930 . S
H454 C463 0.930 . S
H455 C468 0.929 . S
H456 C466 0.929 . S
H457 C461 0.929 . S
H458 C467 0.929 . S
C459 H453 0.930 . S
C459 C460 1.367 . S
C459 C467 1.378 . S
C460 C459 1.367 . S
C460 C468 1.433 . S
C461 H457 0.929 . S
C461 C463 1.378 . S
C461 C465 1.350 . S
C462 C465 1.463 . S
C462 C467 1.350 . S
C462 N470 1.427 . S
C463 H454 0.930 . S
C463 C461 1.378 . S
C463 C464 1.367 . S
C464 C463 1.367 . S
C464 C466 1.433 . S
C465 C461 1.350 . S
C465 C462 1.463 . S
C465 N469 1.427 . S
C466 H456 0.929 . S
C466 C464 1.433 . S
C466 N469 1.384 . S
C467 H458 0.929 . S
C467 C459 1.378 . S
C467 C462 1.350 . S
C468 H455 0.929 . S
C468 C460 1.433 . S
C468 N470 1.384 . S
N469 C465 1.427 . S
N469 C466 1.384 . S
N470 C462 1.427 . S
N470 C468 1.384 . S
H471 C477 0.930 . S
H472 C481 0.930 . S
H473 C486 0.929 . S
H474 C484 0.929 . S
H475 C479 0.929 . S
H476 C485 0.929 . S
C477 H471 0.930 . S
C477 C478 1.367 . S
C477 C485 1.378 . S
C478 C477 1.367 . S
C478 C486 1.433 . S
C479 H475 0.929 . S
C479 C481 1.378 . S
C479 C483 1.350 . S
C480 C483 1.463 . S
C480 C485 1.350 . S
C480 N488 1.427 . S
C481 H472 0.930 . S
C481 C479 1.378 . S
C481 C482 1.367 . S
C482 C481 1.367 . S
C482 C484 1.433 . S
C483 C479 1.350 . S
C483 C480 1.463 . S
C483 N487 1.427 . S
C484 H474 0.929 . S
C484 C482 1.433 . S
C484 N487 1.384 . S
C485 H476 0.929 . S
C485 C477 1.378 . S
C485 C480 1.350 . S
C486 H473 0.929 . S
C486 C478 1.433 . S
C486 N488 1.384 . S
N487 C483 1.427 . S
N487 C484 1.384 . S
N488 C480 1.427 . S
N488 C486 1.384 . S
H489 C495 0.930 . S
H490 C499 0.930 . S
H491 C504 0.929 . S
H492 C502 0.929 . S
H493 C497 0.929 . S
H494 C503 0.929 . S
C495 H489 0.930 . S
C495 C496 1.367 . S
C495 C503 1.378 . S
C496 C495 1.367 . S
C496 C504 1.433 . S
C497 H493 0.929 . S
C497 C499 1.378 . S
C497 C501 1.350 . S
C498 C501 1.463 . S
C498 C503 1.350 . S
C498 N506 1.427 . S
C499 H490 0.930 . S
C499 C497 1.378 . S
C499 C500 1.367 . S
C500 C499 1.367 . S
C500 C502 1.433 . S
C501 C497 1.350 . S
C501 C498 1.463 . S
C501 N505 1.427 . S
C502 H492 0.929 . S
C502 C500 1.433 . S
C502 N505 1.384 . S
C503 H494 0.929 . S
C503 C495 1.378 . S
C503 C498 1.350 . S
C504 H491 0.929 . S
C504 C496 1.433 . S
C504 N506 1.384 . S
N505 C501 1.427 . S
N505 C502 1.384 . S
N506 C498 1.427 . S
N506 C504 1.384 . S
H507 C513 0.930 . S
H508 C517 0.930 . S
H509 C522 0.929 1_545 S
H510 C520 0.929 . S
H511 C515 0.929 . S
H512 C521 0.922 1_556 S
C513 H507 0.930 . S
C513 C514 1.367 . S
C513 C521 1.378 . S
C514 C513 1.367 . S
C514 C522 1.433 . S
C515 H511 0.929 . S
C515 C517 1.378 . S
C515 C519 1.350 . S
C516 C519 1.463 . S
C516 C521 1.350 1_556 S
C516 N524 1.427 1_556 S
C517 H508 0.930 . S
C517 C515 1.378 . S
C517 C518 1.367 . S
C518 C517 1.367 . S
C518 C520 1.433 . S
C519 C515 1.350 . S
C519 C516 1.463 . S
C519 N523 1.427 . S
C520 H510 0.929 . S
C520 C518 1.433 . S
C520 N523 1.384 . S
C521 H512 0.922 1_554 S
C521 C513 1.378 . S
C521 C516 1.350 1_554 S
C522 H509 0.929 1_565 S
C522 C514 1.433 . S
C522 N524 1.384 . S
N523 C519 1.427 . S
N523 C520 1.384 . S
N524 C516 1.427 1_554 S
N524 C522 1.384 . S
H525 C531 0.930 1_545 S
H526 C535 0.930 . S
H527 C540 0.929 1_655 S
H528 C538 0.929 . S
H529 C533 0.929 . S
H530 C539 0.929 . S
C531 H525 0.930 1_565 S
C531 C532 1.367 . S
C531 C539 1.378 . S
C532 C531 1.367 . S
C532 C540 1.433 . S
C533 H529 0.929 . S
C533 C535 1.378 . S
C533 C537 1.350 1_655 S
C534 C537 1.463 . S
C534 C539 1.350 . S
C534 N542 1.455 . S
C535 H526 0.930 . S
C535 C533 1.378 . S
C535 C536 1.367 1_655 S
C536 C535 1.367 1_455 S
C536 C538 1.433 . S
C537 C533 1.350 1_455 S
C537 C534 1.463 . S
C537 N541 1.427 . S
C538 H528 0.929 . S
C538 C536 1.433 . S
C538 N541 1.384 . S
C539 H530 0.929 . S
C539 C531 1.378 . S
C539 C534 1.350 . S
C540 H527 0.929 1_455 S
C540 C532 1.433 . S
C540 N542 1.374 . S
N541 C537 1.427 . S
N541 C538 1.384 . S
N542 C534 1.455 . S
N542 C540 1.374 . S
H543 C549 0.930 1_565 S
H544 C553 0.930 . S
H545 C558 0.929 . S
H546 C556 0.924 1_565 S
H547 C551 0.929 . S
H548 C557 0.929 1_565 S
C549 H543 0.930 1_545 S
C549 C550 1.367 . S
C549 C557 1.378 . S
C550 C549 1.367 . S
C550 C558 1.433 . S
C551 H547 0.929 . S
C551 C553 1.378 . S
C551 C555 1.350 . S
C552 C555 1.463 . S
C552 C557 1.350 . S
C552 N560 1.427 . S
C553 H544 0.930 . S
C553 C551 1.378 . S
C553 C554 1.367 . S
C554 C553 1.367 . S
C554 C556 1.433 . S
C555 C551 1.350 . S
C555 C552 1.463 . S
C555 N559 1.427 . S
C556 H546 0.924 1_545 S
C556 C554 1.433 . S
C556 N559 1.384 . S
C557 H548 0.929 1_545 S
C557 C549 1.378 . S
C557 C552 1.350 . S
C558 H545 0.929 . S
C558 C550 1.433 . S
C558 N560 1.384 . S
N559 C555 1.427 . S
N559 C556 1.384 . S
N560 C552 1.427 . S
N560 C558 1.384 . S
H561 C567 0.930 . S
H562 C571 0.930 . S
H563 C576 0.929 . S
H564 C574 0.929 . S
H565 C569 0.929 . S
H566 C575 0.929 . S
C567 H561 0.930 . S
C567 C568 1.367 . S
C567 C575 1.378 . S
C568 C567 1.367 . S
C568 C576 1.433 1_554 S
C569 H565 0.929 . S
C569 C571 1.378 . S
C569 C573 1.350 . S
C570 C573 1.463 . S
C570 C575 1.350 1_556 S
C570 N578 1.427 . S
C571 H562 0.930 . S
C571 C569 1.378 . S
C571 C572 1.367 . S
C572 C571 1.367 . S
C572 C574 1.433 . S
C573 C569 1.350 . S
C573 C570 1.463 . S
C573 N577 1.427 . S
C574 H564 0.929 . S
C574 C572 1.433 . S
C574 N577 1.384 . S
C575 H566 0.929 . S
C575 C567 1.378 . S
C575 C570 1.350 1_554 S
C576 H563 0.929 . S
C576 C568 1.433 1_556 S
C576 N578 1.384 . S
N577 C573 1.427 . S
N577 C574 1.384 . S
N578 C570 1.427 . S
N578 C576 1.384 . S
H579 C585 0.930 . S
H580 C589 0.930 . S
H581 C594 0.929 . S
H582 C592 0.943 . S
H583 C587 0.929 . S
H584 C593 0.929 . S
C585 H579 0.930 . S
C585 C586 1.367 . S
C585 C593 1.378 . S
C586 C585 1.367 . S
C586 C594 1.433 . S
C587 H583 0.929 . S
C587 C589 1.378 . S
C587 C591 1.350 . S
C588 C591 1.463 . S
C588 C593 1.350 . S
C588 N596 1.427 . S
C589 H580 0.930 . S
C589 C587 1.378 . S
C589 C590 1.367 . S
C590 C589 1.367 . S
C590 C592 1.433 . S
C591 C587 1.350 . S
C591 C588 1.463 . S
C591 N595 1.427 . S
C592 H582 0.943 . S
C592 C590 1.433 . S
C592 N595 1.384 . S
C593 H584 0.929 . S
C593 C585 1.378 . S
C593 C588 1.350 . S
C594 H581 0.929 . S
C594 C586 1.433 . S
C594 N596 1.384 . S
N595 C591 1.427 . S
N595 C592 1.384 . S
N596 C588 1.427 . S
N596 C594 1.384 . S
C392 C94 1.089 . S
C388 C10 1.483 . S
C406 C21 1.506 1_655 S
C410 C208 1.147 . S
C424 C31 1.214 . S
C428 C268 0.966 . S
C442 C0 1.308 . S
C446 C68 1.120 . S
C464 C182 1.083 . S
C460 C18 1.304 . S
C478 C34 1.386 . S
C482 C278 0.922 . S
C500 C164 0.844 . S
C496 C36 1.387 . S
C514 C8 1.335 1_565 S
C518 C296 1.071 . S
C536 C40 1.013 . S
C532 C23 1.257 1_565 S
C554 C154 0.951 . S
C550 C26 1.152 . S
C572 C322 1.162 . S
C568 C5 1.439 . S
C586 C13 1.334 . S
C590 C50 0.787 . S
