# Generated by pormake.
# Topology anh, (6,3)-cn, num edge types: 1
# Building blocks:
#     Node 0, Type 0, BuildingBlock: BETFAJ_clean_sbu_0, # of connection points: 6
#     Node 1, Type 0, BuildingBlock: BETFAJ_clean_sbu_0, # of connection points: 6
#     Node 2, Type 0, BuildingBlock: BETFAJ_clean_sbu_0, # of connection points: 6
#     Node 3, Type 1, BuildingBlock: KAKCAD_clean_linker_0, # of connection points: 3
#     Node 4, Type 1, BuildingBlock: KAKCAD_clean_linker_0, # of connection points: 3
#     Node 5, Type 1, BuildingBlock: KAKCAD_clean_linker_0, # of connection points: 3
#     Node 6, Type 1, BuildingBlock: KAKCAD_clean_linker_0, # of connection points: 3
#     Node 7, Type 1, BuildingBlock: KAKCAD_clean_linker_0, # of connection points: 3
#     Node 8, Type 1, BuildingBlock: KAKCAD_clean_linker_0, # of connection points: 3
#     Edge 9, Type (0, 1), BuildingBlock: EZIPEK_clean_linker_0, # of connection points: 2
#     Edge 10, Type (0, 1), BuildingBlock: EZIPEK_clean_linker_0, # of connection points: 2
#     Edge 11, Type (0, 1), BuildingBlock: EZIPEK_clean_linker_0, # of connection points: 2
#     Edge 12, Type (0, 1), BuildingBlock: EZIPEK_clean_linker_0, # of connection points: 2
#     Edge 13, Type (0, 1), BuildingBlock: EZIPEK_clean_linker_0, # of connection points: 2
#     Edge 14, Type (0, 1), BuildingBlock: EZIPEK_clean_linker_0, # of connection points: 2
#     Edge 15, Type (0, 1), BuildingBlock: EZIPEK_clean_linker_0, # of connection points: 2
#     Edge 16, Type (0, 1), BuildingBlock: EZIPEK_clean_linker_0, # of connection points: 2
#     Edge 17, Type (0, 1), BuildingBlock: EZIPEK_clean_linker_0, # of connection points: 2
#     Edge 18, Type (0, 1), BuildingBlock: EZIPEK_clean_linker_0, # of connection points: 2
#     Edge 19, Type (0, 1), BuildingBlock: EZIPEK_clean_linker_0, # of connection points: 2
#     Edge 20, Type (0, 1), BuildingBlock: EZIPEK_clean_linker_0, # of connection points: 2
#     Edge 21, Type (0, 1), BuildingBlock: EZIPEK_clean_linker_0, # of connection points: 2
#     Edge 22, Type (0, 1), BuildingBlock: EZIPEK_clean_linker_0, # of connection points: 2
#     Edge 23, Type (0, 1), BuildingBlock: EZIPEK_clean_linker_0, # of connection points: 2
#     Edge 24, Type (0, 1), BuildingBlock: EZIPEK_clean_linker_0, # of connection points: 2
#     Edge 25, Type (0, 1), BuildingBlock: EZIPEK_clean_linker_0, # of connection points: 2
#     Edge 26, Type (0, 1), BuildingBlock: EZIPEK_clean_linker_0, # of connection points: 2
# Relax obj value: 0.213
# Max RMSD: 0.224
# Mean RMSD: 0.164
data_MOF--net-anh--node1-BETFAJ_clean_sbu_0--node2-KAKCAD_clean_linker_0--edge1-EZIPEK_clean_linker_0
_symmetry_space_group_name_H-M    P1
_symmetry_Int_Tables_number       1
_symmetry_cell_setting            triclinic
loop_
_symmetry_equiv_pos_as_xyz
'x, y, z'
_cell_length_a     29.273545
_cell_length_b     35.60691
_cell_length_c     52.774915
_cell_angle_alpha  91.837914
_cell_angle_beta   89.609761
_cell_angle_gamma 130.09435
loop_
_atom_site_label
_atom_site_type_symbol
_atom_site_fract_x
_atom_site_fract_y
_atom_site_fract_z
_atom_type_partial_charge
Sm0 Sm 0.16539 0.54595 0.14154 0.0
Sm1 Sm 0.08197 0.56678 0.15165 0.0
C2 C 0.2144 0.51069 0.12152 0.0
C3 C 0.19867 0.46248 0.12222 0.0
C4 C 0.22629 0.45112 0.10582 0.0
C5 C 0.21131 0.4052 0.10643 0.0
C6 C 0.16842 0.37011 0.12337 0.0
C7 C 0.13992 0.38108 0.13951 0.0
C8 C 0.15521 0.42721 0.13898 0.0
C9 C 0.15109 0.55425 0.19242 0.0
C10 C 0.22753 0.66101 0.14902 0.0
C11 C 1.01669 0.58818 0.16985 0.0
C12 C 0.95152 0.55734 0.17326 0.0
C13 C 0.92422 0.53056 0.19538 0.0
C14 C 0.86192 0.49569 0.19671 0.0
C15 C 0.82641 0.48689 0.17584 0.0
C16 C 0.85344 0.51559 0.15446 0.0
C17 C 0.91532 0.5507 0.15323 0.0
C18 C 0.09464 0.55418 0.10125 0.0
C19 C 1.01925 0.45162 0.14693 0.0
O20 O 0.23257 0.53591 0.14308 0.0
O21 O 0.17668 0.51163 0.10906 0.0
O22 O 0.11065 0.53391 0.1755 0.0
O23 O 0.19988 0.56655 0.18284 0.0
O24 O 0.23525 0.63039 0.13989 0.0
O25 O 0.17431 0.64477 0.15618 0.0
O26 O 1.04475 0.57945 0.18442 0.0
O27 O 1.03459 0.5955 0.14636 0.0
O28 O 0.13668 0.57866 0.1175 0.0
O29 O 1.04396 0.53697 0.11112 0.0
O30 O 1.01122 0.48286 0.15396 0.0
O31 O 1.07227 0.4671 0.13991 0.0
H32 H 0.25963 0.47783 0.09269 0.0
H33 H 0.23371 0.39714 0.09389 0.0
H34 H 0.10686 0.35441 0.15272 0.0
H35 H 0.13365 0.43562 0.15177 0.0
H36 H 0.95091 0.53527 0.21127 0.0
H37 H 0.84153 0.47435 0.21353 0.0
H38 H 0.82652 0.50978 0.13834 0.0
H39 H 0.93475 0.57118 0.1361 0.0
Sm40 Sm 0.67317 0.05088 0.47212 0.0
Sm41 Sm 0.59135 0.07406 0.46319 0.0
C42 C 0.72383 0.01796 0.49195 0.0
C43 C 0.70969 0.9707 0.49641 0.0
C44 C 0.70416 0.95603 0.52142 0.0
C45 C 0.69254 0.91228 0.52625 0.0
C46 C 0.68665 0.8826 0.50617 0.0
C47 C 0.6918 0.89686 0.48113 0.0
C48 C 0.7031 0.94057 0.47625 0.0
C49 C 0.66126 0.06088 0.42182 0.0
C50 C 0.52803 0.95829 0.46286 0.0
C51 C 0.53697 0.10817 0.45017 0.0
C52 C 0.54589 0.15252 0.45802 0.0
C53 C 0.60079 0.19353 0.46876 0.0
C54 C 0.60804 0.2343 0.478 0.0
C55 C 0.56037 0.23449 0.47672 0.0
C56 C 0.50573 0.1939 0.46561 0.0
C57 C 0.49853 0.15306 0.45632 0.0
C58 C 0.60758 0.06597 0.51361 0.0
C59 C 0.73863 0.16607 0.4674 0.0
O60 O 0.69436 0.02753 0.50534 0.0
O61 O 0.73195 0.032 0.46855 0.0
O62 O 0.61879 0.03966 0.43742 0.0
O63 O 0.70987 0.07384 0.4322 0.0
O64 O 0.57964 0.97309 0.47179 0.0
O65 O 0.52261 0.99025 0.45506 0.0
O66 O 0.57981 0.11525 0.43711 0.0
O67 O 0.5174 0.07617 0.46771 0.0
O68 O 0.64714 0.08619 0.49694 0.0
O69 O 0.55876 0.05369 0.50419 0.0
O70 O 0.6857 0.15083 0.46019 0.0
O71 O 0.74537 0.13523 0.4757 0.0
H72 H 0.70936 0.97867 0.53728 0.0
H73 H 0.68893 0.90185 0.54569 0.0
H74 H 0.68762 0.8744 0.46544 0.0
H75 H 0.70718 0.95087 0.45677 0.0
H76 H 0.6377 0.19366 0.47044 0.0
H77 H 0.65039 0.26528 0.48661 0.0
H78 H 0.4685 0.19353 0.46459 0.0
H79 H 0.45576 0.12159 0.44826 0.0
Sm80 Sm 0.65758 0.59098 0.84718 0.0
Sm81 Sm 0.57126 0.48152 0.84208 0.0
C82 C 0.71859 0.68638 0.84129 0.0
C83 C 0.70733 0.719 0.83301 0.0
C84 C 0.65362 0.70004 0.82061 0.0
C85 C 0.64486 0.73176 0.81187 0.0
C86 C 0.6892 0.7828 0.81588 0.0
C87 C 0.74214 0.80162 0.82892 0.0
C88 C 0.75125 0.76993 0.83729 0.0
C89 C 0.63012 0.54535 0.89224 0.0
C90 C 0.50899 0.53215 0.84628 0.0
C91 C 0.515 0.38698 0.84746 0.0
C92 C 0.5271 0.35396 0.83998 0.0
C93 C 0.57842 0.37156 0.82628 0.0
C94 C 0.58893 0.33978 0.81859 0.0
C95 C 0.54813 0.28993 0.82437 0.0
C96 C 0.49707 0.27238 0.83825 0.0
C97 C 0.48668 0.30426 0.84603 0.0
C98 C 0.59844 0.52534 0.79644 0.0
C99 C 0.72032 0.53989 0.84437 0.0
O100 O 0.71403 0.65713 0.82385 0.0
O101 O 0.69526 0.66491 0.86275 0.0
O102 O 0.5933 0.53268 0.87461 0.0
O103 O 0.68323 0.58557 0.88725 0.0
O104 O 0.56451 0.57342 0.84233 0.0
O105 O 0.49982 0.49086 0.84955 0.0
O106 O 0.55073 0.42095 0.86487 0.0
O107 O 0.50373 0.40353 0.82887 0.0
O108 O 0.6359 0.53947 0.81414 0.0
O109 O 0.54562 0.48589 0.80225 0.0
O110 O 0.66399 0.4982 0.84214 0.0
O111 O 0.73083 0.58227 0.84614 0.0
H112 H 0.61866 0.66086 0.81755 0.0
H113 H 0.6036 0.71656 0.80196 0.0
H114 H 0.77678 0.84088 0.83221 0.0
H115 H 0.79282 0.78523 0.84695 0.0
H116 H 0.60996 0.4097 0.82127 0.0
H117 H 0.62842 0.35386 0.80781 0.0
H118 H 0.46508 0.23397 0.8428 0.0
H119 H 0.44682 0.29004 0.85655 0.0
C120 C 0.66979 0.09585 0.29985 0.0
C121 C 0.64119 0.0513 0.31193 0.0
C122 C 0.66713 0.09685 0.27348 0.0
C123 C 0.6385 0.05359 0.25817 0.0
C124 C 0.61133 1.00914 0.27051 0.0
C125 C 0.6112 1.00787 0.29698 0.0
C126 C 0.63644 0.05479 0.22969 0.0
C127 C 0.67882 0.09834 0.21683 0.0
C128 C 0.67548 0.10083 0.19038 0.0
C129 C 0.63117 0.05714 0.17613 0.0
C130 C 0.5899 0.01241 0.18852 0.0
C131 C 0.59175 0.01243 0.21512 0.0
C132 C 0.54382 0.96436 0.17477 0.0
C133 C 0.49974 0.95691 0.1591 0.0
C134 C 0.53811 0.9233 0.1809 0.0
C135 C 0.48776 0.87575 0.17313 0.0
C136 C 0.44191 0.86797 0.15891 0.0
C137 C 0.71921 0.14992 0.17862 0.0
C138 C 0.73372 0.19214 0.19109 0.0
C139 C 0.75072 0.15619 0.15663 0.0
C140 C 0.79766 0.20365 0.14825 0.0
C141 C 0.81395 0.2456 0.16175 0.0
C142 C 0.78058 0.23922 0.18286 0.0
C143 C 0.44908 0.909 0.15123 0.0
H144 H 0.69318 0.12994 0.31094 0.0
H145 H 0.6871 0.13181 0.26539 0.0
H146 H 0.59034 0.97494 0.25997 0.0
H147 H 0.58871 0.97298 0.30582 0.0
H148 H 0.71562 0.13094 0.22729 0.0
H149 H 0.55702 0.97871 0.22433 0.0
H150 H 0.62881 0.05786 0.1557 0.0
H151 H 0.50255 0.98768 0.15431 0.0
H152 H 0.57133 0.92784 0.19293 0.0
H153 H 0.48324 0.84476 0.17927 0.0
H154 H 0.70976 0.18884 0.20778 0.0
H155 H 0.74096 0.12467 0.1466 0.0
H156 H 0.41403 0.90377 0.14034 0.0
H157 H 0.79185 0.2709 0.19342 0.0
H158 H 0.82273 0.20774 0.13183 0.0
C159 C 0.59375 0.55534 0.67626 0.0
C160 C 0.63416 0.55328 0.68881 0.0
C161 C 0.59413 0.55754 0.64988 0.0
C162 C 0.63433 0.55693 0.63558 0.0
C163 C 0.67519 0.55537 0.64818 0.0
C164 C 0.67556 0.55411 0.67463 0.0
C165 C 0.63269 0.55702 0.60755 0.0
C166 C 0.63387 0.5921 0.59546 0.0
C167 C 0.63088 0.5919 0.56888 0.0
C168 C 0.62607 0.55556 0.55442 0.0
C169 C 0.62456 0.51993 0.56628 0.0
C170 C 0.62839 0.52127 0.59289 0.0
C171 C 0.61728 0.48041 0.55109 0.0
C172 C 0.57615 0.45611 0.53061 0.0
C173 C 0.64975 0.46535 0.55759 0.0
C174 C 0.64033 0.42624 0.54432 0.0
C175 C 0.59843 0.40157 0.52428 0.0
C176 C 0.63394 0.63035 0.55643 0.0
C177 C 0.60384 0.6459 0.56675 0.0
C178 C 0.66918 0.65346 0.53492 0.0
C179 C 0.6758 0.69235 0.52453 0.0
C180 C 0.64745 0.70881 0.53554 0.0
C181 C 0.61068 0.68485 0.55643 0.0
C182 C 0.56678 0.41696 0.51733 0.0
H183 H 0.56145 0.55466 0.6869 0.0
H184 H 0.56202 0.55848 0.64057 0.0
H185 H 0.70689 0.55525 0.63755 0.0
H186 H 0.70719 0.5527 0.68404 0.0
H187 H 0.63856 0.62032 0.60686 0.0
H188 H 0.62586 0.4934 0.60233 0.0
H189 H 0.62337 0.55493 0.53392 0.0
H190 H 0.54993 0.46639 0.52531 0.0
H191 H 0.68229 0.48369 0.57303 0.0
H192 H 0.66517 0.41478 0.54986 0.0
H193 H 0.57552 0.62831 0.58302 0.0
H194 H 0.69334 0.64268 0.52665 0.0
H195 H 0.53407 0.39806 0.50196 0.0
H196 H 0.58831 0.69702 0.56507 0.0
H197 H 0.70441 0.71057 0.5084 0.0
C198 C 0.17052 0.57788 0.97928 0.0
C199 C 0.11589 0.55099 0.99188 0.0
C200 C 0.17167 0.57612 0.95274 0.0
C201 C 0.11815 0.5471 0.93826 0.0
C202 C 1.06354 0.51976 0.95108 0.0
C203 C 1.06246 0.52182 0.97758 0.0
C204 C 0.11913 0.54573 0.90992 0.0
C205 C 0.1607 0.54482 0.89717 0.0
C206 C 0.16355 0.54393 0.87054 0.0
C207 C 0.1204 0.54289 0.85634 0.0
C208 C 1.07755 0.54438 0.8692 0.0
C209 C 1.0787 0.54583 0.89583 0.0
C210 C 1.03115 0.54608 0.85711 0.0
C211 C 1.03589 0.58802 0.86138 0.0
C212 C 0.97471 0.50296 0.8482 0.0
C213 C 0.92552 0.50175 0.84423 0.0
C214 C 0.93002 0.54345 0.84929 0.0
C215 C 0.21419 0.54574 0.85984 0.0
C216 C 0.27382 0.58338 0.86862 0.0
C217 C 0.2036 0.50583 0.84617 0.0
C218 C 0.25001 0.50329 0.84219 0.0
C219 C 0.30904 0.54035 0.85182 0.0
C220 C 0.31985 0.58082 0.8647 0.0
C221 C 0.9869 0.58684 0.85747 0.0
H222 H 0.21223 0.6006 0.99001 0.0
H223 H 0.21454 0.59814 0.94358 0.0
H224 H 1.02146 0.4964 0.94065 0.0
H225 H 1.01986 0.50059 0.98697 0.0
H226 H 0.19124 0.54419 0.90826 0.0
H227 H 1.04771 0.54771 0.90584 0.0
H228 H 0.12128 0.54238 0.83584 0.0
H229 H 1.07724 0.62159 0.86914 0.0
H230 H 0.9675 0.46919 0.8456 0.0
H231 H 0.88295 0.46741 0.83803 0.0
H232 H 0.2845 0.61437 0.87969 0.0
H233 H 0.15867 0.4752 0.83966 0.0
H234 H 0.99303 0.61979 0.86178 0.0
H235 H 0.36402 0.61019 0.8725 0.0
H236 H 0.23916 0.47131 0.83223 0.0
C237 C 0.08319 0.54234 0.31497 0.0
C238 C 0.1329 0.55368 0.30233 0.0
C239 C 0.08137 0.54186 0.34145 0.0
C240 C 0.12976 0.55373 0.35568 0.0
C241 C 0.17953 0.56521 0.34302 0.0
C242 C 0.18083 0.56472 0.31655 0.0
C243 C 0.12916 0.55549 0.38373 0.0
C244 C 0.08177 0.51512 0.39688 0.0
C245 C 0.08052 0.51628 0.42359 0.0
C246 C 0.12838 0.55982 0.4371 0.0
C247 C 0.1766 0.60089 0.42386 0.0
C248 C 0.17621 0.59784 0.39726 0.0
C249 C 0.22785 0.64832 0.43661 0.0
C250 C 0.21877 0.67602 0.45192 0.0
C251 C 0.28659 0.67026 0.42955 0.0
C252 C 0.33444 0.71944 0.43619 0.0
C253 C 0.32489 0.74793 0.45016 0.0
C254 C 1.02966 0.47062 0.4364 0.0
C255 C 0.97139 0.44186 0.42591 0.0
C256 C 1.03946 0.45191 0.45683 0.0
C257 C 0.99315 0.40442 0.46532 0.0
C258 C 0.93636 0.37465 0.45341 0.0
C259 C 0.92561 0.39445 0.43415 0.0
C260 C 0.26695 0.7255 0.45862 0.0
H261 H 1.04587 0.53386 0.30431 0.0
H262 H 1.04274 0.53324 0.35085 0.0
H263 H 0.21724 0.57428 0.35363 0.0
H264 H 0.21947 0.57341 0.30712 0.0
H265 H 1.04654 0.482 0.38612 0.0
H266 H 0.21226 0.62929 0.38688 0.0
H267 H 0.12825 0.56171 0.45762 0.0
H268 H 0.17405 0.66043 0.45734 0.0
H269 H 0.29504 0.64995 0.41771 0.0
H270 H 0.37869 0.73586 0.42956 0.0
H271 H 0.96167 0.45529 0.41052 0.0
H272 H 0.08363 0.47278 0.46529 0.0
H273 H 0.25863 0.74686 0.46944 0.0
H274 H 0.88212 0.37251 0.42487 0.0
H275 H 1.0024 0.38996 0.48031 0.0
C276 C 0.61277 1.00976 0.63308 0.0
C277 C 0.63474 0.05354 0.62164 0.0
C278 C 0.61375 1.00783 0.65951 0.0
C279 C 0.63792 0.04997 0.67506 0.0
C280 C 0.66236 0.09428 0.66333 0.0
C281 C 0.66016 0.09588 0.63697 0.0
C282 C 0.63616 0.04762 0.70334 0.0
C283 C 0.64189 0.01642 0.71574 0.0
C284 C 0.63969 0.01396 0.74232 0.0
C285 C 0.63288 0.04401 0.75672 0.0
C286 C 0.627 0.07549 0.74472 0.0
C287 C 0.62787 0.07636 0.71809 0.0
C288 C 0.61884 0.10712 0.75955 0.0
C289 C 0.57981 0.0888 0.78017 0.0
C290 C 0.64779 0.15538 0.75218 0.0
C291 C 0.63634 0.18387 0.76442 0.0
C292 C 0.59605 0.16492 0.78441 0.0
C293 C 0.64451 0.97973 0.7548 0.0
C294 C 0.6096 0.93056 0.74591 0.0
C295 C 0.68518 0.99615 0.77502 0.0
C296 C 0.69195 0.96436 0.78562 0.0
C297 C 0.65745 0.91546 0.77647 0.0
C298 C 0.61571 0.89864 0.75676 0.0
C299 C 0.56848 0.11749 0.79248 0.0
H300 H 0.59301 0.97667 0.62156 0.0
H301 H 0.59388 0.97289 0.66769 0.0
H302 H 0.6829 0.12787 0.67448 0.0
H303 H 0.67768 0.13012 0.62853 0.0
H304 H 0.64931 0.99456 0.70479 0.0
H305 H 0.62045 0.09874 0.70879 0.0
H306 H 0.63185 0.04265 0.77722 0.0
H307 H 0.55644 0.05173 0.7862 0.0
H308 H 0.67886 0.17097 0.73668 0.0
H309 H 0.65816 0.22047 0.75802 0.0
H310 H 0.57759 0.91681 0.73049 0.0
H311 H 0.71287 0.0339 0.78213 0.0
H312 H 0.53711 0.1023 0.80787 0.0
H313 H 0.5887 0.86103 0.74948 0.0
H314 H 0.72445 0.97797 0.8008 0.0
C315 C 0.48834 0.37089 0.97303 0.0
C316 C 0.53515 0.42112 0.97834 0.0
C317 C 0.46124 0.33787 0.99272 0.0
C318 C 0.48151 0.35463 0.01786 0.0
C319 C 0.52882 0.40491 0.02301 0.0
C320 C 0.55512 0.43794 0.00343 0.0
C321 C 0.45144 0.32085 0.03911 0.0
C322 C 0.48545 0.32147 0.0579 0.0
C323 C 0.45954 0.2969 0.08065 0.0
C324 C 0.39838 0.27146 0.08426 0.0
C325 C 0.36421 0.27203 0.06591 0.0
C326 C 0.39047 0.29464 0.04281 0.0
C327 C 0.30749 0.26051 0.07336 0.0
C328 C 0.26571 0.22061 0.08864 0.0
C329 C 0.2998 0.29468 0.06833 0.0
C330 C 0.25439 0.29122 0.07968 0.0
C331 C 0.21544 0.25361 0.09633 0.0
C332 C 0.49906 0.30551 0.10185 0.0
C333 C 0.5514 0.3128 0.09658 0.0
C334 C 0.48983 0.31388 0.12696 0.0
C335 C 0.53444 0.33362 0.14559 0.0
C336 C 0.5897 0.3471 0.13911 0.0
C337 C 0.59664 0.33412 0.11491 0.0
C338 C 0.21947 0.21693 0.09992 0.0
H339 H 0.47237 0.35749 0.95371 0.0
H340 H 0.42457 0.29934 0.98838 0.0
H341 H 0.54448 0.41885 0.04231 0.0
H342 H 0.59099 0.47664 0.0078 0.0
H343 H 0.53317 0.34406 0.05533 0.0
H344 H 0.36487 0.29609 0.02874 0.0
H345 H 0.37854 0.25465 0.10219 0.0
H346 H 0.27036 0.1936 0.09272 0.0
H347 H 0.33153 0.32642 0.05713 0.0
H348 H 0.2519 0.31985 0.07666 0.0
H349 H 0.55916 0.30503 0.07778 0.0
H350 H 0.45035 0.30891 0.13191 0.0
H351 H 0.18915 0.18725 0.11248 0.0
H352 H 0.6385 0.34312 0.10972 0.0
H353 H 0.52797 0.34255 0.16436 0.0
C354 C 0.19252 0.32018 0.14069 0.0
C355 C 0.15658 0.32305 0.12447 0.0
C356 C 0.13142 0.25419 0.09812 0.0
C357 C 0.17607 0.25797 0.1114 0.0
N358 N 0.23023 0.27813 0.15046 0.0
N359 N 1.07723 0.28428 0.09344 0.0
C360 C 0.19936 0.28489 0.13477 0.0
C361 C 0.12021 0.2864 0.10527 0.0
N362 N 0.22345 0.35361 0.16044 0.0
N363 N 0.1039 0.2225 0.07756 0.0
H364 H 1.06903 0.30795 0.09873 0.0
H365 H 1.04739 0.25756 0.07978 0.0
H366 H 0.11151 0.19822 0.07284 0.0
H367 H 1.07446 0.22023 0.06531 0.0
H368 H 0.25589 0.35748 0.17127 0.0
H369 H 0.2176 0.37879 0.16558 0.0
H370 H 0.24571 0.29442 0.16852 0.0
H371 H 0.23548 0.25233 0.14618 0.0
C372 C 0.79285 0.25556 0.47898 0.0
C373 C 0.79193 0.21961 0.46574 0.0
C374 C 0.89091 0.2858 0.44841 0.0
C375 C 0.88888 0.32158 0.4595 0.0
N376 N 0.8361 0.34098 0.48379 0.0
N377 N 0.8364 0.20086 0.43481 0.0
C378 C 0.8393 0.30652 0.47439 0.0
C379 C 0.84034 0.23483 0.44988 0.0
N380 N 0.75041 0.24104 0.49666 0.0
N381 N 0.9412 0.30048 0.43623 0.0
H382 H 0.80024 0.16345 0.43497 0.0
H383 H 0.86635 0.20993 0.42053 0.0
H384 H 0.97781 0.33719 0.43335 0.0
H385 H 0.94863 0.27654 0.4306 0.0
H386 H 0.75174 0.26529 0.50887 0.0
H387 H 0.71607 0.20432 0.50064 0.0
H388 H 0.79802 0.33234 0.49196 0.0
H389 H 0.87069 0.37864 0.48209 0.0
C390 C 0.70988 0.84178 0.78319 0.0
C391 C 0.68095 0.81681 0.80584 0.0
C392 C 0.63939 0.85865 0.81006 0.0
C393 C 0.66631 0.88206 0.78688 0.0
N394 N 0.72375 0.89439 0.75028 0.0
N395 N 0.61485 0.79778 0.84005 0.0
C396 C 0.70071 0.87322 0.77316 0.0
C397 C 0.64477 0.82426 0.81907 0.0
N398 N 0.74681 0.83581 0.77149 0.0
N399 N 0.60941 0.86998 0.8236 0.0
H400 H 0.62012 0.77426 0.84794 0.0
H401 H 0.58249 0.79688 0.84907 0.0
H402 H 0.60216 0.8931 0.81703 0.0
H403 H 0.5942 0.85877 0.84191 0.0
H404 H 0.77495 0.85697 0.75675 0.0
H405 H 0.75173 0.81085 0.77729 0.0
H406 H 0.74311 0.88532 0.73773 0.0
H407 H 0.72118 0.9199 0.74304 0.0
C408 C 0.7349 0.39767 0.1707 0.0
C409 C 0.76068 0.44736 0.17536 0.0
C410 C 0.66878 0.429 0.16136 0.0
C411 C 0.64295 0.37929 0.1562 0.0
N412 N 0.64389 0.31341 0.16347 0.0
N413 N 0.74639 0.5058 0.18387 0.0
C414 C 0.6735 0.36263 0.16363 0.0
C415 C 0.72513 0.46117 0.17393 0.0
N416 N 0.76968 0.38458 0.17124 0.0
N417 N 0.64272 0.44694 0.15233 0.0
H418 H 0.78797 0.52997 0.19308 0.0
H419 H 0.72046 0.51633 0.1853 0.0
H420 H 0.6028 0.42582 0.14192 0.0
H421 H 0.66358 0.48415 0.15318 0.0
H422 H 0.75465 0.35015 0.16504 0.0
H423 H 0.81477 0.40903 0.17644 0.0
H424 H 0.66237 0.29877 0.17061 0.0
H425 H 0.59868 0.28716 0.15847 0.0
C426 C 0.45839 0.8722 0.48038 0.0
C427 C 0.47608 0.9041 0.4599 0.0
C428 C 0.39005 0.83431 0.43457 0.0
C429 C 0.37525 0.80199 0.45421 0.0
N430 N 0.40041 0.78845 0.49426 0.0
N431 N 0.46706 0.9117 0.41525 0.0
C432 C 0.4109 0.8205 0.47668 0.0
C433 C 0.44398 0.88416 0.4364 0.0
N434 N 0.48535 0.89121 0.5037 0.0
N435 N 0.3522 0.81747 0.41413 0.0
H436 H 0.50829 0.94713 0.41521 0.0
H437 H 0.44883 0.89754 0.39711 0.0
H438 H 0.31291 0.7811 0.41185 0.0
H439 H 0.35708 0.84047 0.40062 0.0
H440 H 0.46945 0.87084 0.52001 0.0
H441 H 0.52115 0.92823 0.50734 0.0
H442 H 0.4292 0.79869 0.5095 0.0
H443 H 0.36501 0.75069 0.49259 0.0
C444 C 0.5287 0.22703 0.7924 0.0
C445 C 0.55799 0.25579 0.81504 0.0
C446 C 0.61228 0.22479 0.81784 0.0
C447 C 0.58081 0.19428 0.79589 0.0
N448 N 0.50221 0.15975 0.76461 0.0
N449 N 0.62041 0.27701 0.85157 0.0
C450 C 0.53687 0.19341 0.78389 0.0
C451 C 0.59769 0.25315 0.82844 0.0
N452 N 0.49478 0.23322 0.77854 0.0
N453 N 0.65732 0.22771 0.82806 0.0
H454 H 0.61133 0.29864 0.85969 0.0
H455 H 0.64454 0.27257 0.8636 0.0
H456 H 0.66801 0.20643 0.82122 0.0
H457 H 0.68663 0.25332 0.84221 0.0
H458 H 0.47798 0.21779 0.76042 0.0
H459 H 0.48687 0.25683 0.78435 0.0
H460 H 0.46508 0.15344 0.7569 0.0
H461 H 0.50758 0.1351 0.75758 0.0
C462 C 0.7255 0.84228 0.52224 0.0
C463 C 0.67755 0.83757 0.51166 0.0
C464 C 0.61308 0.74785 0.51275 0.0
C465 C 0.65875 0.753 0.52619 0.0
N466 N 0.75553 0.80525 0.54715 0.0
N467 N 0.57352 0.78668 0.49941 0.0
C468 C 0.71435 0.80027 0.53178 0.0
C469 C 0.62072 0.79052 0.50747 0.0
N470 N 0.78202 0.88678 0.52266 0.0
N471 N 0.56299 0.70225 0.5046 0.0
H472 H 0.57744 0.81708 0.49524 0.0
H473 H 0.52962 0.75378 0.49871 0.0
H474 H 0.55605 0.67026 0.50817 0.0
H475 H 0.53087 0.69643 0.4925 0.0
H476 H 0.81977 0.89141 0.52766 0.0
H477 H 0.79199 0.91839 0.51571 0.0
H478 H 0.79383 0.83907 0.55424 0.0
H479 H 0.74916 0.77548 0.55466 0.0
C480 C 0.82448 0.57073 0.82919 0.0
C481 C 0.77297 0.53891 0.84464 0.0
C482 C 0.82555 0.5116 0.86353 0.0
C483 C 0.87537 0.54137 0.84727 0.0
N484 N 0.9162 0.59304 0.81136 0.0
N485 N 0.72175 0.46998 0.87249 0.0
C486 C 0.87312 0.56944 0.82935 0.0
C487 C 0.7727 0.50657 0.86042 0.0
N488 N 0.82669 0.60178 0.81363 0.0
N489 N 0.82971 0.48989 0.88323 0.0
H490 H 0.6832 0.46573 0.87279 0.0
H491 H 0.71624 0.44127 0.88093 0.0
H492 H 0.86713 0.49303 0.88658 0.0
H493 H 0.79884 0.47301 0.89775 0.0
H494 H 0.86549 0.631 0.80496 0.0
H495 H 0.78996 0.59933 0.80984 0.0
H496 H 0.9147 0.60965 0.7959 0.0
H497 H 0.95128 0.59238 0.8106 0.0
C498 C 0.31958 0.73856 0.12996 0.0
C499 C 0.27974 0.71543 0.15064 0.0
C500 C 0.3401 0.7959 0.17379 0.0
C501 C 0.38408 0.81667 0.15481 0.0
N502 N 0.41869 0.80697 0.11569 0.0
N503 N 0.25618 0.72277 0.19378 0.0
C504 C 0.37463 0.78774 0.13313 0.0
C505 C 0.2907 0.74439 0.17287 0.0
N506 N 0.30339 0.71464 0.10676 0.0
N507 N 0.34521 0.82563 0.19273 0.0
H508 H 0.21877 0.68583 0.19442 0.0
H509 H 0.26739 0.74074 0.21148 0.0
H510 H 0.38144 0.86317 0.19455 0.0
H511 H 0.31115 0.8141 0.20531 0.0
H512 H 0.32781 0.73127 0.09043 0.0
H513 H 0.2621 0.68 0.10314 0.0
H514 H 0.41754 0.78599 0.10107 0.0
H515 H 0.45845 0.84332 0.11689 0.0
C516 C 0.54431 0.27253 0.51264 0.0
C517 C 0.56721 0.27652 0.48817 0.0
C518 C 0.61198 0.36305 0.48751 0.0
C519 C 0.58607 0.35817 0.5113 0.0
N520 N 0.5189 0.30668 0.54451 0.0
N521 N 0.61426 0.32223 0.45039 0.0
C522 C 0.5496 0.31236 0.52328 0.0
C523 C 0.59854 0.32087 0.47502 0.0
N524 N 0.5195 0.23134 0.52611 0.0
N525 N 0.65097 0.40833 0.47729 0.0
H526 H 0.60553 0.29209 0.44077 0.0
H527 H 0.63158 0.35175 0.43885 0.0
H528 H 0.66114 0.43989 0.48573 0.0
H529 H 0.67655 0.41541 0.46147 0.0
H530 H 0.5084 0.22854 0.54513 0.0
H531 H 0.51413 0.20107 0.51888 0.0
H532 H 0.48655 0.27287 0.55253 0.0
H533 H 0.52204 0.33516 0.55298 0.0
C534 C 0.41295 0.5096 0.86693 0.0
C535 C 0.45613 0.53264 0.84718 0.0
C536 C 0.40431 0.56249 0.83105 0.0
C537 C 0.35882 0.53641 0.8496 0.0
N538 N 0.31649 0.47913 0.88317 0.0
N539 N 0.48284 0.57231 0.80718 0.0
C540 C 0.36223 0.50808 0.86679 0.0
C541 C 0.44907 0.55693 0.82847 0.0
N542 N 0.42191 0.49141 0.8869 0.0
N543 N 0.40526 0.59324 0.8158 0.0
H544 H 0.51317 0.56668 0.80377 0.0
H545 H 0.47636 0.58578 0.79163 0.0
H546 H 0.37223 0.59641 0.81614 0.0
H547 H 0.44085 0.61811 0.80416 0.0
H548 H 0.39702 0.47981 0.90337 0.0
H549 H 0.45783 0.49204 0.88818 0.0
H550 H 0.31169 0.45282 0.89394 0.0
H551 H 0.2806 0.47869 0.8846 0.0
C552 C 0.97369 0.368 0.1635 0.0
C553 C 0.96806 0.39754 0.1486 0.0
C554 C 0.86125 0.3265 0.14126 0.0
C555 C 0.86781 0.29657 0.15506 0.0
N556 N 0.93259 0.28633 0.17527 0.0
N557 N 0.90954 0.40199 0.11893 0.0
C558 C 0.92491 0.31654 0.16473 0.0
C559 C 0.91261 0.37592 0.13625 0.0
N560 N 1.02407 0.38944 0.17799 0.0
N561 N 0.80564 0.30795 0.13333 0.0
H562 H 0.94638 0.43761 0.11427 0.0
H563 H 0.87222 0.3869 0.10742 0.0
H564 H 0.76762 0.27137 0.1355 0.0
H565 H 0.79657 0.3294 0.12602 0.0
H566 H 1.02792 0.37091 0.19151 0.0
H567 H 1.06038 0.42692 0.17839 0.0
H568 H 0.97435 0.29738 0.1798 0.0
H569 H 0.89767 0.24895 0.17757 0.0
C570 C 0.083 0.51056 0.06032 0.0
C571 C 0.10335 0.55445 0.07347 0.0
C572 C 0.13078 0.59608 0.03303 0.0
C573 C 0.1142 0.55315 0.02012 0.0
N574 N 0.08583 0.47299 0.02186 0.0
N575 N 0.15365 0.64102 0.07303 0.0
C576 C 0.09353 0.51135 0.0339 0.0
C577 C 0.12984 0.59796 0.06004 0.0
N578 N 1.05255 0.46779 0.07297 0.0
N579 N 0.14442 0.63411 0.01942 0.0
H580 H 0.15043 0.64344 0.09261 0.0
H581 H 0.1801 0.67506 0.06467 0.0
H582 H 0.14526 0.63407 -0.00034 0.0
H583 H 0.15022 0.66402 0.0275 0.0
H584 H 1.03053 0.43353 0.06396 0.0
H585 H 1.04541 0.46595 0.09241 0.0
H586 H 1.07705 0.44378 0.03132 0.0
H587 H 0.09362 0.47246 0.00258 0.0
C588 C 0.63893 0.08208 0.38135 0.0
C589 C 0.65237 0.05563 0.39386 0.0
C590 C 0.66439 0.02972 0.35258 0.0
C591 C 0.64257 0.05051 0.34023 0.0
N592 N 0.59291 0.08441 0.3444 0.0
N593 N 0.66516 0.99507 0.39115 0.0
C594 C 0.6246 0.07284 0.3551 0.0
C595 C 0.66098 0.02641 0.37941 0.0
N596 N 0.64413 0.11867 0.39398 0.0
N597 N 0.69162 0.01583 0.33906 0.0
H598 H 0.66146 0.99079 0.41072 0.0
H599 H 0.66606 0.9698 0.38119 0.0
H600 H 0.6988 0.02057 0.31964 0.0
H601 H 0.713 1.00473 0.34763 0.0
H602 H 0.6393 0.14167 0.38506 0.0
H603 H 0.66107 0.12988 0.41247 0.0
H604 H 0.57522 0.09738 0.3551 0.0
H605 H 0.57865 0.07583 0.32546 0.0
C606 C 0.61103 0.50055 0.75393 0.0
C607 C 0.61561 0.53601 0.76957 0.0
C608 C 0.64495 0.58733 0.73294 0.0
C609 C 0.63137 0.5485 0.71679 0.0
N610 N 0.59233 0.46468 0.71165 0.0
N611 N 0.63054 0.61076 0.77391 0.0
C612 C 0.61234 0.50423 0.7272 0.0
C613 C 0.63126 0.579 0.75911 0.0
N614 N 0.60627 0.46372 0.76465 0.0
N615 N 0.672 0.6324 0.72335 0.0
H616 H 0.62062 0.60544 0.79312 0.0
H617 H 0.63514 0.63998 0.76681 0.0
H618 H 0.68344 0.63994 0.70434 0.0
H619 H 0.68807 0.66336 0.73464 0.0
H620 H 0.60873 0.43971 0.75428 0.0
H621 H 0.60594 0.46024 0.78422 0.0
H622 H 0.57187 0.42993 0.71835 0.0
H623 H 0.59093 0.46516 0.69194 0.0
C624 C 0.56589 0.02404 0.55534 0.0
C625 C 0.61614 0.06157 0.54102 0.0
C626 C 0.67987 0.08639 0.5788 0.0
C627 C 0.62853 0.05475 0.59371 0.0
N628 N 0.52115 1.0016 0.59664 0.0
N629 N 0.71989 0.1369 0.5423 0.0
C630 C 0.57107 0.02588 0.58214 0.0
C631 C 0.67308 0.095 0.55351 0.0
N632 N 0.51356 0.98535 0.54361 0.0
N633 N 0.73519 0.10797 0.58863 0.0
H634 H 0.7165 0.1482 0.52504 0.0
H635 H 0.76028 0.16399 0.55176 0.0
H636 H 0.74178 0.1019 0.60695 0.0
H637 H 0.7735 0.12757 0.57769 0.0
H638 H 0.47829 0.95509 0.55336 0.0
H639 H 0.50749 0.98006 0.52405 0.0
H640 H 0.47874 0.98426 0.58904 0.0
H641 H 0.52268 1.00316 0.61641 0.0
C642 C 0.56218 0.50909 0.92919 0.0
C643 C 0.61247 0.5203 0.91672 0.0
C644 C 0.61867 0.47391 0.94793 0.0
C645 C 0.56294 0.45653 0.95764 0.0
N646 N 0.47989 0.45576 0.95735 0.0
N647 N 0.6917 0.5163 0.91471 0.0
C648 C 0.53426 0.47372 0.94827 0.0
C649 C 0.64229 0.50424 0.92648 0.0
N650 N 0.54342 0.53461 0.92383 0.0
N651 N 0.64869 0.46112 0.95921 0.0
H652 H 0.7113 0.53916 0.89937 0.0
H653 H 0.71239 0.50216 0.91927 0.0
H654 H 0.63106 0.43657 0.97388 0.0
H655 H 0.69245 0.47672 0.95522 0.0
H656 H 0.51092 0.53187 0.93409 0.0
H657 H 0.56477 0.56251 0.9108 0.0
H658 H 0.45344 0.46219 0.94902 0.0
H659 H 0.4593 0.43178 0.9723 0.0
C660 C 0.18748 0.59763 0.23551 0.0
C661 C 0.14231 0.555 0.22039 0.0
C662 C 0.09348 0.51058 0.25947 0.0
C663 C 0.13512 0.55434 0.27415 0.0
N664 N 0.21247 0.64239 0.27564 0.0
N665 N 1.04291 0.47422 0.21924 0.0
C666 C 0.1794 0.59873 0.26202 0.0
C667 C 0.0922 0.51264 0.23266 0.0
N668 N 0.23864 0.63725 0.22485 0.0
N669 N 1.05682 0.46644 0.27097 0.0
H670 H 1.03796 0.47266 0.19978 0.0
H671 H 1.00351 0.44557 0.22788 0.0
H672 H 1.05723 0.46304 0.29051 0.0
H673 H 1.03056 0.4328 0.26091 0.0
H674 H 0.27574 0.666 0.23557 0.0
H675 H 0.24601 0.64065 0.20545 0.0
H676 H 0.24086 0.67641 0.26727 0.0
H677 H 0.20692 0.64487 0.295 0.0
loop_
_geom_bond_atom_site_label_1
_geom_bond_atom_site_label_2
_geom_bond_distance
_geom_bond_site_symmetry_2
_ccdc_geom_bond_type
Sm0 C2 2.846 . S
Sm0 O20 2.543 . S
Sm0 O21 2.450 . S
Sm0 O22 2.681 . S
Sm0 O23 2.464 . S
Sm0 O24 2.396 . S
Sm0 O28 2.386 . S
Sm0 O31 2.408 1_455 S
Sm1 C11 2.846 . S
Sm1 O22 2.386 1_655 S
Sm1 O25 2.408 1_655 S
Sm1 O26 2.543 . S
Sm1 O27 2.450 . S
Sm1 O28 2.681 1_655 S
Sm1 O29 2.464 . S
Sm1 O30 2.396 . S
C2 Sm0 2.846 . S
C2 C3 1.506 . S
C2 O20 1.261 . S
C2 O21 1.242 . S
C3 C2 1.506 . S
C3 C4 1.358 . S
C3 C8 1.382 . S
C4 C3 1.358 . S
C4 C5 1.385 . S
C4 H32 0.930 . S
C5 C4 1.385 . S
C5 C6 1.395 . S
C5 H33 0.929 . S
C6 C5 1.395 . S
C6 C7 1.335 . S
C7 C6 1.335 . S
C7 C8 1.398 . S
C7 H34 0.930 . S
C8 C3 1.382 . S
C8 C7 1.398 . S
C8 H35 0.929 . S
C9 O22 1.271 . S
C9 O23 1.251 . S
C10 O24 1.252 . S
C10 O25 1.272 . S
C11 Sm1 2.846 . S
C11 C12 1.506 . S
C11 O26 1.261 . S
C11 O27 1.242 . S
C12 C11 1.506 . S
C12 C13 1.358 . S
C12 C17 1.382 . S
C13 C12 1.358 . S
C13 C14 1.385 . S
C13 H36 0.930 . S
C14 C13 1.385 . S
C14 C15 1.395 . S
C14 H37 0.929 . S
C15 C14 1.395 . S
C15 C16 1.335 . S
C16 C15 1.335 . S
C16 C17 1.398 . S
C16 H38 0.930 . S
C17 C12 1.382 . S
C17 C16 1.398 . S
C17 H39 0.929 . S
C18 O28 1.271 . S
C18 O29 1.251 1_455 S
C19 O30 1.252 . S
C19 O31 1.272 . S
O20 Sm0 2.543 . S
O20 C2 1.261 . S
O21 Sm0 2.450 . S
O21 C2 1.242 . S
O22 Sm0 2.681 . S
O22 Sm1 2.386 1_455 S
O22 C9 1.271 . S
O23 Sm0 2.464 . S
O23 C9 1.251 . S
O24 Sm0 2.396 . S
O24 C10 1.252 . S
O25 Sm1 2.408 1_455 S
O25 C10 1.272 . S
O26 Sm1 2.543 . S
O26 C11 1.261 . S
O27 Sm1 2.450 . S
O27 C11 1.242 . S
O28 Sm0 2.386 . S
O28 Sm1 2.681 1_455 S
O28 C18 1.271 . S
O29 Sm1 2.464 . S
O29 C18 1.251 1_655 S
O30 Sm1 2.396 . S
O30 C19 1.252 . S
O31 Sm0 2.408 1_655 S
O31 C19 1.272 . S
H32 C4 0.930 . S
H33 C5 0.929 . S
H34 C7 0.930 . S
H35 C8 0.929 . S
H36 C13 0.930 . S
H37 C14 0.929 . S
H38 C16 0.930 . S
H39 C17 0.929 . S
Sm40 C42 2.846 . S
Sm40 O60 2.543 . S
Sm40 O61 2.450 . S
Sm40 O62 2.681 1_565 S
Sm40 O63 2.464 . S
Sm40 O64 2.396 . S
Sm40 O68 2.386 . S
Sm40 O71 2.408 1_565 S
Sm41 C51 2.846 . S
Sm41 O62 2.386 . S
Sm41 O65 2.408 1_545 S
Sm41 O66 2.543 . S
Sm41 O67 2.450 . S
Sm41 O68 2.681 1_545 S
Sm41 O69 2.464 . S
Sm41 O70 2.396 . S
C42 Sm40 2.846 . S
C42 C43 1.506 . S
C42 O60 1.261 . S
C42 O61 1.242 . S
C43 C42 1.506 . S
C43 C44 1.358 . S
C43 C48 1.382 . S
C44 C43 1.358 . S
C44 C45 1.385 . S
C44 H72 0.930 . S
C45 C44 1.385 . S
C45 C46 1.395 . S
C45 H73 0.929 . S
C46 C45 1.395 . S
C46 C47 1.335 . S
C47 C46 1.335 . S
C47 C48 1.398 . S
C47 H74 0.930 . S
C48 C43 1.382 . S
C48 C47 1.398 . S
C48 H75 0.929 . S
C49 O62 1.271 . S
C49 O63 1.251 1_545 S
C50 O64 1.252 . S
C50 O65 1.272 . S
C51 Sm41 2.846 . S
C51 C52 1.506 . S
C51 O66 1.261 . S
C51 O67 1.242 . S
C52 C51 1.506 . S
C52 C53 1.358 . S
C52 C57 1.382 . S
C53 C52 1.358 . S
C53 C54 1.385 . S
C53 H76 0.930 . S
C54 C53 1.385 . S
C54 C55 1.395 . S
C54 H77 0.929 . S
C55 C54 1.395 . S
C55 C56 1.335 . S
C56 C55 1.335 . S
C56 C57 1.398 . S
C56 H78 0.930 . S
C57 C52 1.382 . S
C57 C56 1.398 . S
C57 H79 0.929 . S
C58 O68 1.271 1_545 S
C58 O69 1.251 . S
C59 O70 1.252 . S
C59 O71 1.272 . S
O60 Sm40 2.543 . S
O60 C42 1.261 . S
O61 Sm40 2.450 . S
O61 C42 1.242 . S
O62 Sm40 2.681 1_545 S
O62 Sm41 2.386 . S
O62 C49 1.271 . S
O63 Sm40 2.464 . S
O63 C49 1.251 1_565 S
O64 Sm40 2.396 . S
O64 C50 1.252 . S
O65 Sm41 2.408 1_565 S
O65 C50 1.272 . S
O66 Sm41 2.543 . S
O66 C51 1.261 . S
O67 Sm41 2.450 . S
O67 C51 1.242 . S
O68 Sm40 2.386 . S
O68 Sm41 2.681 1_565 S
O68 C58 1.271 1_565 S
O69 Sm41 2.464 . S
O69 C58 1.251 . S
O70 Sm41 2.396 . S
O70 C59 1.252 . S
O71 Sm40 2.408 1_545 S
O71 C59 1.272 . S
H72 C44 0.930 . S
H73 C45 0.929 . S
H74 C47 0.930 . S
H75 C48 0.929 . S
H76 C53 0.930 . S
H77 C54 0.929 . S
H78 C56 0.930 . S
H79 C57 0.929 . S
Sm80 C82 2.846 . S
Sm80 O100 2.543 . S
Sm80 O101 2.450 . S
Sm80 O102 2.681 . S
Sm80 O103 2.464 . S
Sm80 O104 2.396 . S
Sm80 O108 2.386 . S
Sm80 O111 2.408 . S
Sm81 C91 2.846 . S
Sm81 O102 2.386 . S
Sm81 O105 2.408 . S
Sm81 O106 2.543 . S
Sm81 O107 2.450 . S
Sm81 O108 2.681 . S
Sm81 O109 2.464 . S
Sm81 O110 2.396 . S
C82 Sm80 2.846 . S
C82 C83 1.506 . S
C82 O100 1.261 . S
C82 O101 1.242 . S
C83 C82 1.506 . S
C83 C84 1.358 . S
C83 C88 1.382 . S
C84 C83 1.358 . S
C84 C85 1.385 . S
C84 H112 0.930 . S
C85 C84 1.385 . S
C85 C86 1.395 . S
C85 H113 0.929 . S
C86 C85 1.395 . S
C86 C87 1.335 . S
C87 C86 1.335 . S
C87 C88 1.398 . S
C87 H114 0.930 . S
C88 C83 1.382 . S
C88 C87 1.398 . S
C88 H115 0.929 . S
C89 O102 1.271 . S
C89 O103 1.251 . S
C90 O104 1.252 . S
C90 O105 1.272 . S
C91 Sm81 2.846 . S
C91 C92 1.506 . S
C91 O106 1.261 . S
C91 O107 1.242 . S
C92 C91 1.506 . S
C92 C93 1.358 . S
C92 C97 1.382 . S
C93 C92 1.358 . S
C93 C94 1.385 . S
C93 H116 0.930 . S
C94 C93 1.385 . S
C94 C95 1.395 . S
C94 H117 0.929 . S
C95 C94 1.395 . S
C95 C96 1.335 . S
C96 C95 1.335 . S
C96 C97 1.398 . S
C96 H118 0.930 . S
C97 C92 1.382 . S
C97 C96 1.398 . S
C97 H119 0.929 . S
C98 O108 1.271 . S
C98 O109 1.251 . S
C99 O110 1.252 . S
C99 O111 1.272 . S
O100 Sm80 2.543 . S
O100 C82 1.261 . S
O101 Sm80 2.450 . S
O101 C82 1.242 . S
O102 Sm80 2.681 . S
O102 Sm81 2.386 . S
O102 C89 1.271 . S
O103 Sm80 2.464 . S
O103 C89 1.251 . S
O104 Sm80 2.396 . S
O104 C90 1.252 . S
O105 Sm81 2.408 . S
O105 C90 1.272 . S
O106 Sm81 2.543 . S
O106 C91 1.261 . S
O107 Sm81 2.450 . S
O107 C91 1.242 . S
O108 Sm80 2.386 . S
O108 Sm81 2.681 . S
O108 C98 1.271 . S
O109 Sm81 2.464 . S
O109 C98 1.251 . S
O110 Sm81 2.396 . S
O110 C99 1.252 . S
O111 Sm80 2.408 . S
O111 C99 1.272 . S
H112 C84 0.930 . S
H113 C85 0.929 . S
H114 C87 0.930 . S
H115 C88 0.929 . S
H116 C93 0.930 . S
H117 C94 0.929 . S
H118 C96 0.930 . S
H119 C97 0.929 . S
C120 C121 1.386 . S
C120 C122 1.397 . S
C120 H144 0.931 . S
C121 C120 1.386 . S
C121 C125 1.397 1_545 S
C122 C120 1.397 . S
C122 C123 1.384 . S
C122 H145 0.930 . S
C123 C122 1.384 . S
C123 C124 1.377 1_545 S
C123 C126 1.481 . S
C124 C123 1.377 1_565 S
C124 C125 1.389 . S
C124 H146 0.929 . S
C125 C121 1.397 1_565 S
C125 C124 1.389 . S
C125 H147 0.931 . S
C126 C123 1.481 . S
C126 C127 1.387 . S
C126 C131 1.390 1_545 S
C127 C126 1.387 . S
C127 C128 1.401 . S
C127 H148 0.930 . S
C128 C127 1.401 . S
C128 C129 1.376 . S
C128 C137 1.511 . S
C129 C128 1.376 . S
C129 C130 1.392 1_545 S
C129 H150 0.931 . S
C130 C129 1.392 1_565 S
C130 C131 1.361 . S
C130 C132 1.500 . S
C131 C126 1.390 1_565 S
C131 C130 1.361 . S
C131 H149 0.931 . S
C132 C130 1.500 . S
C132 C133 1.371 . S
C132 C134 1.365 . S
C133 C132 1.371 . S
C133 C143 1.386 . S
C133 H151 0.931 . S
C134 C132 1.365 . S
C134 C135 1.409 . S
C134 H152 0.929 . S
C135 C134 1.409 . S
C135 C136 1.380 . S
C135 H153 0.930 . S
C136 C135 1.380 . S
C136 C143 1.357 . S
C137 C128 1.511 . S
C137 C138 1.341 . S
C137 C139 1.371 . S
C138 C137 1.341 . S
C138 C142 1.394 . S
C138 H154 0.930 . S
C139 C137 1.371 . S
C139 C140 1.392 . S
C139 H155 0.931 . S
C140 C139 1.392 . S
C140 C141 1.331 . S
C140 H158 0.932 . S
C141 C140 1.331 . S
C141 C142 1.336 . S
C142 C138 1.394 . S
C142 C141 1.336 . S
C142 H157 0.929 . S
C143 C133 1.386 . S
C143 C136 1.357 . S
C143 H156 0.928 . S
H144 C120 0.931 . S
H145 C122 0.930 . S
H146 C124 0.929 . S
H147 C125 0.931 . S
H148 C127 0.930 . S
H149 C131 0.931 . S
H150 C129 0.931 . S
H151 C133 0.931 . S
H152 C134 0.929 . S
H153 C135 0.930 . S
H154 C138 0.930 . S
H155 C139 0.931 . S
H156 C143 0.928 . S
H157 C142 0.929 . S
H158 C140 0.932 . S
C159 C160 1.386 . S
C159 C161 1.397 . S
C159 H183 0.931 . S
C160 C159 1.386 . S
C160 C164 1.397 . S
C161 C159 1.397 . S
C161 C162 1.384 . S
C161 H184 0.930 . S
C162 C161 1.384 . S
C162 C163 1.377 . S
C162 C165 1.481 . S
C163 C162 1.377 . S
C163 C164 1.389 . S
C163 H185 0.929 . S
C164 C160 1.397 . S
C164 C163 1.389 . S
C164 H186 0.931 . S
C165 C162 1.481 . S
C165 C166 1.387 . S
C165 C170 1.390 . S
C166 C165 1.387 . S
C166 C167 1.401 . S
C166 H187 0.930 . S
C167 C166 1.401 . S
C167 C168 1.376 . S
C167 C176 1.511 . S
C168 C167 1.376 . S
C168 C169 1.392 . S
C168 H189 0.931 . S
C169 C168 1.392 . S
C169 C170 1.361 . S
C169 C171 1.500 . S
C170 C165 1.390 . S
C170 C169 1.361 . S
C170 H188 0.931 . S
C171 C169 1.500 . S
C171 C172 1.371 . S
C171 C173 1.365 . S
C172 C171 1.371 . S
C172 C182 1.386 . S
C172 H190 0.931 . S
C173 C171 1.365 . S
C173 C174 1.409 . S
C173 H191 0.929 . S
C174 C173 1.409 . S
C174 C175 1.380 . S
C174 H192 0.930 . S
C175 C174 1.380 . S
C175 C182 1.357 . S
C176 C167 1.511 . S
C176 C177 1.341 . S
C176 C178 1.371 . S
C177 C176 1.341 . S
C177 C181 1.394 . S
C177 H193 0.930 . S
C178 C176 1.371 . S
C178 C179 1.392 . S
C178 H194 0.931 . S
C179 C178 1.392 . S
C179 C180 1.331 . S
C179 H197 0.932 . S
C180 C179 1.331 . S
C180 C181 1.336 . S
C181 C177 1.394 . S
C181 C180 1.336 . S
C181 H196 0.929 . S
C182 C172 1.386 . S
C182 C175 1.357 . S
C182 H195 0.928 . S
H183 C159 0.931 . S
H184 C161 0.930 . S
H185 C163 0.929 . S
H186 C164 0.931 . S
H187 C166 0.930 . S
H188 C170 0.931 . S
H189 C168 0.931 . S
H190 C172 0.931 . S
H191 C173 0.929 . S
H192 C174 0.930 . S
H193 C177 0.930 . S
H194 C178 0.931 . S
H195 C182 0.928 . S
H196 C181 0.929 . S
H197 C179 0.932 . S
C198 C199 1.386 . S
C198 C200 1.397 . S
C198 H222 0.931 . S
C199 C198 1.386 . S
C199 C203 1.397 1_455 S
C200 C198 1.397 . S
C200 C201 1.384 . S
C200 H223 0.930 . S
C201 C200 1.384 . S
C201 C202 1.377 1_455 S
C201 C204 1.481 . S
C202 C201 1.377 1_655 S
C202 C203 1.389 . S
C202 H224 0.929 . S
C203 C199 1.397 1_655 S
C203 C202 1.389 . S
C203 H225 0.931 . S
C204 C201 1.481 . S
C204 C205 1.387 . S
C204 C209 1.390 . S
C205 C204 1.387 . S
C205 C206 1.401 . S
C205 H226 0.930 . S
C206 C205 1.401 . S
C206 C207 1.376 . S
C206 C215 1.511 . S
C207 C206 1.376 . S
C207 C208 1.392 . S
C207 H228 0.931 . S
C208 C207 1.392 . S
C208 C209 1.361 . S
C208 C210 1.500 1_455 S
C209 C204 1.390 . S
C209 C208 1.361 . S
C209 H227 0.931 1_455 S
C210 C208 1.500 1_655 S
C210 C211 1.371 . S
C210 C212 1.365 . S
C211 C210 1.371 . S
C211 C221 1.386 . S
C211 H229 0.931 1_655 S
C212 C210 1.365 . S
C212 C213 1.409 . S
C212 H230 0.929 . S
C213 C212 1.409 . S
C213 C214 1.380 . S
C213 H231 0.930 . S
C214 C213 1.380 . S
C214 C221 1.357 . S
C215 C206 1.511 . S
C215 C216 1.341 . S
C215 C217 1.371 . S
C216 C215 1.341 . S
C216 C220 1.394 . S
C216 H232 0.930 . S
C217 C215 1.371 . S
C217 C218 1.392 . S
C217 H233 0.931 . S
C218 C217 1.392 . S
C218 C219 1.331 . S
C218 H236 0.932 . S
C219 C218 1.331 . S
C219 C220 1.336 . S
C220 C216 1.394 . S
C220 C219 1.336 . S
C220 H235 0.929 . S
C221 C211 1.386 . S
C221 C214 1.357 . S
C221 H234 0.928 . S
H222 C198 0.931 . S
H223 C200 0.930 . S
H224 C202 0.929 . S
H225 C203 0.931 . S
H226 C205 0.930 . S
H227 C209 0.931 1_655 S
H228 C207 0.931 . S
H229 C211 0.931 1_455 S
H230 C212 0.929 . S
H231 C213 0.930 . S
H232 C216 0.930 . S
H233 C217 0.931 . S
H234 C221 0.928 . S
H235 C220 0.929 . S
H236 C218 0.932 . S
C237 C238 1.386 . S
C237 C239 1.397 . S
C237 H261 0.931 . S
C238 C237 1.386 . S
C238 C242 1.397 1_655 S
C239 C237 1.397 . S
C239 C240 1.384 . S
C239 H262 0.930 . S
C240 C239 1.384 . S
C240 C241 1.377 1_655 S
C240 C243 1.481 . S
C241 C240 1.377 1_455 S
C241 C242 1.389 . S
C241 H263 0.929 . S
C242 C238 1.397 1_455 S
C242 C241 1.389 . S
C242 H264 0.931 . S
C243 C240 1.481 . S
C243 C244 1.387 . S
C243 C248 1.390 1_655 S
C244 C243 1.387 . S
C244 C245 1.401 . S
C244 H265 0.930 . S
C245 C244 1.401 . S
C245 C246 1.376 . S
C245 C254 1.511 . S
C246 C245 1.376 . S
C246 C247 1.392 1_655 S
C246 H267 0.931 . S
C247 C246 1.392 1_455 S
C247 C248 1.361 . S
C247 C249 1.500 . S
C248 C243 1.390 1_455 S
C248 C247 1.361 . S
C248 H266 0.931 . S
C249 C247 1.500 . S
C249 C250 1.371 . S
C249 C251 1.365 . S
C250 C249 1.371 . S
C250 C260 1.386 . S
C250 H268 0.931 . S
C251 C249 1.365 . S
C251 C252 1.409 . S
C251 H269 0.929 . S
C252 C251 1.409 . S
C252 C253 1.380 . S
C252 H270 0.930 . S
C253 C252 1.380 . S
C253 C260 1.357 . S
C254 C245 1.511 . S
C254 C255 1.341 . S
C254 C256 1.371 . S
C255 C254 1.341 . S
C255 C259 1.394 . S
C255 H271 0.930 . S
C256 C254 1.371 . S
C256 C257 1.392 . S
C256 H272 0.931 . S
C257 C256 1.392 . S
C257 C258 1.331 . S
C257 H275 0.932 . S
C258 C257 1.331 . S
C258 C259 1.336 . S
C259 C255 1.394 . S
C259 C258 1.336 . S
C259 H274 0.929 . S
C260 C250 1.386 . S
C260 C253 1.357 . S
C260 H273 0.928 . S
H261 C237 0.931 . S
H262 C239 0.930 . S
H263 C241 0.929 . S
H264 C242 0.931 . S
H265 C244 0.930 . S
H266 C248 0.931 . S
H267 C246 0.931 . S
H268 C250 0.931 . S
H269 C251 0.929 . S
H270 C252 0.930 . S
H271 C255 0.930 . S
H272 C256 0.931 . S
H273 C260 0.928 . S
H274 C259 0.929 . S
H275 C257 0.932 . S
C276 C277 1.386 . S
C276 C278 1.397 . S
C276 H300 0.931 . S
C277 C276 1.386 . S
C277 C281 1.397 1_565 S
C278 C276 1.397 . S
C278 C279 1.384 . S
C278 H301 0.930 . S
C279 C278 1.384 . S
C279 C280 1.377 1_565 S
C279 C282 1.481 . S
C280 C279 1.377 1_545 S
C280 C281 1.389 . S
C280 H302 0.929 . S
C281 C277 1.397 1_545 S
C281 C280 1.389 . S
C281 H303 0.931 . S
C282 C279 1.481 . S
C282 C283 1.387 . S
C282 C287 1.390 1_565 S
C283 C282 1.387 . S
C283 C284 1.401 . S
C283 H304 0.930 . S
C284 C283 1.401 . S
C284 C285 1.376 1_565 S
C284 C293 1.511 . S
C285 C284 1.376 1_545 S
C285 C286 1.392 . S
C285 H306 0.931 . S
C286 C285 1.392 . S
C286 C287 1.361 . S
C286 C288 1.500 . S
C287 C282 1.390 1_545 S
C287 C286 1.361 . S
C287 H305 0.931 . S
C288 C286 1.500 . S
C288 C289 1.371 . S
C288 C290 1.365 . S
C289 C288 1.371 . S
C289 C299 1.386 . S
C289 H307 0.931 . S
C290 C288 1.365 . S
C290 C291 1.409 . S
C290 H308 0.929 . S
C291 C290 1.409 . S
C291 C292 1.380 . S
C291 H309 0.930 . S
C292 C291 1.380 . S
C292 C299 1.357 . S
C293 C284 1.511 . S
C293 C294 1.341 . S
C293 C295 1.371 . S
C294 C293 1.341 . S
C294 C298 1.394 . S
C294 H310 0.930 . S
C295 C293 1.371 . S
C295 C296 1.392 . S
C295 H311 0.931 . S
C296 C295 1.392 . S
C296 C297 1.331 . S
C296 H314 0.932 . S
C297 C296 1.331 . S
C297 C298 1.336 . S
C298 C294 1.394 . S
C298 C297 1.336 . S
C298 H313 0.929 . S
C299 C289 1.386 . S
C299 C292 1.357 . S
C299 H312 0.928 . S
H300 C276 0.931 . S
H301 C278 0.930 . S
H302 C280 0.929 . S
H303 C281 0.931 . S
H304 C283 0.930 . S
H305 C287 0.931 . S
H306 C285 0.931 . S
H307 C289 0.931 . S
H308 C290 0.929 . S
H309 C291 0.930 . S
H310 C294 0.930 . S
H311 C295 0.931 . S
H312 C299 0.928 . S
H313 C298 0.929 . S
H314 C296 0.932 . S
C315 C316 1.386 . S
C315 C317 1.397 1_556 S
C315 H339 0.931 . S
C316 C315 1.386 . S
C316 C320 1.397 . S
C317 C315 1.397 1_554 S
C317 C318 1.384 . S
C317 H340 0.930 . S
C318 C317 1.384 . S
C318 C319 1.377 . S
C318 C321 1.481 . S
C319 C318 1.377 . S
C319 C320 1.389 1_554 S
C319 H341 0.929 . S
C320 C316 1.397 . S
C320 C319 1.389 1_556 S
C320 H342 0.931 . S
C321 C318 1.481 . S
C321 C322 1.387 . S
C321 C326 1.390 . S
C322 C321 1.387 . S
C322 C323 1.401 . S
C322 H343 0.930 . S
C323 C322 1.401 . S
C323 C324 1.376 . S
C323 C332 1.511 . S
C324 C323 1.376 . S
C324 C325 1.392 . S
C324 H345 0.931 . S
C325 C324 1.392 . S
C325 C326 1.361 . S
C325 C327 1.500 . S
C326 C321 1.390 . S
C326 C325 1.361 . S
C326 H344 0.931 . S
C327 C325 1.500 . S
C327 C328 1.371 . S
C327 C329 1.365 . S
C328 C327 1.371 . S
C328 C338 1.386 . S
C328 H346 0.931 . S
C329 C327 1.365 . S
C329 C330 1.409 . S
C329 H347 0.929 . S
C330 C329 1.409 . S
C330 C331 1.380 . S
C330 H348 0.930 . S
C331 C330 1.380 . S
C331 C338 1.357 . S
C332 C323 1.511 . S
C332 C333 1.341 . S
C332 C334 1.371 . S
C333 C332 1.341 . S
C333 C337 1.394 . S
C333 H349 0.930 . S
C334 C332 1.371 . S
C334 C335 1.392 . S
C334 H350 0.931 . S
C335 C334 1.392 . S
C335 C336 1.331 . S
C335 H353 0.932 . S
C336 C335 1.331 . S
C336 C337 1.336 . S
C337 C333 1.394 . S
C337 C336 1.336 . S
C337 H352 0.929 . S
C338 C328 1.386 . S
C338 C331 1.357 . S
C338 H351 0.928 . S
H339 C315 0.931 . S
H340 C317 0.930 . S
H341 C319 0.929 . S
H342 C320 0.931 . S
H343 C322 0.930 . S
H344 C326 0.931 . S
H345 C324 0.931 . S
H346 C328 0.931 . S
H347 C329 0.929 . S
H348 C330 0.930 . S
H349 C333 0.930 . S
H350 C334 0.931 . S
H351 C338 0.928 . S
H352 C337 0.929 . S
H353 C335 0.932 . S
C354 C355 1.363 . S
C354 C360 1.379 . S
C354 N362 1.356 . S
C355 C354 1.363 . S
C355 C361 1.363 . S
C356 C357 1.363 . S
C356 C361 1.379 . S
C356 N363 1.356 . S
C357 C356 1.363 . S
C357 C360 1.363 . S
N358 C360 1.356 . S
N358 H370 0.984 . S
N358 H371 0.985 . S
N359 C361 1.356 . S
N359 H364 0.984 . S
N359 H365 0.985 . S
C360 C354 1.379 . S
C360 C357 1.363 . S
C360 N358 1.356 . S
C361 C355 1.363 . S
C361 C356 1.379 . S
C361 N359 1.356 . S
N362 C354 1.356 . S
N362 H368 0.984 . S
N362 H369 0.984 . S
N363 C356 1.356 . S
N363 H366 0.984 . S
N363 H367 0.985 . S
H364 N359 0.984 . S
H365 N359 0.985 . S
H366 N363 0.984 . S
H367 N363 0.985 . S
H368 N362 0.984 . S
H369 N362 0.984 . S
H370 N358 0.984 . S
H371 N358 0.985 . S
C372 C373 1.363 . S
C372 C378 1.379 . S
C372 N380 1.356 . S
C373 C372 1.363 . S
C373 C379 1.363 . S
C374 C375 1.363 . S
C374 C379 1.379 . S
C374 N381 1.356 . S
C375 C374 1.363 . S
C375 C378 1.363 . S
N376 C378 1.356 . S
N376 H388 0.984 . S
N376 H389 0.985 . S
N377 C379 1.356 . S
N377 H382 0.984 . S
N377 H383 0.985 . S
C378 C372 1.379 . S
C378 C375 1.363 . S
C378 N376 1.356 . S
C379 C373 1.363 . S
C379 C374 1.379 . S
C379 N377 1.356 . S
N380 C372 1.356 . S
N380 H386 0.984 . S
N380 H387 0.984 . S
N381 C374 1.356 . S
N381 H384 0.984 . S
N381 H385 0.985 . S
H382 N377 0.984 . S
H383 N377 0.985 . S
H384 N381 0.984 . S
H385 N381 0.985 . S
H386 N380 0.984 . S
H387 N380 0.984 . S
H388 N376 0.984 . S
H389 N376 0.985 . S
C390 C391 1.363 . S
C390 C396 1.379 . S
C390 N398 1.356 . S
C391 C390 1.363 . S
C391 C397 1.363 . S
C392 C393 1.363 . S
C392 C397 1.379 . S
C392 N399 1.356 . S
C393 C392 1.363 . S
C393 C396 1.363 . S
N394 C396 1.356 . S
N394 H406 0.984 . S
N394 H407 0.985 . S
N395 C397 1.356 . S
N395 H400 0.984 . S
N395 H401 0.985 . S
C396 C390 1.379 . S
C396 C393 1.363 . S
C396 N394 1.356 . S
C397 C391 1.363 . S
C397 C392 1.379 . S
C397 N395 1.356 . S
N398 C390 1.356 . S
N398 H404 0.984 . S
N398 H405 0.984 . S
N399 C392 1.356 . S
N399 H402 0.984 . S
N399 H403 0.985 . S
H400 N395 0.984 . S
H401 N395 0.985 . S
H402 N399 0.984 . S
H403 N399 0.985 . S
H404 N398 0.984 . S
H405 N398 0.984 . S
H406 N394 0.984 . S
H407 N394 0.985 . S
C408 C409 1.363 . S
C408 C414 1.379 . S
C408 N416 1.356 . S
C409 C408 1.363 . S
C409 C415 1.363 . S
C410 C411 1.363 . S
C410 C415 1.379 . S
C410 N417 1.356 . S
C411 C410 1.363 . S
C411 C414 1.363 . S
N412 C414 1.356 . S
N412 H424 0.984 . S
N412 H425 0.985 . S
N413 C415 1.356 . S
N413 H418 0.984 . S
N413 H419 0.985 . S
C414 C408 1.379 . S
C414 C411 1.363 . S
C414 N412 1.356 . S
C415 C409 1.363 . S
C415 C410 1.379 . S
C415 N413 1.356 . S
N416 C408 1.356 . S
N416 H422 0.984 . S
N416 H423 0.984 . S
N417 C410 1.356 . S
N417 H420 0.984 . S
N417 H421 0.985 . S
H418 N413 0.984 . S
H419 N413 0.985 . S
H420 N417 0.984 . S
H421 N417 0.985 . S
H422 N416 0.984 . S
H423 N416 0.984 . S
H424 N412 0.984 . S
H425 N412 0.985 . S
C426 C427 1.363 . S
C426 C432 1.379 . S
C426 N434 1.356 . S
C427 C426 1.363 . S
C427 C433 1.363 . S
C428 C429 1.363 . S
C428 C433 1.379 . S
C428 N435 1.356 . S
C429 C428 1.363 . S
C429 C432 1.363 . S
N430 C432 1.356 . S
N430 H442 0.984 . S
N430 H443 0.985 . S
N431 C433 1.356 . S
N431 H436 0.984 . S
N431 H437 0.985 . S
C432 C426 1.379 . S
C432 C429 1.363 . S
C432 N430 1.356 . S
C433 C427 1.363 . S
C433 C428 1.379 . S
C433 N431 1.356 . S
N434 C426 1.356 . S
N434 H440 0.984 . S
N434 H441 0.984 . S
N435 C428 1.356 . S
N435 H438 0.984 . S
N435 H439 0.985 . S
H436 N431 0.984 . S
H437 N431 0.985 . S
H438 N435 0.984 . S
H439 N435 0.985 . S
H440 N434 0.984 . S
H441 N434 0.984 . S
H442 N430 0.984 . S
H443 N430 0.985 . S
C444 C445 1.363 . S
C444 C450 1.379 . S
C444 N452 1.356 . S
C445 C444 1.363 . S
C445 C451 1.363 . S
C446 C447 1.363 . S
C446 C451 1.379 . S
C446 N453 1.356 . S
C447 C446 1.363 . S
C447 C450 1.363 . S
N448 C450 1.356 . S
N448 H460 0.984 . S
N448 H461 0.985 . S
N449 C451 1.356 . S
N449 H454 0.984 . S
N449 H455 0.985 . S
C450 C444 1.379 . S
C450 C447 1.363 . S
C450 N448 1.356 . S
C451 C445 1.363 . S
C451 C446 1.379 . S
C451 N449 1.356 . S
N452 C444 1.356 . S
N452 H458 0.984 . S
N452 H459 0.984 . S
N453 C446 1.356 . S
N453 H456 0.984 . S
N453 H457 0.985 . S
H454 N449 0.984 . S
H455 N449 0.985 . S
H456 N453 0.984 . S
H457 N453 0.985 . S
H458 N452 0.984 . S
H459 N452 0.984 . S
H460 N448 0.984 . S
H461 N448 0.985 . S
C462 C463 1.363 . S
C462 C468 1.379 . S
C462 N470 1.356 . S
C463 C462 1.363 . S
C463 C469 1.363 . S
C464 C465 1.363 . S
C464 C469 1.379 . S
C464 N471 1.356 . S
C465 C464 1.363 . S
C465 C468 1.363 . S
N466 C468 1.356 . S
N466 H478 0.984 . S
N466 H479 0.985 . S
N467 C469 1.356 . S
N467 H472 0.984 . S
N467 H473 0.985 . S
C468 C462 1.379 . S
C468 C465 1.363 . S
C468 N466 1.356 . S
C469 C463 1.363 . S
C469 C464 1.379 . S
C469 N467 1.356 . S
N470 C462 1.356 . S
N470 H476 0.984 . S
N470 H477 0.984 . S
N471 C464 1.356 . S
N471 H474 0.984 . S
N471 H475 0.985 . S
H472 N467 0.984 . S
H473 N467 0.985 . S
H474 N471 0.984 . S
H475 N471 0.985 . S
H476 N470 0.984 . S
H477 N470 0.984 . S
H478 N466 0.984 . S
H479 N466 0.985 . S
C480 C481 1.363 . S
C480 C486 1.379 . S
C480 N488 1.356 . S
C481 C480 1.363 . S
C481 C487 1.363 . S
C482 C483 1.363 . S
C482 C487 1.379 . S
C482 N489 1.356 . S
C483 C482 1.363 . S
C483 C486 1.363 . S
N484 C486 1.356 . S
N484 H496 0.984 . S
N484 H497 0.985 . S
N485 C487 1.356 . S
N485 H490 0.984 . S
N485 H491 0.985 . S
C486 C480 1.379 . S
C486 C483 1.363 . S
C486 N484 1.356 . S
C487 C481 1.363 . S
C487 C482 1.379 . S
C487 N485 1.356 . S
N488 C480 1.356 . S
N488 H494 0.984 . S
N488 H495 0.984 . S
N489 C482 1.356 . S
N489 H492 0.984 . S
N489 H493 0.985 . S
H490 N485 0.984 . S
H491 N485 0.985 . S
H492 N489 0.984 . S
H493 N489 0.985 . S
H494 N488 0.984 . S
H495 N488 0.984 . S
H496 N484 0.984 . S
H497 N484 0.985 . S
C498 C499 1.363 . S
C498 C504 1.379 . S
C498 N506 1.356 . S
C499 C498 1.363 . S
C499 C505 1.363 . S
C500 C501 1.363 . S
C500 C505 1.379 . S
C500 N507 1.356 . S
C501 C500 1.363 . S
C501 C504 1.363 . S
N502 C504 1.356 . S
N502 H514 0.984 . S
N502 H515 0.985 . S
N503 C505 1.356 . S
N503 H508 0.984 . S
N503 H509 0.985 . S
C504 C498 1.379 . S
C504 C501 1.363 . S
C504 N502 1.356 . S
C505 C499 1.363 . S
C505 C500 1.379 . S
C505 N503 1.356 . S
N506 C498 1.356 . S
N506 H512 0.984 . S
N506 H513 0.984 . S
N507 C500 1.356 . S
N507 H510 0.984 . S
N507 H511 0.985 . S
H508 N503 0.984 . S
H509 N503 0.985 . S
H510 N507 0.984 . S
H511 N507 0.985 . S
H512 N506 0.984 . S
H513 N506 0.984 . S
H514 N502 0.984 . S
H515 N502 0.985 . S
C516 C517 1.363 . S
C516 C522 1.379 . S
C516 N524 1.356 . S
C517 C516 1.363 . S
C517 C523 1.363 . S
C518 C519 1.363 . S
C518 C523 1.379 . S
C518 N525 1.356 . S
C519 C518 1.363 . S
C519 C522 1.363 . S
N520 C522 1.356 . S
N520 H532 0.984 . S
N520 H533 0.985 . S
N521 C523 1.356 . S
N521 H526 0.984 . S
N521 H527 0.985 . S
C522 C516 1.379 . S
C522 C519 1.363 . S
C522 N520 1.356 . S
C523 C517 1.363 . S
C523 C518 1.379 . S
C523 N521 1.356 . S
N524 C516 1.356 . S
N524 H530 0.984 . S
N524 H531 0.984 . S
N525 C518 1.356 . S
N525 H528 0.984 . S
N525 H529 0.985 . S
H526 N521 0.984 . S
H527 N521 0.985 . S
H528 N525 0.984 . S
H529 N525 0.985 . S
H530 N524 0.984 . S
H531 N524 0.984 . S
H532 N520 0.984 . S
H533 N520 0.985 . S
C534 C535 1.363 . S
C534 C540 1.379 . S
C534 N542 1.356 . S
C535 C534 1.363 . S
C535 C541 1.363 . S
C536 C537 1.363 . S
C536 C541 1.379 . S
C536 N543 1.356 . S
C537 C536 1.363 . S
C537 C540 1.363 . S
N538 C540 1.356 . S
N538 H550 0.984 . S
N538 H551 0.985 . S
N539 C541 1.356 . S
N539 H544 0.984 . S
N539 H545 0.985 . S
C540 C534 1.379 . S
C540 C537 1.363 . S
C540 N538 1.356 . S
C541 C535 1.363 . S
C541 C536 1.379 . S
C541 N539 1.356 . S
N542 C534 1.356 . S
N542 H548 0.984 . S
N542 H549 0.984 . S
N543 C536 1.356 . S
N543 H546 0.984 . S
N543 H547 0.985 . S
H544 N539 0.984 . S
H545 N539 0.985 . S
H546 N543 0.984 . S
H547 N543 0.985 . S
H548 N542 0.984 . S
H549 N542 0.984 . S
H550 N538 0.984 . S
H551 N538 0.985 . S
C552 C553 1.363 . S
C552 C558 1.379 . S
C552 N560 1.356 . S
C553 C552 1.363 . S
C553 C559 1.363 . S
C554 C555 1.363 . S
C554 C559 1.379 . S
C554 N561 1.356 . S
C555 C554 1.363 . S
C555 C558 1.363 . S
N556 C558 1.356 . S
N556 H568 0.984 . S
N556 H569 0.985 . S
N557 C559 1.356 . S
N557 H562 0.984 . S
N557 H563 0.985 . S
C558 C552 1.379 . S
C558 C555 1.363 . S
C558 N556 1.356 . S
C559 C553 1.363 . S
C559 C554 1.379 . S
C559 N557 1.356 . S
N560 C552 1.356 . S
N560 H566 0.984 . S
N560 H567 0.984 . S
N561 C554 1.356 . S
N561 H564 0.984 . S
N561 H565 0.985 . S
H562 N557 0.984 . S
H563 N557 0.985 . S
H564 N561 0.984 . S
H565 N561 0.985 . S
H566 N560 0.984 . S
H567 N560 0.984 . S
H568 N556 0.984 . S
H569 N556 0.985 . S
C570 C571 1.363 . S
C570 C576 1.379 . S
C570 N578 1.356 . S
C571 C570 1.363 . S
C571 C577 1.363 . S
C572 C573 1.363 . S
C572 C577 1.379 . S
C572 N579 1.356 . S
C573 C572 1.363 . S
C573 C576 1.363 . S
N574 C576 1.356 . S
N574 H586 0.984 . S
N574 H587 0.985 . S
N575 C577 1.356 . S
N575 H580 0.984 . S
N575 H581 0.985 . S
C576 C570 1.379 . S
C576 C573 1.363 . S
C576 N574 1.356 . S
C577 C571 1.363 . S
C577 C572 1.379 . S
C577 N575 1.356 . S
N578 C570 1.356 . S
N578 H584 0.984 . S
N578 H585 0.984 . S
N579 C572 1.356 . S
N579 H582 0.984 . S
N579 H583 0.985 . S
H580 N575 0.984 . S
H581 N575 0.985 . S
H582 N579 0.984 . S
H583 N579 0.985 . S
H584 N578 0.984 . S
H585 N578 0.984 . S
H586 N574 0.984 . S
H587 N574 0.985 . S
C588 C589 1.363 . S
C588 C594 1.379 . S
C588 N596 1.356 . S
C589 C588 1.363 . S
C589 C595 1.363 1_545 S
C590 C591 1.363 1_565 S
C590 C595 1.379 . S
C590 N597 1.356 . S
C591 C590 1.363 1_545 S
C591 C594 1.363 . S
N592 C594 1.356 . S
N592 H604 0.984 . S
N592 H605 0.985 . S
N593 C595 1.356 . S
N593 H598 0.984 . S
N593 H599 0.985 . S
C594 C588 1.379 . S
C594 C591 1.363 . S
C594 N592 1.356 . S
C595 C589 1.363 1_565 S
C595 C590 1.379 . S
C595 N593 1.356 . S
N596 C588 1.356 . S
N596 H602 0.984 . S
N596 H603 0.984 . S
N597 C590 1.356 . S
N597 H600 0.984 . S
N597 H601 0.985 . S
H598 N593 0.984 . S
H599 N593 0.985 . S
H600 N597 0.984 . S
H601 N597 0.985 . S
H602 N596 0.984 . S
H603 N596 0.984 . S
H604 N592 0.984 . S
H605 N592 0.985 . S
C606 C607 1.363 . S
C606 C612 1.379 . S
C606 N614 1.356 . S
C607 C606 1.363 . S
C607 C613 1.363 . S
C608 C609 1.363 . S
C608 C613 1.379 . S
C608 N615 1.356 . S
C609 C608 1.363 . S
C609 C612 1.363 . S
N610 C612 1.356 . S
N610 H622 0.984 . S
N610 H623 0.985 . S
N611 C613 1.356 . S
N611 H616 0.984 . S
N611 H617 0.985 . S
C612 C606 1.379 . S
C612 C609 1.363 . S
C612 N610 1.356 . S
C613 C607 1.363 . S
C613 C608 1.379 . S
C613 N611 1.356 . S
N614 C606 1.356 . S
N614 H620 0.984 . S
N614 H621 0.984 . S
N615 C608 1.356 . S
N615 H618 0.984 . S
N615 H619 0.985 . S
H616 N611 0.984 . S
H617 N611 0.985 . S
H618 N615 0.984 . S
H619 N615 0.985 . S
H620 N614 0.984 . S
H621 N614 0.984 . S
H622 N610 0.984 . S
H623 N610 0.985 . S
C624 C625 1.363 1_565 S
C624 C630 1.379 . S
C624 N632 1.356 . S
C625 C624 1.363 1_545 S
C625 C631 1.363 . S
C626 C627 1.363 1_545 S
C626 C631 1.379 . S
C626 N633 1.356 . S
C627 C626 1.363 1_565 S
C627 C630 1.363 . S
N628 C630 1.356 . S
N628 H640 0.984 . S
N628 H641 0.985 . S
N629 C631 1.356 . S
N629 H634 0.984 . S
N629 H635 0.985 . S
C630 C624 1.379 . S
C630 C627 1.363 . S
C630 N628 1.356 . S
C631 C625 1.363 . S
C631 C626 1.379 . S
C631 N629 1.356 . S
N632 C624 1.356 . S
N632 H638 0.984 . S
N632 H639 0.984 . S
N633 C626 1.356 . S
N633 H636 0.984 . S
N633 H637 0.985 . S
H634 N629 0.984 . S
H635 N629 0.985 . S
H636 N633 0.984 . S
H637 N633 0.985 . S
H638 N632 0.984 . S
H639 N632 0.984 . S
H640 N628 0.984 . S
H641 N628 0.985 . S
C642 C643 1.363 . S
C642 C648 1.379 . S
C642 N650 1.356 . S
C643 C642 1.363 . S
C643 C649 1.363 . S
C644 C645 1.363 . S
C644 C649 1.379 . S
C644 N651 1.356 . S
C645 C644 1.363 . S
C645 C648 1.363 . S
N646 C648 1.356 . S
N646 H658 0.984 . S
N646 H659 0.985 . S
N647 C649 1.356 . S
N647 H652 0.984 . S
N647 H653 0.985 . S
C648 C642 1.379 . S
C648 C645 1.363 . S
C648 N646 1.356 . S
C649 C643 1.363 . S
C649 C644 1.379 . S
C649 N647 1.356 . S
N650 C642 1.356 . S
N650 H656 0.984 . S
N650 H657 0.984 . S
N651 C644 1.356 . S
N651 H654 0.984 . S
N651 H655 0.985 . S
H652 N647 0.984 . S
H653 N647 0.985 . S
H654 N651 0.984 . S
H655 N651 0.985 . S
H656 N650 0.984 . S
H657 N650 0.984 . S
H658 N646 0.984 . S
H659 N646 0.985 . S
C660 C661 1.363 . S
C660 C666 1.379 . S
C660 N668 1.356 . S
C661 C660 1.363 . S
C661 C667 1.363 1_455 S
C662 C663 1.363 1_655 S
C662 C667 1.379 . S
C662 N669 1.356 . S
C663 C662 1.363 1_455 S
C663 C666 1.363 . S
N664 C666 1.356 . S
N664 H676 0.984 . S
N664 H677 0.985 . S
N665 C667 1.356 . S
N665 H670 0.984 . S
N665 H671 0.985 . S
C666 C660 1.379 . S
C666 C663 1.363 . S
C666 N664 1.356 . S
C667 C661 1.363 1_655 S
C667 C662 1.379 . S
C667 N665 1.356 . S
N668 C660 1.356 . S
N668 H674 0.984 . S
N668 H675 0.984 . S
N669 C662 1.356 . S
N669 H672 0.984 . S
N669 H673 0.985 . S
H670 N665 0.984 . S
H671 N665 0.985 . S
H672 N669 0.984 . S
H673 N669 0.985 . S
H674 N668 0.984 . S
H675 N668 0.984 . S
H676 N664 0.984 . S
H677 N664 0.985 . S
C355 C6 0.913 . S
C357 C331 0.966 . S
C373 C59 2.032 . S
C375 C258 1.977 . S
C391 C86 1.356 . S
C393 C297 1.391 . S
C409 C15 0.647 . S
C411 C336 0.563 . S
C429 C253 2.053 . S
C427 C50 2.157 . S
C447 C292 1.382 . S
C445 C95 1.354 . S
C463 C46 1.297 . S
C465 C180 1.321 . S
C481 C99 3.192 . S
C483 C214 3.129 . S
C499 C10 2.188 . S
C501 C136 2.104 . S
C519 C175 1.388 . S
C517 C55 1.344 . S
C537 C219 3.056 . S
C535 C90 3.117 . S
C553 C19 2.032 . S
C555 C141 1.991 . S
C573 C199 1.792 1_554 S
C571 C18 1.719 . S
C589 C49 1.326 . S
C591 C121 1.371 . S
C607 C98 1.453 . S
C609 C160 1.506 . S
C627 C277 1.487 . S
C625 C58 1.443 . S
C645 C316 1.082 . S
C643 C89 1.083 . S
C661 C9 1.318 . S
C663 C238 1.356 1_455 S
