# Generated by pormake.
# Topology zzz, (3,6)-cn, num edge types: 1
# Building blocks:
#     Node 0, Type 0, BuildingBlock: BETDIP_clean_linker_0, # of connection points: 3
#     Node 1, Type 0, BuildingBlock: BETDIP_clean_linker_0, # of connection points: 3
#     Node 2, Type 0, BuildingBlock: BETDIP_clean_linker_0, # of connection points: 3
#     Node 3, Type 0, BuildingBlock: BETDIP_clean_linker_0, # of connection points: 3
#     Node 4, Type 0, BuildingBlock: BETDIP_clean_linker_0, # of connection points: 3
#     Node 5, Type 0, BuildingBlock: BETDIP_clean_linker_0, # of connection points: 3
#     Node 6, Type 0, BuildingBlock: BETDIP_clean_linker_0, # of connection points: 3
#     Node 7, Type 0, BuildingBlock: BETDIP_clean_linker_0, # of connection points: 3
#     Node 8, Type 1, BuildingBlock: KUMBUR_clean_sbu_0, # of connection points: 6
#     Node 9, Type 1, BuildingBlock: KUMBUR_clean_sbu_0, # of connection points: 6
#     Node 10, Type 1, BuildingBlock: KUMBUR_clean_sbu_0, # of connection points: 6
#     Node 11, Type 1, BuildingBlock: KUMBUR_clean_sbu_0, # of connection points: 6
#     Edge 12, Type (0, 1), BuildingBlock: OJICUG_clean_linker_0, # of connection points: 2
#     Edge 13, Type (0, 1), BuildingBlock: OJICUG_clean_linker_0, # of connection points: 2
#     Edge 14, Type (0, 1), BuildingBlock: OJICUG_clean_linker_0, # of connection points: 2
#     Edge 15, Type (0, 1), BuildingBlock: OJICUG_clean_linker_0, # of connection points: 2
#     Edge 16, Type (0, 1), BuildingBlock: OJICUG_clean_linker_0, # of connection points: 2
#     Edge 17, Type (0, 1), BuildingBlock: OJICUG_clean_linker_0, # of connection points: 2
#     Edge 18, Type (0, 1), BuildingBlock: OJICUG_clean_linker_0, # of connection points: 2
#     Edge 19, Type (0, 1), BuildingBlock: OJICUG_clean_linker_0, # of connection points: 2
#     Edge 20, Type (0, 1), BuildingBlock: OJICUG_clean_linker_0, # of connection points: 2
#     Edge 21, Type (0, 1), BuildingBlock: OJICUG_clean_linker_0, # of connection points: 2
#     Edge 22, Type (0, 1), BuildingBlock: OJICUG_clean_linker_0, # of connection points: 2
#     Edge 23, Type (0, 1), BuildingBlock: OJICUG_clean_linker_0, # of connection points: 2
#     Edge 24, Type (0, 1), BuildingBlock: OJICUG_clean_linker_0, # of connection points: 2
#     Edge 25, Type (0, 1), BuildingBlock: OJICUG_clean_linker_0, # of connection points: 2
#     Edge 26, Type (0, 1), BuildingBlock: OJICUG_clean_linker_0, # of connection points: 2
#     Edge 27, Type (0, 1), BuildingBlock: OJICUG_clean_linker_0, # of connection points: 2
#     Edge 28, Type (0, 1), BuildingBlock: OJICUG_clean_linker_0, # of connection points: 2
#     Edge 29, Type (0, 1), BuildingBlock: OJICUG_clean_linker_0, # of connection points: 2
#     Edge 30, Type (0, 1), BuildingBlock: OJICUG_clean_linker_0, # of connection points: 2
#     Edge 31, Type (0, 1), BuildingBlock: OJICUG_clean_linker_0, # of connection points: 2
#     Edge 32, Type (0, 1), BuildingBlock: OJICUG_clean_linker_0, # of connection points: 2
#     Edge 33, Type (0, 1), BuildingBlock: OJICUG_clean_linker_0, # of connection points: 2
#     Edge 34, Type (0, 1), BuildingBlock: OJICUG_clean_linker_0, # of connection points: 2
#     Edge 35, Type (0, 1), BuildingBlock: OJICUG_clean_linker_0, # of connection points: 2
# Relax obj value: 0.236
# Max RMSD: 0.183
# Mean RMSD: 0.118
data_MOF--net-zzz--node1-KUMBUR_clean_sbu_0--node2-BETDIP_clean_linker_0--edge1-OJICUG_clean_linker_0
_symmetry_space_group_name_H-M    P1
_symmetry_Int_Tables_number       1
_symmetry_cell_setting            triclinic
loop_
_symmetry_equiv_pos_as_xyz
'x, y, z'
_cell_length_a     37.0716
_cell_length_b     36.962339
_cell_length_c     10.951387
_cell_angle_alpha  91.70756
_cell_angle_beta   89.448057
_cell_angle_gamma 89.980316
loop_
_atom_site_label
_atom_site_type_symbol
_atom_site_fract_x
_atom_site_fract_y
_atom_site_fract_z
_atom_type_partial_charge
H0 H 0.77294 0.51777 0.3942 0.0
H1 H 0.75187 0.61091 0.17751 0.0
H2 H 0.84759 0.6066 0.39186 0.0
H3 H 0.69633 0.59846 0.1809 0.0
C4 C 0.69411 0.56924 0.17893 0.0
C5 C 0.77995 0.54467 0.36567 0.0
C6 C 0.81393 0.56039 0.40342 0.0
C7 C 0.75554 0.56392 0.2879 0.0
C8 C 0.76771 0.59733 0.24377 0.0
C9 C 0.80198 0.61177 0.27189 0.0
C10 C 0.82223 0.59494 0.3625 0.0
N11 N 0.72127 0.54867 0.24378 0.0
H12 H 0.01934 0.78638 0.44853 0.0
H13 H 0.95243 0.76235 0.1348 0.0
H14 H 0.97116 0.87163 0.24735 0.0
H15 H 0.95069 0.70701 0.20323 0.0
C16 C 0.97974 0.70339 0.20631 0.0
C17 C 1.00142 0.79499 0.37757 0.0
C18 C 0.99197 0.83306 0.37073 0.0
C19 C 0.98739 0.76837 0.28984 0.0
C20 C 0.96379 0.78099 0.20185 0.0
C21 C 0.96273 0.81751 0.1752 0.0
C22 C 0.97361 0.84322 0.26514 0.0
N23 N 1.0 0.73093 0.27532 0.0
H24 H 0.77515 0.0189 0.50376 0.0
H25 H 0.79415 0.9992 0.11708 0.0
H26 H 0.68724 0.01865 0.24773 0.0
H27 H 0.84426 0.95963 0.2317 0.0
C28 C 0.85221 0.98791 0.23879 0.0
C29 C 0.7649 1.01478 0.41221 0.0
C30 C 0.72618 1.01657 0.39161 0.0
C31 C 0.79009 1.00831 0.31074 0.0
C32 C 0.77601 1.00296 0.19475 0.0
C33 C 0.73985 1.00824 0.17237 0.0
C34 C 0.71526 1.01406 0.26919 0.0
N35 N 0.82915 1.01107 0.31611 0.0
H36 H 0.51495 0.77261 0.4025 0.0
H37 H 0.60604 0.79515 0.17002 0.0
H38 H 0.60317 0.69755 0.37359 0.0
H39 H 0.59443 0.85488 0.25069 0.0
C40 C 0.5669 0.85438 0.21725 0.0
C41 C 0.54158 0.76561 0.3679 0.0
C42 C 0.55755 0.73183 0.39912 0.0
C43 C 0.56032 0.79001 0.28966 0.0
C44 C 0.59329 0.7783 0.23677 0.0
C45 C 0.60737 0.74345 0.25603 0.0
C46 C 0.59153 0.7232 0.34948 0.0
N47 N 0.5448 0.82398 0.25193 0.0
H48 H 0.26482 0.54096 0.11325 0.0
H49 H 0.29466 0.44525 0.30669 0.0
H50 H 0.19464 0.44848 0.11578 0.0
H51 H 0.32025 0.48534 0.4337 0.0
C52 C 0.33636 0.50071 0.37017 0.0
C53 C 0.25947 0.51346 0.13944 0.0
C54 C 0.22619 0.49618 0.10273 0.0
C55 C 0.28515 0.49502 0.21455 0.0
C56 C 0.27597 0.45998 0.25179 0.0
C57 C 0.24166 0.44486 0.22992 0.0
C58 C 0.21981 0.46112 0.1425 0.0
N59 N 0.31875 0.51149 0.25828 0.0
H60 H 1.01577 0.26308 0.08547 0.0
H61 H 0.10599 0.30536 0.29009 0.0
H62 H 0.10995 0.19764 0.14198 0.0
H63 H 0.05968 0.31937 0.4292 0.0
C64 C 0.0458 0.33652 0.3659 0.0
C65 C 0.04265 0.25997 0.12134 0.0
C66 C 0.06305 0.22731 0.09159 0.0
C67 C 0.05775 0.28838 0.19927 0.0
C68 C 0.09303 0.28344 0.23992 0.0
C69 C 0.10843 0.24888 0.24047 0.0
C70 C 0.09593 0.22305 0.15324 0.0
N71 N 0.0382 0.32045 0.24531 0.0
H72 H 0.27875 0.0387 0.92862 0.0
H73 H 0.2568 0.05505 0.3145 0.0
H74 H 0.36514 0.03815 0.19076 0.0
H75 H 0.21784 0.99203 0.20085 0.0
C76 C 0.20471 0.0181 0.19155 0.0
C77 C 0.28839 0.04218 0.02118 0.0
C78 C 0.32689 0.04036 0.04464 0.0
C79 C 0.26258 0.04642 0.12165 0.0
C80 C 0.27573 0.05139 0.23888 0.0
C81 C 0.31192 0.04712 0.26358 0.0
C82 C 0.33714 0.04234 0.16793 0.0
N83 N 0.22372 0.04308 0.11354 0.0
H84 H 0.51593 0.27955 0.99472 0.0
H85 H 0.44974 0.25471 0.30892 0.0
H86 H 0.43516 0.35458 0.12993 0.0
H87 H 0.51413 0.2345 0.35647 0.0
C88 C 0.50905 0.21401 0.28543 0.0
C89 C 0.49411 0.2866 0.05736 0.0
C90 C 0.47623 0.321 0.04823 0.0
C91 C 0.48371 0.26164 0.15035 0.0
C92 C 0.45669 0.27225 0.23473 0.0
C93 C 0.44032 0.30622 0.23126 0.0
C94 C 0.44834 0.32863 0.13296 0.0
N95 N 0.50078 0.22679 0.16529 0.0
Tb96 Tb 0.05974 1.01228 0.83169 0.0
C97 C 0.93341 1.00038 0.54086 0.0
C98 C 0.95466 0.95975 0.37992 0.0
C99 C 0.89408 0.95278 0.46171 0.0
C100 C 0.96074 0.98831 0.46564 0.0
C101 C 0.89907 0.98399 0.53581 0.0
C102 C 0.92192 0.94068 0.38337 0.0
C103 C 0.87641 0.03308 0.66434 0.0
N104 N 0.93968 0.03038 0.6108 0.0
C105 C 0.91104 0.04815 0.66632 0.0
C106 C 0.87057 1.00029 0.60131 0.0
Tb107 Tb 0.99939 0.04839 0.63091 0.0
N108 N 0.99253 1.0063 0.47074 0.0
C109 C 0.01817 0.99914 0.38199 0.0
C110 C 0.98141 0.95165 0.29278 0.0
C111 C 1.0131 0.97174 0.29301 0.0
H112 H 0.91519 0.07328 0.71752 0.0
H113 H 0.03372 0.96623 0.22431 0.0
H114 H 0.91746 0.91736 0.32323 0.0
H115 H 0.85434 0.04666 0.71214 0.0
H116 H 0.04275 1.01421 0.37608 0.0
H117 H 0.99655 0.06377 0.25315 0.0
H118 H 0.97741 0.93104 0.22219 0.0
H119 H 0.14775 0.02237 0.74213 0.0
H120 H 1.00764 0.01883 0.09198 0.0
H121 H 0.1963 0.06549 0.77781 0.0
H122 H 0.8683 0.93899 0.45959 0.0
H123 H 0.03923 0.11422 0.28498 0.0
H124 H 0.09813 0.1418 0.23409 0.0
H125 H 0.84375 0.98866 0.5995 0.0
H126 H 0.15262 0.14319 0.10313 0.0
N127 N 0.05211 0.04678 0.01084 0.0
C128 C 0.02491 0.04204 0.09478 0.0
C129 C 0.04366 0.09487 0.21061 0.0
C130 C 0.07408 0.09688 0.13548 0.0
C131 C 0.0193 0.06684 0.19163 0.0
C132 C 0.07763 0.0722 0.03517 0.0
H133 H 0.18945 0.11464 0.93389 0.0
N134 N 0.10999 0.04884 0.86567 0.0
C135 C 0.17112 0.06867 0.82786 0.0
C136 C 0.10754 0.0733 0.96015 0.0
C137 C 0.14262 0.04467 0.80578 0.0
C138 C 0.16726 0.09619 0.91636 0.0
C139 C 0.1356 0.09821 0.98606 0.0
O140 O 0.10459 0.97974 0.872 0.0
O141 O 0.01819 0.99602 0.69784 0.0
O142 O 0.96775 0.04025 0.80127 0.0
O143 O 1.00347 0.9983 0.89403 0.0
O144 O 0.06699 0.9704 0.68728 0.0
O145 O 0.05492 0.97434 0.96984 0.0
O146 O 0.96689 0.09149 0.57264 0.0
O147 O 0.04045 0.0644 0.76644 0.0
O148 O 0.09132 1.01717 0.66147 0.0
O149 O 0.05425 0.05123 0.54152 0.0
O150 O 0.99037 0.08796 0.78037 0.0
O151 O 0.01967 0.08313 0.49848 0.0
C152 C 0.0352 0.96976 0.64181 0.0
C153 C 0.08125 0.92096 0.88697 0.0
C154 C 0.03807 0.87405 0.82577 0.0
C155 C 0.04818 0.90345 0.902 0.0
C156 C 0.06309 0.86019 0.73926 0.0
C157 C 0.10628 0.90634 0.80161 0.0
C158 C 0.09722 0.876 0.72877 0.0
C159 C 0.9725 1.01658 0.88739 0.0
C160 C 0.08493 0.95842 0.93675 0.0
C161 C 0.1316 0.12362 0.08292 0.0
C162 C 0.10081 0.12287 0.15754 0.0
C163 C 0.02223 0.08931 0.82523 0.0
C164 C 1.00539 0.14266 0.56351 0.0
C165 C 0.04013 0.15528 0.53492 0.0
C166 C 0.05462 0.1867 0.59227 0.0
C167 C 0.03307 0.20522 0.68083 0.0
C168 C 0.98422 0.16255 0.64871 0.0
C169 C 0.99816 0.19343 0.70736 0.0
C170 C 0.08573 0.03522 0.5612 0.0
C171 C 0.99383 0.10638 0.51707 0.0
H172 H 0.02976 0.91363 0.97236 0.0
H173 H 0.0564 0.83714 0.68049 0.0
H174 H 0.132 0.91945 0.78656 0.0
H175 H 0.11633 0.86533 0.66162 0.0
H176 H 0.05564 0.14026 0.46688 0.0
H177 H 0.04276 0.22888 0.73054 0.0
H178 H 0.95743 0.15353 0.67373 0.0
H179 H 0.98199 0.20805 0.77528 0.0
Tb180 Tb 0.53655 0.05943 0.83158 0.0
C181 C 0.58861 0.95415 0.52006 0.0
C182 C 0.61013 0.98254 0.33712 0.0
C183 C 0.64316 0.93193 0.41536 0.0
C184 C 0.58442 0.97997 0.43332 0.0
C185 C 0.61791 0.92943 0.51062 0.0
C186 C 0.63934 0.95851 0.32907 0.0
C187 C 0.59416 0.89928 0.68427 0.0
N188 N 0.56386 0.95268 0.61214 0.0
C189 C 0.56541 0.92364 0.68829 0.0
C190 C 0.6209 0.90251 0.59618 0.0
Tb191 Tb 0.51657 0.9951 0.61029 0.0
N192 N 0.55542 1.00254 0.44266 0.0
C193 C 0.55021 0.02657 0.35101 0.0
C194 C 0.60599 1.00931 0.25166 0.0
C195 C 0.57602 0.03158 0.2595 0.0
H196 H 0.54362 0.91691 0.74867 0.0
H197 H 0.57195 0.05187 0.19197 0.0
H198 H 0.65878 0.95975 0.25491 0.0
H199 H 0.59492 0.87718 0.74692 0.0
H200 H 0.52601 0.04196 0.34264 0.0
H201 H 0.48084 0.99926 0.24396 0.0
H202 H 0.62524 1.01249 0.17769 0.0
H203 H 0.50685 0.13555 0.68787 0.0
H204 H 0.52661 1.0097 0.09357 0.0
H205 H 0.45593 0.17566 0.69498 0.0
H206 H 0.66566 0.91325 0.4072 0.0
H207 H 0.42904 0.04046 0.26663 0.0
H208 H 0.3973 0.09546 0.19905 0.0
H209 H 0.64296 0.88324 0.59203 0.0
H210 H 0.38986 0.14238 0.04852 0.0
N211 N 0.49792 0.0508 0.99893 0.0
C212 C 0.50274 0.02564 0.08729 0.0
C213 C 0.44804 0.04373 0.19195 0.0
C214 C 0.44442 0.07156 0.11011 0.0
C215 C 0.47711 0.02041 0.17921 0.0
C216 C 0.46952 0.07404 0.01201 0.0
H217 H 0.41036 0.17126 0.85884 0.0
N218 N 0.48865 0.10105 0.83067 0.0
C219 C 0.45748 0.15399 0.7591 0.0
C220 C 0.465 0.10013 0.92623 0.0
C221 C 0.48594 0.12931 0.75184 0.0
C222 C 0.43216 0.15173 0.85231 0.0
C223 C 0.43608 0.12521 0.93886 0.0
O224 O 0.55297 0.11356 0.83142 0.0
O225 O 0.5592 0.03242 0.66581 0.0
O226 O 0.51553 0.97127 0.79581 0.0
O227 O 0.55369 1.00766 0.9097 0.0
O228 O 0.59145 0.03594 0.81391 0.0
O229 O 0.56845 0.07997 0.97653 0.0
O230 O 0.49863 0.9415 0.61126 0.0
O231 O 0.49403 0.02216 0.77574 0.0
O232 O 0.53919 0.0829 0.64736 0.0
O233 O 0.50145 0.04756 0.52857 0.0
O234 O 0.4621 0.01965 0.62644 0.0
O235 O 0.48394 0.97528 0.46602 0.0
C236 C 0.59131 0.02518 0.70068 0.0
C237 C 0.61279 0.11742 0.885 0.0
C238 C 0.67039 0.08796 0.84688 0.0
C239 C 0.63919 0.09301 0.91827 0.0
C240 C 0.67811 0.11184 0.75307 0.0
C241 C 0.62076 0.14179 0.79189 0.0
C242 C 0.65359 0.13932 0.72783 0.0
C243 C 0.53784 0.9759 0.88926 0.0
C244 C 0.57508 0.10995 0.92028 0.0
C245 C 0.41195 0.12331 0.03762 0.0
C246 C 0.41612 0.09654 0.12304 0.0
C247 C 0.46221 0.03001 0.73992 0.0
C248 C 0.43875 0.93886 0.5579 0.0
C249 C 0.41272 0.96367 0.52455 0.0
C250 C 0.38107 0.96847 0.59384 0.0
C251 C 0.37286 0.94438 0.68658 0.0
C252 C 0.43025 0.9143 0.6499 0.0
C253 C 0.39718 0.91679 0.71247 0.0
C254 C 0.5184 0.07875 0.54996 0.0
C255 C 0.47662 0.94552 0.5225 0.0
H256 H 0.6339 0.07544 0.99399 0.0
H257 H 0.70259 0.10891 0.69886 0.0
H258 H 0.60076 0.16111 0.76353 0.0
H259 H 0.65922 0.15759 0.65462 0.0
H260 H 0.41846 0.98141 0.44968 0.0
H261 H 0.34808 0.94713 0.73924 0.0
H262 H 0.44996 0.89468 0.67828 0.0
H263 H 0.39112 0.89832 0.78474 0.0
Tb264 Tb 0.5537 0.51529 0.63817 0.0
C265 C 0.41373 0.51021 0.93025 0.0
C266 C 0.36807 0.53093 0.79244 0.0
C267 C 0.35174 0.48949 0.95167 0.0
C268 C 0.40435 0.52987 0.83048 0.0
C269 C 0.3873 0.49077 0.99463 0.0
C270 C 0.34211 0.50963 0.85077 0.0
C271 C 0.43143 0.48074 0.1499 0.0
N272 N 0.44827 0.51248 0.96995 0.0
C273 C 0.45698 0.49956 0.08172 0.0
C274 C 0.39687 0.47511 0.10417 0.0
Tb275 Tb 0.48769 0.54525 0.85426 0.0
N276 N 0.43018 0.55033 0.7773 0.0
C277 C 0.42044 0.57509 0.69261 0.0
C278 C 0.35864 0.55453 0.70063 0.0
C279 C 0.38482 0.5772 0.65231 0.0
H280 H 0.48351 0.50383 0.11897 0.0
H281 H 0.37768 0.59619 0.58316 0.0
H282 H 0.31426 0.50965 0.82158 0.0
H283 H 0.43792 0.47158 0.23968 0.0
H284 H 0.44001 0.59287 0.65287 0.0
H285 H 0.65635 0.45377 0.91455 0.0
H286 H 0.33111 0.55617 0.66895 0.0
H287 H 0.56622 0.56294 0.38548 0.0
H288 H 0.59646 0.45977 0.82689 0.0
H289 H 0.61299 0.60257 0.29961 0.0
H290 H 0.33121 0.47422 0.99875 0.0
H291 H 0.70496 0.49633 0.86069 0.0
H292 H 0.72604 0.54736 0.73152 0.0
H293 H 0.37724 0.46049 0.15757 0.0
H294 H 0.71399 0.58852 0.56405 0.0
N295 N 0.60942 0.50655 0.72482 0.0
C296 C 0.61682 0.47882 0.80106 0.0
C297 C 0.67846 0.49922 0.82122 0.0
C298 C 0.67168 0.52573 0.73608 0.0
C299 C 0.65113 0.47512 0.85151 0.0
C300 C 0.63663 0.52829 0.68757 0.0
H301 H 0.6717 0.60966 0.40308 0.0
N302 N 0.59711 0.54951 0.54125 0.0
C303 C 0.61809 0.58849 0.38286 0.0
C304 C 0.63009 0.55097 0.59315 0.0
C305 C 0.5917 0.56599 0.43185 0.0
C306 C 0.65116 0.59241 0.44149 0.0
C307 C 0.65802 0.57245 0.54521 0.0
O308 O 0.56635 0.49623 0.46117 0.0
O309 O 0.49625 0.52057 0.67452 0.0
O310 O 0.48213 0.48565 0.84746 0.0
O311 O 0.53807 0.47002 0.76265 0.0
O312 O 0.5121 0.52739 0.50011 0.0
O313 O 0.55852 0.45905 0.60609 0.0
O314 O 0.49948 0.57287 0.02085 0.0
O315 O 0.54594 0.54218 0.81471 0.0
O316 O 0.55234 0.57484 0.62685 0.0
O317 O 0.49908 0.59048 0.72815 0.0
O318 O 0.52943 0.52873 0.9849 0.0
O319 O 0.45983 0.59323 0.89905 0.0
C320 C 0.48386 0.52683 0.56884 0.0
C321 C 0.53456 0.44403 0.41205 0.0
C322 C 0.477 0.41322 0.38626 0.0
C323 C 0.5039 0.42747 0.46278 0.0
C324 C 0.48115 0.41619 0.25886 0.0
C325 C 0.53819 0.44616 0.28512 0.0
C326 C 0.51133 0.43277 0.20922 0.0
C327 C 0.50759 0.46121 0.82111 0.0
C328 C 0.56115 0.46278 0.48861 0.0
C329 C 0.69226 0.57201 0.59888 0.0
C330 C 0.69912 0.54857 0.69411 0.0
C331 C 0.55786 0.53255 0.91808 0.0
C332 C 0.49486 0.63646 1.00074 0.0
C333 C 0.53244 0.64199 0.9957 0.0
C334 C 0.54651 0.67734 0.99332 0.0
C335 C 0.52226 0.70684 0.99551 0.0
C336 C 0.47147 0.66627 1.00299 0.0
C337 C 0.48515 0.70124 0.99982 0.0
C338 C 0.5265 0.59845 0.65473 0.0
C339 C 0.47898 0.60009 0.99524 0.0
H340 H 0.50098 0.42529 0.56084 0.0
H341 H 0.46118 0.40555 0.19658 0.0
H342 H 0.56143 0.45913 0.24501 0.0
H343 H 0.51382 0.4355 0.11179 0.0
H344 H 0.55057 0.619 0.99299 0.0
H345 H 0.53183 0.73453 0.99817 0.0
H346 H 0.4425 0.66241 1.00585 0.0
H347 H 0.46693 0.72415 1.00205 0.0
Tb348 Tb 0.03426 0.55484 0.64406 0.0
C349 C 0.04125 0.42701 0.9694 0.0
C350 C 0.02483 0.37678 0.83519 0.0
C351 C 0.0665 0.36738 1.00126 0.0
C352 C 0.02345 0.41399 0.86762 0.0
C353 C 0.06216 0.40371 0.03985 0.0
C354 C 0.04754 0.3538 0.89966 0.0
C355 C 0.06781 0.45226 0.19065 0.0
N356 N 0.03553 0.46201 1.00491 0.0
C357 C 0.04621 0.47402 0.11867 0.0
C358 C 0.07659 0.4172 0.14965 0.0
Tb359 Tb 1.00367 0.49697 0.87259 0.0
N360 N 1.00189 0.43715 0.80804 0.0
C361 C 0.9776 0.42379 0.72468 0.0
C362 C 1.002 0.36354 0.74326 0.0
C363 C 0.97765 0.38702 0.68993 0.0
H364 H 0.03934 0.50084 0.1527 0.0
H365 H 0.95913 0.37691 0.62118 0.0
H366 H 0.04959 0.32528 0.87458 0.0
H367 H 0.07734 0.46246 0.27822 0.0
H368 H 0.95871 0.44158 0.68208 0.0
H369 H 0.07354 0.67668 0.8965 0.0
H370 H 1.00211 0.33513 0.71586 0.0
H371 H 1.00101 0.55049 0.36036 0.0
H372 H 0.07778 0.6123 0.83169 0.0
H373 H 0.96022 0.58661 0.23724 0.0
H374 H 0.08316 0.34924 0.05237 0.0
H375 H 0.02749 0.71609 0.80625 0.0
H376 H 0.97947 0.7238 0.64737 0.0
H377 H 0.09292 0.40024 0.20628 0.0
H378 H 0.94741 0.69861 0.46797 0.0
N379 N 0.03375 0.61469 0.70855 0.0
C380 C 0.05765 0.62917 0.79103 0.0
C381 C 0.02928 0.68785 0.77725 0.0
C382 C 1.00716 0.67368 0.6848 0.0
C383 C 0.05538 0.66573 0.82801 0.0
C384 C 1.01077 0.63677 0.65044 0.0
H385 H 0.93942 0.64679 0.31466 0.0
N386 N 1.00186 0.58876 0.51045 0.0
C387 C 0.96908 0.5971 0.32523 0.0
C388 C 0.99394 0.62319 0.54764 0.0
C389 C 0.9923 0.57664 0.39566 0.0
C390 C 0.95754 0.63108 0.36904 0.0
C391 C 0.97145 0.64531 0.47866 0.0
O392 O 0.06579 0.53722 0.49206 0.0
O393 O 0.03023 0.49808 0.69428 0.0
O394 O 0.0631 0.49652 0.8939 0.0
O395 O 0.07923 0.54606 0.77833 0.0
O396 O 0.01865 0.5104 0.51838 0.0
O397 O 0.08072 0.58424 0.59812 0.0
O398 O 0.97366 0.51427 0.02844 0.0
O399 O 1.00784 0.55378 0.82302 0.0
O400 O 0.97509 0.55466 0.61946 0.0
O401 O 0.95825 0.50645 0.73959 0.0
O402 O 0.02018 0.54114 0.99782 0.0
O403 O 0.95618 0.46915 0.91736 0.0
C404 C 0.02111 0.48376 0.59039 0.0
C405 C 0.12821 0.54771 0.52295 0.0
C406 C 0.17288 0.49883 0.52022 0.0
C407 C 0.13679 0.51056 0.51205 0.0
C408 C 0.19999 0.52511 0.54119 0.0
C409 C 0.15581 0.57303 0.54363 0.0
C410 C 0.19139 0.56171 0.55364 0.0
C411 C 0.08722 0.52088 0.85917 0.0
C412 C 0.09083 0.5609 0.5141 0.0
C413 C 0.96497 0.68122 0.51874 0.0
C414 C 0.98312 0.69553 0.62114 0.0
C415 C 0.0176 0.56795 0.92656 0.0
C416 C 0.91087 0.50736 0.99657 0.0
C417 C 0.9047 0.54499 1.00158 0.0
C418 C 0.86946 0.5588 0.99241 0.0
C419 C 0.84066 0.53413 0.9761 0.0
C420 C 0.88173 0.48359 0.98044 0.0
C421 C 0.84689 0.49697 0.96934 0.0
C422 C 0.95063 0.53105 0.6562 0.0
C423 C 0.94741 0.49211 1.00422 0.0
H424 H 0.11549 0.49095 0.49695 0.0
H425 H 0.22824 0.51782 0.54374 0.0
H426 H 0.14979 0.6017 0.55214 0.0
H427 H 0.21255 0.58147 0.56891 0.0
H428 H 0.92718 0.56342 0.01334 0.0
H429 H 0.81295 0.54324 0.97288 0.0
H430 H 0.88598 0.45457 0.97595 0.0
H431 H 0.8245 0.47844 0.95753 0.0
C432 C 0.16233 0.99654 0.35586 0.0
C433 C 0.17309 0.02518 0.28095 0.0
H434 H 0.12808 0.9773 0.49923 0.0
C435 C 0.15421 0.05821 0.29892 0.0
H436 H 0.17593 0.97062 0.34718 0.0
C437 C 0.12522 0.06181 0.38622 0.0
C438 C 0.11514 0.03291 0.46189 0.0
H439 H 0.16229 0.08129 0.24732 0.0
H440 H 0.11144 0.08752 0.39707 0.0
C441 C 0.13458 1.00038 0.44442 0.0
C442 C 0.5436 0.16783 0.39942 0.0
C443 C 0.51428 0.17523 0.32341 0.0
H444 H 0.56838 0.13225 0.52459 0.0
C445 C 0.48724 0.14836 0.31224 0.0
H446 H 0.56459 0.18791 0.41282 0.0
C447 C 0.48892 0.11605 0.38019 0.0
C448 C 0.51773 0.10967 0.46067 0.0
H449 H 0.46361 0.15341 0.25799 0.0
H450 H 0.46666 0.09718 0.37526 0.0
C451 C 0.54554 0.13575 0.46509 0.0
C452 C 0.39877 0.53362 0.36441 0.0
C453 C 0.37523 0.50749 0.41213 0.0
H454 H 0.45097 0.55977 0.37505 0.0
C455 C 0.38855 0.4872 0.5101 0.0
H456 H 0.39014 0.54978 0.2892 0.0
C457 C 0.42322 0.49312 0.56035 0.0
C458 C 0.44632 0.51999 0.51592 0.0
H459 H 0.37174 0.46658 0.54975 0.0
H460 H 0.43183 0.47672 0.63505 0.0
C461 C 0.43381 0.53938 0.41441 0.0
C462 C 1.01399 0.39949 0.37081 0.0
C463 C 0.03977 0.37533 0.41526 0.0
H464 H 0.98798 0.45165 0.39169 0.0
C465 C 0.05985 0.38766 0.51831 0.0
H466 H 0.99796 0.39161 0.29233 0.0
C467 C 0.05425 0.42218 0.57567 0.0
C468 C 0.02759 0.44582 0.53435 0.0
H469 H 0.08014 0.37021 0.55594 0.0
H470 H 0.0707 0.43022 0.65301 0.0
C471 C 1.00818 0.43403 0.42899 0.0
C472 C 0.89126 0.0331 0.11328 0.0
C473 C 0.88412 0.9981 0.1561 0.0
H474 H 0.92347 0.06624 0.99364 0.0
C475 C 0.90646 0.96989 0.1082 0.0
H476 H 0.87456 0.05562 0.14446 0.0
C477 C 0.93529 0.97614 0.02604 0.0
C478 C 0.94204 1.01061 0.98033 0.0
H479 H 0.90147 0.94229 0.13384 0.0
H480 H 0.95183 0.95353 0.99563 0.0
C481 C 0.91931 0.03909 0.02546 0.0
C482 C 0.52361 0.88861 0.0745 0.0
C483 C 0.5566 0.88561 0.1366 0.0
H484 H 0.49176 0.91893 0.94811 0.0
C485 C 0.58247 0.91299 0.11744 0.0
H486 H 0.50302 0.86815 0.08511 0.0
C487 C 0.57593 0.94229 0.04103 0.0
C488 C 0.54336 0.94529 0.97752 0.0
H489 H 0.60853 0.91136 0.16041 0.0
H490 H 0.59706 0.9621 0.02856 0.0
C491 C 0.51722 0.91785 0.99555 0.0
C492 C 0.64914 0.57688 1.00805 0.0
C493 C 0.66166 0.55559 0.10485 0.0
H494 H 0.60833 0.5866 0.87305 0.0
C495 C 0.63992 0.52592 0.13613 0.0
H496 H 0.66439 0.60046 0.982 0.0
C497 C 0.60689 0.51852 0.07441 0.0
C498 C 0.59471 0.53964 0.97658 0.0
H499 H 0.64754 0.50936 0.21161 0.0
H500 H 0.59066 0.49599 0.10326 0.0
C501 C 0.61669 0.569 0.94487 0.0
C502 C 0.02465 0.65121 0.14992 0.0
C503 C 0.99357 0.67158 0.12559 0.0
H504 H 0.05588 0.60297 0.10794 0.0
C505 C 0.97163 0.65843 0.02819 0.0
H506 H 0.04188 0.65941 0.22506 0.0
C507 C 0.97995 0.62635 0.9589 0.0
C508 C 1.01046 0.60544 0.98517 0.0
H509 H 0.94709 0.67276 1.00689 0.0
H510 H 0.9617 0.61722 0.8878 0.0
C511 C 0.03252 0.61854 0.08245 0.0
C512 C 0.11611 0.25667 0.46604 0.0
C513 C 0.12505 0.23672 0.3579 0.0
H514 H 0.08242 0.25716 0.62353 0.0
C515 C 0.13098 0.19955 0.37297 0.0
H516 H 0.1173 0.28589 0.47051 0.0
C517 C 0.11249 0.18211 0.46659 0.0
C518 C 0.08942 0.20237 0.54613 0.0
H519 H 0.14415 0.18324 0.30207 0.0
H520 H 0.11308 0.15287 0.46671 0.0
C521 C 0.09597 0.23986 0.55644 0.0
C522 C 0.35454 0.05085 0.43606 0.0
C523 C 0.32197 0.03827 0.38836 0.0
H524 H 0.39937 0.03791 0.54443 0.0
C525 C 0.30359 1.00989 0.44536 0.0
H526 H 0.36867 0.0732 0.39528 0.0
C527 C 0.32103 0.98974 0.53221 0.0
C528 C 0.35678 0.99797 0.56109 0.0
H529 H 0.27801 0.99995 0.411 0.0
H530 H 0.30864 0.96489 0.56166 0.0
C531 C 0.37186 0.03077 0.52279 0.0
C532 C 0.40219 0.35363 0.33344 0.0
C533 C 0.42463 0.3232 0.34542 0.0
H534 H 0.40363 0.41159 0.33775 0.0
C535 C 0.448 0.3239 0.4461 0.0
H536 H 0.38114 0.35316 0.26543 0.0
C537 C 0.46095 0.35737 0.48894 0.0
C538 C 0.44877 0.38885 0.43362 0.0
H539 H 0.46317 0.30003 0.46901 0.0
H540 H 0.48531 0.35774 0.54291 0.0
C541 C 0.41521 0.38735 0.37462 0.0
C542 C 0.23738 0.42555 0.44374 0.0
C543 C 0.22426 0.42094 0.32387 0.0
H544 H 0.23049 0.45844 0.60687 0.0
C545 C 0.18637 0.4176 0.31861 0.0
H546 H 0.26543 0.4206 0.46396 0.0
C547 C 0.16595 0.44105 0.39482 0.0
C548 C 0.18355 0.46068 0.48929 0.0
H549 H 0.17367 0.40606 0.23779 0.0
H550 H 0.13862 0.44715 0.36867 0.0
C551 C 0.21742 0.4476 0.52568 0.0
C552 C 0.9846 0.80368 0.96264 0.0
C553 C 0.9643 0.82663 0.04342 0.0
H554 H 0.02479 0.80139 0.82311 0.0
C555 C 0.95611 0.86158 1.00548 0.0
H556 H 0.99068 0.77592 0.98351 0.0
C557 C 0.97488 0.87556 0.90617 0.0
C558 C 1.00354 0.85556 0.85224 0.0
H559 H 0.93902 0.87944 0.06085 0.0
H560 H 0.97177 0.9039 0.88689 0.0
C561 C 1.00439 0.81823 0.86775 0.0
C562 C 0.748 0.0455 0.99079 0.0
C563 C 0.72949 1.01726 0.0482 0.0
H564 H 0.743 0.09072 0.87536 0.0
C565 C 0.69664 1.00509 1.00194 0.0
H566 H 0.7738 0.0551 0.02423 0.0
C567 C 0.67925 0.02547 0.91635 0.0
C568 C 0.69453 0.05817 0.87778 0.0
H569 H 0.6824 0.98288 0.04325 0.0
H570 H 0.65164 0.01859 0.89595 0.0
C571 C 0.73047 0.06597 0.90502 0.0
C572 C 0.63102 0.68594 0.16294 0.0
C573 C 0.62968 0.72405 0.15726 0.0
H574 H 0.5979 0.63961 0.12298 0.0
C575 C 0.62467 0.73631 0.03792 0.0
H576 H 0.64282 0.67322 0.24094 0.0
C577 C 0.60026 0.71719 0.96363 0.0
C578 C 0.58578 0.68451 1.00564 0.0
H579 H 0.63121 0.76382 0.01491 0.0
H580 H 0.5886 0.73048 0.88647 0.0
C581 C 0.60557 0.6663 0.09416 0.0
C582 C 0.85856 0.63915 0.19385 0.0
C583 C 0.8207 0.63694 0.18433 0.0
H584 H 0.90574 0.60858 0.14437 0.0
C585 C 0.80881 0.63472 0.06238 0.0
H586 H 0.87081 0.64947 0.27719 0.0
C587 C 0.82857 0.61258 0.98015 0.0
C588 C 0.86138 0.59772 0.01915 0.0
H589 H 0.78138 0.64156 0.03929 0.0
H590 H 0.81579 0.60273 0.89705 0.0
C591 C 0.87892 0.61598 0.11659 0.0
C592 C 0.01747 0.17686 0.0311 0.0
C593 C 0.05059 0.19461 0.01124 0.0
H594 H 0.98359 0.13053 0.99211 0.0
C595 C 0.07473 0.1769 0.9269 0.0
H596 H 0.99818 0.18851 0.0959 0.0
C597 C 0.06642 0.14313 0.86703 0.0
C598 C 0.03394 0.1247 0.8913 0.0
H599 H 0.10066 0.18911 0.90799 0.0
H600 H 0.08556 0.13147 0.80173 0.0
C601 C 1.00937 0.14295 0.97234 0.0
C602 C 0.36582 0.05854 0.85695 0.0
C603 C 0.35808 0.03422 0.95086 0.0
H604 H 0.40403 0.07715 0.72191 0.0
C605 C 0.38522 1.00785 0.97144 0.0
H606 H 0.34682 0.0799 0.83862 0.0
C607 C 0.41851 1.00659 0.90539 0.0
C608 C 0.42675 0.03172 0.81486 0.0
H609 H 0.38117 0.98855 0.04275 0.0
H610 H 0.43808 0.98597 0.92639 0.0
C611 C 0.3992 0.05716 0.79045 0.0
C612 C 0.52215 0.36472 0.94817 0.0
C613 C 0.48641 0.352 0.96314 0.0
H614 H 0.55717 0.4081 0.89068 0.0
C615 C 0.45884 0.37417 0.91618 0.0
H616 H 0.54436 0.34927 0.98338 0.0
C617 C 0.46599 0.40861 0.86896 0.0
C618 C 0.50132 0.42232 0.86039 0.0
H619 H 0.43093 0.36571 0.92228 0.0
H620 H 0.44342 0.42493 0.8409 0.0
C621 C 0.52949 0.39895 0.89579 0.0
C622 C 0.19108 0.51518 0.91214 0.0
C623 C 0.19375 0.51344 0.04061 0.0
H624 H 0.15629 0.5196 0.75598 0.0
C625 C 0.16094 0.51731 0.10738 0.0
H626 H 0.21498 0.511 0.85583 0.0
C627 C 0.12717 0.52087 0.04909 0.0
C628 C 0.12425 0.52107 0.92075 0.0
H629 H 0.16113 0.51514 0.20586 0.0
H630 H 0.10309 0.52287 0.10534 0.0
C631 C 0.1571 0.51953 0.85399 0.0
C632 C 0.03809 0.88141 0.43948 0.0
C633 C 1.00441 0.86445 0.45708 0.0
H634 H 0.07321 0.92658 0.48023 0.0
C635 C 0.9799 0.8834 0.5369 0.0
H636 H 0.05752 0.86907 0.37664 0.0
C637 C 0.98882 0.91726 0.59664 0.0
C638 C 0.02227 0.93457 0.57573 0.0
H639 H 0.95318 0.87238 0.55105 0.0
H640 H 0.96924 0.93007 0.65783 0.0
C641 C 0.04683 0.91517 0.49792 0.0
C642 C 0.66768 0.04859 0.46726 0.0
C643 C 0.69533 0.02267 0.48716 0.0
H644 H 0.6145 0.0696 0.51328 0.0
C645 C 0.68811 0.9983 0.58148 0.0
H646 H 0.67123 0.0679 0.39567 0.0
C647 C 0.65479 0.99914 0.64863 0.0
C648 C 0.62673 0.02409 0.6248 0.0
H649 H 0.70745 0.97721 0.5994 0.0
H650 H 0.65044 0.97906 0.71723 0.0
C651 C 0.63445 0.04933 0.53404 0.0
C652 C 0.53759 0.70072 0.59526 0.0
C653 C 0.53917 0.70136 0.46646 0.0
H654 H 0.5315 0.66833 0.75497 0.0
C655 C 0.53282 0.66823 0.40226 0.0
H656 H 0.54339 0.72511 0.64871 0.0
C657 C 0.52725 0.6356 0.46359 0.0
C658 C 0.52747 0.63454 0.59198 0.0
H659 H 0.53459 0.66713 0.30336 0.0
H660 H 0.52366 0.61085 0.4098 0.0
C661 C 0.53131 0.66791 0.65672 0.0
C662 C 0.84724 0.54122 0.59815 0.0
C663 C 0.84513 0.54189 0.46918 0.0
H664 H 0.88113 0.53645 0.75666 0.0
C665 C 0.87796 0.53556 0.40449 0.0
H666 H 0.82342 0.54733 0.65294 0.0
C667 C 0.91124 0.53056 0.46486 0.0
C668 C 0.91369 0.53136 0.59349 0.0
H669 H 0.87833 0.5369 0.30575 0.0
H670 H 0.93542 0.52685 0.40989 0.0
C671 C 0.88071 0.53548 0.65852 0.0
loop_
_geom_bond_atom_site_label_1
_geom_bond_atom_site_label_2
_geom_bond_distance
_geom_bond_site_symmetry_2
_ccdc_geom_bond_type
H0 C5 0.930 . S
H1 C8 0.930 . S
H2 C10 0.930 . S
H3 C4 1.016 . S
C4 H3 1.016 . S
C4 N11 1.286 . S
C5 H0 0.930 . S
C5 C6 1.397 . S
C5 C7 1.361 . S
C6 C5 1.397 . S
C6 C10 1.390 . S
C7 C5 1.361 . S
C7 C8 1.393 . S
C7 N11 1.413 . S
C8 H1 0.930 . S
C8 C7 1.393 . S
C8 C9 1.399 . S
C9 C8 1.399 . S
C9 C10 1.381 . S
C10 H2 0.930 . S
C10 C6 1.390 . S
C10 C9 1.381 . S
N11 C4 1.286 . S
N11 C7 1.413 . S
H12 C17 0.930 . S
H13 C20 0.930 . S
H14 C22 0.930 . S
H15 C16 1.016 . S
C16 H15 1.016 . S
C16 N23 1.286 . S
C17 H12 0.930 . S
C17 C18 1.397 . S
C17 C19 1.361 . S
C18 C17 1.397 . S
C18 C22 1.390 . S
C19 C17 1.361 . S
C19 C20 1.393 . S
C19 N23 1.413 . S
C20 H13 0.930 . S
C20 C19 1.393 . S
C20 C21 1.399 . S
C21 C20 1.399 . S
C21 C22 1.381 . S
C22 H14 0.930 . S
C22 C18 1.390 . S
C22 C21 1.381 . S
N23 C16 1.286 . S
N23 C19 1.413 . S
H24 C29 0.930 . S
H25 C32 0.930 . S
H26 C34 0.930 . S
H27 C28 1.016 . S
C28 H27 1.016 . S
C28 N35 1.286 . S
C29 H24 0.930 . S
C29 C30 1.397 . S
C29 C31 1.361 . S
C30 C29 1.397 . S
C30 C34 1.390 . S
C31 C29 1.361 . S
C31 C32 1.393 . S
C31 N35 1.413 . S
C32 H25 0.930 . S
C32 C31 1.393 . S
C32 C33 1.399 . S
C33 C32 1.399 . S
C33 C34 1.381 . S
C34 H26 0.930 . S
C34 C30 1.390 . S
C34 C33 1.381 . S
N35 C28 1.286 . S
N35 C31 1.413 . S
H36 C41 0.930 . S
H37 C44 0.930 . S
H38 C46 0.930 . S
H39 C40 1.016 . S
C40 H39 1.016 . S
C40 N47 1.286 . S
C41 H36 0.930 . S
C41 C42 1.397 . S
C41 C43 1.361 . S
C42 C41 1.397 . S
C42 C46 1.390 . S
C43 C41 1.361 . S
C43 C44 1.393 . S
C43 N47 1.413 . S
C44 H37 0.930 . S
C44 C43 1.393 . S
C44 C45 1.399 . S
C45 C44 1.399 . S
C45 C46 1.381 . S
C46 H38 0.930 . S
C46 C42 1.390 . S
C46 C45 1.381 . S
N47 C40 1.286 . S
N47 C43 1.413 . S
H48 C53 0.930 . S
H49 C56 0.930 . S
H50 C58 0.930 . S
H51 C52 1.016 . S
C52 H51 1.016 . S
C52 N59 1.286 . S
C53 H48 0.930 . S
C53 C54 1.397 . S
C53 C55 1.361 1_556 S
C54 C53 1.397 . S
C54 C58 1.390 . S
C55 C53 1.361 1_554 S
C55 C56 1.393 . S
C55 N59 1.413 . S
C56 H49 0.930 . S
C56 C55 1.393 . S
C56 C57 1.399 . S
C57 C56 1.399 . S
C57 C58 1.381 1_554 S
C58 H50 0.930 . S
C58 C54 1.390 . S
C58 C57 1.381 1_556 S
N59 C52 1.286 . S
N59 C55 1.413 . S
H60 C65 0.930 . S
H61 C68 0.930 . S
H62 C70 0.930 . S
H63 C64 1.016 . S
C64 H63 1.016 . S
C64 N71 1.286 . S
C65 H60 0.930 . S
C65 C66 1.397 . S
C65 C67 1.361 1_556 S
C66 C65 1.397 . S
C66 C70 1.390 . S
C67 C65 1.361 1_554 S
C67 C68 1.393 . S
C67 N71 1.413 . S
C68 H61 0.930 . S
C68 C67 1.393 . S
C68 C69 1.399 . S
C69 C68 1.399 . S
C69 C70 1.381 1_554 S
C70 H62 0.930 . S
C70 C66 1.390 . S
C70 C69 1.381 1_556 S
N71 C64 1.286 . S
N71 C67 1.413 . S
H72 C77 0.930 . S
H73 C80 0.930 . S
H74 C82 0.930 . S
H75 C76 1.016 . S
C76 H75 1.016 . S
C76 N83 1.286 . S
C77 H72 0.930 . S
C77 C78 1.397 . S
C77 C79 1.361 1_556 S
C78 C77 1.397 . S
C78 C82 1.390 . S
C79 C77 1.361 1_554 S
C79 C80 1.393 . S
C79 N83 1.413 . S
C80 H73 0.930 . S
C80 C79 1.393 . S
C80 C81 1.399 . S
C81 C80 1.399 . S
C81 C82 1.381 1_554 S
C82 H74 0.930 . S
C82 C78 1.390 . S
C82 C81 1.381 1_556 S
N83 C76 1.286 . S
N83 C79 1.413 . S
H84 C89 0.930 . S
H85 C92 0.930 . S
H86 C94 0.930 . S
H87 C88 1.016 . S
C88 H87 1.016 . S
C88 N95 1.286 . S
C89 H84 0.930 . S
C89 C90 1.397 . S
C89 C91 1.361 1_556 S
C90 C89 1.397 . S
C90 C94 1.390 . S
C91 C89 1.361 1_554 S
C91 C92 1.393 . S
C91 N95 1.413 . S
C92 H85 0.930 . S
C92 C91 1.393 . S
C92 C93 1.399 . S
C93 C92 1.399 . S
C93 C94 1.381 1_554 S
C94 H86 0.930 . S
C94 C90 1.390 . S
C94 C93 1.381 1_556 S
N95 C88 1.286 . S
N95 C91 1.413 . S
Tb96 N127 2.660 1_566 S
Tb96 N134 2.600 1_565 S
Tb96 O140 2.546 . S
Tb96 O141 2.610 1_455 S
Tb96 O143 2.320 1_455 S
Tb96 O144 2.552 . S
Tb96 O145 2.413 1_556 S
Tb96 O147 2.362 1_565 S
Tb96 O148 2.421 . S
Tb96 C160 2.833 . S
C97 C100 1.432 . S
C97 C101 1.414 . S
C97 N104 1.359 1_565 S
C98 C100 1.417 . S
C98 C102 1.432 . S
C98 C110 1.410 . S
C99 C101 1.444 . S
C99 C102 1.317 . S
C99 H122 0.929 . S
C100 C97 1.432 . S
C100 C98 1.417 . S
C100 N108 1.360 . S
C101 C97 1.414 . S
C101 C99 1.444 . S
C101 C106 1.385 1_565 S
C102 C98 1.432 . S
C102 C99 1.317 . S
C102 H114 0.930 . S
C103 C105 1.392 . S
C103 C106 1.370 . S
C103 H115 0.931 . S
N104 C97 1.359 1_545 S
N104 C105 1.327 . S
N104 Tb107 2.600 . S
C105 C103 1.392 . S
C105 N104 1.327 . S
C105 H112 0.930 . S
C106 C101 1.385 1_545 S
C106 C103 1.370 . S
C106 H125 0.930 . S
Tb107 N104 2.600 . S
Tb107 N108 2.660 1_545 S
Tb107 O141 2.362 1_545 S
Tb107 O142 2.421 . S
Tb107 O146 2.546 . S
Tb107 O147 2.610 1_655 S
Tb107 O149 2.320 1_655 S
Tb107 O150 2.552 1_655 S
Tb107 O151 2.413 . S
Tb107 C171 2.833 . S
N108 C100 1.360 . S
N108 Tb107 2.660 1_565 S
N108 C109 1.305 1_655 S
C109 N108 1.305 1_455 S
C109 C111 1.407 . S
C109 H116 0.930 . S
C110 C98 1.410 . S
C110 C111 1.345 1_655 S
C110 H118 0.930 . S
C111 C109 1.407 . S
C111 C110 1.345 1_455 S
C111 H113 0.930 . S
H112 C105 0.930 . S
H113 C111 0.930 . S
H114 C102 0.930 . S
H115 C103 0.931 . S
H116 C109 0.930 . S
H117 C131 0.930 1_655 S
H118 C110 0.930 . S
H119 C137 0.930 . S
H120 C128 0.930 1_655 S
H121 C135 0.931 . S
H122 C99 0.929 . S
H123 C129 0.930 . S
H124 C162 0.930 . S
H125 C106 0.930 . S
H126 C161 0.929 . S
N127 Tb96 2.660 1_544 S
N127 C128 1.305 . S
N127 C132 1.360 . S
C128 H120 0.930 1_455 S
C128 N127 1.305 . S
C128 C131 1.407 . S
C129 H123 0.930 . S
C129 C130 1.410 . S
C129 C131 1.345 . S
C130 C129 1.410 . S
C130 C132 1.417 . S
C130 C162 1.432 . S
C131 H117 0.930 1_455 S
C131 C128 1.407 . S
C131 C129 1.345 . S
C132 N127 1.360 . S
C132 C130 1.417 . S
C132 C136 1.432 . S
H133 C138 0.930 . S
N134 Tb96 2.600 1_545 S
N134 C136 1.359 1_556 S
N134 C137 1.327 1_545 S
C135 H121 0.931 . S
C135 C137 1.392 . S
C135 C138 1.370 1_566 S
C136 C132 1.432 . S
C136 N134 1.359 1_554 S
C136 C139 1.414 . S
C137 H119 0.930 . S
C137 N134 1.327 1_565 S
C137 C135 1.392 . S
C138 H133 0.930 . S
C138 C135 1.370 1_544 S
C138 C139 1.385 . S
C139 C136 1.414 . S
C139 C138 1.385 . S
C139 C161 1.444 . S
O140 Tb96 2.546 . S
O140 C160 1.251 . S
O141 Tb96 2.610 1_655 S
O141 Tb107 2.362 1_565 S
O141 C152 1.283 . S
O142 Tb107 2.421 . S
O142 C159 1.262 . S
O143 Tb96 2.320 1_655 S
O143 C159 1.260 1_565 S
O144 Tb96 2.552 . S
O144 C152 1.243 1_455 S
O145 Tb96 2.413 1_554 S
O145 C160 1.256 1_554 S
O146 Tb107 2.546 . S
O146 C171 1.251 . S
O147 Tb96 2.362 1_545 S
O147 Tb107 2.610 1_455 S
O147 C163 1.283 . S
O148 Tb96 2.421 . S
O148 C170 1.262 1_565 S
O149 Tb107 2.320 1_455 S
O149 C170 1.260 . S
O150 Tb107 2.552 1_455 S
O150 C163 1.243 . S
O151 Tb107 2.413 . S
O151 C171 1.256 . S
C152 O141 1.283 . S
C152 O144 1.243 1_655 S
C153 C155 1.382 . S
C153 C157 1.393 . S
C153 C160 1.500 1_554 S
C154 C155 1.400 . S
C154 C156 1.384 . S
C155 C153 1.382 . S
C155 C154 1.400 . S
C155 H172 0.930 . S
C156 C154 1.384 . S
C156 C158 1.392 . S
C156 H173 0.931 . S
C157 C153 1.393 . S
C157 C158 1.401 . S
C157 H174 0.930 . S
C158 C156 1.392 . S
C158 C157 1.401 . S
C158 H175 0.930 . S
C159 O142 1.262 . S
C159 O143 1.260 1_545 S
C160 Tb96 2.833 . S
C160 O140 1.251 . S
C160 O145 1.256 1_556 S
C160 C153 1.500 1_556 S
C161 H126 0.929 . S
C161 C139 1.444 . S
C161 C162 1.317 . S
C162 H124 0.930 . S
C162 C130 1.432 . S
C162 C161 1.317 . S
C163 O147 1.283 . S
C163 O150 1.243 . S
C164 C165 1.382 . S
C164 C168 1.393 . S
C164 C171 1.500 . S
C165 C164 1.382 . S
C165 C166 1.400 . S
C165 H176 0.930 1_655 S
C166 C165 1.400 . S
C166 C167 1.384 . S
C167 C166 1.384 . S
C167 C169 1.392 . S
C167 H177 0.931 . S
C168 C164 1.393 . S
C168 C169 1.401 . S
C168 H178 0.930 . S
C169 C167 1.392 . S
C169 C168 1.401 . S
C169 H179 0.930 . S
C170 O148 1.262 1_545 S
C170 O149 1.260 . S
C171 Tb107 2.833 . S
C171 O146 1.251 . S
C171 O151 1.256 . S
C171 C164 1.500 . S
H172 C155 0.930 . S
H173 C156 0.931 . S
H174 C157 0.930 . S
H175 C158 0.930 . S
H176 C165 0.930 1_455 S
H177 C167 0.931 . S
H178 C168 0.930 . S
H179 C169 0.930 . S
Tb180 N211 2.660 1_556 S
Tb180 N218 2.600 . S
Tb180 O224 2.546 . S
Tb180 O225 2.610 1_545 S
Tb180 O227 2.320 1_545 S
Tb180 O228 2.552 . S
Tb180 O229 2.413 1_556 S
Tb180 O231 2.362 . S
Tb180 O232 2.421 . S
Tb180 C244 2.837 . S
C181 C184 1.432 . S
C181 C185 1.414 . S
C181 N188 1.359 . S
C182 C184 1.417 . S
C182 C186 1.432 . S
C182 C194 1.410 . S
C183 C185 1.444 . S
C183 C186 1.317 . S
C183 H206 0.929 . S
C184 C181 1.432 . S
C184 C182 1.417 . S
C184 N192 1.360 . S
C185 C181 1.414 . S
C185 C183 1.444 . S
C185 C190 1.385 . S
C186 C182 1.432 . S
C186 C183 1.317 . S
C186 H198 0.930 . S
C187 C189 1.392 . S
C187 C190 1.370 . S
C187 H199 0.931 . S
N188 C181 1.359 . S
N188 C189 1.327 . S
N188 Tb191 2.600 . S
C189 C187 1.392 . S
C189 N188 1.327 . S
C189 H196 0.930 . S
C190 C185 1.385 . S
C190 C187 1.370 . S
C190 H209 0.930 . S
Tb191 N188 2.600 . S
Tb191 N192 2.660 . S
Tb191 O225 2.362 . S
Tb191 O226 2.421 . S
Tb191 O230 2.546 . S
Tb191 O231 2.610 1_565 S
Tb191 O233 2.320 1_565 S
Tb191 O234 2.552 1_565 S
Tb191 O235 2.413 . S
Tb191 C255 2.833 . S
N192 C184 1.360 . S
N192 Tb191 2.660 . S
N192 C193 1.305 1_565 S
C193 N192 1.305 1_545 S
C193 C195 1.407 . S
C193 H200 0.930 . S
C194 C182 1.410 . S
C194 C195 1.345 1_565 S
C194 H202 0.930 . S
C195 C193 1.407 . S
C195 C194 1.345 1_545 S
C195 H197 0.930 . S
H196 C189 0.930 . S
H197 C195 0.930 . S
H198 C186 0.930 . S
H199 C187 0.931 . S
H200 C193 0.930 . S
H201 C215 0.930 1_565 S
H202 C194 0.930 . S
H203 C221 0.930 . S
H204 C212 0.930 1_565 S
H205 C219 0.931 . S
H206 C183 0.929 . S
H207 C213 0.930 . S
H208 C246 0.930 . S
H209 C190 0.930 . S
H210 C245 0.929 . S
N211 Tb180 2.660 1_554 S
N211 C212 1.305 . S
N211 C216 1.360 . S
C212 H204 0.930 1_545 S
C212 N211 1.305 . S
C212 C215 1.407 . S
C213 H207 0.930 . S
C213 C214 1.410 . S
C213 C215 1.345 . S
C214 C213 1.410 . S
C214 C216 1.417 . S
C214 C246 1.432 . S
C215 H201 0.930 1_545 S
C215 C212 1.407 . S
C215 C213 1.345 . S
C216 N211 1.360 . S
C216 C214 1.417 . S
C216 C220 1.432 . S
H217 C222 0.930 . S
N218 Tb180 2.600 . S
N218 C220 1.359 1_556 S
N218 C221 1.327 . S
C219 H205 0.931 . S
C219 C221 1.392 . S
C219 C222 1.370 1_556 S
C220 C216 1.432 . S
C220 N218 1.359 1_554 S
C220 C223 1.414 . S
C221 H203 0.930 . S
C221 N218 1.327 . S
C221 C219 1.392 . S
C222 H217 0.930 . S
C222 C219 1.370 1_554 S
C222 C223 1.385 . S
C223 C220 1.414 . S
C223 C222 1.385 . S
C223 C245 1.444 . S
O224 Tb180 2.546 . S
O224 C244 1.255 . S
O225 Tb180 2.610 1_565 S
O225 Tb191 2.362 . S
O225 C236 1.283 . S
O226 Tb191 2.421 . S
O226 C243 1.262 . S
O227 Tb180 2.320 1_565 S
O227 C243 1.260 . S
O228 Tb180 2.552 . S
O228 C236 1.243 1_545 S
O229 Tb180 2.413 1_554 S
O229 C244 1.255 1_554 S
O230 Tb191 2.546 . S
O230 C255 1.251 . S
O231 Tb180 2.362 . S
O231 Tb191 2.610 1_545 S
O231 C247 1.283 . S
O232 Tb180 2.421 . S
O232 C254 1.262 . S
O233 Tb191 2.320 1_545 S
O233 C254 1.260 . S
O234 Tb191 2.552 1_545 S
O234 C247 1.243 . S
O235 Tb191 2.413 . S
O235 C255 1.256 . S
C236 O225 1.283 . S
C236 O228 1.243 1_565 S
C237 C239 1.382 . S
C237 C241 1.393 . S
C237 C244 1.496 1_554 S
C238 C239 1.400 . S
C238 C240 1.384 . S
C239 C237 1.382 . S
C239 C238 1.400 . S
C239 H256 0.930 . S
C240 C238 1.384 . S
C240 C242 1.392 . S
C240 H257 0.931 . S
C241 C237 1.393 . S
C241 C242 1.401 . S
C241 H258 0.930 . S
C242 C240 1.392 . S
C242 C241 1.401 . S
C242 H259 0.930 . S
C243 O226 1.262 . S
C243 O227 1.260 . S
C244 Tb180 2.837 . S
C244 O224 1.255 . S
C244 O229 1.255 1_556 S
C244 C237 1.496 1_556 S
C245 H210 0.929 . S
C245 C223 1.444 . S
C245 C246 1.317 . S
C246 H208 0.930 . S
C246 C214 1.432 . S
C246 C245 1.317 . S
C247 O231 1.283 . S
C247 O234 1.243 . S
C248 C249 1.382 . S
C248 C252 1.393 . S
C248 C255 1.500 . S
C249 C248 1.382 . S
C249 C250 1.400 . S
C249 H260 0.930 1_565 S
C250 C249 1.400 . S
C250 C251 1.384 . S
C251 C250 1.384 . S
C251 C253 1.392 . S
C251 H261 0.931 . S
C252 C248 1.393 . S
C252 C253 1.401 . S
C252 H262 0.930 . S
C253 C251 1.392 . S
C253 C252 1.401 . S
C253 H263 0.930 . S
C254 O232 1.262 . S
C254 O233 1.260 . S
C255 Tb191 2.833 . S
C255 O230 1.251 . S
C255 O235 1.256 . S
C255 C248 1.500 . S
H256 C239 0.930 . S
H257 C240 0.931 . S
H258 C241 0.930 . S
H259 C242 0.930 . S
H260 C249 0.930 1_545 S
H261 C251 0.931 . S
H262 C252 0.930 . S
H263 C253 0.930 . S
Tb264 N295 2.660 . S
Tb264 N302 2.600 . S
Tb264 O308 2.546 . S
Tb264 O309 2.610 . S
Tb264 O311 2.320 . S
Tb264 O312 2.552 . S
Tb264 O313 2.413 . S
Tb264 O315 2.362 . S
Tb264 O316 2.421 . S
Tb264 C328 2.833 . S
C265 C268 1.432 . S
C265 C269 1.414 . S
C265 N272 1.359 . S
C266 C268 1.417 . S
C266 C270 1.432 . S
C266 C278 1.410 . S
C267 C269 1.444 . S
C267 C270 1.317 . S
C267 H290 0.929 . S
C268 C265 1.432 . S
C268 C266 1.417 . S
C268 N276 1.360 . S
C269 C265 1.414 . S
C269 C267 1.444 . S
C269 C274 1.385 1_556 S
C270 C266 1.432 . S
C270 C267 1.317 . S
C270 H282 0.930 . S
C271 C273 1.392 . S
C271 C274 1.370 . S
C271 H283 0.931 . S
N272 C265 1.359 . S
N272 C273 1.327 1_556 S
N272 Tb275 2.600 . S
C273 C271 1.392 . S
C273 N272 1.327 1_554 S
C273 H280 0.930 . S
C274 C269 1.385 1_554 S
C274 C271 1.370 . S
C274 H293 0.930 . S
Tb275 N272 2.600 . S
Tb275 N276 2.660 . S
Tb275 O309 2.362 . S
Tb275 O310 2.421 . S
Tb275 O314 2.546 1_556 S
Tb275 O315 2.610 . S
Tb275 O317 2.320 . S
Tb275 O318 2.552 . S
Tb275 O319 2.413 . S
Tb275 C339 2.833 1_556 S
N276 C268 1.360 . S
N276 Tb275 2.660 . S
N276 C277 1.305 . S
C277 N276 1.305 . S
C277 C279 1.407 . S
C277 H284 0.930 . S
C278 C266 1.410 . S
C278 C279 1.345 . S
C278 H286 0.930 . S
C279 C277 1.407 . S
C279 C278 1.345 . S
C279 H281 0.930 . S
H280 C273 0.930 . S
H281 C279 0.930 . S
H282 C270 0.930 . S
H283 C271 0.931 . S
H284 C277 0.930 . S
H285 C299 0.930 . S
H286 C278 0.930 . S
H287 C305 0.930 . S
H288 C296 0.930 . S
H289 C303 0.931 . S
H290 C267 0.929 . S
H291 C297 0.930 . S
H292 C330 0.930 . S
H293 C274 0.930 . S
H294 C329 0.929 . S
N295 Tb264 2.660 . S
N295 C296 1.305 . S
N295 C300 1.360 . S
C296 H288 0.930 . S
C296 N295 1.305 . S
C296 C299 1.407 . S
C297 H291 0.930 . S
C297 C298 1.410 . S
C297 C299 1.345 . S
C298 C297 1.410 . S
C298 C300 1.417 . S
C298 C330 1.432 . S
C299 H285 0.930 . S
C299 C296 1.407 . S
C299 C297 1.345 . S
C300 N295 1.360 . S
C300 C298 1.417 . S
C300 C304 1.432 . S
H301 C306 0.930 . S
N302 Tb264 2.600 . S
N302 C304 1.359 . S
N302 C305 1.327 . S
C303 H289 0.931 . S
C303 C305 1.392 . S
C303 C306 1.370 . S
C304 C300 1.432 . S
C304 N302 1.359 . S
C304 C307 1.414 . S
C305 H287 0.930 . S
C305 N302 1.327 . S
C305 C303 1.392 . S
C306 H301 0.930 . S
C306 C303 1.370 . S
C306 C307 1.385 . S
C307 C304 1.414 . S
C307 C306 1.385 . S
C307 C329 1.444 . S
O308 Tb264 2.546 . S
O308 C328 1.251 . S
O309 Tb264 2.610 . S
O309 Tb275 2.362 . S
O309 C320 1.283 . S
O310 Tb275 2.421 . S
O310 C327 1.262 . S
O311 Tb264 2.320 . S
O311 C327 1.260 . S
O312 Tb264 2.552 . S
O312 C320 1.243 . S
O313 Tb264 2.413 . S
O313 C328 1.256 . S
O314 Tb275 2.546 1_554 S
O314 C339 1.251 . S
O315 Tb264 2.362 . S
O315 Tb275 2.610 . S
O315 C331 1.283 . S
O316 Tb264 2.421 . S
O316 C338 1.262 . S
O317 Tb275 2.320 . S
O317 C338 1.260 . S
O318 Tb275 2.552 . S
O318 C331 1.243 . S
O319 Tb275 2.413 . S
O319 C339 1.256 1_556 S
C320 O309 1.283 . S
C320 O312 1.243 . S
C321 C323 1.382 . S
C321 C325 1.393 . S
C321 C328 1.500 . S
C322 C323 1.400 . S
C322 C324 1.384 . S
C323 C321 1.382 . S
C323 C322 1.400 . S
C323 H340 0.930 . S
C324 C322 1.384 . S
C324 C326 1.392 . S
C324 H341 0.931 . S
C325 C321 1.393 . S
C325 C326 1.401 . S
C325 H342 0.930 . S
C326 C324 1.392 . S
C326 C325 1.401 . S
C326 H343 0.930 . S
C327 O310 1.262 . S
C327 O311 1.260 . S
C328 Tb264 2.833 . S
C328 O308 1.251 . S
C328 O313 1.256 . S
C328 C321 1.500 . S
C329 H294 0.929 . S
C329 C307 1.444 . S
C329 C330 1.317 . S
C330 H292 0.930 . S
C330 C298 1.432 . S
C330 C329 1.317 . S
C331 O315 1.283 . S
C331 O318 1.243 . S
C332 C333 1.382 . S
C332 C336 1.393 . S
C332 C339 1.500 . S
C333 C332 1.382 . S
C333 C334 1.400 . S
C333 H344 0.930 . S
C334 C333 1.400 . S
C334 C335 1.384 . S
C335 C334 1.384 . S
C335 C337 1.392 . S
C335 H345 0.931 . S
C336 C332 1.393 . S
C336 C337 1.401 . S
C336 H346 0.930 . S
C337 C335 1.392 . S
C337 C336 1.401 . S
C337 H347 0.930 . S
C338 O316 1.262 . S
C338 O317 1.260 . S
C339 Tb275 2.833 1_554 S
C339 O314 1.251 . S
C339 O319 1.256 1_554 S
C339 C332 1.500 . S
H340 C323 0.930 . S
H341 C324 0.931 . S
H342 C325 0.930 . S
H343 C326 0.930 . S
H344 C333 0.930 . S
H345 C335 0.931 . S
H346 C336 0.930 . S
H347 C337 0.930 . S
Tb348 N379 2.660 . S
Tb348 N386 2.600 . S
Tb348 O392 2.546 . S
Tb348 O393 2.610 . S
Tb348 O395 2.320 . S
Tb348 O396 2.552 . S
Tb348 O397 2.413 . S
Tb348 O399 2.362 . S
Tb348 O400 2.421 1_455 S
Tb348 C412 2.833 . S
C349 C352 1.432 . S
C349 C353 1.414 . S
C349 N356 1.358 . S
C350 C352 1.417 . S
C350 C354 1.432 . S
C350 C362 1.410 . S
C351 C353 1.444 . S
C351 C354 1.317 . S
C351 H374 0.929 . S
C352 C349 1.432 . S
C352 C350 1.417 . S
C352 N360 1.360 . S
C353 C349 1.414 . S
C353 C351 1.444 . S
C353 C358 1.385 1_656 S
C354 C350 1.432 . S
C354 C351 1.317 . S
C354 H366 0.930 . S
C355 C357 1.392 . S
C355 C358 1.370 . S
C355 H367 0.931 . S
N356 C349 1.358 . S
N356 C357 1.329 1_656 S
N356 Tb359 2.600 . S
C357 C355 1.392 . S
C357 N356 1.329 1_454 S
C357 H364 0.930 . S
C358 C353 1.385 1_454 S
C358 C355 1.370 . S
C358 H377 0.930 . S
Tb359 N356 2.600 . S
Tb359 N360 2.660 . S
Tb359 O393 2.362 1_655 S
Tb359 O394 2.421 1_655 S
Tb359 O398 2.546 1_556 S
Tb359 O399 2.610 1_655 S
Tb359 O401 2.320 . S
Tb359 O402 2.552 . S
Tb359 O403 2.413 . S
Tb359 C423 2.833 1_556 S
N360 C352 1.360 . S
N360 Tb359 2.660 . S
N360 C361 1.305 . S
C361 N360 1.305 . S
C361 C363 1.407 . S
C361 H368 0.930 . S
C362 C350 1.410 . S
C362 C363 1.345 . S
C362 H370 0.930 . S
C363 C361 1.407 . S
C363 C362 1.345 . S
C363 H365 0.930 . S
H364 C357 0.930 . S
H365 C363 0.930 . S
H366 C354 0.930 . S
H367 C355 0.931 . S
H368 C361 0.930 . S
H369 C383 0.930 . S
H370 C362 0.930 . S
H371 C389 0.930 . S
H372 C380 0.930 . S
H373 C387 0.931 . S
H374 C351 0.929 . S
H375 C381 0.930 . S
H376 C414 0.930 . S
H377 C358 0.930 . S
H378 C413 0.929 . S
N379 Tb348 2.660 . S
N379 C380 1.305 . S
N379 C384 1.360 . S
C380 H372 0.930 . S
C380 N379 1.305 . S
C380 C383 1.407 . S
C381 H375 0.930 . S
C381 C382 1.410 . S
C381 C383 1.345 . S
C382 C381 1.410 . S
C382 C384 1.417 . S
C382 C414 1.432 . S
C383 H369 0.930 . S
C383 C380 1.407 . S
C383 C381 1.345 . S
C384 N379 1.360 . S
C384 C382 1.417 . S
C384 C388 1.432 . S
H385 C390 0.930 1_655 S
N386 Tb348 2.600 . S
N386 C388 1.359 . S
N386 C389 1.327 1_455 S
C387 H373 0.931 . S
C387 C389 1.392 . S
C387 C390 1.370 1_655 S
C388 C384 1.432 . S
C388 N386 1.359 . S
C388 C391 1.414 . S
C389 H371 0.930 . S
C389 N386 1.327 1_655 S
C389 C387 1.392 . S
C390 H385 0.930 1_455 S
C390 C387 1.370 1_455 S
C390 C391 1.385 . S
C391 C388 1.414 . S
C391 C390 1.385 . S
C391 C413 1.444 . S
O392 Tb348 2.546 . S
O392 C412 1.251 . S
O393 Tb348 2.610 . S
O393 Tb359 2.362 1_455 S
O393 C404 1.283 . S
O394 Tb359 2.421 1_455 S
O394 C411 1.262 . S
O395 Tb348 2.320 . S
O395 C411 1.260 . S
O396 Tb348 2.552 . S
O396 C404 1.243 . S
O397 Tb348 2.413 . S
O397 C412 1.256 . S
O398 Tb359 2.546 1_554 S
O398 C423 1.251 . S
O399 Tb348 2.362 . S
O399 Tb359 2.610 1_455 S
O399 C415 1.283 1_455 S
O400 Tb348 2.421 1_655 S
O400 C422 1.262 . S
O401 Tb359 2.320 . S
O401 C422 1.260 . S
O402 Tb359 2.552 . S
O402 C415 1.243 . S
O403 Tb359 2.413 . S
O403 C423 1.256 1_556 S
C404 O393 1.283 . S
C404 O396 1.243 . S
C405 C407 1.382 . S
C405 C409 1.393 . S
C405 C412 1.500 . S
C406 C407 1.400 . S
C406 C408 1.384 . S
C407 C405 1.382 . S
C407 C406 1.400 . S
C407 H424 0.930 . S
C408 C406 1.384 . S
C408 C410 1.392 . S
C408 H425 0.931 . S
C409 C405 1.393 . S
C409 C410 1.401 . S
C409 H426 0.930 . S
C410 C408 1.392 . S
C410 C409 1.401 . S
C410 H427 0.930 . S
C411 O394 1.262 . S
C411 O395 1.260 . S
C412 Tb348 2.833 . S
C412 O392 1.251 . S
C412 O397 1.256 . S
C412 C405 1.500 . S
C413 H378 0.929 . S
C413 C391 1.444 . S
C413 C414 1.317 . S
C414 H376 0.930 . S
C414 C382 1.432 . S
C414 C413 1.317 . S
C415 O399 1.283 1_655 S
C415 O402 1.243 . S
C416 C417 1.382 . S
C416 C420 1.393 . S
C416 C423 1.500 . S
C417 C416 1.382 . S
C417 C418 1.400 . S
C417 H428 0.930 . S
C418 C417 1.400 . S
C418 C419 1.384 . S
C419 C418 1.384 . S
C419 C421 1.392 . S
C419 H429 0.931 . S
C420 C416 1.393 . S
C420 C421 1.401 . S
C420 H430 0.930 . S
C421 C419 1.392 . S
C421 C420 1.401 . S
C421 H431 0.930 . S
C422 O400 1.262 . S
C422 O401 1.260 . S
C423 Tb359 2.833 1_554 S
C423 O398 1.251 . S
C423 O403 1.256 1_554 S
C423 C416 1.500 . S
H424 C407 0.930 . S
H425 C408 0.931 . S
H426 C409 0.930 . S
H427 C410 0.930 . S
H428 C417 0.930 . S
H429 C419 0.931 . S
H430 C420 0.930 . S
H431 C421 0.930 . S
C432 C433 1.387 . S
C432 H436 0.950 1_545 S
C432 C441 1.390 . S
C433 C432 1.387 . S
C433 C435 1.387 . S
H434 C441 0.950 1_565 S
C435 C433 1.387 . S
C435 C437 1.390 . S
C435 H439 0.950 . S
H436 C432 0.950 1_565 S
C437 C435 1.390 . S
C437 C438 1.387 . S
C437 H440 0.950 . S
C438 C437 1.387 . S
C438 C441 1.387 . S
H439 C435 0.950 . S
H440 C437 0.950 . S
C441 C432 1.390 . S
C441 H434 0.950 1_545 S
C441 C438 1.387 . S
C442 C443 1.387 . S
C442 H446 0.950 . S
C442 C451 1.390 . S
C443 C442 1.387 . S
C443 C445 1.387 . S
H444 C451 0.950 . S
C445 C443 1.387 . S
C445 C447 1.390 . S
C445 H449 0.950 . S
H446 C442 0.950 . S
C447 C445 1.390 . S
C447 C448 1.387 . S
C447 H450 0.950 . S
C448 C447 1.387 . S
C448 C451 1.387 . S
H449 C445 0.950 . S
H450 C447 0.950 . S
C451 C442 1.390 . S
C451 H444 0.950 . S
C451 C448 1.387 . S
C452 C453 1.387 . S
C452 H456 0.950 . S
C452 C461 1.390 . S
C453 C452 1.387 . S
C453 C455 1.387 . S
H454 C461 0.950 . S
C455 C453 1.387 . S
C455 C457 1.390 . S
C455 H459 0.950 . S
H456 C452 0.950 . S
C457 C455 1.390 . S
C457 C458 1.387 . S
C457 H460 0.950 . S
C458 C457 1.387 . S
C458 C461 1.387 . S
H459 C455 0.950 . S
H460 C457 0.950 . S
C461 C452 1.390 . S
C461 H454 0.950 . S
C461 C458 1.387 . S
C462 C463 1.387 . S
C462 H466 0.950 1_455 S
C462 C471 1.390 . S
C463 C462 1.387 . S
C463 C465 1.387 . S
H464 C471 0.950 1_655 S
C465 C463 1.387 . S
C465 C467 1.390 . S
C465 H469 0.950 . S
H466 C462 0.950 1_655 S
C467 C465 1.390 . S
C467 C468 1.387 . S
C467 H470 0.950 . S
C468 C467 1.387 . S
C468 C471 1.387 . S
H469 C465 0.950 . S
H470 C467 0.950 . S
C471 C462 1.390 . S
C471 H464 0.950 1_455 S
C471 C468 1.387 . S
C472 C473 1.387 1_545 S
C472 H476 0.950 . S
C472 C481 1.390 . S
C473 C472 1.387 1_565 S
C473 C475 1.387 . S
H474 C481 0.950 . S
C475 C473 1.387 . S
C475 C477 1.390 . S
C475 H479 0.950 . S
H476 C472 0.950 . S
C477 C475 1.390 . S
C477 C478 1.387 . S
C477 H480 0.950 . S
C478 C477 1.387 . S
C478 C481 1.387 1_565 S
H479 C475 0.950 . S
H480 C477 0.950 . S
C481 C472 1.390 . S
C481 H474 0.950 . S
C481 C478 1.387 1_545 S
C482 C483 1.387 . S
C482 H486 0.950 . S
C482 C491 1.390 . S
C483 C482 1.387 . S
C483 C485 1.387 . S
H484 C491 0.950 1_556 S
C485 C483 1.387 . S
C485 C487 1.390 . S
C485 H489 0.950 . S
H486 C482 0.950 . S
C487 C485 1.390 . S
C487 C488 1.387 . S
C487 H490 0.950 . S
C488 C487 1.387 . S
C488 C491 1.387 . S
H489 C485 0.950 . S
H490 C487 0.950 . S
C491 C482 1.390 . S
C491 H484 0.950 1_554 S
C491 C488 1.387 . S
C492 C493 1.387 . S
C492 H496 0.950 . S
C492 C501 1.390 . S
C493 C492 1.387 . S
C493 C495 1.387 . S
H494 C501 0.950 1_556 S
C495 C493 1.387 . S
C495 C497 1.390 . S
C495 H499 0.950 . S
H496 C492 0.950 . S
C497 C495 1.390 . S
C497 C498 1.387 1_554 S
C497 H500 0.950 . S
C498 C497 1.387 1_556 S
C498 C501 1.387 1_556 S
H499 C495 0.950 . S
H500 C497 0.950 . S
C501 C492 1.390 . S
C501 H494 0.950 1_554 S
C501 C498 1.387 1_554 S
C502 C503 1.387 . S
C502 H506 0.950 1_655 S
C502 C511 1.390 . S
C503 C502 1.387 . S
C503 C505 1.387 . S
H504 C511 0.950 1_456 S
C505 C503 1.387 . S
C505 C507 1.390 . S
C505 H509 0.950 . S
H506 C502 0.950 1_455 S
C507 C505 1.390 . S
C507 C508 1.387 . S
C507 H510 0.950 . S
C508 C507 1.387 . S
C508 C511 1.387 . S
H509 C505 0.950 . S
H510 C507 0.950 . S
C511 C502 1.390 . S
C511 H504 0.950 1_654 S
C511 C508 1.387 . S
C512 C513 1.387 . S
C512 H516 0.950 . S
C512 C521 1.390 1_455 S
C513 C512 1.387 . S
C513 C515 1.387 . S
H514 C521 0.950 . S
C515 C513 1.387 . S
C515 C517 1.390 . S
C515 H519 0.950 . S
H516 C512 0.950 . S
C517 C515 1.390 . S
C517 C518 1.370 1_455 S
C517 H520 0.950 . S
C518 C517 1.370 1_655 S
C518 C521 1.391 . S
H519 C515 0.950 . S
H520 C517 0.950 . S
C521 C512 1.390 1_655 S
C521 H514 0.950 . S
C521 C518 1.391 . S
C522 C523 1.387 . S
C522 H526 0.950 . S
C522 C531 1.390 . S
C523 C522 1.387 . S
C523 C525 1.387 . S
H524 C531 0.950 . S
C525 C523 1.387 . S
C525 C527 1.390 1_545 S
C525 H529 0.950 1_554 S
H526 C522 0.950 . S
C527 C525 1.390 1_565 S
C527 C528 1.389 . S
C527 H530 0.950 . S
C528 C527 1.389 . S
C528 C531 1.366 1_565 S
H529 C525 0.950 1_556 S
H530 C527 0.950 . S
C531 C522 1.390 . S
C531 H524 0.950 . S
C531 C528 1.366 1_545 S
C532 C533 1.387 . S
C532 H536 0.950 1_554 S
C532 C541 1.390 . S
C533 C532 1.387 . S
C533 C535 1.387 . S
H534 C541 0.950 . S
C535 C533 1.387 . S
C535 C537 1.390 . S
C535 H539 0.950 . S
H536 C532 0.950 1_556 S
C537 C535 1.390 . S
C537 C538 1.387 . S
C537 H540 0.950 . S
C538 C537 1.387 . S
C538 C541 1.387 . S
H539 C535 0.950 . S
H540 C537 0.950 . S
C541 C532 1.390 . S
C541 H534 0.950 . S
C541 C538 1.387 . S
C542 C543 1.387 . S
C542 H546 0.950 1_554 S
C542 C551 1.390 . S
C543 C542 1.387 . S
C543 C545 1.387 . S
H544 C551 0.950 . S
C545 C543 1.387 . S
C545 C547 1.390 . S
C545 H549 0.950 . S
H546 C542 0.950 1_556 S
C547 C545 1.390 . S
C547 C548 1.387 . S
C547 H550 0.950 . S
C548 C547 1.387 . S
C548 C551 1.387 . S
H549 C545 0.950 . S
H550 C547 0.950 . S
C551 C542 1.390 . S
C551 H544 0.950 . S
C551 C548 1.387 . S
C552 C553 1.387 . S
C552 H556 0.950 . S
C552 C561 1.390 1_655 S
C553 C552 1.387 . S
C553 C555 1.387 . S
H554 C561 0.950 . S
C555 C553 1.387 . S
C555 C557 1.390 . S
C555 H559 0.950 . S
H556 C552 0.950 . S
C557 C555 1.390 . S
C557 C558 1.387 1_655 S
C557 H560 0.950 . S
C558 C557 1.387 1_455 S
C558 C561 1.387 . S
H559 C555 0.950 . S
H560 C557 0.950 . S
C561 C552 1.390 1_455 S
C561 H554 0.950 . S
C561 C558 1.387 . S
C562 C563 1.387 . S
C562 H566 0.950 . S
C562 C571 1.390 1_565 S
C563 C562 1.387 . S
C563 C565 1.387 . S
H564 C571 0.950 . S
C565 C563 1.387 . S
C565 C567 1.384 1_565 S
C565 H569 0.950 . S
H566 C562 0.950 . S
C567 C565 1.384 1_545 S
C567 C568 1.393 . S
C567 H570 0.950 . S
C568 C567 1.393 . S
C568 C571 1.387 . S
H569 C565 0.950 . S
H570 C567 0.950 . S
C571 C562 1.390 1_545 S
C571 H564 0.950 . S
C571 C568 1.387 . S
C572 C573 1.387 . S
C572 H576 0.950 . S
C572 C581 1.390 . S
C573 C572 1.387 . S
C573 C575 1.387 . S
H574 C581 0.950 . S
C575 C573 1.387 . S
C575 C577 1.390 . S
C575 H579 0.950 . S
H576 C572 0.950 . S
C577 C575 1.390 . S
C577 C578 1.387 . S
C577 H580 0.950 . S
C578 C577 1.387 . S
C578 C581 1.387 . S
H579 C575 0.950 . S
H580 C577 0.950 . S
C581 C572 1.390 . S
C581 H574 0.950 . S
C581 C578 1.387 . S
C582 C583 1.387 . S
C582 H586 0.950 . S
C582 C591 1.390 . S
C583 C582 1.387 . S
C583 C585 1.387 . S
H584 C591 0.950 . S
C585 C583 1.387 . S
C585 C587 1.390 . S
C585 H589 0.950 . S
H586 C582 0.950 . S
C587 C585 1.390 . S
C587 C588 1.387 . S
C587 H590 0.950 . S
C588 C587 1.387 . S
C588 C591 1.387 . S
H589 C585 0.950 . S
H590 C587 0.950 . S
C591 C582 1.390 . S
C591 H584 0.950 . S
C591 C588 1.387 . S
C592 C593 1.387 . S
C592 H596 0.950 . S
C592 C601 1.390 . S
C593 C592 1.387 . S
C593 C595 1.387 . S
H594 C601 0.950 . S
C595 C593 1.387 . S
C595 C597 1.390 . S
C595 H599 0.950 . S
H596 C592 0.950 . S
C597 C595 1.390 . S
C597 C598 1.387 . S
C597 H600 0.950 . S
C598 C597 1.387 . S
C598 C601 1.387 . S
H599 C595 0.950 . S
H600 C597 0.950 . S
C601 C592 1.390 . S
C601 H594 0.950 . S
C601 C598 1.387 . S
C602 C603 1.387 . S
C602 H606 0.950 . S
C602 C611 1.390 . S
C603 C602 1.387 . S
C603 C605 1.387 . S
H604 C611 0.950 . S
C605 C603 1.387 . S
C605 C607 1.390 . S
C605 H609 0.950 . S
H606 C602 0.950 . S
C607 C605 1.390 . S
C607 C608 1.387 . S
C607 H610 0.950 . S
C608 C607 1.387 . S
C608 C611 1.387 . S
H609 C605 0.950 . S
H610 C607 0.950 . S
C611 C602 1.390 . S
C611 H604 0.950 . S
C611 C608 1.387 . S
C612 C613 1.387 . S
C612 H616 0.950 . S
C612 C621 1.390 . S
C613 C612 1.387 . S
C613 C615 1.387 . S
H614 C621 0.950 . S
C615 C613 1.387 . S
C615 C617 1.390 . S
C615 H619 0.950 1_556 S
H616 C612 0.950 . S
C617 C615 1.390 . S
C617 C618 1.387 . S
C617 H620 0.950 1_556 S
C618 C617 1.387 . S
C618 C621 1.387 . S
H619 C615 0.950 1_554 S
H620 C617 0.950 1_554 S
C621 C612 1.390 . S
C621 H614 0.950 . S
C621 C618 1.387 . S
C622 C623 1.387 . S
C622 H626 0.950 . S
C622 C631 1.390 . S
C623 C622 1.387 . S
C623 C625 1.387 . S
H624 C631 0.950 . S
C625 C623 1.387 . S
C625 C627 1.390 . S
C625 H629 0.950 1_556 S
H626 C622 0.950 . S
C627 C625 1.390 . S
C627 C628 1.387 . S
C627 H630 0.950 1_556 S
C628 C627 1.387 . S
C628 C631 1.387 . S
H629 C625 0.950 1_554 S
H630 C627 0.950 1_554 S
C631 C622 1.390 . S
C631 H624 0.950 . S
C631 C628 1.387 . S
C632 C633 1.387 . S
C632 H636 0.950 . S
C632 C641 1.390 . S
C633 C632 1.387 . S
C633 C635 1.387 . S
H634 C641 0.950 1_455 S
C635 C633 1.387 . S
C635 C637 1.390 . S
C635 H639 0.950 . S
H636 C632 0.950 . S
C637 C635 1.390 . S
C637 C638 1.387 . S
C637 H640 0.950 . S
C638 C637 1.387 . S
C638 C641 1.387 . S
H639 C635 0.950 . S
H640 C637 0.950 . S
C641 C632 1.390 . S
C641 H634 0.950 1_655 S
C641 C638 1.387 . S
C642 C643 1.387 . S
C642 H646 0.950 . S
C642 C651 1.390 . S
C643 C642 1.387 . S
C643 C645 1.387 . S
H644 C651 0.950 1_545 S
C645 C643 1.387 . S
C645 C647 1.390 . S
C645 H649 0.950 . S
H646 C642 0.950 . S
C647 C645 1.390 . S
C647 C648 1.387 . S
C647 H650 0.950 . S
C648 C647 1.387 . S
C648 C651 1.387 . S
H649 C645 0.950 . S
H650 C647 0.950 . S
C651 C642 1.390 . S
C651 H644 0.950 1_565 S
C651 C648 1.387 . S
C652 C653 1.387 . S
C652 H656 0.950 . S
C652 C661 1.390 . S
C653 C652 1.387 . S
C653 C655 1.387 . S
H654 C661 0.950 . S
C655 C653 1.387 . S
C655 C657 1.390 . S
C655 H659 0.950 . S
H656 C652 0.950 . S
C657 C655 1.390 . S
C657 C658 1.387 . S
C657 H660 0.950 . S
C658 C657 1.387 . S
C658 C661 1.387 . S
H659 C655 0.950 . S
H660 C657 0.950 . S
C661 C652 1.390 . S
C661 H654 0.950 . S
C661 C658 1.387 . S
C662 C663 1.387 . S
C662 H666 0.950 . S
C662 C671 1.390 . S
C663 C662 1.387 . S
C663 C665 1.387 . S
H664 C671 0.950 . S
C665 C663 1.387 . S
C665 C667 1.390 . S
C665 H669 0.950 . S
H666 C662 0.950 . S
C667 C665 1.390 . S
C667 C668 1.387 . S
C667 H670 0.950 . S
C668 C667 1.387 . S
C668 C671 1.387 . S
H669 C665 0.950 . S
H670 C667 0.950 . S
C671 C662 1.390 . S
C671 H664 0.950 . S
C671 C668 1.387 . S
C433 C76 1.943 . S
C438 C170 2.105 . S
C448 C254 2.115 . S
C443 C88 1.950 . S
C458 C320 2.018 . S
C453 C52 2.022 . S
C468 C404 2.011 . S
C463 C64 2.014 . S
C478 C159 2.102 1_564 S
C473 C28 1.949 . S
C483 C40 1.959 . S
C488 C243 2.112 1_554 S
C493 C4 2.035 . S
C498 C331 2.019 . S
C503 C16 2.023 . S
C508 C415 2.008 1_554 S
C518 C166 0.957 . S
C513 C69 0.892 . S
C528 C250 0.926 . S
C523 C81 0.867 . S
C538 C322 0.882 . S
C533 C93 0.841 . S
C543 C57 0.866 . S
C548 C406 0.915 . S
C553 C21 0.883 . S
C558 C154 0.940 . S
C568 C238 0.903 . S
C563 C33 0.860 . S
C578 C334 0.882 . S
C573 C45 0.833 . S
C583 C9 0.857 . S
C588 C418 0.915 . S
C593 C66 2.127 . S
C598 C163 2.224 . S
C603 C78 2.106 . S
C608 C247 2.204 . S
C618 C327 2.300 . S
C613 C90 2.027 . S
C628 C411 2.320 . S
C623 C54 2.048 . S
C633 C18 2.117 . S
C638 C152 2.224 . S
C648 C236 2.203 . S
C643 C30 2.097 . S
C658 C338 2.298 . S
C653 C42 2.016 . S
C663 C6 2.034 . S
C668 C422 2.318 . S
