# Generated by pormake.
# Topology pyr, (3,6)-cn, num edge types: 1
# Building blocks:
#     Node 0, Type 0, BuildingBlock: CUQRIR_clean_linker_1, # of connection points: 3
#     Node 1, Type 0, BuildingBlock: CUQRIR_clean_linker_1, # of connection points: 3
#     Node 2, Type 0, BuildingBlock: CUQRIR_clean_linker_1, # of connection points: 3
#     Node 3, Type 0, BuildingBlock: CUQRIR_clean_linker_1, # of connection points: 3
#     Node 4, Type 0, BuildingBlock: CUQRIR_clean_linker_1, # of connection points: 3
#     Node 5, Type 0, BuildingBlock: CUQRIR_clean_linker_1, # of connection points: 3
#     Node 6, Type 0, BuildingBlock: CUQRIR_clean_linker_1, # of connection points: 3
#     Node 7, Type 0, BuildingBlock: CUQRIR_clean_linker_1, # of connection points: 3
#     Node 8, Type 1, BuildingBlock: BETDEL_clean_sbu_0, # of connection points: 6
#     Node 9, Type 1, BuildingBlock: BETDEL_clean_sbu_0, # of connection points: 6
#     Node 10, Type 1, BuildingBlock: BETDEL_clean_sbu_0, # of connection points: 6
#     Node 11, Type 1, BuildingBlock: BETDEL_clean_sbu_0, # of connection points: 6
#     Edge 12, Type (0, 1), BuildingBlock: OJICUG_clean_linker_0, # of connection points: 2
#     Edge 13, Type (0, 1), BuildingBlock: OJICUG_clean_linker_0, # of connection points: 2
#     Edge 14, Type (0, 1), BuildingBlock: OJICUG_clean_linker_0, # of connection points: 2
#     Edge 15, Type (0, 1), BuildingBlock: OJICUG_clean_linker_0, # of connection points: 2
#     Edge 16, Type (0, 1), BuildingBlock: OJICUG_clean_linker_0, # of connection points: 2
#     Edge 17, Type (0, 1), BuildingBlock: OJICUG_clean_linker_0, # of connection points: 2
#     Edge 18, Type (0, 1), BuildingBlock: OJICUG_clean_linker_0, # of connection points: 2
#     Edge 19, Type (0, 1), BuildingBlock: OJICUG_clean_linker_0, # of connection points: 2
#     Edge 20, Type (0, 1), BuildingBlock: OJICUG_clean_linker_0, # of connection points: 2
#     Edge 21, Type (0, 1), BuildingBlock: OJICUG_clean_linker_0, # of connection points: 2
#     Edge 22, Type (0, 1), BuildingBlock: OJICUG_clean_linker_0, # of connection points: 2
#     Edge 23, Type (0, 1), BuildingBlock: OJICUG_clean_linker_0, # of connection points: 2
#     Edge 24, Type (0, 1), BuildingBlock: OJICUG_clean_linker_0, # of connection points: 2
#     Edge 25, Type (0, 1), BuildingBlock: OJICUG_clean_linker_0, # of connection points: 2
#     Edge 26, Type (0, 1), BuildingBlock: OJICUG_clean_linker_0, # of connection points: 2
#     Edge 27, Type (0, 1), BuildingBlock: OJICUG_clean_linker_0, # of connection points: 2
#     Edge 28, Type (0, 1), BuildingBlock: OJICUG_clean_linker_0, # of connection points: 2
#     Edge 29, Type (0, 1), BuildingBlock: OJICUG_clean_linker_0, # of connection points: 2
#     Edge 30, Type (0, 1), BuildingBlock: OJICUG_clean_linker_0, # of connection points: 2
#     Edge 31, Type (0, 1), BuildingBlock: OJICUG_clean_linker_0, # of connection points: 2
#     Edge 32, Type (0, 1), BuildingBlock: OJICUG_clean_linker_0, # of connection points: 2
#     Edge 33, Type (0, 1), BuildingBlock: OJICUG_clean_linker_0, # of connection points: 2
#     Edge 34, Type (0, 1), BuildingBlock: OJICUG_clean_linker_0, # of connection points: 2
#     Edge 35, Type (0, 1), BuildingBlock: OJICUG_clean_linker_0, # of connection points: 2
# Relax obj value: 0.118
# Max RMSD: 0.234
# Mean RMSD: 0.156
data_MOF--net-pyr--node1-BETDEL_clean_sbu_0--node2-CUQRIR_clean_linker_1--edge1-OJICUG_clean_linker_0
_symmetry_space_group_name_H-M    P1
_symmetry_Int_Tables_number       1
_symmetry_cell_setting            triclinic
loop_
_symmetry_equiv_pos_as_xyz
'x, y, z'
_cell_length_a     23.719792
_cell_length_b     24.649179
_cell_length_c     22.36676
_cell_angle_alpha  89.558521
_cell_angle_beta   90.177305
_cell_angle_gamma 101.05358
loop_
_atom_site_label
_atom_site_type_symbol
_atom_site_fract_x
_atom_site_fract_y
_atom_site_fract_z
_atom_type_partial_charge
C0 C 0.26258 0.32358 0.22403 0.0
N1 N 0.29245 0.28267 0.23178 0.0
N2 N 0.2704 0.34531 0.16845 0.0
C3 C 0.21705 0.33492 0.26654 0.0
C4 C 0.30771 0.31733 0.14299 0.0
N5 N 0.32168 0.27981 0.18193 0.0
C6 C 0.32459 0.32198 0.0783 0.0
H7 H 0.23026 0.32964 0.31353 0.0
H8 H 0.17649 0.30504 0.2582 0.0
H9 H 0.20889 0.37741 0.25991 0.0
H10 H 0.32485 0.36444 0.0613 0.0
H11 H 0.29269 0.29273 0.05207 0.0
H12 H 0.36753 0.31124 0.07201 0.0
C13 C 0.2953 0.85923 0.65163 0.0
N14 N 0.28467 0.90615 0.67654 0.0
N15 N 0.32613 0.83346 0.68941 0.0
C16 C 0.2775 0.83927 0.58965 0.0
C17 C 0.33367 0.86563 0.73825 0.0
N18 N 0.3074 0.90932 0.73109 0.0
C19 C 0.37174 0.85749 0.79033 0.0
H20 H 0.23605 0.8507 0.57689 0.0
H21 H 0.27317 0.79382 0.58646 0.0
H22 H 0.31091 0.85863 0.55735 0.0
H23 H 0.41174 0.8893 0.78819 0.0
H24 H 0.38315 0.81591 0.78998 0.0
H25 H 0.35 0.86282 0.83309 0.0
C26 C 0.62217 0.34961 0.84554 0.0
N27 N 0.65407 0.3446 0.89501 0.0
N28 N 0.63832 0.40025 0.8203 0.0
C29 C 0.57334 0.30614 0.82328 0.0
C30 C 0.68092 0.42605 0.85622 0.0
N31 N 0.69006 0.39254 0.90209 0.0
C32 C 0.71548 0.48305 0.84466 0.0
H33 H 0.58985 0.28178 0.78815 0.0
H34 H 0.5392 0.32556 0.80311 0.0
H35 H 0.55456 0.27733 0.85943 0.0
H36 H 0.69709 0.51341 0.871 0.0
H37 H 0.71431 0.49438 0.79663 0.0
H38 H 0.76082 0.48558 0.85871 0.0
C39 C 0.83615 0.67177 0.33895 0.0
N40 N 0.88597 0.70671 0.32415 0.0
N41 N 0.80885 0.69229 0.38423 0.0
C42 C 0.8152 0.61621 0.31073 0.0
C43 C 0.84354 0.74133 0.3963 0.0
N44 N 0.89082 0.75024 0.36069 0.0
C45 C 0.83019 0.78187 0.44181 0.0
H46 H 0.78774 0.62166 0.27175 0.0
H47 H 0.78936 0.58711 0.34278 0.0
H48 H 0.8513 0.59763 0.29461 0.0
H49 H 0.85091 0.77465 0.48492 0.0
H50 H 0.78321 0.77682 0.44903 0.0
H51 H 0.8472 0.82505 0.42734 0.0
C52 C 0.73661 0.8261 0.87418 0.0
N53 N 0.78534 0.82555 0.84337 0.0
N54 N 0.71609 0.87225 0.86112 0.0
C55 C 0.71535 0.78727 0.92497 0.0
C56 C 0.75422 0.89989 0.82172 0.0
N57 N 0.79682 0.87195 0.81169 0.0
C58 C 0.75199 0.95653 0.79738 0.0
H59 H 0.67155 0.79134 0.93905 0.0
H60 H 0.74511 0.79682 0.9635 0.0
H61 H 0.71494 0.74396 0.91162 0.0
H62 H 0.77464 0.98817 0.82864 0.0
H63 H 0.70678 0.9621 0.79353 0.0
H64 H 0.77308 0.96304 0.75299 0.0
C65 C 0.78334 0.26679 0.43245 0.0
N66 N 0.8058 0.22876 0.40111 0.0
N67 N 0.74756 0.29009 0.39749 0.0
C68 C 0.79539 0.28103 0.49702 0.0
C69 C 0.74981 0.26615 0.34383 0.0
N70 N 0.78536 0.22923 0.34574 0.0
C71 C 0.71265 0.27489 0.29088 0.0
H72 H 0.76297 0.25413 0.52526 0.0
H73 H 0.79202 0.32454 0.50558 0.0
H74 H 0.83884 0.27472 0.51009 0.0
H75 H 0.68858 0.30859 0.29799 0.0
H76 H 0.68177 0.23598 0.28153 0.0
H77 H 0.73969 0.2859 0.25067 0.0
C78 C 0.32788 0.68707 0.20612 0.0
N79 N 0.37899 0.71695 0.22453 0.0
N80 N 0.29576 0.71993 0.17924 0.0
C81 C 0.30768 0.62607 0.21698 0.0
C82 C 0.3281 0.77091 0.18224 0.0
N83 N 0.37872 0.76954 0.2098 0.0
C84 C 0.31338 0.82089 0.15083 0.0
H85 H 0.33156 0.60269 0.18717 0.0
H86 H 0.26102 0.61322 0.20801 0.0
H87 H 0.31645 0.61528 0.26391 0.0
H88 H 0.26713 0.82185 0.1554 0.0
H89 H 0.32287 0.81862 0.10245 0.0
H90 H 0.33841 0.86 0.16883 0.0
C91 C 0.12986 0.37939 0.72762 0.0
N92 N 0.16633 0.36798 0.6846 0.0
N93 N 0.14978 0.42916 0.75308 0.0
C94 C 0.07222 0.34383 0.74121 0.0
C95 C 0.19983 0.44784 0.72356 0.0
N96 N 0.20963 0.41155 0.6808 0.0
C97 C 0.2426 0.49837 0.74199 0.0
H98 H 0.041 0.36942 0.75537 0.0
H99 H 0.07721 0.3148 0.77814 0.0
H100 H 0.05469 0.3193 0.70164 0.0
H101 H 0.23843 0.50665 0.79032 0.0
H102 H 0.23445 0.53485 0.71646 0.0
H103 H 0.28722 0.49309 0.73307 0.0
Dy104 Dy 0.08405 0.07404 0.46461 0.0
C105 C 0.97363 0.97561 0.6604 0.0
C106 C 0.15821 0.12955 0.38368 0.0
Dy107 Dy 0.01994 0.0364 0.56438 0.0
O108 O 0.10699 0.1029 0.37043 0.0
O109 O 0.1675 0.12704 0.44029 0.0
O110 O 0.13726 1.00895 0.4805 0.0
O111 O 0.11105 0.04946 0.55379 0.0
C112 C 0.13806 1.0131 0.53805 0.0
C113 C 0.96084 0.09949 0.50148 0.0
O114 O 0.0791 0.11182 0.60172 0.0
O115 O 0.08536 0.15461 0.51098 0.0
O116 O 0.98381 0.02907 0.6573 0.0
O117 O 0.98861 0.95539 0.6111 0.0
O118 O 0.95884 0.09314 0.55886 0.0
O119 O 0.99015 0.067 0.47795 0.0
O120 O 0.03669 0.9989 0.41755 0.0
O121 O 1.00711 0.95851 0.5075 0.0
C122 C 0.09251 0.15777 0.56934 0.0
C123 C 0.0127 0.95492 0.44872 0.0
Dy124 Dy 0.57125 0.07168 0.11168 0.0
C125 C 0.40831 0.02568 0.92289 0.0
C126 C 0.67078 0.10767 0.17151 0.0
Dy127 Dy 0.48068 0.04959 0.0181 0.0
O128 O 0.6469 0.05643 0.16464 0.0
O129 O 0.63952 0.13991 0.14716 0.0
O130 O 0.54541 1.00627 0.17951 0.0
O131 O 0.49567 1.0044 0.10009 0.0
C132 C 0.50455 0.97844 0.14766 0.0
C133 C 0.5496 0.15007 1.01327 0.0
O134 O 0.42952 0.07587 0.09044 0.0
O135 O 0.5083 0.12455 0.14069 0.0
O136 O 0.46222 0.04827 0.9198 0.0
O137 O 0.39394 1.01407 0.97832 0.0
O138 O 0.49456 0.14156 1.00606 0.0
O139 O 0.56548 0.10474 0.02205 0.0
O140 O 0.61316 0.02789 0.04283 0.0
O141 O 0.53087 0.98659 0.9934 0.0
C142 C 0.45231 0.11429 0.12875 0.0
C143 C 0.58601 0.99133 1.00461 0.0
Dy144 Dy 0.51509 0.49605 0.47456 0.0
C145 C 0.44352 0.66666 0.61433 0.0
C146 C 0.59101 0.4361 0.43289 0.0
Dy147 Dy 0.49356 0.59281 0.55653 0.0
O148 O 0.5366 0.42726 0.41818 0.0
O149 O 0.60358 0.47879 0.46729 0.0
O150 O 0.43227 0.43413 0.49432 0.0
O151 O 0.44915 0.51083 0.53453 0.0
C152 C 0.41296 0.46606 0.53222 0.0
C153 C 0.5998 0.60289 0.51062 0.0
O154 O 0.51346 0.53682 0.62817 0.0
O155 O 0.55201 0.47935 0.56469 0.0
O156 O 0.4968 0.67581 0.59736 0.0
O157 O 0.41779 0.61713 0.60019 0.0
O158 O 0.58963 0.621 0.56332 0.0
O159 O 0.55281 0.58314 0.48537 0.0
O160 O 0.4881 0.55234 0.40294 0.0
O161 O 0.46124 0.61731 0.46755 0.0
C162 C 0.54197 0.49657 0.61902 0.0
C163 C 0.4668 0.59813 0.41282 0.0
Dy164 Dy 0.01908 0.52145 0.06282 0.0
C165 C 0.92242 0.68022 0.93432 0.0
C166 C 0.09731 0.45777 0.08794 0.0
Dy167 Dy 0.97649 0.60737 0.99155 0.0
O168 O 0.04197 0.441 0.09441 0.0
O169 O 0.10868 0.50804 0.06832 0.0
O170 O 1.00156 0.54526 0.15784 0.0
O171 O 0.98081 0.5931 0.08728 0.0
C172 C 0.98153 0.58917 0.14374 0.0
C173 C 0.04079 0.54914 0.92693 0.0
O174 O 0.05149 0.65838 0.03736 0.0
O175 O 0.09573 0.58413 0.03801 0.0
O176 O 0.96131 0.69333 0.97529 0.0
O177 O 0.91219 0.62738 0.9256 0.0
O178 O 0.04112 0.60139 0.92005 0.0
O179 O 1.00407 0.52964 0.96641 0.0
O180 O 0.93524 0.47071 0.03369 0.0
O181 O 0.89529 0.54746 1.01328 0.0
C182 C 0.09802 0.63733 0.04384 0.0
C183 C 0.89031 0.49335 0.02081 0.0
C184 C 0.28285 0.23398 0.32761 0.0
C185 C 0.26953 0.23515 0.26694 0.0
H186 H 0.25724 0.19828 0.41283 0.0
C187 C 0.22394 0.19641 0.24322 0.0
H188 H 0.31747 0.26432 0.34613 0.0
C189 C 0.18853 0.15987 0.28094 0.0
C190 C 0.19923 0.16149 0.34244 0.0
H191 H 0.21302 0.19793 0.19625 0.0
H192 H 0.15142 0.1325 0.26252 0.0
C193 C 0.24803 0.19684 0.36533 0.0
C194 C 0.36609 0.99587 0.76288 0.0
C195 C 0.31616 0.95567 0.7704 0.0
H196 H 0.43538 0.04951 0.80646 0.0
C197 C 0.28969 0.94889 0.82667 0.0
H198 H 0.38748 1.00089 0.71992 0.0
C199 C 0.31744 0.97558 0.87658 0.0
C200 C 0.37169 1.00963 0.87025 0.0
H201 H 0.25162 0.91729 0.83322 0.0
H202 H 0.29906 0.96551 0.92048 0.0
C203 C 0.39396 1.0226 0.81263 0.0
C204 C 0.5896 0.47112 0.77718 0.0
C205 C 0.61275 0.42332 0.77014 0.0
H206 H 0.54869 0.53164 0.73519 0.0
C207 C 0.61143 0.39883 0.71371 0.0
H208 H 0.59 0.49028 0.82063 0.0
C209 C 0.58815 0.42241 0.66461 0.0
C210 C 0.5652 0.47064 0.67133 0.0
H211 H 0.62933 0.36202 0.70759 0.0
H212 H 0.5883 0.40288 0.62142 0.0
C213 C 0.56583 0.49448 0.72834 0.0
C214 C 0.96323 0.65919 0.2928 0.0
C215 C 0.92507 0.69452 0.27845 0.0
H216 H 1.00966 0.59792 0.26232 0.0
C217 C 0.91077 0.69955 0.21761 0.0
H218 H 0.9734 0.65269 0.33922 0.0
C219 C 0.93123 0.6678 0.17307 0.0
C220 C 0.9656 0.62911 0.18842 0.0
H221 H 0.87981 0.72475 0.20526 0.0
H222 H 0.91716 0.67102 0.12729 0.0
C223 C 0.98285 0.62678 0.24866 0.0
C224 C 0.40383 0.23525 0.20245 0.0
C225 C 0.35353 0.2372 0.17011 0.0
H226 H 0.47534 0.19453 0.21477 0.0
C227 C 0.33304 0.19589 0.12877 0.0
H228 H 0.41921 0.26651 0.23551 0.0
C229 C 0.36371 0.15407 0.11812 0.0
C230 C 0.41595 0.15331 0.14813 0.0
H231 H 0.29335 0.19617 0.1048 0.0
H232 H 0.34733 0.12355 0.08462 0.0
C233 C 0.43539 0.19398 0.191 0.0
C234 C 0.2031 0.95427 0.67232 0.0
C235 C 0.25484 0.94491 0.64825 0.0
H236 H 0.12484 0.98364 0.65541 0.0
C237 C 0.27093 0.96433 0.59042 0.0
H238 H 0.19 0.93934 0.71676 0.0
C239 C 0.233 0.98694 0.5546 0.0
C240 C 0.17942 0.99263 0.57707 0.0
H241 H 0.31126 0.95832 0.5716 0.0
H242 H 0.24512 0.99898 0.50904 0.0
C243 C 0.16573 0.97864 0.63703 0.0
C244 C 0.7336 0.45423 0.98189 0.0
C245 C 0.73281 0.40645 0.94806 0.0
H246 H 0.78462 0.51944 0.03193 0.0
C247 C 0.78098 0.38114 0.94909 0.0
H248 H 0.69675 0.47426 0.9815 0.0
C249 C 0.83144 0.4067 0.97832 0.0
C250 C 0.83421 0.45812 1.00624 0.0
H251 H 0.7813 0.34461 0.92261 0.0
H252 H 0.86958 0.38888 0.97421 0.0
C253 C 0.78395 0.48013 1.01034 0.0
C254 C 0.7565 0.66308 0.47843 0.0
C255 C 0.75713 0.6665 0.41561 0.0
H256 H 0.70632 0.64051 0.55769 0.0
C257 C 0.70631 0.64557 0.38421 0.0
H258 H 0.79529 0.67789 0.50372 0.0
C259 C 0.65573 0.62276 0.41499 0.0
C260 C 0.65465 0.62133 0.47793 0.0
H261 H 0.70544 0.64806 0.33589 0.0
H262 H 0.61698 0.60799 0.38952 0.0
C263 C 0.70573 0.64127 0.50926 0.0
C264 C 0.24233 0.42884 0.12925 0.0
C265 C 0.22976 0.3718 0.13842 0.0
H266 H 0.20938 0.50091 0.10585 0.0
C267 C 0.17395 0.34204 0.12778 0.0
H268 H 0.28495 0.45213 0.13857 0.0
C269 C 0.13024 0.36965 0.11076 0.0
C270 C 0.14245 0.4271 0.1033 0.0
H271 H 0.16389 0.29782 0.13564 0.0
H272 H 0.08706 0.34639 0.10438 0.0
C273 C 0.19901 0.45638 0.11127 0.0
C274 C 0.59573 0.30128 0.97842 0.0
C275 C 0.64104 0.30087 0.9385 0.0
H276 H 0.53071 0.25284 0.03326 0.0
C277 C 0.66252 0.25209 0.93132 0.0
H278 H 0.57805 0.33837 0.98344 0.0
C279 C 0.63617 0.20322 0.9605 0.0
C280 C 0.58708 0.20259 0.99571 0.0
H281 H 0.69672 0.25095 0.89968 0.0
H282 H 0.65097 0.16519 0.95134 0.0
C283 C 0.5685 0.25239 1.00629 0.0
C284 C 0.94083 0.84556 0.33682 0.0
C285 C 0.9385 0.79613 0.36956 0.0
H286 H 0.96639 0.93443 0.33551 0.0
C287 C 0.96768 0.79941 0.42477 0.0
H288 H 0.9171 0.84492 0.29532 0.0
C289 C 0.99321 0.85063 0.4493 0.0
C290 C 0.99214 0.9004 0.41852 0.0
H291 H 0.96515 0.7625 0.452 0.0
H292 H 1.01175 0.85135 0.49368 0.0
C293 C 0.96805 0.89701 0.36059 0.0
C294 C 0.41552 0.80384 0.66412 0.0
C295 C 0.35633 0.79073 0.67478 0.0
H296 H 0.49019 0.77382 0.63686 0.0
C297 C 0.32656 0.73632 0.66944 0.0
H298 H 0.43861 0.84604 0.66827 0.0
C299 C 0.35555 0.69519 0.6516 0.0
C300 C 0.41456 0.70844 0.63916 0.0
H301 H 0.28081 0.72618 0.67793 0.0
H302 H 0.3316 0.65344 0.64615 0.0
C303 C 0.44465 0.76279 0.64641 0.0
C304 C 0.88259 0.94376 0.79665 0.0
C305 C 0.84941 0.89248 0.78093 0.0
H306 H 0.94908 1.01083 0.76983 0.0
C307 C 0.86465 0.86415 0.73145 0.0
H308 H 0.87216 0.96514 0.836 0.0
C309 C 0.9092 0.88957 0.69426 0.0
C310 C 0.93829 0.94353 0.70651 0.0
H311 H 0.83956 0.82421 0.71951 0.0
H312 H 0.91786 0.86877 0.65377 0.0
C313 C 0.92655 0.96949 0.75926 0.0
C314 C 0.74707 0.13484 0.3163 0.0
C315 C 0.78232 0.18591 0.30292 0.0
H316 H 0.68295 0.06888 0.28281 0.0
C317 C 0.79417 0.20079 0.24297 0.0
H318 H 0.73757 0.12269 0.36238 0.0
C319 C 0.76039 0.17229 0.19789 0.0
C320 C 0.71814 0.12639 0.21262 0.0
H321 H 0.82198 0.23981 0.23216 0.0
H322 H 0.76371 0.18886 0.15276 0.0
C323 C 0.71515 0.10477 0.27094 0.0
C324 C 0.43853 0.6493 0.25528 0.0
C325 C 0.41582 0.69685 0.26765 0.0
H326 H 0.47151 0.58014 0.29075 0.0
C327 C 0.41534 0.71418 0.32706 0.0
H328 H 0.43868 0.63466 0.20978 0.0
C329 C 0.43299 0.68266 0.37346 0.0
C330 C 0.45183 0.63272 0.36182 0.0
H331 H 0.39687 0.74976 0.33804 0.0
H332 H 0.42966 0.69668 0.41885 0.0
C333 C 0.45633 0.61755 0.30177 0.0
C334 C 0.11817 0.51373 0.788 0.0
C335 C 0.12207 0.45818 0.79743 0.0
H336 H 0.09057 0.58547 0.82121 0.0
C337 C 0.0984 0.43196 0.85046 0.0
H338 H 0.13474 0.53485 0.7473 0.0
C339 C 0.07149 0.4608 0.89275 0.0
C340 C 0.06838 0.51669 0.88324 0.0
H341 H 0.10116 0.38934 0.8594 0.0
H342 H 0.05376 0.43962 0.93306 0.0
C343 C 0.09234 0.54262 0.83039 0.0
C344 C 0.70936 0.93227 0.94558 0.0
C345 C 0.68226 0.89822 0.90002 0.0
H346 H 0.69987 0.98864 1.015 0.0
C347 C 0.62328 0.89223 0.89064 0.0
H348 H 0.75524 0.93689 0.95266 0.0
C349 C 0.59141 0.9215 0.92595 0.0
C350 C 0.61863 0.95715 0.9707 0.0
H351 H 0.60246 0.86598 0.85524 0.0
H352 H 0.54584 0.91715 0.91718 0.0
C353 C 0.67776 0.96166 0.98082 0.0
C354 C 0.89093 0.1843 0.39045 0.0
C355 C 0.8423 0.19202 0.42297 0.0
H356 H 0.96688 0.14811 0.38926 0.0
C357 C 0.83017 0.16384 0.47746 0.0
H358 H 0.90085 0.20512 0.3479 0.0
C359 C 0.86789 0.13223 0.50123 0.0
C360 C 0.9181 0.1266 0.47043 0.0
H361 H 0.79184 0.1669 0.50225 0.0
H362 H 0.85803 0.1128 0.54454 0.0
C363 C 0.92852 0.15163 0.4139 0.0
C364 C 0.25062 0.66997 0.0925 0.0
C365 C 0.2467 0.70345 0.14188 0.0
H366 H 0.20574 0.62407 0.02061 0.0
C367 C 0.19544 0.72179 0.15348 0.0
H368 H 0.29038 0.65637 0.08276 0.0
C369 C 0.14751 0.70484 0.11713 0.0
C370 C 0.15062 0.66877 0.06962 0.0
H371 H 0.19219 0.74767 0.19172 0.0
H372 H 0.10719 0.71654 0.12878 0.0
C373 C 0.2028 0.65253 0.05665 0.0
C374 C 0.2912 0.38257 0.62629 0.0
C375 C 0.25653 0.42172 0.6375 0.0
H376 H 0.36747 0.36586 0.58373 0.0
C377 C 0.27228 0.47438 0.61035 0.0
H378 H 0.28092 0.34188 0.64655 0.0
C379 C 0.32319 0.48904 0.57717 0.0
C380 C 0.35868 0.45059 0.56748 0.0
H381 H 0.24571 0.50504 0.6162 0.0
H382 H 0.33442 0.53034 0.55846 0.0
C383 C 0.34121 0.39665 0.59091 0.0
C384 C 0.81293 0.73515 0.84243 0.0
C385 C 0.82558 0.79111 0.85737 0.0
H386 H 0.83451 0.65555 0.85534 0.0
C387 C 0.87331 0.81164 0.89316 0.0
H388 H 0.77581 0.71916 0.81506 0.0
C389 C 0.9065 0.77568 0.91667 0.0
C390 C 0.89203 0.719 0.90437 0.0
H391 H 0.88284 0.85488 0.90536 0.0
H392 H 0.942 0.79183 0.94613 0.0
C393 C 0.84616 0.69914 0.86566 0.0
C394 C 0.43723 0.85623 0.24319 0.0
C395 C 0.42753 0.81334 0.20147 0.0
H396 H 0.46833 0.94269 0.25812 0.0
C397 C 0.44787 0.82446 0.14262 0.0
H398 H 0.42047 0.84914 0.28813 0.0
C399 C 0.47101 0.87854 0.12415 0.0
C400 C 0.47674 0.92195 0.16507 0.0
H401 H 0.43942 0.79224 0.10931 0.0
H402 H 0.48381 0.88648 0.07795 0.0
C403 C 0.46252 0.90993 0.22535 0.0
C404 C 0.14711 0.31319 0.59129 0.0
C405 C 0.15911 0.31599 0.6528 0.0
H406 H 0.1165 0.26125 0.51664 0.0
C407 C 0.15267 0.26621 0.6856 0.0
H408 H 0.15069 0.35087 0.56519 0.0
C409 C 0.13192 0.21508 0.65854 0.0
C410 C 0.11738 0.21212 0.59753 0.0
H411 H 0.16111 0.26729 0.73323 0.0
H412 H 0.12608 0.17796 0.68586 0.0
C413 C 0.12673 0.26181 0.56387 0.0
C414 C 0.6489 0.30533 0.41056 0.0
C415 C 0.70847 0.3253 0.41392 0.0
H416 H 0.56471 0.32538 0.41142 0.0
C417 C 0.72897 0.38166 0.42347 0.0
H418 H 0.63252 0.26189 0.40252 0.0
C419 C 0.6905 0.41781 0.4287 0.0
C420 C 0.63102 0.39824 0.42303 0.0
H421 H 0.77474 0.39778 0.425 0.0
H422 H 0.70731 0.46127 0.43629 0.0
C423 C 0.61042 0.34163 0.41441 0.0
loop_
_geom_bond_atom_site_label_1
_geom_bond_atom_site_label_2
_geom_bond_distance
_geom_bond_site_symmetry_2
_ccdc_geom_bond_type
C0 N1 1.317 . S
C0 N2 1.348 . S
C0 C3 1.485 . S
N1 C0 1.317 . S
N1 N5 1.370 . S
N2 C0 1.348 . S
N2 C4 1.346 . S
C3 C0 1.485 . S
C3 H7 0.960 . S
C3 H8 0.961 . S
C3 H9 0.960 . S
C4 N2 1.346 . S
C4 N5 1.307 . S
C4 C6 1.486 . S
N5 N1 1.370 . S
N5 C4 1.307 . S
C6 C4 1.486 . S
C6 H10 0.960 . S
C6 H11 0.960 . S
C6 H12 0.959 . S
H7 C3 0.960 . S
H8 C3 0.961 . S
H9 C3 0.960 . S
H10 C6 0.960 . S
H11 C6 0.960 . S
H12 C6 0.959 . S
C13 N14 1.317 . S
C13 N15 1.348 . S
C13 C16 1.485 . S
N14 C13 1.317 . S
N14 N18 1.370 . S
N15 C13 1.348 . S
N15 C17 1.346 . S
C16 C13 1.485 . S
C16 H20 0.960 . S
C16 H21 0.961 . S
C16 H22 0.960 . S
C17 N15 1.346 . S
C17 N18 1.307 . S
C17 C19 1.486 . S
N18 N14 1.370 . S
N18 C17 1.307 . S
C19 C17 1.486 . S
C19 H23 0.960 . S
C19 H24 0.960 . S
C19 H25 0.959 . S
H20 C16 0.960 . S
H21 C16 0.961 . S
H22 C16 0.960 . S
H23 C19 0.960 . S
H24 C19 0.960 . S
H25 C19 0.959 . S
C26 N27 1.317 . S
C26 N28 1.348 . S
C26 C29 1.485 . S
N27 C26 1.317 . S
N27 N31 1.370 . S
N28 C26 1.348 . S
N28 C30 1.346 . S
C29 C26 1.485 . S
C29 H33 0.960 . S
C29 H34 0.961 . S
C29 H35 0.960 . S
C30 N28 1.346 . S
C30 N31 1.307 . S
C30 C32 1.486 . S
N31 N27 1.370 . S
N31 C30 1.307 . S
C32 C30 1.486 . S
C32 H36 0.960 . S
C32 H37 0.960 . S
C32 H38 0.959 . S
H33 C29 0.960 . S
H34 C29 0.961 . S
H35 C29 0.960 . S
H36 C32 0.960 . S
H37 C32 0.960 . S
H38 C32 0.959 . S
C39 N40 1.317 . S
C39 N41 1.348 . S
C39 C42 1.485 . S
N40 C39 1.317 . S
N40 N44 1.370 . S
N41 C39 1.348 . S
N41 C43 1.346 . S
C42 C39 1.485 . S
C42 H46 0.960 . S
C42 H47 0.961 . S
C42 H48 0.960 . S
C43 N41 1.346 . S
C43 N44 1.307 . S
C43 C45 1.486 . S
N44 N40 1.370 . S
N44 C43 1.307 . S
C45 C43 1.486 . S
C45 H49 0.960 . S
C45 H50 0.960 . S
C45 H51 0.959 . S
H46 C42 0.960 . S
H47 C42 0.961 . S
H48 C42 0.960 . S
H49 C45 0.960 . S
H50 C45 0.960 . S
H51 C45 0.959 . S
C52 N53 1.317 . S
C52 N54 1.348 . S
C52 C55 1.485 . S
N53 C52 1.317 . S
N53 N57 1.370 . S
N54 C52 1.348 . S
N54 C56 1.346 . S
C55 C52 1.485 . S
C55 H59 0.960 . S
C55 H60 0.961 . S
C55 H61 0.960 . S
C56 N54 1.346 . S
C56 N57 1.307 . S
C56 C58 1.486 . S
N57 N53 1.370 . S
N57 C56 1.307 . S
C58 C56 1.486 . S
C58 H62 0.960 . S
C58 H63 0.960 . S
C58 H64 0.959 . S
H59 C55 0.960 . S
H60 C55 0.961 . S
H61 C55 0.960 . S
H62 C58 0.960 . S
H63 C58 0.960 . S
H64 C58 0.959 . S
C65 N66 1.317 . S
C65 N67 1.348 . S
C65 C68 1.485 . S
N66 C65 1.317 . S
N66 N70 1.370 . S
N67 C65 1.348 . S
N67 C69 1.346 . S
C68 C65 1.485 . S
C68 H72 0.960 . S
C68 H73 0.961 . S
C68 H74 0.960 . S
C69 N67 1.346 . S
C69 N70 1.307 . S
C69 C71 1.486 . S
N70 N66 1.370 . S
N70 C69 1.307 . S
C71 C69 1.486 . S
C71 H75 0.960 . S
C71 H76 0.960 . S
C71 H77 0.959 . S
H72 C68 0.960 . S
H73 C68 0.961 . S
H74 C68 0.960 . S
H75 C71 0.960 . S
H76 C71 0.960 . S
H77 C71 0.959 . S
C78 N79 1.317 . S
C78 N80 1.348 . S
C78 C81 1.485 . S
N79 C78 1.317 . S
N79 N83 1.370 . S
N80 C78 1.348 . S
N80 C82 1.346 . S
C81 C78 1.485 . S
C81 H85 0.960 . S
C81 H86 0.961 . S
C81 H87 0.960 . S
C82 N80 1.346 . S
C82 N83 1.307 . S
C82 C84 1.486 . S
N83 N79 1.370 . S
N83 C82 1.307 . S
C84 C82 1.486 . S
C84 H88 0.960 . S
C84 H89 0.960 . S
C84 H90 0.959 . S
H85 C81 0.960 . S
H86 C81 0.961 . S
H87 C81 0.960 . S
H88 C84 0.960 . S
H89 C84 0.960 . S
H90 C84 0.959 . S
C91 N92 1.317 . S
C91 N93 1.348 . S
C91 C94 1.485 . S
N92 C91 1.317 . S
N92 N96 1.370 . S
N93 C91 1.348 . S
N93 C95 1.346 . S
C94 C91 1.485 . S
C94 H98 0.960 . S
C94 H99 0.961 . S
C94 H100 0.960 . S
C95 N93 1.346 . S
C95 N96 1.307 . S
C95 C97 1.486 . S
N96 N92 1.370 . S
N96 C95 1.307 . S
C97 C95 1.486 . S
C97 H101 0.960 . S
C97 H102 0.960 . S
C97 H103 0.959 . S
H98 C94 0.960 . S
H99 C94 0.961 . S
H100 C94 0.960 . S
H101 C97 0.960 . S
H102 C97 0.960 . S
H103 C97 0.959 . S
Dy104 O108 2.398 . S
Dy104 O109 2.491 . S
Dy104 O110 2.398 1_545 S
Dy104 O111 2.664 1_545 S
Dy104 O115 2.326 . S
Dy104 O119 2.310 . S
Dy104 O120 2.351 1_545 S
C105 O116 1.185 . S
C105 O117 1.355 . S
C106 O108 1.185 . S
C106 O109 1.355 . S
Dy107 O111 2.311 1_545 S
Dy107 O114 2.352 . S
Dy107 O116 2.397 1_445 S
Dy107 O117 2.492 1_445 S
Dy107 O118 2.402 1_455 S
Dy107 O119 2.664 . S
Dy107 O121 2.326 1_445 S
O108 Dy104 2.398 . S
O108 C106 1.185 . S
O109 Dy104 2.491 . S
O109 C106 1.355 . S
O110 Dy104 2.398 1_565 S
O110 C112 1.257 . S
O111 Dy104 2.664 1_565 S
O111 Dy107 2.311 1_565 S
O111 C112 1.268 . S
C112 O110 1.257 . S
C112 O111 1.268 . S
C113 O118 1.254 . S
C113 O119 1.268 1_655 S
O114 Dy107 2.352 . S
O114 C122 1.249 . S
O115 Dy104 2.326 . S
O115 C122 1.267 . S
O116 C105 1.185 . S
O116 Dy107 2.397 1_665 S
O117 C105 1.355 . S
O117 Dy107 2.492 1_665 S
O118 Dy107 2.402 1_655 S
O118 C113 1.254 . S
O119 Dy104 2.310 . S
O119 Dy107 2.664 . S
O119 C113 1.268 1_455 S
O120 Dy104 2.351 1_565 S
O120 C123 1.249 1_455 S
O121 Dy107 2.326 1_665 S
O121 C123 1.267 . S
C122 O114 1.249 . S
C122 O115 1.267 . S
C123 O120 1.249 1_655 S
C123 O121 1.267 . S
Dy124 O128 2.398 . S
Dy124 O129 2.491 . S
Dy124 O130 2.403 1_545 S
Dy124 O131 2.664 1_545 S
Dy124 O135 2.326 . S
Dy124 O139 2.310 . S
Dy124 O140 2.351 1_545 S
C125 O136 1.185 1_565 S
C125 O137 1.355 . S
C126 O128 1.185 . S
C126 O129 1.355 . S
Dy127 O131 2.310 1_546 S
Dy127 O134 2.351 1_556 S
Dy127 O136 2.398 . S
Dy127 O137 2.491 1_545 S
Dy127 O138 2.403 . S
Dy127 O139 2.664 1_556 S
Dy127 O141 2.326 . S
O128 Dy124 2.398 . S
O128 C126 1.185 . S
O129 Dy124 2.491 . S
O129 C126 1.355 . S
O130 Dy124 2.403 1_565 S
O130 C132 1.254 . S
O131 Dy124 2.664 1_565 S
O131 Dy127 2.310 1_564 S
O131 C132 1.268 . S
C132 O130 1.254 . S
C132 O131 1.268 . S
C133 O138 1.254 . S
C133 O139 1.268 1_556 S
O134 Dy127 2.351 1_554 S
O134 C142 1.249 . S
O135 Dy124 2.326 . S
O135 C142 1.267 . S
O136 C125 1.185 1_545 S
O136 Dy127 2.398 . S
O137 C125 1.355 . S
O137 Dy127 2.491 1_565 S
O138 Dy127 2.403 . S
O138 C133 1.254 . S
O139 Dy124 2.310 . S
O139 Dy127 2.664 1_554 S
O139 C133 1.268 1_554 S
O140 Dy124 2.351 1_565 S
O140 C143 1.249 1_554 S
O141 Dy127 2.326 . S
O141 C143 1.267 1_545 S
C142 O134 1.249 . S
C142 O135 1.267 . S
C143 O140 1.249 1_556 S
C143 O141 1.267 1_565 S
Dy144 O148 2.398 . S
Dy144 O149 2.491 . S
Dy144 O150 2.403 . S
Dy144 O151 2.664 . S
Dy144 O155 2.326 . S
Dy144 O159 2.310 . S
Dy144 O160 2.351 . S
C145 O156 1.185 . S
C145 O157 1.355 . S
C146 O148 1.185 . S
C146 O149 1.355 . S
Dy147 O151 2.310 . S
Dy147 O154 2.351 . S
Dy147 O156 2.398 . S
Dy147 O157 2.491 . S
Dy147 O158 2.403 . S
Dy147 O159 2.664 . S
Dy147 O161 2.326 . S
O148 Dy144 2.398 . S
O148 C146 1.185 . S
O149 Dy144 2.491 . S
O149 C146 1.355 . S
O150 Dy144 2.403 . S
O150 C152 1.254 . S
O151 Dy144 2.664 . S
O151 Dy147 2.310 . S
O151 C152 1.268 . S
C152 O150 1.254 . S
C152 O151 1.268 . S
C153 O158 1.254 . S
C153 O159 1.268 . S
O154 Dy147 2.351 . S
O154 C162 1.249 . S
O155 Dy144 2.326 . S
O155 C162 1.267 . S
O156 C145 1.185 . S
O156 Dy147 2.398 . S
O157 C145 1.355 . S
O157 Dy147 2.491 . S
O158 Dy147 2.403 . S
O158 C153 1.254 . S
O159 Dy144 2.310 . S
O159 Dy147 2.664 . S
O159 C153 1.268 . S
O160 Dy144 2.351 . S
O160 C163 1.249 . S
O161 Dy147 2.326 . S
O161 C163 1.267 . S
C162 O154 1.249 . S
C162 O155 1.267 . S
C163 O160 1.249 . S
C163 O161 1.267 . S
Dy164 O168 2.398 . S
Dy164 O169 2.491 . S
Dy164 O170 2.403 1_455 S
Dy164 O171 2.664 1_455 S
Dy164 O175 2.326 . S
Dy164 O179 2.310 1_554 S
Dy164 O180 2.351 1_454 S
C165 O176 1.185 . S
C165 O177 1.355 . S
C166 O168 1.185 . S
C166 O169 1.355 . S
Dy167 O171 2.310 1_556 S
Dy167 O174 2.351 1_656 S
Dy167 O176 2.398 . S
Dy167 O177 2.491 . S
Dy167 O178 2.403 1_655 S
Dy167 O179 2.664 1_655 S
Dy167 O181 2.326 . S
O168 Dy164 2.398 . S
O168 C166 1.185 . S
O169 Dy164 2.491 . S
O169 C166 1.355 . S
O170 Dy164 2.403 1_655 S
O170 C172 1.254 . S
O171 Dy164 2.664 1_655 S
O171 Dy167 2.310 1_554 S
O171 C172 1.268 . S
C172 O170 1.254 . S
C172 O171 1.268 . S
C173 O178 1.254 . S
C173 O179 1.268 . S
O174 Dy167 2.351 1_454 S
O174 C182 1.249 . S
O175 Dy164 2.326 . S
O175 C182 1.267 . S
O176 C165 1.185 . S
O176 Dy167 2.398 . S
O177 C165 1.355 . S
O177 Dy167 2.491 . S
O178 Dy167 2.403 1_455 S
O178 C173 1.254 . S
O179 Dy164 2.310 1_556 S
O179 Dy167 2.664 1_455 S
O179 C173 1.268 . S
O180 Dy164 2.351 1_656 S
O180 C183 1.249 . S
O181 Dy167 2.326 . S
O181 C183 1.267 . S
C182 O174 1.249 . S
C182 O175 1.267 . S
C183 O180 1.249 . S
C183 O181 1.267 . S
C184 C185 1.387 . S
C184 H188 0.950 . S
C184 C193 1.390 . S
C185 C184 1.387 . S
C185 C187 1.387 . S
H186 C193 0.950 . S
C187 C185 1.387 . S
C187 C189 1.390 . S
C187 H191 0.950 . S
H188 C184 0.950 . S
C189 C187 1.390 . S
C189 C190 1.387 . S
C189 H192 0.950 . S
C190 C189 1.387 . S
C190 C193 1.387 . S
H191 C187 0.950 . S
H192 C189 0.950 . S
C193 C184 1.390 . S
C193 H186 0.950 . S
C193 C190 1.387 . S
C194 C195 1.387 . S
C194 H198 0.950 1_565 S
C194 C203 1.390 . S
C195 C194 1.387 . S
C195 C197 1.387 . S
H196 C203 0.950 1_545 S
C197 C195 1.387 . S
C197 C199 1.390 . S
C197 H201 0.950 . S
H198 C194 0.950 1_545 S
C199 C197 1.390 . S
C199 C200 1.387 . S
C199 H202 0.950 . S
C200 C199 1.387 . S
C200 C203 1.387 . S
H201 C197 0.950 . S
H202 C199 0.950 . S
C203 C194 1.390 . S
C203 H196 0.950 1_565 S
C203 C200 1.387 . S
C204 C205 1.387 . S
C204 H208 0.950 . S
C204 C213 1.390 . S
C205 C204 1.387 . S
C205 C207 1.387 . S
H206 C213 0.950 . S
C207 C205 1.387 . S
C207 C209 1.390 . S
C207 H211 0.950 . S
H208 C204 0.950 . S
C209 C207 1.390 . S
C209 C210 1.387 . S
C209 H212 0.950 . S
C210 C209 1.387 . S
C210 C213 1.387 . S
H211 C207 0.950 . S
H212 C209 0.950 . S
C213 C204 1.390 . S
C213 H206 0.950 . S
C213 C210 1.387 . S
C214 C215 1.387 . S
C214 H218 0.950 . S
C214 C223 1.390 . S
C215 C214 1.387 . S
C215 C217 1.387 . S
H216 C223 0.950 . S
C217 C215 1.387 . S
C217 C219 1.390 . S
C217 H221 0.950 . S
H218 C214 0.950 . S
C219 C217 1.390 . S
C219 C220 1.387 . S
C219 H222 0.950 . S
C220 C219 1.387 . S
C220 C223 1.387 . S
H221 C217 0.950 . S
H222 C219 0.950 . S
C223 C214 1.390 . S
C223 H216 0.950 . S
C223 C220 1.387 . S
C224 C225 1.387 . S
C224 H228 0.950 . S
C224 C233 1.390 . S
C225 C224 1.387 . S
C225 C227 1.387 . S
H226 C233 0.950 . S
C227 C225 1.387 . S
C227 C229 1.390 . S
C227 H231 0.950 . S
H228 C224 0.950 . S
C229 C227 1.390 . S
C229 C230 1.387 . S
C229 H232 0.950 . S
C230 C229 1.387 . S
C230 C233 1.387 . S
H231 C227 0.950 . S
H232 C229 0.950 . S
C233 C224 1.390 . S
C233 H226 0.950 . S
C233 C230 1.387 . S
C234 C235 1.387 . S
C234 H238 0.950 . S
C234 C243 1.390 . S
C235 C234 1.387 . S
C235 C237 1.387 . S
H236 C243 0.950 . S
C237 C235 1.387 . S
C237 C239 1.390 . S
C237 H241 0.950 . S
H238 C234 0.950 . S
C239 C237 1.390 . S
C239 C240 1.387 . S
C239 H242 0.950 . S
C240 C239 1.387 . S
C240 C243 1.387 . S
H241 C237 0.950 . S
H242 C239 0.950 . S
C243 C234 1.390 . S
C243 H236 0.950 . S
C243 C240 1.387 . S
C244 C245 1.387 . S
C244 H248 0.950 . S
C244 C253 1.390 . S
C245 C244 1.387 . S
C245 C247 1.387 . S
H246 C253 0.950 . S
C247 C245 1.387 . S
C247 C249 1.390 . S
C247 H251 0.950 . S
H248 C244 0.950 . S
C249 C247 1.390 . S
C249 C250 1.387 . S
C249 H252 0.950 1_556 S
C250 C249 1.387 . S
C250 C253 1.387 . S
H251 C247 0.950 . S
H252 C249 0.950 1_554 S
C253 C244 1.390 . S
C253 H246 0.950 . S
C253 C250 1.387 . S
C254 C255 1.387 . S
C254 H258 0.950 . S
C254 C263 1.390 . S
C255 C254 1.387 . S
C255 C257 1.387 . S
H256 C263 0.950 . S
C257 C255 1.387 . S
C257 C259 1.390 . S
C257 H261 0.950 . S
H258 C254 0.950 . S
C259 C257 1.390 . S
C259 C260 1.387 . S
C259 H262 0.950 . S
C260 C259 1.387 . S
C260 C263 1.387 . S
H261 C257 0.950 . S
H262 C259 0.950 . S
C263 C254 1.390 . S
C263 H256 0.950 . S
C263 C260 1.387 . S
C264 C265 1.387 . S
C264 H268 0.950 . S
C264 C273 1.390 . S
C265 C264 1.387 . S
C265 C267 1.387 . S
H266 C273 0.950 . S
C267 C265 1.387 . S
C267 C269 1.390 . S
C267 H271 0.950 . S
H268 C264 0.950 . S
C269 C267 1.390 . S
C269 C270 1.387 . S
C269 H272 0.950 . S
C270 C269 1.387 . S
C270 C273 1.387 . S
H271 C267 0.950 . S
H272 C269 0.950 . S
C273 C264 1.390 . S
C273 H266 0.950 . S
C273 C270 1.387 . S
C274 C275 1.387 . S
C274 H278 0.950 . S
C274 C283 1.390 . S
C275 C274 1.387 . S
C275 C277 1.387 . S
H276 C283 0.950 1_554 S
C277 C275 1.387 . S
C277 C279 1.390 . S
C277 H281 0.950 . S
H278 C274 0.950 . S
C279 C277 1.390 . S
C279 C280 1.387 . S
C279 H282 0.950 . S
C280 C279 1.387 . S
C280 C283 1.387 . S
H281 C277 0.950 . S
H282 C279 0.950 . S
C283 C274 1.390 . S
C283 H276 0.950 1_556 S
C283 C280 1.387 . S
C284 C285 1.387 . S
C284 H288 0.950 . S
C284 C293 1.390 . S
C285 C284 1.387 . S
C285 C287 1.387 . S
H286 C293 0.950 . S
C287 C285 1.387 . S
C287 C289 1.390 . S
C287 H291 0.950 . S
H288 C284 0.950 . S
C289 C287 1.390 . S
C289 C290 1.387 . S
C289 H292 0.950 . S
C290 C289 1.387 . S
C290 C293 1.387 . S
H291 C287 0.950 . S
H292 C289 0.950 . S
C293 C284 1.390 . S
C293 H286 0.950 . S
C293 C290 1.387 . S
C294 C295 1.387 . S
C294 H298 0.950 . S
C294 C303 1.390 . S
C295 C294 1.387 . S
C295 C297 1.387 . S
H296 C303 0.950 . S
C297 C295 1.387 . S
C297 C299 1.390 . S
C297 H301 0.950 . S
H298 C294 0.950 . S
C299 C297 1.390 . S
C299 C300 1.387 . S
C299 H302 0.950 . S
C300 C299 1.387 . S
C300 C303 1.387 . S
H301 C297 0.950 . S
H302 C299 0.950 . S
C303 C294 1.390 . S
C303 H296 0.950 . S
C303 C300 1.387 . S
C304 C305 1.387 . S
C304 H308 0.950 . S
C304 C313 1.390 . S
C305 C304 1.387 . S
C305 C307 1.387 . S
H306 C313 0.950 . S
C307 C305 1.387 . S
C307 C309 1.390 . S
C307 H311 0.950 . S
H308 C304 0.950 . S
C309 C307 1.390 . S
C309 C310 1.387 . S
C309 H312 0.950 . S
C310 C309 1.387 . S
C310 C313 1.387 . S
H311 C307 0.950 . S
H312 C309 0.950 . S
C313 C304 1.390 . S
C313 H306 0.950 . S
C313 C310 1.387 . S
C314 C315 1.387 . S
C314 H318 0.950 . S
C314 C323 1.390 . S
C315 C314 1.387 . S
C315 C317 1.387 . S
H316 C323 0.950 . S
C317 C315 1.387 . S
C317 C319 1.390 . S
C317 H321 0.950 . S
H318 C314 0.950 . S
C319 C317 1.390 . S
C319 C320 1.387 . S
C319 H322 0.950 . S
C320 C319 1.387 . S
C320 C323 1.387 . S
H321 C317 0.950 . S
H322 C319 0.950 . S
C323 C314 1.390 . S
C323 H316 0.950 . S
C323 C320 1.387 . S
C324 C325 1.387 . S
C324 H328 0.950 . S
C324 C333 1.390 . S
C325 C324 1.387 . S
C325 C327 1.387 . S
H326 C333 0.950 . S
C327 C325 1.387 . S
C327 C329 1.390 . S
C327 H331 0.950 . S
H328 C324 0.950 . S
C329 C327 1.390 . S
C329 C330 1.387 . S
C329 H332 0.950 . S
C330 C329 1.387 . S
C330 C333 1.387 . S
H331 C327 0.950 . S
H332 C329 0.950 . S
C333 C324 1.390 . S
C333 H326 0.950 . S
C333 C330 1.387 . S
C334 C335 1.387 . S
C334 H338 0.950 . S
C334 C343 1.390 . S
C335 C334 1.387 . S
C335 C337 1.387 . S
H336 C343 0.950 . S
C337 C335 1.387 . S
C337 C339 1.390 . S
C337 H341 0.950 . S
H338 C334 0.950 . S
C339 C337 1.390 . S
C339 C340 1.387 . S
C339 H342 0.950 . S
C340 C339 1.387 . S
C340 C343 1.387 . S
H341 C337 0.950 . S
H342 C339 0.950 . S
C343 C334 1.390 . S
C343 H336 0.950 . S
C343 C340 1.387 . S
C344 C345 1.387 . S
C344 H348 0.950 . S
C344 C353 1.390 . S
C345 C344 1.387 . S
C345 C347 1.387 . S
H346 C353 0.950 . S
C347 C345 1.387 . S
C347 C349 1.390 . S
C347 H351 0.950 . S
H348 C344 0.950 . S
C349 C347 1.390 . S
C349 C350 1.387 . S
C349 H352 0.950 . S
C350 C349 1.387 . S
C350 C353 1.387 . S
H351 C347 0.950 . S
H352 C349 0.950 . S
C353 C344 1.390 . S
C353 H346 0.950 . S
C353 C350 1.387 . S
C354 C355 1.387 . S
C354 H358 0.950 . S
C354 C363 1.390 . S
C355 C354 1.387 . S
C355 C357 1.387 . S
H356 C363 0.950 . S
C357 C355 1.387 . S
C357 C359 1.390 . S
C357 H361 0.950 . S
H358 C354 0.950 . S
C359 C357 1.390 . S
C359 C360 1.387 . S
C359 H362 0.950 . S
C360 C359 1.387 . S
C360 C363 1.387 . S
H361 C357 0.950 . S
H362 C359 0.950 . S
C363 C354 1.390 . S
C363 H356 0.950 . S
C363 C360 1.387 . S
C364 C365 1.387 . S
C364 H368 0.950 . S
C364 C373 1.390 . S
C365 C364 1.387 . S
C365 C367 1.387 . S
H366 C373 0.950 . S
C367 C365 1.387 . S
C367 C369 1.390 . S
C367 H371 0.950 . S
H368 C364 0.950 . S
C369 C367 1.390 . S
C369 C370 1.387 . S
C369 H372 0.950 . S
C370 C369 1.387 . S
C370 C373 1.387 . S
H371 C367 0.950 . S
H372 C369 0.950 . S
C373 C364 1.390 . S
C373 H366 0.950 . S
C373 C370 1.387 . S
C374 C375 1.387 . S
C374 H378 0.950 . S
C374 C383 1.390 . S
C375 C374 1.387 . S
C375 C377 1.387 . S
H376 C383 0.950 . S
C377 C375 1.387 . S
C377 C379 1.390 . S
C377 H381 0.950 . S
H378 C374 0.950 . S
C379 C377 1.390 . S
C379 C380 1.387 . S
C379 H382 0.950 . S
C380 C379 1.387 . S
C380 C383 1.387 . S
H381 C377 0.950 . S
H382 C379 0.950 . S
C383 C374 1.390 . S
C383 H376 0.950 . S
C383 C380 1.387 . S
C384 C385 1.387 . S
C384 H388 0.950 . S
C384 C393 1.390 . S
C385 C384 1.387 . S
C385 C387 1.387 . S
H386 C393 0.950 . S
C387 C385 1.387 . S
C387 C389 1.390 . S
C387 H391 0.950 . S
H388 C384 0.950 . S
C389 C387 1.390 . S
C389 C390 1.387 . S
C389 H392 0.950 . S
C390 C389 1.387 . S
C390 C393 1.387 . S
H391 C387 0.950 . S
H392 C389 0.950 . S
C393 C384 1.390 . S
C393 H386 0.950 . S
C393 C390 1.387 . S
C394 C395 1.387 . S
C394 H398 0.950 . S
C394 C403 1.390 . S
C395 C394 1.387 . S
C395 C397 1.387 . S
H396 C403 0.950 . S
C397 C395 1.387 . S
C397 C399 1.390 . S
C397 H401 0.950 . S
H398 C394 0.950 . S
C399 C397 1.390 . S
C399 C400 1.387 . S
C399 H402 0.950 . S
C400 C399 1.387 . S
C400 C403 1.387 . S
H401 C397 0.950 . S
H402 C399 0.950 . S
C403 C394 1.390 . S
C403 H396 0.950 . S
C403 C400 1.387 . S
C404 C405 1.387 . S
C404 H408 0.950 . S
C404 C413 1.390 . S
C405 C404 1.387 . S
C405 C407 1.387 . S
H406 C413 0.950 . S
C407 C405 1.387 . S
C407 C409 1.390 . S
C407 H411 0.950 . S
H408 C404 0.950 . S
C409 C407 1.390 . S
C409 C410 1.387 . S
C409 H412 0.950 . S
C410 C409 1.387 . S
C410 C413 1.387 . S
H411 C407 0.950 . S
H412 C409 0.950 . S
C413 C404 1.390 . S
C413 H406 0.950 . S
C413 C410 1.387 . S
C414 C415 1.387 . S
C414 H418 0.950 . S
C414 C423 1.390 . S
C415 C414 1.387 . S
C415 C417 1.387 . S
H416 C423 0.950 . S
C417 C415 1.387 . S
C417 C419 1.390 . S
C417 H421 0.950 . S
H418 C414 0.950 . S
C419 C417 1.390 . S
C419 C420 1.387 . S
C419 H422 0.950 . S
C420 C419 1.387 . S
C420 C423 1.387 . S
H421 C417 0.950 . S
H422 C419 0.950 . S
C423 C414 1.390 . S
C423 H416 0.950 . S
C423 C420 1.387 . S
C185 N1 1.317 . S
C190 C106 1.349 . S
C195 N18 1.453 . S
C200 C125 1.473 . S
C210 C162 1.497 . S
C205 N28 1.528 . S
C215 N40 1.866 . S
C220 C172 1.873 . S
C230 C142 1.995 . S
C225 N5 1.970 . S
C240 C112 1.379 . S
C235 N14 1.406 . S
C250 C183 1.623 . S
C245 N31 1.611 . S
C260 C153 1.279 . S
C255 N41 1.298 . S
C265 N2 1.469 . S
C270 C166 1.500 . S
C280 C133 1.774 . S
C275 N27 1.827 . S
C285 N44 1.790 . S
C290 C123 1.824 . S
C295 N15 1.158 . S
C300 C145 1.131 . S
C310 C105 1.569 . S
C305 N57 1.607 . S
C315 N70 1.239 . S
C320 C126 1.262 . S
C325 N79 1.679 . S
C330 C163 1.713 . S
C335 N93 1.710 . S
C340 C173 1.692 . S
C345 N54 1.615 . S
C350 C143 1.676 . S
C360 C113 1.689 . S
C355 N66 1.782 . S
C370 C182 1.199 . S
C365 N80 1.233 . S
C380 C152 1.528 . S
C375 N96 1.532 . S
C385 N53 1.491 . S
C390 C165 1.520 . S
C400 C132 1.654 . S
C395 N83 1.653 . S
C410 C122 1.925 . S
C405 N92 1.898 . S
C415 N67 1.273 . S
C420 C146 1.308 . S
