# Generated by pormake.
# Topology zzz, (3,6)-cn, num edge types: 1
# Building blocks:
#     Node 0, Type 0, BuildingBlock: VETTIZ_charged_linker_0, # of connection points: 3
#     Node 1, Type 0, BuildingBlock: VETTIZ_charged_linker_0, # of connection points: 3
#     Node 2, Type 0, BuildingBlock: VETTIZ_charged_linker_0, # of connection points: 3
#     Node 3, Type 0, BuildingBlock: VETTIZ_charged_linker_0, # of connection points: 3
#     Node 4, Type 0, BuildingBlock: VETTIZ_charged_linker_0, # of connection points: 3
#     Node 5, Type 0, BuildingBlock: VETTIZ_charged_linker_0, # of connection points: 3
#     Node 6, Type 0, BuildingBlock: VETTIZ_charged_linker_0, # of connection points: 3
#     Node 7, Type 0, BuildingBlock: VETTIZ_charged_linker_0, # of connection points: 3
#     Node 8, Type 1, BuildingBlock: LEVNOQ01_clean_sbu_1, # of connection points: 6
#     Node 9, Type 1, BuildingBlock: LEVNOQ01_clean_sbu_1, # of connection points: 6
#     Node 10, Type 1, BuildingBlock: LEVNOQ01_clean_sbu_1, # of connection points: 6
#     Node 11, Type 1, BuildingBlock: LEVNOQ01_clean_sbu_1, # of connection points: 6
#     Edge 12, Type (0, 1), BuildingBlock: XUDNAN_clean_linker_2, # of connection points: 2
#     Edge 13, Type (0, 1), BuildingBlock: XUDNAN_clean_linker_2, # of connection points: 2
#     Edge 14, Type (0, 1), BuildingBlock: XUDNAN_clean_linker_2, # of connection points: 2
#     Edge 15, Type (0, 1), BuildingBlock: XUDNAN_clean_linker_2, # of connection points: 2
#     Edge 16, Type (0, 1), BuildingBlock: XUDNAN_clean_linker_2, # of connection points: 2
#     Edge 17, Type (0, 1), BuildingBlock: XUDNAN_clean_linker_2, # of connection points: 2
#     Edge 18, Type (0, 1), BuildingBlock: XUDNAN_clean_linker_2, # of connection points: 2
#     Edge 19, Type (0, 1), BuildingBlock: XUDNAN_clean_linker_2, # of connection points: 2
#     Edge 20, Type (0, 1), BuildingBlock: XUDNAN_clean_linker_2, # of connection points: 2
#     Edge 21, Type (0, 1), BuildingBlock: XUDNAN_clean_linker_2, # of connection points: 2
#     Edge 22, Type (0, 1), BuildingBlock: XUDNAN_clean_linker_2, # of connection points: 2
#     Edge 23, Type (0, 1), BuildingBlock: XUDNAN_clean_linker_2, # of connection points: 2
#     Edge 24, Type (0, 1), BuildingBlock: XUDNAN_clean_linker_2, # of connection points: 2
#     Edge 25, Type (0, 1), BuildingBlock: XUDNAN_clean_linker_2, # of connection points: 2
#     Edge 26, Type (0, 1), BuildingBlock: XUDNAN_clean_linker_2, # of connection points: 2
#     Edge 27, Type (0, 1), BuildingBlock: XUDNAN_clean_linker_2, # of connection points: 2
#     Edge 28, Type (0, 1), BuildingBlock: XUDNAN_clean_linker_2, # of connection points: 2
#     Edge 29, Type (0, 1), BuildingBlock: XUDNAN_clean_linker_2, # of connection points: 2
#     Edge 30, Type (0, 1), BuildingBlock: XUDNAN_clean_linker_2, # of connection points: 2
#     Edge 31, Type (0, 1), BuildingBlock: XUDNAN_clean_linker_2, # of connection points: 2
#     Edge 32, Type (0, 1), BuildingBlock: XUDNAN_clean_linker_2, # of connection points: 2
#     Edge 33, Type (0, 1), BuildingBlock: XUDNAN_clean_linker_2, # of connection points: 2
#     Edge 34, Type (0, 1), BuildingBlock: XUDNAN_clean_linker_2, # of connection points: 2
#     Edge 35, Type (0, 1), BuildingBlock: XUDNAN_clean_linker_2, # of connection points: 2
# Relax obj value: 0.313
# Max RMSD: 0.220
# Mean RMSD: 0.210
data_MOF--net-zzz--node1-LEVNOQ01_clean_sbu_1--node2-VETTIZ_charged_linker_0--edge1-XUDNAN_clean_linker_2
_symmetry_space_group_name_H-M    P1
_symmetry_Int_Tables_number       1
_symmetry_cell_setting            triclinic
loop_
_symmetry_equiv_pos_as_xyz
'x, y, z'
_cell_length_a     54.300582
_cell_length_b     57.261026
_cell_length_c     20.868775
_cell_angle_alpha  89.762221
_cell_angle_beta   90.050138
_cell_angle_gamma 88.395022
loop_
_atom_site_label
_atom_site_type_symbol
_atom_site_fract_x
_atom_site_fract_y
_atom_site_fract_z
_atom_type_partial_charge
C0 C 0.80274 0.58966 0.33738 0.0
C1 C 0.8258 0.59956 0.35167 0.0
C2 C 0.83506 0.6165 0.30949 0.0
C3 C 0.80135 0.61095 0.23663 0.0
C4 C 0.79046 0.5962 0.2798 0.0
C5 C 0.76504 0.58963 0.25629 0.0
H6 H 0.68151 0.59651 0.00774 0.0
C7 C 0.78603 0.61304 0.17906 0.0
C8 C 0.76382 0.60169 0.19048 0.0
H9 H 0.6708 0.56155 0.18828 0.0
H10 H 0.71148 0.57353 0.22447 0.0
H11 H 0.71048 0.64272 0.05251 0.0
H12 H 0.72665 0.57467 0.98399 0.0
H13 H 0.75562 0.58699 0.9755 0.0
H14 H 0.72943 0.59888 0.93127 0.0
H15 H 0.70585 0.63164 0.97307 0.0
H16 H 0.73432 0.64489 0.99532 0.0
C17 C 0.74567 0.59997 0.30297 0.0
C18 C 0.76427 0.56283 0.25062 0.0
C19 C 0.82869 0.62128 0.96843 0.0
C20 C 0.81972 0.61483 0.90817 0.0
C21 C 0.79463 0.61868 0.89415 0.0
C22 C 0.77814 0.62472 0.94325 0.0
C23 C 0.78681 0.62525 0.00669 0.0
C24 C 0.81185 0.62543 0.01817 0.0
C25 C 0.81773 0.62509 0.08878 0.0
C26 C 0.79218 0.62094 0.11676 0.0
C27 C 0.77437 0.62081 0.06825 0.0
C28 C 0.82789 0.64925 0.10716 0.0
C29 C 0.83613 0.60449 0.10321 0.0
C30 C 0.68763 0.59198 0.0558 0.0
C31 C 0.67286 0.57872 0.09582 0.0
C32 C 0.68186 0.57213 0.15698 0.0
C33 C 0.70538 0.57912 0.17781 0.0
C34 C 0.72013 0.59232 0.13633 0.0
C35 C 0.71105 0.59813 0.07613 0.0
C36 C 0.72976 0.60906 0.03404 0.0
C37 C 0.75098 0.6113 0.08052 0.0
C38 C 0.7456 0.60137 0.14078 0.0
C39 C 0.71963 0.63335 0.01203 0.0
C40 C 0.73572 0.59173 0.97824 0.0
H41 H 0.83024 0.63578 0.22344 0.0
H42 H 0.79457 0.57738 0.37009 0.0
H43 H 0.7806 0.55599 0.22376 0.0
H44 H 0.74788 0.55709 0.22442 0.0
H45 H 0.7644 0.55449 0.2988 0.0
H46 H 0.74966 0.61848 0.31393 0.0
H47 H 0.74579 0.59005 0.34885 0.0
H48 H 0.72688 0.6001 0.28295 0.0
H49 H 0.84811 0.61888 0.9791 0.0
H50 H 0.78746 0.61431 0.84739 0.0
H51 H 0.75904 0.62652 0.93096 0.0
H52 H 0.82993 0.66101 0.06503 0.0
H53 H 0.8465 0.6475 0.12912 0.0
H54 H 0.81543 0.6587 0.14107 0.0
H55 H 0.82915 0.58789 0.08361 0.0
H56 H 0.83943 0.60173 0.15474 0.0
H57 H 0.85444 0.60764 0.08178 0.0
H58 H 0.85239 0.62473 0.31911 0.0
C59 C 0.82267 0.62255 0.25313 0.0
C60 C 0.00431 0.80839 0.98472 0.0
C61 C 0.02485 0.82295 0.9837 0.0
C62 C 0.04189 0.82183 0.03486 0.0
C63 C 0.01522 0.79673 0.09242 0.0
C64 C 1.0004 0.7946 0.03943 0.0
C65 C 0.98178 0.77573 0.0493 0.0
H66 H 1.00191 0.67747 0.16457 0.0
C67 C 0.00569 0.7827 0.14388 0.0
C68 C 0.98696 0.76904 0.11956 0.0
H69 H 0.9508 0.6964 0.01228 0.0
H70 H 0.94375 0.7348 0.06133 0.0
H71 H 0.03069 0.72513 0.19172 0.0
H72 H 0.96077 0.71663 0.29058 0.0
H73 H 0.98886 0.71984 0.33569 0.0
H74 H 0.9836 0.69317 0.29343 0.0
H75 H 0.02643 0.69938 0.24016 0.0
H76 H 0.02936 0.72731 0.2778 0.0
C77 C 0.98755 0.75577 0.00119 0.0
C78 C 0.95557 0.78625 0.04078 0.0
C79 C 0.0095 0.81336 0.36593 0.0
C80 C 0.99441 0.80862 0.41872 0.0
C81 C 0.98115 0.78759 0.41864 0.0
C82 C 0.98302 0.7718 0.36656 0.0
C83 C 0.99817 0.7772 0.31442 0.0
C84 C 0.01043 0.79808 0.31378 0.0
C85 C 0.02048 0.8038 0.24859 0.0
C86 C 0.01039 0.78359 0.21006 0.0
C87 C 0.99958 0.76707 0.24955 0.0
C88 C 0.04903 0.80347 0.25184 0.0
C89 C 0.00958 0.82781 0.22636 0.0
C90 C 0.98843 0.68941 0.1432 0.0
C91 C 0.97786 0.68443 0.08259 0.0
C92 C 0.9598 0.70014 0.05732 0.0
C93 C 0.95616 0.72229 0.08406 0.0
C94 C 0.97045 0.72831 0.13645 0.0
C95 C 0.98318 0.71151 0.17137 0.0
C96 C 0.99349 0.72242 0.23181 0.0
C97 C 0.98654 0.74842 0.22194 0.0
C98 C 0.97707 0.75131 0.15931 0.0
C99 C 0.02165 0.7183 0.2355 0.0
C100 C 0.98089 0.71247 0.2914 0.0
H101 H 0.05071 0.80735 0.1265 0.0
H102 H 0.99162 0.80806 0.94468 0.0
H103 H 0.95289 0.80207 0.071 0.0
H104 H 0.94148 0.77365 0.05516 0.0
H105 H 0.9522 0.79128 0.98998 0.0
H106 H 1.00136 0.74301 0.02112 0.0
H107 H 0.99508 0.76254 0.95545 0.0
H108 H 0.97082 0.74653 0.98687 0.0
H109 H 0.01901 0.82969 0.36302 0.0
H110 H 0.96892 0.7837 0.45798 0.0
H111 H 0.97181 0.75651 0.36579 0.0
H112 H 0.05591 0.80503 0.3018 0.0
H113 H 0.05678 0.81845 0.22552 0.0
H114 H 0.05712 0.78698 0.23202 0.0
H115 H 0.9891 0.82766 0.22578 0.0
H116 H 0.01587 0.83269 0.17799 0.0
H117 H 0.01539 0.84203 0.25855 0.0
H118 H 0.05814 0.83239 0.03486 0.0
C119 C 0.03731 0.80834 0.0888 0.0
C120 C 0.80608 0.92827 0.13202 0.0
C121 C 0.81778 0.92416 0.07203 0.0
C122 C 0.80621 0.90927 0.02803 0.0
C123 C 0.77166 0.90506 0.09923 0.0
C124 C 0.78303 0.91841 0.14463 0.0
C125 C 0.76743 0.92053 0.2048 0.0
H126 H 0.65933 0.8924 0.35192 0.0
C127 C 0.7481 0.8974 0.12454 0.0
C128 C 0.74572 0.90519 0.18805 0.0
H129 H 0.71335 0.93952 0.42411 0.0
H130 H 0.74002 0.93033 0.33296 0.0
H131 H 0.66298 0.90226 0.16606 0.0
H132 H 0.69782 0.8515 0.29574 0.0
H133 H 0.68474 0.84385 0.22158 0.0
H134 H 0.66491 0.85345 0.28628 0.0
H135 H 0.65094 0.90582 0.24372 0.0
H136 H 0.64595 0.87928 0.20446 0.0
C137 C 0.75933 0.94645 0.21237 0.0
C138 C 0.78233 0.91069 0.26225 0.0
C139 C 0.67557 0.88583 0.98294 0.0
C140 C 0.65098 0.88213 0.00197 0.0
C141 C 0.6471 0.86759 0.05579 0.0
C142 C 0.66656 0.86187 0.09723 0.0
C143 C 0.68937 0.87172 0.08603 0.0
C144 C 0.69467 0.88069 0.02662 0.0
C145 C 0.7213 0.88743 0.0224 0.0
C146 C 0.72854 0.88614 0.09353 0.0
C147 C 0.70897 0.8781 0.13044 0.0
C148 C 0.7231 0.91246 0.99494 0.0
C149 C 0.73519 0.86896 0.98065 0.0
C150 C 0.6771 0.9005 0.34932 0.0
C151 C 0.68418 0.91655 0.39582 0.0
C152 C 0.70726 0.92714 0.38877 0.0
C153 C 0.72264 0.92191 0.33563 0.0
C154 C 0.71451 0.90651 0.28796 0.0
C155 C 0.69195 0.89626 0.2958 0.0
C156 C 0.68456 0.88202 0.23942 0.0
C157 C 0.70656 0.88511 0.19549 0.0
C158 C 0.72434 0.89929 0.22401 0.0
C159 C 0.65998 0.89273 0.21171 0.0
C160 C 0.68272 0.85631 0.26166 0.0
H161 H 0.77616 0.88748 0.00848 0.0
H162 H 0.8145 0.93894 0.16818 0.0
H163 H 0.79101 0.89346 0.25002 0.0
H164 H 0.77071 0.90777 0.30471 0.0
H165 H 0.79721 0.92268 0.2757 0.0
H166 H 0.75349 0.95403 0.1654 0.0
H167 H 0.77474 0.95689 0.23082 0.0
H168 H 0.74334 0.9489 0.24433 0.0
H169 H 0.6795 0.89486 0.93868 0.0
H170 H 0.62886 0.86289 0.07088 0.0
H171 H 0.66275 0.85195 0.13959 0.0
H172 H 0.71166 0.92501 0.0235 0.0
H173 H 0.71675 0.91324 0.94436 0.0
H174 H 0.74226 0.91848 0.99522 0.0
H175 H 0.72243 0.85763 0.95396 0.0
H176 H 0.74718 0.85716 0.01035 0.0
H177 H 0.7466 0.87726 0.94327 0.0
H178 H 0.81408 0.90563 0.98143 0.0
C179 C 0.78368 0.89929 0.04223 0.0
C180 C 0.50646 0.72079 0.39983 0.0
C181 C 0.51108 0.69665 0.41455 0.0
C182 C 0.51828 0.68161 0.3645 0.0
C183 C 0.51396 0.71284 0.28715 0.0
C184 C 0.5085 0.72863 0.33508 0.0
C185 C 0.5061 0.75336 0.30673 0.0
H186 H 0.49379 0.81636 0.02199 0.0
C187 C 0.51158 0.72463 0.22475 0.0
C188 C 0.50694 0.74864 0.23407 0.0
H189 H 0.50828 0.84636 0.20655 0.0
H190 H 0.50568 0.80747 0.25693 0.0
H191 H 0.53282 0.77903 0.03329 0.0
H192 H 0.4549 0.7767 0.06874 0.0
H193 H 0.46334 0.74988 0.03339 0.0
H194 H 0.4674 0.77672 0.98923 0.0
H195 H 0.51024 0.78027 0.97038 0.0
H196 H 0.52278 0.75295 0.99983 0.0
C197 C 0.52862 0.76695 0.32908 0.0
C198 C 0.48158 0.76518 0.32707 0.0
C199 C 0.51202 0.67259 0.03193 0.0
C200 C 0.50494 0.6756 0.96802 0.0
C201 C 0.49664 0.6977 0.9462 0.0
C202 C 0.49608 0.71681 0.98852 0.0
C203 C 0.50345 0.71335 0.05296 0.0
C204 C 0.51078 0.69136 0.07321 0.0
C205 C 0.51527 0.68967 0.1435 0.0
C206 C 0.5104 0.71474 0.16299 0.0
C207 C 0.504 0.72858 0.11008 0.0
C208 C 0.54275 0.68213 0.15352 0.0
C209 C 0.49607 0.67272 0.17203 0.0
C210 C 0.49607 0.81468 0.07346 0.0
C211 C 0.50128 0.83419 0.11017 0.0
C212 C 0.50432 0.83139 0.17715 0.0
C213 C 0.50326 0.80889 0.20602 0.0
C214 C 0.49982 0.78916 0.16712 0.0
C215 C 0.49606 0.79262 0.1019 0.0
C216 C 0.49528 0.77043 0.06507 0.0
C217 C 0.50036 0.75287 0.11762 0.0
C218 C 0.50229 0.76335 0.17871 0.0
C219 C 0.51618 0.77053 0.01413 0.0
C220 C 0.46898 0.76824 0.03708 0.0
H221 H 0.52528 0.67669 0.26741 0.0
H222 H 0.5014 0.733 0.43733 0.0
H223 H 0.46586 0.75426 0.31306 0.0
H224 H 0.47895 0.7825 0.30398 0.0
H225 H 0.481 0.76765 0.37983 0.0
H226 H 0.54594 0.75669 0.31982 0.0
H227 H 0.52752 0.77047 0.38135 0.0
H228 H 0.53036 0.78371 0.30372 0.0
H229 H 0.51728 0.65547 0.05072 0.0
H230 H 0.49046 0.70007 0.89718 0.0
H231 H 0.48983 0.73342 0.9697 0.0
H232 H 0.55457 0.68893 0.11448 0.0
H233 H 0.54516 0.6628 0.15399 0.0
H234 H 0.55072 0.68931 0.19787 0.0
H235 H 0.48005 0.67045 0.13953 0.0
H236 H 0.4876 0.67932 0.21689 0.0
H237 H 0.50439 0.65507 0.18093 0.0
H238 H 0.52159 0.6631 0.37278 0.0
C239 C 0.51998 0.68953 0.30202 0.0
C240 C 0.31186 0.43523 0.31071 0.0
C241 C 0.32597 0.4285 0.36594 0.0
C242 C 0.31839 0.40872 0.40116 0.0
C243 C 0.28175 0.40665 0.33765 0.0
C244 C 0.28974 0.42373 0.29718 0.0
C245 C 0.27175 0.42719 0.24151 0.0
H246 H 0.15855 0.39808 0.12005 0.0
C247 C 0.25771 0.39923 0.31743 0.0
C248 C 0.25179 0.40966 0.25841 0.0
H249 H 0.20796 0.44762 0.03759 0.0
H250 H 0.23834 0.43824 0.12108 0.0
H251 H 0.19937 0.35699 0.16503 0.0
H252 H 0.17078 0.4071 0.30469 0.0
H253 H 0.15238 0.38363 0.27425 0.0
H254 H 0.15437 0.41003 0.23193 0.0
H255 H 0.16681 0.35954 0.1806 0.0
H256 H 0.188 0.34888 0.24121 0.0
C257 C 0.28513 0.42078 0.17869 0.0
C258 C 0.26169 0.45263 0.24275 0.0
C259 C 0.19237 0.39035 0.48155 0.0
C260 C 0.16753 0.38488 0.47364 0.0
C261 C 0.16058 0.37067 0.42225 0.0
C262 C 0.17741 0.36561 0.37315 0.0
C263 C 0.20056 0.37572 0.37551 0.0
C264 C 0.20886 0.38518 0.4318 0.0
C265 C 0.23527 0.3921 0.42671 0.0
C266 C 0.2396 0.38849 0.35466 0.0
C267 C 0.21807 0.38128 0.32462 0.0
C268 C 0.25089 0.37558 0.4703 0.0
C269 C 0.23783 0.41796 0.44629 0.0
C270 C 0.17609 0.40664 0.11882 0.0
C271 C 0.18092 0.4233 0.07156 0.0
C272 C 0.20374 0.43463 0.07349 0.0
C273 C 0.22129 0.42923 0.12199 0.0
C274 C 0.21565 0.41288 0.17013 0.0
C275 C 0.19313 0.40219 0.16787 0.0
C276 C 0.18847 0.38709 0.22501 0.0
C277 C 0.21246 0.38953 0.26167 0.0
C278 C 0.22863 0.40457 0.22938 0.0
C279 C 0.18535 0.36172 0.20197 0.0
C280 C 0.16547 0.39735 0.26113 0.0
H281 H 0.29265 0.38132 0.40948 0.0
H282 H 0.31757 0.44917 0.27944 0.0
H283 H 0.25512 0.45728 0.29167 0.0
H284 H 0.24589 0.45555 0.21024 0.0
H285 H 0.27628 0.46494 0.22918 0.0
H286 H 0.29511 0.40363 0.18373 0.0
H287 H 0.29881 0.43413 0.16624 0.0
H288 H 0.2723 0.41907 0.1381 0.0
H289 H 0.19804 0.40054 0.52228 0.0
H290 H 0.14159 0.36571 0.41659 0.0
H291 H 0.17147 0.35565 0.3328 0.0
H292 H 0.24051 0.37047 0.51384 0.0
H293 H 0.26742 0.38425 0.48891 0.0
H294 H 0.25648 0.3593 0.44469 0.0
H295 H 0.22554 0.42953 0.41673 0.0
H296 H 0.25701 0.42371 0.44019 0.0
H297 H 0.23312 0.42056 0.49757 0.0
H298 H 0.32834 0.40216 0.44253 0.0
C299 C 0.29691 0.39732 0.38538 0.0
C300 C 0.01849 0.20357 0.44513 0.0
C301 C 0.02242 0.17932 0.44121 0.0
C302 C 0.04047 0.16999 0.39933 0.0
C303 C 0.04453 0.208 0.3526 0.0
C304 C 0.03066 0.21776 0.40128 0.0
C305 C 0.02916 0.24388 0.39551 0.0
H306 H 0.00338 0.33589 0.24651 0.0
C307 C 0.04796 0.22567 0.30305 0.0
C308 C 0.04237 0.24721 0.33117 0.0
H309 H 0.04588 0.33167 0.4232 0.0
H310 H 0.06008 0.29239 0.39437 0.0
H311 H 0.05366 0.30273 0.1648 0.0
H312 H 0.98302 0.27914 0.23497 0.0
H313 H 0.98952 0.27333 0.15259 0.0
H314 H 0.9842 0.30291 0.17832 0.0
H315 H 0.02538 0.31634 0.13649 0.0
H316 H 0.03522 0.28806 0.10786 0.0
C317 C 0.04248 0.25445 0.45343 0.0
C318 C 1.00193 0.25241 0.39253 0.0
C319 C 0.03207 0.19409 0.082 0.0
C320 C 0.02053 0.2029 0.02657 0.0
C321 C 0.01401 0.22711 0.02494 0.0
C322 C 0.01858 0.2418 0.07801 0.0
C323 C 0.02945 0.23223 0.13382 0.0
C324 C 0.03576 0.20862 0.13468 0.0
C325 C 0.04516 0.20029 0.19837 0.0
C326 C 0.04427 0.22297 0.23601 0.0
C327 C 0.03525 0.24201 0.19823 0.0
C328 C 0.07194 0.19099 0.19005 0.0
C329 C 0.02747 0.18152 0.22471 0.0
C330 C 0.01524 0.3264 0.27989 0.0
C331 C 0.02249 0.33678 0.33894 0.0
C332 C 0.03929 0.32429 0.3789 0.0
C333 C 0.04661 0.30143 0.36462 0.0
C334 C 0.03636 0.29073 0.31172 0.0
C335 C 0.02338 0.30319 0.26621 0.0
C336 C 0.02035 0.28813 0.20615 0.0
C337 C 0.03255 0.26467 0.22744 0.0
C338 C 0.03967 0.26688 0.29144 0.0
C339 C 0.03435 0.29938 0.15045 0.0
C340 C 0.99273 0.28573 0.19191 0.0
H341 H 0.06513 0.17697 0.32239 0.0
H342 H 0.00552 0.21102 0.4793 0.0
H343 H 0.99226 0.24416 0.35183 0.0
H344 H 1.00048 0.27165 0.38621 0.0
H345 H 0.99212 0.24813 0.43757 0.0
H346 H 0.03792 0.24505 0.49843 0.0
H347 H 0.03644 0.27283 0.46159 0.0
H348 H 0.0628 0.25333 0.44711 0.0
H349 H 0.03679 0.17567 0.08653 0.0
H350 H 0.00516 0.23467 0.98293 0.0
H351 H 0.01301 0.2599 0.07459 0.0
H352 H 0.08266 0.20303 0.15959 0.0
H353 H 0.07234 0.17353 0.16693 0.0
H354 H 0.08184 0.18961 0.23623 0.0
H355 H 0.0161 0.17354 0.18685 0.0
H356 H 0.01414 0.18909 0.25978 0.0
H357 H 0.03769 0.16653 0.24676 0.0
H358 H 0.04433 0.15133 0.39765 0.0
C359 C 0.05192 0.18449 0.35519 0.0
C360 C 0.29545 0.08679 0.08145 0.0
C361 C 0.31652 0.09838 0.05849 0.0
C362 C 0.32305 0.1196 0.08705 0.0
C363 C 0.29293 0.11405 0.16927 0.0
C364 C 0.28323 0.09573 0.13643 0.0
C365 C 0.25893 0.08895 0.16695 0.0
H366 H 0.18752 0.09751 0.43899 0.0
C367 C 0.28011 0.11696 0.22986 0.0
C368 C 0.25887 0.10357 0.2286 0.0
H369 H 0.16734 0.06322 0.26339 0.0
H370 H 0.20605 0.07477 0.21461 0.0
H371 H 0.23501 0.07543 0.4459 0.0
H372 H 0.21367 0.14377 0.38474 0.0
H373 H 0.23992 0.14556 0.43486 0.0
H374 H 0.21273 0.13191 0.46461 0.0
H375 H 0.23944 0.09955 0.49767 0.0
H376 H 0.26357 0.08901 0.44458 0.0
C377 C 0.25941 0.06253 0.18116 0.0
C378 C 0.23795 0.09674 0.12105 0.0
C379 C 0.33556 0.12863 0.41794 0.0
C380 C 0.33166 0.12341 0.48254 0.0
C381 C 0.30761 0.12407 0.50723 0.0
C382 C 0.28745 0.12729 0.46582 0.0
C383 C 0.2916 0.12829 0.39934 0.0
C384 C 0.31534 0.13029 0.37657 0.0
C385 C 0.31664 0.12962 0.3047 0.0
C386 C 0.28971 0.12502 0.28849 0.0
C387 C 0.27546 0.12361 0.34416 0.0
C388 C 0.33416 0.10907 0.28444 0.0
C389 C 0.32548 0.15357 0.28022 0.0
C390 C 0.1911 0.09257 0.38976 0.0
C391 C 0.17418 0.07944 0.3553 0.0
C392 C 0.17985 0.0736 0.29103 0.0
C393 C 0.20226 0.08035 0.26268 0.0
C394 C 0.21911 0.09316 0.29881 0.0
C395 C 0.21326 0.09884 0.36145 0.0
C396 C 0.2339 0.11016 0.39598 0.0
C397 C 0.25211 0.11308 0.34181 0.0
C398 C 0.24376 0.10278 0.28471 0.0
C399 C 0.24352 0.09285 0.44883 0.0
C400 C 0.22464 0.13412 0.42187 0.0
H401 H 0.31559 0.14431 0.16126 0.0
H402 H 0.28891 0.07141 0.05756 0.0
H403 H 0.24114 0.11456 0.10186 0.0
H404 H 0.21987 0.09784 0.14489 0.0
H405 H 0.23684 0.08463 0.07973 0.0
H406 H 0.27589 0.05753 0.21034 0.0
H407 H 0.26014 0.05236 0.13596 0.0
H408 H 0.243 0.05727 0.20826 0.0
H409 H 0.35413 0.12833 0.39898 0.0
H410 H 0.3044 0.12026 0.55737 0.0
H411 H 0.26941 0.12724 0.48648 0.0
H412 H 0.32794 0.09232 0.30521 0.0
H413 H 0.35331 0.11189 0.30061 0.0
H414 H 0.33529 0.10696 0.23205 0.0
H415 H 0.33438 0.1638 0.31861 0.0
H416 H 0.30988 0.16455 0.26133 0.0
H417 H 0.33972 0.15146 0.24241 0.0
H418 H 0.33824 0.12948 0.06852 0.0
C419 C 0.31088 0.12775 0.14162 0.0
C420 C 0.50517 0.29246 0.05545 0.0
C421 C 0.51627 0.31414 0.04165 0.0
C422 C 0.53568 0.32138 0.08103 0.0
C423 C 0.52795 0.29019 0.15518 0.0
C424 C 0.51185 0.28036 0.11273 0.0
C425 C 0.50211 0.25776 0.14075 0.0
H426 H 0.48981 0.19332 0.41666 0.0
C427 C 0.52623 0.27833 0.21721 0.0
C428 C 0.5138 0.25745 0.20802 0.0
H429 H 0.52387 0.16435 0.24742 0.0
H430 H 0.52131 0.20295 0.19522 0.0
H431 H 0.52875 0.22953 0.4198 0.0
H432 H 0.45391 0.23908 0.3513 0.0
H433 H 0.46255 0.26493 0.3894 0.0
H434 H 0.46101 0.23815 0.43528 0.0
H435 H 0.50219 0.22673 0.47048 0.0
H436 H 0.51469 0.2545 0.45504 0.0
C437 C 0.5108 0.23691 0.09971 0.0
C438 C 0.47378 0.25916 0.14473 0.0
C439 C 0.52816 0.33341 0.40524 0.0
C440 C 0.51305 0.33527 0.45936 0.0
C441 C 0.49818 0.31654 0.47665 0.0
C442 C 0.49808 0.2963 0.43897 0.0
C443 C 0.5126 0.29517 0.38316 0.0
C444 C 0.5266 0.31393 0.36605 0.0
C445 C 0.53611 0.31238 0.29865 0.0
C446 C 0.52613 0.28892 0.27866 0.0
C447 C 0.51328 0.27866 0.32936 0.0
C448 C 0.56455 0.31162 0.30121 0.0
C449 C 0.52518 0.3334 0.25902 0.0
C450 C 0.49494 0.19483 0.36669 0.0
C451 C 0.50588 0.17562 0.33524 0.0
C452 C 0.51432 0.17863 0.27162 0.0
C453 C 0.51242 0.20066 0.2409 0.0
C454 C 0.50216 0.21982 0.27416 0.0
C455 C 0.49475 0.21691 0.33731 0.0
C456 C 0.4937 0.23979 0.37291 0.0
C457 C 0.50382 0.25607 0.32235 0.0
C458 C 0.50577 0.24494 0.26296 0.0
C459 C 0.51061 0.23769 0.43283 0.0
C460 C 0.46644 0.24588 0.38864 0.0
H461 H 0.55686 0.31518 0.16553 0.0
H462 H 0.49101 0.28584 0.02443 0.0
H463 H 0.46754 0.27465 0.173 0.0
H464 H 0.46668 0.24327 0.16831 0.0
H465 H 0.46551 0.26054 0.0961 0.0
H466 H 0.53106 0.23393 0.104 0.0
H467 H 0.50628 0.24012 0.04841 0.0
H468 H 0.50133 0.22082 0.1142 0.0
H469 H 0.53882 0.34809 0.38941 0.0
H470 H 0.48597 0.31799 0.51755 0.0
H471 H 0.48607 0.28267 0.45315 0.0
H472 H 0.57134 0.29936 0.33921 0.0
H473 H 0.57164 0.32921 0.31188 0.0
H474 H 0.57284 0.30534 0.25591 0.0
H475 H 0.51747 0.34774 0.28921 0.0
H476 H 0.50969 0.32808 0.22805 0.0
H477 H 0.53937 0.34179 0.22931 0.0
H478 H 0.54556 0.33704 0.06951 0.0
C479 C 0.54191 0.30917 0.13693 0.0
O480 O 0.0458 0.99268 0.82531 0.0
Mg481 Mg 0.0391 0.98787 0.72708 0.0
O482 O 0.00729 0.98515 0.81495 0.0
Mg483 Mg 0.99364 0.00735 0.72754 0.0
O484 O 0.03151 0.01665 0.67153 0.0
O485 O 0.06854 0.99799 0.678 0.0
O486 O 0.98016 0.02799 0.64163 0.0
O487 O 0.99637 0.04405 0.78323 0.0
Mg488 Mg 0.94518 0.0269 0.71926 0.0
O489 O 0.95562 -0.0006 0.7787 0.0
O490 O 0.94128 0.02811 0.61771 0.0
O491 O 0.9591 0.05798 0.75806 0.0
O492 O 0.91674 0.01349 0.76823 0.0
C493 C 0.00456 0.95429 0.66704 0.0
C494 C 0.02724 0.98246 0.84623 0.0
C495 C 0.05465 0.01445 0.65417 0.0
C496 C 0.96286 0.03403 0.60385 0.0
C497 C 0.98014 0.06091 0.78306 0.0
C498 C 0.93246 -0.00061 0.79566 0.0
O499 O 0.02606 0.9556 0.69039 0.0
O500 O 0.98949 0.97183 0.6712 0.0
O501 O 0.44022 0.00813 0.79301 0.0
Mg502 Mg 0.45384 0.98257 0.72862 0.0
O503 O 0.47388 0.02967 0.80001 0.0
Mg504 Mg 0.50417 0.00954 0.73629 0.0
O505 O 0.48787 0.97373 0.7652 0.0
O506 O 0.45713 0.9488 0.76256 0.0
O507 O 0.53342 0.98884 0.67187 0.0
O508 O 0.52725 0.00059 0.82627 0.0
Mg509 Mg 0.54728 0.03146 0.75449 0.0
O510 O 0.51986 0.04679 0.69832 0.0
O511 O 0.56746 0.00641 0.70053 0.0
O512 O 0.55112 0.02864 0.85493 0.0
O513 O 0.5555 0.06352 0.72367 0.0
C514 C 0.4603 0.01195 0.61918 0.0
C515 C 0.45133 0.02568 0.8146 0.0
C516 C 0.479 0.95369 0.78179 0.0
C517 C 0.55684 0.99089 0.66841 0.0
C518 C 0.54188 0.00915 0.86673 0.0
C519 C 0.5354 0.06375 0.69073 0.0
O520 O 0.44945 0.9931 0.63088 0.0
O521 O 0.4787 0.01733 0.65298 0.0
O522 O 0.5286 0.45437 0.73933 0.0
Mg523 Mg 0.54169 0.48785 0.71309 0.0
O524 O 0.49341 0.47005 0.77346 0.0
Mg525 Mg 0.4949 0.50888 0.73142 0.0
O526 O 0.53483 0.51459 0.7778 0.0
O527 O 0.57163 0.49619 0.76428 0.0
O528 O 0.49508 0.54835 0.69142 0.0
O529 O 0.48379 0.52205 0.83025 0.0
Mg530 Mg 0.44539 0.52808 0.75236 0.0
O531 O 0.45561 0.50353 0.68502 0.0
O532 O 0.45817 0.56129 0.72265 0.0
O533 O 0.44462 0.52067 0.8517 0.0
O534 O 0.41663 0.5161 0.70106 0.0
C535 C 0.52355 0.49252 0.5936 0.0
C536 C 0.5081 0.45228 0.76745 0.0
C537 C 0.55818 0.51191 0.79271 0.0
C538 C 0.47881 0.56503 0.69628 0.0
C539 C 0.46633 0.52392 0.87048 0.0
C540 C 0.43235 0.5035 0.66915 0.0
O541 O 0.54496 0.49563 0.61474 0.0
O542 O 0.50551 0.49512 0.63179 0.0
O543 O 0.95369 0.48446 0.82409 0.0
Mg544 Mg 0.95885 0.48435 0.7237 0.0
O545 O 0.96861 0.51726 0.79253 0.0
Mg546 Mg 0.99844 0.50831 0.71698 0.0
O547 O 0.98759 0.47021 0.67198 0.0
O548 O 0.95121 0.45316 0.68687 0.0
O549 O 0.02803 0.49968 0.64538 0.0
O550 O 0.02495 0.48926 0.79443 0.0
Mg551 Mg 0.04416 0.5329 0.71543 0.0
O552 O 0.01079 0.54628 0.75061 0.0
O553 O 0.05666 0.52374 0.6211 0.0
O554 O 0.05872 0.51009 0.78517 0.0
O555 O 0.04544 0.56669 0.74092 0.0
C556 C 0.94904 0.52525 0.63718 0.0
C557 C 0.95466 0.50632 0.83027 0.0
C558 C 0.9724 0.45342 0.65908 0.0
C559 C 0.04694 0.50421 0.61291 0.0
C560 C 0.0473 0.49342 0.8106 0.0
C561 C 0.02303 0.56531 0.76097 0.0
O562 O 0.93845 0.50982 0.67006 0.0
O563 O 0.9724 0.52756 0.64154 0.0
H564 H 0.171 0.06303 0.4782 0.0
H565 H 0.12635 0.07669 0.30905 0.0
H566 H 0.08927 0.06461 0.36911 0.0
H567 H 0.14095 0.01307 0.53252 0.0
H568 H 0.14403 0.02035 0.61604 0.0
H569 H 0.1662 0.03041 0.559 0.0
H570 H 0.15754 0.07307 0.59572 0.0
H571 H 0.13511 0.06313 0.65247 0.0
H572 H 0.12645 0.08496 0.59357 0.0
H573 H 0.05683 0.04952 0.45089 0.0
H574 H 0.0342 0.03134 0.54111 0.0
H575 H 0.10105 0.03008 0.65449 0.0
C576 C 0.15342 0.06386 0.45363 0.0
C577 C 0.15166 0.07111 0.38885 0.0
C578 C 0.12828 0.07113 0.35848 0.0
C579 C 0.10707 0.0645 0.39249 0.0
C580 C 0.10952 0.05795 0.45688 0.0
C581 C 0.13225 0.05759 0.48677 0.0
C582 C 0.13057 0.0494 0.55551 0.0
C583 C 0.14636 0.02698 0.56636 0.0
C584 C 0.13785 0.0688 0.60205 0.0
C585 C 0.10338 0.04472 0.55986 0.0
C586 C 0.09131 0.04986 0.50294 0.0
C587 C 0.06617 0.0457 0.4957 0.0
C588 C 0.05336 0.03557 0.54731 0.0
C589 C 0.0658 0.02964 0.60504 0.0
C590 C 0.09096 0.03476 0.61129 0.0
H591 H 0.47725 0.14733 0.41153 0.0
H592 H 0.55253 0.15874 0.35265 0.0
H593 H 0.56751 0.13095 0.43554 0.0
H594 H 0.48615 0.14329 0.5747 0.0
H595 H 0.46632 0.11929 0.59088 0.0
H596 H 0.46036 0.13797 0.52275 0.0
H597 H 0.46182 0.1029 0.44701 0.0
H598 H 0.46803 0.08304 0.51255 0.0
H599 H 0.48866 0.08363 0.44549 0.0
H600 H 0.57466 0.10668 0.53288 0.0
H601 H 0.57409 0.08187 0.62855 0.0
H602 H 0.49418 0.08336 0.62489 0.0
C603 C 0.49682 0.14337 0.41496 0.0
C604 C 0.51374 0.15498 0.37488 0.0
C605 C 0.53923 0.14968 0.38158 0.0
C606 C 0.54792 0.1341 0.42906 0.0
C607 C 0.53088 0.12349 0.46889 0.0
C608 C 0.50584 0.12734 0.46136 0.0
C609 C 0.49164 0.11336 0.51068 0.0
C610 C 0.47514 0.12944 0.55218 0.0
C611 C 0.47663 0.09465 0.47695 0.0
C612 C 0.51266 0.10224 0.54964 0.0
C613 C 0.53507 0.10836 0.52408 0.0
C614 C 0.55722 0.10142 0.55258 0.0
C615 C 0.55661 0.08744 0.6077 0.0
C616 C 0.53401 0.0802 0.63461 0.0
C617 C 0.51169 0.0879 0.60496 0.0
H618 H 0.36532 0.41403 0.44523 0.0
H619 H 0.33534 0.47531 0.3448 0.0
H620 H 0.36589 0.49927 0.3983 0.0
H621 H 0.36691 0.44242 0.59214 0.0
H622 H 0.39398 0.42674 0.62103 0.0
H623 H 0.37417 0.41337 0.56358 0.0
H624 H 0.41139 0.40662 0.48878 0.0
H625 H 0.4315 0.42077 0.54443 0.0
H626 H 0.42901 0.43109 0.46275 0.0
H627 H 0.39528 0.51781 0.47336 0.0
H628 H 0.41842 0.52987 0.56886 0.0
H629 H 0.42572 0.45776 0.631 0.0
C630 C 0.36476 0.43244 0.43387 0.0
C631 C 0.34724 0.44244 0.39012 0.0
C632 C 0.34852 0.4667 0.37647 0.0
C633 C 0.36584 0.48064 0.40722 0.0
C634 C 0.38172 0.4703 0.45237 0.0
C635 C 0.38115 0.44677 0.46611 0.0
C636 C 0.39743 0.44051 0.52331 0.0
C637 C 0.38221 0.43016 0.57825 0.0
C638 C 0.4186 0.42375 0.50364 0.0
C639 C 0.40689 0.46435 0.5407 0.0
C640 C 0.39802 0.48117 0.498 0.0
C641 C 0.40262 0.50475 0.50635 0.0
C642 C 0.41583 0.51142 0.56065 0.0
C643 C 0.42419 0.4947 0.60642 0.0
C644 C 0.42018 0.47078 0.59565 0.0
H645 H 0.04528 0.37242 0.40314 0.0
H646 H 0.97376 0.35028 0.338 0.0
H647 H 0.95368 0.37991 0.40765 0.0
H648 H 0.02994 0.37662 0.5593 0.0
H649 H 0.04679 0.40201 0.58044 0.0
H650 H 0.05733 0.38383 0.51542 0.0
H651 H 0.05629 0.41789 0.43634 0.0
H652 H 0.0465 0.43778 0.49856 0.0
H653 H 0.02857 0.43564 0.42647 0.0
H654 H 0.94139 0.40641 0.49764 0.0
H655 H 0.93709 0.43191 0.59115 0.0
H656 H 0.0165 0.43739 0.60151 0.0
C657 C 0.02539 0.37432 0.40181 0.0
C658 C 0.0111 0.35894 0.36463 0.0
C659 C 0.98515 0.36201 0.36483 0.0
C660 C 0.97357 0.37867 0.40493 0.0
C661 C 0.98818 0.39239 0.44408 0.0
C662 C 0.01355 0.39081 0.44177 0.0
C663 C 0.02493 0.40613 0.49277 0.0
C664 C 0.04069 0.39127 0.53969 0.0
C665 C 0.03997 0.4255 0.46169 0.0
C666 C 1.00196 0.41618 0.52535 0.0
C667 C 0.98103 0.40794 0.49622 0.0
C668 C 0.95765 0.41328 0.51994 0.0
C669 C 0.95548 0.42768 0.57388 0.0
C670 C 0.97651 0.43692 0.60429 0.0
C671 C 1.0001 0.43102 0.57923 0.0
H672 H 0.85461 0.90869 0.98817 0.0
H673 H 0.83355 0.96747 0.10951 0.0
H674 H 0.86783 0.98953 0.06553 0.0
H675 H 0.92268 0.91928 0.97988 0.0
H676 H 0.92375 0.91145 0.89636 0.0
H677 H 0.9021 0.89785 0.94914 0.0
H678 H 0.86633 0.91102 0.87358 0.0
H679 H 0.88792 0.92462 0.8211 0.0
H680 H 0.86237 0.94155 0.85342 0.0
H681 H 0.89948 0.0077 0.99755 0.0
H682 H 0.92332 0.02174 0.90536 0.0
H683 H 0.92151 0.95317 0.81915 0.0
C684 C 0.85715 0.92611 0.0063 0.0
C685 C 0.84097 0.93614 0.05285 0.0
C686 C 0.8457 0.95893 0.0753 0.0
C687 C 0.86521 0.97173 0.05026 0.0
C688 C 0.87995 0.96167 0.00249 0.0
C689 C 0.87613 0.93937 0.98057 0.0
C690 C 0.89209 0.93389 0.92234 0.0
C691 C 0.9113 0.91447 0.93788 0.0
C692 C 0.87623 0.92741 0.8642 0.0
C693 C 0.90434 0.95714 0.91245 0.0
C694 C 0.89775 0.97257 0.96087 0.0
C695 C 0.90512 0.99565 0.96019 0.0
C696 C 0.91872 0.00346 0.90771 0.0
C697 C 0.92461 0.9884 0.85607 0.0
C698 C 0.91789 0.96477 0.85909 0.0
H699 H 0.47001 0.87209 0.08965 0.0
H700 H 0.54213 0.84328 0.04209 0.0
H701 H 0.54603 0.87256 0.9558 0.0
H702 H 0.45096 0.88134 0.93486 0.0
H703 H 0.43382 0.90827 0.94851 0.0
H704 H 0.43812 0.88756 0.01281 0.0
H705 H 0.45767 0.91931 0.0833 0.0
H706 H 0.45303 0.94026 0.01939 0.0
H707 H 0.48335 0.93524 0.05279 0.0
H708 H 0.54133 0.9048 0.87025 0.0
H709 H 0.52604 0.9336 0.78854 0.0
H710 H 0.45669 0.93992 0.89021 0.0
C711 C 0.48722 0.87297 0.0637 0.0
C712 C 0.50625 0.85609 0.07449 0.0
C713 C 0.52784 0.85674 0.0365 0.0
C714 C 0.53019 0.87331 0.98722 0.0
C715 C 0.51108 0.88968 0.97722 0.0
C716 C 0.49002 0.8897 0.01474 0.0
C717 C 0.471 0.90736 0.98968 0.0
C718 C 0.44708 0.89541 0.97031 0.0
C719 C 0.46597 0.92669 0.03925 0.0
C720 C 0.48433 0.9168 0.93162 0.0
C721 C 0.5076 0.90676 0.92555 0.0
C722 C 0.52308 0.91273 0.87464 0.0
C723 C 0.51438 0.92916 0.82862 0.0
C724 C 0.49021 0.93883 0.83303 0.0
C725 C 0.47527 0.9327 0.88565 0.0
H726 H 0.66185 0.53512 0.05416 0.0
H727 H 0.63195 0.60566 0.07079 0.0
H728 H 0.59693 0.59555 1.00097 0.0
H729 H 0.65014 0.52933 0.89302 0.0
H730 H 0.64227 0.49896 0.8952 0.0
H731 H 0.66246 0.51036 0.95509 0.0
H732 H 0.63361 0.49614 0.04512 0.0
H733 H 0.61347 0.48432 0.98548 0.0
H734 H 0.60144 0.50481 0.04369 0.0
H735 H 0.56876 0.57908 0.91656 0.0
H736 H 0.54661 0.55665 0.83385 0.0
H737 H 0.59622 0.49735 0.86962 0.0
C738 C 0.64727 0.54804 0.04548 0.0
C739 C 0.64907 0.57094 0.06951 0.0
C740 C 0.6304 0.58784 0.05438 0.0
C741 C 0.61059 0.58228 0.01433 0.0
C742 C 0.60976 0.55974 0.98943 0.0
C743 C 0.62746 0.54279 0.00513 0.0
C744 C 0.62352 0.52054 0.96778 0.0
C745 C 0.64592 0.51446 0.92526 0.0
C746 C 0.61766 0.50025 0.01324 0.0
C747 C 0.60123 0.52776 0.92776 0.0
C748 C 0.59343 0.55035 0.94111 0.0
C749 C 0.57396 0.56112 0.90743 0.0
C750 C 0.56167 0.54832 0.86018 0.0
C751 C 0.56957 0.52524 0.84543 0.0
C752 C 0.58961 0.51496 0.87994 0.0
H753 H 0.97689 0.6353 0.07689 0.0
H754 H 0.00445 0.69668 0.98125 0.0
H755 H 0.0164 0.67286 0.88807 0.0
H756 H 0.02754 0.59421 0.00818 0.0
H757 H 0.00659 0.5704 0.00301 0.0
H758 H 0.00286 0.59192 0.06533 0.0
H759 H 0.95862 0.5973 0.02917 0.0
H760 H 0.96121 0.57942 0.95841 0.0
H761 H 0.95182 0.60994 0.95223 0.0
H762 H 0.02146 0.64452 0.80162 0.0
H763 H 0.02727 0.6106 0.73089 0.0
H764 H 0.99836 0.56543 0.87856 0.0
C765 C 0.98624 0.64344 0.03719 0.0
C766 C 0.98973 0.66791 0.03621 0.0
C767 C 1.00164 0.67801 0.98295 0.0
C768 C 0.00839 0.66465 0.92961 0.0
C769 C 0.00369 0.64091 0.93036 0.0
C770 C 0.99385 0.63005 0.98343 0.0
C771 C 0.99102 0.60405 0.9702 0.0
C772 C 0.00802 0.58927 0.0143 0.0
C773 C 0.96407 0.59719 0.97785 0.0
C774 C 0.99957 0.60244 0.90048 0.0
C775 C 0.00687 0.62405 0.87924 0.0
C776 C 0.01599 0.62745 0.81771 0.0
C777 C 0.01901 0.60808 0.77758 0.0
C778 C 0.01295 0.58543 0.79852 0.0
C779 C 0.0025 0.58263 0.86048 0.0
H780 H 0.03426 0.14896 0.53604 0.0
H781 H 0.97457 0.17254 0.41241 0.0
H782 H 0.95092 0.13766 0.44162 0.0
H783 H 0.03559 0.09244 0.49821 0.0
H784 H 0.04163 0.08162 0.57829 0.0
H785 H 0.05053 0.11042 0.55657 0.0
H786 H 0.0249 0.12637 0.65384 0.0
H787 H 0.01605 0.09708 0.67309 0.0
H788 H 0.99277 0.11961 0.66008 0.0
H789 H 0.93645 0.09713 0.47516 0.0
H790 H 0.93129 0.05693 0.51786 0.0
H791 H 0.00341 0.06026 0.60745 0.0
C792 C 0.01574 0.14719 0.51772 0.0
C793 C 0.0059 0.16325 0.47313 0.0
C794 C 0.98196 0.16043 0.44804 0.0
C795 C 0.96855 0.14066 0.46395 0.0
C796 C 0.97938 0.12424 0.50544 0.0
C797 C 1.00218 0.1277 0.5333 0.0
C798 C 0.0108 0.10684 0.57212 0.0
C799 C 0.03611 0.09727 0.54973 0.0
C800 C 0.01114 0.11284 0.644 0.0
C801 C 0.99048 0.09035 0.55692 0.0
C802 C 0.97196 0.10077 0.52069 0.0
C803 C 0.95084 0.08879 0.50376 0.0
C804 C 0.94821 0.06589 0.52722 0.0
C805 C 0.967 0.0552 0.56518 0.0
C806 C 0.9887 0.0675 0.57773 0.0
H807 H 0.34081 0.07736 0.47558 0.0
H808 H 0.36771 0.14091 0.55913 0.0
H809 H 0.40489 0.11896 0.59861 0.0
H810 H 0.3636 0.03654 0.59853 0.0
H811 H 0.37151 0.0142 0.54092 0.0
H812 H 0.34649 0.0347 0.52474 0.0
H813 H 0.3674 0.0459 0.41771 0.0
H814 H 0.3928 0.02587 0.43433 0.0
H815 H 0.39845 0.05624 0.41867 0.0
H816 H 0.43797 0.09034 0.62841 0.0
H817 H 0.46608 0.05732 0.64868 0.0
H818 H 0.41925 0.01194 0.53926 0.0
C819 C 0.35429 0.0864 0.50383 0.0
C820 C 0.35144 0.11053 0.51622 0.0
C821 C 0.36956 0.12227 0.55099 0.0
C822 C 0.39067 0.11 0.57289 0.0
C823 C 0.39322 0.08624 0.55853 0.0
C824 C 0.3755 0.07452 0.52512 0.0
C825 C 0.38317 0.0492 0.51385 0.0
C826 C 0.36512 0.03269 0.54648 0.0
C827 C 0.3856 0.04401 0.44186 0.0
C828 C 0.40806 0.04839 0.54652 0.0
C829 C 0.41334 0.07 0.57182 0.0
C830 C 0.43446 0.07357 0.60711 0.0
C831 C 0.45065 0.05462 0.61716 0.0
C832 C 0.44575 0.03206 0.59269 0.0
C833 C 0.4241 0.02903 0.55641 0.0
H834 H 0.54817 0.36359 0.50583 0.0
H835 H 0.46988 0.35992 0.46803 0.0
H836 H 0.46564 0.40277 0.47839 0.0
H837 H 0.54393 0.41103 0.6233 0.0
H838 H 0.57226 0.42315 0.59538 0.0
H839 H 0.56761 0.39228 0.58898 0.0
H840 H 0.57699 0.39551 0.46721 0.0
H841 H 0.58003 0.42669 0.4729 0.0
H842 H 0.55818 0.41476 0.41773 0.0
H843 H 0.47019 0.44598 0.48949 0.0
H844 H 0.48144 0.48505 0.52628 0.0
H845 H 0.55724 0.46051 0.5499 0.0
C846 C 0.53001 0.37181 0.50213 0.0
C847 C 0.5093 0.35864 0.48688 0.0
C848 C 0.48584 0.36979 0.48118 0.0
C849 C 0.48333 0.39412 0.48582 0.0
C850 C 0.50443 0.40681 0.49658 0.0
C851 C 0.52718 0.396 0.50654 0.0
C852 C 0.54689 0.41353 0.51856 0.0
C853 C 0.55832 0.40979 0.58552 0.0
C854 C 0.56669 0.41255 0.46594 0.0
C855 C 0.53159 0.43596 0.51461 0.0
C856 C 0.50722 0.43174 0.50077 0.0
C857 C 0.48921 0.44953 0.50003 0.0
C858 C 0.49586 0.4718 0.51993 0.0
C859 C 0.52016 0.47575 0.54139 0.0
C860 C 0.53861 0.45817 0.53302 0.0
H861 H 0.15911 0.43087 0.45598 0.0
H862 H 0.13277 0.37076 0.55956 0.0
H863 H 0.09907 0.39553 0.60612 0.0
H864 H 0.14493 0.47517 0.57569 0.0
H865 H 0.1351 0.49675 0.51722 0.0
H866 H 0.15798 0.4747 0.49629 0.0
H867 H 0.13103 0.46233 0.40024 0.0
H868 H 0.10796 0.48418 0.42125 0.0
H869 H 0.0997 0.45402 0.41424 0.0
H870 H 0.07045 0.42673 0.64393 0.0
H871 H 0.04371 0.46076 0.66194 0.0
H872 H 0.08651 0.50126 0.52749 0.0
C873 C 0.14647 0.42314 0.4896 0.0
C874 C 0.14862 0.39922 0.50606 0.0
C875 C 0.13147 0.38921 0.54792 0.0
C876 C 0.1124 0.40311 0.57423 0.0
C877 C 0.11077 0.42669 0.55693 0.0
C878 C 0.12715 0.43661 0.51516 0.0
C879 C 0.12033 0.46203 0.50146 0.0
C880 C 0.1408 0.47811 0.52403 0.0
C881 C 0.1144 0.46585 0.43005 0.0
C882 C 0.09745 0.46494 0.5423 0.0
C883 C 0.09263 0.44433 0.57427 0.0
C884 C 0.07339 0.44262 0.61719 0.0
C885 C 0.05814 0.46222 0.62649 0.0
C886 C 0.06215 0.48359 0.59354 0.0
C887 C 0.08239 0.48503 0.55144 0.0
H888 H 0.98948 0.85484 0.94677 0.0
H889 H 0.06616 0.83444 0.91798 0.0
H890 H 0.07489 0.87436 0.88187 0.0
H891 H 0.98792 0.89924 0.80408 0.0
H892 H 0.96672 0.91806 0.84741 0.0
H893 H 0.9654 0.8868 0.85666 0.0
H894 H 0.96952 0.8919 0.97904 0.0
H895 H 0.97227 0.92298 0.97075 0.0
H896 H 0.99609 0.90601 0.01122 0.0
H897 H 0.07745 0.91734 0.87988 0.0
H898 H 0.07146 0.95982 0.86884 0.0
H899 H 0.99241 0.95251 0.8905 0.0
C900 C 0.00773 0.85842 0.929 0.0
C901 C 0.02729 0.84182 0.93609 0.0
C902 C 0.05106 0.84711 0.91344 0.0
C903 C 0.05621 0.86974 0.89338 0.0
C904 C 0.03713 0.88646 0.89396 0.0
C905 C 0.01306 0.88087 0.90743 0.0
C906 C 0.99629 0.90252 0.90657 0.0
C907 C 0.97801 0.9016 0.85033 0.0
C908 C 0.98277 0.90603 0.97074 0.0
C909 C 0.01507 0.92116 0.89578 0.0
C910 C 0.03848 0.91147 0.88889 0.0
C911 C 0.0591 0.92515 0.88277 0.0
C912 C 0.05551 0.94936 0.87791 0.0
C913 C 0.03138 0.95955 0.87769 0.0
C914 C 0.01106 0.94529 0.89011 0.0
H915 H 0.6542 0.92647 0.95021 0.0
H916 H 0.60052 0.87438 1.00095 0.0
H917 H 0.56768 0.90472 0.99304 0.0
H918 H 0.62707 0.97493 0.02624 0.0
H919 H 0.63316 0.99536 0.96263 0.0
H920 H 0.65323 0.97011 0.97433 0.0
H921 H 0.64623 0.95687 0.8571 0.0
H922 H 0.62713 0.98265 0.84428 0.0
H923 H 0.6152 0.95424 0.82777 0.0
H924 H 0.54038 0.94012 0.98055 0.0
H925 H 0.51965 0.97586 0.9377 0.0
H926 H 0.59074 0.00409 0.8913 0.0
C927 C 0.63558 0.92082 0.95757 0.0
C928 C 0.63043 0.89781 0.97812 0.0
C929 C 0.60545 0.89189 0.98747 0.0
C930 C 0.58649 0.90894 0.9827 0.0
C931 C 0.59252 0.93157 0.96597 0.0
C932 C 0.61633 0.93732 0.95117 0.0
C933 C 0.61771 0.96257 0.93015 0.0
C934 C 0.63375 0.97656 0.9761 0.0
C935 C 0.62711 0.96417 0.86071 0.0
C936 C 0.59084 0.97008 0.93525 0.0
C937 C 0.57669 0.95203 0.95727 0.0
C938 C 0.55118 0.9543 0.96251 0.0
C939 C 0.5396 0.9748 0.93931 0.0
C940 C 0.55367 0.99283 0.91249 0.0
C941 C 0.57963 0.9909 0.91357 0.0
H942 H 0.46366 0.65576 0.92176 0.0
H943 H 0.54291 0.64654 0.93713 0.0
H944 H 0.5385 0.60405 0.94304 0.0
H945 H 0.44604 0.61248 0.02257 0.0
H946 H 0.42118 0.60134 0.97536 0.0
H947 H 0.4297 0.63137 0.96668 0.0
H948 H 0.4375 0.62638 0.84444 0.0
H949 H 0.42683 0.59703 0.85214 0.0
H950 H 0.4566 0.60211 0.81749 0.0
H951 H 0.52546 0.56366 0.96509 0.0
H952 H 0.50714 0.52555 0.94543 0.0
H953 H 0.43654 0.56017 0.90798 0.0
C954 C 0.48017 0.64468 0.92177 0.0
C955 C 0.5036 0.65422 0.93018 0.0
C956 C 0.52484 0.63935 0.93039 0.0
C957 C 0.52249 0.61523 0.93536 0.0
C958 C 0.49894 0.60639 0.93544 0.0
C959 C 0.47827 0.6204 0.92414 0.0
C960 C 0.45529 0.60609 0.92177 0.0
C961 C 0.43698 0.61327 0.97477 0.0
C962 C 0.44334 0.608 0.855 0.0
C963 C 0.46638 0.58191 0.93422 0.0
C964 C 0.49146 0.58272 0.9446 0.0
C965 C 0.50597 0.56267 0.95523 0.0
C966 C 0.49523 0.54106 0.9459 0.0
C967 C 0.4707 0.54009 0.92325 0.0
C968 C 0.45538 0.56043 0.92507 0.0
H969 H 0.86402 0.61693 0.84535 0.0
H970 H 0.80735 0.56996 0.90623 0.0
H971 H 0.83635 0.53644 0.89496 0.0
H972 H 0.89382 0.57101 0.72727 0.0
H973 H 0.92376 0.58249 0.74291 0.0
H974 H 0.89694 0.60175 0.74253 0.0
H975 H 0.90854 0.61544 0.85672 0.0
H976 H 0.93473 0.59559 0.85682 0.0
H977 H 0.91201 0.59405 0.92004 0.0
H978 H 0.87334 0.50959 0.89901 0.0
H979 H 0.91371 0.48895 0.88924 0.0
H980 H 0.94609 0.55349 0.82459 0.0
C981 C 0.85745 0.59943 0.85242 0.0
C982 C 0.83351 0.59588 0.8757 0.0
C983 C 0.82551 0.57287 0.88675 0.0
C984 C 0.84193 0.55376 0.88131 0.0
C985 C 0.86597 0.55794 0.86267 0.0
C986 C 0.87341 0.58 0.84507 0.0
C987 C 0.90049 0.57965 0.82821 0.0
C988 C 0.90394 0.58397 0.75596 0.0
C989 C 0.91476 0.59724 0.86798 0.0
C990 C 0.90754 0.5547 0.84597 0.0
C991 C 0.8873 0.54232 0.86443 0.0
C992 C 0.8893 0.51896 0.88332 0.0
C993 C 0.91239 0.50748 0.87881 0.0
C994 C 0.93309 0.5195 0.85593 0.0
C995 C 0.93071 0.54371 0.8424 0.0
H996 H 0.04541 0.16238 0.98529 0.0
H997 H 0.97855 0.20424 0.95248 0.0
H998 H 0.96332 0.17369 0.88119 0.0
H999 H 0.04915 0.13547 0.82347 0.0
H1000 H 0.0598 0.1076 0.85479 0.0
H1001 H 0.06726 0.13413 0.8959 0.0
H1002 H 0.04803 0.11797 0.99995 0.0
H1003 H 0.0403 0.09153 0.95907 0.0
H1004 H 0.01659 0.10865 0.99897 0.0
H1005 H 0.95332 0.1376 0.8225 0.0
H1006 H 0.94888 0.09872 0.77754 0.0
H1007 H 0.02122 0.07766 0.85063 0.0
C1008 C 0.02764 0.16534 0.96273 0.0
C1009 C 0.01327 0.18607 0.975 0.0
C1010 C 0.99026 0.18902 0.94343 0.0
C1011 C 0.98132 0.17156 0.90309 0.0
C1012 C 0.99552 0.15113 0.89426 0.0
C1013 C 0.01828 0.14794 0.9227 0.0
C1014 C 0.02908 0.12362 0.90817 0.0
C1015 C 0.05273 0.12531 0.86821 0.0
C1016 C 0.03377 0.10962 0.97024 0.0
C1017 C 0.0084 0.11333 0.86891 0.0
C1018 C 0.98948 0.12978 0.86097 0.0
C1019 C 0.96809 0.12466 0.82811 0.0
C1020 C 0.96578 0.10225 0.80286 0.0
C1021 C 0.98463 0.08466 0.81045 0.0
C1022 C 0.00643 0.09049 0.84374 0.0
H1023 H 0.34299 0.05686 0.05908 0.0
H1024 H 0.32891 0.11956 0.94648 0.0
H1025 H 0.3643 0.10922 0.87663 0.0
H1026 H 0.40783 0.0591 0.05593 0.0
H1027 H 0.41347 0.02804 0.04922 0.0
H1028 H 0.38589 0.03907 0.08786 0.0
H1029 H 0.35877 0.01578 0.00997 0.0
H1030 H 0.38629 0.00405 0.97264 0.0
H1031 H 0.36307 0.01898 0.92474 0.0
H1032 H 0.40356 0.09383 0.82473 0.0
H1033 H 0.43895 0.07048 0.78185 0.0
H1034 H 0.42702 0.01735 0.92593 0.0
C1035 C 0.34682 0.0679 0.01822 0.0
C1036 C 0.33298 0.08883 0.00748 0.0
C1037 C 0.33909 0.10328 0.95487 0.0
C1038 C 0.35932 0.09769 0.91545 0.0
C1039 C 0.37336 0.07754 0.92915 0.0
C1040 C 0.36705 0.06255 0.9783 0.0
C1041 C 0.3854 0.04212 0.9831 0.0
C1042 C 0.39894 0.04209 0.04788 0.0
C1043 C 0.37262 0.01886 0.9719 0.0
C1044 C 0.40278 0.04784 0.92862 0.0
C1045 C 0.39582 0.0686 0.89893 0.0
C1046 C 0.40918 0.07755 0.84763 0.0
C1047 C 0.4295 0.0644 0.82422 0.0
C1048 C 0.43604 0.04248 0.85167 0.0
C1049 C 0.42275 0.03437 0.90521 0.0
H1050 H 0.50197 0.35998 0.05235 0.0
H1051 H 0.51345 0.30525 0.91206 0.0
H1052 H 0.50764 0.33452 0.82471 0.0
H1053 H 0.45538 0.39543 0.95801 0.0
H1054 H 0.4674 0.42254 0.98639 0.0
H1055 H 0.46909 0.39683 0.03656 0.0
H1056 H 0.51623 0.40118 0.04735 0.0
H1057 H 0.51474 0.42674 0.99703 0.0
H1058 H 0.53488 0.40241 0.97605 0.0
H1059 H 0.50729 0.37101 0.75394 0.0
H1060 H 0.50952 0.41052 0.70602 0.0
H1061 H 0.49616 0.44148 0.89209 0.0
C1062 C 0.50253 0.35406 0.00313 0.0
C1063 C 0.50795 0.33026 0.98889 0.0
C1064 C 0.50891 0.32325 0.92403 0.0
C1065 C 0.50576 0.33983 0.87421 0.0
C1066 C 0.50124 0.36331 0.89002 0.0
C1067 C 0.49917 0.37031 0.95308 0.0
C1068 C 0.49571 0.39669 0.95781 0.0
C1069 C 0.47038 0.40326 0.98638 0.0
C1070 C 0.51664 0.40737 0.99685 0.0
C1071 C 0.49704 0.40368 0.88766 0.0
C1072 C 0.50015 0.38414 0.84925 0.0
C1073 C 0.50421 0.3863 0.78348 0.0
C1074 C 0.50545 0.40882 0.75661 0.0
C1075 C 0.50234 0.42905 0.79497 0.0
C1076 C 0.49766 0.42635 0.86122 0.0
H1077 H 0.16405 0.46709 0.03305 0.0
H1078 H 0.15208 0.39326 0.00504 0.0
H1079 H 0.11457 0.40284 0.94217 0.0
H1080 H 0.10126 0.48469 0.05152 0.0
H1081 H 0.10378 0.51179 0.00808 0.0
H1082 H 0.13022 0.49932 0.04922 0.0
H1083 H 0.15546 0.49949 0.94385 0.0
H1084 H 0.12929 0.51251 0.90284 0.0
H1085 H 0.14329 0.48573 0.87348 0.0
H1086 H 0.07677 0.42072 0.88547 0.0
H1087 H 0.04572 0.44564 0.82774 0.0
H1088 H 0.08284 0.50734 0.89229 0.0
C1089 C 0.15387 0.45296 0.01245 0.0
C1090 C 0.16105 0.42941 0.02427 0.0
C1091 C 0.14688 0.41145 0.99714 0.0
C1092 C 0.12547 0.4167 0.9615 0.0
C1093 C 0.11837 0.44006 0.95284 0.0
C1094 C 0.1324 0.4579 0.97659 0.0
C1095 C 0.12087 0.48155 0.95997 0.0
C1096 C 0.11361 0.49513 0.02083 0.0
C1097 C 0.13826 0.49564 0.91749 0.0
C1098 C 0.09827 0.47423 0.92315 0.0
C1099 C 0.09692 0.45023 0.92001 0.0
C1100 C 0.07767 0.43955 0.88766 0.0
C1101 C 0.05991 0.4538 0.85566 0.0
C1102 C 0.06172 0.47839 0.85593 0.0
C1103 C 0.08085 0.48857 0.89154 0.0
H1104 H 0.02974 0.83538 0.47497 0.0
H1105 H 0.95096 0.82501 0.47265 0.0
H1106 H 0.94464 0.86046 0.53899 0.0
H1107 H 0.03376 0.85867 0.63851 0.0
H1108 H 0.0568 0.87925 0.61621 0.0
H1109 H 0.05492 0.85193 0.5742 0.0
H1110 H 0.05082 0.8745 0.46667 0.0
H1111 H 0.05235 0.90186 0.50839 0.0
H1112 H 0.02651 0.89631 0.45696 0.0
H1113 H 0.94692 0.90019 0.59631 0.0
H1114 H 0.95799 0.93752 0.64753 0.0
H1115 H 0.03525 0.92103 0.61309 0.0
C1116 C 0.01116 0.84028 0.48937 0.0
C1117 C 0.99085 0.82721 0.46861 0.0
C1118 C 0.96687 0.83439 0.48863 0.0
C1119 C 0.96309 0.85469 0.52587 0.0
C1120 C 0.98347 0.86761 0.54336 0.0
C1121 C 0.00709 0.86041 0.52649 0.0
C1122 C 0.02589 0.87769 0.54904 0.0
C1123 C 0.0439 0.86619 0.59738 0.0
C1124 C 0.0397 0.88821 0.49186 0.0
C1125 C 0.00924 0.89587 0.58097 0.0
C1126 C 0.9848 0.88992 0.57692 0.0
C1127 C 0.96605 0.90479 0.60035 0.0
C1128 C 0.97248 0.92605 0.62907 0.0
C1129 C 0.99748 0.93222 0.63482 0.0
C1130 C 0.01597 0.91677 0.6103 0.0
H1131 H 0.6724 0.96045 0.44372 0.0
H1132 H 0.65448 0.88739 0.46373 0.0
H1133 H 0.61902 0.8984 0.53188 0.0
H1134 H 0.65595 0.97653 0.60987 0.0
H1135 H 0.64399 0.00496 0.58623 0.0
H1136 H 0.66846 0.99106 0.54087 0.0
H1137 H 0.64201 0.99558 0.43791 0.0
H1138 H 0.61726 0.00902 0.4832 0.0
H1139 H 0.61174 0.98345 0.43581 0.0
H1140 H 0.58272 0.91779 0.58957 0.0
H1141 H 0.55298 0.94371 0.64784 0.0
H1142 H 0.59631 0.0035 0.59733 0.0
C1143 C 0.66146 0.94671 0.46384 0.0
C1144 C 0.66618 0.92304 0.44746 0.0
C1145 C 0.65107 0.90568 0.47444 0.0
C1146 C 0.63082 0.91175 0.51329 0.0
C1147 C 0.62603 0.93527 0.52607 0.0
C1148 C 0.64128 0.95244 0.50355 0.0
C1149 C 0.63214 0.97642 0.52494 0.0
C1150 C 0.65127 0.98792 0.56806 0.0
C1151 C 0.62539 0.99203 0.467 0.0
C1152 C 0.60935 0.97004 0.56249 0.0
C1153 C 0.60588 0.94626 0.56181 0.0
C1154 C 0.58544 0.93643 0.59114 0.0
C1155 C 0.56852 0.95125 0.62359 0.0
C1156 C 0.57242 0.97551 0.62724 0.0
C1157 C 0.59298 0.98494 0.59567 0.0
H1158 H 0.53968 0.66263 0.47466 0.0
H1159 H 0.4718 0.70349 0.49658 0.0
H1160 H 0.45875 0.67631 0.58186 0.0
H1161 H 0.51197 0.60976 0.47707 0.0
H1162 H 0.53631 0.5937 0.5181 0.0
H1163 H 0.54331 0.61914 0.47147 0.0
H1164 H 0.56367 0.63793 0.57011 0.0
H1165 H 0.55711 0.61234 0.61702 0.0
H1166 H 0.54659 0.64078 0.64383 0.0
H1167 H 0.45013 0.64119 0.65113 0.0
H1168 H 0.44665 0.60254 0.70061 0.0
H1169 H 0.51897 0.58212 0.6278 0.0
C1170 C 0.52238 0.66636 0.49879 0.0
C1171 C 0.50679 0.68542 0.47867 0.0
C1172 C 0.4843 0.68945 0.51158 0.0
C1173 C 0.47664 0.67386 0.55971 0.0
C1174 C 0.49166 0.65429 0.57459 0.0
C1175 C 0.51421 0.65064 0.54545 0.0
C1176 C 0.5255 0.62686 0.56365 0.0
C1177 C 0.5295 0.61147 0.50403 0.0
C1178 C 0.54965 0.62965 0.60088 0.0
C1179 C 0.50551 0.61733 0.6065 0.0
C1180 C 0.48635 0.63363 0.61288 0.0
C1181 C 0.46521 0.62852 0.64714 0.0
C1182 C 0.46346 0.6063 0.67519 0.0
C1183 C 0.48264 0.58901 0.66903 0.0
C1184 C 0.50408 0.59485 0.6344 0.0
H1185 H 0.83789 0.55499 0.39533 0.0
H1186 H 0.84962 0.62819 0.43433 0.0
H1187 H 0.88295 0.61723 0.50979 0.0
H1188 H 0.85053 0.53468 0.56345 0.0
H1189 H 0.86518 0.50784 0.53657 0.0
H1190 H 0.84093 0.52154 0.48949 0.0
H1191 H 0.87013 0.52178 0.39141 0.0
H1192 H 0.89464 0.50866 0.43858 0.0
H1193 H 0.89928 0.53593 0.39752 0.0
H1194 H 0.91884 0.59856 0.57014 0.0
H1195 H 0.94942 0.57294 0.62705 0.0
H1196 H 0.91261 0.51199 0.55639 0.0
C1197 C 0.8469 0.56866 0.42137 0.0
C1198 C 0.84124 0.59248 0.40822 0.0
C1199 C 0.8538 0.60983 0.44283 0.0
C1200 C 0.87284 0.60379 0.48579 0.0
C1201 C 0.8789 0.58025 0.495 0.0
C1202 C 0.86584 0.5629 0.46534 0.0
C1203 C 0.87628 0.53892 0.4836 0.0
C1204 C 0.85709 0.52492 0.52049 0.0
C1205 C 0.88563 0.52554 0.42423 0.0
C1206 C 0.89748 0.54555 0.52677 0.0
C1207 C 0.89888 0.56949 0.53219 0.0
C1208 C 0.91773 0.57976 0.56694 0.0
C1209 C 0.93519 0.56514 0.59845 0.0
C1210 C 0.93341 0.54059 0.59576 0.0
C1211 C 0.91437 0.53076 0.55914 0.0
loop_
_geom_bond_atom_site_label_1
_geom_bond_atom_site_label_2
_geom_bond_distance
_geom_bond_site_symmetry_2
_ccdc_geom_bond_type
C0 C1 1.391 . S
C0 C4 1.391 . S
C0 H42 0.948 . S
C1 C0 1.391 . S
C1 C2 1.391 . S
C2 C1 1.391 . S
C2 H58 0.947 . S
C2 C59 1.392 . S
C3 C4 1.391 . S
C3 C7 1.397 . S
C3 C59 1.419 . S
C4 C0 1.391 . S
C4 C3 1.391 . S
C4 C5 1.399 . S
C5 C4 1.399 . S
C5 C8 1.396 . S
C5 C17 1.453 . S
C5 C18 1.684 . S
H6 C30 0.948 1_556 S
C7 C3 1.397 . S
C7 C8 1.394 . S
C7 C26 1.723 . S
C8 C5 1.396 . S
C8 C7 1.394 . S
C8 C38 1.723 . S
H9 C32 0.947 . S
H10 C33 0.948 . S
H11 C39 0.982 . S
H12 C40 0.979 . S
H13 C40 0.980 . S
H14 C40 0.983 . S
H15 C39 0.979 . S
H16 C39 0.977 . S
C17 C5 1.453 . S
C17 H46 0.982 . S
C17 H47 0.979 . S
C17 H48 0.977 . S
C18 C5 1.684 . S
C18 H43 0.979 . S
C18 H44 0.980 . S
C18 H45 0.983 . S
C19 C20 1.391 . S
C19 C24 1.391 1_556 S
C19 H49 0.948 . S
C20 C19 1.391 . S
C20 C21 1.391 . S
C21 C20 1.391 . S
C21 C22 1.392 . S
C21 H50 0.947 . S
C22 C21 1.392 . S
C22 C23 1.419 . S
C22 H51 0.948 . S
C23 C22 1.419 . S
C23 C24 1.391 1_556 S
C23 C27 1.397 1_556 S
C24 C19 1.391 1_554 S
C24 C23 1.391 1_554 S
C24 C25 1.399 . S
C25 C24 1.399 . S
C25 C26 1.396 . S
C25 C28 1.453 . S
C25 C29 1.684 . S
C26 C7 1.723 . S
C26 C25 1.396 . S
C26 C27 1.394 . S
C27 C23 1.397 1_554 S
C27 C26 1.394 . S
C27 C37 1.723 . S
C28 C25 1.453 . S
C28 H52 0.982 . S
C28 H53 0.979 . S
C28 H54 0.977 . S
C29 C25 1.684 . S
C29 H55 0.979 . S
C29 H56 0.980 . S
C29 H57 0.983 . S
C30 H6 0.948 1_554 S
C30 C31 1.391 . S
C30 C35 1.391 . S
C31 C30 1.391 . S
C31 C32 1.391 . S
C32 H9 0.947 . S
C32 C31 1.391 . S
C32 C33 1.392 . S
C33 H10 0.948 . S
C33 C32 1.392 . S
C33 C34 1.419 . S
C34 C33 1.419 . S
C34 C35 1.391 . S
C34 C38 1.397 . S
C35 C30 1.391 . S
C35 C34 1.391 . S
C35 C36 1.399 1_554 S
C36 C35 1.399 1_556 S
C36 C37 1.396 1_556 S
C36 C39 1.453 . S
C36 C40 1.684 . S
C37 C27 1.723 . S
C37 C36 1.396 1_554 S
C37 C38 1.394 . S
C38 C8 1.723 . S
C38 C34 1.397 . S
C38 C37 1.394 . S
C39 H11 0.982 . S
C39 H15 0.979 . S
C39 H16 0.977 . S
C39 C36 1.453 . S
C40 H12 0.979 . S
C40 H13 0.980 . S
C40 H14 0.983 . S
C40 C36 1.684 . S
H41 C59 0.948 . S
H42 C0 0.948 . S
H43 C18 0.979 . S
H44 C18 0.980 . S
H45 C18 0.983 . S
H46 C17 0.982 . S
H47 C17 0.979 . S
H48 C17 0.977 . S
H49 C19 0.948 . S
H50 C21 0.947 . S
H51 C22 0.948 . S
H52 C28 0.982 . S
H53 C28 0.979 . S
H54 C28 0.977 . S
H55 C29 0.979 . S
H56 C29 0.980 . S
H57 C29 0.983 . S
H58 C2 0.947 . S
C59 C2 1.392 . S
C59 C3 1.419 . S
C59 H41 0.948 . S
C60 C61 1.391 . S
C60 C64 1.391 . S
C60 H102 0.948 . S
C61 C60 1.391 . S
C61 C62 1.408 . S
C62 C61 1.408 . S
C62 H118 0.944 1_556 S
C62 C119 1.377 1_556 S
C63 C64 1.391 1_554 S
C63 C67 1.397 1_655 S
C63 C119 1.419 . S
C64 C60 1.391 . S
C64 C63 1.391 1_556 S
C64 C65 1.399 . S
C65 C64 1.399 . S
C65 C68 1.396 1_656 S
C65 C77 1.453 1_655 S
C65 C78 1.684 . S
H66 C90 0.948 . S
C67 C63 1.397 1_455 S
C67 C68 1.394 . S
C67 C86 1.723 . S
C68 C65 1.396 1_454 S
C68 C67 1.394 . S
C68 C98 1.723 . S
H69 C92 0.947 1_556 S
H70 C93 0.948 1_556 S
H71 C99 0.982 . S
H72 C100 0.979 . S
H73 C100 0.980 . S
H74 C100 0.983 . S
H75 C99 0.979 . S
H76 C99 0.977 . S
C77 C65 1.453 1_455 S
C77 H106 0.982 . S
C77 H107 0.979 . S
C77 H108 0.977 . S
C78 C65 1.684 . S
C78 H103 0.979 . S
C78 H104 0.980 . S
C78 H105 0.983 . S
C79 C80 1.391 . S
C79 C84 1.391 . S
C79 H109 0.948 . S
C80 C79 1.391 . S
C80 C81 1.391 . S
C81 C80 1.391 . S
C81 C82 1.392 . S
C81 H110 0.947 . S
C82 C81 1.392 . S
C82 C83 1.419 . S
C82 H111 0.948 . S
C83 C82 1.419 . S
C83 C84 1.391 . S
C83 C87 1.397 1_655 S
C84 C79 1.391 . S
C84 C83 1.391 . S
C84 C85 1.399 . S
C85 C84 1.399 . S
C85 C86 1.396 1_655 S
C85 C88 1.453 1_655 S
C85 C89 1.684 . S
C86 C67 1.723 . S
C86 C85 1.396 1_455 S
C86 C87 1.394 . S
C87 C83 1.397 1_455 S
C87 C86 1.394 . S
C87 C97 1.723 . S
C88 C85 1.453 1_455 S
C88 H112 0.982 . S
C88 H113 0.979 . S
C88 H114 0.977 . S
C89 C85 1.684 . S
C89 H115 0.979 . S
C89 H116 0.980 . S
C89 H117 0.983 . S
C90 H66 0.948 . S
C90 C91 1.391 . S
C90 C95 1.391 . S
C91 C90 1.391 . S
C91 C92 1.391 . S
C92 H69 0.947 1_554 S
C92 C91 1.391 . S
C92 C93 1.392 . S
C93 H70 0.948 1_554 S
C93 C92 1.392 . S
C93 C94 1.419 . S
C94 C93 1.419 . S
C94 C95 1.391 . S
C94 C98 1.397 1_655 S
C95 C90 1.391 . S
C95 C94 1.391 . S
C95 C96 1.399 . S
C96 C95 1.399 . S
C96 C97 1.396 1_655 S
C96 C99 1.453 1_655 S
C96 C100 1.684 . S
C97 C87 1.723 . S
C97 C96 1.396 1_455 S
C97 C98 1.394 . S
C98 C68 1.723 . S
C98 C94 1.397 1_455 S
C98 C97 1.394 . S
C99 H71 0.982 . S
C99 H75 0.979 . S
C99 H76 0.977 . S
C99 C96 1.453 1_455 S
C100 H72 0.979 . S
C100 H73 0.980 . S
C100 H74 0.983 . S
C100 C96 1.684 . S
H101 C119 0.948 . S
H102 C60 0.948 . S
H103 C78 0.979 . S
H104 C78 0.980 . S
H105 C78 0.983 . S
H106 C77 0.982 . S
H107 C77 0.979 . S
H108 C77 0.977 . S
H109 C79 0.948 . S
H110 C81 0.947 . S
H111 C82 0.948 . S
H112 C88 0.982 . S
H113 C88 0.979 . S
H114 C88 0.977 . S
H115 C89 0.979 . S
H116 C89 0.980 . S
H117 C89 0.983 . S
H118 C62 0.944 1_554 S
C119 C62 1.377 1_554 S
C119 C63 1.419 . S
C119 H101 0.948 . S
C120 C121 1.391 . S
C120 C124 1.391 . S
C120 H162 0.948 . S
C121 C120 1.391 . S
C121 C122 1.391 1_554 S
C122 C121 1.391 1_556 S
C122 H178 0.947 . S
C122 C179 1.392 . S
C123 C124 1.391 . S
C123 C127 1.397 . S
C123 C179 1.419 1_554 S
C124 C120 1.391 . S
C124 C123 1.391 . S
C124 C125 1.399 . S
C125 C124 1.399 . S
C125 C128 1.396 . S
C125 C137 1.453 . S
C125 C138 1.684 . S
H126 C150 0.948 . S
C127 C123 1.397 . S
C127 C128 1.394 . S
C127 C146 1.723 . S
C128 C125 1.396 . S
C128 C127 1.394 . S
C128 C158 1.723 . S
H129 C152 0.947 . S
H130 C153 0.948 . S
H131 C159 0.982 . S
H132 C160 0.979 . S
H133 C160 0.980 . S
H134 C160 0.983 . S
H135 C159 0.979 . S
H136 C159 0.977 . S
C137 C125 1.453 . S
C137 H166 0.982 . S
C137 H167 0.979 . S
C137 H168 0.977 . S
C138 C125 1.684 . S
C138 H163 0.979 . S
C138 H164 0.980 . S
C138 H165 0.983 . S
C139 C140 1.391 . S
C139 C144 1.391 . S
C139 H169 0.948 . S
C140 C139 1.391 . S
C140 C141 1.391 . S
C141 C140 1.391 . S
C141 C142 1.392 1_556 S
C141 H170 0.947 . S
C142 C141 1.392 1_554 S
C142 C143 1.419 . S
C142 H171 0.948 . S
C143 C142 1.419 . S
C143 C144 1.391 1_554 S
C143 C147 1.397 . S
C144 C139 1.391 . S
C144 C143 1.391 1_556 S
C144 C145 1.399 . S
C145 C144 1.399 . S
C145 C146 1.396 1_556 S
C145 C148 1.453 . S
C145 C149 1.684 . S
C146 C127 1.723 . S
C146 C145 1.396 1_554 S
C146 C147 1.394 . S
C147 C143 1.397 . S
C147 C146 1.394 . S
C147 C157 1.723 . S
C148 C145 1.453 . S
C148 H172 0.982 . S
C148 H173 0.979 . S
C148 H174 0.977 . S
C149 C145 1.684 . S
C149 H175 0.979 . S
C149 H176 0.980 . S
C149 H177 0.983 . S
C150 H126 0.948 . S
C150 C151 1.391 . S
C150 C155 1.391 . S
C151 C150 1.391 . S
C151 C152 1.391 . S
C152 H129 0.947 . S
C152 C151 1.391 . S
C152 C153 1.392 . S
C153 H130 0.948 . S
C153 C152 1.392 . S
C153 C154 1.419 . S
C154 C153 1.419 . S
C154 C155 1.391 . S
C154 C158 1.397 . S
C155 C150 1.391 . S
C155 C154 1.391 . S
C155 C156 1.399 . S
C156 C155 1.399 . S
C156 C157 1.396 . S
C156 C159 1.453 . S
C156 C160 1.684 . S
C157 C147 1.723 . S
C157 C156 1.396 . S
C157 C158 1.394 . S
C158 C128 1.723 . S
C158 C154 1.397 . S
C158 C157 1.394 . S
C159 H131 0.982 . S
C159 H135 0.979 . S
C159 H136 0.977 . S
C159 C156 1.453 . S
C160 H132 0.979 . S
C160 H133 0.980 . S
C160 H134 0.983 . S
C160 C156 1.684 . S
H161 C179 0.948 . S
H162 C120 0.948 . S
H163 C138 0.979 . S
H164 C138 0.980 . S
H165 C138 0.983 . S
H166 C137 0.982 . S
H167 C137 0.979 . S
H168 C137 0.977 . S
H169 C139 0.948 . S
H170 C141 0.947 . S
H171 C142 0.948 . S
H172 C148 0.982 . S
H173 C148 0.979 . S
H174 C148 0.977 . S
H175 C149 0.979 . S
H176 C149 0.980 . S
H177 C149 0.983 . S
H178 C122 0.947 . S
C179 C122 1.392 . S
C179 C123 1.419 1_556 S
C179 H161 0.948 . S
C180 C181 1.391 . S
C180 C184 1.391 . S
C180 H222 0.948 . S
C181 C180 1.391 . S
C181 C182 1.391 . S
C182 C181 1.391 . S
C182 H238 0.947 . S
C182 C239 1.392 . S
C183 C184 1.391 . S
C183 C187 1.397 . S
C183 C239 1.419 . S
C184 C180 1.391 . S
C184 C183 1.391 . S
C184 C185 1.399 . S
C185 C184 1.399 . S
C185 C188 1.396 . S
C185 C197 1.453 . S
C185 C198 1.684 . S
H186 C210 0.948 1_556 S
C187 C183 1.397 . S
C187 C188 1.394 . S
C187 C206 1.723 . S
C188 C185 1.396 . S
C188 C187 1.394 . S
C188 C218 1.723 . S
H189 C212 0.947 . S
H190 C213 0.948 . S
H191 C219 0.982 . S
H192 C220 0.979 . S
H193 C220 0.980 . S
H194 C220 0.983 . S
H195 C219 0.979 . S
H196 C219 0.977 . S
C197 C185 1.453 . S
C197 H226 0.982 . S
C197 H227 0.979 . S
C197 H228 0.977 . S
C198 C185 1.684 . S
C198 H223 0.979 . S
C198 H224 0.980 . S
C198 H225 0.983 . S
C199 C200 1.391 . S
C199 C204 1.391 1_556 S
C199 H229 0.948 1_556 S
C200 C199 1.391 . S
C200 C201 1.391 . S
C201 C200 1.391 . S
C201 C202 1.392 . S
C201 H230 0.947 . S
C202 C201 1.392 . S
C202 C203 1.419 1_556 S
C202 H231 0.948 . S
C203 C202 1.419 1_554 S
C203 C204 1.391 . S
C203 C207 1.397 . S
C204 C199 1.391 1_554 S
C204 C203 1.391 . S
C204 C205 1.399 . S
C205 C204 1.399 . S
C205 C206 1.396 . S
C205 C208 1.453 . S
C205 C209 1.684 . S
C206 C187 1.723 . S
C206 C205 1.396 . S
C206 C207 1.394 . S
C207 C203 1.397 . S
C207 C206 1.394 . S
C207 C217 1.723 . S
C208 C205 1.453 . S
C208 H232 0.982 . S
C208 H233 0.979 . S
C208 H234 0.977 . S
C209 C205 1.684 . S
C209 H235 0.979 . S
C209 H236 0.980 . S
C209 H237 0.983 . S
C210 H186 0.948 1_554 S
C210 C211 1.391 . S
C210 C215 1.391 . S
C211 C210 1.391 . S
C211 C212 1.391 . S
C212 H189 0.947 . S
C212 C211 1.391 . S
C212 C213 1.392 . S
C213 H190 0.948 . S
C213 C212 1.392 . S
C213 C214 1.419 . S
C214 C213 1.419 . S
C214 C215 1.391 . S
C214 C218 1.397 . S
C215 C210 1.391 . S
C215 C214 1.391 . S
C215 C216 1.399 . S
C216 C215 1.399 . S
C216 C217 1.396 . S
C216 C219 1.453 1_554 S
C216 C220 1.684 1_554 S
C217 C207 1.723 . S
C217 C216 1.396 . S
C217 C218 1.394 . S
C218 C188 1.723 . S
C218 C214 1.397 . S
C218 C217 1.394 . S
C219 H191 0.982 . S
C219 H195 0.979 . S
C219 H196 0.977 . S
C219 C216 1.453 1_556 S
C220 H192 0.979 . S
C220 H193 0.980 . S
C220 H194 0.983 . S
C220 C216 1.684 1_556 S
H221 C239 0.948 . S
H222 C180 0.948 . S
H223 C198 0.979 . S
H224 C198 0.980 . S
H225 C198 0.983 . S
H226 C197 0.982 . S
H227 C197 0.979 . S
H228 C197 0.977 . S
H229 C199 0.948 1_554 S
H230 C201 0.947 . S
H231 C202 0.948 . S
H232 C208 0.982 . S
H233 C208 0.979 . S
H234 C208 0.977 . S
H235 C209 0.979 . S
H236 C209 0.980 . S
H237 C209 0.983 . S
H238 C182 0.947 . S
C239 C182 1.392 . S
C239 C183 1.419 . S
C239 H221 0.948 . S
C240 C241 1.391 . S
C240 C244 1.391 . S
C240 H282 0.948 . S
C241 C240 1.391 . S
C241 C242 1.391 . S
C242 C241 1.391 . S
C242 H298 0.947 . S
C242 C299 1.392 . S
C243 C244 1.391 . S
C243 C247 1.397 . S
C243 C299 1.419 . S
C244 C240 1.391 . S
C244 C243 1.391 . S
C244 C245 1.399 . S
C245 C244 1.399 . S
C245 C248 1.396 . S
C245 C257 1.453 . S
C245 C258 1.684 . S
H246 C270 0.948 . S
C247 C243 1.397 . S
C247 C248 1.394 . S
C247 C266 1.723 . S
C248 C245 1.396 . S
C248 C247 1.394 . S
C248 C278 1.723 . S
H249 C272 0.947 . S
H250 C273 0.948 . S
H251 C279 0.982 . S
H252 C280 0.979 . S
H253 C280 0.980 . S
H254 C280 0.983 . S
H255 C279 0.979 . S
H256 C279 0.977 . S
C257 C245 1.453 . S
C257 H286 0.982 . S
C257 H287 0.979 . S
C257 H288 0.977 . S
C258 C245 1.684 . S
C258 H283 0.979 . S
C258 H284 0.980 . S
C258 H285 0.983 . S
C259 C260 1.391 . S
C259 C264 1.391 . S
C259 H289 0.948 . S
C260 C259 1.391 . S
C260 C261 1.391 . S
C261 C260 1.391 . S
C261 C262 1.392 . S
C261 H290 0.947 . S
C262 C261 1.392 . S
C262 C263 1.419 . S
C262 H291 0.948 . S
C263 C262 1.419 . S
C263 C264 1.391 . S
C263 C267 1.397 . S
C264 C259 1.391 . S
C264 C263 1.391 . S
C264 C265 1.399 . S
C265 C264 1.399 . S
C265 C266 1.396 . S
C265 C268 1.453 . S
C265 C269 1.684 . S
C266 C247 1.723 . S
C266 C265 1.396 . S
C266 C267 1.394 . S
C267 C263 1.397 . S
C267 C266 1.394 . S
C267 C277 1.723 . S
C268 C265 1.453 . S
C268 H292 0.982 . S
C268 H293 0.979 . S
C268 H294 0.977 . S
C269 C265 1.684 . S
C269 H295 0.979 . S
C269 H296 0.980 . S
C269 H297 0.983 . S
C270 H246 0.948 . S
C270 C271 1.391 . S
C270 C275 1.391 . S
C271 C270 1.391 . S
C271 C272 1.391 . S
C272 H249 0.947 . S
C272 C271 1.391 . S
C272 C273 1.392 . S
C273 H250 0.948 . S
C273 C272 1.392 . S
C273 C274 1.419 . S
C274 C273 1.419 . S
C274 C275 1.391 . S
C274 C278 1.397 . S
C275 C270 1.391 . S
C275 C274 1.391 . S
C275 C276 1.399 . S
C276 C275 1.399 . S
C276 C277 1.396 . S
C276 C279 1.453 . S
C276 C280 1.684 . S
C277 C267 1.723 . S
C277 C276 1.396 . S
C277 C278 1.394 . S
C278 C248 1.723 . S
C278 C274 1.397 . S
C278 C277 1.394 . S
C279 H251 0.982 . S
C279 H255 0.979 . S
C279 H256 0.977 . S
C279 C276 1.453 . S
C280 H252 0.979 . S
C280 H253 0.980 . S
C280 H254 0.983 . S
C280 C276 1.684 . S
H281 C299 0.948 . S
H282 C240 0.948 . S
H283 C258 0.979 . S
H284 C258 0.980 . S
H285 C258 0.983 . S
H286 C257 0.982 . S
H287 C257 0.979 . S
H288 C257 0.977 . S
H289 C259 0.948 . S
H290 C261 0.947 . S
H291 C262 0.948 . S
H292 C268 0.982 . S
H293 C268 0.979 . S
H294 C268 0.977 . S
H295 C269 0.979 . S
H296 C269 0.980 . S
H297 C269 0.983 . S
H298 C242 0.947 . S
C299 C242 1.392 . S
C299 C243 1.419 . S
C299 H281 0.948 . S
C300 C301 1.391 . S
C300 C304 1.391 . S
C300 H342 0.948 . S
C301 C300 1.391 . S
C301 C302 1.391 . S
C302 C301 1.391 . S
C302 H358 0.947 . S
C302 C359 1.392 . S
C303 C304 1.391 . S
C303 C307 1.396 1_655 S
C303 C359 1.419 . S
C304 C300 1.391 . S
C304 C303 1.391 . S
C304 C305 1.399 . S
C305 C304 1.399 . S
C305 C308 1.396 1_655 S
C305 C317 1.453 1_655 S
C305 C318 1.684 . S
H306 C330 0.948 . S
C307 C303 1.396 1_455 S
C307 C308 1.395 . S
C307 C326 1.723 . S
C308 C305 1.396 1_455 S
C308 C307 1.395 . S
C308 C338 1.723 . S
H309 C332 0.947 . S
H310 C333 0.948 . S
H311 C339 0.982 . S
H312 C340 0.979 . S
H313 C340 0.980 . S
H314 C340 0.983 . S
H315 C339 0.979 . S
H316 C339 0.977 . S
C317 C305 1.453 1_455 S
C317 H346 0.982 . S
C317 H347 0.979 . S
C317 H348 0.977 . S
C318 C305 1.684 . S
C318 H343 0.979 . S
C318 H344 0.980 . S
C318 H345 0.983 . S
C319 C320 1.391 . S
C319 C324 1.391 . S
C319 H349 0.948 . S
C320 C319 1.391 . S
C320 C321 1.391 . S
C321 C320 1.391 . S
C321 C322 1.392 . S
C321 H350 0.947 . S
C322 C321 1.392 . S
C322 C323 1.419 . S
C322 H351 0.948 . S
C323 C322 1.419 . S
C323 C324 1.391 . S
C323 C327 1.396 1_655 S
C324 C319 1.391 . S
C324 C323 1.391 . S
C324 C325 1.399 . S
C325 C324 1.399 . S
C325 C326 1.396 1_655 S
C325 C328 1.453 1_655 S
C325 C329 1.684 . S
C326 C307 1.723 . S
C326 C325 1.396 1_455 S
C326 C327 1.394 . S
C327 C323 1.396 1_455 S
C327 C326 1.394 . S
C327 C337 1.723 . S
C328 C325 1.453 1_455 S
C328 H352 0.982 . S
C328 H353 0.979 . S
C328 H354 0.977 . S
C329 C325 1.684 . S
C329 H355 0.979 . S
C329 H356 0.980 . S
C329 H357 0.983 . S
C330 H306 0.948 . S
C330 C331 1.391 . S
C330 C335 1.391 . S
C331 C330 1.391 . S
C331 C332 1.391 . S
C332 H309 0.947 . S
C332 C331 1.391 . S
C332 C333 1.392 . S
C333 H310 0.948 . S
C333 C332 1.392 . S
C333 C334 1.419 . S
C334 C333 1.419 . S
C334 C335 1.391 . S
C334 C338 1.397 1_655 S
C335 C330 1.391 . S
C335 C334 1.391 . S
C335 C336 1.399 . S
C336 C335 1.399 . S
C336 C337 1.396 1_655 S
C336 C339 1.453 1_655 S
C336 C340 1.684 . S
C337 C327 1.723 . S
C337 C336 1.396 1_455 S
C337 C338 1.395 . S
C338 C308 1.723 . S
C338 C334 1.397 1_455 S
C338 C337 1.395 . S
C339 H311 0.982 . S
C339 H315 0.979 . S
C339 H316 0.977 . S
C339 C336 1.453 1_455 S
C340 H312 0.979 . S
C340 H313 0.980 . S
C340 H314 0.983 . S
C340 C336 1.684 . S
H341 C359 0.948 . S
H342 C300 0.948 . S
H343 C318 0.979 . S
H344 C318 0.980 . S
H345 C318 0.983 . S
H346 C317 0.982 . S
H347 C317 0.979 . S
H348 C317 0.977 . S
H349 C319 0.948 . S
H350 C321 0.947 . S
H351 C322 0.948 . S
H352 C328 0.982 . S
H353 C328 0.979 . S
H354 C328 0.977 . S
H355 C329 0.979 . S
H356 C329 0.980 . S
H357 C329 0.983 . S
H358 C302 0.947 . S
C359 C302 1.392 . S
C359 C303 1.419 . S
C359 H341 0.948 . S
C360 C361 1.391 . S
C360 C364 1.391 . S
C360 H402 0.948 . S
C361 C360 1.391 . S
C361 C362 1.391 . S
C362 C361 1.391 . S
C362 H418 0.947 . S
C362 C419 1.392 . S
C363 C364 1.391 . S
C363 C367 1.397 . S
C363 C419 1.419 . S
C364 C360 1.391 . S
C364 C363 1.391 . S
C364 C365 1.399 . S
C365 C364 1.399 . S
C365 C368 1.396 . S
C365 C377 1.453 . S
C365 C378 1.684 . S
H366 C390 0.948 . S
C367 C363 1.397 . S
C367 C368 1.394 . S
C367 C386 1.723 . S
C368 C365 1.396 . S
C368 C367 1.394 . S
C368 C398 1.723 . S
H369 C392 0.947 . S
H370 C393 0.948 . S
H371 C399 0.982 . S
H372 C400 0.979 . S
H373 C400 0.980 . S
H374 C400 0.983 . S
H375 C399 0.979 . S
H376 C399 0.977 . S
C377 C365 1.453 . S
C377 H406 0.982 . S
C377 H407 0.979 . S
C377 H408 0.977 . S
C378 C365 1.684 . S
C378 H403 0.979 . S
C378 H404 0.980 . S
C378 H405 0.983 . S
C379 C380 1.391 . S
C379 C384 1.391 . S
C379 H409 0.948 . S
C380 C379 1.391 . S
C380 C381 1.391 . S
C381 C380 1.391 . S
C381 C382 1.392 . S
C381 H410 0.947 . S
C382 C381 1.392 . S
C382 C383 1.419 . S
C382 H411 0.948 . S
C383 C382 1.419 . S
C383 C384 1.391 . S
C383 C387 1.397 . S
C384 C379 1.391 . S
C384 C383 1.391 . S
C384 C385 1.399 . S
C385 C384 1.399 . S
C385 C386 1.396 . S
C385 C388 1.453 . S
C385 C389 1.684 . S
C386 C367 1.723 . S
C386 C385 1.396 . S
C386 C387 1.394 . S
C387 C383 1.397 . S
C387 C386 1.394 . S
C387 C397 1.723 . S
C388 C385 1.453 . S
C388 H412 0.982 . S
C388 H413 0.979 . S
C388 H414 0.977 . S
C389 C385 1.684 . S
C389 H415 0.979 . S
C389 H416 0.980 . S
C389 H417 0.983 . S
C390 H366 0.948 . S
C390 C391 1.391 . S
C390 C395 1.391 . S
C391 C390 1.391 . S
C391 C392 1.391 . S
C392 H369 0.947 . S
C392 C391 1.391 . S
C392 C393 1.392 . S
C393 H370 0.948 . S
C393 C392 1.392 . S
C393 C394 1.419 . S
C394 C393 1.419 . S
C394 C395 1.391 . S
C394 C398 1.397 . S
C395 C390 1.391 . S
C395 C394 1.391 . S
C395 C396 1.399 . S
C396 C395 1.399 . S
C396 C397 1.396 . S
C396 C399 1.453 . S
C396 C400 1.684 . S
C397 C387 1.723 . S
C397 C396 1.396 . S
C397 C398 1.394 . S
C398 C368 1.723 . S
C398 C394 1.397 . S
C398 C397 1.394 . S
C399 H371 0.982 . S
C399 H375 0.979 . S
C399 H376 0.977 . S
C399 C396 1.453 . S
C400 H372 0.979 . S
C400 H373 0.980 . S
C400 H374 0.983 . S
C400 C396 1.684 . S
H401 C419 0.948 . S
H402 C360 0.948 . S
H403 C378 0.979 . S
H404 C378 0.980 . S
H405 C378 0.983 . S
H406 C377 0.982 . S
H407 C377 0.979 . S
H408 C377 0.977 . S
H409 C379 0.948 . S
H410 C381 0.947 . S
H411 C382 0.948 . S
H412 C388 0.982 . S
H413 C388 0.979 . S
H414 C388 0.977 . S
H415 C389 0.979 . S
H416 C389 0.980 . S
H417 C389 0.983 . S
H418 C362 0.947 . S
C419 C362 1.392 . S
C419 C363 1.419 . S
C419 H401 0.948 . S
C420 C421 1.391 . S
C420 C424 1.391 . S
C420 H462 0.948 . S
C421 C420 1.391 . S
C421 C422 1.391 . S
C422 C421 1.391 . S
C422 H478 0.947 . S
C422 C479 1.392 . S
C423 C424 1.391 . S
C423 C427 1.397 . S
C423 C479 1.419 . S
C424 C420 1.391 . S
C424 C423 1.391 . S
C424 C425 1.399 . S
C425 C424 1.399 . S
C425 C428 1.396 . S
C425 C437 1.453 . S
C425 C438 1.684 . S
H426 C450 0.948 . S
C427 C423 1.397 . S
C427 C428 1.394 . S
C427 C446 1.723 . S
C428 C425 1.396 . S
C428 C427 1.394 . S
C428 C458 1.723 . S
H429 C452 0.947 . S
H430 C453 0.948 . S
H431 C459 0.982 . S
H432 C460 0.979 . S
H433 C460 0.980 . S
H434 C460 0.983 . S
H435 C459 0.979 . S
H436 C459 0.977 . S
C437 C425 1.453 . S
C437 H466 0.982 . S
C437 H467 0.979 . S
C437 H468 0.977 . S
C438 C425 1.684 . S
C438 H463 0.979 . S
C438 H464 0.980 . S
C438 H465 0.983 . S
C439 C440 1.391 . S
C439 C444 1.391 . S
C439 H469 0.948 . S
C440 C439 1.391 . S
C440 C441 1.391 . S
C441 C440 1.391 . S
C441 C442 1.392 . S
C441 H470 0.947 . S
C442 C441 1.392 . S
C442 C443 1.419 . S
C442 H471 0.948 . S
C443 C442 1.419 . S
C443 C444 1.391 . S
C443 C447 1.397 . S
C444 C439 1.391 . S
C444 C443 1.391 . S
C444 C445 1.399 . S
C445 C444 1.399 . S
C445 C446 1.396 . S
C445 C448 1.453 . S
C445 C449 1.684 . S
C446 C427 1.723 . S
C446 C445 1.396 . S
C446 C447 1.394 . S
C447 C443 1.397 . S
C447 C446 1.394 . S
C447 C457 1.723 . S
C448 C445 1.453 . S
C448 H472 0.982 . S
C448 H473 0.979 . S
C448 H474 0.977 . S
C449 C445 1.684 . S
C449 H475 0.979 . S
C449 H476 0.980 . S
C449 H477 0.983 . S
C450 H426 0.948 . S
C450 C451 1.391 . S
C450 C455 1.391 . S
C451 C450 1.391 . S
C451 C452 1.391 . S
C452 H429 0.947 . S
C452 C451 1.391 . S
C452 C453 1.392 . S
C453 H430 0.948 . S
C453 C452 1.392 . S
C453 C454 1.419 . S
C454 C453 1.419 . S
C454 C455 1.391 . S
C454 C458 1.397 . S
C455 C450 1.391 . S
C455 C454 1.391 . S
C455 C456 1.399 . S
C456 C455 1.399 . S
C456 C457 1.396 . S
C456 C459 1.453 . S
C456 C460 1.684 . S
C457 C447 1.723 . S
C457 C456 1.396 . S
C457 C458 1.394 . S
C458 C428 1.723 . S
C458 C454 1.397 . S
C458 C457 1.394 . S
C459 H431 0.982 . S
C459 H435 0.979 . S
C459 H436 0.977 . S
C459 C456 1.453 . S
C460 H432 0.979 . S
C460 H433 0.980 . S
C460 H434 0.983 . S
C460 C456 1.684 . S
H461 C479 0.948 . S
H462 C420 0.948 . S
H463 C438 0.979 . S
H464 C438 0.980 . S
H465 C438 0.983 . S
H466 C437 0.982 . S
H467 C437 0.979 . S
H468 C437 0.977 . S
H469 C439 0.948 . S
H470 C441 0.947 . S
H471 C442 0.948 . S
H472 C448 0.982 . S
H473 C448 0.979 . S
H474 C448 0.977 . S
H475 C449 0.979 . S
H476 C449 0.980 . S
H477 C449 0.983 . S
H478 C422 0.947 . S
C479 C422 1.392 . S
C479 C423 1.419 . S
C479 H461 0.948 . S
O480 Mg481 1.990 . S
O480 C494 1.253 . S
Mg481 O480 1.990 . S
Mg481 O484 2.180 1_565 S
Mg481 O485 2.117 . S
Mg481 O499 2.030 . S
O482 Mg483 2.072 1_465 S
O482 C494 1.260 . S
Mg483 O482 2.072 1_645 S
Mg483 O484 2.099 1_655 S
Mg483 O486 2.079 . S
Mg483 O487 2.072 1_655 S
Mg483 O489 2.099 . S
Mg483 O500 2.079 1_545 S
O484 Mg481 2.180 1_545 S
O484 Mg483 2.099 1_455 S
O484 C495 1.279 . S
O485 Mg481 2.117 . S
O485 C495 1.250 1_565 S
O486 Mg483 2.079 . S
O486 C496 1.264 . S
O487 Mg483 2.072 1_455 S
O487 C497 1.260 . S
Mg488 O489 2.180 . S
Mg488 O490 2.030 . S
Mg488 O491 1.990 . S
Mg488 O492 2.117 . S
O489 Mg483 2.099 . S
O489 Mg488 2.180 . S
O489 C498 1.279 . S
O490 Mg488 2.030 . S
O490 C496 1.248 . S
O491 Mg488 1.990 . S
O491 C497 1.253 1_655 S
O492 Mg488 2.117 . S
O492 C498 1.250 . S
C493 O499 1.248 1_655 S
C493 O500 1.264 . S
C494 O480 1.253 . S
C494 O482 1.260 . S
C495 O484 1.279 . S
C495 O485 1.250 1_545 S
C496 O486 1.264 . S
C496 O490 1.248 . S
C497 O487 1.260 . S
C497 O491 1.253 1_455 S
C498 O489 1.279 . S
C498 O492 1.250 . S
O499 Mg481 2.030 . S
O499 C493 1.248 1_455 S
O500 Mg483 2.079 1_565 S
O500 C493 1.264 . S
O501 Mg502 1.990 1_545 S
O501 C515 1.253 . S
Mg502 O501 1.990 1_565 S
Mg502 O505 2.180 . S
Mg502 O506 2.117 . S
Mg502 O520 2.030 1_565 S
O503 Mg504 2.072 . S
O503 C515 1.260 . S
Mg504 O503 2.072 . S
Mg504 O505 2.099 1_545 S
Mg504 O507 2.079 1_545 S
Mg504 O508 2.072 1_545 S
Mg504 O510 2.099 . S
Mg504 O521 2.079 . S
O505 Mg502 2.180 . S
O505 Mg504 2.099 1_565 S
O505 C516 1.279 . S
O506 Mg502 2.117 . S
O506 C516 1.250 . S
O507 Mg504 2.079 1_565 S
O507 C517 1.264 . S
O508 Mg504 2.072 1_565 S
O508 C518 1.260 1_565 S
Mg509 O510 2.180 . S
Mg509 O511 2.031 1_545 S
Mg509 O512 1.990 . S
Mg509 O513 2.117 . S
O510 Mg504 2.099 . S
O510 Mg509 2.180 . S
O510 C519 1.279 . S
O511 Mg509 2.031 1_565 S
O511 C517 1.247 . S
O512 Mg509 1.990 . S
O512 C518 1.253 . S
O513 Mg509 2.117 . S
O513 C519 1.250 . S
C514 O520 1.248 . S
C514 O521 1.264 . S
C515 O501 1.253 . S
C515 O503 1.260 . S
C516 O505 1.279 . S
C516 O506 1.250 . S
C517 O507 1.264 . S
C517 O511 1.247 . S
C518 O508 1.260 1_545 S
C518 O512 1.253 . S
C519 O510 1.279 . S
C519 O513 1.250 . S
O520 Mg502 2.030 1_545 S
O520 C514 1.248 . S
O521 Mg504 2.079 . S
O521 C514 1.264 . S
O522 Mg523 1.990 . S
O522 C536 1.253 . S
Mg523 O522 1.990 . S
Mg523 O526 2.180 . S
Mg523 O527 2.117 . S
Mg523 O541 2.030 . S
O524 Mg525 2.072 . S
O524 C536 1.260 . S
Mg525 O524 2.072 . S
Mg525 O526 2.099 . S
Mg525 O528 2.079 . S
Mg525 O529 2.072 . S
Mg525 O531 2.099 . S
Mg525 O542 2.079 . S
O526 Mg523 2.180 . S
O526 Mg525 2.099 . S
O526 C537 1.279 . S
O527 Mg523 2.117 . S
O527 C537 1.250 . S
O528 Mg525 2.079 . S
O528 C538 1.264 . S
O529 Mg525 2.072 . S
O529 C539 1.260 . S
Mg530 O531 2.180 . S
Mg530 O532 2.030 . S
Mg530 O533 1.990 . S
Mg530 O534 2.117 . S
O531 Mg525 2.099 . S
O531 Mg530 2.180 . S
O531 C540 1.279 . S
O532 Mg530 2.030 . S
O532 C538 1.248 . S
O533 Mg530 1.990 . S
O533 C539 1.253 . S
O534 Mg530 2.117 . S
O534 C540 1.250 . S
C535 O541 1.248 . S
C535 O542 1.264 . S
C536 O522 1.253 . S
C536 O524 1.260 . S
C537 O526 1.279 . S
C537 O527 1.250 . S
C538 O528 1.264 . S
C538 O532 1.248 . S
C539 O529 1.260 . S
C539 O533 1.253 . S
C540 O531 1.279 . S
C540 O534 1.250 . S
O541 Mg523 2.030 . S
O541 C535 1.248 . S
O542 Mg525 2.079 . S
O542 C535 1.264 . S
O543 Mg544 1.990 . S
O543 C557 1.253 . S
Mg544 O543 1.990 . S
Mg544 O547 2.180 . S
Mg544 O548 2.117 . S
Mg544 O562 2.030 . S
O545 Mg546 2.072 1_655 S
O545 C557 1.260 . S
Mg546 O545 2.072 1_455 S
Mg546 O547 2.099 1_455 S
Mg546 O549 2.079 . S
Mg546 O550 2.072 . S
Mg546 O552 2.099 . S
Mg546 O563 2.079 1_455 S
O547 Mg544 2.180 . S
O547 Mg546 2.099 1_655 S
O547 C558 1.279 . S
O548 Mg544 2.117 . S
O548 C558 1.250 . S
O549 Mg546 2.079 . S
O549 C559 1.264 . S
O550 Mg546 2.072 . S
O550 C560 1.260 . S
Mg551 O552 2.180 . S
Mg551 O553 2.030 . S
Mg551 O554 1.990 . S
Mg551 O555 2.117 . S
O552 Mg546 2.099 . S
O552 Mg551 2.180 . S
O552 C561 1.279 . S
O553 Mg551 2.030 . S
O553 C559 1.248 . S
O554 Mg551 1.990 . S
O554 C560 1.253 . S
O555 Mg551 2.117 . S
O555 C561 1.250 . S
C556 O562 1.248 . S
C556 O563 1.264 . S
C557 O543 1.253 . S
C557 O545 1.260 . S
C558 O547 1.279 . S
C558 O548 1.250 . S
C559 O549 1.264 . S
C559 O553 1.248 . S
C560 O550 1.260 . S
C560 O554 1.253 . S
C561 O552 1.279 . S
C561 O555 1.250 . S
O562 Mg544 2.030 . S
O562 C556 1.248 . S
O563 Mg546 2.079 1_655 S
O563 C556 1.264 . S
H564 C576 0.930 . S
H565 C578 0.930 . S
H566 C579 0.930 . S
H567 C583 0.959 . S
H568 C583 0.959 . S
H569 C583 0.961 . S
H570 C584 0.960 . S
H571 C584 0.961 . S
H572 C584 0.959 . S
H573 C587 0.929 . S
H574 C588 0.931 . S
H575 C590 0.930 . S
C576 H564 0.930 . S
C576 C577 1.399 . S
C576 C581 1.399 . S
C577 C576 1.399 . S
C577 C578 1.376 . S
C578 H565 0.930 . S
C578 C577 1.376 . S
C578 C579 1.388 . S
C579 H566 0.930 . S
C579 C578 1.388 . S
C579 C580 1.390 . S
C580 C579 1.390 . S
C580 C581 1.394 . S
C580 C586 1.465 . S
C581 C576 1.399 . S
C581 C580 1.394 . S
C581 C582 1.516 . S
C582 C581 1.516 . S
C582 C583 1.502 . S
C582 C584 1.561 . S
C582 C585 1.526 . S
C583 H567 0.959 . S
C583 H568 0.959 . S
C583 H569 0.961 . S
C583 C582 1.502 . S
C584 H570 0.960 . S
C584 H571 0.961 . S
C584 H572 0.959 . S
C584 C582 1.561 . S
C585 C582 1.526 . S
C585 C586 1.396 . S
C585 C590 1.390 . S
C586 C580 1.465 . S
C586 C585 1.396 . S
C586 C587 1.399 . S
C587 H573 0.929 . S
C587 C586 1.399 . S
C587 C588 1.385 . S
C588 H574 0.931 . S
C588 C587 1.385 . S
C588 C589 1.389 . S
C589 C588 1.389 . S
C589 C590 1.387 . S
C590 H575 0.930 . S
C590 C585 1.390 . S
C590 C589 1.387 . S
H591 C603 0.930 . S
H592 C605 0.930 . S
H593 C606 0.930 . S
H594 C610 0.959 . S
H595 C610 0.959 . S
H596 C610 0.961 . S
H597 C611 0.960 . S
H598 C611 0.961 . S
H599 C611 0.959 . S
H600 C614 0.929 . S
H601 C615 0.931 . S
H602 C617 0.930 . S
C603 H591 0.930 . S
C603 C604 1.399 . S
C603 C608 1.399 . S
C604 C603 1.399 . S
C604 C605 1.376 . S
C605 H592 0.930 . S
C605 C604 1.376 . S
C605 C606 1.388 . S
C606 H593 0.930 . S
C606 C605 1.388 . S
C606 C607 1.390 . S
C607 C606 1.390 . S
C607 C608 1.394 . S
C607 C613 1.465 . S
C608 C603 1.399 . S
C608 C607 1.394 . S
C608 C609 1.516 . S
C609 C608 1.516 . S
C609 C610 1.502 . S
C609 C611 1.561 . S
C609 C612 1.526 . S
C610 H594 0.959 . S
C610 H595 0.959 . S
C610 H596 0.961 . S
C610 C609 1.502 . S
C611 H597 0.960 . S
C611 H598 0.961 . S
C611 H599 0.959 . S
C611 C609 1.561 . S
C612 C609 1.526 . S
C612 C613 1.396 . S
C612 C617 1.390 . S
C613 C607 1.465 . S
C613 C612 1.396 . S
C613 C614 1.399 . S
C614 H600 0.929 . S
C614 C613 1.399 . S
C614 C615 1.385 . S
C615 H601 0.931 . S
C615 C614 1.385 . S
C615 C616 1.389 . S
C616 C615 1.389 . S
C616 C617 1.387 . S
C617 H602 0.930 . S
C617 C612 1.390 . S
C617 C616 1.387 . S
H618 C630 0.930 . S
H619 C632 0.930 . S
H620 C633 0.930 . S
H621 C637 0.959 . S
H622 C637 0.959 . S
H623 C637 0.961 . S
H624 C638 0.960 . S
H625 C638 0.961 . S
H626 C638 0.959 . S
H627 C641 0.929 . S
H628 C642 0.931 . S
H629 C644 0.930 . S
C630 H618 0.930 . S
C630 C631 1.399 . S
C630 C635 1.399 . S
C631 C630 1.399 . S
C631 C632 1.376 . S
C632 H619 0.930 . S
C632 C631 1.376 . S
C632 C633 1.388 . S
C633 H620 0.930 . S
C633 C632 1.388 . S
C633 C634 1.390 . S
C634 C633 1.390 . S
C634 C635 1.394 . S
C634 C640 1.465 . S
C635 C630 1.399 . S
C635 C634 1.394 . S
C635 C636 1.516 . S
C636 C635 1.516 . S
C636 C637 1.502 . S
C636 C638 1.561 . S
C636 C639 1.526 . S
C637 H621 0.959 . S
C637 H622 0.959 . S
C637 H623 0.961 . S
C637 C636 1.502 . S
C638 H624 0.960 . S
C638 H625 0.961 . S
C638 H626 0.959 . S
C638 C636 1.561 . S
C639 C636 1.526 . S
C639 C640 1.396 . S
C639 C644 1.390 . S
C640 C634 1.465 . S
C640 C639 1.396 . S
C640 C641 1.399 . S
C641 H627 0.929 . S
C641 C640 1.399 . S
C641 C642 1.385 . S
C642 H628 0.931 . S
C642 C641 1.385 . S
C642 C643 1.389 . S
C643 C642 1.389 . S
C643 C644 1.387 . S
C644 H629 0.930 . S
C644 C639 1.390 . S
C644 C643 1.387 . S
H645 C657 0.930 . S
H646 C659 0.930 . S
H647 C660 0.930 . S
H648 C664 0.959 . S
H649 C664 0.959 . S
H650 C664 0.961 . S
H651 C665 0.960 . S
H652 C665 0.961 . S
H653 C665 0.959 . S
H654 C668 0.929 . S
H655 C669 0.931 . S
H656 C671 0.930 . S
C657 H645 0.930 . S
C657 C658 1.399 1_455 S
C657 C662 1.399 . S
C658 C657 1.399 1_655 S
C658 C659 1.376 . S
C659 H646 0.930 . S
C659 C658 1.376 . S
C659 C660 1.388 . S
C660 H647 0.930 . S
C660 C659 1.388 . S
C660 C661 1.390 . S
C661 C660 1.390 . S
C661 C662 1.394 1_655 S
C661 C667 1.465 . S
C662 C657 1.399 . S
C662 C661 1.394 1_455 S
C662 C663 1.516 . S
C663 C662 1.516 . S
C663 C664 1.502 . S
C663 C665 1.561 . S
C663 C666 1.526 . S
C664 H648 0.959 . S
C664 H649 0.959 . S
C664 H650 0.961 . S
C664 C663 1.502 . S
C665 H651 0.960 . S
C665 H652 0.961 . S
C665 H653 0.959 . S
C665 C663 1.561 . S
C666 C663 1.526 . S
C666 C667 1.396 1_455 S
C666 C671 1.390 . S
C667 C661 1.465 . S
C667 C666 1.396 1_655 S
C667 C668 1.399 . S
C668 H654 0.929 . S
C668 C667 1.399 . S
C668 C669 1.385 . S
C669 H655 0.931 . S
C669 C668 1.385 . S
C669 C670 1.389 . S
C670 C669 1.389 . S
C670 C671 1.387 1_655 S
C671 H656 0.930 . S
C671 C666 1.390 . S
C671 C670 1.387 1_455 S
H672 C684 0.930 1_554 S
H673 C686 0.930 . S
H674 C687 0.930 . S
H675 C691 0.963 . S
H676 C691 0.959 . S
H677 C691 0.961 1_554 S
H678 C692 0.960 . S
H679 C692 0.961 . S
H680 C692 0.959 . S
H681 C695 0.929 . S
H682 C696 0.931 1_545 S
H683 C698 0.930 . S
C684 H672 0.930 1_556 S
C684 C685 1.399 1_556 S
C684 C689 1.399 . S
C685 C684 1.399 1_554 S
C685 C686 1.376 1_554 S
C686 H673 0.930 . S
C686 C685 1.376 1_556 S
C686 C687 1.388 . S
C687 H674 0.930 . S
C687 C686 1.388 . S
C687 C688 1.390 . S
C688 C687 1.390 . S
C688 C689 1.394 . S
C688 C694 1.465 . S
C689 C684 1.399 . S
C689 C688 1.394 . S
C689 C690 1.516 . S
C690 C689 1.516 . S
C690 C691 1.502 . S
C690 C692 1.561 . S
C690 C693 1.526 . S
C691 H675 0.963 . S
C691 H676 0.959 . S
C691 H677 0.961 1_556 S
C691 C690 1.502 . S
C692 H678 0.960 . S
C692 H679 0.961 . S
C692 H680 0.959 . S
C692 C690 1.561 . S
C693 C690 1.526 . S
C693 C694 1.396 . S
C693 C698 1.390 . S
C694 C688 1.465 . S
C694 C693 1.396 . S
C694 C695 1.399 . S
C695 H681 0.929 . S
C695 C694 1.399 . S
C695 C696 1.385 . S
C696 H682 0.931 1_565 S
C696 C695 1.385 . S
C696 C697 1.389 . S
C697 C696 1.389 . S
C697 C698 1.387 . S
C698 H683 0.930 . S
C698 C693 1.390 . S
C698 C697 1.387 . S
H699 C711 0.930 . S
H700 C713 0.930 . S
H701 C714 0.930 . S
H702 C718 0.959 . S
H703 C718 0.959 . S
H704 C718 0.961 1_554 S
H705 C719 0.960 . S
H706 C719 0.961 . S
H707 C719 0.959 1_556 S
H708 C722 0.929 . S
H709 C723 0.931 . S
H710 C725 0.930 . S
C711 H699 0.930 . S
C711 C712 1.399 . S
C711 C716 1.399 1_554 S
C712 C711 1.399 . S
C712 C713 1.376 1_554 S
C713 H700 0.930 . S
C713 C712 1.376 1_556 S
C713 C714 1.388 . S
C714 H701 0.930 . S
C714 C713 1.388 . S
C714 C715 1.390 . S
C715 C714 1.390 . S
C715 C716 1.394 . S
C715 C721 1.465 . S
C716 C711 1.399 1_556 S
C716 C715 1.394 . S
C716 C717 1.516 . S
C717 C716 1.516 . S
C717 C718 1.502 . S
C717 C719 1.561 1_556 S
C717 C720 1.526 . S
C718 H702 0.959 . S
C718 H703 0.959 . S
C718 H704 0.961 1_556 S
C718 C717 1.502 . S
C719 H705 0.960 . S
C719 H706 0.961 . S
C719 H707 0.959 1_554 S
C719 C717 1.561 1_554 S
C720 C717 1.526 . S
C720 C721 1.396 . S
C720 C725 1.390 . S
C721 C715 1.465 . S
C721 C720 1.396 . S
C721 C722 1.399 . S
C722 H708 0.929 . S
C722 C721 1.399 . S
C722 C723 1.385 . S
C723 H709 0.931 . S
C723 C722 1.385 . S
C723 C724 1.389 . S
C724 C723 1.389 . S
C724 C725 1.387 . S
C725 H710 0.930 . S
C725 C720 1.390 . S
C725 C724 1.387 . S
H726 C738 0.922 1_554 S
H727 C740 0.930 . S
H728 C741 0.930 . S
H729 C745 0.959 . S
H730 C745 0.959 . S
H731 C745 0.961 . S
H732 C746 0.960 . S
H733 C746 0.961 . S
H734 C746 0.959 . S
H735 C749 0.929 . S
H736 C750 0.931 . S
H737 C752 0.930 . S
C738 H726 0.922 1_556 S
C738 C739 1.399 . S
C738 C743 1.408 . S
C739 C738 1.399 . S
C739 C740 1.377 . S
C740 H727 0.930 . S
C740 C739 1.377 . S
C740 C741 1.388 . S
C741 H728 0.930 . S
C741 C740 1.388 . S
C741 C742 1.390 . S
C742 C741 1.390 . S
C742 C743 1.394 . S
C742 C748 1.465 . S
C743 C738 1.408 . S
C743 C742 1.394 . S
C743 C744 1.516 . S
C744 C743 1.516 . S
C744 C745 1.502 . S
C744 C746 1.561 1_556 S
C744 C747 1.526 . S
C745 H729 0.959 . S
C745 H730 0.959 . S
C745 H731 0.961 . S
C745 C744 1.502 . S
C746 H732 0.960 . S
C746 H733 0.961 . S
C746 H734 0.959 . S
C746 C744 1.561 1_554 S
C747 C744 1.526 . S
C747 C748 1.396 . S
C747 C752 1.390 . S
C748 C742 1.465 . S
C748 C747 1.396 . S
C748 C749 1.399 . S
C749 H735 0.929 . S
C749 C748 1.399 . S
C749 C750 1.385 . S
C750 H736 0.931 . S
C750 C749 1.385 . S
C750 C751 1.389 . S
C751 C750 1.389 . S
C751 C752 1.387 . S
C752 H737 0.930 . S
C752 C747 1.390 . S
C752 C751 1.387 . S
H753 C765 0.930 . S
H754 C767 0.930 . S
H755 C768 0.930 . S
H756 C772 0.959 . S
H757 C772 0.950 1_655 S
H758 C772 0.964 . S
H759 C773 0.960 1_554 S
H760 C773 0.961 . S
H761 C773 0.959 . S
H762 C776 0.929 . S
H763 C777 0.931 . S
H764 C779 0.930 . S
C765 H753 0.930 . S
C765 C766 1.399 1_655 S
C765 C770 1.399 1_554 S
C766 C765 1.399 1_455 S
C766 C767 1.377 1_554 S
C767 H754 0.930 . S
C767 C766 1.377 1_556 S
C767 C768 1.388 . S
C768 H755 0.930 . S
C768 C767 1.388 . S
C768 C769 1.390 . S
C769 C768 1.390 . S
C769 C770 1.394 1_455 S
C769 C775 1.465 . S
C770 C765 1.399 1_556 S
C770 C769 1.394 1_655 S
C770 C771 1.516 . S
C771 C770 1.516 . S
C771 C772 1.502 1_656 S
C771 C773 1.561 . S
C771 C774 1.526 . S
C772 H756 0.959 . S
C772 H757 0.950 1_455 S
C772 H758 0.964 . S
C772 C771 1.502 1_454 S
C773 H759 0.960 1_556 S
C773 H760 0.961 . S
C773 H761 0.959 . S
C773 C771 1.561 . S
C774 C771 1.526 . S
C774 C775 1.396 1_655 S
C774 C779 1.390 . S
C775 C769 1.465 . S
C775 C774 1.396 1_455 S
C775 C776 1.399 . S
C776 H762 0.929 . S
C776 C775 1.399 . S
C776 C777 1.385 . S
C777 H763 0.931 . S
C777 C776 1.385 . S
C777 C778 1.389 . S
C778 C777 1.389 . S
C778 C779 1.387 1_455 S
C779 H764 0.930 . S
C779 C774 1.390 . S
C779 C778 1.387 1_655 S
H780 C792 0.930 . S
H781 C794 0.930 . S
H782 C795 0.930 . S
H783 C799 0.959 . S
H784 C799 0.959 . S
H785 C799 0.961 . S
H786 C800 0.960 . S
H787 C800 0.961 . S
H788 C800 0.959 . S
H789 C803 0.929 . S
H790 C804 0.931 . S
H791 C806 0.930 . S
C792 H780 0.930 . S
C792 C793 1.399 1_455 S
C792 C797 1.399 1_455 S
C793 C792 1.399 1_655 S
C793 C794 1.376 . S
C794 H781 0.930 . S
C794 C793 1.376 . S
C794 C795 1.388 . S
C795 H782 0.930 . S
C795 C794 1.388 . S
C795 C796 1.390 . S
C796 C795 1.390 . S
C796 C797 1.394 . S
C796 C802 1.465 . S
C797 C792 1.399 1_655 S
C797 C796 1.394 . S
C797 C798 1.516 . S
C798 C797 1.516 . S
C798 C799 1.502 1_655 S
C798 C800 1.561 . S
C798 C801 1.526 . S
C799 H783 0.959 . S
C799 H784 0.959 . S
C799 H785 0.961 . S
C799 C798 1.502 1_455 S
C800 H786 0.960 . S
C800 H787 0.961 . S
C800 H788 0.959 . S
C800 C798 1.561 . S
C801 C798 1.526 . S
C801 C802 1.396 . S
C801 C806 1.390 . S
C802 C796 1.465 . S
C802 C801 1.396 . S
C802 C803 1.399 . S
C803 H789 0.929 . S
C803 C802 1.399 . S
C803 C804 1.385 . S
C804 H790 0.931 . S
C804 C803 1.385 . S
C804 C805 1.389 . S
C805 C804 1.389 . S
C805 C806 1.387 . S
C806 H791 0.930 . S
C806 C801 1.390 . S
C806 C805 1.387 . S
H807 C819 0.930 . S
H808 C821 0.930 . S
H809 C822 0.930 . S
H810 C826 0.959 . S
H811 C826 0.959 . S
H812 C826 0.961 . S
H813 C827 0.960 . S
H814 C827 0.961 . S
H815 C827 0.959 . S
H816 C830 0.929 . S
H817 C831 0.931 . S
H818 C833 0.930 . S
C819 H807 0.930 . S
C819 C820 1.399 . S
C819 C824 1.399 . S
C820 C819 1.399 . S
C820 C821 1.376 . S
C821 H808 0.930 . S
C821 C820 1.376 . S
C821 C822 1.388 . S
C822 H809 0.930 . S
C822 C821 1.388 . S
C822 C823 1.390 . S
C823 C822 1.390 . S
C823 C824 1.394 . S
C823 C829 1.465 . S
C824 C819 1.399 . S
C824 C823 1.394 . S
C824 C825 1.516 . S
C825 C824 1.516 . S
C825 C826 1.502 . S
C825 C827 1.561 . S
C825 C828 1.526 . S
C826 H810 0.959 . S
C826 H811 0.959 . S
C826 H812 0.961 . S
C826 C825 1.502 . S
C827 H813 0.960 . S
C827 H814 0.961 . S
C827 H815 0.959 . S
C827 C825 1.561 . S
C828 C825 1.526 . S
C828 C829 1.396 . S
C828 C833 1.390 . S
C829 C823 1.465 . S
C829 C828 1.396 . S
C829 C830 1.399 . S
C830 H816 0.929 . S
C830 C829 1.399 . S
C830 C831 1.385 . S
C831 H817 0.931 . S
C831 C830 1.385 . S
C831 C832 1.389 . S
C832 C831 1.389 . S
C832 C833 1.387 . S
C833 H818 0.930 . S
C833 C828 1.390 . S
C833 C832 1.387 . S
H834 C846 0.930 . S
H835 C848 0.930 . S
H836 C849 0.930 . S
H837 C853 0.959 . S
H838 C853 0.959 . S
H839 C853 0.961 . S
H840 C854 0.960 . S
H841 C854 0.961 . S
H842 C854 0.959 . S
H843 C857 0.929 . S
H844 C858 0.931 . S
H845 C860 0.930 . S
C846 H834 0.930 . S
C846 C847 1.399 . S
C846 C851 1.399 . S
C847 C846 1.399 . S
C847 C848 1.376 . S
C848 H835 0.930 . S
C848 C847 1.376 . S
C848 C849 1.388 . S
C849 H836 0.930 . S
C849 C848 1.388 . S
C849 C850 1.390 . S
C850 C849 1.390 . S
C850 C851 1.394 . S
C850 C856 1.465 . S
C851 C846 1.399 . S
C851 C850 1.394 . S
C851 C852 1.516 . S
C852 C851 1.516 . S
C852 C853 1.502 . S
C852 C854 1.561 . S
C852 C855 1.526 . S
C853 H837 0.959 . S
C853 H838 0.959 . S
C853 H839 0.961 . S
C853 C852 1.502 . S
C854 H840 0.960 . S
C854 H841 0.961 . S
C854 H842 0.959 . S
C854 C852 1.561 . S
C855 C852 1.526 . S
C855 C856 1.396 . S
C855 C860 1.390 . S
C856 C850 1.465 . S
C856 C855 1.396 . S
C856 C857 1.399 . S
C857 H843 0.929 . S
C857 C856 1.399 . S
C857 C858 1.385 . S
C858 H844 0.931 . S
C858 C857 1.385 . S
C858 C859 1.389 . S
C859 C858 1.389 . S
C859 C860 1.387 . S
C860 H845 0.930 . S
C860 C855 1.390 . S
C860 C859 1.387 . S
H861 C873 0.930 . S
H862 C875 0.930 . S
H863 C876 0.930 . S
H864 C880 0.959 . S
H865 C880 0.959 . S
H866 C880 0.961 . S
H867 C881 0.960 . S
H868 C881 0.961 . S
H869 C881 0.959 . S
H870 C884 0.929 . S
H871 C885 0.931 . S
H872 C887 0.930 . S
C873 H861 0.930 . S
C873 C874 1.399 . S
C873 C878 1.399 . S
C874 C873 1.399 . S
C874 C875 1.376 . S
C875 H862 0.930 . S
C875 C874 1.376 . S
C875 C876 1.388 . S
C876 H863 0.930 . S
C876 C875 1.388 . S
C876 C877 1.390 . S
C877 C876 1.390 . S
C877 C878 1.394 . S
C877 C883 1.465 . S
C878 C873 1.399 . S
C878 C877 1.394 . S
C878 C879 1.516 . S
C879 C878 1.516 . S
C879 C880 1.502 . S
C879 C881 1.561 . S
C879 C882 1.526 . S
C880 H864 0.959 . S
C880 H865 0.959 . S
C880 H866 0.961 . S
C880 C879 1.502 . S
C881 H867 0.960 . S
C881 H868 0.961 . S
C881 H869 0.959 . S
C881 C879 1.561 . S
C882 C879 1.526 . S
C882 C883 1.396 . S
C882 C887 1.390 . S
C883 C877 1.465 . S
C883 C882 1.396 . S
C883 C884 1.399 . S
C884 H870 0.929 . S
C884 C883 1.399 . S
C884 C885 1.385 . S
C885 H871 0.931 . S
C885 C884 1.385 . S
C885 C886 1.389 . S
C886 C885 1.389 . S
C886 C887 1.387 . S
C887 H872 0.930 . S
C887 C882 1.390 . S
C887 C886 1.387 . S
H888 C900 0.933 . S
H889 C902 0.930 . S
H890 C903 0.930 . S
H891 C907 0.959 . S
H892 C907 0.959 . S
H893 C907 0.961 1_554 S
H894 C908 0.960 1_554 S
H895 C908 0.961 . S
H896 C908 0.959 . S
H897 C911 0.929 . S
H898 C912 0.931 . S
H899 C914 0.930 . S
C900 H888 0.933 . S
C900 C901 1.399 1_655 S
C900 C905 1.396 1_655 S
C901 C900 1.399 1_455 S
C901 C902 1.380 . S
C902 H889 0.930 . S
C902 C901 1.380 . S
C902 C903 1.388 . S
C903 H890 0.930 . S
C903 C902 1.388 . S
C903 C904 1.390 . S
C904 C903 1.390 . S
C904 C905 1.394 . S
C904 C910 1.465 . S
C905 C900 1.396 1_455 S
C905 C904 1.394 . S
C905 C906 1.516 . S
C906 C905 1.516 . S
C906 C907 1.502 1_455 S
C906 C908 1.561 . S
C906 C909 1.526 . S
C907 H891 0.959 . S
C907 H892 0.959 . S
C907 H893 0.961 1_556 S
C907 C906 1.502 1_655 S
C908 H894 0.960 1_556 S
C908 H895 0.961 . S
C908 H896 0.959 . S
C908 C906 1.561 . S
C909 C906 1.526 . S
C909 C910 1.396 . S
C909 C914 1.390 . S
C910 C904 1.465 . S
C910 C909 1.396 . S
C910 C911 1.399 . S
C911 H897 0.929 . S
C911 C910 1.399 . S
C911 C912 1.385 . S
C912 H898 0.931 . S
C912 C911 1.385 . S
C912 C913 1.389 . S
C913 C912 1.389 . S
C913 C914 1.387 . S
C914 H899 0.930 . S
C914 C909 1.390 . S
C914 C913 1.387 . S
H915 C927 0.930 . S
H916 C929 0.930 . S
H917 C930 0.930 . S
H918 C934 0.959 . S
H919 C934 0.959 . S
H920 C934 0.961 . S
H921 C935 0.960 . S
H922 C935 0.961 . S
H923 C935 0.959 . S
H924 C938 0.929 . S
H925 C939 0.931 . S
H926 C941 0.930 . S
C927 H915 0.930 . S
C927 C928 1.399 . S
C927 C932 1.399 . S
C928 C927 1.399 . S
C928 C929 1.376 . S
C929 H916 0.930 . S
C929 C928 1.376 . S
C929 C930 1.388 . S
C930 H917 0.930 . S
C930 C929 1.388 . S
C930 C931 1.390 . S
C931 C930 1.390 . S
C931 C932 1.394 . S
C931 C937 1.465 . S
C932 C927 1.399 . S
C932 C931 1.394 . S
C932 C933 1.516 . S
C933 C932 1.516 . S
C933 C934 1.502 . S
C933 C935 1.561 . S
C933 C936 1.526 . S
C934 H918 0.959 . S
C934 H919 0.959 . S
C934 H920 0.961 . S
C934 C933 1.502 . S
C935 H921 0.960 . S
C935 H922 0.961 . S
C935 H923 0.959 . S
C935 C933 1.561 . S
C936 C933 1.526 . S
C936 C937 1.396 . S
C936 C941 1.390 . S
C937 C931 1.465 . S
C937 C936 1.396 . S
C937 C938 1.399 . S
C938 H924 0.929 . S
C938 C937 1.399 . S
C938 C939 1.385 . S
C939 H925 0.931 . S
C939 C938 1.385 . S
C939 C940 1.389 . S
C940 C939 1.389 . S
C940 C941 1.387 . S
C941 H926 0.930 . S
C941 C936 1.390 . S
C941 C940 1.387 . S
H942 C954 0.930 . S
H943 C956 0.930 . S
H944 C957 0.930 . S
H945 C961 0.959 . S
H946 C961 0.959 . S
H947 C961 0.961 . S
H948 C962 0.960 . S
H949 C962 0.961 . S
H950 C962 0.959 . S
H951 C965 0.929 . S
H952 C966 0.931 . S
H953 C968 0.930 . S
C954 H942 0.930 . S
C954 C955 1.399 . S
C954 C959 1.399 . S
C955 C954 1.399 . S
C955 C956 1.376 . S
C956 H943 0.930 . S
C956 C955 1.376 . S
C956 C957 1.388 . S
C957 H944 0.930 . S
C957 C956 1.388 . S
C957 C958 1.390 . S
C958 C957 1.390 . S
C958 C959 1.394 . S
C958 C964 1.465 . S
C959 C954 1.399 . S
C959 C958 1.394 . S
C959 C960 1.516 . S
C960 C959 1.516 . S
C960 C961 1.502 . S
C960 C962 1.561 . S
C960 C963 1.526 . S
C961 H945 0.959 . S
C961 H946 0.959 . S
C961 H947 0.961 . S
C961 C960 1.502 . S
C962 H948 0.960 . S
C962 H949 0.961 . S
C962 H950 0.959 . S
C962 C960 1.561 . S
C963 C960 1.526 . S
C963 C964 1.396 . S
C963 C968 1.390 . S
C964 C958 1.465 . S
C964 C963 1.396 . S
C964 C965 1.399 . S
C965 H951 0.929 . S
C965 C964 1.399 . S
C965 C966 1.385 . S
C966 H952 0.931 . S
C966 C965 1.385 . S
C966 C967 1.389 . S
C967 C966 1.389 . S
C967 C968 1.387 . S
C968 H953 0.930 . S
C968 C963 1.390 . S
C968 C967 1.387 . S
H969 C981 0.930 . S
H970 C983 0.930 . S
H971 C984 0.930 . S
H972 C988 0.959 . S
H973 C988 0.959 . S
H974 C988 0.961 . S
H975 C989 0.960 . S
H976 C989 0.961 . S
H977 C989 0.959 . S
H978 C992 0.929 . S
H979 C993 0.931 . S
H980 C995 0.930 . S
C981 H969 0.930 . S
C981 C982 1.399 . S
C981 C986 1.399 . S
C982 C981 1.399 . S
C982 C983 1.376 . S
C983 H970 0.930 . S
C983 C982 1.376 . S
C983 C984 1.388 . S
C984 H971 0.930 . S
C984 C983 1.388 . S
C984 C985 1.390 . S
C985 C984 1.390 . S
C985 C986 1.394 . S
C985 C991 1.465 . S
C986 C981 1.399 . S
C986 C985 1.394 . S
C986 C987 1.516 . S
C987 C986 1.516 . S
C987 C988 1.502 . S
C987 C989 1.561 . S
C987 C990 1.526 . S
C988 H972 0.959 . S
C988 H973 0.959 . S
C988 H974 0.961 . S
C988 C987 1.502 . S
C989 H975 0.960 . S
C989 H976 0.961 . S
C989 H977 0.959 . S
C989 C987 1.561 . S
C990 C987 1.526 . S
C990 C991 1.396 . S
C990 C995 1.390 . S
C991 C985 1.465 . S
C991 C990 1.396 . S
C991 C992 1.399 . S
C992 H978 0.929 . S
C992 C991 1.399 . S
C992 C993 1.385 . S
C993 H979 0.931 . S
C993 C992 1.385 . S
C993 C994 1.389 . S
C994 C993 1.389 . S
C994 C995 1.387 . S
C995 H980 0.930 . S
C995 C990 1.390 . S
C995 C994 1.387 . S
H996 C1008 0.930 . S
H997 C1010 0.930 . S
H998 C1011 0.930 . S
H999 C1015 0.959 1_655 S
H1000 C1015 0.959 . S
H1001 C1015 0.961 . S
H1002 C1016 0.960 . S
H1003 C1016 0.961 . S
H1004 C1016 0.959 . S
H1005 C1019 0.929 1_554 S
H1006 C1020 0.931 . S
H1007 C1022 0.930 . S
C1008 H996 0.930 . S
C1008 C1009 1.399 1_556 S
C1008 C1013 1.399 . S
C1009 C1008 1.399 1_554 S
C1009 C1010 1.376 1_455 S
C1010 H997 0.930 . S
C1010 C1009 1.376 1_655 S
C1010 C1011 1.388 . S
C1011 H998 0.930 . S
C1011 C1010 1.388 . S
C1011 C1012 1.383 1_654 S
C1012 C1011 1.383 1_456 S
C1012 C1013 1.401 . S
C1012 C1018 1.465 . S
C1013 C1008 1.399 . S
C1013 C1012 1.401 . S
C1013 C1014 1.516 . S
C1014 C1013 1.516 . S
C1014 C1015 1.502 . S
C1014 C1016 1.561 . S
C1014 C1017 1.526 . S
C1015 H999 0.959 1_455 S
C1015 H1000 0.959 . S
C1015 H1001 0.961 . S
C1015 C1014 1.502 . S
C1016 H1002 0.960 . S
C1016 H1003 0.961 . S
C1016 H1004 0.959 . S
C1016 C1014 1.561 . S
C1017 C1014 1.526 . S
C1017 C1018 1.396 . S
C1017 C1022 1.390 . S
C1018 C1012 1.465 . S
C1018 C1017 1.396 . S
C1018 C1019 1.399 1_455 S
C1019 H1005 0.929 1_556 S
C1019 C1018 1.399 1_655 S
C1019 C1020 1.385 . S
C1020 H1006 0.931 . S
C1020 C1019 1.385 . S
C1020 C1021 1.389 1_655 S
C1021 C1020 1.389 1_455 S
C1021 C1022 1.387 . S
C1022 H1007 0.930 . S
C1022 C1017 1.390 . S
C1022 C1021 1.387 . S
H1023 C1035 0.930 . S
H1024 C1037 0.930 . S
H1025 C1038 0.930 . S
H1026 C1042 0.959 . S
H1027 C1042 0.959 . S
H1028 C1042 0.961 . S
H1029 C1043 0.960 . S
H1030 C1043 0.961 . S
H1031 C1043 0.958 . S
H1032 C1046 0.929 . S
H1033 C1047 0.931 . S
H1034 C1049 0.930 . S
C1035 H1023 0.930 . S
C1035 C1036 1.399 . S
C1035 C1040 1.399 1_554 S
C1036 C1035 1.399 . S
C1036 C1037 1.376 1_554 S
C1037 H1024 0.930 . S
C1037 C1036 1.376 1_556 S
C1037 C1038 1.388 . S
C1038 H1025 0.930 . S
C1038 C1037 1.388 . S
C1038 C1039 1.390 . S
C1039 C1038 1.390 . S
C1039 C1040 1.394 . S
C1039 C1045 1.465 . S
C1040 C1035 1.399 1_556 S
C1040 C1039 1.394 . S
C1040 C1041 1.516 1_556 S
C1041 C1040 1.516 1_554 S
C1041 C1042 1.502 . S
C1041 C1043 1.561 . S
C1041 C1044 1.526 1_554 S
C1042 H1026 0.959 . S
C1042 H1027 0.959 . S
C1042 H1028 0.961 . S
C1042 C1041 1.502 . S
C1043 H1029 0.960 . S
C1043 H1030 0.961 . S
C1043 H1031 0.958 . S
C1043 C1041 1.561 . S
C1044 C1041 1.526 1_556 S
C1044 C1045 1.396 . S
C1044 C1049 1.390 . S
C1045 C1039 1.465 . S
C1045 C1044 1.396 . S
C1045 C1046 1.399 . S
C1046 H1032 0.929 . S
C1046 C1045 1.399 . S
C1046 C1047 1.385 . S
C1047 H1033 0.931 . S
C1047 C1046 1.385 . S
C1047 C1048 1.389 . S
C1048 C1047 1.389 . S
C1048 C1049 1.387 . S
C1049 H1034 0.930 . S
C1049 C1044 1.390 . S
C1049 C1048 1.387 . S
H1050 C1062 0.930 . S
H1051 C1064 0.930 . S
H1052 C1065 0.930 . S
H1053 C1069 0.959 . S
H1054 C1069 0.959 . S
H1055 C1069 0.961 . S
H1056 C1070 0.960 . S
H1057 C1070 0.961 . S
H1058 C1070 0.959 . S
H1059 C1073 0.929 . S
H1060 C1074 0.931 . S
H1061 C1076 0.930 . S
C1062 H1050 0.930 . S
C1062 C1063 1.399 1_554 S
C1062 C1067 1.399 1_554 S
C1063 C1062 1.399 1_556 S
C1063 C1064 1.376 . S
C1064 H1051 0.930 . S
C1064 C1063 1.376 . S
C1064 C1065 1.388 . S
C1065 H1052 0.930 . S
C1065 C1064 1.388 . S
C1065 C1066 1.390 . S
C1066 C1065 1.390 . S
C1066 C1067 1.394 . S
C1066 C1072 1.465 . S
C1067 C1062 1.399 1_556 S
C1067 C1066 1.394 . S
C1067 C1068 1.516 1_556 S
C1068 C1067 1.516 1_554 S
C1068 C1069 1.502 . S
C1068 C1070 1.561 . S
C1068 C1071 1.526 1_554 S
C1069 H1053 0.959 . S
C1069 H1054 0.959 . S
C1069 H1055 0.961 . S
C1069 C1068 1.502 . S
C1070 H1056 0.960 . S
C1070 H1057 0.961 . S
C1070 H1058 0.959 . S
C1070 C1068 1.561 . S
C1071 C1068 1.526 1_556 S
C1071 C1072 1.396 . S
C1071 C1076 1.390 . S
C1072 C1066 1.465 . S
C1072 C1071 1.396 . S
C1072 C1073 1.399 . S
C1073 H1059 0.929 . S
C1073 C1072 1.399 . S
C1073 C1074 1.385 . S
C1074 H1060 0.931 . S
C1074 C1073 1.385 . S
C1074 C1075 1.389 . S
C1075 C1074 1.389 . S
C1075 C1076 1.387 . S
C1076 H1061 0.930 . S
C1076 C1071 1.390 . S
C1076 C1075 1.387 . S
H1077 C1089 0.930 . S
H1078 C1091 0.930 . S
H1079 C1092 0.930 . S
H1080 C1096 0.959 . S
H1081 C1096 0.959 . S
H1082 C1096 0.961 . S
H1083 C1097 0.960 . S
H1084 C1097 0.961 . S
H1085 C1097 0.959 . S
H1086 C1100 0.929 . S
H1087 C1101 0.931 . S
H1088 C1103 0.930 . S
C1089 H1077 0.930 . S
C1089 C1090 1.399 . S
C1089 C1094 1.399 1_554 S
C1090 C1089 1.399 . S
C1090 C1091 1.376 1_554 S
C1091 H1078 0.930 . S
C1091 C1090 1.376 1_556 S
C1091 C1092 1.388 . S
C1092 H1079 0.930 . S
C1092 C1091 1.388 . S
C1092 C1093 1.390 . S
C1093 C1092 1.390 . S
C1093 C1094 1.394 . S
C1093 C1099 1.465 . S
C1094 C1089 1.399 1_556 S
C1094 C1093 1.394 . S
C1094 C1095 1.516 . S
C1095 C1094 1.516 . S
C1095 C1096 1.502 1_556 S
C1095 C1097 1.561 . S
C1095 C1098 1.526 . S
C1096 H1080 0.959 . S
C1096 H1081 0.959 . S
C1096 H1082 0.961 . S
C1096 C1095 1.502 1_554 S
C1097 H1083 0.960 . S
C1097 H1084 0.961 . S
C1097 H1085 0.959 . S
C1097 C1095 1.561 . S
C1098 C1095 1.526 . S
C1098 C1099 1.396 . S
C1098 C1103 1.390 . S
C1099 C1093 1.465 . S
C1099 C1098 1.396 . S
C1099 C1100 1.399 . S
C1100 H1086 0.929 . S
C1100 C1099 1.399 . S
C1100 C1101 1.385 . S
C1101 H1087 0.931 . S
C1101 C1100 1.385 . S
C1101 C1102 1.389 . S
C1102 C1101 1.389 . S
C1102 C1103 1.387 . S
C1103 H1088 0.930 . S
C1103 C1098 1.390 . S
C1103 C1102 1.387 . S
H1104 C1116 0.930 . S
H1105 C1118 0.930 . S
H1106 C1119 0.930 . S
H1107 C1123 0.959 . S
H1108 C1123 0.959 . S
H1109 C1123 0.961 . S
H1110 C1124 0.960 . S
H1111 C1124 0.961 . S
H1112 C1124 0.959 . S
H1113 C1127 0.929 . S
H1114 C1128 0.931 . S
H1115 C1130 0.930 1_455 S
C1116 H1104 0.930 . S
C1116 C1117 1.399 1_455 S
C1116 C1121 1.399 1_455 S
C1117 C1116 1.399 1_655 S
C1117 C1118 1.376 . S
C1118 H1105 0.930 . S
C1118 C1117 1.376 . S
C1118 C1119 1.388 . S
C1119 H1106 0.930 . S
C1119 C1118 1.388 . S
C1119 C1120 1.390 . S
C1120 C1119 1.390 . S
C1120 C1121 1.394 . S
C1120 C1126 1.465 . S
C1121 C1116 1.399 1_655 S
C1121 C1120 1.394 . S
C1121 C1122 1.516 1_655 S
C1122 C1121 1.516 1_455 S
C1122 C1123 1.502 . S
C1122 C1124 1.561 1_455 S
C1122 C1125 1.526 1_455 S
C1123 H1107 0.959 . S
C1123 H1108 0.959 . S
C1123 H1109 0.961 . S
C1123 C1122 1.502 . S
C1124 H1110 0.960 . S
C1124 H1111 0.961 . S
C1124 H1112 0.959 . S
C1124 C1122 1.561 1_655 S
C1125 C1122 1.526 1_655 S
C1125 C1126 1.396 . S
C1125 C1130 1.390 . S
C1126 C1120 1.465 . S
C1126 C1125 1.396 . S
C1126 C1127 1.399 . S
C1127 H1113 0.929 . S
C1127 C1126 1.399 . S
C1127 C1128 1.385 . S
C1128 H1114 0.931 . S
C1128 C1127 1.385 . S
C1128 C1129 1.389 . S
C1129 C1128 1.389 . S
C1129 C1130 1.387 . S
C1130 H1115 0.930 1_655 S
C1130 C1125 1.390 . S
C1130 C1129 1.387 . S
H1131 C1143 0.930 . S
H1132 C1145 0.930 . S
H1133 C1146 0.930 . S
H1134 C1150 0.959 . S
H1135 C1150 0.959 1_545 S
H1136 C1150 0.961 . S
H1137 C1151 0.960 . S
H1138 C1151 0.961 . S
H1139 C1151 0.959 . S
H1140 C1154 0.929 . S
H1141 C1155 0.931 . S
H1142 C1157 0.930 . S
C1143 H1131 0.930 . S
C1143 C1144 1.399 . S
C1143 C1148 1.399 . S
C1144 C1143 1.399 . S
C1144 C1145 1.376 . S
C1145 H1132 0.930 . S
C1145 C1144 1.376 . S
C1145 C1146 1.388 . S
C1146 H1133 0.930 . S
C1146 C1145 1.388 . S
C1146 C1147 1.390 . S
C1147 C1146 1.390 . S
C1147 C1148 1.394 . S
C1147 C1153 1.465 . S
C1148 C1143 1.399 . S
C1148 C1147 1.394 . S
C1148 C1149 1.516 . S
C1149 C1148 1.516 . S
C1149 C1150 1.502 . S
C1149 C1151 1.561 . S
C1149 C1152 1.526 . S
C1150 H1134 0.959 . S
C1150 H1135 0.959 1_565 S
C1150 H1136 0.961 . S
C1150 C1149 1.502 . S
C1151 H1137 0.960 . S
C1151 H1138 0.961 . S
C1151 H1139 0.959 . S
C1151 C1149 1.561 . S
C1152 C1149 1.526 . S
C1152 C1153 1.396 . S
C1152 C1157 1.390 . S
C1153 C1147 1.465 . S
C1153 C1152 1.396 . S
C1153 C1154 1.399 . S
C1154 H1140 0.929 . S
C1154 C1153 1.399 . S
C1154 C1155 1.385 . S
C1155 H1141 0.931 . S
C1155 C1154 1.385 . S
C1155 C1156 1.389 . S
C1156 C1155 1.389 . S
C1156 C1157 1.387 . S
C1157 H1142 0.930 . S
C1157 C1152 1.390 . S
C1157 C1156 1.387 . S
H1158 C1170 0.930 . S
H1159 C1172 0.930 . S
H1160 C1173 0.930 . S
H1161 C1177 0.959 . S
H1162 C1177 0.959 . S
H1163 C1177 0.961 . S
H1164 C1178 0.960 . S
H1165 C1178 0.961 . S
H1166 C1178 0.959 . S
H1167 C1181 0.929 . S
H1168 C1182 0.931 . S
H1169 C1184 0.930 . S
C1170 H1158 0.930 . S
C1170 C1171 1.399 . S
C1170 C1175 1.399 . S
C1171 C1170 1.399 . S
C1171 C1172 1.376 . S
C1172 H1159 0.930 . S
C1172 C1171 1.376 . S
C1172 C1173 1.388 . S
C1173 H1160 0.930 . S
C1173 C1172 1.388 . S
C1173 C1174 1.390 . S
C1174 C1173 1.390 . S
C1174 C1175 1.394 . S
C1174 C1180 1.465 . S
C1175 C1170 1.399 . S
C1175 C1174 1.394 . S
C1175 C1176 1.516 . S
C1176 C1175 1.516 . S
C1176 C1177 1.502 . S
C1176 C1178 1.561 . S
C1176 C1179 1.526 . S
C1177 H1161 0.959 . S
C1177 H1162 0.959 . S
C1177 H1163 0.961 . S
C1177 C1176 1.502 . S
C1178 H1164 0.960 . S
C1178 H1165 0.961 . S
C1178 H1166 0.959 . S
C1178 C1176 1.561 . S
C1179 C1176 1.526 . S
C1179 C1180 1.396 . S
C1179 C1184 1.390 . S
C1180 C1174 1.465 . S
C1180 C1179 1.396 . S
C1180 C1181 1.399 . S
C1181 H1167 0.929 . S
C1181 C1180 1.399 . S
C1181 C1182 1.385 . S
C1182 H1168 0.931 . S
C1182 C1181 1.385 . S
C1182 C1183 1.389 . S
C1183 C1182 1.389 . S
C1183 C1184 1.387 . S
C1184 H1169 0.930 . S
C1184 C1179 1.390 . S
C1184 C1183 1.387 . S
H1185 C1197 0.930 . S
H1186 C1199 0.930 . S
H1187 C1200 0.930 . S
H1188 C1204 0.959 . S
H1189 C1204 0.959 . S
H1190 C1204 0.961 . S
H1191 C1205 0.960 . S
H1192 C1205 0.961 . S
H1193 C1205 0.959 . S
H1194 C1208 0.929 . S
H1195 C1209 0.931 . S
H1196 C1211 0.930 . S
C1197 H1185 0.930 . S
C1197 C1198 1.399 . S
C1197 C1202 1.399 . S
C1198 C1197 1.399 . S
C1198 C1199 1.376 . S
C1199 H1186 0.930 . S
C1199 C1198 1.376 . S
C1199 C1200 1.388 . S
C1200 H1187 0.930 . S
C1200 C1199 1.388 . S
C1200 C1201 1.390 . S
C1201 C1200 1.390 . S
C1201 C1202 1.394 . S
C1201 C1207 1.465 . S
C1202 C1197 1.399 . S
C1202 C1201 1.394 . S
C1202 C1203 1.516 . S
C1203 C1202 1.516 . S
C1203 C1204 1.502 . S
C1203 C1205 1.561 . S
C1203 C1206 1.526 . S
C1204 H1188 0.959 . S
C1204 H1189 0.959 . S
C1204 H1190 0.961 . S
C1204 C1203 1.502 . S
C1205 H1191 0.960 . S
C1205 H1192 0.961 . S
C1205 H1193 0.959 . S
C1205 C1203 1.561 . S
C1206 C1203 1.526 . S
C1206 C1207 1.396 . S
C1206 C1211 1.390 . S
C1207 C1201 1.465 . S
C1207 C1206 1.396 . S
C1207 C1208 1.399 . S
C1208 H1194 0.929 . S
C1208 C1207 1.399 . S
C1208 C1209 1.385 . S
C1209 H1195 0.931 . S
C1209 C1208 1.385 . S
C1209 C1210 1.389 . S
C1210 C1209 1.389 . S
C1210 C1211 1.387 . S
C1211 H1196 0.930 . S
C1211 C1206 1.390 . S
C1211 C1210 1.387 . S
C577 C391 2.062 . S
C589 C495 1.892 . S
C616 C519 1.354 . S
C604 C451 1.631 . S
C643 C540 1.844 . S
C631 C241 1.749 . S
C670 C558 1.363 . S
C658 C331 1.494 . S
C697 C498 1.790 1_565 S
C685 C121 1.763 . S
C712 C211 1.497 . S
C724 C516 1.342 . S
C739 C31 1.858 1_556 S
C751 C537 1.818 . S
C766 C91 1.331 1_455 S
C778 C561 1.339 . S
C805 C496 0.592 . S
C793 C301 0.453 . S
C832 C514 0.657 . S
C820 C380 0.830 . S
C859 C535 0.373 . S
C847 C440 0.325 . S
C874 C260 0.818 . S
C886 C559 0.696 . S
C901 C61 0.675 1_455 S
C913 C494 0.319 . S
C940 C518 0.847 1_565 S
C928 C140 0.760 . S
C967 C539 0.476 . S
C955 C200 0.466 . S
C982 C20 0.673 . S
C994 C557 0.834 . S
C1009 C320 1.960 1_455 S
C1021 C497 1.912 . S
C1036 C361 2.065 . S
C1048 C515 2.155 . S
C1075 C536 1.863 . S
C1063 C421 1.773 1_556 S
C1102 C560 2.205 . S
C1090 C271 2.209 . S
C1117 C80 1.862 . S
C1129 C493 1.773 . S
C1156 C517 2.039 . S
C1144 C151 2.107 . S
C1183 C538 1.731 . S
C1171 C181 1.582 . S
C1198 C1 1.824 . S
C1210 C556 2.073 . S
