# Generated by pormake.
# Topology pth, (4,4)-cn, num edge types: 1
# Building blocks:
#     Node 0, Type 0, BuildingBlock: KUFVIS_clean_sbu_0, # of connection points: 4
#     Node 1, Type 0, BuildingBlock: KUFVIS_clean_sbu_0, # of connection points: 4
#     Node 2, Type 0, BuildingBlock: KUFVIS_clean_sbu_0, # of connection points: 4
#     Node 3, Type 1, BuildingBlock: MIFKUJ_clean_linker_1, # of connection points: 4
#     Node 4, Type 1, BuildingBlock: MIFKUJ_clean_linker_1, # of connection points: 4
#     Node 5, Type 1, BuildingBlock: MIFKUJ_clean_linker_1, # of connection points: 4
#     Edge 6, Type (0, 1), BuildingBlock: CIFDUS_clean_linker_0, # of connection points: 2
#     Edge 7, Type (0, 1), BuildingBlock: CIFDUS_clean_linker_0, # of connection points: 2
#     Edge 8, Type (0, 1), BuildingBlock: CIFDUS_clean_linker_0, # of connection points: 2
#     Edge 9, Type (0, 1), BuildingBlock: CIFDUS_clean_linker_0, # of connection points: 2
#     Edge 10, Type (0, 1), BuildingBlock: CIFDUS_clean_linker_0, # of connection points: 2
#     Edge 11, Type (0, 1), BuildingBlock: CIFDUS_clean_linker_0, # of connection points: 2
#     Edge 12, Type (0, 1), BuildingBlock: CIFDUS_clean_linker_0, # of connection points: 2
#     Edge 13, Type (0, 1), BuildingBlock: CIFDUS_clean_linker_0, # of connection points: 2
#     Edge 14, Type (0, 1), BuildingBlock: CIFDUS_clean_linker_0, # of connection points: 2
#     Edge 15, Type (0, 1), BuildingBlock: CIFDUS_clean_linker_0, # of connection points: 2
#     Edge 16, Type (0, 1), BuildingBlock: CIFDUS_clean_linker_0, # of connection points: 2
#     Edge 17, Type (0, 1), BuildingBlock: CIFDUS_clean_linker_0, # of connection points: 2
# Relax obj value: 0.017
# Max RMSD: 0.085
# Mean RMSD: 0.063
data_MOF--net-pth--node1-KUFVIS_clean_sbu_0--node2-MIFKUJ_clean_linker_1--edge1-CIFDUS_clean_linker_0
_symmetry_space_group_name_H-M    P1
_symmetry_Int_Tables_number       1
_symmetry_cell_setting            triclinic
loop_
_symmetry_equiv_pos_as_xyz
'x, y, z'
_cell_length_a     26.021052
_cell_length_b     25.977263
_cell_length_c     57.347634
_cell_angle_alpha  90.560055
_cell_angle_beta   91.710151
_cell_angle_gamma 119.9747
loop_
_atom_site_label
_atom_site_type_symbol
_atom_site_fract_x
_atom_site_fract_y
_atom_site_fract_z
_atom_type_partial_charge
Mn0 Mn 0.04911 0.07023 0.04581 0.0
Mn1 Mn 0.96611 0.11084 0.01282 0.0
C2 C 0.98946 0.00968 0.01514 0.0
C3 C 0.06207 0.02139 0.07747 0.0
C4 C 0.09555 0.15678 1.00521 0.0
O5 O 0.0504 0.13538 0.06629 0.0
O6 O 1.00101 0.16314 0.04129 0.0
C7 C 0.87168 0.07611 0.04691 0.0
N8 N 0.8883 0.07207 0.02497 0.0
C9 C 0.78705 1.00415 0.01235 0.0
C10 C 0.76886 0.00787 0.03477 0.0
C11 C 0.81139 0.04388 0.05214 0.0
C12 C 0.84778 0.03703 0.00821 0.0
H13 H 0.90413 0.10362 0.06034 0.0
C14 C 0.03014 0.16934 0.06051 0.0
O15 O 0.10722 0.06316 0.06715 0.0
O16 O 1.00979 0.01034 0.07021 0.0
N17 N 0.92846 0.06542 0.98468 0.0
C18 C 0.95307 0.06768 0.9638 0.0
C19 C 0.91647 0.0343 0.94454 0.0
C20 C 0.85479 1.00002 0.94678 0.0
C21 C 0.83022 1.00005 0.9682 0.0
C22 C 0.86895 0.0343 0.98677 0.0
H23 H 1.00029 0.0945 0.96189 0.0
O24 O 0.03417 1.00536 0.02315 0.0
O25 O 0.97963 0.04854 0.02559 0.0
O26 O 0.10498 0.13286 0.02299 0.0
O27 O 0.04486 0.14997 0.99908 0.0
C28 C 0.76886 0.96712 0.97189 0.0
C29 C 0.74733 0.96891 0.99399 0.0
H30 H 0.72239 0.98315 0.03886 0.0
H31 H 0.79773 0.04683 0.06951 0.0
H32 H 0.93576 0.03502 0.928 0.0
H33 H 0.82673 0.97401 0.93193 0.0
H34 H 0.73791 0.93984 0.95791 0.0
H35 H 0.70011 0.94297 0.99668 0.0
Mn36 Mn 0.03286 0.0707 0.37916 0.0
Mn37 Mn 0.11544 0.19552 0.41207 0.0
C38 C 0.08418 0.06798 0.41232 0.0
C39 C 0.02935 0.01053 0.34773 0.0
C40 C 0.98062 0.12197 0.41306 0.0
O41 O 0.0393 0.13633 0.35798 0.0
O42 O 0.10283 0.21698 0.38004 0.0
C43 C 0.22816 0.24273 0.38761 0.0
N44 N 0.19781 0.22444 0.4076 0.0
C45 C 0.28636 0.2449 0.42974 0.0
C46 C 0.31867 0.26448 0.40943 0.0
C47 C 0.2894 0.26321 0.38826 0.0
C48 C 0.22546 0.22511 0.42803 0.0
H49 H 0.20574 0.24148 0.37128 0.0
C50 C 0.07179 0.19255 0.36121 0.0
O51 O 0.98088 1.0064 0.3554 0.0
O52 O 0.07873 0.05085 0.35764 0.0
N53 N 0.13158 0.18155 0.44345 0.0
C54 C 0.09344 0.15826 0.46118 0.0
C55 C 0.11537 0.15458 0.48341 0.0
C56 C 0.17626 0.17529 0.48721 0.0
C57 C 0.21477 0.19981 0.46878 0.0
C58 C 0.19044 0.20274 0.44706 0.0
H59 H 0.0466 0.14229 0.45837 0.0
O60 O 0.04052 0.01936 0.40319 0.0
O61 O 0.09721 0.11642 0.40146 0.0
O62 O 0.97312 0.07981 0.39907 0.0
O63 O 0.03136 0.16751 0.41817 0.0
C64 C 0.27617 0.22054 0.47101 0.0
C65 C 0.31194 0.24307 0.45151 0.0
H66 H 0.36584 0.27999 0.40983 0.0
H67 H 0.31396 0.27785 0.37247 0.0
H68 H 0.08537 0.13563 0.49755 0.0
H69 H 0.19291 0.17185 0.50432 0.0
H70 H 0.29618 0.21854 0.48756 0.0
H71 H 0.3589 0.25796 0.45335 0.0
Mn72 Mn 0.0516 0.05978 0.71173 0.0
Mn73 Mn 1.00499 0.14594 0.73704 0.0
C74 C 0.11149 0.12997 0.74011 0.0
C75 C 0.09952 0.04543 0.68065 0.0
C76 C 0.95582 0.01507 0.74754 0.0
O77 O 0.98267 0.04877 0.6903 0.0
O78 O 0.96477 0.11839 0.70562 0.0
C79 C 0.05504 0.24856 0.70591 0.0
N80 N 0.05045 0.22641 0.72765 0.0
C81 C 0.11505 0.32409 0.7445 0.0
C82 C 0.12018 0.34802 0.7223 0.0
C83 C 0.09013 0.31007 0.70293 0.0
C84 C 0.07906 0.26251 0.74642 0.0
H85 H 0.03217 0.21948 0.69097 0.0
C86 C 0.95611 0.07896 0.68994 0.0
O87 O 0.06271 1.00096 0.69283 0.0
O88 O 0.10769 0.09741 0.68635 0.0
N89 N 0.04107 0.17565 0.76743 0.0
C90 C 0.03504 0.14502 0.78727 0.0
C91 C 0.06451 0.17618 0.80807 0.0
C92 C 0.09954 0.23845 0.80829 0.0
C93 C 0.10472 0.26903 0.78768 0.0
C94 C 0.07405 0.23563 0.76751 0.0
H95 H 1.00831 0.09716 0.78721 0.0
O96 O 0.11985 0.0861 0.73485 0.0
O97 O 0.06895 0.13171 0.72834 0.0
O98 O 0.99236 1.00675 0.73593 0.0
O99 O 0.95596 0.06435 0.74817 0.0
C100 C 0.14025 0.33121 0.78625 0.0
C101 C 0.14538 0.35872 0.76467 0.0
H102 H 0.14756 0.39538 0.7199 0.0
H103 H 0.09413 0.32818 0.68573 0.0
H104 H 0.06046 0.15225 0.82389 0.0
H105 H 0.12272 0.26227 0.82431 0.0
H106 H 0.16463 0.35818 0.80154 0.0
H107 H 0.17359 0.40645 0.76371 0.0
H108 H 0.11122 0.54185 0.16988 0.0
H109 H 0.11826 0.46638 0.1465 0.0
H110 H 0.95893 0.32915 0.17646 0.0
H111 H 0.95064 0.40462 0.19916 0.0
H112 H 0.03557 0.57738 0.16952 0.0
H113 H 0.10494 0.49647 0.22936 0.0
H114 H 0.10735 0.41946 0.25287 0.0
H115 H 0.93013 0.36348 0.27489 0.0
H116 H 0.92776 0.44024 0.25115 0.0
H117 H 0.91812 0.59527 0.25152 0.0
H118 H 0.90885 0.66993 0.27436 0.0
H119 H 0.07337 0.80734 0.24725 0.0
H120 H 0.08514 0.73219 0.22671 0.0
H121 H 0.9985 0.56085 0.25423 0.0
H122 H 0.9266 0.62891 0.18465 0.0
H123 H 0.92867 0.70971 0.16273 0.0
H124 H 0.12086 0.79859 0.16393 0.0
H125 H 0.11712 0.71439 0.18379 0.0
C126 C 0.0308 0.47916 0.18658 0.0
C127 C 0.07771 0.49556 0.17143 0.0
C128 C 0.0818 0.45242 0.15811 0.0
C129 C 0.03936 0.39188 0.15978 0.0
C130 C 0.99282 0.37537 0.1751 0.0
C131 C 0.9882 0.41858 0.18814 0.0
C132 C 0.02525 0.52547 0.20005 0.0
C133 C 0.02828 0.57394 0.18811 0.0
C134 C 0.0148 0.52104 0.22427 0.0
C135 C 0.01604 0.47394 0.2384 0.0
C136 C 0.06646 0.46735 0.23913 0.0
C137 C 0.0679 0.42355 0.25266 0.0
C138 C 0.01888 0.3853 0.2657 0.0
C139 C 0.96831 0.39177 0.26483 0.0
C140 C 0.96709 0.43592 0.25144 0.0
C141 C 1.0017 0.65799 0.23689 0.0
C142 C 0.9523 0.64153 0.25063 0.0
C143 C 0.9467 0.68454 0.26348 0.0
C144 C 0.99023 0.74517 0.26276 0.0
C145 C 0.03926 0.7613 0.24871 0.0
C146 C 0.04546 0.71824 0.23638 0.0
C147 C 1.00857 0.6122 0.22367 0.0
C148 C 1.00574 0.56393 0.23565 0.0
C149 C 0.02012 0.61714 0.19958 0.0
C150 C 0.02166 0.66584 0.18583 0.0
C151 C 0.969 0.66563 0.17987 0.0
C152 C 0.97055 0.71263 0.16759 0.0
C153 C 0.02507 0.76196 0.16157 0.0
C154 C 0.0778 0.76148 0.16764 0.0
C155 C 0.07595 0.71343 0.17921 0.0
H156 H 0.62336 0.12353 0.49915 0.0
H157 H 0.69871 0.12826 0.47357 0.0
H158 H 0.68201 0.96908 0.50378 0.0
H159 H 0.60463 0.96311 0.52865 0.0
H160 H 0.51417 0.05086 0.50088 0.0
H161 H 0.66934 0.12453 0.556 0.0
H162 H 0.75423 0.14243 0.58129 0.0
H163 H 0.65024 0.96872 0.6102 0.0
H164 H 0.56519 0.95069 0.58463 0.0
H165 H 0.37278 0.92184 0.57357 0.0
H166 H 0.29243 0.91185 0.59764 0.0
H167 H 0.36206 0.1017 0.59477 0.0
H168 H 0.43988 0.11021 0.56966 0.0
H169 H 0.50668 0.01136 0.58547 0.0
H170 H 0.34609 0.95805 0.52442 0.0
H171 H 0.27535 0.97206 0.5 0.0
H172 H 0.41285 0.1518 0.48706 0.0
H173 H 0.48327 0.13703 0.51104 0.0
C174 C 0.60836 0.04315 0.51598 0.0
C175 C 0.63578 0.08953 0.50027 0.0
C176 C 0.67927 0.09244 0.48575 0.0
C177 C 0.69654 0.04906 0.4866 0.0
C178 C 0.66932 1.00283 0.50246 0.0
C179 C 0.62562 0.99984 0.51694 0.0
C180 C 0.5596 0.03834 0.53041 0.0
C181 C 0.51306 0.04274 0.51943 0.0
C182 C 0.55809 0.02852 0.55469 0.0
C183 C 0.61098 0.03607 0.5683 0.0
C184 C 0.66508 0.08974 0.56742 0.0
C185 C 0.71342 0.10016 0.58202 0.0
C186 C 0.70874 0.05707 0.59777 0.0
C187 C 0.65523 1.00251 0.59809 0.0
C188 C 0.60659 0.99229 0.5836 0.0
C189 C 0.41195 0.01667 0.56981 0.0
C190 C 0.37017 0.96108 0.57802 0.0
C191 C 0.32452 0.95562 0.59194 0.0
C192 C 0.32041 1.00594 0.59832 0.0
C193 C 0.36266 0.06164 0.58992 0.0
C194 C 0.40764 0.06681 0.57569 0.0
C195 C 0.46131 0.0227 0.55572 0.0
C196 C 0.50792 0.01868 0.56686 0.0
C197 C 0.46483 0.03664 0.53189 0.0
C198 C 0.4199 0.04645 0.51945 0.0
C199 C 0.36059 1.00072 0.51661 0.0
C200 C 0.32024 0.00887 0.50269 0.0
C201 C 0.33866 0.06288 0.49138 0.0
C202 C 0.39754 0.1093 0.49512 0.0
C203 C 0.43775 0.10104 0.50892 0.0
H204 H 0.50738 0.4226 0.84468 0.0
H205 H 0.42506 0.33739 0.82321 0.0
H206 H 0.31005 0.40839 0.8369 0.0
H207 H 0.39183 0.49266 0.85897 0.0
H208 H 0.55533 0.54977 0.83598 0.0
H209 H 0.45963 0.40371 0.8942 0.0
H210 H 0.38397 0.33448 0.92002 0.0
H211 H 0.36031 0.47698 0.94665 0.0
H212 H 0.43459 0.54571 0.92036 0.0
H213 H 0.58325 0.69978 0.9142 0.0
H214 H 0.65636 0.77942 0.94018 0.0
H215 H 0.78583 0.72781 0.92381 0.0
H216 H 0.71271 0.64944 0.89716 0.0
H217 H 0.54591 0.58103 0.92082 0.0
H218 H 0.63758 0.7269 0.86409 0.0
H219 H 0.71677 0.80142 0.84144 0.0
H220 H 0.74645 0.6655 0.8115 0.0
H221 H 0.6695 0.59153 0.8356 0.0
C222 C 0.45549 0.46365 0.85344 0.0
C223 C 0.46442 0.41971 0.84308 0.0
C224 C 0.41756 0.37116 0.83096 0.0
C225 C 0.36165 0.36675 0.82857 0.0
C226 C 0.35293 0.41111 0.83862 0.0
C227 C 0.39943 0.459 0.85116 0.0
C228 C 0.50468 0.51442 0.86669 0.0
C229 C 0.55388 0.55634 0.85461 0.0
C230 C 0.50162 0.52342 0.89085 0.0
C231 C 0.45244 0.47993 0.90507 0.0
C232 C 0.43716 0.41983 0.90514 0.0
C233 C 0.39425 0.38036 0.92003 0.0
C234 C 0.36664 0.40052 0.93545 0.0
C235 C 0.38148 0.46043 0.93518 0.0
C236 C 0.42373 0.49964 0.92009 0.0
C237 C 0.64265 0.66883 0.90379 0.0
C238 C 0.62767 0.70621 0.91601 0.0
C239 C 0.66938 0.75137 0.93099 0.0
C240 C 0.72677 0.75953 0.93436 0.0
C241 C 0.74224 0.72315 0.92148 0.0
C242 C 0.70052 0.67824 0.90628 0.0
C243 C 0.59603 0.61694 0.89014 0.0
C244 C 0.54744 0.57456 0.90218 0.0
C245 C 0.59954 0.60809 0.86597 0.0
C246 C 0.64808 0.65354 0.85198 0.0
C247 C 0.66192 0.71317 0.85307 0.0
C248 C 0.70674 0.75575 0.83972 0.0
C249 C 0.73806 0.73967 0.82444 0.0
C250 C 0.72396 0.67981 0.82326 0.0
C251 C 0.67948 0.63727 0.83689 0.0
H252 H 0.03123 0.17084 0.1082 0.0
H253 H 0.049 0.2778 0.04862 0.0
H254 H 0.05715 0.35742 0.07416 0.0
H255 H 0.05375 0.39474 0.11315 0.0
H256 H 0.0295 0.28634 0.1728 0.0
H257 H 0.0291 0.20926 0.14766 0.0
C258 C 0.03763 0.21193 0.10091 0.0
C259 C 0.03965 0.21852 0.07658 0.0
C260 C 0.04058 0.25706 0.11571 0.0
C261 C 0.04707 0.2716 0.06729 0.0
C262 C 0.05173 0.31716 0.08188 0.0
C263 C 0.04914 0.35454 0.12067 0.0
C264 C 0.04191 0.3463 0.14478 0.0
C265 C 0.04773 0.31009 0.10607 0.0
C266 C 0.03487 0.29353 0.15425 0.0
C267 C 0.03477 0.24955 0.13989 0.0
H268 H 0.87377 0.02242 0.42063 0.0
H269 H 0.97232 0.21254 0.43321 0.0
H270 H 0.89322 0.20667 0.4566 0.0
H271 H 0.79875 0.14772 0.47522 0.0
H272 H 0.69883 0.95769 0.46307 0.0
H273 H 0.77608 0.96336 0.43818 0.0
C274 C 0.87753 0.06261 0.42823 0.0
C275 C 0.9291 0.11778 0.42515 0.0
C276 C 0.832 0.05895 0.44205 0.0
C277 C 0.93339 0.16937 0.43535 0.0
C278 C 0.88816 0.16614 0.44879 0.0
C279 C 0.79334 0.10756 0.46689 0.0
C280 C 0.74299 0.05239 0.47109 0.0
C281 C 0.83769 0.11115 0.45252 0.0
C282 C 0.73749 1.00072 0.46044 0.0
C283 C 0.78147 1.00395 0.44605 0.0
H284 H 0.9571 0.91784 0.76544 0.0
H285 H 0.84948 1.00105 0.75911 0.0
H286 H 0.77268 0.92274 0.78139 0.0
H287 H 0.73589 0.83163 0.80299 0.0
H288 H 0.8443 0.75003 0.812 0.0
H289 H 0.91993 0.82566 0.78799 0.0
C290 C 0.9167 0.91856 0.76886 0.0
C291 C 0.90933 0.96549 0.76064 0.0
C292 C 0.8726 0.87354 0.78213 0.0
C293 C 0.85677 0.9659 0.76537 0.0
C294 C 0.81259 0.92099 0.77808 0.0
C295 C 0.77634 0.83061 0.80004 0.0
C296 C 0.78421 0.78513 0.80951 0.0
C297 C 0.82019 0.87491 0.7867 0.0
C298 C 0.83647 0.784 0.8048 0.0
C299 C 0.88006 0.82756 0.79118 0.0
H300 H 0.98602 0.9566 0.11088 0.0
H301 H 0.15275 0.99788 0.08169 0.0
H302 H 0.15638 0.92156 0.10513 0.0
H303 H 0.1079 0.83774 0.13117 0.0
H304 H 0.94643 0.80385 0.16374 0.0
H305 H 0.94444 0.88144 0.14117 0.0
C306 C 0.02357 0.94944 0.10994 0.0
C307 C 0.06886 0.98256 0.09449 0.0
C308 C 0.02572 0.90591 0.12365 0.0
C309 C 0.11748 0.97319 0.09355 0.0
C310 C 0.11933 0.9292 0.10681 0.0
C311 C 0.07282 0.8478 0.13393 0.0
C312 C 0.02667 0.81316 0.14899 0.0
C313 C 0.07308 0.89448 0.12159 0.0
C314 C 0.98151 0.82747 0.15173 0.0
C315 C 0.98063 0.87266 0.13901 0.0
H316 H 0.20041 0.1075 0.40893 0.0
H317 H 0.05502 0.01654 0.45455 0.0
H318 H 0.12116 0.00728 0.48353 0.0
H319 H 0.22093 0.02591 0.49572 0.0
H320 H 0.36514 0.11469 0.44902 0.0
H321 H 0.29929 0.12508 0.42082 0.0
C322 C 0.18367 0.08645 0.4254 0.0
C323 C 0.1239 0.06463 0.43017 0.0
C324 C 0.2217 0.08094 0.44171 0.0
C325 C 0.10151 0.03491 0.45095 0.0
C326 C 0.13921 0.02958 0.46742 0.0
C327 C 0.23782 0.04726 0.47933 0.0
C328 C 0.29801 0.06979 0.4746 0.0
C329 C 0.19949 0.05257 0.46299 0.0
C330 C 0.31931 0.09783 0.45333 0.0
C331 C 0.28157 0.10331 0.43706 0.0
H332 H 0.15512 0.12686 0.78317 0.0
H333 H 0.17264 0.24486 0.72789 0.0
H334 H 0.25025 0.32955 0.75081 0.0
H335 H 0.31346 0.36995 0.78671 0.0
H336 H 0.30158 0.25123 0.84084 0.0
H337 H 0.22096 0.16683 0.81859 0.0
C338 C 0.1758 0.17132 0.77635 0.0
C339 C 0.15673 0.18052 0.75444 0.0
C340 C 0.22115 0.21945 0.78947 0.0
C341 C 0.1851 0.23757 0.74522 0.0
C342 C 0.22975 0.28577 0.7582 0.0
C343 C 0.2929 0.3255 0.79355 0.0
C344 C 0.31273 0.31632 0.81528 0.0
C345 C 0.24786 0.27731 0.78041 0.0
C346 C 0.28661 0.25882 0.82407 0.0
C347 C 0.24072 0.21078 0.81137 0.0
H348 H 0.91229 0.14992 0.67635 0.0
H349 H 0.9004 0.98153 0.66022 0.0
H350 H 0.82333 0.96 0.63008 0.0
H351 H 0.75691 0.98784 0.60905 0.0
H352 H 0.77096 0.15713 0.62501 0.0
H353 H 0.84967 0.17949 0.65437 0.0
C354 C 0.89296 0.10849 0.66625 0.0
C355 C 0.91189 0.06725 0.67071 0.0
C356 C 0.84895 0.09651 0.64889 0.0
C357 C 0.88679 0.01415 0.65718 0.0
C358 C 0.84252 1.00168 0.63998 0.0
C359 C 0.7773 0.02956 0.61899 0.0
C360 C 0.75815 0.07074 0.61488 0.0
C361 C 0.82285 0.0423 0.63582 0.0
C362 C 0.78533 0.12496 0.62768 0.0
C363 C 0.83013 0.13765 0.64456 0.0
H364 H 0.87186 0.93722 0.01867 0.0
H365 H 0.01651 0.98154 0.97345 0.0
H366 H 0.9481 0.90733 0.94426 0.0
H367 H 0.84644 0.83264 0.93121 0.0
H368 H 0.70246 0.7859 0.97745 0.0
H369 H 0.771 0.85914 0.00642 0.0
C370 C 0.888 0.93074 1.0023 0.0
C371 C 0.94824 0.96585 0.99762 0.0
C372 C 0.84859 0.88782 0.98582 0.0
C373 C 0.96973 0.95569 0.97696 0.0
C374 C 0.93074 0.91336 0.96036 0.0
C375 C 0.83011 0.83798 0.94771 0.0
C376 C 0.7692 0.80407 0.95198 0.0
C377 C 0.86993 0.87959 0.96451 0.0
C378 C 0.74884 0.81216 0.97342 0.0
C379 C 0.78809 0.8536 0.99015 0.0
H380 H 0.93453 0.91469 0.32488 0.0
H381 H 0.12617 0.01166 0.33118 0.0
H382 H 0.13052 0.9388 0.30582 0.0
H383 H 0.08112 0.84518 0.28389 0.0
H384 H 0.89004 0.74924 0.27466 0.0
H385 H 0.88452 0.82305 0.29958 0.0
C386 C 0.97716 0.92015 0.32046 0.0
C387 C 0.02985 0.96859 0.3301 0.0
C388 C 0.97963 0.87775 0.30564 0.0
C389 C 0.08476 0.9749 0.32415 0.0
C390 C 0.08744 0.93307 0.30966 0.0
C391 C 0.03811 0.8407 0.28674 0.0
C392 C 0.98617 0.79122 0.27724 0.0
C393 C 0.03525 0.88398 0.30056 0.0
C394 C 0.93094 0.78606 0.28197 0.0
C395 C 0.9277 0.82865 0.2961 0.0
H396 H 0.13899 0.96641 0.67715 0.0
H397 H 0.13676 0.11123 0.64198 0.0
H398 H 0.20098 0.10863 0.61234 0.0
H399 H 0.26196 0.06908 0.59762 0.0
H400 H 0.27321 0.93142 0.63514 0.0
H401 H 0.20047 0.9264 0.66216 0.0
C402 C 0.15195 0.99671 0.66278 0.0
C403 C 0.13308 0.03878 0.66166 0.0
C404 C 0.19071 0.99639 0.64622 0.0
C405 C 0.15086 0.0785 0.64319 0.0
C406 C 0.18764 0.0771 0.62627 0.0
C407 C 0.24912 0.03829 0.61181 0.0
C408 C 0.27363 1.0009 0.61421 0.0
C409 C 0.20879 0.03703 0.62786 0.0
C410 C 0.25479 0.96027 0.63247 0.0
C411 C 0.21342 0.95765 0.64814 0.0
H412 H 0.19621 0.26016 0.01668 0.0
H413 H 0.10452 0.13368 0.96 0.0
H414 H 0.18178 0.19668 0.93345 0.0
H415 H 0.27292 0.29018 0.92593 0.0
H416 H 0.36261 0.41937 0.98206 0.0
H417 H 0.28894 0.35343 0.00923 0.0
C418 C 0.19384 0.24639 0.99857 0.0
C419 C 0.14512 0.19273 0.99016 0.0
C420 C 0.23778 0.28358 0.9833 0.0
C421 C 0.14161 0.17522 0.96668 0.0
C422 C 0.18575 0.21114 0.95154 0.0
C423 C 0.27657 0.30353 0.94416 0.0
C424 C 0.32295 0.3595 0.95198 0.0
C425 C 0.23362 0.26579 0.95957 0.0
C426 C 0.32686 0.37667 0.9756 0.0
C427 C 0.28493 0.33892 0.99115 0.0
H428 H 0.98602 0.17093 0.32761 0.0
H429 H 0.16026 0.30511 0.35361 0.0
H430 H 0.16039 0.37517 0.32563 0.0
H431 H 0.1091 0.40061 0.29532 0.0
H432 H 0.93336 0.26875 0.27013 0.0
H433 H 0.93554 0.19585 0.29627 0.0
C434 C 0.02428 0.21526 0.32693 0.0
C435 C 0.07302 0.23265 0.34271 0.0
C436 C 0.02357 0.25604 0.31109 0.0
C437 C 0.12199 0.29055 0.34177 0.0
C438 C 0.12215 0.33076 0.32577 0.0
C439 C 0.07159 0.35568 0.29533 0.0
C440 C 0.02118 0.34016 0.28079 0.0
C441 C 0.07288 0.31431 0.31058 0.0
C442 C 0.97251 0.282 0.2813 0.0
C443 C 0.97382 0.24023 0.29618 0.0
loop_
_geom_bond_atom_site_label_1
_geom_bond_atom_site_label_2
_geom_bond_distance
_geom_bond_site_symmetry_2
_ccdc_geom_bond_type
Mn0 O5 2.095 . S
Mn0 O15 2.162 . S
Mn0 O16 2.297 1_545 S
Mn0 O24 2.385 1_545 S
Mn0 O25 2.209 1_455 S
Mn0 O26 2.094 . S
Mn1 O6 2.121 . S
Mn1 N8 2.257 . S
Mn1 N17 2.282 1_554 S
Mn1 O25 2.215 . S
Mn1 O27 2.117 1_655 S
C2 O24 1.234 1_655 S
C2 O25 1.283 1_565 S
C3 O15 1.281 1_565 S
C3 O16 1.236 . S
C4 O26 1.240 . S
C4 O27 1.264 . S
O5 Mn0 2.095 . S
O5 C14 1.250 . S
O6 Mn1 2.121 . S
O6 C14 1.258 1_655 S
C7 N8 1.326 . S
C7 C11 1.460 . S
C7 H13 0.929 . S
N8 Mn1 2.257 . S
N8 C7 1.326 . S
N8 C12 1.362 1_554 S
C9 C10 1.258 . S
C9 C12 1.431 . S
C9 C29 1.449 . S
C10 C9 1.258 . S
C10 C11 1.477 1_556 S
C10 H30 0.931 . S
C11 C7 1.460 . S
C11 C10 1.477 1_554 S
C11 H31 0.930 . S
C12 N8 1.362 1_556 S
C12 C9 1.431 . S
C12 C22 1.476 . S
H13 C7 0.929 . S
C14 O5 1.250 . S
C14 O6 1.258 1_455 S
O15 Mn0 2.162 . S
O15 C3 1.281 1_545 S
O16 Mn0 2.297 1_565 S
O16 C3 1.236 . S
N17 Mn1 2.282 1_556 S
N17 C18 1.328 . S
N17 C22 1.318 . S
C18 N17 1.328 . S
C18 C19 1.457 . S
C18 H23 0.929 1_655 S
C19 C18 1.457 . S
C19 C20 1.291 . S
C19 H32 0.931 . S
C20 C19 1.291 . S
C20 C21 1.373 . S
C20 H33 0.929 . S
C21 C20 1.373 . S
C21 C22 1.396 . S
C21 C28 1.403 . S
C22 C12 1.476 . S
C22 N17 1.318 . S
C22 C21 1.396 . S
H23 C18 0.929 1_455 S
O24 Mn0 2.385 1_565 S
O24 C2 1.234 1_455 S
O25 Mn0 2.209 1_655 S
O25 Mn1 2.215 . S
O25 C2 1.283 1_545 S
O26 Mn0 2.094 . S
O26 C4 1.240 . S
O27 Mn1 2.117 1_455 S
O27 C4 1.264 . S
C28 C21 1.403 . S
C28 C29 1.399 . S
C28 H34 0.929 . S
C29 C9 1.449 . S
C29 C28 1.399 . S
C29 H35 0.930 . S
H30 C10 0.931 . S
H31 C11 0.930 . S
H32 C19 0.931 . S
H33 C20 0.929 . S
H34 C28 0.929 . S
H35 C29 0.930 . S
Mn36 O41 2.095 . S
Mn36 O51 2.162 1_545 S
Mn36 O52 2.297 1_655 S
Mn36 O60 2.385 1_655 S
Mn36 O61 2.209 1_655 S
Mn36 O62 2.094 . S
Mn37 O42 2.121 . S
Mn37 N44 2.257 . S
Mn37 N53 2.282 . S
Mn37 O61 2.215 . S
Mn37 O63 2.117 1_455 S
C38 O60 1.234 . S
C38 O61 1.283 . S
C39 O51 1.281 1_455 S
C39 O52 1.236 1_565 S
C40 O62 1.240 . S
C40 O63 1.264 . S
O41 Mn36 2.095 . S
O41 C50 1.250 1_655 S
O42 Mn37 2.121 . S
O42 C50 1.258 . S
C43 N44 1.326 . S
C43 C47 1.460 . S
C43 H49 0.929 . S
N44 Mn37 2.257 . S
N44 C43 1.326 . S
N44 C48 1.362 . S
C45 C46 1.258 . S
C45 C48 1.431 . S
C45 C65 1.449 . S
C46 C45 1.258 . S
C46 C47 1.477 . S
C46 H66 0.931 . S
C47 C43 1.460 . S
C47 C46 1.477 . S
C47 H67 0.930 . S
C48 N44 1.362 . S
C48 C45 1.431 . S
C48 C58 1.476 . S
H49 C43 0.929 . S
C50 O41 1.250 1_455 S
C50 O42 1.258 . S
O51 Mn36 2.162 1_565 S
O51 C39 1.281 1_655 S
O52 Mn36 2.297 1_455 S
O52 C39 1.236 1_545 S
N53 Mn37 2.282 . S
N53 C54 1.328 . S
N53 C58 1.318 . S
C54 N53 1.328 . S
C54 C55 1.457 . S
C54 H59 0.929 . S
C55 C54 1.457 . S
C55 C56 1.291 . S
C55 H68 0.931 . S
C56 C55 1.291 . S
C56 C57 1.373 . S
C56 H69 0.929 . S
C57 C56 1.373 . S
C57 C58 1.396 . S
C57 C64 1.403 . S
C58 C48 1.476 . S
C58 N53 1.318 . S
C58 C57 1.396 . S
H59 C54 0.929 . S
O60 Mn36 2.385 1_455 S
O60 C38 1.234 . S
O61 Mn36 2.209 1_455 S
O61 Mn37 2.215 . S
O61 C38 1.283 . S
O62 Mn36 2.094 . S
O62 C40 1.240 . S
O63 Mn37 2.117 1_655 S
O63 C40 1.264 . S
C64 C57 1.403 . S
C64 C65 1.399 . S
C64 H70 0.929 . S
C65 C45 1.449 . S
C65 C64 1.399 . S
C65 H71 0.930 . S
H66 C46 0.931 . S
H67 C47 0.930 . S
H68 C55 0.931 . S
H69 C56 0.929 . S
H70 C64 0.929 . S
H71 C65 0.930 . S
Mn72 O77 2.095 1_455 S
Mn72 O87 2.178 . S
Mn72 O88 2.297 . S
Mn72 O96 2.385 . S
Mn72 O97 2.209 . S
Mn72 O98 2.094 1_445 S
Mn73 O78 2.121 . S
Mn73 N80 2.257 . S
Mn73 N89 2.284 . S
Mn73 O97 2.215 1_655 S
Mn73 O99 2.117 . S
C74 O96 1.234 . S
C74 O97 1.283 . S
C75 O87 1.296 . S
C75 O88 1.236 . S
C76 O98 1.240 . S
C76 O99 1.264 1_565 S
O77 Mn72 2.095 1_655 S
O77 C86 1.250 . S
O78 Mn73 2.121 . S
O78 C86 1.258 . S
C79 N80 1.326 . S
C79 C83 1.460 . S
C79 H85 0.929 . S
N80 Mn73 2.257 . S
N80 C79 1.326 . S
N80 C84 1.362 1_655 S
C81 C82 1.258 . S
C81 C84 1.431 . S
C81 C101 1.449 . S
C82 C81 1.258 . S
C82 C83 1.477 1_455 S
C82 H102 0.931 . S
C83 C79 1.460 . S
C83 C82 1.477 1_655 S
C83 H103 0.930 . S
C84 N80 1.362 1_455 S
C84 C81 1.431 . S
C84 C94 1.476 . S
H85 C79 0.929 . S
C86 O77 1.250 . S
C86 O78 1.258 . S
O87 Mn72 2.178 . S
O87 C75 1.296 . S
O88 Mn72 2.297 . S
O88 C75 1.236 . S
N89 Mn73 2.284 . S
N89 C90 1.324 1_655 S
N89 C94 1.319 1_655 S
C90 N89 1.324 1_455 S
C90 C91 1.457 . S
C90 H95 0.929 1_455 S
C91 C90 1.457 . S
C91 C92 1.291 . S
C91 H104 0.931 . S
C92 C91 1.291 . S
C92 C93 1.373 . S
C92 H105 0.929 . S
C93 C92 1.373 . S
C93 C94 1.396 . S
C93 C100 1.403 . S
C94 C84 1.476 . S
C94 N89 1.319 1_455 S
C94 C93 1.396 . S
H95 C90 0.929 1_655 S
O96 Mn72 2.385 . S
O96 C74 1.234 . S
O97 Mn72 2.209 . S
O97 Mn73 2.215 1_455 S
O97 C74 1.283 . S
O98 Mn72 2.094 1_665 S
O98 C76 1.240 . S
O99 Mn73 2.117 . S
O99 C76 1.264 1_545 S
C100 C93 1.403 . S
C100 C101 1.399 . S
C100 H106 0.929 . S
C101 C81 1.449 . S
C101 C100 1.399 . S
C101 H107 0.930 . S
H102 C82 0.931 . S
H103 C83 0.930 . S
H104 C91 0.931 . S
H105 C92 0.929 . S
H106 C100 0.929 . S
H107 C101 0.930 . S
H108 C127 0.949 . S
H109 C128 0.950 . S
H110 C130 0.950 . S
H111 C131 0.950 . S
H112 C133 0.950 . S
H113 C136 0.950 . S
H114 C137 0.950 . S
H115 C139 0.951 . S
H116 C140 0.949 . S
H117 C142 0.949 . S
H118 C143 0.950 . S
H119 C145 0.950 . S
H120 C146 0.950 . S
H121 C148 0.950 . S
H122 C151 0.950 . S
H123 C152 0.950 . S
H124 C154 0.951 . S
H125 C155 0.949 . S
C126 C127 1.376 . S
C126 C131 1.386 1_455 S
C126 C132 1.483 . S
C127 H108 0.949 . S
C127 C126 1.376 . S
C127 C128 1.397 . S
C128 H109 0.950 . S
C128 C127 1.397 . S
C128 C129 1.391 . S
C129 C128 1.391 . S
C129 C130 1.405 1_455 S
C130 H110 0.950 . S
C130 C129 1.405 1_655 S
C130 C131 1.367 . S
C131 H111 0.950 . S
C131 C126 1.386 1_655 S
C131 C130 1.367 . S
C132 C126 1.483 . S
C132 C133 1.382 . S
C132 C134 1.403 . S
C133 H112 0.950 . S
C133 C132 1.382 . S
C133 C149 1.411 . S
C134 C132 1.403 . S
C134 C135 1.489 . S
C134 C148 1.411 . S
C135 C134 1.489 . S
C135 C136 1.383 . S
C135 C140 1.382 1_455 S
C136 H113 0.950 . S
C136 C135 1.383 . S
C136 C137 1.395 . S
C137 H114 0.950 . S
C137 C136 1.395 . S
C137 C138 1.288 . S
C138 C137 1.288 . S
C138 C139 1.392 1_455 S
C139 H115 0.951 . S
C139 C138 1.392 1_655 S
C139 C140 1.392 . S
C140 H116 0.949 . S
C140 C135 1.382 1_655 S
C140 C139 1.392 . S
C141 C142 1.376 1_455 S
C141 C146 1.386 . S
C141 C147 1.483 . S
C142 H117 0.949 . S
C142 C141 1.376 1_655 S
C142 C143 1.397 . S
C143 H118 0.950 . S
C143 C142 1.397 . S
C143 C144 1.391 1_655 S
C144 C143 1.391 1_455 S
C144 C145 1.405 . S
C145 H119 0.950 . S
C145 C144 1.405 . S
C145 C146 1.367 . S
C146 H120 0.950 . S
C146 C141 1.386 . S
C146 C145 1.367 . S
C147 C141 1.483 . S
C147 C148 1.382 . S
C147 C149 1.403 . S
C148 H121 0.950 . S
C148 C134 1.411 . S
C148 C147 1.382 . S
C149 C133 1.411 . S
C149 C147 1.403 . S
C149 C150 1.489 . S
C150 C149 1.489 . S
C150 C151 1.383 1_455 S
C150 C155 1.382 . S
C151 H122 0.950 . S
C151 C150 1.383 1_655 S
C151 C152 1.395 . S
C152 H123 0.950 . S
C152 C151 1.395 . S
C152 C153 1.288 1_655 S
C153 C152 1.288 1_455 S
C153 C154 1.392 . S
C154 H124 0.951 . S
C154 C153 1.392 . S
C154 C155 1.392 . S
C155 H125 0.949 . S
C155 C150 1.382 . S
C155 C154 1.392 . S
H156 C175 0.949 . S
H157 C176 0.950 . S
H158 C178 0.950 1_565 S
H159 C179 0.950 . S
H160 C181 0.950 . S
H161 C184 0.950 . S
H162 C185 0.950 . S
H163 C187 0.951 . S
H164 C188 0.953 . S
H165 C190 0.949 1_565 S
H166 C191 0.950 1_565 S
H167 C193 0.950 . S
H168 C194 0.950 . S
H169 C196 0.950 . S
H170 C199 0.950 . S
H171 C200 0.950 . S
H172 C202 0.951 . S
H173 C203 0.949 . S
C174 C175 1.376 . S
C174 C179 1.386 . S
C174 C180 1.483 . S
C175 H156 0.949 . S
C175 C174 1.376 . S
C175 C176 1.397 . S
C176 H157 0.950 . S
C176 C175 1.397 . S
C176 C177 1.391 . S
C177 C176 1.391 . S
C177 C178 1.405 . S
C178 H158 0.950 1_545 S
C178 C177 1.405 . S
C178 C179 1.367 . S
C179 H159 0.950 . S
C179 C174 1.386 . S
C179 C178 1.367 . S
C180 C174 1.483 . S
C180 C181 1.382 . S
C180 C182 1.403 . S
C181 H160 0.950 . S
C181 C180 1.382 . S
C181 C197 1.411 . S
C182 C180 1.403 . S
C182 C183 1.489 . S
C182 C196 1.411 . S
C183 C182 1.489 . S
C183 C184 1.383 . S
C183 C188 1.382 . S
C184 H161 0.950 . S
C184 C183 1.383 . S
C184 C185 1.395 . S
C185 H162 0.950 . S
C185 C184 1.395 . S
C185 C186 1.288 . S
C186 C185 1.288 . S
C186 C187 1.392 . S
C187 H163 0.951 . S
C187 C186 1.392 . S
C187 C188 1.392 . S
C188 H164 0.953 . S
C188 C183 1.382 . S
C188 C187 1.392 . S
C189 C190 1.376 . S
C189 C194 1.386 . S
C189 C195 1.483 . S
C190 H165 0.949 1_545 S
C190 C189 1.376 . S
C190 C191 1.397 . S
C191 H166 0.950 1_545 S
C191 C190 1.397 . S
C191 C192 1.391 . S
C192 C191 1.391 . S
C192 C193 1.405 . S
C193 H167 0.950 . S
C193 C192 1.405 . S
C193 C194 1.367 . S
C194 H168 0.950 . S
C194 C189 1.386 . S
C194 C193 1.367 . S
C195 C189 1.483 . S
C195 C196 1.382 . S
C195 C197 1.403 . S
C196 H169 0.950 . S
C196 C182 1.411 . S
C196 C195 1.382 . S
C197 C181 1.411 . S
C197 C195 1.403 . S
C197 C198 1.489 . S
C198 C197 1.489 . S
C198 C199 1.383 . S
C198 C203 1.382 . S
C199 H170 0.950 . S
C199 C198 1.383 . S
C199 C200 1.395 . S
C200 H171 0.950 . S
C200 C199 1.395 . S
C200 C201 1.288 . S
C201 C200 1.288 . S
C201 C202 1.392 . S
C202 H172 0.951 . S
C202 C201 1.392 . S
C202 C203 1.392 . S
C203 H173 0.949 . S
C203 C198 1.382 . S
C203 C202 1.392 . S
H204 C223 0.949 . S
H205 C224 0.950 . S
H206 C226 0.950 . S
H207 C227 0.950 . S
H208 C229 0.950 . S
H209 C232 0.950 . S
H210 C233 0.950 . S
H211 C235 0.951 . S
H212 C236 0.949 . S
H213 C238 0.949 . S
H214 C239 0.950 . S
H215 C241 0.950 . S
H216 C242 0.950 . S
H217 C244 0.950 . S
H218 C247 0.950 . S
H219 C248 0.950 . S
H220 C250 0.951 . S
H221 C251 0.949 . S
C222 C223 1.376 . S
C222 C227 1.386 . S
C222 C228 1.483 . S
C223 H204 0.949 . S
C223 C222 1.376 . S
C223 C224 1.397 . S
C224 H205 0.950 . S
C224 C223 1.397 . S
C224 C225 1.391 . S
C225 C224 1.391 . S
C225 C226 1.405 . S
C226 H206 0.950 . S
C226 C225 1.405 . S
C226 C227 1.367 . S
C227 H207 0.950 . S
C227 C222 1.386 . S
C227 C226 1.367 . S
C228 C222 1.483 . S
C228 C229 1.382 . S
C228 C230 1.403 . S
C229 H208 0.950 . S
C229 C228 1.382 . S
C229 C245 1.411 . S
C230 C228 1.403 . S
C230 C231 1.489 . S
C230 C244 1.411 . S
C231 C230 1.489 . S
C231 C232 1.383 . S
C231 C236 1.382 . S
C232 H209 0.950 . S
C232 C231 1.383 . S
C232 C233 1.395 . S
C233 H210 0.950 . S
C233 C232 1.395 . S
C233 C234 1.288 . S
C234 C233 1.288 . S
C234 C235 1.392 . S
C235 H211 0.951 . S
C235 C234 1.392 . S
C235 C236 1.392 . S
C236 H212 0.949 . S
C236 C231 1.382 . S
C236 C235 1.392 . S
C237 C238 1.376 . S
C237 C242 1.386 . S
C237 C243 1.483 . S
C238 H213 0.949 . S
C238 C237 1.376 . S
C238 C239 1.397 . S
C239 H214 0.950 . S
C239 C238 1.397 . S
C239 C240 1.391 . S
C240 C239 1.391 . S
C240 C241 1.405 . S
C241 H215 0.950 . S
C241 C240 1.405 . S
C241 C242 1.367 . S
C242 H216 0.950 . S
C242 C237 1.386 . S
C242 C241 1.367 . S
C243 C237 1.483 . S
C243 C244 1.382 . S
C243 C245 1.403 . S
C244 H217 0.950 . S
C244 C230 1.411 . S
C244 C243 1.382 . S
C245 C229 1.411 . S
C245 C243 1.403 . S
C245 C246 1.489 . S
C246 C245 1.489 . S
C246 C247 1.383 . S
C246 C251 1.382 . S
C247 H218 0.950 . S
C247 C246 1.383 . S
C247 C248 1.395 . S
C248 H219 0.950 . S
C248 C247 1.395 . S
C248 C249 1.288 . S
C249 C248 1.288 . S
C249 C250 1.392 . S
C250 H220 0.951 . S
C250 C249 1.392 . S
C250 C251 1.392 . S
C251 H221 0.949 . S
C251 C246 1.382 . S
C251 C250 1.392 . S
H252 C258 0.930 1_655 S
H253 C261 0.930 . S
H254 C262 0.930 . S
H255 C263 0.930 . S
H256 C266 0.930 1_655 S
H257 C267 0.930 1_655 S
C258 H252 0.930 1_455 S
C258 C259 1.355 . S
C258 C260 1.415 . S
C259 C258 1.355 . S
C259 C261 1.419 . S
C260 C258 1.415 . S
C260 C265 1.425 . S
C260 C267 1.409 . S
C261 H253 0.930 . S
C261 C259 1.419 . S
C261 C262 1.362 . S
C262 H254 0.930 . S
C262 C261 1.362 . S
C262 C265 1.409 . S
C263 H255 0.930 . S
C263 C264 1.355 . S
C263 C265 1.415 . S
C264 C263 1.355 . S
C264 C266 1.419 . S
C265 C260 1.425 . S
C265 C262 1.409 . S
C265 C263 1.415 . S
C266 H256 0.930 1_455 S
C266 C264 1.419 . S
C266 C267 1.362 . S
C267 H257 0.930 1_455 S
C267 C260 1.409 . S
C267 C266 1.362 . S
H268 C274 0.930 . S
H269 C277 0.930 . S
H270 C278 0.930 . S
H271 C279 0.930 . S
H272 C282 0.930 . S
H273 C283 0.930 1_565 S
C274 H268 0.930 . S
C274 C275 1.355 . S
C274 C276 1.415 . S
C275 C274 1.355 . S
C275 C277 1.419 . S
C276 C274 1.415 . S
C276 C281 1.425 . S
C276 C283 1.409 . S
C277 H269 0.930 . S
C277 C275 1.419 . S
C277 C278 1.362 . S
C278 H270 0.930 . S
C278 C277 1.362 . S
C278 C281 1.409 . S
C279 H271 0.930 . S
C279 C280 1.355 . S
C279 C281 1.415 . S
C280 C279 1.355 . S
C280 C282 1.419 . S
C281 C276 1.425 . S
C281 C278 1.409 . S
C281 C279 1.415 . S
C282 H272 0.930 . S
C282 C280 1.419 . S
C282 C283 1.362 . S
C283 H273 0.930 1_545 S
C283 C276 1.409 . S
C283 C282 1.362 . S
H284 C290 0.930 . S
H285 C293 0.930 . S
H286 C294 0.930 . S
H287 C295 0.930 . S
H288 C298 0.930 . S
H289 C299 0.930 . S
C290 H284 0.930 . S
C290 C291 1.355 . S
C290 C292 1.415 . S
C291 C290 1.355 . S
C291 C293 1.419 . S
C292 C290 1.415 . S
C292 C297 1.425 . S
C292 C299 1.409 . S
C293 H285 0.930 . S
C293 C291 1.419 . S
C293 C294 1.362 . S
C294 H286 0.930 . S
C294 C293 1.362 . S
C294 C297 1.409 . S
C295 H287 0.930 . S
C295 C296 1.355 . S
C295 C297 1.415 . S
C296 C295 1.355 . S
C296 C298 1.419 . S
C297 C292 1.425 . S
C297 C294 1.409 . S
C297 C295 1.415 . S
C298 H288 0.930 . S
C298 C296 1.419 . S
C298 C299 1.362 . S
C299 H289 0.930 . S
C299 C292 1.409 . S
C299 C298 1.362 . S
H300 C306 0.930 . S
H301 C309 0.930 . S
H302 C310 0.930 . S
H303 C311 0.930 . S
H304 C314 0.930 1_655 S
H305 C315 0.930 1_655 S
C306 H300 0.930 . S
C306 C307 1.355 . S
C306 C308 1.415 . S
C307 C306 1.355 . S
C307 C309 1.419 . S
C308 C306 1.415 . S
C308 C313 1.425 . S
C308 C315 1.409 . S
C309 H301 0.930 . S
C309 C307 1.419 . S
C309 C310 1.362 . S
C310 H302 0.930 . S
C310 C309 1.362 . S
C310 C313 1.409 . S
C311 H303 0.930 . S
C311 C312 1.355 . S
C311 C313 1.415 . S
C312 C311 1.355 . S
C312 C314 1.419 . S
C313 C308 1.425 . S
C313 C310 1.409 . S
C313 C311 1.415 . S
C314 H304 0.930 1_455 S
C314 C312 1.419 . S
C314 C315 1.362 . S
C315 H305 0.930 1_455 S
C315 C308 1.409 . S
C315 C314 1.362 . S
H316 C322 0.930 . S
H317 C325 0.930 1_565 S
H318 C326 0.930 1_565 S
H319 C327 0.930 . S
H320 C330 0.930 . S
H321 C331 0.930 . S
C322 H316 0.930 . S
C322 C323 1.355 . S
C322 C324 1.415 . S
C323 C322 1.355 . S
C323 C325 1.419 . S
C324 C322 1.415 . S
C324 C329 1.425 . S
C324 C331 1.409 . S
C325 H317 0.930 1_545 S
C325 C323 1.419 . S
C325 C326 1.362 . S
C326 H318 0.930 1_545 S
C326 C325 1.362 . S
C326 C329 1.409 . S
C327 H319 0.930 . S
C327 C328 1.355 . S
C327 C329 1.415 . S
C328 C327 1.355 . S
C328 C330 1.419 . S
C329 C324 1.425 . S
C329 C326 1.409 . S
C329 C327 1.415 . S
C330 H320 0.930 . S
C330 C328 1.419 . S
C330 C331 1.362 . S
C331 H321 0.930 . S
C331 C324 1.409 . S
C331 C330 1.362 . S
H332 C338 0.930 . S
H333 C341 0.930 . S
H334 C342 0.930 . S
H335 C343 0.930 . S
H336 C346 0.930 . S
H337 C347 0.930 . S
C338 H332 0.930 . S
C338 C339 1.355 . S
C338 C340 1.415 . S
C339 C338 1.355 . S
C339 C341 1.419 . S
C340 C338 1.415 . S
C340 C345 1.425 . S
C340 C347 1.409 . S
C341 H333 0.930 . S
C341 C339 1.419 . S
C341 C342 1.362 . S
C342 H334 0.930 . S
C342 C341 1.362 . S
C342 C345 1.409 . S
C343 H335 0.930 . S
C343 C344 1.355 . S
C343 C345 1.415 . S
C344 C343 1.355 . S
C344 C346 1.419 . S
C345 C340 1.425 . S
C345 C342 1.409 . S
C345 C343 1.415 . S
C346 H336 0.930 . S
C346 C344 1.419 . S
C346 C347 1.362 . S
C347 H337 0.930 . S
C347 C340 1.409 . S
C347 C346 1.362 . S
H348 C354 0.930 . S
H349 C357 0.930 . S
H350 C358 0.930 . S
H351 C359 0.930 . S
H352 C362 0.930 . S
H353 C363 0.930 . S
C354 H348 0.930 . S
C354 C355 1.355 . S
C354 C356 1.415 . S
C355 C354 1.355 . S
C355 C357 1.419 . S
C356 C354 1.415 . S
C356 C361 1.425 . S
C356 C363 1.409 . S
C357 H349 0.930 . S
C357 C355 1.419 . S
C357 C358 1.362 . S
C358 H350 0.930 . S
C358 C357 1.362 . S
C358 C361 1.409 . S
C359 H351 0.930 . S
C359 C360 1.355 . S
C359 C361 1.415 . S
C360 C359 1.355 . S
C360 C362 1.419 . S
C361 C356 1.425 . S
C361 C358 1.409 . S
C361 C359 1.415 . S
C362 H352 0.930 . S
C362 C360 1.419 . S
C362 C363 1.362 . S
C363 H353 0.930 . S
C363 C356 1.409 . S
C363 C362 1.362 . S
H364 C370 0.930 . S
H365 C373 0.930 1_554 S
H366 C374 0.930 . S
H367 C375 0.930 . S
H368 C378 0.930 . S
H369 C379 0.930 . S
C370 H364 0.930 . S
C370 C371 1.355 . S
C370 C372 1.415 . S
C371 C370 1.355 . S
C371 C373 1.419 . S
C372 C370 1.415 . S
C372 C377 1.425 . S
C372 C379 1.409 . S
C373 H365 0.930 1_556 S
C373 C371 1.419 . S
C373 C374 1.362 . S
C374 H366 0.930 . S
C374 C373 1.362 . S
C374 C377 1.409 . S
C375 H367 0.930 . S
C375 C376 1.355 . S
C375 C377 1.415 . S
C376 C375 1.355 . S
C376 C378 1.419 . S
C377 C372 1.425 . S
C377 C374 1.409 . S
C377 C375 1.415 . S
C378 H368 0.930 . S
C378 C376 1.419 . S
C378 C379 1.362 . S
C379 H369 0.930 . S
C379 C372 1.409 . S
C379 C378 1.362 . S
H380 C386 0.930 . S
H381 C389 0.930 . S
H382 C390 0.930 . S
H383 C391 0.930 . S
H384 C394 0.930 . S
H385 C395 0.930 . S
C386 H380 0.930 . S
C386 C387 1.355 1_655 S
C386 C388 1.415 . S
C387 C386 1.355 1_455 S
C387 C389 1.419 . S
C388 C386 1.415 . S
C388 C393 1.425 1_655 S
C388 C395 1.409 . S
C389 H381 0.930 . S
C389 C387 1.419 . S
C389 C390 1.362 . S
C390 H382 0.930 . S
C390 C389 1.362 . S
C390 C393 1.409 . S
C391 H383 0.930 . S
C391 C392 1.355 . S
C391 C393 1.415 . S
C392 C391 1.355 . S
C392 C394 1.419 1_455 S
C393 C388 1.425 1_455 S
C393 C390 1.409 . S
C393 C391 1.415 . S
C394 H384 0.930 . S
C394 C392 1.419 1_655 S
C394 C395 1.362 . S
C395 H385 0.930 . S
C395 C388 1.409 . S
C395 C394 1.362 . S
H396 C402 0.930 . S
H397 C405 0.930 . S
H398 C406 0.930 . S
H399 C407 0.930 . S
H400 C410 0.930 . S
H401 C411 0.930 1_565 S
C402 H396 0.930 . S
C402 C403 1.355 . S
C402 C404 1.415 . S
C403 C402 1.355 . S
C403 C405 1.419 . S
C404 C402 1.415 . S
C404 C409 1.425 . S
C404 C411 1.409 . S
C405 H397 0.930 . S
C405 C403 1.419 . S
C405 C406 1.362 . S
C406 H398 0.930 . S
C406 C405 1.362 . S
C406 C409 1.409 . S
C407 H399 0.930 . S
C407 C408 1.355 . S
C407 C409 1.415 . S
C408 C407 1.355 . S
C408 C410 1.419 . S
C409 C404 1.425 . S
C409 C406 1.409 . S
C409 C407 1.415 . S
C410 H400 0.930 . S
C410 C408 1.419 . S
C410 C411 1.362 . S
C411 H401 0.930 1_545 S
C411 C404 1.409 . S
C411 C410 1.362 . S
H412 C418 0.930 1_554 S
H413 C421 0.930 . S
H414 C422 0.930 . S
H415 C423 0.930 . S
H416 C426 0.930 . S
H417 C427 0.930 . S
C418 H412 0.930 1_556 S
C418 C419 1.355 . S
C418 C420 1.415 . S
C419 C418 1.355 . S
C419 C421 1.419 . S
C420 C418 1.415 . S
C420 C425 1.425 . S
C420 C427 1.409 . S
C421 H413 0.930 . S
C421 C419 1.419 . S
C421 C422 1.362 . S
C422 H414 0.930 . S
C422 C421 1.362 . S
C422 C425 1.409 . S
C423 H415 0.930 . S
C423 C424 1.355 . S
C423 C425 1.415 . S
C424 C423 1.355 . S
C424 C426 1.419 . S
C425 C420 1.425 . S
C425 C422 1.409 . S
C425 C423 1.415 . S
C426 H416 0.930 . S
C426 C424 1.419 . S
C426 C427 1.362 . S
C427 H417 0.930 . S
C427 C420 1.409 . S
C427 C426 1.362 . S
H428 C434 0.930 . S
H429 C437 0.930 . S
H430 C438 0.930 . S
H431 C439 0.930 . S
H432 C442 0.930 . S
H433 C443 0.930 . S
C434 H428 0.930 . S
C434 C435 1.355 1_655 S
C434 C436 1.415 . S
C435 C434 1.355 1_455 S
C435 C437 1.419 . S
C436 C434 1.415 . S
C436 C441 1.425 1_655 S
C436 C443 1.409 . S
C437 H429 0.930 . S
C437 C435 1.419 . S
C437 C438 1.362 . S
C438 H430 0.930 . S
C438 C437 1.362 . S
C438 C441 1.409 . S
C439 H431 0.930 . S
C439 C440 1.355 . S
C439 C441 1.415 . S
C440 C439 1.355 . S
C440 C442 1.419 1_455 S
C441 C436 1.425 1_455 S
C441 C438 1.409 . S
C441 C439 1.415 . S
C442 H432 0.930 . S
C442 C440 1.419 1_655 S
C442 C443 1.362 . S
C443 H433 0.930 . S
C443 C436 1.409 . S
C443 C442 1.362 . S
C264 C129 1.491 . S
C259 C14 1.407 . S
C275 C40 1.480 . S
C280 C177 1.517 . S
C291 C76 1.482 . S
C296 C249 1.486 . S
C307 C3 1.483 . S
C312 C153 1.484 . S
C328 C201 1.509 . S
C323 C38 1.491 . S
C339 C74 1.488 . S
C344 C225 1.486 . S
C360 C186 1.465 . S
C355 C86 1.448 . S
C371 C2 1.460 1_556 S
C376 C240 1.488 . S
C392 C144 1.472 . S
C387 C39 1.477 . S
C408 C192 1.469 . S
C403 C75 1.477 . S
C424 C234 1.498 . S
C419 C4 1.466 1_556 S
C435 C50 1.435 . S
C440 C138 1.480 . S
