# Generated by pormake.
# Topology zzz, (3,6)-cn, num edge types: 1
# Building blocks:
#     Node 0, Type 0, BuildingBlock: ESEHIV_clean_linker_0, # of connection points: 3
#     Node 1, Type 0, BuildingBlock: ESEHIV_clean_linker_0, # of connection points: 3
#     Node 2, Type 0, BuildingBlock: ESEHIV_clean_linker_0, # of connection points: 3
#     Node 3, Type 0, BuildingBlock: ESEHIV_clean_linker_0, # of connection points: 3
#     Node 4, Type 0, BuildingBlock: ESEHIV_clean_linker_0, # of connection points: 3
#     Node 5, Type 0, BuildingBlock: ESEHIV_clean_linker_0, # of connection points: 3
#     Node 6, Type 0, BuildingBlock: ESEHIV_clean_linker_0, # of connection points: 3
#     Node 7, Type 0, BuildingBlock: ESEHIV_clean_linker_0, # of connection points: 3
#     Node 8, Type 1, BuildingBlock: CIFDUS_clean_sbu_1, # of connection points: 6
#     Node 9, Type 1, BuildingBlock: CIFDUS_clean_sbu_1, # of connection points: 6
#     Node 10, Type 1, BuildingBlock: CIFDUS_clean_sbu_1, # of connection points: 6
#     Node 11, Type 1, BuildingBlock: CIFDUS_clean_sbu_1, # of connection points: 6
#     Edge 12, Type (0, 1), BuildingBlock: ZUJKAS_clean_linker_0, # of connection points: 2
#     Edge 13, Type (0, 1), BuildingBlock: ZUJKAS_clean_linker_0, # of connection points: 2
#     Edge 14, Type (0, 1), BuildingBlock: ZUJKAS_clean_linker_0, # of connection points: 2
#     Edge 15, Type (0, 1), BuildingBlock: ZUJKAS_clean_linker_0, # of connection points: 2
#     Edge 16, Type (0, 1), BuildingBlock: ZUJKAS_clean_linker_0, # of connection points: 2
#     Edge 17, Type (0, 1), BuildingBlock: ZUJKAS_clean_linker_0, # of connection points: 2
#     Edge 18, Type (0, 1), BuildingBlock: ZUJKAS_clean_linker_0, # of connection points: 2
#     Edge 19, Type (0, 1), BuildingBlock: ZUJKAS_clean_linker_0, # of connection points: 2
#     Edge 20, Type (0, 1), BuildingBlock: ZUJKAS_clean_linker_0, # of connection points: 2
#     Edge 21, Type (0, 1), BuildingBlock: ZUJKAS_clean_linker_0, # of connection points: 2
#     Edge 22, Type (0, 1), BuildingBlock: ZUJKAS_clean_linker_0, # of connection points: 2
#     Edge 23, Type (0, 1), BuildingBlock: ZUJKAS_clean_linker_0, # of connection points: 2
#     Edge 24, Type (0, 1), BuildingBlock: ZUJKAS_clean_linker_0, # of connection points: 2
#     Edge 25, Type (0, 1), BuildingBlock: ZUJKAS_clean_linker_0, # of connection points: 2
#     Edge 26, Type (0, 1), BuildingBlock: ZUJKAS_clean_linker_0, # of connection points: 2
#     Edge 27, Type (0, 1), BuildingBlock: ZUJKAS_clean_linker_0, # of connection points: 2
#     Edge 28, Type (0, 1), BuildingBlock: ZUJKAS_clean_linker_0, # of connection points: 2
#     Edge 29, Type (0, 1), BuildingBlock: ZUJKAS_clean_linker_0, # of connection points: 2
#     Edge 30, Type (0, 1), BuildingBlock: ZUJKAS_clean_linker_0, # of connection points: 2
#     Edge 31, Type (0, 1), BuildingBlock: ZUJKAS_clean_linker_0, # of connection points: 2
#     Edge 32, Type (0, 1), BuildingBlock: ZUJKAS_clean_linker_0, # of connection points: 2
#     Edge 33, Type (0, 1), BuildingBlock: ZUJKAS_clean_linker_0, # of connection points: 2
#     Edge 34, Type (0, 1), BuildingBlock: ZUJKAS_clean_linker_0, # of connection points: 2
#     Edge 35, Type (0, 1), BuildingBlock: ZUJKAS_clean_linker_0, # of connection points: 2
# Relax obj value: 0.308
# Max RMSD: 0.221
# Mean RMSD: 0.206
data_MOF--net-zzz--node1-CIFDUS_clean_sbu_1--node2-ESEHIV_clean_linker_0--edge1-ZUJKAS_clean_linker_0
_symmetry_space_group_name_H-M    P1
_symmetry_Int_Tables_number       1
_symmetry_cell_setting            triclinic
loop_
_symmetry_equiv_pos_as_xyz
'x, y, z'
_cell_length_a     55.478265
_cell_length_b     58.812632
_cell_length_c     21.365873
_cell_angle_alpha  89.79542
_cell_angle_beta   90.029142
_cell_angle_gamma 88.598188
loop_
_atom_site_label
_atom_site_type_symbol
_atom_site_fract_x
_atom_site_fract_y
_atom_site_fract_z
_atom_type_partial_charge
H0 H 0.80965 0.61088 0.18527 0.0
H1 H 0.75244 0.6176 0.04987 0.0
H2 H 0.74296 0.57809 0.21774 0.0
C3 C 0.79126 0.60839 0.17049 0.0
C4 C 0.77684 0.59536 0.20969 0.0
C5 C 0.78339 0.61556 0.11089 0.0
C6 C 0.7593 0.61151 0.09434 0.0
C7 C 0.74455 0.59768 0.13138 0.0
C8 C 0.75368 0.58926 0.18919 0.0
H9 H 0.9999 0.80215 0.17188 0.0
H10 H 0.99376 0.74217 0.06129 0.0
H11 H 0.99367 0.737 0.26331 0.0
C12 C 0.99867 0.78376 0.16964 0.0
C13 C 0.99747 0.77107 0.22499 0.0
C14 C 0.99714 0.77335 0.11134 0.0
C15 C 0.99512 0.74996 0.10712 0.0
C16 C 0.9941 0.73658 0.16138 0.0
C17 C 0.99493 0.74714 0.22108 0.0
H18 H 0.70023 0.89454 0.16159 0.0
H19 H 0.765 0.89494 0.0529 0.0
H20 H 0.76322 0.92637 0.23479 0.0
C21 C 0.71937 0.89772 0.15842 0.0
C22 C 0.73049 0.9094 0.20733 0.0
C23 C 0.73144 0.89318 0.10207 0.0
C24 C 0.75582 0.89817 0.09697 0.0
C25 C 0.76754 0.91014 0.14419 0.0
C26 C 0.75465 0.91628 0.1992 0.0
H27 H 0.51166 0.70728 0.17832 0.0
H28 H 0.49718 0.77193 0.26753 0.0
H29 H 0.50106 0.76686 0.06589 0.0
C30 C 0.50839 0.72553 0.17545 0.0
C31 C 0.50709 0.7359 0.11669 0.0
C32 C 0.5048 0.73807 0.23043 0.0
C33 C 0.49977 0.76184 0.22567 0.0
C34 C 0.49838 0.77232 0.16562 0.0
C35 C 0.50188 0.75903 0.11197 0.0
H36 H 0.19989 0.38897 0.25754 0.0
H37 H 0.26265 0.39044 0.37278 0.0
H38 H 0.26177 0.42546 0.19605 0.0
C39 C 0.21896 0.39238 0.26218 0.0
C40 C 0.22995 0.40604 0.21702 0.0
C41 C 0.22998 0.38861 0.32021 0.0
C42 C 0.2544 0.39312 0.32714 0.0
C43 C 0.2662 0.40648 0.28283 0.0
C44 C 0.25375 0.41338 0.22773 0.0
H45 H 0.98789 0.20591 0.26417 0.0
H46 H 0.99318 0.26617 0.3742 0.0
H47 H 0.02347 0.26417 0.18818 0.0
C48 C 0.99276 0.22362 0.26773 0.0
C49 C 0.00531 0.23367 0.2183 0.0
C50 C 0.98878 0.23512 0.32408 0.0
C51 C 0.99581 0.25754 0.32977 0.0
C52 C 0.00817 0.26829 0.28125 0.0
C53 C 0.01297 0.25638 0.22481 0.0
H54 H 0.30632 0.11936 0.27207 0.0
H55 H 0.24151 0.11564 0.37788 0.0
H56 H 0.2476 0.07941 0.20402 0.0
C57 C 0.28783 0.11391 0.27515 0.0
C58 C 0.27884 0.09906 0.22978 0.0
C59 C 0.27538 0.1178 0.33101 0.0
C60 C 0.25106 0.11257 0.33424 0.0
C61 C 0.24057 0.09906 0.28824 0.0
C62 C 0.25477 0.09162 0.23649 0.0
H63 H 0.52977 0.29654 0.24252 0.0
H64 H 0.48931 0.23848 0.18726 0.0
H65 H 0.52668 0.23863 0.36431 0.0
C66 C 0.5247 0.27907 0.25068 0.0
C67 C 0.53019 0.26864 0.30811 0.0
C68 C 0.51016 0.26845 0.20656 0.0
C69 C 0.50149 0.24648 0.21958 0.0
C70 C 0.50805 0.23545 0.27636 0.0
C71 C 0.5227 0.24655 0.31937 0.0
O72 O 0.01046 0.03313 0.77338 0.0
Mn73 Mn 0.0071 0.00315 0.72071 0.0
O74 O 0.97523 0.05212 0.75636 0.0
Mn75 Mn 0.95959 0.02928 0.71269 0.0
O76 O 1.0023 0.9734 0.66628 0.0
O77 O 0.04443 0.00397 0.6996 0.0
Mn78 Mn 0.0505 0.97547 0.72737 0.0
O79 O 0.01018 0.98454 0.80301 0.0
O80 O 0.03729 0.95419 0.67501 0.0
O81 O 1.00283 0.02248 0.6391 0.0
O82 O 0.96353 0.02885 0.62741 0.0
O83 O 0.07949 0.98405 0.70556 0.0
O84 O 0.04738 0.97123 0.81179 0.0
C85 C 0.94885 0.00011 0.76232 0.0
C86 C 0.99631 0.05069 0.78058 0.0
C87 C 0.0162 0.9563 0.65235 0.0
C88 C 0.06803 0.00257 0.68896 0.0
C89 C 0.02677 0.97461 0.83488 0.0
C90 C 0.98479 0.0294 0.60605 0.0
O91 O 0.97089 0.00308 0.74253 0.0
O92 O 0.93341 0.01606 0.7474 0.0
O93 O 0.5277 0.99566 0.79146 0.0
Mn94 Mn 0.50492 0.00459 0.71782 0.0
O95 O 0.55365 0.02367 0.8067 0.0
Mn96 Mn 0.5492 0.03527 0.72707 0.0
O97 O 0.4825 0.01396 0.64413 0.0
O98 O 0.49134 0.97281 0.72496 0.0
Mn99 Mn 0.46103 0.97464 0.69992 0.0
O100 O 0.47787 0.01618 0.78053 0.0
O101 O 0.45985 0.98479 0.61815 0.0
O102 O 0.53171 0.99278 0.65395 0.0
O103 O 0.56216 0.01736 0.66309 0.0
O104 O 0.46642 0.94473 0.72189 0.0
O105 O 0.44612 0.99431 0.75733 0.0
C106 C 0.52048 0.05785 0.69871 0.0
C107 C 0.54496 0.00463 0.82195 0.0
C108 C 0.46724 0.0047 0.60795 0.0
C109 C 0.48726 0.95175 0.73972 0.0
C110 C 0.45562 0.01058 0.78776 0.0
C111 C 0.5527 -0.0 0.6379 0.0
O112 O 0.51804 0.03642 0.71147 0.0
O113 O 0.54172 0.06536 0.71058 0.0
O114 O 0.499 0.52306 0.7936 0.0
Mn115 Mn 0.50192 0.50195 0.71579 0.0
O116 O 0.46043 0.52565 0.81477 0.0
Mn117 Mn 0.45542 0.52561 0.73024 0.0
O118 O 0.50516 0.48115 0.63779 0.0
O119 O 0.53859 0.50414 0.73217 0.0
Mn120 Mn 0.54973 0.47733 0.70575 0.0
O121 O 0.50084 0.4728 0.77388 0.0
O122 O 0.54405 0.47414 0.62156 0.0
O123 O 0.50301 0.53122 0.65833 0.0
O124 O 0.46835 0.54927 0.68401 0.0
O125 O 0.57658 0.49162 0.73067 0.0
O126 O 0.53677 0.45526 0.75767 0.0
C127 C 0.44178 0.49758 0.68596 0.0
C128 C 0.48187 0.52947 0.82971 0.0
C129 C 0.52234 0.4733 0.60386 0.0
C130 C 0.56128 0.50764 0.74593 0.0
C131 C 0.51599 0.45612 0.78344 0.0
C132 C 0.48836 0.54857 0.65451 0.0
O133 O 0.46505 0.49924 0.69744 0.0
O134 O 0.42765 0.51409 0.70462 0.0
O135 O 0.02301 0.48542 0.786 0.0
Mn136 Mn 1.00057 0.5013 0.71805 0.0
O137 O 0.05624 0.50641 0.78347 0.0
Mn138 Mn 0.04363 0.52846 0.72943 0.0
O139 O 0.97787 0.51707 0.6496 0.0
O140 O 0.98906 0.46989 0.69316 0.0
Mn141 Mn 0.9573 0.47126 0.69147 0.0
O142 O 0.97342 0.50607 0.7842 0.0
O143 O 0.94911 0.49171 0.62848 0.0
O144 O 0.02705 0.49491 0.6513 0.0
O145 O 0.05015 0.52452 0.64602 0.0
O146 O 0.96516 0.44191 0.67102 0.0
O147 O 0.94612 0.47905 0.76977 0.0
C148 C 0.0202 0.55364 0.76172 0.0
C149 C 0.04473 0.4894 0.80349 0.0
C150 C 0.9591 0.5107 0.61897 0.0
C151 C 0.98707 0.44892 0.6746 0.0
C152 C 0.95401 0.49601 0.79952 0.0
C153 C 0.04382 0.50569 0.62466 0.0
O154 O 0.01225 0.5335 0.74515 0.0
O155 O 0.0431 0.55708 0.75583 0.0
H156 H 0.2325 0.05653 0.33134 0.0
H157 H 0.19834 0.04541 0.39666 0.0
H158 H 0.16254 0.10977 0.35804 0.0
H159 H 0.19685 0.121 0.2933 0.0
H160 H 0.18446 0.07563 0.50583 0.0
H161 H 0.10854 0.05972 0.34238 0.0
H162 H 0.13966 0.05688 0.31797 0.0
H163 H 0.12637 0.08457 0.3304 0.0
C164 C 0.21677 0.06777 0.33402 0.0
C165 C 0.217 0.08932 0.30541 0.0
C166 C 0.19742 0.06158 0.37225 0.0
C167 C 0.17777 0.0767 0.3821 0.0
C168 C 0.17727 0.09767 0.35045 0.0
H169 H 0.05449 0.04495 0.63657 0.0
H170 H 0.07905 0.06791 0.56378 0.0
C171 C 0.19675 0.10397 0.31277 0.0
C172 C 0.15925 0.07147 0.43042 0.0
H173 H 0.1011 0.05463 0.45006 0.0
C174 C 0.16618 0.07124 0.49361 0.0
C175 C 0.1352 0.06634 0.41486 0.0
C176 C 0.12682 0.06676 0.34777 0.0
C177 C 0.15004 0.06517 0.54126 0.0
C178 C 0.12643 0.05838 0.52545 0.0
C179 C 0.1191 0.0598 0.46249 0.0
C180 C 0.11103 0.04615 0.57151 0.0
C181 C 0.1587 0.06573 0.60822 0.0
C182 C 0.12062 0.02648 0.59989 0.0
C183 C 0.10672 0.0135 0.63981 0.0
C184 C 0.08236 0.01932 0.65239 0.0
C185 C 0.07278 0.03953 0.62598 0.0
C186 C 0.08692 0.05271 0.58501 0.0
H187 H 0.17195 0.07939 0.61494 0.0
H188 H 0.14356 0.06851 0.64149 0.0
H189 H 0.16799 0.04932 0.61976 0.0
H190 H 0.13886 0.02063 0.58968 0.0
H191 H 0.11522 -0.00173 0.65921 0.0
H192 H 0.47026 0.23021 0.3542 0.0
H193 H 0.46407 0.19739 0.42266 0.0
H194 H 0.5185 0.15927 0.3207 0.0
H195 H 0.52528 0.1925 0.25369 0.0
H196 H 0.45288 0.15277 0.41881 0.0
H197 H 0.54783 0.16168 0.49315 0.0
H198 H 0.53272 0.18215 0.44286 0.0
H199 H 0.54525 0.15614 0.41098 0.0
C200 C 0.48008 0.21445 0.34464 0.0
C201 C 0.49792 0.21372 0.29789 0.0
C202 C 0.47674 0.19576 0.38427 0.0
C203 C 0.49123 0.17599 0.37802 0.0
C204 C 0.50746 0.1745 0.32745 0.0
H205 H 0.50765 0.04941 0.57878 0.0
H206 H 0.49494 0.07831 0.50158 0.0
C207 C 0.51099 0.19331 0.28822 0.0
C208 C 0.49105 0.15801 0.42762 0.0
H209 H 0.5276 0.12953 0.53216 0.0
C210 C 0.46925 0.14763 0.44333 0.0
C211 C 0.5122 0.15183 0.46161 0.0
C212 C 0.53575 0.1637 0.45189 0.0
C213 C 0.46834 0.13064 0.49005 0.0
C214 C 0.48972 0.1238 0.52146 0.0
C215 C 0.5113 0.13458 0.50714 0.0
C216 C 0.49055 0.10534 0.5692 0.0
C217 C 0.44458 0.12038 0.50673 0.0
C218 C 0.49137 0.11073 0.63308 0.0
C219 C 0.49822 0.09413 0.67732 0.0
C220 C 0.50429 0.07184 0.65853 0.0
C221 C 0.5021 0.06617 0.59497 0.0
C222 C 0.49507 0.08274 0.55074 0.0
H223 H 0.42989 0.12589 0.47429 0.0
H224 H 0.44633 0.10157 0.50617 0.0
H225 H 0.43954 0.12547 0.55508 0.0
H226 H 0.4884 0.12814 0.6482 0.0
H227 H 0.50071 0.09918 0.72557 0.0
H228 H 0.31257 0.39015 0.27305 0.0
H229 H 0.34714 0.40211 0.33643 0.0
H230 H 0.30367 0.45687 0.41345 0.0
H231 H 0.26933 0.44516 0.34968 0.0
H232 H 0.3628 0.46021 0.36033 0.0
H233 H 0.3357 0.40192 0.55246 0.0
H234 H 0.33039 0.39481 0.47146 0.0
H235 H 0.31313 0.41734 0.50736 0.0
C236 C 0.3108 0.40533 0.30139 0.0
C237 C 0.28859 0.41726 0.30468 0.0
C238 C 0.3304 0.41195 0.33822 0.0
C239 C 0.32795 0.43037 0.37964 0.0
C240 C 0.30602 0.44276 0.38139 0.0
H241 H 0.39844 0.47952 0.70504 0.0
H242 H 0.37341 0.46103 0.62835 0.0
C243 C 0.28654 0.43627 0.3443 0.0
C244 C 0.34775 0.436 0.42364 0.0
H245 H 0.36889 0.42494 0.57107 0.0
C246 C 0.36437 0.45243 0.40629 0.0
C247 C 0.34943 0.42603 0.48377 0.0
C248 C 0.3313 0.409 0.50543 0.0
C249 C 0.3823 0.45966 0.44808 0.0
C250 C 0.38431 0.4495 0.50847 0.0
C251 C 0.3678 0.43264 0.52493 0.0
C252 C 0.40131 0.45785 0.55773 0.0
C253 C 0.39791 0.47901 0.42781 0.0
C254 C 0.42599 0.46143 0.54591 0.0
C255 C 0.44033 0.47278 0.58981 0.0
C256 C 0.43056 0.47975 0.64742 0.0
C257 C 0.40663 0.47416 0.66129 0.0
C258 C 0.3922 0.46356 0.61711 0.0
H259 H 0.38977 0.48872 0.38807 0.0
H260 H 0.40089 0.49101 0.46687 0.0
H261 H 0.41563 0.47206 0.41196 0.0
H262 H 0.43392 0.45646 0.50164 0.0
H263 H 0.45836 0.47757 0.57681 0.0
H264 H 0.04687 0.2761 0.35362 0.0
H265 H 0.05193 0.30985 0.41809 0.0
H266 H 0.99577 0.34485 0.31326 0.0
H267 H 0.98976 0.31042 0.25111 0.0
H268 H 0.06146 0.35299 0.41574 0.0
H269 H 0.96551 0.34486 0.48167 0.0
H270 H 0.98093 0.32433 0.43278 0.0
H271 H 0.96904 0.35054 0.3998 0.0
C272 C 0.03638 0.29137 0.34246 0.0
C273 C 0.0181 0.29073 0.29689 0.0
C274 C 0.03907 0.31062 0.37993 0.0
C275 C 0.02365 0.32973 0.37229 0.0
C276 C 0.00734 0.33007 0.32168 0.0
H277 H 0.01653 0.45744 0.57496 0.0
H278 H 0.03107 0.42763 0.50318 0.0
C279 C 0.0043 0.3106 0.28496 0.0
C280 C 0.02313 0.34806 0.4208 0.0
H281 H 0.98554 0.37663 0.52212 0.0
C282 C 0.04481 0.35818 0.43877 0.0
C283 C 1.0016 0.35441 0.45287 0.0
C284 C 0.97803 0.3428 0.44138 0.0
C285 C 0.04536 0.3747 0.48642 0.0
C286 C 0.0237 0.38181 0.51582 0.0
C287 C 1.00214 0.37147 0.49875 0.0
C288 C 0.02258 0.39974 0.56508 0.0
C289 C 0.06906 0.38425 0.50606 0.0
C290 C 0.01456 0.3941 0.62528 0.0
C291 C 0.00668 0.41111 0.66658 0.0
C292 C 0.00645 0.43412 0.64846 0.0
C293 C 0.01711 0.43995 0.59106 0.0
C294 C 0.02511 0.42284 0.54955 0.0
H295 H 0.08465 0.37477 0.48534 0.0
H296 H 0.06948 0.4022 0.49068 0.0
H297 H 0.07077 0.38395 0.55785 0.0
H298 H 0.01244 0.37645 0.63839 0.0
H299 H 0.99815 0.40609 0.70994 0.0
H300 H 0.78038 0.95392 0.12286 0.0
H301 H 0.8161 0.96616 0.06492 0.0
H302 H 0.84416 0.89717 0.06518 0.0
H303 H 0.80847 0.88495 0.12286 0.0
H304 H 0.88022 0.93099 0.08399 0.0
H305 H 0.82255 0.94891 0.87645 0.0
H306 H 0.8129 0.96298 0.947 0.0
H307 H 0.81245 0.9325 0.94259 0.0
C308 C 0.79467 0.94158 0.11286 0.0
C309 C 0.79189 0.91858 0.12857 0.0
C310 C 0.81487 0.94849 0.07875 0.0
C311 C 0.83268 0.93253 0.05973 0.0
C312 C 0.8307 0.90981 0.07913 0.0
H313 H 0.92869 0.95888 0.74251 0.0
H314 H 0.90265 0.93907 0.81696 0.0
C315 C 0.81044 0.90288 0.11273 0.0
C316 C 0.85253 0.93916 0.01656 0.0
H317 H 0.86336 0.95956 0.8693 0.0
C318 C 0.87656 0.93724 0.03705 0.0
C319 C 0.84786 0.94669 0.95458 0.0
C320 C 0.82259 0.94773 0.92837 0.0
C321 C 0.8959 0.9434 0.99816 0.0
C322 C 0.89118 0.95195 0.93709 0.0
C323 C 0.86715 0.95315 0.91603 0.0
C324 C 0.91054 0.9609 0.89535 0.0
C325 C 0.92126 0.94022 0.0224 0.0
C326 C 0.92429 0.97938 0.91455 0.0
C327 C 0.93931 0.99051 0.87214 0.0
C328 C 0.94133 0.98328 0.80965 0.0
C329 C 0.92845 0.96416 0.79103 0.0
C330 C 0.91326 0.95306 0.83344 0.0
H331 H 0.9222 0.9281 0.06239 0.0
H332 H 0.93334 0.93378 0.98484 0.0
H333 H 0.928 0.95678 0.03871 0.0
H334 H 0.9221 0.98632 0.96113 0.0
H335 H 0.94809 0.00583 0.88708 0.0
H336 H 0.52989 0.80612 0.18828 0.0
H337 H 0.53134 0.842 0.12949 0.0
H338 H 0.46215 0.82822 0.04758 0.0
H339 H 0.46032 0.79315 0.10827 0.0
H340 H 0.53467 0.84428 0.00789 0.0
H341 H 0.45277 0.89418 0.07137 0.0
H342 H 0.46294 0.86985 0.11667 0.0
H343 H 0.44526 0.86618 0.0467 0.0
C344 C 0.51434 0.81154 0.16084 0.0
C345 C 0.49473 0.7971 0.15415 0.0
C346 C 0.51537 0.83183 0.12609 0.0
C347 C 0.49682 0.83808 0.08387 0.0
C348 C 0.47645 0.82437 0.08072 0.0
H349 H 0.50556 0.90882 0.7305 0.0
H350 H 0.51172 0.88218 0.8175 0.0
C351 C 0.4753 0.8043 0.11595 0.0
C352 C 0.49992 0.85724 0.03824 0.0
H353 H 0.47097 0.90347 0.97259 0.0
C354 C 0.52088 0.85745 0.00105 0.0
C355 C 0.48205 0.87455 0.0287 0.0
C356 C 0.45963 0.87631 0.06847 0.0
C357 C 0.52416 0.87399 0.95406 0.0
C358 C 0.50579 0.89065 0.94273 0.0
C359 C 0.48513 0.89077 0.9809 0.0
C360 C 0.50687 0.90749 0.89007 0.0
C361 C 0.54735 0.87344 0.91722 0.0
C362 C 0.5025 0.93082 0.9011 0.0
C363 C 0.49892 0.94608 0.85107 0.0
C364 C 0.50003 0.93844 0.78888 0.0
C365 C 0.50567 0.91537 0.77783 0.0
C366 C 0.50909 0.90008 0.82777 0.0
H367 H 0.56224 0.86504 0.94418 0.0
H368 H 0.54478 0.86351 0.87376 0.0
H369 H 0.55286 0.89084 0.90404 0.0
H370 H 0.50052 0.93702 0.94853 0.0
H371 H 0.49364 0.96355 0.8611 0.0
H372 H 0.71031 0.62414 0.07148 0.0
H373 H 0.67591 0.6117 0.01039 0.0
H374 H 0.69083 0.54235 0.06702 0.0
H375 H 0.72602 0.55468 0.12669 0.0
H376 H 0.68355 0.5459 0.94097 0.0
H377 H 0.60955 0.59279 0.06213 0.0
H378 H 0.6333 0.6108 0.03673 0.0
H379 H 0.63934 0.5894 0.09544 0.0
C380 C 0.70611 0.60626 0.07182 0.0
C381 C 0.72097 0.59046 0.10448 0.0
C382 C 0.68625 0.59916 0.03704 0.0
C383 C 0.6804 0.57608 0.03451 0.0
C384 C 0.69479 0.56029 0.06842 0.0
H385 H 0.55466 0.51266 0.87091 0.0
H386 H 0.58254 0.53157 0.94193 0.0
C387 C 0.71477 0.56739 0.10323 0.0
C388 C 0.66017 0.5684 0.9937 0.0
H389 H 0.59984 0.57641 0.96351 0.0
C390 C 0.66525 0.55251 0.94622 0.0
C391 C 0.63615 0.5769 0.00029 0.0
C392 C 0.62916 0.59325 0.05176 0.0
C393 C 0.64721 0.54518 0.90497 0.0
C394 C 0.62333 0.55415 0.91049 0.0
C395 C 0.61814 0.56974 0.95857 0.0
C396 C 0.60349 0.54676 0.86812 0.0
C397 C 0.65383 0.52754 0.85638 0.0
C398 C 0.60491 0.55016 0.80308 0.0
C399 C 0.58862 0.53975 0.76259 0.0
C400 C 0.5703 0.526 0.78616 0.0
C401 C 0.56783 0.52399 0.8514 0.0
C402 C 0.58408 0.53448 0.89202 0.0
H403 H 0.67111 0.51849 0.86776 0.0
H404 H 0.63949 0.5148 0.85193 0.0
H405 H 0.65594 0.53602 0.8103 0.0
H406 H 0.6195 0.55976 0.78334 0.0
H407 H 0.59157 0.54091 0.71257 0.0
H408 H 0.9523 0.7144 0.14729 0.0
H409 H 0.94763 0.67969 0.08542 0.0
H410 H 0.0248 0.66988 0.08071 0.0
H411 H 0.02948 0.70475 0.14186 0.0
H412 H 0.97768 0.67971 0.95724 0.0
H413 H 0.98731 0.60384 0.11214 0.0
H414 H 0.97439 0.63062 0.13887 0.0
H415 H 0.0063 0.62772 0.12722 0.0
C416 C 0.96816 0.70409 0.13621 0.0
C417 C 0.99122 0.7119 0.15108 0.0
C418 C 0.9655 0.68445 0.10003 0.0
C419 C 0.98585 0.67216 0.07858 0.0
C420 C 0.00884 0.67892 0.0975 0.0
H421 H 0.02974 0.5982 0.76162 0.0
H422 H 0.01625 0.62649 0.83604 0.0
C423 C 0.01151 0.69866 0.13326 0.0
C424 C 0.98341 0.65452 0.02929 0.0
H425 H 0.989 0.5974 0.00281 0.0
C426 C 0.97982 0.66167 0.96721 0.0
C427 C 0.98573 0.63104 0.04241 0.0
C428 C 0.98853 0.62263 0.10875 0.0
C429 C 0.97961 0.64603 0.91754 0.0
C430 C 0.98374 0.62251 0.92993 0.0
C431 C 0.98596 0.61532 0.99269 0.0
C432 C 0.98905 0.60572 0.8788 0.0
C433 C 0.97521 0.65511 0.85225 0.0
C434 C 0.97845 0.58413 0.87704 0.0
C435 C 0.98672 0.56738 0.83444 0.0
C436 C 0.00577 0.57192 0.79337 0.0
C437 C 0.015 0.59401 0.79251 0.0
C438 C 0.00709 0.61045 0.83506 0.0
H439 H 0.96267 0.67013 0.85314 0.0
H440 H 0.99249 0.66085 0.83222 0.0
H441 H 0.96758 0.64207 0.82102 0.0
H442 H 0.96451 0.57995 0.9103 0.0
H443 H 0.97943 0.55056 0.83636 0.0
H444 H 0.01497 0.2325 0.43068 0.0
H445 H 0.0172 0.19904 0.49839 0.0
H446 H 0.95365 0.17315 0.41017 0.0
H447 H 0.95142 0.2065 0.34162 0.0
H448 H 0.97547 0.16338 0.56678 0.0
H449 H 0.02684 0.14206 0.34951 0.0
H450 H 0.02585 0.17036 0.382 0.0
H451 H 1.00007 0.15982 0.34184 0.0
C452 C 1.00061 0.22037 0.4283 0.0
C453 C 0.98327 0.2217 0.38026 0.0
C454 C 1.00198 0.20126 0.46696 0.0
C455 C 0.98584 0.18368 0.45804 0.0
C456 C 0.96624 0.18671 0.41719 0.0
H457 H 0.95089 0.05226 0.53566 0.0
H458 H 0.95663 0.09046 0.49579 0.0
C459 C 0.96498 0.20569 0.37813 0.0
C460 C 0.99274 0.1605 0.47696 0.0
H461 H 0.01546 0.11131 0.41375 0.0
C462 C 0.98463 0.15204 0.53414 0.0
C463 C 0.00526 0.14606 0.43451 0.0
C464 C 0.01519 0.15493 0.37357 0.0
C465 C 0.98722 0.12883 0.54801 0.0
C466 C 0.9974 0.11402 0.50249 0.0
C467 C 0.00729 0.1228 0.4477 0.0
C468 C 0.9953 0.08932 0.50863 0.0
C469 C 0.97819 0.12017 0.6101 0.0
C470 C 0.01553 0.0754 0.52153 0.0
C471 C 0.01232 0.05326 0.54323 0.0
C472 C 0.98894 0.04547 0.55424 0.0
C473 C 0.96914 0.05809 0.53017 0.0
C474 C 0.97233 0.08003 0.50798 0.0
H475 H 0.97759 0.13384 0.64587 0.0
H476 H 0.95963 0.11389 0.60412 0.0
H477 H 0.98979 0.10587 0.62772 0.0
H478 H 0.0335 0.08219 0.51992 0.0
H479 H 0.02791 0.04325 0.55763 0.0
H480 H 0.27348 0.08417 0.41535 0.0
H481 H 0.3076 0.06973 0.47332 0.0
H482 H 0.34565 0.13149 0.43575 0.0
H483 H 0.31167 0.14533 0.37153 0.0
H484 H 0.37035 0.0983 0.39452 0.0
H485 H 0.34188 0.07114 0.62973 0.0
H486 H 0.32233 0.05895 0.57327 0.0
H487 H 0.32283 0.08949 0.58211 0.0
C488 C 0.28847 0.09538 0.42223 0.0
C489 C 0.28994 0.11591 0.38866 0.0
C490 C 0.30816 0.087 0.45586 0.0
C491 C 0.32929 0.0995 0.45947 0.0
C492 C 0.32954 0.1215 0.43332 0.0
H493 H 0.45917 0.04952 0.62552 0.0
H494 H 0.42812 0.07346 0.57857 0.0
C495 C 0.31004 0.12958 0.39745 0.0
C496 C 0.35203 0.08778 0.47876 0.0
H497 H 0.37568 0.04972 0.58432 0.0
C498 C 0.37164 0.08815 0.43692 0.0
C499 C 0.35367 0.07406 0.53331 0.0
C500 C 0.33406 0.07362 0.58223 0.0
C501 C 0.39255 0.0749 0.4476 0.0
C502 C 0.3936 0.06065 0.50053 0.0
C503 C 0.37436 0.06043 0.54291 0.0
C504 C 0.41541 0.04741 0.51668 0.0
C505 C 0.41318 0.07572 0.40175 0.0
C506 C 0.41884 0.02499 0.49573 0.0
C507 C 0.43726 0.01123 0.5215 0.0
C508 C 0.45224 0.01989 0.56839 0.0
C509 C 0.44914 0.0427 0.58679 0.0
C510 C 0.43103 0.05636 0.56086 0.0
H511 H 0.411 0.09005 0.36802 0.0
H512 H 0.43058 0.07736 0.42671 0.0
H513 H 0.41415 0.05952 0.37527 0.0
H514 H 0.40651 0.01783 0.46221 0.0
H515 H 0.43888 0.99357 0.5076 0.0
H516 H 0.56676 0.299 0.31094 0.0
H517 H 0.56633 0.33298 0.37671 0.0
H518 H 0.50872 0.30567 0.48692 0.0
H519 H 0.50898 0.27178 0.42192 0.0
H520 H 0.50349 0.34802 0.38452 0.0
H521 H 0.56741 0.35267 0.58518 0.0
H522 H 0.57722 0.3383 0.51473 0.0
H523 H 0.55395 0.32633 0.56163 0.0
C524 C 0.55493 0.29973 0.35126 0.0
C525 C 0.53761 0.28306 0.36065 0.0
C526 C 0.55471 0.31907 0.38872 0.0
C527 C 0.53729 0.32169 0.43574 0.0
C528 C 0.52232 0.30372 0.4508 0.0
H529 H 0.484 0.44574 0.60065 0.0
H530 H 0.48305 0.40926 0.54776 0.0
C531 C 0.52261 0.28432 0.41369 0.0
C532 C 0.53063 0.34465 0.45647 0.0
H533 H 0.54667 0.38673 0.55548 0.0
C534 C 0.51269 0.35652 0.42229 0.0
C535 C 0.54268 0.35527 0.50581 0.0
C536 C 0.56136 0.34258 0.54446 0.0
C537 C 0.50711 0.37936 0.43497 0.0
C538 C 0.51995 0.39028 0.48248 0.0
C539 C 0.53724 0.37816 0.5182 0.0
C540 C 0.51601 0.41443 0.49637 0.0
C541 C 0.48818 0.39191 0.39672 0.0
C542 C 0.53406 0.42976 0.48137 0.0
C543 C 0.53443 0.45087 0.51059 0.0
C544 C 0.51685 0.45662 0.55542 0.0
C545 C 0.49733 0.44217 0.56482 0.0
C546 C 0.49692 0.42113 0.53534 0.0
H547 H 0.4805 0.38109 0.35953 0.0
H548 H 0.47334 0.39794 0.42781 0.0
H549 H 0.4961 0.40714 0.37468 0.0
H550 H 0.54894 0.42463 0.45134 0.0
H551 H 0.5497 0.46167 0.50289 0.0
H552 H 0.20154 0.36043 0.39227 0.0
H553 H 0.17093 0.37371 0.46889 0.0
H554 H 0.19211 0.44302 0.43608 0.0
H555 H 0.22316 0.42981 0.36544 0.0
H556 H 0.18145 0.43883 0.55056 0.0
H557 H 0.10895 0.4003 0.4075 0.0
H558 H 0.12987 0.38099 0.44546 0.0
H559 H 0.14 0.39908 0.38318 0.0
C560 C 0.19997 0.37833 0.40372 0.0
C561 C 0.21467 0.39415 0.37413 0.0
C562 C 0.1824 0.38594 0.44653 0.0
C563 C 0.17897 0.40941 0.45742 0.0
C564 C 0.1945 0.42485 0.42935 0.0
H565 H 0.05279 0.49482 0.50124 0.0
H566 H 0.08643 0.47023 0.46357 0.0
C567 C 0.21227 0.41729 0.38886 0.0
C568 C 0.1582 0.41903 0.49242 0.0
H569 H 0.09761 0.42839 0.4788 0.0
C570 C 0.16299 0.43617 0.53598 0.0
C571 C 0.13422 0.41583 0.47226 0.0
C572 C 0.12783 0.39818 0.42428 0.0
C573 C 0.14495 0.45154 0.55541 0.0
C574 C 0.12098 0.44836 0.53521 0.0
C575 C 0.11592 0.43042 0.49476 0.0
C576 C 0.10084 0.46323 0.55638 0.0
C577 C 0.15227 0.47199 0.59299 0.0
C578 C 0.09768 0.46701 0.62045 0.0
C579 C 0.0793 0.48141 0.64106 0.0
C580 C 0.0631 0.49154 0.59846 0.0
C581 C 0.06543 0.48728 0.53443 0.0
C582 C 0.08444 0.47322 0.51331 0.0
H583 H 0.17128 0.47642 0.5834 0.0
H584 H 0.14064 0.48715 0.58244 0.0
H585 H 0.15091 0.46801 0.64365 0.0
H586 H 0.10944 0.45886 0.65469 0.0
H587 H 0.07759 0.48455 0.69069 0.0
H588 H 0.95632 0.79007 0.0598 0.0
H589 H 0.9534 0.82509 0.99766 0.0
H590 H 0.03087 0.82485 0.98017 0.0
H591 H 0.0338 0.79008 0.04335 0.0
H592 H 0.98212 0.85947 0.06743 0.0
H593 H 1.00166 0.85502 0.81239 0.0
H594 H 0.98751 0.83226 0.85485 0.0
H595 H 0.01938 0.83614 0.86164 0.0
C596 C 0.97255 0.79689 0.03957 0.0
C597 C 0.99527 0.78775 0.05582 0.0
C598 C 0.97086 0.81678 0.00424 0.0
C599 C 0.99191 0.82736 0.98472 0.0
C600 C 0.01446 0.81662 0.99431 0.0
H601 H 0.05645 0.94915 0.91143 0.0
H602 H 0.04369 0.91471 0.96454 0.0
C603 C 0.01616 0.79687 0.03031 0.0
C604 C 0.99116 0.85178 0.97144 0.0
H605 H 0.00751 0.89072 0.8627 0.0
C606 C 0.98707 0.86646 0.0223 0.0
C607 C 0.99784 0.8605 0.91276 0.0
C608 C 1.0017 0.84523 0.85697 0.0
C609 C 0.9909 0.88977 0.01666 0.0
C610 C 0.99888 0.89826 0.95898 0.0
C611 C 1.00165 0.88381 0.90716 0.0
C612 C 0.00564 0.92192 0.95112 0.0
C613 C 0.98765 0.90507 0.07263 0.0
C614 C 0.98827 0.93791 0.93111 0.0
C615 C 0.99547 0.9577 0.90161 0.0
C616 C 0.02002 0.96113 0.8899 0.0
C617 C 0.03735 0.94673 0.9187 0.0
C618 C 0.03013 0.92704 0.94895 0.0
H619 H 0.98081 0.89581 0.11414 0.0
H620 H 0.00517 0.91266 0.08477 0.0
H621 H 0.97485 0.91926 0.06096 0.0
H622 H 0.96935 0.93396 0.93183 0.0
H623 H 0.98183 0.96862 0.88068 0.0
H624 H 0.7344 0.91782 0.99531 0.0
H625 H 0.69957 0.9285 0.93307 0.0
H626 H 0.65966 0.87398 0.01561 0.0
H627 H 0.69457 0.86363 0.08082 0.0
H628 H 0.66317 0.91747 0.8593 0.0
H629 H 0.63178 0.92921 0.10494 0.0
H630 H 0.66197 0.91962 0.08626 0.0
H631 H 0.63744 0.90017 0.08289 0.0
C632 C 0.71875 0.90719 0.99801 0.0
C633 C 0.71679 0.8905 0.04491 0.0
C634 C 0.69869 0.91345 0.96234 0.0
C635 C 0.67674 0.9028 0.97257 0.0
C636 C 0.6763 0.88298 0.00928 0.0
H637 H 0.54339 0.95881 0.832 0.0
H638 H 0.57359 0.93352 0.87798 0.0
C639 C 0.69629 0.87693 0.04601 0.0
C640 C 0.65427 0.91555 0.95726 0.0
H641 H 0.60681 0.9441 0.0257 0.0
C642 C 0.65064 0.92299 0.89546 0.0
C643 C 0.63854 0.92354 0.0053 0.0
C644 C 0.64268 0.91795 0.07364 0.0
C645 C 0.63165 0.93814 0.88038 0.0
C646 C 0.61571 0.94549 0.92809 0.0
C647 C 0.61913 0.93809 0.98962 0.0
C648 C 0.59509 0.96065 0.91394 0.0
C649 C 0.62906 0.94681 0.81408 0.0
C650 C 0.59661 0.98416 0.92282 0.0
C651 C 0.57873 -0.00122 0.89841 0.0
C652 C 0.55934 0.98992 0.86451 0.0
C653 C 0.55725 0.96621 0.86017 0.0
C654 C 0.57486 0.95168 0.88519 0.0
H655 H 0.64419 0.94093 0.78366 0.0
H656 H 0.61191 0.94089 0.79378 0.0
H657 H 0.62829 0.96571 0.81383 0.0
H658 H 0.61229 0.99122 0.9451 0.0
H659 H 0.58101 0.01697 0.90206 0.0
H660 H 0.47582 0.73298 0.01946 0.0
H661 H 0.4748 0.70172 0.94417 0.0
H662 H 0.54335 0.67615 0.01327 0.0
H663 H 0.54446 0.70729 0.08851 0.0
H664 H 0.52679 0.66615 0.87168 0.0
H665 H 0.46739 0.6446 0.07339 0.0
H666 H 0.46199 0.67121 0.03342 0.0
H667 H 0.48902 0.66689 0.07849 0.0
C668 C 0.49119 0.7213 0.01631 0.0
C669 C 0.50996 0.72199 0.06026 0.0
C670 C 0.49067 0.70363 0.97311 0.0
C671 C 0.50892 0.68673 0.97402 0.0
C672 C 0.52923 0.68921 0.01202 0.0
H673 H 0.52459 0.54479 0.87483 0.0
H674 H 0.53195 0.58373 0.90874 0.0
C675 C 0.52969 0.70675 0.05536 0.0
C676 C 0.50364 0.66387 0.95209 0.0
H677 H 0.47542 0.61622 0.00037 0.0
C678 C 0.51536 0.65519 0.89902 0.0
C679 C 0.48888 0.64983 0.9888 0.0
C680 C 0.47613 0.65844 0.04691 0.0
C681 C 0.51254 0.63247 0.88137 0.0
C682 C 0.49831 0.61828 0.91934 0.0
C683 C 0.48646 0.62718 0.97191 0.0
C684 C 0.49433 0.59432 0.90444 0.0
C685 C 0.5244 0.62398 0.82205 0.0
C686 C 0.47069 0.58708 0.89643 0.0
C687 C 0.46643 0.56476 0.8799 0.0
C688 C 0.48585 0.54943 0.86928 0.0
C689 C 0.5094 0.55627 0.88225 0.0
C690 C 0.51363 0.57859 0.90015 0.0
H691 H 0.52974 0.63823 0.79113 0.0
H692 H 0.54092 0.61389 0.83414 0.0
H693 H 0.51215 0.61284 0.79563 0.0
H694 H 0.45553 0.59896 0.90056 0.0
H695 H 0.448 0.5602 0.87027 0.0
H696 H 0.8294 0.63368 0.12573 0.0
H697 H 0.86298 0.62122 0.06056 0.0
H698 H 0.81361 0.60292 0.91482 0.0
H699 H 0.78006 0.61244 0.98084 0.0
H700 H 0.83438 0.56629 0.99113 0.0
H701 H 0.90409 0.62332 0.89493 0.0
H702 H 0.89188 0.62991 0.97104 0.0
H703 H 0.87285 0.63237 0.90341 0.0
C704 C 0.82544 0.62715 0.0797 0.0
C705 C 0.80169 0.62171 0.06212 0.0
C706 C 0.84488 0.62071 0.04162 0.0
C707 C 0.84063 0.61032 0.98397 0.0
C708 C 0.81715 0.61042 0.96006 0.0
H709 H 0.90559 0.4979 0.78952 0.0
H710 H 0.8784 0.52525 0.83898 0.0
C711 C 0.79775 0.61592 0.99889 0.0
C712 C 0.85789 0.59287 0.96102 0.0
H713 H 0.9131 0.58375 0.89489 0.0
C714 C 0.85155 0.5701 0.96967 0.0
C715 C 0.8804 0.59798 0.93474 0.0
C716 C 0.88782 0.6222 0.925 0.0
C717 C 0.86708 0.55219 0.95246 0.0
C718 C 0.88942 0.55721 0.9246 0.0
C719 C 0.89596 0.58 0.91657 0.0
C720 C 0.90554 0.53907 0.90002 0.0
C721 C 0.85944 0.52813 0.96528 0.0
C722 C 0.92983 0.53759 0.91833 0.0
C723 C 0.9456 0.52201 0.88943 0.0
C724 C 0.93719 0.50784 0.84194 0.0
C725 C 0.91254 0.50837 0.82672 0.0
C726 C 0.89694 0.52408 0.85484 0.0
H727 H 0.84671 0.52745 0.00533 0.0
H728 H 0.84995 0.52158 0.92358 0.0
H729 H 0.87515 0.51668 0.97558 0.0
H730 H 0.93672 0.54895 0.95349 0.0
H731 H 0.96449 0.52168 0.90224 0.0
H732 H 0.99246 0.23758 0.09393 0.0
H733 H 0.99551 0.20724 0.01453 0.0
H734 H 0.03471 0.16446 0.14547 0.0
H735 H 0.03204 0.19459 0.22393 0.0
H736 H 0.04096 0.17736 0.9689 0.0
H737 H 0.96865 0.13158 0.09421 0.0
H738 H 0.97224 0.16192 0.10121 0.0
H739 H 0.9927 0.14267 0.14082 0.0
C740 C 1.00248 0.22203 0.10477 0.0
C741 C 0.01219 0.21856 0.16492 0.0
C742 C 0.00401 0.20461 0.05969 0.0
C743 C 0.01512 0.18347 0.07432 0.0
C744 C 0.02597 0.18054 0.13315 0.0
H745 H 0.02265 0.04977 0.88999 0.0
H746 H 0.02934 0.08182 0.96155 0.0
C747 C 0.02459 0.19786 0.17777 0.0
C748 C 0.0141 0.16385 0.03032 0.0
H749 H 0.98705 0.11274 0.00873 0.0
C750 C 0.02911 0.16328 0.97743 0.0
C751 C 0.99883 0.14534 0.04181 0.0
C752 C 0.98203 0.14528 0.09732 0.0
C753 C 0.02925 0.14467 0.93591 0.0
C754 C 0.01384 0.12626 0.94714 0.0
C755 C 0.99898 0.12677 0.00031 0.0
C756 C 0.01174 0.10705 0.90214 0.0
C757 C 0.04605 0.1446 0.88049 0.0
C758 C 0.99981 0.11059 0.84489 0.0
C759 C 0.99573 0.09236 0.80457 0.0
C760 C 0.00377 0.07014 0.82003 0.0
C761 C 0.01653 0.06671 0.87636 0.0
C762 C 0.02022 0.08497 0.91741 0.0
H763 H 0.05977 0.15797 0.88418 0.0
H764 H 0.0554 0.12776 0.87606 0.0
H765 H 0.03543 0.14764 0.8371 0.0
H766 H 0.99297 0.12739 0.83223 0.0
H767 H 0.98582 0.09558 0.7616 0.0
H768 H 0.32622 0.08661 0.24904 0.0
H769 H 0.3566 0.07595 0.17327 0.0
H770 H 0.30228 0.07458 0.02885 0.0
H771 H 0.27174 0.08807 0.10439 0.0
H772 H 0.36611 0.04212 0.11155 0.0
H773 H 0.34934 0.10937 0.9343 0.0
H774 H 0.33464 0.10987 0.00947 0.0
H775 H 0.32305 0.09286 0.94665 0.0
C776 C 0.32059 0.08483 0.2008 0.0
C777 C 0.29643 0.0893 0.18272 0.0
C778 C 0.33816 0.07828 0.1573 0.0
C779 C 0.33222 0.07501 0.0942 0.0
C780 C 0.30779 0.07791 0.07644 0.0
H781 H 0.40662 0.01278 0.78611 0.0
H782 H 0.37914 0.03041 0.86122 0.0
C783 C 0.29013 0.08521 0.12002 0.0
C784 C 0.3517 0.06787 0.04875 0.0
H785 H 0.3753 0.07835 0.90349 0.0
C786 C 0.36818 0.05035 0.06647 0.0
C787 C 0.35497 0.07861 0.9898 0.0
C788 C 0.33973 0.09888 0.96922 0.0
C789 C 0.38708 0.04296 0.02685 0.0
C790 C 0.38954 0.05297 0.96703 0.0
C791 C 0.3734 0.07063 0.94935 0.0
C792 C 0.40711 0.04373 0.91999 0.0
C793 C 0.40394 0.02402 0.04853 0.0
C794 C 0.43224 0.04565 0.92711 0.0
C795 C 0.44828 0.03558 0.88348 0.0
C796 C 0.43943 0.02319 0.83241 0.0
C797 C 0.41424 0.02191 0.82505 0.0
C798 C 0.39837 0.0321 0.86794 0.0
H799 H 0.39805 0.01633 0.09339 0.0
H800 H 0.40528 0.01049 0.01251 0.0
H801 H 0.42224 0.03082 0.05534 0.0
H802 H 0.43943 0.05473 0.96669 0.0
H803 H 0.46752 0.03695 0.89065 0.0
H804 H 0.53296 0.27346 0.09469 0.0
H805 H 0.52734 0.30542 0.02128 0.0
H806 H 0.466 0.3296 0.12783 0.0
H807 H 0.4716 0.29758 0.20098 0.0
H808 H 0.48653 0.32235 0.94678 0.0
H809 H 0.51365 0.38319 0.13134 0.0
H810 H 0.51917 0.35291 0.13846 0.0
H811 H 0.4894 0.36467 0.15058 0.0
C812 C 0.51765 0.28503 0.10069 0.0
C813 C 0.50223 0.28261 0.1523 0.0
C814 C 0.51464 0.30348 0.0593 0.0
C815 C 0.49645 0.32015 0.06944 0.0
C816 C 0.4803 0.31713 0.11927 0.0
H817 H 0.4795 0.45328 0.87215 0.0
H818 H 0.47148 0.42101 0.94266 0.0
C819 C 0.48321 0.29859 0.16036 0.0
C820 C 0.49523 0.34111 0.02965 0.0
H821 H 0.50472 0.39848 0.03171 0.0
C822 C 0.49032 0.339 0.96551 0.0
C823 C 0.50004 0.36295 0.05402 0.0
C824 C 0.50604 0.36622 0.12225 0.0
C825 C 0.49045 0.35796 0.92506 0.0
C826 C 0.49614 0.37964 0.94887 0.0
C827 C 0.50028 0.38192 0.01339 0.0
C828 C 0.50034 0.39942 0.90641 0.0
C829 C 0.48465 0.3546 0.8568 0.0
C830 C 0.51932 0.39819 0.86318 0.0
C831 C 0.52397 0.41647 0.82341 0.0
C832 C 0.50979 0.43669 0.82547 0.0
C833 C 0.49067 0.43798 0.86883 0.0
C834 C 0.48614 0.41957 0.90932 0.0
H835 H 0.47389 0.33914 0.84949 0.0
H836 H 0.47451 0.36954 0.8374 0.0
H837 H 0.50171 0.35247 0.83013 0.0
H838 H 0.5308 0.38305 0.86058 0.0
H839 H 0.53886 0.41468 0.79088 0.0
H840 H 0.22777 0.39784 0.09013 0.0
H841 H 0.19523 0.41028 0.01804 0.0
H842 H 0.16115 0.448 0.16795 0.0
H843 H 0.19387 0.43647 0.23832 0.0
H844 H 0.14796 0.40202 0.02205 0.0
H845 H 0.15761 0.4952 0.03546 0.0
H846 H 0.18029 0.47565 0.06583 0.0
H847 H 0.15391 0.48291 0.11153 0.0
C848 C 0.21378 0.4095 0.10666 0.0
C849 C 0.21369 0.41672 0.16924 0.0
C850 C 0.195 0.41636 0.06583 0.0
C851 C 0.1758 0.4305 0.08694 0.0
C852 C 0.17598 0.43778 0.14948 0.0
H853 H 0.04186 0.48793 0.93088 0.0
H854 H 0.07197 0.4706 0.0022 0.0
C855 C 0.19475 0.43118 0.1898 0.0
C856 C 0.15498 0.43688 0.04509 0.0
H857 H 0.12057 0.48227 0.99341 0.0
C858 C 0.14215 0.4196 0.01537 0.0
C859 C 0.14709 0.4598 0.03637 0.0
C860 C 0.16061 0.47944 0.0635 0.0
C861 C 0.12159 0.42458 0.97835 0.0
C862 C 0.11362 0.44747 0.9704 0.0
C863 C 0.12643 0.4647 1.00004 0.0
C864 C 0.09294 0.45426 0.92891 0.0
C865 C 0.10827 0.40527 0.94901 0.0
C866 C 0.09419 0.45032 0.86417 0.0
C867 C 0.0769 0.46005 0.82366 0.0
C868 C 0.05796 0.4739 0.84692 0.0
C869 C 0.05592 0.47688 0.91189 0.0
C870 C 0.07327 0.46716 0.95252 0.0
H871 H 0.11261 0.38878 0.97245 0.0
H872 H 0.08847 0.40847 0.95094 0.0
H873 H 0.11358 0.40376 0.89911 0.0
H874 H 0.10935 0.44089 0.84443 0.0
H875 H 0.07916 0.4578 0.77375 0.0
H876 H 0.96027 0.77983 0.30633 0.0
H877 H 0.95771 0.81157 0.38122 0.0
H878 H 0.03236 0.82589 0.34662 0.0
H879 H 0.03485 0.7944 0.27208 0.0
H880 H 0.98385 0.8246 0.49124 0.0
H881 H 0.9965 0.88549 0.29664 0.0
H882 H 0.98949 0.85606 0.28378 0.0
H883 H 0.01995 0.86395 0.30049 0.0
C884 C 0.97636 0.78914 0.3169 0.0
C885 C 0.99791 0.78428 0.28436 0.0
C886 C 0.97481 0.80751 0.35897 0.0
C887 C 0.9947 0.82151 0.36866 0.0
C888 C 0.01663 0.81567 0.33927 0.0
H889 H 0.04533 0.93341 0.57165 0.0
H890 H 0.03571 0.90225 0.50198 0.0
C891 C 0.01819 0.79737 0.29752 0.0
C892 C 0.99253 0.84275 0.40699 0.0
H893 H 1.00147 0.90012 0.40023 0.0
C894 C 0.98731 0.84117 0.4712 0.0
C895 C 0.99671 0.8645 0.38084 0.0
C896 C 1.00073 0.86772 0.31154 0.0
C897 C 0.98769 0.86044 0.51044 0.0
C898 C 0.9932 0.88196 0.48483 0.0
C899 C 0.9973 0.88368 0.42011 0.0
C900 C 0.99781 0.90215 0.52519 0.0
C901 C 0.98345 0.8575 0.57966 0.0
C902 C 0.97955 0.9131 0.56074 0.0
C903 C 0.985 0.93136 0.60067 0.0
C904 C 0.00887 0.9387 0.60633 0.0
C905 C 0.0268 0.92805 0.56923 0.0
C906 C 0.02133 0.91021 0.52904 0.0
H907 H 0.98225 0.83932 0.59333 0.0
H908 H 0.9982 0.86526 0.60676 0.0
H909 H 0.96632 0.86637 0.59281 0.0
H910 H 0.96117 0.90739 0.55804 0.0
H911 H 0.97077 0.93919 0.6285 0.0
H912 H 0.72379 0.95195 0.25874 0.0
H913 H 0.69192 0.96419 0.33202 0.0
H914 H 0.66842 0.89506 0.34689 0.0
H915 H 0.70051 0.88276 0.2755 0.0
H916 H 0.64289 0.9607 0.31316 0.0
H917 H 0.66841 0.91292 0.52869 0.0
H918 H 0.68894 0.91609 0.46393 0.0
H919 H 0.66545 0.89561 0.46027 0.0
C920 C 0.7124 0.93927 0.27947 0.0
C921 C 0.71497 0.91633 0.26176 0.0
C922 C 0.69393 0.94631 0.32076 0.0
C923 C 0.67774 0.93057 0.34576 0.0
C924 C 0.68083 0.90755 0.32968 0.0
H925 H 0.55216 0.95488 0.59906 0.0
H926 H 0.5799 0.93606 0.52393 0.0
C927 C 0.69924 0.90053 0.28861 0.0
C928 C 0.65683 0.93841 0.38542 0.0
H929 H 0.63077 0.93278 0.52995 0.0
C930 C 0.64034 0.95459 0.36061 0.0
C931 C 0.65294 0.93009 0.44693 0.0
C932 C 0.66995 0.91285 0.47685 0.0
C933 C 0.62054 0.96297 0.39568 0.0
C934 C 0.61728 0.95545 0.45816 0.0
C935 C 0.63321 0.93864 0.48224 0.0
C936 C 0.59914 0.96658 0.50096 0.0
C937 C 0.6032 0.97979 0.36522 0.0
C938 C 0.6006 0.98991 0.51327 0.0
C939 C 0.58497 0.00056 0.55597 0.0
C940 C 0.5673 0.98827 0.58811 0.0
C941 C 0.56539 0.96492 0.57491 0.0
C942 C 0.58133 0.95414 0.5322 0.0
H943 H 0.60307 0.97781 0.31352 0.0
H944 H 0.58457 0.97781 0.38302 0.0
H945 H 0.60893 -0.00268 0.37573 0.0
H946 H 0.61434 -0.00011 0.49097 0.0
H947 H 0.58705 0.01855 0.56451 0.0
H948 H 0.54312 0.71338 0.27427 0.0
H949 H 0.54227 0.68205 0.34939 0.0
H950 H 0.46869 0.70035 0.39587 0.0
H951 H 0.46924 0.73122 0.31791 0.0
H952 H 0.53645 0.67458 0.46732 0.0
H953 H 0.4595 0.63621 0.34532 0.0
H954 H 0.4745 0.66069 0.31472 0.0
H955 H 0.45188 0.66395 0.37479 0.0
C956 C 0.52697 0.71116 0.3019 0.0
C957 C 0.5063 0.72492 0.29033 0.0
C958 C 0.52641 0.69305 0.3446 0.0
C959 C 0.50518 0.68817 0.37728 0.0
C960 C 0.4851 0.70315 0.36987 0.0
H961 H 0.46463 0.58969 0.65264 0.0
H962 H 0.47089 0.62214 0.5844 0.0
C963 C 0.48556 0.7212 0.32638 0.0
C964 C 0.50404 0.66696 0.41666 0.0
H965 H 0.47136 0.61907 0.44197 0.0
C966 C 0.52227 0.66242 0.46131 0.0
C967 C 0.48589 0.65061 0.40841 0.0
C968 C 0.46701 0.65294 0.35776 0.0
C969 C 0.52232 0.64263 0.49893 0.0
C970 C 0.50362 0.62692 0.49237 0.0
C971 C 0.48566 0.63117 0.44721 0.0
C972 C 0.50118 0.60697 0.53522 0.0
C973 C 0.54203 0.63883 0.54669 0.0
C974 C 0.51633 0.58745 0.5309 0.0
C975 C 0.51276 0.5685 0.57023 0.0
C976 C 0.4939 0.56873 0.61443 0.0
C977 C 0.4792 0.58859 0.61902 0.0
C978 C 0.48274 0.60731 0.57993 0.0
H979 H 0.55446 0.65333 0.54899 0.0
H980 H 0.53403 0.63615 0.59371 0.0
H981 H 0.55267 0.62322 0.53465 0.0
H982 H 0.53063 0.58673 0.49641 0.0
H983 H 0.52439 0.55357 0.56514 0.0
H984 H 0.78729 0.61822 0.31643 0.0
H985 H 0.81896 0.60753 0.39226 0.0
H986 H 0.82772 0.54229 0.30295 0.0
H987 H 0.79586 0.55285 0.22765 0.0
H988 H 0.82744 0.5627 0.4746 0.0
H989 H 0.89418 0.58052 0.28765 0.0
H990 H 0.86414 0.59312 0.2879 0.0
H991 H 0.86861 0.5639 0.26623 0.0
C992 C 0.79515 0.60118 0.31506 0.0
C993 C 0.78863 0.58611 0.2672 0.0
C994 C 0.81347 0.59521 0.35784 0.0
C995 C 0.82588 0.5742 0.35288 0.0
C996 C 0.81839 0.55859 0.3076 0.0
H997 H 0.94729 0.50061 0.49969 0.0
H998 H 0.91663 0.5199 0.43503 0.0
C999 C 0.79991 0.56448 0.26522 0.0
C1000 C 0.84785 0.56925 0.39132 0.0
H1001 H 0.90927 0.56371 0.38099 0.0
C1002 C 0.84536 0.56314 0.45447 0.0
C1003 C 0.87123 0.57001 0.36504 0.0
C1004 C 0.87492 0.57738 0.2981 0.0
C1005 C 0.86556 0.55678 0.49124 0.0
C1006 C 0.88896 0.55692 0.46449 0.0
C1007 C 0.89143 0.56367 0.40171 0.0
C1008 C 0.91063 0.54788 0.49902 0.0
C1009 C 0.86159 0.54892 0.55766 0.0
C1010 C 0.91859 0.55782 0.55501 0.0
C1011 C 0.93656 0.54694 0.5917 0.0
C1012 C 0.94674 0.52592 0.57299 0.0
C1013 C 0.93995 0.51692 0.51488 0.0
C1014 C 0.92229 0.52787 0.47807 0.0
H1015 H 0.84227 0.54587 0.56751 0.0
H1016 H 0.87214 0.53301 0.56735 0.0
H1017 H 0.86781 0.56215 0.59043 0.0
H1018 H 0.91014 0.57343 0.57177 0.0
H1019 H 0.94109 0.55404 0.63679 0.0
loop_
_geom_bond_atom_site_label_1
_geom_bond_atom_site_label_2
_geom_bond_distance
_geom_bond_site_symmetry_2
_ccdc_geom_bond_type
H0 C3 0.931 . S
H1 C6 0.928 1_556 S
H2 C8 0.930 . S
C3 H0 0.931 . S
C3 C4 1.413 . S
C3 C5 1.360 . S
C4 C3 1.413 . S
C4 C8 1.429 . S
C5 C3 1.360 . S
C5 C6 1.372 . S
C6 H1 0.928 1_554 S
C6 C5 1.372 . S
C6 C7 1.404 . S
C7 C6 1.404 . S
C7 C8 1.391 . S
C8 H2 0.930 . S
C8 C4 1.429 . S
C8 C7 1.391 . S
H9 C12 0.931 . S
H10 C15 0.928 . S
H11 C17 0.930 . S
C12 H9 0.931 . S
C12 C13 1.413 . S
C12 C14 1.360 . S
C13 C12 1.413 . S
C13 C17 1.429 1_655 S
C14 C12 1.360 . S
C14 C15 1.373 . S
C15 H10 0.928 . S
C15 C14 1.373 . S
C15 C16 1.404 . S
C16 C15 1.404 . S
C16 C17 1.390 1_655 S
C17 H11 0.930 . S
C17 C13 1.429 1_455 S
C17 C16 1.390 1_455 S
H18 C21 0.931 . S
H19 C24 0.928 . S
H20 C26 0.930 . S
C21 H18 0.931 . S
C21 C22 1.413 . S
C21 C23 1.360 . S
C22 C21 1.413 . S
C22 C26 1.429 . S
C23 C21 1.360 . S
C23 C24 1.372 . S
C24 H19 0.928 . S
C24 C23 1.372 . S
C24 C25 1.404 . S
C25 C24 1.404 . S
C25 C26 1.391 . S
C26 H20 0.930 . S
C26 C22 1.429 . S
C26 C25 1.391 . S
H27 C30 0.931 . S
H28 C33 0.928 . S
H29 C35 0.930 . S
C30 H27 0.931 . S
C30 C31 1.413 . S
C30 C32 1.360 . S
C31 C30 1.413 . S
C31 C35 1.429 . S
C32 C30 1.360 . S
C32 C33 1.372 . S
C33 H28 0.928 . S
C33 C32 1.372 . S
C33 C34 1.404 . S
C34 C33 1.404 . S
C34 C35 1.391 . S
C35 H29 0.930 . S
C35 C31 1.429 . S
C35 C34 1.391 . S
H36 C39 0.931 . S
H37 C42 0.928 . S
H38 C44 0.930 . S
C39 H36 0.931 . S
C39 C40 1.413 . S
C39 C41 1.360 . S
C40 C39 1.413 . S
C40 C44 1.429 . S
C41 C39 1.360 . S
C41 C42 1.372 . S
C42 H37 0.928 . S
C42 C41 1.372 . S
C42 C43 1.404 . S
C43 C42 1.404 . S
C43 C44 1.391 . S
C44 H38 0.930 . S
C44 C40 1.429 . S
C44 C43 1.391 . S
H45 C48 0.930 . S
H46 C51 0.928 . S
H47 C53 0.929 . S
C48 H45 0.930 . S
C48 C49 1.413 . S
C48 C50 1.360 . S
C49 C48 1.413 . S
C49 C53 1.429 1_655 S
C50 C48 1.360 . S
C50 C51 1.372 . S
C51 H46 0.928 . S
C51 C50 1.372 . S
C51 C52 1.404 . S
C52 C51 1.404 . S
C52 C53 1.391 1_655 S
C53 H47 0.929 . S
C53 C49 1.429 1_455 S
C53 C52 1.391 1_455 S
H54 C57 0.931 . S
H55 C60 0.928 . S
H56 C62 0.930 . S
C57 H54 0.931 . S
C57 C58 1.413 . S
C57 C59 1.360 . S
C58 C57 1.413 . S
C58 C62 1.429 . S
C59 C57 1.360 . S
C59 C60 1.372 . S
C60 H55 0.928 . S
C60 C59 1.372 . S
C60 C61 1.404 . S
C61 C60 1.404 . S
C61 C62 1.391 . S
C62 H56 0.930 . S
C62 C58 1.429 . S
C62 C61 1.391 . S
H63 C66 0.931 . S
H64 C69 0.928 . S
H65 C71 0.930 . S
C66 H63 0.931 . S
C66 C67 1.413 . S
C66 C68 1.360 . S
C67 C66 1.413 . S
C67 C71 1.429 . S
C68 C66 1.360 . S
C68 C69 1.372 . S
C69 H64 0.928 . S
C69 C68 1.372 . S
C69 C70 1.404 . S
C70 C69 1.404 . S
C70 C71 1.391 . S
C71 H65 0.930 . S
C71 C67 1.429 . S
C71 C70 1.391 . S
O72 Mn73 2.163 1_455 S
O72 C86 1.244 . S
Mn73 O72 2.163 1_655 S
Mn73 O76 2.160 1_545 S
Mn73 O77 2.221 1_655 S
Mn73 O79 2.163 1_645 S
Mn73 O81 2.160 . S
Mn73 O91 2.221 . S
O74 Mn75 2.087 . S
O74 C86 1.256 1_655 S
Mn75 O74 2.087 . S
Mn75 O82 2.089 . S
Mn75 O91 2.290 . S
Mn75 O92 2.251 . S
O76 Mn73 2.160 1_565 S
O76 C87 1.239 . S
O77 Mn73 2.221 1_455 S
O77 Mn78 2.290 1_545 S
O77 C88 1.278 . S
Mn78 O77 2.290 1_565 S
Mn78 O80 2.089 . S
Mn78 O83 2.251 . S
Mn78 O84 2.087 . S
O79 Mn73 2.163 1_465 S
O79 C89 1.244 . S
O80 Mn78 2.089 . S
O80 C87 1.256 1_455 S
O81 Mn73 2.160 . S
O81 C90 1.239 . S
O82 Mn75 2.089 . S
O82 C90 1.256 . S
O83 Mn78 2.251 . S
O83 C88 1.241 1_565 S
O84 Mn78 2.087 . S
O84 C89 1.256 . S
C85 O91 1.278 . S
C85 O92 1.241 . S
C86 O72 1.244 . S
C86 O74 1.256 1_455 S
C87 O76 1.239 . S
C87 O80 1.256 1_655 S
C88 O77 1.278 . S
C88 O83 1.241 1_545 S
C89 O79 1.244 . S
C89 O84 1.256 . S
C90 O81 1.239 . S
C90 O82 1.256 . S
O91 Mn73 2.221 . S
O91 Mn75 2.290 . S
O91 C85 1.278 . S
O92 Mn75 2.251 . S
O92 C85 1.241 . S
O93 Mn94 2.163 1_565 S
O93 C107 1.244 1_565 S
Mn94 O93 2.163 1_545 S
Mn94 O97 2.160 . S
Mn94 O98 2.221 1_545 S
Mn94 O100 2.163 . S
Mn94 O102 2.160 1_545 S
Mn94 O112 2.221 . S
O95 Mn96 2.087 . S
O95 C107 1.256 . S
Mn96 O95 2.087 . S
Mn96 O103 2.106 . S
Mn96 O112 2.290 . S
Mn96 O113 2.251 . S
O97 Mn94 2.160 . S
O97 C108 1.239 . S
O98 Mn94 2.221 1_565 S
O98 Mn99 2.290 . S
O98 C109 1.278 . S
Mn99 O98 2.290 . S
Mn99 O101 2.089 1_565 S
Mn99 O104 2.251 . S
Mn99 O105 2.087 1_565 S
O100 Mn94 2.163 . S
O100 C110 1.244 . S
O101 Mn99 2.089 1_545 S
O101 C108 1.256 . S
O102 Mn94 2.160 1_565 S
O102 C111 1.239 . S
O103 Mn96 2.106 . S
O103 C111 1.244 1_545 S
O104 Mn99 2.251 . S
O104 C109 1.241 . S
O105 Mn99 2.087 1_545 S
O105 C110 1.256 . S
C106 O112 1.278 . S
C106 O113 1.241 . S
C107 O93 1.244 1_545 S
C107 O95 1.256 . S
C108 O97 1.239 . S
C108 O101 1.256 . S
C109 O98 1.278 . S
C109 O104 1.241 . S
C110 O100 1.244 . S
C110 O105 1.256 . S
C111 O102 1.239 . S
C111 O103 1.244 1_565 S
O112 Mn94 2.221 . S
O112 Mn96 2.290 . S
O112 C106 1.278 . S
O113 Mn96 2.251 . S
O113 C106 1.241 . S
O114 Mn115 2.163 . S
O114 C128 1.244 . S
Mn115 O114 2.163 . S
Mn115 O118 2.160 . S
Mn115 O119 2.221 . S
Mn115 O121 2.163 . S
Mn115 O123 2.160 . S
Mn115 O133 2.221 . S
O116 Mn117 2.087 . S
O116 C128 1.256 . S
Mn117 O116 2.087 . S
Mn117 O124 2.089 . S
Mn117 O133 2.290 . S
Mn117 O134 2.251 . S
O118 Mn115 2.160 . S
O118 C129 1.239 . S
O119 Mn115 2.221 . S
O119 Mn120 2.290 . S
O119 C130 1.278 . S
Mn120 O119 2.290 . S
Mn120 O122 2.089 . S
Mn120 O125 2.251 . S
Mn120 O126 2.087 . S
O121 Mn115 2.163 . S
O121 C131 1.244 . S
O122 Mn120 2.089 . S
O122 C129 1.256 . S
O123 Mn115 2.160 . S
O123 C132 1.239 . S
O124 Mn117 2.089 . S
O124 C132 1.256 . S
O125 Mn120 2.251 . S
O125 C130 1.241 . S
O126 Mn120 2.087 . S
O126 C131 1.256 . S
C127 O133 1.278 . S
C127 O134 1.241 . S
C128 O114 1.244 . S
C128 O116 1.256 . S
C129 O118 1.239 . S
C129 O122 1.256 . S
C130 O119 1.278 . S
C130 O125 1.241 . S
C131 O121 1.244 . S
C131 O126 1.256 . S
C132 O123 1.239 . S
C132 O124 1.256 . S
O133 Mn115 2.221 . S
O133 Mn117 2.290 . S
O133 C127 1.278 . S
O134 Mn117 2.251 . S
O134 C127 1.241 . S
O135 Mn136 2.163 . S
O135 C149 1.244 . S
Mn136 O135 2.163 . S
Mn136 O139 2.160 1_455 S
Mn136 O140 2.221 1_455 S
Mn136 O142 2.163 1_455 S
Mn136 O144 2.160 . S
Mn136 O154 2.221 . S
O137 Mn138 2.087 . S
O137 C149 1.256 . S
Mn138 O137 2.087 . S
Mn138 O145 2.089 . S
Mn138 O154 2.290 . S
Mn138 O155 2.251 . S
O139 Mn136 2.160 1_655 S
O139 C150 1.239 . S
O140 Mn136 2.221 1_655 S
O140 Mn141 2.290 . S
O140 C151 1.278 . S
Mn141 O140 2.290 . S
Mn141 O143 2.089 . S
Mn141 O146 2.251 . S
Mn141 O147 2.087 . S
O142 Mn136 2.163 1_655 S
O142 C152 1.244 . S
O143 Mn141 2.089 . S
O143 C150 1.256 . S
O144 Mn136 2.160 . S
O144 C153 1.239 . S
O145 Mn138 2.089 . S
O145 C153 1.256 . S
O146 Mn141 2.251 . S
O146 C151 1.241 . S
O147 Mn141 2.087 . S
O147 C152 1.256 . S
C148 O154 1.278 . S
C148 O155 1.241 . S
C149 O135 1.244 . S
C149 O137 1.256 . S
C150 O139 1.239 . S
C150 O143 1.256 . S
C151 O140 1.278 . S
C151 O146 1.241 . S
C152 O142 1.244 . S
C152 O147 1.256 . S
C153 O144 1.239 . S
C153 O145 1.256 . S
O154 Mn136 2.221 . S
O154 Mn138 2.290 . S
O154 C148 1.278 . S
O155 Mn138 2.251 . S
O155 C148 1.241 . S
H156 C164 0.929 . S
H157 C166 0.930 . S
H158 C168 0.930 . S
H159 C171 0.929 . S
H160 C174 0.930 . S
H161 C176 0.960 . S
H162 C176 0.960 . S
H163 C176 0.960 . S
C164 H156 0.929 . S
C164 C165 1.377 . S
C164 C166 1.384 . S
C165 C164 1.377 . S
C165 C171 1.390 . S
C166 H157 0.930 . S
C166 C164 1.384 . S
C166 C167 1.372 . S
C167 C166 1.372 . S
C167 C168 1.400 . S
C167 C172 1.490 . S
C168 H158 0.930 . S
C168 C167 1.400 . S
C168 C171 1.386 . S
H169 C185 0.930 . S
H170 C186 0.931 . S
C171 H159 0.929 . S
C171 C165 1.390 . S
C171 C168 1.386 . S
C172 C167 1.490 . S
C172 C174 1.395 . S
C172 C175 1.403 . S
H173 C179 0.930 . S
C174 H160 0.930 . S
C174 C172 1.395 . S
C174 C177 1.403 . S
C175 C172 1.403 . S
C175 C176 1.524 . S
C175 C179 1.400 . S
C176 H161 0.960 . S
C176 H162 0.960 . S
C176 H163 0.960 . S
C176 C175 1.524 . S
C177 C174 1.403 . S
C177 C178 1.392 . S
C177 C181 1.495 . S
C178 C177 1.392 . S
C178 C179 1.385 . S
C178 C180 1.478 . S
C179 H173 0.930 . S
C179 C175 1.400 . S
C179 C178 1.385 . S
C180 C178 1.478 . S
C180 C182 1.381 . S
C180 C186 1.383 . S
C181 C177 1.495 . S
C181 H187 0.959 . S
C181 H188 0.961 . S
C181 H189 0.960 . S
C182 C180 1.381 . S
C182 C183 1.394 . S
C182 H190 0.930 . S
C183 C182 1.394 . S
C183 C184 1.383 . S
C183 H191 0.929 1_545 S
C184 C183 1.383 . S
C184 C185 1.377 . S
C185 H169 0.930 . S
C185 C184 1.377 . S
C185 C186 1.379 . S
C186 H170 0.931 . S
C186 C180 1.383 . S
C186 C185 1.379 . S
H187 C181 0.959 . S
H188 C181 0.961 . S
H189 C181 0.960 . S
H190 C182 0.930 . S
H191 C183 0.929 1_565 S
H192 C200 0.929 . S
H193 C202 0.930 . S
H194 C204 0.930 . S
H195 C207 0.929 . S
H196 C210 0.930 . S
H197 C212 0.960 . S
H198 C212 0.960 . S
H199 C212 0.960 . S
C200 H192 0.929 . S
C200 C201 1.377 . S
C200 C202 1.384 . S
C201 C200 1.377 . S
C201 C207 1.390 . S
C202 H193 0.930 . S
C202 C200 1.384 . S
C202 C203 1.372 . S
C203 C202 1.372 . S
C203 C204 1.400 . S
C203 C208 1.490 . S
C204 H194 0.930 . S
C204 C203 1.400 . S
C204 C207 1.386 . S
H205 C221 0.930 . S
H206 C222 0.931 . S
C207 H195 0.929 . S
C207 C201 1.390 . S
C207 C204 1.386 . S
C208 C203 1.490 . S
C208 C210 1.395 . S
C208 C211 1.403 . S
H209 C215 0.930 . S
C210 H196 0.930 . S
C210 C208 1.395 . S
C210 C213 1.403 . S
C211 C208 1.403 . S
C211 C212 1.524 . S
C211 C215 1.400 . S
C212 H197 0.960 . S
C212 H198 0.960 . S
C212 H199 0.960 . S
C212 C211 1.524 . S
C213 C210 1.403 . S
C213 C214 1.392 . S
C213 C217 1.495 . S
C214 C213 1.392 . S
C214 C215 1.385 . S
C214 C216 1.478 . S
C215 H209 0.930 . S
C215 C211 1.400 . S
C215 C214 1.385 . S
C216 C214 1.478 . S
C216 C218 1.381 . S
C216 C222 1.383 . S
C217 C213 1.495 . S
C217 H223 0.959 . S
C217 H224 0.961 . S
C217 H225 0.960 . S
C218 C216 1.381 . S
C218 C219 1.394 . S
C218 H226 0.930 . S
C219 C218 1.394 . S
C219 C220 1.383 . S
C219 H227 0.929 . S
C220 C219 1.383 . S
C220 C221 1.377 . S
C221 H205 0.930 . S
C221 C220 1.377 . S
C221 C222 1.379 . S
C222 H206 0.931 . S
C222 C216 1.383 . S
C222 C221 1.379 . S
H223 C217 0.959 . S
H224 C217 0.961 . S
H225 C217 0.960 . S
H226 C218 0.930 . S
H227 C219 0.929 . S
H228 C236 0.929 . S
H229 C238 0.930 . S
H230 C240 0.930 . S
H231 C243 0.929 . S
H232 C246 0.930 . S
H233 C248 0.960 . S
H234 C248 0.960 . S
H235 C248 0.960 . S
C236 H228 0.929 . S
C236 C237 1.377 . S
C236 C238 1.384 . S
C237 C236 1.377 . S
C237 C243 1.390 . S
C238 H229 0.930 . S
C238 C236 1.384 . S
C238 C239 1.372 . S
C239 C238 1.372 . S
C239 C240 1.400 . S
C239 C244 1.490 . S
C240 H230 0.930 . S
C240 C239 1.400 . S
C240 C243 1.386 . S
H241 C257 0.930 . S
H242 C258 0.931 . S
C243 H231 0.929 . S
C243 C237 1.390 . S
C243 C240 1.386 . S
C244 C239 1.490 . S
C244 C246 1.395 . S
C244 C247 1.403 . S
H245 C251 0.930 . S
C246 H232 0.930 . S
C246 C244 1.395 . S
C246 C249 1.403 . S
C247 C244 1.403 . S
C247 C248 1.524 . S
C247 C251 1.400 . S
C248 H233 0.960 . S
C248 H234 0.960 . S
C248 H235 0.960 . S
C248 C247 1.524 . S
C249 C246 1.403 . S
C249 C250 1.392 . S
C249 C253 1.495 . S
C250 C249 1.392 . S
C250 C251 1.385 . S
C250 C252 1.478 . S
C251 H245 0.930 . S
C251 C247 1.400 . S
C251 C250 1.385 . S
C252 C250 1.478 . S
C252 C254 1.381 . S
C252 C258 1.383 . S
C253 C249 1.495 . S
C253 H259 0.959 . S
C253 H260 0.961 . S
C253 H261 0.960 . S
C254 C252 1.381 . S
C254 C255 1.394 . S
C254 H262 0.930 . S
C255 C254 1.394 . S
C255 C256 1.383 . S
C255 H263 0.929 . S
C256 C255 1.383 . S
C256 C257 1.377 . S
C257 H241 0.930 . S
C257 C256 1.377 . S
C257 C258 1.379 . S
C258 H242 0.931 . S
C258 C252 1.383 . S
C258 C257 1.379 . S
H259 C253 0.959 . S
H260 C253 0.961 . S
H261 C253 0.960 . S
H262 C254 0.930 . S
H263 C255 0.929 . S
H264 C272 0.929 . S
H265 C274 0.930 . S
H266 C276 0.930 . S
H267 C279 0.929 . S
H268 C282 0.930 . S
H269 C284 0.960 . S
H270 C284 0.960 . S
H271 C284 0.960 . S
C272 H264 0.929 . S
C272 C273 1.374 1_455 S
C272 C274 1.384 . S
C273 C272 1.374 1_655 S
C273 C279 1.394 . S
C274 H265 0.930 . S
C274 C272 1.384 . S
C274 C275 1.372 1_455 S
C275 C274 1.372 1_655 S
C275 C276 1.400 . S
C275 C280 1.490 . S
C276 H266 0.930 . S
C276 C275 1.400 . S
C276 C279 1.386 . S
H277 C293 0.930 . S
H278 C294 0.931 . S
C279 H267 0.929 . S
C279 C273 1.394 . S
C279 C276 1.386 . S
C280 C275 1.490 . S
C280 C282 1.395 1_655 S
C280 C283 1.403 . S
H281 C287 0.930 . S
C282 H268 0.930 . S
C282 C280 1.395 1_455 S
C282 C285 1.403 . S
C283 C280 1.403 . S
C283 C284 1.524 . S
C283 C287 1.400 . S
C284 H269 0.960 . S
C284 H270 0.960 . S
C284 H271 0.960 . S
C284 C283 1.524 . S
C285 C282 1.403 . S
C285 C286 1.389 . S
C285 C289 1.495 . S
C286 C285 1.389 . S
C286 C287 1.389 1_455 S
C286 C288 1.478 1_455 S
C287 H281 0.930 . S
C287 C283 1.400 . S
C287 C286 1.389 1_655 S
C288 C286 1.478 1_655 S
C288 C290 1.381 1_655 S
C288 C294 1.385 . S
C289 C285 1.495 . S
C289 H295 0.959 . S
C289 H296 0.961 . S
C289 H297 0.960 . S
C290 C288 1.381 1_455 S
C290 C291 1.394 1_455 S
C290 H298 0.930 . S
C291 C290 1.394 1_655 S
C291 C292 1.383 . S
C291 H299 0.929 . S
C292 C291 1.383 . S
C292 C293 1.377 . S
C293 H277 0.930 . S
C293 C292 1.377 . S
C293 C294 1.379 . S
C294 H278 0.931 . S
C294 C288 1.385 . S
C294 C293 1.379 . S
H295 C289 0.959 . S
H296 C289 0.961 . S
H297 C289 0.960 . S
H298 C290 0.930 . S
H299 C291 0.929 . S
H300 C308 0.929 . S
H301 C310 0.930 . S
H302 C312 0.930 . S
H303 C315 0.925 1_556 S
H304 C318 0.930 1_554 S
H305 C320 0.960 . S
H306 C320 0.960 . S
H307 C320 0.960 . S
C308 H300 0.929 . S
C308 C309 1.377 . S
C308 C310 1.384 . S
C309 C308 1.377 . S
C309 C315 1.390 . S
C310 H301 0.930 . S
C310 C308 1.384 . S
C310 C311 1.372 1_554 S
C311 C310 1.372 1_556 S
C311 C312 1.400 . S
C311 C316 1.490 . S
C312 H302 0.930 . S
C312 C311 1.400 . S
C312 C315 1.386 1_556 S
H313 C329 0.930 . S
H314 C330 0.931 . S
C315 H303 0.925 1_554 S
C315 C309 1.390 . S
C315 C312 1.386 1_554 S
C316 C311 1.490 . S
C316 C318 1.395 . S
C316 C319 1.403 . S
H317 C323 0.930 . S
C318 H304 0.930 1_556 S
C318 C316 1.395 . S
C318 C321 1.403 . S
C319 C316 1.403 . S
C319 C320 1.524 . S
C319 C323 1.400 . S
C320 H305 0.960 . S
C320 H306 0.960 . S
C320 H307 0.960 . S
C320 C319 1.524 . S
C321 C318 1.403 . S
C321 C322 1.392 . S
C321 C325 1.495 1_556 S
C322 C321 1.392 . S
C322 C323 1.385 . S
C322 C324 1.478 . S
C323 H317 0.930 . S
C323 C319 1.400 . S
C323 C322 1.385 . S
C324 C322 1.478 . S
C324 C326 1.381 . S
C324 C330 1.383 . S
C325 C321 1.495 1_554 S
C325 H331 0.959 . S
C325 H332 0.961 1_554 S
C325 H333 0.960 . S
C326 C324 1.381 . S
C326 C327 1.396 . S
C326 H334 0.927 . S
C327 C326 1.396 . S
C327 C328 1.386 . S
C327 H335 0.924 1_565 S
C328 C327 1.386 . S
C328 C329 1.377 . S
C329 H313 0.930 . S
C329 C328 1.377 . S
C329 C330 1.379 . S
C330 H314 0.931 . S
C330 C324 1.383 . S
C330 C329 1.379 . S
H331 C325 0.959 . S
H332 C325 0.961 1_556 S
H333 C325 0.960 . S
H334 C326 0.927 . S
H335 C327 0.924 1_545 S
H336 C344 0.929 . S
H337 C346 0.930 . S
H338 C348 0.930 . S
H339 C351 0.929 . S
H340 C354 0.930 . S
H341 C356 0.960 . S
H342 C356 0.960 1_554 S
H343 C356 0.960 . S
C344 H336 0.929 . S
C344 C345 1.377 . S
C344 C346 1.384 . S
C345 C344 1.377 . S
C345 C351 1.390 . S
C346 H337 0.930 . S
C346 C344 1.384 . S
C346 C347 1.372 . S
C347 C346 1.372 . S
C347 C348 1.400 1_554 S
C347 C352 1.490 1_554 S
C348 H338 0.930 . S
C348 C347 1.400 1_556 S
C348 C351 1.386 1_556 S
H349 C365 0.930 . S
H350 C366 0.931 . S
C351 H339 0.929 . S
C351 C345 1.390 . S
C351 C348 1.386 1_554 S
C352 C347 1.490 1_556 S
C352 C354 1.395 . S
C352 C355 1.403 . S
H353 C359 0.930 . S
C354 H340 0.930 . S
C354 C352 1.395 . S
C354 C357 1.403 . S
C355 C352 1.403 . S
C355 C356 1.524 . S
C355 C359 1.400 . S
C356 H341 0.960 . S
C356 H342 0.960 1_556 S
C356 H343 0.960 . S
C356 C355 1.524 . S
C357 C354 1.403 . S
C357 C358 1.392 . S
C357 C361 1.495 . S
C358 C357 1.392 . S
C358 C359 1.385 . S
C358 C360 1.478 . S
C359 H353 0.930 . S
C359 C355 1.400 . S
C359 C358 1.385 . S
C360 C358 1.478 . S
C360 C362 1.381 . S
C360 C366 1.383 . S
C361 C357 1.495 . S
C361 H367 0.959 . S
C361 H368 0.961 . S
C361 H369 0.960 . S
C362 C360 1.381 . S
C362 C363 1.394 . S
C362 H370 0.930 . S
C363 C362 1.394 . S
C363 C364 1.383 . S
C363 H371 0.929 . S
C364 C363 1.383 . S
C364 C365 1.377 . S
C365 H349 0.930 . S
C365 C364 1.377 . S
C365 C366 1.379 . S
C366 H350 0.931 . S
C366 C360 1.383 . S
C366 C365 1.379 . S
H367 C361 0.959 . S
H368 C361 0.961 . S
H369 C361 0.960 . S
H370 C362 0.930 . S
H371 C363 0.929 . S
H372 C380 0.929 . S
H373 C382 0.930 . S
H374 C384 0.930 . S
H375 C387 0.929 . S
H376 C390 0.930 . S
H377 C392 0.960 . S
H378 C392 0.960 . S
H379 C392 0.960 . S
C380 H372 0.929 . S
C380 C381 1.377 1_556 S
C380 C382 1.384 . S
C381 C380 1.377 1_554 S
C381 C387 1.390 . S
C382 H373 0.930 . S
C382 C380 1.384 . S
C382 C383 1.372 . S
C383 C382 1.372 . S
C383 C384 1.400 1_556 S
C383 C388 1.490 . S
C384 H374 0.930 . S
C384 C383 1.400 1_554 S
C384 C387 1.386 . S
H385 C401 0.930 . S
H386 C402 0.931 . S
C387 H375 0.929 . S
C387 C381 1.390 . S
C387 C384 1.386 . S
C388 C383 1.490 . S
C388 C390 1.395 . S
C388 C391 1.403 . S
H389 C395 0.930 . S
C390 H376 0.930 . S
C390 C388 1.395 . S
C390 C393 1.403 . S
C391 C388 1.403 . S
C391 C392 1.524 1_556 S
C391 C395 1.400 . S
C392 H377 0.960 . S
C392 H378 0.960 . S
C392 H379 0.960 . S
C392 C391 1.524 1_554 S
C393 C390 1.403 . S
C393 C394 1.392 . S
C393 C397 1.495 . S
C394 C393 1.392 . S
C394 C395 1.385 . S
C394 C396 1.478 . S
C395 H389 0.930 . S
C395 C391 1.400 . S
C395 C394 1.385 . S
C396 C394 1.478 . S
C396 C398 1.381 . S
C396 C402 1.383 . S
C397 C393 1.495 . S
C397 H403 0.959 . S
C397 H404 0.961 . S
C397 H405 0.960 . S
C398 C396 1.381 . S
C398 C399 1.394 . S
C398 H406 0.930 . S
C399 C398 1.394 . S
C399 C400 1.383 . S
C399 H407 0.929 . S
C400 C399 1.383 . S
C400 C401 1.377 . S
C401 H385 0.930 . S
C401 C400 1.377 . S
C401 C402 1.379 . S
C402 H386 0.931 . S
C402 C396 1.383 . S
C402 C401 1.379 . S
H403 C397 0.959 . S
H404 C397 0.961 . S
H405 C397 0.960 . S
H406 C398 0.930 . S
H407 C399 0.929 . S
H408 C416 0.929 . S
H409 C418 0.930 1_556 S
H410 C420 0.930 . S
H411 C423 0.929 . S
H412 C426 0.930 . S
H413 C428 0.960 . S
H414 C428 0.960 . S
H415 C428 0.960 1_455 S
C416 H408 0.929 . S
C416 C417 1.381 . S
C416 C418 1.384 . S
C417 C416 1.381 . S
C417 C423 1.386 1_655 S
C418 H409 0.930 1_554 S
C418 C416 1.384 . S
C418 C419 1.370 1_655 S
C419 C418 1.370 1_455 S
C419 C420 1.402 . S
C419 C424 1.490 1_554 S
C420 H410 0.930 . S
C420 C419 1.402 . S
C420 C423 1.386 . S
H421 C437 0.930 . S
H422 C438 0.931 . S
C423 H411 0.929 . S
C423 C417 1.386 1_455 S
C423 C420 1.386 . S
C424 C419 1.490 1_556 S
C424 C426 1.400 . S
C424 C427 1.399 1_455 S
H425 C431 0.928 1_655 S
C426 H412 0.930 . S
C426 C424 1.400 . S
C426 C429 1.403 . S
C427 C424 1.399 1_655 S
C427 C428 1.524 1_556 S
C427 C431 1.400 1_655 S
C428 H413 0.960 . S
C428 H414 0.960 . S
C428 H415 0.960 1_655 S
C428 C427 1.524 1_554 S
C429 C426 1.403 . S
C429 C430 1.392 . S
C429 C433 1.495 . S
C430 C429 1.392 . S
C430 C431 1.386 . S
C430 C432 1.478 . S
C431 H425 0.928 1_455 S
C431 C427 1.400 1_455 S
C431 C430 1.386 . S
C432 C430 1.478 . S
C432 C434 1.381 1_455 S
C432 C438 1.383 . S
C433 C429 1.495 . S
C433 H439 0.959 . S
C433 H440 0.961 . S
C433 H441 0.960 1_455 S
C434 C432 1.381 1_655 S
C434 C435 1.394 . S
C434 H442 0.930 . S
C435 C434 1.394 . S
C435 C436 1.383 1_655 S
C435 H443 0.929 . S
C436 C435 1.383 1_455 S
C436 C437 1.377 . S
C437 H421 0.930 . S
C437 C436 1.377 . S
C437 C438 1.379 . S
C438 H422 0.931 . S
C438 C432 1.383 . S
C438 C437 1.379 . S
H439 C433 0.959 . S
H440 C433 0.961 . S
H441 C433 0.960 1_655 S
H442 C434 0.930 . S
H443 C435 0.929 . S
H444 C452 0.929 . S
H445 C454 0.930 . S
H446 C456 0.930 . S
H447 C459 0.929 . S
H448 C462 0.930 . S
H449 C464 0.960 . S
H450 C464 0.960 . S
H451 C464 0.960 1_655 S
C452 H444 0.929 . S
C452 C453 1.377 . S
C452 C454 1.384 . S
C453 C452 1.377 . S
C453 C459 1.390 1_455 S
C454 H445 0.930 . S
C454 C452 1.384 . S
C454 C455 1.372 1_455 S
C455 C454 1.372 1_655 S
C455 C456 1.400 . S
C455 C460 1.490 . S
C456 H446 0.930 . S
C456 C455 1.400 . S
C456 C459 1.386 . S
H457 C473 0.930 . S
H458 C474 0.931 . S
C459 H447 0.929 . S
C459 C453 1.390 1_655 S
C459 C456 1.386 . S
C460 C455 1.490 . S
C460 C462 1.395 . S
C460 C463 1.402 1_655 S
H461 C467 0.933 . S
C462 H448 0.930 . S
C462 C460 1.395 . S
C462 C465 1.403 . S
C463 C460 1.402 1_455 S
C463 C464 1.526 . S
C463 C467 1.399 1_455 S
C464 H449 0.960 . S
C464 H450 0.960 . S
C464 H451 0.960 1_455 S
C464 C463 1.526 . S
C465 C462 1.403 . S
C465 C466 1.392 . S
C465 C469 1.495 . S
C466 C465 1.392 . S
C466 C467 1.385 . S
C466 C468 1.478 . S
C467 H461 0.933 . S
C467 C463 1.399 1_655 S
C467 C466 1.385 . S
C468 C466 1.478 . S
C468 C470 1.381 1_655 S
C468 C474 1.383 . S
C469 C465 1.495 . S
C469 H475 0.959 . S
C469 H476 0.961 . S
C469 H477 0.960 . S
C470 C468 1.381 1_455 S
C470 C471 1.394 1_455 S
C470 H478 0.930 . S
C471 C470 1.394 1_655 S
C471 C472 1.387 . S
C471 H479 0.926 1_655 S
C472 C471 1.387 . S
C472 C473 1.377 . S
C473 H457 0.930 . S
C473 C472 1.377 . S
C473 C474 1.379 . S
C474 H458 0.931 . S
C474 C468 1.383 . S
C474 C473 1.379 . S
H475 C469 0.959 . S
H476 C469 0.961 . S
H477 C469 0.960 . S
H478 C470 0.930 . S
H479 C471 0.926 1_455 S
H480 C488 0.929 . S
H481 C490 0.930 . S
H482 C492 0.930 . S
H483 C495 0.929 . S
H484 C498 0.930 . S
H485 C500 0.960 . S
H486 C500 0.960 . S
H487 C500 0.960 . S
C488 H480 0.929 . S
C488 C489 1.377 . S
C488 C490 1.384 . S
C489 C488 1.377 . S
C489 C495 1.390 . S
C490 H481 0.930 . S
C490 C488 1.384 . S
C490 C491 1.372 . S
C491 C490 1.372 . S
C491 C492 1.400 . S
C491 C496 1.490 . S
C492 H482 0.930 . S
C492 C491 1.400 . S
C492 C495 1.386 . S
H493 C509 0.930 . S
H494 C510 0.931 . S
C495 H483 0.929 . S
C495 C489 1.390 . S
C495 C492 1.386 . S
C496 C491 1.490 . S
C496 C498 1.395 . S
C496 C499 1.403 . S
H497 C503 0.930 . S
C498 H484 0.930 . S
C498 C496 1.395 . S
C498 C501 1.403 . S
C499 C496 1.403 . S
C499 C500 1.524 . S
C499 C503 1.400 . S
C500 H485 0.960 . S
C500 H486 0.960 . S
C500 H487 0.960 . S
C500 C499 1.524 . S
C501 C498 1.403 . S
C501 C502 1.392 . S
C501 C505 1.495 . S
C502 C501 1.392 . S
C502 C503 1.385 . S
C502 C504 1.478 . S
C503 H497 0.930 . S
C503 C499 1.400 . S
C503 C502 1.385 . S
C504 C502 1.478 . S
C504 C506 1.381 . S
C504 C510 1.383 . S
C505 C501 1.495 . S
C505 H511 0.959 . S
C505 H512 0.961 . S
C505 H513 0.960 . S
C506 C504 1.381 . S
C506 C507 1.394 . S
C506 H514 0.930 . S
C507 C506 1.394 . S
C507 C508 1.383 . S
C507 H515 0.929 1_545 S
C508 C507 1.383 . S
C508 C509 1.377 . S
C509 H493 0.930 . S
C509 C508 1.377 . S
C509 C510 1.379 . S
C510 H494 0.931 . S
C510 C504 1.383 . S
C510 C509 1.379 . S
H511 C505 0.959 . S
H512 C505 0.961 . S
H513 C505 0.960 . S
H514 C506 0.930 . S
H515 C507 0.929 1_565 S
H516 C524 0.929 . S
H517 C526 0.930 . S
H518 C528 0.930 . S
H519 C531 0.929 . S
H520 C534 0.930 . S
H521 C536 0.960 . S
H522 C536 0.960 . S
H523 C536 0.960 . S
C524 H516 0.929 . S
C524 C525 1.377 . S
C524 C526 1.384 . S
C525 C524 1.377 . S
C525 C531 1.390 . S
C526 H517 0.930 . S
C526 C524 1.384 . S
C526 C527 1.372 . S
C527 C526 1.372 . S
C527 C528 1.400 . S
C527 C532 1.490 . S
C528 H518 0.930 . S
C528 C527 1.400 . S
C528 C531 1.386 . S
H529 C545 0.930 . S
H530 C546 0.931 . S
C531 H519 0.929 . S
C531 C525 1.390 . S
C531 C528 1.386 . S
C532 C527 1.490 . S
C532 C534 1.395 . S
C532 C535 1.403 . S
H533 C539 0.930 . S
C534 H520 0.930 . S
C534 C532 1.395 . S
C534 C537 1.403 . S
C535 C532 1.403 . S
C535 C536 1.524 . S
C535 C539 1.400 . S
C536 H521 0.960 . S
C536 H522 0.960 . S
C536 H523 0.960 . S
C536 C535 1.524 . S
C537 C534 1.403 . S
C537 C538 1.392 . S
C537 C541 1.495 . S
C538 C537 1.392 . S
C538 C539 1.385 . S
C538 C540 1.478 . S
C539 H533 0.930 . S
C539 C535 1.400 . S
C539 C538 1.385 . S
C540 C538 1.478 . S
C540 C542 1.381 . S
C540 C546 1.383 . S
C541 C537 1.495 . S
C541 H547 0.959 . S
C541 H548 0.961 . S
C541 H549 0.960 . S
C542 C540 1.381 . S
C542 C543 1.394 . S
C542 H550 0.930 . S
C543 C542 1.394 . S
C543 C544 1.383 . S
C543 H551 0.929 . S
C544 C543 1.383 . S
C544 C545 1.377 . S
C545 H529 0.930 . S
C545 C544 1.377 . S
C545 C546 1.379 . S
C546 H530 0.931 . S
C546 C540 1.383 . S
C546 C545 1.379 . S
H547 C541 0.959 . S
H548 C541 0.961 . S
H549 C541 0.960 . S
H550 C542 0.930 . S
H551 C543 0.929 . S
H552 C560 0.929 . S
H553 C562 0.930 . S
H554 C564 0.930 . S
H555 C567 0.929 . S
H556 C570 0.930 . S
H557 C572 0.960 . S
H558 C572 0.960 . S
H559 C572 0.960 . S
C560 H552 0.929 . S
C560 C561 1.377 . S
C560 C562 1.384 . S
C561 C560 1.377 . S
C561 C567 1.390 . S
C562 H553 0.930 . S
C562 C560 1.384 . S
C562 C563 1.372 . S
C563 C562 1.372 . S
C563 C564 1.400 . S
C563 C568 1.490 . S
C564 H554 0.930 . S
C564 C563 1.400 . S
C564 C567 1.386 . S
H565 C581 0.930 . S
H566 C582 0.931 . S
C567 H555 0.929 . S
C567 C561 1.390 . S
C567 C564 1.386 . S
C568 C563 1.490 . S
C568 C570 1.395 . S
C568 C571 1.403 . S
H569 C575 0.930 . S
C570 H556 0.930 . S
C570 C568 1.395 . S
C570 C573 1.403 . S
C571 C568 1.403 . S
C571 C572 1.524 . S
C571 C575 1.400 . S
C572 H557 0.960 . S
C572 H558 0.960 . S
C572 H559 0.960 . S
C572 C571 1.524 . S
C573 C570 1.403 . S
C573 C574 1.392 . S
C573 C577 1.495 . S
C574 C573 1.392 . S
C574 C575 1.385 . S
C574 C576 1.478 . S
C575 H569 0.930 . S
C575 C571 1.400 . S
C575 C574 1.385 . S
C576 C574 1.478 . S
C576 C578 1.381 . S
C576 C582 1.383 . S
C577 C573 1.495 . S
C577 H583 0.959 . S
C577 H584 0.961 . S
C577 H585 0.960 . S
C578 C576 1.381 . S
C578 C579 1.394 . S
C578 H586 0.930 . S
C579 C578 1.394 . S
C579 C580 1.383 . S
C579 H587 0.929 . S
C580 C579 1.383 . S
C580 C581 1.377 . S
C581 H565 0.930 . S
C581 C580 1.377 . S
C581 C582 1.379 . S
C582 H566 0.931 . S
C582 C576 1.383 . S
C582 C581 1.379 . S
H583 C577 0.959 . S
H584 C577 0.961 . S
H585 C577 0.960 . S
H586 C578 0.930 . S
H587 C579 0.929 . S
H588 C596 0.929 . S
H589 C598 0.930 . S
H590 C600 0.930 . S
H591 C603 0.929 . S
H592 C606 0.930 1_554 S
H593 C608 0.960 . S
H594 C608 0.960 1_655 S
H595 C608 0.960 . S
C596 H588 0.929 . S
C596 C597 1.377 . S
C596 C598 1.384 . S
C597 C596 1.377 . S
C597 C603 1.390 1_655 S
C598 H589 0.930 . S
C598 C596 1.384 . S
C598 C599 1.372 1_654 S
C599 C598 1.372 1_456 S
C599 C600 1.400 . S
C599 C604 1.490 . S
C600 H590 0.930 . S
C600 C599 1.400 . S
C600 C603 1.386 1_556 S
H601 C617 0.930 . S
H602 C618 0.931 . S
C603 H591 0.929 . S
C603 C597 1.390 1_455 S
C603 C600 1.386 1_554 S
C604 C599 1.490 . S
C604 C606 1.394 . S
C604 C607 1.403 . S
H605 C611 0.930 . S
C606 H592 0.930 1_556 S
C606 C604 1.394 . S
C606 C609 1.403 . S
C607 C604 1.403 . S
C607 C608 1.524 . S
C607 C611 1.400 . S
C608 H593 0.960 . S
C608 H594 0.960 1_455 S
C608 H595 0.960 . S
C608 C607 1.524 . S
C609 C606 1.403 . S
C609 C610 1.392 . S
C609 C613 1.495 1_556 S
C610 C609 1.392 . S
C610 C611 1.385 . S
C610 C612 1.478 . S
C611 H605 0.930 . S
C611 C607 1.400 . S
C611 C610 1.385 . S
C612 C610 1.478 . S
C612 C614 1.381 1_455 S
C612 C618 1.383 . S
C613 C609 1.495 1_554 S
C613 H619 0.959 . S
C613 H620 0.961 . S
C613 H621 0.960 1_455 S
C614 C612 1.381 1_655 S
C614 C615 1.394 . S
C614 H622 0.930 . S
C615 C614 1.394 . S
C615 C616 1.383 1_655 S
C615 H623 0.929 . S
C616 C615 1.383 1_455 S
C616 C617 1.377 . S
C617 H601 0.930 . S
C617 C616 1.377 . S
C617 C618 1.379 . S
C618 H602 0.931 . S
C618 C612 1.383 . S
C618 C617 1.379 . S
H619 C613 0.959 . S
H620 C613 0.961 . S
H621 C613 0.960 1_655 S
H622 C614 0.930 . S
H623 C615 0.929 . S
H624 C632 0.929 . S
H625 C634 0.930 1_556 S
H626 C636 0.929 1_556 S
H627 C639 0.929 . S
H628 C642 0.930 . S
H629 C644 0.960 . S
H630 C644 0.960 . S
H631 C644 0.960 . S
C632 H624 0.929 . S
C632 C633 1.377 . S
C632 C634 1.384 . S
C633 C632 1.377 . S
C633 C639 1.390 . S
C634 H625 0.930 1_554 S
C634 C632 1.384 . S
C634 C635 1.372 1_554 S
C635 C634 1.372 1_556 S
C635 C636 1.399 1_556 S
C635 C640 1.490 . S
C636 H626 0.929 1_554 S
C636 C635 1.399 1_554 S
C636 C639 1.387 . S
H637 C653 0.930 . S
H638 C654 0.931 . S
C639 H627 0.929 . S
C639 C633 1.390 . S
C639 C636 1.387 . S
C640 C635 1.490 . S
C640 C642 1.395 . S
C640 C643 1.403 . S
H641 C647 0.930 . S
C642 H628 0.930 . S
C642 C640 1.395 . S
C642 C645 1.403 . S
C643 C640 1.403 . S
C643 C644 1.524 1_556 S
C643 C647 1.400 . S
C644 H629 0.960 . S
C644 H630 0.960 . S
C644 H631 0.960 . S
C644 C643 1.524 1_554 S
C645 C642 1.403 . S
C645 C646 1.392 . S
C645 C649 1.495 . S
C646 C645 1.392 . S
C646 C647 1.385 . S
C646 C648 1.478 . S
C647 H641 0.930 . S
C647 C643 1.400 . S
C647 C646 1.385 . S
C648 C646 1.478 . S
C648 C650 1.381 1_565 S
C648 C654 1.383 . S
C649 C645 1.495 . S
C649 H655 0.959 . S
C649 H656 0.961 . S
C649 H657 0.960 . S
C650 C648 1.381 1_545 S
C650 C651 1.394 . S
C650 H658 0.930 . S
C651 C650 1.394 . S
C651 C652 1.383 . S
C651 H659 0.929 . S
C652 C651 1.383 . S
C652 C653 1.377 1_545 S
C653 H637 0.930 . S
C653 C652 1.377 1_565 S
C653 C654 1.379 . S
C654 H638 0.931 . S
C654 C648 1.383 . S
C654 C653 1.379 . S
H655 C649 0.959 . S
H656 C649 0.961 . S
H657 C649 0.960 . S
H658 C650 0.930 . S
H659 C651 0.929 . S
H660 C668 0.929 1_556 S
H661 C670 0.930 . S
H662 C672 0.930 . S
H663 C675 0.929 . S
H664 C678 0.930 . S
H665 C680 0.960 . S
H666 C680 0.960 . S
H667 C680 0.960 . S
C668 H660 0.929 1_554 S
C668 C669 1.377 . S
C668 C670 1.384 1_554 S
C669 C668 1.377 . S
C669 C675 1.390 . S
C670 H661 0.930 . S
C670 C668 1.384 1_556 S
C670 C671 1.372 . S
C671 C670 1.372 . S
C671 C672 1.400 1_556 S
C671 C676 1.490 . S
C672 H662 0.930 . S
C672 C671 1.400 1_554 S
C672 C675 1.386 . S
H673 C689 0.930 . S
H674 C690 0.931 . S
C675 H663 0.929 . S
C675 C669 1.390 . S
C675 C672 1.386 . S
C676 C671 1.490 . S
C676 C678 1.395 . S
C676 C679 1.403 . S
H677 C683 0.930 . S
C678 H664 0.930 . S
C678 C676 1.395 . S
C678 C681 1.403 . S
C679 C676 1.403 . S
C679 C680 1.524 1_556 S
C679 C683 1.400 . S
C680 H665 0.960 . S
C680 H666 0.960 . S
C680 H667 0.960 . S
C680 C679 1.524 1_554 S
C681 C678 1.403 . S
C681 C682 1.392 . S
C681 C685 1.495 . S
C682 C681 1.392 . S
C682 C683 1.385 . S
C682 C684 1.478 . S
C683 H677 0.930 . S
C683 C679 1.400 . S
C683 C682 1.385 . S
C684 C682 1.478 . S
C684 C686 1.381 . S
C684 C690 1.383 . S
C685 C681 1.495 . S
C685 H691 0.959 . S
C685 H692 0.961 . S
C685 H693 0.960 . S
C686 C684 1.381 . S
C686 C687 1.394 . S
C686 H694 0.930 . S
C687 C686 1.394 . S
C687 C688 1.383 . S
C687 H695 0.929 . S
C688 C687 1.383 . S
C688 C689 1.377 . S
C689 H673 0.930 . S
C689 C688 1.377 . S
C689 C690 1.379 . S
C690 H674 0.931 . S
C690 C684 1.383 . S
C690 C689 1.379 . S
H691 C685 0.959 . S
H692 C685 0.961 . S
H693 C685 0.960 . S
H694 C686 0.930 . S
H695 C687 0.929 . S
H696 C704 0.929 . S
H697 C706 0.930 . S
H698 C708 0.930 . S
H699 C711 0.929 . S
H700 C714 0.930 . S
H701 C716 0.960 . S
H702 C716 0.960 . S
H703 C716 0.960 . S
C704 H696 0.929 . S
C704 C705 1.377 . S
C704 C706 1.384 . S
C705 C704 1.377 . S
C705 C711 1.390 1_554 S
C706 H697 0.930 . S
C706 C704 1.384 . S
C706 C707 1.372 1_554 S
C707 C706 1.372 1_556 S
C707 C708 1.400 . S
C707 C712 1.490 . S
C708 H698 0.930 . S
C708 C707 1.400 . S
C708 C711 1.386 . S
H709 C725 0.930 . S
H710 C726 0.931 . S
C711 H699 0.929 . S
C711 C705 1.390 1_556 S
C711 C708 1.386 . S
C712 C707 1.490 . S
C712 C714 1.395 . S
C712 C715 1.403 . S
H713 C719 0.930 . S
C714 H700 0.930 . S
C714 C712 1.395 . S
C714 C717 1.403 . S
C715 C712 1.403 . S
C715 C716 1.524 . S
C715 C719 1.400 . S
C716 H701 0.960 . S
C716 H702 0.960 . S
C716 H703 0.960 . S
C716 C715 1.524 . S
C717 C714 1.403 . S
C717 C718 1.392 . S
C717 C721 1.495 . S
C718 C717 1.392 . S
C718 C719 1.385 . S
C718 C720 1.478 . S
C719 H713 0.930 . S
C719 C715 1.400 . S
C719 C718 1.385 . S
C720 C718 1.478 . S
C720 C722 1.381 . S
C720 C726 1.383 . S
C721 C717 1.495 . S
C721 H727 0.959 . S
C721 H728 0.961 . S
C721 H729 0.960 . S
C722 C720 1.381 . S
C722 C723 1.394 . S
C722 H730 0.930 . S
C723 C722 1.394 . S
C723 C724 1.383 . S
C723 H731 0.929 . S
C724 C723 1.383 . S
C724 C725 1.377 . S
C725 H709 0.930 . S
C725 C724 1.377 . S
C725 C726 1.379 . S
C726 H710 0.931 . S
C726 C720 1.383 . S
C726 C725 1.379 . S
H727 C721 0.959 . S
H728 C721 0.961 . S
H729 C721 0.960 . S
H730 C722 0.930 . S
H731 C723 0.929 . S
H732 C740 0.929 . S
H733 C742 0.930 . S
H734 C744 0.930 . S
H735 C747 0.929 . S
H736 C750 0.930 . S
H737 C752 0.960 . S
H738 C752 0.960 . S
H739 C752 0.960 . S
C740 H732 0.929 . S
C740 C741 1.376 1_655 S
C740 C742 1.384 . S
C741 C740 1.376 1_455 S
C741 C747 1.391 . S
C742 H733 0.930 . S
C742 C740 1.384 . S
C742 C743 1.372 1_655 S
C743 C742 1.372 1_455 S
C743 C744 1.400 . S
C743 C748 1.490 . S
C744 H734 0.930 . S
C744 C743 1.400 . S
C744 C747 1.386 . S
H745 C761 0.930 . S
H746 C762 0.931 . S
C747 H735 0.929 . S
C747 C741 1.391 . S
C747 C744 1.386 . S
C748 C743 1.490 . S
C748 C750 1.395 . S
C748 C751 1.403 1_455 S
H749 C755 0.930 . S
C750 H736 0.930 . S
C750 C748 1.395 . S
C750 C753 1.403 1_554 S
C751 C748 1.403 1_655 S
C751 C752 1.524 . S
C751 C755 1.400 . S
C752 H737 0.960 . S
C752 H738 0.960 . S
C752 H739 0.960 . S
C752 C751 1.524 . S
C753 C750 1.403 1_556 S
C753 C754 1.392 . S
C753 C757 1.495 . S
C754 C753 1.392 . S
C754 C755 1.385 1_456 S
C754 C756 1.478 . S
C755 H749 0.930 . S
C755 C751 1.400 . S
C755 C754 1.385 1_654 S
C756 C754 1.478 . S
C756 C758 1.381 . S
C756 C762 1.383 . S
C757 C753 1.495 . S
C757 H763 0.959 . S
C757 H764 0.961 . S
C757 H765 0.960 . S
C758 C756 1.381 . S
C758 C759 1.394 . S
C758 H766 0.930 . S
C759 C758 1.394 . S
C759 C760 1.383 . S
C759 H767 0.929 . S
C760 C759 1.383 . S
C760 C761 1.377 . S
C761 H745 0.930 . S
C761 C760 1.377 . S
C761 C762 1.379 . S
C762 H746 0.931 . S
C762 C756 1.383 . S
C762 C761 1.379 . S
H763 C757 0.959 . S
H764 C757 0.961 . S
H765 C757 0.960 . S
H766 C758 0.930 . S
H767 C759 0.929 . S
H768 C776 0.929 . S
H769 C778 0.930 . S
H770 C780 0.930 . S
H771 C783 0.929 . S
H772 C786 0.930 . S
H773 C788 0.960 . S
H774 C788 0.960 1_554 S
H775 C788 0.960 . S
C776 H768 0.929 . S
C776 C777 1.377 . S
C776 C778 1.384 . S
C777 C776 1.377 . S
C777 C783 1.390 . S
C778 H769 0.930 . S
C778 C776 1.384 . S
C778 C779 1.372 . S
C779 C778 1.372 . S
C779 C780 1.400 . S
C779 C784 1.490 . S
C780 H770 0.930 . S
C780 C779 1.400 . S
C780 C783 1.386 . S
H781 C797 0.930 . S
H782 C798 0.931 . S
C783 H771 0.929 . S
C783 C777 1.390 . S
C783 C780 1.386 . S
C784 C779 1.490 . S
C784 C786 1.395 . S
C784 C787 1.403 . S
H785 C791 0.930 . S
C786 H772 0.930 . S
C786 C784 1.395 . S
C786 C789 1.403 . S
C787 C784 1.403 . S
C787 C788 1.524 1_554 S
C787 C791 1.400 1_554 S
C788 H773 0.960 . S
C788 H774 0.960 1_556 S
C788 H775 0.960 . S
C788 C787 1.524 1_556 S
C789 C786 1.403 . S
C789 C790 1.391 1_554 S
C789 C793 1.495 . S
C790 C789 1.391 1_556 S
C790 C791 1.386 . S
C790 C792 1.478 . S
C791 H785 0.930 . S
C791 C787 1.400 1_556 S
C791 C790 1.386 . S
C792 C790 1.478 . S
C792 C794 1.381 . S
C792 C798 1.383 . S
C793 C789 1.495 . S
C793 H799 0.959 . S
C793 H800 0.961 . S
C793 H801 0.960 . S
C794 C792 1.381 . S
C794 C795 1.394 . S
C794 H802 0.930 . S
C795 C794 1.394 . S
C795 C796 1.383 . S
C795 H803 0.929 . S
C796 C795 1.383 . S
C796 C797 1.377 . S
C797 H781 0.930 . S
C797 C796 1.377 . S
C797 C798 1.379 . S
C798 H782 0.931 . S
C798 C792 1.383 . S
C798 C797 1.379 . S
H799 C793 0.959 . S
H800 C793 0.961 . S
H801 C793 0.960 . S
H802 C794 0.930 . S
H803 C795 0.929 . S
H804 C812 0.929 . S
H805 C814 0.930 . S
H806 C816 0.930 . S
H807 C819 0.929 . S
H808 C822 0.930 1_556 S
H809 C824 0.960 . S
H810 C824 0.960 . S
H811 C824 0.960 . S
C812 H804 0.929 . S
C812 C813 1.377 . S
C812 C814 1.384 . S
C813 C812 1.377 . S
C813 C819 1.390 . S
C814 H805 0.930 . S
C814 C812 1.384 . S
C814 C815 1.372 . S
C815 C814 1.372 . S
C815 C816 1.400 . S
C815 C820 1.490 . S
C816 H806 0.930 . S
C816 C815 1.400 . S
C816 C819 1.386 . S
H817 C833 0.930 . S
H818 C834 0.931 . S
C819 H807 0.929 . S
C819 C813 1.390 . S
C819 C816 1.386 . S
C820 C815 1.490 . S
C820 C822 1.395 . S
C820 C823 1.403 . S
H821 C827 0.930 . S
C822 H808 0.930 1_554 S
C822 C820 1.395 . S
C822 C825 1.403 1_554 S
C823 C820 1.403 . S
C823 C824 1.524 . S
C823 C827 1.400 . S
C824 H809 0.960 . S
C824 H810 0.960 . S
C824 H811 0.960 . S
C824 C823 1.524 . S
C825 C822 1.403 1_556 S
C825 C826 1.392 . S
C825 C829 1.495 . S
C826 C825 1.392 . S
C826 C827 1.385 1_556 S
C826 C828 1.478 . S
C827 H821 0.930 . S
C827 C823 1.400 . S
C827 C826 1.385 1_554 S
C828 C826 1.478 . S
C828 C830 1.381 . S
C828 C834 1.383 . S
C829 C825 1.495 . S
C829 H835 0.959 . S
C829 H836 0.961 . S
C829 H837 0.960 . S
C830 C828 1.381 . S
C830 C831 1.394 . S
C830 H838 0.930 . S
C831 C830 1.394 . S
C831 C832 1.383 . S
C831 H839 0.929 . S
C832 C831 1.383 . S
C832 C833 1.377 . S
C833 H817 0.930 . S
C833 C832 1.377 . S
C833 C834 1.379 . S
C834 H818 0.931 . S
C834 C828 1.383 . S
C834 C833 1.379 . S
H835 C829 0.959 . S
H836 C829 0.961 . S
H837 C829 0.960 . S
H838 C830 0.930 . S
H839 C831 0.929 . S
H840 C848 0.929 . S
H841 C850 0.930 . S
H842 C852 0.930 . S
H843 C855 0.929 . S
H844 C858 0.930 . S
H845 C860 0.960 . S
H846 C860 0.960 . S
H847 C860 0.960 . S
C848 H840 0.929 . S
C848 C849 1.377 . S
C848 C850 1.384 . S
C849 C848 1.377 . S
C849 C855 1.390 . S
C850 H841 0.930 . S
C850 C848 1.384 . S
C850 C851 1.372 . S
C851 C850 1.372 . S
C851 C852 1.400 . S
C851 C856 1.490 . S
C852 H842 0.930 . S
C852 C851 1.400 . S
C852 C855 1.386 . S
H853 C869 0.930 . S
H854 C870 0.931 1_554 S
C855 H843 0.929 . S
C855 C849 1.390 . S
C855 C852 1.386 . S
C856 C851 1.490 . S
C856 C858 1.395 . S
C856 C859 1.403 . S
H857 C863 0.930 . S
C858 H844 0.930 . S
C858 C856 1.395 . S
C858 C861 1.403 . S
C859 C856 1.403 . S
C859 C860 1.524 . S
C859 C863 1.400 . S
C860 H845 0.960 . S
C860 H846 0.960 . S
C860 H847 0.960 . S
C860 C859 1.524 . S
C861 C858 1.403 . S
C861 C862 1.392 1_554 S
C861 C865 1.495 1_554 S
C862 C861 1.392 1_556 S
C862 C863 1.385 1_556 S
C862 C864 1.478 . S
C863 H857 0.930 . S
C863 C859 1.400 . S
C863 C862 1.385 1_554 S
C864 C862 1.478 . S
C864 C866 1.381 . S
C864 C870 1.383 . S
C865 C861 1.495 1_556 S
C865 H871 0.959 . S
C865 H872 0.961 . S
C865 H873 0.960 . S
C866 C864 1.381 . S
C866 C867 1.394 . S
C866 H874 0.930 . S
C867 C866 1.394 . S
C867 C868 1.383 . S
C867 H875 0.929 . S
C868 C867 1.383 . S
C868 C869 1.377 . S
C869 H853 0.930 . S
C869 C868 1.377 . S
C869 C870 1.379 . S
C870 H854 0.931 1_556 S
C870 C864 1.383 . S
C870 C869 1.379 . S
H871 C865 0.959 . S
H872 C865 0.961 . S
H873 C865 0.960 . S
H874 C866 0.930 . S
H875 C867 0.929 . S
H876 C884 0.929 . S
H877 C886 0.930 . S
H878 C888 0.930 . S
H879 C891 0.929 . S
H880 C894 0.930 . S
H881 C896 0.960 . S
H882 C896 0.960 1_655 S
H883 C896 0.960 . S
C884 H876 0.929 . S
C884 C885 1.416 . S
C884 C886 1.384 . S
C885 C884 1.416 . S
C885 C891 1.353 1_655 S
C886 H877 0.930 . S
C886 C884 1.384 . S
C886 C887 1.372 . S
C887 C886 1.372 . S
C887 C888 1.400 1_655 S
C887 C892 1.490 . S
C888 H878 0.930 . S
C888 C887 1.400 1_455 S
C888 C891 1.386 . S
H889 C905 0.930 . S
H890 C906 0.931 . S
C891 H879 0.929 . S
C891 C885 1.353 1_455 S
C891 C888 1.386 . S
C892 C887 1.490 . S
C892 C894 1.395 . S
C892 C895 1.403 . S
H893 C899 0.937 . S
C894 H880 0.930 . S
C894 C892 1.395 . S
C894 C897 1.403 . S
C895 C892 1.403 . S
C895 C896 1.524 1_655 S
C895 C899 1.400 . S
C896 H881 0.960 . S
C896 H882 0.960 1_455 S
C896 H883 0.960 . S
C896 C895 1.524 1_455 S
C897 C894 1.403 . S
C897 C898 1.392 . S
C897 C901 1.495 . S
C898 C897 1.392 . S
C898 C899 1.385 . S
C898 C900 1.478 . S
C899 H893 0.937 . S
C899 C895 1.400 . S
C899 C898 1.385 . S
C900 C898 1.478 . S
C900 C902 1.381 . S
C900 C906 1.383 1_655 S
C901 C897 1.495 . S
C901 H907 0.959 . S
C901 H908 0.961 . S
C901 H909 0.960 . S
C902 C900 1.381 . S
C902 C903 1.394 . S
C902 H910 0.930 . S
C903 C902 1.394 . S
C903 C904 1.383 . S
C903 H911 0.929 . S
C904 C903 1.383 . S
C904 C905 1.377 1_655 S
C905 H889 0.930 . S
C905 C904 1.377 1_455 S
C905 C906 1.379 . S
C906 H890 0.931 . S
C906 C900 1.383 1_455 S
C906 C905 1.379 . S
H907 C901 0.959 . S
H908 C901 0.961 . S
H909 C901 0.960 . S
H910 C902 0.930 . S
H911 C903 0.929 . S
H912 C920 0.929 . S
H913 C922 0.930 . S
H914 C924 0.930 . S
H915 C927 0.929 . S
H916 C930 0.930 . S
H917 C932 0.960 . S
H918 C932 0.960 . S
H919 C932 0.960 . S
C920 H912 0.929 . S
C920 C921 1.377 . S
C920 C922 1.384 . S
C921 C920 1.377 . S
C921 C927 1.390 . S
C922 H913 0.930 . S
C922 C920 1.384 . S
C922 C923 1.372 . S
C923 C922 1.372 . S
C923 C924 1.400 . S
C923 C928 1.490 . S
C924 H914 0.930 . S
C924 C923 1.400 . S
C924 C927 1.386 . S
H925 C941 0.930 . S
H926 C942 0.931 . S
C927 H915 0.929 . S
C927 C921 1.390 . S
C927 C924 1.386 . S
C928 C923 1.490 . S
C928 C930 1.395 . S
C928 C931 1.403 . S
H929 C935 0.930 . S
C930 H916 0.930 . S
C930 C928 1.395 . S
C930 C933 1.403 . S
C931 C928 1.403 . S
C931 C932 1.524 . S
C931 C935 1.400 . S
C932 H917 0.960 . S
C932 H918 0.960 . S
C932 H919 0.960 . S
C932 C931 1.524 . S
C933 C930 1.403 . S
C933 C934 1.392 . S
C933 C937 1.495 . S
C934 C933 1.392 . S
C934 C935 1.385 . S
C934 C936 1.478 . S
C935 H929 0.930 . S
C935 C931 1.400 . S
C935 C934 1.385 . S
C936 C934 1.478 . S
C936 C938 1.381 . S
C936 C942 1.383 . S
C937 C933 1.495 . S
C937 H943 0.959 . S
C937 H944 0.961 . S
C937 H945 0.960 . S
C938 C936 1.381 . S
C938 C939 1.394 . S
C938 H946 0.930 . S
C939 C938 1.394 . S
C939 C940 1.383 . S
C939 H947 0.929 1_565 S
C940 C939 1.383 . S
C940 C941 1.377 . S
C941 H925 0.930 . S
C941 C940 1.377 . S
C941 C942 1.379 . S
C942 H926 0.931 . S
C942 C936 1.383 . S
C942 C941 1.379 . S
H943 C937 0.959 . S
H944 C937 0.961 . S
H945 C937 0.960 . S
H946 C938 0.930 . S
H947 C939 0.929 1_545 S
H948 C956 0.929 . S
H949 C958 0.930 . S
H950 C960 0.930 . S
H951 C963 0.929 . S
H952 C966 0.930 . S
H953 C968 0.960 . S
H954 C968 0.960 . S
H955 C968 0.960 . S
C956 H948 0.929 . S
C956 C957 1.377 . S
C956 C958 1.384 . S
C957 C956 1.377 . S
C957 C963 1.390 . S
C958 H949 0.930 . S
C958 C956 1.384 . S
C958 C959 1.372 . S
C959 C958 1.372 . S
C959 C960 1.400 . S
C959 C964 1.490 . S
C960 H950 0.930 . S
C960 C959 1.400 . S
C960 C963 1.386 . S
H961 C977 0.930 . S
H962 C978 0.931 . S
C963 H951 0.929 . S
C963 C957 1.390 . S
C963 C960 1.386 . S
C964 C959 1.490 . S
C964 C966 1.395 . S
C964 C967 1.403 . S
H965 C971 0.930 . S
C966 H952 0.930 . S
C966 C964 1.395 . S
C966 C969 1.403 . S
C967 C964 1.403 . S
C967 C968 1.524 . S
C967 C971 1.400 . S
C968 H953 0.960 . S
C968 H954 0.960 . S
C968 H955 0.960 . S
C968 C967 1.524 . S
C969 C966 1.403 . S
C969 C970 1.392 . S
C969 C973 1.495 . S
C970 C969 1.392 . S
C970 C971 1.385 . S
C970 C972 1.478 . S
C971 H965 0.930 . S
C971 C967 1.400 . S
C971 C970 1.385 . S
C972 C970 1.478 . S
C972 C974 1.381 . S
C972 C978 1.383 . S
C973 C969 1.495 . S
C973 H979 0.959 . S
C973 H980 0.961 . S
C973 H981 0.960 . S
C974 C972 1.381 . S
C974 C975 1.394 . S
C974 H982 0.930 . S
C975 C974 1.394 . S
C975 C976 1.383 . S
C975 H983 0.929 . S
C976 C975 1.383 . S
C976 C977 1.377 . S
C977 H961 0.930 . S
C977 C976 1.377 . S
C977 C978 1.379 . S
C978 H962 0.931 . S
C978 C972 1.383 . S
C978 C977 1.379 . S
H979 C973 0.959 . S
H980 C973 0.961 . S
H981 C973 0.960 . S
H982 C974 0.930 . S
H983 C975 0.929 . S
H984 C992 0.929 . S
H985 C994 0.930 . S
H986 C996 0.930 . S
H987 C999 0.929 . S
H988 C1002 0.930 . S
H989 C1004 0.960 . S
H990 C1004 0.960 . S
H991 C1004 0.960 . S
C992 H984 0.929 . S
C992 C993 1.377 . S
C992 C994 1.384 . S
C993 C992 1.377 . S
C993 C999 1.390 . S
C994 H985 0.930 . S
C994 C992 1.384 . S
C994 C995 1.372 . S
C995 C994 1.372 . S
C995 C996 1.400 . S
C995 C1000 1.490 . S
C996 H986 0.930 . S
C996 C995 1.400 . S
C996 C999 1.386 . S
H997 C1013 0.930 . S
H998 C1014 0.931 . S
C999 H987 0.929 . S
C999 C993 1.390 . S
C999 C996 1.386 . S
C1000 C995 1.490 . S
C1000 C1002 1.395 . S
C1000 C1003 1.403 . S
H1001 C1007 0.930 . S
C1002 H988 0.930 . S
C1002 C1000 1.395 . S
C1002 C1005 1.403 . S
C1003 C1000 1.403 . S
C1003 C1004 1.524 . S
C1003 C1007 1.400 . S
C1004 H989 0.960 . S
C1004 H990 0.960 . S
C1004 H991 0.960 . S
C1004 C1003 1.524 . S
C1005 C1002 1.403 . S
C1005 C1006 1.392 . S
C1005 C1009 1.495 . S
C1006 C1005 1.392 . S
C1006 C1007 1.385 . S
C1006 C1008 1.478 . S
C1007 H1001 0.930 . S
C1007 C1003 1.400 . S
C1007 C1006 1.385 . S
C1008 C1006 1.478 . S
C1008 C1010 1.381 . S
C1008 C1014 1.383 . S
C1009 C1005 1.495 . S
C1009 H1015 0.959 . S
C1009 H1016 0.961 . S
C1009 H1017 0.960 . S
C1010 C1008 1.381 . S
C1010 C1011 1.394 . S
C1010 H1018 0.930 . S
C1011 C1010 1.394 . S
C1011 C1012 1.383 . S
C1011 H1019 0.929 . S
C1012 C1011 1.383 . S
C1012 C1013 1.377 . S
C1013 H997 0.930 . S
C1013 C1012 1.377 . S
C1013 C1014 1.379 . S
C1014 H998 0.931 . S
C1014 C1008 1.383 . S
C1014 C1013 1.379 . S
H1015 C1009 0.959 . S
H1016 C1009 0.961 . S
H1017 C1009 0.960 . S
H1018 C1010 0.930 . S
H1019 C1011 0.929 . S
C165 C61 1.641 . S
C184 C88 1.514 . S
C220 C106 1.285 . S
C201 C70 1.402 . S
C256 C127 1.466 . S
C237 C43 1.636 . S
C292 C151 1.311 . S
C273 C52 1.413 . S
C328 C85 1.424 1_565 S
C309 C25 1.557 . S
C345 C34 1.310 . S
C364 C109 1.210 . S
C381 C7 1.551 . S
C400 C130 1.389 . S
C417 C16 1.319 . S
C436 C148 1.190 . S
C472 C90 0.223 . S
C453 C50 0.234 1_455 S
C508 C108 0.409 . S
C489 C59 0.404 . S
C544 C129 0.409 . S
C525 C67 0.206 . S
C561 C41 0.451 . S
C580 C153 0.296 . S
C597 C14 0.247 . S
C616 C89 0.334 . S
C652 C107 0.257 . S
C633 C23 0.389 . S
C688 C128 0.275 . S
C669 C31 0.243 . S
C705 C5 0.405 . S
C724 C152 0.306 . S
C741 C49 1.512 1_455 S
C760 C86 1.501 . S
C777 C58 1.692 . S
C796 C110 1.650 . S
C832 C131 1.458 . S
C813 C68 1.482 . S
C868 C149 1.713 . S
C849 C40 1.716 . S
C885 C13 1.358 . S
C904 C87 1.329 . S
C940 C111 1.514 . S
C921 C22 1.550 . S
C976 C132 1.334 . S
C957 C32 1.331 . S
C993 C4 1.570 . S
C1012 C150 1.515 . S
