# Generated by pormake.
# Topology tbo, (3,4)-cn, num edge types: 1
# Building blocks:
#     Node 0, Type 0, BuildingBlock: VETTIZ_charged_linker_0, # of connection points: 3
#     Node 1, Type 0, BuildingBlock: VETTIZ_charged_linker_0, # of connection points: 3
#     Node 2, Type 0, BuildingBlock: VETTIZ_charged_linker_0, # of connection points: 3
#     Node 3, Type 0, BuildingBlock: VETTIZ_charged_linker_0, # of connection points: 3
#     Node 4, Type 0, BuildingBlock: VETTIZ_charged_linker_0, # of connection points: 3
#     Node 5, Type 0, BuildingBlock: VETTIZ_charged_linker_0, # of connection points: 3
#     Node 6, Type 0, BuildingBlock: VETTIZ_charged_linker_0, # of connection points: 3
#     Node 7, Type 0, BuildingBlock: VETTIZ_charged_linker_0, # of connection points: 3
#     Node 8, Type 0, BuildingBlock: VETTIZ_charged_linker_0, # of connection points: 3
#     Node 9, Type 0, BuildingBlock: VETTIZ_charged_linker_0, # of connection points: 3
#     Node 10, Type 0, BuildingBlock: VETTIZ_charged_linker_0, # of connection points: 3
#     Node 11, Type 0, BuildingBlock: VETTIZ_charged_linker_0, # of connection points: 3
#     Node 12, Type 0, BuildingBlock: VETTIZ_charged_linker_0, # of connection points: 3
#     Node 13, Type 0, BuildingBlock: VETTIZ_charged_linker_0, # of connection points: 3
#     Node 14, Type 0, BuildingBlock: VETTIZ_charged_linker_0, # of connection points: 3
#     Node 15, Type 0, BuildingBlock: VETTIZ_charged_linker_0, # of connection points: 3
#     Node 16, Type 0, BuildingBlock: VETTIZ_charged_linker_0, # of connection points: 3
#     Node 17, Type 0, BuildingBlock: VETTIZ_charged_linker_0, # of connection points: 3
#     Node 18, Type 0, BuildingBlock: VETTIZ_charged_linker_0, # of connection points: 3
#     Node 19, Type 0, BuildingBlock: VETTIZ_charged_linker_0, # of connection points: 3
#     Node 20, Type 0, BuildingBlock: VETTIZ_charged_linker_0, # of connection points: 3
#     Node 21, Type 0, BuildingBlock: VETTIZ_charged_linker_0, # of connection points: 3
#     Node 22, Type 0, BuildingBlock: VETTIZ_charged_linker_0, # of connection points: 3
#     Node 23, Type 0, BuildingBlock: VETTIZ_charged_linker_0, # of connection points: 3
#     Node 24, Type 0, BuildingBlock: VETTIZ_charged_linker_0, # of connection points: 3
#     Node 25, Type 0, BuildingBlock: VETTIZ_charged_linker_0, # of connection points: 3
#     Node 26, Type 0, BuildingBlock: VETTIZ_charged_linker_0, # of connection points: 3
#     Node 27, Type 0, BuildingBlock: VETTIZ_charged_linker_0, # of connection points: 3
#     Node 28, Type 0, BuildingBlock: VETTIZ_charged_linker_0, # of connection points: 3
#     Node 29, Type 0, BuildingBlock: VETTIZ_charged_linker_0, # of connection points: 3
#     Node 30, Type 0, BuildingBlock: VETTIZ_charged_linker_0, # of connection points: 3
#     Node 31, Type 0, BuildingBlock: VETTIZ_charged_linker_0, # of connection points: 3
#     Node 32, Type 1, BuildingBlock: ESEHIV_clean_sbu_0, # of connection points: 4
#     Node 33, Type 1, BuildingBlock: ESEHIV_clean_sbu_0, # of connection points: 4
#     Node 34, Type 1, BuildingBlock: ESEHIV_clean_sbu_0, # of connection points: 4
#     Node 35, Type 1, BuildingBlock: ESEHIV_clean_sbu_0, # of connection points: 4
#     Node 36, Type 1, BuildingBlock: ESEHIV_clean_sbu_0, # of connection points: 4
#     Node 37, Type 1, BuildingBlock: ESEHIV_clean_sbu_0, # of connection points: 4
#     Node 38, Type 1, BuildingBlock: ESEHIV_clean_sbu_0, # of connection points: 4
#     Node 39, Type 1, BuildingBlock: ESEHIV_clean_sbu_0, # of connection points: 4
#     Node 40, Type 1, BuildingBlock: ESEHIV_clean_sbu_0, # of connection points: 4
#     Node 41, Type 1, BuildingBlock: ESEHIV_clean_sbu_0, # of connection points: 4
#     Node 42, Type 1, BuildingBlock: ESEHIV_clean_sbu_0, # of connection points: 4
#     Node 43, Type 1, BuildingBlock: ESEHIV_clean_sbu_0, # of connection points: 4
#     Node 44, Type 1, BuildingBlock: ESEHIV_clean_sbu_0, # of connection points: 4
#     Node 45, Type 1, BuildingBlock: ESEHIV_clean_sbu_0, # of connection points: 4
#     Node 46, Type 1, BuildingBlock: ESEHIV_clean_sbu_0, # of connection points: 4
#     Node 47, Type 1, BuildingBlock: ESEHIV_clean_sbu_0, # of connection points: 4
#     Node 48, Type 1, BuildingBlock: ESEHIV_clean_sbu_0, # of connection points: 4
#     Node 49, Type 1, BuildingBlock: ESEHIV_clean_sbu_0, # of connection points: 4
#     Node 50, Type 1, BuildingBlock: ESEHIV_clean_sbu_0, # of connection points: 4
#     Node 51, Type 1, BuildingBlock: ESEHIV_clean_sbu_0, # of connection points: 4
#     Node 52, Type 1, BuildingBlock: ESEHIV_clean_sbu_0, # of connection points: 4
#     Node 53, Type 1, BuildingBlock: ESEHIV_clean_sbu_0, # of connection points: 4
#     Node 54, Type 1, BuildingBlock: ESEHIV_clean_sbu_0, # of connection points: 4
#     Node 55, Type 1, BuildingBlock: ESEHIV_clean_sbu_0, # of connection points: 4
#     Edge 56, Type (0, 1), BuildingBlock: KIFKEQ_clean_linker_1, # of connection points: 2
#     Edge 57, Type (0, 1), BuildingBlock: KIFKEQ_clean_linker_1, # of connection points: 2
#     Edge 58, Type (0, 1), BuildingBlock: KIFKEQ_clean_linker_1, # of connection points: 2
#     Edge 59, Type (0, 1), BuildingBlock: KIFKEQ_clean_linker_1, # of connection points: 2
#     Edge 60, Type (0, 1), BuildingBlock: KIFKEQ_clean_linker_1, # of connection points: 2
#     Edge 61, Type (0, 1), BuildingBlock: KIFKEQ_clean_linker_1, # of connection points: 2
#     Edge 62, Type (0, 1), BuildingBlock: KIFKEQ_clean_linker_1, # of connection points: 2
#     Edge 63, Type (0, 1), BuildingBlock: KIFKEQ_clean_linker_1, # of connection points: 2
#     Edge 64, Type (0, 1), BuildingBlock: KIFKEQ_clean_linker_1, # of connection points: 2
#     Edge 65, Type (0, 1), BuildingBlock: KIFKEQ_clean_linker_1, # of connection points: 2
#     Edge 66, Type (0, 1), BuildingBlock: KIFKEQ_clean_linker_1, # of connection points: 2
#     Edge 67, Type (0, 1), BuildingBlock: KIFKEQ_clean_linker_1, # of connection points: 2
#     Edge 68, Type (0, 1), BuildingBlock: KIFKEQ_clean_linker_1, # of connection points: 2
#     Edge 69, Type (0, 1), BuildingBlock: KIFKEQ_clean_linker_1, # of connection points: 2
#     Edge 70, Type (0, 1), BuildingBlock: KIFKEQ_clean_linker_1, # of connection points: 2
#     Edge 71, Type (0, 1), BuildingBlock: KIFKEQ_clean_linker_1, # of connection points: 2
#     Edge 72, Type (0, 1), BuildingBlock: KIFKEQ_clean_linker_1, # of connection points: 2
#     Edge 73, Type (0, 1), BuildingBlock: KIFKEQ_clean_linker_1, # of connection points: 2
#     Edge 74, Type (0, 1), BuildingBlock: KIFKEQ_clean_linker_1, # of connection points: 2
#     Edge 75, Type (0, 1), BuildingBlock: KIFKEQ_clean_linker_1, # of connection points: 2
#     Edge 76, Type (0, 1), BuildingBlock: KIFKEQ_clean_linker_1, # of connection points: 2
#     Edge 77, Type (0, 1), BuildingBlock: KIFKEQ_clean_linker_1, # of connection points: 2
#     Edge 78, Type (0, 1), BuildingBlock: KIFKEQ_clean_linker_1, # of connection points: 2
#     Edge 79, Type (0, 1), BuildingBlock: KIFKEQ_clean_linker_1, # of connection points: 2
#     Edge 80, Type (0, 1), BuildingBlock: KIFKEQ_clean_linker_1, # of connection points: 2
#     Edge 81, Type (0, 1), BuildingBlock: KIFKEQ_clean_linker_1, # of connection points: 2
#     Edge 82, Type (0, 1), BuildingBlock: KIFKEQ_clean_linker_1, # of connection points: 2
#     Edge 83, Type (0, 1), BuildingBlock: KIFKEQ_clean_linker_1, # of connection points: 2
#     Edge 84, Type (0, 1), BuildingBlock: KIFKEQ_clean_linker_1, # of connection points: 2
#     Edge 85, Type (0, 1), BuildingBlock: KIFKEQ_clean_linker_1, # of connection points: 2
#     Edge 86, Type (0, 1), BuildingBlock: KIFKEQ_clean_linker_1, # of connection points: 2
#     Edge 87, Type (0, 1), BuildingBlock: KIFKEQ_clean_linker_1, # of connection points: 2
#     Edge 88, Type (0, 1), BuildingBlock: KIFKEQ_clean_linker_1, # of connection points: 2
#     Edge 89, Type (0, 1), BuildingBlock: KIFKEQ_clean_linker_1, # of connection points: 2
#     Edge 90, Type (0, 1), BuildingBlock: KIFKEQ_clean_linker_1, # of connection points: 2
#     Edge 91, Type (0, 1), BuildingBlock: KIFKEQ_clean_linker_1, # of connection points: 2
#     Edge 92, Type (0, 1), BuildingBlock: KIFKEQ_clean_linker_1, # of connection points: 2
#     Edge 93, Type (0, 1), BuildingBlock: KIFKEQ_clean_linker_1, # of connection points: 2
#     Edge 94, Type (0, 1), BuildingBlock: KIFKEQ_clean_linker_1, # of connection points: 2
#     Edge 95, Type (0, 1), BuildingBlock: KIFKEQ_clean_linker_1, # of connection points: 2
#     Edge 96, Type (0, 1), BuildingBlock: KIFKEQ_clean_linker_1, # of connection points: 2
#     Edge 97, Type (0, 1), BuildingBlock: KIFKEQ_clean_linker_1, # of connection points: 2
#     Edge 98, Type (0, 1), BuildingBlock: KIFKEQ_clean_linker_1, # of connection points: 2
#     Edge 99, Type (0, 1), BuildingBlock: KIFKEQ_clean_linker_1, # of connection points: 2
#     Edge 100, Type (0, 1), BuildingBlock: KIFKEQ_clean_linker_1, # of connection points: 2
#     Edge 101, Type (0, 1), BuildingBlock: KIFKEQ_clean_linker_1, # of connection points: 2
#     Edge 102, Type (0, 1), BuildingBlock: KIFKEQ_clean_linker_1, # of connection points: 2
#     Edge 103, Type (0, 1), BuildingBlock: KIFKEQ_clean_linker_1, # of connection points: 2
#     Edge 104, Type (0, 1), BuildingBlock: KIFKEQ_clean_linker_1, # of connection points: 2
#     Edge 105, Type (0, 1), BuildingBlock: KIFKEQ_clean_linker_1, # of connection points: 2
#     Edge 106, Type (0, 1), BuildingBlock: KIFKEQ_clean_linker_1, # of connection points: 2
#     Edge 107, Type (0, 1), BuildingBlock: KIFKEQ_clean_linker_1, # of connection points: 2
#     Edge 108, Type (0, 1), BuildingBlock: KIFKEQ_clean_linker_1, # of connection points: 2
#     Edge 109, Type (0, 1), BuildingBlock: KIFKEQ_clean_linker_1, # of connection points: 2
#     Edge 110, Type (0, 1), BuildingBlock: KIFKEQ_clean_linker_1, # of connection points: 2
#     Edge 111, Type (0, 1), BuildingBlock: KIFKEQ_clean_linker_1, # of connection points: 2
#     Edge 112, Type (0, 1), BuildingBlock: KIFKEQ_clean_linker_1, # of connection points: 2
#     Edge 113, Type (0, 1), BuildingBlock: KIFKEQ_clean_linker_1, # of connection points: 2
#     Edge 114, Type (0, 1), BuildingBlock: KIFKEQ_clean_linker_1, # of connection points: 2
#     Edge 115, Type (0, 1), BuildingBlock: KIFKEQ_clean_linker_1, # of connection points: 2
#     Edge 116, Type (0, 1), BuildingBlock: KIFKEQ_clean_linker_1, # of connection points: 2
#     Edge 117, Type (0, 1), BuildingBlock: KIFKEQ_clean_linker_1, # of connection points: 2
#     Edge 118, Type (0, 1), BuildingBlock: KIFKEQ_clean_linker_1, # of connection points: 2
#     Edge 119, Type (0, 1), BuildingBlock: KIFKEQ_clean_linker_1, # of connection points: 2
#     Edge 120, Type (0, 1), BuildingBlock: KIFKEQ_clean_linker_1, # of connection points: 2
#     Edge 121, Type (0, 1), BuildingBlock: KIFKEQ_clean_linker_1, # of connection points: 2
#     Edge 122, Type (0, 1), BuildingBlock: KIFKEQ_clean_linker_1, # of connection points: 2
#     Edge 123, Type (0, 1), BuildingBlock: KIFKEQ_clean_linker_1, # of connection points: 2
#     Edge 124, Type (0, 1), BuildingBlock: KIFKEQ_clean_linker_1, # of connection points: 2
#     Edge 125, Type (0, 1), BuildingBlock: KIFKEQ_clean_linker_1, # of connection points: 2
#     Edge 126, Type (0, 1), BuildingBlock: KIFKEQ_clean_linker_1, # of connection points: 2
#     Edge 127, Type (0, 1), BuildingBlock: KIFKEQ_clean_linker_1, # of connection points: 2
#     Edge 128, Type (0, 1), BuildingBlock: KIFKEQ_clean_linker_1, # of connection points: 2
#     Edge 129, Type (0, 1), BuildingBlock: KIFKEQ_clean_linker_1, # of connection points: 2
#     Edge 130, Type (0, 1), BuildingBlock: KIFKEQ_clean_linker_1, # of connection points: 2
#     Edge 131, Type (0, 1), BuildingBlock: KIFKEQ_clean_linker_1, # of connection points: 2
#     Edge 132, Type (0, 1), BuildingBlock: KIFKEQ_clean_linker_1, # of connection points: 2
#     Edge 133, Type (0, 1), BuildingBlock: KIFKEQ_clean_linker_1, # of connection points: 2
#     Edge 134, Type (0, 1), BuildingBlock: KIFKEQ_clean_linker_1, # of connection points: 2
#     Edge 135, Type (0, 1), BuildingBlock: KIFKEQ_clean_linker_1, # of connection points: 2
#     Edge 136, Type (0, 1), BuildingBlock: KIFKEQ_clean_linker_1, # of connection points: 2
#     Edge 137, Type (0, 1), BuildingBlock: KIFKEQ_clean_linker_1, # of connection points: 2
#     Edge 138, Type (0, 1), BuildingBlock: KIFKEQ_clean_linker_1, # of connection points: 2
#     Edge 139, Type (0, 1), BuildingBlock: KIFKEQ_clean_linker_1, # of connection points: 2
#     Edge 140, Type (0, 1), BuildingBlock: KIFKEQ_clean_linker_1, # of connection points: 2
#     Edge 141, Type (0, 1), BuildingBlock: KIFKEQ_clean_linker_1, # of connection points: 2
#     Edge 142, Type (0, 1), BuildingBlock: KIFKEQ_clean_linker_1, # of connection points: 2
#     Edge 143, Type (0, 1), BuildingBlock: KIFKEQ_clean_linker_1, # of connection points: 2
#     Edge 144, Type (0, 1), BuildingBlock: KIFKEQ_clean_linker_1, # of connection points: 2
#     Edge 145, Type (0, 1), BuildingBlock: KIFKEQ_clean_linker_1, # of connection points: 2
#     Edge 146, Type (0, 1), BuildingBlock: KIFKEQ_clean_linker_1, # of connection points: 2
#     Edge 147, Type (0, 1), BuildingBlock: KIFKEQ_clean_linker_1, # of connection points: 2
#     Edge 148, Type (0, 1), BuildingBlock: KIFKEQ_clean_linker_1, # of connection points: 2
#     Edge 149, Type (0, 1), BuildingBlock: KIFKEQ_clean_linker_1, # of connection points: 2
#     Edge 150, Type (0, 1), BuildingBlock: KIFKEQ_clean_linker_1, # of connection points: 2
#     Edge 151, Type (0, 1), BuildingBlock: KIFKEQ_clean_linker_1, # of connection points: 2
# Relax obj value: 0.002
# Max RMSD: 0.117
# Mean RMSD: 0.047
data_MOF--net-tbo--node1-ESEHIV_clean_sbu_0--node2-VETTIZ_charged_linker_0--edge1-KIFKEQ_clean_linker_1
_symmetry_space_group_name_H-M    P1
_symmetry_Int_Tables_number       1
_symmetry_cell_setting            triclinic
loop_
_symmetry_equiv_pos_as_xyz
'x, y, z'
_cell_length_a     91.627427
_cell_length_b     91.59933
_cell_length_c     91.548275
_cell_angle_alpha  90.014526
_cell_angle_beta   91.932564
_cell_angle_gamma 90.566973
loop_
_atom_site_label
_atom_site_type_symbol
_atom_site_fract_x
_atom_site_fract_y
_atom_site_fract_z
_atom_type_partial_charge
C0 C 0.19886 0.19961 0.15458 0.0
C1 C 0.21056 0.19325 0.1475 0.0
C2 C 0.21542 0.17937 0.15215 0.0
C3 C 0.19735 0.1789 0.17107 0.0
C4 C 0.19249 0.19233 0.16618 0.0
C5 C 0.17994 0.19787 0.17458 0.0
H6 H 0.13086 0.18902 0.22709 0.0
C7 C 0.18832 0.17457 0.18359 0.0
C8 C 0.17813 0.18571 0.18557 0.0
H9 H 0.13535 0.22473 0.19663 0.0
H10 H 0.15623 0.2134 0.18656 0.0
H11 H 0.13841 0.16232 0.20394 0.0
H12 H 0.16416 0.18706 0.23555 0.0
H13 H 0.17203 0.1697 0.23497 0.0
H14 H 0.1535 0.17154 0.24082 0.0
H15 H 0.13604 0.1615 0.22333 0.0
H16 H 0.14921 0.15027 0.21465 0.0
C17 C 0.16651 0.19905 0.16385 0.0
C18 C 0.18477 0.21243 0.18206 0.0
C19 C 0.19803 0.12729 0.21167 0.0
C20 C 0.19207 0.12133 0.22437 0.0
C21 C 0.18074 0.12878 0.23112 0.0
C22 C 0.17531 0.14187 0.2253 0.0
C23 C 0.18138 0.14776 0.21267 0.0
C24 C 0.19266 0.14058 0.20613 0.0
C25 C 0.1983 0.14897 0.19327 0.0
C26 C 0.18848 0.16227 0.19313 0.0
C27 C 0.17846 0.16138 0.20444 0.0
C28 C 0.19583 0.13955 0.17937 0.0
C29 C 0.21447 0.15311 0.19664 0.0
C30 C 0.13636 0.1943 0.2182 0.0
C31 C 0.13146 0.2078 0.21264 0.0
C32 C 0.13901 0.21444 0.20122 0.0
C33 C 0.15111 0.20776 0.1953 0.0
C34 C 0.15585 0.19426 0.20084 0.0
C35 C 0.14864 0.18779 0.21221 0.0
C36 C 0.15569 0.17365 0.21693 0.0
C37 C 0.16796 0.17254 0.20617 0.0
C38 C 0.1679 0.18463 0.1968 0.0
C39 C 0.14429 0.16121 0.21471 0.0
C40 C 0.1616 0.17544 0.23291 0.0
H41 H 0.21312 0.16169 0.16705 0.0
H42 H 0.19459 0.21007 0.15108 0.0
H43 H 0.19663 0.21237 0.18513 0.0
H44 H 0.17933 0.21438 0.19246 0.0
H45 H 0.18282 0.22187 0.17467 0.0
H46 H 0.16678 0.19057 0.15516 0.0
H47 H 0.16621 0.20986 0.15837 0.0
H48 H 0.15602 0.1971 0.16917 0.0
H49 H 0.20689 0.12188 0.20638 0.0
H50 H 0.17599 0.12436 0.24088 0.0
H51 H 0.16661 0.14695 0.23091 0.0
H52 H 0.18501 0.13392 0.17947 0.0
H53 H 0.20434 0.13104 0.17868 0.0
H54 H 0.19566 0.14606 0.16923 0.0
H55 H 0.21611 0.15646 0.20827 0.0
H56 H 0.21823 0.16252 0.19021 0.0
H57 H 0.22172 0.14371 0.19469 0.0
H58 H 0.2244 0.1742 0.14683 0.0
C59 C 0.2089 0.17217 0.16392 0.0
C60 C 0.84179 0.13376 0.19723 0.0
C61 C 0.8296 0.12669 0.19065 0.0
C62 C 0.82269 0.13316 0.17827 0.0
C63 C 0.84029 0.15326 0.17923 0.0
C64 C 0.84686 0.1469 0.19144 0.0
C65 C 0.8595 0.15571 0.19754 0.0
H66 H 0.90278 0.21558 0.19621 0.0
C67 C 0.84836 0.16705 0.17624 0.0
C68 C 0.85954 0.16848 0.18704 0.0
H69 H 0.90457 0.17911 0.22619 0.0
H70 H 0.88431 0.16765 0.21334 0.0
H71 H 0.86754 0.21823 0.19428 0.0
H72 H 0.89737 0.19556 0.16706 0.0
H73 H 0.88419 0.20391 0.15556 0.0
H74 H 0.89602 0.2151 0.16716 0.0
H75 H 0.87941 0.22767 0.18218 0.0
H76 H 0.86173 0.22084 0.17598 0.0
C77 C 0.85584 0.16051 0.21326 0.0
C78 C 0.87348 0.14636 0.19652 0.0
C79 C 0.83458 0.1986 0.13198 0.0
C80 C 0.84011 0.21196 0.12666 0.0
C81 C 0.85152 0.219 0.13477 0.0
C82 C 0.8575 0.21283 0.14762 0.0
C83 C 0.85205 0.19942 0.15261 0.0
C84 C 0.84065 0.19259 0.14494 0.0
C85 C 0.836 0.17859 0.1522 0.0
C86 C 0.84674 0.17795 0.16522 0.0
C87 C 0.85615 0.19022 0.16539 0.0
C88 C 0.82008 0.18033 0.15702 0.0
C89 C 0.83815 0.16584 0.14143 0.0
C90 C 0.89871 0.20515 0.19998 0.0
C91 C 0.90533 0.19821 0.21223 0.0
C92 C 0.89982 0.18458 0.21671 0.0
C93 C 0.88796 0.17797 0.20924 0.0
C94 C 0.88144 0.18497 0.19707 0.0
C95 C 0.88687 0.19827 0.19252 0.0
C96 C 0.87868 0.20378 0.17906 0.0
C97 C 0.86736 0.19167 0.17648 0.0
C98 C 0.86906 0.18078 0.18714 0.0
C99 C 0.8715 0.21846 0.18293 0.0
C100 C 0.88955 0.20478 0.1665 0.0
H101 H 0.82238 0.1507 0.163 0.0
H102 H 0.84718 0.12929 0.20692 0.0
H103 H 0.87269 0.13881 0.18699 0.0
H104 H 0.88339 0.153 0.19466 0.0
H105 H 0.87528 0.13961 0.20648 0.0
H106 H 0.84395 0.16257 0.21412 0.0
H107 H 0.85885 0.15195 0.22138 0.0
H108 H 0.86116 0.17092 0.21659 0.0
H109 H 0.82587 0.1928 0.12611 0.0
H110 H 0.85579 0.22945 0.13129 0.0
H111 H 0.86616 0.21877 0.15319 0.0
H112 H 0.81814 0.19166 0.16081 0.0
H113 H 0.81218 0.17798 0.14783 0.0
H114 H 0.81747 0.17332 0.1664 0.0
H115 H 0.84873 0.16706 0.13592 0.0
H116 H 0.83857 0.1551 0.14686 0.0
H117 H 0.8293 0.16557 0.13283 0.0
H118 H 0.81328 0.12792 0.17297 0.0
C119 C 0.82801 0.14637 0.17249 0.0
C120 C 0.88111 0.83814 0.20515 0.0
C121 C 0.88956 0.82615 0.20093 0.0
C122 C 0.88542 0.81864 0.18795 0.0
C123 C 0.86509 0.83507 0.18355 0.0
C124 C 0.86903 0.84242 0.19631 0.0
C125 C 0.85912 0.85511 0.19902 0.0
H126 H 0.80152 0.89669 0.17662 0.0
C127 C 0.8522 0.84242 0.17673 0.0
C128 C 0.84867 0.85423 0.18576 0.0
H129 H 0.82893 0.90206 0.21568 0.0
H130 H 0.84281 0.88088 0.2092 0.0
H131 H 0.79861 0.86161 0.17861 0.0
H132 H 0.827 0.89047 0.15553 0.0
H133 H 0.82338 0.87562 0.14382 0.0
H134 H 0.80852 0.88695 0.14935 0.0
H135 H 0.79254 0.87233 0.16321 0.0
H136 H 0.80016 0.85443 0.16094 0.0
C137 C 0.85122 0.85223 0.21344 0.0
C138 C 0.86845 0.8693 0.19904 0.0
C139 C 0.82942 0.82368 0.12834 0.0
C140 C 0.81805 0.829 0.11912 0.0
C141 C 0.81046 0.84151 0.12345 0.0
C142 C 0.8141 0.84867 0.13659 0.0
C143 C 0.82558 0.84342 0.14561 0.0
C144 C 0.8331 0.83115 0.14145 0.0
C145 C 0.84538 0.82762 0.15224 0.0
C146 C 0.84382 0.83964 0.16359 0.0
C147 C 0.83214 0.8488 0.15964 0.0
C148 C 0.84234 0.81232 0.1587 0.0
C149 C 0.85997 0.82892 0.14425 0.0
C150 C 0.81057 0.8934 0.18376 0.0
C151 C 0.81405 0.90117 0.19671 0.0
C152 C 0.82582 0.89625 0.20573 0.0
C153 C 0.83396 0.88397 0.2019 0.0
C154 C 0.83038 0.87642 0.18886 0.0
C155 C 0.81881 0.88117 0.18008 0.0
C156 C 0.8165 0.87188 0.16664 0.0
C157 C 0.82857 0.86074 0.16876 0.0
C158 C 0.83672 0.86343 0.18178 0.0
C159 C 0.80114 0.86471 0.16721 0.0
C160 C 0.81884 0.88165 0.15306 0.0
H161 H 0.87076 0.81678 0.16959 0.0
H162 H 0.88401 0.84426 0.21497 0.0
H163 H 0.87686 0.8688 0.19057 0.0
H164 H 0.86201 0.8791 0.19632 0.0
H165 H 0.87422 0.87099 0.20979 0.0
H166 H 0.84841 0.84045 0.21454 0.0
H167 H 0.85825 0.8554 0.22307 0.0
H168 H 0.84071 0.85795 0.21395 0.0
H169 H 0.83554 0.81417 0.12524 0.0
H170 H 0.80159 0.84574 0.11662 0.0
H171 H 0.80785 0.85811 0.13916 0.0
H172 H 0.83053 0.81091 0.16085 0.0
H173 H 0.84542 0.80358 0.151 0.0
H174 H 0.84806 0.81051 0.16933 0.0
H175 H 0.85947 0.83776 0.13591 0.0
H176 H 0.86929 0.83199 0.15162 0.0
H177 H 0.86251 0.8186 0.13854 0.0
H178 H 0.89152 0.80925 0.18451 0.0
C179 C 0.87328 0.82299 0.1793 0.0
C180 C 0.18742 0.88137 0.1888 0.0
C181 C 0.18197 0.88853 0.20099 0.0
C182 C 0.16993 0.8823 0.20803 0.0
C183 C 0.16894 0.86227 0.19051 0.0
C184 C 0.18084 0.86839 0.18384 0.0
C185 C 0.18574 0.85949 0.17122 0.0
H186 H 0.17832 0.80117 0.12658 0.0
C187 C 0.16484 0.84867 0.18243 0.0
C188 C 0.1747 0.84706 0.17117 0.0
H189 H 0.21117 0.83541 0.12725 0.0
H190 H 0.19995 0.84684 0.14741 0.0
H191 H 0.17827 0.79732 0.16231 0.0
H192 H 0.15014 0.8227 0.13346 0.0
H193 H 0.13949 0.81322 0.14609 0.0
H194 H 0.14993 0.80308 0.13328 0.0
H195 H 0.16541 0.78889 0.1496 0.0
H196 H 0.16003 0.79495 0.16733 0.0
C197 C 0.20149 0.85416 0.17492 0.0
C198 C 0.18416 0.86901 0.15724 0.0
C199 C 0.12161 0.81779 0.19798 0.0
C200 C 0.11515 0.80466 0.19281 0.0
C201 C 0.12096 0.79801 0.18038 0.0
C202 C 0.13305 0.80417 0.17345 0.0
C203 C 0.13948 0.81717 0.17894 0.0
C204 C 0.13366 0.82378 0.19098 0.0
C205 C 0.14179 0.83753 0.19539 0.0
C206 C 0.15352 0.8381 0.18409 0.0
C207 C 0.15217 0.82612 0.17442 0.0
C208 C 0.14837 0.83543 0.21105 0.0
C209 C 0.13115 0.8505 0.1938 0.0
C210 C 0.18297 0.81116 0.13113 0.0
C211 C 0.19573 0.81738 0.1254 0.0
C212 C 0.20151 0.83033 0.1316 0.0
C213 C 0.19492 0.83699 0.14333 0.0
C214 C 0.18237 0.83067 0.14913 0.0
C215 C 0.17655 0.81795 0.14314 0.0
C216 C 0.16334 0.81278 0.15127 0.0
C217 C 0.16228 0.82455 0.16301 0.0
C218 C 0.17346 0.83497 0.16152 0.0
C219 C 0.16679 0.79764 0.15795 0.0
C220 C 0.14997 0.81282 0.14052 0.0
H221 H 0.15418 0.86509 0.20858 0.0
H222 H 0.19686 0.88564 0.18333 0.0
H223 H 0.17444 0.87616 0.15768 0.0
H224 H 0.18233 0.86252 0.14716 0.0
H225 H 0.19389 0.87618 0.15598 0.0
H226 H 0.2036 0.85331 0.18694 0.0
H227 H 0.2098 0.86179 0.1706 0.0
H228 H 0.20351 0.84303 0.1708 0.0
H229 H 0.11732 0.82342 0.2073 0.0
H230 H 0.11634 0.78787 0.17617 0.0
H231 H 0.137 0.79853 0.16412 0.0
H232 H 0.15221 0.82404 0.21266 0.0
H233 H 0.14013 0.83763 0.21938 0.0
H234 H 0.1581 0.84236 0.21334 0.0
H235 H 0.12398 0.84922 0.18382 0.0
H236 H 0.1368 0.86108 0.19247 0.0
H237 H 0.12402 0.85117 0.20334 0.0
H238 H 0.16553 0.88762 0.21747 0.0
C239 C 0.16335 0.86925 0.20282 0.0
C240 C 0.20209 0.8306 0.88624 0.0
C241 C 0.19625 0.81797 0.89282 0.0
C242 C 0.18313 0.81195 0.88684 0.0
C243 C 0.18193 0.83091 0.8683 0.0
C244 C 0.19482 0.83682 0.87403 0.0
C245 C 0.19959 0.85012 0.86562 0.0
H246 H 0.1868 0.89693 0.80897 0.0
C247 C 0.17712 0.8399 0.85562 0.0
C248 C 0.18746 0.85117 0.85391 0.0
H249 H 0.22274 0.89841 0.84081 0.0
H250 H 0.21327 0.8768 0.85255 0.0
H251 H 0.16242 0.89054 0.83197 0.0
H252 H 0.18658 0.86265 0.80399 0.0
H253 H 0.16856 0.85594 0.80362 0.0
H254 H 0.17218 0.87419 0.79718 0.0
H255 H 0.15868 0.88942 0.81264 0.0
H256 H 0.15009 0.87719 0.82526 0.0
C257 C 0.19977 0.8634 0.87607 0.0
C258 C 0.21453 0.84688 0.859 0.0
C259 C 0.12947 0.82737 0.82802 0.0
C260 C 0.12214 0.83361 0.81581 0.0
C261 C 0.12856 0.84569 0.80888 0.0
C262 C 0.14193 0.85156 0.81411 0.0
C263 C 0.14903 0.84531 0.82641 0.0
C264 C 0.14283 0.83336 0.83309 0.0
C265 C 0.15204 0.828 0.84589 0.0
C266 C 0.16469 0.83886 0.84593 0.0
C267 C 0.16284 0.84897 0.83452 0.0
C268 C 0.14298 0.82935 0.85981 0.0
C269 C 0.15702 0.81227 0.84246 0.0
C270 C 0.1926 0.89276 0.81856 0.0
C271 C 0.20555 0.89953 0.82393 0.0
C272 C 0.21283 0.89339 0.83629 0.0
C273 C 0.20727 0.88087 0.84317 0.0
C274 C 0.19424 0.87434 0.83768 0.0
C275 C 0.18717 0.88035 0.82556 0.0
C276 C 0.17339 0.87223 0.82125 0.0
C277 C 0.1733 0.8603 0.83271 0.0
C278 C 0.18554 0.86148 0.84234 0.0
C279 C 0.1604 0.88282 0.82272 0.0
C280 C 0.17511 0.86597 0.80567 0.0
H281 H 0.16607 0.81316 0.87071 0.0
H282 H 0.21205 0.83566 0.89058 0.0
H283 H 0.2148 0.83547 0.85484 0.0
H284 H 0.21686 0.85382 0.8495 0.0
H285 H 0.22355 0.84819 0.86733 0.0
H286 H 0.19035 0.86288 0.88341 0.0
H287 H 0.20993 0.86369 0.88306 0.0
H288 H 0.19867 0.87391 0.87027 0.0
H289 H 0.12498 0.81792 0.83345 0.0
H290 H 0.12312 0.85076 0.79953 0.0
H291 H 0.14616 0.86081 0.80839 0.0
H292 H 0.13649 0.83955 0.85953 0.0
H293 H 0.13523 0.82002 0.86072 0.0
H294 H 0.1498 0.8301 0.86995 0.0
H295 H 0.15839 0.81073 0.83053 0.0
H296 H 0.16783 0.8097 0.84748 0.0
H297 H 0.1489 0.80404 0.84603 0.0
H298 H 0.17846 0.80214 0.89142 0.0
C299 C 0.17597 0.81833 0.87469 0.0
C300 C 0.16503 0.19805 0.84154 0.0
C301 C 0.15831 0.21028 0.84778 0.0
C302 C 0.16469 0.21635 0.86068 0.0
C303 C 0.18385 0.19824 0.86099 0.0
C304 C 0.17772 0.1922 0.84834 0.0
C305 C 0.18615 0.17907 0.84344 0.0
H306 H 0.24512 0.13483 0.85309 0.0
C307 C 0.19702 0.18976 0.8653 0.0
C308 C 0.19849 0.1785 0.85503 0.0
H309 H 0.21022 0.13088 0.8204 0.0
H310 H 0.19848 0.15215 0.83028 0.0
H311 H 0.24835 0.17013 0.8525 0.0
H312 H 0.22403 0.14063 0.8793 0.0
H313 H 0.23122 0.15441 0.89082 0.0
H314 H 0.24349 0.14273 0.88132 0.0
H315 H 0.25695 0.15861 0.86604 0.0
H316 H 0.25015 0.17639 0.87064 0.0
C317 C 0.19191 0.1823 0.82808 0.0
C318 C 0.176 0.16549 0.84409 0.0
C319 C 0.22696 0.20416 0.91107 0.0
C320 C 0.23999 0.19887 0.91771 0.0
C321 C 0.24705 0.18714 0.91097 0.0
C322 C 0.24125 0.1808 0.89802 0.0
C323 C 0.2282 0.18619 0.89162 0.0
C324 C 0.22137 0.19776 0.8981 0.0
C325 C 0.20779 0.20232 0.88961 0.0
C326 C 0.20743 0.19138 0.87711 0.0
C327 C 0.21938 0.18193 0.87836 0.0
C328 C 0.21014 0.21818 0.88418 0.0
C329 C 0.19459 0.20026 0.89958 0.0
C330 C 0.23502 0.13864 0.84799 0.0
C331 C 0.22866 0.13125 0.83588 0.0
C332 C 0.21533 0.13638 0.82975 0.0
C333 C 0.20855 0.14874 0.83549 0.0
C334 C 0.21503 0.156 0.84765 0.0
C335 C 0.22799 0.1508 0.85376 0.0
C336 C 0.23294 0.15931 0.8671 0.0
C337 C 0.22096 0.17059 0.86793 0.0
C338 C 0.21052 0.16875 0.85642 0.0
C339 C 0.24793 0.16645 0.86407 0.0
C340 C 0.23306 0.14881 0.88038 0.0
H341 H 0.18154 0.21565 0.87705 0.0
H342 H 0.16038 0.193 0.83173 0.0
H343 H 0.16846 0.16634 0.85331 0.0
H344 H 0.18205 0.15529 0.84615 0.0
H345 H 0.16923 0.1643 0.83385 0.0
H346 H 0.19648 0.19358 0.82761 0.0
H347 H 0.18299 0.18136 0.8196 0.0
H348 H 0.20087 0.17505 0.82509 0.0
H349 H 0.22105 0.21299 0.91594 0.0
H350 H 0.2572 0.18294 0.9156 0.0
H351 H 0.24718 0.17194 0.89348 0.0
H352 H 0.22185 0.22037 0.88205 0.0
H353 H 0.20671 0.22625 0.89241 0.0
H354 H 0.20437 0.22039 0.87364 0.0
H355 H 0.19581 0.1902 0.9063 0.0
H356 H 0.18413 0.19878 0.89339 0.0
H357 H 0.19364 0.20963 0.90718 0.0
H358 H 0.15999 0.22588 0.86564 0.0
C359 C 0.17733 0.21044 0.86727 0.0
C360 C 0.84659 0.14639 0.822 0.0
C361 C 0.8506 0.13796 0.80999 0.0
C362 C 0.86336 0.14192 0.80264 0.0
C363 C 0.86756 0.16249 0.81911 0.0
C364 C 0.8551 0.15851 0.82629 0.0
C365 C 0.85201 0.16855 0.83872 0.0
H366 H 0.86971 0.22732 0.8803 0.0
C367 C 0.87378 0.17575 0.82642 0.0
C368 C 0.86463 0.1793 0.83788 0.0
H369 H 0.83306 0.19749 0.88371 0.0
H370 H 0.84104 0.18399 0.86312 0.0
H371 H 0.86788 0.22978 0.84497 0.0
H372 H 0.89386 0.20209 0.87346 0.0
H373 H 0.90505 0.20905 0.85979 0.0
H374 H 0.89686 0.22145 0.87234 0.0
H375 H 0.88307 0.23674 0.85584 0.0
H376 H 0.8855 0.22887 0.83803 0.0
C377 C 0.83708 0.17591 0.83535 0.0
C378 C 0.85278 0.1595 0.85306 0.0
C379 C 0.9206 0.19933 0.80863 0.0
C380 C 0.92876 0.21176 0.81311 0.0
C381 C 0.92382 0.22008 0.82493 0.0
C382 C 0.9111 0.2161 0.83215 0.0
C383 C 0.9031 0.20366 0.82756 0.0
C384 C 0.90785 0.19554 0.81593 0.0
C385 C 0.8978 0.1828 0.8124 0.0
C386 C 0.88634 0.18454 0.82388 0.0
C387 C 0.88952 0.19678 0.8328 0.0
C388 C 0.89128 0.18491 0.79673 0.0
C389 C 0.90656 0.16856 0.81457 0.0
C390 C 0.86347 0.21784 0.8766 0.0
C391 C 0.85062 0.21357 0.88362 0.0
C392 C 0.8428 0.20122 0.87839 0.0
C393 C 0.84753 0.19329 0.86643 0.0
C394 C 0.86029 0.19766 0.85949 0.0
C395 C 0.86805 0.20975 0.86453 0.0
C396 C 0.88131 0.2127 0.85556 0.0
C397 C 0.8802 0.20032 0.84443 0.0
C398 C 0.86785 0.19159 0.84688 0.0
C399 C 0.87951 0.22784 0.84825 0.0
C400 C 0.89506 0.21137 0.86574 0.0
H401 H 0.88138 0.15659 0.80105 0.0
H402 H 0.83705 0.14358 0.82812 0.0
H403 H 0.86107 0.15073 0.85246 0.0
H404 H 0.8563 0.16603 0.86271 0.0
H405 H 0.84211 0.15418 0.85517 0.0
H406 H 0.83513 0.17739 0.82338 0.0
H407 H 0.82791 0.1692 0.83943 0.0
H408 H 0.83646 0.18705 0.8399 0.0
H409 H 0.92396 0.19278 0.79951 0.0
H410 H 0.92994 0.22958 0.82876 0.0
H411 H 0.90801 0.22286 0.84108 0.0
H412 H 0.88904 0.19663 0.79453 0.0
H413 H 0.89894 0.18108 0.78843 0.0
H414 H 0.88065 0.1793 0.79494 0.0
H415 H 0.91399 0.16938 0.82441 0.0
H416 H 0.89955 0.15894 0.81652 0.0
H417 H 0.91336 0.16637 0.80501 0.0
H418 H 0.86669 0.13571 0.79327 0.0
C419 C 0.87184 0.15412 0.80712 0.0
C420 C 0.8163 0.842 0.88038 0.0
C421 C 0.80438 0.84965 0.88576 0.0
C422 C 0.79978 0.86246 0.87845 0.0
C423 C 0.81911 0.85996 0.86108 0.0
C424 C 0.82345 0.84731 0.86816 0.0
C425 C 0.83634 0.84041 0.86128 0.0
H426 H 0.88976 0.84323 0.81221 0.0
C427 C 0.82912 0.86256 0.8489 0.0
C428 C 0.83923 0.8511 0.84904 0.0
H429 H 0.88107 0.80917 0.84343 0.0
H430 H 0.85996 0.82215 0.85146 0.0
H431 H 0.8818 0.87116 0.83286 0.0
H432 H 0.85746 0.84565 0.80086 0.0
H433 H 0.85066 0.86343 0.79932 0.0
H434 H 0.86958 0.86008 0.79564 0.0
H435 H 0.88523 0.8715 0.81367 0.0
H436 H 0.87189 0.88325 0.82145 0.0
C437 C 0.84908 0.84015 0.87285 0.0
C438 C 0.83157 0.82516 0.85536 0.0
C439 C 0.82339 0.90726 0.81585 0.0
C440 C 0.83135 0.91246 0.80396 0.0
C441 C 0.8435 0.90443 0.79953 0.0
C442 C 0.84771 0.89161 0.80679 0.0
C443 C 0.83971 0.8866 0.81865 0.0
C444 C 0.82775 0.89435 0.82301 0.0
C445 C 0.82062 0.88727 0.83588 0.0
C446 C 0.83016 0.87392 0.83833 0.0
C447 C 0.84136 0.87367 0.82821 0.0
C448 C 0.82181 0.89799 0.84895 0.0
C449 C 0.80477 0.883 0.83119 0.0
C450 C 0.88333 0.83869 0.82086 0.0
C451 C 0.8871 0.82528 0.82735 0.0
C452 C 0.87833 0.81949 0.83832 0.0
C453 C 0.86611 0.82707 0.84296 0.0
C454 C 0.8625 0.84054 0.83647 0.0
C455 C 0.87092 0.84601 0.82545 0.0
C456 C 0.86489 0.85999 0.81919 0.0
C457 C 0.85166 0.86217 0.82852 0.0
C458 C 0.85046 0.85085 0.83874 0.0
C459 C 0.87652 0.87218 0.82179 0.0
C460 C 0.86048 0.8573 0.80289 0.0
H461 H 0.80311 0.8775 0.86116 0.0
H462 H 0.81997 0.83198 0.88551 0.0
H463 H 0.81969 0.82479 0.85241 0.0
H464 H 0.83696 0.82228 0.84513 0.0
H465 H 0.83373 0.8165 0.86363 0.0
H466 H 0.84959 0.85054 0.87916 0.0
H467 H 0.84764 0.83108 0.88074 0.0
H468 H 0.8599 0.83918 0.86804 0.0
H469 H 0.81408 0.91319 0.81966 0.0
H470 H 0.8497 0.90797 0.79029 0.0
H471 H 0.85705 0.88608 0.80284 0.0
H472 H 0.83255 0.90378 0.84923 0.0
H473 H 0.81315 0.90637 0.84814 0.0
H474 H 0.82127 0.89247 0.85963 0.0
H475 H 0.80429 0.87865 0.81984 0.0
H476 H 0.80021 0.87422 0.83797 0.0
H477 H 0.79747 0.8926 0.83151 0.0
H478 H 0.79068 0.86863 0.88238 0.0
C479 C 0.80707 0.86765 0.86617 0.0
C480 C 0.19471 0.64301 0.70702 0.0
C481 C 0.20732 0.63635 0.70196 0.0
C482 C 0.21326 0.64148 0.68886 0.0
C483 C 0.19433 0.65986 0.6865 0.0
C484 C 0.18848 0.65462 0.69922 0.0
C485 C 0.17509 0.66271 0.70337 0.0
H486 H 0.12653 0.71647 0.69095 0.0
C487 C 0.18517 0.67224 0.6813 0.0
C488 C 0.17392 0.67387 0.6912 0.0
H489 H 0.12748 0.68396 0.72528 0.0
H490 H 0.14911 0.6737 0.71575 0.0
H491 H 0.13467 0.69364 0.66488 0.0
H492 H 0.16091 0.72316 0.69164 0.0
H493 H 0.1676 0.72386 0.67391 0.0
H494 H 0.14914 0.72951 0.67697 0.0
H495 H 0.13366 0.71313 0.66309 0.0
H496 H 0.14697 0.70273 0.65359 0.0
C497 C 0.16201 0.65178 0.7029 0.0
C498 C 0.1783 0.66998 0.71846 0.0
C499 C 0.19738 0.70012 0.63503 0.0
C500 C 0.19116 0.71236 0.62797 0.0
C501 C 0.17903 0.71905 0.63415 0.0
C502 C 0.17307 0.71356 0.64698 0.0
C503 C 0.17933 0.70127 0.65383 0.0
C504 C 0.19138 0.69484 0.64792 0.0
C505 C 0.19688 0.68216 0.65697 0.0
C506 C 0.18602 0.68188 0.66914 0.0
C507 C 0.1757 0.69308 0.6672 0.0
C508 C 0.19579 0.66821 0.64746 0.0
C509 C 0.21254 0.6859 0.66277 0.0
C510 C 0.13137 0.70708 0.69634 0.0
C511 C 0.12532 0.70116 0.70903 0.0
C512 C 0.13205 0.68898 0.71572 0.0
C513 C 0.1446 0.68292 0.71007 0.0
C514 C 0.15058 0.68899 0.69751 0.0
C515 C 0.14398 0.70082 0.69078 0.0
C516 C 0.15192 0.7056 0.6774 0.0
C517 C 0.16429 0.69463 0.67724 0.0
C518 C 0.16342 0.68501 0.68909 0.0
C519 C 0.14131 0.70382 0.66397 0.0
C520 C 0.15765 0.72139 0.67996 0.0
H521 H 0.21192 0.65667 0.67129 0.0
H522 H 0.18963 0.63917 0.71684 0.0
H523 H 0.18985 0.67383 0.71948 0.0
H524 H 0.17176 0.67985 0.72022 0.0
H525 H 0.17647 0.66216 0.72751 0.0
H526 H 0.16362 0.64291 0.69482 0.0
H527 H 0.16059 0.64655 0.71371 0.0
H528 H 0.15163 0.65689 0.69926 0.0
H529 H 0.20686 0.69488 0.63071 0.0
H530 H 0.17401 0.72844 0.62891 0.0
H531 H 0.16378 0.7191 0.65107 0.0
H532 H 0.18549 0.6681 0.64067 0.0
H533 H 0.20505 0.66761 0.63995 0.0
H534 H 0.19545 0.6581 0.65399 0.0
H535 H 0.2135 0.69765 0.66579 0.0
H536 H 0.21565 0.6799 0.67283 0.0
H537 H 0.22069 0.68371 0.65434 0.0
H538 H 0.22299 0.63656 0.68471 0.0
C539 C 0.20686 0.65321 0.68113 0.0
C540 C 0.84634 0.65128 0.69076 0.0
C541 C 0.83429 0.64258 0.68627 0.0
C542 C 0.82535 0.64742 0.67438 0.0
C543 C 0.84075 0.669 0.67159 0.0
C544 C 0.84934 0.66429 0.68335 0.0
C545 C 0.86177 0.67461 0.68697 0.0
H546 H 0.89946 0.73648 0.67273 0.0
C547 C 0.84711 0.68296 0.66627 0.0
C548 C 0.85945 0.68619 0.67533 0.0
H549 H 0.90757 0.70538 0.7075 0.0
H550 H 0.88696 0.69083 0.69894 0.0
H551 H 0.86502 0.73702 0.6757 0.0
H552 H 0.89305 0.71329 0.64779 0.0
H553 H 0.8774 0.71716 0.637 0.0
H554 H 0.88846 0.732 0.64444 0.0
H555 H 0.87407 0.74529 0.66068 0.0
H556 H 0.85631 0.73679 0.65835 0.0
C557 C 0.85967 0.68072 0.70256 0.0
C558 C 0.87625 0.66631 0.6851 0.0
C559 C 0.82414 0.71085 0.62274 0.0
C560 C 0.82815 0.72401 0.61579 0.0
C561 C 0.8411 0.73122 0.62062 0.0
C562 C 0.84961 0.72585 0.63232 0.0
C563 C 0.8453 0.71301 0.63942 0.0
C564 C 0.83288 0.70556 0.63454 0.0
C565 C 0.83038 0.69188 0.64344 0.0
C566 C 0.84319 0.69259 0.65452 0.0
C567 C 0.8518 0.70508 0.65205 0.0
C568 C 0.81555 0.6932 0.65086 0.0
C569 C 0.83136 0.67856 0.63316 0.0
C570 C 0.89687 0.72647 0.67842 0.0
C571 C 0.90516 0.72212 0.69084 0.0
C572 C 0.90126 0.7091 0.69803 0.0
C573 C 0.8893 0.70061 0.69298 0.0
C574 C 0.88106 0.70516 0.68061 0.0
C575 C 0.8849 0.7179 0.67357 0.0
C576 C 0.87476 0.72118 0.66076 0.0
C577 C 0.86419 0.70831 0.66128 0.0
C578 C 0.86795 0.69895 0.67288 0.0
C579 C 0.86716 0.73586 0.66386 0.0
C580 C 0.88379 0.72103 0.64673 0.0
H581 H 0.82136 0.66357 0.65804 0.0
H582 H 0.85329 0.64813 0.70001 0.0
H583 H 0.87534 0.65873 0.6756 0.0
H584 H 0.88555 0.67359 0.68273 0.0
H585 H 0.87908 0.6597 0.69495 0.0
H586 H 0.84788 0.6816 0.70494 0.0
H587 H 0.86478 0.67354 0.71101 0.0
H588 H 0.86403 0.69194 0.704 0.0
H589 H 0.81431 0.70498 0.6193 0.0
H590 H 0.84473 0.7411 0.61529 0.0
H591 H 0.85923 0.732 0.63542 0.0
H592 H 0.81417 0.70441 0.65524 0.0
H593 H 0.80634 0.69095 0.64294 0.0
H594 H 0.81456 0.68584 0.66031 0.0
H595 H 0.84048 0.68002 0.62555 0.0
H596 H 0.83371 0.66832 0.63907 0.0
H597 H 0.82111 0.67712 0.62646 0.0
H598 H 0.81601 0.64093 0.67062 0.0
C599 C 0.82852 0.66053 0.66702 0.0
C600 C 0.90861 0.34886 0.7152 0.0
C601 C 0.91746 0.337 0.71146 0.0
C602 C 0.91326 0.32845 0.69918 0.0
C603 C 0.89206 0.34363 0.69442 0.0
C604 C 0.89605 0.35201 0.7065 0.0
C605 C 0.88565 0.36447 0.70856 0.0
H606 H 0.82584 0.40207 0.68437 0.0
C607 C 0.87864 0.34988 0.68753 0.0
C608 C 0.87483 0.36217 0.69575 0.0
H609 H 0.85394 0.41157 0.72214 0.0
H610 H 0.86839 0.39033 0.71716 0.0
H611 H 0.82397 0.36762 0.68974 0.0
H612 H 0.85138 0.39412 0.66297 0.0
H613 H 0.84644 0.37855 0.65269 0.0
H614 H 0.83243 0.39077 0.65845 0.0
H615 H 0.81734 0.37592 0.67308 0.0
H616 H 0.82577 0.35819 0.67321 0.0
C617 C 0.87836 0.3624 0.72343 0.0
C618 C 0.89433 0.37897 0.7072 0.0
C619 C 0.85544 0.32621 0.64176 0.0
C620 C 0.84323 0.32979 0.63271 0.0
C621 C 0.83493 0.34209 0.63633 0.0
C622 C 0.8387 0.35069 0.64858 0.0
C623 C 0.85096 0.34706 0.65743 0.0
C624 C 0.8591 0.33499 0.65397 0.0
C625 C 0.8719 0.33296 0.66454 0.0
C626 C 0.87 0.34571 0.67496 0.0
C627 C 0.85771 0.35391 0.67072 0.0
C628 C 0.86994 0.31807 0.67228 0.0
C629 C 0.88611 0.33442 0.65593 0.0
C630 C 0.83517 0.39967 0.69153 0.0
C631 C 0.83871 0.40862 0.70366 0.0
C632 C 0.85082 0.40484 0.71281 0.0
C633 C 0.85929 0.39253 0.70983 0.0
C634 C 0.85567 0.3838 0.69757 0.0
C635 C 0.84371 0.38741 0.68873 0.0
C636 C 0.84134 0.37686 0.67626 0.0
C637 C 0.85389 0.36639 0.67896 0.0
C638 C 0.86233 0.37049 0.69144 0.0
C639 C 0.8263 0.36926 0.67799 0.0
C640 C 0.84285 0.38543 0.66178 0.0
H641 H 0.89815 0.3247 0.68152 0.0
H642 H 0.91155 0.35573 0.72449 0.0
H643 H 0.90243 0.37818 0.69845 0.0
H644 H 0.88737 0.38828 0.70402 0.0
H645 H 0.9004 0.38166 0.71758 0.0
H646 H 0.87597 0.35066 0.72545 0.0
H647 H 0.8856 0.36642 0.73257 0.0
H648 H 0.8677 0.36787 0.72392 0.0
H649 H 0.86215 0.31694 0.63925 0.0
H650 H 0.82536 0.345 0.62973 0.0
H651 H 0.83189 0.35986 0.65067 0.0
H652 H 0.85827 0.31605 0.67466 0.0
H653 H 0.87358 0.30895 0.66532 0.0
H654 H 0.87579 0.31751 0.683 0.0
H655 H 0.88477 0.34241 0.64684 0.0
H656 H 0.89543 0.33871 0.66266 0.0
H657 H 0.88917 0.32381 0.65108 0.0
H658 H 0.91969 0.31913 0.69615 0.0
C659 C 0.90067 0.33166 0.6907 0.0
C660 C 0.22325 0.40345 0.70058 0.0
C661 C 0.21812 0.41082 0.7128 0.0
C662 C 0.20555 0.40531 0.71954 0.0
C663 C 0.20362 0.38545 0.70188 0.0
C664 C 0.21588 0.39096 0.69533 0.0
C665 C 0.21984 0.38235 0.68215 0.0
H666 H 0.20604 0.32769 0.63415 0.0
C667 C 0.19853 0.37238 0.69341 0.0
C668 C 0.20803 0.37064 0.68183 0.0
H669 H 0.24079 0.36006 0.63459 0.0
H670 H 0.23208 0.37029 0.65664 0.0
H671 H 0.2088 0.32104 0.66925 0.0
H672 H 0.18028 0.34955 0.64427 0.0
H673 H 0.16989 0.33992 0.657 0.0
H674 H 0.17902 0.33 0.64305 0.0
H675 H 0.19391 0.31411 0.65795 0.0
H676 H 0.19133 0.31984 0.67654 0.0
C677 C 0.23523 0.37583 0.68515 0.0
C678 C 0.21861 0.39258 0.66864 0.0
C679 C 0.15403 0.34297 0.70879 0.0
C680 C 0.14694 0.33032 0.70318 0.0
C681 C 0.15249 0.3237 0.69062 0.0
C682 C 0.16474 0.32955 0.68378 0.0
C683 C 0.17165 0.34218 0.68951 0.0
C684 C 0.1663 0.34865 0.70186 0.0
C685 C 0.17513 0.36194 0.70652 0.0
C686 C 0.1867 0.36234 0.695 0.0
C687 C 0.18457 0.35076 0.68499 0.0
C688 C 0.18184 0.35913 0.72198 0.0
C689 C 0.16507 0.3754 0.70551 0.0
C690 C 0.21177 0.33694 0.63907 0.0
C691 C 0.224 0.34323 0.63239 0.0
C692 C 0.23114 0.35523 0.63922 0.0
C693 C 0.22611 0.36113 0.65215 0.0
C694 C 0.21374 0.35502 0.65852 0.0
C695 C 0.20682 0.34305 0.65212 0.0
C696 C 0.19392 0.33804 0.66074 0.0
C697 C 0.19415 0.34918 0.67315 0.0
C698 C 0.20581 0.35905 0.67169 0.0
C699 C 0.19699 0.3224 0.66638 0.0
C700 C 0.17999 0.33931 0.65081 0.0
H701 H 0.18886 0.38899 0.7198 0.0
H702 H 0.23266 0.40751 0.69493 0.0
H703 H 0.21003 0.40094 0.67003 0.0
H704 H 0.21519 0.38679 0.65849 0.0
H705 H 0.22906 0.39847 0.6669 0.0
H706 H 0.23697 0.37313 0.69693 0.0
H707 H 0.24396 0.38367 0.68216 0.0
H708 H 0.23684 0.36539 0.6794 0.0
H709 H 0.15024 0.34826 0.71852 0.0
H710 H 0.14721 0.31407 0.68593 0.0
H711 H 0.16834 0.32402 0.67424 0.0
H712 H 0.18577 0.34771 0.72297 0.0
H713 H 0.17364 0.36083 0.73048 0.0
H714 H 0.19149 0.36607 0.72457 0.0
H715 H 0.15746 0.37458 0.69579 0.0
H716 H 0.17114 0.38573 0.70405 0.0
H717 H 0.15836 0.37629 0.71535 0.0
H718 H 0.20138 0.41074 0.72902 0.0
C719 C 0.19832 0.39265 0.71419 0.0
C720 C 0.20498 0.32527 0.39579 0.0
C721 C 0.20109 0.31254 0.40347 0.0
C722 C 0.18943 0.30382 0.39793 0.0
C723 C 0.1854 0.32068 0.37778 0.0
C724 C 0.19708 0.32906 0.38294 0.0
C725 C 0.19987 0.34204 0.37322 0.0
H726 H 0.18054 0.38105 0.31247 0.0
C727 C 0.17917 0.3278 0.3645 0.0
C728 C 0.18764 0.34029 0.36167 0.0
H729 H 0.21665 0.38956 0.3431 0.0
H730 H 0.20979 0.36854 0.35727 0.0
H731 H 0.15783 0.37549 0.3364 0.0
H732 H 0.18298 0.34539 0.31169 0.0
H733 H 0.16462 0.33937 0.31143 0.0
H734 H 0.16903 0.3569 0.30383 0.0
H735 H 0.1522 0.37009 0.31823 0.0
H736 H 0.14689 0.35978 0.33406 0.0
C737 C 0.19819 0.3561 0.38235 0.0
C738 C 0.21512 0.34027 0.3667 0.0
C739 C 0.13295 0.30669 0.34012 0.0
C740 C 0.12367 0.31168 0.32872 0.0
C741 C 0.12737 0.32453 0.32121 0.0
C742 C 0.14022 0.33232 0.32497 0.0
C743 C 0.14935 0.32734 0.33654 0.0
C744 C 0.14557 0.31478 0.34397 0.0
C745 C 0.15603 0.31165 0.35656 0.0
C746 C 0.16673 0.32434 0.35543 0.0
C747 C 0.16289 0.33339 0.34358 0.0
C748 C 0.1474 0.31224 0.37084 0.0
C749 C 0.16338 0.29681 0.35365 0.0
C750 C 0.18697 0.37853 0.32227 0.0
C751 C 0.19928 0.38709 0.32649 0.0
C752 C 0.20731 0.38311 0.33931 0.0
C753 C 0.20325 0.37091 0.34763 0.0
C754 C 0.19095 0.36251 0.34321 0.0
C755 C 0.18299 0.36647 0.33076 0.0
C756 C 0.16995 0.35663 0.32793 0.0
C757 C 0.17165 0.34582 0.34043 0.0
C758 C 0.18397 0.34929 0.3494 0.0
C759 C 0.15594 0.36589 0.32909 0.0
C760 C 0.17159 0.34918 0.3129 0.0
H761 H 0.17273 0.30077 0.38166 0.0
H762 H 0.21406 0.33207 0.39964 0.0
H763 H 0.21726 0.32861 0.36419 0.0
H764 H 0.2162 0.34603 0.3562 0.0
H765 H 0.22389 0.34414 0.37449 0.0
H766 H 0.18879 0.35505 0.38966 0.0
H767 H 0.20814 0.35829 0.38931 0.0
H768 H 0.19587 0.36581 0.37556 0.0
H769 H 0.13019 0.29695 0.3462 0.0
H770 H 0.12031 0.32852 0.31239 0.0
H771 H 0.14248 0.34199 0.3188 0.0
H772 H 0.13874 0.32067 0.37008 0.0
H773 H 0.14199 0.30159 0.37304 0.0
H774 H 0.15422 0.31544 0.3805 0.0
H775 H 0.16498 0.2952 0.34176 0.0
H776 H 0.17445 0.29605 0.35874 0.0
H777 H 0.15658 0.28756 0.35749 0.0
H778 H 0.18617 0.29403 0.40364 0.0
C779 C 0.18158 0.30782 0.38518 0.0
C780 C 0.21084 0.62696 0.33184 0.0
C781 C 0.2043 0.61851 0.3206 0.0
C782 C 0.19037 0.62245 0.31495 0.0
C783 C 0.19003 0.64333 0.33142 0.0
C784 C 0.2035 0.6391 0.33717 0.0
C785 C 0.20872 0.64856 0.3497 0.0
H786 H 0.19816 0.70488 0.39563 0.0
C787 C 0.18554 0.6566 0.33945 0.0
C788 C 0.19646 0.65952 0.35027 0.0
H789 H 0.23342 0.67382 0.39636 0.0
H790 H 0.22318 0.66225 0.37474 0.0
H791 H 0.17164 0.68139 0.3869 0.0
H792 H 0.19816 0.71069 0.3622 0.0
H793 H 0.18145 0.70925 0.35234 0.0
H794 H 0.18193 0.71681 0.37059 0.0
H795 H 0.17108 0.70095 0.38816 0.0
H796 H 0.16029 0.69122 0.37452 0.0
C797 C 0.20974 0.63893 0.36365 0.0
C798 C 0.22331 0.6559 0.34552 0.0
C799 C 0.13902 0.68429 0.32453 0.0
C800 C 0.13327 0.69764 0.32928 0.0
C801 C 0.14062 0.7053 0.3407 0.0
C802 C 0.15338 0.69979 0.34741 0.0
C803 C 0.15907 0.68651 0.34259 0.0
C804 C 0.15206 0.67905 0.33119 0.0
C805 C 0.16031 0.66552 0.32706 0.0
C806 C 0.17336 0.66615 0.33784 0.0
C807 C 0.17238 0.67839 0.34706 0.0
C808 C 0.15046 0.65204 0.32969 0.0
C809 C 0.16497 0.66721 0.31107 0.0
C810 C 0.20359 0.69551 0.39118 0.0
C811 C 0.21663 0.69026 0.39779 0.0
C812 C 0.22348 0.67821 0.39145 0.0
C813 C 0.21742 0.6714 0.37892 0.0
C814 C 0.20432 0.67662 0.37255 0.0
C815 C 0.19768 0.68857 0.37858 0.0
C816 C 0.18399 0.69277 0.37005 0.0
C817 C 0.18322 0.68098 0.3583 0.0
C818 C 0.19517 0.6716 0.35985 0.0
C819 C 0.171 0.69164 0.38039 0.0
C820 C 0.18636 0.7082 0.3635 0.0
H821 H 0.17271 0.63738 0.31544 0.0
H822 H 0.22138 0.624 0.33662 0.0
H823 H 0.22293 0.6592 0.33382 0.0
H824 H 0.22572 0.66608 0.35165 0.0
H825 H 0.2326 0.64831 0.34719 0.0
H826 H 0.20198 0.62951 0.36292 0.0
H827 H 0.22088 0.63445 0.3654 0.0
H828 H 0.20663 0.64484 0.3736 0.0
H829 H 0.13367 0.67826 0.31566 0.0
H830 H 0.13636 0.71556 0.34453 0.0
H831 H 0.15835 0.70613 0.35611 0.0
H832 H 0.14427 0.65341 0.33984 0.0
H833 H 0.14241 0.65041 0.32047 0.0
H834 H 0.15674 0.64193 0.33135 0.0
H835 H 0.16924 0.67844 0.30914 0.0
H836 H 0.17386 0.65982 0.30824 0.0
H837 H 0.15556 0.66529 0.30331 0.0
H838 H 0.18509 0.61602 0.30632 0.0
C839 C 0.18324 0.63487 0.32023 0.0
C840 C 0.81553 0.63276 0.32913 0.0
C841 C 0.81948 0.62489 0.31673 0.0
C842 C 0.83159 0.62981 0.30887 0.0
C843 C 0.83564 0.64988 0.32599 0.0
C844 C 0.82369 0.64507 0.33352 0.0
C845 C 0.82082 0.65436 0.34656 0.0
H846 H 0.83768 0.71166 0.39046 0.0
C847 C 0.84168 0.66303 0.33365 0.0
C848 C 0.83297 0.66566 0.34567 0.0
H849 H 0.8034 0.67922 0.39416 0.0
H850 H 0.81086 0.66756 0.37233 0.0
H851 H 0.8344 0.71552 0.35433 0.0
H852 H 0.86281 0.68816 0.38091 0.0
H853 H 0.87296 0.69661 0.36722 0.0
H854 H 0.86463 0.7077 0.38082 0.0
H855 H 0.84895 0.72298 0.36577 0.0
H856 H 0.85219 0.71633 0.34764 0.0
C857 C 0.80552 0.66127 0.34418 0.0
C858 C 0.82258 0.64466 0.36042 0.0
C859 C 0.88722 0.68847 0.31531 0.0
C860 C 0.89544 0.70076 0.32011 0.0
C861 C 0.89052 0.70869 0.33222 0.0
C862 C 0.87795 0.70434 0.33956 0.0
C863 C 0.87008 0.69188 0.33481 0.0
C864 C 0.87467 0.68428 0.32275 0.0
C865 C 0.86486 0.67142 0.31908 0.0
C866 C 0.85378 0.67241 0.331 0.0
C867 C 0.85687 0.68442 0.34028 0.0
C868 C 0.85777 0.67395 0.3037 0.0
C869 C 0.87403 0.65735 0.32042 0.0
C870 C 0.83183 0.70207 0.38644 0.0
C871 C 0.81999 0.69625 0.39413 0.0
C872 C 0.81266 0.68376 0.3886 0.0
C873 C 0.817 0.677 0.37583 0.0
C874 C 0.82894 0.68266 0.36837 0.0
C875 C 0.83622 0.69497 0.37363 0.0
C876 C 0.84892 0.69898 0.36419 0.0
C877 C 0.84792 0.68706 0.35249 0.0
C878 C 0.83611 0.67765 0.3551 0.0
C879 C 0.84612 0.7143 0.35766 0.0
C880 C 0.86314 0.69793 0.37371 0.0
H881 H 0.84885 0.64534 0.30708 0.0
H882 H 0.80617 0.6295 0.3353 0.0
H883 H 0.83042 0.63565 0.35874 0.0
H884 H 0.82724 0.65068 0.36998 0.0
H885 H 0.81201 0.6396 0.36334 0.0
H886 H 0.80324 0.66369 0.33242 0.0
H887 H 0.79677 0.65378 0.34784 0.0
H888 H 0.8045 0.67191 0.34973 0.0
H889 H 0.89064 0.68201 0.30616 0.0
H890 H 0.89635 0.71837 0.33604 0.0
H891 H 0.87487 0.71083 0.34868 0.0
H892 H 0.85533 0.68571 0.30195 0.0
H893 H 0.86516 0.6705 0.295 0.0
H894 H 0.84715 0.66828 0.30211 0.0
H895 H 0.8818 0.65802 0.33001 0.0
H896 H 0.86735 0.64749 0.32227 0.0
H897 H 0.88051 0.65568 0.31053 0.0
H898 H 0.83495 0.6239 0.29932 0.0
C899 C 0.83969 0.64223 0.31344 0.0
C900 C 0.82762 0.33068 0.3965 0.0
C901 C 0.81531 0.33608 0.4035 0.0
C902 C 0.80915 0.3493 0.39848 0.0
C903 C 0.82727 0.35126 0.37973 0.0
C904 C 0.83336 0.33837 0.38474 0.0
C905 C 0.84637 0.33399 0.37619 0.0
H906 H 0.89121 0.34771 0.32027 0.0
C907 C 0.83591 0.35649 0.3673 0.0
C908 C 0.84715 0.34637 0.36523 0.0
H909 H 0.89299 0.31106 0.34993 0.0
H910 H 0.87252 0.32075 0.36291 0.0
H911 H 0.88725 0.37124 0.34369 0.0
H912 H 0.8568 0.34796 0.3156 0.0
H913 H 0.8508 0.36607 0.31581 0.0
H914 H 0.8687 0.36213 0.30934 0.0
H915 H 0.8837 0.37668 0.32512 0.0
H916 H 0.87329 0.38375 0.33992 0.0
C917 C 0.85995 0.33377 0.38672 0.0
C918 C 0.84282 0.31917 0.36868 0.0
C919 C 0.82238 0.40342 0.33974 0.0
C920 C 0.82907 0.41081 0.32817 0.0
C921 C 0.8417 0.40491 0.32225 0.0
C922 C 0.84763 0.39195 0.32763 0.0
C923 C 0.84094 0.38467 0.33915 0.0
C924 C 0.82861 0.39042 0.34516 0.0
C925 C 0.82347 0.38121 0.35773 0.0
C926 C 0.83464 0.36896 0.35803 0.0
C927 C 0.84471 0.3711 0.34701 0.0
C928 C 0.82452 0.39059 0.37179 0.0
C929 C 0.8079 0.37549 0.35376 0.0
C930 C 0.88712 0.34166 0.32947 0.0
C931 C 0.89359 0.32851 0.33395 0.0
C932 C 0.88818 0.32123 0.34625 0.0
C933 C 0.87626 0.32684 0.35372 0.0
C934 C 0.86974 0.33992 0.34887 0.0
C935 C 0.87535 0.3471 0.33701 0.0
C936 C 0.86745 0.36093 0.33339 0.0
C937 C 0.85593 0.36085 0.34488 0.0
C938 C 0.85723 0.34855 0.35393 0.0
C939 C 0.87841 0.37387 0.33551 0.0
C940 C 0.86062 0.35936 0.3177 0.0
H941 H 0.80979 0.3668 0.38328 0.0
H942 H 0.83282 0.32072 0.4002 0.0
H943 H 0.83125 0.31877 0.36458 0.0
H944 H 0.84935 0.31723 0.35897 0.0
H945 H 0.84445 0.30997 0.37645 0.0
H946 H 0.85957 0.34284 0.39479 0.0
H947 H 0.86054 0.32336 0.39291 0.0
H948 H 0.87028 0.33547 0.38106 0.0
H949 H 0.81269 0.40776 0.34455 0.0
H950 H 0.84692 0.41026 0.31321 0.0
H951 H 0.85718 0.3881 0.32249 0.0
H952 H 0.83435 0.39782 0.37182 0.0
H953 H 0.8148 0.39766 0.37266 0.0
H954 H 0.82579 0.38399 0.38183 0.0
H955 H 0.80709 0.37196 0.34213 0.0
H956 H 0.80481 0.36581 0.36016 0.0
H957 H 0.79967 0.38414 0.35529 0.0
H958 H 0.79963 0.35367 0.40357 0.0
C959 C 0.81504 0.35688 0.38664 0.0
C960 C 0.69958 0.21594 0.63098 0.0
C961 C 0.71215 0.21226 0.62337 0.0
C962 C 0.71976 0.19948 0.62741 0.0
C963 C 0.70277 0.19453 0.64651 0.0
C964 C 0.69517 0.20699 0.64259 0.0
C965 C 0.68242 0.20942 0.65231 0.0
H966 H 0.64505 0.18878 0.71194 0.0
C967 C 0.69563 0.1877 0.65909 0.0
C968 C 0.6837 0.19641 0.66264 0.0
H969 H 0.63562 0.22491 0.68273 0.0
H970 H 0.65591 0.2183 0.66812 0.0
H971 H 0.6485 0.16641 0.68687 0.0
H972 H 0.68043 0.19099 0.71232 0.0
H973 H 0.68635 0.17278 0.71134 0.0
H974 H 0.66928 0.17669 0.7196 0.0
H975 H 0.65466 0.16048 0.70467 0.0
H976 H 0.66392 0.15526 0.68838 0.0
C977 C 0.66819 0.20872 0.64272 0.0
C978 C 0.68494 0.22409 0.66041 0.0
C979 C 0.71565 0.14025 0.68055 0.0
C980 C 0.71096 0.13107 0.69183 0.0
C981 C 0.69882 0.13525 0.69987 0.0
C982 C 0.69141 0.14823 0.69672 0.0
C983 C 0.69605 0.1572 0.6853 0.0
C984 C 0.70796 0.15314 0.6774 0.0
C985 C 0.71102 0.16386 0.66538 0.0
C986 C 0.69892 0.1749 0.66731 0.0
C987 C 0.69028 0.17099 0.67908 0.0
C988 C 0.70933 0.15569 0.65058 0.0
C989 C 0.72636 0.17067 0.66854 0.0
C990 C 0.64714 0.19526 0.70235 0.0
C991 C 0.6386 0.20755 0.69875 0.0
C992 C 0.64209 0.21562 0.68613 0.0
C993 C 0.65386 0.21169 0.67752 0.0
C994 C 0.66227 0.19945 0.68138 0.0
C995 C 0.65868 0.19135 0.6935 0.0
C996 C 0.6682 0.17818 0.69554 0.0
C997 C 0.67839 0.17992 0.68291 0.0
C998 C 0.675 0.19248 0.67468 0.0
C999 C 0.6584 0.16431 0.6939 0.0
C1000 C 0.67649 0.17958 0.71051 0.0
H1001 H 0.72149 0.18113 0.64131 0.0
H1002 H 0.69352 0.22569 0.62817 0.0
H1003 H 0.69656 0.22527 0.66421 0.0
H1004 H 0.67854 0.22504 0.67035 0.0
H1005 H 0.68232 0.23346 0.65311 0.0
H1006 H 0.66902 0.2004 0.63393 0.0
H1007 H 0.66595 0.2194 0.63739 0.0
H1008 H 0.6586 0.20533 0.64891 0.0
H1009 H 0.72488 0.13729 0.67412 0.0
H1010 H 0.69511 0.12847 0.70874 0.0
H1011 H 0.68231 0.15077 0.70331 0.0
H1012 H 0.70029 0.14749 0.65084 0.0
H1013 H 0.71947 0.14979 0.64805 0.0
H1014 H 0.70634 0.16294 0.64135 0.0
H1015 H 0.72871 0.17168 0.68051 0.0
H1016 H 0.72741 0.18192 0.66433 0.0
H1017 H 0.73505 0.16383 0.66395 0.0
H1018 H 0.7293 0.19623 0.62159 0.0
C1019 C 0.71516 0.19065 0.63886 0.0
C1020 C 0.34397 0.14932 0.70629 0.0
C1021 C 0.33034 0.14326 0.70178 0.0
C1022 C 0.32246 0.14975 0.69006 0.0
C1023 C 0.34175 0.16771 0.68719 0.0
C1024 C 0.34936 0.16166 0.69895 0.0
C1025 C 0.36332 0.17003 0.70255 0.0
H1026 H 0.40975 0.22609 0.68685 0.0
C1027 C 0.3504 0.18014 0.68166 0.0
C1028 C 0.36301 0.18172 0.69069 0.0
H1029 H 0.41318 0.19535 0.7226 0.0
H1030 H 0.39094 0.18337 0.71412 0.0
H1031 H 0.37383 0.23092 0.68783 0.0
H1032 H 0.40086 0.20256 0.66295 0.0
H1033 H 0.38602 0.2075 0.65145 0.0
H1034 H 0.39859 0.22143 0.65824 0.0
H1035 H 0.38646 0.23739 0.67463 0.0
H1036 H 0.36824 0.23168 0.6692 0.0
C1037 C 0.36214 0.17668 0.71802 0.0
C1038 C 0.3763 0.15953 0.70097 0.0
C1039 C 0.33286 0.20565 0.63511 0.0
C1040 C 0.33909 0.21643 0.62631 0.0
C1041 C 0.3525 0.22292 0.63091 0.0
C1042 C 0.35964 0.21868 0.64402 0.0
C1043 C 0.35341 0.20767 0.6526 0.0
C1044 C 0.34026 0.20134 0.64804 0.0
C1045 C 0.33562 0.1893 0.65806 0.0
C1046 C 0.34815 0.1894 0.66937 0.0
C1047 C 0.35849 0.20027 0.66624 0.0
C1048 C 0.321 0.19372 0.6648 0.0
C1049 C 0.33492 0.17491 0.64912 0.0
C1050 C 0.40562 0.21688 0.69293 0.0
C1051 C 0.41332 0.21171 0.70544 0.0
C1052 C 0.40762 0.1995 0.71285 0.0
C1053 C 0.39461 0.19258 0.70797 0.0
C1054 C 0.38708 0.19783 0.69546 0.0
C1055 C 0.39263 0.20976 0.68812 0.0
C1056 C 0.38335 0.21351 0.67475 0.0
C1057 C 0.3711 0.20223 0.6756 0.0
C1058 C 0.37335 0.19302 0.68776 0.0
C1059 C 0.37768 0.22923 0.67656 0.0
C1060 C 0.39262 0.21127 0.66108 0.0
H1061 H 0.32154 0.16615 0.67384 0.0
H1062 H 0.35017 0.14469 0.71541 0.0
H1063 H 0.37462 0.15255 0.69109 0.0
H1064 H 0.38677 0.16529 0.69948 0.0
H1065 H 0.37743 0.15221 0.7106 0.0
H1066 H 0.3507 0.17981 0.72012 0.0
H1067 H 0.36562 0.16875 0.7266 0.0
H1068 H 0.36854 0.18689 0.71948 0.0
H1069 H 0.32267 0.20034 0.63177 0.0
H1070 H 0.35746 0.23132 0.62433 0.0
H1071 H 0.36979 0.22404 0.64692 0.0
H1072 H 0.32023 0.20579 0.66592 0.0
H1073 H 0.3115 0.18998 0.65787 0.0
H1074 H 0.31985 0.18952 0.67603 0.0
H1075 H 0.34385 0.17457 0.64118 0.0
H1076 H 0.33651 0.16506 0.6559 0.0
H1077 H 0.32439 0.17386 0.64282 0.0
H1078 H 0.312 0.14525 0.68635 0.0
C1079 C 0.32807 0.16187 0.68276 0.0
C1080 C 0.39608 0.84229 0.7103 0.0
C1081 C 0.40177 0.82996 0.70328 0.0
C1082 C 0.39522 0.82527 0.68994 0.0
C1083 C 0.3773 0.84442 0.69103 0.0
C1084 C 0.38379 0.84931 0.70398 0.0
C1085 C 0.37599 0.86243 0.70986 0.0
H1086 H 0.3212 0.91183 0.70211 0.0
C1087 C 0.36459 0.8537 0.68748 0.0
C1088 C 0.36365 0.8643 0.69842 0.0
H1089 H 0.35508 0.90976 0.73608 0.0
H1090 H 0.36465 0.88808 0.72517 0.0
H1091 H 0.31445 0.87667 0.70169 0.0
H1092 H 0.34198 0.90296 0.67436 0.0
H1093 H 0.33025 0.89156 0.66357 0.0
H1094 H 0.32255 0.90535 0.67484 0.0
H1095 H 0.30688 0.88906 0.68833 0.0
H1096 H 0.3122 0.87083 0.68345 0.0
C1097 C 0.37014 0.85839 0.72502 0.0
C1098 C 0.3868 0.87554 0.71005 0.0
C1099 C 0.33437 0.84191 0.64178 0.0
C1100 C 0.32128 0.8472 0.63561 0.0
C1101 C 0.31418 0.85871 0.64266 0.0
C1102 C 0.32033 0.86501 0.65557 0.0
C1103 C 0.33355 0.85954 0.66159 0.0
C1104 C 0.34015 0.84804 0.6547 0.0
C1105 C 0.35352 0.84279 0.66284 0.0
C1106 C 0.35414 0.85315 0.67573 0.0
C1107 C 0.34257 0.86311 0.67498 0.0
C1108 C 0.35068 0.82674 0.66758 0.0
C1109 C 0.36672 0.84501 0.65286 0.0
C1110 C 0.33074 0.90676 0.70713 0.0
C1111 C 0.33739 0.91263 0.72001 0.0
C1112 C 0.34963 0.90546 0.7263 0.0
C1113 C 0.35527 0.8929 0.71986 0.0
C1114 C 0.34863 0.88729 0.70696 0.0
C1115 C 0.33649 0.89412 0.70085 0.0
C1116 C 0.3307 0.88635 0.68726 0.0
C1117 C 0.34165 0.87408 0.68598 0.0
C1118 C 0.35214 0.87467 0.69761 0.0
C1119 C 0.31519 0.88046 0.69019 0.0
C1120 C 0.33129 0.89707 0.67426 0.0
H1121 H 0.37874 0.82814 0.67366 0.0
H1122 H 0.40089 0.84621 0.72055 0.0
H1123 H 0.39389 0.8752 0.70043 0.0
H1124 H 0.38128 0.88618 0.70926 0.0
H1125 H 0.39402 0.87541 0.72004 0.0
H1126 H 0.36597 0.84694 0.72505 0.0
H1127 H 0.37889 0.85933 0.73367 0.0
H1128 H 0.3608 0.8651 0.7281 0.0
H1129 H 0.33987 0.83283 0.63681 0.0
H1130 H 0.30399 0.86288 0.63811 0.0
H1131 H 0.31455 0.87383 0.6604 0.0
H1132 H 0.33883 0.82452 0.66892 0.0
H1133 H 0.35458 0.8189 0.65936 0.0
H1134 H 0.35574 0.82412 0.67839 0.0
H1135 H 0.36542 0.85504 0.64609 0.0
H1136 H 0.37716 0.84672 0.65905 0.0
H1137 H 0.36783 0.83564 0.64529 0.0
H1138 H 0.39956 0.81608 0.6841 0.0
C1139 C 0.3831 0.83238 0.68382 0.0
C1140 C 0.69962 0.89284 0.69124 0.0
C1141 C 0.69606 0.89997 0.70434 0.0
C1142 C 0.68599 0.89316 0.71353 0.0
C1143 C 0.68219 0.87344 0.69624 0.0
C1144 C 0.69259 0.87953 0.68746 0.0
C1145 C 0.69499 0.87015 0.67415 0.0
H1146 H 0.6765 0.80889 0.63503 0.0
C1147 C 0.67643 0.86001 0.68919 0.0
C1148 C 0.68395 0.8578 0.67628 0.0
H1149 H 0.70961 0.84113 0.62536 0.0
H1150 H 0.70365 0.85479 0.64689 0.0
H1151 H 0.68285 0.8074 0.66972 0.0
H1152 H 0.65229 0.83251 0.64346 0.0
H1153 H 0.64327 0.82673 0.65908 0.0
H1154 H 0.64978 0.81331 0.64649 0.0
H1155 H 0.66746 0.79927 0.66002 0.0
H1156 H 0.66582 0.80679 0.67807 0.0
C1157 C 0.7109 0.86464 0.67504 0.0
C1158 C 0.69123 0.87927 0.66035 0.0
C1159 C 0.63351 0.83417 0.71166 0.0
C1160 C 0.62496 0.82195 0.70758 0.0
C1161 C 0.6287 0.81389 0.69512 0.0
C1162 C 0.64057 0.81818 0.68672 0.0
C1163 C 0.64881 0.83066 0.6908 0.0
C1164 C 0.64526 0.83831 0.70317 0.0
C1165 C 0.65509 0.85125 0.70599 0.0
C1166 C 0.66499 0.85037 0.69307 0.0
C1167 C 0.66134 0.83831 0.68421 0.0
C1168 C 0.66357 0.84878 0.72075 0.0
C1169 C 0.64549 0.86512 0.70542 0.0
C1170 C 0.68241 0.81895 0.63742 0.0
C1171 C 0.69363 0.82381 0.6284 0.0
C1172 C 0.70111 0.83692 0.63217 0.0
C1173 C 0.69759 0.84491 0.64467 0.0
C1174 C 0.68644 0.83981 0.6536 0.0
C1175 C 0.67901 0.82706 0.64983 0.0
C1176 C 0.66731 0.82335 0.66039 0.0
C1177 C 0.66916 0.83574 0.67132 0.0
C1178 C 0.68038 0.84543 0.66732 0.0
C1179 C 0.6709 0.80838 0.66742 0.0
C1180 C 0.65234 0.82387 0.65201 0.0
H1181 H 0.67137 0.87574 0.71701 0.0
H1182 H 0.70745 0.89759 0.68398 0.0
H1183 H 0.68114 0.88567 0.66188 0.0
H1184 H 0.68895 0.87248 0.65057 0.0
H1185 H 0.7002 0.88709 0.658 0.0
H1186 H 0.71428 0.86203 0.68652 0.0
H1187 H 0.71859 0.87306 0.67101 0.0
H1188 H 0.71237 0.85441 0.66893 0.0
H1189 H 0.63113 0.84043 0.72131 0.0
H1190 H 0.62226 0.80445 0.69169 0.0
H1191 H 0.64279 0.81169 0.6773 0.0
H1192 H 0.66439 0.83697 0.72349 0.0
H1193 H 0.65811 0.85421 0.72991 0.0
H1194 H 0.67506 0.85262 0.72049 0.0
H1195 H 0.63692 0.86422 0.69655 0.0
H1196 H 0.65162 0.87518 0.70292 0.0
H1197 H 0.63989 0.86668 0.71588 0.0
H1198 H 0.68344 0.89794 0.72394 0.0
C1199 C 0.67905 0.88009 0.70954 0.0
C1200 C 0.6951 0.82663 0.38793 0.0
C1201 C 0.68839 0.81602 0.39652 0.0
C1202 C 0.67407 0.81132 0.39258 0.0
C1203 C 0.67362 0.82769 0.37158 0.0
C1204 C 0.68753 0.83241 0.37577 0.0
C1205 C 0.69296 0.84451 0.36632 0.0
H1206 H 0.68123 0.89416 0.31313 0.0
C1207 C 0.66886 0.83629 0.35848 0.0
C1208 C 0.68014 0.84628 0.3556 0.0
H1209 H 0.71977 0.88792 0.34107 0.0
H1210 H 0.70866 0.86714 0.35198 0.0
H1211 H 0.65639 0.88604 0.33675 0.0
H1212 H 0.67835 0.85999 0.30525 0.0
H1213 H 0.66057 0.85288 0.30624 0.0
H1214 H 0.66327 0.87139 0.3 0.0
H1215 H 0.65405 0.88834 0.31732 0.0
H1216 H 0.6434 0.87513 0.327 0.0
C1217 C 0.69545 0.85822 0.37611 0.0
C1218 C 0.70676 0.83907 0.35866 0.0
C1219 C 0.62075 0.8248 0.33065 0.0
C1220 C 0.6139 0.83079 0.31798 0.0
C1221 C 0.6206 0.84293 0.31135 0.0
C1222 C 0.63381 0.84884 0.317 0.0
C1223 C 0.64059 0.84259 0.32946 0.0
C1224 C 0.63403 0.83082 0.33616 0.0
C1225 C 0.64282 0.82576 0.34945 0.0
C1226 C 0.65603 0.83596 0.34917 0.0
C1227 C 0.65458 0.84591 0.33748 0.0
C1228 C 0.63369 0.82828 0.36312 0.0
C1229 C 0.64707 0.80966 0.34712 0.0
C1230 C 0.6873 0.88829 0.32156 0.0
C1231 C 0.70129 0.89317 0.32654 0.0
C1232 C 0.70879 0.88494 0.33739 0.0
C1233 C 0.70235 0.87269 0.34367 0.0
C1234 C 0.68822 0.86832 0.33906 0.0
C1235 C 0.68104 0.8758 0.32792 0.0
C1236 C 0.66645 0.86878 0.3239 0.0
C1237 C 0.66584 0.85639 0.33501 0.0
C1238 C 0.6786 0.85634 0.34389 0.0
C1239 C 0.65436 0.88013 0.32625 0.0
C1240 C 0.66704 0.86302 0.30801 0.0
H1241 H 0.65588 0.81293 0.37754 0.0
H1242 H 0.70597 0.83067 0.39086 0.0
H1243 H 0.7061 0.8271 0.35656 0.0
H1244 H 0.70806 0.84398 0.34774 0.0
H1245 H 0.71681 0.84119 0.3655 0.0
H1246 H 0.68748 0.85853 0.38501 0.0
H1247 H 0.70657 0.85831 0.38134 0.0
H1248 H 0.69374 0.86858 0.37018 0.0
H1249 H 0.61587 0.81564 0.33622 0.0
H1250 H 0.61578 0.84771 0.30152 0.0
H1251 H 0.63831 0.85801 0.31136 0.0
H1252 H 0.62709 0.83837 0.36193 0.0
H1253 H 0.62604 0.81901 0.36486 0.0
H1254 H 0.64054 0.83002 0.37313 0.0
H1255 H 0.65129 0.80811 0.33598 0.0
H1256 H 0.65582 0.80602 0.3548 0.0
H1257 H 0.63747 0.80229 0.34825 0.0
H1258 H 0.66867 0.80315 0.3991 0.0
C1259 C 0.66669 0.81701 0.38008 0.0
C1260 C 0.70702 0.12664 0.32328 0.0
C1261 C 0.70022 0.12054 0.31061 0.0
C1262 C 0.68801 0.12767 0.30423 0.0
C1263 C 0.68938 0.14631 0.32318 0.0
C1264 C 0.70147 0.13944 0.32932 0.0
C1265 C 0.7075 0.14735 0.34268 0.0
H1266 H 0.70147 0.20167 0.39238 0.0
C1267 C 0.68626 0.15924 0.33229 0.0
C1268 C 0.69686 0.1599 0.34375 0.0
H1269 H 0.73582 0.16973 0.38959 0.0
H1270 H 0.72398 0.15941 0.36813 0.0
H1271 H 0.67422 0.18052 0.38307 0.0
H1272 H 0.7014 0.20925 0.3582 0.0
H1273 H 0.68344 0.21098 0.35118 0.0
H1274 H 0.68768 0.21603 0.36991 0.0
H1275 H 0.67349 0.20005 0.38452 0.0
H1276 H 0.66288 0.19026 0.37071 0.0
C1277 C 0.70662 0.13686 0.35589 0.0
C1278 C 0.72317 0.15279 0.33953 0.0
C1279 C 0.64308 0.19166 0.31875 0.0
C1280 C 0.63726 0.20427 0.32508 0.0
C1281 C 0.64377 0.20962 0.33823 0.0
C1282 C 0.65597 0.20273 0.34477 0.0
C1283 C 0.66178 0.1903 0.33815 0.0
C1284 C 0.65525 0.18491 0.32541 0.0
C1285 C 0.66275 0.17151 0.31997 0.0
C1286 C 0.67505 0.16988 0.33137 0.0
C1287 C 0.67445 0.18092 0.34201 0.0
C1288 C 0.65176 0.15856 0.32033 0.0
C1289 C 0.66859 0.1749 0.30464 0.0
C1290 C 0.70659 0.19254 0.38715 0.0
C1291 C 0.71962 0.18648 0.39304 0.0
C1292 C 0.72564 0.17447 0.38572 0.0
C1293 C 0.7188 0.16853 0.37309 0.0
C1294 C 0.70581 0.17468 0.36745 0.0
C1295 C 0.70002 0.1866 0.37436 0.0
C1296 C 0.68656 0.19219 0.36636 0.0
C1297 C 0.68514 0.18154 0.35364 0.0
C1298 C 0.69637 0.17119 0.35441 0.0
C1299 C 0.67355 0.19082 0.37665 0.0
C1300 C 0.68978 0.20797 0.36118 0.0
H1301 H 0.67318 0.14527 0.3051 0.0
H1302 H 0.71658 0.12163 0.32833 0.0
H1303 H 0.72437 0.15507 0.32769 0.0
H1304 H 0.72594 0.16326 0.34501 0.0
H1305 H 0.73144 0.14452 0.34279 0.0
H1306 H 0.69599 0.13087 0.3556 0.0
H1307 H 0.71545 0.12865 0.35574 0.0
H1308 H 0.70721 0.14256 0.36651 0.0
H1309 H 0.63821 0.18704 0.30882 0.0
H1310 H 0.6396 0.21933 0.34332 0.0
H1311 H 0.66046 0.20742 0.3547 0.0
H1312 H 0.64463 0.15944 0.32988 0.0
H1313 H 0.64458 0.15832 0.31031 0.0
H1314 H 0.65712 0.14788 0.32164 0.0
H1315 H 0.67269 0.18636 0.30408 0.0
H1316 H 0.67801 0.16813 0.30189 0.0
H1317 H 0.65987 0.17351 0.29602 0.0
H1318 H 0.6825 0.12321 0.29455 0.0
C1319 C 0.68255 0.14046 0.31044 0.0
C1320 C 0.32641 0.13164 0.33298 0.0
C1321 C 0.33133 0.12356 0.32101 0.0
C1322 C 0.34372 0.12848 0.31373 0.0
C1323 C 0.34643 0.14895 0.33029 0.0
C1324 C 0.33423 0.14427 0.33752 0.0
C1325 C 0.33117 0.15405 0.35036 0.0
H1326 H 0.35099 0.21401 0.39084 0.0
C1327 C 0.35229 0.16218 0.33764 0.0
C1328 C 0.34349 0.1653 0.3495 0.0
H1329 H 0.31496 0.18435 0.39818 0.0
H1330 H 0.32124 0.1703 0.37691 0.0
H1331 H 0.34669 0.21575 0.356 0.0
H1332 H 0.3739 0.18955 0.38461 0.0
H1333 H 0.38441 0.19405 0.36956 0.0
H1334 H 0.37794 0.20841 0.38111 0.0
H1335 H 0.36212 0.22307 0.36626 0.0
H1336 H 0.36405 0.21508 0.34844 0.0
C1337 C 0.31601 0.16099 0.34764 0.0
C1338 C 0.33245 0.14482 0.36448 0.0
C1339 C 0.39718 0.18685 0.31758 0.0
C1340 C 0.40561 0.19904 0.32205 0.0
C1341 C 0.4016 0.20693 0.3345 0.0
C1342 C 0.38932 0.20277 0.34231 0.0
C1343 C 0.381 0.19053 0.33769 0.0
C1344 C 0.38504 0.1828 0.32555 0.0
C1345 C 0.3752 0.1699 0.32239 0.0
C1346 C 0.36448 0.17121 0.33459 0.0
C1347 C 0.36787 0.1833 0.34347 0.0
C1348 C 0.36771 0.17223 0.30713 0.0
C1349 C 0.38451 0.15586 0.32384 0.0
C1350 C 0.34451 0.2044 0.38805 0.0
C1351 C 0.3325 0.20031 0.39635 0.0
C1352 C 0.32421 0.18787 0.39196 0.0
C1353 C 0.32792 0.17965 0.37965 0.0
C1354 C 0.34008 0.18385 0.37161 0.0
C1355 C 0.34811 0.19607 0.37591 0.0
C1356 C 0.36076 0.19899 0.36631 0.0
C1357 C 0.35907 0.18654 0.35548 0.0
C1358 C 0.34693 0.17764 0.35854 0.0
C1359 C 0.35845 0.21403 0.35888 0.0
C1360 C 0.37505 0.19782 0.3758 0.0
H1361 H 0.36056 0.14415 0.31216 0.0
H1362 H 0.31693 0.12806 0.33881 0.0
H1363 H 0.34176 0.13715 0.36399 0.0
H1364 H 0.33472 0.15149 0.37435 0.0
H1365 H 0.32237 0.13824 0.36602 0.0
H1366 H 0.31459 0.1645 0.33605 0.0
H1367 H 0.30713 0.15305 0.34994 0.0
H1368 H 0.31448 0.17091 0.35421 0.0
H1369 H 0.40012 0.18042 0.30821 0.0
H1370 H 0.4079 0.21642 0.33809 0.0
H1371 H 0.3868 0.20925 0.35164 0.0
H1372 H 0.36526 0.18398 0.30526 0.0
H1373 H 0.37485 0.16863 0.29828 0.0
H1374 H 0.35702 0.16662 0.30586 0.0
H1375 H 0.39396 0.15744 0.33166 0.0
H1376 H 0.37839 0.14653 0.32836 0.0
H1377 H 0.38893 0.15266 0.31316 0.0
H1378 H 0.34758 0.12258 0.30437 0.0
C1379 C 0.35124 0.14108 0.31825 0.0
C1380 C 0.31241 0.82334 0.40047 0.0
C1381 C 0.29954 0.8284 0.40675 0.0
C1382 C 0.29227 0.84033 0.40017 0.0
C1383 C 0.31073 0.84216 0.38183 0.0
C1384 C 0.31775 0.83032 0.38807 0.0
C1385 C 0.3312 0.82625 0.38 0.0
H1386 H 0.37884 0.84071 0.32651 0.0
C1387 C 0.31937 0.84722 0.36938 0.0
C1388 C 0.33139 0.83798 0.36823 0.0
H1389 H 0.37812 0.80382 0.35588 0.0
H1390 H 0.35666 0.8132 0.36704 0.0
H1391 H 0.36964 0.86558 0.35027 0.0
H1392 H 0.34321 0.84019 0.31939 0.0
H1393 H 0.33825 0.85871 0.31828 0.0
H1394 H 0.35641 0.8535 0.31375 0.0
H1395 H 0.37006 0.86878 0.33094 0.0
H1396 H 0.35642 0.87697 0.342 0.0
C1397 C 0.34457 0.82763 0.39073 0.0
C1398 C 0.32879 0.81076 0.37344 0.0
C1399 C 0.30227 0.89147 0.34054 0.0
C1400 C 0.30838 0.89982 0.32943 0.0
C1401 C 0.32213 0.89597 0.32424 0.0
C1402 C 0.32954 0.88368 0.32987 0.0
C1403 C 0.3232 0.87529 0.34092 0.0
C1404 C 0.3099 0.87946 0.34622 0.0
C1405 C 0.3052 0.87005 0.35867 0.0
C1406 C 0.31759 0.85922 0.3597 0.0
C1407 C 0.32808 0.86215 0.34918 0.0
C1408 C 0.3046 0.87977 0.37252 0.0
C1409 C 0.29052 0.86254 0.35409 0.0
C1410 C 0.37406 0.83475 0.33541 0.0
C1411 C 0.38019 0.82152 0.34037 0.0
C1412 C 0.37355 0.81397 0.35184 0.0
C1413 C 0.36109 0.81944 0.35831 0.0
C1414 C 0.35498 0.83257 0.35319 0.0
C1415 C 0.36135 0.83996 0.34183 0.0
C1416 C 0.35281 0.85337 0.33743 0.0
C1417 C 0.34028 0.85273 0.34795 0.0
C1418 C 0.34178 0.8406 0.35729 0.0
C1419 C 0.3627 0.86696 0.34017 0.0
C1420 C 0.3474 0.85149 0.32134 0.0
H1421 H 0.2917 0.85622 0.38338 0.0
H1422 H 0.3184 0.81428 0.40523 0.0
H1423 H 0.31698 0.80819 0.37162 0.0
H1424 H 0.33347 0.80965 0.36251 0.0
H1425 H 0.33345 0.80224 0.3808 0.0
H1426 H 0.34395 0.83782 0.39729 0.0
H1427 H 0.34499 0.81827 0.39845 0.0
H1428 H 0.35505 0.82831 0.38517 0.0
H1429 H 0.29184 0.89439 0.3449 0.0
H1430 H 0.32704 0.90236 0.31571 0.0
H1431 H 0.33992 0.8812 0.32543 0.0
H1432 H 0.31245 0.8891 0.37207 0.0
H1433 H 0.29354 0.88439 0.37373 0.0
H1434 H 0.30785 0.87391 0.38265 0.0
H1435 H 0.29049 0.85918 0.3424 0.0
H1436 H 0.28844 0.85239 0.3602 0.0
H1437 H 0.28122 0.87005 0.35544 0.0
H1438 H 0.28221 0.84432 0.40451 0.0
C1439 C 0.29778 0.84721 0.3878 0.0
C1440 C 0.69113 0.64956 0.19652 0.0
C1441 C 0.70411 0.64522 0.19001 0.0
C1442 C 0.70934 0.65342 0.17823 0.0
C1443 C 0.68848 0.66946 0.17912 0.0
C1444 C 0.68356 0.66171 0.19096 0.0
C1445 C 0.66967 0.66791 0.19664 0.0
H1446 H 0.61369 0.71541 0.1889 0.0
C1447 C 0.67773 0.68099 0.17554 0.0
C1448 C 0.66669 0.68018 0.18576 0.0
H1449 H 0.62296 0.68531 0.22445 0.0
H1450 H 0.64443 0.67733 0.21266 0.0
H1451 H 0.62301 0.69443 0.16266 0.0
H1452 H 0.64806 0.72704 0.18698 0.0
H1453 H 0.65041 0.72949 0.16809 0.0
H1454 H 0.63255 0.73146 0.17534 0.0
H1455 H 0.62004 0.7136 0.15997 0.0
H1456 H 0.63397 0.70401 0.15044 0.0
C1457 C 0.6577 0.65588 0.19562 0.0
C1458 C 0.6729 0.67378 0.21233 0.0
C1459 C 0.68519 0.71303 0.13116 0.0
C1460 C 0.67644 0.72327 0.12353 0.0
C1461 C 0.66261 0.7265 0.1291 0.0
C1462 C 0.65774 0.71983 0.14193 0.0
C1463 C 0.66665 0.70959 0.14928 0.0
C1464 C 0.68002 0.70621 0.14369 0.0
C1465 C 0.68759 0.69424 0.1521 0.0
C1466 C 0.67677 0.69125 0.16394 0.0
C1467 C 0.66459 0.70041 0.16243 0.0
C1468 C 0.68914 0.68098 0.14171 0.0
C1469 C 0.70224 0.7004 0.15855 0.0
C1470 C 0.62037 0.70719 0.19426 0.0
C1471 C 0.61628 0.70091 0.20764 0.0
C1472 C 0.62542 0.69013 0.21401 0.0
C1473 C 0.63807 0.68558 0.20722 0.0
C1474 C 0.64193 0.69192 0.19392 0.0
C1475 C 0.63325 0.70267 0.18772 0.0
C1476 C 0.6395 0.70857 0.17383 0.0
C1477 C 0.65343 0.69973 0.1729 0.0
C1478 C 0.65463 0.68983 0.18461 0.0
C1479 C 0.62859 0.70512 0.16099 0.0
C1480 C 0.64277 0.72503 0.17603 0.0
H1481 H 0.70611 0.67115 0.16368 0.0
H1482 H 0.68699 0.64365 0.20578 0.0
H1483 H 0.68469 0.67647 0.21421 0.0
H1484 H 0.66722 0.68414 0.21444 0.0
H1485 H 0.66988 0.66562 0.22071 0.0
H1486 H 0.65788 0.65022 0.18487 0.0
H1487 H 0.65946 0.64755 0.20431 0.0
H1488 H 0.64656 0.66019 0.19642 0.0
H1489 H 0.69594 0.71025 0.12755 0.0
H1490 H 0.65535 0.73402 0.12345 0.0
H1491 H 0.64714 0.72276 0.14553 0.0
H1492 H 0.6803 0.68074 0.13308 0.0
H1493 H 0.69972 0.68136 0.13613 0.0
H1494 H 0.68807 0.67038 0.14735 0.0
H1495 H 0.70092 0.7118 0.16246 0.0
H1496 H 0.70636 0.69427 0.1682 0.0
H1497 H 0.71076 0.70054 0.15019 0.0
H1498 H 0.71926 0.65028 0.17298 0.0
C1499 C 0.70161 0.66548 0.17276 0.0
C1500 C 0.32428 0.63841 0.19713 0.0
C1501 C 0.31223 0.63055 0.19095 0.0
C1502 C 0.30633 0.63508 0.17727 0.0
C1503 C 0.32385 0.65502 0.17636 0.0
C1504 C 0.32989 0.65058 0.18964 0.0
C1505 C 0.34255 0.66031 0.19453 0.0
H1506 H 0.38669 0.71896 0.18149 0.0
C1507 C 0.33208 0.66797 0.17136 0.0
C1508 C 0.34316 0.67114 0.18189 0.0
H1509 H 0.38732 0.69062 0.21926 0.0
H1510 H 0.36739 0.6764 0.20867 0.0
H1511 H 0.35108 0.72107 0.1783 0.0
H1512 H 0.38186 0.69323 0.15741 0.0
H1513 H 0.36847 0.69826 0.14421 0.0
H1514 H 0.38002 0.71216 0.15268 0.0
H1515 H 0.36417 0.72785 0.16574 0.0
H1516 H 0.34681 0.72049 0.15941 0.0
C1517 C 0.33855 0.66783 0.20898 0.0
C1518 C 0.35644 0.65086 0.19573 0.0
C1519 C 0.31633 0.69219 0.1235 0.0
C1520 C 0.32219 0.70365 0.1153 0.0
C1521 C 0.33493 0.71088 0.12068 0.0
C1522 C 0.34163 0.70688 0.13411 0.0
C1523 C 0.33564 0.69538 0.14222 0.0
C1524 C 0.3233 0.68814 0.13675 0.0
C1525 C 0.31894 0.67562 0.14631 0.0
C1526 C 0.33044 0.67673 0.15862 0.0
C1527 C 0.34014 0.68842 0.1563 0.0
C1528 C 0.30343 0.67867 0.15174 0.0
C1529 C 0.32026 0.66128 0.13742 0.0
C1530 C 0.3826 0.70963 0.18741 0.0
C1531 C 0.38859 0.70604 0.20133 0.0
C1532 C 0.38281 0.69383 0.20867 0.0
C1533 C 0.37124 0.68551 0.20246 0.0
C1534 C 0.3652 0.68937 0.18871 0.0
C1535 C 0.37089 0.70125 0.1814 0.0
C1536 C 0.36289 0.70384 0.16698 0.0
C1537 C 0.35144 0.69168 0.16692 0.0
C1538 C 0.35289 0.68315 0.17968 0.0
C1539 C 0.3559 0.71914 0.16748 0.0
C1540 C 0.37381 0.7019 0.1546 0.0
H1541 H 0.30689 0.65 0.15972 0.0
H1542 H 0.32909 0.63531 0.20762 0.0
H1543 H 0.35665 0.64292 0.18653 0.0
H1544 H 0.36662 0.6573 0.19499 0.0
H1545 H 0.35682 0.64454 0.20609 0.0
H1546 H 0.32671 0.67042 0.20895 0.0
H1547 H 0.34098 0.66067 0.21853 0.0
H1548 H 0.34417 0.67844 0.21069 0.0
H1549 H 0.30672 0.68625 0.1195 0.0
H1550 H 0.33964 0.71976 0.11453 0.0
H1551 H 0.35125 0.71285 0.13763 0.0
H1552 H 0.30226 0.69042 0.15453 0.0
H1553 H 0.29496 0.67593 0.14318 0.0
H1554 H 0.30092 0.67272 0.16184 0.0
H1555 H 0.3284 0.6624 0.12873 0.0
H1556 H 0.3243 0.65206 0.14419 0.0
H1557 H 0.30966 0.65813 0.13201 0.0
H1558 H 0.29734 0.62913 0.17201 0.0
C1559 C 0.31201 0.6472 0.17003 0.0
C1560 C 0.40658 0.34176 0.2249 0.0
C1561 C 0.41513 0.33055 0.21928 0.0
C1562 C 0.41029 0.32321 0.20648 0.0
C1563 C 0.38872 0.33832 0.20484 0.0
C1564 C 0.39348 0.34554 0.21743 0.0
C1565 C 0.3834 0.35776 0.22128 0.0
H1566 H 0.32256 0.39715 0.20528 0.0
C1567 C 0.37497 0.34512 0.19946 0.0
C1568 C 0.37181 0.3566 0.209 0.0
H1569 H 0.3543 0.40374 0.24084 0.0
H1570 H 0.36768 0.38285 0.23295 0.0
H1571 H 0.32137 0.36141 0.20713 0.0
H1572 H 0.34603 0.39144 0.18114 0.0
H1573 H 0.34056 0.37677 0.16981 0.0
H1574 H 0.32688 0.38814 0.17766 0.0
H1575 H 0.31308 0.3724 0.19295 0.0
H1576 H 0.32101 0.35496 0.18901 0.0
C1577 C 0.37704 0.35431 0.23636 0.0
C1578 C 0.39209 0.37234 0.22067 0.0
C1579 C 0.34898 0.32534 0.15336 0.0
C1580 C 0.33648 0.32977 0.14524 0.0
C1581 C 0.32847 0.34172 0.15034 0.0
C1582 C 0.33283 0.34917 0.16319 0.0
C1583 C 0.34545 0.34476 0.17108 0.0
C1584 C 0.3533 0.33303 0.16611 0.0
C1585 C 0.3667 0.3302 0.17562 0.0
C1586 C 0.36551 0.34203 0.18718 0.0
C1587 C 0.35302 0.35052 0.18451 0.0
C1588 C 0.36519 0.31472 0.18222 0.0
C1589 C 0.38032 0.33244 0.16622 0.0
C1590 C 0.33244 0.39421 0.21136 0.0
C1591 C 0.33726 0.40226 0.2238 0.0
C1592 C 0.3501 0.39772 0.2314 0.0
C1593 C 0.35798 0.38561 0.22671 0.0
C1594 C 0.35313 0.37788 0.21416 0.0
C1595 C 0.34052 0.38219 0.20673 0.0
C1596 C 0.33716 0.37284 0.19346 0.0
C1597 C 0.34983 0.36222 0.19414 0.0
C1598 C 0.35915 0.36521 0.20633 0.0
C1599 C 0.32234 0.36501 0.19559 0.0
C1600 C 0.33755 0.38272 0.17974 0.0
H1601 H 0.39408 0.32095 0.18959 0.0
H1602 H 0.41019 0.34767 0.23463 0.0
H1603 H 0.40034 0.372 0.21203 0.0
H1604 H 0.38516 0.38175 0.21773 0.0
H1605 H 0.398 0.37461 0.23124 0.0
H1606 H 0.37441 0.34247 0.2373 0.0
H1607 H 0.38499 0.35718 0.24536 0.0
H1608 H 0.36667 0.35994 0.23818 0.0
H1609 H 0.35548 0.31633 0.14967 0.0
H1610 H 0.31872 0.34527 0.1444 0.0
H1611 H 0.32624 0.35815 0.16644 0.0
H1612 H 0.35378 0.31262 0.18553 0.0
H1613 H 0.36797 0.30621 0.17415 0.0
H1614 H 0.372 0.31317 0.19227 0.0
H1615 H 0.37821 0.34056 0.15738 0.0
H1616 H 0.3898 0.33699 0.17255 0.0
H1617 H 0.38352 0.32208 0.16096 0.0
H1618 H 0.41678 0.31456 0.202 0.0
C1619 C 0.39712 0.32696 0.19929 0.0
C1620 C 0.70828 0.40048 0.18741 0.0
C1621 C 0.70188 0.40722 0.19945 0.0
C1622 C 0.68924 0.40083 0.20519 0.0
C1623 C 0.68975 0.38134 0.18723 0.0
C1624 C 0.7021 0.38761 0.18154 0.0
C1625 C 0.70767 0.37901 0.16889 0.0
H1626 H 0.70117 0.31918 0.12524 0.0
C1627 C 0.68619 0.36794 0.17876 0.0
C1628 C 0.69669 0.36649 0.16799 0.0
H1629 H 0.73364 0.35357 0.12322 0.0
H1630 H 0.7225 0.36611 0.14332 0.0
H1631 H 0.70136 0.31648 0.15992 0.0
H1632 H 0.67472 0.33966 0.12844 0.0
H1633 H 0.6628 0.33407 0.14198 0.0
H1634 H 0.6723 0.3205 0.13172 0.0
H1635 H 0.68799 0.30765 0.14809 0.0
H1636 H 0.68334 0.31482 0.16568 0.0
C1637 C 0.72323 0.37369 0.17307 0.0
C1638 C 0.70682 0.38875 0.15508 0.0
C1639 C 0.64196 0.33661 0.19118 0.0
C1640 C 0.6361 0.32359 0.1851 0.0
C1641 C 0.64322 0.317 0.17343 0.0
C1642 C 0.65581 0.32325 0.16781 0.0
C1643 C 0.66148 0.33627 0.17389 0.0
C1644 C 0.65462 0.34275 0.18539 0.0
C1645 C 0.66234 0.35657 0.1904 0.0
C1646 C 0.67485 0.35732 0.1799 0.0
C1647 C 0.67426 0.34537 0.17033 0.0
C1648 C 0.66786 0.35437 0.20642 0.0
C1649 C 0.65165 0.36943 0.18815 0.0
C1650 C 0.70602 0.32932 0.12923 0.0
C1651 C 0.71841 0.33529 0.12277 0.0
C1652 C 0.72409 0.34875 0.12803 0.0
C1653 C 0.71764 0.35597 0.13972 0.0
C1654 C 0.7053 0.34972 0.14615 0.0
C1655 C 0.69968 0.33666 0.14075 0.0
C1656 C 0.68634 0.3317 0.14846 0.0
C1657 C 0.68489 0.34382 0.15955 0.0
C1658 C 0.69602 0.35434 0.15828 0.0
C1659 C 0.68978 0.31684 0.15588 0.0
C1660 C 0.67332 0.33133 0.13715 0.0
H1661 H 0.67357 0.38364 0.20408 0.0
H1662 H 0.71786 0.40518 0.18255 0.0
H1663 H 0.69691 0.39568 0.15503 0.0
H1664 H 0.70583 0.38239 0.14485 0.0
H1665 H 0.71649 0.39613 0.15461 0.0
H1666 H 0.72386 0.37001 0.18466 0.0
H1667 H 0.73142 0.38259 0.17183 0.0
H1668 H 0.72654 0.36418 0.16662 0.0
H1669 H 0.63673 0.34199 0.20012 0.0
H1670 H 0.63915 0.30683 0.16873 0.0
H1671 H 0.66065 0.31762 0.15895 0.0
H1672 H 0.67136 0.3429 0.20831 0.0
H1673 H 0.65914 0.35675 0.21419 0.0
H1674 H 0.6776 0.36107 0.20933 0.0
H1675 H 0.64495 0.36799 0.17787 0.0
H1676 H 0.65726 0.38005 0.18691 0.0
H1677 H 0.64405 0.37016 0.19731 0.0
H1678 H 0.68416 0.40563 0.21453 0.0
C1679 C 0.68315 0.38797 0.19916 0.0
C1680 C 0.72078 0.33402 0.88815 0.0
C1681 C 0.71529 0.32146 0.89497 0.0
C1682 C 0.70196 0.31537 0.88949 0.0
C1683 C 0.70022 0.33407 0.87059 0.0
C1684 C 0.71318 0.34004 0.87611 0.0
C1685 C 0.71791 0.35323 0.86773 0.0
H1686 H 0.70717 0.4017 0.81303 0.0
C1687 C 0.69529 0.34309 0.85784 0.0
C1688 C 0.70569 0.3543 0.85621 0.0
H1689 H 0.74306 0.39918 0.8449 0.0
H1690 H 0.73209 0.37824 0.85575 0.0
H1691 H 0.68135 0.39394 0.83557 0.0
H1692 H 0.70543 0.36648 0.80684 0.0
H1693 H 0.68693 0.36118 0.8056 0.0
H1694 H 0.69217 0.37933 0.80007 0.0
H1695 H 0.67885 0.39465 0.81605 0.0
H1696 H 0.66904 0.38162 0.82686 0.0
C1697 C 0.71816 0.36649 0.8783 0.0
C1698 C 0.7328 0.34981 0.86093 0.0
C1699 C 0.6484 0.33021 0.82866 0.0
C1700 C 0.64122 0.33648 0.81633 0.0
C1701 C 0.64742 0.34916 0.81018 0.0
C1702 C 0.66043 0.35536 0.81605 0.0
C1703 C 0.6675 0.34889 0.82825 0.0
C1704 C 0.66143 0.33654 0.8344 0.0
C1705 C 0.67044 0.33117 0.84738 0.0
C1706 C 0.68294 0.34223 0.84795 0.0
C1707 C 0.68117 0.35262 0.83668 0.0
C1708 C 0.66105 0.33207 0.86108 0.0
C1709 C 0.67578 0.31561 0.84393 0.0
C1710 C 0.71268 0.39657 0.8223 0.0
C1711 C 0.72598 0.40237 0.8282 0.0
C1712 C 0.73269 0.3953 0.84031 0.0
C1713 C 0.72633 0.38297 0.84656 0.0
C1714 C 0.71307 0.37739 0.84069 0.0
C1715 C 0.70645 0.3841 0.82873 0.0
C1716 C 0.69242 0.37636 0.82399 0.0
C1717 C 0.69179 0.36398 0.83511 0.0
C1718 C 0.70394 0.36473 0.84483 0.0
C1719 C 0.67968 0.38715 0.82556 0.0
C1720 C 0.69417 0.37057 0.80827 0.0
H1721 H 0.68441 0.3164 0.87367 0.0
H1722 H 0.73079 0.33923 0.89216 0.0
H1723 H 0.73375 0.33798 0.85843 0.0
H1724 H 0.73423 0.35528 0.8503 0.0
H1725 H 0.74207 0.35284 0.86849 0.0
H1726 H 0.70931 0.36555 0.88629 0.0
H1727 H 0.72871 0.36726 0.88461 0.0
H1728 H 0.7161 0.37698 0.87268 0.0
H1729 H 0.64394 0.32061 0.83385 0.0
H1730 H 0.64234 0.35417 0.80061 0.0
H1731 H 0.66455 0.36493 0.81077 0.0
H1732 H 0.65443 0.34219 0.86087 0.0
H1733 H 0.65341 0.32261 0.86161 0.0
H1734 H 0.66767 0.33266 0.87136 0.0
H1735 H 0.67903 0.31484 0.83235 0.0
H1736 H 0.68558 0.31253 0.8505 0.0
H1737 H 0.66703 0.30737 0.84562 0.0
H1738 H 0.69746 0.30565 0.89443 0.0
C1739 C 0.69442 0.32159 0.87736 0.0
C1740 C 0.653 0.68494 0.81524 0.0
C1741 C 0.64485 0.69689 0.81995 0.0
C1742 C 0.64951 0.70423 0.83288 0.0
C1743 C 0.67005 0.68785 0.83599 0.0
C1744 C 0.66543 0.68063 0.82339 0.0
C1745 C 0.67514 0.6681 0.81984 0.0
H1746 H 0.73439 0.62694 0.83532 0.0
C1747 C 0.68343 0.68057 0.84178 0.0
C1748 C 0.6864 0.66897 0.83237 0.0
H1749 H 0.70271 0.62291 0.79937 0.0
H1750 H 0.68965 0.64338 0.80832 0.0
H1751 H 0.73642 0.66301 0.83469 0.0
H1752 H 0.7102 0.63404 0.86063 0.0
H1753 H 0.71813 0.64783 0.87183 0.0
H1754 H 0.72973 0.63504 0.86295 0.0
H1755 H 0.74442 0.65115 0.84832 0.0
H1756 H 0.73722 0.66867 0.8531 0.0
C1757 C 0.68199 0.67132 0.80489 0.0
C1758 C 0.66588 0.65384 0.82034 0.0
C1759 C 0.7096 0.70053 0.88737 0.0
C1760 C 0.7223 0.69659 0.89545 0.0
C1761 C 0.72999 0.68415 0.891 0.0
C1762 C 0.72529 0.67605 0.87858 0.0
C1763 C 0.7127 0.68036 0.87049 0.0
C1764 C 0.70506 0.69238 0.87507 0.0
C1765 C 0.69186 0.69544 0.86541 0.0
C1766 C 0.69284 0.68341 0.85413 0.0
C1767 C 0.70508 0.67453 0.85707 0.0
C1768 C 0.69384 0.71078 0.85856 0.0
C1769 C 0.67809 0.69372 0.87467 0.0
C1770 C 0.72458 0.63046 0.82947 0.0
C1771 C 0.71968 0.62332 0.81649 0.0
C1772 C 0.70691 0.62832 0.80918 0.0
C1773 C 0.69925 0.64021 0.81448 0.0
C1774 C 0.7043 0.64732 0.82729 0.0
C1775 C 0.71675 0.64247 0.83463 0.0
C1776 C 0.72038 0.65163 0.84805 0.0
C1777 C 0.70803 0.66268 0.84749 0.0
C1778 C 0.6987 0.66 0.83525 0.0
C1779 C 0.73544 0.65899 0.84608 0.0
C1780 C 0.71969 0.64168 0.86165 0.0
H1781 H 0.66495 0.70583 0.85062 0.0
H1782 H 0.64991 0.67913 0.80529 0.0
H1783 H 0.65724 0.65464 0.82856 0.0
H1784 H 0.67233 0.64424 0.82383 0.0
H1785 H 0.66037 0.65152 0.80959 0.0
H1786 H 0.68391 0.68324 0.80342 0.0
H1787 H 0.67471 0.66753 0.79568 0.0
H1788 H 0.69287 0.66641 0.80384 0.0
H1789 H 0.70319 0.70979 0.8906 0.0
H1790 H 0.73981 0.68085 0.89698 0.0
H1791 H 0.73167 0.6668 0.87568 0.0
H1792 H 0.70543 0.71274 0.85582 0.0
H1793 H 0.69069 0.71949 0.86626 0.0
H1794 H 0.6876 0.71215 0.84814 0.0
H1795 H 0.67961 0.68501 0.88304 0.0
H1796 H 0.66831 0.69027 0.86813 0.0
H1797 H 0.6757 0.70402 0.8805 0.0
H1798 H 0.64336 0.71333 0.83692 0.0
C1799 C 0.66202 0.69979 0.8409 0.0
C1800 C 0.34036 0.63873 0.82432 0.0
C1801 C 0.34607 0.63268 0.81159 0.0
C1802 C 0.35789 0.63975 0.80503 0.0
C1803 C 0.35819 0.65855 0.82371 0.0
C1804 C 0.34645 0.65175 0.83007 0.0
C1805 C 0.34124 0.6602 0.84303 0.0
H1806 H 0.34787 0.72082 0.88586 0.0
C1807 C 0.36178 0.672 0.83209 0.0
C1808 C 0.35175 0.67317 0.84334 0.0
H1809 H 0.31683 0.68541 0.89007 0.0
H1810 H 0.32727 0.67299 0.86948 0.0
H1811 H 0.34587 0.7234 0.85163 0.0
H1812 H 0.37483 0.70066 0.88135 0.0
H1813 H 0.3858 0.70734 0.86749 0.0
H1814 H 0.376 0.72001 0.87854 0.0
H1815 H 0.36012 0.73252 0.86211 0.0
H1816 H 0.36326 0.72495 0.84428 0.0
C1817 C 0.3253 0.66488 0.83969 0.0
C1818 C 0.34319 0.65055 0.8568 0.0
C1819 C 0.40592 0.70324 0.81915 0.0
C1820 C 0.41142 0.71662 0.82468 0.0
C1821 C 0.40395 0.72377 0.83575 0.0
C1822 C 0.39135 0.71759 0.84147 0.0
C1823 C 0.38605 0.70413 0.83602 0.0
C1824 C 0.39315 0.69728 0.82489 0.0
C1825 C 0.38538 0.68343 0.82 0.0
C1826 C 0.37287 0.68282 0.83052 0.0
C1827 C 0.37343 0.69493 0.83988 0.0
C1828 C 0.37987 0.68542 0.80392 0.0
C1829 C 0.396 0.67055 0.8224 0.0
C1830 C 0.34317 0.71048 0.88226 0.0
C1831 C 0.33139 0.7042 0.88946 0.0
C1832 C 0.32591 0.69049 0.88467 0.0
C1833 C 0.33195 0.68334 0.87269 0.0
C1834 C 0.34367 0.68991 0.8655 0.0
C1835 C 0.34911 0.70321 0.87048 0.0
C1836 C 0.3619 0.70846 0.8621 0.0
C1837 C 0.36319 0.69629 0.85105 0.0
C1838 C 0.35247 0.68543 0.85294 0.0
C1839 C 0.35773 0.72315 0.85468 0.0
C1840 C 0.37537 0.7093 0.87284 0.0
H1841 H 0.37307 0.65735 0.80561 0.0
H1842 H 0.33115 0.63361 0.82947 0.0
H1843 H 0.35358 0.64437 0.85653 0.0
H1844 H 0.34397 0.65696 0.86701 0.0
H1845 H 0.33411 0.64249 0.85753 0.0
H1846 H 0.32391 0.66857 0.82815 0.0
H1847 H 0.31758 0.65565 0.84133 0.0
H1848 H 0.32196 0.67421 0.84637 0.0
H1849 H 0.41134 0.69766 0.81046 0.0
H1850 H 0.40803 0.73405 0.84018 0.0
H1851 H 0.38629 0.72353 0.84999 0.0
H1852 H 0.37838 0.69714 0.80113 0.0
H1853 H 0.3877 0.68086 0.79616 0.0
H1854 H 0.36898 0.68039 0.80177 0.0
H1855 H 0.40164 0.67138 0.83333 0.0
H1856 H 0.39045 0.65981 0.82218 0.0
H1857 H 0.40449 0.67059 0.81402 0.0
H1858 H 0.36248 0.63525 0.79527 0.0
C1859 C 0.36403 0.65257 0.81106 0.0
C1860 C 0.3392 0.32359 0.90416 0.0
C1861 C 0.32624 0.32898 0.90995 0.0
C1862 C 0.31952 0.34117 0.90331 0.0
C1863 C 0.3386 0.34266 0.88569 0.0
C1864 C 0.34511 0.33054 0.89196 0.0
C1865 C 0.3586 0.32619 0.88405 0.0
H1866 H 0.40748 0.3406 0.8315 0.0
C1867 C 0.3476 0.34764 0.87353 0.0
C1868 C 0.35933 0.33805 0.87239 0.0
H1869 H 0.40578 0.3033 0.86029 0.0
H1870 H 0.38415 0.31276 0.87115 0.0
H1871 H 0.39793 0.36541 0.85563 0.0
H1872 H 0.37239 0.3405 0.82363 0.0
H1873 H 0.36693 0.35888 0.82301 0.0
H1874 H 0.3853 0.35429 0.81846 0.0
H1875 H 0.39951 0.36825 0.83633 0.0
H1876 H 0.3855 0.37703 0.84642 0.0
C1877 C 0.37181 0.32706 0.89501 0.0
C1878 C 0.35589 0.31085 0.87727 0.0
C1879 C 0.33292 0.39374 0.84668 0.0
C1880 C 0.33918 0.4022 0.83569 0.0
C1881 C 0.35228 0.39735 0.82965 0.0
C1882 C 0.35904 0.38444 0.83466 0.0
C1883 C 0.35266 0.37625 0.84584 0.0
C1884 C 0.33981 0.38104 0.85161 0.0
C1885 C 0.33461 0.37142 0.86363 0.0
C1886 C 0.34636 0.35991 0.86415 0.0
C1887 C 0.35692 0.36264 0.85369 0.0
C1888 C 0.33462 0.38064 0.87788 0.0
C1889 C 0.31951 0.36492 0.85876 0.0
C1890 C 0.40247 0.33457 0.84022 0.0
C1891 C 0.40836 0.32121 0.8451 0.0
C1892 C 0.40141 0.31355 0.85631 0.0
C1893 C 0.38886 0.31908 0.86261 0.0
C1894 C 0.38304 0.33237 0.8576 0.0
C1895 C 0.38973 0.33984 0.84648 0.0
C1896 C 0.3815 0.35343 0.8421 0.0
C1897 C 0.36883 0.35287 0.85241 0.0
C1898 C 0.36991 0.34057 0.8616 0.0
C1899 C 0.39159 0.3668 0.84515 0.0
C1900 C 0.37628 0.35184 0.82592 0.0
H1901 H 0.31994 0.35728 0.88687 0.0
H1902 H 0.34451 0.31413 0.90892 0.0
H1903 H 0.34405 0.30879 0.8749 0.0
H1904 H 0.36102 0.30959 0.86659 0.0
H1905 H 0.35984 0.30211 0.88478 0.0
H1906 H 0.37146 0.33729 0.90155 0.0
H1907 H 0.37172 0.31771 0.90273 0.0
H1908 H 0.3824 0.32732 0.88964 0.0
H1909 H 0.32273 0.39687 0.85141 0.0
H1910 H 0.35744 0.40366 0.82122 0.0
H1911 H 0.36903 0.38138 0.82973 0.0
H1912 H 0.34337 0.38916 0.87796 0.0
H1913 H 0.32405 0.3863 0.87903 0.0
H1914 H 0.33701 0.37415 0.88783 0.0
H1915 H 0.31884 0.36309 0.84673 0.0
H1916 H 0.31738 0.35406 0.86352 0.0
H1917 H 0.31052 0.37238 0.86151 0.0
H1918 H 0.30965 0.34564 0.90764 0.0
C1919 C 0.3256 0.348 0.89127 0.0
Cu1920 Cu 0.27429 0.26691 0.03473 0.0
N1921 N 0.27318 0.28288 0.02196 0.0
N1922 N 0.2791 0.29622 1.0025 0.0
C1923 C 0.28145 0.28381 0.01012 0.0
C1924 C 0.26885 0.3034 0.00989 0.0
C1925 C 0.26523 0.29515 0.02191 0.0
O1926 O 0.27565 0.25021 0.02136 0.0
C1927 C 0.28674 0.2827 0.0568 0.0
O1928 O 0.27418 0.289 0.05381 0.0
H1929 H 0.28892 0.27534 1.00712 0.0
H1930 H 0.25748 0.29801 0.03005 0.0
N1931 N 0.25759 0.26369 0.04561 0.0
N1932 N 0.24369 0.25342 0.06251 0.0
C1933 C 0.25682 0.25359 0.05624 0.0
C1934 C 0.24447 0.27018 0.04507 0.0
C1935 C 0.23588 0.26389 0.05551 0.0
C1936 C 0.26398 0.24914 0.01332 0.0
O1937 O 0.25341 0.25834 0.01567 0.0
H1938 H 0.26589 0.24668 0.05946 0.0
H1939 H 0.24131 0.27878 0.03757 0.0
O1940 O 0.29 0.27151 0.04926 0.0
H1941 H 0.26442 0.31396 1.007 0.0
H1942 H 0.22471 0.2667 0.05763 0.0
Cu1943 Cu 0.78201 0.26415 1.00731 0.0
N1944 N 0.76519 0.26794 0.01925 0.0
N1945 N 0.75149 0.27762 0.03643 0.0
C1946 C 0.76452 0.27797 0.02994 0.0
C1947 C 0.7437 0.26697 0.0294 0.0
C1948 C 0.7522 0.26102 0.0188 0.0
O1949 O 0.79235 0.2546 0.02504 0.0
C1950 C 0.77385 0.28463 0.98346 0.0
O1951 O 0.7849 0.2925 0.98869 0.0
H1952 H 0.77353 0.28514 0.03308 0.0
H1953 H 0.74917 0.25225 0.01135 0.0
N1954 N 0.79915 0.26088 0.99551 0.0
N1955 N 0.81347 0.25545 0.97698 0.0
C1956 C 0.79978 0.25478 0.98213 0.0
C1957 C 0.81279 0.26556 0.99893 0.0
C1958 C 0.82164 0.26219 0.98759 0.0
C1959 C 0.79966 0.26162 0.03487 0.0
O1960 O 0.80143 0.2758 0.03349 0.0
H1961 H 0.79035 0.25037 0.97615 0.0
H1962 H 0.81605 0.27126 0.00886 0.0
O1963 O 0.77084 0.27251 0.98951 0.0
H1964 H 0.73263 0.2637 0.03169 0.0
H1965 H 0.83322 0.26452 0.98724 0.0
Cu1966 Cu 0.7491 0.77941 1.00607 0.0
N1967 N 0.74976 0.79613 0.99413 0.0
N1968 N 0.75583 0.81074 0.97557 0.0
C1969 C 0.75683 0.79722 0.98148 0.0
C1970 C 0.74781 0.81842 0.98494 0.0
C1971 C 0.74413 0.80943 0.99634 0.0
O1972 O 0.74983 0.76264 0.99275 0.0
C1973 C 0.763 0.79212 0.02983 0.0
O1974 O 0.75111 0.79989 0.02803 0.0
H1975 H 0.76258 0.78822 0.97673 0.0
H1976 H 0.738 0.81255 1.0057 0.0
N1977 N 0.73157 0.77812 0.01612 0.0
N1978 N 0.71601 0.77174 0.03335 0.0
C1979 C 0.72892 0.76897 0.02729 0.0
C1980 C 0.71979 0.7868 0.01499 0.0
C1981 C 0.71024 0.78297 0.02571 0.0
C1982 C 0.73904 0.76212 0.98354 0.0
O1983 O 0.72894 0.77213 0.98447 0.0
H1984 H 0.73658 0.76086 0.0313 0.0
H1985 H 0.71834 0.7955 1.00713 0.0
O1986 O 0.76489 0.78147 0.0211 0.0
H1987 H 0.74511 0.82985 0.9839 0.0
H1988 H 0.69992 0.78809 0.02781 0.0
Cu1989 Cu 0.26578 0.768 1.00499 0.0
N1990 N 0.26343 0.78335 0.0182 0.0
N1991 N 0.25377 0.79469 0.03722 0.0
C1992 C 0.25357 0.78263 0.02874 0.0
C1993 C 0.26428 0.80338 0.03174 0.0
C1994 C 0.27021 0.79636 0.01999 0.0
O1995 O 0.26847 0.75082 0.01761 0.0
C1996 C 0.25073 0.78165 0.98356 0.0
O1997 O 0.26118 0.79074 0.98788 0.0
H1998 H 0.2466 0.7732 0.03031 0.0
H1999 H 0.2788 0.80048 0.01326 0.0
N2000 N 0.28243 0.76866 0.99366 0.0
N2001 N 0.29692 0.76096 0.97607 0.0
C2002 C 0.2842 0.75898 0.98284 0.0
C2003 C 0.29446 0.77721 0.99383 0.0
C2004 C 0.30342 0.77249 0.98294 0.0
C2005 C 0.28019 0.75253 0.02546 0.0
O2006 O 0.28778 0.76463 0.02386 0.0
H2007 H 0.27608 0.75073 0.97992 0.0
H2008 H 0.29668 0.78609 1.00138 0.0
O2009 O 0.24969 0.76948 0.99034 0.0
H2010 H 0.2674 0.81409 0.03583 0.0
H2011 H 0.31399 0.77706 0.98048 0.0
Cu2012 Cu 0.00909 0.26698 0.26703 0.0
N2013 N 0.02043 0.26629 0.2505 0.0
N2014 N 0.03898 0.25907 0.23706 0.0
C2015 C 0.03462 0.2626 0.25054 0.0
C2016 C 0.02709 0.2608 0.22815 0.0
C2017 C 0.01566 0.26519 0.23648 0.0
O2018 O 0.02211 0.27077 0.28376 0.0
C2019 C 0.9856 0.24739 0.27263 0.0
O2020 O 0.98185 0.25686 0.28255 0.0
H2021 H 0.04127 0.2612 0.2604 0.0
H2022 H 1.0044 0.26626 0.23275 0.0
N2023 N 0.99576 0.28228 0.26619 0.0
N2024 N 0.97764 0.2961 0.27407 0.0
C2025 C 0.98896 0.28743 0.2779 0.0
C2026 C 0.98879 0.28821 0.2545 0.0
C2027 C 0.97763 0.2968 0.25933 0.0
C2028 C 0.0318 0.26241 0.28931 0.0
O2029 O 0.03224 0.2487 0.28513 0.0
H2030 H 0.99171 0.28408 0.28897 0.0
H2031 H 0.99099 0.28573 0.24325 0.0
O2032 O 0.9979 0.24884 0.26671 0.0
H2033 H 0.02645 0.25827 0.2166 0.0
H2034 H 0.96949 0.3022 0.25248 0.0
Cu2035 Cu 0.7633 0.00966 0.25634 0.0
N2036 N 0.78063 0.02014 0.2536 0.0
N2037 N 0.79522 0.03749 0.24471 0.0
C2038 C 0.78137 0.03258 0.24582 0.0
C2039 C 0.80353 0.02779 0.25229 0.0
C2040 C 0.79448 0.01706 0.25773 0.0
O2041 O 0.74825 0.0243 0.25987 0.0
C2042 C 0.76852 0.99524 0.22923 0.0
O2043 O 0.77648 1.00676 0.22616 0.0
H2044 H 0.77186 0.03779 0.24091 0.0
H2045 H 0.79778 1.00754 0.26394 0.0
N2046 N 0.76419 0.99764 0.27283 0.0
N2047 N 0.75709 0.97978 0.28771 0.0
C2048 C 0.75553 0.98581 0.27433 0.0
C2049 C 0.77166 0.99907 0.28568 0.0
C2050 C 0.7672 0.9881 0.29494 0.0
C2051 C 0.75182 0.03265 0.27064 0.0
O2052 O 0.76446 0.03049 0.27744 0.0
H2053 H 0.74775 0.98207 0.26594 0.0
H2054 H 0.77948 0.00769 0.28828 0.0
O2055 O 0.76037 0.99565 0.24026 0.0
H2056 H 0.81532 0.02814 0.25343 0.0
H2057 H 0.77097 0.98644 0.30615 0.0
Cu2058 Cu 0.00815 0.75843 0.26681 0.0
N2059 N 0.99606 0.77491 0.26712 0.0
N2060 N 0.97759 0.78948 0.25983 0.0
C2061 C 0.98438 0.77659 0.25792 0.0
C2062 C 0.98537 0.79612 0.27081 0.0
C2063 C 0.99673 0.78713 0.27526 0.0
O2064 O 0.99423 0.74193 0.26733 0.0
C2065 C 0.02849 0.77224 0.25086 0.0
O2066 O 0.0268 0.78077 0.2622 0.0
H2067 H 0.98098 0.76839 0.24999 0.0
H2068 H 1.00501 0.78949 0.28365 0.0
N2069 N 0.02156 0.75665 0.28283 0.0
N2070 N 0.04089 0.74825 0.29586 0.0
C2071 C 0.03362 0.74829 0.28277 0.0
C2072 C 0.02132 0.76228 0.29642 0.0
C2073 C 0.03316 0.75702 0.3045 0.0
C2074 C 0.9884 0.74014 0.27971 0.0
O2075 O 0.99269 0.74855 0.29065 0.0
H2076 H 0.03679 0.74204 0.27337 0.0
H2077 H 0.01297 0.76943 0.3003 0.0
O2078 O 0.02059 0.76067 0.24984 0.0
H2079 H 0.98327 0.80686 0.27514 0.0
H2080 H 0.03588 0.75947 0.31584 0.0
Cu2081 Cu 0.2561 1.00608 0.26267 0.0
N2082 N 0.27303 0.01756 0.26201 0.0
N2083 N 0.28818 0.03577 0.26906 0.0
C2084 C 0.27416 0.03128 0.26729 0.0
C2085 C 0.29621 0.02445 0.26454 0.0
C2086 C 0.28686 0.0132 0.26036 0.0
O2087 O 0.23978 0.01927 0.25951 0.0
C2088 C 0.2519 0.98365 0.28428 0.0
O2089 O 0.24003 0.97966 0.27682 0.0
H2090 H 0.26489 0.0375 0.27062 0.0
H2091 H 0.29001 1.00223 0.25763 0.0
N2092 N 0.25466 0.99215 0.2477 0.0
N2093 N 0.24489 0.97371 0.23445 0.0
C2094 C 0.24252 0.98424 0.2444 0.0
C2095 C 0.26506 0.98665 0.23931 0.0
C2096 C 0.25907 0.97529 0.23112 0.0
C2097 C 0.23501 0.02892 0.26809 0.0
O2098 O 0.23958 0.02913 0.28184 0.0
H2099 H 0.23221 0.98601 0.2495 0.0
H2100 H 0.27631 0.99025 0.23943 0.0
O2101 O 0.25837 0.99551 0.28105 0.0
H2102 H 0.30801 0.02387 0.26534 0.0
H2103 H 0.26491 0.96835 0.2238 0.0
Cu2104 Cu 1.00708 0.76876 0.76588 0.0
N2105 N 0.01657 0.75121 0.76257 0.0
N2106 N 0.03349 0.73612 0.75449 0.0
C2107 C 0.02919 0.75009 0.75561 0.0
C2108 C 0.02322 0.72812 0.76119 0.0
C2109 C 0.01273 0.73749 0.76613 0.0
O2110 O 0.02215 0.78343 0.77032 0.0
C2111 C 0.9952 0.76737 0.73661 0.0
O2112 O 1.0074 0.7609 0.73337 0.0
H2113 H 0.03511 0.75941 0.75147 0.0
H2114 H 1.00298 0.73452 0.77181 0.0
N2115 N 0.99493 0.76742 0.78179 0.0
N2116 N 0.9762 0.77262 0.79579 0.0
C2117 C 0.98223 0.77455 0.7827 0.0
C2118 C 0.99694 0.76058 0.79471 0.0
C2119 C 0.98542 0.76389 0.80345 0.0
C2120 C 0.03094 0.77993 0.7808 0.0
O2121 O 0.02899 0.76732 0.7873 0.0
H2122 H 0.97776 0.78147 0.7741 0.0
H2123 H 1.00621 0.75387 0.79769 0.0
O2124 O 0.99402 0.77294 0.74925 0.0
H2125 H 0.02315 0.71634 0.7622 0.0
H2126 H 0.98395 0.76023 0.81455 0.0
Cu2127 Cu 0.2731 0.02095 0.76736 0.0
N2128 N 0.27491 0.03238 0.75052 0.0
N2129 N 0.28262 0.05063 0.73635 0.0
C2130 C 0.28063 0.04599 0.75014 0.0
C2131 C 0.27782 0.03953 0.72768 0.0
C2132 C 0.27303 0.02831 0.73645 0.0
O2133 O 0.26864 0.0342 0.7833 0.0
C2134 C 0.30023 0.00771 0.76068 0.0
O2135 O 0.30229 0.01923 0.75244 0.0
H2136 H 0.28409 0.05206 0.75981 0.0
H2137 H 0.26909 0.01768 0.73287 0.0
N2138 N 0.25712 0.00817 0.76588 0.0
N2139 N 0.2429 0.98918 0.77186 0.0
C2140 C 0.25603 0.99588 0.77384 0.0
C2141 C 0.24428 0.00939 0.75848 0.0
C2142 C 0.23549 0.99766 0.76211 0.0
C2143 C 0.27671 0.04376 0.78974 0.0
O2144 O 0.29077 0.04419 0.78737 0.0
H2145 H 0.26474 0.99211 0.78111 0.0
H2146 H 0.24136 0.01836 0.75132 0.0
O2147 O 0.28976 0.00771 0.76952 0.0
H2148 H 0.27806 0.03939 0.71587 0.0
H2149 H 0.22433 0.99587 0.75823 0.0
Cu2150 Cu 0.04078 0.27475 0.77339 0.0
N2151 N 0.02799 0.29063 0.77424 0.0
N2152 N 0.0087 0.30448 0.76776 0.0
C2153 C 0.01599 0.29196 0.76542 0.0
C2154 C 0.0165 0.31126 0.77864 0.0
C2155 C 0.02836 0.30272 0.7826 0.0
O2156 O 0.0273 0.25823 0.76993 0.0
C2157 C 0.06283 0.2904 0.76115 0.0
O2158 O 0.0608 0.29734 0.77348 0.0
H2159 H 0.01273 0.28375 0.75744 0.0
H2160 H 0.03674 0.30525 0.79084 0.0
N2161 N 0.05191 0.27176 0.79079 0.0
N2162 N 0.06964 0.26322 0.80594 0.0
C2163 C 0.06444 0.26412 0.79195 0.0
C2164 C 0.04908 0.2759 0.80449 0.0
C2165 C 0.05998 0.27069 0.81383 0.0
C2166 C 0.02598 0.24766 0.7789 0.0
O2167 O 0.03625 0.24559 0.78901 0.0
H2168 H 0.06954 0.25924 0.78268 0.0
H2169 H 0.03959 0.282 0.80751 0.0
O2170 O 0.05478 0.27925 0.75819 0.0
H2171 H 0.01405 0.32179 0.78326 0.0
H2172 H 0.06048 0.27197 0.82559 0.0
Cu2173 Cu 0.77203 0.02174 0.75272 0.0
N2174 N 0.77665 0.0329 0.76938 0.0
N2175 N 0.78747 0.05057 0.78281 0.0
C2176 C 0.78503 0.04505 0.76928 0.0
C2177 C 0.78011 0.04164 0.79178 0.0
C2178 C 0.77348 0.03069 0.78345 0.0
O2179 O 0.76711 0.03562 0.73705 0.0
C2180 C 0.79928 1.00733 0.75758 0.0
O2181 O 0.80326 0.01888 0.76526 0.0
H2182 H 0.78942 0.04958 0.75942 0.0
H2183 H 0.76709 0.02161 0.78739 0.0
N2184 N 0.75567 0.00969 0.75486 0.0
N2185 N 0.74023 0.99134 0.74935 0.0
C2186 C 0.75347 0.9973 0.74715 0.0
C2187 C 0.74345 0.01155 0.76238 0.0
C2188 C 0.73382 1.00026 0.75889 0.0
C2189 C 0.75667 0.04399 0.7404 0.0
O2190 O 0.7511 0.04249 0.75335 0.0
H2191 H 0.76119 0.99309 0.73955 0.0
H2192 H 0.74148 0.02065 0.76956 0.0
O2193 O 0.78761 0.00777 0.74961 0.0
H2194 H 0.77993 0.04265 0.80356 0.0
H2195 H 0.72292 0.99881 0.7629 0.0
Cu2196 Cu 0.2635 0.76267 0.52246 0.0
N2197 N 0.27903 0.76701 0.5357 0.0
N2198 N 0.29128 0.77913 0.5536 0.0
C2199 C 0.27901 0.77841 0.545 0.0
C2200 C 0.29934 0.76765 0.54945 0.0
C2201 C 0.29177 0.76022 0.53842 0.0
O2202 O 0.24656 0.75927 0.53453 0.0
C2203 C 0.27515 0.77876 0.50131 0.0
O2204 O 0.28564 0.77005 0.50592 0.0
H2205 H 0.27013 0.78608 0.54527 0.0
H2206 H 0.29535 0.75059 0.53282 0.0
N2207 N 0.26563 0.74576 0.51115 0.0
N2208 N 0.26088 0.73071 0.49223 0.0
C2209 C 0.25804 0.74369 0.49846 0.0
C2210 C 0.27366 0.73364 0.5131 0.0
C2211 C 0.27076 0.72435 0.50142 0.0
C2212 C 0.24874 0.74849 0.54314 0.0
O2213 O 0.26126 0.74168 0.5426 0.0
H2214 H 0.25063 0.75173 0.49388 0.0
H2215 H 0.28088 0.73153 0.52241 0.0
O2216 O 0.26306 0.77825 0.50786 0.0
H2217 H 0.30989 0.76465 0.55411 0.0
H2218 H 0.27536 0.71362 0.50003 0.0
Cu2219 Cu 0.74996 0.76081 0.50812 0.0
N2220 N 0.75203 0.74493 0.49555 0.0
N2221 N 0.76168 0.73162 0.47781 0.0
C2222 C 0.76384 0.74263 0.48749 0.0
C2223 C 0.74799 0.72668 0.48006 0.0
C2224 C 0.74205 0.73496 0.49096 0.0
O2225 O 0.74342 0.77706 0.49586 0.0
C2226 C 0.76942 0.76914 0.53166 0.0
O2227 O 0.7594 0.77867 0.53483 0.0
H2228 H 0.77368 0.74923 0.48848 0.0
H2229 H 0.73103 0.73418 0.4948 0.0
N2230 N 0.73552 0.75786 0.52184 0.0
N2231 N 0.72259 0.76408 0.54122 0.0
C2232 C 0.72933 0.76882 0.52918 0.0
C2233 C 0.73227 0.74564 0.52926 0.0
C2234 C 0.72421 0.74944 0.54117 0.0
C2235 C 0.74911 0.78069 0.48388 0.0
O2236 O 0.76197 0.77555 0.48077 0.0
H2237 H 0.73081 0.78019 0.52634 0.0
H2238 H 0.73653 0.73495 0.52692 0.0
O2239 O 0.76833 0.76238 0.5195 0.0
H2240 H 0.74238 0.71817 0.47382 0.0
H2241 H 0.72094 0.74213 0.54978 0.0
Cu2242 Cu 0.7781 0.26019 0.51359 0.0
N2243 N 0.77774 0.24307 0.5022 0.0
N2244 N 0.77085 0.22769 0.48417 0.0
C2245 C 0.76987 0.24135 0.48958 0.0
C2246 C 0.77973 0.22052 0.49372 0.0
C2247 C 0.78405 0.23006 0.50477 0.0
O2248 O 0.77843 0.27628 0.49947 0.0
C2249 C 0.76309 0.24791 0.53548 0.0
O2250 O 0.77461 0.23963 0.53427 0.0
H2251 H 0.76322 0.24986 0.48468 0.0
H2252 H 0.79108 0.22756 0.51414 0.0
N2253 N 0.79492 0.26213 0.52582 0.0
N2254 N 0.80937 0.27051 0.54431 0.0
C2255 C 0.79612 0.27125 0.53737 0.0
C2256 C 0.80783 0.25531 0.5254 0.0
C2257 C 0.81676 0.26045 0.53677 0.0
C2258 C 0.78952 0.2756 0.4914 0.0
O2259 O 0.79892 0.26509 0.49395 0.0
H2260 H 0.7873 0.27815 0.54066 0.0
H2261 H 0.81062 0.24727 0.51734 0.0
O2262 O 0.76172 0.25881 0.52686 0.0
H2263 H 0.78287 0.20921 0.49277 0.0
H2264 H 0.8279 0.25717 0.5391 0.0
Cu2265 Cu 0.28113 0.27559 0.51345 0.0
N2266 N 0.28102 0.29255 0.52488 0.0
N2267 N 0.27376 0.30704 0.54291 0.0
C2268 C 0.27246 0.29381 0.53645 0.0
C2269 C 0.28368 0.31437 0.53503 0.0
C2270 C 0.28814 0.3054 0.52391 0.0
O2271 O 0.28415 0.25982 0.52768 0.0
C2272 C 0.26379 0.2875 0.49264 0.0
O2273 O 0.27506 0.29641 0.49415 0.0
H2274 H 0.26546 0.28504 0.54006 0.0
H2275 H 0.29581 0.30817 0.51561 0.0
N2276 N 0.29632 0.27419 0.50032 0.0
N2277 N 0.30834 0.26463 0.48172 0.0
C2278 C 0.29614 0.26416 0.48959 0.0
C2279 C 0.30908 0.28145 0.49926 0.0
C2280 C 0.31652 0.27557 0.48779 0.0
C2281 C 0.29648 0.26159 0.53444 0.0
O2282 O 0.30463 0.27281 0.53082 0.0
H2283 H 0.28707 0.25668 0.48765 0.0
H2284 H 0.31285 0.29016 0.50644 0.0
O2285 O 0.26344 0.27621 0.50084 0.0
H2286 H 0.28727 0.32552 0.53692 0.0
H2287 H 0.32725 0.27893 0.48445 0.0
Cu2288 Cu 0.78709 0.51868 0.75673 0.0
N2289 N 0.80306 0.531 0.75311 0.0
N2290 N 0.81485 0.55012 0.7435 0.0
C2291 C 0.80184 0.54338 0.74521 0.0
C2292 C 0.82466 0.54165 0.75079 0.0
C2293 C 0.81736 0.52984 0.75667 0.0
O2294 O 0.77145 0.53183 0.76215 0.0
C2295 C 0.79261 0.50404 0.72997 0.0
O2296 O 0.80166 0.5149 0.72751 0.0
H2297 H 0.79151 0.54727 0.74074 0.0
H2298 H 0.82217 0.52093 0.76284 0.0
N2299 N 0.7895 0.5058 0.77247 0.0
N2300 N 0.78286 0.48728 0.78695 0.0
C2301 C 0.7799 0.49484 0.77455 0.0
C2302 C 0.79908 0.50522 0.78389 0.0
C2303 C 0.79501 0.49381 0.79285 0.0
C2304 C 0.77498 0.53907 0.7737 0.0
O2305 O 0.78782 0.53669 0.78001 0.0
H2306 H 0.77083 0.49264 0.767 0.0
H2307 H 0.80812 0.51274 0.78579 0.0
O2308 O 0.78371 0.50516 0.74034 0.0
H2309 H 0.83633 0.54359 0.7515 0.0
H2310 H 0.80043 0.49086 0.80309 0.0
Cu2311 Cu 0.27498 0.52065 0.7714 0.0
N2312 N 0.27462 0.50884 0.78793 0.0
N2313 N 0.28214 0.49076 0.80266 0.0
C2314 C 0.28115 0.49575 0.78881 0.0
C2315 C 0.27589 0.50111 0.81083 0.0
C2316 C 0.27126 0.51228 0.80169 0.0
O2317 O 0.27505 0.5067 0.75519 0.0
C2318 C 0.29779 0.54256 0.76647 0.0
O2319 O 0.29427 0.54249 0.75244 0.0
H2320 H 0.28611 0.49055 0.77961 0.0
H2321 H 0.26663 0.52254 0.80495 0.0
N2322 N 0.25862 0.53266 0.76972 0.0
N2323 N 0.2443 0.55061 0.76114 0.0
C2324 C 0.25779 0.54479 0.76143 0.0
C2325 C 0.24525 0.53079 0.77507 0.0
C2326 C 0.23638 0.54188 0.76983 0.0
C2327 C 0.26504 0.50634 0.74517 0.0
O2328 O 0.25667 0.51776 0.74321 0.0
H2329 H 0.26684 0.54904 0.75543 0.0
H2330 H 0.24205 0.52176 0.78192 0.0
O2331 O 0.29179 0.53346 0.77493 0.0
H2332 H 0.27524 0.50089 0.82261 0.0
H2333 H 0.22488 0.54307 0.77182 0.0
Cu2334 Cu 0.25737 0.50824 0.26109 0.0
N2335 N 0.24161 0.49503 0.26033 0.0
N2336 N 0.22804 0.47609 0.26773 0.0
C2337 C 0.24167 0.48169 0.26659 0.0
C2338 C 0.21908 0.48631 0.26185 0.0
C2339 C 0.22746 0.49798 0.25739 0.0
O2340 O 0.27497 0.49611 0.26172 0.0
C2341 C 0.25997 0.5323 0.28174 0.0
O2342 O 0.27283 0.5353 0.27653 0.0
H2343 H 0.25139 0.47676 0.27138 0.0
H2344 H 0.22341 0.50833 0.2534 0.0
N2345 N 0.25759 0.52091 0.24489 0.0
N2346 N 0.26429 0.53961 0.23061 0.0
C2347 C 0.26783 0.53123 0.24236 0.0
C2348 C 0.24728 0.52266 0.23425 0.0
C2349 C 0.25135 0.53413 0.22547 0.0
C2350 C 0.27976 0.49195 0.24946 0.0
O2351 O 0.27361 0.49703 0.23736 0.0
H2352 H 0.27766 0.53255 0.2491 0.0
H2353 H 0.23734 0.51627 0.2331 0.0
O2354 O 0.25329 0.52061 0.27782 0.0
H2355 H 0.20727 0.48572 0.26146 0.0
H2356 H 0.24494 0.53837 0.21632 0.0
Cu2357 Cu 0.76282 0.52221 0.25259 0.0
N2358 N 0.78024 0.51233 0.25643 0.0
N2359 N 0.79474 0.49582 0.26731 0.0
C2360 C 0.7809 0.49953 0.2636 0.0
C2361 C 0.80316 0.50661 0.26193 0.0
C2362 C 0.79416 0.51685 0.25528 0.0
O2363 O 0.74812 0.50731 0.24768 0.0
C2364 C 0.76637 0.53416 0.28125 0.0
O2365 O 0.77275 0.52186 0.28489 0.0
H2366 H 0.77128 0.49346 0.26668 0.0
H2367 H 0.79747 0.52719 0.25069 0.0
N2368 N 0.76385 0.53515 0.23691 0.0
N2369 N 0.75756 0.55447 0.22317 0.0
C2370 C 0.75477 0.5465 0.2352 0.0
C2371 C 0.77288 0.53589 0.22565 0.0
C2372 C 0.769 0.54779 0.21713 0.0
C2373 C 0.75124 0.49991 0.23642 0.0
O2374 O 0.76312 0.50345 0.22954 0.0
H2375 H 0.74643 0.54893 0.24289 0.0
H2376 H 0.78161 0.52833 0.22376 0.0
O2377 O 0.75928 0.53498 0.26907 0.0
H2378 H 0.8149 0.50751 0.26347 0.0
H2379 H 0.77416 0.55113 0.20719 0.0
Cu2380 Cu 0.52578 0.26773 0.77241 0.0
N2381 N 0.51616 0.26939 0.79014 0.0
N2382 N 0.49919 0.27659 0.80558 0.0
C2383 C 0.50322 0.27605 0.79154 0.0
C2384 C 0.51003 0.26999 0.81335 0.0
C2385 C 0.52045 0.26549 0.80378 0.0
O2386 O 0.51018 0.26493 0.75719 0.0
C2387 C 0.54993 0.28396 0.78077 0.0
O2388 O 0.55056 0.27292 0.7899 0.0
H2389 H 0.49704 0.28075 0.78244 0.0
H2390 H 0.5305 0.25991 0.80661 0.0
N2391 N 0.53785 0.25134 0.7712 0.0
N2392 N 0.55554 0.23743 0.76251 0.0
C2393 C 0.54931 0.25071 0.76237 0.0
C2394 C 0.53686 0.23799 0.77726 0.0
C2395 C 0.54771 0.22933 0.77182 0.0
C2396 C 0.50199 0.25394 0.75995 0.0
O2397 O 0.50488 0.24659 0.772 0.0
H2398 H 0.55273 0.25972 0.75559 0.0
H2399 H 0.52868 0.23468 0.78487 0.0
O2400 O 0.5393 0.28454 0.77135 0.0
H2401 H 0.51036 0.26848 0.82508 0.0
H2402 H 0.54968 0.21799 0.77445 0.0
Cu2403 Cu 0.52243 0.75982 0.76085 0.0
N2404 N 0.5351 0.74433 0.75846 0.0
N2405 N 0.5543 0.73036 0.76435 0.0
C2406 C 0.54768 0.74327 0.76633 0.0
C2407 C 0.54553 0.72305 0.75461 0.0
C2408 C 0.53362 0.7317 0.75105 0.0
O2409 O 0.53536 0.77651 0.76425 0.0
C2410 C 0.50203 0.76243 0.78404 0.0
O2411 O 0.50286 0.77667 0.78247 0.0
H2412 H 0.55166 0.75177 0.77367 0.0
H2413 H 0.5243 0.72875 0.74406 0.0
N2414 N 0.5101 0.76304 0.74455 0.0
N2415 N 0.49148 0.77261 0.73151 0.0
C2416 C 0.49753 0.77048 0.74495 0.0
C2417 C 0.51203 0.76013 0.73034 0.0
C2418 C 0.50049 0.76598 0.72225 0.0
C2419 C 0.53459 0.78824 0.75683 0.0
O2420 O 0.52249 0.79117 0.74937 0.0
H2421 H 0.49314 0.77461 0.75492 0.0
H2422 H 0.52139 0.7546 0.72614 0.0
O2423 O 0.5102 0.75426 0.77672 0.0
H2424 H 0.54722 0.71202 0.75084 0.0
H2425 H 0.49917 0.76589 0.71046 0.0
Cu2426 Cu 0.49835 0.76404 0.27121 0.0
N2427 N 0.48804 0.76627 0.28848 0.0
N2428 N 0.47075 0.7744 0.30311 0.0
C2429 C 0.47529 0.77343 0.28927 0.0
C2430 C 0.48104 0.76754 0.31139 0.0
C2431 C 0.49165 0.76246 0.30233 0.0
O2432 O 0.48325 0.76105 0.25553 0.0
C2433 C 0.5223 0.78009 0.28032 0.0
O2434 O 0.52222 0.7693 0.28975 0.0
H2435 H 0.46965 0.7782 0.27987 0.0
H2436 H 0.5014 0.7566 0.30565 0.0
N2437 N 0.51036 0.74754 0.27082 0.0
N2438 N 0.52844 0.73342 0.26326 0.0
C2439 C 0.52202 0.74659 0.26229 0.0
C2440 C 0.5094 0.73451 0.27755 0.0
C2441 C 0.5205 0.72573 0.27281 0.0
C2442 C 0.47499 0.75008 0.25822 0.0
O2443 O 0.47768 0.7428 0.27035 0.0
H2444 H 0.52552 0.75532 0.25521 0.0
H2445 H 0.50114 0.73153 0.2852 0.0
O2446 O 0.51217 0.78062 0.27036 0.0
H2447 H 0.48088 0.76625 0.32314 0.0
H2448 H 0.52262 0.71459 0.27616 0.0
Cu2449 Cu 0.52532 0.25701 0.25742 0.0
N2450 N 0.51258 0.24103 0.25789 0.0
N2451 N 0.49393 0.22755 0.26566 0.0
C2452 C 0.50118 0.24041 0.26672 0.0
C2453 C 0.50105 0.21977 0.25564 0.0
C2454 C 0.51259 0.22811 0.25087 0.0
O2455 O 0.51291 0.27426 0.25848 0.0
C2456 C 0.5481 0.24271 0.2702 0.0
O2457 O 0.54471 0.23497 0.25847 0.0
H2458 H 0.49832 0.24935 0.27376 0.0
H2459 H 0.52055 0.22485 0.24309 0.0
N2460 N 0.53511 0.25851 0.23991 0.0
N2461 N 0.55118 0.26729 0.22426 0.0
C2462 C 0.54623 0.2679 0.23795 0.0
C2463 C 0.53289 0.25163 0.22703 0.0
C2464 C 0.54283 0.25702 0.21733 0.0
C2465 C 0.50422 0.27517 0.24732 0.0
O2466 O 0.50468 0.26496 0.23728 0.0
H2467 H 0.55061 0.27497 0.24652 0.0
H2468 H 0.52447 0.24353 0.22473 0.0
O2469 O 0.54052 0.25402 0.27268 0.0
H2470 H 0.49839 0.20872 0.25224 0.0
H2471 H 0.54359 0.25385 0.206 0.0
H2472 H 0.21815 0.22205 0.14676 0.0
H2473 H 0.2183 0.18274 0.12074 0.0
H2474 H 0.22652 0.23614 0.12608 0.0
H2475 H 0.2267 0.19692 0.09988 0.0
H2476 H 0.254 0.22658 0.06984 0.0
H2477 H 0.24715 0.21156 0.09058 0.0
H2478 H 0.21599 0.24411 0.10269 0.0
H2479 H 0.22316 0.25931 0.08228 0.0
C2480 C 0.22 0.21641 0.13659 0.0
C2481 C 0.21738 0.2013 0.13533 0.0
C2482 C 0.22475 0.2245 0.12472 0.0
C2483 C 0.22704 0.21772 0.11123 0.0
C2484 C 0.22507 0.20248 0.11013 0.0
C2485 C 0.22029 0.19435 0.12207 0.0
C2486 C 0.24577 0.23059 0.07699 0.0
C2487 C 0.23921 0.24423 0.07442 0.0
C2488 C 0.24173 0.22189 0.08879 0.0
C2489 C 0.2311 0.22666 0.09837 0.0
C2490 C 0.22439 0.2402 0.09567 0.0
C2491 C 0.22838 0.24886 0.08385 0.0
H2492 H 0.85501 0.22711 0.10584 0.0
H2493 H 0.81165 0.21187 0.11572 0.0
H2494 H 0.84528 0.23886 0.0838 0.0
H2495 H 0.80203 0.22332 0.09335 0.0
H2496 H 0.79371 0.23374 0.04407 0.0
H2497 H 0.80336 0.22139 0.06597 0.0
H2498 H 0.82898 0.25977 0.07738 0.0
H2499 H 0.81934 0.27213 0.05554 0.0
C2500 C 0.84338 0.22632 0.10341 0.0
C2501 C 0.83414 0.2186 0.11276 0.0
C2502 C 0.83781 0.23303 0.0907 0.0
C2503 C 0.82286 0.2321 0.08683 0.0
C2504 C 0.81363 0.22414 0.09595 0.0
C2505 C 0.81917 0.21753 0.10877 0.0
C2506 C 0.80144 0.23954 0.05122 0.0
C2507 C 0.80577 0.25394 0.048 0.0
C2508 C 0.80689 0.23248 0.06383 0.0
C2509 C 0.81695 0.23958 0.07343 0.0
C2510 C 0.82136 0.25393 0.07015 0.0
C2511 C 0.81578 0.26105 0.05765 0.0
H2512 H 0.81581 0.84203 0.09255 0.0
H2513 H 0.81086 0.80023 0.11356 0.0
H2514 H 0.80524 0.83199 0.06989 0.0
H2515 H 0.79984 0.79012 0.09082 0.0
H2516 H 0.78557 0.7761 0.04294 0.0
H2517 H 0.80168 0.7838 0.06376 0.0
H2518 H 0.78002 0.82544 0.06435 0.0
H2519 H 0.76439 0.81799 0.04392 0.0
C2520 C 0.8126 0.83061 0.09224 0.0
C2521 C 0.81396 0.82197 0.10487 0.0
C2522 C 0.8065 0.82485 0.07927 0.0
C2523 C 0.80139 0.81031 0.07859 0.0
C2524 C 0.80367 0.80135 0.09094 0.0
C2525 C 0.80995 0.80713 0.10397 0.0
C2526 C 0.78443 0.78694 0.04747 0.0
C2527 C 0.77367 0.79641 0.04174 0.0
C2528 C 0.79357 0.79131 0.05943 0.0
C2529 C 0.79225 0.80531 0.06566 0.0
C2530 C 0.7816 0.81471 0.05971 0.0
C2531 C 0.7725 0.81035 0.048 0.0
H2532 H 0.22439 0.8105 0.12444 0.0
H2533 H 0.18435 0.81001 0.09829 0.0
H2534 H 0.2381 0.80413 0.10305 0.0
H2535 H 0.19811 0.8039 0.07663 0.0
H2536 H 0.22729 0.7826 0.04277 0.0
H2537 H 0.21292 0.7861 0.06437 0.0
H2538 H 0.2453 0.81679 0.08141 0.0
H2539 H 0.25995 0.81282 0.06013 0.0
C2540 C 0.21852 0.80884 0.11409 0.0
C2541 C 0.20333 0.81082 0.11298 0.0
C2542 C 0.22638 0.80534 0.1018 0.0
C2543 C 0.21927 0.80381 0.08803 0.0
C2544 C 0.20394 0.80497 0.08707 0.0
C2545 C 0.19603 0.80842 0.09945 0.0
C2546 C 0.23144 0.78999 0.05118 0.0
C2547 C 0.2449 0.79733 0.0497 0.0
C2548 C 0.22309 0.79211 0.06352 0.0
C2549 C 0.22797 0.80163 0.07472 0.0
C2550 C 0.24131 0.80915 0.07314 0.0
C2551 C 0.24965 0.80703 0.06081 0.0
H2552 H 0.22568 0.8149 0.89831 0.0
H2553 H 0.18391 0.80512 0.91678 0.0
H2554 H 0.238 0.80469 0.9199 0.0
H2555 H 0.19636 0.7946 0.93829 0.0
H2556 H 0.22765 0.76644 0.9697 0.0
H2557 H 0.21389 0.77386 0.94731 0.0
H2558 H 0.23968 0.81346 0.94572 0.0
H2559 H 0.25311 0.80633 0.96761 0.0
C2560 C 0.21909 0.81062 0.90696 0.0
C2561 C 0.20376 0.81105 0.90579 0.0
C2562 C 0.22617 0.80465 0.91931 0.0
C2563 C 0.21815 0.79889 0.93085 0.0
C2564 C 0.20284 0.79882 0.92953 0.0
C2565 C 0.19572 0.80488 0.91718 0.0
C2566 C 0.23028 0.77673 0.96456 0.0
C2567 C 0.24155 0.78571 0.97048 0.0
C2568 C 0.22243 0.78099 0.95177 0.0
C2569 C 0.22587 0.79416 0.94462 0.0
C2570 C 0.23695 0.80313 0.95074 0.0
C2571 C 0.2446 0.79901 0.96343 0.0
H2572 H 0.2541 0.18524 0.94108 0.0
H2573 H 0.23978 0.22767 0.92603 0.0
H2574 H 0.26216 0.19606 0.96452 0.0
H2575 H 0.24726 0.23814 0.94959 0.0
H2576 H 0.23871 0.2425 0.99876 0.0
H2577 H 0.23515 0.22982 0.97569 0.0
H2578 H 0.28107 0.22007 0.9754 0.0
H2579 H 0.28489 0.23331 0.99878 0.0
C2580 C 0.25286 0.19687 0.94262 0.0
C2581 C 0.24605 0.20551 0.93163 0.0
C2582 C 0.25749 0.20303 0.95606 0.0
C2583 C 0.25528 0.2179 0.95885 0.0
C2584 C 0.24901 0.22662 0.94773 0.0
C2585 C 0.24457 0.22055 0.93428 0.0
C2586 C 0.24813 0.23761 0.99395 0.0
C2587 C 0.26215 0.23912 1.00059 0.0
C2588 C 0.24603 0.23035 0.98068 0.0
C2589 C 0.25784 0.22418 0.97368 0.0
C2590 C 0.27179 0.22481 0.98061 0.0
C2591 C 0.27397 0.23232 0.99398 0.0
H2592 H 0.86663 0.2242 0.90725 0.0
H2593 H 0.82253 0.22097 0.88927 0.0
H2594 H 0.85745 0.23503 0.9295 0.0
H2595 H 0.81337 0.23178 0.91144 0.0
H2596 H 0.80148 0.23394 0.95986 0.0
H2597 H 0.81048 0.22489 0.93681 0.0
H2598 H 0.8458 0.25647 0.93936 0.0
H2599 H 0.83681 0.26551 0.96233 0.0
C2600 C 0.85501 0.22602 0.90794 0.0
C2601 C 0.84531 0.2216 0.89653 0.0
C2602 C 0.84973 0.23221 0.92071 0.0
C2603 C 0.83464 0.23413 0.92234 0.0
C2604 C 0.82502 0.23016 0.91071 0.0
C2605 C 0.83028 0.224 0.89797 0.0
C2606 C 0.81107 0.23906 0.95544 0.0
C2607 C 0.81845 0.2504 0.96306 0.0
C2608 C 0.81624 0.23388 0.9422 0.0
C2609 C 0.82891 0.23992 0.93623 0.0
C2610 C 0.83617 0.25138 0.94375 0.0
C2611 C 0.831 0.25656 0.95696 0.0
H2612 H 0.817 0.83865 0.91088 0.0
H2613 H 0.77497 0.84844 0.89067 0.0
H2614 H 0.80504 0.82916 0.93228 0.0
H2615 H 0.76294 0.83882 0.9121 0.0
H2616 H 0.74739 0.83406 0.95907 0.0
H2617 H 0.75902 0.84368 0.93754 0.0
H2618 H 0.79044 0.80886 0.94004 0.0
H2619 H 0.77922 0.79961 0.96194 0.0
C2620 C 0.80518 0.83867 0.91095 0.0
C2621 C 0.79695 0.84426 0.899 0.0
C2622 C 0.79831 0.83318 0.92324 0.0
C2623 C 0.78299 0.83311 0.92393 0.0
C2624 C 0.77475 0.83885 0.91204 0.0
C2625 C 0.78165 0.84437 0.89974 0.0
C2626 C 0.75685 0.8285 0.95514 0.0
C2627 C 0.76237 0.81607 0.96239 0.0
C2628 C 0.76343 0.83394 0.94264 0.0
C2629 C 0.77572 0.8271 0.93703 0.0
C2630 C 0.78113 0.81455 0.94415 0.0
C2631 C 0.77455 0.80912 0.95665 0.0
H2632 H 0.12845 0.23639 0.22014 0.0
H2633 H 0.10478 0.19545 0.21748 0.0
H2634 H 0.10612 0.2489 0.22644 0.0
H2635 H 0.0824 0.20794 0.22399 0.0
H2636 H 0.04327 0.23865 0.21622 0.0
H2637 H 0.06591 0.22596 0.21152 0.0
H2638 H 0.08803 0.25069 0.24595 0.0
H2639 H 0.0654 0.2636 0.25047 0.0
C2640 C 0.11848 0.23005 0.22106 0.0
C2641 C 0.11832 0.21496 0.21824 0.0
C2642 C 0.10572 0.2372 0.22475 0.0
C2643 C 0.09248 0.22943 0.2256 0.0
C2644 C 0.09241 0.21425 0.22323 0.0
C2645 C 0.10523 0.20707 0.21967 0.0
C2646 C 0.053 0.24154 0.22265 0.0
C2647 C 0.05255 0.25219 0.23368 0.0
C2648 C 0.06592 0.23411 0.2201 0.0
C2649 C 0.07873 0.23724 0.22845 0.0
C2650 C 0.07835 0.24806 0.23931 0.0
C2651 C 0.06539 0.25541 0.24194 0.0
H2652 H 0.80132 0.11865 0.19587 0.0
H2653 H 0.84568 0.10336 0.2 0.0
H2654 H 0.79289 0.09689 0.20867 0.0
H2655 H 0.8373 0.08158 0.2126 0.0
H2656 H 0.81983 0.05372 0.24968 0.0
H2657 H 0.82789 0.0749 0.23586 0.0
H2658 H 0.78973 0.07076 0.20708 0.0
H2659 H 0.78166 0.04969 0.22094 0.0
C2660 C 0.80923 0.11052 0.19929 0.0
C2661 C 0.82418 0.11279 0.19702 0.0
C2662 C 0.80442 0.09805 0.20665 0.0
C2663 C 0.81443 0.08752 0.21184 0.0
C2664 C 0.82931 0.08959 0.20909 0.0
C2665 C 0.83412 0.10206 0.2018 0.0
C2666 C 0.81321 0.05727 0.24035 0.0
C2667 C 0.80007 0.05 0.23649 0.0
C2668 C 0.81784 0.06941 0.23239 0.0
C2669 C 0.80947 0.07457 0.22031 0.0
C2670 C 0.79634 0.06727 0.21644 0.0
C2671 C 0.7917 0.05516 0.22442 0.0
H2672 H 0.91615 0.8177 0.19123 0.0
H2673 H 0.8928 0.82409 0.23086 0.0
H2674 H 0.93734 0.80937 0.20552 0.0
H2675 H 0.91397 0.81551 0.24524 0.0
H2676 H 0.95937 0.8114 0.26755 0.0
H2677 H 0.9385 0.82089 0.25349 0.0
H2678 H 0.94571 0.78927 0.21955 0.0
H2679 H 0.9669 0.78031 0.23317 0.0
C2680 C 0.91548 0.81721 0.20301 0.0
C2681 C 0.90269 0.82148 0.20986 0.0
C2682 C 0.92767 0.81239 0.21125 0.0
C2683 C 0.92743 0.8116 0.2266 0.0
C2684 C 0.91469 0.8161 0.23347 0.0
C2685 C 0.90251 0.82101 0.22522 0.0
C2686 C 0.95663 0.80654 0.25703 0.0
C2687 C 0.96499 0.79503 0.2516 0.0
C2688 C 0.9445 0.8119 0.24901 0.0
C2689 C 0.94033 0.80591 0.2353 0.0
C2690 C 0.94865 0.79436 0.22992 0.0
C2691 C 0.96077 0.78905 0.23791 0.0
H2692 H 0.19067 0.91179 0.18471 0.0
H2693 H 0.18977 0.89622 0.22917 0.0
H2694 H 0.20495 0.93304 0.19279 0.0
H2695 H 0.20426 0.91745 0.2373 0.0
H2696 H 0.22126 0.96322 0.24849 0.0
H2697 H 0.2047 0.94367 0.24047 0.0
H2698 H 0.22949 0.93809 0.20158 0.0
H2699 H 0.24568 0.95807 0.20931 0.0
C2700 C 0.19351 0.91294 0.19624 0.0
C2701 C 0.18919 0.90225 0.20629 0.0
C2702 C 0.20175 0.92509 0.20087 0.0
C2703 C 0.20595 0.92689 0.21568 0.0
C2704 C 0.20114 0.91649 0.22583 0.0
C2705 C 0.19282 0.90432 0.22118 0.0
C2706 C 0.22307 0.95802 0.23811 0.0
C2707 C 0.23483 0.96232 0.22953 0.0
C2708 C 0.21365 0.94665 0.2336 0.0
C2709 C 0.21572 0.93927 0.22038 0.0
C2710 C 0.22741 0.94364 0.21174 0.0
C2711 C 0.23683 0.95501 0.21625 0.0
H2712 H 0.09912 0.82482 0.83194 0.0
H2713 H 0.11278 0.82879 0.78741 0.0
H2714 H 0.07623 0.81359 0.82328 0.0
H2715 H 0.08983 0.81744 0.77872 0.0
H2716 H 0.04142 0.80519 0.76818 0.0
H2717 H 0.06277 0.81979 0.77648 0.0
H2718 H 0.06992 0.79011 0.81262 0.0
H2719 H 0.04879 0.77586 0.8046 0.0
C2720 C 0.09725 0.82325 0.82029 0.0
C2721 C 0.10785 0.82753 0.81038 0.0
C2722 C 0.08411 0.81685 0.81532 0.0
C2723 C 0.08125 0.81449 0.80031 0.0
C2724 C 0.09163 0.81923 0.79033 0.0
C2725 C 0.10479 0.82569 0.79532 0.0
C2726 C 0.04752 0.8019 0.77795 0.0
C2727 C 0.04339 0.78937 0.78572 0.0
C2728 C 0.05977 0.8102 0.78266 0.0
C2729 C 0.06799 0.80616 0.79527 0.0
C2730 C 0.06371 0.79371 0.80303 0.0
C2731 C 0.05161 0.78545 0.79833 0.0
H2732 H 0.25704 0.12837 0.82809 0.0
H2733 H 0.21641 0.10446 0.83012 0.0
H2734 H 0.26864 0.10707 0.81773 0.0
H2735 H 0.22807 0.08283 0.82061 0.0
H2736 H 0.24796 0.05128 0.78894 0.0
H2737 H 0.23669 0.07207 0.80017 0.0
H2738 H 0.27818 0.08404 0.82097 0.0
H2739 H 0.28964 0.06357 0.80887 0.0
C2740 C 0.25064 0.11846 0.82647 0.0
C2741 C 0.23579 0.11812 0.82981 0.0
C2742 C 0.25732 0.10615 0.82063 0.0
C2743 C 0.24939 0.09304 0.81822 0.0
C2744 C 0.23455 0.09271 0.82189 0.0
C2745 C 0.22782 0.10512 0.82744 0.0
C2746 C 0.25469 0.05826 0.79601 0.0
C2747 C 0.26974 0.0557 0.798 0.0
C2748 C 0.24817 0.07024 0.80258 0.0
C2749 C 0.25641 0.07993 0.8116 0.0
C2750 C 0.27144 0.0771 0.8139 0.0
C2751 C 0.27803 0.06524 0.80708 0.0
H2752 H 0.95072 0.19401 0.80411 0.0
H2753 H 0.93787 0.2392 0.80535 0.0
H2754 H 0.9737 0.20119 0.79321 0.0
H2755 H 0.96093 0.2464 0.79479 0.0
H2756 H 0.02002 0.2234 0.79509 0.0
H2757 H 0.99613 0.2139 0.80143 0.0
H2758 H 0.97539 0.24544 0.77272 0.0
H2759 H 0.99935 0.25509 0.76647 0.0
C2760 C 0.95272 0.20546 0.80193 0.0
C2761 C 0.94245 0.21603 0.8057 0.0
C2762 C 0.96596 0.20959 0.79578 0.0
C2763 C 0.96922 0.22439 0.79313 0.0
C2764 C 0.95876 0.2349 0.79652 0.0
C2765 C 0.94559 0.23078 0.80276 0.0
C2766 C 0.01039 0.22813 0.78988 0.0
C2767 C 0.01165 0.24006 0.78031 0.0
C2768 C 0.99665 0.22264 0.7935 0.0
C2769 C 0.98379 0.22899 0.78772 0.0
C2770 C 0.98506 0.24043 0.77755 0.0
C2771 C 0.99882 0.24586 0.77383 0.0
H2772 H 0.80383 0.92217 0.79641 0.0
H2773 H 0.84944 0.93387 0.79371 0.0
H2774 H 0.79715 0.94461 0.78355 0.0
H2775 H 0.84281 0.95593 0.78035 0.0
H2776 H 0.82384 1.0023 0.77449 0.0
H2777 H 0.83189 0.97917 0.7848 0.0
H2778 H 0.79772 0.95664 0.75988 0.0
H2779 H 0.78943 0.97989 0.74975 0.0
C2780 C 0.81244 0.92951 0.79308 0.0
C2781 C 0.82718 0.92618 0.79613 0.0
C2782 C 0.80862 0.94229 0.78551 0.0
C2783 C 0.81944 0.95208 0.78082 0.0
C2784 C 0.83417 0.94872 0.78386 0.0
C2785 C 0.83798 0.93597 0.79142 0.0
C2786 C 0.81819 0.9924 0.77097 0.0
C2787 C 0.80594 0.99302 0.76133 0.0
C2788 C 0.82284 0.97909 0.77689 0.0
C2789 C 0.81535 0.96601 0.77333 0.0
C2790 C 0.80357 0.96652 0.76308 0.0
C2791 C 0.79893 0.97985 0.75712 0.0
H2792 H 0.20256 0.11665 0.25215 0.0
H2793 H 0.19405 0.09486 0.21098 0.0
H2794 H 0.21194 0.09406 0.26272 0.0
H2795 H 0.20246 0.07193 0.22165 0.0
H2796 H 0.23296 0.03708 0.23949 0.0
H2797 H 0.22243 0.05902 0.22917 0.0
H2798 H 0.20738 0.07111 0.27176 0.0
H2799 H 0.21892 0.04942 0.28225 0.0
C2800 C 0.20256 0.10692 0.24543 0.0
C2801 C 0.19769 0.1075 0.23074 0.0
C2802 C 0.2078 0.09388 0.25151 0.0
C2803 C 0.20801 0.08096 0.24314 0.0
C2804 C 0.20285 0.0816 0.22845 0.0
C2805 C 0.19793 0.09473 0.22229 0.0
C2806 C 0.22727 0.04432 0.24666 0.0
C2807 C 0.22679 0.04145 0.26173 0.0
C2808 C 0.22111 0.05698 0.24069 0.0
C2809 C 0.21398 0.06706 0.24954 0.0
C2810 C 0.21304 0.06388 0.26457 0.0
C2811 C 0.21951 0.05133 0.27061 0.0
H2812 H 0.18995 0.92237 0.81218 0.0
H2813 H 0.23413 0.90714 0.81909 0.0
H2814 H 0.19908 0.94372 0.79939 0.0
H2815 H 0.24326 0.92869 0.80648 0.0
H2816 H 0.25405 0.97703 0.79703 0.0
H2817 H 0.24529 0.95543 0.80948 0.0
H2818 H 0.21097 0.95007 0.7764 0.0
H2819 H 0.21983 0.97162 0.76372 0.0
C2820 C 0.20161 0.92349 0.8109 0.0
C2821 C 0.21127 0.91291 0.81663 0.0
C2822 C 0.20684 0.93577 0.80356 0.0
C2823 C 0.2219 0.9379 0.80183 0.0
C2824 C 0.2316 0.92746 0.80774 0.0
C2825 C 0.22636 0.91511 0.81502 0.0
C2826 C 0.24476 0.97122 0.79221 0.0
C2827 C 0.23772 0.97621 0.77924 0.0
C2828 C 0.23971 0.95878 0.79942 0.0
C2829 C 0.22742 0.951 0.79397 0.0
C2830 C 0.22036 0.95592 0.78102 0.0
C2831 C 0.22546 0.96832 0.77374 0.0
H2832 H 0.13432 0.22009 0.86173 0.0
H2833 H 0.15152 0.21545 0.81868 0.0
H2834 H 0.11306 0.23249 0.85132 0.0
H2835 H 0.1302 0.22803 0.80819 0.0
H2836 H 0.08308 0.24017 0.79339 0.0
H2837 H 0.10419 0.22679 0.80304 0.0
H2838 H 0.10658 0.25534 0.84061 0.0
H2839 H 0.08549 0.2686 0.83102 0.0
C2840 C 0.13361 0.22178 0.85002 0.0
C2841 C 0.14477 0.21687 0.84109 0.0
C2842 C 0.12139 0.22895 0.84403 0.0
C2843 C 0.11991 0.2315 0.82889 0.0
C2844 C 0.13086 0.22621 0.81988 0.0
C2845 C 0.14311 0.21897 0.82589 0.0
C2846 C 0.08817 0.24369 0.80364 0.0
C2847 C 0.08245 0.25548 0.81142 0.0
C2848 C 0.10032 0.23598 0.8092 0.0
C2849 C 0.10712 0.23985 0.8227 0.0
C2850 C 0.1015 0.25178 0.83035 0.0
C2851 C 0.08936 0.25945 0.82482 0.0
H2852 H 0.82075 0.13567 0.80893 0.0
H2853 H 0.85962 0.11116 0.80044 0.0
H2854 H 0.8057 0.11438 0.80264 0.0
H2855 H 0.84448 0.08988 0.79392 0.0
H2856 H 0.8112 0.06037 0.76873 0.0
H2857 H 0.82647 0.08153 0.77497 0.0
H2858 H 0.80032 0.08981 0.8124 0.0
H2859 H 0.78479 0.06877 0.80593 0.0
C2860 C 0.82611 0.12572 0.8058 0.0
C2861 C 0.84144 0.12513 0.80531 0.0
C2862 C 0.81746 0.1135 0.80219 0.0
C2863 C 0.82388 0.1004 0.79788 0.0
C2864 C 0.83918 0.09986 0.79709 0.0
C2865 C 0.84786 0.11207 0.80078 0.0
C2866 C 0.80861 0.06676 0.77822 0.0
C2867 C 0.79668 0.06293 0.78677 0.0
C2868 C 0.81749 0.0788 0.78189 0.0
C2869 C 0.81462 0.08738 0.79417 0.0
C2870 C 0.80274 0.08352 0.80278 0.0
C2871 C 0.79392 0.07139 0.79916 0.0
H2872 H 0.91516 0.8353 0.82691 0.0
H2873 H 0.88827 0.7973 0.81745 0.0
H2874 H 0.93683 0.82186 0.81972 0.0
H2875 H 0.90988 0.78399 0.80988 0.0
H2876 H 0.95106 0.77637 0.78017 0.0
H2877 H 0.92911 0.78885 0.78809 0.0
H2878 H 0.9501 0.79705 0.83024 0.0
H2879 H 0.97194 0.78425 0.8224 0.0
C2880 C 0.91391 0.82411 0.82321 0.0
C2881 C 0.90011 0.81729 0.82272 0.0
C2882 C 0.92627 0.81642 0.81919 0.0
C2883 C 0.92497 0.80192 0.81429 0.0
C2884 C 0.91113 0.79518 0.81361 0.0
C2885 C 0.89882 0.80275 0.81796 0.0
C2886 C 0.95091 0.78077 0.79114 0.0
C2887 C 0.96312 0.77935 0.80071 0.0
C2888 C 0.93838 0.78784 0.79568 0.0
C2889 C 0.938 0.79391 0.80974 0.0
C2890 C 0.9502 0.79248 0.81932 0.0
C2891 C 0.9626 0.7851 0.8149 0.0
H2892 H 0.8055 0.90973 0.2239 0.0
H2893 H 0.80341 0.92276 0.17855 0.0
H2894 H 0.79267 0.93185 0.23047 0.0
H2895 H 0.79006 0.94457 0.18504 0.0
H2896 H 0.78518 0.99052 0.20552 0.0
H2897 H 0.79478 0.96745 0.19713 0.0
H2898 H 0.76954 0.94442 0.22897 0.0
H2899 H 0.76013 0.96763 0.23761 0.0
C2900 C 0.80227 0.91727 0.21531 0.0
C2901 C 0.80561 0.91443 0.20069 0.0
C2902 C 0.79471 0.92989 0.21906 0.0
C2903 C 0.79027 0.94006 0.2083 0.0
C2904 C 0.7934 0.93709 0.19365 0.0
C2905 C 0.80095 0.92447 0.18991 0.0
C2906 C 0.78144 0.98054 0.21058 0.0
C2907 C 0.77191 0.981 0.2223 0.0
C2908 C 0.78694 0.96725 0.20572 0.0
C2909 C 0.78309 0.95401 0.21246 0.0
C2910 C 0.77297 0.9544 0.22369 0.0
C2911 C 0.76742 0.96772 0.22853 0.0
H2912 H 0.09057 0.79071 0.18095 0.0
H2913 H 0.1112 0.80323 0.22227 0.0
H2914 H 0.06932 0.7815 0.19386 0.0
H2915 H 0.09001 0.79434 0.23497 0.0
H2916 H 0.04386 0.79756 0.25004 0.0
H2917 H 0.06448 0.80382 0.23542 0.0
H2918 H 0.06068 0.76229 0.21329 0.0
H2919 H 0.03965 0.75581 0.22824 0.0
C2920 C 0.09069 0.79135 0.19277 0.0
C2921 C 0.10255 0.79799 0.20052 0.0
C2922 C 0.07849 0.78606 0.20014 0.0
C2923 C 0.07788 0.78737 0.21542 0.0
C2924 C 0.08999 0.79343 0.22317 0.0
C2925 C 0.10214 0.79861 0.21585 0.0
C2926 C 0.04728 0.78967 0.24206 0.0
C2927 C 0.04013 0.77606 0.24048 0.0
C2928 C 0.05921 0.79329 0.23369 0.0
C2929 C 0.06442 0.78347 0.22337 0.0
C2930 C 0.05694 0.77007 0.22121 0.0
C2931 C 0.04491 0.76636 0.22976 0.0
H2932 H 0.93059 0.18532 0.22194 0.0
H2933 H 0.90802 0.22648 0.22167 0.0
H2934 H 0.95009 0.19591 0.23755 0.0
H2935 H 0.92765 0.23715 0.23715 0.0
H2936 H 0.95634 0.24659 0.27759 0.0
H2937 H 0.93723 0.23431 0.26291 0.0
H2938 H 0.96993 0.21464 0.23656 0.0
H2939 H 0.98912 0.22687 0.25126 0.0
C2940 C 0.92984 0.19666 0.22518 0.0
C2941 C 0.91775 0.20506 0.22063 0.0
C2942 C 0.94104 0.20273 0.23406 0.0
C2943 C 0.94034 0.21731 0.2387 0.0
C2944 C 0.92838 0.2258 0.23393 0.0
C2945 C 0.91724 0.21976 0.22493 0.0
C2946 C 0.95951 0.23943 0.26885 0.0
C2947 C 0.97429 0.23778 0.26558 0.0
C2948 C 0.94852 0.23253 0.26033 0.0
C2949 C 0.95206 0.2237 0.24843 0.0
C2950 C 0.96685 0.22137 0.24566 0.0
C2951 C 0.97785 0.22838 0.2541 0.0
H2952 H 0.19911 0.69681 0.60416 0.0
H2953 H 0.19699 0.74085 0.62066 0.0
H2954 H 0.21057 0.7058 0.58226 0.0
H2955 H 0.20884 0.7499 0.59883 0.0
H2956 H 0.22395 0.76226 0.55275 0.0
H2957 H 0.20797 0.75378 0.57218 0.0
H2958 H 0.23419 0.71509 0.57754 0.0
H2959 H 0.24961 0.7232 0.55828 0.0
C2960 C 0.20114 0.70842 0.60311 0.0
C2961 C 0.19733 0.71808 0.61424 0.0
C2962 C 0.20771 0.71361 0.59055 0.0
C2963 C 0.21084 0.72858 0.58883 0.0
C2964 C 0.2065 0.73833 0.5997 0.0
C2965 C 0.19977 0.73313 0.61225 0.0
C2966 C 0.2261 0.75186 0.55798 0.0
C2967 C 0.23808 0.74345 0.55396 0.0
C2968 C 0.21704 0.74705 0.56917 0.0
C2969 C 0.21973 0.73369 0.57641 0.0
C2970 C 0.23155 0.72526 0.57209 0.0
C2971 C 0.24052 0.73003 0.56106 0.0
H2972 H 0.8218 0.7528 0.61151 0.0
H2973 H 0.81396 0.71017 0.59252 0.0
H2974 H 0.809 0.76405 0.59087 0.0
H2975 H 0.80041 0.72144 0.57203 0.0
H2976 H 0.78963 0.7472 0.53025 0.0
H2977 H 0.80368 0.73626 0.55051 0.0
H2978 H 0.78546 0.76731 0.58022 0.0
H2979 H 0.77182 0.77844 0.56001 0.0
C2980 C 0.8173 0.74579 0.60293 0.0
C2981 C 0.81908 0.73056 0.60365 0.0
C2982 C 0.80978 0.75226 0.59112 0.0
C2983 C 0.80367 0.74371 0.57968 0.0
C2984 C 0.80517 0.72842 0.58051 0.0
C2985 C 0.81276 0.72192 0.59237 0.0
C2986 C 0.78882 0.75185 0.54107 0.0
C2987 C 0.7796 0.76376 0.54344 0.0
C2988 C 0.79675 0.74545 0.55274 0.0
C2989 C 0.79565 0.75078 0.56709 0.0
C2990 C 0.78675 0.76296 0.56934 0.0
C2991 C 0.77888 0.76937 0.5577 0.0
H2992 H 0.84272 0.2999 0.62992 0.0
H2993 H 0.83437 0.33949 0.6056 0.0
H2994 H 0.83479 0.28544 0.60862 0.0
H2995 H 0.82665 0.32511 0.5843 0.0
H2996 H 0.79861 0.29612 0.55431 0.0
H2997 H 0.80698 0.30993 0.57566 0.0
H2998 H 0.84078 0.27825 0.58433 0.0
H2999 H 0.83194 0.26401 0.56331 0.0
C3000 C 0.83936 0.30552 0.61998 0.0
C3001 C 0.83908 0.32087 0.61953 0.0
C3002 C 0.83482 0.29723 0.60774 0.0
C3003 C 0.82995 0.30407 0.59471 0.0
C3004 C 0.82999 0.31943 0.59421 0.0
C3005 C 0.83446 0.3277 0.60644 0.0
C3006 C 0.80771 0.29194 0.56081 0.0
C3007 C 0.81452 0.27884 0.55698 0.0
C3008 C 0.81267 0.30002 0.57301 0.0
C3009 C 0.82464 0.2953 0.58175 0.0
C3010 C 0.83145 0.28219 0.57797 0.0
C3011 C 0.82647 0.27408 0.56576 0.0
H3012 H 0.2334 0.359 0.60916 0.0
H3013 H 0.22722 0.31464 0.62389 0.0
H3014 H 0.24502 0.35011 0.58741 0.0
H3015 H 0.23877 0.3057 0.60191 0.0
H3016 H 0.24845 0.29606 0.55353 0.0
H3017 H 0.23566 0.30442 0.57477 0.0
H3018 H 0.2683 0.33816 0.58207 0.0
H3019 H 0.2813 0.3297 0.56097 0.0
C3020 C 0.23453 0.34733 0.60776 0.0
C3021 C 0.22956 0.33754 0.6184 0.0
C3022 C 0.24121 0.34224 0.59528 0.0
C3023 C 0.24302 0.32722 0.59302 0.0
C3024 C 0.2375 0.31736 0.60332 0.0
C3025 C 0.23085 0.32247 0.61589 0.0
C3026 C 0.25306 0.30515 0.5597 0.0
C3027 C 0.26602 0.31215 0.55544 0.0
C3028 C 0.24566 0.30996 0.5719 0.0
C3029 C 0.25093 0.32196 0.58011 0.0
C3030 C 0.26383 0.329 0.57586 0.0
C3031 C 0.27129 0.32414 0.56371 0.0
H3032 H 0.21121 0.28561 0.41175 0.0
H3033 H 0.20837 0.33015 0.42666 0.0
H3034 H 0.22457 0.27909 0.43435 0.0
H3035 H 0.22124 0.32363 0.4494 0.0
H3036 H 0.26128 0.31254 0.47726 0.0
H3037 H 0.24527 0.31794 0.45664 0.0
H3038 H 0.22444 0.27566 0.46065 0.0
H3039 H 0.24117 0.26994 0.4814 0.0
C3040 C 0.21331 0.29397 0.41995 0.0
C3041 C 0.20893 0.30844 0.41734 0.0
C3042 C 0.22087 0.29021 0.43296 0.0
C3043 C 0.22412 0.30083 0.44372 0.0
C3044 C 0.21926 0.3152 0.44125 0.0
C3045 C 0.21188 0.31898 0.4282 0.0
C3046 C 0.25326 0.30433 0.47389 0.0
C3047 C 0.25259 0.29074 0.48101 0.0
C3048 C 0.24392 0.30753 0.46206 0.0
C3049 C 0.23344 0.29731 0.45694 0.0
C3050 C 0.23247 0.28377 0.46422 0.0
C3051 C 0.24195 0.28051 0.47618 0.0
H3052 H 0.24538 0.69652 0.40443 0.0
H3053 H 0.20236 0.69913 0.42203 0.0
H3054 H 0.25603 0.70634 0.42717 0.0
H3055 H 0.213 0.70878 0.44488 0.0
H3056 H 0.2353 0.73871 0.47865 0.0
H3057 H 0.22487 0.72963 0.45566 0.0
H3058 H 0.26085 0.69985 0.45222 0.0
H3059 H 0.27171 0.70947 0.47493 0.0
C3060 C 0.2382 0.69913 0.41319 0.0
C3061 C 0.22301 0.697 0.41141 0.0
C3062 C 0.24431 0.70471 0.42627 0.0
C3063 C 0.23541 0.70829 0.43795 0.0
C3064 C 0.2202 0.70634 0.43608 0.0
C3065 C 0.21408 0.70081 0.42297 0.0
C3066 C 0.24114 0.73036 0.47297 0.0
C3067 C 0.25447 0.72493 0.47872 0.0
C3068 C 0.23501 0.72499 0.45981 0.0
C3069 C 0.24198 0.71398 0.45202 0.0
C3070 C 0.25525 0.70847 0.45779 0.0
C3071 C 0.26141 0.71387 0.47096 0.0
H3072 H 0.81587 0.68247 0.41992 0.0
H3073 H 0.81202 0.72458 0.39919 0.0
H3074 H 0.80308 0.6915 0.44095 0.0
H3075 H 0.7989 0.73369 0.42022 0.0
H3076 H 0.78317 0.74762 0.4653 0.0
H3077 H 0.79933 0.73983 0.44621 0.0
H3078 H 0.77811 0.69752 0.44524 0.0
H3079 H 0.76234 0.70512 0.46464 0.0
C3080 C 0.81244 0.69375 0.41998 0.0
C3081 C 0.81485 0.7028 0.40788 0.0
C3082 C 0.80499 0.6989 0.43198 0.0
C3083 C 0.79965 0.71324 0.43219 0.0
C3084 C 0.80286 0.72259 0.42046 0.0
C3085 C 0.81041 0.71742 0.40842 0.0
C3086 C 0.78207 0.73658 0.46119 0.0
C3087 C 0.77144 0.72698 0.46662 0.0
C3088 C 0.79126 0.73217 0.45009 0.0
C3089 C 0.79011 0.71802 0.44418 0.0
C3090 C 0.7795 0.70843 0.44966 0.0
C3091 C 0.77031 0.71284 0.4607 0.0
H3092 H 0.80488 0.34688 0.42924 0.0
H3093 H 0.81142 0.30658 0.40596 0.0
H3094 H 0.79685 0.33295 0.45044 0.0
H3095 H 0.80357 0.29279 0.42705 0.0
H3096 H 0.81152 0.27435 0.47247 0.0
H3097 H 0.8158 0.28938 0.45136 0.0
H3098 H 0.77756 0.31464 0.46012 0.0
H3099 H 0.77312 0.29933 0.48171 0.0
C3100 C 0.8044 0.33509 0.42854 0.0
C3101 C 0.80906 0.32785 0.41596 0.0
C3102 C 0.79978 0.32712 0.44069 0.0
C3103 C 0.79977 0.31177 0.44051 0.0
C3104 C 0.80373 0.30461 0.42766 0.0
C3105 C 0.8083 0.31252 0.41557 0.0
C3106 C 0.80393 0.28308 0.47002 0.0
C3107 C 0.79189 0.28554 0.47882 0.0
C3108 C 0.80637 0.29167 0.45779 0.0
C3109 C 0.79692 0.30308 0.4539 0.0
C3110 C 0.78502 0.30589 0.46283 0.0
C3111 C 0.78247 0.29712 0.47515 0.0
H3112 H 0.11975 0.70514 0.7379 0.0
H3113 H 0.10067 0.71122 0.69454 0.0
H3114 H 0.09725 0.71337 0.74848 0.0
H3115 H 0.07817 0.71974 0.70521 0.0
H3116 H 0.04659 0.74836 0.73137 0.0
H3117 H 0.06891 0.74039 0.72009 0.0
H3118 H 0.07167 0.70412 0.75015 0.0
H3119 H 0.04945 0.71227 0.76161 0.0
C3120 C 0.11073 0.70818 0.73061 0.0
C3121 C 0.11197 0.70736 0.71536 0.0
C3122 C 0.09784 0.7129 0.7367 0.0
C3123 C 0.08589 0.71704 0.72769 0.0
C3124 C 0.08723 0.71667 0.71243 0.0
C3125 C 0.10013 0.71185 0.70632 0.0
C3126 C 0.052 0.73873 0.73561 0.0
C3127 C 0.04632 0.731 0.74746 0.0
C3128 C 0.0647 0.73409 0.72905 0.0
C3129 C 0.07208 0.72167 0.73427 0.0
C3130 C 0.0663 0.71383 0.74599 0.0
C3131 C 0.05352 0.71841 0.75247 0.0
H3132 H 0.80774 0.63135 0.69422 0.0
H3133 H 0.85387 0.62206 0.69603 0.0
H3134 H 0.803 0.60908 0.70801 0.0
H3135 H 0.84916 0.5998 0.70968 0.0
H3136 H 0.83753 0.56929 0.74718 0.0
H3137 H 0.84204 0.59145 0.73321 0.0
H3138 H 0.803 0.58292 0.70669 0.0
H3139 H 0.79847 0.56088 0.72071 0.0
C3140 C 0.81686 0.62448 0.6974 0.0
C3141 C 0.8312 0.62859 0.69406 0.0
C3142 C 0.81415 0.61168 0.70533 0.0
C3143 C 0.8257 0.60261 0.71009 0.0
C3144 C 0.84 0.60662 0.70651 0.0
C3145 C 0.84271 0.61941 0.69863 0.0
C3146 C 0.82996 0.57208 0.73832 0.0
C3147 C 0.8176 0.56325 0.73517 0.0
C3148 C 0.83255 0.58481 0.73026 0.0
C3149 C 0.82289 0.58906 0.71877 0.0
C3150 C 0.81056 0.5802 0.7156 0.0
C3151 C 0.80795 0.5675 0.72367 0.0
H3152 H 0.92184 0.33622 0.74137 0.0
H3153 H 0.94408 0.32982 0.7011 0.0
H3154 H 0.94381 0.32876 0.75524 0.0
H3155 H 0.96604 0.32268 0.71483 0.0
H3156 H 0.99721 0.29479 0.74158 0.0
H3157 H 0.97532 0.303 0.72873 0.0
H3158 H 0.96847 0.33468 0.7627 0.0
H3159 H 0.9901 0.32591 0.77605 0.0
C3160 C 0.93148 0.33341 0.73548 0.0
C3161 C 0.93112 0.33347 0.7201 0.0
C3162 C 0.94411 0.32913 0.74343 0.0
C3163 C 0.95675 0.32491 0.73621 0.0
C3164 C 0.95647 0.32545 0.72083 0.0
C3165 C 0.94385 0.32961 0.71292 0.0
C3166 C 0.99104 0.30338 0.7465 0.0
C3167 C 0.99561 0.30959 0.76 0.0
C3168 C 0.97849 0.30827 0.73895 0.0
C3169 C 0.97007 0.31964 0.74454 0.0
C3170 C 0.97456 0.32584 0.75806 0.0
C3171 C 0.98712 0.32089 0.76567 0.0
H3172 H 0.24756 0.41603 0.716 0.0
H3173 H 0.20582 0.43647 0.72133 0.0
H3174 H 0.25999 0.43892 0.72264 0.0
H3175 H 0.21824 0.45926 0.72832 0.0
H3176 H 0.24348 0.50163 0.72433 0.0
H3177 H 0.23271 0.47837 0.71659 0.0
H3178 H 0.26467 0.45555 0.74348 0.0
H3179 H 0.27558 0.47888 0.75119 0.0
C3180 C 0.24103 0.4254 0.71865 0.0
C3181 C 0.22567 0.42443 0.71806 0.0
C3182 C 0.24817 0.43849 0.72256 0.0
C3183 C 0.24013 0.45098 0.72589 0.0
C3184 C 0.22477 0.44992 0.72559 0.0
C3185 C 0.21764 0.4368 0.72177 0.0
C3186 C 0.24839 0.49167 0.72844 0.0
C3187 C 0.26038 0.49218 0.73845 0.0
C3188 C 0.2421 0.47832 0.7241 0.0
C3189 C 0.24765 0.46509 0.72961 0.0
C3190 C 0.26013 0.46553 0.73901 0.0
C3191 C 0.26641 0.47892 0.7434 0.0
H3192 H 0.09609 0.32173 0.33075 0.0
H3193 H 0.12038 0.28393 0.31834 0.0
H3194 H 0.07327 0.30916 0.32405 0.0
H3195 H 0.09769 0.27152 0.31059 0.0
H3196 H 0.05415 0.24864 0.30451 0.0
H3197 H 0.07585 0.25996 0.31611 0.0
H3198 H 0.05956 0.30255 0.30379 0.0
H3199 H 0.03776 0.29136 0.29316 0.0
C3200 C 0.09648 0.31072 0.32645 0.0
C3201 C 0.1099 0.3038 0.32493 0.0
C3202 C 0.08342 0.30351 0.3225 0.0
C3203 C 0.0835 0.28931 0.31654 0.0
C3204 C 0.09705 0.28233 0.31531 0.0
C3205 C 0.1101 0.28945 0.3196 0.0
C3206 C 0.05513 0.26043 0.30457 0.0
C3207 C 0.04419 0.26906 0.29792 0.0
C3208 C 0.06766 0.26695 0.31108 0.0
C3209 C 0.06964 0.28224 0.31087 0.0
C3210 C 0.05844 0.2908 0.30452 0.0
C3211 C 0.04588 0.28433 0.29829 0.0
H3212 H 0.23149 0.6178 0.30958 0.0
H3213 H 0.19479 0.59014 0.31932 0.0
H3214 H 0.24479 0.59672 0.30108 0.0
H3215 H 0.20833 0.56875 0.3118 0.0
H3216 H 0.23044 0.53492 0.28375 0.0
H3217 H 0.217 0.55541 0.29301 0.0
H3218 H 0.25769 0.57623 0.30705 0.0
H3219 H 0.27112 0.55604 0.29679 0.0
C3220 C 0.22633 0.60712 0.30998 0.0
C3221 C 0.21208 0.6056 0.315 0.0
C3222 C 0.23402 0.59494 0.30528 0.0
C3223 C 0.22781 0.5808 0.30579 0.0
C3224 C 0.2135 0.57936 0.31091 0.0
C3225 C 0.20569 0.59163 0.3153 0.0
C3226 C 0.23653 0.54379 0.28898 0.0
C3227 C 0.25189 0.54381 0.28951 0.0
C3228 C 0.22877 0.55562 0.29438 0.0
C3229 C 0.23612 0.56774 0.30076 0.0
C3230 C 0.25153 0.5674 0.30187 0.0
C3231 C 0.25929 0.55569 0.29616 0.0
H3232 H 0.90158 0.69986 0.29074 0.0
H3233 H 0.92083 0.71143 0.33294 0.0
H3234 H 0.92438 0.70658 0.27921 0.0
H3235 H 0.94316 0.7188 0.32142 0.0
H3236 H 0.98604 0.7207 0.30157 0.0
H3237 H 0.96375 0.70938 0.31011 0.0
H3238 H 0.93969 0.72718 0.27293 0.0
H3239 H 0.96236 0.73802 0.2641 0.0
C3240 C 0.91065 0.7038 0.29759 0.0
C3241 C 0.90926 0.70508 0.31283 0.0
C3242 C 0.92371 0.7078 0.29093 0.0
C3243 C 0.93576 0.71314 0.29933 0.0
C3244 C 0.9343 0.71446 0.31455 0.0
C3245 C 0.92132 0.71045 0.32118 0.0
C3246 C 0.97607 0.72174 0.29495 0.0
C3247 C 0.97596 0.7301 0.28211 0.0
C3248 C 0.96321 0.71547 0.29997 0.0
C3249 C 0.94975 0.71767 0.29247 0.0
C3250 C 0.94981 0.7252 0.27902 0.0
C3251 C 0.96281 0.73134 0.27387 0.0
H3252 H 0.80096 0.4162 0.31878 0.0
H3253 H 0.84381 0.43603 0.32277 0.0
H3254 H 0.79229 0.43713 0.30444 0.0
H3255 H 0.83519 0.45703 0.30874 0.0
H3256 H 0.82072 0.48195 0.26764 0.0
H3257 H 0.82849 0.46199 0.28364 0.0
H3258 H 0.7869 0.4629 0.30448 0.0
H3259 H 0.77914 0.48272 0.28844 0.0
C3260 C 0.8084 0.4252 0.31689 0.0
C3261 C 0.82306 0.42446 0.32177 0.0
C3262 C 0.80348 0.43719 0.30865 0.0
C3263 C 0.81312 0.44868 0.30521 0.0
C3264 C 0.82757 0.44822 0.31083 0.0
C3265 C 0.83248 0.43625 0.31897 0.0
C3266 C 0.81328 0.47793 0.27568 0.0
C3267 C 0.79929 0.4839 0.27667 0.0
C3268 C 0.81773 0.46651 0.2849 0.0
C3269 C 0.80833 0.46084 0.29542 0.0
C3270 C 0.79434 0.46683 0.29639 0.0
C3271 C 0.78988 0.4782 0.28714 0.0
H3272 H 0.21814 0.61063 0.69159 0.0
H3273 H 0.21157 0.63434 0.73157 0.0
H3274 H 0.22729 0.58985 0.70581 0.0
H3275 H 0.2207 0.61367 0.74574 0.0
H3276 H 0.22159 0.56838 0.76662 0.0
H3277 H 0.2131 0.58909 0.75203 0.0
H3278 H 0.24742 0.58183 0.72172 0.0
H3279 H 0.25554 0.56085 0.73598 0.0
C3280 C 0.21884 0.61148 0.70339 0.0
C3281 C 0.21401 0.6241 0.71043 0.0
C3282 C 0.22405 0.59957 0.71155 0.0
C3283 C 0.22459 0.60002 0.72694 0.0
C3284 C 0.22013 0.61281 0.73393 0.0
C3285 C 0.21493 0.62468 0.7258 0.0
C3286 C 0.22725 0.57113 0.7568 0.0
C3287 C 0.2393 0.56295 0.75257 0.0
C3288 C 0.22249 0.58311 0.74849 0.0
C3289 C 0.22962 0.58719 0.73572 0.0
C3290 C 0.2416 0.57895 0.73143 0.0
C3291 C 0.24638 0.567 0.73974 0.0
H3292 H 0.18146 0.4063 0.31136 0.0
H3293 H 0.22697 0.39763 0.32142 0.0
H3294 H 0.1884 0.42697 0.29651 0.0
H3295 H 0.23388 0.41905 0.30747 0.0
H3296 H 0.24291 0.45073 0.27029 0.0
H3297 H 0.23603 0.42902 0.28405 0.0
H3298 H 0.19711 0.45084 0.29763 0.0
H3299 H 0.20379 0.47217 0.28348 0.0
C3300 C 0.19297 0.40875 0.31043 0.0
C3301 C 0.20361 0.40012 0.31764 0.0
C3302 C 0.19697 0.42085 0.30205 0.0
C3303 C 0.21174 0.42487 0.30075 0.0
C3304 C 0.2224 0.41627 0.30799 0.0
C3305 C 0.2184 0.40406 0.31624 0.0
C3306 C 0.23287 0.45082 0.2762 0.0
C3307 C 0.22385 0.46314 0.27567 0.0
C3308 C 0.22894 0.4384 0.28419 0.0
C3309 C 0.21595 0.43804 0.29203 0.0
C3310 C 0.207 0.45046 0.29151 0.0
C3311 C 0.21085 0.46277 0.28339 0.0
H3312 H 0.10569 0.68591 0.32864 0.0
H3313 H 0.1303 0.72362 0.31511 0.0
H3314 H 0.08295 0.69761 0.31994 0.0
H3315 H 0.1077 0.73514 0.30606 0.0
H3316 H 0.06416 0.74339 0.27909 0.0
H3317 H 0.08656 0.73027 0.28608 0.0
H3318 H 0.06947 0.72159 0.32857 0.0
H3319 H 0.04723 0.73496 0.32168 0.0
C3320 C 0.10623 0.69657 0.32355 0.0
C3321 C 0.11972 0.70385 0.32249 0.0
C3322 C 0.09325 0.7033 0.31868 0.0
C3323 C 0.09355 0.7173 0.31234 0.0
C3324 C 0.10712 0.72433 0.31081 0.0
C3325 C 0.12004 0.71775 0.31599 0.0
C3326 C 0.06518 0.73862 0.28989 0.0
C3327 C 0.05396 0.74025 0.29985 0.0
C3328 C 0.07801 0.73116 0.29391 0.0
C3329 C 0.07975 0.72485 0.30786 0.0
C3330 C 0.0684 0.72624 0.31772 0.0
C3331 C 0.05573 0.73399 0.31382 0.0
H3332 H 0.80861 0.60342 0.33421 0.0
H3333 H 0.8109 0.61638 0.28897 0.0
H3334 H 0.79372 0.58228 0.32701 0.0
H3335 H 0.79646 0.59488 0.2817 0.0
H3336 H 0.75994 0.56236 0.27347 0.0
H3337 H 0.77188 0.58456 0.28272 0.0
H3338 H 0.79622 0.55916 0.31476 0.0
H3339 H 0.78411 0.53702 0.30574 0.0
C3340 C 0.80592 0.60177 0.32271 0.0
C3341 C 0.81092 0.61165 0.31217 0.0
C3342 C 0.79748 0.58957 0.31858 0.0
C3343 C 0.79382 0.58689 0.30378 0.0
C3344 C 0.79887 0.59672 0.29322 0.0
C3345 C 0.80734 0.60894 0.29736 0.0
C3346 C 0.76759 0.56153 0.28271 0.0
C3347 C 0.77112 0.54785 0.28878 0.0
C3348 C 0.77457 0.57426 0.28789 0.0
C3349 C 0.78521 0.57363 0.29931 0.0
C3350 C 0.78806 0.56008 0.30598 0.0
C3351 C 0.78109 0.54735 0.30079 0.0
H3352 H 0.91953 0.31738 0.34462 0.0
H3353 H 0.89539 0.32649 0.30439 0.0
H3354 H 0.94046 0.30984 0.3306 0.0
H3355 H 0.91611 0.31884 0.29042 0.0
H3356 H 0.9604 0.31968 0.2699 0.0
H3357 H 0.94026 0.32726 0.28485 0.0
H3358 H 0.94884 0.2912 0.31421 0.0
H3359 H 0.96898 0.28374 0.29937 0.0
C3360 C 0.91863 0.31757 0.33279 0.0
C3361 C 0.90587 0.32264 0.32561 0.0
C3362 C 0.93062 0.31328 0.32475 0.0
C3363 C 0.93005 0.31392 0.30937 0.0
C3364 C 0.91709 0.31857 0.30224 0.0
C3365 C 0.90518 0.32288 0.31025 0.0
C3366 C 0.958 0.31341 0.27956 0.0
C3367 C 0.96634 0.30114 0.28342 0.0
C3368 C 0.94642 0.3177 0.28811 0.0
C3369 C 0.94285 0.30978 0.3007 0.0
C3370 C 0.95139 0.29767 0.30471 0.0
C3371 C 0.96298 0.29341 0.29619 0.0
H3372 H 0.83002 0.41899 0.73013 0.0
H3373 H 0.82759 0.42852 0.68392 0.0
H3374 H 0.81671 0.44132 0.73503 0.0
H3375 H 0.8139 0.45061 0.68878 0.0
H3376 H 0.78359 0.47702 0.73941 0.0
H3377 H 0.79302 0.45332 0.7322 0.0
H3378 H 0.81886 0.47442 0.69958 0.0
H3379 H 0.80932 0.49802 0.70662 0.0
C3380 C 0.82661 0.42581 0.721 0.0
C3381 C 0.82998 0.42195 0.70664 0.0
C3382 C 0.81879 0.43854 0.7238 0.0
C3383 C 0.81418 0.4478 0.7123 0.0
C3384 C 0.81736 0.44381 0.69792 0.0
C3385 C 0.82511 0.43106 0.69512 0.0
C3386 C 0.79099 0.47657 0.73044 0.0
C3387 C 0.79572 0.48948 0.72363 0.0
C3388 C 0.79654 0.46298 0.72642 0.0
C3389 C 0.80687 0.46194 0.71543 0.0
C3390 C 0.81088 0.47475 0.70803 0.0
C3391 C 0.80541 0.48832 0.7121 0.0
H3392 H 0.12407 0.34508 0.71458 0.0
H3393 H 0.13995 0.30143 0.70797 0.0
H3394 H 0.10319 0.33516 0.72714 0.0
H3395 H 0.11901 0.29146 0.72065 0.0
H3396 H 0.0726 0.27833 0.73547 0.0
H3397 H 0.09226 0.2877 0.7203 0.0
H3398 H 0.09911 0.3238 0.75019 0.0
H3399 H 0.07963 0.31475 0.76496 0.0
C3400 C 0.12317 0.33336 0.71587 0.0
C3401 C 0.13383 0.3241 0.71037 0.0
C3402 C 0.11114 0.32764 0.72307 0.0
C3403 C 0.10943 0.31248 0.72507 0.0
C3404 C 0.11987 0.30317 0.71921 0.0
C3405 C 0.13191 0.3089 0.71196 0.0
C3406 C 0.07828 0.2883 0.7387 0.0
C3407 C 0.07446 0.29577 0.75143 0.0
C3408 C 0.0896 0.29364 0.73007 0.0
C3409 C 0.09725 0.3066 0.73393 0.0
C3410 C 0.09334 0.31398 0.74665 0.0
C3411 C 0.08216 0.30867 0.75523 0.0
H3412 H 0.92646 0.73539 0.67504 0.0
H3413 H 0.91236 0.72917 0.71917 0.0
H3414 H 0.94766 0.74938 0.68436 0.0
H3415 H 0.93367 0.74277 0.72849 0.0
H3416 H 0.96727 0.77582 0.74186 0.0
H3417 H 0.94489 0.7671 0.72949 0.0
H3418 H 0.97037 0.74395 0.69829 0.0
H3419 H 0.99276 0.75283 0.7105 0.0
C3420 C 0.92782 0.73711 0.68672 0.0
C3421 C 0.91777 0.7311 0.69638 0.0
C3422 C 0.94001 0.74504 0.69206 0.0
C3423 C 0.94235 0.74722 0.70716 0.0
C3424 C 0.93211 0.74148 0.71678 0.0
C3425 C 0.91999 0.7335 0.71145 0.0
C3426 C 0.96813 0.76916 0.73216 0.0
C3427 C 0.98184 0.76487 0.7273 0.0
C3428 C 0.95528 0.76406 0.72514 0.0
C3429 C 0.95584 0.75461 0.71307 0.0
C3430 C 0.96953 0.75123 0.70754 0.0
C3431 C 0.9824 0.75631 0.71457 0.0
H3432 H 0.74012 0.22124 0.61964 0.0
H3433 H 0.69684 0.22391 0.59974 0.0
H3434 H 0.75035 0.23206 0.59788 0.0
H3435 H 0.70723 0.235 0.57781 0.0
H3436 H 0.74147 0.26506 0.54731 0.0
H3437 H 0.72715 0.25915 0.56901 0.0
H3438 H 0.74757 0.21698 0.57168 0.0
H3439 H 0.76147 0.22258 0.55035 0.0
C3440 C 0.73275 0.22438 0.6107 0.0
C3441 C 0.7177 0.22145 0.61129 0.0
C3442 C 0.73861 0.23066 0.59829 0.0
C3443 C 0.72958 0.23425 0.58615 0.0
C3444 C 0.71439 0.2324 0.58708 0.0
C3445 C 0.70848 0.22604 0.59959 0.0
C3446 C 0.74266 0.25446 0.55242 0.0
C3447 C 0.75278 0.24439 0.54721 0.0
C3448 C 0.7345 0.2511 0.5648 0.0
C3449 C 0.73647 0.23769 0.5721 0.0
C3450 C 0.74601 0.22747 0.5664 0.0
C3451 C 0.75399 0.23073 0.55414 0.0
H3452 H 0.35136 0.21769 0.59972 0.0
H3453 H 0.3106 0.22424 0.62088 0.0
H3454 H 0.34021 0.22549 0.57655 0.0
H3455 H 0.29946 0.23277 0.59775 0.0
H3456 H 0.28132 0.24148 0.5511 0.0
H3457 H 0.29091 0.22822 0.57271 0.0
H3458 H 0.33333 0.24802 0.56686 0.0
H3459 H 0.32408 0.26053 0.54546 0.0
C3460 C 0.34001 0.2209 0.5994 0.0
C3461 C 0.33192 0.2206 0.61213 0.0
C3462 C 0.33358 0.22541 0.58612 0.0
C3463 C 0.31896 0.23005 0.58526 0.0
C3464 C 0.31069 0.22919 0.59793 0.0
C3465 C 0.31709 0.22442 0.61121 0.0
C3466 C 0.29274 0.24271 0.55435 0.0
C3467 C 0.3019 0.2521 0.54657 0.0
C3468 C 0.29822 0.23524 0.56679 0.0
C3469 C 0.31295 0.23698 0.57157 0.0
C3470 C 0.32205 0.24609 0.56346 0.0
C3471 C 0.31664 0.25344 0.55117 0.0
H3472 H 0.29437 0.83443 0.63114 0.0
H3473 H 0.33477 0.84351 0.60995 0.0
H3474 H 0.28651 0.81861 0.61074 0.0
H3475 H 0.32684 0.82822 0.58933 0.0
H3476 H 0.31817 0.78533 0.56576 0.0
H3477 H 0.32428 0.80297 0.58477 0.0
H3478 H 0.27909 0.81584 0.58565 0.0
H3479 H 0.2728 0.79758 0.56717 0.0
C3480 C 0.30135 0.83337 0.6219 0.0
C3481 C 0.31518 0.84013 0.62212 0.0
C3482 C 0.29689 0.82428 0.6102 0.0
C3483 C 0.30614 0.82188 0.59844 0.0
C3484 C 0.31958 0.82944 0.59834 0.0
C3485 C 0.32408 0.83835 0.61007 0.0
C3486 C 0.30946 0.79177 0.57004 0.0
C3487 C 0.29495 0.78989 0.5648 0.0
C3488 C 0.31302 0.80211 0.58086 0.0
C3489 C 0.30222 0.811 0.58673 0.0
C3490 C 0.28771 0.80916 0.5815 0.0
C3491 C 0.28412 0.79874 0.57072 0.0
H3492 H 0.7209 0.81921 0.61776 0.0
H3493 H 0.67533 0.8087 0.60914 0.0
H3494 H 0.72735 0.80499 0.59647 0.0
H3495 H 0.68187 0.79427 0.58798 0.0
H3496 H 0.70194 0.75706 0.56068 0.0
H3497 H 0.69467 0.77152 0.58169 0.0
H3498 H 0.72478 0.80569 0.56976 0.0
H3499 H 0.73224 0.7912 0.54911 0.0
C3500 C 0.71222 0.81401 0.61127 0.0
C3501 C 0.69757 0.81518 0.61524 0.0
C3502 C 0.71594 0.8058 0.59906 0.0
C3503 C 0.70514 0.79848 0.59048 0.0
C3504 C 0.69049 0.79961 0.59444 0.0
C3505 C 0.68676 0.80788 0.60662 0.0
C3506 C 0.70697 0.76767 0.56256 0.0
C3507 C 0.71762 0.77295 0.55313 0.0
C3508 C 0.70274 0.776 0.57453 0.0
C3509 C 0.70917 0.78977 0.57746 0.0
C3510 C 0.71971 0.79509 0.56794 0.0
C3511 C 0.72385 0.78682 0.55594 0.0
H3512 H 0.71514 0.80343 0.39759 0.0
H3513 H 0.68001 0.816 0.42493 0.0
H3514 H 0.72945 0.7957 0.41904 0.0
H3515 H 0.69458 0.8091 0.44665 0.0
H3516 H 0.71933 0.78258 0.48183 0.0
H3517 H 0.70436 0.79072 0.46105 0.0
H3518 H 0.74336 0.80369 0.43887 0.0
H3519 H 0.7583 0.79467 0.45937 0.0
C3520 C 0.71051 0.80454 0.40827 0.0
C3521 C 0.69645 0.81023 0.40961 0.0
C3522 C 0.71879 0.8003 0.42064 0.0
C3523 C 0.71338 0.80192 0.43478 0.0
C3524 C 0.69915 0.80746 0.43604 0.0
C3525 C 0.69075 0.81145 0.42359 0.0
C3526 C 0.72471 0.78735 0.47259 0.0
C3527 C 0.74004 0.78793 0.47227 0.0
C3528 C 0.71608 0.79208 0.4606 0.0
C3529 C 0.72253 0.79775 0.44802 0.0
C3530 C 0.7379 0.79899 0.44808 0.0
C3531 C 0.74652 0.794 0.45995 0.0
H3532 H 0.73554 0.17194 0.4145 0.0
H3533 H 0.7205 0.21508 0.40269 0.0
H3534 H 0.74831 0.18195 0.43584 0.0
H3535 H 0.73206 0.22486 0.42485 0.0
H3536 H 0.76587 0.24154 0.45844 0.0
H3537 H 0.75375 0.23166 0.43642 0.0
H3538 H 0.74625 0.19092 0.45902 0.0
H3539 H 0.75913 0.20068 0.48063 0.0
C3540 C 0.73489 0.18358 0.4164 0.0
C3541 C 0.72697 0.19264 0.40663 0.0
C3542 C 0.74204 0.18932 0.42891 0.0
C3543 C 0.74129 0.20429 0.43229 0.0
C3544 C 0.73319 0.21333 0.42262 0.0
C3545 C 0.72627 0.20763 0.40995 0.0
C3546 C 0.76161 0.23048 0.45862 0.0
C3547 C 0.7635 0.22186 0.47122 0.0
C3548 C 0.75455 0.22479 0.44602 0.0
C3549 C 0.74891 0.21041 0.44576 0.0
C3550 C 0.75069 0.20189 0.45852 0.0
C3551 C 0.75802 0.2075 0.47101 0.0
H3552 H 0.3053 0.2074 0.4059 0.0
H3553 H 0.35131 0.21314 0.41657 0.0
H3554 H 0.29946 0.22276 0.42669 0.0
H3555 H 0.34544 0.22872 0.43706 0.0
H3556 H 0.32895 0.2692 0.46136 0.0
H3557 H 0.33472 0.2533 0.44105 0.0
H3558 H 0.30143 0.22274 0.45398 0.0
H3559 H 0.29583 0.23835 0.47442 0.0
C3560 C 0.31417 0.2118 0.41273 0.0
C3561 C 0.32879 0.20908 0.40944 0.0
C3562 C 0.31082 0.22065 0.42462 0.0
C3563 C 0.322 0.22707 0.43345 0.0
C3564 C 0.33658 0.22417 0.43031 0.0
C3565 C 0.33993 0.21524 0.41852 0.0
C3566 C 0.32293 0.25906 0.46002 0.0
C3567 C 0.31186 0.25521 0.46964 0.0
C3568 C 0.32623 0.24993 0.44833 0.0
C3569 C 0.3185 0.23677 0.44588 0.0
C3570 C 0.30744 0.23291 0.45544 0.0
C3571 C 0.30422 0.24194 0.46719 0.0
H3572 H 0.28662 0.84154 0.43005 0.0
H3573 H 0.29943 0.79934 0.41396 0.0
H3574 H 0.27882 0.83013 0.45268 0.0
H3575 H 0.29206 0.78815 0.43672 0.0
H3576 H 0.29957 0.7796 0.48553 0.0
H3577 H 0.30355 0.79171 0.46255 0.0
H3578 H 0.26033 0.80993 0.46307 0.0
H3579 H 0.25608 0.79744 0.48645 0.0
C3580 C 0.28759 0.82983 0.4312 0.0
C3581 C 0.29385 0.8214 0.42018 0.0
C3582 C 0.28311 0.82332 0.44419 0.0
C3583 C 0.28494 0.80829 0.44649 0.0
C3584 C 0.29069 0.7998 0.4353 0.0
C3585 C 0.29503 0.80625 0.4223 0.0
C3586 C 0.29082 0.78618 0.48089 0.0
C3587 C 0.27742 0.78744 0.48786 0.0
C3588 C 0.29313 0.79307 0.46761 0.0
C3589 C 0.28219 0.80157 0.46091 0.0
C3590 C 0.26893 0.80337 0.46802 0.0
C3591 C 0.26651 0.79625 0.48137 0.0
H3592 H 0.62056 0.18981 0.71478 0.0
H3593 H 0.62814 0.23517 0.70406 0.0
H3594 H 0.60142 0.19685 0.73081 0.0
H3595 H 0.60793 0.24206 0.71886 0.0
H3596 H 0.57988 0.25295 0.75692 0.0
H3597 H 0.60006 0.24562 0.74198 0.0
H3598 H 0.57794 0.2045 0.73278 0.0
H3599 H 0.55832 0.21166 0.74855 0.0
C3600 C 0.61819 0.20131 0.71576 0.0
C3601 C 0.62617 0.21187 0.70808 0.0
C3602 C 0.6069 0.20536 0.72482 0.0
C3603 C 0.60293 0.22009 0.72627 0.0
C3604 C 0.61072 0.23063 0.71837 0.0
C3605 C 0.62223 0.22661 0.70956 0.0
C3606 C 0.57944 0.24233 0.75172 0.0
C3607 C 0.56758 0.23286 0.75391 0.0
C3608 C 0.59096 0.23812 0.74302 0.0
C3609 C 0.59076 0.22444 0.73594 0.0
C3610 C 0.57878 0.21499 0.73819 0.0
C3611 C 0.56744 0.21909 0.74719 0.0
H3612 H 0.30307 0.13963 0.71232 0.0
H3613 H 0.34363 0.11705 0.70693 0.0
H3614 H 0.29191 0.11721 0.72143 0.0
H3615 H 0.33242 0.09449 0.71598 0.0
H3616 H 0.29983 0.05472 0.71315 0.0
H3617 H 0.31217 0.07733 0.70609 0.0
H3618 H 0.29395 0.09952 0.74276 0.0
H3619 H 0.28161 0.07689 0.74981 0.0
C3620 C 0.30963 0.12988 0.71323 0.0
C3621 C 0.32421 0.13007 0.70891 0.0
C3622 C 0.30326 0.11706 0.7185 0.0
C3623 C 0.31126 0.10405 0.71934 0.0
C3624 C 0.32595 0.10432 0.71533 0.0
C3625 C 0.33241 0.11723 0.71028 0.0
C3626 C 0.29839 0.06444 0.71964 0.0
C3627 C 0.28969 0.06403 0.732 0.0
C3628 C 0.30559 0.07735 0.7157 0.0
C3629 C 0.30408 0.0902 0.7239 0.0
C3630 C 0.2953 0.08981 0.7362 0.0
C3631 C 0.28828 0.07685 0.74027 0.0
H3632 H 0.42746 0.84094 0.71537 0.0
H3633 H 0.40486 0.80045 0.70509 0.0
H3634 H 0.44936 0.82723 0.72265 0.0
H3635 H 0.42662 0.78684 0.71223 0.0
H3636 H 0.47279 0.76908 0.70817 0.0
H3637 H 0.45098 0.78334 0.70227 0.0
H3638 H 0.45921 0.80959 0.74091 0.0
H3639 H 0.48117 0.7956 0.7466 0.0
C3640 C 0.42709 0.82913 0.71489 0.0
C3641 C 0.41449 0.8218 0.70948 0.0
C3642 C 0.43963 0.82127 0.719 0.0
C3643 C 0.4398 0.80595 0.71777 0.0
C3644 C 0.42698 0.79864 0.71296 0.0
C3645 C 0.41449 0.80645 0.70891 0.0
C3646 C 0.47 0.77795 0.71534 0.0
C3647 C 0.47867 0.78111 0.7279 0.0
C3648 C 0.45743 0.78604 0.71205 0.0
C3649 C 0.45331 0.79755 0.72119 0.0
C3650 C 0.46211 0.80085 0.73362 0.0
C3651 C 0.47461 0.7927 0.73696 0.0
H3652 H 0.68258 0.92252 0.71779 0.0
H3653 H 0.72418 0.91031 0.70088 0.0
H3654 H 0.69344 0.94438 0.72822 0.0
H3655 H 0.7349 0.93311 0.7102 0.0
H3656 H 0.75374 0.96602 0.74377 0.0
H3657 H 0.74323 0.9445 0.73153 0.0
H3658 H 0.70238 0.96733 0.72506 0.0
H3659 H 0.71278 0.98832 0.73818 0.0
C3660 C 0.69408 0.92456 0.71617 0.0
C3661 C 0.70256 0.91439 0.70877 0.0
C3662 C 0.70029 0.93735 0.72196 0.0
C3663 C 0.71515 0.94066 0.72021 0.0
C3664 C 0.7235 0.93085 0.71212 0.0
C3665 C 0.7173 0.91784 0.70653 0.0
C3666 C 0.7425 0.96631 0.73974 0.0
C3667 C 0.73399 0.97871 0.74206 0.0
C3668 C 0.73647 0.95404 0.73258 0.0
C3669 C 0.72186 0.954 0.72725 0.0
C3670 C 0.71352 0.96667 0.7293 0.0
C3671 C 0.71945 0.97877 0.73678 0.0
H3672 H 0.5902 0.84493 0.3054 0.0
H3673 H 0.60619 0.8018 0.31556 0.0
H3674 H 0.56826 0.8342 0.29374 0.0
H3675 H 0.58406 0.79112 0.30446 0.0
H3676 H 0.54982 0.77382 0.27331 0.0
H3677 H 0.57203 0.78691 0.28125 0.0
H3678 H 0.54584 0.8212 0.29898 0.0
H3679 H 0.52362 0.8081 0.29061 0.0
C3680 C 0.58907 0.83316 0.30516 0.0
C3681 C 0.60008 0.82427 0.31143 0.0
C3682 C 0.57639 0.827 0.29856 0.0
C3683 C 0.57435 0.81176 0.29799 0.0
C3684 C 0.5853 0.80289 0.3044 0.0
C3685 C 0.59795 0.80904 0.31101 0.0
C3686 C 0.54886 0.78445 0.27839 0.0
C3687 C 0.53503 0.79013 0.28103 0.0
C3688 C 0.56158 0.79183 0.28321 0.0
C3689 C 0.56082 0.80502 0.29104 0.0
C3690 C 0.54692 0.81113 0.29292 0.0
C3691 C 0.53416 0.80372 0.28802 0.0
H3692 H 0.7092 0.09595 0.32507 0.0
H3693 H 0.70373 0.11381 0.28161 0.0
H3694 H 0.71966 0.07397 0.31497 0.0
H3695 H 0.71441 0.09176 0.27145 0.0
H3696 H 0.72644 0.04427 0.25797 0.0
H3697 H 0.71227 0.06485 0.2672 0.0
H3698 H 0.74251 0.06873 0.30424 0.0
H3699 H 0.75623 0.04845 0.29537 0.0
C3700 C 0.71028 0.09521 0.31335 0.0
C3701 C 0.70582 0.10676 0.3042 0.0
C3702 C 0.71626 0.08258 0.30753 0.0
C3703 C 0.71807 0.08113 0.29238 0.0
C3704 C 0.71309 0.09244 0.28314 0.0
C3705 C 0.70702 0.1051 0.28898 0.0
C3706 C 0.72993 0.04949 0.26813 0.0
C3707 C 0.74248 0.04465 0.2759 0.0
C3708 C 0.72188 0.06132 0.27338 0.0
C3709 C 0.72616 0.0684 0.28656 0.0
C3710 C 0.73866 0.06343 0.29425 0.0
C3711 C 0.74664 0.05178 0.28903 0.0
H3712 H 0.43274 0.20645 0.33305 0.0
H3713 H 0.40784 0.20118 0.29248 0.0
H3714 H 0.45436 0.21278 0.31947 0.0
H3715 H 0.42933 0.20781 0.27886 0.0
H3716 H 0.47394 0.20634 0.25854 0.0
H3717 H 0.45285 0.19904 0.2724 0.0
H3718 H 0.46406 0.23185 0.30491 0.0
H3719 H 0.48549 0.23855 0.29158 0.0
C3720 C 0.43187 0.20682 0.32123 0.0
C3721 C 0.41862 0.20334 0.31382 0.0
C3722 C 0.44424 0.21045 0.31343 0.0
C3723 C 0.4436 0.2108 0.29805 0.0
C3724 C 0.4303 0.20739 0.29067 0.0
C3725 C 0.41796 0.20366 0.29847 0.0
C3726 C 0.47202 0.21188 0.26873 0.0
C3727 C 0.48145 0.2231 0.27386 0.0
C3728 C 0.45981 0.20781 0.2766 0.0
C3729 C 0.45671 0.21489 0.28976 0.0
C3730 C 0.46618 0.22603 0.29492 0.0
C3731 C 0.4784 0.23004 0.28711 0.0
H3732 H 0.28193 0.89961 0.31515 0.0
H3733 H 0.31653 0.92852 0.33044 0.0
H3734 H 0.26821 0.92035 0.30556 0.0
H3735 H 0.30248 0.94953 0.32186 0.0
H3736 H 0.28111 0.98267 0.29093 0.0
H3737 H 0.29466 0.9628 0.30211 0.0
H3738 H 0.25409 0.94013 0.31027 0.0
H3739 H 0.24061 0.95972 0.29807 0.0
C3740 C 0.28651 0.9105 0.31653 0.0
C3741 C 0.30031 0.91251 0.32338 0.0
C3742 C 0.27857 0.92246 0.31121 0.0
C3743 C 0.28407 0.93682 0.31295 0.0
C3744 C 0.2979 0.93874 0.31999 0.0
C3745 C 0.30598 0.92671 0.32499 0.0
C3746 C 0.27505 0.97355 0.29532 0.0
C3747 C 0.25975 0.97278 0.29357 0.0
C3748 C 0.28286 0.96208 0.30181 0.0
C3749 C 0.2756 0.94961 0.30705 0.0
C3750 C 0.2602 0.94927 0.30602 0.0
C3751 C 0.2524 0.96062 0.2992 0.0
H3752 H 0.74035 0.12625 0.69612 0.0
H3753 H 0.69843 0.10433 0.69537 0.0
H3754 H 0.752 0.10388 0.70528 0.0
H3755 H 0.71 0.08201 0.70412 0.0
H3756 H 0.73025 0.0564 0.74214 0.0
H3757 H 0.72007 0.07628 0.72799 0.0
H3758 H 0.75837 0.07745 0.70174 0.0
H3759 H 0.76886 0.05726 0.71635 0.0
C3760 C 0.73369 0.11656 0.69761 0.0
C3761 C 0.71845 0.1171 0.69532 0.0
C3762 C 0.74037 0.10373 0.70279 0.0
C3763 C 0.73191 0.09121 0.70568 0.0
C3764 C 0.7168 0.09155 0.70236 0.0
C3765 C 0.71016 0.10433 0.69735 0.0
C3766 C 0.73655 0.06075 0.73329 0.0
C3767 C 0.75042 0.05524 0.73042 0.0
C3768 C 0.7306 0.07213 0.72506 0.0
C3769 C 0.73832 0.07845 0.71363 0.0
C3770 C 0.75216 0.07284 0.71051 0.0
C3771 C 0.75812 0.06124 0.71878 0.0
H3772 H 0.69975 0.90427 0.29845 0.0
H3773 H 0.71863 0.91304 0.34149 0.0
H3774 H 0.71219 0.92578 0.28911 0.0
H3775 H 0.73204 0.93353 0.33197 0.0
H3776 H 0.74633 0.97707 0.31467 0.0
H3777 H 0.73144 0.95709 0.32377 0.0
H3778 H 0.73477 0.93474 0.28238 0.0
H3779 H 0.74893 0.95525 0.27317 0.0
C3780 C 0.70653 0.91075 0.30594 0.0
C3781 C 0.70827 0.90671 0.32071 0.0
C3782 C 0.7139 0.923 0.30052 0.0
C3783 C 0.72333 0.93146 0.30969 0.0
C3784 C 0.7248 0.92753 0.32452 0.0
C3785 C 0.71726 0.9155 0.32996 0.0
C3786 C 0.74389 0.96783 0.30759 0.0
C3787 C 0.74882 0.96766 0.29326 0.0
C3788 C 0.73538 0.9563 0.31279 0.0
C3789 C 0.73186 0.94411 0.30389 0.0
C3790 C 0.73692 0.94398 0.28952 0.0
C3791 C 0.74517 0.95567 0.28424 0.0
H3792 H 0.63259 0.20945 0.29594 0.0
H3793 H 0.61332 0.21639 0.33776 0.0
H3794 H 0.61126 0.22007 0.2837 0.0
H3795 H 0.59185 0.22716 0.32539 0.0
H3796 H 0.56058 0.25615 0.29492 0.0
H3797 H 0.58252 0.24827 0.30901 0.0
H3798 H 0.58596 0.21099 0.28052 0.0
H3799 H 0.56454 0.21868 0.26665 0.0
C3800 C 0.62379 0.21321 0.30254 0.0
C3801 C 0.62459 0.21181 0.31783 0.0
C3802 C 0.61156 0.21936 0.29552 0.0
C3803 C 0.59976 0.22429 0.30356 0.0
C3804 C 0.60079 0.22353 0.3189 0.0
C3805 C 0.61308 0.21733 0.32597 0.0
C3806 C 0.56604 0.24626 0.29175 0.0
C3807 C 0.56084 0.23815 0.27956 0.0
C3808 C 0.57856 0.24174 0.29982 0.0
C3809 C 0.58612 0.22912 0.29573 0.0
C3810 C 0.58064 0.22093 0.28378 0.0
C3811 C 0.56824 0.22535 0.27585 0.0
H3812 H 0.34377 0.09738 0.31587 0.0
H3813 H 0.30226 0.11924 0.31404 0.0
H3814 H 0.33272 0.07618 0.30369 0.0
H3815 H 0.29111 0.09802 0.30152 0.0
H3816 H 0.27446 0.05143 0.28974 0.0
H3817 H 0.28417 0.07236 0.30344 0.0
H3818 H 0.32381 0.07052 0.27929 0.0
H3819 H 0.31411 0.04953 0.26564 0.0
C3820 C 0.33222 0.09757 0.31294 0.0
C3821 C 0.32389 0.10998 0.31579 0.0
C3822 C 0.32591 0.08548 0.30584 0.0
C3823 C 0.31109 0.08549 0.30133 0.0
C3824 C 0.30255 0.09763 0.30486 0.0
C3825 C 0.3089 0.10976 0.31206 0.0
C3826 C 0.28516 0.05559 0.28718 0.0
C3827 C 0.29352 0.04874 0.27656 0.0
C3828 C 0.29074 0.0676 0.29509 0.0
C3829 C 0.30483 0.07305 0.2926 0.0
C3830 C 0.31304 0.06641 0.28175 0.0
C3831 C 0.30748 0.0544 0.27387 0.0
H3832 H 0.40679 0.8347 0.33671 0.0
H3833 H 0.38328 0.79423 0.32911 0.0
H3834 H 0.42895 0.82364 0.32733 0.0
H3835 H 0.40527 0.78329 0.31948 0.0
H3836 H 0.4443 0.77532 0.28909 0.0
H3837 H 0.42226 0.78733 0.29737 0.0
H3838 H 0.44587 0.80197 0.33632 0.0
H3839 H 0.46785 0.78976 0.32813 0.0
C3840 C 0.40633 0.82351 0.33286 0.0
C3841 C 0.39333 0.81531 0.33364 0.0
C3842 C 0.41901 0.81716 0.32759 0.0
C3843 C 0.41884 0.80259 0.3227 0.0
C3844 C 0.40572 0.79455 0.3231 0.0
C3845 C 0.39316 0.80079 0.32865 0.0
C3846 C 0.44478 0.78115 0.29939 0.0
C3847 C 0.45779 0.78156 0.30798 0.0
C3848 C 0.43216 0.78796 0.30415 0.0
C3849 C 0.43235 0.79563 0.31747 0.0
C3850 C 0.44542 0.79624 0.32596 0.0
C3851 C 0.45796 0.78915 0.32134 0.0
H3852 H 0.33402 0.91867 0.74911 0.0
H3853 H 0.3284 0.93767 0.70616 0.0
H3854 H 0.32623 0.94151 0.76012 0.0
H3855 H 0.32034 0.96037 0.71714 0.0
H3856 H 0.32159 1.00362 0.74099 0.0
H3857 H 0.33071 0.98061 0.73184 0.0
H3858 H 0.30444 0.95704 0.7624 0.0
H3859 H 0.2953 0.98015 0.77166 0.0
C3860 C 0.33112 0.92771 0.74201 0.0
C3861 C 0.33189 0.92631 0.72673 0.0
C3862 C 0.32654 0.94078 0.74833 0.0
C3863 C 0.32275 0.95285 0.73955 0.0
C3864 C 0.32338 0.95139 0.72426 0.0
C3865 C 0.32783 0.9383 0.71795 0.0
C3866 C 0.31789 0.99357 0.74595 0.0
C3867 C 0.30764 0.9938 0.75705 0.0
C3868 C 0.32304 0.98033 0.74058 0.0
C3869 C 0.31815 0.96693 0.74619 0.0
C3870 C 0.30847 0.96715 0.75782 0.0
C3871 C 0.30325 0.98042 0.76316 0.0
H3872 H 0.60461 0.84014 0.71865 0.0
H3873 H 0.61613 0.79463 0.71596 0.0
H3874 H 0.58358 0.83366 0.73302 0.0
H3875 H 0.59482 0.7881 0.72999 0.0
H3876 H 0.56263 0.78117 0.76521 0.0
H3877 H 0.58502 0.79027 0.75464 0.0
H3878 H 0.56001 0.82129 0.72889 0.0
H3879 H 0.53764 0.81236 0.73956 0.0
C3880 C 0.60269 0.82875 0.7212 0.0
C3881 C 0.61206 0.81789 0.71618 0.0
C3882 C 0.59057 0.82504 0.72934 0.0
C3883 C 0.58755 0.81038 0.73271 0.0
C3884 C 0.59696 0.79952 0.72777 0.0
C3885 C 0.60906 0.80323 0.71956 0.0
C3886 C 0.56192 0.79017 0.75757 0.0
C3887 C 0.54829 0.79593 0.75313 0.0
C3888 C 0.57475 0.79528 0.75139 0.0
C3889 C 0.57426 0.80631 0.74072 0.0
C3890 C 0.56077 0.81279 0.73708 0.0
C3891 C 0.54793 0.80765 0.74321 0.0
H3892 H 0.4199 0.24107 0.70839 0.0
H3893 H 0.43846 0.19831 0.71463 0.0
H3894 H 0.44196 0.25217 0.71983 0.0
H3895 H 0.46038 0.2093 0.7258 0.0
H3896 H 0.48509 0.23 0.76392 0.0
H3897 H 0.46469 0.2209 0.74925 0.0
H3898 H 0.46941 0.25677 0.71915 0.0
H3899 H 0.49024 0.26624 0.73426 0.0
C3900 C 0.42877 0.23406 0.71197 0.0
C3901 C 0.42728 0.21876 0.71085 0.0
C3902 C 0.44143 0.24043 0.71849 0.0
C3903 C 0.45288 0.23164 0.72398 0.0
C3904 C 0.45166 0.21642 0.72205 0.0
C3905 C 0.43906 0.21009 0.71564 0.0
C3906 C 0.48194 0.23606 0.75418 0.0
C3907 C 0.48947 0.24889 0.7503 0.0
C3908 C 0.4702 0.23071 0.74565 0.0
C3909 C 0.46547 0.23792 0.73285 0.0
C3910 C 0.47278 0.25092 0.72895 0.0
C3911 C 0.48474 0.25632 0.73756 0.0
H3912 H 0.69492 0.71202 0.10319 0.0
H3913 H 0.66995 0.7506 0.11233 0.0
H3914 H 0.70477 0.72388 0.0822 0.0
H3915 H 0.67834 0.76176 0.09017 0.0
H3916 H 0.70611 0.785 0.05724 0.0
H3917 H 0.69667 0.7734 0.07898 0.0
H3918 H 0.70194 0.73105 0.05884 0.0
H3919 H 0.71255 0.7429 0.0378 0.0
C3920 C 0.69144 0.72304 0.10079 0.0
C3921 C 0.6817 0.73032 0.10983 0.0
C3922 C 0.69689 0.72979 0.08837 0.0
C3923 C 0.69245 0.7439 0.08421 0.0
C3924 C 0.68238 0.75104 0.09302 0.0
C3925 C 0.67726 0.74445 0.1057 0.0
C3926 C 0.70524 0.77321 0.05761 0.0
C3927 C 0.71007 0.7648 0.04596 0.0
C3928 C 0.69969 0.76649 0.07001 0.0
C3929 C 0.6984 0.75115 0.07089 0.0
C3930 C 0.70304 0.74281 0.05895 0.0
C3931 C 0.70902 0.74956 0.04677 0.0
H3932 H 0.33502 0.70604 0.08903 0.0
H3933 H 0.2936 0.71068 0.10944 0.0
H3934 H 0.32414 0.71428 0.06588 0.0
H3935 H 0.28274 0.71977 0.08642 0.0
H3936 H 0.26502 0.73114 0.04055 0.0
H3937 H 0.27458 0.71663 0.06135 0.0
H3938 H 0.3171 0.73661 0.0565 0.0
H3939 H 0.30785 0.75027 0.03584 0.0
C3940 C 0.32357 0.70891 0.08854 0.0
C3941 C 0.31522 0.70794 0.10106 0.0
C3942 C 0.3173 0.71369 0.07528 0.0
C3943 C 0.30256 0.718 0.07424 0.0
C3944 C 0.29406 0.71646 0.08669 0.0
C3945 C 0.3003 0.71138 0.09993 0.0
C3946 C 0.27647 0.73208 0.04379 0.0
C3947 C 0.28564 0.74191 0.03658 0.0
C3948 C 0.28194 0.72391 0.05579 0.0
C3949 C 0.29667 0.72539 0.06071 0.0
C3950 C 0.30581 0.73484 0.05302 0.0
C3951 C 0.30042 0.74287 0.04116 0.0
H3952 H 0.32866 0.3423 0.1192 0.0
H3953 H 0.33398 0.30026 0.13982 0.0
H3954 H 0.31914 0.33048 0.09702 0.0
H3955 H 0.324 0.2883 0.11761 0.0
H3956 H 0.31186 0.27142 0.07049 0.0
H3957 H 0.32603 0.28232 0.0912 0.0
H3958 H 0.29652 0.3188 0.091 0.0
H3959 H 0.2829 0.30836 0.07059 0.0
C3960 C 0.32776 0.3305 0.11899 0.0
C3961 C 0.33183 0.32225 0.13137 0.0
C3962 C 0.32229 0.32369 0.10626 0.0
C3963 C 0.32051 0.3084 0.10556 0.0
C3964 C 0.32525 0.30006 0.11771 0.0
C3965 C 0.33091 0.30692 0.13046 0.0
C3966 C 0.30857 0.28183 0.07482 0.0
C3967 C 0.29623 0.28897 0.06881 0.0
C3968 C 0.31661 0.28804 0.08673 0.0
C3969 C 0.31253 0.30155 0.09273 0.0
C3970 C 0.30026 0.3086 0.08656 0.0
C3971 C 0.29231 0.30246 0.07484 0.0
H3972 H 0.72431 0.30626 0.12115 0.0
H3973 H 0.72747 0.34641 0.09673 0.0
H3974 H 0.73288 0.29267 0.10031 0.0
H3975 H 0.73591 0.33276 0.07568 0.0
H3976 H 0.76238 0.30413 0.04503 0.0
H3977 H 0.75563 0.31832 0.06624 0.0
H3978 H 0.72343 0.28548 0.07655 0.0
H3979 H 0.73059 0.27103 0.05578 0.0
C3980 C 0.72685 0.31218 0.11129 0.0
C3981 C 0.72509 0.32739 0.11053 0.0
C3982 C 0.7317 0.30438 0.09932 0.0
C3983 C 0.73488 0.31157 0.08622 0.0
C3984 C 0.73364 0.32688 0.08562 0.0
C3985 C 0.72882 0.33471 0.09767 0.0
C3986 C 0.75396 0.29985 0.05188 0.0
C3987 C 0.7471 0.28635 0.04867 0.0
C3988 C 0.74997 0.30809 0.06398 0.0
C3989 C 0.73904 0.30302 0.07318 0.0
C3990 C 0.73206 0.28962 0.06985 0.0
C3991 C 0.73605 0.28139 0.05779 0.0
H3992 H 0.74492 0.31846 0.89863 0.0
H3993 H 0.70455 0.30952 0.92014 0.0
H3994 H 0.75869 0.30946 0.91989 0.0
H3995 H 0.71843 0.30031 0.94145 0.0
H3996 H 0.74896 0.27217 0.97121 0.0
H3997 H 0.73465 0.2804 0.94982 0.0
H3998 H 0.76426 0.31692 0.94512 0.0
H3999 H 0.77865 0.30865 0.96638 0.0
C4000 C 0.73895 0.31464 0.90792 0.0
C4001 C 0.72358 0.3149 0.90768 0.0
C4002 C 0.74688 0.30947 0.92014 0.0
C4003 C 0.7397 0.30429 0.93248 0.0
C4004 C 0.72432 0.30413 0.9321 0.0
C4005 C 0.71636 0.30938 0.91986 0.0
C4006 C 0.75243 0.28196 0.96561 0.0
C4007 C 0.76501 0.28972 0.97052 0.0
C4008 C 0.74416 0.28672 0.95339 0.0
C4009 C 0.7483 0.2993 0.94569 0.0
C4010 C 0.76085 0.30708 0.95064 0.0
C4011 C 0.76907 0.30237 0.96291 0.0
H4012 H 0.72292 0.72631 0.89758 0.0
H4013 H 0.73324 0.68747 0.92241 0.0
H4014 H 0.72838 0.74125 0.91906 0.0
H4015 H 0.73887 0.70261 0.94408 0.0
H4016 H 0.75792 0.7398 0.97641 0.0
H4017 H 0.75564 0.72329 0.95515 0.0
H4018 H 0.71507 0.74379 0.94207 0.0
H4019 H 0.71725 0.76 0.96288 0.0
C4020 C 0.72637 0.72093 0.90763 0.0
C4021 C 0.72733 0.70563 0.9083 0.0
C4022 C 0.72955 0.72952 0.91996 0.0
C4023 C 0.73384 0.72312 0.93337 0.0
C4024 C 0.73562 0.70788 0.93391 0.0
C4025 C 0.73238 0.69922 0.9215 0.0
C4026 C 0.74851 0.74069 0.96901 0.0
C4027 C 0.73784 0.75133 0.97135 0.0
C4028 C 0.74719 0.73123 0.95686 0.0
C4029 C 0.73528 0.73238 0.94679 0.0
C4030 C 0.72453 0.74279 0.9494 0.0
C4031 C 0.72578 0.75207 0.96146 0.0
H4032 H 0.3244 0.69313 0.91619 0.0
H4033 H 0.32455 0.73303 0.89114 0.0
H4034 H 0.31643 0.70664 0.93748 0.0
H4035 H 0.31634 0.7465 0.91222 0.0
H4036 H 0.31691 0.76918 0.95627 0.0
H4037 H 0.3251 0.75506 0.93559 0.0
H4038 H 0.29651 0.71949 0.94738 0.0
H4039 H 0.28894 0.73324 0.96841 0.0
C4040 C 0.3225 0.70474 0.91518 0.0
C4041 C 0.32518 0.71203 0.90202 0.0
C4042 C 0.31795 0.71251 0.92738 0.0
C4043 C 0.31588 0.72773 0.92665 0.0
C4044 C 0.31816 0.73488 0.91333 0.0
C4045 C 0.32278 0.72715 0.9012 0.0
C4046 C 0.31251 0.75829 0.95458 0.0
C4047 C 0.30215 0.75247 0.96402 0.0
C4048 C 0.31706 0.75023 0.94259 0.0
C4049 C 0.31137 0.73614 0.93969 0.0
C4050 C 0.30122 0.73024 0.94928 0.0
C4051 C 0.29671 0.73826 0.96128 0.0
H4052 H 0.34008 0.32117 0.9357 0.0
H4053 H 0.2976 0.32212 0.9139 0.0
H4054 H 0.32885 0.31309 0.95818 0.0
H4055 H 0.28637 0.31379 0.93619 0.0
H4056 H 0.26924 0.31578 0.98218 0.0
H4057 H 0.28099 0.323 0.95983 0.0
H4058 H 0.31641 0.29349 0.96992 0.0
H4059 H 0.30508 0.28685 0.99259 0.0
C4060 C 0.32837 0.31937 0.93565 0.0
C4061 C 0.31971 0.32237 0.92308 0.0
C4062 C 0.32191 0.31476 0.94853 0.0
C4063 C 0.30665 0.31295 0.94909 0.0
C4064 C 0.29809 0.31542 0.9363 0.0
C4065 C 0.30454 0.32011 0.92349 0.0
C4066 C 0.2796 0.31094 0.97975 0.0
C4067 C 0.28612 0.30066 0.98926 0.0
C4068 C 0.28627 0.31494 0.96679 0.0
C4069 C 0.29962 0.30876 0.96297 0.0
C4070 C 0.3062 0.29858 0.97253 0.0
C4071 C 0.29956 0.29462 0.9855 0.0
H4072 H 0.59797 0.6843 0.22436 0.0
H4073 H 0.60371 0.72819 0.20805 0.0
H4074 H 0.57736 0.69216 0.23806 0.0
H4075 H 0.58216 0.73576 0.22067 0.0
H4076 H 0.55224 0.74943 0.25666 0.0
H4077 H 0.57322 0.74156 0.24314 0.0
H4078 H 0.55329 0.6988 0.23762 0.0
H4079 H 0.53277 0.70662 0.25188 0.0
C4080 C 0.59486 0.69565 0.22362 0.0
C4081 C 0.60279 0.7056 0.21515 0.0
C4082 C 0.58275 0.70013 0.23133 0.0
C4083 C 0.57793 0.71467 0.23061 0.0
C4084 C 0.58561 0.72454 0.22181 0.0
C4085 C 0.5979 0.72011 0.2143 0.0
C4086 C 0.55241 0.73835 0.25255 0.0
C4087 C 0.54089 0.72862 0.25536 0.0
C4088 C 0.5644 0.73382 0.24467 0.0
C4089 C 0.56509 0.7195 0.23911 0.0
C4090 C 0.55344 0.70981 0.2419 0.0
C4091 C 0.54159 0.71428 0.25005 0.0
H4092 H 0.28328 0.62328 0.19245 0.0
H4093 H 0.32616 0.60858 0.20649 0.0
H4094 H 0.27247 0.60116 0.20223 0.0
H4095 H 0.31517 0.58644 0.21663 0.0
H4096 H 0.28579 0.55564 0.24483 0.0
H4097 H 0.29796 0.57758 0.23606 0.0
H4098 H 0.27267 0.57477 0.19554 0.0
H4099 H 0.26073 0.55273 0.20403 0.0
C4100 C 0.29044 0.61531 0.19759 0.0
C4101 C 0.30566 0.61766 0.19842 0.0
C4102 C 0.28421 0.60261 0.20322 0.0
C4103 C 0.29296 0.59191 0.21001 0.0
C4104 C 0.30812 0.59448 0.21147 0.0
C4105 C 0.31441 0.6072 0.2057 0.0
C4106 C 0.28291 0.5595 0.23397 0.0
C4107 C 0.27209 0.5523 0.22524 0.0
C4108 C 0.28992 0.57216 0.22896 0.0
C4109 C 0.28619 0.57803 0.21517 0.0
C4110 C 0.27561 0.57071 0.20634 0.0
C4111 C 0.26872 0.55801 0.21126 0.0
H4112 H 0.42039 0.31613 0.24503 0.0
H4113 H 0.44186 0.33581 0.20869 0.0
H4114 H 0.44366 0.30563 0.2537 0.0
H4115 H 0.46518 0.32596 0.21754 0.0
H4116 H 0.49397 0.28548 0.22153 0.0
H4117 H 0.47367 0.30159 0.21678 0.0
H4118 H 0.4692 0.30785 0.2632 0.0
H4119 H 0.48978 0.29118 0.26799 0.0
C4120 C 0.43021 0.31856 0.23919 0.0
C4121 C 0.42941 0.32665 0.22617 0.0
C4122 C 0.44355 0.31262 0.24416 0.0
C4123 C 0.4563 0.31475 0.23621 0.0
C4124 C 0.45555 0.3238 0.22377 0.0
C4125 C 0.44224 0.32954 0.21873 0.0
C4126 C 0.48885 0.29044 0.23078 0.0
C4127 C 0.49345 0.28701 0.24514 0.0
C4128 C 0.47722 0.29983 0.22804 0.0
C4129 C 0.46975 0.30612 0.23959 0.0
C4130 C 0.47467 0.30313 0.25405 0.0
C4131 C 0.48652 0.29372 0.25681 0.0
H4132 H 0.73086 0.4137 0.20411 0.0
H4133 H 0.68788 0.43134 0.20992 0.0
H4134 H 0.74181 0.43618 0.21372 0.0
H4135 H 0.69894 0.45386 0.21977 0.0
H4136 H 0.72737 0.4868 0.24899 0.0
H4137 H 0.71476 0.46422 0.24091 0.0
H4138 H 0.74319 0.46142 0.20438 0.0
H4139 H 0.75567 0.48358 0.21232 0.0
C4140 C 0.72373 0.42239 0.20736 0.0
C4141 C 0.70847 0.42075 0.20603 0.0
C4142 C 0.73002 0.43527 0.21294 0.0
C4143 C 0.72124 0.44686 0.21738 0.0
C4144 C 0.70599 0.44509 0.21653 0.0
C4145 C 0.69966 0.43218 0.21088 0.0
C4146 C 0.73082 0.48138 0.23919 0.0
C4147 C 0.74261 0.48695 0.23139 0.0
C4148 C 0.7236 0.46849 0.23456 0.0
C4149 C 0.72814 0.46093 0.22213 0.0
C4150 C 0.73964 0.46678 0.21418 0.0
C4151 C 0.74674 0.47958 0.21872 0.0
H4152 H 0.63442 0.30737 0.81298 0.0
H4153 H 0.61686 0.35025 0.80461 0.0
H4154 H 0.61229 0.29634 0.80233 0.0
H4155 H 0.59487 0.33917 0.79336 0.0
H4156 H 0.55092 0.31181 0.79152 0.0
H4157 H 0.57308 0.32542 0.79914 0.0
H4158 H 0.5994 0.29223 0.77965 0.0
H4159 H 0.57727 0.27861 0.7725 0.0
C4160 C 0.62585 0.31448 0.80888 0.0
C4161 C 0.62753 0.32974 0.80973 0.0
C4162 C 0.61318 0.30813 0.80254 0.0
C4163 C 0.60174 0.31682 0.79679 0.0
C4164 C 0.60337 0.33209 0.79769 0.0
C4165 C 0.61608 0.33846 0.80403 0.0
C4166 C 0.56145 0.30778 0.78839 0.0
C4167 C 0.5624 0.29433 0.78116 0.0
C4168 C 0.57418 0.3155 0.79286 0.0
C4169 C 0.58813 0.30984 0.79026 0.0
C4170 C 0.58893 0.29681 0.78216 0.0
C4171 C 0.57624 0.28911 0.7778 0.0
H4172 H 0.73151 0.59994 0.83122 0.0
H4173 H 0.72562 0.618 0.78788 0.0
H4174 H 0.74341 0.57872 0.82095 0.0
H4175 H 0.7376 0.59689 0.77763 0.0
H4176 H 0.74936 0.55098 0.76226 0.0
H4177 H 0.73524 0.5708 0.7728 0.0
H4178 H 0.76573 0.57272 0.8098 0.0
H4179 H 0.77942 0.55298 0.79961 0.0
C4180 C 0.73289 0.59946 0.81952 0.0
C4181 C 0.72761 0.61068 0.8104 0.0
C4182 C 0.73967 0.58726 0.81361 0.0
C4183 C 0.74143 0.58602 0.79842 0.0
C4184 C 0.73619 0.5973 0.78932 0.0
C4185 C 0.72938 0.60945 0.79522 0.0
C4186 C 0.7529 0.55556 0.77271 0.0
C4187 C 0.76555 0.55039 0.78003 0.0
C4188 C 0.7449 0.56698 0.77871 0.0
C4189 C 0.74934 0.5734 0.79219 0.0
C4190 C 0.76181 0.56796 0.79956 0.0
C4191 C 0.76976 0.55666 0.79359 0.0
H4192 H 0.41558 0.74438 0.81491 0.0
H4193 H 0.43786 0.70367 0.82238 0.0
H4194 H 0.43806 0.75542 0.8064 0.0
H4195 H 0.4606 0.7148 0.81461 0.0
H4196 H 0.49383 0.73378 0.78387 0.0
H4197 H 0.47231 0.72288 0.79405 0.0
H4198 H 0.46138 0.76442 0.81307 0.0
H4199 H 0.48271 0.77558 0.8021 0.0
C4200 C 0.42537 0.73785 0.81482 0.0
C4201 C 0.425 0.72316 0.81918 0.0
C4202 C 0.43831 0.7442 0.81009 0.0
C4203 C 0.45126 0.73607 0.80984 0.0
C4204 C 0.45084 0.72137 0.81437 0.0
C4205 C 0.43783 0.71496 0.81885 0.0
C4206 C 0.48695 0.74061 0.79035 0.0
C4207 C 0.48998 0.7556 0.7921 0.0
C4208 C 0.47458 0.73429 0.79629 0.0
C4209 C 0.46497 0.74273 0.80437 0.0
C4210 C 0.46834 0.75763 0.80665 0.0
C4211 C 0.48065 0.76402 0.8005 0.0
H4212 H 0.32551 0.42231 0.85247 0.0
H4213 H 0.33638 0.41339 0.8078 0.0
H4214 H 0.31156 0.44334 0.84449 0.0
H4215 H 0.32318 0.43516 0.79987 0.0
H4216 H 0.28481 0.46511 0.78844 0.0
H4217 H 0.29922 0.44409 0.79628 0.0
H4218 H 0.31277 0.46721 0.83571 0.0
H4219 H 0.29795 0.48792 0.82801 0.0
C4220 C 0.32499 0.42487 0.84091 0.0
C4221 C 0.33193 0.41596 0.83077 0.0
C4222 C 0.31713 0.43713 0.83634 0.0
C4223 C 0.31613 0.44102 0.82149 0.0
C4224 C 0.32346 0.43239 0.81137 0.0
C4225 C 0.33124 0.42 0.81594 0.0
C4226 C 0.29086 0.46563 0.7988 0.0
C4227 C 0.29017 0.47813 0.80765 0.0
C4228 C 0.29922 0.45363 0.80326 0.0
C4229 C 0.30727 0.45388 0.81664 0.0
C4230 C 0.30655 0.46644 0.82548 0.0
C4231 C 0.29804 0.47836 0.82108 0.0
H4232 H 0.69255 0.61845 0.19627 0.0
H4233 H 0.73351 0.64204 0.1952 0.0
H4234 H 0.70547 0.59642 0.20372 0.0
H4235 H 0.74649 0.62013 0.20308 0.0
H4236 H 0.76674 0.57489 0.20371 0.0
H4237 H 0.75378 0.59658 0.19544 0.0
H4238 H 0.71831 0.58565 0.22351 0.0
H4239 H 0.73073 0.56362 0.23103 0.0
C4240 C 0.70432 0.61897 0.19784 0.0
C4241 C 0.71201 0.63198 0.19517 0.0
C4242 C 0.71176 0.60633 0.20213 0.0
C4243 C 0.72707 0.60643 0.20404 0.0
C4244 C 0.73474 0.61952 0.20148 0.0
C4245 C 0.7273 0.63212 0.19703 0.0
C4246 C 0.7561 0.57697 0.208 0.0
C4247 C 0.7499 0.56738 0.21813 0.0
C4248 C 0.74872 0.58957 0.20338 0.0
C4249 C 0.73497 0.59296 0.20881 0.0
C4250 C 0.72877 0.58336 0.2189 0.0
C4251 C 0.73607 0.57074 0.22341 0.0
H4252 H 0.72808 0.41008 0.79923 0.0
H4253 H 0.74019 0.4247 0.84288 0.0
H4254 H 0.7416 0.4307 0.78914 0.0
H4255 H 0.75389 0.44501 0.8328 0.0
H4256 H 0.79079 0.46871 0.80914 0.0
H4257 H 0.77649 0.44864 0.81889 0.0
H4258 H 0.74142 0.45789 0.78776 0.0
H4259 H 0.75543 0.47806 0.77815 0.0
C4260 C 0.73346 0.41775 0.80668 0.0
C4261 C 0.73314 0.41557 0.82189 0.0
C4262 C 0.74127 0.42954 0.8009 0.0
C4263 C 0.749 0.4394 0.81016 0.0
C4264 C 0.74834 0.43745 0.82534 0.0
C4265 C 0.74047 0.42577 0.83112 0.0
C4266 C 0.78002 0.46662 0.80439 0.0
C4267 C 0.77444 0.4752 0.79276 0.0
C4268 C 0.77179 0.45506 0.81001 0.0
C4269 C 0.7578 0.45164 0.8041 0.0
C4270 C 0.75223 0.46009 0.79244 0.0
C4271 C 0.76037 0.47173 0.78691 0.0
H4272 H 0.6239 0.67977 0.80602 0.0
H4273 H 0.63584 0.72485 0.81438 0.0
H4274 H 0.60226 0.68766 0.79201 0.0
H4275 H 0.61411 0.73267 0.80055 0.0
H4276 H 0.56552 0.73991 0.79054 0.0
H4277 H 0.58751 0.73177 0.80335 0.0
H4278 H 0.59475 0.70061 0.76902 0.0
H4279 H 0.57265 0.70895 0.75593 0.0
C4280 C 0.622 0.69136 0.80478 0.0
C4281 C 0.63162 0.70167 0.81139 0.0
C4282 C 0.60959 0.69587 0.79673 0.0
C4283 C 0.60645 0.71078 0.79519 0.0
C4284 C 0.6161 0.72109 0.80172 0.0
C4285 C 0.62854 0.71659 0.80969 0.0
C4286 C 0.57184 0.73148 0.78552 0.0
C4287 C 0.56731 0.72523 0.77204 0.0
C4288 C 0.58448 0.72678 0.79294 0.0
C4289 C 0.59296 0.71562 0.78717 0.0
C4290 C 0.58839 0.70917 0.77381 0.0
C4291 C 0.57572 0.71395 0.76631 0.0
H4292 H 0.34175 0.60637 0.82479 0.0
H4293 H 0.3362 0.62848 0.78346 0.0
H4294 H 0.33198 0.58392 0.81381 0.0
H4295 H 0.32553 0.60639 0.77255 0.0
H4296 H 0.31595 0.56201 0.75285 0.0
H4297 H 0.32874 0.5831 0.76369 0.0
H4298 H 0.31112 0.57234 0.80564 0.0
H4299 H 0.29927 0.55097 0.79502 0.0
C4300 C 0.33823 0.60643 0.81338 0.0
C4301 C 0.33969 0.61914 0.80499 0.0
C4302 C 0.33254 0.59358 0.80704 0.0
C4303 C 0.32782 0.59318 0.79221 0.0
C4304 C 0.32927 0.60603 0.78388 0.0
C4305 C 0.33527 0.61878 0.79015 0.0
C4306 C 0.31504 0.56407 0.76443 0.0
C4307 C 0.30664 0.55474 0.77304 0.0
C4308 C 0.32224 0.57628 0.77066 0.0
C4309 C 0.32098 0.57964 0.78562 0.0
C4310 C 0.31271 0.5701 0.7942 0.0
C4311 C 0.30579 0.55779 0.78805 0.0
H4312 H 0.43478 0.33469 0.84137 0.0
H4313 H 0.41186 0.29382 0.83416 0.0
H4314 H 0.45696 0.32402 0.83167 0.0
H4315 H 0.4339 0.28326 0.82424 0.0
H4316 H 0.47227 0.27667 0.79252 0.0
H4317 H 0.45016 0.28783 0.80169 0.0
H4318 H 0.47456 0.30274 0.84007 0.0
H4319 H 0.49663 0.29138 0.83097 0.0
C4320 C 0.43447 0.32348 0.83758 0.0
C4321 C 0.42162 0.31507 0.83853 0.0
C4322 C 0.44716 0.31736 0.83213 0.0
C4323 C 0.44716 0.3028 0.82722 0.0
C4324 C 0.43421 0.29451 0.82788 0.0
C4325 C 0.42163 0.30053 0.83361 0.0
C4326 C 0.4729 0.28236 0.80289 0.0
C4327 C 0.48617 0.28313 0.81104 0.0
C4328 C 0.46025 0.28868 0.80817 0.0
C4329 C 0.46065 0.29618 0.82157 0.0
C4330 C 0.47395 0.29711 0.82966 0.0
C4331 C 0.48654 0.29052 0.82452 0.0
H4332 H 0.32313 0.42266 0.2066 0.0
H4333 H 0.33319 0.41226 0.25184 0.0
H4334 H 0.31031 0.44426 0.21413 0.0
H4335 H 0.32116 0.43453 0.25936 0.0
H4336 H 0.28402 0.46801 0.2672 0.0
H4337 H 0.29832 0.44633 0.26172 0.0
H4338 H 0.31429 0.46779 0.22327 0.0
H4339 H 0.29956 0.48897 0.22845 0.0
C4340 C 0.32262 0.42492 0.21818 0.0
C4341 C 0.32926 0.41557 0.22856 0.0
C4342 C 0.31545 0.43754 0.22252 0.0
C4343 C 0.31481 0.44138 0.2374 0.0
C4344 C 0.32133 0.43198 0.24782 0.0
C4345 C 0.32842 0.41925 0.24347 0.0
C4346 C 0.29085 0.46815 0.25777 0.0
C4347 C 0.29064 0.48016 0.24823 0.0
C4348 C 0.29904 0.4557 0.25457 0.0
C4349 C 0.30728 0.45509 0.24183 0.0
C4350 C 0.30774 0.46757 0.2329 0.0
C4351 C 0.29944 0.47984 0.23597 0.0
H4352 H 0.61322 0.31125 0.1695 0.0
H4353 H 0.62882 0.32017 0.21369 0.0
H4354 H 0.59228 0.29808 0.17884 0.0
H4355 H 0.60777 0.30704 0.22305 0.0
H4356 H 0.56089 0.29388 0.23371 0.0
H4357 H 0.58095 0.30823 0.22425 0.0
H4358 H 0.58795 0.275 0.19183 0.0
H4359 H 0.56794 0.26054 0.20137 0.0
C4360 C 0.61219 0.31038 0.18122 0.0
C4361 C 0.62276 0.31665 0.19086 0.0
C4362 C 0.60019 0.30282 0.18656 0.0
C4363 C 0.59844 0.3014 0.20167 0.0
C4364 C 0.60876 0.30805 0.21134 0.0
C4365 C 0.6208 0.31559 0.20598 0.0
C4366 C 0.56676 0.28953 0.22466 0.0
C4367 C 0.56281 0.27598 0.21836 0.0
C4368 C 0.57826 0.2978 0.21922 0.0
C4369 C 0.58605 0.29275 0.20731 0.0
C4370 C 0.58203 0.27928 0.2009 0.0
C4371 C 0.57055 0.27099 0.20637 0.0
H4372 H 0.39082 0.71519 0.22967 0.0
H4373 H 0.41353 0.71729 0.18918 0.0
H4374 H 0.41121 0.72757 0.24222 0.0
H4375 H 0.43422 0.72968 0.20189 0.0
H4376 H 0.46503 0.76089 0.23114 0.0
H4377 H 0.44371 0.75202 0.21634 0.0
H4378 H 0.43551 0.71923 0.24898 0.0
H4379 H 0.45618 0.72793 0.26352 0.0
C4380 C 0.40019 0.71829 0.22343 0.0
C4381 C 0.40062 0.71496 0.20846 0.0
C4382 C 0.41191 0.72543 0.23063 0.0
C4383 C 0.42452 0.72941 0.22315 0.0
C4384 C 0.42468 0.72681 0.20799 0.0
C4385 C 0.41284 0.71967 0.20072 0.0
C4386 C 0.45861 0.75183 0.23511 0.0
C4387 C 0.46234 0.74524 0.24861 0.0
C4388 C 0.44644 0.74671 0.22662 0.0
C4389 C 0.43773 0.73503 0.23156 0.0
C4390 C 0.44168 0.72844 0.24494 0.0
C4391 C 0.45371 0.73344 0.25328 0.0
loop_
_geom_bond_atom_site_label_1
_geom_bond_atom_site_label_2
_geom_bond_distance
_geom_bond_site_symmetry_2
_ccdc_geom_bond_type
C0 C1 1.391 . S
C0 C4 1.391 . S
C0 H42 0.948 . S
C1 C0 1.391 . S
C1 C2 1.391 . S
C2 C1 1.391 . S
C2 H58 0.947 . S
C2 C59 1.392 . S
C3 C4 1.391 . S
C3 C7 1.397 . S
C3 C59 1.419 . S
C4 C0 1.391 . S
C4 C3 1.391 . S
C4 C5 1.399 . S
C5 C4 1.399 . S
C5 C8 1.396 . S
C5 C17 1.453 . S
C5 C18 1.684 . S
H6 C30 0.948 . S
C7 C3 1.397 . S
C7 C8 1.394 . S
C7 C26 1.723 . S
C8 C5 1.396 . S
C8 C7 1.394 . S
C8 C38 1.723 . S
H9 C32 0.947 . S
H10 C33 0.948 . S
H11 C39 0.982 . S
H12 C40 0.979 . S
H13 C40 0.980 . S
H14 C40 0.983 . S
H15 C39 0.979 . S
H16 C39 0.977 . S
C17 C5 1.453 . S
C17 H46 0.982 . S
C17 H47 0.979 . S
C17 H48 0.977 . S
C18 C5 1.684 . S
C18 H43 0.979 . S
C18 H44 0.980 . S
C18 H45 0.983 . S
C19 C20 1.391 . S
C19 C24 1.391 . S
C19 H49 0.948 . S
C20 C19 1.391 . S
C20 C21 1.391 . S
C21 C20 1.391 . S
C21 C22 1.392 . S
C21 H50 0.947 . S
C22 C21 1.392 . S
C22 C23 1.419 . S
C22 H51 0.948 . S
C23 C22 1.419 . S
C23 C24 1.391 . S
C23 C27 1.397 . S
C24 C19 1.391 . S
C24 C23 1.391 . S
C24 C25 1.399 . S
C25 C24 1.399 . S
C25 C26 1.396 . S
C25 C28 1.453 . S
C25 C29 1.684 . S
C26 C7 1.723 . S
C26 C25 1.396 . S
C26 C27 1.394 . S
C27 C23 1.397 . S
C27 C26 1.394 . S
C27 C37 1.723 . S
C28 C25 1.453 . S
C28 H52 0.982 . S
C28 H53 0.979 . S
C28 H54 0.977 . S
C29 C25 1.684 . S
C29 H55 0.979 . S
C29 H56 0.980 . S
C29 H57 0.983 . S
C30 H6 0.948 . S
C30 C31 1.391 . S
C30 C35 1.391 . S
C31 C30 1.391 . S
C31 C32 1.391 . S
C32 H9 0.947 . S
C32 C31 1.391 . S
C32 C33 1.392 . S
C33 H10 0.948 . S
C33 C32 1.392 . S
C33 C34 1.419 . S
C34 C33 1.419 . S
C34 C35 1.391 . S
C34 C38 1.397 . S
C35 C30 1.391 . S
C35 C34 1.391 . S
C35 C36 1.399 . S
C36 C35 1.399 . S
C36 C37 1.396 . S
C36 C39 1.453 . S
C36 C40 1.684 . S
C37 C27 1.723 . S
C37 C36 1.396 . S
C37 C38 1.394 . S
C38 C8 1.723 . S
C38 C34 1.397 . S
C38 C37 1.394 . S
C39 H11 0.982 . S
C39 H15 0.979 . S
C39 H16 0.977 . S
C39 C36 1.453 . S
C40 H12 0.979 . S
C40 H13 0.980 . S
C40 H14 0.983 . S
C40 C36 1.684 . S
H41 C59 0.948 . S
H42 C0 0.948 . S
H43 C18 0.979 . S
H44 C18 0.980 . S
H45 C18 0.983 . S
H46 C17 0.982 . S
H47 C17 0.979 . S
H48 C17 0.977 . S
H49 C19 0.948 . S
H50 C21 0.947 . S
H51 C22 0.948 . S
H52 C28 0.982 . S
H53 C28 0.979 . S
H54 C28 0.977 . S
H55 C29 0.979 . S
H56 C29 0.980 . S
H57 C29 0.983 . S
H58 C2 0.947 . S
C59 C2 1.392 . S
C59 C3 1.419 . S
C59 H41 0.948 . S
C60 C61 1.391 . S
C60 C64 1.391 . S
C60 H102 0.948 . S
C61 C60 1.391 . S
C61 C62 1.391 . S
C62 C61 1.391 . S
C62 H118 0.947 . S
C62 C119 1.392 . S
C63 C64 1.391 . S
C63 C67 1.397 . S
C63 C119 1.419 . S
C64 C60 1.391 . S
C64 C63 1.391 . S
C64 C65 1.399 . S
C65 C64 1.399 . S
C65 C68 1.396 . S
C65 C77 1.453 . S
C65 C78 1.684 . S
H66 C90 0.948 . S
C67 C63 1.397 . S
C67 C68 1.394 . S
C67 C86 1.723 . S
C68 C65 1.396 . S
C68 C67 1.394 . S
C68 C98 1.723 . S
H69 C92 0.947 . S
H70 C93 0.948 . S
H71 C99 0.982 . S
H72 C100 0.979 . S
H73 C100 0.980 . S
H74 C100 0.983 . S
H75 C99 0.979 . S
H76 C99 0.977 . S
C77 C65 1.453 . S
C77 H106 0.982 . S
C77 H107 0.979 . S
C77 H108 0.977 . S
C78 C65 1.684 . S
C78 H103 0.979 . S
C78 H104 0.980 . S
C78 H105 0.983 . S
C79 C80 1.391 . S
C79 C84 1.391 . S
C79 H109 0.948 . S
C80 C79 1.391 . S
C80 C81 1.391 . S
C81 C80 1.391 . S
C81 C82 1.392 . S
C81 H110 0.947 . S
C82 C81 1.392 . S
C82 C83 1.419 . S
C82 H111 0.948 . S
C83 C82 1.419 . S
C83 C84 1.391 . S
C83 C87 1.397 . S
C84 C79 1.391 . S
C84 C83 1.391 . S
C84 C85 1.399 . S
C85 C84 1.399 . S
C85 C86 1.396 . S
C85 C88 1.453 . S
C85 C89 1.684 . S
C86 C67 1.723 . S
C86 C85 1.396 . S
C86 C87 1.394 . S
C87 C83 1.397 . S
C87 C86 1.394 . S
C87 C97 1.723 . S
C88 C85 1.453 . S
C88 H112 0.982 . S
C88 H113 0.979 . S
C88 H114 0.977 . S
C89 C85 1.684 . S
C89 H115 0.979 . S
C89 H116 0.980 . S
C89 H117 0.983 . S
C90 H66 0.948 . S
C90 C91 1.391 . S
C90 C95 1.391 . S
C91 C90 1.391 . S
C91 C92 1.391 . S
C92 H69 0.947 . S
C92 C91 1.391 . S
C92 C93 1.392 . S
C93 H70 0.948 . S
C93 C92 1.392 . S
C93 C94 1.419 . S
C94 C93 1.419 . S
C94 C95 1.391 . S
C94 C98 1.397 . S
C95 C90 1.391 . S
C95 C94 1.391 . S
C95 C96 1.399 . S
C96 C95 1.399 . S
C96 C97 1.396 . S
C96 C99 1.453 . S
C96 C100 1.684 . S
C97 C87 1.723 . S
C97 C96 1.396 . S
C97 C98 1.394 . S
C98 C68 1.723 . S
C98 C94 1.397 . S
C98 C97 1.394 . S
C99 H71 0.982 . S
C99 H75 0.979 . S
C99 H76 0.977 . S
C99 C96 1.453 . S
C100 H72 0.979 . S
C100 H73 0.980 . S
C100 H74 0.983 . S
C100 C96 1.684 . S
H101 C119 0.948 . S
H102 C60 0.948 . S
H103 C78 0.979 . S
H104 C78 0.980 . S
H105 C78 0.983 . S
H106 C77 0.982 . S
H107 C77 0.979 . S
H108 C77 0.977 . S
H109 C79 0.948 . S
H110 C81 0.947 . S
H111 C82 0.948 . S
H112 C88 0.982 . S
H113 C88 0.979 . S
H114 C88 0.977 . S
H115 C89 0.979 . S
H116 C89 0.980 . S
H117 C89 0.983 . S
H118 C62 0.947 . S
C119 C62 1.392 . S
C119 C63 1.419 . S
C119 H101 0.948 . S
C120 C121 1.391 . S
C120 C124 1.391 . S
C120 H162 0.948 . S
C121 C120 1.391 . S
C121 C122 1.391 . S
C122 C121 1.391 . S
C122 H178 0.947 . S
C122 C179 1.392 . S
C123 C124 1.391 . S
C123 C127 1.397 . S
C123 C179 1.419 . S
C124 C120 1.391 . S
C124 C123 1.391 . S
C124 C125 1.399 . S
C125 C124 1.399 . S
C125 C128 1.396 . S
C125 C137 1.453 . S
C125 C138 1.684 . S
H126 C150 0.948 . S
C127 C123 1.397 . S
C127 C128 1.394 . S
C127 C146 1.723 . S
C128 C125 1.396 . S
C128 C127 1.394 . S
C128 C158 1.723 . S
H129 C152 0.947 . S
H130 C153 0.948 . S
H131 C159 0.982 . S
H132 C160 0.979 . S
H133 C160 0.980 . S
H134 C160 0.983 . S
H135 C159 0.979 . S
H136 C159 0.977 . S
C137 C125 1.453 . S
C137 H166 0.982 . S
C137 H167 0.979 . S
C137 H168 0.977 . S
C138 C125 1.684 . S
C138 H163 0.979 . S
C138 H164 0.980 . S
C138 H165 0.983 . S
C139 C140 1.391 . S
C139 C144 1.391 . S
C139 H169 0.948 . S
C140 C139 1.391 . S
C140 C141 1.391 . S
C141 C140 1.391 . S
C141 C142 1.392 . S
C141 H170 0.947 . S
C142 C141 1.392 . S
C142 C143 1.419 . S
C142 H171 0.948 . S
C143 C142 1.419 . S
C143 C144 1.391 . S
C143 C147 1.397 . S
C144 C139 1.391 . S
C144 C143 1.391 . S
C144 C145 1.399 . S
C145 C144 1.399 . S
C145 C146 1.396 . S
C145 C148 1.453 . S
C145 C149 1.684 . S
C146 C127 1.723 . S
C146 C145 1.396 . S
C146 C147 1.394 . S
C147 C143 1.397 . S
C147 C146 1.394 . S
C147 C157 1.723 . S
C148 C145 1.453 . S
C148 H172 0.982 . S
C148 H173 0.979 . S
C148 H174 0.977 . S
C149 C145 1.684 . S
C149 H175 0.979 . S
C149 H176 0.980 . S
C149 H177 0.983 . S
C150 H126 0.948 . S
C150 C151 1.391 . S
C150 C155 1.391 . S
C151 C150 1.391 . S
C151 C152 1.391 . S
C152 H129 0.947 . S
C152 C151 1.391 . S
C152 C153 1.392 . S
C153 H130 0.948 . S
C153 C152 1.392 . S
C153 C154 1.419 . S
C154 C153 1.419 . S
C154 C155 1.391 . S
C154 C158 1.397 . S
C155 C150 1.391 . S
C155 C154 1.391 . S
C155 C156 1.399 . S
C156 C155 1.399 . S
C156 C157 1.396 . S
C156 C159 1.453 . S
C156 C160 1.684 . S
C157 C147 1.723 . S
C157 C156 1.396 . S
C157 C158 1.394 . S
C158 C128 1.723 . S
C158 C154 1.397 . S
C158 C157 1.394 . S
C159 H131 0.982 . S
C159 H135 0.979 . S
C159 H136 0.977 . S
C159 C156 1.453 . S
C160 H132 0.979 . S
C160 H133 0.980 . S
C160 H134 0.983 . S
C160 C156 1.684 . S
H161 C179 0.948 . S
H162 C120 0.948 . S
H163 C138 0.979 . S
H164 C138 0.980 . S
H165 C138 0.983 . S
H166 C137 0.982 . S
H167 C137 0.979 . S
H168 C137 0.977 . S
H169 C139 0.948 . S
H170 C141 0.947 . S
H171 C142 0.948 . S
H172 C148 0.982 . S
H173 C148 0.979 . S
H174 C148 0.977 . S
H175 C149 0.979 . S
H176 C149 0.980 . S
H177 C149 0.983 . S
H178 C122 0.947 . S
C179 C122 1.392 . S
C179 C123 1.419 . S
C179 H161 0.948 . S
C180 C181 1.391 . S
C180 C184 1.391 . S
C180 H222 0.948 . S
C181 C180 1.391 . S
C181 C182 1.391 . S
C182 C181 1.391 . S
C182 H238 0.947 . S
C182 C239 1.392 . S
C183 C184 1.391 . S
C183 C187 1.397 . S
C183 C239 1.419 . S
C184 C180 1.391 . S
C184 C183 1.391 . S
C184 C185 1.399 . S
C185 C184 1.399 . S
C185 C188 1.396 . S
C185 C197 1.453 . S
C185 C198 1.684 . S
H186 C210 0.948 . S
C187 C183 1.397 . S
C187 C188 1.394 . S
C187 C206 1.723 . S
C188 C185 1.396 . S
C188 C187 1.394 . S
C188 C218 1.723 . S
H189 C212 0.947 . S
H190 C213 0.948 . S
H191 C219 0.982 . S
H192 C220 0.979 . S
H193 C220 0.980 . S
H194 C220 0.983 . S
H195 C219 0.979 . S
H196 C219 0.977 . S
C197 C185 1.453 . S
C197 H226 0.982 . S
C197 H227 0.979 . S
C197 H228 0.977 . S
C198 C185 1.684 . S
C198 H223 0.979 . S
C198 H224 0.980 . S
C198 H225 0.983 . S
C199 C200 1.391 . S
C199 C204 1.391 . S
C199 H229 0.948 . S
C200 C199 1.391 . S
C200 C201 1.391 . S
C201 C200 1.391 . S
C201 C202 1.392 . S
C201 H230 0.947 . S
C202 C201 1.392 . S
C202 C203 1.419 . S
C202 H231 0.948 . S
C203 C202 1.419 . S
C203 C204 1.391 . S
C203 C207 1.397 . S
C204 C199 1.391 . S
C204 C203 1.391 . S
C204 C205 1.399 . S
C205 C204 1.399 . S
C205 C206 1.396 . S
C205 C208 1.453 . S
C205 C209 1.684 . S
C206 C187 1.723 . S
C206 C205 1.396 . S
C206 C207 1.394 . S
C207 C203 1.397 . S
C207 C206 1.394 . S
C207 C217 1.723 . S
C208 C205 1.453 . S
C208 H232 0.982 . S
C208 H233 0.979 . S
C208 H234 0.977 . S
C209 C205 1.684 . S
C209 H235 0.979 . S
C209 H236 0.980 . S
C209 H237 0.983 . S
C210 H186 0.948 . S
C210 C211 1.391 . S
C210 C215 1.391 . S
C211 C210 1.391 . S
C211 C212 1.391 . S
C212 H189 0.947 . S
C212 C211 1.391 . S
C212 C213 1.392 . S
C213 H190 0.948 . S
C213 C212 1.392 . S
C213 C214 1.419 . S
C214 C213 1.419 . S
C214 C215 1.391 . S
C214 C218 1.397 . S
C215 C210 1.391 . S
C215 C214 1.391 . S
C215 C216 1.399 . S
C216 C215 1.399 . S
C216 C217 1.396 . S
C216 C219 1.453 . S
C216 C220 1.684 . S
C217 C207 1.723 . S
C217 C216 1.396 . S
C217 C218 1.394 . S
C218 C188 1.723 . S
C218 C214 1.397 . S
C218 C217 1.394 . S
C219 H191 0.982 . S
C219 H195 0.979 . S
C219 H196 0.977 . S
C219 C216 1.453 . S
C220 H192 0.979 . S
C220 H193 0.980 . S
C220 H194 0.983 . S
C220 C216 1.684 . S
H221 C239 0.948 . S
H222 C180 0.948 . S
H223 C198 0.979 . S
H224 C198 0.980 . S
H225 C198 0.983 . S
H226 C197 0.982 . S
H227 C197 0.979 . S
H228 C197 0.977 . S
H229 C199 0.948 . S
H230 C201 0.947 . S
H231 C202 0.948 . S
H232 C208 0.982 . S
H233 C208 0.979 . S
H234 C208 0.977 . S
H235 C209 0.979 . S
H236 C209 0.980 . S
H237 C209 0.983 . S
H238 C182 0.947 . S
C239 C182 1.392 . S
C239 C183 1.419 . S
C239 H221 0.948 . S
C240 C241 1.391 . S
C240 C244 1.391 . S
C240 H282 0.948 . S
C241 C240 1.391 . S
C241 C242 1.391 . S
C242 C241 1.391 . S
C242 H298 0.947 . S
C242 C299 1.392 . S
C243 C244 1.391 . S
C243 C247 1.397 . S
C243 C299 1.419 . S
C244 C240 1.391 . S
C244 C243 1.391 . S
C244 C245 1.399 . S
C245 C244 1.399 . S
C245 C248 1.396 . S
C245 C257 1.453 . S
C245 C258 1.684 . S
H246 C270 0.948 . S
C247 C243 1.397 . S
C247 C248 1.394 . S
C247 C266 1.723 . S
C248 C245 1.396 . S
C248 C247 1.394 . S
C248 C278 1.723 . S
H249 C272 0.947 . S
H250 C273 0.948 . S
H251 C279 0.982 . S
H252 C280 0.979 . S
H253 C280 0.980 . S
H254 C280 0.983 . S
H255 C279 0.979 . S
H256 C279 0.977 . S
C257 C245 1.453 . S
C257 H286 0.982 . S
C257 H287 0.979 . S
C257 H288 0.977 . S
C258 C245 1.684 . S
C258 H283 0.979 . S
C258 H284 0.980 . S
C258 H285 0.983 . S
C259 C260 1.391 . S
C259 C264 1.391 . S
C259 H289 0.948 . S
C260 C259 1.391 . S
C260 C261 1.391 . S
C261 C260 1.391 . S
C261 C262 1.392 . S
C261 H290 0.947 . S
C262 C261 1.392 . S
C262 C263 1.419 . S
C262 H291 0.948 . S
C263 C262 1.419 . S
C263 C264 1.391 . S
C263 C267 1.397 . S
C264 C259 1.391 . S
C264 C263 1.391 . S
C264 C265 1.399 . S
C265 C264 1.399 . S
C265 C266 1.396 . S
C265 C268 1.453 . S
C265 C269 1.684 . S
C266 C247 1.723 . S
C266 C265 1.396 . S
C266 C267 1.394 . S
C267 C263 1.397 . S
C267 C266 1.394 . S
C267 C277 1.723 . S
C268 C265 1.453 . S
C268 H292 0.982 . S
C268 H293 0.979 . S
C268 H294 0.977 . S
C269 C265 1.684 . S
C269 H295 0.979 . S
C269 H296 0.980 . S
C269 H297 0.983 . S
C270 H246 0.948 . S
C270 C271 1.391 . S
C270 C275 1.391 . S
C271 C270 1.391 . S
C271 C272 1.391 . S
C272 H249 0.947 . S
C272 C271 1.391 . S
C272 C273 1.392 . S
C273 H250 0.948 . S
C273 C272 1.392 . S
C273 C274 1.419 . S
C274 C273 1.419 . S
C274 C275 1.391 . S
C274 C278 1.397 . S
C275 C270 1.391 . S
C275 C274 1.391 . S
C275 C276 1.399 . S
C276 C275 1.399 . S
C276 C277 1.396 . S
C276 C279 1.453 . S
C276 C280 1.684 . S
C277 C267 1.723 . S
C277 C276 1.396 . S
C277 C278 1.394 . S
C278 C248 1.723 . S
C278 C274 1.397 . S
C278 C277 1.394 . S
C279 H251 0.982 . S
C279 H255 0.979 . S
C279 H256 0.977 . S
C279 C276 1.453 . S
C280 H252 0.979 . S
C280 H253 0.980 . S
C280 H254 0.983 . S
C280 C276 1.684 . S
H281 C299 0.948 . S
H282 C240 0.948 . S
H283 C258 0.979 . S
H284 C258 0.980 . S
H285 C258 0.983 . S
H286 C257 0.982 . S
H287 C257 0.979 . S
H288 C257 0.977 . S
H289 C259 0.948 . S
H290 C261 0.947 . S
H291 C262 0.948 . S
H292 C268 0.982 . S
H293 C268 0.979 . S
H294 C268 0.977 . S
H295 C269 0.979 . S
H296 C269 0.980 . S
H297 C269 0.983 . S
H298 C242 0.947 . S
C299 C242 1.392 . S
C299 C243 1.419 . S
C299 H281 0.948 . S
C300 C301 1.391 . S
C300 C304 1.391 . S
C300 H342 0.948 . S
C301 C300 1.391 . S
C301 C302 1.391 . S
C302 C301 1.391 . S
C302 H358 0.947 . S
C302 C359 1.392 . S
C303 C304 1.391 . S
C303 C307 1.397 . S
C303 C359 1.419 . S
C304 C300 1.391 . S
C304 C303 1.391 . S
C304 C305 1.399 . S
C305 C304 1.399 . S
C305 C308 1.396 . S
C305 C317 1.453 . S
C305 C318 1.684 . S
H306 C330 0.948 . S
C307 C303 1.397 . S
C307 C308 1.394 . S
C307 C326 1.723 . S
C308 C305 1.396 . S
C308 C307 1.394 . S
C308 C338 1.723 . S
H309 C332 0.947 . S
H310 C333 0.948 . S
H311 C339 0.982 . S
H312 C340 0.979 . S
H313 C340 0.980 . S
H314 C340 0.983 . S
H315 C339 0.979 . S
H316 C339 0.977 . S
C317 C305 1.453 . S
C317 H346 0.982 . S
C317 H347 0.979 . S
C317 H348 0.977 . S
C318 C305 1.684 . S
C318 H343 0.979 . S
C318 H344 0.980 . S
C318 H345 0.983 . S
C319 C320 1.391 . S
C319 C324 1.391 . S
C319 H349 0.948 . S
C320 C319 1.391 . S
C320 C321 1.391 . S
C321 C320 1.391 . S
C321 C322 1.392 . S
C321 H350 0.947 . S
C322 C321 1.392 . S
C322 C323 1.419 . S
C322 H351 0.948 . S
C323 C322 1.419 . S
C323 C324 1.391 . S
C323 C327 1.397 . S
C324 C319 1.391 . S
C324 C323 1.391 . S
C324 C325 1.399 . S
C325 C324 1.399 . S
C325 C326 1.396 . S
C325 C328 1.453 . S
C325 C329 1.684 . S
C326 C307 1.723 . S
C326 C325 1.396 . S
C326 C327 1.394 . S
C327 C323 1.397 . S
C327 C326 1.394 . S
C327 C337 1.723 . S
C328 C325 1.453 . S
C328 H352 0.982 . S
C328 H353 0.979 . S
C328 H354 0.977 . S
C329 C325 1.684 . S
C329 H355 0.979 . S
C329 H356 0.980 . S
C329 H357 0.983 . S
C330 H306 0.948 . S
C330 C331 1.391 . S
C330 C335 1.391 . S
C331 C330 1.391 . S
C331 C332 1.391 . S
C332 H309 0.947 . S
C332 C331 1.391 . S
C332 C333 1.392 . S
C333 H310 0.948 . S
C333 C332 1.392 . S
C333 C334 1.419 . S
C334 C333 1.419 . S
C334 C335 1.391 . S
C334 C338 1.397 . S
C335 C330 1.391 . S
C335 C334 1.391 . S
C335 C336 1.399 . S
C336 C335 1.399 . S
C336 C337 1.396 . S
C336 C339 1.453 . S
C336 C340 1.684 . S
C337 C327 1.723 . S
C337 C336 1.396 . S
C337 C338 1.394 . S
C338 C308 1.723 . S
C338 C334 1.397 . S
C338 C337 1.394 . S
C339 H311 0.982 . S
C339 H315 0.979 . S
C339 H316 0.977 . S
C339 C336 1.453 . S
C340 H312 0.979 . S
C340 H313 0.980 . S
C340 H314 0.983 . S
C340 C336 1.684 . S
H341 C359 0.948 . S
H342 C300 0.948 . S
H343 C318 0.979 . S
H344 C318 0.980 . S
H345 C318 0.983 . S
H346 C317 0.982 . S
H347 C317 0.979 . S
H348 C317 0.977 . S
H349 C319 0.948 . S
H350 C321 0.947 . S
H351 C322 0.948 . S
H352 C328 0.982 . S
H353 C328 0.979 . S
H354 C328 0.977 . S
H355 C329 0.979 . S
H356 C329 0.980 . S
H357 C329 0.983 . S
H358 C302 0.947 . S
C359 C302 1.392 . S
C359 C303 1.419 . S
C359 H341 0.948 . S
C360 C361 1.391 . S
C360 C364 1.391 . S
C360 H402 0.948 . S
C361 C360 1.391 . S
C361 C362 1.391 . S
C362 C361 1.391 . S
C362 H418 0.947 . S
C362 C419 1.392 . S
C363 C364 1.391 . S
C363 C367 1.397 . S
C363 C419 1.419 . S
C364 C360 1.391 . S
C364 C363 1.391 . S
C364 C365 1.399 . S
C365 C364 1.399 . S
C365 C368 1.396 . S
C365 C377 1.453 . S
C365 C378 1.684 . S
H366 C390 0.948 . S
C367 C363 1.397 . S
C367 C368 1.394 . S
C367 C386 1.723 . S
C368 C365 1.396 . S
C368 C367 1.394 . S
C368 C398 1.723 . S
H369 C392 0.947 . S
H370 C393 0.948 . S
H371 C399 0.982 . S
H372 C400 0.979 . S
H373 C400 0.980 . S
H374 C400 0.983 . S
H375 C399 0.979 . S
H376 C399 0.977 . S
C377 C365 1.453 . S
C377 H406 0.982 . S
C377 H407 0.979 . S
C377 H408 0.977 . S
C378 C365 1.684 . S
C378 H403 0.979 . S
C378 H404 0.980 . S
C378 H405 0.983 . S
C379 C380 1.391 . S
C379 C384 1.391 . S
C379 H409 0.948 . S
C380 C379 1.391 . S
C380 C381 1.391 . S
C381 C380 1.391 . S
C381 C382 1.392 . S
C381 H410 0.947 . S
C382 C381 1.392 . S
C382 C383 1.419 . S
C382 H411 0.948 . S
C383 C382 1.419 . S
C383 C384 1.391 . S
C383 C387 1.397 . S
C384 C379 1.391 . S
C384 C383 1.391 . S
C384 C385 1.399 . S
C385 C384 1.399 . S
C385 C386 1.396 . S
C385 C388 1.453 . S
C385 C389 1.684 . S
C386 C367 1.723 . S
C386 C385 1.396 . S
C386 C387 1.394 . S
C387 C383 1.397 . S
C387 C386 1.394 . S
C387 C397 1.723 . S
C388 C385 1.453 . S
C388 H412 0.982 . S
C388 H413 0.979 . S
C388 H414 0.977 . S
C389 C385 1.684 . S
C389 H415 0.979 . S
C389 H416 0.980 . S
C389 H417 0.983 . S
C390 H366 0.948 . S
C390 C391 1.391 . S
C390 C395 1.391 . S
C391 C390 1.391 . S
C391 C392 1.391 . S
C392 H369 0.947 . S
C392 C391 1.391 . S
C392 C393 1.392 . S
C393 H370 0.948 . S
C393 C392 1.392 . S
C393 C394 1.419 . S
C394 C393 1.419 . S
C394 C395 1.391 . S
C394 C398 1.397 . S
C395 C390 1.391 . S
C395 C394 1.391 . S
C395 C396 1.399 . S
C396 C395 1.399 . S
C396 C397 1.396 . S
C396 C399 1.453 . S
C396 C400 1.684 . S
C397 C387 1.723 . S
C397 C396 1.396 . S
C397 C398 1.394 . S
C398 C368 1.723 . S
C398 C394 1.397 . S
C398 C397 1.394 . S
C399 H371 0.982 . S
C399 H375 0.979 . S
C399 H376 0.977 . S
C399 C396 1.453 . S
C400 H372 0.979 . S
C400 H373 0.980 . S
C400 H374 0.983 . S
C400 C396 1.684 . S
H401 C419 0.948 . S
H402 C360 0.948 . S
H403 C378 0.979 . S
H404 C378 0.980 . S
H405 C378 0.983 . S
H406 C377 0.982 . S
H407 C377 0.979 . S
H408 C377 0.977 . S
H409 C379 0.948 . S
H410 C381 0.947 . S
H411 C382 0.948 . S
H412 C388 0.982 . S
H413 C388 0.979 . S
H414 C388 0.977 . S
H415 C389 0.979 . S
H416 C389 0.980 . S
H417 C389 0.983 . S
H418 C362 0.947 . S
C419 C362 1.392 . S
C419 C363 1.419 . S
C419 H401 0.948 . S
C420 C421 1.391 . S
C420 C424 1.391 . S
C420 H462 0.948 . S
C421 C420 1.391 . S
C421 C422 1.391 . S
C422 C421 1.391 . S
C422 H478 0.947 . S
C422 C479 1.392 . S
C423 C424 1.391 . S
C423 C427 1.397 . S
C423 C479 1.419 . S
C424 C420 1.391 . S
C424 C423 1.391 . S
C424 C425 1.399 . S
C425 C424 1.399 . S
C425 C428 1.396 . S
C425 C437 1.453 . S
C425 C438 1.684 . S
H426 C450 0.948 . S
C427 C423 1.397 . S
C427 C428 1.394 . S
C427 C446 1.723 . S
C428 C425 1.396 . S
C428 C427 1.394 . S
C428 C458 1.723 . S
H429 C452 0.947 . S
H430 C453 0.948 . S
H431 C459 0.982 . S
H432 C460 0.979 . S
H433 C460 0.980 . S
H434 C460 0.983 . S
H435 C459 0.979 . S
H436 C459 0.977 . S
C437 C425 1.453 . S
C437 H466 0.982 . S
C437 H467 0.979 . S
C437 H468 0.977 . S
C438 C425 1.684 . S
C438 H463 0.979 . S
C438 H464 0.980 . S
C438 H465 0.983 . S
C439 C440 1.391 . S
C439 C444 1.391 . S
C439 H469 0.948 . S
C440 C439 1.391 . S
C440 C441 1.391 . S
C441 C440 1.391 . S
C441 C442 1.392 . S
C441 H470 0.947 . S
C442 C441 1.392 . S
C442 C443 1.419 . S
C442 H471 0.948 . S
C443 C442 1.419 . S
C443 C444 1.391 . S
C443 C447 1.397 . S
C444 C439 1.391 . S
C444 C443 1.391 . S
C444 C445 1.399 . S
C445 C444 1.399 . S
C445 C446 1.396 . S
C445 C448 1.453 . S
C445 C449 1.684 . S
C446 C427 1.723 . S
C446 C445 1.396 . S
C446 C447 1.394 . S
C447 C443 1.397 . S
C447 C446 1.394 . S
C447 C457 1.723 . S
C448 C445 1.453 . S
C448 H472 0.982 . S
C448 H473 0.979 . S
C448 H474 0.977 . S
C449 C445 1.684 . S
C449 H475 0.979 . S
C449 H476 0.980 . S
C449 H477 0.983 . S
C450 H426 0.948 . S
C450 C451 1.391 . S
C450 C455 1.391 . S
C451 C450 1.391 . S
C451 C452 1.391 . S
C452 H429 0.947 . S
C452 C451 1.391 . S
C452 C453 1.392 . S
C453 H430 0.948 . S
C453 C452 1.392 . S
C453 C454 1.419 . S
C454 C453 1.419 . S
C454 C455 1.391 . S
C454 C458 1.397 . S
C455 C450 1.391 . S
C455 C454 1.391 . S
C455 C456 1.399 . S
C456 C455 1.399 . S
C456 C457 1.396 . S
C456 C459 1.453 . S
C456 C460 1.684 . S
C457 C447 1.723 . S
C457 C456 1.396 . S
C457 C458 1.394 . S
C458 C428 1.723 . S
C458 C454 1.397 . S
C458 C457 1.394 . S
C459 H431 0.982 . S
C459 H435 0.979 . S
C459 H436 0.977 . S
C459 C456 1.453 . S
C460 H432 0.979 . S
C460 H433 0.980 . S
C460 H434 0.983 . S
C460 C456 1.684 . S
H461 C479 0.948 . S
H462 C420 0.948 . S
H463 C438 0.979 . S
H464 C438 0.980 . S
H465 C438 0.983 . S
H466 C437 0.982 . S
H467 C437 0.979 . S
H468 C437 0.977 . S
H469 C439 0.948 . S
H470 C441 0.947 . S
H471 C442 0.948 . S
H472 C448 0.982 . S
H473 C448 0.979 . S
H474 C448 0.977 . S
H475 C449 0.979 . S
H476 C449 0.980 . S
H477 C449 0.983 . S
H478 C422 0.947 . S
C479 C422 1.392 . S
C479 C423 1.419 . S
C479 H461 0.948 . S
C480 C481 1.391 . S
C480 C484 1.391 . S
C480 H522 0.948 . S
C481 C480 1.391 . S
C481 C482 1.391 . S
C482 C481 1.391 . S
C482 H538 0.947 . S
C482 C539 1.392 . S
C483 C484 1.391 . S
C483 C487 1.397 . S
C483 C539 1.419 . S
C484 C480 1.391 . S
C484 C483 1.391 . S
C484 C485 1.399 . S
C485 C484 1.399 . S
C485 C488 1.396 . S
C485 C497 1.453 . S
C485 C498 1.684 . S
H486 C510 0.948 . S
C487 C483 1.397 . S
C487 C488 1.394 . S
C487 C506 1.723 . S
C488 C485 1.396 . S
C488 C487 1.394 . S
C488 C518 1.723 . S
H489 C512 0.947 . S
H490 C513 0.948 . S
H491 C519 0.982 . S
H492 C520 0.979 . S
H493 C520 0.980 . S
H494 C520 0.983 . S
H495 C519 0.979 . S
H496 C519 0.977 . S
C497 C485 1.453 . S
C497 H526 0.982 . S
C497 H527 0.979 . S
C497 H528 0.977 . S
C498 C485 1.684 . S
C498 H523 0.979 . S
C498 H524 0.980 . S
C498 H525 0.983 . S
C499 C500 1.391 . S
C499 C504 1.391 . S
C499 H529 0.948 . S
C500 C499 1.391 . S
C500 C501 1.391 . S
C501 C500 1.391 . S
C501 C502 1.392 . S
C501 H530 0.947 . S
C502 C501 1.392 . S
C502 C503 1.419 . S
C502 H531 0.948 . S
C503 C502 1.419 . S
C503 C504 1.391 . S
C503 C507 1.397 . S
C504 C499 1.391 . S
C504 C503 1.391 . S
C504 C505 1.399 . S
C505 C504 1.399 . S
C505 C506 1.396 . S
C505 C508 1.453 . S
C505 C509 1.684 . S
C506 C487 1.723 . S
C506 C505 1.396 . S
C506 C507 1.394 . S
C507 C503 1.397 . S
C507 C506 1.394 . S
C507 C517 1.723 . S
C508 C505 1.453 . S
C508 H532 0.982 . S
C508 H533 0.979 . S
C508 H534 0.977 . S
C509 C505 1.684 . S
C509 H535 0.979 . S
C509 H536 0.980 . S
C509 H537 0.983 . S
C510 H486 0.948 . S
C510 C511 1.391 . S
C510 C515 1.391 . S
C511 C510 1.391 . S
C511 C512 1.391 . S
C512 H489 0.947 . S
C512 C511 1.391 . S
C512 C513 1.392 . S
C513 H490 0.948 . S
C513 C512 1.392 . S
C513 C514 1.419 . S
C514 C513 1.419 . S
C514 C515 1.391 . S
C514 C518 1.397 . S
C515 C510 1.391 . S
C515 C514 1.391 . S
C515 C516 1.399 . S
C516 C515 1.399 . S
C516 C517 1.396 . S
C516 C519 1.453 . S
C516 C520 1.684 . S
C517 C507 1.723 . S
C517 C516 1.396 . S
C517 C518 1.394 . S
C518 C488 1.723 . S
C518 C514 1.397 . S
C518 C517 1.394 . S
C519 H491 0.982 . S
C519 H495 0.979 . S
C519 H496 0.977 . S
C519 C516 1.453 . S
C520 H492 0.979 . S
C520 H493 0.980 . S
C520 H494 0.983 . S
C520 C516 1.684 . S
H521 C539 0.948 . S
H522 C480 0.948 . S
H523 C498 0.979 . S
H524 C498 0.980 . S
H525 C498 0.983 . S
H526 C497 0.982 . S
H527 C497 0.979 . S
H528 C497 0.977 . S
H529 C499 0.948 . S
H530 C501 0.947 . S
H531 C502 0.948 . S
H532 C508 0.982 . S
H533 C508 0.979 . S
H534 C508 0.977 . S
H535 C509 0.979 . S
H536 C509 0.980 . S
H537 C509 0.983 . S
H538 C482 0.947 . S
C539 C482 1.392 . S
C539 C483 1.419 . S
C539 H521 0.948 . S
C540 C541 1.391 . S
C540 C544 1.391 . S
C540 H582 0.948 . S
C541 C540 1.391 . S
C541 C542 1.391 . S
C542 C541 1.391 . S
C542 H598 0.947 . S
C542 C599 1.392 . S
C543 C544 1.391 . S
C543 C547 1.397 . S
C543 C599 1.419 . S
C544 C540 1.391 . S
C544 C543 1.391 . S
C544 C545 1.399 . S
C545 C544 1.399 . S
C545 C548 1.396 . S
C545 C557 1.453 . S
C545 C558 1.684 . S
H546 C570 0.948 . S
C547 C543 1.397 . S
C547 C548 1.394 . S
C547 C566 1.723 . S
C548 C545 1.396 . S
C548 C547 1.394 . S
C548 C578 1.723 . S
H549 C572 0.947 . S
H550 C573 0.948 . S
H551 C579 0.982 . S
H552 C580 0.979 . S
H553 C580 0.980 . S
H554 C580 0.983 . S
H555 C579 0.979 . S
H556 C579 0.977 . S
C557 C545 1.453 . S
C557 H586 0.982 . S
C557 H587 0.979 . S
C557 H588 0.977 . S
C558 C545 1.684 . S
C558 H583 0.979 . S
C558 H584 0.980 . S
C558 H585 0.983 . S
C559 C560 1.391 . S
C559 C564 1.391 . S
C559 H589 0.948 . S
C560 C559 1.391 . S
C560 C561 1.391 . S
C561 C560 1.391 . S
C561 C562 1.392 . S
C561 H590 0.947 . S
C562 C561 1.392 . S
C562 C563 1.419 . S
C562 H591 0.948 . S
C563 C562 1.419 . S
C563 C564 1.391 . S
C563 C567 1.397 . S
C564 C559 1.391 . S
C564 C563 1.391 . S
C564 C565 1.399 . S
C565 C564 1.399 . S
C565 C566 1.396 . S
C565 C568 1.453 . S
C565 C569 1.684 . S
C566 C547 1.723 . S
C566 C565 1.396 . S
C566 C567 1.394 . S
C567 C563 1.397 . S
C567 C566 1.394 . S
C567 C577 1.723 . S
C568 C565 1.453 . S
C568 H592 0.982 . S
C568 H593 0.979 . S
C568 H594 0.977 . S
C569 C565 1.684 . S
C569 H595 0.979 . S
C569 H596 0.980 . S
C569 H597 0.983 . S
C570 H546 0.948 . S
C570 C571 1.391 . S
C570 C575 1.391 . S
C571 C570 1.391 . S
C571 C572 1.391 . S
C572 H549 0.947 . S
C572 C571 1.391 . S
C572 C573 1.392 . S
C573 H550 0.948 . S
C573 C572 1.392 . S
C573 C574 1.419 . S
C574 C573 1.419 . S
C574 C575 1.391 . S
C574 C578 1.397 . S
C575 C570 1.391 . S
C575 C574 1.391 . S
C575 C576 1.399 . S
C576 C575 1.399 . S
C576 C577 1.396 . S
C576 C579 1.453 . S
C576 C580 1.684 . S
C577 C567 1.723 . S
C577 C576 1.396 . S
C577 C578 1.394 . S
C578 C548 1.723 . S
C578 C574 1.397 . S
C578 C577 1.394 . S
C579 H551 0.982 . S
C579 H555 0.979 . S
C579 H556 0.977 . S
C579 C576 1.453 . S
C580 H552 0.979 . S
C580 H553 0.980 . S
C580 H554 0.983 . S
C580 C576 1.684 . S
H581 C599 0.948 . S
H582 C540 0.948 . S
H583 C558 0.979 . S
H584 C558 0.980 . S
H585 C558 0.983 . S
H586 C557 0.982 . S
H587 C557 0.979 . S
H588 C557 0.977 . S
H589 C559 0.948 . S
H590 C561 0.947 . S
H591 C562 0.948 . S
H592 C568 0.982 . S
H593 C568 0.979 . S
H594 C568 0.977 . S
H595 C569 0.979 . S
H596 C569 0.980 . S
H597 C569 0.983 . S
H598 C542 0.947 . S
C599 C542 1.392 . S
C599 C543 1.419 . S
C599 H581 0.948 . S
C600 C601 1.391 . S
C600 C604 1.391 . S
C600 H642 0.948 . S
C601 C600 1.391 . S
C601 C602 1.391 . S
C602 C601 1.391 . S
C602 H658 0.947 . S
C602 C659 1.392 . S
C603 C604 1.391 . S
C603 C607 1.397 . S
C603 C659 1.419 . S
C604 C600 1.391 . S
C604 C603 1.391 . S
C604 C605 1.399 . S
C605 C604 1.399 . S
C605 C608 1.396 . S
C605 C617 1.453 . S
C605 C618 1.684 . S
H606 C630 0.948 . S
C607 C603 1.397 . S
C607 C608 1.394 . S
C607 C626 1.723 . S
C608 C605 1.396 . S
C608 C607 1.394 . S
C608 C638 1.723 . S
H609 C632 0.947 . S
H610 C633 0.948 . S
H611 C639 0.982 . S
H612 C640 0.979 . S
H613 C640 0.980 . S
H614 C640 0.983 . S
H615 C639 0.979 . S
H616 C639 0.977 . S
C617 C605 1.453 . S
C617 H646 0.982 . S
C617 H647 0.979 . S
C617 H648 0.977 . S
C618 C605 1.684 . S
C618 H643 0.979 . S
C618 H644 0.980 . S
C618 H645 0.983 . S
C619 C620 1.391 . S
C619 C624 1.391 . S
C619 H649 0.948 . S
C620 C619 1.391 . S
C620 C621 1.391 . S
C621 C620 1.391 . S
C621 C622 1.392 . S
C621 H650 0.947 . S
C622 C621 1.392 . S
C622 C623 1.419 . S
C622 H651 0.948 . S
C623 C622 1.419 . S
C623 C624 1.391 . S
C623 C627 1.397 . S
C624 C619 1.391 . S
C624 C623 1.391 . S
C624 C625 1.399 . S
C625 C624 1.399 . S
C625 C626 1.396 . S
C625 C628 1.453 . S
C625 C629 1.684 . S
C626 C607 1.723 . S
C626 C625 1.396 . S
C626 C627 1.394 . S
C627 C623 1.397 . S
C627 C626 1.394 . S
C627 C637 1.723 . S
C628 C625 1.453 . S
C628 H652 0.982 . S
C628 H653 0.979 . S
C628 H654 0.977 . S
C629 C625 1.684 . S
C629 H655 0.979 . S
C629 H656 0.980 . S
C629 H657 0.983 . S
C630 H606 0.948 . S
C630 C631 1.391 . S
C630 C635 1.391 . S
C631 C630 1.391 . S
C631 C632 1.391 . S
C632 H609 0.947 . S
C632 C631 1.391 . S
C632 C633 1.392 . S
C633 H610 0.948 . S
C633 C632 1.392 . S
C633 C634 1.419 . S
C634 C633 1.419 . S
C634 C635 1.391 . S
C634 C638 1.397 . S
C635 C630 1.391 . S
C635 C634 1.391 . S
C635 C636 1.399 . S
C636 C635 1.399 . S
C636 C637 1.396 . S
C636 C639 1.453 . S
C636 C640 1.684 . S
C637 C627 1.723 . S
C637 C636 1.396 . S
C637 C638 1.394 . S
C638 C608 1.723 . S
C638 C634 1.397 . S
C638 C637 1.394 . S
C639 H611 0.982 . S
C639 H615 0.979 . S
C639 H616 0.977 . S
C639 C636 1.453 . S
C640 H612 0.979 . S
C640 H613 0.980 . S
C640 H614 0.983 . S
C640 C636 1.684 . S
H641 C659 0.948 . S
H642 C600 0.948 . S
H643 C618 0.979 . S
H644 C618 0.980 . S
H645 C618 0.983 . S
H646 C617 0.982 . S
H647 C617 0.979 . S
H648 C617 0.977 . S
H649 C619 0.948 . S
H650 C621 0.947 . S
H651 C622 0.948 . S
H652 C628 0.982 . S
H653 C628 0.979 . S
H654 C628 0.977 . S
H655 C629 0.979 . S
H656 C629 0.980 . S
H657 C629 0.983 . S
H658 C602 0.947 . S
C659 C602 1.392 . S
C659 C603 1.419 . S
C659 H641 0.948 . S
C660 C661 1.391 . S
C660 C664 1.391 . S
C660 H702 0.948 . S
C661 C660 1.391 . S
C661 C662 1.391 . S
C662 C661 1.391 . S
C662 H718 0.947 . S
C662 C719 1.392 . S
C663 C664 1.391 . S
C663 C667 1.397 . S
C663 C719 1.419 . S
C664 C660 1.391 . S
C664 C663 1.391 . S
C664 C665 1.399 . S
C665 C664 1.399 . S
C665 C668 1.396 . S
C665 C677 1.453 . S
C665 C678 1.684 . S
H666 C690 0.948 . S
C667 C663 1.397 . S
C667 C668 1.394 . S
C667 C686 1.723 . S
C668 C665 1.396 . S
C668 C667 1.394 . S
C668 C698 1.723 . S
H669 C692 0.947 . S
H670 C693 0.948 . S
H671 C699 0.982 . S
H672 C700 0.979 . S
H673 C700 0.980 . S
H674 C700 0.983 . S
H675 C699 0.979 . S
H676 C699 0.977 . S
C677 C665 1.453 . S
C677 H706 0.982 . S
C677 H707 0.979 . S
C677 H708 0.977 . S
C678 C665 1.684 . S
C678 H703 0.979 . S
C678 H704 0.980 . S
C678 H705 0.983 . S
C679 C680 1.391 . S
C679 C684 1.391 . S
C679 H709 0.948 . S
C680 C679 1.391 . S
C680 C681 1.391 . S
C681 C680 1.391 . S
C681 C682 1.392 . S
C681 H710 0.947 . S
C682 C681 1.392 . S
C682 C683 1.419 . S
C682 H711 0.948 . S
C683 C682 1.419 . S
C683 C684 1.391 . S
C683 C687 1.397 . S
C684 C679 1.391 . S
C684 C683 1.391 . S
C684 C685 1.399 . S
C685 C684 1.399 . S
C685 C686 1.396 . S
C685 C688 1.453 . S
C685 C689 1.684 . S
C686 C667 1.723 . S
C686 C685 1.396 . S
C686 C687 1.394 . S
C687 C683 1.397 . S
C687 C686 1.394 . S
C687 C697 1.723 . S
C688 C685 1.453 . S
C688 H712 0.982 . S
C688 H713 0.979 . S
C688 H714 0.977 . S
C689 C685 1.684 . S
C689 H715 0.979 . S
C689 H716 0.980 . S
C689 H717 0.983 . S
C690 H666 0.948 . S
C690 C691 1.391 . S
C690 C695 1.391 . S
C691 C690 1.391 . S
C691 C692 1.391 . S
C692 H669 0.947 . S
C692 C691 1.391 . S
C692 C693 1.392 . S
C693 H670 0.948 . S
C693 C692 1.392 . S
C693 C694 1.419 . S
C694 C693 1.419 . S
C694 C695 1.391 . S
C694 C698 1.397 . S
C695 C690 1.391 . S
C695 C694 1.391 . S
C695 C696 1.399 . S
C696 C695 1.399 . S
C696 C697 1.396 . S
C696 C699 1.453 . S
C696 C700 1.684 . S
C697 C687 1.723 . S
C697 C696 1.396 . S
C697 C698 1.394 . S
C698 C668 1.723 . S
C698 C694 1.397 . S
C698 C697 1.394 . S
C699 H671 0.982 . S
C699 H675 0.979 . S
C699 H676 0.977 . S
C699 C696 1.453 . S
C700 H672 0.979 . S
C700 H673 0.980 . S
C700 H674 0.983 . S
C700 C696 1.684 . S
H701 C719 0.948 . S
H702 C660 0.948 . S
H703 C678 0.979 . S
H704 C678 0.980 . S
H705 C678 0.983 . S
H706 C677 0.982 . S
H707 C677 0.979 . S
H708 C677 0.977 . S
H709 C679 0.948 . S
H710 C681 0.947 . S
H711 C682 0.948 . S
H712 C688 0.982 . S
H713 C688 0.979 . S
H714 C688 0.977 . S
H715 C689 0.979 . S
H716 C689 0.980 . S
H717 C689 0.983 . S
H718 C662 0.947 . S
C719 C662 1.392 . S
C719 C663 1.419 . S
C719 H701 0.948 . S
C720 C721 1.391 . S
C720 C724 1.391 . S
C720 H762 0.948 . S
C721 C720 1.391 . S
C721 C722 1.391 . S
C722 C721 1.391 . S
C722 H778 0.947 . S
C722 C779 1.392 . S
C723 C724 1.391 . S
C723 C727 1.397 . S
C723 C779 1.419 . S
C724 C720 1.391 . S
C724 C723 1.391 . S
C724 C725 1.399 . S
C725 C724 1.399 . S
C725 C728 1.396 . S
C725 C737 1.453 . S
C725 C738 1.684 . S
H726 C750 0.948 . S
C727 C723 1.397 . S
C727 C728 1.394 . S
C727 C746 1.723 . S
C728 C725 1.396 . S
C728 C727 1.394 . S
C728 C758 1.723 . S
H729 C752 0.947 . S
H730 C753 0.948 . S
H731 C759 0.982 . S
H732 C760 0.979 . S
H733 C760 0.980 . S
H734 C760 0.983 . S
H735 C759 0.979 . S
H736 C759 0.977 . S
C737 C725 1.453 . S
C737 H766 0.982 . S
C737 H767 0.979 . S
C737 H768 0.977 . S
C738 C725 1.684 . S
C738 H763 0.979 . S
C738 H764 0.980 . S
C738 H765 0.983 . S
C739 C740 1.391 . S
C739 C744 1.391 . S
C739 H769 0.948 . S
C740 C739 1.391 . S
C740 C741 1.391 . S
C741 C740 1.391 . S
C741 C742 1.392 . S
C741 H770 0.947 . S
C742 C741 1.392 . S
C742 C743 1.419 . S
C742 H771 0.948 . S
C743 C742 1.419 . S
C743 C744 1.391 . S
C743 C747 1.397 . S
C744 C739 1.391 . S
C744 C743 1.391 . S
C744 C745 1.399 . S
C745 C744 1.399 . S
C745 C746 1.396 . S
C745 C748 1.453 . S
C745 C749 1.684 . S
C746 C727 1.723 . S
C746 C745 1.396 . S
C746 C747 1.394 . S
C747 C743 1.397 . S
C747 C746 1.394 . S
C747 C757 1.723 . S
C748 C745 1.453 . S
C748 H772 0.982 . S
C748 H773 0.979 . S
C748 H774 0.977 . S
C749 C745 1.684 . S
C749 H775 0.979 . S
C749 H776 0.980 . S
C749 H777 0.983 . S
C750 H726 0.948 . S
C750 C751 1.391 . S
C750 C755 1.391 . S
C751 C750 1.391 . S
C751 C752 1.391 . S
C752 H729 0.947 . S
C752 C751 1.391 . S
C752 C753 1.392 . S
C753 H730 0.948 . S
C753 C752 1.392 . S
C753 C754 1.419 . S
C754 C753 1.419 . S
C754 C755 1.391 . S
C754 C758 1.397 . S
C755 C750 1.391 . S
C755 C754 1.391 . S
C755 C756 1.399 . S
C756 C755 1.399 . S
C756 C757 1.396 . S
C756 C759 1.453 . S
C756 C760 1.684 . S
C757 C747 1.723 . S
C757 C756 1.396 . S
C757 C758 1.394 . S
C758 C728 1.723 . S
C758 C754 1.397 . S
C758 C757 1.394 . S
C759 H731 0.982 . S
C759 H735 0.979 . S
C759 H736 0.977 . S
C759 C756 1.453 . S
C760 H732 0.979 . S
C760 H733 0.980 . S
C760 H734 0.983 . S
C760 C756 1.684 . S
H761 C779 0.948 . S
H762 C720 0.948 . S
H763 C738 0.979 . S
H764 C738 0.980 . S
H765 C738 0.983 . S
H766 C737 0.982 . S
H767 C737 0.979 . S
H768 C737 0.977 . S
H769 C739 0.948 . S
H770 C741 0.947 . S
H771 C742 0.948 . S
H772 C748 0.982 . S
H773 C748 0.979 . S
H774 C748 0.977 . S
H775 C749 0.979 . S
H776 C749 0.980 . S
H777 C749 0.983 . S
H778 C722 0.947 . S
C779 C722 1.392 . S
C779 C723 1.419 . S
C779 H761 0.948 . S
C780 C781 1.391 . S
C780 C784 1.391 . S
C780 H822 0.948 . S
C781 C780 1.391 . S
C781 C782 1.391 . S
C782 C781 1.391 . S
C782 H838 0.947 . S
C782 C839 1.392 . S
C783 C784 1.391 . S
C783 C787 1.397 . S
C783 C839 1.419 . S
C784 C780 1.391 . S
C784 C783 1.391 . S
C784 C785 1.399 . S
C785 C784 1.399 . S
C785 C788 1.396 . S
C785 C797 1.453 . S
C785 C798 1.684 . S
H786 C810 0.948 . S
C787 C783 1.397 . S
C787 C788 1.394 . S
C787 C806 1.723 . S
C788 C785 1.396 . S
C788 C787 1.394 . S
C788 C818 1.723 . S
H789 C812 0.947 . S
H790 C813 0.948 . S
H791 C819 0.982 . S
H792 C820 0.979 . S
H793 C820 0.980 . S
H794 C820 0.983 . S
H795 C819 0.979 . S
H796 C819 0.977 . S
C797 C785 1.453 . S
C797 H826 0.982 . S
C797 H827 0.979 . S
C797 H828 0.977 . S
C798 C785 1.684 . S
C798 H823 0.979 . S
C798 H824 0.980 . S
C798 H825 0.983 . S
C799 C800 1.391 . S
C799 C804 1.391 . S
C799 H829 0.948 . S
C800 C799 1.391 . S
C800 C801 1.391 . S
C801 C800 1.391 . S
C801 C802 1.392 . S
C801 H830 0.947 . S
C802 C801 1.392 . S
C802 C803 1.419 . S
C802 H831 0.948 . S
C803 C802 1.419 . S
C803 C804 1.391 . S
C803 C807 1.397 . S
C804 C799 1.391 . S
C804 C803 1.391 . S
C804 C805 1.399 . S
C805 C804 1.399 . S
C805 C806 1.396 . S
C805 C808 1.453 . S
C805 C809 1.684 . S
C806 C787 1.723 . S
C806 C805 1.396 . S
C806 C807 1.394 . S
C807 C803 1.397 . S
C807 C806 1.394 . S
C807 C817 1.723 . S
C808 C805 1.453 . S
C808 H832 0.982 . S
C808 H833 0.979 . S
C808 H834 0.977 . S
C809 C805 1.684 . S
C809 H835 0.979 . S
C809 H836 0.980 . S
C809 H837 0.983 . S
C810 H786 0.948 . S
C810 C811 1.391 . S
C810 C815 1.391 . S
C811 C810 1.391 . S
C811 C812 1.391 . S
C812 H789 0.947 . S
C812 C811 1.391 . S
C812 C813 1.392 . S
C813 H790 0.948 . S
C813 C812 1.392 . S
C813 C814 1.419 . S
C814 C813 1.419 . S
C814 C815 1.391 . S
C814 C818 1.397 . S
C815 C810 1.391 . S
C815 C814 1.391 . S
C815 C816 1.399 . S
C816 C815 1.399 . S
C816 C817 1.396 . S
C816 C819 1.453 . S
C816 C820 1.684 . S
C817 C807 1.723 . S
C817 C816 1.396 . S
C817 C818 1.394 . S
C818 C788 1.723 . S
C818 C814 1.397 . S
C818 C817 1.394 . S
C819 H791 0.982 . S
C819 H795 0.979 . S
C819 H796 0.977 . S
C819 C816 1.453 . S
C820 H792 0.979 . S
C820 H793 0.980 . S
C820 H794 0.983 . S
C820 C816 1.684 . S
H821 C839 0.948 . S
H822 C780 0.948 . S
H823 C798 0.979 . S
H824 C798 0.980 . S
H825 C798 0.983 . S
H826 C797 0.982 . S
H827 C797 0.979 . S
H828 C797 0.977 . S
H829 C799 0.948 . S
H830 C801 0.947 . S
H831 C802 0.948 . S
H832 C808 0.982 . S
H833 C808 0.979 . S
H834 C808 0.977 . S
H835 C809 0.979 . S
H836 C809 0.980 . S
H837 C809 0.983 . S
H838 C782 0.947 . S
C839 C782 1.392 . S
C839 C783 1.419 . S
C839 H821 0.948 . S
C840 C841 1.391 . S
C840 C844 1.391 . S
C840 H882 0.948 . S
C841 C840 1.391 . S
C841 C842 1.391 . S
C842 C841 1.391 . S
C842 H898 0.947 . S
C842 C899 1.392 . S
C843 C844 1.391 . S
C843 C847 1.397 . S
C843 C899 1.419 . S
C844 C840 1.391 . S
C844 C843 1.391 . S
C844 C845 1.399 . S
C845 C844 1.399 . S
C845 C848 1.396 . S
C845 C857 1.453 . S
C845 C858 1.684 . S
H846 C870 0.948 . S
C847 C843 1.397 . S
C847 C848 1.394 . S
C847 C866 1.723 . S
C848 C845 1.396 . S
C848 C847 1.394 . S
C848 C878 1.723 . S
H849 C872 0.947 . S
H850 C873 0.948 . S
H851 C879 0.982 . S
H852 C880 0.979 . S
H853 C880 0.980 . S
H854 C880 0.983 . S
H855 C879 0.979 . S
H856 C879 0.977 . S
C857 C845 1.453 . S
C857 H886 0.982 . S
C857 H887 0.979 . S
C857 H888 0.977 . S
C858 C845 1.684 . S
C858 H883 0.979 . S
C858 H884 0.980 . S
C858 H885 0.983 . S
C859 C860 1.391 . S
C859 C864 1.391 . S
C859 H889 0.948 . S
C860 C859 1.391 . S
C860 C861 1.391 . S
C861 C860 1.391 . S
C861 C862 1.392 . S
C861 H890 0.947 . S
C862 C861 1.392 . S
C862 C863 1.419 . S
C862 H891 0.948 . S
C863 C862 1.419 . S
C863 C864 1.391 . S
C863 C867 1.397 . S
C864 C859 1.391 . S
C864 C863 1.391 . S
C864 C865 1.399 . S
C865 C864 1.399 . S
C865 C866 1.396 . S
C865 C868 1.453 . S
C865 C869 1.684 . S
C866 C847 1.723 . S
C866 C865 1.396 . S
C866 C867 1.394 . S
C867 C863 1.397 . S
C867 C866 1.394 . S
C867 C877 1.723 . S
C868 C865 1.453 . S
C868 H892 0.982 . S
C868 H893 0.979 . S
C868 H894 0.977 . S
C869 C865 1.684 . S
C869 H895 0.979 . S
C869 H896 0.980 . S
C869 H897 0.983 . S
C870 H846 0.948 . S
C870 C871 1.391 . S
C870 C875 1.391 . S
C871 C870 1.391 . S
C871 C872 1.391 . S
C872 H849 0.947 . S
C872 C871 1.391 . S
C872 C873 1.392 . S
C873 H850 0.948 . S
C873 C872 1.392 . S
C873 C874 1.419 . S
C874 C873 1.419 . S
C874 C875 1.391 . S
C874 C878 1.397 . S
C875 C870 1.391 . S
C875 C874 1.391 . S
C875 C876 1.399 . S
C876 C875 1.399 . S
C876 C877 1.396 . S
C876 C879 1.453 . S
C876 C880 1.684 . S
C877 C867 1.723 . S
C877 C876 1.396 . S
C877 C878 1.394 . S
C878 C848 1.723 . S
C878 C874 1.397 . S
C878 C877 1.394 . S
C879 H851 0.982 . S
C879 H855 0.979 . S
C879 H856 0.977 . S
C879 C876 1.453 . S
C880 H852 0.979 . S
C880 H853 0.980 . S
C880 H854 0.983 . S
C880 C876 1.684 . S
H881 C899 0.948 . S
H882 C840 0.948 . S
H883 C858 0.979 . S
H884 C858 0.980 . S
H885 C858 0.983 . S
H886 C857 0.982 . S
H887 C857 0.979 . S
H888 C857 0.977 . S
H889 C859 0.948 . S
H890 C861 0.947 . S
H891 C862 0.948 . S
H892 C868 0.982 . S
H893 C868 0.979 . S
H894 C868 0.977 . S
H895 C869 0.979 . S
H896 C869 0.980 . S
H897 C869 0.983 . S
H898 C842 0.947 . S
C899 C842 1.392 . S
C899 C843 1.419 . S
C899 H881 0.948 . S
C900 C901 1.391 . S
C900 C904 1.391 . S
C900 H942 0.948 . S
C901 C900 1.391 . S
C901 C902 1.391 . S
C902 C901 1.391 . S
C902 H958 0.947 . S
C902 C959 1.392 . S
C903 C904 1.391 . S
C903 C907 1.397 . S
C903 C959 1.419 . S
C904 C900 1.391 . S
C904 C903 1.391 . S
C904 C905 1.399 . S
C905 C904 1.399 . S
C905 C908 1.396 . S
C905 C917 1.453 . S
C905 C918 1.684 . S
H906 C930 0.948 . S
C907 C903 1.397 . S
C907 C908 1.394 . S
C907 C926 1.723 . S
C908 C905 1.396 . S
C908 C907 1.394 . S
C908 C938 1.723 . S
H909 C932 0.947 . S
H910 C933 0.948 . S
H911 C939 0.982 . S
H912 C940 0.979 . S
H913 C940 0.980 . S
H914 C940 0.983 . S
H915 C939 0.979 . S
H916 C939 0.977 . S
C917 C905 1.453 . S
C917 H946 0.982 . S
C917 H947 0.979 . S
C917 H948 0.977 . S
C918 C905 1.684 . S
C918 H943 0.979 . S
C918 H944 0.980 . S
C918 H945 0.983 . S
C919 C920 1.391 . S
C919 C924 1.391 . S
C919 H949 0.948 . S
C920 C919 1.391 . S
C920 C921 1.391 . S
C921 C920 1.391 . S
C921 C922 1.392 . S
C921 H950 0.947 . S
C922 C921 1.392 . S
C922 C923 1.419 . S
C922 H951 0.948 . S
C923 C922 1.419 . S
C923 C924 1.391 . S
C923 C927 1.397 . S
C924 C919 1.391 . S
C924 C923 1.391 . S
C924 C925 1.399 . S
C925 C924 1.399 . S
C925 C926 1.396 . S
C925 C928 1.453 . S
C925 C929 1.684 . S
C926 C907 1.723 . S
C926 C925 1.396 . S
C926 C927 1.394 . S
C927 C923 1.397 . S
C927 C926 1.394 . S
C927 C937 1.723 . S
C928 C925 1.453 . S
C928 H952 0.982 . S
C928 H953 0.979 . S
C928 H954 0.977 . S
C929 C925 1.684 . S
C929 H955 0.979 . S
C929 H956 0.980 . S
C929 H957 0.983 . S
C930 H906 0.948 . S
C930 C931 1.391 . S
C930 C935 1.391 . S
C931 C930 1.391 . S
C931 C932 1.391 . S
C932 H909 0.947 . S
C932 C931 1.391 . S
C932 C933 1.392 . S
C933 H910 0.948 . S
C933 C932 1.392 . S
C933 C934 1.419 . S
C934 C933 1.419 . S
C934 C935 1.391 . S
C934 C938 1.397 . S
C935 C930 1.391 . S
C935 C934 1.391 . S
C935 C936 1.399 . S
C936 C935 1.399 . S
C936 C937 1.396 . S
C936 C939 1.453 . S
C936 C940 1.684 . S
C937 C927 1.723 . S
C937 C936 1.396 . S
C937 C938 1.394 . S
C938 C908 1.723 . S
C938 C934 1.397 . S
C938 C937 1.394 . S
C939 H911 0.982 . S
C939 H915 0.979 . S
C939 H916 0.977 . S
C939 C936 1.453 . S
C940 H912 0.979 . S
C940 H913 0.980 . S
C940 H914 0.983 . S
C940 C936 1.684 . S
H941 C959 0.948 . S
H942 C900 0.948 . S
H943 C918 0.979 . S
H944 C918 0.980 . S
H945 C918 0.983 . S
H946 C917 0.982 . S
H947 C917 0.979 . S
H948 C917 0.977 . S
H949 C919 0.948 . S
H950 C921 0.947 . S
H951 C922 0.948 . S
H952 C928 0.982 . S
H953 C928 0.979 . S
H954 C928 0.977 . S
H955 C929 0.979 . S
H956 C929 0.980 . S
H957 C929 0.983 . S
H958 C902 0.947 . S
C959 C902 1.392 . S
C959 C903 1.419 . S
C959 H941 0.948 . S
C960 C961 1.391 . S
C960 C964 1.391 . S
C960 H1002 0.948 . S
C961 C960 1.391 . S
C961 C962 1.391 . S
C962 C961 1.391 . S
C962 H1018 0.947 . S
C962 C1019 1.392 . S
C963 C964 1.391 . S
C963 C967 1.397 . S
C963 C1019 1.419 . S
C964 C960 1.391 . S
C964 C963 1.391 . S
C964 C965 1.399 . S
C965 C964 1.399 . S
C965 C968 1.396 . S
C965 C977 1.453 . S
C965 C978 1.684 . S
H966 C990 0.948 . S
C967 C963 1.397 . S
C967 C968 1.394 . S
C967 C986 1.723 . S
C968 C965 1.396 . S
C968 C967 1.394 . S
C968 C998 1.723 . S
H969 C992 0.947 . S
H970 C993 0.948 . S
H971 C999 0.982 . S
H972 C1000 0.979 . S
H973 C1000 0.980 . S
H974 C1000 0.983 . S
H975 C999 0.979 . S
H976 C999 0.977 . S
C977 C965 1.453 . S
C977 H1006 0.982 . S
C977 H1007 0.979 . S
C977 H1008 0.977 . S
C978 C965 1.684 . S
C978 H1003 0.979 . S
C978 H1004 0.980 . S
C978 H1005 0.983 . S
C979 C980 1.391 . S
C979 C984 1.391 . S
C979 H1009 0.948 . S
C980 C979 1.391 . S
C980 C981 1.391 . S
C981 C980 1.391 . S
C981 C982 1.392 . S
C981 H1010 0.947 . S
C982 C981 1.392 . S
C982 C983 1.419 . S
C982 H1011 0.948 . S
C983 C982 1.419 . S
C983 C984 1.391 . S
C983 C987 1.397 . S
C984 C979 1.391 . S
C984 C983 1.391 . S
C984 C985 1.399 . S
C985 C984 1.399 . S
C985 C986 1.396 . S
C985 C988 1.453 . S
C985 C989 1.684 . S
C986 C967 1.723 . S
C986 C985 1.396 . S
C986 C987 1.394 . S
C987 C983 1.397 . S
C987 C986 1.394 . S
C987 C997 1.723 . S
C988 C985 1.453 . S
C988 H1012 0.982 . S
C988 H1013 0.979 . S
C988 H1014 0.977 . S
C989 C985 1.684 . S
C989 H1015 0.979 . S
C989 H1016 0.980 . S
C989 H1017 0.983 . S
C990 H966 0.948 . S
C990 C991 1.391 . S
C990 C995 1.391 . S
C991 C990 1.391 . S
C991 C992 1.391 . S
C992 H969 0.947 . S
C992 C991 1.391 . S
C992 C993 1.392 . S
C993 H970 0.948 . S
C993 C992 1.392 . S
C993 C994 1.419 . S
C994 C993 1.419 . S
C994 C995 1.391 . S
C994 C998 1.397 . S
C995 C990 1.391 . S
C995 C994 1.391 . S
C995 C996 1.399 . S
C996 C995 1.399 . S
C996 C997 1.396 . S
C996 C999 1.453 . S
C996 C1000 1.684 . S
C997 C987 1.723 . S
C997 C996 1.396 . S
C997 C998 1.394 . S
C998 C968 1.723 . S
C998 C994 1.397 . S
C998 C997 1.394 . S
C999 H971 0.982 . S
C999 H975 0.979 . S
C999 H976 0.977 . S
C999 C996 1.453 . S
C1000 H972 0.979 . S
C1000 H973 0.980 . S
C1000 H974 0.983 . S
C1000 C996 1.684 . S
H1001 C1019 0.948 . S
H1002 C960 0.948 . S
H1003 C978 0.979 . S
H1004 C978 0.980 . S
H1005 C978 0.983 . S
H1006 C977 0.982 . S
H1007 C977 0.979 . S
H1008 C977 0.977 . S
H1009 C979 0.948 . S
H1010 C981 0.947 . S
H1011 C982 0.948 . S
H1012 C988 0.982 . S
H1013 C988 0.979 . S
H1014 C988 0.977 . S
H1015 C989 0.979 . S
H1016 C989 0.980 . S
H1017 C989 0.983 . S
H1018 C962 0.947 . S
C1019 C962 1.392 . S
C1019 C963 1.419 . S
C1019 H1001 0.948 . S
C1020 C1021 1.391 . S
C1020 C1024 1.391 . S
C1020 H1062 0.948 . S
C1021 C1020 1.391 . S
C1021 C1022 1.391 . S
C1022 C1021 1.391 . S
C1022 H1078 0.947 . S
C1022 C1079 1.392 . S
C1023 C1024 1.391 . S
C1023 C1027 1.397 . S
C1023 C1079 1.419 . S
C1024 C1020 1.391 . S
C1024 C1023 1.391 . S
C1024 C1025 1.399 . S
C1025 C1024 1.399 . S
C1025 C1028 1.396 . S
C1025 C1037 1.453 . S
C1025 C1038 1.684 . S
H1026 C1050 0.948 . S
C1027 C1023 1.397 . S
C1027 C1028 1.394 . S
C1027 C1046 1.723 . S
C1028 C1025 1.396 . S
C1028 C1027 1.394 . S
C1028 C1058 1.723 . S
H1029 C1052 0.947 . S
H1030 C1053 0.948 . S
H1031 C1059 0.982 . S
H1032 C1060 0.979 . S
H1033 C1060 0.980 . S
H1034 C1060 0.983 . S
H1035 C1059 0.979 . S
H1036 C1059 0.977 . S
C1037 C1025 1.453 . S
C1037 H1066 0.982 . S
C1037 H1067 0.979 . S
C1037 H1068 0.977 . S
C1038 C1025 1.684 . S
C1038 H1063 0.979 . S
C1038 H1064 0.980 . S
C1038 H1065 0.983 . S
C1039 C1040 1.391 . S
C1039 C1044 1.391 . S
C1039 H1069 0.948 . S
C1040 C1039 1.391 . S
C1040 C1041 1.391 . S
C1041 C1040 1.391 . S
C1041 C1042 1.392 . S
C1041 H1070 0.947 . S
C1042 C1041 1.392 . S
C1042 C1043 1.419 . S
C1042 H1071 0.948 . S
C1043 C1042 1.419 . S
C1043 C1044 1.391 . S
C1043 C1047 1.397 . S
C1044 C1039 1.391 . S
C1044 C1043 1.391 . S
C1044 C1045 1.399 . S
C1045 C1044 1.399 . S
C1045 C1046 1.396 . S
C1045 C1048 1.453 . S
C1045 C1049 1.684 . S
C1046 C1027 1.723 . S
C1046 C1045 1.396 . S
C1046 C1047 1.394 . S
C1047 C1043 1.397 . S
C1047 C1046 1.394 . S
C1047 C1057 1.723 . S
C1048 C1045 1.453 . S
C1048 H1072 0.982 . S
C1048 H1073 0.979 . S
C1048 H1074 0.977 . S
C1049 C1045 1.684 . S
C1049 H1075 0.979 . S
C1049 H1076 0.980 . S
C1049 H1077 0.983 . S
C1050 H1026 0.948 . S
C1050 C1051 1.391 . S
C1050 C1055 1.391 . S
C1051 C1050 1.391 . S
C1051 C1052 1.391 . S
C1052 H1029 0.947 . S
C1052 C1051 1.391 . S
C1052 C1053 1.392 . S
C1053 H1030 0.948 . S
C1053 C1052 1.392 . S
C1053 C1054 1.419 . S
C1054 C1053 1.419 . S
C1054 C1055 1.391 . S
C1054 C1058 1.397 . S
C1055 C1050 1.391 . S
C1055 C1054 1.391 . S
C1055 C1056 1.399 . S
C1056 C1055 1.399 . S
C1056 C1057 1.396 . S
C1056 C1059 1.453 . S
C1056 C1060 1.684 . S
C1057 C1047 1.723 . S
C1057 C1056 1.396 . S
C1057 C1058 1.394 . S
C1058 C1028 1.723 . S
C1058 C1054 1.397 . S
C1058 C1057 1.394 . S
C1059 H1031 0.982 . S
C1059 H1035 0.979 . S
C1059 H1036 0.977 . S
C1059 C1056 1.453 . S
C1060 H1032 0.979 . S
C1060 H1033 0.980 . S
C1060 H1034 0.983 . S
C1060 C1056 1.684 . S
H1061 C1079 0.948 . S
H1062 C1020 0.948 . S
H1063 C1038 0.979 . S
H1064 C1038 0.980 . S
H1065 C1038 0.983 . S
H1066 C1037 0.982 . S
H1067 C1037 0.979 . S
H1068 C1037 0.977 . S
H1069 C1039 0.948 . S
H1070 C1041 0.947 . S
H1071 C1042 0.948 . S
H1072 C1048 0.982 . S
H1073 C1048 0.979 . S
H1074 C1048 0.977 . S
H1075 C1049 0.979 . S
H1076 C1049 0.980 . S
H1077 C1049 0.983 . S
H1078 C1022 0.947 . S
C1079 C1022 1.392 . S
C1079 C1023 1.419 . S
C1079 H1061 0.948 . S
C1080 C1081 1.391 . S
C1080 C1084 1.391 . S
C1080 H1122 0.948 . S
C1081 C1080 1.391 . S
C1081 C1082 1.391 . S
C1082 C1081 1.391 . S
C1082 H1138 0.947 . S
C1082 C1139 1.392 . S
C1083 C1084 1.391 . S
C1083 C1087 1.397 . S
C1083 C1139 1.419 . S
C1084 C1080 1.391 . S
C1084 C1083 1.391 . S
C1084 C1085 1.399 . S
C1085 C1084 1.399 . S
C1085 C1088 1.396 . S
C1085 C1097 1.453 . S
C1085 C1098 1.684 . S
H1086 C1110 0.948 . S
C1087 C1083 1.397 . S
C1087 C1088 1.394 . S
C1087 C1106 1.723 . S
C1088 C1085 1.396 . S
C1088 C1087 1.394 . S
C1088 C1118 1.723 . S
H1089 C1112 0.947 . S
H1090 C1113 0.948 . S
H1091 C1119 0.982 . S
H1092 C1120 0.979 . S
H1093 C1120 0.980 . S
H1094 C1120 0.983 . S
H1095 C1119 0.979 . S
H1096 C1119 0.977 . S
C1097 C1085 1.453 . S
C1097 H1126 0.982 . S
C1097 H1127 0.979 . S
C1097 H1128 0.977 . S
C1098 C1085 1.684 . S
C1098 H1123 0.979 . S
C1098 H1124 0.980 . S
C1098 H1125 0.983 . S
C1099 C1100 1.391 . S
C1099 C1104 1.391 . S
C1099 H1129 0.948 . S
C1100 C1099 1.391 . S
C1100 C1101 1.391 . S
C1101 C1100 1.391 . S
C1101 C1102 1.392 . S
C1101 H1130 0.947 . S
C1102 C1101 1.392 . S
C1102 C1103 1.419 . S
C1102 H1131 0.948 . S
C1103 C1102 1.419 . S
C1103 C1104 1.391 . S
C1103 C1107 1.397 . S
C1104 C1099 1.391 . S
C1104 C1103 1.391 . S
C1104 C1105 1.399 . S
C1105 C1104 1.399 . S
C1105 C1106 1.396 . S
C1105 C1108 1.453 . S
C1105 C1109 1.684 . S
C1106 C1087 1.723 . S
C1106 C1105 1.396 . S
C1106 C1107 1.394 . S
C1107 C1103 1.397 . S
C1107 C1106 1.394 . S
C1107 C1117 1.723 . S
C1108 C1105 1.453 . S
C1108 H1132 0.982 . S
C1108 H1133 0.979 . S
C1108 H1134 0.977 . S
C1109 C1105 1.684 . S
C1109 H1135 0.979 . S
C1109 H1136 0.980 . S
C1109 H1137 0.983 . S
C1110 H1086 0.948 . S
C1110 C1111 1.391 . S
C1110 C1115 1.391 . S
C1111 C1110 1.391 . S
C1111 C1112 1.391 . S
C1112 H1089 0.947 . S
C1112 C1111 1.391 . S
C1112 C1113 1.392 . S
C1113 H1090 0.948 . S
C1113 C1112 1.392 . S
C1113 C1114 1.419 . S
C1114 C1113 1.419 . S
C1114 C1115 1.391 . S
C1114 C1118 1.397 . S
C1115 C1110 1.391 . S
C1115 C1114 1.391 . S
C1115 C1116 1.399 . S
C1116 C1115 1.399 . S
C1116 C1117 1.396 . S
C1116 C1119 1.453 . S
C1116 C1120 1.684 . S
C1117 C1107 1.723 . S
C1117 C1116 1.396 . S
C1117 C1118 1.394 . S
C1118 C1088 1.723 . S
C1118 C1114 1.397 . S
C1118 C1117 1.394 . S
C1119 H1091 0.982 . S
C1119 H1095 0.979 . S
C1119 H1096 0.977 . S
C1119 C1116 1.453 . S
C1120 H1092 0.979 . S
C1120 H1093 0.980 . S
C1120 H1094 0.983 . S
C1120 C1116 1.684 . S
H1121 C1139 0.948 . S
H1122 C1080 0.948 . S
H1123 C1098 0.979 . S
H1124 C1098 0.980 . S
H1125 C1098 0.983 . S
H1126 C1097 0.982 . S
H1127 C1097 0.979 . S
H1128 C1097 0.977 . S
H1129 C1099 0.948 . S
H1130 C1101 0.947 . S
H1131 C1102 0.948 . S
H1132 C1108 0.982 . S
H1133 C1108 0.979 . S
H1134 C1108 0.977 . S
H1135 C1109 0.979 . S
H1136 C1109 0.980 . S
H1137 C1109 0.983 . S
H1138 C1082 0.947 . S
C1139 C1082 1.392 . S
C1139 C1083 1.419 . S
C1139 H1121 0.948 . S
C1140 C1141 1.391 . S
C1140 C1144 1.391 . S
C1140 H1182 0.948 . S
C1141 C1140 1.391 . S
C1141 C1142 1.391 . S
C1142 C1141 1.391 . S
C1142 H1198 0.947 . S
C1142 C1199 1.392 . S
C1143 C1144 1.391 . S
C1143 C1147 1.397 . S
C1143 C1199 1.419 . S
C1144 C1140 1.391 . S
C1144 C1143 1.391 . S
C1144 C1145 1.399 . S
C1145 C1144 1.399 . S
C1145 C1148 1.396 . S
C1145 C1157 1.453 . S
C1145 C1158 1.684 . S
H1146 C1170 0.948 . S
C1147 C1143 1.397 . S
C1147 C1148 1.394 . S
C1147 C1166 1.723 . S
C1148 C1145 1.396 . S
C1148 C1147 1.394 . S
C1148 C1178 1.723 . S
H1149 C1172 0.947 . S
H1150 C1173 0.948 . S
H1151 C1179 0.982 . S
H1152 C1180 0.979 . S
H1153 C1180 0.980 . S
H1154 C1180 0.983 . S
H1155 C1179 0.979 . S
H1156 C1179 0.977 . S
C1157 C1145 1.453 . S
C1157 H1186 0.982 . S
C1157 H1187 0.979 . S
C1157 H1188 0.977 . S
C1158 C1145 1.684 . S
C1158 H1183 0.979 . S
C1158 H1184 0.980 . S
C1158 H1185 0.983 . S
C1159 C1160 1.391 . S
C1159 C1164 1.391 . S
C1159 H1189 0.948 . S
C1160 C1159 1.391 . S
C1160 C1161 1.391 . S
C1161 C1160 1.391 . S
C1161 C1162 1.392 . S
C1161 H1190 0.947 . S
C1162 C1161 1.392 . S
C1162 C1163 1.419 . S
C1162 H1191 0.948 . S
C1163 C1162 1.419 . S
C1163 C1164 1.391 . S
C1163 C1167 1.397 . S
C1164 C1159 1.391 . S
C1164 C1163 1.391 . S
C1164 C1165 1.399 . S
C1165 C1164 1.399 . S
C1165 C1166 1.396 . S
C1165 C1168 1.453 . S
C1165 C1169 1.684 . S
C1166 C1147 1.723 . S
C1166 C1165 1.396 . S
C1166 C1167 1.394 . S
C1167 C1163 1.397 . S
C1167 C1166 1.394 . S
C1167 C1177 1.723 . S
C1168 C1165 1.453 . S
C1168 H1192 0.982 . S
C1168 H1193 0.979 . S
C1168 H1194 0.977 . S
C1169 C1165 1.684 . S
C1169 H1195 0.979 . S
C1169 H1196 0.980 . S
C1169 H1197 0.983 . S
C1170 H1146 0.948 . S
C1170 C1171 1.391 . S
C1170 C1175 1.391 . S
C1171 C1170 1.391 . S
C1171 C1172 1.391 . S
C1172 H1149 0.947 . S
C1172 C1171 1.391 . S
C1172 C1173 1.392 . S
C1173 H1150 0.948 . S
C1173 C1172 1.392 . S
C1173 C1174 1.419 . S
C1174 C1173 1.419 . S
C1174 C1175 1.391 . S
C1174 C1178 1.397 . S
C1175 C1170 1.391 . S
C1175 C1174 1.391 . S
C1175 C1176 1.399 . S
C1176 C1175 1.399 . S
C1176 C1177 1.396 . S
C1176 C1179 1.453 . S
C1176 C1180 1.684 . S
C1177 C1167 1.723 . S
C1177 C1176 1.396 . S
C1177 C1178 1.394 . S
C1178 C1148 1.723 . S
C1178 C1174 1.397 . S
C1178 C1177 1.394 . S
C1179 H1151 0.982 . S
C1179 H1155 0.979 . S
C1179 H1156 0.977 . S
C1179 C1176 1.453 . S
C1180 H1152 0.979 . S
C1180 H1153 0.980 . S
C1180 H1154 0.983 . S
C1180 C1176 1.684 . S
H1181 C1199 0.948 . S
H1182 C1140 0.948 . S
H1183 C1158 0.979 . S
H1184 C1158 0.980 . S
H1185 C1158 0.983 . S
H1186 C1157 0.982 . S
H1187 C1157 0.979 . S
H1188 C1157 0.977 . S
H1189 C1159 0.948 . S
H1190 C1161 0.947 . S
H1191 C1162 0.948 . S
H1192 C1168 0.982 . S
H1193 C1168 0.979 . S
H1194 C1168 0.977 . S
H1195 C1169 0.979 . S
H1196 C1169 0.980 . S
H1197 C1169 0.983 . S
H1198 C1142 0.947 . S
C1199 C1142 1.392 . S
C1199 C1143 1.419 . S
C1199 H1181 0.948 . S
C1200 C1201 1.391 . S
C1200 C1204 1.391 . S
C1200 H1242 0.948 . S
C1201 C1200 1.391 . S
C1201 C1202 1.391 . S
C1202 C1201 1.391 . S
C1202 H1258 0.947 . S
C1202 C1259 1.392 . S
C1203 C1204 1.391 . S
C1203 C1207 1.397 . S
C1203 C1259 1.419 . S
C1204 C1200 1.391 . S
C1204 C1203 1.391 . S
C1204 C1205 1.399 . S
C1205 C1204 1.399 . S
C1205 C1208 1.396 . S
C1205 C1217 1.453 . S
C1205 C1218 1.684 . S
H1206 C1230 0.948 . S
C1207 C1203 1.397 . S
C1207 C1208 1.394 . S
C1207 C1226 1.723 . S
C1208 C1205 1.396 . S
C1208 C1207 1.394 . S
C1208 C1238 1.723 . S
H1209 C1232 0.947 . S
H1210 C1233 0.948 . S
H1211 C1239 0.982 . S
H1212 C1240 0.979 . S
H1213 C1240 0.980 . S
H1214 C1240 0.983 . S
H1215 C1239 0.979 . S
H1216 C1239 0.977 . S
C1217 C1205 1.453 . S
C1217 H1246 0.982 . S
C1217 H1247 0.979 . S
C1217 H1248 0.977 . S
C1218 C1205 1.684 . S
C1218 H1243 0.979 . S
C1218 H1244 0.980 . S
C1218 H1245 0.983 . S
C1219 C1220 1.391 . S
C1219 C1224 1.391 . S
C1219 H1249 0.948 . S
C1220 C1219 1.391 . S
C1220 C1221 1.391 . S
C1221 C1220 1.391 . S
C1221 C1222 1.392 . S
C1221 H1250 0.947 . S
C1222 C1221 1.392 . S
C1222 C1223 1.419 . S
C1222 H1251 0.948 . S
C1223 C1222 1.419 . S
C1223 C1224 1.391 . S
C1223 C1227 1.397 . S
C1224 C1219 1.391 . S
C1224 C1223 1.391 . S
C1224 C1225 1.399 . S
C1225 C1224 1.399 . S
C1225 C1226 1.396 . S
C1225 C1228 1.453 . S
C1225 C1229 1.684 . S
C1226 C1207 1.723 . S
C1226 C1225 1.396 . S
C1226 C1227 1.394 . S
C1227 C1223 1.397 . S
C1227 C1226 1.394 . S
C1227 C1237 1.723 . S
C1228 C1225 1.453 . S
C1228 H1252 0.982 . S
C1228 H1253 0.979 . S
C1228 H1254 0.977 . S
C1229 C1225 1.684 . S
C1229 H1255 0.979 . S
C1229 H1256 0.980 . S
C1229 H1257 0.983 . S
C1230 H1206 0.948 . S
C1230 C1231 1.391 . S
C1230 C1235 1.391 . S
C1231 C1230 1.391 . S
C1231 C1232 1.391 . S
C1232 H1209 0.947 . S
C1232 C1231 1.391 . S
C1232 C1233 1.392 . S
C1233 H1210 0.948 . S
C1233 C1232 1.392 . S
C1233 C1234 1.419 . S
C1234 C1233 1.419 . S
C1234 C1235 1.391 . S
C1234 C1238 1.397 . S
C1235 C1230 1.391 . S
C1235 C1234 1.391 . S
C1235 C1236 1.399 . S
C1236 C1235 1.399 . S
C1236 C1237 1.396 . S
C1236 C1239 1.453 . S
C1236 C1240 1.684 . S
C1237 C1227 1.723 . S
C1237 C1236 1.396 . S
C1237 C1238 1.394 . S
C1238 C1208 1.723 . S
C1238 C1234 1.397 . S
C1238 C1237 1.394 . S
C1239 H1211 0.982 . S
C1239 H1215 0.979 . S
C1239 H1216 0.977 . S
C1239 C1236 1.453 . S
C1240 H1212 0.979 . S
C1240 H1213 0.980 . S
C1240 H1214 0.983 . S
C1240 C1236 1.684 . S
H1241 C1259 0.948 . S
H1242 C1200 0.948 . S
H1243 C1218 0.979 . S
H1244 C1218 0.980 . S
H1245 C1218 0.983 . S
H1246 C1217 0.982 . S
H1247 C1217 0.979 . S
H1248 C1217 0.977 . S
H1249 C1219 0.948 . S
H1250 C1221 0.947 . S
H1251 C1222 0.948 . S
H1252 C1228 0.982 . S
H1253 C1228 0.979 . S
H1254 C1228 0.977 . S
H1255 C1229 0.979 . S
H1256 C1229 0.980 . S
H1257 C1229 0.983 . S
H1258 C1202 0.947 . S
C1259 C1202 1.392 . S
C1259 C1203 1.419 . S
C1259 H1241 0.948 . S
C1260 C1261 1.391 . S
C1260 C1264 1.391 . S
C1260 H1302 0.948 . S
C1261 C1260 1.391 . S
C1261 C1262 1.391 . S
C1262 C1261 1.391 . S
C1262 H1318 0.947 . S
C1262 C1319 1.392 . S
C1263 C1264 1.391 . S
C1263 C1267 1.397 . S
C1263 C1319 1.419 . S
C1264 C1260 1.391 . S
C1264 C1263 1.391 . S
C1264 C1265 1.399 . S
C1265 C1264 1.399 . S
C1265 C1268 1.396 . S
C1265 C1277 1.453 . S
C1265 C1278 1.684 . S
H1266 C1290 0.948 . S
C1267 C1263 1.397 . S
C1267 C1268 1.394 . S
C1267 C1286 1.723 . S
C1268 C1265 1.396 . S
C1268 C1267 1.394 . S
C1268 C1298 1.723 . S
H1269 C1292 0.947 . S
H1270 C1293 0.948 . S
H1271 C1299 0.982 . S
H1272 C1300 0.979 . S
H1273 C1300 0.980 . S
H1274 C1300 0.983 . S
H1275 C1299 0.979 . S
H1276 C1299 0.977 . S
C1277 C1265 1.453 . S
C1277 H1306 0.982 . S
C1277 H1307 0.979 . S
C1277 H1308 0.977 . S
C1278 C1265 1.684 . S
C1278 H1303 0.979 . S
C1278 H1304 0.980 . S
C1278 H1305 0.983 . S
C1279 C1280 1.391 . S
C1279 C1284 1.391 . S
C1279 H1309 0.948 . S
C1280 C1279 1.391 . S
C1280 C1281 1.391 . S
C1281 C1280 1.391 . S
C1281 C1282 1.392 . S
C1281 H1310 0.947 . S
C1282 C1281 1.392 . S
C1282 C1283 1.419 . S
C1282 H1311 0.948 . S
C1283 C1282 1.419 . S
C1283 C1284 1.391 . S
C1283 C1287 1.397 . S
C1284 C1279 1.391 . S
C1284 C1283 1.391 . S
C1284 C1285 1.399 . S
C1285 C1284 1.399 . S
C1285 C1286 1.396 . S
C1285 C1288 1.453 . S
C1285 C1289 1.684 . S
C1286 C1267 1.723 . S
C1286 C1285 1.396 . S
C1286 C1287 1.394 . S
C1287 C1283 1.397 . S
C1287 C1286 1.394 . S
C1287 C1297 1.723 . S
C1288 C1285 1.453 . S
C1288 H1312 0.982 . S
C1288 H1313 0.979 . S
C1288 H1314 0.977 . S
C1289 C1285 1.684 . S
C1289 H1315 0.979 . S
C1289 H1316 0.980 . S
C1289 H1317 0.983 . S
C1290 H1266 0.948 . S
C1290 C1291 1.391 . S
C1290 C1295 1.391 . S
C1291 C1290 1.391 . S
C1291 C1292 1.391 . S
C1292 H1269 0.947 . S
C1292 C1291 1.391 . S
C1292 C1293 1.392 . S
C1293 H1270 0.948 . S
C1293 C1292 1.392 . S
C1293 C1294 1.419 . S
C1294 C1293 1.419 . S
C1294 C1295 1.391 . S
C1294 C1298 1.397 . S
C1295 C1290 1.391 . S
C1295 C1294 1.391 . S
C1295 C1296 1.399 . S
C1296 C1295 1.399 . S
C1296 C1297 1.396 . S
C1296 C1299 1.453 . S
C1296 C1300 1.684 . S
C1297 C1287 1.723 . S
C1297 C1296 1.396 . S
C1297 C1298 1.394 . S
C1298 C1268 1.723 . S
C1298 C1294 1.397 . S
C1298 C1297 1.394 . S
C1299 H1271 0.982 . S
C1299 H1275 0.979 . S
C1299 H1276 0.977 . S
C1299 C1296 1.453 . S
C1300 H1272 0.979 . S
C1300 H1273 0.980 . S
C1300 H1274 0.983 . S
C1300 C1296 1.684 . S
H1301 C1319 0.948 . S
H1302 C1260 0.948 . S
H1303 C1278 0.979 . S
H1304 C1278 0.980 . S
H1305 C1278 0.983 . S
H1306 C1277 0.982 . S
H1307 C1277 0.979 . S
H1308 C1277 0.977 . S
H1309 C1279 0.948 . S
H1310 C1281 0.947 . S
H1311 C1282 0.948 . S
H1312 C1288 0.982 . S
H1313 C1288 0.979 . S
H1314 C1288 0.977 . S
H1315 C1289 0.979 . S
H1316 C1289 0.980 . S
H1317 C1289 0.983 . S
H1318 C1262 0.947 . S
C1319 C1262 1.392 . S
C1319 C1263 1.419 . S
C1319 H1301 0.948 . S
C1320 C1321 1.391 . S
C1320 C1324 1.391 . S
C1320 H1362 0.948 . S
C1321 C1320 1.391 . S
C1321 C1322 1.391 . S
C1322 C1321 1.391 . S
C1322 H1378 0.947 . S
C1322 C1379 1.392 . S
C1323 C1324 1.391 . S
C1323 C1327 1.397 . S
C1323 C1379 1.419 . S
C1324 C1320 1.391 . S
C1324 C1323 1.391 . S
C1324 C1325 1.399 . S
C1325 C1324 1.399 . S
C1325 C1328 1.396 . S
C1325 C1337 1.453 . S
C1325 C1338 1.684 . S
H1326 C1350 0.948 . S
C1327 C1323 1.397 . S
C1327 C1328 1.394 . S
C1327 C1346 1.723 . S
C1328 C1325 1.396 . S
C1328 C1327 1.394 . S
C1328 C1358 1.723 . S
H1329 C1352 0.947 . S
H1330 C1353 0.948 . S
H1331 C1359 0.982 . S
H1332 C1360 0.979 . S
H1333 C1360 0.980 . S
H1334 C1360 0.983 . S
H1335 C1359 0.979 . S
H1336 C1359 0.977 . S
C1337 C1325 1.453 . S
C1337 H1366 0.982 . S
C1337 H1367 0.979 . S
C1337 H1368 0.977 . S
C1338 C1325 1.684 . S
C1338 H1363 0.979 . S
C1338 H1364 0.980 . S
C1338 H1365 0.983 . S
C1339 C1340 1.391 . S
C1339 C1344 1.391 . S
C1339 H1369 0.948 . S
C1340 C1339 1.391 . S
C1340 C1341 1.391 . S
C1341 C1340 1.391 . S
C1341 C1342 1.392 . S
C1341 H1370 0.947 . S
C1342 C1341 1.392 . S
C1342 C1343 1.419 . S
C1342 H1371 0.948 . S
C1343 C1342 1.419 . S
C1343 C1344 1.391 . S
C1343 C1347 1.397 . S
C1344 C1339 1.391 . S
C1344 C1343 1.391 . S
C1344 C1345 1.399 . S
C1345 C1344 1.399 . S
C1345 C1346 1.396 . S
C1345 C1348 1.453 . S
C1345 C1349 1.684 . S
C1346 C1327 1.723 . S
C1346 C1345 1.396 . S
C1346 C1347 1.394 . S
C1347 C1343 1.397 . S
C1347 C1346 1.394 . S
C1347 C1357 1.723 . S
C1348 C1345 1.453 . S
C1348 H1372 0.982 . S
C1348 H1373 0.979 . S
C1348 H1374 0.977 . S
C1349 C1345 1.684 . S
C1349 H1375 0.979 . S
C1349 H1376 0.980 . S
C1349 H1377 0.983 . S
C1350 H1326 0.948 . S
C1350 C1351 1.391 . S
C1350 C1355 1.391 . S
C1351 C1350 1.391 . S
C1351 C1352 1.391 . S
C1352 H1329 0.947 . S
C1352 C1351 1.391 . S
C1352 C1353 1.392 . S
C1353 H1330 0.948 . S
C1353 C1352 1.392 . S
C1353 C1354 1.419 . S
C1354 C1353 1.419 . S
C1354 C1355 1.391 . S
C1354 C1358 1.397 . S
C1355 C1350 1.391 . S
C1355 C1354 1.391 . S
C1355 C1356 1.399 . S
C1356 C1355 1.399 . S
C1356 C1357 1.396 . S
C1356 C1359 1.453 . S
C1356 C1360 1.684 . S
C1357 C1347 1.723 . S
C1357 C1356 1.396 . S
C1357 C1358 1.394 . S
C1358 C1328 1.723 . S
C1358 C1354 1.397 . S
C1358 C1357 1.394 . S
C1359 H1331 0.982 . S
C1359 H1335 0.979 . S
C1359 H1336 0.977 . S
C1359 C1356 1.453 . S
C1360 H1332 0.979 . S
C1360 H1333 0.980 . S
C1360 H1334 0.983 . S
C1360 C1356 1.684 . S
H1361 C1379 0.948 . S
H1362 C1320 0.948 . S
H1363 C1338 0.979 . S
H1364 C1338 0.980 . S
H1365 C1338 0.983 . S
H1366 C1337 0.982 . S
H1367 C1337 0.979 . S
H1368 C1337 0.977 . S
H1369 C1339 0.948 . S
H1370 C1341 0.947 . S
H1371 C1342 0.948 . S
H1372 C1348 0.982 . S
H1373 C1348 0.979 . S
H1374 C1348 0.977 . S
H1375 C1349 0.979 . S
H1376 C1349 0.980 . S
H1377 C1349 0.983 . S
H1378 C1322 0.947 . S
C1379 C1322 1.392 . S
C1379 C1323 1.419 . S
C1379 H1361 0.948 . S
C1380 C1381 1.391 . S
C1380 C1384 1.391 . S
C1380 H1422 0.948 . S
C1381 C1380 1.391 . S
C1381 C1382 1.391 . S
C1382 C1381 1.391 . S
C1382 H1438 0.947 . S
C1382 C1439 1.392 . S
C1383 C1384 1.391 . S
C1383 C1387 1.397 . S
C1383 C1439 1.419 . S
C1384 C1380 1.391 . S
C1384 C1383 1.391 . S
C1384 C1385 1.399 . S
C1385 C1384 1.399 . S
C1385 C1388 1.396 . S
C1385 C1397 1.453 . S
C1385 C1398 1.684 . S
H1386 C1410 0.948 . S
C1387 C1383 1.397 . S
C1387 C1388 1.394 . S
C1387 C1406 1.723 . S
C1388 C1385 1.396 . S
C1388 C1387 1.394 . S
C1388 C1418 1.723 . S
H1389 C1412 0.947 . S
H1390 C1413 0.948 . S
H1391 C1419 0.982 . S
H1392 C1420 0.979 . S
H1393 C1420 0.980 . S
H1394 C1420 0.983 . S
H1395 C1419 0.979 . S
H1396 C1419 0.977 . S
C1397 C1385 1.453 . S
C1397 H1426 0.982 . S
C1397 H1427 0.979 . S
C1397 H1428 0.977 . S
C1398 C1385 1.684 . S
C1398 H1423 0.979 . S
C1398 H1424 0.980 . S
C1398 H1425 0.983 . S
C1399 C1400 1.391 . S
C1399 C1404 1.391 . S
C1399 H1429 0.948 . S
C1400 C1399 1.391 . S
C1400 C1401 1.391 . S
C1401 C1400 1.391 . S
C1401 C1402 1.392 . S
C1401 H1430 0.947 . S
C1402 C1401 1.392 . S
C1402 C1403 1.419 . S
C1402 H1431 0.948 . S
C1403 C1402 1.419 . S
C1403 C1404 1.391 . S
C1403 C1407 1.397 . S
C1404 C1399 1.391 . S
C1404 C1403 1.391 . S
C1404 C1405 1.399 . S
C1405 C1404 1.399 . S
C1405 C1406 1.396 . S
C1405 C1408 1.453 . S
C1405 C1409 1.684 . S
C1406 C1387 1.723 . S
C1406 C1405 1.396 . S
C1406 C1407 1.394 . S
C1407 C1403 1.397 . S
C1407 C1406 1.394 . S
C1407 C1417 1.723 . S
C1408 C1405 1.453 . S
C1408 H1432 0.982 . S
C1408 H1433 0.979 . S
C1408 H1434 0.977 . S
C1409 C1405 1.684 . S
C1409 H1435 0.979 . S
C1409 H1436 0.980 . S
C1409 H1437 0.983 . S
C1410 H1386 0.948 . S
C1410 C1411 1.391 . S
C1410 C1415 1.391 . S
C1411 C1410 1.391 . S
C1411 C1412 1.391 . S
C1412 H1389 0.947 . S
C1412 C1411 1.391 . S
C1412 C1413 1.392 . S
C1413 H1390 0.948 . S
C1413 C1412 1.392 . S
C1413 C1414 1.419 . S
C1414 C1413 1.419 . S
C1414 C1415 1.391 . S
C1414 C1418 1.397 . S
C1415 C1410 1.391 . S
C1415 C1414 1.391 . S
C1415 C1416 1.399 . S
C1416 C1415 1.399 . S
C1416 C1417 1.396 . S
C1416 C1419 1.453 . S
C1416 C1420 1.684 . S
C1417 C1407 1.723 . S
C1417 C1416 1.396 . S
C1417 C1418 1.394 . S
C1418 C1388 1.723 . S
C1418 C1414 1.397 . S
C1418 C1417 1.394 . S
C1419 H1391 0.982 . S
C1419 H1395 0.979 . S
C1419 H1396 0.977 . S
C1419 C1416 1.453 . S
C1420 H1392 0.979 . S
C1420 H1393 0.980 . S
C1420 H1394 0.983 . S
C1420 C1416 1.684 . S
H1421 C1439 0.948 . S
H1422 C1380 0.948 . S
H1423 C1398 0.979 . S
H1424 C1398 0.980 . S
H1425 C1398 0.983 . S
H1426 C1397 0.982 . S
H1427 C1397 0.979 . S
H1428 C1397 0.977 . S
H1429 C1399 0.948 . S
H1430 C1401 0.947 . S
H1431 C1402 0.948 . S
H1432 C1408 0.982 . S
H1433 C1408 0.979 . S
H1434 C1408 0.977 . S
H1435 C1409 0.979 . S
H1436 C1409 0.980 . S
H1437 C1409 0.983 . S
H1438 C1382 0.947 . S
C1439 C1382 1.392 . S
C1439 C1383 1.419 . S
C1439 H1421 0.948 . S
C1440 C1441 1.391 . S
C1440 C1444 1.391 . S
C1440 H1482 0.948 . S
C1441 C1440 1.391 . S
C1441 C1442 1.391 . S
C1442 C1441 1.391 . S
C1442 H1498 0.947 . S
C1442 C1499 1.392 . S
C1443 C1444 1.391 . S
C1443 C1447 1.397 . S
C1443 C1499 1.419 . S
C1444 C1440 1.391 . S
C1444 C1443 1.391 . S
C1444 C1445 1.399 . S
C1445 C1444 1.399 . S
C1445 C1448 1.396 . S
C1445 C1457 1.453 . S
C1445 C1458 1.684 . S
H1446 C1470 0.948 . S
C1447 C1443 1.397 . S
C1447 C1448 1.394 . S
C1447 C1466 1.723 . S
C1448 C1445 1.396 . S
C1448 C1447 1.394 . S
C1448 C1478 1.723 . S
H1449 C1472 0.947 . S
H1450 C1473 0.948 . S
H1451 C1479 0.982 . S
H1452 C1480 0.979 . S
H1453 C1480 0.980 . S
H1454 C1480 0.983 . S
H1455 C1479 0.979 . S
H1456 C1479 0.977 . S
C1457 C1445 1.453 . S
C1457 H1486 0.982 . S
C1457 H1487 0.979 . S
C1457 H1488 0.977 . S
C1458 C1445 1.684 . S
C1458 H1483 0.979 . S
C1458 H1484 0.980 . S
C1458 H1485 0.983 . S
C1459 C1460 1.391 . S
C1459 C1464 1.391 . S
C1459 H1489 0.948 . S
C1460 C1459 1.391 . S
C1460 C1461 1.391 . S
C1461 C1460 1.391 . S
C1461 C1462 1.392 . S
C1461 H1490 0.947 . S
C1462 C1461 1.392 . S
C1462 C1463 1.419 . S
C1462 H1491 0.948 . S
C1463 C1462 1.419 . S
C1463 C1464 1.391 . S
C1463 C1467 1.397 . S
C1464 C1459 1.391 . S
C1464 C1463 1.391 . S
C1464 C1465 1.399 . S
C1465 C1464 1.399 . S
C1465 C1466 1.396 . S
C1465 C1468 1.453 . S
C1465 C1469 1.684 . S
C1466 C1447 1.723 . S
C1466 C1465 1.396 . S
C1466 C1467 1.394 . S
C1467 C1463 1.397 . S
C1467 C1466 1.394 . S
C1467 C1477 1.723 . S
C1468 C1465 1.453 . S
C1468 H1492 0.982 . S
C1468 H1493 0.979 . S
C1468 H1494 0.977 . S
C1469 C1465 1.684 . S
C1469 H1495 0.979 . S
C1469 H1496 0.980 . S
C1469 H1497 0.983 . S
C1470 H1446 0.948 . S
C1470 C1471 1.391 . S
C1470 C1475 1.391 . S
C1471 C1470 1.391 . S
C1471 C1472 1.391 . S
C1472 H1449 0.947 . S
C1472 C1471 1.391 . S
C1472 C1473 1.392 . S
C1473 H1450 0.948 . S
C1473 C1472 1.392 . S
C1473 C1474 1.419 . S
C1474 C1473 1.419 . S
C1474 C1475 1.391 . S
C1474 C1478 1.397 . S
C1475 C1470 1.391 . S
C1475 C1474 1.391 . S
C1475 C1476 1.399 . S
C1476 C1475 1.399 . S
C1476 C1477 1.396 . S
C1476 C1479 1.453 . S
C1476 C1480 1.684 . S
C1477 C1467 1.723 . S
C1477 C1476 1.396 . S
C1477 C1478 1.394 . S
C1478 C1448 1.723 . S
C1478 C1474 1.397 . S
C1478 C1477 1.394 . S
C1479 H1451 0.982 . S
C1479 H1455 0.979 . S
C1479 H1456 0.977 . S
C1479 C1476 1.453 . S
C1480 H1452 0.979 . S
C1480 H1453 0.980 . S
C1480 H1454 0.983 . S
C1480 C1476 1.684 . S
H1481 C1499 0.948 . S
H1482 C1440 0.948 . S
H1483 C1458 0.979 . S
H1484 C1458 0.980 . S
H1485 C1458 0.983 . S
H1486 C1457 0.982 . S
H1487 C1457 0.979 . S
H1488 C1457 0.977 . S
H1489 C1459 0.948 . S
H1490 C1461 0.947 . S
H1491 C1462 0.948 . S
H1492 C1468 0.982 . S
H1493 C1468 0.979 . S
H1494 C1468 0.977 . S
H1495 C1469 0.979 . S
H1496 C1469 0.980 . S
H1497 C1469 0.983 . S
H1498 C1442 0.947 . S
C1499 C1442 1.392 . S
C1499 C1443 1.419 . S
C1499 H1481 0.948 . S
C1500 C1501 1.391 . S
C1500 C1504 1.391 . S
C1500 H1542 0.948 . S
C1501 C1500 1.391 . S
C1501 C1502 1.391 . S
C1502 C1501 1.391 . S
C1502 H1558 0.947 . S
C1502 C1559 1.392 . S
C1503 C1504 1.391 . S
C1503 C1507 1.397 . S
C1503 C1559 1.419 . S
C1504 C1500 1.391 . S
C1504 C1503 1.391 . S
C1504 C1505 1.399 . S
C1505 C1504 1.399 . S
C1505 C1508 1.396 . S
C1505 C1517 1.453 . S
C1505 C1518 1.684 . S
H1506 C1530 0.948 . S
C1507 C1503 1.397 . S
C1507 C1508 1.394 . S
C1507 C1526 1.723 . S
C1508 C1505 1.396 . S
C1508 C1507 1.394 . S
C1508 C1538 1.723 . S
H1509 C1532 0.947 . S
H1510 C1533 0.948 . S
H1511 C1539 0.982 . S
H1512 C1540 0.979 . S
H1513 C1540 0.980 . S
H1514 C1540 0.983 . S
H1515 C1539 0.979 . S
H1516 C1539 0.977 . S
C1517 C1505 1.453 . S
C1517 H1546 0.982 . S
C1517 H1547 0.979 . S
C1517 H1548 0.977 . S
C1518 C1505 1.684 . S
C1518 H1543 0.979 . S
C1518 H1544 0.980 . S
C1518 H1545 0.983 . S
C1519 C1520 1.391 . S
C1519 C1524 1.391 . S
C1519 H1549 0.948 . S
C1520 C1519 1.391 . S
C1520 C1521 1.391 . S
C1521 C1520 1.391 . S
C1521 C1522 1.392 . S
C1521 H1550 0.947 . S
C1522 C1521 1.392 . S
C1522 C1523 1.419 . S
C1522 H1551 0.948 . S
C1523 C1522 1.419 . S
C1523 C1524 1.391 . S
C1523 C1527 1.397 . S
C1524 C1519 1.391 . S
C1524 C1523 1.391 . S
C1524 C1525 1.399 . S
C1525 C1524 1.399 . S
C1525 C1526 1.396 . S
C1525 C1528 1.453 . S
C1525 C1529 1.684 . S
C1526 C1507 1.723 . S
C1526 C1525 1.396 . S
C1526 C1527 1.394 . S
C1527 C1523 1.397 . S
C1527 C1526 1.394 . S
C1527 C1537 1.723 . S
C1528 C1525 1.453 . S
C1528 H1552 0.982 . S
C1528 H1553 0.979 . S
C1528 H1554 0.977 . S
C1529 C1525 1.684 . S
C1529 H1555 0.979 . S
C1529 H1556 0.980 . S
C1529 H1557 0.983 . S
C1530 H1506 0.948 . S
C1530 C1531 1.391 . S
C1530 C1535 1.391 . S
C1531 C1530 1.391 . S
C1531 C1532 1.391 . S
C1532 H1509 0.947 . S
C1532 C1531 1.391 . S
C1532 C1533 1.392 . S
C1533 H1510 0.948 . S
C1533 C1532 1.392 . S
C1533 C1534 1.419 . S
C1534 C1533 1.419 . S
C1534 C1535 1.391 . S
C1534 C1538 1.397 . S
C1535 C1530 1.391 . S
C1535 C1534 1.391 . S
C1535 C1536 1.399 . S
C1536 C1535 1.399 . S
C1536 C1537 1.396 . S
C1536 C1539 1.453 . S
C1536 C1540 1.684 . S
C1537 C1527 1.723 . S
C1537 C1536 1.396 . S
C1537 C1538 1.394 . S
C1538 C1508 1.723 . S
C1538 C1534 1.397 . S
C1538 C1537 1.394 . S
C1539 H1511 0.982 . S
C1539 H1515 0.979 . S
C1539 H1516 0.977 . S
C1539 C1536 1.453 . S
C1540 H1512 0.979 . S
C1540 H1513 0.980 . S
C1540 H1514 0.983 . S
C1540 C1536 1.684 . S
H1541 C1559 0.948 . S
H1542 C1500 0.948 . S
H1543 C1518 0.979 . S
H1544 C1518 0.980 . S
H1545 C1518 0.983 . S
H1546 C1517 0.982 . S
H1547 C1517 0.979 . S
H1548 C1517 0.977 . S
H1549 C1519 0.948 . S
H1550 C1521 0.947 . S
H1551 C1522 0.948 . S
H1552 C1528 0.982 . S
H1553 C1528 0.979 . S
H1554 C1528 0.977 . S
H1555 C1529 0.979 . S
H1556 C1529 0.980 . S
H1557 C1529 0.983 . S
H1558 C1502 0.947 . S
C1559 C1502 1.392 . S
C1559 C1503 1.419 . S
C1559 H1541 0.948 . S
C1560 C1561 1.391 . S
C1560 C1564 1.391 . S
C1560 H1602 0.948 . S
C1561 C1560 1.391 . S
C1561 C1562 1.391 . S
C1562 C1561 1.391 . S
C1562 H1618 0.947 . S
C1562 C1619 1.392 . S
C1563 C1564 1.391 . S
C1563 C1567 1.397 . S
C1563 C1619 1.419 . S
C1564 C1560 1.391 . S
C1564 C1563 1.391 . S
C1564 C1565 1.399 . S
C1565 C1564 1.399 . S
C1565 C1568 1.396 . S
C1565 C1577 1.453 . S
C1565 C1578 1.684 . S
H1566 C1590 0.948 . S
C1567 C1563 1.397 . S
C1567 C1568 1.394 . S
C1567 C1586 1.723 . S
C1568 C1565 1.396 . S
C1568 C1567 1.394 . S
C1568 C1598 1.723 . S
H1569 C1592 0.947 . S
H1570 C1593 0.948 . S
H1571 C1599 0.982 . S
H1572 C1600 0.979 . S
H1573 C1600 0.980 . S
H1574 C1600 0.983 . S
H1575 C1599 0.979 . S
H1576 C1599 0.977 . S
C1577 C1565 1.453 . S
C1577 H1606 0.982 . S
C1577 H1607 0.979 . S
C1577 H1608 0.977 . S
C1578 C1565 1.684 . S
C1578 H1603 0.979 . S
C1578 H1604 0.980 . S
C1578 H1605 0.983 . S
C1579 C1580 1.391 . S
C1579 C1584 1.391 . S
C1579 H1609 0.948 . S
C1580 C1579 1.391 . S
C1580 C1581 1.391 . S
C1581 C1580 1.391 . S
C1581 C1582 1.392 . S
C1581 H1610 0.947 . S
C1582 C1581 1.392 . S
C1582 C1583 1.419 . S
C1582 H1611 0.948 . S
C1583 C1582 1.419 . S
C1583 C1584 1.391 . S
C1583 C1587 1.397 . S
C1584 C1579 1.391 . S
C1584 C1583 1.391 . S
C1584 C1585 1.399 . S
C1585 C1584 1.399 . S
C1585 C1586 1.396 . S
C1585 C1588 1.453 . S
C1585 C1589 1.684 . S
C1586 C1567 1.723 . S
C1586 C1585 1.396 . S
C1586 C1587 1.394 . S
C1587 C1583 1.397 . S
C1587 C1586 1.394 . S
C1587 C1597 1.723 . S
C1588 C1585 1.453 . S
C1588 H1612 0.982 . S
C1588 H1613 0.979 . S
C1588 H1614 0.977 . S
C1589 C1585 1.684 . S
C1589 H1615 0.979 . S
C1589 H1616 0.980 . S
C1589 H1617 0.983 . S
C1590 H1566 0.948 . S
C1590 C1591 1.391 . S
C1590 C1595 1.391 . S
C1591 C1590 1.391 . S
C1591 C1592 1.391 . S
C1592 H1569 0.947 . S
C1592 C1591 1.391 . S
C1592 C1593 1.392 . S
C1593 H1570 0.948 . S
C1593 C1592 1.392 . S
C1593 C1594 1.419 . S
C1594 C1593 1.419 . S
C1594 C1595 1.391 . S
C1594 C1598 1.397 . S
C1595 C1590 1.391 . S
C1595 C1594 1.391 . S
C1595 C1596 1.399 . S
C1596 C1595 1.399 . S
C1596 C1597 1.396 . S
C1596 C1599 1.453 . S
C1596 C1600 1.684 . S
C1597 C1587 1.723 . S
C1597 C1596 1.396 . S
C1597 C1598 1.394 . S
C1598 C1568 1.723 . S
C1598 C1594 1.397 . S
C1598 C1597 1.394 . S
C1599 H1571 0.982 . S
C1599 H1575 0.979 . S
C1599 H1576 0.977 . S
C1599 C1596 1.453 . S
C1600 H1572 0.979 . S
C1600 H1573 0.980 . S
C1600 H1574 0.983 . S
C1600 C1596 1.684 . S
H1601 C1619 0.948 . S
H1602 C1560 0.948 . S
H1603 C1578 0.979 . S
H1604 C1578 0.980 . S
H1605 C1578 0.983 . S
H1606 C1577 0.982 . S
H1607 C1577 0.979 . S
H1608 C1577 0.977 . S
H1609 C1579 0.948 . S
H1610 C1581 0.947 . S
H1611 C1582 0.948 . S
H1612 C1588 0.982 . S
H1613 C1588 0.979 . S
H1614 C1588 0.977 . S
H1615 C1589 0.979 . S
H1616 C1589 0.980 . S
H1617 C1589 0.983 . S
H1618 C1562 0.947 . S
C1619 C1562 1.392 . S
C1619 C1563 1.419 . S
C1619 H1601 0.948 . S
C1620 C1621 1.391 . S
C1620 C1624 1.391 . S
C1620 H1662 0.948 . S
C1621 C1620 1.391 . S
C1621 C1622 1.391 . S
C1622 C1621 1.391 . S
C1622 H1678 0.947 . S
C1622 C1679 1.392 . S
C1623 C1624 1.391 . S
C1623 C1627 1.397 . S
C1623 C1679 1.419 . S
C1624 C1620 1.391 . S
C1624 C1623 1.391 . S
C1624 C1625 1.399 . S
C1625 C1624 1.399 . S
C1625 C1628 1.396 . S
C1625 C1637 1.453 . S
C1625 C1638 1.684 . S
H1626 C1650 0.948 . S
C1627 C1623 1.397 . S
C1627 C1628 1.394 . S
C1627 C1646 1.723 . S
C1628 C1625 1.396 . S
C1628 C1627 1.394 . S
C1628 C1658 1.723 . S
H1629 C1652 0.947 . S
H1630 C1653 0.948 . S
H1631 C1659 0.982 . S
H1632 C1660 0.979 . S
H1633 C1660 0.980 . S
H1634 C1660 0.983 . S
H1635 C1659 0.979 . S
H1636 C1659 0.977 . S
C1637 C1625 1.453 . S
C1637 H1666 0.982 . S
C1637 H1667 0.979 . S
C1637 H1668 0.977 . S
C1638 C1625 1.684 . S
C1638 H1663 0.979 . S
C1638 H1664 0.980 . S
C1638 H1665 0.983 . S
C1639 C1640 1.391 . S
C1639 C1644 1.391 . S
C1639 H1669 0.948 . S
C1640 C1639 1.391 . S
C1640 C1641 1.391 . S
C1641 C1640 1.391 . S
C1641 C1642 1.392 . S
C1641 H1670 0.947 . S
C1642 C1641 1.392 . S
C1642 C1643 1.419 . S
C1642 H1671 0.948 . S
C1643 C1642 1.419 . S
C1643 C1644 1.391 . S
C1643 C1647 1.397 . S
C1644 C1639 1.391 . S
C1644 C1643 1.391 . S
C1644 C1645 1.399 . S
C1645 C1644 1.399 . S
C1645 C1646 1.396 . S
C1645 C1648 1.453 . S
C1645 C1649 1.684 . S
C1646 C1627 1.723 . S
C1646 C1645 1.396 . S
C1646 C1647 1.394 . S
C1647 C1643 1.397 . S
C1647 C1646 1.394 . S
C1647 C1657 1.723 . S
C1648 C1645 1.453 . S
C1648 H1672 0.982 . S
C1648 H1673 0.979 . S
C1648 H1674 0.977 . S
C1649 C1645 1.684 . S
C1649 H1675 0.979 . S
C1649 H1676 0.980 . S
C1649 H1677 0.983 . S
C1650 H1626 0.948 . S
C1650 C1651 1.391 . S
C1650 C1655 1.391 . S
C1651 C1650 1.391 . S
C1651 C1652 1.391 . S
C1652 H1629 0.947 . S
C1652 C1651 1.391 . S
C1652 C1653 1.392 . S
C1653 H1630 0.948 . S
C1653 C1652 1.392 . S
C1653 C1654 1.419 . S
C1654 C1653 1.419 . S
C1654 C1655 1.391 . S
C1654 C1658 1.397 . S
C1655 C1650 1.391 . S
C1655 C1654 1.391 . S
C1655 C1656 1.399 . S
C1656 C1655 1.399 . S
C1656 C1657 1.396 . S
C1656 C1659 1.453 . S
C1656 C1660 1.684 . S
C1657 C1647 1.723 . S
C1657 C1656 1.396 . S
C1657 C1658 1.394 . S
C1658 C1628 1.723 . S
C1658 C1654 1.397 . S
C1658 C1657 1.394 . S
C1659 H1631 0.982 . S
C1659 H1635 0.979 . S
C1659 H1636 0.977 . S
C1659 C1656 1.453 . S
C1660 H1632 0.979 . S
C1660 H1633 0.980 . S
C1660 H1634 0.983 . S
C1660 C1656 1.684 . S
H1661 C1679 0.948 . S
H1662 C1620 0.948 . S
H1663 C1638 0.979 . S
H1664 C1638 0.980 . S
H1665 C1638 0.983 . S
H1666 C1637 0.982 . S
H1667 C1637 0.979 . S
H1668 C1637 0.977 . S
H1669 C1639 0.948 . S
H1670 C1641 0.947 . S
H1671 C1642 0.948 . S
H1672 C1648 0.982 . S
H1673 C1648 0.979 . S
H1674 C1648 0.977 . S
H1675 C1649 0.979 . S
H1676 C1649 0.980 . S
H1677 C1649 0.983 . S
H1678 C1622 0.947 . S
C1679 C1622 1.392 . S
C1679 C1623 1.419 . S
C1679 H1661 0.948 . S
C1680 C1681 1.391 . S
C1680 C1684 1.391 . S
C1680 H1722 0.948 . S
C1681 C1680 1.391 . S
C1681 C1682 1.391 . S
C1682 C1681 1.391 . S
C1682 H1738 0.947 . S
C1682 C1739 1.392 . S
C1683 C1684 1.391 . S
C1683 C1687 1.397 . S
C1683 C1739 1.419 . S
C1684 C1680 1.391 . S
C1684 C1683 1.391 . S
C1684 C1685 1.399 . S
C1685 C1684 1.399 . S
C1685 C1688 1.396 . S
C1685 C1697 1.453 . S
C1685 C1698 1.684 . S
H1686 C1710 0.948 . S
C1687 C1683 1.397 . S
C1687 C1688 1.394 . S
C1687 C1706 1.723 . S
C1688 C1685 1.396 . S
C1688 C1687 1.394 . S
C1688 C1718 1.723 . S
H1689 C1712 0.947 . S
H1690 C1713 0.948 . S
H1691 C1719 0.982 . S
H1692 C1720 0.979 . S
H1693 C1720 0.980 . S
H1694 C1720 0.983 . S
H1695 C1719 0.979 . S
H1696 C1719 0.977 . S
C1697 C1685 1.453 . S
C1697 H1726 0.982 . S
C1697 H1727 0.979 . S
C1697 H1728 0.977 . S
C1698 C1685 1.684 . S
C1698 H1723 0.979 . S
C1698 H1724 0.980 . S
C1698 H1725 0.983 . S
C1699 C1700 1.391 . S
C1699 C1704 1.391 . S
C1699 H1729 0.948 . S
C1700 C1699 1.391 . S
C1700 C1701 1.391 . S
C1701 C1700 1.391 . S
C1701 C1702 1.392 . S
C1701 H1730 0.947 . S
C1702 C1701 1.392 . S
C1702 C1703 1.419 . S
C1702 H1731 0.948 . S
C1703 C1702 1.419 . S
C1703 C1704 1.391 . S
C1703 C1707 1.397 . S
C1704 C1699 1.391 . S
C1704 C1703 1.391 . S
C1704 C1705 1.399 . S
C1705 C1704 1.399 . S
C1705 C1706 1.396 . S
C1705 C1708 1.453 . S
C1705 C1709 1.684 . S
C1706 C1687 1.723 . S
C1706 C1705 1.396 . S
C1706 C1707 1.394 . S
C1707 C1703 1.397 . S
C1707 C1706 1.394 . S
C1707 C1717 1.723 . S
C1708 C1705 1.453 . S
C1708 H1732 0.982 . S
C1708 H1733 0.979 . S
C1708 H1734 0.977 . S
C1709 C1705 1.684 . S
C1709 H1735 0.979 . S
C1709 H1736 0.980 . S
C1709 H1737 0.983 . S
C1710 H1686 0.948 . S
C1710 C1711 1.391 . S
C1710 C1715 1.391 . S
C1711 C1710 1.391 . S
C1711 C1712 1.391 . S
C1712 H1689 0.947 . S
C1712 C1711 1.391 . S
C1712 C1713 1.392 . S
C1713 H1690 0.948 . S
C1713 C1712 1.392 . S
C1713 C1714 1.419 . S
C1714 C1713 1.419 . S
C1714 C1715 1.391 . S
C1714 C1718 1.397 . S
C1715 C1710 1.391 . S
C1715 C1714 1.391 . S
C1715 C1716 1.399 . S
C1716 C1715 1.399 . S
C1716 C1717 1.396 . S
C1716 C1719 1.453 . S
C1716 C1720 1.684 . S
C1717 C1707 1.723 . S
C1717 C1716 1.396 . S
C1717 C1718 1.394 . S
C1718 C1688 1.723 . S
C1718 C1714 1.397 . S
C1718 C1717 1.394 . S
C1719 H1691 0.982 . S
C1719 H1695 0.979 . S
C1719 H1696 0.977 . S
C1719 C1716 1.453 . S
C1720 H1692 0.979 . S
C1720 H1693 0.980 . S
C1720 H1694 0.983 . S
C1720 C1716 1.684 . S
H1721 C1739 0.948 . S
H1722 C1680 0.948 . S
H1723 C1698 0.979 . S
H1724 C1698 0.980 . S
H1725 C1698 0.983 . S
H1726 C1697 0.982 . S
H1727 C1697 0.979 . S
H1728 C1697 0.977 . S
H1729 C1699 0.948 . S
H1730 C1701 0.947 . S
H1731 C1702 0.948 . S
H1732 C1708 0.982 . S
H1733 C1708 0.979 . S
H1734 C1708 0.977 . S
H1735 C1709 0.979 . S
H1736 C1709 0.980 . S
H1737 C1709 0.983 . S
H1738 C1682 0.947 . S
C1739 C1682 1.392 . S
C1739 C1683 1.419 . S
C1739 H1721 0.948 . S
C1740 C1741 1.391 . S
C1740 C1744 1.391 . S
C1740 H1782 0.948 . S
C1741 C1740 1.391 . S
C1741 C1742 1.391 . S
C1742 C1741 1.391 . S
C1742 H1798 0.947 . S
C1742 C1799 1.392 . S
C1743 C1744 1.391 . S
C1743 C1747 1.397 . S
C1743 C1799 1.419 . S
C1744 C1740 1.391 . S
C1744 C1743 1.391 . S
C1744 C1745 1.399 . S
C1745 C1744 1.399 . S
C1745 C1748 1.396 . S
C1745 C1757 1.453 . S
C1745 C1758 1.684 . S
H1746 C1770 0.948 . S
C1747 C1743 1.397 . S
C1747 C1748 1.394 . S
C1747 C1766 1.723 . S
C1748 C1745 1.396 . S
C1748 C1747 1.394 . S
C1748 C1778 1.723 . S
H1749 C1772 0.947 . S
H1750 C1773 0.948 . S
H1751 C1779 0.982 . S
H1752 C1780 0.979 . S
H1753 C1780 0.980 . S
H1754 C1780 0.983 . S
H1755 C1779 0.979 . S
H1756 C1779 0.977 . S
C1757 C1745 1.453 . S
C1757 H1786 0.982 . S
C1757 H1787 0.979 . S
C1757 H1788 0.977 . S
C1758 C1745 1.684 . S
C1758 H1783 0.979 . S
C1758 H1784 0.980 . S
C1758 H1785 0.983 . S
C1759 C1760 1.391 . S
C1759 C1764 1.391 . S
C1759 H1789 0.948 . S
C1760 C1759 1.391 . S
C1760 C1761 1.391 . S
C1761 C1760 1.391 . S
C1761 C1762 1.392 . S
C1761 H1790 0.947 . S
C1762 C1761 1.392 . S
C1762 C1763 1.419 . S
C1762 H1791 0.948 . S
C1763 C1762 1.419 . S
C1763 C1764 1.391 . S
C1763 C1767 1.397 . S
C1764 C1759 1.391 . S
C1764 C1763 1.391 . S
C1764 C1765 1.399 . S
C1765 C1764 1.399 . S
C1765 C1766 1.396 . S
C1765 C1768 1.453 . S
C1765 C1769 1.684 . S
C1766 C1747 1.723 . S
C1766 C1765 1.396 . S
C1766 C1767 1.394 . S
C1767 C1763 1.397 . S
C1767 C1766 1.394 . S
C1767 C1777 1.723 . S
C1768 C1765 1.453 . S
C1768 H1792 0.982 . S
C1768 H1793 0.979 . S
C1768 H1794 0.977 . S
C1769 C1765 1.684 . S
C1769 H1795 0.979 . S
C1769 H1796 0.980 . S
C1769 H1797 0.983 . S
C1770 H1746 0.948 . S
C1770 C1771 1.391 . S
C1770 C1775 1.391 . S
C1771 C1770 1.391 . S
C1771 C1772 1.391 . S
C1772 H1749 0.947 . S
C1772 C1771 1.391 . S
C1772 C1773 1.392 . S
C1773 H1750 0.948 . S
C1773 C1772 1.392 . S
C1773 C1774 1.419 . S
C1774 C1773 1.419 . S
C1774 C1775 1.391 . S
C1774 C1778 1.397 . S
C1775 C1770 1.391 . S
C1775 C1774 1.391 . S
C1775 C1776 1.399 . S
C1776 C1775 1.399 . S
C1776 C1777 1.396 . S
C1776 C1779 1.453 . S
C1776 C1780 1.684 . S
C1777 C1767 1.723 . S
C1777 C1776 1.396 . S
C1777 C1778 1.394 . S
C1778 C1748 1.723 . S
C1778 C1774 1.397 . S
C1778 C1777 1.394 . S
C1779 H1751 0.982 . S
C1779 H1755 0.979 . S
C1779 H1756 0.977 . S
C1779 C1776 1.453 . S
C1780 H1752 0.979 . S
C1780 H1753 0.980 . S
C1780 H1754 0.983 . S
C1780 C1776 1.684 . S
H1781 C1799 0.948 . S
H1782 C1740 0.948 . S
H1783 C1758 0.979 . S
H1784 C1758 0.980 . S
H1785 C1758 0.983 . S
H1786 C1757 0.982 . S
H1787 C1757 0.979 . S
H1788 C1757 0.977 . S
H1789 C1759 0.948 . S
H1790 C1761 0.947 . S
H1791 C1762 0.948 . S
H1792 C1768 0.982 . S
H1793 C1768 0.979 . S
H1794 C1768 0.977 . S
H1795 C1769 0.979 . S
H1796 C1769 0.980 . S
H1797 C1769 0.983 . S
H1798 C1742 0.947 . S
C1799 C1742 1.392 . S
C1799 C1743 1.419 . S
C1799 H1781 0.948 . S
C1800 C1801 1.391 . S
C1800 C1804 1.391 . S
C1800 H1842 0.948 . S
C1801 C1800 1.391 . S
C1801 C1802 1.391 . S
C1802 C1801 1.391 . S
C1802 H1858 0.947 . S
C1802 C1859 1.392 . S
C1803 C1804 1.391 . S
C1803 C1807 1.397 . S
C1803 C1859 1.419 . S
C1804 C1800 1.391 . S
C1804 C1803 1.391 . S
C1804 C1805 1.399 . S
C1805 C1804 1.399 . S
C1805 C1808 1.396 . S
C1805 C1817 1.453 . S
C1805 C1818 1.684 . S
H1806 C1830 0.948 . S
C1807 C1803 1.397 . S
C1807 C1808 1.394 . S
C1807 C1826 1.723 . S
C1808 C1805 1.396 . S
C1808 C1807 1.394 . S
C1808 C1838 1.723 . S
H1809 C1832 0.947 . S
H1810 C1833 0.948 . S
H1811 C1839 0.982 . S
H1812 C1840 0.979 . S
H1813 C1840 0.980 . S
H1814 C1840 0.983 . S
H1815 C1839 0.979 . S
H1816 C1839 0.977 . S
C1817 C1805 1.453 . S
C1817 H1846 0.982 . S
C1817 H1847 0.979 . S
C1817 H1848 0.977 . S
C1818 C1805 1.684 . S
C1818 H1843 0.979 . S
C1818 H1844 0.980 . S
C1818 H1845 0.983 . S
C1819 C1820 1.391 . S
C1819 C1824 1.391 . S
C1819 H1849 0.948 . S
C1820 C1819 1.391 . S
C1820 C1821 1.391 . S
C1821 C1820 1.391 . S
C1821 C1822 1.392 . S
C1821 H1850 0.947 . S
C1822 C1821 1.392 . S
C1822 C1823 1.419 . S
C1822 H1851 0.948 . S
C1823 C1822 1.419 . S
C1823 C1824 1.391 . S
C1823 C1827 1.397 . S
C1824 C1819 1.391 . S
C1824 C1823 1.391 . S
C1824 C1825 1.399 . S
C1825 C1824 1.399 . S
C1825 C1826 1.396 . S
C1825 C1828 1.453 . S
C1825 C1829 1.684 . S
C1826 C1807 1.723 . S
C1826 C1825 1.396 . S
C1826 C1827 1.394 . S
C1827 C1823 1.397 . S
C1827 C1826 1.394 . S
C1827 C1837 1.723 . S
C1828 C1825 1.453 . S
C1828 H1852 0.982 . S
C1828 H1853 0.979 . S
C1828 H1854 0.977 . S
C1829 C1825 1.684 . S
C1829 H1855 0.979 . S
C1829 H1856 0.980 . S
C1829 H1857 0.983 . S
C1830 H1806 0.948 . S
C1830 C1831 1.391 . S
C1830 C1835 1.391 . S
C1831 C1830 1.391 . S
C1831 C1832 1.391 . S
C1832 H1809 0.947 . S
C1832 C1831 1.391 . S
C1832 C1833 1.392 . S
C1833 H1810 0.948 . S
C1833 C1832 1.392 . S
C1833 C1834 1.419 . S
C1834 C1833 1.419 . S
C1834 C1835 1.391 . S
C1834 C1838 1.397 . S
C1835 C1830 1.391 . S
C1835 C1834 1.391 . S
C1835 C1836 1.399 . S
C1836 C1835 1.399 . S
C1836 C1837 1.396 . S
C1836 C1839 1.453 . S
C1836 C1840 1.684 . S
C1837 C1827 1.723 . S
C1837 C1836 1.396 . S
C1837 C1838 1.394 . S
C1838 C1808 1.723 . S
C1838 C1834 1.397 . S
C1838 C1837 1.394 . S
C1839 H1811 0.982 . S
C1839 H1815 0.979 . S
C1839 H1816 0.977 . S
C1839 C1836 1.453 . S
C1840 H1812 0.979 . S
C1840 H1813 0.980 . S
C1840 H1814 0.983 . S
C1840 C1836 1.684 . S
H1841 C1859 0.948 . S
H1842 C1800 0.948 . S
H1843 C1818 0.979 . S
H1844 C1818 0.980 . S
H1845 C1818 0.983 . S
H1846 C1817 0.982 . S
H1847 C1817 0.979 . S
H1848 C1817 0.977 . S
H1849 C1819 0.948 . S
H1850 C1821 0.947 . S
H1851 C1822 0.948 . S
H1852 C1828 0.982 . S
H1853 C1828 0.979 . S
H1854 C1828 0.977 . S
H1855 C1829 0.979 . S
H1856 C1829 0.980 . S
H1857 C1829 0.983 . S
H1858 C1802 0.947 . S
C1859 C1802 1.392 . S
C1859 C1803 1.419 . S
C1859 H1841 0.948 . S
C1860 C1861 1.391 . S
C1860 C1864 1.391 . S
C1860 H1902 0.948 . S
C1861 C1860 1.391 . S
C1861 C1862 1.391 . S
C1862 C1861 1.391 . S
C1862 H1918 0.947 . S
C1862 C1919 1.392 . S
C1863 C1864 1.391 . S
C1863 C1867 1.397 . S
C1863 C1919 1.419 . S
C1864 C1860 1.391 . S
C1864 C1863 1.391 . S
C1864 C1865 1.399 . S
C1865 C1864 1.399 . S
C1865 C1868 1.396 . S
C1865 C1877 1.453 . S
C1865 C1878 1.684 . S
H1866 C1890 0.948 . S
C1867 C1863 1.397 . S
C1867 C1868 1.394 . S
C1867 C1886 1.723 . S
C1868 C1865 1.396 . S
C1868 C1867 1.394 . S
C1868 C1898 1.723 . S
H1869 C1892 0.947 . S
H1870 C1893 0.948 . S
H1871 C1899 0.982 . S
H1872 C1900 0.979 . S
H1873 C1900 0.980 . S
H1874 C1900 0.983 . S
H1875 C1899 0.979 . S
H1876 C1899 0.977 . S
C1877 C1865 1.453 . S
C1877 H1906 0.982 . S
C1877 H1907 0.979 . S
C1877 H1908 0.977 . S
C1878 C1865 1.684 . S
C1878 H1903 0.979 . S
C1878 H1904 0.980 . S
C1878 H1905 0.983 . S
C1879 C1880 1.391 . S
C1879 C1884 1.391 . S
C1879 H1909 0.948 . S
C1880 C1879 1.391 . S
C1880 C1881 1.391 . S
C1881 C1880 1.391 . S
C1881 C1882 1.392 . S
C1881 H1910 0.947 . S
C1882 C1881 1.392 . S
C1882 C1883 1.419 . S
C1882 H1911 0.948 . S
C1883 C1882 1.419 . S
C1883 C1884 1.391 . S
C1883 C1887 1.397 . S
C1884 C1879 1.391 . S
C1884 C1883 1.391 . S
C1884 C1885 1.399 . S
C1885 C1884 1.399 . S
C1885 C1886 1.396 . S
C1885 C1888 1.453 . S
C1885 C1889 1.684 . S
C1886 C1867 1.723 . S
C1886 C1885 1.396 . S
C1886 C1887 1.394 . S
C1887 C1883 1.397 . S
C1887 C1886 1.394 . S
C1887 C1897 1.723 . S
C1888 C1885 1.453 . S
C1888 H1912 0.982 . S
C1888 H1913 0.979 . S
C1888 H1914 0.977 . S
C1889 C1885 1.684 . S
C1889 H1915 0.979 . S
C1889 H1916 0.980 . S
C1889 H1917 0.983 . S
C1890 H1866 0.948 . S
C1890 C1891 1.391 . S
C1890 C1895 1.391 . S
C1891 C1890 1.391 . S
C1891 C1892 1.391 . S
C1892 H1869 0.947 . S
C1892 C1891 1.391 . S
C1892 C1893 1.392 . S
C1893 H1870 0.948 . S
C1893 C1892 1.392 . S
C1893 C1894 1.419 . S
C1894 C1893 1.419 . S
C1894 C1895 1.391 . S
C1894 C1898 1.397 . S
C1895 C1890 1.391 . S
C1895 C1894 1.391 . S
C1895 C1896 1.399 . S
C1896 C1895 1.399 . S
C1896 C1897 1.396 . S
C1896 C1899 1.453 . S
C1896 C1900 1.684 . S
C1897 C1887 1.723 . S
C1897 C1896 1.396 . S
C1897 C1898 1.394 . S
C1898 C1868 1.723 . S
C1898 C1894 1.397 . S
C1898 C1897 1.394 . S
C1899 H1871 0.982 . S
C1899 H1875 0.979 . S
C1899 H1876 0.977 . S
C1899 C1896 1.453 . S
C1900 H1872 0.979 . S
C1900 H1873 0.980 . S
C1900 H1874 0.983 . S
C1900 C1896 1.684 . S
H1901 C1919 0.948 . S
H1902 C1860 0.948 . S
H1903 C1878 0.979 . S
H1904 C1878 0.980 . S
H1905 C1878 0.983 . S
H1906 C1877 0.982 . S
H1907 C1877 0.979 . S
H1908 C1877 0.977 . S
H1909 C1879 0.948 . S
H1910 C1881 0.947 . S
H1911 C1882 0.948 . S
H1912 C1888 0.982 . S
H1913 C1888 0.979 . S
H1914 C1888 0.977 . S
H1915 C1889 0.979 . S
H1916 C1889 0.980 . S
H1917 C1889 0.983 . S
H1918 C1862 0.947 . S
C1919 C1862 1.392 . S
C1919 C1863 1.419 . S
C1919 H1901 0.948 . S
Cu1920 N1921 1.999 . S
Cu1920 O1926 1.974 1_554 S
Cu1920 N1931 1.985 . S
Cu1920 O1940 1.959 . S
N1921 Cu1920 1.999 . S
N1921 C1923 1.263 1_554 S
N1921 C1925 1.389 . S
N1922 C1923 1.358 . S
N1922 C1924 1.400 . S
C1923 N1921 1.263 1_556 S
C1923 N1922 1.358 . S
C1923 H1929 0.930 . S
C1924 N1922 1.400 . S
C1924 C1925 1.351 1_556 S
C1924 H1941 0.930 . S
C1925 N1921 1.389 . S
C1925 C1924 1.351 1_554 S
C1925 H1930 0.930 . S
O1926 Cu1920 1.974 1_556 S
O1926 C1936 1.282 . S
C1927 O1928 1.261 . S
C1927 O1940 1.251 . S
O1928 C1927 1.261 . S
H1929 C1923 0.930 . S
H1930 C1925 0.930 . S
N1931 Cu1920 1.985 . S
N1931 C1933 1.335 . S
N1931 C1934 1.390 . S
N1932 C1933 1.345 . S
N1932 C1935 1.336 . S
C1933 N1931 1.335 . S
C1933 N1932 1.345 . S
C1933 H1938 0.930 . S
C1934 N1931 1.390 . S
C1934 C1935 1.346 . S
C1934 H1939 0.930 . S
C1935 N1932 1.336 . S
C1935 C1934 1.346 . S
C1935 H1942 0.929 . S
C1936 O1926 1.282 . S
C1936 O1937 1.216 . S
O1937 C1936 1.216 . S
H1938 C1933 0.930 . S
H1939 C1934 0.930 . S
O1940 Cu1920 1.959 . S
O1940 C1927 1.251 . S
H1941 C1924 0.930 . S
H1942 C1935 0.929 . S
Cu1943 N1944 1.999 . S
Cu1943 O1949 1.974 . S
Cu1943 N1954 1.985 1_554 S
Cu1943 O1963 1.959 1_554 S
N1944 Cu1943 1.999 . S
N1944 C1946 1.263 . S
N1944 C1948 1.389 . S
N1945 C1946 1.358 . S
N1945 C1947 1.400 . S
C1946 N1944 1.263 . S
C1946 N1945 1.358 . S
C1946 H1952 0.930 . S
C1947 N1945 1.400 . S
C1947 C1948 1.351 . S
C1947 H1964 0.930 . S
C1948 N1944 1.389 . S
C1948 C1947 1.351 . S
C1948 H1953 0.930 . S
O1949 Cu1943 1.974 . S
O1949 C1959 1.282 . S
C1950 O1951 1.261 . S
C1950 O1963 1.251 . S
O1951 C1950 1.261 . S
H1952 C1946 0.930 . S
H1953 C1948 0.930 . S
N1954 Cu1943 1.985 1_556 S
N1954 C1956 1.335 . S
N1954 C1957 1.390 . S
N1955 C1956 1.345 . S
N1955 C1958 1.336 . S
C1956 N1954 1.335 . S
C1956 N1955 1.345 . S
C1956 H1961 0.930 . S
C1957 N1954 1.390 . S
C1957 C1958 1.346 . S
C1957 H1962 0.930 1_556 S
C1958 N1955 1.336 . S
C1958 C1957 1.346 . S
C1958 H1965 0.929 . S
C1959 O1949 1.282 . S
C1959 O1960 1.216 . S
O1960 C1959 1.216 . S
H1961 C1956 0.930 . S
H1962 C1957 0.930 1_554 S
O1963 Cu1943 1.959 1_556 S
O1963 C1950 1.251 . S
H1964 C1947 0.930 . S
H1965 C1958 0.929 . S
Cu1966 N1967 1.961 1_554 S
Cu1966 O1972 1.926 1_554 S
Cu1966 N1977 2.023 . S
Cu1966 O1986 2.007 . S
N1967 Cu1966 1.961 1_556 S
N1967 C1969 1.263 . S
N1967 C1971 1.389 . S
N1968 C1969 1.358 . S
N1968 C1970 1.400 . S
C1969 N1967 1.263 . S
C1969 N1968 1.358 . S
C1969 H1975 0.930 . S
C1970 N1968 1.400 . S
C1970 C1971 1.351 . S
C1970 H1987 0.930 . S
C1971 N1967 1.389 . S
C1971 C1970 1.351 . S
C1971 H1976 0.930 . S
O1972 Cu1966 1.926 1_556 S
O1972 C1982 1.282 . S
C1973 O1974 1.261 . S
C1973 O1986 1.251 . S
O1974 C1973 1.261 . S
H1975 C1969 0.930 . S
H1976 C1971 0.930 . S
N1977 Cu1966 2.023 . S
N1977 C1979 1.335 . S
N1977 C1980 1.390 . S
N1978 C1979 1.345 . S
N1978 C1981 1.336 . S
C1979 N1977 1.335 . S
C1979 N1978 1.345 . S
C1979 H1984 0.930 . S
C1980 N1977 1.390 . S
C1980 C1981 1.346 . S
C1980 H1985 0.973 . S
C1981 N1978 1.336 . S
C1981 C1980 1.346 . S
C1981 H1988 0.929 . S
C1982 O1972 1.282 . S
C1982 O1983 1.216 . S
O1983 C1982 1.216 . S
H1984 C1979 0.930 . S
H1985 C1980 0.973 . S
O1986 Cu1966 2.007 . S
O1986 C1973 1.251 . S
H1987 C1970 0.930 . S
H1988 C1981 0.929 . S
Cu1989 N1990 2.040 . S
Cu1989 O1995 2.023 . S
Cu1989 N2000 1.947 1_554 S
Cu1989 O2009 1.912 1_554 S
N1990 Cu1989 2.040 . S
N1990 C1992 1.263 . S
N1990 C1994 1.389 . S
N1991 C1992 1.358 . S
N1991 C1993 1.400 . S
C1992 N1990 1.263 . S
C1992 N1991 1.358 . S
C1992 H1998 0.930 . S
C1993 N1991 1.400 . S
C1993 C1994 1.351 . S
C1993 H2010 0.930 . S
C1994 N1990 1.389 . S
C1994 C1993 1.351 . S
C1994 H1999 0.930 . S
O1995 Cu1989 2.023 . S
O1995 C2005 1.282 . S
C1996 O1997 1.261 . S
C1996 O2009 1.251 . S
O1997 C1996 1.261 . S
H1998 C1992 0.930 . S
H1999 C1994 0.930 . S
N2000 Cu1989 1.947 1_556 S
N2000 C2002 1.335 . S
N2000 C2003 1.390 . S
N2001 C2002 1.345 . S
N2001 C2004 1.336 . S
C2002 N2000 1.335 . S
C2002 N2001 1.345 . S
C2002 H2007 0.930 . S
C2003 N2000 1.390 . S
C2003 C2004 1.346 . S
C2003 H2008 0.872 1_556 S
C2004 N2001 1.336 . S
C2004 C2003 1.346 . S
C2004 H2011 0.929 . S
C2005 O1995 1.282 . S
C2005 O2006 1.216 . S
O2006 C2005 1.216 . S
H2007 C2002 0.930 . S
H2008 C2003 0.872 1_554 S
O2009 Cu1989 1.912 1_556 S
O2009 C1996 1.251 . S
H2010 C1993 0.930 . S
H2011 C2004 0.929 . S
Cu2012 N2013 1.999 . S
Cu2012 O2018 1.974 . S
Cu2012 N2023 1.985 1_455 S
Cu2012 O2032 1.959 1_455 S
N2013 Cu2012 1.999 . S
N2013 C2015 1.263 . S
N2013 C2017 1.389 . S
N2014 C2015 1.358 . S
N2014 C2016 1.400 . S
C2015 N2013 1.263 . S
C2015 N2014 1.358 . S
C2015 H2021 0.930 . S
C2016 N2014 1.400 . S
C2016 C2017 1.351 . S
C2016 H2033 0.930 . S
C2017 N2013 1.389 . S
C2017 C2016 1.351 . S
C2017 H2022 0.930 . S
O2018 Cu2012 1.974 . S
O2018 C2028 1.282 . S
C2019 O2020 1.261 . S
C2019 O2032 1.251 . S
O2020 C2019 1.261 . S
H2021 C2015 0.930 . S
H2022 C2017 0.930 . S
N2023 Cu2012 1.985 1_655 S
N2023 C2025 1.335 . S
N2023 C2026 1.390 1_655 S
N2024 C2025 1.345 . S
N2024 C2027 1.336 . S
C2025 N2023 1.335 . S
C2025 N2024 1.345 . S
C2025 H2030 0.930 . S
C2026 N2023 1.390 1_455 S
C2026 C2027 1.347 1_455 S
C2026 H2031 0.930 . S
C2027 N2024 1.336 . S
C2027 C2026 1.347 1_655 S
C2027 H2034 0.929 . S
C2028 O2018 1.282 . S
C2028 O2029 1.216 . S
O2029 C2028 1.216 . S
H2030 C2025 0.930 . S
H2031 C2026 0.930 . S
O2032 Cu2012 1.959 1_655 S
O2032 C2019 1.251 . S
H2033 C2016 0.930 . S
H2034 C2027 0.929 . S
Cu2035 N2036 1.999 . S
Cu2035 O2041 1.974 . S
Cu2035 N2046 1.985 1_545 S
Cu2035 O2055 1.959 1_545 S
N2036 Cu2035 1.999 . S
N2036 C2038 1.263 . S
N2036 C2040 1.389 . S
N2037 C2038 1.358 . S
N2037 C2039 1.400 . S
C2038 N2036 1.263 . S
C2038 N2037 1.358 . S
C2038 H2044 0.930 . S
C2039 N2037 1.400 . S
C2039 C2040 1.351 . S
C2039 H2056 0.930 . S
C2040 N2036 1.389 . S
C2040 C2039 1.351 . S
C2040 H2045 0.930 . S
O2041 Cu2035 1.974 . S
O2041 C2051 1.282 . S
C2042 O2043 1.261 . S
C2042 O2055 1.251 . S
O2043 C2042 1.261 . S
H2044 C2038 0.930 . S
H2045 C2040 0.930 . S
N2046 Cu2035 1.985 1_565 S
N2046 C2048 1.335 . S
N2046 C2049 1.390 . S
N2047 C2048 1.345 . S
N2047 C2050 1.336 . S
C2048 N2046 1.335 . S
C2048 N2047 1.345 . S
C2048 H2053 0.930 . S
C2049 N2046 1.390 . S
C2049 C2050 1.346 . S
C2049 H2054 0.930 1_565 S
C2050 N2047 1.336 . S
C2050 C2049 1.346 . S
C2050 H2057 0.929 . S
C2051 O2041 1.282 . S
C2051 O2052 1.216 . S
O2052 C2051 1.216 . S
H2053 C2048 0.930 . S
H2054 C2049 0.930 1_545 S
O2055 Cu2035 1.959 1_565 S
O2055 C2042 1.251 . S
H2056 C2039 0.930 . S
H2057 C2050 0.929 . S
Cu2058 N2059 2.002 1_455 S
Cu2058 O2064 1.977 1_455 S
Cu2058 N2069 1.983 . S
Cu2058 O2078 1.956 . S
N2059 Cu2058 2.002 1_655 S
N2059 C2061 1.263 . S
N2059 C2063 1.389 . S
N2060 C2061 1.358 . S
N2060 C2062 1.400 . S
C2061 N2059 1.263 . S
C2061 N2060 1.358 . S
C2061 H2067 0.930 . S
C2062 N2060 1.400 . S
C2062 C2063 1.351 . S
C2062 H2079 0.930 . S
C2063 N2059 1.389 . S
C2063 C2062 1.351 . S
C2063 H2068 0.930 . S
O2064 Cu2058 1.977 1_655 S
O2064 C2074 1.282 . S
C2065 O2066 1.261 . S
C2065 O2078 1.251 . S
O2066 C2065 1.261 . S
H2067 C2061 0.930 . S
H2068 C2063 0.930 . S
N2069 Cu2058 1.983 . S
N2069 C2071 1.335 . S
N2069 C2072 1.390 . S
N2070 C2071 1.345 . S
N2070 C2073 1.336 . S
C2071 N2069 1.335 . S
C2071 N2070 1.345 . S
C2071 H2076 0.930 . S
C2072 N2069 1.390 . S
C2072 C2073 1.346 . S
C2072 H2077 0.930 . S
C2073 N2070 1.336 . S
C2073 C2072 1.346 . S
C2073 H2080 0.929 . S
C2074 O2064 1.282 . S
C2074 O2075 1.216 . S
O2075 C2074 1.216 . S
H2076 C2071 0.930 . S
H2077 C2072 0.930 . S
O2078 Cu2058 1.956 . S
O2078 C2065 1.251 . S
H2079 C2062 0.930 . S
H2080 C2073 0.929 . S
Cu2081 N2082 1.987 1_565 S
Cu2081 O2087 1.958 1_565 S
Cu2081 N2092 1.997 . S
Cu2081 O2101 1.975 . S
N2082 Cu2081 1.987 1_545 S
N2082 C2084 1.263 . S
N2082 C2086 1.389 . S
N2083 C2084 1.358 . S
N2083 C2085 1.400 . S
C2084 N2082 1.263 . S
C2084 N2083 1.358 . S
C2084 H2090 0.930 . S
C2085 N2083 1.400 . S
C2085 C2086 1.351 . S
C2085 H2102 0.930 . S
C2086 N2082 1.389 . S
C2086 C2085 1.351 . S
C2086 H2091 0.930 . S
O2087 Cu2081 1.958 1_545 S
O2087 C2097 1.282 . S
C2088 O2089 1.261 . S
C2088 O2101 1.251 . S
O2089 C2088 1.261 . S
H2090 C2084 0.930 . S
H2091 C2086 0.930 . S
N2092 Cu2081 1.997 . S
N2092 C2094 1.335 . S
N2092 C2095 1.390 . S
N2093 C2094 1.345 . S
N2093 C2096 1.336 . S
C2094 N2092 1.335 . S
C2094 N2093 1.345 . S
C2094 H2099 0.930 . S
C2095 N2092 1.390 . S
C2095 C2096 1.346 . S
C2095 H2100 0.930 . S
C2096 N2093 1.336 . S
C2096 C2095 1.346 . S
C2096 H2103 0.929 . S
C2097 O2087 1.282 . S
C2097 O2098 1.216 . S
O2098 C2097 1.216 . S
H2099 C2094 0.930 . S
H2100 C2095 0.930 . S
O2101 Cu2081 1.975 . S
O2101 C2088 1.251 . S
H2102 C2085 0.930 . S
H2103 C2096 0.929 . S
Cu2104 N2105 1.999 . S
Cu2104 O2110 1.974 . S
Cu2104 N2115 1.985 1_455 S
Cu2104 O2124 1.959 1_455 S
N2105 Cu2104 1.999 . S
N2105 C2107 1.263 . S
N2105 C2109 1.389 . S
N2106 C2107 1.358 . S
N2106 C2108 1.400 . S
C2107 N2105 1.263 . S
C2107 N2106 1.358 . S
C2107 H2113 0.930 . S
C2108 N2106 1.400 . S
C2108 C2109 1.351 . S
C2108 H2125 0.930 . S
C2109 N2105 1.389 . S
C2109 C2108 1.351 . S
C2109 H2114 0.930 . S
O2110 Cu2104 1.974 . S
O2110 C2120 1.282 . S
C2111 O2112 1.261 . S
C2111 O2124 1.251 . S
O2112 C2111 1.261 . S
H2113 C2107 0.930 . S
H2114 C2109 0.930 . S
N2115 Cu2104 1.985 1_655 S
N2115 C2117 1.335 . S
N2115 C2118 1.398 . S
N2116 C2117 1.345 . S
N2116 C2119 1.336 . S
C2117 N2115 1.335 . S
C2117 N2116 1.345 . S
C2117 H2122 0.930 . S
C2118 N2115 1.398 . S
C2118 C2119 1.382 . S
C2118 H2123 0.894 1_655 S
C2119 N2116 1.336 . S
C2119 C2118 1.382 . S
C2119 H2126 0.929 . S
C2120 O2110 1.282 . S
C2120 O2121 1.216 . S
O2121 C2120 1.216 . S
H2122 C2117 0.930 . S
H2123 C2118 0.894 1_455 S
O2124 Cu2104 1.959 1_655 S
O2124 C2111 1.251 . S
H2125 C2108 0.930 . S
H2126 C2119 0.929 . S
Cu2127 N2128 1.999 . S
Cu2127 O2133 1.974 . S
Cu2127 N2138 1.985 1_545 S
Cu2127 O2147 1.959 1_545 S
N2128 Cu2127 1.999 . S
N2128 C2130 1.263 . S
N2128 C2132 1.389 . S
N2129 C2130 1.358 . S
N2129 C2131 1.400 . S
C2130 N2128 1.263 . S
C2130 N2129 1.358 . S
C2130 H2136 0.930 . S
C2131 N2129 1.400 . S
C2131 C2132 1.351 . S
C2131 H2148 0.930 . S
C2132 N2128 1.389 . S
C2132 C2131 1.351 . S
C2132 H2137 0.930 . S
O2133 Cu2127 1.974 . S
O2133 C2143 1.282 . S
C2134 O2135 1.261 . S
C2134 O2147 1.251 . S
O2135 C2134 1.261 . S
H2136 C2130 0.930 . S
H2137 C2132 0.930 . S
N2138 Cu2127 1.985 1_565 S
N2138 C2140 1.335 . S
N2138 C2141 1.378 1_565 S
N2139 C2140 1.345 . S
N2139 C2142 1.336 . S
C2140 N2138 1.335 . S
C2140 N2139 1.345 . S
C2140 H2145 0.930 . S
C2141 N2138 1.378 1_545 S
C2141 C2142 1.279 1_545 S
C2141 H2146 1.001 . S
C2142 N2139 1.336 . S
C2142 C2141 1.279 1_565 S
C2142 H2149 0.929 . S
C2143 O2133 1.282 . S
C2143 O2144 1.216 . S
O2144 C2143 1.216 . S
H2145 C2140 0.930 . S
H2146 C2141 1.001 . S
O2147 Cu2127 1.959 1_565 S
O2147 C2134 1.251 . S
H2148 C2131 0.930 . S
H2149 C2142 0.929 . S
Cu2150 N2151 1.999 . S
Cu2150 O2156 1.974 . S
Cu2150 N2161 1.985 . S
Cu2150 O2170 1.959 . S
N2151 Cu2150 1.999 . S
N2151 C2153 1.263 1_455 S
N2151 C2155 1.389 . S
N2152 C2153 1.358 . S
N2152 C2154 1.400 . S
C2153 N2151 1.263 1_655 S
C2153 N2152 1.358 . S
C2153 H2159 0.930 . S
C2154 N2152 1.400 . S
C2154 C2155 1.351 1_655 S
C2154 H2171 0.930 . S
C2155 N2151 1.389 . S
C2155 C2154 1.351 1_455 S
C2155 H2160 0.930 . S
O2156 Cu2150 1.974 . S
O2156 C2166 1.282 1_455 S
C2157 O2158 1.261 . S
C2157 O2170 1.251 . S
O2158 C2157 1.261 . S
H2159 C2153 0.930 . S
H2160 C2155 0.930 . S
N2161 Cu2150 1.985 . S
N2161 C2163 1.335 . S
N2161 C2164 1.390 . S
N2162 C2163 1.345 . S
N2162 C2165 1.336 . S
C2163 N2161 1.335 . S
C2163 N2162 1.345 . S
C2163 H2168 0.930 . S
C2164 N2161 1.390 . S
C2164 C2165 1.346 . S
C2164 H2169 0.930 . S
C2165 N2162 1.336 . S
C2165 C2164 1.346 . S
C2165 H2172 0.929 . S
C2166 O2156 1.282 1_655 S
C2166 O2167 1.216 1_655 S
O2167 C2166 1.216 1_455 S
H2168 C2163 0.930 . S
H2169 C2164 0.930 . S
O2170 Cu2150 1.959 . S
O2170 C2157 1.251 . S
H2171 C2154 0.930 . S
H2172 C2165 0.929 . S
Cu2173 N2174 1.999 . S
Cu2173 O2179 1.974 . S
Cu2173 N2184 2.027 . S
Cu2173 O2193 1.959 1_545 S
N2174 Cu2173 1.999 . S
N2174 C2176 1.263 . S
N2174 C2178 1.389 . S
N2175 C2176 1.358 . S
N2175 C2177 1.400 . S
C2176 N2174 1.263 . S
C2176 N2175 1.358 . S
C2176 H2182 0.930 . S
C2177 N2175 1.400 . S
C2177 C2178 1.351 . S
C2177 H2194 0.930 . S
C2178 N2174 1.389 . S
C2178 C2177 1.351 . S
C2178 H2183 0.930 . S
O2179 Cu2173 1.974 . S
O2179 C2189 1.282 . S
C2180 O2181 1.254 1_565 S
C2180 O2193 1.251 . S
O2181 C2180 1.254 1_545 S
H2182 C2176 0.930 . S
H2183 C2178 0.930 . S
N2184 Cu2173 2.027 . S
N2184 C2186 1.269 1_545 S
N2184 C2187 1.407 . S
N2185 C2186 1.345 . S
N2185 C2188 1.336 . S
C2186 N2184 1.269 1_565 S
C2186 N2185 1.345 . S
C2186 H2191 0.930 . S
C2187 N2184 1.407 . S
C2187 C2188 1.346 1_545 S
C2187 H2192 0.930 . S
C2188 N2185 1.336 . S
C2188 C2187 1.346 1_565 S
C2188 H2195 0.929 . S
C2189 O2179 1.282 . S
C2189 O2190 1.216 . S
O2190 C2189 1.216 . S
H2191 C2186 0.930 . S
H2192 C2187 0.930 . S
O2193 Cu2173 1.959 1_565 S
O2193 C2180 1.251 . S
H2194 C2177 0.930 . S
H2195 C2188 0.929 . S
Cu2196 N2197 1.999 . S
Cu2196 O2202 1.974 . S
Cu2196 N2207 1.985 . S
Cu2196 O2216 1.959 . S
N2197 Cu2196 1.999 . S
N2197 C2199 1.263 . S
N2197 C2201 1.389 . S
N2198 C2199 1.358 . S
N2198 C2200 1.400 . S
C2199 N2197 1.263 . S
C2199 N2198 1.358 . S
C2199 H2205 0.930 . S
C2200 N2198 1.400 . S
C2200 C2201 1.351 . S
C2200 H2217 0.930 . S
C2201 N2197 1.389 . S
C2201 C2200 1.351 . S
C2201 H2206 0.930 . S
O2202 Cu2196 1.974 . S
O2202 C2212 1.282 . S
C2203 O2204 1.261 . S
C2203 O2216 1.251 . S
O2204 C2203 1.261 . S
H2205 C2199 0.930 . S
H2206 C2201 0.930 . S
N2207 Cu2196 1.985 . S
N2207 C2209 1.335 . S
N2207 C2210 1.390 . S
N2208 C2209 1.345 . S
N2208 C2211 1.336 . S
C2209 N2207 1.335 . S
C2209 N2208 1.345 . S
C2209 H2214 0.930 . S
C2210 N2207 1.390 . S
C2210 C2211 1.346 . S
C2210 H2215 0.930 . S
C2211 N2208 1.336 . S
C2211 C2210 1.346 . S
C2211 H2218 0.929 . S
C2212 O2202 1.282 . S
C2212 O2213 1.216 . S
O2213 C2212 1.216 . S
H2214 C2209 0.930 . S
H2215 C2210 0.930 . S
O2216 Cu2196 1.959 . S
O2216 C2203 1.251 . S
H2217 C2200 0.930 . S
H2218 C2211 0.929 . S
Cu2219 N2220 1.999 . S
Cu2219 O2225 1.974 . S
Cu2219 N2230 1.985 . S
Cu2219 O2239 1.959 . S
N2220 Cu2219 1.999 . S
N2220 C2222 1.263 . S
N2220 C2224 1.389 . S
N2221 C2222 1.358 . S
N2221 C2223 1.400 . S
C2222 N2220 1.263 . S
C2222 N2221 1.358 . S
C2222 H2228 0.930 . S
C2223 N2221 1.400 . S
C2223 C2224 1.351 . S
C2223 H2240 0.930 . S
C2224 N2220 1.389 . S
C2224 C2223 1.351 . S
C2224 H2229 0.930 . S
O2225 Cu2219 1.974 . S
O2225 C2235 1.282 . S
C2226 O2227 1.261 . S
C2226 O2239 1.251 . S
O2227 C2226 1.261 . S
H2228 C2222 0.930 . S
H2229 C2224 0.930 . S
N2230 Cu2219 1.985 . S
N2230 C2232 1.335 . S
N2230 C2233 1.390 . S
N2231 C2232 1.345 . S
N2231 C2234 1.336 . S
C2232 N2230 1.335 . S
C2232 N2231 1.345 . S
C2232 H2237 0.930 . S
C2233 N2230 1.390 . S
C2233 C2234 1.346 . S
C2233 H2238 0.930 . S
C2234 N2231 1.336 . S
C2234 C2233 1.346 . S
C2234 H2241 0.929 . S
C2235 O2225 1.282 . S
C2235 O2236 1.216 . S
O2236 C2235 1.216 . S
H2237 C2232 0.930 . S
H2238 C2233 0.930 . S
O2239 Cu2219 1.959 . S
O2239 C2226 1.251 . S
H2240 C2223 0.930 . S
H2241 C2234 0.929 . S
Cu2242 N2243 1.999 . S
Cu2242 O2248 1.974 . S
Cu2242 N2253 1.985 . S
Cu2242 O2262 1.959 . S
N2243 Cu2242 1.999 . S
N2243 C2245 1.263 . S
N2243 C2247 1.389 . S
N2244 C2245 1.358 . S
N2244 C2246 1.400 . S
C2245 N2243 1.263 . S
C2245 N2244 1.358 . S
C2245 H2251 0.930 . S
C2246 N2244 1.400 . S
C2246 C2247 1.351 . S
C2246 H2263 0.930 . S
C2247 N2243 1.389 . S
C2247 C2246 1.351 . S
C2247 H2252 0.930 . S
O2248 Cu2242 1.974 . S
O2248 C2258 1.282 . S
C2249 O2250 1.261 . S
C2249 O2262 1.251 . S
O2250 C2249 1.261 . S
H2251 C2245 0.930 . S
H2252 C2247 0.930 . S
N2253 Cu2242 1.985 . S
N2253 C2255 1.335 . S
N2253 C2256 1.390 . S
N2254 C2255 1.345 . S
N2254 C2257 1.336 . S
C2255 N2253 1.335 . S
C2255 N2254 1.345 . S
C2255 H2260 0.930 . S
C2256 N2253 1.390 . S
C2256 C2257 1.346 . S
C2256 H2261 0.930 . S
C2257 N2254 1.336 . S
C2257 C2256 1.346 . S
C2257 H2264 0.929 . S
C2258 O2248 1.282 . S
C2258 O2259 1.216 . S
O2259 C2258 1.216 . S
H2260 C2255 0.930 . S
H2261 C2256 0.930 . S
O2262 Cu2242 1.959 . S
O2262 C2249 1.251 . S
H2263 C2246 0.930 . S
H2264 C2257 0.929 . S
Cu2265 N2266 1.999 . S
Cu2265 O2271 1.974 . S
Cu2265 N2276 1.985 . S
Cu2265 O2285 1.959 . S
N2266 Cu2265 1.999 . S
N2266 C2268 1.263 . S
N2266 C2270 1.389 . S
N2267 C2268 1.358 . S
N2267 C2269 1.400 . S
C2268 N2266 1.263 . S
C2268 N2267 1.358 . S
C2268 H2274 0.930 . S
C2269 N2267 1.400 . S
C2269 C2270 1.351 . S
C2269 H2286 0.930 . S
C2270 N2266 1.389 . S
C2270 C2269 1.351 . S
C2270 H2275 0.930 . S
O2271 Cu2265 1.974 . S
O2271 C2281 1.282 . S
C2272 O2273 1.261 . S
C2272 O2285 1.251 . S
O2273 C2272 1.261 . S
H2274 C2268 0.930 . S
H2275 C2270 0.930 . S
N2276 Cu2265 1.985 . S
N2276 C2278 1.335 . S
N2276 C2279 1.390 . S
N2277 C2278 1.345 . S
N2277 C2280 1.336 . S
C2278 N2276 1.335 . S
C2278 N2277 1.345 . S
C2278 H2283 0.930 . S
C2279 N2276 1.390 . S
C2279 C2280 1.346 . S
C2279 H2284 0.930 . S
C2280 N2277 1.336 . S
C2280 C2279 1.346 . S
C2280 H2287 0.929 . S
C2281 O2271 1.282 . S
C2281 O2282 1.216 . S
O2282 C2281 1.216 . S
H2283 C2278 0.930 . S
H2284 C2279 0.930 . S
O2285 Cu2265 1.959 . S
O2285 C2272 1.251 . S
H2286 C2269 0.930 . S
H2287 C2280 0.929 . S
Cu2288 N2289 1.999 . S
Cu2288 O2294 1.974 . S
Cu2288 N2299 1.985 . S
Cu2288 O2308 1.959 . S
N2289 Cu2288 1.999 . S
N2289 C2291 1.263 . S
N2289 C2293 1.389 . S
N2290 C2291 1.358 . S
N2290 C2292 1.400 . S
C2291 N2289 1.263 . S
C2291 N2290 1.358 . S
C2291 H2297 0.930 . S
C2292 N2290 1.400 . S
C2292 C2293 1.351 . S
C2292 H2309 0.930 . S
C2293 N2289 1.389 . S
C2293 C2292 1.351 . S
C2293 H2298 0.930 . S
O2294 Cu2288 1.974 . S
O2294 C2304 1.282 . S
C2295 O2296 1.261 . S
C2295 O2308 1.251 . S
O2296 C2295 1.261 . S
H2297 C2291 0.930 . S
H2298 C2293 0.930 . S
N2299 Cu2288 1.985 . S
N2299 C2301 1.335 . S
N2299 C2302 1.390 . S
N2300 C2301 1.345 . S
N2300 C2303 1.336 . S
C2301 N2299 1.335 . S
C2301 N2300 1.345 . S
C2301 H2306 0.930 . S
C2302 N2299 1.390 . S
C2302 C2303 1.346 . S
C2302 H2307 0.930 . S
C2303 N2300 1.336 . S
C2303 C2302 1.346 . S
C2303 H2310 0.929 . S
C2304 O2294 1.282 . S
C2304 O2305 1.216 . S
O2305 C2304 1.216 . S
H2306 C2301 0.930 . S
H2307 C2302 0.930 . S
O2308 Cu2288 1.959 . S
O2308 C2295 1.251 . S
H2309 C2292 0.930 . S
H2310 C2303 0.929 . S
Cu2311 N2312 1.999 . S
Cu2311 O2317 1.974 . S
Cu2311 N2322 1.985 . S
Cu2311 O2331 1.959 . S
N2312 Cu2311 1.999 . S
N2312 C2314 1.263 . S
N2312 C2316 1.389 . S
N2313 C2314 1.358 . S
N2313 C2315 1.400 . S
C2314 N2312 1.263 . S
C2314 N2313 1.358 . S
C2314 H2320 0.930 . S
C2315 N2313 1.400 . S
C2315 C2316 1.351 . S
C2315 H2332 0.930 . S
C2316 N2312 1.389 . S
C2316 C2315 1.351 . S
C2316 H2321 0.930 . S
O2317 Cu2311 1.974 . S
O2317 C2327 1.282 . S
C2318 O2319 1.261 . S
C2318 O2331 1.251 . S
O2319 C2318 1.261 . S
H2320 C2314 0.930 . S
H2321 C2316 0.930 . S
N2322 Cu2311 1.985 . S
N2322 C2324 1.335 . S
N2322 C2325 1.390 . S
N2323 C2324 1.345 . S
N2323 C2326 1.336 . S
C2324 N2322 1.335 . S
C2324 N2323 1.345 . S
C2324 H2329 0.930 . S
C2325 N2322 1.390 . S
C2325 C2326 1.346 . S
C2325 H2330 0.930 . S
C2326 N2323 1.336 . S
C2326 C2325 1.346 . S
C2326 H2333 0.929 . S
C2327 O2317 1.282 . S
C2327 O2328 1.216 . S
O2328 C2327 1.216 . S
H2329 C2324 0.930 . S
H2330 C2325 0.930 . S
O2331 Cu2311 1.959 . S
O2331 C2318 1.251 . S
H2332 C2315 0.930 . S
H2333 C2326 0.929 . S
Cu2334 N2335 1.999 . S
Cu2334 O2340 1.974 . S
Cu2334 N2345 1.985 . S
Cu2334 O2354 1.959 . S
N2335 Cu2334 1.999 . S
N2335 C2337 1.263 . S
N2335 C2339 1.389 . S
N2336 C2337 1.358 . S
N2336 C2338 1.400 . S
C2337 N2335 1.263 . S
C2337 N2336 1.358 . S
C2337 H2343 0.930 . S
C2338 N2336 1.400 . S
C2338 C2339 1.351 . S
C2338 H2355 0.930 . S
C2339 N2335 1.389 . S
C2339 C2338 1.351 . S
C2339 H2344 0.930 . S
O2340 Cu2334 1.974 . S
O2340 C2350 1.282 . S
C2341 O2342 1.261 . S
C2341 O2354 1.251 . S
O2342 C2341 1.261 . S
H2343 C2337 0.930 . S
H2344 C2339 0.930 . S
N2345 Cu2334 1.985 . S
N2345 C2347 1.335 . S
N2345 C2348 1.390 . S
N2346 C2347 1.345 . S
N2346 C2349 1.336 . S
C2347 N2345 1.335 . S
C2347 N2346 1.345 . S
C2347 H2352 0.930 . S
C2348 N2345 1.390 . S
C2348 C2349 1.346 . S
C2348 H2353 0.930 . S
C2349 N2346 1.336 . S
C2349 C2348 1.346 . S
C2349 H2356 0.929 . S
C2350 O2340 1.282 . S
C2350 O2351 1.216 . S
O2351 C2350 1.216 . S
H2352 C2347 0.930 . S
H2353 C2348 0.930 . S
O2354 Cu2334 1.959 . S
O2354 C2341 1.251 . S
H2355 C2338 0.930 . S
H2356 C2349 0.929 . S
Cu2357 N2358 1.999 . S
Cu2357 O2363 1.974 . S
Cu2357 N2368 1.985 . S
Cu2357 O2377 1.959 . S
N2358 Cu2357 1.999 . S
N2358 C2360 1.263 . S
N2358 C2362 1.389 . S
N2359 C2360 1.358 . S
N2359 C2361 1.400 . S
C2360 N2358 1.263 . S
C2360 N2359 1.358 . S
C2360 H2366 0.930 . S
C2361 N2359 1.400 . S
C2361 C2362 1.351 . S
C2361 H2378 0.930 . S
C2362 N2358 1.389 . S
C2362 C2361 1.351 . S
C2362 H2367 0.930 . S
O2363 Cu2357 1.974 . S
O2363 C2373 1.282 . S
C2364 O2365 1.261 . S
C2364 O2377 1.251 . S
O2365 C2364 1.261 . S
H2366 C2360 0.930 . S
H2367 C2362 0.930 . S
N2368 Cu2357 1.985 . S
N2368 C2370 1.335 . S
N2368 C2371 1.390 . S
N2369 C2370 1.345 . S
N2369 C2372 1.336 . S
C2370 N2368 1.335 . S
C2370 N2369 1.345 . S
C2370 H2375 0.930 . S
C2371 N2368 1.390 . S
C2371 C2372 1.346 . S
C2371 H2376 0.930 . S
C2372 N2369 1.336 . S
C2372 C2371 1.346 . S
C2372 H2379 0.929 . S
C2373 O2363 1.282 . S
C2373 O2374 1.216 . S
O2374 C2373 1.216 . S
H2375 C2370 0.930 . S
H2376 C2371 0.930 . S
O2377 Cu2357 1.959 . S
O2377 C2364 1.251 . S
H2378 C2361 0.930 . S
H2379 C2372 0.929 . S
Cu2380 N2381 1.999 . S
Cu2380 O2386 1.974 . S
Cu2380 N2391 1.985 . S
Cu2380 O2400 1.959 . S
N2381 Cu2380 1.999 . S
N2381 C2383 1.263 . S
N2381 C2385 1.389 . S
N2382 C2383 1.358 . S
N2382 C2384 1.400 . S
C2383 N2381 1.263 . S
C2383 N2382 1.358 . S
C2383 H2389 0.930 . S
C2384 N2382 1.400 . S
C2384 C2385 1.351 . S
C2384 H2401 0.930 . S
C2385 N2381 1.389 . S
C2385 C2384 1.351 . S
C2385 H2390 0.930 . S
O2386 Cu2380 1.974 . S
O2386 C2396 1.282 . S
C2387 O2388 1.261 . S
C2387 O2400 1.251 . S
O2388 C2387 1.261 . S
H2389 C2383 0.930 . S
H2390 C2385 0.930 . S
N2391 Cu2380 1.985 . S
N2391 C2393 1.335 . S
N2391 C2394 1.390 . S
N2392 C2393 1.345 . S
N2392 C2395 1.336 . S
C2393 N2391 1.335 . S
C2393 N2392 1.345 . S
C2393 H2398 0.930 . S
C2394 N2391 1.390 . S
C2394 C2395 1.346 . S
C2394 H2399 0.930 . S
C2395 N2392 1.336 . S
C2395 C2394 1.346 . S
C2395 H2402 0.929 . S
C2396 O2386 1.282 . S
C2396 O2397 1.216 . S
O2397 C2396 1.216 . S
H2398 C2393 0.930 . S
H2399 C2394 0.930 . S
O2400 Cu2380 1.959 . S
O2400 C2387 1.251 . S
H2401 C2384 0.930 . S
H2402 C2395 0.929 . S
Cu2403 N2404 1.999 . S
Cu2403 O2409 1.974 . S
Cu2403 N2414 1.985 . S
Cu2403 O2423 1.959 . S
N2404 Cu2403 1.999 . S
N2404 C2406 1.263 . S
N2404 C2408 1.389 . S
N2405 C2406 1.358 . S
N2405 C2407 1.400 . S
C2406 N2404 1.263 . S
C2406 N2405 1.358 . S
C2406 H2412 0.930 . S
C2407 N2405 1.400 . S
C2407 C2408 1.351 . S
C2407 H2424 0.930 . S
C2408 N2404 1.389 . S
C2408 C2407 1.351 . S
C2408 H2413 0.930 . S
O2409 Cu2403 1.974 . S
O2409 C2419 1.282 . S
C2410 O2411 1.261 . S
C2410 O2423 1.251 . S
O2411 C2410 1.261 . S
H2412 C2406 0.930 . S
H2413 C2408 0.930 . S
N2414 Cu2403 1.985 . S
N2414 C2416 1.335 . S
N2414 C2417 1.390 . S
N2415 C2416 1.345 . S
N2415 C2418 1.336 . S
C2416 N2414 1.335 . S
C2416 N2415 1.345 . S
C2416 H2421 0.930 . S
C2417 N2414 1.390 . S
C2417 C2418 1.346 . S
C2417 H2422 0.930 . S
C2418 N2415 1.336 . S
C2418 C2417 1.346 . S
C2418 H2425 0.929 . S
C2419 O2409 1.282 . S
C2419 O2420 1.216 . S
O2420 C2419 1.216 . S
H2421 C2416 0.930 . S
H2422 C2417 0.930 . S
O2423 Cu2403 1.959 . S
O2423 C2410 1.251 . S
H2424 C2407 0.930 . S
H2425 C2418 0.929 . S
Cu2426 N2427 1.999 . S
Cu2426 O2432 1.974 . S
Cu2426 N2437 1.985 . S
Cu2426 O2446 1.959 . S
N2427 Cu2426 1.999 . S
N2427 C2429 1.263 . S
N2427 C2431 1.389 . S
N2428 C2429 1.358 . S
N2428 C2430 1.400 . S
C2429 N2427 1.263 . S
C2429 N2428 1.358 . S
C2429 H2435 0.930 . S
C2430 N2428 1.400 . S
C2430 C2431 1.351 . S
C2430 H2447 0.930 . S
C2431 N2427 1.389 . S
C2431 C2430 1.351 . S
C2431 H2436 0.930 . S
O2432 Cu2426 1.974 . S
O2432 C2442 1.282 . S
C2433 O2434 1.261 . S
C2433 O2446 1.251 . S
O2434 C2433 1.261 . S
H2435 C2429 0.930 . S
H2436 C2431 0.930 . S
N2437 Cu2426 1.985 . S
N2437 C2439 1.335 . S
N2437 C2440 1.390 . S
N2438 C2439 1.345 . S
N2438 C2441 1.336 . S
C2439 N2437 1.335 . S
C2439 N2438 1.345 . S
C2439 H2444 0.930 . S
C2440 N2437 1.390 . S
C2440 C2441 1.346 . S
C2440 H2445 0.930 . S
C2441 N2438 1.336 . S
C2441 C2440 1.346 . S
C2441 H2448 0.929 . S
C2442 O2432 1.282 . S
C2442 O2443 1.216 . S
O2443 C2442 1.216 . S
H2444 C2439 0.930 . S
H2445 C2440 0.930 . S
O2446 Cu2426 1.959 . S
O2446 C2433 1.251 . S
H2447 C2430 0.930 . S
H2448 C2441 0.929 . S
Cu2449 N2450 1.999 . S
Cu2449 O2455 1.974 . S
Cu2449 N2460 1.985 . S
Cu2449 O2469 1.959 . S
N2450 Cu2449 1.999 . S
N2450 C2452 1.263 . S
N2450 C2454 1.389 . S
N2451 C2452 1.358 . S
N2451 C2453 1.400 . S
C2452 N2450 1.263 . S
C2452 N2451 1.358 . S
C2452 H2458 0.930 . S
C2453 N2451 1.400 . S
C2453 C2454 1.351 . S
C2453 H2470 0.930 . S
C2454 N2450 1.389 . S
C2454 C2453 1.351 . S
C2454 H2459 0.930 . S
O2455 Cu2449 1.974 . S
O2455 C2465 1.282 . S
C2456 O2457 1.261 . S
C2456 O2469 1.251 . S
O2457 C2456 1.261 . S
H2458 C2452 0.930 . S
H2459 C2454 0.930 . S
N2460 Cu2449 1.985 . S
N2460 C2462 1.335 . S
N2460 C2463 1.390 . S
N2461 C2462 1.345 . S
N2461 C2464 1.336 . S
C2462 N2460 1.335 . S
C2462 N2461 1.345 . S
C2462 H2467 0.930 . S
C2463 N2460 1.390 . S
C2463 C2464 1.346 . S
C2463 H2468 0.930 . S
C2464 N2461 1.336 . S
C2464 C2463 1.346 . S
C2464 H2471 0.929 . S
C2465 O2455 1.282 . S
C2465 O2466 1.216 . S
O2466 C2465 1.216 . S
H2467 C2462 0.930 . S
H2468 C2463 0.930 . S
O2469 Cu2449 1.959 . S
O2469 C2456 1.251 . S
H2470 C2453 0.930 . S
H2471 C2464 0.929 . S
H2472 C2480 0.950 . S
H2473 C2485 0.950 . S
H2474 C2482 0.950 . S
H2475 C2484 0.950 . S
H2476 C2486 0.950 . S
H2477 C2488 0.950 . S
H2478 C2490 0.950 . S
H2479 C2491 0.950 . S
C2480 H2472 0.950 . S
C2480 C2481 1.386 . S
C2480 C2482 1.391 . S
C2481 C2480 1.386 . S
C2481 C2485 1.393 . S
C2482 H2474 0.950 . S
C2482 C2480 1.391 . S
C2482 C2483 1.400 . S
C2483 C2482 1.400 . S
C2483 C2484 1.398 . S
C2483 C2489 1.491 . S
C2484 H2475 0.950 . S
C2484 C2483 1.398 . S
C2484 C2485 1.391 . S
C2485 H2473 0.950 . S
C2485 C2481 1.393 . S
C2485 C2484 1.391 . S
C2486 H2476 0.950 . S
C2486 C2487 1.386 . S
C2486 C2488 1.391 . S
C2487 C2486 1.386 . S
C2487 C2491 1.393 . S
C2488 H2477 0.950 . S
C2488 C2486 1.391 . S
C2488 C2489 1.400 . S
C2489 C2483 1.491 . S
C2489 C2488 1.400 . S
C2489 C2490 1.398 . S
C2490 H2478 0.950 . S
C2490 C2489 1.398 . S
C2490 C2491 1.391 . S
C2491 H2479 0.950 . S
C2491 C2487 1.393 . S
C2491 C2490 1.391 . S
H2492 C2500 0.950 . S
H2493 C2505 0.950 . S
H2494 C2502 0.950 . S
H2495 C2504 0.950 . S
H2496 C2506 0.950 . S
H2497 C2508 0.950 . S
H2498 C2510 0.950 . S
H2499 C2511 0.950 . S
C2500 H2492 0.950 . S
C2500 C2501 1.386 . S
C2500 C2502 1.391 . S
C2501 C2500 1.386 . S
C2501 C2505 1.393 . S
C2502 H2494 0.950 . S
C2502 C2500 1.391 . S
C2502 C2503 1.400 . S
C2503 C2502 1.400 . S
C2503 C2504 1.398 . S
C2503 C2509 1.491 . S
C2504 H2495 0.950 . S
C2504 C2503 1.398 . S
C2504 C2505 1.391 . S
C2505 H2493 0.950 . S
C2505 C2501 1.393 . S
C2505 C2504 1.391 . S
C2506 H2496 0.950 . S
C2506 C2507 1.386 . S
C2506 C2508 1.391 . S
C2507 C2506 1.386 . S
C2507 C2511 1.393 . S
C2508 H2497 0.950 . S
C2508 C2506 1.391 . S
C2508 C2509 1.400 . S
C2509 C2503 1.491 . S
C2509 C2508 1.400 . S
C2509 C2510 1.398 . S
C2510 H2498 0.950 . S
C2510 C2509 1.398 . S
C2510 C2511 1.391 . S
C2511 H2499 0.950 . S
C2511 C2507 1.393 . S
C2511 C2510 1.391 . S
H2512 C2520 0.950 . S
H2513 C2525 0.950 . S
H2514 C2522 0.950 . S
H2515 C2524 0.950 . S
H2516 C2526 0.950 . S
H2517 C2528 0.950 . S
H2518 C2530 0.950 . S
H2519 C2531 0.950 . S
C2520 H2512 0.950 . S
C2520 C2521 1.386 . S
C2520 C2522 1.391 . S
C2521 C2520 1.386 . S
C2521 C2525 1.393 . S
C2522 H2514 0.950 . S
C2522 C2520 1.391 . S
C2522 C2523 1.400 . S
C2523 C2522 1.400 . S
C2523 C2524 1.398 . S
C2523 C2529 1.491 . S
C2524 H2515 0.950 . S
C2524 C2523 1.398 . S
C2524 C2525 1.391 . S
C2525 H2513 0.950 . S
C2525 C2521 1.393 . S
C2525 C2524 1.391 . S
C2526 H2516 0.950 . S
C2526 C2527 1.386 . S
C2526 C2528 1.391 . S
C2527 C2526 1.386 . S
C2527 C2531 1.393 . S
C2528 H2517 0.950 . S
C2528 C2526 1.391 . S
C2528 C2529 1.400 . S
C2529 C2523 1.491 . S
C2529 C2528 1.400 . S
C2529 C2530 1.398 . S
C2530 H2518 0.950 . S
C2530 C2529 1.398 . S
C2530 C2531 1.391 . S
C2531 H2519 0.950 . S
C2531 C2527 1.393 . S
C2531 C2530 1.391 . S
H2532 C2540 0.950 . S
H2533 C2545 0.950 . S
H2534 C2542 0.950 . S
H2535 C2544 0.950 . S
H2536 C2546 0.950 . S
H2537 C2548 0.950 . S
H2538 C2550 0.950 . S
H2539 C2551 0.950 . S
C2540 H2532 0.950 . S
C2540 C2541 1.386 . S
C2540 C2542 1.391 . S
C2541 C2540 1.386 . S
C2541 C2545 1.393 . S
C2542 H2534 0.950 . S
C2542 C2540 1.391 . S
C2542 C2543 1.400 . S
C2543 C2542 1.400 . S
C2543 C2544 1.398 . S
C2543 C2549 1.491 . S
C2544 H2535 0.950 . S
C2544 C2543 1.398 . S
C2544 C2545 1.391 . S
C2545 H2533 0.950 . S
C2545 C2541 1.393 . S
C2545 C2544 1.391 . S
C2546 H2536 0.950 . S
C2546 C2547 1.386 . S
C2546 C2548 1.391 . S
C2547 C2546 1.386 . S
C2547 C2551 1.393 . S
C2548 H2537 0.950 . S
C2548 C2546 1.391 . S
C2548 C2549 1.400 . S
C2549 C2543 1.491 . S
C2549 C2548 1.400 . S
C2549 C2550 1.398 . S
C2550 H2538 0.950 . S
C2550 C2549 1.398 . S
C2550 C2551 1.391 . S
C2551 H2539 0.950 . S
C2551 C2547 1.393 . S
C2551 C2550 1.391 . S
H2552 C2560 0.950 . S
H2553 C2565 0.950 . S
H2554 C2562 0.950 . S
H2555 C2564 0.950 . S
H2556 C2566 0.950 . S
H2557 C2568 0.950 . S
H2558 C2570 0.950 . S
H2559 C2571 0.950 . S
C2560 H2552 0.950 . S
C2560 C2561 1.386 . S
C2560 C2562 1.391 . S
C2561 C2560 1.386 . S
C2561 C2565 1.393 . S
C2562 H2554 0.950 . S
C2562 C2560 1.391 . S
C2562 C2563 1.400 . S
C2563 C2562 1.400 . S
C2563 C2564 1.398 . S
C2563 C2569 1.491 . S
C2564 H2555 0.950 . S
C2564 C2563 1.398 . S
C2564 C2565 1.391 . S
C2565 H2553 0.950 . S
C2565 C2561 1.393 . S
C2565 C2564 1.391 . S
C2566 H2556 0.950 . S
C2566 C2567 1.386 . S
C2566 C2568 1.391 . S
C2567 C2566 1.386 . S
C2567 C2571 1.393 . S
C2568 H2557 0.950 . S
C2568 C2566 1.391 . S
C2568 C2569 1.400 . S
C2569 C2563 1.491 . S
C2569 C2568 1.400 . S
C2569 C2570 1.398 . S
C2570 H2558 0.950 . S
C2570 C2569 1.398 . S
C2570 C2571 1.391 . S
C2571 H2559 0.950 . S
C2571 C2567 1.393 . S
C2571 C2570 1.391 . S
H2572 C2580 0.950 . S
H2573 C2585 0.950 . S
H2574 C2582 0.950 . S
H2575 C2584 0.950 . S
H2576 C2586 0.950 . S
H2577 C2588 0.950 . S
H2578 C2590 0.950 . S
H2579 C2591 0.950 . S
C2580 H2572 0.950 . S
C2580 C2581 1.386 . S
C2580 C2582 1.391 . S
C2581 C2580 1.386 . S
C2581 C2585 1.393 . S
C2582 H2574 0.950 . S
C2582 C2580 1.391 . S
C2582 C2583 1.400 . S
C2583 C2582 1.400 . S
C2583 C2584 1.398 . S
C2583 C2589 1.491 . S
C2584 H2575 0.950 . S
C2584 C2583 1.398 . S
C2584 C2585 1.391 . S
C2585 H2573 0.950 . S
C2585 C2581 1.393 . S
C2585 C2584 1.391 . S
C2586 H2576 0.950 . S
C2586 C2587 1.386 . S
C2586 C2588 1.391 . S
C2587 C2586 1.386 . S
C2587 C2591 1.393 . S
C2588 H2577 0.950 . S
C2588 C2586 1.391 . S
C2588 C2589 1.400 . S
C2589 C2583 1.491 . S
C2589 C2588 1.400 . S
C2589 C2590 1.398 . S
C2590 H2578 0.950 . S
C2590 C2589 1.398 . S
C2590 C2591 1.391 . S
C2591 H2579 0.950 . S
C2591 C2587 1.393 . S
C2591 C2590 1.391 . S
H2592 C2600 0.950 . S
H2593 C2605 0.950 . S
H2594 C2602 0.950 . S
H2595 C2604 0.950 . S
H2596 C2606 0.950 . S
H2597 C2608 0.950 . S
H2598 C2610 0.950 . S
H2599 C2611 0.950 . S
C2600 H2592 0.950 . S
C2600 C2601 1.386 . S
C2600 C2602 1.391 . S
C2601 C2600 1.386 . S
C2601 C2605 1.393 . S
C2602 H2594 0.950 . S
C2602 C2600 1.391 . S
C2602 C2603 1.400 . S
C2603 C2602 1.400 . S
C2603 C2604 1.398 . S
C2603 C2609 1.491 . S
C2604 H2595 0.950 . S
C2604 C2603 1.398 . S
C2604 C2605 1.391 . S
C2605 H2593 0.950 . S
C2605 C2601 1.393 . S
C2605 C2604 1.391 . S
C2606 H2596 0.950 . S
C2606 C2607 1.386 . S
C2606 C2608 1.391 . S
C2607 C2606 1.386 . S
C2607 C2611 1.393 . S
C2608 H2597 0.950 . S
C2608 C2606 1.391 . S
C2608 C2609 1.400 . S
C2609 C2603 1.491 . S
C2609 C2608 1.400 . S
C2609 C2610 1.398 . S
C2610 H2598 0.950 . S
C2610 C2609 1.398 . S
C2610 C2611 1.391 . S
C2611 H2599 0.950 . S
C2611 C2607 1.393 . S
C2611 C2610 1.391 . S
H2612 C2620 0.950 . S
H2613 C2625 0.950 . S
H2614 C2622 0.950 . S
H2615 C2624 0.950 . S
H2616 C2626 0.950 . S
H2617 C2628 0.950 . S
H2618 C2630 0.950 . S
H2619 C2631 0.950 . S
C2620 H2612 0.950 . S
C2620 C2621 1.386 . S
C2620 C2622 1.391 . S
C2621 C2620 1.386 . S
C2621 C2625 1.393 . S
C2622 H2614 0.950 . S
C2622 C2620 1.391 . S
C2622 C2623 1.400 . S
C2623 C2622 1.400 . S
C2623 C2624 1.398 . S
C2623 C2629 1.491 . S
C2624 H2615 0.950 . S
C2624 C2623 1.398 . S
C2624 C2625 1.391 . S
C2625 H2613 0.950 . S
C2625 C2621 1.393 . S
C2625 C2624 1.391 . S
C2626 H2616 0.950 . S
C2626 C2627 1.386 . S
C2626 C2628 1.391 . S
C2627 C2626 1.386 . S
C2627 C2631 1.393 . S
C2628 H2617 0.950 . S
C2628 C2626 1.391 . S
C2628 C2629 1.400 . S
C2629 C2623 1.491 . S
C2629 C2628 1.400 . S
C2629 C2630 1.398 . S
C2630 H2618 0.950 . S
C2630 C2629 1.398 . S
C2630 C2631 1.391 . S
C2631 H2619 0.950 . S
C2631 C2627 1.393 . S
C2631 C2630 1.391 . S
H2632 C2640 0.950 . S
H2633 C2645 0.950 . S
H2634 C2642 0.950 . S
H2635 C2644 0.950 . S
H2636 C2646 0.950 . S
H2637 C2648 0.950 . S
H2638 C2650 0.950 . S
H2639 C2651 0.950 . S
C2640 H2632 0.950 . S
C2640 C2641 1.386 . S
C2640 C2642 1.391 . S
C2641 C2640 1.386 . S
C2641 C2645 1.393 . S
C2642 H2634 0.950 . S
C2642 C2640 1.391 . S
C2642 C2643 1.400 . S
C2643 C2642 1.400 . S
C2643 C2644 1.398 . S
C2643 C2649 1.491 . S
C2644 H2635 0.950 . S
C2644 C2643 1.398 . S
C2644 C2645 1.391 . S
C2645 H2633 0.950 . S
C2645 C2641 1.393 . S
C2645 C2644 1.391 . S
C2646 H2636 0.950 . S
C2646 C2647 1.386 . S
C2646 C2648 1.391 . S
C2647 C2646 1.386 . S
C2647 C2651 1.393 . S
C2648 H2637 0.950 . S
C2648 C2646 1.391 . S
C2648 C2649 1.400 . S
C2649 C2643 1.491 . S
C2649 C2648 1.400 . S
C2649 C2650 1.398 . S
C2650 H2638 0.950 . S
C2650 C2649 1.398 . S
C2650 C2651 1.391 . S
C2651 H2639 0.950 . S
C2651 C2647 1.393 . S
C2651 C2650 1.391 . S
H2652 C2660 0.950 . S
H2653 C2665 0.950 . S
H2654 C2662 0.950 . S
H2655 C2664 0.950 . S
H2656 C2666 0.950 . S
H2657 C2668 0.950 . S
H2658 C2670 0.950 . S
H2659 C2671 0.950 . S
C2660 H2652 0.950 . S
C2660 C2661 1.386 . S
C2660 C2662 1.391 . S
C2661 C2660 1.386 . S
C2661 C2665 1.393 . S
C2662 H2654 0.950 . S
C2662 C2660 1.391 . S
C2662 C2663 1.400 . S
C2663 C2662 1.400 . S
C2663 C2664 1.398 . S
C2663 C2669 1.491 . S
C2664 H2655 0.950 . S
C2664 C2663 1.398 . S
C2664 C2665 1.391 . S
C2665 H2653 0.950 . S
C2665 C2661 1.393 . S
C2665 C2664 1.391 . S
C2666 H2656 0.950 . S
C2666 C2667 1.386 . S
C2666 C2668 1.391 . S
C2667 C2666 1.386 . S
C2667 C2671 1.393 . S
C2668 H2657 0.950 . S
C2668 C2666 1.391 . S
C2668 C2669 1.400 . S
C2669 C2663 1.491 . S
C2669 C2668 1.400 . S
C2669 C2670 1.398 . S
C2670 H2658 0.950 . S
C2670 C2669 1.398 . S
C2670 C2671 1.391 . S
C2671 H2659 0.950 . S
C2671 C2667 1.393 . S
C2671 C2670 1.391 . S
H2672 C2680 0.950 . S
H2673 C2685 0.950 . S
H2674 C2682 0.950 . S
H2675 C2684 0.950 . S
H2676 C2686 0.950 . S
H2677 C2688 0.950 . S
H2678 C2690 0.950 . S
H2679 C2691 0.950 . S
C2680 H2672 0.950 . S
C2680 C2681 1.386 . S
C2680 C2682 1.391 . S
C2681 C2680 1.386 . S
C2681 C2685 1.393 . S
C2682 H2674 0.950 . S
C2682 C2680 1.391 . S
C2682 C2683 1.400 . S
C2683 C2682 1.400 . S
C2683 C2684 1.398 . S
C2683 C2689 1.491 . S
C2684 H2675 0.950 . S
C2684 C2683 1.398 . S
C2684 C2685 1.391 . S
C2685 H2673 0.950 . S
C2685 C2681 1.393 . S
C2685 C2684 1.391 . S
C2686 H2676 0.950 . S
C2686 C2687 1.386 . S
C2686 C2688 1.391 . S
C2687 C2686 1.386 . S
C2687 C2691 1.393 . S
C2688 H2677 0.950 . S
C2688 C2686 1.391 . S
C2688 C2689 1.400 . S
C2689 C2683 1.491 . S
C2689 C2688 1.400 . S
C2689 C2690 1.398 . S
C2690 H2678 0.950 . S
C2690 C2689 1.398 . S
C2690 C2691 1.391 . S
C2691 H2679 0.950 . S
C2691 C2687 1.393 . S
C2691 C2690 1.391 . S
H2692 C2700 0.950 . S
H2693 C2705 0.950 . S
H2694 C2702 0.950 . S
H2695 C2704 0.950 . S
H2696 C2706 0.950 . S
H2697 C2708 0.950 . S
H2698 C2710 0.950 . S
H2699 C2711 0.950 . S
C2700 H2692 0.950 . S
C2700 C2701 1.386 . S
C2700 C2702 1.391 . S
C2701 C2700 1.386 . S
C2701 C2705 1.393 . S
C2702 H2694 0.950 . S
C2702 C2700 1.391 . S
C2702 C2703 1.400 . S
C2703 C2702 1.400 . S
C2703 C2704 1.398 . S
C2703 C2709 1.491 . S
C2704 H2695 0.950 . S
C2704 C2703 1.398 . S
C2704 C2705 1.391 . S
C2705 H2693 0.950 . S
C2705 C2701 1.393 . S
C2705 C2704 1.391 . S
C2706 H2696 0.950 . S
C2706 C2707 1.386 . S
C2706 C2708 1.391 . S
C2707 C2706 1.386 . S
C2707 C2711 1.393 . S
C2708 H2697 0.950 . S
C2708 C2706 1.391 . S
C2708 C2709 1.400 . S
C2709 C2703 1.491 . S
C2709 C2708 1.400 . S
C2709 C2710 1.398 . S
C2710 H2698 0.950 . S
C2710 C2709 1.398 . S
C2710 C2711 1.391 . S
C2711 H2699 0.950 . S
C2711 C2707 1.393 . S
C2711 C2710 1.391 . S
H2712 C2720 0.950 . S
H2713 C2725 0.950 . S
H2714 C2722 0.950 . S
H2715 C2724 0.950 . S
H2716 C2726 0.950 . S
H2717 C2728 0.950 . S
H2718 C2730 0.950 . S
H2719 C2731 0.950 . S
C2720 H2712 0.950 . S
C2720 C2721 1.386 . S
C2720 C2722 1.391 . S
C2721 C2720 1.386 . S
C2721 C2725 1.393 . S
C2722 H2714 0.950 . S
C2722 C2720 1.391 . S
C2722 C2723 1.400 . S
C2723 C2722 1.400 . S
C2723 C2724 1.398 . S
C2723 C2729 1.491 . S
C2724 H2715 0.950 . S
C2724 C2723 1.398 . S
C2724 C2725 1.391 . S
C2725 H2713 0.950 . S
C2725 C2721 1.393 . S
C2725 C2724 1.391 . S
C2726 H2716 0.950 . S
C2726 C2727 1.386 . S
C2726 C2728 1.391 . S
C2727 C2726 1.386 . S
C2727 C2731 1.393 . S
C2728 H2717 0.950 . S
C2728 C2726 1.391 . S
C2728 C2729 1.400 . S
C2729 C2723 1.491 . S
C2729 C2728 1.400 . S
C2729 C2730 1.398 . S
C2730 H2718 0.950 . S
C2730 C2729 1.398 . S
C2730 C2731 1.391 . S
C2731 H2719 0.950 . S
C2731 C2727 1.393 . S
C2731 C2730 1.391 . S
H2732 C2740 0.950 . S
H2733 C2745 0.950 . S
H2734 C2742 0.950 . S
H2735 C2744 0.950 . S
H2736 C2746 0.950 . S
H2737 C2748 0.950 . S
H2738 C2750 0.950 . S
H2739 C2751 0.950 . S
C2740 H2732 0.950 . S
C2740 C2741 1.386 . S
C2740 C2742 1.391 . S
C2741 C2740 1.386 . S
C2741 C2745 1.393 . S
C2742 H2734 0.950 . S
C2742 C2740 1.391 . S
C2742 C2743 1.400 . S
C2743 C2742 1.400 . S
C2743 C2744 1.398 . S
C2743 C2749 1.491 . S
C2744 H2735 0.950 . S
C2744 C2743 1.398 . S
C2744 C2745 1.391 . S
C2745 H2733 0.950 . S
C2745 C2741 1.393 . S
C2745 C2744 1.391 . S
C2746 H2736 0.950 . S
C2746 C2747 1.386 . S
C2746 C2748 1.391 . S
C2747 C2746 1.386 . S
C2747 C2751 1.393 . S
C2748 H2737 0.950 . S
C2748 C2746 1.391 . S
C2748 C2749 1.400 . S
C2749 C2743 1.491 . S
C2749 C2748 1.400 . S
C2749 C2750 1.398 . S
C2750 H2738 0.950 . S
C2750 C2749 1.398 . S
C2750 C2751 1.391 . S
C2751 H2739 0.950 . S
C2751 C2747 1.393 . S
C2751 C2750 1.391 . S
H2752 C2760 0.950 . S
H2753 C2765 0.950 . S
H2754 C2762 0.950 . S
H2755 C2764 0.950 . S
H2756 C2766 0.950 . S
H2757 C2768 0.950 . S
H2758 C2770 0.950 . S
H2759 C2771 0.950 . S
C2760 H2752 0.950 . S
C2760 C2761 1.386 . S
C2760 C2762 1.391 . S
C2761 C2760 1.386 . S
C2761 C2765 1.393 . S
C2762 H2754 0.950 . S
C2762 C2760 1.391 . S
C2762 C2763 1.400 . S
C2763 C2762 1.400 . S
C2763 C2764 1.398 . S
C2763 C2769 1.491 . S
C2764 H2755 0.950 . S
C2764 C2763 1.398 . S
C2764 C2765 1.391 . S
C2765 H2753 0.950 . S
C2765 C2761 1.393 . S
C2765 C2764 1.391 . S
C2766 H2756 0.950 . S
C2766 C2767 1.386 . S
C2766 C2768 1.391 . S
C2767 C2766 1.386 . S
C2767 C2771 1.393 . S
C2768 H2757 0.950 . S
C2768 C2766 1.391 . S
C2768 C2769 1.400 . S
C2769 C2763 1.491 . S
C2769 C2768 1.400 . S
C2769 C2770 1.398 . S
C2770 H2758 0.950 . S
C2770 C2769 1.398 . S
C2770 C2771 1.391 . S
C2771 H2759 0.950 . S
C2771 C2767 1.393 . S
C2771 C2770 1.391 . S
H2772 C2780 0.950 . S
H2773 C2785 0.950 . S
H2774 C2782 0.950 . S
H2775 C2784 0.950 . S
H2776 C2786 0.950 . S
H2777 C2788 0.950 . S
H2778 C2790 0.950 . S
H2779 C2791 0.950 . S
C2780 H2772 0.950 . S
C2780 C2781 1.386 . S
C2780 C2782 1.391 . S
C2781 C2780 1.386 . S
C2781 C2785 1.393 . S
C2782 H2774 0.950 . S
C2782 C2780 1.391 . S
C2782 C2783 1.400 . S
C2783 C2782 1.400 . S
C2783 C2784 1.398 . S
C2783 C2789 1.491 . S
C2784 H2775 0.950 . S
C2784 C2783 1.398 . S
C2784 C2785 1.391 . S
C2785 H2773 0.950 . S
C2785 C2781 1.393 . S
C2785 C2784 1.391 . S
C2786 H2776 0.950 . S
C2786 C2787 1.386 . S
C2786 C2788 1.391 . S
C2787 C2786 1.386 . S
C2787 C2791 1.393 . S
C2788 H2777 0.950 . S
C2788 C2786 1.391 . S
C2788 C2789 1.400 . S
C2789 C2783 1.491 . S
C2789 C2788 1.400 . S
C2789 C2790 1.398 . S
C2790 H2778 0.950 . S
C2790 C2789 1.398 . S
C2790 C2791 1.391 . S
C2791 H2779 0.950 . S
C2791 C2787 1.393 . S
C2791 C2790 1.391 . S
H2792 C2800 0.950 . S
H2793 C2805 0.950 . S
H2794 C2802 0.950 . S
H2795 C2804 0.950 . S
H2796 C2806 0.950 . S
H2797 C2808 0.950 . S
H2798 C2810 0.950 . S
H2799 C2811 0.950 . S
C2800 H2792 0.950 . S
C2800 C2801 1.386 . S
C2800 C2802 1.391 . S
C2801 C2800 1.386 . S
C2801 C2805 1.393 . S
C2802 H2794 0.950 . S
C2802 C2800 1.391 . S
C2802 C2803 1.400 . S
C2803 C2802 1.400 . S
C2803 C2804 1.398 . S
C2803 C2809 1.491 . S
C2804 H2795 0.950 . S
C2804 C2803 1.398 . S
C2804 C2805 1.391 . S
C2805 H2793 0.950 . S
C2805 C2801 1.393 . S
C2805 C2804 1.391 . S
C2806 H2796 0.950 . S
C2806 C2807 1.386 . S
C2806 C2808 1.391 . S
C2807 C2806 1.386 . S
C2807 C2811 1.393 . S
C2808 H2797 0.950 . S
C2808 C2806 1.391 . S
C2808 C2809 1.400 . S
C2809 C2803 1.491 . S
C2809 C2808 1.400 . S
C2809 C2810 1.398 . S
C2810 H2798 0.950 . S
C2810 C2809 1.398 . S
C2810 C2811 1.391 . S
C2811 H2799 0.950 . S
C2811 C2807 1.393 . S
C2811 C2810 1.391 . S
H2812 C2820 0.950 . S
H2813 C2825 0.950 . S
H2814 C2822 0.950 . S
H2815 C2824 0.950 . S
H2816 C2826 0.950 . S
H2817 C2828 0.950 . S
H2818 C2830 0.950 . S
H2819 C2831 0.950 . S
C2820 H2812 0.950 . S
C2820 C2821 1.386 . S
C2820 C2822 1.391 . S
C2821 C2820 1.386 . S
C2821 C2825 1.393 . S
C2822 H2814 0.950 . S
C2822 C2820 1.391 . S
C2822 C2823 1.400 . S
C2823 C2822 1.400 . S
C2823 C2824 1.398 . S
C2823 C2829 1.491 . S
C2824 H2815 0.950 . S
C2824 C2823 1.398 . S
C2824 C2825 1.391 . S
C2825 H2813 0.950 . S
C2825 C2821 1.393 . S
C2825 C2824 1.391 . S
C2826 H2816 0.950 . S
C2826 C2827 1.386 . S
C2826 C2828 1.391 . S
C2827 C2826 1.386 . S
C2827 C2831 1.393 . S
C2828 H2817 0.950 . S
C2828 C2826 1.391 . S
C2828 C2829 1.400 . S
C2829 C2823 1.491 . S
C2829 C2828 1.400 . S
C2829 C2830 1.398 . S
C2830 H2818 0.950 . S
C2830 C2829 1.398 . S
C2830 C2831 1.391 . S
C2831 H2819 0.950 . S
C2831 C2827 1.393 . S
C2831 C2830 1.391 . S
H2832 C2840 0.950 . S
H2833 C2845 0.950 . S
H2834 C2842 0.950 . S
H2835 C2844 0.950 . S
H2836 C2846 0.950 . S
H2837 C2848 0.950 . S
H2838 C2850 0.950 . S
H2839 C2851 0.950 . S
C2840 H2832 0.950 . S
C2840 C2841 1.386 . S
C2840 C2842 1.391 . S
C2841 C2840 1.386 . S
C2841 C2845 1.393 . S
C2842 H2834 0.950 . S
C2842 C2840 1.391 . S
C2842 C2843 1.400 . S
C2843 C2842 1.400 . S
C2843 C2844 1.398 . S
C2843 C2849 1.491 . S
C2844 H2835 0.950 . S
C2844 C2843 1.398 . S
C2844 C2845 1.391 . S
C2845 H2833 0.950 . S
C2845 C2841 1.393 . S
C2845 C2844 1.391 . S
C2846 H2836 0.950 . S
C2846 C2847 1.386 . S
C2846 C2848 1.391 . S
C2847 C2846 1.386 . S
C2847 C2851 1.393 . S
C2848 H2837 0.950 . S
C2848 C2846 1.391 . S
C2848 C2849 1.400 . S
C2849 C2843 1.491 . S
C2849 C2848 1.400 . S
C2849 C2850 1.398 . S
C2850 H2838 0.950 . S
C2850 C2849 1.398 . S
C2850 C2851 1.391 . S
C2851 H2839 0.950 . S
C2851 C2847 1.393 . S
C2851 C2850 1.391 . S
H2852 C2860 0.950 . S
H2853 C2865 0.950 . S
H2854 C2862 0.950 . S
H2855 C2864 0.950 . S
H2856 C2866 0.950 . S
H2857 C2868 0.950 . S
H2858 C2870 0.950 . S
H2859 C2871 0.950 . S
C2860 H2852 0.950 . S
C2860 C2861 1.386 . S
C2860 C2862 1.391 . S
C2861 C2860 1.386 . S
C2861 C2865 1.393 . S
C2862 H2854 0.950 . S
C2862 C2860 1.391 . S
C2862 C2863 1.400 . S
C2863 C2862 1.400 . S
C2863 C2864 1.398 . S
C2863 C2869 1.491 . S
C2864 H2855 0.950 . S
C2864 C2863 1.398 . S
C2864 C2865 1.391 . S
C2865 H2853 0.950 . S
C2865 C2861 1.393 . S
C2865 C2864 1.391 . S
C2866 H2856 0.950 . S
C2866 C2867 1.386 . S
C2866 C2868 1.391 . S
C2867 C2866 1.386 . S
C2867 C2871 1.393 . S
C2868 H2857 0.950 . S
C2868 C2866 1.391 . S
C2868 C2869 1.400 . S
C2869 C2863 1.491 . S
C2869 C2868 1.400 . S
C2869 C2870 1.398 . S
C2870 H2858 0.950 . S
C2870 C2869 1.398 . S
C2870 C2871 1.391 . S
C2871 H2859 0.950 . S
C2871 C2867 1.393 . S
C2871 C2870 1.391 . S
H2872 C2880 0.950 . S
H2873 C2885 0.950 . S
H2874 C2882 0.950 . S
H2875 C2884 0.950 . S
H2876 C2886 0.950 . S
H2877 C2888 0.950 . S
H2878 C2890 0.950 . S
H2879 C2891 0.950 . S
C2880 H2872 0.950 . S
C2880 C2881 1.386 . S
C2880 C2882 1.391 . S
C2881 C2880 1.386 . S
C2881 C2885 1.393 . S
C2882 H2874 0.950 . S
C2882 C2880 1.391 . S
C2882 C2883 1.400 . S
C2883 C2882 1.400 . S
C2883 C2884 1.398 . S
C2883 C2889 1.491 . S
C2884 H2875 0.950 . S
C2884 C2883 1.398 . S
C2884 C2885 1.391 . S
C2885 H2873 0.950 . S
C2885 C2881 1.393 . S
C2885 C2884 1.391 . S
C2886 H2876 0.950 . S
C2886 C2887 1.386 . S
C2886 C2888 1.391 . S
C2887 C2886 1.386 . S
C2887 C2891 1.393 . S
C2888 H2877 0.950 . S
C2888 C2886 1.391 . S
C2888 C2889 1.400 . S
C2889 C2883 1.491 . S
C2889 C2888 1.400 . S
C2889 C2890 1.398 . S
C2890 H2878 0.950 . S
C2890 C2889 1.398 . S
C2890 C2891 1.391 . S
C2891 H2879 0.950 . S
C2891 C2887 1.393 . S
C2891 C2890 1.391 . S
H2892 C2900 0.950 . S
H2893 C2905 0.950 . S
H2894 C2902 0.950 . S
H2895 C2904 0.950 . S
H2896 C2906 0.950 . S
H2897 C2908 0.950 . S
H2898 C2910 0.950 . S
H2899 C2911 0.950 . S
C2900 H2892 0.950 . S
C2900 C2901 1.386 . S
C2900 C2902 1.391 . S
C2901 C2900 1.386 . S
C2901 C2905 1.393 . S
C2902 H2894 0.950 . S
C2902 C2900 1.391 . S
C2902 C2903 1.400 . S
C2903 C2902 1.400 . S
C2903 C2904 1.398 . S
C2903 C2909 1.491 . S
C2904 H2895 0.950 . S
C2904 C2903 1.398 . S
C2904 C2905 1.391 . S
C2905 H2893 0.950 . S
C2905 C2901 1.393 . S
C2905 C2904 1.391 . S
C2906 H2896 0.950 . S
C2906 C2907 1.386 . S
C2906 C2908 1.391 . S
C2907 C2906 1.386 . S
C2907 C2911 1.393 . S
C2908 H2897 0.950 . S
C2908 C2906 1.391 . S
C2908 C2909 1.400 . S
C2909 C2903 1.491 . S
C2909 C2908 1.400 . S
C2909 C2910 1.398 . S
C2910 H2898 0.950 . S
C2910 C2909 1.398 . S
C2910 C2911 1.391 . S
C2911 H2899 0.950 . S
C2911 C2907 1.393 . S
C2911 C2910 1.391 . S
H2912 C2920 0.950 . S
H2913 C2925 0.950 . S
H2914 C2922 0.950 . S
H2915 C2924 0.950 . S
H2916 C2926 0.950 . S
H2917 C2928 0.950 . S
H2918 C2930 0.950 . S
H2919 C2931 0.950 . S
C2920 H2912 0.950 . S
C2920 C2921 1.386 . S
C2920 C2922 1.391 . S
C2921 C2920 1.386 . S
C2921 C2925 1.393 . S
C2922 H2914 0.950 . S
C2922 C2920 1.391 . S
C2922 C2923 1.400 . S
C2923 C2922 1.400 . S
C2923 C2924 1.398 . S
C2923 C2929 1.491 . S
C2924 H2915 0.950 . S
C2924 C2923 1.398 . S
C2924 C2925 1.391 . S
C2925 H2913 0.950 . S
C2925 C2921 1.393 . S
C2925 C2924 1.391 . S
C2926 H2916 0.950 . S
C2926 C2927 1.386 . S
C2926 C2928 1.391 . S
C2927 C2926 1.386 . S
C2927 C2931 1.393 . S
C2928 H2917 0.950 . S
C2928 C2926 1.391 . S
C2928 C2929 1.400 . S
C2929 C2923 1.491 . S
C2929 C2928 1.400 . S
C2929 C2930 1.398 . S
C2930 H2918 0.950 . S
C2930 C2929 1.398 . S
C2930 C2931 1.391 . S
C2931 H2919 0.950 . S
C2931 C2927 1.393 . S
C2931 C2930 1.391 . S
H2932 C2940 0.950 . S
H2933 C2945 0.950 . S
H2934 C2942 0.950 . S
H2935 C2944 0.950 . S
H2936 C2946 0.950 . S
H2937 C2948 0.950 . S
H2938 C2950 0.950 . S
H2939 C2951 0.950 . S
C2940 H2932 0.950 . S
C2940 C2941 1.386 . S
C2940 C2942 1.391 . S
C2941 C2940 1.386 . S
C2941 C2945 1.393 . S
C2942 H2934 0.950 . S
C2942 C2940 1.391 . S
C2942 C2943 1.400 . S
C2943 C2942 1.400 . S
C2943 C2944 1.398 . S
C2943 C2949 1.491 . S
C2944 H2935 0.950 . S
C2944 C2943 1.398 . S
C2944 C2945 1.391 . S
C2945 H2933 0.950 . S
C2945 C2941 1.393 . S
C2945 C2944 1.391 . S
C2946 H2936 0.950 . S
C2946 C2947 1.386 . S
C2946 C2948 1.391 . S
C2947 C2946 1.386 . S
C2947 C2951 1.393 . S
C2948 H2937 0.950 . S
C2948 C2946 1.391 . S
C2948 C2949 1.400 . S
C2949 C2943 1.491 . S
C2949 C2948 1.400 . S
C2949 C2950 1.398 . S
C2950 H2938 0.950 . S
C2950 C2949 1.398 . S
C2950 C2951 1.391 . S
C2951 H2939 0.950 . S
C2951 C2947 1.393 . S
C2951 C2950 1.391 . S
H2952 C2960 0.950 . S
H2953 C2965 0.950 . S
H2954 C2962 0.950 . S
H2955 C2964 0.950 . S
H2956 C2966 0.950 . S
H2957 C2968 0.950 . S
H2958 C2970 0.950 . S
H2959 C2971 0.950 . S
C2960 H2952 0.950 . S
C2960 C2961 1.386 . S
C2960 C2962 1.391 . S
C2961 C2960 1.386 . S
C2961 C2965 1.393 . S
C2962 H2954 0.950 . S
C2962 C2960 1.391 . S
C2962 C2963 1.400 . S
C2963 C2962 1.400 . S
C2963 C2964 1.398 . S
C2963 C2969 1.491 . S
C2964 H2955 0.950 . S
C2964 C2963 1.398 . S
C2964 C2965 1.391 . S
C2965 H2953 0.950 . S
C2965 C2961 1.393 . S
C2965 C2964 1.391 . S
C2966 H2956 0.950 . S
C2966 C2967 1.386 . S
C2966 C2968 1.391 . S
C2967 C2966 1.386 . S
C2967 C2971 1.393 . S
C2968 H2957 0.950 . S
C2968 C2966 1.391 . S
C2968 C2969 1.400 . S
C2969 C2963 1.491 . S
C2969 C2968 1.400 . S
C2969 C2970 1.398 . S
C2970 H2958 0.950 . S
C2970 C2969 1.398 . S
C2970 C2971 1.391 . S
C2971 H2959 0.950 . S
C2971 C2967 1.393 . S
C2971 C2970 1.391 . S
H2972 C2980 0.950 . S
H2973 C2985 0.950 . S
H2974 C2982 0.950 . S
H2975 C2984 0.950 . S
H2976 C2986 0.950 . S
H2977 C2988 0.950 . S
H2978 C2990 0.950 . S
H2979 C2991 0.950 . S
C2980 H2972 0.950 . S
C2980 C2981 1.386 . S
C2980 C2982 1.391 . S
C2981 C2980 1.386 . S
C2981 C2985 1.393 . S
C2982 H2974 0.950 . S
C2982 C2980 1.391 . S
C2982 C2983 1.400 . S
C2983 C2982 1.400 . S
C2983 C2984 1.398 . S
C2983 C2989 1.491 . S
C2984 H2975 0.950 . S
C2984 C2983 1.398 . S
C2984 C2985 1.391 . S
C2985 H2973 0.950 . S
C2985 C2981 1.393 . S
C2985 C2984 1.391 . S
C2986 H2976 0.950 . S
C2986 C2987 1.386 . S
C2986 C2988 1.391 . S
C2987 C2986 1.386 . S
C2987 C2991 1.393 . S
C2988 H2977 0.950 . S
C2988 C2986 1.391 . S
C2988 C2989 1.400 . S
C2989 C2983 1.491 . S
C2989 C2988 1.400 . S
C2989 C2990 1.398 . S
C2990 H2978 0.950 . S
C2990 C2989 1.398 . S
C2990 C2991 1.391 . S
C2991 H2979 0.950 . S
C2991 C2987 1.393 . S
C2991 C2990 1.391 . S
H2992 C3000 0.950 . S
H2993 C3005 0.950 . S
H2994 C3002 0.950 . S
H2995 C3004 0.950 . S
H2996 C3006 0.950 . S
H2997 C3008 0.950 . S
H2998 C3010 0.950 . S
H2999 C3011 0.950 . S
C3000 H2992 0.950 . S
C3000 C3001 1.386 . S
C3000 C3002 1.391 . S
C3001 C3000 1.386 . S
C3001 C3005 1.393 . S
C3002 H2994 0.950 . S
C3002 C3000 1.391 . S
C3002 C3003 1.400 . S
C3003 C3002 1.400 . S
C3003 C3004 1.398 . S
C3003 C3009 1.491 . S
C3004 H2995 0.950 . S
C3004 C3003 1.398 . S
C3004 C3005 1.391 . S
C3005 H2993 0.950 . S
C3005 C3001 1.393 . S
C3005 C3004 1.391 . S
C3006 H2996 0.950 . S
C3006 C3007 1.386 . S
C3006 C3008 1.391 . S
C3007 C3006 1.386 . S
C3007 C3011 1.393 . S
C3008 H2997 0.950 . S
C3008 C3006 1.391 . S
C3008 C3009 1.400 . S
C3009 C3003 1.491 . S
C3009 C3008 1.400 . S
C3009 C3010 1.398 . S
C3010 H2998 0.950 . S
C3010 C3009 1.398 . S
C3010 C3011 1.391 . S
C3011 H2999 0.950 . S
C3011 C3007 1.393 . S
C3011 C3010 1.391 . S
H3012 C3020 0.950 . S
H3013 C3025 0.950 . S
H3014 C3022 0.950 . S
H3015 C3024 0.950 . S
H3016 C3026 0.950 . S
H3017 C3028 0.950 . S
H3018 C3030 0.950 . S
H3019 C3031 0.950 . S
C3020 H3012 0.950 . S
C3020 C3021 1.386 . S
C3020 C3022 1.391 . S
C3021 C3020 1.386 . S
C3021 C3025 1.393 . S
C3022 H3014 0.950 . S
C3022 C3020 1.391 . S
C3022 C3023 1.400 . S
C3023 C3022 1.400 . S
C3023 C3024 1.398 . S
C3023 C3029 1.491 . S
C3024 H3015 0.950 . S
C3024 C3023 1.398 . S
C3024 C3025 1.391 . S
C3025 H3013 0.950 . S
C3025 C3021 1.393 . S
C3025 C3024 1.391 . S
C3026 H3016 0.950 . S
C3026 C3027 1.386 . S
C3026 C3028 1.391 . S
C3027 C3026 1.386 . S
C3027 C3031 1.393 . S
C3028 H3017 0.950 . S
C3028 C3026 1.391 . S
C3028 C3029 1.400 . S
C3029 C3023 1.491 . S
C3029 C3028 1.400 . S
C3029 C3030 1.398 . S
C3030 H3018 0.950 . S
C3030 C3029 1.398 . S
C3030 C3031 1.391 . S
C3031 H3019 0.950 . S
C3031 C3027 1.393 . S
C3031 C3030 1.391 . S
H3032 C3040 0.950 . S
H3033 C3045 0.950 . S
H3034 C3042 0.950 . S
H3035 C3044 0.950 . S
H3036 C3046 0.950 . S
H3037 C3048 0.950 . S
H3038 C3050 0.950 . S
H3039 C3051 0.950 . S
C3040 H3032 0.950 . S
C3040 C3041 1.386 . S
C3040 C3042 1.391 . S
C3041 C3040 1.386 . S
C3041 C3045 1.393 . S
C3042 H3034 0.950 . S
C3042 C3040 1.391 . S
C3042 C3043 1.400 . S
C3043 C3042 1.400 . S
C3043 C3044 1.398 . S
C3043 C3049 1.491 . S
C3044 H3035 0.950 . S
C3044 C3043 1.398 . S
C3044 C3045 1.391 . S
C3045 H3033 0.950 . S
C3045 C3041 1.393 . S
C3045 C3044 1.391 . S
C3046 H3036 0.950 . S
C3046 C3047 1.386 . S
C3046 C3048 1.391 . S
C3047 C3046 1.386 . S
C3047 C3051 1.393 . S
C3048 H3037 0.950 . S
C3048 C3046 1.391 . S
C3048 C3049 1.400 . S
C3049 C3043 1.491 . S
C3049 C3048 1.400 . S
C3049 C3050 1.398 . S
C3050 H3038 0.950 . S
C3050 C3049 1.398 . S
C3050 C3051 1.391 . S
C3051 H3039 0.950 . S
C3051 C3047 1.393 . S
C3051 C3050 1.391 . S
H3052 C3060 0.950 . S
H3053 C3065 0.950 . S
H3054 C3062 0.950 . S
H3055 C3064 0.950 . S
H3056 C3066 0.950 . S
H3057 C3068 0.950 . S
H3058 C3070 0.950 . S
H3059 C3071 0.950 . S
C3060 H3052 0.950 . S
C3060 C3061 1.386 . S
C3060 C3062 1.391 . S
C3061 C3060 1.386 . S
C3061 C3065 1.393 . S
C3062 H3054 0.950 . S
C3062 C3060 1.391 . S
C3062 C3063 1.400 . S
C3063 C3062 1.400 . S
C3063 C3064 1.398 . S
C3063 C3069 1.491 . S
C3064 H3055 0.950 . S
C3064 C3063 1.398 . S
C3064 C3065 1.391 . S
C3065 H3053 0.950 . S
C3065 C3061 1.393 . S
C3065 C3064 1.391 . S
C3066 H3056 0.950 . S
C3066 C3067 1.386 . S
C3066 C3068 1.391 . S
C3067 C3066 1.386 . S
C3067 C3071 1.393 . S
C3068 H3057 0.950 . S
C3068 C3066 1.391 . S
C3068 C3069 1.400 . S
C3069 C3063 1.491 . S
C3069 C3068 1.400 . S
C3069 C3070 1.398 . S
C3070 H3058 0.950 . S
C3070 C3069 1.398 . S
C3070 C3071 1.391 . S
C3071 H3059 0.950 . S
C3071 C3067 1.393 . S
C3071 C3070 1.391 . S
H3072 C3080 0.950 . S
H3073 C3085 0.950 . S
H3074 C3082 0.950 . S
H3075 C3084 0.950 . S
H3076 C3086 0.950 . S
H3077 C3088 0.950 . S
H3078 C3090 0.950 . S
H3079 C3091 0.950 . S
C3080 H3072 0.950 . S
C3080 C3081 1.386 . S
C3080 C3082 1.391 . S
C3081 C3080 1.386 . S
C3081 C3085 1.393 . S
C3082 H3074 0.950 . S
C3082 C3080 1.391 . S
C3082 C3083 1.400 . S
C3083 C3082 1.400 . S
C3083 C3084 1.398 . S
C3083 C3089 1.491 . S
C3084 H3075 0.950 . S
C3084 C3083 1.398 . S
C3084 C3085 1.391 . S
C3085 H3073 0.950 . S
C3085 C3081 1.393 . S
C3085 C3084 1.391 . S
C3086 H3076 0.950 . S
C3086 C3087 1.386 . S
C3086 C3088 1.391 . S
C3087 C3086 1.386 . S
C3087 C3091 1.393 . S
C3088 H3077 0.950 . S
C3088 C3086 1.391 . S
C3088 C3089 1.400 . S
C3089 C3083 1.491 . S
C3089 C3088 1.400 . S
C3089 C3090 1.398 . S
C3090 H3078 0.950 . S
C3090 C3089 1.398 . S
C3090 C3091 1.391 . S
C3091 H3079 0.950 . S
C3091 C3087 1.393 . S
C3091 C3090 1.391 . S
H3092 C3100 0.950 . S
H3093 C3105 0.950 . S
H3094 C3102 0.950 . S
H3095 C3104 0.950 . S
H3096 C3106 0.950 . S
H3097 C3108 0.950 . S
H3098 C3110 0.950 . S
H3099 C3111 0.950 . S
C3100 H3092 0.950 . S
C3100 C3101 1.386 . S
C3100 C3102 1.391 . S
C3101 C3100 1.386 . S
C3101 C3105 1.393 . S
C3102 H3094 0.950 . S
C3102 C3100 1.391 . S
C3102 C3103 1.400 . S
C3103 C3102 1.400 . S
C3103 C3104 1.398 . S
C3103 C3109 1.491 . S
C3104 H3095 0.950 . S
C3104 C3103 1.398 . S
C3104 C3105 1.391 . S
C3105 H3093 0.950 . S
C3105 C3101 1.393 . S
C3105 C3104 1.391 . S
C3106 H3096 0.950 . S
C3106 C3107 1.386 . S
C3106 C3108 1.391 . S
C3107 C3106 1.386 . S
C3107 C3111 1.393 . S
C3108 H3097 0.950 . S
C3108 C3106 1.391 . S
C3108 C3109 1.400 . S
C3109 C3103 1.491 . S
C3109 C3108 1.400 . S
C3109 C3110 1.398 . S
C3110 H3098 0.950 . S
C3110 C3109 1.398 . S
C3110 C3111 1.391 . S
C3111 H3099 0.950 . S
C3111 C3107 1.393 . S
C3111 C3110 1.391 . S
H3112 C3120 0.950 . S
H3113 C3125 0.950 . S
H3114 C3122 0.950 . S
H3115 C3124 0.950 . S
H3116 C3126 0.950 . S
H3117 C3128 0.950 . S
H3118 C3130 0.950 . S
H3119 C3131 0.950 . S
C3120 H3112 0.950 . S
C3120 C3121 1.386 . S
C3120 C3122 1.391 . S
C3121 C3120 1.386 . S
C3121 C3125 1.393 . S
C3122 H3114 0.950 . S
C3122 C3120 1.391 . S
C3122 C3123 1.400 . S
C3123 C3122 1.400 . S
C3123 C3124 1.398 . S
C3123 C3129 1.491 . S
C3124 H3115 0.950 . S
C3124 C3123 1.398 . S
C3124 C3125 1.391 . S
C3125 H3113 0.950 . S
C3125 C3121 1.393 . S
C3125 C3124 1.391 . S
C3126 H3116 0.950 . S
C3126 C3127 1.386 . S
C3126 C3128 1.391 . S
C3127 C3126 1.386 . S
C3127 C3131 1.393 . S
C3128 H3117 0.950 . S
C3128 C3126 1.391 . S
C3128 C3129 1.400 . S
C3129 C3123 1.491 . S
C3129 C3128 1.400 . S
C3129 C3130 1.398 . S
C3130 H3118 0.950 . S
C3130 C3129 1.398 . S
C3130 C3131 1.391 . S
C3131 H3119 0.950 . S
C3131 C3127 1.393 . S
C3131 C3130 1.391 . S
H3132 C3140 0.950 . S
H3133 C3145 0.950 . S
H3134 C3142 0.950 . S
H3135 C3144 0.950 . S
H3136 C3146 0.950 . S
H3137 C3148 0.950 . S
H3138 C3150 0.950 . S
H3139 C3151 0.950 . S
C3140 H3132 0.950 . S
C3140 C3141 1.386 . S
C3140 C3142 1.391 . S
C3141 C3140 1.386 . S
C3141 C3145 1.393 . S
C3142 H3134 0.950 . S
C3142 C3140 1.391 . S
C3142 C3143 1.400 . S
C3143 C3142 1.400 . S
C3143 C3144 1.398 . S
C3143 C3149 1.491 . S
C3144 H3135 0.950 . S
C3144 C3143 1.398 . S
C3144 C3145 1.391 . S
C3145 H3133 0.950 . S
C3145 C3141 1.393 . S
C3145 C3144 1.391 . S
C3146 H3136 0.950 . S
C3146 C3147 1.386 . S
C3146 C3148 1.391 . S
C3147 C3146 1.386 . S
C3147 C3151 1.393 . S
C3148 H3137 0.950 . S
C3148 C3146 1.391 . S
C3148 C3149 1.400 . S
C3149 C3143 1.491 . S
C3149 C3148 1.400 . S
C3149 C3150 1.398 . S
C3150 H3138 0.950 . S
C3150 C3149 1.398 . S
C3150 C3151 1.391 . S
C3151 H3139 0.950 . S
C3151 C3147 1.393 . S
C3151 C3150 1.391 . S
H3152 C3160 0.950 . S
H3153 C3165 0.950 . S
H3154 C3162 0.950 . S
H3155 C3164 0.950 . S
H3156 C3166 0.950 . S
H3157 C3168 0.950 . S
H3158 C3170 0.950 . S
H3159 C3171 0.950 . S
C3160 H3152 0.950 . S
C3160 C3161 1.386 . S
C3160 C3162 1.391 . S
C3161 C3160 1.386 . S
C3161 C3165 1.393 . S
C3162 H3154 0.950 . S
C3162 C3160 1.391 . S
C3162 C3163 1.400 . S
C3163 C3162 1.400 . S
C3163 C3164 1.398 . S
C3163 C3169 1.491 . S
C3164 H3155 0.950 . S
C3164 C3163 1.398 . S
C3164 C3165 1.391 . S
C3165 H3153 0.950 . S
C3165 C3161 1.393 . S
C3165 C3164 1.391 . S
C3166 H3156 0.950 . S
C3166 C3167 1.386 . S
C3166 C3168 1.391 . S
C3167 C3166 1.386 . S
C3167 C3171 1.393 . S
C3168 H3157 0.950 . S
C3168 C3166 1.391 . S
C3168 C3169 1.400 . S
C3169 C3163 1.491 . S
C3169 C3168 1.400 . S
C3169 C3170 1.398 . S
C3170 H3158 0.950 . S
C3170 C3169 1.398 . S
C3170 C3171 1.391 . S
C3171 H3159 0.950 . S
C3171 C3167 1.393 . S
C3171 C3170 1.391 . S
H3172 C3180 0.950 . S
H3173 C3185 0.950 . S
H3174 C3182 0.950 . S
H3175 C3184 0.950 . S
H3176 C3186 0.950 . S
H3177 C3188 0.950 . S
H3178 C3190 0.950 . S
H3179 C3191 0.950 . S
C3180 H3172 0.950 . S
C3180 C3181 1.386 . S
C3180 C3182 1.391 . S
C3181 C3180 1.386 . S
C3181 C3185 1.393 . S
C3182 H3174 0.950 . S
C3182 C3180 1.391 . S
C3182 C3183 1.400 . S
C3183 C3182 1.400 . S
C3183 C3184 1.398 . S
C3183 C3189 1.491 . S
C3184 H3175 0.950 . S
C3184 C3183 1.398 . S
C3184 C3185 1.391 . S
C3185 H3173 0.950 . S
C3185 C3181 1.393 . S
C3185 C3184 1.391 . S
C3186 H3176 0.950 . S
C3186 C3187 1.386 . S
C3186 C3188 1.391 . S
C3187 C3186 1.386 . S
C3187 C3191 1.393 . S
C3188 H3177 0.950 . S
C3188 C3186 1.391 . S
C3188 C3189 1.400 . S
C3189 C3183 1.491 . S
C3189 C3188 1.400 . S
C3189 C3190 1.398 . S
C3190 H3178 0.950 . S
C3190 C3189 1.398 . S
C3190 C3191 1.391 . S
C3191 H3179 0.950 . S
C3191 C3187 1.393 . S
C3191 C3190 1.391 . S
H3192 C3200 0.950 . S
H3193 C3205 0.950 . S
H3194 C3202 0.950 . S
H3195 C3204 0.950 . S
H3196 C3206 0.950 . S
H3197 C3208 0.950 . S
H3198 C3210 0.950 . S
H3199 C3211 0.950 . S
C3200 H3192 0.950 . S
C3200 C3201 1.386 . S
C3200 C3202 1.391 . S
C3201 C3200 1.386 . S
C3201 C3205 1.393 . S
C3202 H3194 0.950 . S
C3202 C3200 1.391 . S
C3202 C3203 1.400 . S
C3203 C3202 1.400 . S
C3203 C3204 1.398 . S
C3203 C3209 1.491 . S
C3204 H3195 0.950 . S
C3204 C3203 1.398 . S
C3204 C3205 1.391 . S
C3205 H3193 0.950 . S
C3205 C3201 1.393 . S
C3205 C3204 1.391 . S
C3206 H3196 0.950 . S
C3206 C3207 1.386 . S
C3206 C3208 1.391 . S
C3207 C3206 1.386 . S
C3207 C3211 1.393 . S
C3208 H3197 0.950 . S
C3208 C3206 1.391 . S
C3208 C3209 1.400 . S
C3209 C3203 1.491 . S
C3209 C3208 1.400 . S
C3209 C3210 1.398 . S
C3210 H3198 0.950 . S
C3210 C3209 1.398 . S
C3210 C3211 1.391 . S
C3211 H3199 0.950 . S
C3211 C3207 1.393 . S
C3211 C3210 1.391 . S
H3212 C3220 0.950 . S
H3213 C3225 0.950 . S
H3214 C3222 0.950 . S
H3215 C3224 0.950 . S
H3216 C3226 0.950 . S
H3217 C3228 0.950 . S
H3218 C3230 0.950 . S
H3219 C3231 0.950 . S
C3220 H3212 0.950 . S
C3220 C3221 1.386 . S
C3220 C3222 1.391 . S
C3221 C3220 1.386 . S
C3221 C3225 1.393 . S
C3222 H3214 0.950 . S
C3222 C3220 1.391 . S
C3222 C3223 1.400 . S
C3223 C3222 1.400 . S
C3223 C3224 1.398 . S
C3223 C3229 1.491 . S
C3224 H3215 0.950 . S
C3224 C3223 1.398 . S
C3224 C3225 1.391 . S
C3225 H3213 0.950 . S
C3225 C3221 1.393 . S
C3225 C3224 1.391 . S
C3226 H3216 0.950 . S
C3226 C3227 1.386 . S
C3226 C3228 1.391 . S
C3227 C3226 1.386 . S
C3227 C3231 1.393 . S
C3228 H3217 0.950 . S
C3228 C3226 1.391 . S
C3228 C3229 1.400 . S
C3229 C3223 1.491 . S
C3229 C3228 1.400 . S
C3229 C3230 1.398 . S
C3230 H3218 0.950 . S
C3230 C3229 1.398 . S
C3230 C3231 1.391 . S
C3231 H3219 0.950 . S
C3231 C3227 1.393 . S
C3231 C3230 1.391 . S
H3232 C3240 0.950 . S
H3233 C3245 0.950 . S
H3234 C3242 0.950 . S
H3235 C3244 0.950 . S
H3236 C3246 0.950 . S
H3237 C3248 0.950 . S
H3238 C3250 0.950 . S
H3239 C3251 0.950 . S
C3240 H3232 0.950 . S
C3240 C3241 1.386 . S
C3240 C3242 1.391 . S
C3241 C3240 1.386 . S
C3241 C3245 1.393 . S
C3242 H3234 0.950 . S
C3242 C3240 1.391 . S
C3242 C3243 1.400 . S
C3243 C3242 1.400 . S
C3243 C3244 1.398 . S
C3243 C3249 1.491 . S
C3244 H3235 0.950 . S
C3244 C3243 1.398 . S
C3244 C3245 1.391 . S
C3245 H3233 0.950 . S
C3245 C3241 1.393 . S
C3245 C3244 1.391 . S
C3246 H3236 0.950 . S
C3246 C3247 1.386 . S
C3246 C3248 1.391 . S
C3247 C3246 1.386 . S
C3247 C3251 1.393 . S
C3248 H3237 0.950 . S
C3248 C3246 1.391 . S
C3248 C3249 1.400 . S
C3249 C3243 1.491 . S
C3249 C3248 1.400 . S
C3249 C3250 1.398 . S
C3250 H3238 0.950 . S
C3250 C3249 1.398 . S
C3250 C3251 1.391 . S
C3251 H3239 0.950 . S
C3251 C3247 1.393 . S
C3251 C3250 1.391 . S
H3252 C3260 0.950 . S
H3253 C3265 0.950 . S
H3254 C3262 0.950 . S
H3255 C3264 0.950 . S
H3256 C3266 0.950 . S
H3257 C3268 0.950 . S
H3258 C3270 0.950 . S
H3259 C3271 0.950 . S
C3260 H3252 0.950 . S
C3260 C3261 1.386 . S
C3260 C3262 1.391 . S
C3261 C3260 1.386 . S
C3261 C3265 1.393 . S
C3262 H3254 0.950 . S
C3262 C3260 1.391 . S
C3262 C3263 1.400 . S
C3263 C3262 1.400 . S
C3263 C3264 1.398 . S
C3263 C3269 1.491 . S
C3264 H3255 0.950 . S
C3264 C3263 1.398 . S
C3264 C3265 1.391 . S
C3265 H3253 0.950 . S
C3265 C3261 1.393 . S
C3265 C3264 1.391 . S
C3266 H3256 0.950 . S
C3266 C3267 1.386 . S
C3266 C3268 1.391 . S
C3267 C3266 1.386 . S
C3267 C3271 1.393 . S
C3268 H3257 0.950 . S
C3268 C3266 1.391 . S
C3268 C3269 1.400 . S
C3269 C3263 1.491 . S
C3269 C3268 1.400 . S
C3269 C3270 1.398 . S
C3270 H3258 0.950 . S
C3270 C3269 1.398 . S
C3270 C3271 1.391 . S
C3271 H3259 0.950 . S
C3271 C3267 1.393 . S
C3271 C3270 1.391 . S
H3272 C3280 0.950 . S
H3273 C3285 0.950 . S
H3274 C3282 0.950 . S
H3275 C3284 0.950 . S
H3276 C3286 0.950 . S
H3277 C3288 0.950 . S
H3278 C3290 0.950 . S
H3279 C3291 0.950 . S
C3280 H3272 0.950 . S
C3280 C3281 1.386 . S
C3280 C3282 1.391 . S
C3281 C3280 1.386 . S
C3281 C3285 1.393 . S
C3282 H3274 0.950 . S
C3282 C3280 1.391 . S
C3282 C3283 1.400 . S
C3283 C3282 1.400 . S
C3283 C3284 1.398 . S
C3283 C3289 1.491 . S
C3284 H3275 0.950 . S
C3284 C3283 1.398 . S
C3284 C3285 1.391 . S
C3285 H3273 0.950 . S
C3285 C3281 1.393 . S
C3285 C3284 1.391 . S
C3286 H3276 0.950 . S
C3286 C3287 1.386 . S
C3286 C3288 1.391 . S
C3287 C3286 1.386 . S
C3287 C3291 1.393 . S
C3288 H3277 0.950 . S
C3288 C3286 1.391 . S
C3288 C3289 1.400 . S
C3289 C3283 1.491 . S
C3289 C3288 1.400 . S
C3289 C3290 1.398 . S
C3290 H3278 0.950 . S
C3290 C3289 1.398 . S
C3290 C3291 1.391 . S
C3291 H3279 0.950 . S
C3291 C3287 1.393 . S
C3291 C3290 1.391 . S
H3292 C3300 0.950 . S
H3293 C3305 0.950 . S
H3294 C3302 0.950 . S
H3295 C3304 0.950 . S
H3296 C3306 0.950 . S
H3297 C3308 0.950 . S
H3298 C3310 0.950 . S
H3299 C3311 0.950 . S
C3300 H3292 0.950 . S
C3300 C3301 1.386 . S
C3300 C3302 1.391 . S
C3301 C3300 1.386 . S
C3301 C3305 1.393 . S
C3302 H3294 0.950 . S
C3302 C3300 1.391 . S
C3302 C3303 1.400 . S
C3303 C3302 1.400 . S
C3303 C3304 1.398 . S
C3303 C3309 1.491 . S
C3304 H3295 0.950 . S
C3304 C3303 1.398 . S
C3304 C3305 1.391 . S
C3305 H3293 0.950 . S
C3305 C3301 1.393 . S
C3305 C3304 1.391 . S
C3306 H3296 0.950 . S
C3306 C3307 1.386 . S
C3306 C3308 1.391 . S
C3307 C3306 1.386 . S
C3307 C3311 1.393 . S
C3308 H3297 0.950 . S
C3308 C3306 1.391 . S
C3308 C3309 1.400 . S
C3309 C3303 1.491 . S
C3309 C3308 1.400 . S
C3309 C3310 1.398 . S
C3310 H3298 0.950 . S
C3310 C3309 1.398 . S
C3310 C3311 1.391 . S
C3311 H3299 0.950 . S
C3311 C3307 1.393 . S
C3311 C3310 1.391 . S
H3312 C3320 0.950 . S
H3313 C3325 0.950 . S
H3314 C3322 0.950 . S
H3315 C3324 0.950 . S
H3316 C3326 0.950 . S
H3317 C3328 0.950 . S
H3318 C3330 0.950 . S
H3319 C3331 0.950 . S
C3320 H3312 0.950 . S
C3320 C3321 1.386 . S
C3320 C3322 1.391 . S
C3321 C3320 1.386 . S
C3321 C3325 1.393 . S
C3322 H3314 0.950 . S
C3322 C3320 1.391 . S
C3322 C3323 1.400 . S
C3323 C3322 1.400 . S
C3323 C3324 1.398 . S
C3323 C3329 1.491 . S
C3324 H3315 0.950 . S
C3324 C3323 1.398 . S
C3324 C3325 1.391 . S
C3325 H3313 0.950 . S
C3325 C3321 1.393 . S
C3325 C3324 1.391 . S
C3326 H3316 0.950 . S
C3326 C3327 1.386 . S
C3326 C3328 1.391 . S
C3327 C3326 1.386 . S
C3327 C3331 1.393 . S
C3328 H3317 0.950 . S
C3328 C3326 1.391 . S
C3328 C3329 1.400 . S
C3329 C3323 1.491 . S
C3329 C3328 1.400 . S
C3329 C3330 1.398 . S
C3330 H3318 0.950 . S
C3330 C3329 1.398 . S
C3330 C3331 1.391 . S
C3331 H3319 0.950 . S
C3331 C3327 1.393 . S
C3331 C3330 1.391 . S
H3332 C3340 0.950 . S
H3333 C3345 0.950 . S
H3334 C3342 0.950 . S
H3335 C3344 0.950 . S
H3336 C3346 0.950 . S
H3337 C3348 0.950 . S
H3338 C3350 0.950 . S
H3339 C3351 0.950 . S
C3340 H3332 0.950 . S
C3340 C3341 1.386 . S
C3340 C3342 1.391 . S
C3341 C3340 1.386 . S
C3341 C3345 1.393 . S
C3342 H3334 0.950 . S
C3342 C3340 1.391 . S
C3342 C3343 1.400 . S
C3343 C3342 1.400 . S
C3343 C3344 1.398 . S
C3343 C3349 1.491 . S
C3344 H3335 0.950 . S
C3344 C3343 1.398 . S
C3344 C3345 1.391 . S
C3345 H3333 0.950 . S
C3345 C3341 1.393 . S
C3345 C3344 1.391 . S
C3346 H3336 0.950 . S
C3346 C3347 1.386 . S
C3346 C3348 1.391 . S
C3347 C3346 1.386 . S
C3347 C3351 1.393 . S
C3348 H3337 0.950 . S
C3348 C3346 1.391 . S
C3348 C3349 1.400 . S
C3349 C3343 1.491 . S
C3349 C3348 1.400 . S
C3349 C3350 1.398 . S
C3350 H3338 0.950 . S
C3350 C3349 1.398 . S
C3350 C3351 1.391 . S
C3351 H3339 0.950 . S
C3351 C3347 1.393 . S
C3351 C3350 1.391 . S
H3352 C3360 0.950 . S
H3353 C3365 0.950 . S
H3354 C3362 0.950 . S
H3355 C3364 0.950 . S
H3356 C3366 0.950 . S
H3357 C3368 0.950 . S
H3358 C3370 0.950 . S
H3359 C3371 0.950 . S
C3360 H3352 0.950 . S
C3360 C3361 1.386 . S
C3360 C3362 1.391 . S
C3361 C3360 1.386 . S
C3361 C3365 1.393 . S
C3362 H3354 0.950 . S
C3362 C3360 1.391 . S
C3362 C3363 1.400 . S
C3363 C3362 1.400 . S
C3363 C3364 1.398 . S
C3363 C3369 1.491 . S
C3364 H3355 0.950 . S
C3364 C3363 1.398 . S
C3364 C3365 1.391 . S
C3365 H3353 0.950 . S
C3365 C3361 1.393 . S
C3365 C3364 1.391 . S
C3366 H3356 0.950 . S
C3366 C3367 1.386 . S
C3366 C3368 1.391 . S
C3367 C3366 1.386 . S
C3367 C3371 1.393 . S
C3368 H3357 0.950 . S
C3368 C3366 1.391 . S
C3368 C3369 1.400 . S
C3369 C3363 1.491 . S
C3369 C3368 1.400 . S
C3369 C3370 1.398 . S
C3370 H3358 0.950 . S
C3370 C3369 1.398 . S
C3370 C3371 1.391 . S
C3371 H3359 0.950 . S
C3371 C3367 1.393 . S
C3371 C3370 1.391 . S
H3372 C3380 0.950 . S
H3373 C3385 0.950 . S
H3374 C3382 0.950 . S
H3375 C3384 0.950 . S
H3376 C3386 0.950 . S
H3377 C3388 0.950 . S
H3378 C3390 0.950 . S
H3379 C3391 0.950 . S
C3380 H3372 0.950 . S
C3380 C3381 1.386 . S
C3380 C3382 1.391 . S
C3381 C3380 1.386 . S
C3381 C3385 1.393 . S
C3382 H3374 0.950 . S
C3382 C3380 1.391 . S
C3382 C3383 1.400 . S
C3383 C3382 1.400 . S
C3383 C3384 1.398 . S
C3383 C3389 1.491 . S
C3384 H3375 0.950 . S
C3384 C3383 1.398 . S
C3384 C3385 1.391 . S
C3385 H3373 0.950 . S
C3385 C3381 1.393 . S
C3385 C3384 1.391 . S
C3386 H3376 0.950 . S
C3386 C3387 1.386 . S
C3386 C3388 1.391 . S
C3387 C3386 1.386 . S
C3387 C3391 1.393 . S
C3388 H3377 0.950 . S
C3388 C3386 1.391 . S
C3388 C3389 1.400 . S
C3389 C3383 1.491 . S
C3389 C3388 1.400 . S
C3389 C3390 1.398 . S
C3390 H3378 0.950 . S
C3390 C3389 1.398 . S
C3390 C3391 1.391 . S
C3391 H3379 0.950 . S
C3391 C3387 1.393 . S
C3391 C3390 1.391 . S
H3392 C3400 0.950 . S
H3393 C3405 0.950 . S
H3394 C3402 0.950 . S
H3395 C3404 0.950 . S
H3396 C3406 0.950 . S
H3397 C3408 0.950 . S
H3398 C3410 0.950 . S
H3399 C3411 0.950 . S
C3400 H3392 0.950 . S
C3400 C3401 1.386 . S
C3400 C3402 1.391 . S
C3401 C3400 1.386 . S
C3401 C3405 1.393 . S
C3402 H3394 0.950 . S
C3402 C3400 1.391 . S
C3402 C3403 1.400 . S
C3403 C3402 1.400 . S
C3403 C3404 1.398 . S
C3403 C3409 1.491 . S
C3404 H3395 0.950 . S
C3404 C3403 1.398 . S
C3404 C3405 1.391 . S
C3405 H3393 0.950 . S
C3405 C3401 1.393 . S
C3405 C3404 1.391 . S
C3406 H3396 0.950 . S
C3406 C3407 1.386 . S
C3406 C3408 1.391 . S
C3407 C3406 1.386 . S
C3407 C3411 1.393 . S
C3408 H3397 0.950 . S
C3408 C3406 1.391 . S
C3408 C3409 1.400 . S
C3409 C3403 1.491 . S
C3409 C3408 1.400 . S
C3409 C3410 1.398 . S
C3410 H3398 0.950 . S
C3410 C3409 1.398 . S
C3410 C3411 1.391 . S
C3411 H3399 0.950 . S
C3411 C3407 1.393 . S
C3411 C3410 1.391 . S
H3412 C3420 0.950 . S
H3413 C3425 0.950 . S
H3414 C3422 0.950 . S
H3415 C3424 0.950 . S
H3416 C3426 0.950 . S
H3417 C3428 0.950 . S
H3418 C3430 0.950 . S
H3419 C3431 0.950 . S
C3420 H3412 0.950 . S
C3420 C3421 1.386 . S
C3420 C3422 1.391 . S
C3421 C3420 1.386 . S
C3421 C3425 1.393 . S
C3422 H3414 0.950 . S
C3422 C3420 1.391 . S
C3422 C3423 1.400 . S
C3423 C3422 1.400 . S
C3423 C3424 1.398 . S
C3423 C3429 1.491 . S
C3424 H3415 0.950 . S
C3424 C3423 1.398 . S
C3424 C3425 1.391 . S
C3425 H3413 0.950 . S
C3425 C3421 1.393 . S
C3425 C3424 1.391 . S
C3426 H3416 0.950 . S
C3426 C3427 1.386 . S
C3426 C3428 1.391 . S
C3427 C3426 1.386 . S
C3427 C3431 1.393 . S
C3428 H3417 0.950 . S
C3428 C3426 1.391 . S
C3428 C3429 1.400 . S
C3429 C3423 1.491 . S
C3429 C3428 1.400 . S
C3429 C3430 1.398 . S
C3430 H3418 0.950 . S
C3430 C3429 1.398 . S
C3430 C3431 1.391 . S
C3431 H3419 0.950 . S
C3431 C3427 1.393 . S
C3431 C3430 1.391 . S
H3432 C3440 0.950 . S
H3433 C3445 0.950 . S
H3434 C3442 0.950 . S
H3435 C3444 0.950 . S
H3436 C3446 0.950 . S
H3437 C3448 0.950 . S
H3438 C3450 0.950 . S
H3439 C3451 0.950 . S
C3440 H3432 0.950 . S
C3440 C3441 1.386 . S
C3440 C3442 1.391 . S
C3441 C3440 1.386 . S
C3441 C3445 1.393 . S
C3442 H3434 0.950 . S
C3442 C3440 1.391 . S
C3442 C3443 1.400 . S
C3443 C3442 1.400 . S
C3443 C3444 1.398 . S
C3443 C3449 1.491 . S
C3444 H3435 0.950 . S
C3444 C3443 1.398 . S
C3444 C3445 1.391 . S
C3445 H3433 0.950 . S
C3445 C3441 1.393 . S
C3445 C3444 1.391 . S
C3446 H3436 0.950 . S
C3446 C3447 1.386 . S
C3446 C3448 1.391 . S
C3447 C3446 1.386 . S
C3447 C3451 1.393 . S
C3448 H3437 0.950 . S
C3448 C3446 1.391 . S
C3448 C3449 1.400 . S
C3449 C3443 1.491 . S
C3449 C3448 1.400 . S
C3449 C3450 1.398 . S
C3450 H3438 0.950 . S
C3450 C3449 1.398 . S
C3450 C3451 1.391 . S
C3451 H3439 0.950 . S
C3451 C3447 1.393 . S
C3451 C3450 1.391 . S
H3452 C3460 0.950 . S
H3453 C3465 0.950 . S
H3454 C3462 0.950 . S
H3455 C3464 0.950 . S
H3456 C3466 0.950 . S
H3457 C3468 0.950 . S
H3458 C3470 0.950 . S
H3459 C3471 0.950 . S
C3460 H3452 0.950 . S
C3460 C3461 1.386 . S
C3460 C3462 1.391 . S
C3461 C3460 1.386 . S
C3461 C3465 1.393 . S
C3462 H3454 0.950 . S
C3462 C3460 1.391 . S
C3462 C3463 1.400 . S
C3463 C3462 1.400 . S
C3463 C3464 1.398 . S
C3463 C3469 1.491 . S
C3464 H3455 0.950 . S
C3464 C3463 1.398 . S
C3464 C3465 1.391 . S
C3465 H3453 0.950 . S
C3465 C3461 1.393 . S
C3465 C3464 1.391 . S
C3466 H3456 0.950 . S
C3466 C3467 1.386 . S
C3466 C3468 1.391 . S
C3467 C3466 1.386 . S
C3467 C3471 1.393 . S
C3468 H3457 0.950 . S
C3468 C3466 1.391 . S
C3468 C3469 1.400 . S
C3469 C3463 1.491 . S
C3469 C3468 1.400 . S
C3469 C3470 1.398 . S
C3470 H3458 0.950 . S
C3470 C3469 1.398 . S
C3470 C3471 1.391 . S
C3471 H3459 0.950 . S
C3471 C3467 1.393 . S
C3471 C3470 1.391 . S
H3472 C3480 0.950 . S
H3473 C3485 0.950 . S
H3474 C3482 0.950 . S
H3475 C3484 0.950 . S
H3476 C3486 0.950 . S
H3477 C3488 0.950 . S
H3478 C3490 0.950 . S
H3479 C3491 0.950 . S
C3480 H3472 0.950 . S
C3480 C3481 1.386 . S
C3480 C3482 1.391 . S
C3481 C3480 1.386 . S
C3481 C3485 1.393 . S
C3482 H3474 0.950 . S
C3482 C3480 1.391 . S
C3482 C3483 1.400 . S
C3483 C3482 1.400 . S
C3483 C3484 1.398 . S
C3483 C3489 1.491 . S
C3484 H3475 0.950 . S
C3484 C3483 1.398 . S
C3484 C3485 1.391 . S
C3485 H3473 0.950 . S
C3485 C3481 1.393 . S
C3485 C3484 1.391 . S
C3486 H3476 0.950 . S
C3486 C3487 1.386 . S
C3486 C3488 1.391 . S
C3487 C3486 1.386 . S
C3487 C3491 1.393 . S
C3488 H3477 0.950 . S
C3488 C3486 1.391 . S
C3488 C3489 1.400 . S
C3489 C3483 1.491 . S
C3489 C3488 1.400 . S
C3489 C3490 1.398 . S
C3490 H3478 0.950 . S
C3490 C3489 1.398 . S
C3490 C3491 1.391 . S
C3491 H3479 0.950 . S
C3491 C3487 1.393 . S
C3491 C3490 1.391 . S
H3492 C3500 0.950 . S
H3493 C3505 0.950 . S
H3494 C3502 0.950 . S
H3495 C3504 0.950 . S
H3496 C3506 0.950 . S
H3497 C3508 0.950 . S
H3498 C3510 0.950 . S
H3499 C3511 0.950 . S
C3500 H3492 0.950 . S
C3500 C3501 1.386 . S
C3500 C3502 1.391 . S
C3501 C3500 1.386 . S
C3501 C3505 1.393 . S
C3502 H3494 0.950 . S
C3502 C3500 1.391 . S
C3502 C3503 1.400 . S
C3503 C3502 1.400 . S
C3503 C3504 1.398 . S
C3503 C3509 1.491 . S
C3504 H3495 0.950 . S
C3504 C3503 1.398 . S
C3504 C3505 1.391 . S
C3505 H3493 0.950 . S
C3505 C3501 1.393 . S
C3505 C3504 1.391 . S
C3506 H3496 0.950 . S
C3506 C3507 1.386 . S
C3506 C3508 1.391 . S
C3507 C3506 1.386 . S
C3507 C3511 1.393 . S
C3508 H3497 0.950 . S
C3508 C3506 1.391 . S
C3508 C3509 1.400 . S
C3509 C3503 1.491 . S
C3509 C3508 1.400 . S
C3509 C3510 1.398 . S
C3510 H3498 0.950 . S
C3510 C3509 1.398 . S
C3510 C3511 1.391 . S
C3511 H3499 0.950 . S
C3511 C3507 1.393 . S
C3511 C3510 1.391 . S
H3512 C3520 0.950 . S
H3513 C3525 0.950 . S
H3514 C3522 0.950 . S
H3515 C3524 0.950 . S
H3516 C3526 0.950 . S
H3517 C3528 0.950 . S
H3518 C3530 0.950 . S
H3519 C3531 0.950 . S
C3520 H3512 0.950 . S
C3520 C3521 1.386 . S
C3520 C3522 1.391 . S
C3521 C3520 1.386 . S
C3521 C3525 1.393 . S
C3522 H3514 0.950 . S
C3522 C3520 1.391 . S
C3522 C3523 1.400 . S
C3523 C3522 1.400 . S
C3523 C3524 1.398 . S
C3523 C3529 1.491 . S
C3524 H3515 0.950 . S
C3524 C3523 1.398 . S
C3524 C3525 1.391 . S
C3525 H3513 0.950 . S
C3525 C3521 1.393 . S
C3525 C3524 1.391 . S
C3526 H3516 0.950 . S
C3526 C3527 1.386 . S
C3526 C3528 1.391 . S
C3527 C3526 1.386 . S
C3527 C3531 1.393 . S
C3528 H3517 0.950 . S
C3528 C3526 1.391 . S
C3528 C3529 1.400 . S
C3529 C3523 1.491 . S
C3529 C3528 1.400 . S
C3529 C3530 1.398 . S
C3530 H3518 0.950 . S
C3530 C3529 1.398 . S
C3530 C3531 1.391 . S
C3531 H3519 0.950 . S
C3531 C3527 1.393 . S
C3531 C3530 1.391 . S
H3532 C3540 0.950 . S
H3533 C3545 0.950 . S
H3534 C3542 0.950 . S
H3535 C3544 0.950 . S
H3536 C3546 0.950 . S
H3537 C3548 0.950 . S
H3538 C3550 0.950 . S
H3539 C3551 0.950 . S
C3540 H3532 0.950 . S
C3540 C3541 1.386 . S
C3540 C3542 1.391 . S
C3541 C3540 1.386 . S
C3541 C3545 1.393 . S
C3542 H3534 0.950 . S
C3542 C3540 1.391 . S
C3542 C3543 1.400 . S
C3543 C3542 1.400 . S
C3543 C3544 1.398 . S
C3543 C3549 1.491 . S
C3544 H3535 0.950 . S
C3544 C3543 1.398 . S
C3544 C3545 1.391 . S
C3545 H3533 0.950 . S
C3545 C3541 1.393 . S
C3545 C3544 1.391 . S
C3546 H3536 0.950 . S
C3546 C3547 1.386 . S
C3546 C3548 1.391 . S
C3547 C3546 1.386 . S
C3547 C3551 1.393 . S
C3548 H3537 0.950 . S
C3548 C3546 1.391 . S
C3548 C3549 1.400 . S
C3549 C3543 1.491 . S
C3549 C3548 1.400 . S
C3549 C3550 1.398 . S
C3550 H3538 0.950 . S
C3550 C3549 1.398 . S
C3550 C3551 1.391 . S
C3551 H3539 0.950 . S
C3551 C3547 1.393 . S
C3551 C3550 1.391 . S
H3552 C3560 0.950 . S
H3553 C3565 0.950 . S
H3554 C3562 0.950 . S
H3555 C3564 0.950 . S
H3556 C3566 0.950 . S
H3557 C3568 0.950 . S
H3558 C3570 0.950 . S
H3559 C3571 0.950 . S
C3560 H3552 0.950 . S
C3560 C3561 1.386 . S
C3560 C3562 1.391 . S
C3561 C3560 1.386 . S
C3561 C3565 1.393 . S
C3562 H3554 0.950 . S
C3562 C3560 1.391 . S
C3562 C3563 1.400 . S
C3563 C3562 1.400 . S
C3563 C3564 1.398 . S
C3563 C3569 1.491 . S
C3564 H3555 0.950 . S
C3564 C3563 1.398 . S
C3564 C3565 1.391 . S
C3565 H3553 0.950 . S
C3565 C3561 1.393 . S
C3565 C3564 1.391 . S
C3566 H3556 0.950 . S
C3566 C3567 1.386 . S
C3566 C3568 1.391 . S
C3567 C3566 1.386 . S
C3567 C3571 1.393 . S
C3568 H3557 0.950 . S
C3568 C3566 1.391 . S
C3568 C3569 1.400 . S
C3569 C3563 1.491 . S
C3569 C3568 1.400 . S
C3569 C3570 1.398 . S
C3570 H3558 0.950 . S
C3570 C3569 1.398 . S
C3570 C3571 1.391 . S
C3571 H3559 0.950 . S
C3571 C3567 1.393 . S
C3571 C3570 1.391 . S
H3572 C3580 0.950 . S
H3573 C3585 0.950 . S
H3574 C3582 0.950 . S
H3575 C3584 0.950 . S
H3576 C3586 0.950 . S
H3577 C3588 0.950 . S
H3578 C3590 0.950 . S
H3579 C3591 0.950 . S
C3580 H3572 0.950 . S
C3580 C3581 1.386 . S
C3580 C3582 1.391 . S
C3581 C3580 1.386 . S
C3581 C3585 1.393 . S
C3582 H3574 0.950 . S
C3582 C3580 1.391 . S
C3582 C3583 1.400 . S
C3583 C3582 1.400 . S
C3583 C3584 1.398 . S
C3583 C3589 1.491 . S
C3584 H3575 0.950 . S
C3584 C3583 1.398 . S
C3584 C3585 1.391 . S
C3585 H3573 0.950 . S
C3585 C3581 1.393 . S
C3585 C3584 1.391 . S
C3586 H3576 0.950 . S
C3586 C3587 1.386 . S
C3586 C3588 1.391 . S
C3587 C3586 1.386 . S
C3587 C3591 1.393 . S
C3588 H3577 0.950 . S
C3588 C3586 1.391 . S
C3588 C3589 1.400 . S
C3589 C3583 1.491 . S
C3589 C3588 1.400 . S
C3589 C3590 1.398 . S
C3590 H3578 0.950 . S
C3590 C3589 1.398 . S
C3590 C3591 1.391 . S
C3591 H3579 0.950 . S
C3591 C3587 1.393 . S
C3591 C3590 1.391 . S
H3592 C3600 0.950 . S
H3593 C3605 0.950 . S
H3594 C3602 0.950 . S
H3595 C3604 0.950 . S
H3596 C3606 0.950 . S
H3597 C3608 0.950 . S
H3598 C3610 0.950 . S
H3599 C3611 0.950 . S
C3600 H3592 0.950 . S
C3600 C3601 1.386 . S
C3600 C3602 1.391 . S
C3601 C3600 1.386 . S
C3601 C3605 1.393 . S
C3602 H3594 0.950 . S
C3602 C3600 1.391 . S
C3602 C3603 1.400 . S
C3603 C3602 1.400 . S
C3603 C3604 1.398 . S
C3603 C3609 1.491 . S
C3604 H3595 0.950 . S
C3604 C3603 1.398 . S
C3604 C3605 1.391 . S
C3605 H3593 0.950 . S
C3605 C3601 1.393 . S
C3605 C3604 1.391 . S
C3606 H3596 0.950 . S
C3606 C3607 1.386 . S
C3606 C3608 1.391 . S
C3607 C3606 1.386 . S
C3607 C3611 1.393 . S
C3608 H3597 0.950 . S
C3608 C3606 1.391 . S
C3608 C3609 1.400 . S
C3609 C3603 1.491 . S
C3609 C3608 1.400 . S
C3609 C3610 1.398 . S
C3610 H3598 0.950 . S
C3610 C3609 1.398 . S
C3610 C3611 1.391 . S
C3611 H3599 0.950 . S
C3611 C3607 1.393 . S
C3611 C3610 1.391 . S
H3612 C3620 0.950 . S
H3613 C3625 0.950 . S
H3614 C3622 0.950 . S
H3615 C3624 0.950 . S
H3616 C3626 0.950 . S
H3617 C3628 0.950 . S
H3618 C3630 0.950 . S
H3619 C3631 0.950 . S
C3620 H3612 0.950 . S
C3620 C3621 1.386 . S
C3620 C3622 1.391 . S
C3621 C3620 1.386 . S
C3621 C3625 1.393 . S
C3622 H3614 0.950 . S
C3622 C3620 1.391 . S
C3622 C3623 1.400 . S
C3623 C3622 1.400 . S
C3623 C3624 1.398 . S
C3623 C3629 1.491 . S
C3624 H3615 0.950 . S
C3624 C3623 1.398 . S
C3624 C3625 1.391 . S
C3625 H3613 0.950 . S
C3625 C3621 1.393 . S
C3625 C3624 1.391 . S
C3626 H3616 0.950 . S
C3626 C3627 1.386 . S
C3626 C3628 1.391 . S
C3627 C3626 1.386 . S
C3627 C3631 1.393 . S
C3628 H3617 0.950 . S
C3628 C3626 1.391 . S
C3628 C3629 1.400 . S
C3629 C3623 1.491 . S
C3629 C3628 1.400 . S
C3629 C3630 1.398 . S
C3630 H3618 0.950 . S
C3630 C3629 1.398 . S
C3630 C3631 1.391 . S
C3631 H3619 0.950 . S
C3631 C3627 1.393 . S
C3631 C3630 1.391 . S
H3632 C3640 0.950 . S
H3633 C3645 0.950 . S
H3634 C3642 0.950 . S
H3635 C3644 0.950 . S
H3636 C3646 0.950 . S
H3637 C3648 0.950 . S
H3638 C3650 0.950 . S
H3639 C3651 0.950 . S
C3640 H3632 0.950 . S
C3640 C3641 1.386 . S
C3640 C3642 1.391 . S
C3641 C3640 1.386 . S
C3641 C3645 1.393 . S
C3642 H3634 0.950 . S
C3642 C3640 1.391 . S
C3642 C3643 1.400 . S
C3643 C3642 1.400 . S
C3643 C3644 1.398 . S
C3643 C3649 1.491 . S
C3644 H3635 0.950 . S
C3644 C3643 1.398 . S
C3644 C3645 1.391 . S
C3645 H3633 0.950 . S
C3645 C3641 1.393 . S
C3645 C3644 1.391 . S
C3646 H3636 0.950 . S
C3646 C3647 1.386 . S
C3646 C3648 1.391 . S
C3647 C3646 1.386 . S
C3647 C3651 1.393 . S
C3648 H3637 0.950 . S
C3648 C3646 1.391 . S
C3648 C3649 1.400 . S
C3649 C3643 1.491 . S
C3649 C3648 1.400 . S
C3649 C3650 1.398 . S
C3650 H3638 0.950 . S
C3650 C3649 1.398 . S
C3650 C3651 1.391 . S
C3651 H3639 0.950 . S
C3651 C3647 1.393 . S
C3651 C3650 1.391 . S
H3652 C3660 0.950 . S
H3653 C3665 0.950 . S
H3654 C3662 0.950 . S
H3655 C3664 0.950 . S
H3656 C3666 0.950 . S
H3657 C3668 0.950 . S
H3658 C3670 0.950 . S
H3659 C3671 0.950 . S
C3660 H3652 0.950 . S
C3660 C3661 1.386 . S
C3660 C3662 1.391 . S
C3661 C3660 1.386 . S
C3661 C3665 1.393 . S
C3662 H3654 0.950 . S
C3662 C3660 1.391 . S
C3662 C3663 1.400 . S
C3663 C3662 1.400 . S
C3663 C3664 1.398 . S
C3663 C3669 1.491 . S
C3664 H3655 0.950 . S
C3664 C3663 1.398 . S
C3664 C3665 1.391 . S
C3665 H3653 0.950 . S
C3665 C3661 1.393 . S
C3665 C3664 1.391 . S
C3666 H3656 0.950 . S
C3666 C3667 1.386 . S
C3666 C3668 1.391 . S
C3667 C3666 1.386 . S
C3667 C3671 1.393 . S
C3668 H3657 0.950 . S
C3668 C3666 1.391 . S
C3668 C3669 1.400 . S
C3669 C3663 1.491 . S
C3669 C3668 1.400 . S
C3669 C3670 1.398 . S
C3670 H3658 0.950 . S
C3670 C3669 1.398 . S
C3670 C3671 1.391 . S
C3671 H3659 0.950 . S
C3671 C3667 1.393 . S
C3671 C3670 1.391 . S
H3672 C3680 0.950 . S
H3673 C3685 0.950 . S
H3674 C3682 0.950 . S
H3675 C3684 0.950 . S
H3676 C3686 0.950 . S
H3677 C3688 0.950 . S
H3678 C3690 0.950 . S
H3679 C3691 0.950 . S
C3680 H3672 0.950 . S
C3680 C3681 1.386 . S
C3680 C3682 1.391 . S
C3681 C3680 1.386 . S
C3681 C3685 1.393 . S
C3682 H3674 0.950 . S
C3682 C3680 1.391 . S
C3682 C3683 1.400 . S
C3683 C3682 1.400 . S
C3683 C3684 1.398 . S
C3683 C3689 1.491 . S
C3684 H3675 0.950 . S
C3684 C3683 1.398 . S
C3684 C3685 1.391 . S
C3685 H3673 0.950 . S
C3685 C3681 1.393 . S
C3685 C3684 1.391 . S
C3686 H3676 0.950 . S
C3686 C3687 1.386 . S
C3686 C3688 1.391 . S
C3687 C3686 1.386 . S
C3687 C3691 1.393 . S
C3688 H3677 0.950 . S
C3688 C3686 1.391 . S
C3688 C3689 1.400 . S
C3689 C3683 1.491 . S
C3689 C3688 1.400 . S
C3689 C3690 1.398 . S
C3690 H3678 0.950 . S
C3690 C3689 1.398 . S
C3690 C3691 1.391 . S
C3691 H3679 0.950 . S
C3691 C3687 1.393 . S
C3691 C3690 1.391 . S
H3692 C3700 0.950 . S
H3693 C3705 0.950 . S
H3694 C3702 0.950 . S
H3695 C3704 0.950 . S
H3696 C3706 0.950 . S
H3697 C3708 0.950 . S
H3698 C3710 0.950 . S
H3699 C3711 0.950 . S
C3700 H3692 0.950 . S
C3700 C3701 1.386 . S
C3700 C3702 1.391 . S
C3701 C3700 1.386 . S
C3701 C3705 1.393 . S
C3702 H3694 0.950 . S
C3702 C3700 1.391 . S
C3702 C3703 1.400 . S
C3703 C3702 1.400 . S
C3703 C3704 1.398 . S
C3703 C3709 1.491 . S
C3704 H3695 0.950 . S
C3704 C3703 1.398 . S
C3704 C3705 1.391 . S
C3705 H3693 0.950 . S
C3705 C3701 1.393 . S
C3705 C3704 1.391 . S
C3706 H3696 0.950 . S
C3706 C3707 1.386 . S
C3706 C3708 1.391 . S
C3707 C3706 1.386 . S
C3707 C3711 1.393 . S
C3708 H3697 0.950 . S
C3708 C3706 1.391 . S
C3708 C3709 1.400 . S
C3709 C3703 1.491 . S
C3709 C3708 1.400 . S
C3709 C3710 1.398 . S
C3710 H3698 0.950 . S
C3710 C3709 1.398 . S
C3710 C3711 1.391 . S
C3711 H3699 0.950 . S
C3711 C3707 1.393 . S
C3711 C3710 1.391 . S
H3712 C3720 0.950 . S
H3713 C3725 0.950 . S
H3714 C3722 0.950 . S
H3715 C3724 0.950 . S
H3716 C3726 0.950 . S
H3717 C3728 0.950 . S
H3718 C3730 0.950 . S
H3719 C3731 0.950 . S
C3720 H3712 0.950 . S
C3720 C3721 1.386 . S
C3720 C3722 1.391 . S
C3721 C3720 1.386 . S
C3721 C3725 1.393 . S
C3722 H3714 0.950 . S
C3722 C3720 1.391 . S
C3722 C3723 1.400 . S
C3723 C3722 1.400 . S
C3723 C3724 1.398 . S
C3723 C3729 1.491 . S
C3724 H3715 0.950 . S
C3724 C3723 1.398 . S
C3724 C3725 1.391 . S
C3725 H3713 0.950 . S
C3725 C3721 1.393 . S
C3725 C3724 1.391 . S
C3726 H3716 0.950 . S
C3726 C3727 1.386 . S
C3726 C3728 1.391 . S
C3727 C3726 1.386 . S
C3727 C3731 1.393 . S
C3728 H3717 0.950 . S
C3728 C3726 1.391 . S
C3728 C3729 1.400 . S
C3729 C3723 1.491 . S
C3729 C3728 1.400 . S
C3729 C3730 1.398 . S
C3730 H3718 0.950 . S
C3730 C3729 1.398 . S
C3730 C3731 1.391 . S
C3731 H3719 0.950 . S
C3731 C3727 1.393 . S
C3731 C3730 1.391 . S
H3732 C3740 0.950 . S
H3733 C3745 0.950 . S
H3734 C3742 0.950 . S
H3735 C3744 0.950 . S
H3736 C3746 0.950 . S
H3737 C3748 0.950 . S
H3738 C3750 0.950 . S
H3739 C3751 0.950 . S
C3740 H3732 0.950 . S
C3740 C3741 1.386 . S
C3740 C3742 1.391 . S
C3741 C3740 1.386 . S
C3741 C3745 1.393 . S
C3742 H3734 0.950 . S
C3742 C3740 1.391 . S
C3742 C3743 1.400 . S
C3743 C3742 1.400 . S
C3743 C3744 1.398 . S
C3743 C3749 1.491 . S
C3744 H3735 0.950 . S
C3744 C3743 1.398 . S
C3744 C3745 1.391 . S
C3745 H3733 0.950 . S
C3745 C3741 1.393 . S
C3745 C3744 1.391 . S
C3746 H3736 0.950 . S
C3746 C3747 1.386 . S
C3746 C3748 1.391 . S
C3747 C3746 1.386 . S
C3747 C3751 1.393 . S
C3748 H3737 0.950 . S
C3748 C3746 1.391 . S
C3748 C3749 1.400 . S
C3749 C3743 1.491 . S
C3749 C3748 1.400 . S
C3749 C3750 1.398 . S
C3750 H3738 0.950 . S
C3750 C3749 1.398 . S
C3750 C3751 1.391 . S
C3751 H3739 0.950 . S
C3751 C3747 1.393 . S
C3751 C3750 1.391 . S
H3752 C3760 0.950 . S
H3753 C3765 0.950 . S
H3754 C3762 0.950 . S
H3755 C3764 0.950 . S
H3756 C3766 0.950 . S
H3757 C3768 0.950 . S
H3758 C3770 0.950 . S
H3759 C3771 0.950 . S
C3760 H3752 0.950 . S
C3760 C3761 1.386 . S
C3760 C3762 1.391 . S
C3761 C3760 1.386 . S
C3761 C3765 1.393 . S
C3762 H3754 0.950 . S
C3762 C3760 1.391 . S
C3762 C3763 1.400 . S
C3763 C3762 1.400 . S
C3763 C3764 1.398 . S
C3763 C3769 1.491 . S
C3764 H3755 0.950 . S
C3764 C3763 1.398 . S
C3764 C3765 1.391 . S
C3765 H3753 0.950 . S
C3765 C3761 1.393 . S
C3765 C3764 1.391 . S
C3766 H3756 0.950 . S
C3766 C3767 1.386 . S
C3766 C3768 1.391 . S
C3767 C3766 1.386 . S
C3767 C3771 1.393 . S
C3768 H3757 0.950 . S
C3768 C3766 1.391 . S
C3768 C3769 1.400 . S
C3769 C3763 1.491 . S
C3769 C3768 1.400 . S
C3769 C3770 1.398 . S
C3770 H3758 0.950 . S
C3770 C3769 1.398 . S
C3770 C3771 1.391 . S
C3771 H3759 0.950 . S
C3771 C3767 1.393 . S
C3771 C3770 1.391 . S
H3772 C3780 0.950 . S
H3773 C3785 0.950 . S
H3774 C3782 0.950 . S
H3775 C3784 0.950 . S
H3776 C3786 0.950 . S
H3777 C3788 0.950 . S
H3778 C3790 0.950 . S
H3779 C3791 0.950 . S
C3780 H3772 0.950 . S
C3780 C3781 1.386 . S
C3780 C3782 1.391 . S
C3781 C3780 1.386 . S
C3781 C3785 1.393 . S
C3782 H3774 0.950 . S
C3782 C3780 1.391 . S
C3782 C3783 1.400 . S
C3783 C3782 1.400 . S
C3783 C3784 1.398 . S
C3783 C3789 1.491 . S
C3784 H3775 0.950 . S
C3784 C3783 1.398 . S
C3784 C3785 1.391 . S
C3785 H3773 0.950 . S
C3785 C3781 1.393 . S
C3785 C3784 1.391 . S
C3786 H3776 0.950 . S
C3786 C3787 1.386 . S
C3786 C3788 1.391 . S
C3787 C3786 1.386 . S
C3787 C3791 1.393 . S
C3788 H3777 0.950 . S
C3788 C3786 1.391 . S
C3788 C3789 1.400 . S
C3789 C3783 1.491 . S
C3789 C3788 1.400 . S
C3789 C3790 1.398 . S
C3790 H3778 0.950 . S
C3790 C3789 1.398 . S
C3790 C3791 1.391 . S
C3791 H3779 0.950 . S
C3791 C3787 1.393 . S
C3791 C3790 1.391 . S
H3792 C3800 0.950 . S
H3793 C3805 0.950 . S
H3794 C3802 0.950 . S
H3795 C3804 0.950 . S
H3796 C3806 0.950 . S
H3797 C3808 0.950 . S
H3798 C3810 0.950 . S
H3799 C3811 0.950 . S
C3800 H3792 0.950 . S
C3800 C3801 1.386 . S
C3800 C3802 1.391 . S
C3801 C3800 1.386 . S
C3801 C3805 1.393 . S
C3802 H3794 0.950 . S
C3802 C3800 1.391 . S
C3802 C3803 1.400 . S
C3803 C3802 1.400 . S
C3803 C3804 1.398 . S
C3803 C3809 1.491 . S
C3804 H3795 0.950 . S
C3804 C3803 1.398 . S
C3804 C3805 1.391 . S
C3805 H3793 0.950 . S
C3805 C3801 1.393 . S
C3805 C3804 1.391 . S
C3806 H3796 0.950 . S
C3806 C3807 1.386 . S
C3806 C3808 1.391 . S
C3807 C3806 1.386 . S
C3807 C3811 1.393 . S
C3808 H3797 0.950 . S
C3808 C3806 1.391 . S
C3808 C3809 1.400 . S
C3809 C3803 1.491 . S
C3809 C3808 1.400 . S
C3809 C3810 1.398 . S
C3810 H3798 0.950 . S
C3810 C3809 1.398 . S
C3810 C3811 1.391 . S
C3811 H3799 0.950 . S
C3811 C3807 1.393 . S
C3811 C3810 1.391 . S
H3812 C3820 0.950 . S
H3813 C3825 0.950 . S
H3814 C3822 0.950 . S
H3815 C3824 0.950 . S
H3816 C3826 0.950 . S
H3817 C3828 0.950 . S
H3818 C3830 0.950 . S
H3819 C3831 0.950 . S
C3820 H3812 0.950 . S
C3820 C3821 1.386 . S
C3820 C3822 1.391 . S
C3821 C3820 1.386 . S
C3821 C3825 1.393 . S
C3822 H3814 0.950 . S
C3822 C3820 1.391 . S
C3822 C3823 1.400 . S
C3823 C3822 1.400 . S
C3823 C3824 1.398 . S
C3823 C3829 1.491 . S
C3824 H3815 0.950 . S
C3824 C3823 1.398 . S
C3824 C3825 1.391 . S
C3825 H3813 0.950 . S
C3825 C3821 1.393 . S
C3825 C3824 1.391 . S
C3826 H3816 0.950 . S
C3826 C3827 1.386 . S
C3826 C3828 1.391 . S
C3827 C3826 1.386 . S
C3827 C3831 1.393 . S
C3828 H3817 0.950 . S
C3828 C3826 1.391 . S
C3828 C3829 1.400 . S
C3829 C3823 1.491 . S
C3829 C3828 1.400 . S
C3829 C3830 1.398 . S
C3830 H3818 0.950 . S
C3830 C3829 1.398 . S
C3830 C3831 1.391 . S
C3831 H3819 0.950 . S
C3831 C3827 1.393 . S
C3831 C3830 1.391 . S
H3832 C3840 0.950 . S
H3833 C3845 0.950 . S
H3834 C3842 0.950 . S
H3835 C3844 0.950 . S
H3836 C3846 0.950 . S
H3837 C3848 0.950 . S
H3838 C3850 0.950 . S
H3839 C3851 0.950 . S
C3840 H3832 0.950 . S
C3840 C3841 1.386 . S
C3840 C3842 1.391 . S
C3841 C3840 1.386 . S
C3841 C3845 1.393 . S
C3842 H3834 0.950 . S
C3842 C3840 1.391 . S
C3842 C3843 1.400 . S
C3843 C3842 1.400 . S
C3843 C3844 1.398 . S
C3843 C3849 1.491 . S
C3844 H3835 0.950 . S
C3844 C3843 1.398 . S
C3844 C3845 1.391 . S
C3845 H3833 0.950 . S
C3845 C3841 1.393 . S
C3845 C3844 1.391 . S
C3846 H3836 0.950 . S
C3846 C3847 1.386 . S
C3846 C3848 1.391 . S
C3847 C3846 1.386 . S
C3847 C3851 1.393 . S
C3848 H3837 0.950 . S
C3848 C3846 1.391 . S
C3848 C3849 1.400 . S
C3849 C3843 1.491 . S
C3849 C3848 1.400 . S
C3849 C3850 1.398 . S
C3850 H3838 0.950 . S
C3850 C3849 1.398 . S
C3850 C3851 1.391 . S
C3851 H3839 0.950 . S
C3851 C3847 1.393 . S
C3851 C3850 1.391 . S
H3852 C3860 0.950 . S
H3853 C3865 0.950 . S
H3854 C3862 0.950 . S
H3855 C3864 0.950 . S
H3856 C3866 0.950 . S
H3857 C3868 0.950 . S
H3858 C3870 0.950 . S
H3859 C3871 0.950 . S
C3860 H3852 0.950 . S
C3860 C3861 1.386 . S
C3860 C3862 1.391 . S
C3861 C3860 1.386 . S
C3861 C3865 1.393 . S
C3862 H3854 0.950 . S
C3862 C3860 1.391 . S
C3862 C3863 1.400 . S
C3863 C3862 1.400 . S
C3863 C3864 1.398 . S
C3863 C3869 1.491 . S
C3864 H3855 0.950 . S
C3864 C3863 1.398 . S
C3864 C3865 1.391 . S
C3865 H3853 0.950 . S
C3865 C3861 1.393 . S
C3865 C3864 1.391 . S
C3866 H3856 0.950 . S
C3866 C3867 1.386 . S
C3866 C3868 1.391 . S
C3867 C3866 1.386 . S
C3867 C3871 1.393 . S
C3868 H3857 0.950 . S
C3868 C3866 1.391 . S
C3868 C3869 1.400 . S
C3869 C3863 1.491 . S
C3869 C3868 1.400 . S
C3869 C3870 1.398 . S
C3870 H3858 0.950 . S
C3870 C3869 1.398 . S
C3870 C3871 1.391 . S
C3871 H3859 0.950 . S
C3871 C3867 1.393 . S
C3871 C3870 1.391 . S
H3872 C3880 0.950 . S
H3873 C3885 0.950 . S
H3874 C3882 0.950 . S
H3875 C3884 0.950 . S
H3876 C3886 0.950 . S
H3877 C3888 0.950 . S
H3878 C3890 0.950 . S
H3879 C3891 0.950 . S
C3880 H3872 0.950 . S
C3880 C3881 1.386 . S
C3880 C3882 1.391 . S
C3881 C3880 1.386 . S
C3881 C3885 1.393 . S
C3882 H3874 0.950 . S
C3882 C3880 1.391 . S
C3882 C3883 1.400 . S
C3883 C3882 1.400 . S
C3883 C3884 1.398 . S
C3883 C3889 1.491 . S
C3884 H3875 0.950 . S
C3884 C3883 1.398 . S
C3884 C3885 1.391 . S
C3885 H3873 0.950 . S
C3885 C3881 1.393 . S
C3885 C3884 1.391 . S
C3886 H3876 0.950 . S
C3886 C3887 1.386 . S
C3886 C3888 1.391 . S
C3887 C3886 1.386 . S
C3887 C3891 1.393 . S
C3888 H3877 0.950 . S
C3888 C3886 1.391 . S
C3888 C3889 1.400 . S
C3889 C3883 1.491 . S
C3889 C3888 1.400 . S
C3889 C3890 1.398 . S
C3890 H3878 0.950 . S
C3890 C3889 1.398 . S
C3890 C3891 1.391 . S
C3891 H3879 0.950 . S
C3891 C3887 1.393 . S
C3891 C3890 1.391 . S
H3892 C3900 0.950 . S
H3893 C3905 0.950 . S
H3894 C3902 0.950 . S
H3895 C3904 0.950 . S
H3896 C3906 0.950 . S
H3897 C3908 0.950 . S
H3898 C3910 0.950 . S
H3899 C3911 0.950 . S
C3900 H3892 0.950 . S
C3900 C3901 1.386 . S
C3900 C3902 1.391 . S
C3901 C3900 1.386 . S
C3901 C3905 1.393 . S
C3902 H3894 0.950 . S
C3902 C3900 1.391 . S
C3902 C3903 1.400 . S
C3903 C3902 1.400 . S
C3903 C3904 1.398 . S
C3903 C3909 1.491 . S
C3904 H3895 0.950 . S
C3904 C3903 1.398 . S
C3904 C3905 1.391 . S
C3905 H3893 0.950 . S
C3905 C3901 1.393 . S
C3905 C3904 1.391 . S
C3906 H3896 0.950 . S
C3906 C3907 1.386 . S
C3906 C3908 1.391 . S
C3907 C3906 1.386 . S
C3907 C3911 1.393 . S
C3908 H3897 0.950 . S
C3908 C3906 1.391 . S
C3908 C3909 1.400 . S
C3909 C3903 1.491 . S
C3909 C3908 1.400 . S
C3909 C3910 1.398 . S
C3910 H3898 0.950 . S
C3910 C3909 1.398 . S
C3910 C3911 1.391 . S
C3911 H3899 0.950 . S
C3911 C3907 1.393 . S
C3911 C3910 1.391 . S
H3912 C3920 0.950 . S
H3913 C3925 0.950 . S
H3914 C3922 0.950 . S
H3915 C3924 0.950 . S
H3916 C3926 0.950 . S
H3917 C3928 0.950 . S
H3918 C3930 0.950 . S
H3919 C3931 0.950 . S
C3920 H3912 0.950 . S
C3920 C3921 1.386 . S
C3920 C3922 1.391 . S
C3921 C3920 1.386 . S
C3921 C3925 1.393 . S
C3922 H3914 0.950 . S
C3922 C3920 1.391 . S
C3922 C3923 1.400 . S
C3923 C3922 1.400 . S
C3923 C3924 1.398 . S
C3923 C3929 1.491 . S
C3924 H3915 0.950 . S
C3924 C3923 1.398 . S
C3924 C3925 1.391 . S
C3925 H3913 0.950 . S
C3925 C3921 1.393 . S
C3925 C3924 1.391 . S
C3926 H3916 0.950 . S
C3926 C3927 1.386 . S
C3926 C3928 1.391 . S
C3927 C3926 1.386 . S
C3927 C3931 1.393 . S
C3928 H3917 0.950 . S
C3928 C3926 1.391 . S
C3928 C3929 1.400 . S
C3929 C3923 1.491 . S
C3929 C3928 1.400 . S
C3929 C3930 1.398 . S
C3930 H3918 0.950 . S
C3930 C3929 1.398 . S
C3930 C3931 1.391 . S
C3931 H3919 0.950 . S
C3931 C3927 1.393 . S
C3931 C3930 1.391 . S
H3932 C3940 0.950 . S
H3933 C3945 0.950 . S
H3934 C3942 0.950 . S
H3935 C3944 0.950 . S
H3936 C3946 0.950 . S
H3937 C3948 0.950 . S
H3938 C3950 0.950 . S
H3939 C3951 0.950 . S
C3940 H3932 0.950 . S
C3940 C3941 1.386 . S
C3940 C3942 1.391 . S
C3941 C3940 1.386 . S
C3941 C3945 1.393 . S
C3942 H3934 0.950 . S
C3942 C3940 1.391 . S
C3942 C3943 1.400 . S
C3943 C3942 1.400 . S
C3943 C3944 1.398 . S
C3943 C3949 1.491 . S
C3944 H3935 0.950 . S
C3944 C3943 1.398 . S
C3944 C3945 1.391 . S
C3945 H3933 0.950 . S
C3945 C3941 1.393 . S
C3945 C3944 1.391 . S
C3946 H3936 0.950 . S
C3946 C3947 1.386 . S
C3946 C3948 1.391 . S
C3947 C3946 1.386 . S
C3947 C3951 1.393 . S
C3948 H3937 0.950 . S
C3948 C3946 1.391 . S
C3948 C3949 1.400 . S
C3949 C3943 1.491 . S
C3949 C3948 1.400 . S
C3949 C3950 1.398 . S
C3950 H3938 0.950 . S
C3950 C3949 1.398 . S
C3950 C3951 1.391 . S
C3951 H3939 0.950 . S
C3951 C3947 1.393 . S
C3951 C3950 1.391 . S
H3952 C3960 0.950 . S
H3953 C3965 0.950 . S
H3954 C3962 0.950 . S
H3955 C3964 0.950 . S
H3956 C3966 0.950 . S
H3957 C3968 0.950 . S
H3958 C3970 0.950 . S
H3959 C3971 0.950 . S
C3960 H3952 0.950 . S
C3960 C3961 1.386 . S
C3960 C3962 1.391 . S
C3961 C3960 1.386 . S
C3961 C3965 1.393 . S
C3962 H3954 0.950 . S
C3962 C3960 1.391 . S
C3962 C3963 1.400 . S
C3963 C3962 1.400 . S
C3963 C3964 1.398 . S
C3963 C3969 1.491 . S
C3964 H3955 0.950 . S
C3964 C3963 1.398 . S
C3964 C3965 1.391 . S
C3965 H3953 0.950 . S
C3965 C3961 1.393 . S
C3965 C3964 1.391 . S
C3966 H3956 0.950 . S
C3966 C3967 1.386 . S
C3966 C3968 1.391 . S
C3967 C3966 1.386 . S
C3967 C3971 1.393 . S
C3968 H3957 0.950 . S
C3968 C3966 1.391 . S
C3968 C3969 1.400 . S
C3969 C3963 1.491 . S
C3969 C3968 1.400 . S
C3969 C3970 1.398 . S
C3970 H3958 0.950 . S
C3970 C3969 1.398 . S
C3970 C3971 1.391 . S
C3971 H3959 0.950 . S
C3971 C3967 1.393 . S
C3971 C3970 1.391 . S
H3972 C3980 0.950 . S
H3973 C3985 0.950 . S
H3974 C3982 0.950 . S
H3975 C3984 0.950 . S
H3976 C3986 0.950 . S
H3977 C3988 0.950 . S
H3978 C3990 0.950 . S
H3979 C3991 0.950 . S
C3980 H3972 0.950 . S
C3980 C3981 1.386 . S
C3980 C3982 1.391 . S
C3981 C3980 1.386 . S
C3981 C3985 1.393 . S
C3982 H3974 0.950 . S
C3982 C3980 1.391 . S
C3982 C3983 1.400 . S
C3983 C3982 1.400 . S
C3983 C3984 1.398 . S
C3983 C3989 1.491 . S
C3984 H3975 0.950 . S
C3984 C3983 1.398 . S
C3984 C3985 1.391 . S
C3985 H3973 0.950 . S
C3985 C3981 1.393 . S
C3985 C3984 1.391 . S
C3986 H3976 0.950 . S
C3986 C3987 1.386 . S
C3986 C3988 1.391 . S
C3987 C3986 1.386 . S
C3987 C3991 1.393 . S
C3988 H3977 0.950 . S
C3988 C3986 1.391 . S
C3988 C3989 1.400 . S
C3989 C3983 1.491 . S
C3989 C3988 1.400 . S
C3989 C3990 1.398 . S
C3990 H3978 0.950 . S
C3990 C3989 1.398 . S
C3990 C3991 1.391 . S
C3991 H3979 0.950 . S
C3991 C3987 1.393 . S
C3991 C3990 1.391 . S
H3992 C4000 0.950 . S
H3993 C4005 0.950 . S
H3994 C4002 0.950 . S
H3995 C4004 0.950 . S
H3996 C4006 0.950 . S
H3997 C4008 0.950 . S
H3998 C4010 0.950 . S
H3999 C4011 0.950 . S
C4000 H3992 0.950 . S
C4000 C4001 1.386 . S
C4000 C4002 1.391 . S
C4001 C4000 1.386 . S
C4001 C4005 1.393 . S
C4002 H3994 0.950 . S
C4002 C4000 1.391 . S
C4002 C4003 1.400 . S
C4003 C4002 1.400 . S
C4003 C4004 1.398 . S
C4003 C4009 1.491 . S
C4004 H3995 0.950 . S
C4004 C4003 1.398 . S
C4004 C4005 1.391 . S
C4005 H3993 0.950 . S
C4005 C4001 1.393 . S
C4005 C4004 1.391 . S
C4006 H3996 0.950 . S
C4006 C4007 1.386 . S
C4006 C4008 1.391 . S
C4007 C4006 1.386 . S
C4007 C4011 1.393 . S
C4008 H3997 0.950 . S
C4008 C4006 1.391 . S
C4008 C4009 1.400 . S
C4009 C4003 1.491 . S
C4009 C4008 1.400 . S
C4009 C4010 1.398 . S
C4010 H3998 0.950 . S
C4010 C4009 1.398 . S
C4010 C4011 1.391 . S
C4011 H3999 0.950 . S
C4011 C4007 1.393 . S
C4011 C4010 1.391 . S
H4012 C4020 0.950 . S
H4013 C4025 0.950 . S
H4014 C4022 0.950 . S
H4015 C4024 0.950 . S
H4016 C4026 0.950 . S
H4017 C4028 0.950 . S
H4018 C4030 0.950 . S
H4019 C4031 0.950 . S
C4020 H4012 0.950 . S
C4020 C4021 1.386 . S
C4020 C4022 1.391 . S
C4021 C4020 1.386 . S
C4021 C4025 1.393 . S
C4022 H4014 0.950 . S
C4022 C4020 1.391 . S
C4022 C4023 1.400 . S
C4023 C4022 1.400 . S
C4023 C4024 1.398 . S
C4023 C4029 1.491 . S
C4024 H4015 0.950 . S
C4024 C4023 1.398 . S
C4024 C4025 1.391 . S
C4025 H4013 0.950 . S
C4025 C4021 1.393 . S
C4025 C4024 1.391 . S
C4026 H4016 0.950 . S
C4026 C4027 1.386 . S
C4026 C4028 1.391 . S
C4027 C4026 1.386 . S
C4027 C4031 1.393 . S
C4028 H4017 0.950 . S
C4028 C4026 1.391 . S
C4028 C4029 1.400 . S
C4029 C4023 1.491 . S
C4029 C4028 1.400 . S
C4029 C4030 1.398 . S
C4030 H4018 0.950 . S
C4030 C4029 1.398 . S
C4030 C4031 1.391 . S
C4031 H4019 0.950 . S
C4031 C4027 1.393 . S
C4031 C4030 1.391 . S
H4032 C4040 0.950 . S
H4033 C4045 0.950 . S
H4034 C4042 0.950 . S
H4035 C4044 0.950 . S
H4036 C4046 0.950 . S
H4037 C4048 0.950 . S
H4038 C4050 0.950 . S
H4039 C4051 0.950 . S
C4040 H4032 0.950 . S
C4040 C4041 1.386 . S
C4040 C4042 1.391 . S
C4041 C4040 1.386 . S
C4041 C4045 1.393 . S
C4042 H4034 0.950 . S
C4042 C4040 1.391 . S
C4042 C4043 1.400 . S
C4043 C4042 1.400 . S
C4043 C4044 1.398 . S
C4043 C4049 1.491 . S
C4044 H4035 0.950 . S
C4044 C4043 1.398 . S
C4044 C4045 1.391 . S
C4045 H4033 0.950 . S
C4045 C4041 1.393 . S
C4045 C4044 1.391 . S
C4046 H4036 0.950 . S
C4046 C4047 1.386 . S
C4046 C4048 1.391 . S
C4047 C4046 1.386 . S
C4047 C4051 1.393 . S
C4048 H4037 0.950 . S
C4048 C4046 1.391 . S
C4048 C4049 1.400 . S
C4049 C4043 1.491 . S
C4049 C4048 1.400 . S
C4049 C4050 1.398 . S
C4050 H4038 0.950 . S
C4050 C4049 1.398 . S
C4050 C4051 1.391 . S
C4051 H4039 0.950 . S
C4051 C4047 1.393 . S
C4051 C4050 1.391 . S
H4052 C4060 0.950 . S
H4053 C4065 0.950 . S
H4054 C4062 0.950 . S
H4055 C4064 0.950 . S
H4056 C4066 0.950 . S
H4057 C4068 0.950 . S
H4058 C4070 0.950 . S
H4059 C4071 0.950 . S
C4060 H4052 0.950 . S
C4060 C4061 1.386 . S
C4060 C4062 1.391 . S
C4061 C4060 1.386 . S
C4061 C4065 1.393 . S
C4062 H4054 0.950 . S
C4062 C4060 1.391 . S
C4062 C4063 1.400 . S
C4063 C4062 1.400 . S
C4063 C4064 1.398 . S
C4063 C4069 1.491 . S
C4064 H4055 0.950 . S
C4064 C4063 1.398 . S
C4064 C4065 1.391 . S
C4065 H4053 0.950 . S
C4065 C4061 1.393 . S
C4065 C4064 1.391 . S
C4066 H4056 0.950 . S
C4066 C4067 1.386 . S
C4066 C4068 1.391 . S
C4067 C4066 1.386 . S
C4067 C4071 1.393 . S
C4068 H4057 0.950 . S
C4068 C4066 1.391 . S
C4068 C4069 1.400 . S
C4069 C4063 1.491 . S
C4069 C4068 1.400 . S
C4069 C4070 1.398 . S
C4070 H4058 0.950 . S
C4070 C4069 1.398 . S
C4070 C4071 1.391 . S
C4071 H4059 0.950 . S
C4071 C4067 1.393 . S
C4071 C4070 1.391 . S
H4072 C4080 0.950 . S
H4073 C4085 0.950 . S
H4074 C4082 0.950 . S
H4075 C4084 0.950 . S
H4076 C4086 0.950 . S
H4077 C4088 0.950 . S
H4078 C4090 0.950 . S
H4079 C4091 0.950 . S
C4080 H4072 0.950 . S
C4080 C4081 1.386 . S
C4080 C4082 1.391 . S
C4081 C4080 1.386 . S
C4081 C4085 1.393 . S
C4082 H4074 0.950 . S
C4082 C4080 1.391 . S
C4082 C4083 1.400 . S
C4083 C4082 1.400 . S
C4083 C4084 1.398 . S
C4083 C4089 1.491 . S
C4084 H4075 0.950 . S
C4084 C4083 1.398 . S
C4084 C4085 1.391 . S
C4085 H4073 0.950 . S
C4085 C4081 1.393 . S
C4085 C4084 1.391 . S
C4086 H4076 0.950 . S
C4086 C4087 1.386 . S
C4086 C4088 1.391 . S
C4087 C4086 1.386 . S
C4087 C4091 1.393 . S
C4088 H4077 0.950 . S
C4088 C4086 1.391 . S
C4088 C4089 1.400 . S
C4089 C4083 1.491 . S
C4089 C4088 1.400 . S
C4089 C4090 1.398 . S
C4090 H4078 0.950 . S
C4090 C4089 1.398 . S
C4090 C4091 1.391 . S
C4091 H4079 0.950 . S
C4091 C4087 1.393 . S
C4091 C4090 1.391 . S
H4092 C4100 0.950 . S
H4093 C4105 0.950 . S
H4094 C4102 0.950 . S
H4095 C4104 0.950 . S
H4096 C4106 0.950 . S
H4097 C4108 0.950 . S
H4098 C4110 0.950 . S
H4099 C4111 0.950 . S
C4100 H4092 0.950 . S
C4100 C4101 1.386 . S
C4100 C4102 1.391 . S
C4101 C4100 1.386 . S
C4101 C4105 1.393 . S
C4102 H4094 0.950 . S
C4102 C4100 1.391 . S
C4102 C4103 1.400 . S
C4103 C4102 1.400 . S
C4103 C4104 1.398 . S
C4103 C4109 1.491 . S
C4104 H4095 0.950 . S
C4104 C4103 1.398 . S
C4104 C4105 1.391 . S
C4105 H4093 0.950 . S
C4105 C4101 1.393 . S
C4105 C4104 1.391 . S
C4106 H4096 0.950 . S
C4106 C4107 1.386 . S
C4106 C4108 1.391 . S
C4107 C4106 1.386 . S
C4107 C4111 1.393 . S
C4108 H4097 0.950 . S
C4108 C4106 1.391 . S
C4108 C4109 1.400 . S
C4109 C4103 1.491 . S
C4109 C4108 1.400 . S
C4109 C4110 1.398 . S
C4110 H4098 0.950 . S
C4110 C4109 1.398 . S
C4110 C4111 1.391 . S
C4111 H4099 0.950 . S
C4111 C4107 1.393 . S
C4111 C4110 1.391 . S
H4112 C4120 0.950 . S
H4113 C4125 0.950 . S
H4114 C4122 0.950 . S
H4115 C4124 0.950 . S
H4116 C4126 0.950 . S
H4117 C4128 0.950 . S
H4118 C4130 0.950 . S
H4119 C4131 0.950 . S
C4120 H4112 0.950 . S
C4120 C4121 1.386 . S
C4120 C4122 1.391 . S
C4121 C4120 1.386 . S
C4121 C4125 1.393 . S
C4122 H4114 0.950 . S
C4122 C4120 1.391 . S
C4122 C4123 1.400 . S
C4123 C4122 1.400 . S
C4123 C4124 1.398 . S
C4123 C4129 1.491 . S
C4124 H4115 0.950 . S
C4124 C4123 1.398 . S
C4124 C4125 1.391 . S
C4125 H4113 0.950 . S
C4125 C4121 1.393 . S
C4125 C4124 1.391 . S
C4126 H4116 0.950 . S
C4126 C4127 1.386 . S
C4126 C4128 1.391 . S
C4127 C4126 1.386 . S
C4127 C4131 1.393 . S
C4128 H4117 0.950 . S
C4128 C4126 1.391 . S
C4128 C4129 1.400 . S
C4129 C4123 1.491 . S
C4129 C4128 1.400 . S
C4129 C4130 1.398 . S
C4130 H4118 0.950 . S
C4130 C4129 1.398 . S
C4130 C4131 1.391 . S
C4131 H4119 0.950 . S
C4131 C4127 1.393 . S
C4131 C4130 1.391 . S
H4132 C4140 0.950 . S
H4133 C4145 0.950 . S
H4134 C4142 0.950 . S
H4135 C4144 0.950 . S
H4136 C4146 0.950 . S
H4137 C4148 0.950 . S
H4138 C4150 0.950 . S
H4139 C4151 0.950 . S
C4140 H4132 0.950 . S
C4140 C4141 1.386 . S
C4140 C4142 1.391 . S
C4141 C4140 1.386 . S
C4141 C4145 1.393 . S
C4142 H4134 0.950 . S
C4142 C4140 1.391 . S
C4142 C4143 1.400 . S
C4143 C4142 1.400 . S
C4143 C4144 1.398 . S
C4143 C4149 1.491 . S
C4144 H4135 0.950 . S
C4144 C4143 1.398 . S
C4144 C4145 1.391 . S
C4145 H4133 0.950 . S
C4145 C4141 1.393 . S
C4145 C4144 1.391 . S
C4146 H4136 0.950 . S
C4146 C4147 1.386 . S
C4146 C4148 1.391 . S
C4147 C4146 1.386 . S
C4147 C4151 1.393 . S
C4148 H4137 0.950 . S
C4148 C4146 1.391 . S
C4148 C4149 1.400 . S
C4149 C4143 1.491 . S
C4149 C4148 1.400 . S
C4149 C4150 1.398 . S
C4150 H4138 0.950 . S
C4150 C4149 1.398 . S
C4150 C4151 1.391 . S
C4151 H4139 0.950 . S
C4151 C4147 1.393 . S
C4151 C4150 1.391 . S
H4152 C4160 0.950 . S
H4153 C4165 0.950 . S
H4154 C4162 0.950 . S
H4155 C4164 0.950 . S
H4156 C4166 0.950 . S
H4157 C4168 0.950 . S
H4158 C4170 0.950 . S
H4159 C4171 0.950 . S
C4160 H4152 0.950 . S
C4160 C4161 1.386 . S
C4160 C4162 1.391 . S
C4161 C4160 1.386 . S
C4161 C4165 1.393 . S
C4162 H4154 0.950 . S
C4162 C4160 1.391 . S
C4162 C4163 1.400 . S
C4163 C4162 1.400 . S
C4163 C4164 1.398 . S
C4163 C4169 1.491 . S
C4164 H4155 0.950 . S
C4164 C4163 1.398 . S
C4164 C4165 1.391 . S
C4165 H4153 0.950 . S
C4165 C4161 1.393 . S
C4165 C4164 1.391 . S
C4166 H4156 0.950 . S
C4166 C4167 1.386 . S
C4166 C4168 1.391 . S
C4167 C4166 1.386 . S
C4167 C4171 1.393 . S
C4168 H4157 0.950 . S
C4168 C4166 1.391 . S
C4168 C4169 1.400 . S
C4169 C4163 1.491 . S
C4169 C4168 1.400 . S
C4169 C4170 1.398 . S
C4170 H4158 0.950 . S
C4170 C4169 1.398 . S
C4170 C4171 1.391 . S
C4171 H4159 0.950 . S
C4171 C4167 1.393 . S
C4171 C4170 1.391 . S
H4172 C4180 0.950 . S
H4173 C4185 0.950 . S
H4174 C4182 0.950 . S
H4175 C4184 0.950 . S
H4176 C4186 0.950 . S
H4177 C4188 0.950 . S
H4178 C4190 0.950 . S
H4179 C4191 0.950 . S
C4180 H4172 0.950 . S
C4180 C4181 1.386 . S
C4180 C4182 1.391 . S
C4181 C4180 1.386 . S
C4181 C4185 1.393 . S
C4182 H4174 0.950 . S
C4182 C4180 1.391 . S
C4182 C4183 1.400 . S
C4183 C4182 1.400 . S
C4183 C4184 1.398 . S
C4183 C4189 1.491 . S
C4184 H4175 0.950 . S
C4184 C4183 1.398 . S
C4184 C4185 1.391 . S
C4185 H4173 0.950 . S
C4185 C4181 1.393 . S
C4185 C4184 1.391 . S
C4186 H4176 0.950 . S
C4186 C4187 1.386 . S
C4186 C4188 1.391 . S
C4187 C4186 1.386 . S
C4187 C4191 1.393 . S
C4188 H4177 0.950 . S
C4188 C4186 1.391 . S
C4188 C4189 1.400 . S
C4189 C4183 1.491 . S
C4189 C4188 1.400 . S
C4189 C4190 1.398 . S
C4190 H4178 0.950 . S
C4190 C4189 1.398 . S
C4190 C4191 1.391 . S
C4191 H4179 0.950 . S
C4191 C4187 1.393 . S
C4191 C4190 1.391 . S
H4192 C4200 0.950 . S
H4193 C4205 0.950 . S
H4194 C4202 0.950 . S
H4195 C4204 0.950 . S
H4196 C4206 0.950 . S
H4197 C4208 0.950 . S
H4198 C4210 0.950 . S
H4199 C4211 0.950 . S
C4200 H4192 0.950 . S
C4200 C4201 1.386 . S
C4200 C4202 1.391 . S
C4201 C4200 1.386 . S
C4201 C4205 1.393 . S
C4202 H4194 0.950 . S
C4202 C4200 1.391 . S
C4202 C4203 1.400 . S
C4203 C4202 1.400 . S
C4203 C4204 1.398 . S
C4203 C4209 1.491 . S
C4204 H4195 0.950 . S
C4204 C4203 1.398 . S
C4204 C4205 1.391 . S
C4205 H4193 0.950 . S
C4205 C4201 1.393 . S
C4205 C4204 1.391 . S
C4206 H4196 0.950 . S
C4206 C4207 1.386 . S
C4206 C4208 1.391 . S
C4207 C4206 1.386 . S
C4207 C4211 1.393 . S
C4208 H4197 0.950 . S
C4208 C4206 1.391 . S
C4208 C4209 1.400 . S
C4209 C4203 1.491 . S
C4209 C4208 1.400 . S
C4209 C4210 1.398 . S
C4210 H4198 0.950 . S
C4210 C4209 1.398 . S
C4210 C4211 1.391 . S
C4211 H4199 0.950 . S
C4211 C4207 1.393 . S
C4211 C4210 1.391 . S
H4212 C4220 0.950 . S
H4213 C4225 0.950 . S
H4214 C4222 0.950 . S
H4215 C4224 0.950 . S
H4216 C4226 0.950 . S
H4217 C4228 0.950 . S
H4218 C4230 0.950 . S
H4219 C4231 0.950 . S
C4220 H4212 0.950 . S
C4220 C4221 1.386 . S
C4220 C4222 1.391 . S
C4221 C4220 1.386 . S
C4221 C4225 1.393 . S
C4222 H4214 0.950 . S
C4222 C4220 1.391 . S
C4222 C4223 1.400 . S
C4223 C4222 1.400 . S
C4223 C4224 1.398 . S
C4223 C4229 1.491 . S
C4224 H4215 0.950 . S
C4224 C4223 1.398 . S
C4224 C4225 1.391 . S
C4225 H4213 0.950 . S
C4225 C4221 1.393 . S
C4225 C4224 1.391 . S
C4226 H4216 0.950 . S
C4226 C4227 1.386 . S
C4226 C4228 1.391 . S
C4227 C4226 1.386 . S
C4227 C4231 1.393 . S
C4228 H4217 0.950 . S
C4228 C4226 1.391 . S
C4228 C4229 1.400 . S
C4229 C4223 1.491 . S
C4229 C4228 1.400 . S
C4229 C4230 1.398 . S
C4230 H4218 0.950 . S
C4230 C4229 1.398 . S
C4230 C4231 1.391 . S
C4231 H4219 0.950 . S
C4231 C4227 1.393 . S
C4231 C4230 1.391 . S
H4232 C4240 0.950 . S
H4233 C4245 0.950 . S
H4234 C4242 0.950 . S
H4235 C4244 0.950 . S
H4236 C4246 0.950 . S
H4237 C4248 0.950 . S
H4238 C4250 0.950 . S
H4239 C4251 0.950 . S
C4240 H4232 0.950 . S
C4240 C4241 1.386 . S
C4240 C4242 1.391 . S
C4241 C4240 1.386 . S
C4241 C4245 1.393 . S
C4242 H4234 0.950 . S
C4242 C4240 1.391 . S
C4242 C4243 1.400 . S
C4243 C4242 1.400 . S
C4243 C4244 1.398 . S
C4243 C4249 1.491 . S
C4244 H4235 0.950 . S
C4244 C4243 1.398 . S
C4244 C4245 1.391 . S
C4245 H4233 0.950 . S
C4245 C4241 1.393 . S
C4245 C4244 1.391 . S
C4246 H4236 0.950 . S
C4246 C4247 1.386 . S
C4246 C4248 1.391 . S
C4247 C4246 1.386 . S
C4247 C4251 1.393 . S
C4248 H4237 0.950 . S
C4248 C4246 1.391 . S
C4248 C4249 1.400 . S
C4249 C4243 1.491 . S
C4249 C4248 1.400 . S
C4249 C4250 1.398 . S
C4250 H4238 0.950 . S
C4250 C4249 1.398 . S
C4250 C4251 1.391 . S
C4251 H4239 0.950 . S
C4251 C4247 1.393 . S
C4251 C4250 1.391 . S
H4252 C4260 0.950 . S
H4253 C4265 0.950 . S
H4254 C4262 0.950 . S
H4255 C4264 0.950 . S
H4256 C4266 0.950 . S
H4257 C4268 0.950 . S
H4258 C4270 0.950 . S
H4259 C4271 0.950 . S
C4260 H4252 0.950 . S
C4260 C4261 1.386 . S
C4260 C4262 1.391 . S
C4261 C4260 1.386 . S
C4261 C4265 1.393 . S
C4262 H4254 0.950 . S
C4262 C4260 1.391 . S
C4262 C4263 1.400 . S
C4263 C4262 1.400 . S
C4263 C4264 1.398 . S
C4263 C4269 1.491 . S
C4264 H4255 0.950 . S
C4264 C4263 1.398 . S
C4264 C4265 1.391 . S
C4265 H4253 0.950 . S
C4265 C4261 1.393 . S
C4265 C4264 1.391 . S
C4266 H4256 0.950 . S
C4266 C4267 1.386 . S
C4266 C4268 1.391 . S
C4267 C4266 1.386 . S
C4267 C4271 1.393 . S
C4268 H4257 0.950 . S
C4268 C4266 1.391 . S
C4268 C4269 1.400 . S
C4269 C4263 1.491 . S
C4269 C4268 1.400 . S
C4269 C4270 1.398 . S
C4270 H4258 0.950 . S
C4270 C4269 1.398 . S
C4270 C4271 1.391 . S
C4271 H4259 0.950 . S
C4271 C4267 1.393 . S
C4271 C4270 1.391 . S
H4272 C4280 0.950 . S
H4273 C4285 0.950 . S
H4274 C4282 0.950 . S
H4275 C4284 0.950 . S
H4276 C4286 0.950 . S
H4277 C4288 0.950 . S
H4278 C4290 0.950 . S
H4279 C4291 0.950 . S
C4280 H4272 0.950 . S
C4280 C4281 1.386 . S
C4280 C4282 1.391 . S
C4281 C4280 1.386 . S
C4281 C4285 1.393 . S
C4282 H4274 0.950 . S
C4282 C4280 1.391 . S
C4282 C4283 1.400 . S
C4283 C4282 1.400 . S
C4283 C4284 1.398 . S
C4283 C4289 1.491 . S
C4284 H4275 0.950 . S
C4284 C4283 1.398 . S
C4284 C4285 1.391 . S
C4285 H4273 0.950 . S
C4285 C4281 1.393 . S
C4285 C4284 1.391 . S
C4286 H4276 0.950 . S
C4286 C4287 1.386 . S
C4286 C4288 1.391 . S
C4287 C4286 1.386 . S
C4287 C4291 1.393 . S
C4288 H4277 0.950 . S
C4288 C4286 1.391 . S
C4288 C4289 1.400 . S
C4289 C4283 1.491 . S
C4289 C4288 1.400 . S
C4289 C4290 1.398 . S
C4290 H4278 0.950 . S
C4290 C4289 1.398 . S
C4290 C4291 1.391 . S
C4291 H4279 0.950 . S
C4291 C4287 1.393 . S
C4291 C4290 1.391 . S
H4292 C4300 0.950 . S
H4293 C4305 0.950 . S
H4294 C4302 0.950 . S
H4295 C4304 0.950 . S
H4296 C4306 0.950 . S
H4297 C4308 0.950 . S
H4298 C4310 0.950 . S
H4299 C4311 0.950 . S
C4300 H4292 0.950 . S
C4300 C4301 1.386 . S
C4300 C4302 1.391 . S
C4301 C4300 1.386 . S
C4301 C4305 1.393 . S
C4302 H4294 0.950 . S
C4302 C4300 1.391 . S
C4302 C4303 1.400 . S
C4303 C4302 1.400 . S
C4303 C4304 1.398 . S
C4303 C4309 1.491 . S
C4304 H4295 0.950 . S
C4304 C4303 1.398 . S
C4304 C4305 1.391 . S
C4305 H4293 0.950 . S
C4305 C4301 1.393 . S
C4305 C4304 1.391 . S
C4306 H4296 0.950 . S
C4306 C4307 1.386 . S
C4306 C4308 1.391 . S
C4307 C4306 1.386 . S
C4307 C4311 1.393 . S
C4308 H4297 0.950 . S
C4308 C4306 1.391 . S
C4308 C4309 1.400 . S
C4309 C4303 1.491 . S
C4309 C4308 1.400 . S
C4309 C4310 1.398 . S
C4310 H4298 0.950 . S
C4310 C4309 1.398 . S
C4310 C4311 1.391 . S
C4311 H4299 0.950 . S
C4311 C4307 1.393 . S
C4311 C4310 1.391 . S
H4312 C4320 0.950 . S
H4313 C4325 0.950 . S
H4314 C4322 0.950 . S
H4315 C4324 0.950 . S
H4316 C4326 0.950 . S
H4317 C4328 0.950 . S
H4318 C4330 0.950 . S
H4319 C4331 0.950 . S
C4320 H4312 0.950 . S
C4320 C4321 1.386 . S
C4320 C4322 1.391 . S
C4321 C4320 1.386 . S
C4321 C4325 1.393 . S
C4322 H4314 0.950 . S
C4322 C4320 1.391 . S
C4322 C4323 1.400 . S
C4323 C4322 1.400 . S
C4323 C4324 1.398 . S
C4323 C4329 1.491 . S
C4324 H4315 0.950 . S
C4324 C4323 1.398 . S
C4324 C4325 1.391 . S
C4325 H4313 0.950 . S
C4325 C4321 1.393 . S
C4325 C4324 1.391 . S
C4326 H4316 0.950 . S
C4326 C4327 1.386 . S
C4326 C4328 1.391 . S
C4327 C4326 1.386 . S
C4327 C4331 1.393 . S
C4328 H4317 0.950 . S
C4328 C4326 1.391 . S
C4328 C4329 1.400 . S
C4329 C4323 1.491 . S
C4329 C4328 1.400 . S
C4329 C4330 1.398 . S
C4330 H4318 0.950 . S
C4330 C4329 1.398 . S
C4330 C4331 1.391 . S
C4331 H4319 0.950 . S
C4331 C4327 1.393 . S
C4331 C4330 1.391 . S
H4332 C4340 0.950 . S
H4333 C4345 0.950 . S
H4334 C4342 0.950 . S
H4335 C4344 0.950 . S
H4336 C4346 0.950 . S
H4337 C4348 0.950 . S
H4338 C4350 0.950 . S
H4339 C4351 0.950 . S
C4340 H4332 0.950 . S
C4340 C4341 1.386 . S
C4340 C4342 1.391 . S
C4341 C4340 1.386 . S
C4341 C4345 1.393 . S
C4342 H4334 0.950 . S
C4342 C4340 1.391 . S
C4342 C4343 1.400 . S
C4343 C4342 1.400 . S
C4343 C4344 1.398 . S
C4343 C4349 1.491 . S
C4344 H4335 0.950 . S
C4344 C4343 1.398 . S
C4344 C4345 1.391 . S
C4345 H4333 0.950 . S
C4345 C4341 1.393 . S
C4345 C4344 1.391 . S
C4346 H4336 0.950 . S
C4346 C4347 1.386 . S
C4346 C4348 1.391 . S
C4347 C4346 1.386 . S
C4347 C4351 1.393 . S
C4348 H4337 0.950 . S
C4348 C4346 1.391 . S
C4348 C4349 1.400 . S
C4349 C4343 1.491 . S
C4349 C4348 1.400 . S
C4349 C4350 1.398 . S
C4350 H4338 0.950 . S
C4350 C4349 1.398 . S
C4350 C4351 1.391 . S
C4351 H4339 0.950 . S
C4351 C4347 1.393 . S
C4351 C4350 1.391 . S
H4352 C4360 0.950 . S
H4353 C4365 0.950 . S
H4354 C4362 0.950 . S
H4355 C4364 0.950 . S
H4356 C4366 0.950 . S
H4357 C4368 0.950 . S
H4358 C4370 0.950 . S
H4359 C4371 0.950 . S
C4360 H4352 0.950 . S
C4360 C4361 1.386 . S
C4360 C4362 1.391 . S
C4361 C4360 1.386 . S
C4361 C4365 1.393 . S
C4362 H4354 0.950 . S
C4362 C4360 1.391 . S
C4362 C4363 1.400 . S
C4363 C4362 1.400 . S
C4363 C4364 1.398 . S
C4363 C4369 1.491 . S
C4364 H4355 0.950 . S
C4364 C4363 1.398 . S
C4364 C4365 1.391 . S
C4365 H4353 0.950 . S
C4365 C4361 1.393 . S
C4365 C4364 1.391 . S
C4366 H4356 0.950 . S
C4366 C4367 1.386 . S
C4366 C4368 1.391 . S
C4367 C4366 1.386 . S
C4367 C4371 1.393 . S
C4368 H4357 0.950 . S
C4368 C4366 1.391 . S
C4368 C4369 1.400 . S
C4369 C4363 1.491 . S
C4369 C4368 1.400 . S
C4369 C4370 1.398 . S
C4370 H4358 0.950 . S
C4370 C4369 1.398 . S
C4370 C4371 1.391 . S
C4371 H4359 0.950 . S
C4371 C4367 1.393 . S
C4371 C4370 1.391 . S
H4372 C4380 0.950 . S
H4373 C4385 0.950 . S
H4374 C4382 0.950 . S
H4375 C4384 0.950 . S
H4376 C4386 0.950 . S
H4377 C4388 0.950 . S
H4378 C4390 0.950 . S
H4379 C4391 0.950 . S
C4380 H4372 0.950 . S
C4380 C4381 1.386 . S
C4380 C4382 1.391 . S
C4381 C4380 1.386 . S
C4381 C4385 1.393 . S
C4382 H4374 0.950 . S
C4382 C4380 1.391 . S
C4382 C4383 1.400 . S
C4383 C4382 1.400 . S
C4383 C4384 1.398 . S
C4383 C4389 1.491 . S
C4384 H4375 0.950 . S
C4384 C4383 1.398 . S
C4384 C4385 1.391 . S
C4385 H4373 0.950 . S
C4385 C4381 1.393 . S
C4385 C4384 1.391 . S
C4386 H4376 0.950 . S
C4386 C4387 1.386 . S
C4386 C4388 1.391 . S
C4387 C4386 1.386 . S
C4387 C4391 1.393 . S
C4388 H4377 0.950 . S
C4388 C4386 1.391 . S
C4388 C4389 1.400 . S
C4389 C4383 1.491 . S
C4389 C4388 1.400 . S
C4389 C4390 1.398 . S
C4390 H4378 0.950 . S
C4390 C4389 1.398 . S
C4390 C4391 1.391 . S
C4391 H4379 0.950 . S
C4391 C4387 1.393 . S
C4391 C4390 1.391 . S
C2487 N1932 1.441 . S
C2481 C1 1.449 . S
C2507 C1959 1.588 . S
C2501 C80 1.578 . S
C2521 C140 1.497 . S
C2527 C1973 1.503 . S
C2547 N1991 1.445 . S
C2541 C211 1.474 . S
C2561 C241 1.563 . S
C2567 C1996 1.580 . S
C2581 C320 1.488 . S
C2587 C1936 1.491 . S
C2601 C391 1.411 . S
C2607 N1955 1.385 . S
C2627 N1968 1.454 . S
C2621 C421 1.472 . S
C2647 N2014 1.414 . S
C2641 C31 1.408 . S
C2661 C61 1.505 . S
C2667 N2037 1.514 . S
C2681 C121 1.529 . S
C2687 N2060 1.542 . S
C2707 N2093 1.433 . S
C2701 C181 1.452 . S
C2721 C260 1.510 . S
C2727 C2120 1.532 . S
C2747 C2143 1.561 . S
C2741 C331 1.542 . S
C2761 C380 1.481 . S
C2767 C2166 1.492 . S
C2787 C2180 1.432 . S
C2781 C440 1.413 . S
C2801 C20 1.393 . S
C2807 C2097 1.429 . S
C2821 C271 1.475 . S
C2827 N2139 1.469 . S
C2847 N2162 1.430 . S
C2841 C301 1.454 . S
C2861 C361 1.456 . S
C2867 N2175 1.435 . S
C2887 N2116 1.422 . S
C2881 C451 1.429 . S
C2907 C2042 1.658 . S
C2901 C151 1.628 . S
C2921 C200 1.503 . S
C2927 C2065 1.508 . S
C2947 C2019 1.593 . S
C2941 C91 1.571 . S
C2967 C2212 1.448 . S
C2961 C500 1.431 . S
C2981 C560 1.583 . S
C2987 C2226 1.609 . S
C3001 C620 1.488 . S
C3007 N2254 1.448 . S
C3027 N2267 1.429 . S
C3021 C691 1.459 . S
C3041 C721 1.566 . S
C3047 C2272 1.586 . S
C3061 C811 1.479 . S
C3067 N2208 1.437 . S
C3081 C871 1.496 . S
C3087 N2221 1.487 . S
C3101 C901 1.410 . S
C3107 C2258 1.430 . S
C3127 N2106 1.401 . S
C3121 C511 1.412 . S
C3141 C541 1.498 . S
C3147 N2290 1.489 . S
C3167 N2152 1.442 . S
C3161 C601 1.447 . S
C3181 C661 1.512 . S
C3187 C2327 1.511 . S
C3201 C740 1.542 . S
C3207 C2028 1.572 . S
C3227 C2341 1.588 . S
C3221 C781 1.573 . S
C3241 C860 1.520 . S
C3247 C2074 1.548 . S
C3267 N2359 1.405 . S
C3261 C920 1.415 . S
C3281 C481 1.430 . S
C3287 N2323 1.419 . S
C3307 N2336 1.482 . S
C3301 C751 1.498 . S
C3321 C800 1.441 . S
C3327 N2070 1.438 . S
C3347 C2364 1.440 . S
C3341 C841 1.429 . S
C3361 C931 1.399 . S
C3367 N2024 1.384 . S
C3381 C631 1.537 . S
C3387 C2295 1.564 . S
C3401 C680 1.536 . S
C3407 C2157 1.559 . S
C3421 C571 1.577 . S
C3427 C2111 1.599 . S
C3441 C961 1.489 . S
C3447 C2249 1.517 . S
C3467 C2281 1.539 . S
C3461 C1040 1.536 . S
C3481 C1100 1.451 . S
C3487 N2198 1.445 . S
C3501 C1171 1.441 . S
C3507 N2231 1.406 . S
C3521 C1201 1.578 . S
C3527 C2235 1.589 . S
C3541 C1291 1.524 . S
C3547 N2244 1.508 . S
C3567 N2277 1.381 . S
C3561 C1351 1.387 . S
C3581 C1381 1.462 . S
C3587 C2203 1.489 . S
C3607 N2392 1.425 . S
C3601 C991 1.441 . S
C3621 C1021 1.441 . S
C3627 N2129 1.450 . S
C3647 N2415 1.368 . S
C3641 C1081 1.399 . S
C3661 C1141 1.474 . S
C3667 N2185 1.450 . S
C3681 C1220 1.517 . S
C3687 C2433 1.554 . S
C3701 C1261 1.628 . S
C3707 C2051 1.648 . S
C3727 N2451 1.395 . S
C3721 C1340 1.412 . S
C3741 C1400 1.462 . S
C3747 C2088 1.488 . S
C3767 C2189 1.482 . S
C3761 C980 1.435 . S
C3787 N2047 1.490 . S
C3781 C1231 1.524 . S
C3801 C1280 1.549 . S
C3807 C2456 1.571 . S
C3821 C1321 1.392 . S
C3827 N2083 1.354 . S
C3847 N2428 1.455 . S
C3841 C1411 1.469 . S
C3867 C2134 1.558 . S
C3861 C1111 1.524 . S
C3887 C2419 1.552 . S
C3881 C1160 1.538 . S
C3907 C2396 1.561 . S
C3901 C1051 1.526 . S
C3921 C1460 1.385 . S
C3927 N1978 1.372 . S
C3941 C1520 1.546 . S
C3947 C2005 1.559 . S
C3967 C1927 1.541 . S
C3961 C1580 1.519 . S
C3987 N1945 1.395 . S
C3981 C1651 1.405 . S
C4007 C1950 1.587 . S
C4001 C1681 1.580 . S
C4027 C1982 1.504 . S
C4021 C1760 1.506 . S
C4047 N2001 1.499 . S
C4041 C1831 1.499 . S
C4061 C1861 1.485 . S
C4067 N1922 1.479 . S
C4081 C1471 1.345 . S
C4087 N2438 1.341 . S
C4107 N2346 1.473 . S
C4101 C1501 1.472 . S
C4127 C2465 1.580 . S
C4121 C1561 1.538 . S
C4147 C2373 1.392 . S
C4141 C1621 1.383 . S
C4161 C1700 1.560 . S
C4167 C2387 1.579 . S
C4187 C2304 1.578 . S
C4181 C1771 1.559 . S
C4207 C2410 1.636 . S
C4201 C1820 1.604 . S
C4221 C1880 1.440 . S
C4227 N2313 1.432 . S
C4247 N2369 1.361 . S
C4241 C1441 1.365 . S
C4267 N2300 1.471 . S
C4261 C1711 1.483 . S
C4287 N2405 1.403 . S
C4281 C1741 1.400 . S
C4301 C1801 1.502 . S
C4307 C2318 1.508 . S
C4321 C1891 1.411 . S
C4327 N2382 1.400 . S
C4341 C1591 1.640 . S
C4347 C2350 1.652 . S
C4361 C1640 1.428 . S
C4367 N2461 1.392 . S
C4387 C2442 1.543 . S
C4381 C1531 1.506 . S
