# Generated by pormake.
# Topology anh, (6,3)-cn, num edge types: 1
# Building blocks:
#     Node 0, Type 0, BuildingBlock: CUWYAW_clean_sbu_0, # of connection points: 6
#     Node 1, Type 0, BuildingBlock: CUWYAW_clean_sbu_0, # of connection points: 6
#     Node 2, Type 0, BuildingBlock: CUWYAW_clean_sbu_0, # of connection points: 6
#     Node 3, Type 1, BuildingBlock: BELTOD_clean_linker_0, # of connection points: 3
#     Node 4, Type 1, BuildingBlock: BELTOD_clean_linker_0, # of connection points: 3
#     Node 5, Type 1, BuildingBlock: BELTOD_clean_linker_0, # of connection points: 3
#     Node 6, Type 1, BuildingBlock: BELTOD_clean_linker_0, # of connection points: 3
#     Node 7, Type 1, BuildingBlock: BELTOD_clean_linker_0, # of connection points: 3
#     Node 8, Type 1, BuildingBlock: BELTOD_clean_linker_0, # of connection points: 3
#     Edge 9, Type (0, 1), BuildingBlock: UVAHIK_clean_linker_0, # of connection points: 2
#     Edge 10, Type (0, 1), BuildingBlock: UVAHIK_clean_linker_0, # of connection points: 2
#     Edge 11, Type (0, 1), BuildingBlock: UVAHIK_clean_linker_0, # of connection points: 2
#     Edge 12, Type (0, 1), BuildingBlock: UVAHIK_clean_linker_0, # of connection points: 2
#     Edge 13, Type (0, 1), BuildingBlock: UVAHIK_clean_linker_0, # of connection points: 2
#     Edge 14, Type (0, 1), BuildingBlock: UVAHIK_clean_linker_0, # of connection points: 2
#     Edge 15, Type (0, 1), BuildingBlock: UVAHIK_clean_linker_0, # of connection points: 2
#     Edge 16, Type (0, 1), BuildingBlock: UVAHIK_clean_linker_0, # of connection points: 2
#     Edge 17, Type (0, 1), BuildingBlock: UVAHIK_clean_linker_0, # of connection points: 2
#     Edge 18, Type (0, 1), BuildingBlock: UVAHIK_clean_linker_0, # of connection points: 2
#     Edge 19, Type (0, 1), BuildingBlock: UVAHIK_clean_linker_0, # of connection points: 2
#     Edge 20, Type (0, 1), BuildingBlock: UVAHIK_clean_linker_0, # of connection points: 2
#     Edge 21, Type (0, 1), BuildingBlock: UVAHIK_clean_linker_0, # of connection points: 2
#     Edge 22, Type (0, 1), BuildingBlock: UVAHIK_clean_linker_0, # of connection points: 2
#     Edge 23, Type (0, 1), BuildingBlock: UVAHIK_clean_linker_0, # of connection points: 2
#     Edge 24, Type (0, 1), BuildingBlock: UVAHIK_clean_linker_0, # of connection points: 2
#     Edge 25, Type (0, 1), BuildingBlock: UVAHIK_clean_linker_0, # of connection points: 2
#     Edge 26, Type (0, 1), BuildingBlock: UVAHIK_clean_linker_0, # of connection points: 2
# Relax obj value: 0.205
# Max RMSD: 0.175
# Mean RMSD: 0.142
data_MOF--net-anh--node1-CUWYAW_clean_sbu_0--node2-BELTOD_clean_linker_0--edge1-UVAHIK_clean_linker_0
_symmetry_space_group_name_H-M    P1
_symmetry_Int_Tables_number       1
_symmetry_cell_setting            triclinic
loop_
_symmetry_equiv_pos_as_xyz
'x, y, z'
_cell_length_a     43.104779
_cell_length_b     42.848993
_cell_length_c     75.905877
_cell_angle_alpha  89.812347
_cell_angle_beta   89.446531
_cell_angle_gamma 120.07645
loop_
_atom_site_label
_atom_site_type_symbol
_atom_site_fract_x
_atom_site_fract_y
_atom_site_fract_z
_atom_type_partial_charge
C0 C 1.01447 0.47437 0.13586 0.0
Eu1 Eu 1.05044 0.52832 0.15686 0.0
C2 C 0.97788 0.45741 0.12903 0.0
C3 C 0.95059 0.45796 0.13896 0.0
C4 C 0.91611 0.44308 0.13227 0.0
C5 C 0.90815 0.42715 0.11553 0.0
C6 C 0.93567 0.42694 0.10551 0.0
C7 C 0.97038 0.44219 0.11219 0.0
C8 C 1.05395 0.52706 0.19244 0.0
C9 C 1.00247 0.56792 0.16455 0.0
C10 C 0.12002 0.65507 0.19587 0.0
Eu11 Eu 0.08515 0.6018 0.1744 0.0
C12 C 0.15586 0.6722 0.20356 0.0
C13 C 0.1734 0.70899 0.20748 0.0
C14 C 0.20854 0.72624 0.21358 0.0
C15 C 0.22672 0.70691 0.2158 0.0
C16 C 0.20874 0.66981 0.21219 0.0
C17 C 0.17356 0.65258 0.20614 0.0
C18 C 0.08102 0.60324 0.13909 0.0
C19 C 0.13445 0.56471 0.16352 0.0
O20 O 1.03586 0.50732 0.13028 0.0
O21 O 1.01739 0.47048 0.15278 0.0
O22 O 1.05861 0.50539 0.18226 0.0
O23 O 1.04612 0.54695 0.1835 0.0
O24 O 1.00629 0.54316 0.1559 0.0
O25 O 1.02843 0.59214 0.17447 0.0
O26 O 0.09771 0.62202 0.20114 0.0
O27 O 0.1192 0.65944 0.17885 0.0
O28 O 0.07706 0.62536 0.14927 0.0
O29 O 0.08896 0.58333 0.1479 0.0
O30 O 0.13098 0.58852 0.17332 0.0
O31 O 0.10736 0.54034 0.15426 0.0
H32 H 0.95586 0.46965 0.15198 0.0
H33 H 0.89537 0.44296 0.1405 0.0
H34 H 0.93027 0.41479 0.09259 0.0
H35 H 0.9913 0.44196 0.10427 0.0
H36 H 0.16017 0.72455 0.20545 0.0
H37 H 0.22187 0.75496 0.216 0.0
H38 H 0.22193 0.65417 0.21392 0.0
H39 H 0.1604 0.62407 0.20326 0.0
C40 C 0.5432 0.11826 0.47254 0.0
Eu41 Eu 0.55904 0.07621 0.49029 0.0
C42 C 0.5628 0.15776 0.47145 0.0
C43 C 0.58937 0.17729 0.48385 0.0
C44 C 0.61041 0.21457 0.48239 0.0
C45 C 0.60501 0.23319 0.46862 0.0
C46 C 0.5778 0.2138 0.45639 0.0
C47 C 0.557 0.17611 0.4577 0.0
C48 C 0.55852 0.07201 0.52608 0.0
C49 C 0.64594 0.12347 0.49722 0.0
C50 C 0.61575 1.00275 0.52599 0.0
Eu51 Eu 0.59723 1.03928 0.50556 0.0
C52 C 0.60806 0.9656 0.52845 0.0
C53 C 0.5977 0.94156 0.5143 0.0
C54 C 0.59448 0.90765 0.51655 0.0
C55 C 0.60129 0.8973 0.53301 0.0
C56 C 0.60984 0.92087 0.54733 0.0
C57 C 0.61326 0.95477 0.54504 0.0
C58 C 0.60264 1.04652 0.47031 0.0
C59 C 0.51139 0.99055 0.49436 0.0
O60 O 0.56009 0.10296 0.46562 0.0
O61 O 0.52915 0.10462 0.48799 0.0
O62 O 0.53155 0.06849 0.51708 0.0
O63 O 0.58453 0.07922 0.51597 0.0
O64 O 0.61819 0.11959 0.48814 0.0
O65 O 0.64286 0.09719 0.50764 0.0
O66 O 0.58984 1.00915 0.52997 0.0
O67 O 0.6332 1.01918 0.51153 0.0
O68 O 0.62739 1.0469 0.48007 0.0
O69 O 0.57487 1.03852 0.47935 0.0
O70 O 0.53896 0.99244 0.50306 0.0
O71 O 0.51374 1.01933 0.48657 0.0
H72 H 0.59407 0.16367 0.49466 0.0
H73 H 0.63068 0.22895 0.49221 0.0
H74 H 0.57303 0.22771 0.44575 0.0
H75 H 0.53668 0.16135 0.44796 0.0
H76 H 0.59322 0.94942 0.50142 0.0
H77 H 0.58755 0.8899 0.50534 0.0
H78 H 0.61572 0.9139 0.56011 0.0
H79 H 0.6212 0.97303 0.55609 0.0
C80 C 0.7029 0.61311 0.81624 0.0
Eu81 Eu 0.63926 0.59134 0.82934 0.0
C82 C 0.71641 0.59398 0.80543 0.0
C83 C 0.75266 0.604 0.80586 0.0
C84 C 0.76438 0.58234 0.79785 0.0
C85 C 0.73993 0.55026 0.7893 0.0
C86 C 0.70403 0.54163 0.78797 0.0
C87 C 0.69238 0.56319 0.79607 0.0
C88 C 0.61981 0.58752 0.86363 0.0
C89 C 0.59753 0.50261 0.83172 0.0
C90 C 0.49428 0.52436 0.84766 0.0
Eu91 Eu 0.55917 0.54832 0.83596 0.0
C92 C 0.46919 0.53815 0.8471 0.0
C93 C 0.43396 0.5154 0.84161 0.0
C94 C 0.41036 0.52858 0.83989 0.0
C95 C 0.42154 0.56478 0.84375 0.0
C96 C 0.45688 0.58747 0.84937 0.0
C97 C 0.48053 0.57433 0.85096 0.0
C98 C 0.58003 0.55332 0.80181 0.0
C99 C 0.59952 0.63743 0.83055 0.0
O100 O 0.6794 0.61941 0.80872 0.0
O101 O 0.69363 0.60095 0.8324 0.0
O102 O 0.64663 0.61576 0.85634 0.0
O103 O 0.60578 0.56183 0.85283 0.0
O104 O 0.62378 0.5325 0.82443 0.0
O105 O 0.5708 0.50306 0.84014 0.0
O106 O 0.52269 0.54201 0.85747 0.0
O107 O 0.50154 0.5151 0.83244 0.0
O108 O 0.55341 0.52425 0.8086 0.0
O109 O 0.59258 0.57789 0.81307 0.0
O110 O 0.5701 0.60672 0.83499 0.0
O111 O 0.63003 0.63845 0.82679 0.0
H112 H 0.77154 0.62755 0.81313 0.0
H113 H 0.79212 0.58954 0.79939 0.0
H114 H 0.6846 0.51737 0.78135 0.0
H115 H 0.66425 0.55487 0.79568 0.0
H116 H 0.42486 0.48753 0.83837 0.0
H117 H 0.38352 0.5105 0.83527 0.0
H118 H 0.46624 0.61532 0.85269 0.0
H119 H 0.50771 0.59257 0.8551 0.0
P120 P 0.6765 0.10059 0.22851 0.0
H121 H 0.67125 1.02966 0.23099 0.0
H122 H 0.61953 0.96841 0.23378 0.0
H123 H 0.54828 1.01179 0.23062 0.0
H124 H 0.59979 0.07254 0.22792 0.0
H125 H 0.69256 0.17577 0.22647 0.0
H126 H 0.68689 0.21107 0.20266 0.0
H127 H 0.64117 0.1171 0.16944 0.0
H128 H 0.64687 0.08191 0.19332 0.0
H129 H 0.71948 0.10558 0.25882 0.0
H130 H 0.63548 0.12867 0.2467 0.0
O131 O 0.71426 0.10042 0.22367 0.0
H132 H 0.71368 0.11546 0.28994 0.0
H133 H 0.63007 0.1396 0.27787 0.0
C134 C 0.63919 0.05542 0.22897 0.0
C135 C 0.64446 1.02583 0.2307 0.0
C136 C 0.61497 0.99094 0.23232 0.0
C137 C 0.57995 0.98542 0.23253 0.0
C138 C 0.57496 1.01527 0.23076 0.0
C139 C 0.60434 0.04995 0.22905 0.0
C140 C 0.66941 0.12606 0.21178 0.0
C141 C 0.68052 0.16254 0.21423 0.0
C142 C 0.67708 0.18263 0.20063 0.0
C143 C 0.66317 0.16668 0.18426 0.0
C144 C 0.6518 0.13001 0.18194 0.0
C145 C 0.65501 0.10992 0.19558 0.0
C146 C 0.67843 0.1171 0.25042 0.0
C147 C 0.70066 0.11407 0.26279 0.0
C148 C 0.69732 0.11979 0.28063 0.0
C149 C 0.67138 0.12834 0.28644 0.0
C150 C 0.65009 0.13276 0.27386 0.0
C151 C 0.65343 0.12692 0.25601 0.0
P152 P 0.83846 0.65154 0.59396 0.0
H153 H 0.87112 0.64063 0.5623 0.0
H154 H 0.8493 0.59081 0.5414 0.0
H155 H 0.75519 0.52916 0.57434 0.0
H156 H 0.77767 0.57821 0.59523 0.0
H157 H 0.85113 0.71427 0.57241 0.0
H158 H 0.81106 0.73597 0.56279 0.0
H159 H 0.72217 0.64521 0.58923 0.0
H160 H 0.76242 0.62472 0.59928 0.0
H161 H 0.83289 0.59208 0.61622 0.0
H162 H 0.82524 0.68795 0.62274 0.0
O163 O 0.88156 0.68256 0.59099 0.0
H164 H 0.81132 0.57362 0.64656 0.0
H165 H 0.80315 0.66956 0.65272 0.0
C166 C 0.82647 0.61277 0.58054 0.0
C167 C 0.84633 0.61592 0.56523 0.0
C168 C 0.83359 0.58761 0.55319 0.0
C169 C 0.80052 0.55591 0.55619 0.0
C170 C 0.78113 0.55278 0.57175 0.0
C171 C 0.79395 0.58094 0.58375 0.0
C172 C 0.80981 0.66823 0.58675 0.0
C173 C 0.82306 0.69927 0.5762 0.0
C174 C 0.80005 0.71141 0.57058 0.0
C175 C 0.76342 0.69241 0.57533 0.0
C176 C 0.7503 0.66087 0.58561 0.0
C177 C 0.77328 0.64896 0.59127 0.0
C178 C 0.82939 0.64072 0.61706 0.0
C179 C 0.82675 0.60924 0.62419 0.0
C180 C 0.81436 0.59869 0.64152 0.0
C181 C 0.80497 0.61981 0.65201 0.0
C182 C 0.81028 0.65268 0.64512 0.0
C183 C 0.82266 0.66313 0.62788 0.0
P184 P 1.03471 0.60772 0.89189 0.0
H185 H 0.07819 0.6551 0.86302 0.0
H186 H 0.13839 0.67253 0.85193 0.0
H187 H 0.15167 0.61494 0.89534 0.0
H188 H 0.09187 0.5977 0.90626 0.0
H189 H 0.95863 0.55486 0.89442 0.0
H190 H 0.9186 0.50562 0.8752 0.0
H191 H 1.00957 0.52214 0.84359 0.0
H192 H 1.04938 0.57112 0.86277 0.0
H193 H 1.04612 0.65595 0.92097 0.0
H194 H 1.01512 0.54421 0.91425 0.0
O195 O 1.02226 0.63763 0.88658 0.0
H196 H 1.04521 0.64849 0.9529 0.0
H197 H 1.01331 0.5362 0.94625 0.0
C198 C 0.08089 0.62571 0.88563 0.0
C199 C 0.0945 0.64705 0.87037 0.0
C200 C 0.12872 0.65678 0.86399 0.0
C201 C 0.14978 0.64531 0.87284 0.0
C202 C 0.13637 0.62482 0.88843 0.0
C203 C 0.1021 0.61486 0.89469 0.0
C204 C 1.00691 0.56688 0.88 0.0
C205 C 0.97003 0.54723 0.88363 0.0
C206 C 0.94724 0.51889 0.87272 0.0
C207 C 0.96101 0.5101 0.85787 0.0
C208 C 0.99824 0.52844 0.8549 0.0
C209 C 1.02102 0.55661 0.86589 0.0
C210 C 1.02991 0.60046 0.91531 0.0
C211 C 1.03836 0.62959 0.92641 0.0
C212 C 1.03774 0.62525 0.94466 0.0
C213 C 1.02893 0.59167 0.95213 0.0
C214 C 1.02036 0.56244 0.94091 0.0
C215 C 1.02101 0.56687 0.92263 0.0
P216 P 0.10331 0.53505 0.44264 0.0
H217 H 0.12937 0.56581 0.47767 0.0
H218 H 0.17747 0.62555 0.4866 0.0
H219 H 0.18345 0.66537 0.43365 0.0
H220 H 0.13583 0.60613 0.42487 0.0
H221 H 0.0743 0.46012 0.45333 0.0
H222 H 1.01592 0.41297 0.46353 0.0
H223 H 0.97829 0.48929 0.46455 0.0
H224 H 1.03781 0.53712 0.4542 0.0
H225 H 0.14531 0.53434 0.41234 0.0
H226 H 1.04743 0.53656 0.42096 0.0
O227 O 0.13112 0.51906 0.44569 0.0
H228 H 0.13718 0.53381 0.38061 0.0
H229 H 1.03863 0.53523 0.3891 0.0
C230 C 0.12834 0.58116 0.45063 0.0
C231 C 0.14009 0.58774 0.46814 0.0
C232 C 0.16789 0.62197 0.47321 0.0
C233 C 0.18494 0.65032 0.46078 0.0
C234 C 0.17156 0.64413 0.44353 0.0
C235 C 0.14375 0.61009 0.43853 0.0
C236 C 1.06104 0.50265 0.45328 0.0
C237 C 1.05398 0.46725 0.45613 0.0
C238 C 1.02025 0.44001 0.462 0.0
C239 C 0.99208 0.44704 0.46502 0.0
C240 C 0.99918 0.48269 0.46231 0.0
C241 C 1.03335 0.51023 0.45654 0.0
C242 C 0.09651 0.53454 0.41911 0.0
C243 C 0.12177 0.53425 0.40743 0.0
C244 C 0.11703 0.53385 0.38922 0.0
C245 C 0.08698 0.53398 0.38222 0.0
C246 C 1.06213 0.53519 0.39399 0.0
C247 C 1.06694 0.5356 0.41226 0.0
P248 P 0.62372 0.08503 0.77383 0.0
H249 H 0.65827 0.13895 0.80133 0.0
H250 H 0.64794 0.18654 0.81218 0.0
H251 H 0.54742 0.13901 0.78463 0.0
H252 H 0.55812 0.09136 0.77375 0.0
H253 H 0.66865 0.05237 0.7735 0.0
H254 H 0.66094 0.99531 0.78366 0.0
H255 H 0.5572 0.96701 0.80572 0.0
H256 H 0.56497 1.02481 0.79484 0.0
H257 H 0.61163 0.12984 0.74878 0.0
H258 H 0.60022 1.02386 0.74938 0.0
O259 O 0.66785 0.11195 0.77096 0.0
H260 H 0.5955 0.12278 0.71768 0.0
H261 H 0.58522 1.01731 0.71814 0.0
C262 C 0.60934 0.11177 0.78644 0.0
C263 C 0.63349 0.1381 0.79799 0.0
C264 C 0.62754 0.16551 0.80419 0.0
C265 C 0.59716 0.16731 0.79902 0.0
C266 C 0.57156 0.13913 0.78857 0.0
C267 C 0.57745 0.11152 0.78248 0.0
C268 C 0.61787 1.04362 0.7838 0.0
C269 C 0.64445 1.03438 0.78082 0.0
C270 C 0.63998 1.00141 0.78673 0.0
C271 C 0.60865 0.97628 0.79585 0.0
C272 C 0.58173 0.98545 0.79875 0.0
C273 C 0.58625 1.01873 0.79271 0.0
C274 C 0.60603 0.07695 0.75171 0.0
C275 C 0.60468 0.10463 0.74242 0.0
C276 C 0.59566 0.10069 0.72458 0.0
C277 C 0.58896 0.06943 0.7155 0.0
C278 C 0.59023 1.04168 0.72481 0.0
C279 C 0.5986 1.04537 0.74275 0.0
P280 P 0.55517 0.53618 0.11349 0.0
H281 H 0.57664 0.50014 0.13955 0.0
H282 H 0.63469 0.51042 0.14876 0.0
H283 H 0.68606 0.61322 0.12142 0.0
H284 H 0.62734 0.60172 0.11155 0.0
H285 H 0.50356 0.54745 0.09399 0.0
H286 H 0.45541 0.55786 0.10275 0.0
H287 H 0.48872 0.56819 0.15688 0.0
H288 H 0.53843 0.55866 0.14778 0.0
H289 H 0.55606 0.48969 0.08556 0.0
H290 H 0.57731 0.59891 0.08997 0.0
O291 O 0.52981 0.49167 0.11649 0.0
H292 H 0.56569 0.49749 0.05377 0.0
H293 H 0.58612 0.60677 0.05798 0.0
C294 C 0.59725 0.55002 0.12474 0.0
C295 C 0.60022 0.5253 0.13578 0.0
C296 C 0.63384 0.53134 0.14113 0.0
C297 C 0.66575 0.56256 0.13575 0.0
C298 C 0.66247 0.58841 0.12556 0.0
C299 C 0.62867 0.58216 0.1201 0.0
C300 C 0.5259 0.55359 0.12006 0.0
C301 C 0.50176 0.55339 0.10768 0.0
C302 C 0.47346 0.55863 0.11279 0.0
C303 C 0.46761 0.56345 0.13059 0.0
C304 C 0.49244 0.56485 0.14303 0.0
C305 C 0.52107 0.5596 0.13783 0.0
C306 C 0.56509 0.54343 0.09011 0.0
C307 C 0.56265 0.51537 0.07968 0.0
C308 C 0.56799 0.51982 0.06143 0.0
C309 C 0.57607 0.55257 0.05318 0.0
C310 C 0.58002 0.5812 0.06382 0.0
C311 C 0.5748 0.57672 0.08212 0.0
C312 C 0.17346 0.54174 0.1509 0.0
C313 C 0.16987 0.56609 0.16198 0.0
C314 C 0.20653 0.54336 0.14859 0.0
C315 C 0.29707 0.57762 0.16777 0.0
H316 H 0.3206 0.56169 0.12049 0.0
C317 C 0.43516 0.58887 0.14865 0.0
C318 C 0.43448 0.56469 0.1359 0.0
C319 C 0.40407 0.59069 0.15268 0.0
C320 C 0.31445 0.56574 0.13385 0.0
H321 H 0.19897 0.61103 0.17961 0.0
H322 H 0.25689 0.61381 0.1756 0.0
H323 H 0.26516 0.56198 0.12596 0.0
H324 H 0.39949 0.52193 0.11829 0.0
H325 H 0.346 0.52483 0.12532 0.0
H326 H 0.3465 0.58107 0.17564 0.0
C327 C 0.2338 0.59331 0.16871 0.0
C328 C 0.28246 0.56597 0.137 0.0
C329 C 0.20053 0.59179 0.17097 0.0
C330 C 0.40155 0.54165 0.12779 0.0
C331 C 0.37065 0.54337 0.13184 0.0
C332 C 0.3292 0.57726 0.16463 0.0
C333 C 0.23739 0.56935 0.15728 0.0
C334 C 0.27289 0.57137 0.15404 0.0
C335 C 0.37138 0.56828 0.14413 0.0
C336 C 0.33816 0.57075 0.14763 0.0
H337 H 0.15066 0.52136 0.14379 0.0
H338 H 0.20782 0.52394 0.13997 0.0
H339 H 0.29069 0.58173 0.18109 0.0
H340 H 0.45995 0.60707 0.15517 0.0
H341 H 0.40593 0.61033 0.16218 0.0
C342 C 0.68386 0.18601 0.48433 0.0
C343 C 0.68096 0.1581 0.49534 0.0
C344 C 0.71667 0.21814 0.48195 0.0
C345 C 0.80834 0.27344 0.50099 0.0
H346 H 0.83171 0.31824 0.45464 0.0
C347 C 0.95164 0.38932 0.48197 0.0
C348 C 0.95546 0.4167 0.47028 0.0
C349 C 0.91785 0.35926 0.48576 0.0
C350 C 0.82555 0.30651 0.46776 0.0
H351 H 0.71096 0.14268 0.51253 0.0
H352 H 0.76828 0.19841 0.5082 0.0
H353 H 0.77446 0.2634 0.45973 0.0
H354 H 0.92585 0.43373 0.45374 0.0
H355 H 0.86694 0.38173 0.46056 0.0
H356 H 0.85965 0.31647 0.50895 0.0
C357 C 0.74493 0.1957 0.50158 0.0
C358 C 0.7925 0.27483 0.4707 0.0
C359 C 0.71198 0.16351 0.50401 0.0
C360 C 0.92414 0.41346 0.46288 0.0
C361 C 0.89028 0.38327 0.46663 0.0
C362 C 0.84143 0.30512 0.49804 0.0
C363 C 0.7479 0.22351 0.49041 0.0
C364 C 0.7833 0.25765 0.48736 0.0
C365 C 0.8866 0.35543 0.47799 0.0
C366 C 0.85067 0.32216 0.48135 0.0
H367 H 0.66076 0.18306 0.47737 0.0
H368 H 0.7174 0.23892 0.47351 0.0
H369 H 0.80223 0.26159 0.51408 0.0
H370 H 0.97494 0.3909 0.48813 0.0
H371 H 0.91644 0.33849 0.49445 0.0
C372 C 0.62965 0.70514 0.82748 0.0
C373 C 0.59791 0.67145 0.82891 0.0
C374 C 0.62848 0.73708 0.82534 0.0
C375 C 0.57121 0.7727 0.80944 0.0
H376 H 0.63701 0.85814 0.83517 0.0
C377 C 0.57114 0.90845 0.80136 0.0
C378 C 0.60445 0.94074 0.80184 0.0
C379 C 0.5682 0.87512 0.80585 0.0
C380 C 0.61873 0.83482 0.82763 0.0
H381 H 0.53988 0.64538 0.82917 0.0
H382 H 0.53789 0.70113 0.8252 0.0
H383 H 0.63625 0.8017 0.8404 0.0
H384 H 0.66051 0.96266 0.80831 0.0
H385 H 0.65577 0.90527 0.81531 0.0
H386 H 0.55439 0.80594 0.79625 0.0
C387 C 0.56374 0.70274 0.82578 0.0
C388 C 0.61822 0.80224 0.83072 0.0
C389 C 0.56491 0.67074 0.82818 0.0
C390 C 0.63445 0.93857 0.80738 0.0
C391 C 0.63158 0.90538 0.81172 0.0
C392 C 0.572 0.80545 0.80617 0.0
C393 C 0.59555 0.73641 0.82433 0.0
C394 C 0.59469 0.77073 0.82158 0.0
C395 C 0.59848 0.87293 0.81094 0.0
C396 C 0.59606 0.83725 0.81508 0.0
H397 H 0.65558 0.70691 0.82797 0.0
H398 H 0.65353 0.76236 0.82411 0.0
H399 H 0.55292 0.74912 0.80203 0.0
H400 H 0.54738 0.9087 0.79709 0.0
H401 H 0.54206 0.85105 0.8053 0.0
C402 C 0.96473 0.59772 0.16872 0.0
C403 C 0.96815 0.56853 0.16264 0.0
C404 C 0.93274 0.59848 0.16634 0.0
C405 C 0.83524 0.53915 0.15859 0.0
H406 H 0.83819 0.62636 0.14211 0.0
C407 C 0.70716 0.55198 0.15549 0.0
C408 C 0.70193 0.56688 0.13995 0.0
C409 C 0.73991 0.55343 0.15873 0.0
C410 C 0.83685 0.60175 0.1467 0.0
H411 H 0.93995 0.51727 0.14925 0.0
H412 H 0.88442 0.51823 0.14545 0.0
H413 H 0.89424 0.62619 0.1469 0.0
H414 H 0.72849 0.59563 0.1158 0.0
H415 H 0.78561 0.59909 0.12176 0.0
H416 H 0.77793 0.51469 0.15841 0.0
C417 C 0.90643 0.54059 0.15209 0.0
C418 C 0.86905 0.60173 0.14959 0.0
C419 C 0.93849 0.54009 0.15424 0.0
C420 C 0.7312 0.58431 0.12806 0.0
C421 C 0.76413 0.58616 0.13143 0.0
C422 C 0.8031 0.53932 0.15596 0.0
C423 C 0.90305 0.56984 0.15803 0.0
C424 C 0.86874 0.57035 0.15547 0.0
C425 C 0.76883 0.57029 0.14669 0.0
C426 C 0.80336 0.57055 0.14987 0.0
H427 H 0.98691 0.62023 0.17518 0.0
H428 H 0.93112 0.62136 0.17119 0.0
H429 H 0.83384 0.51454 0.16323 0.0
H430 H 0.68591 0.53906 0.16525 0.0
H431 H 0.74263 0.54144 0.17077 0.0
C432 C 0.47601 0.92229 0.49691 0.0
C433 C 0.47753 0.95499 0.49251 0.0
C434 C 0.44442 0.88901 0.49449 0.0
C435 C 0.34557 0.84727 0.48906 0.0
H436 H 0.35193 0.76827 0.46809 0.0
C437 C 0.2211 0.70253 0.48149 0.0
C438 C 0.21804 0.68523 0.46532 0.0
C439 C 0.25243 0.73502 0.48557 0.0
C440 C 0.34958 0.79004 0.47393 0.0
H441 H 0.44629 0.97787 0.48236 0.0
H442 H 0.39148 0.92022 0.47835 0.0
H443 H 0.40667 0.82525 0.47386 0.0
H444 H 0.24642 0.68859 0.44099 0.0
H445 H 0.30062 0.74479 0.44807 0.0
H446 H 0.28844 0.81211 0.48899 0.0
C447 C 0.41468 0.92021 0.48369 0.0
C448 C 0.38109 0.82269 0.4774 0.0
C449 C 0.44633 0.95339 0.4859 0.0
C450 C 0.24741 0.70124 0.45346 0.0
C451 C 0.2788 0.73338 0.45762 0.0
C452 C 0.31406 0.81445 0.48577 0.0
C453 C 0.41325 0.88745 0.48783 0.0
C454 C 0.3796 0.85197 0.48486 0.0
C455 C 0.28186 0.75085 0.47372 0.0
C456 C 0.31554 0.78543 0.47798 0.0
H457 H 0.49941 0.92232 0.50201 0.0
H458 H 0.44433 0.86444 0.49798 0.0
H459 H 0.34325 0.869 0.49496 0.0
H460 H 0.1991 0.69115 0.49094 0.0
H461 H 0.2538 0.74748 0.49814 0.0
C462 C 0.62423 0.46643 0.81935 0.0
C463 C 0.59733 0.46778 0.82944 0.0
C464 C 0.62346 0.43366 0.81658 0.0
C465 C 0.58402 0.33937 0.83381 0.0
H466 H 0.61162 0.3216 0.78783 0.0
C467 C 0.60472 0.21695 0.81982 0.0
C468 C 0.59373 0.19969 0.80342 0.0
C469 C 0.6039 0.24873 0.82337 0.0
C470 C 0.60354 0.32588 0.80073 0.0
H471 H 0.54862 0.43514 0.84467 0.0
H472 H 0.54726 0.37811 0.83983 0.0
H473 H 0.61256 0.37808 0.79324 0.0
H474 H 0.57307 0.2029 0.77795 0.0
H475 H 0.57118 0.25769 0.78419 0.0
H476 H 0.57467 0.28692 0.84122 0.0
C477 C 0.56918 0.40252 0.83414 0.0
C478 C 0.6045 0.35862 0.80391 0.0
C479 C 0.56987 0.43533 0.83686 0.0
C480 C 0.58136 0.21497 0.79081 0.0
C481 C 0.58074 0.24683 0.79431 0.0
C482 C 0.58326 0.30666 0.83065 0.0
C483 C 0.59584 0.40111 0.82384 0.0
C484 C 0.59475 0.36595 0.82051 0.0
C485 C 0.5923 0.26444 0.81059 0.0
C486 C 0.59294 0.29934 0.81404 0.0
H487 H 0.6459 0.49071 0.81345 0.0
H488 H 0.64477 0.43391 0.80882 0.0
H489 H 0.57662 0.34399 0.84681 0.0
H490 H 0.61417 0.206 0.82994 0.0
H491 H 0.61325 0.26148 0.83601 0.0
C492 C 0.59028 0.84264 0.55029 0.0
C493 C 0.60346 0.86404 0.53497 0.0
C494 C 0.59845 0.81553 0.55367 0.0
C495 C 0.63921 0.7642 0.53457 0.0
H496 H 0.67729 0.77378 0.58157 0.0
C497 C 0.74159 0.72046 0.55312 0.0
C498 C 0.73899 0.7057 0.57 0.0
C499 C 0.71906 0.73373 0.54838 0.0
C500 C 0.66619 0.77016 0.5685 0.0
H501 H 0.63353 0.87228 0.51065 0.0
H502 H 0.64795 0.8252 0.51658 0.0
H503 H 0.64594 0.80556 0.57383 0.0
H504 H 0.71045 0.69307 0.59509 0.0
H505 H 0.67072 0.71534 0.58668 0.0
H506 H 0.66058 0.72952 0.52916 0.0
C507 C 0.63098 0.82901 0.5259 0.0
C508 C 0.64809 0.78834 0.56406 0.0
C509 C 0.62272 0.85604 0.5225 0.0
C510 C 0.71296 0.70392 0.58191 0.0
C511 C 0.6904 0.71704 0.57716 0.0
C512 C 0.65734 0.74591 0.53903 0.0
C513 C 0.62009 0.8094 0.54183 0.0
C514 C 0.63493 0.78609 0.54697 0.0
C515 C 0.69346 0.73249 0.56042 0.0
C516 C 0.67155 0.74921 0.55596 0.0
H517 H 0.57485 0.84782 0.55998 0.0
H518 H 0.58905 0.80034 0.56589 0.0
H519 H 0.62906 0.76167 0.52134 0.0
H520 H 0.76105 0.7218 0.54356 0.0
H521 H 0.72237 0.74582 0.53544 0.0
C522 C 0.78542 0.53498 0.77773 0.0
C523 C 0.75083 0.52355 0.78442 0.0
C524 C 0.79926 0.51168 0.77798 0.0
C525 C 0.82608 0.45887 0.78196 0.0
H526 H 0.81318 0.4346 0.8317 0.0
C527 C 0.90435 0.45497 0.8485 0.0
C528 C 0.93624 0.48677 0.84406 0.0
C529 C 0.8769 0.43856 0.8362 0.0
C530 C 0.81675 0.43978 0.81765 0.0
H531 H 0.70199 0.47728 0.79438 0.0
H532 H 0.72598 0.43663 0.79459 0.0
H533 H 0.76964 0.44395 0.81679 0.0
H534 H 0.96593 0.52419 0.82281 0.0
H535 H 0.91825 0.49697 0.8018 0.0
H536 H 0.87445 0.45655 0.78318 0.0
C537 C 0.74261 0.46373 0.78942 0.0
C538 C 0.79148 0.44526 0.80902 0.0
C539 C 0.72881 0.48706 0.78921 0.0
C540 C 0.94167 0.49964 0.82663 0.0
C541 C 0.91411 0.48371 0.81447 0.0
C542 C 0.85119 0.45282 0.79056 0.0
C543 C 0.77873 0.47652 0.78493 0.0
C544 C 0.79729 0.45754 0.79146 0.0
C545 C 0.88052 0.45429 0.81941 0.0
C546 C 0.84833 0.44616 0.80886 0.0
H547 H 0.80273 0.56271 0.77355 0.0
H548 H 0.8272 0.52247 0.7744 0.0
H549 H 0.83078 0.46746 0.76828 0.0
H550 H 0.89979 0.44409 0.86178 0.0
H551 H 0.85188 0.4152 0.84032 0.0
C552 C 0.27717 0.75255 0.234 0.0
C553 C 0.26488 0.72591 0.22098 0.0
C554 C 0.31366 0.77298 0.23763 0.0
C555 C 0.39182 0.80497 0.24723 0.0
H556 H 0.45171 0.84543 0.20547 0.0
C557 C 0.51984 0.9429 0.24568 0.0
C558 C 0.54841 0.94879 0.23447 0.0
C559 C 0.48834 0.90955 0.24613 0.0
C560 C 0.43566 0.8338 0.21731 0.0
H561 H 0.28104 0.69887 0.20198 0.0
H562 H 0.34482 0.73433 0.20848 0.0
H563 H 0.38993 0.79731 0.20248 0.0
H564 H 0.5672 0.92394 0.21558 0.0
H565 H 0.51199 0.86528 0.21645 0.0
H566 H 0.4373 0.84261 0.26198 0.0
C567 C 0.32621 0.73957 0.21578 0.0
C568 C 0.40019 0.80621 0.21559 0.0
C569 C 0.28967 0.71907 0.21217 0.0
C570 C 0.54558 0.92009 0.22436 0.0
C571 C 0.51393 0.88666 0.22477 0.0
C572 C 0.42734 0.83257 0.24895 0.0
C573 C 0.33865 0.76723 0.22829 0.0
C574 C 0.37759 0.79225 0.23048 0.0
C575 C 0.48469 0.88132 0.23536 0.0
C576 C 0.4493 0.84801 0.23396 0.0
H577 H 0.25862 0.75811 0.24115 0.0
H578 H 0.32241 0.79434 0.24721 0.0
H579 H 0.37518 0.7943 0.25897 0.0
H580 H 0.52153 0.96443 0.25381 0.0
H581 H 0.46622 0.90649 0.2543 0.0
C582 C 0.66427 0.28973 0.46993 0.0
C583 C 0.62697 0.27293 0.46794 0.0
C584 C 0.68429 0.32644 0.47361 0.0
C585 C 0.72244 0.40748 0.47982 0.0
H586 H 0.67723 0.42339 0.52055 0.0
C587 C 0.78733 0.53535 0.52474 0.0
C588 C 0.78494 0.52693 0.54283 0.0
C589 C 0.76924 0.50809 0.51239 0.0
C590 C 0.69006 0.41946 0.5091 0.0
H591 H 0.58171 0.28163 0.46658 0.0
H592 H 0.61678 0.34609 0.47308 0.0
H593 H 0.64274 0.37061 0.50237 0.0
H594 H 0.76349 0.48306 0.56196 0.0
H595 H 0.73131 0.43583 0.54049 0.0
H596 H 0.7703 0.45592 0.48719 0.0
C597 C 0.63047 0.33078 0.47189 0.0
C598 C 0.67022 0.3895 0.49855 0.0
C599 C 0.61046 0.29403 0.46807 0.0
C600 C 0.76522 0.4906 0.5482 0.0
C601 C 0.74685 0.46354 0.53593 0.0
C602 C 0.74224 0.43781 0.49032 0.0
C603 C 0.66727 0.34693 0.47549 0.0
C604 C 0.68647 0.38256 0.48413 0.0
C605 C 0.74813 0.4721 0.51798 0.0
C606 C 0.72646 0.44328 0.50537 0.0
H607 H 0.6776 0.27398 0.46973 0.0
H608 H 0.71253 0.33801 0.47641 0.0
H609 H 0.73557 0.4028 0.46875 0.0
H610 H 0.80198 0.56308 0.52016 0.0
H611 H 0.7706 0.51526 0.49859 0.0
C612 C 0.40805 0.61382 0.83589 0.0
C613 C 0.39626 0.57864 0.8422 0.0
C614 C 0.38439 0.62713 0.83508 0.0
C615 C 0.2883 0.59851 0.83473 0.0
H616 H 0.31687 0.68959 0.85766 0.0
C617 C 0.18604 0.64382 0.84728 0.0
C618 C 0.18407 0.6514 0.86512 0.0
C619 C 0.21601 0.64301 0.84071 0.0
C620 C 0.30866 0.6643 0.85106 0.0
H621 H 0.35031 0.52999 0.8526 0.0
H622 H 0.30909 0.553 0.85091 0.0
H623 H 0.36088 0.67022 0.85302 0.0
H624 H 0.21296 0.66706 0.88968 0.0
H625 H 0.26512 0.6653 0.87831 0.0
H626 H 0.23573 0.59157 0.83356 0.0
C627 C 0.33652 0.57011 0.84641 0.0
C628 C 0.33387 0.65334 0.8483 0.0
C629 C 0.36017 0.55692 0.84737 0.0
C630 C 0.21366 0.66075 0.87593 0.0
C631 C 0.24366 0.66009 0.86935 0.0
C632 C 0.26319 0.60953 0.8374 0.0
C633 C 0.34843 0.60541 0.84039 0.0
C634 C 0.32357 0.61978 0.84064 0.0
C635 C 0.24458 0.64993 0.85185 0.0
C636 C 0.27282 0.64199 0.8461 0.0
H637 H 0.43554 0.63105 0.83153 0.0
H638 H 0.39417 0.65437 0.83029 0.0
H639 H 0.27979 0.5727 0.82861 0.0
H640 H 0.16355 0.63633 0.83866 0.0
H641 H 0.21617 0.63545 0.82712 0.0
C642 C 0.84756 0.4214 0.11302 0.0
C643 C 0.87038 0.40742 0.10973 0.0
C644 C 0.81039 0.39899 0.11234 0.0
C645 C 0.738 0.30323 0.1052 0.0
H646 H 0.71359 0.3124 0.1534 0.0
C647 C 0.68026 0.18751 0.15314 0.0
C648 C 0.66475 0.1894 0.16915 0.0
C649 C 0.68912 0.21376 0.14011 0.0
C650 C 0.71881 0.30944 0.13971 0.0
H651 H 0.87247 0.36042 0.10096 0.0
H652 H 0.80803 0.32133 0.10001 0.0
H653 H 0.7617 0.36374 0.13859 0.0
H654 H 0.6424 0.21755 0.18329 0.0
H655 H 0.65713 0.26313 0.16032 0.0
H656 H 0.69635 0.24794 0.1069 0.0
C657 C 0.81847 0.34954 0.10298 0.0
C658 C 0.74671 0.33922 0.13113 0.0
C659 C 0.85559 0.37197 0.1036 0.0
C660 C 0.65501 0.21594 0.17118 0.0
C661 C 0.66345 0.24199 0.15802 0.0
C662 C 0.70979 0.2734 0.11376 0.0
C663 C 0.79548 0.36219 0.10848 0.0
C664 C 0.75834 0.33572 0.11427 0.0
C665 C 0.68246 0.24239 0.14274 0.0
C666 C 0.70175 0.27551 0.13159 0.0
H667 H 0.85835 0.44896 0.11737 0.0
H668 H 0.79337 0.40972 0.11628 0.0
H669 H 0.7458 0.29997 0.09202 0.0
H670 H 0.68825 0.16747 0.15122 0.0
H671 H 0.70406 0.21318 0.12869 0.0
C672 C 0.08499 0.57951 0.10969 0.0
C673 C 0.07498 0.60027 0.11997 0.0
C674 C 0.07833 0.57587 0.09163 0.0
C675 C 1.02189 0.58393 0.05777 0.0
H676 H 0.09605 0.59269 0.02539 0.0
C677 C 1.04543 0.5684 0.97874 0.0
C678 C 1.03011 0.58775 0.97152 0.0
C679 C 1.04875 0.56681 0.99697 0.0
C680 C 0.07483 0.5896 0.03426 0.0
H681 H 1.0505 0.63377 0.11956 0.0
H682 H 1.03917 0.62778 0.08793 0.0
H683 H 0.10647 0.59632 0.05701 0.0
H684 H 1.00505 0.61944 0.97782 0.0
H685 H 1.01152 0.61732 0.00956 0.0
H686 H 0.99032 0.57743 0.03502 0.0
C687 C 1.05171 0.61389 0.09384 0.0
C688 C 0.08084 0.59175 0.05238 0.0
C689 C 1.05847 0.6176 0.1119 0.0
C690 C 1.01737 0.60468 0.98295 0.0
C691 C 1.0207 0.6031 0.00117 0.0
C692 C 1.01584 0.5817 0.03965 0.0
C693 C 1.06151 0.59294 0.08352 0.0
C694 C 1.05457 0.58928 0.06432 0.0
C695 C 1.03682 0.58451 0.00838 0.0
C696 C 1.04237 0.58483 0.02768 0.0
H697 H 0.09791 0.56601 0.11562 0.0
H698 H 0.08594 0.55932 0.08405 0.0
H699 H 1.0009 0.58132 0.06666 0.0
H700 H 1.0558 0.55532 0.9703 0.0
H701 H 1.06089 0.55189 0.00212 0.0
C702 C 0.57985 0.05222 0.44089 0.0
C703 C 0.60842 0.05791 0.45169 0.0
C704 C 0.58619 0.06316 0.42317 0.0
C705 C 0.65432 0.0864 0.38774 0.0
H706 H 0.6023 0.12598 0.36393 0.0
C707 C 0.69277 0.1431 0.31759 0.0
C708 C 0.66436 0.12895 0.3056 0.0
C709 C 0.68588 0.13866 0.33571 0.0
C710 C 0.61695 0.1149 0.37044 0.0
H711 H 0.66598 0.08051 0.45279 0.0
H712 H 0.67717 0.10031 0.42224 0.0
H713 H 0.58983 0.10894 0.39511 0.0
H714 H 0.60639 0.10059 0.30335 0.0
H715 H 0.59451 0.09342 0.33499 0.0
H716 H 0.68154 0.09248 0.36319 0.0
C717 C 0.64975 0.0865 0.42711 0.0
C718 C 0.6097 0.10496 0.38825 0.0
C719 C 0.64337 0.07528 0.44467 0.0
C720 C 0.62894 0.11221 0.31219 0.0
C721 C 0.62207 0.10799 0.33033 0.0
C722 C 0.66176 0.09662 0.37006 0.0
C723 C 0.62125 0.08018 0.41605 0.0
C724 C 0.62837 0.09062 0.39711 0.0
C725 C 0.65047 0.1202 0.34223 0.0
C726 C 0.64321 0.11098 0.36122 0.0
H727 H 0.55264 1.03893 0.44606 0.0
H728 H 0.56358 0.05761 0.41499 0.0
H729 H 0.6686 0.07463 0.39398 0.0
H730 H 0.72035 0.15674 0.31296 0.0
H731 H 0.7083 0.14889 0.34463 0.0
C732 C 0.5939 0.52333 0.77715 0.0
C733 C 0.59917 0.55493 0.78536 0.0
C734 C 0.61619 0.52543 0.76309 0.0
C735 C 0.70676 0.58346 0.74602 0.0
H736 H 0.67135 0.53873 0.70076 0.0
C737 C 0.79371 0.63083 0.68327 0.0
C738 C 0.78688 0.60659 0.66944 0.0
C739 C 0.77259 0.61972 0.69858 0.0
C740 C 0.68182 0.55071 0.71343 0.0
H741 H 0.62983 0.61331 0.7847 0.0
H742 H 0.66898 0.61695 0.76037 0.0
H743 H 0.62903 0.528 0.72479 0.0
H744 H 0.75379 0.55096 0.66137 0.0
H745 H 0.71789 0.53122 0.6884 0.0
H746 H 0.75946 0.60609 0.73488 0.0
C747 C 0.64809 0.59065 0.7649 0.0
C748 C 0.65749 0.54469 0.72714 0.0
C749 C 0.62565 0.58856 0.77875 0.0
C750 C 0.75994 0.57034 0.67179 0.0
C751 C 0.73897 0.55913 0.68719 0.0
C752 C 0.73111 0.58902 0.73244 0.0
C753 C 0.6441 0.55912 0.75721 0.0
C754 C 0.66973 0.56186 0.74337 0.0
C755 C 0.74432 0.58394 0.70056 0.0
C756 C 0.71892 0.57363 0.71579 0.0
H757 H 0.57368 0.49706 0.78206 0.0
H758 H 0.61259 0.50077 0.75731 0.0
H759 H 0.71687 0.59656 0.75853 0.0
H760 H 0.81463 0.6588 0.68203 0.0
H761 H 0.77743 0.63975 0.70848 0.0
C762 C 0.53197 0.0681 0.55618 0.0
C763 C 0.55997 0.07064 0.54554 0.0
C764 C 0.53398 0.06749 0.5746 0.0
C765 C 0.59985 0.08725 0.61081 0.0
H766 H 0.51384 1.03325 0.63945 0.0
C767 C 0.60313 0.05758 0.68497 0.0
C768 C 0.58293 0.06688 0.69617 0.0
C769 C 0.59929 0.0574 0.66668 0.0
C770 C 0.53804 0.04857 0.63159 0.0
H771 H 0.61191 0.07423 0.54581 0.0
H772 H 0.61467 0.07119 0.57766 0.0
H773 H 0.5092 1.03371 0.60742 0.0
H774 H 0.5422 0.08237 0.69703 0.0
H775 H 0.53479 0.08113 0.66497 0.0
H776 H 0.62865 0.10097 0.63507 0.0
C777 C 0.59158 0.07091 0.57201 0.0
C778 C 0.53545 0.04907 0.61321 0.0
C779 C 0.58984 0.0722 0.55366 0.0
C780 C 0.55817 0.07518 0.6887 0.0
C781 C 0.55382 0.07432 0.6704 0.0
C782 C 0.60245 0.08617 0.62914 0.0
C783 C 0.56385 0.06887 0.58282 0.0
C784 C 0.56634 0.06842 0.6025 0.0
C785 C 0.57469 0.06589 0.65919 0.0
C786 C 0.57161 0.06685 0.63972 0.0
H787 H 0.5087 0.06709 0.55028 0.0
H788 H 0.51231 0.06653 0.58236 0.0
H789 H 0.62424 0.10327 0.60322 0.0
H790 H 0.62263 0.05138 0.69034 0.0
H791 H 0.61557 0.05062 0.65835 0.0
C792 C 0.6326 0.61318 0.89396 0.0
C793 C 0.61233 0.58388 0.88284 0.0
C794 C 0.62703 0.60969 0.91221 0.0
C795 C 0.58949 0.54101 0.94801 0.0
H796 H 0.59714 0.62058 0.97556 0.0
C797 C 0.55656 0.52748 0.02274 0.0
C798 C 0.57951 0.55637 0.03357 0.0
C799 C 0.55964 0.53077 0.00437 0.0
C800 C 0.59528 0.59823 0.96809 0.0
H801 H 0.56973 0.52811 0.88209 0.0
H802 H 0.55952 0.52204 0.914 0.0
H803 H 0.60303 0.62615 0.94356 0.0
H804 H 0.62394 0.61143 0.03337 0.0
H805 H 0.62917 0.61722 0.00132 0.0
H806 H 0.5817 0.51309 0.97257 0.0
C807 C 0.58021 0.54762 0.90864 0.0
C808 C 0.59864 0.6014 0.94971 0.0
C809 C 0.58586 0.55113 0.89034 0.0
C810 C 0.60549 0.58876 0.02549 0.0
C811 C 0.6085 0.59209 0.00709 0.0
C812 C 0.58602 0.5378 0.96639 0.0
C813 C 0.60092 0.5768 0.91985 0.0
C814 C 0.59599 0.57291 0.93941 0.0
C815 C 0.58567 0.56309 0.99628 0.0
C816 C 0.58902 0.56642 0.97668 0.0
H817 H 0.65324 0.63877 0.88857 0.0
H818 H 0.64384 0.6326 0.92037 0.0
H819 H 0.58789 0.51873 0.94059 0.0
H820 H 0.53573 0.50236 0.02844 0.0
H821 H 0.54121 0.50809 0.99648 0.0
C822 C 0.06834 0.50675 0.22064 0.0
C823 C 1.0562 0.52749 0.21191 0.0
C824 C 0.07069 0.50727 0.23904 0.0
C825 C 0.07599 0.56153 0.27811 0.0
H826 H 1.04816 0.47267 0.30367 0.0
C827 C 0.06895 0.55349 0.35455 0.0
C828 C 0.08173 0.53269 0.36275 0.0
C829 C 1.06481 0.55267 0.33622 0.0
C830 C 1.05642 0.49783 0.29675 0.0
H831 H 1.03641 0.5646 0.21562 0.0
H832 H 1.04046 0.56557 0.24772 0.0
H833 H 1.04323 0.47173 0.2717 0.0
H834 H 0.09938 0.49408 0.35799 0.0
H835 H 0.09287 0.49321 0.32617 0.0
H836 H 0.08936 0.58766 0.30316 0.0
C837 C 1.04869 0.54926 0.24037 0.0
C838 C 1.05359 0.49728 0.27838 0.0
C839 C 1.04627 0.54864 0.22197 0.0
C840 C 0.08991 0.51082 0.35215 0.0
C841 C 0.08573 0.50997 0.33387 0.0
C842 C 0.07887 0.56209 0.29649 0.0
C843 C 1.06092 0.52857 0.24916 0.0
C844 C 1.06348 0.52913 0.26879 0.0
C845 C 0.07321 0.53094 0.32563 0.0
C846 C 0.06927 0.53026 0.30607 0.0
H847 H 0.07628 0.49025 0.21324 0.0
H848 H 0.08066 0.49136 0.24532 0.0
H849 H 0.08431 0.58667 0.27116 0.0
H850 H 1.06266 0.57087 0.36225 0.0
H851 H 1.05474 0.5689 0.33038 0.0
loop_
_geom_bond_atom_site_label_1
_geom_bond_atom_site_label_2
_geom_bond_distance
_geom_bond_site_symmetry_2
_ccdc_geom_bond_type
C0 Eu1 2.835 1_655 S
C0 C2 1.500 . S
C0 O20 1.257 . S
C0 O21 1.260 . S
Eu1 C0 2.835 1_455 S
Eu1 O20 2.473 1_455 S
Eu1 O21 2.480 1_455 S
Eu1 O22 2.430 . S
Eu1 O23 2.670 . S
Eu1 O24 2.394 1_455 S
Eu1 O29 2.355 . S
Eu1 O31 2.374 . S
C2 C0 1.500 . S
C2 C3 1.377 . S
C2 C7 1.377 . S
C3 C2 1.377 . S
C3 C4 1.395 . S
C3 H32 0.931 . S
C4 C3 1.395 . S
C4 C5 1.383 . S
C4 H33 0.931 . S
C5 C4 1.383 . S
C5 C6 1.394 . S
C6 C5 1.394 . S
C6 C7 1.378 . S
C6 H34 0.931 . S
C7 C2 1.377 . S
C7 C6 1.378 . S
C7 H35 0.931 . S
C8 O22 1.259 . S
C8 O23 1.270 . S
C9 O24 1.251 . S
C9 O25 1.251 . S
C10 Eu11 2.835 . S
C10 C12 1.500 . S
C10 O26 1.257 . S
C10 O27 1.260 . S
Eu11 C10 2.835 . S
Eu11 O23 2.355 . S
Eu11 O25 2.374 1_455 S
Eu11 O26 2.473 . S
Eu11 O27 2.480 . S
Eu11 O28 2.430 . S
Eu11 O29 2.670 . S
Eu11 O30 2.394 . S
C12 C10 1.500 . S
C12 C13 1.377 . S
C12 C17 1.377 . S
C13 C12 1.377 . S
C13 C14 1.395 . S
C13 H36 0.931 . S
C14 C13 1.395 . S
C14 C15 1.383 . S
C14 H37 0.931 . S
C15 C14 1.383 . S
C15 C16 1.394 . S
C16 C15 1.394 . S
C16 C17 1.378 . S
C16 H38 0.931 . S
C17 C12 1.377 . S
C17 C16 1.378 . S
C17 H39 0.931 . S
C18 O28 1.259 . S
C18 O29 1.270 . S
C19 O30 1.251 . S
C19 O31 1.251 . S
O20 C0 1.257 . S
O20 Eu1 2.473 1_655 S
O21 C0 1.260 . S
O21 Eu1 2.480 1_655 S
O22 Eu1 2.430 . S
O22 C8 1.259 . S
O23 Eu1 2.670 . S
O23 C8 1.270 . S
O23 Eu11 2.355 . S
O24 Eu1 2.394 1_655 S
O24 C9 1.251 . S
O25 C9 1.251 . S
O25 Eu11 2.374 1_655 S
O26 C10 1.257 . S
O26 Eu11 2.473 . S
O27 C10 1.260 . S
O27 Eu11 2.480 . S
O28 Eu11 2.430 . S
O28 C18 1.259 . S
O29 Eu1 2.355 . S
O29 Eu11 2.670 . S
O29 C18 1.270 . S
O30 Eu11 2.394 . S
O30 C19 1.251 . S
O31 Eu1 2.374 . S
O31 C19 1.251 . S
H32 C3 0.931 . S
H33 C4 0.931 . S
H34 C6 0.931 . S
H35 C7 0.931 . S
H36 C13 0.931 . S
H37 C14 0.931 . S
H38 C16 0.931 . S
H39 C17 0.931 . S
C40 Eu41 2.835 . S
C40 C42 1.500 . S
C40 O60 1.257 . S
C40 O61 1.260 . S
Eu41 C40 2.835 . S
Eu41 O60 2.473 . S
Eu41 O61 2.480 . S
Eu41 O62 2.430 . S
Eu41 O63 2.670 . S
Eu41 O64 2.394 . S
Eu41 O69 2.355 . S
Eu41 O71 2.374 1_545 S
C42 C40 1.500 . S
C42 C43 1.377 . S
C42 C47 1.377 . S
C43 C42 1.377 . S
C43 C44 1.395 . S
C43 H72 0.931 . S
C44 C43 1.395 . S
C44 C45 1.383 . S
C44 H73 0.931 . S
C45 C44 1.383 . S
C45 C46 1.394 . S
C46 C45 1.394 . S
C46 C47 1.378 . S
C46 H74 0.931 . S
C47 C42 1.377 . S
C47 C46 1.378 . S
C47 H75 0.931 . S
C48 O62 1.259 . S
C48 O63 1.270 . S
C49 O64 1.251 . S
C49 O65 1.251 . S
C50 Eu51 2.835 1_565 S
C50 C52 1.500 . S
C50 O66 1.257 . S
C50 O67 1.260 . S
Eu51 C50 2.835 1_545 S
Eu51 O63 2.355 . S
Eu51 O65 2.374 . S
Eu51 O66 2.473 1_545 S
Eu51 O67 2.480 1_545 S
Eu51 O68 2.430 . S
Eu51 O69 2.670 . S
Eu51 O70 2.394 1_545 S
C52 C50 1.500 . S
C52 C53 1.377 . S
C52 C57 1.377 . S
C53 C52 1.377 . S
C53 C54 1.395 . S
C53 H76 0.931 . S
C54 C53 1.395 . S
C54 C55 1.383 . S
C54 H77 0.931 . S
C55 C54 1.383 . S
C55 C56 1.394 . S
C56 C55 1.394 . S
C56 C57 1.378 . S
C56 H78 0.931 . S
C57 C52 1.377 . S
C57 C56 1.378 . S
C57 H79 0.931 . S
C58 O68 1.259 . S
C58 O69 1.270 . S
C59 O70 1.251 . S
C59 O71 1.251 . S
O60 C40 1.257 . S
O60 Eu41 2.473 . S
O61 C40 1.260 . S
O61 Eu41 2.480 . S
O62 Eu41 2.430 . S
O62 C48 1.259 . S
O63 Eu41 2.670 . S
O63 C48 1.270 . S
O63 Eu51 2.355 . S
O64 Eu41 2.394 . S
O64 C49 1.251 . S
O65 C49 1.251 . S
O65 Eu51 2.374 . S
O66 C50 1.257 . S
O66 Eu51 2.473 1_565 S
O67 C50 1.260 . S
O67 Eu51 2.480 1_565 S
O68 Eu51 2.430 . S
O68 C58 1.259 . S
O69 Eu41 2.355 . S
O69 Eu51 2.670 . S
O69 C58 1.270 . S
O70 Eu51 2.394 1_565 S
O70 C59 1.251 . S
O71 Eu41 2.374 1_565 S
O71 C59 1.251 . S
H72 C43 0.931 . S
H73 C44 0.931 . S
H74 C46 0.931 . S
H75 C47 0.931 . S
H76 C53 0.931 . S
H77 C54 0.931 . S
H78 C56 0.931 . S
H79 C57 0.931 . S
C80 Eu81 2.835 . S
C80 C82 1.500 . S
C80 O100 1.257 . S
C80 O101 1.260 . S
Eu81 C80 2.835 . S
Eu81 O100 2.473 . S
Eu81 O101 2.480 . S
Eu81 O102 2.430 . S
Eu81 O103 2.670 . S
Eu81 O104 2.394 . S
Eu81 O109 2.355 . S
Eu81 O111 2.374 . S
C82 C80 1.500 . S
C82 C83 1.377 . S
C82 C87 1.377 . S
C83 C82 1.377 . S
C83 C84 1.395 . S
C83 H112 0.931 . S
C84 C83 1.395 . S
C84 C85 1.383 . S
C84 H113 0.931 . S
C85 C84 1.383 . S
C85 C86 1.394 . S
C86 C85 1.394 . S
C86 C87 1.378 . S
C86 H114 0.931 . S
C87 C82 1.377 . S
C87 C86 1.378 . S
C87 H115 0.931 . S
C88 O102 1.259 . S
C88 O103 1.270 . S
C89 O104 1.251 . S
C89 O105 1.251 . S
C90 Eu91 2.835 . S
C90 C92 1.500 . S
C90 O106 1.257 . S
C90 O107 1.260 . S
Eu91 C90 2.835 . S
Eu91 O103 2.355 . S
Eu91 O105 2.374 . S
Eu91 O106 2.473 . S
Eu91 O107 2.480 . S
Eu91 O108 2.430 . S
Eu91 O109 2.670 . S
Eu91 O110 2.394 . S
C92 C90 1.500 . S
C92 C93 1.377 . S
C92 C97 1.377 . S
C93 C92 1.377 . S
C93 C94 1.395 . S
C93 H116 0.931 . S
C94 C93 1.395 . S
C94 C95 1.383 . S
C94 H117 0.931 . S
C95 C94 1.383 . S
C95 C96 1.394 . S
C96 C95 1.394 . S
C96 C97 1.378 . S
C96 H118 0.931 . S
C97 C92 1.377 . S
C97 C96 1.378 . S
C97 H119 0.931 . S
C98 O108 1.259 . S
C98 O109 1.270 . S
C99 O110 1.251 . S
C99 O111 1.251 . S
O100 C80 1.257 . S
O100 Eu81 2.473 . S
O101 C80 1.260 . S
O101 Eu81 2.480 . S
O102 Eu81 2.430 . S
O102 C88 1.259 . S
O103 Eu81 2.670 . S
O103 C88 1.270 . S
O103 Eu91 2.355 . S
O104 Eu81 2.394 . S
O104 C89 1.251 . S
O105 C89 1.251 . S
O105 Eu91 2.374 . S
O106 C90 1.257 . S
O106 Eu91 2.473 . S
O107 C90 1.260 . S
O107 Eu91 2.480 . S
O108 Eu91 2.430 . S
O108 C98 1.259 . S
O109 Eu81 2.355 . S
O109 Eu91 2.670 . S
O109 C98 1.270 . S
O110 Eu91 2.394 . S
O110 C99 1.251 . S
O111 Eu81 2.374 . S
O111 C99 1.251 . S
H112 C83 0.931 . S
H113 C84 0.931 . S
H114 C86 0.931 . S
H115 C87 0.931 . S
H116 C93 0.931 . S
H117 C94 0.931 . S
H118 C96 0.931 . S
H119 C97 0.931 . S
P120 O131 1.490 . S
P120 C134 1.812 . S
P120 C140 1.803 . S
P120 C146 1.819 . S
H121 C135 0.941 . S
H122 C136 0.939 . S
H123 C138 0.940 . S
H124 C139 0.940 . S
H125 C141 0.939 . S
H126 C142 0.942 . S
H127 C144 0.940 . S
H128 C145 0.939 . S
H129 C147 0.941 1_565 S
H130 C151 0.939 . S
O131 P120 1.490 . S
H132 C148 0.939 1_565 S
H133 C150 0.940 . S
C134 P120 1.812 . S
C134 C135 1.389 1_545 S
C134 C139 1.391 . S
C135 H121 0.941 . S
C135 C134 1.389 1_565 S
C135 C136 1.397 . S
C136 H122 0.939 . S
C136 C135 1.397 . S
C136 C137 1.378 . S
C137 C136 1.378 . S
C137 C138 1.378 . S
C138 H123 0.940 . S
C138 C137 1.378 . S
C138 C139 1.396 1_565 S
C139 H124 0.940 . S
C139 C134 1.391 . S
C139 C138 1.396 1_545 S
C140 P120 1.803 . S
C140 C141 1.378 . S
C140 C145 1.400 . S
C141 H125 0.939 . S
C141 C140 1.378 . S
C141 C142 1.361 . S
C142 H126 0.942 . S
C142 C141 1.361 . S
C142 C143 1.369 . S
C143 C142 1.369 . S
C143 C144 1.404 . S
C144 H127 0.940 . S
C144 C143 1.404 . S
C144 C145 1.389 . S
C145 H128 0.939 . S
C145 C140 1.400 . S
C145 C144 1.389 . S
C146 P120 1.819 . S
C146 C147 1.391 . S
C146 C151 1.391 . S
C147 H129 0.941 1_545 S
C147 C146 1.391 . S
C147 C148 1.396 . S
C148 H132 0.939 1_545 S
C148 C147 1.396 . S
C148 C149 1.397 . S
C149 C148 1.397 . S
C149 C150 1.385 . S
C150 H133 0.940 . S
C150 C149 1.385 . S
C150 C151 1.388 . S
C151 H130 0.939 . S
C151 C146 1.391 . S
C151 C150 1.388 . S
P152 O163 1.490 . S
P152 C166 1.812 . S
P152 C172 1.803 . S
P152 C178 1.819 . S
H153 C167 0.941 . S
H154 C168 0.939 . S
H155 C170 0.940 . S
H156 C171 0.940 . S
H157 C173 0.939 . S
H158 C174 0.942 . S
H159 C176 0.940 . S
H160 C177 0.939 . S
H161 C179 0.941 . S
H162 C183 0.939 . S
O163 P152 1.490 . S
H164 C180 0.939 . S
H165 C182 0.940 . S
C166 P152 1.812 . S
C166 C167 1.389 . S
C166 C171 1.391 . S
C167 H153 0.941 . S
C167 C166 1.389 . S
C167 C168 1.397 . S
C168 H154 0.939 . S
C168 C167 1.397 . S
C168 C169 1.378 . S
C169 C168 1.378 . S
C169 C170 1.378 . S
C170 H155 0.940 . S
C170 C169 1.378 . S
C170 C171 1.396 . S
C171 H156 0.940 . S
C171 C166 1.391 . S
C171 C170 1.396 . S
C172 P152 1.803 . S
C172 C173 1.378 . S
C172 C177 1.400 . S
C173 H157 0.939 . S
C173 C172 1.378 . S
C173 C174 1.361 . S
C174 H158 0.942 . S
C174 C173 1.361 . S
C174 C175 1.369 . S
C175 C174 1.369 . S
C175 C176 1.404 . S
C176 H159 0.940 . S
C176 C175 1.404 . S
C176 C177 1.389 . S
C177 H160 0.939 . S
C177 C172 1.400 . S
C177 C176 1.389 . S
C178 P152 1.819 . S
C178 C179 1.391 . S
C178 C183 1.391 . S
C179 H161 0.941 . S
C179 C178 1.391 . S
C179 C180 1.396 . S
C180 H164 0.939 . S
C180 C179 1.396 . S
C180 C181 1.397 . S
C181 C180 1.397 . S
C181 C182 1.385 . S
C182 H165 0.940 . S
C182 C181 1.385 . S
C182 C183 1.388 . S
C183 H162 0.939 . S
C183 C178 1.391 . S
C183 C182 1.388 . S
P184 O195 1.490 . S
P184 C198 1.812 . S
P184 C204 1.803 1_455 S
P184 C210 1.819 . S
H185 C199 0.941 . S
H186 C200 0.939 . S
H187 C202 0.940 . S
H188 C203 0.940 . S
H189 C205 0.939 . S
H190 C206 0.942 . S
H191 C208 0.940 . S
H192 C209 0.939 . S
H193 C211 0.941 . S
H194 C215 0.939 . S
O195 P184 1.490 . S
H196 C212 0.939 . S
H197 C214 0.940 . S
C198 P184 1.812 . S
C198 C199 1.389 . S
C198 C203 1.391 . S
C199 H185 0.941 . S
C199 C198 1.389 . S
C199 C200 1.397 . S
C200 H186 0.939 . S
C200 C199 1.397 . S
C200 C201 1.378 . S
C201 C200 1.378 . S
C201 C202 1.378 . S
C202 H187 0.940 . S
C202 C201 1.378 . S
C202 C203 1.396 . S
C203 H188 0.940 . S
C203 C198 1.391 . S
C203 C202 1.396 . S
C204 P184 1.803 1_655 S
C204 C205 1.378 . S
C204 C209 1.400 . S
C205 H189 0.939 . S
C205 C204 1.378 . S
C205 C206 1.361 . S
C206 H190 0.942 . S
C206 C205 1.361 . S
C206 C207 1.369 . S
C207 C206 1.369 . S
C207 C208 1.404 . S
C208 H191 0.940 . S
C208 C207 1.404 . S
C208 C209 1.389 . S
C209 H192 0.939 . S
C209 C204 1.400 . S
C209 C208 1.389 . S
C210 P184 1.819 . S
C210 C211 1.391 . S
C210 C215 1.391 1_455 S
C211 H193 0.941 . S
C211 C210 1.391 . S
C211 C212 1.396 . S
C212 H196 0.939 . S
C212 C211 1.396 . S
C212 C213 1.397 . S
C213 C212 1.397 . S
C213 C214 1.385 1_455 S
C214 H197 0.940 . S
C214 C213 1.385 1_655 S
C214 C215 1.388 . S
C215 H194 0.939 . S
C215 C210 1.391 1_655 S
C215 C214 1.388 . S
P216 O227 1.490 . S
P216 C230 1.812 . S
P216 C236 1.803 . S
P216 C242 1.819 . S
H217 C231 0.941 . S
H218 C232 0.939 . S
H219 C234 0.940 . S
H220 C235 0.940 . S
H221 C237 0.939 . S
H222 C238 0.942 . S
H223 C240 0.940 . S
H224 C241 0.939 . S
H225 C243 0.941 . S
H226 C247 0.939 . S
O227 P216 1.490 . S
H228 C244 0.939 . S
H229 C246 0.940 . S
C230 P216 1.812 . S
C230 C231 1.389 . S
C230 C235 1.391 . S
C231 H217 0.941 . S
C231 C230 1.389 . S
C231 C232 1.397 . S
C232 H218 0.939 . S
C232 C231 1.397 . S
C232 C233 1.378 . S
C233 C232 1.378 . S
C233 C234 1.378 . S
C234 H219 0.940 . S
C234 C233 1.378 . S
C234 C235 1.396 . S
C235 H220 0.940 . S
C235 C230 1.391 . S
C235 C234 1.396 . S
C236 P216 1.803 . S
C236 C237 1.378 . S
C236 C241 1.400 . S
C237 H221 0.939 . S
C237 C236 1.378 . S
C237 C238 1.361 1_455 S
C238 H222 0.942 . S
C238 C237 1.361 1_655 S
C238 C239 1.369 . S
C239 C238 1.369 . S
C239 C240 1.404 . S
C240 H223 0.940 . S
C240 C239 1.404 . S
C240 C241 1.389 1_655 S
C241 H224 0.939 . S
C241 C236 1.400 . S
C241 C240 1.389 1_455 S
C242 P216 1.819 . S
C242 C243 1.391 . S
C242 C247 1.391 . S
C243 H225 0.941 . S
C243 C242 1.391 . S
C243 C244 1.396 . S
C244 H228 0.939 . S
C244 C243 1.396 . S
C244 C245 1.397 . S
C245 C244 1.397 . S
C245 C246 1.385 . S
C246 H229 0.940 . S
C246 C245 1.385 . S
C246 C247 1.388 . S
C247 H226 0.939 . S
C247 C242 1.391 . S
C247 C246 1.388 . S
P248 O259 1.490 . S
P248 C262 1.812 . S
P248 C268 1.803 1_545 S
P248 C274 1.819 . S
H249 C263 0.941 . S
H250 C264 0.939 . S
H251 C266 0.940 . S
H252 C267 0.940 . S
H253 C269 0.939 . S
H254 C270 0.942 . S
H255 C272 0.940 . S
H256 C273 0.939 . S
H257 C275 0.941 . S
H258 C279 0.939 . S
O259 P248 1.490 . S
H260 C276 0.939 . S
H261 C278 0.940 . S
C262 P248 1.812 . S
C262 C263 1.389 . S
C262 C267 1.391 . S
C263 H249 0.941 . S
C263 C262 1.389 . S
C263 C264 1.397 . S
C264 H250 0.939 . S
C264 C263 1.397 . S
C264 C265 1.378 . S
C265 C264 1.378 . S
C265 C266 1.378 . S
C266 H251 0.940 . S
C266 C265 1.378 . S
C266 C267 1.396 . S
C267 H252 0.940 . S
C267 C262 1.391 . S
C267 C266 1.396 . S
C268 P248 1.803 1_565 S
C268 C269 1.378 . S
C268 C273 1.400 . S
C269 H253 0.939 . S
C269 C268 1.378 . S
C269 C270 1.361 . S
C270 H254 0.942 . S
C270 C269 1.361 . S
C270 C271 1.369 . S
C271 C270 1.369 . S
C271 C272 1.404 . S
C272 H255 0.940 . S
C272 C271 1.404 . S
C272 C273 1.389 . S
C273 H256 0.939 . S
C273 C268 1.400 . S
C273 C272 1.389 . S
C274 P248 1.819 . S
C274 C275 1.391 . S
C274 C279 1.391 1_545 S
C275 H257 0.941 . S
C275 C274 1.391 . S
C275 C276 1.396 . S
C276 H260 0.939 . S
C276 C275 1.396 . S
C276 C277 1.397 . S
C277 C276 1.397 . S
C277 C278 1.385 1_545 S
C278 H261 0.940 . S
C278 C277 1.385 1_565 S
C278 C279 1.388 . S
C279 H258 0.939 . S
C279 C274 1.391 1_565 S
C279 C278 1.388 . S
P280 O291 1.490 . S
P280 C294 1.812 . S
P280 C300 1.803 . S
P280 C306 1.819 . S
H281 C295 0.941 . S
H282 C296 0.939 . S
H283 C298 0.940 . S
H284 C299 0.940 . S
H285 C301 0.939 . S
H286 C302 0.942 . S
H287 C304 0.940 . S
H288 C305 0.939 . S
H289 C307 0.941 . S
H290 C311 0.939 . S
O291 P280 1.490 . S
H292 C308 0.939 . S
H293 C310 0.940 . S
C294 P280 1.812 . S
C294 C295 1.389 . S
C294 C299 1.391 . S
C295 H281 0.941 . S
C295 C294 1.389 . S
C295 C296 1.397 . S
C296 H282 0.939 . S
C296 C295 1.397 . S
C296 C297 1.378 . S
C297 C296 1.378 . S
C297 C298 1.378 . S
C298 H283 0.940 . S
C298 C297 1.378 . S
C298 C299 1.396 . S
C299 H284 0.940 . S
C299 C294 1.391 . S
C299 C298 1.396 . S
C300 P280 1.803 . S
C300 C301 1.378 . S
C300 C305 1.400 . S
C301 H285 0.939 . S
C301 C300 1.378 . S
C301 C302 1.361 . S
C302 H286 0.942 . S
C302 C301 1.361 . S
C302 C303 1.369 . S
C303 C302 1.369 . S
C303 C304 1.404 . S
C304 H287 0.940 . S
C304 C303 1.404 . S
C304 C305 1.389 . S
C305 H288 0.939 . S
C305 C300 1.400 . S
C305 C304 1.389 . S
C306 P280 1.819 . S
C306 C307 1.391 . S
C306 C311 1.391 . S
C307 H289 0.941 . S
C307 C306 1.391 . S
C307 C308 1.396 . S
C308 H292 0.939 . S
C308 C307 1.396 . S
C308 C309 1.397 . S
C309 C308 1.397 . S
C309 C310 1.385 . S
C310 H293 0.940 . S
C310 C309 1.385 . S
C310 C311 1.388 . S
C311 H290 0.939 . S
C311 C306 1.391 . S
C311 C310 1.388 . S
C312 C313 1.349 . S
C312 C314 1.327 . S
C312 H337 0.950 . S
C313 C312 1.349 . S
C313 C329 1.349 . S
C314 C312 1.327 . S
C314 C333 1.429 . S
C314 H338 0.950 . S
C315 C332 1.574 . S
C315 C334 1.368 . S
C315 H339 0.949 . S
H316 C320 0.949 . S
C317 C318 1.349 . S
C317 C319 1.327 . S
C317 H340 0.950 . S
C318 C317 1.349 . S
C318 C330 1.349 . S
C319 C317 1.327 . S
C319 C335 1.429 . S
C319 H341 0.950 . S
C320 H316 0.949 . S
C320 C328 1.574 . S
C320 C336 1.368 . S
H321 C329 0.950 . S
H322 C327 0.950 . S
H323 C328 0.949 . S
H324 C330 0.950 . S
H325 C331 0.950 . S
H326 C332 0.949 . S
C327 H322 0.950 . S
C327 C329 1.327 . S
C327 C333 1.429 . S
C328 C320 1.574 . S
C328 H323 0.949 . S
C328 C334 1.368 . S
C329 C313 1.349 . S
C329 H321 0.950 . S
C329 C327 1.327 . S
C330 C318 1.349 . S
C330 H324 0.950 . S
C330 C331 1.327 . S
C331 H325 0.950 . S
C331 C330 1.327 . S
C331 C335 1.429 . S
C332 C315 1.574 . S
C332 H326 0.949 . S
C332 C336 1.368 . S
C333 C314 1.429 . S
C333 C327 1.429 . S
C333 C334 1.523 . S
C334 C315 1.368 . S
C334 C328 1.368 . S
C334 C333 1.523 . S
C335 C319 1.429 . S
C335 C331 1.429 . S
C335 C336 1.523 . S
C336 C320 1.368 . S
C336 C332 1.368 . S
C336 C335 1.523 . S
H337 C312 0.950 . S
H338 C314 0.950 . S
H339 C315 0.949 . S
H340 C317 0.950 . S
H341 C319 0.950 . S
C342 C343 1.349 . S
C342 C344 1.327 . S
C342 H367 0.950 . S
C343 C342 1.349 . S
C343 C359 1.349 . S
C344 C342 1.327 . S
C344 C363 1.429 . S
C344 H368 0.950 . S
C345 C362 1.574 . S
C345 C364 1.368 . S
C345 H369 0.949 . S
H346 C350 0.949 . S
C347 C348 1.349 . S
C347 C349 1.327 . S
C347 H370 0.950 . S
C348 C347 1.349 . S
C348 C360 1.349 . S
C349 C347 1.327 . S
C349 C365 1.429 . S
C349 H371 0.950 . S
C350 H346 0.949 . S
C350 C358 1.574 . S
C350 C366 1.368 . S
H351 C359 0.950 . S
H352 C357 0.950 . S
H353 C358 0.949 . S
H354 C360 0.950 . S
H355 C361 0.950 . S
H356 C362 0.949 . S
C357 H352 0.950 . S
C357 C359 1.327 . S
C357 C363 1.429 . S
C358 C350 1.574 . S
C358 H353 0.949 . S
C358 C364 1.368 . S
C359 C343 1.349 . S
C359 H351 0.950 . S
C359 C357 1.327 . S
C360 C348 1.349 . S
C360 H354 0.950 . S
C360 C361 1.327 . S
C361 H355 0.950 . S
C361 C360 1.327 . S
C361 C365 1.429 . S
C362 C345 1.574 . S
C362 H356 0.949 . S
C362 C366 1.368 . S
C363 C344 1.429 . S
C363 C357 1.429 . S
C363 C364 1.523 . S
C364 C345 1.368 . S
C364 C358 1.368 . S
C364 C363 1.523 . S
C365 C349 1.429 . S
C365 C361 1.429 . S
C365 C366 1.523 . S
C366 C350 1.368 . S
C366 C362 1.368 . S
C366 C365 1.523 . S
H367 C342 0.950 . S
H368 C344 0.950 . S
H369 C345 0.949 . S
H370 C347 0.950 . S
H371 C349 0.950 . S
C372 C373 1.349 . S
C372 C374 1.327 . S
C372 H397 0.950 . S
C373 C372 1.349 . S
C373 C389 1.349 . S
C374 C372 1.327 . S
C374 C393 1.429 . S
C374 H398 0.950 . S
C375 C392 1.574 . S
C375 C394 1.368 . S
C375 H399 0.949 . S
H376 C380 0.949 . S
C377 C378 1.349 . S
C377 C379 1.327 . S
C377 H400 0.950 . S
C378 C377 1.349 . S
C378 C390 1.349 . S
C379 C377 1.327 . S
C379 C395 1.429 . S
C379 H401 0.950 . S
C380 H376 0.949 . S
C380 C388 1.574 . S
C380 C396 1.368 . S
H381 C389 0.950 . S
H382 C387 0.950 . S
H383 C388 0.949 . S
H384 C390 0.950 . S
H385 C391 0.950 . S
H386 C392 0.949 . S
C387 H382 0.950 . S
C387 C389 1.327 . S
C387 C393 1.429 . S
C388 C380 1.574 . S
C388 H383 0.949 . S
C388 C394 1.368 . S
C389 C373 1.349 . S
C389 H381 0.950 . S
C389 C387 1.327 . S
C390 C378 1.349 . S
C390 H384 0.950 . S
C390 C391 1.327 . S
C391 H385 0.950 . S
C391 C390 1.327 . S
C391 C395 1.429 . S
C392 C375 1.574 . S
C392 H386 0.949 . S
C392 C396 1.368 . S
C393 C374 1.429 . S
C393 C387 1.429 . S
C393 C394 1.523 . S
C394 C375 1.368 . S
C394 C388 1.368 . S
C394 C393 1.523 . S
C395 C379 1.429 . S
C395 C391 1.429 . S
C395 C396 1.523 . S
C396 C380 1.368 . S
C396 C392 1.368 . S
C396 C395 1.523 . S
H397 C372 0.950 . S
H398 C374 0.950 . S
H399 C375 0.949 . S
H400 C377 0.950 . S
H401 C379 0.950 . S
C402 C403 1.349 . S
C402 C404 1.327 . S
C402 H427 0.950 . S
C403 C402 1.349 . S
C403 C419 1.349 . S
C404 C402 1.327 . S
C404 C423 1.429 . S
C404 H428 0.950 . S
C405 C422 1.574 . S
C405 C424 1.368 . S
C405 H429 0.949 . S
H406 C410 0.949 . S
C407 C408 1.349 . S
C407 C409 1.327 . S
C407 H430 0.950 . S
C408 C407 1.349 . S
C408 C420 1.349 . S
C409 C407 1.327 . S
C409 C425 1.429 . S
C409 H431 0.950 . S
C410 H406 0.949 . S
C410 C418 1.574 . S
C410 C426 1.368 . S
H411 C419 0.950 . S
H412 C417 0.950 . S
H413 C418 0.949 . S
H414 C420 0.950 . S
H415 C421 0.950 . S
H416 C422 0.949 . S
C417 H412 0.950 . S
C417 C419 1.327 . S
C417 C423 1.429 . S
C418 C410 1.574 . S
C418 H413 0.949 . S
C418 C424 1.368 . S
C419 C403 1.349 . S
C419 H411 0.950 . S
C419 C417 1.327 . S
C420 C408 1.349 . S
C420 H414 0.950 . S
C420 C421 1.327 . S
C421 H415 0.950 . S
C421 C420 1.327 . S
C421 C425 1.429 . S
C422 C405 1.574 . S
C422 H416 0.949 . S
C422 C426 1.368 . S
C423 C404 1.429 . S
C423 C417 1.429 . S
C423 C424 1.523 . S
C424 C405 1.368 . S
C424 C418 1.368 . S
C424 C423 1.523 . S
C425 C409 1.429 . S
C425 C421 1.429 . S
C425 C426 1.523 . S
C426 C410 1.368 . S
C426 C422 1.368 . S
C426 C425 1.523 . S
H427 C402 0.950 . S
H428 C404 0.950 . S
H429 C405 0.949 . S
H430 C407 0.950 . S
H431 C409 0.950 . S
C432 C433 1.349 . S
C432 C434 1.327 . S
C432 H457 0.950 . S
C433 C432 1.349 . S
C433 C449 1.349 . S
C434 C432 1.327 . S
C434 C453 1.429 . S
C434 H458 0.950 . S
C435 C452 1.574 . S
C435 C454 1.368 . S
C435 H459 0.949 . S
H436 C440 0.949 . S
C437 C438 1.349 . S
C437 C439 1.327 . S
C437 H460 0.950 . S
C438 C437 1.349 . S
C438 C450 1.349 . S
C439 C437 1.327 . S
C439 C455 1.429 . S
C439 H461 0.950 . S
C440 H436 0.949 . S
C440 C448 1.574 . S
C440 C456 1.368 . S
H441 C449 0.950 . S
H442 C447 0.950 . S
H443 C448 0.949 . S
H444 C450 0.950 . S
H445 C451 0.950 . S
H446 C452 0.949 . S
C447 H442 0.950 . S
C447 C449 1.327 . S
C447 C453 1.429 . S
C448 C440 1.574 . S
C448 H443 0.949 . S
C448 C454 1.368 . S
C449 C433 1.349 . S
C449 H441 0.950 . S
C449 C447 1.327 . S
C450 C438 1.349 . S
C450 H444 0.950 . S
C450 C451 1.327 . S
C451 H445 0.950 . S
C451 C450 1.327 . S
C451 C455 1.429 . S
C452 C435 1.574 . S
C452 H446 0.949 . S
C452 C456 1.368 . S
C453 C434 1.429 . S
C453 C447 1.429 . S
C453 C454 1.523 . S
C454 C435 1.368 . S
C454 C448 1.368 . S
C454 C453 1.523 . S
C455 C439 1.429 . S
C455 C451 1.429 . S
C455 C456 1.523 . S
C456 C440 1.368 . S
C456 C452 1.368 . S
C456 C455 1.523 . S
H457 C432 0.950 . S
H458 C434 0.950 . S
H459 C435 0.949 . S
H460 C437 0.950 . S
H461 C439 0.950 . S
C462 C463 1.349 . S
C462 C464 1.327 . S
C462 H487 0.950 . S
C463 C462 1.349 . S
C463 C479 1.349 . S
C464 C462 1.327 . S
C464 C483 1.429 . S
C464 H488 0.950 . S
C465 C482 1.574 . S
C465 C484 1.368 . S
C465 H489 0.949 . S
H466 C470 0.949 . S
C467 C468 1.349 . S
C467 C469 1.327 . S
C467 H490 0.950 . S
C468 C467 1.349 . S
C468 C480 1.349 . S
C469 C467 1.327 . S
C469 C485 1.429 . S
C469 H491 0.950 . S
C470 H466 0.949 . S
C470 C478 1.574 . S
C470 C486 1.368 . S
H471 C479 0.950 . S
H472 C477 0.950 . S
H473 C478 0.949 . S
H474 C480 0.950 . S
H475 C481 0.950 . S
H476 C482 0.949 . S
C477 H472 0.950 . S
C477 C479 1.327 . S
C477 C483 1.429 . S
C478 C470 1.574 . S
C478 H473 0.949 . S
C478 C484 1.368 . S
C479 C463 1.349 . S
C479 H471 0.950 . S
C479 C477 1.327 . S
C480 C468 1.349 . S
C480 H474 0.950 . S
C480 C481 1.327 . S
C481 H475 0.950 . S
C481 C480 1.327 . S
C481 C485 1.429 . S
C482 C465 1.574 . S
C482 H476 0.949 . S
C482 C486 1.368 . S
C483 C464 1.429 . S
C483 C477 1.429 . S
C483 C484 1.523 . S
C484 C465 1.368 . S
C484 C478 1.368 . S
C484 C483 1.523 . S
C485 C469 1.429 . S
C485 C481 1.429 . S
C485 C486 1.523 . S
C486 C470 1.368 . S
C486 C482 1.368 . S
C486 C485 1.523 . S
H487 C462 0.950 . S
H488 C464 0.950 . S
H489 C465 0.949 . S
H490 C467 0.950 . S
H491 C469 0.950 . S
C492 C493 1.349 . S
C492 C494 1.327 . S
C492 H517 0.950 . S
C493 C492 1.349 . S
C493 C509 1.349 . S
C494 C492 1.327 . S
C494 C513 1.429 . S
C494 H518 0.950 . S
C495 C512 1.574 . S
C495 C514 1.368 . S
C495 H519 0.949 . S
H496 C500 0.949 . S
C497 C498 1.349 . S
C497 C499 1.327 . S
C497 H520 0.950 . S
C498 C497 1.349 . S
C498 C510 1.349 . S
C499 C497 1.327 . S
C499 C515 1.429 . S
C499 H521 0.950 . S
C500 H496 0.949 . S
C500 C508 1.574 . S
C500 C516 1.368 . S
H501 C509 0.950 . S
H502 C507 0.950 . S
H503 C508 0.949 . S
H504 C510 0.950 . S
H505 C511 0.950 . S
H506 C512 0.949 . S
C507 H502 0.950 . S
C507 C509 1.327 . S
C507 C513 1.429 . S
C508 C500 1.574 . S
C508 H503 0.949 . S
C508 C514 1.368 . S
C509 C493 1.349 . S
C509 H501 0.950 . S
C509 C507 1.327 . S
C510 C498 1.349 . S
C510 H504 0.950 . S
C510 C511 1.327 . S
C511 H505 0.950 . S
C511 C510 1.327 . S
C511 C515 1.429 . S
C512 C495 1.574 . S
C512 H506 0.949 . S
C512 C516 1.368 . S
C513 C494 1.429 . S
C513 C507 1.429 . S
C513 C514 1.523 . S
C514 C495 1.368 . S
C514 C508 1.368 . S
C514 C513 1.523 . S
C515 C499 1.429 . S
C515 C511 1.429 . S
C515 C516 1.523 . S
C516 C500 1.368 . S
C516 C512 1.368 . S
C516 C515 1.523 . S
H517 C492 0.950 . S
H518 C494 0.950 . S
H519 C495 0.949 . S
H520 C497 0.950 . S
H521 C499 0.950 . S
C522 C523 1.349 . S
C522 C524 1.327 . S
C522 H547 0.950 . S
C523 C522 1.349 . S
C523 C539 1.349 . S
C524 C522 1.327 . S
C524 C543 1.429 . S
C524 H548 0.950 . S
C525 C542 1.574 . S
C525 C544 1.368 . S
C525 H549 0.949 . S
H526 C530 0.949 . S
C527 C528 1.349 . S
C527 C529 1.327 . S
C527 H550 0.950 . S
C528 C527 1.349 . S
C528 C540 1.349 . S
C529 C527 1.327 . S
C529 C545 1.429 . S
C529 H551 0.950 . S
C530 H526 0.949 . S
C530 C538 1.574 . S
C530 C546 1.368 . S
H531 C539 0.950 . S
H532 C537 0.950 . S
H533 C538 0.949 . S
H534 C540 0.950 . S
H535 C541 0.950 . S
H536 C542 0.949 . S
C537 H532 0.950 . S
C537 C539 1.327 . S
C537 C543 1.429 . S
C538 C530 1.574 . S
C538 H533 0.949 . S
C538 C544 1.368 . S
C539 C523 1.349 . S
C539 H531 0.950 . S
C539 C537 1.327 . S
C540 C528 1.349 . S
C540 H534 0.950 . S
C540 C541 1.327 . S
C541 H535 0.950 . S
C541 C540 1.327 . S
C541 C545 1.429 . S
C542 C525 1.574 . S
C542 H536 0.949 . S
C542 C546 1.368 . S
C543 C524 1.429 . S
C543 C537 1.429 . S
C543 C544 1.523 . S
C544 C525 1.368 . S
C544 C538 1.368 . S
C544 C543 1.523 . S
C545 C529 1.429 . S
C545 C541 1.429 . S
C545 C546 1.523 . S
C546 C530 1.368 . S
C546 C542 1.368 . S
C546 C545 1.523 . S
H547 C522 0.950 . S
H548 C524 0.950 . S
H549 C525 0.949 . S
H550 C527 0.950 . S
H551 C529 0.950 . S
C552 C553 1.349 . S
C552 C554 1.327 . S
C552 H577 0.950 . S
C553 C552 1.349 . S
C553 C569 1.349 . S
C554 C552 1.327 . S
C554 C573 1.429 . S
C554 H578 0.950 . S
C555 C572 1.574 . S
C555 C574 1.368 . S
C555 H579 0.949 . S
H556 C560 0.949 . S
C557 C558 1.349 . S
C557 C559 1.327 . S
C557 H580 0.950 . S
C558 C557 1.349 . S
C558 C570 1.349 . S
C559 C557 1.327 . S
C559 C575 1.429 . S
C559 H581 0.950 . S
C560 H556 0.949 . S
C560 C568 1.574 . S
C560 C576 1.368 . S
H561 C569 0.950 . S
H562 C567 0.950 . S
H563 C568 0.949 . S
H564 C570 0.950 . S
H565 C571 0.950 . S
H566 C572 0.949 . S
C567 H562 0.950 . S
C567 C569 1.327 . S
C567 C573 1.429 . S
C568 C560 1.574 . S
C568 H563 0.949 . S
C568 C574 1.368 . S
C569 C553 1.349 . S
C569 H561 0.950 . S
C569 C567 1.327 . S
C570 C558 1.349 . S
C570 H564 0.950 . S
C570 C571 1.327 . S
C571 H565 0.950 . S
C571 C570 1.327 . S
C571 C575 1.429 . S
C572 C555 1.574 . S
C572 H566 0.949 . S
C572 C576 1.368 . S
C573 C554 1.429 . S
C573 C567 1.429 . S
C573 C574 1.523 . S
C574 C555 1.368 . S
C574 C568 1.368 . S
C574 C573 1.523 . S
C575 C559 1.429 . S
C575 C571 1.429 . S
C575 C576 1.523 . S
C576 C560 1.368 . S
C576 C572 1.368 . S
C576 C575 1.523 . S
H577 C552 0.950 . S
H578 C554 0.950 . S
H579 C555 0.949 . S
H580 C557 0.950 . S
H581 C559 0.950 . S
C582 C583 1.349 . S
C582 C584 1.327 . S
C582 H607 0.950 . S
C583 C582 1.349 . S
C583 C599 1.349 . S
C584 C582 1.327 . S
C584 C603 1.429 . S
C584 H608 0.950 . S
C585 C602 1.574 . S
C585 C604 1.368 . S
C585 H609 0.949 . S
H586 C590 0.949 . S
C587 C588 1.349 . S
C587 C589 1.327 . S
C587 H610 0.950 . S
C588 C587 1.349 . S
C588 C600 1.349 . S
C589 C587 1.327 . S
C589 C605 1.429 . S
C589 H611 0.950 . S
C590 H586 0.949 . S
C590 C598 1.574 . S
C590 C606 1.368 . S
H591 C599 0.950 . S
H592 C597 0.950 . S
H593 C598 0.949 . S
H594 C600 0.950 . S
H595 C601 0.950 . S
H596 C602 0.949 . S
C597 H592 0.950 . S
C597 C599 1.327 . S
C597 C603 1.429 . S
C598 C590 1.574 . S
C598 H593 0.949 . S
C598 C604 1.368 . S
C599 C583 1.349 . S
C599 H591 0.950 . S
C599 C597 1.327 . S
C600 C588 1.349 . S
C600 H594 0.950 . S
C600 C601 1.327 . S
C601 H595 0.950 . S
C601 C600 1.327 . S
C601 C605 1.429 . S
C602 C585 1.574 . S
C602 H596 0.949 . S
C602 C606 1.368 . S
C603 C584 1.429 . S
C603 C597 1.429 . S
C603 C604 1.523 . S
C604 C585 1.368 . S
C604 C598 1.368 . S
C604 C603 1.523 . S
C605 C589 1.429 . S
C605 C601 1.429 . S
C605 C606 1.523 . S
C606 C590 1.368 . S
C606 C602 1.368 . S
C606 C605 1.523 . S
H607 C582 0.950 . S
H608 C584 0.950 . S
H609 C585 0.949 . S
H610 C587 0.950 . S
H611 C589 0.950 . S
C612 C613 1.349 . S
C612 C614 1.327 . S
C612 H637 0.950 . S
C613 C612 1.349 . S
C613 C629 1.349 . S
C614 C612 1.327 . S
C614 C633 1.429 . S
C614 H638 0.950 . S
C615 C632 1.574 . S
C615 C634 1.368 . S
C615 H639 0.949 . S
H616 C620 0.949 . S
C617 C618 1.349 . S
C617 C619 1.327 . S
C617 H640 0.950 . S
C618 C617 1.349 . S
C618 C630 1.349 . S
C619 C617 1.327 . S
C619 C635 1.429 . S
C619 H641 0.950 . S
C620 H616 0.949 . S
C620 C628 1.574 . S
C620 C636 1.368 . S
H621 C629 0.950 . S
H622 C627 0.950 . S
H623 C628 0.949 . S
H624 C630 0.950 . S
H625 C631 0.950 . S
H626 C632 0.949 . S
C627 H622 0.950 . S
C627 C629 1.327 . S
C627 C633 1.429 . S
C628 C620 1.574 . S
C628 H623 0.949 . S
C628 C634 1.368 . S
C629 C613 1.349 . S
C629 H621 0.950 . S
C629 C627 1.327 . S
C630 C618 1.349 . S
C630 H624 0.950 . S
C630 C631 1.327 . S
C631 H625 0.950 . S
C631 C630 1.327 . S
C631 C635 1.429 . S
C632 C615 1.574 . S
C632 H626 0.949 . S
C632 C636 1.368 . S
C633 C614 1.429 . S
C633 C627 1.429 . S
C633 C634 1.523 . S
C634 C615 1.368 . S
C634 C628 1.368 . S
C634 C633 1.523 . S
C635 C619 1.429 . S
C635 C631 1.429 . S
C635 C636 1.523 . S
C636 C620 1.368 . S
C636 C632 1.368 . S
C636 C635 1.523 . S
H637 C612 0.950 . S
H638 C614 0.950 . S
H639 C615 0.949 . S
H640 C617 0.950 . S
H641 C619 0.950 . S
C642 C643 1.349 . S
C642 C644 1.327 . S
C642 H667 0.950 . S
C643 C642 1.349 . S
C643 C659 1.349 . S
C644 C642 1.327 . S
C644 C663 1.429 . S
C644 H668 0.950 . S
C645 C662 1.574 . S
C645 C664 1.368 . S
C645 H669 0.949 . S
H646 C650 0.949 . S
C647 C648 1.349 . S
C647 C649 1.327 . S
C647 H670 0.950 . S
C648 C647 1.349 . S
C648 C660 1.349 . S
C649 C647 1.327 . S
C649 C665 1.429 . S
C649 H671 0.950 . S
C650 H646 0.949 . S
C650 C658 1.574 . S
C650 C666 1.368 . S
H651 C659 0.950 . S
H652 C657 0.950 . S
H653 C658 0.949 . S
H654 C660 0.950 . S
H655 C661 0.950 . S
H656 C662 0.949 . S
C657 H652 0.950 . S
C657 C659 1.327 . S
C657 C663 1.429 . S
C658 C650 1.574 . S
C658 H653 0.949 . S
C658 C664 1.368 . S
C659 C643 1.349 . S
C659 H651 0.950 . S
C659 C657 1.327 . S
C660 C648 1.349 . S
C660 H654 0.950 . S
C660 C661 1.327 . S
C661 H655 0.950 . S
C661 C660 1.327 . S
C661 C665 1.429 . S
C662 C645 1.574 . S
C662 H656 0.949 . S
C662 C666 1.368 . S
C663 C644 1.429 . S
C663 C657 1.429 . S
C663 C664 1.523 . S
C664 C645 1.368 . S
C664 C658 1.368 . S
C664 C663 1.523 . S
C665 C649 1.429 . S
C665 C661 1.429 . S
C665 C666 1.523 . S
C666 C650 1.368 . S
C666 C662 1.368 . S
C666 C665 1.523 . S
H667 C642 0.950 . S
H668 C644 0.950 . S
H669 C645 0.949 . S
H670 C647 0.950 . S
H671 C649 0.950 . S
C672 C673 1.349 . S
C672 C674 1.327 . S
C672 H697 0.950 . S
C673 C672 1.349 . S
C673 C689 1.349 1_455 S
C674 C672 1.327 . S
C674 C693 1.429 . S
C674 H698 0.950 . S
C675 C692 1.574 . S
C675 C694 1.368 1_655 S
C675 H699 0.949 . S
H676 C680 0.949 . S
C677 C678 1.349 1_655 S
C677 C679 1.327 . S
C677 H700 0.950 . S
C678 C677 1.349 1_455 S
C678 C690 1.349 . S
C679 C677 1.327 . S
C679 C695 1.429 1_656 S
C679 H701 0.950 1_556 S
C680 H676 0.949 . S
C680 C688 1.574 . S
C680 C696 1.368 . S
H681 C689 0.950 . S
H682 C687 0.950 . S
H683 C688 0.949 . S
H684 C690 0.950 . S
H685 C691 0.950 . S
H686 C692 0.949 . S
C687 H682 0.950 . S
C687 C689 1.327 . S
C687 C693 1.429 1_655 S
C688 C680 1.574 . S
C688 H683 0.949 . S
C688 C694 1.368 . S
C689 C673 1.349 1_655 S
C689 H681 0.950 . S
C689 C687 1.327 . S
C690 C678 1.349 . S
C690 H684 0.950 . S
C690 C691 1.327 . S
C691 H685 0.950 . S
C691 C690 1.327 . S
C691 C695 1.429 1_556 S
C692 C675 1.574 . S
C692 H686 0.949 . S
C692 C696 1.368 1_655 S
C693 C674 1.429 . S
C693 C687 1.429 1_455 S
C693 C694 1.523 . S
C694 C675 1.368 1_455 S
C694 C688 1.368 . S
C694 C693 1.523 . S
C695 C679 1.429 1_454 S
C695 C691 1.429 1_554 S
C695 C696 1.523 . S
C696 C680 1.368 . S
C696 C692 1.368 1_455 S
C696 C695 1.523 . S
H697 C672 0.950 . S
H698 C674 0.950 . S
H699 C675 0.949 . S
H700 C677 0.950 . S
H701 C679 0.950 1_554 S
C702 C703 1.349 . S
C702 C704 1.327 . S
C702 H727 0.950 1_545 S
C703 C702 1.349 . S
C703 C719 1.349 . S
C704 C702 1.327 . S
C704 C723 1.429 . S
C704 H728 0.950 1_545 S
C705 C722 1.574 . S
C705 C724 1.368 . S
C705 H729 0.949 . S
H706 C710 0.957 . S
C707 C708 1.349 . S
C707 C709 1.327 . S
C707 H730 0.950 . S
C708 C707 1.349 . S
C708 C720 1.349 . S
C709 C707 1.327 . S
C709 C725 1.429 . S
C709 H731 0.950 . S
C710 H706 0.957 . S
C710 C718 1.574 . S
C710 C726 1.368 . S
H711 C719 0.950 . S
H712 C717 0.950 . S
H713 C718 0.949 1_565 S
H714 C720 0.950 . S
H715 C721 0.950 . S
H716 C722 0.949 . S
C717 H712 0.950 . S
C717 C719 1.327 . S
C717 C723 1.429 . S
C718 C710 1.574 . S
C718 H713 0.949 1_545 S
C718 C724 1.368 . S
C719 C703 1.349 . S
C719 H711 0.950 . S
C719 C717 1.327 . S
C720 C708 1.349 . S
C720 H714 0.950 . S
C720 C721 1.327 . S
C721 H715 0.950 . S
C721 C720 1.327 . S
C721 C725 1.429 . S
C722 C705 1.574 . S
C722 H716 0.949 . S
C722 C726 1.368 . S
C723 C704 1.429 . S
C723 C717 1.429 . S
C723 C724 1.523 . S
C724 C705 1.368 . S
C724 C718 1.368 . S
C724 C723 1.523 . S
C725 C709 1.429 . S
C725 C721 1.429 . S
C725 C726 1.523 . S
C726 C710 1.368 . S
C726 C722 1.368 . S
C726 C725 1.523 . S
H727 C702 0.950 1_565 S
H728 C704 0.950 1_565 S
H729 C705 0.949 . S
H730 C707 0.950 . S
H731 C709 0.950 . S
C732 C733 1.349 . S
C732 C734 1.327 . S
C732 H757 0.950 . S
C733 C732 1.349 . S
C733 C749 1.349 . S
C734 C732 1.327 . S
C734 C753 1.429 . S
C734 H758 0.950 . S
C735 C752 1.574 . S
C735 C754 1.368 . S
C735 H759 0.949 . S
H736 C740 0.949 . S
C737 C738 1.349 . S
C737 C739 1.327 . S
C737 H760 0.950 . S
C738 C737 1.349 . S
C738 C750 1.349 . S
C739 C737 1.327 . S
C739 C755 1.429 . S
C739 H761 0.950 . S
C740 H736 0.949 . S
C740 C748 1.574 . S
C740 C756 1.368 . S
H741 C749 0.950 . S
H742 C747 0.950 . S
H743 C748 0.949 . S
H744 C750 0.950 . S
H745 C751 0.950 . S
H746 C752 0.949 . S
C747 H742 0.950 . S
C747 C749 1.327 . S
C747 C753 1.429 . S
C748 C740 1.574 . S
C748 H743 0.949 . S
C748 C754 1.368 . S
C749 C733 1.349 . S
C749 H741 0.950 . S
C749 C747 1.327 . S
C750 C738 1.349 . S
C750 H744 0.950 . S
C750 C751 1.327 . S
C751 H745 0.950 . S
C751 C750 1.327 . S
C751 C755 1.429 . S
C752 C735 1.574 . S
C752 H746 0.949 . S
C752 C756 1.368 . S
C753 C734 1.429 . S
C753 C747 1.429 . S
C753 C754 1.523 . S
C754 C735 1.368 . S
C754 C748 1.368 . S
C754 C753 1.523 . S
C755 C739 1.429 . S
C755 C751 1.429 . S
C755 C756 1.523 . S
C756 C740 1.368 . S
C756 C752 1.368 . S
C756 C755 1.523 . S
H757 C732 0.950 . S
H758 C734 0.950 . S
H759 C735 0.949 . S
H760 C737 0.950 . S
H761 C739 0.950 . S
C762 C763 1.349 . S
C762 C764 1.327 . S
C762 H787 0.950 . S
C763 C762 1.349 . S
C763 C779 1.349 1_545 S
C764 C762 1.327 . S
C764 C783 1.429 . S
C764 H788 0.950 . S
C765 C782 1.574 . S
C765 C784 1.368 1_565 S
C765 H789 0.949 . S
H766 C770 0.949 . S
C767 C768 1.349 1_565 S
C767 C769 1.327 . S
C767 H790 0.950 . S
C768 C767 1.349 1_545 S
C768 C780 1.349 . S
C769 C767 1.327 . S
C769 C785 1.429 1_565 S
C769 H791 0.950 . S
C770 H766 0.949 . S
C770 C778 1.574 . S
C770 C786 1.368 . S
H771 C779 0.950 . S
H772 C777 0.950 . S
H773 C778 0.949 . S
H774 C780 0.950 . S
H775 C781 0.950 . S
H776 C782 0.949 . S
C777 H772 0.950 . S
C777 C779 1.327 . S
C777 C783 1.429 1_565 S
C778 C770 1.574 . S
C778 H773 0.949 . S
C778 C784 1.368 . S
C779 C763 1.349 1_565 S
C779 H771 0.950 . S
C779 C777 1.327 . S
C780 C768 1.349 . S
C780 H774 0.950 . S
C780 C781 1.327 . S
C781 H775 0.950 . S
C781 C780 1.327 . S
C781 C785 1.429 . S
C782 C765 1.574 . S
C782 H776 0.949 . S
C782 C786 1.368 1_565 S
C783 C764 1.429 . S
C783 C777 1.429 1_545 S
C783 C784 1.523 . S
C784 C765 1.368 1_545 S
C784 C778 1.368 . S
C784 C783 1.523 . S
C785 C769 1.429 1_545 S
C785 C781 1.429 . S
C785 C786 1.523 . S
C786 C770 1.368 . S
C786 C782 1.368 1_545 S
C786 C785 1.523 . S
H787 C762 0.950 . S
H788 C764 0.950 . S
H789 C765 0.949 . S
H790 C767 0.950 . S
H791 C769 0.950 . S
C792 C793 1.349 . S
C792 C794 1.327 . S
C792 H817 0.950 . S
C793 C792 1.349 . S
C793 C809 1.349 . S
C794 C792 1.327 . S
C794 C813 1.429 . S
C794 H818 0.950 . S
C795 C812 1.574 . S
C795 C814 1.368 . S
C795 H819 0.949 . S
H796 C800 0.949 . S
C797 C798 1.349 . S
C797 C799 1.327 . S
C797 H820 0.950 . S
C798 C797 1.349 . S
C798 C810 1.349 . S
C799 C797 1.327 . S
C799 C815 1.429 1_554 S
C799 H821 0.950 . S
C800 H796 0.949 . S
C800 C808 1.574 . S
C800 C816 1.368 . S
H801 C809 0.950 . S
H802 C807 0.950 . S
H803 C808 0.949 . S
H804 C810 0.950 . S
H805 C811 0.950 1_556 S
H806 C812 0.949 . S
C807 H802 0.950 . S
C807 C809 1.327 . S
C807 C813 1.429 . S
C808 C800 1.574 . S
C808 H803 0.949 . S
C808 C814 1.368 . S
C809 C793 1.349 . S
C809 H801 0.950 . S
C809 C807 1.327 . S
C810 C798 1.349 . S
C810 H804 0.950 . S
C810 C811 1.327 . S
C811 H805 0.950 1_554 S
C811 C810 1.327 . S
C811 C815 1.429 1_554 S
C812 C795 1.574 . S
C812 H806 0.949 . S
C812 C816 1.368 . S
C813 C794 1.429 . S
C813 C807 1.429 . S
C813 C814 1.523 . S
C814 C795 1.368 . S
C814 C808 1.368 . S
C814 C813 1.523 . S
C815 C799 1.429 1_556 S
C815 C811 1.429 1_556 S
C815 C816 1.523 . S
C816 C800 1.368 . S
C816 C812 1.368 . S
C816 C815 1.523 . S
H817 C792 0.950 . S
H818 C794 0.950 . S
H819 C795 0.949 . S
H820 C797 0.950 . S
H821 C799 0.950 . S
C822 C823 1.349 . S
C822 C824 1.327 . S
C822 H847 0.950 . S
C823 C822 1.349 . S
C823 C839 1.349 . S
C824 C822 1.327 . S
C824 C843 1.429 . S
C824 H848 0.950 . S
C825 C842 1.574 . S
C825 C844 1.368 . S
C825 H849 0.949 . S
H826 C830 0.949 . S
C827 C828 1.349 . S
C827 C829 1.327 . S
C827 H850 0.950 . S
C828 C827 1.349 . S
C828 C840 1.349 . S
C829 C827 1.327 . S
C829 C845 1.429 . S
C829 H851 0.950 . S
C830 H826 0.949 . S
C830 C838 1.574 . S
C830 C846 1.368 . S
H831 C839 0.950 . S
H832 C837 0.950 . S
H833 C838 0.949 . S
H834 C840 0.950 . S
H835 C841 0.950 . S
H836 C842 0.949 . S
C837 H832 0.950 . S
C837 C839 1.327 . S
C837 C843 1.429 . S
C838 C830 1.574 . S
C838 H833 0.949 . S
C838 C844 1.368 . S
C839 C823 1.349 . S
C839 H831 0.950 . S
C839 C837 1.327 . S
C840 C828 1.349 . S
C840 H834 0.950 . S
C840 C841 1.327 . S
C841 H835 0.950 . S
C841 C840 1.327 . S
C841 C845 1.429 . S
C842 C825 1.574 . S
C842 H836 0.949 . S
C842 C846 1.368 . S
C843 C824 1.429 . S
C843 C837 1.429 . S
C843 C844 1.523 . S
C844 C825 1.368 . S
C844 C838 1.368 . S
C844 C843 1.523 . S
C845 C829 1.429 . S
C845 C841 1.429 . S
C845 C846 1.523 . S
C846 C830 1.368 . S
C846 C842 1.368 . S
C846 C845 1.523 . S
H847 C822 0.950 . S
H848 C824 0.950 . S
H849 C825 0.949 . S
H850 C827 0.950 . S
H851 C829 0.950 . S
C313 C19 2.861 . S
C318 C303 2.828 . S
C343 C49 2.999 . S
C348 C239 2.933 . S
C373 C99 2.892 . S
C378 C271 2.861 . S
C403 C9 3.009 . S
C408 C297 2.959 . S
C438 C233 2.840 . S
C433 C59 2.870 . S
C468 C265 2.926 . S
C463 C89 2.977 . S
C493 C55 0.309 . S
C498 C175 0.317 . S
C523 C85 0.332 . S
C528 C207 0.348 . S
C553 C15 0.274 . S
C558 C137 0.388 . S
C588 C169 0.238 . S
C583 C45 0.337 . S
C618 C201 0.403 . S
C613 C95 0.302 . S
C643 C5 0.343 . S
C648 C143 0.351 . S
C678 C213 1.084 . S
C673 C18 1.091 . S
C703 C58 1.083 . S
C708 C149 1.078 . S
C733 C98 1.091 . S
C738 C181 1.103 . S
C768 C277 1.741 . S
C763 C48 1.697 . S
C798 C309 1.745 . S
C793 C88 1.698 . S
C823 C8 1.699 . S
C828 C245 1.747 . S
