# Generated by pormake.
# Topology pyr, (3,6)-cn, num edge types: 1
# Building blocks:
#     Node 0, Type 0, BuildingBlock: PAMTOO_clean_linker_0, # of connection points: 3
#     Node 1, Type 0, BuildingBlock: PAMTOO_clean_linker_0, # of connection points: 3
#     Node 2, Type 0, BuildingBlock: PAMTOO_clean_linker_0, # of connection points: 3
#     Node 3, Type 0, BuildingBlock: PAMTOO_clean_linker_0, # of connection points: 3
#     Node 4, Type 0, BuildingBlock: PAMTOO_clean_linker_0, # of connection points: 3
#     Node 5, Type 0, BuildingBlock: PAMTOO_clean_linker_0, # of connection points: 3
#     Node 6, Type 0, BuildingBlock: PAMTOO_clean_linker_0, # of connection points: 3
#     Node 7, Type 0, BuildingBlock: PAMTOO_clean_linker_0, # of connection points: 3
#     Node 8, Type 1, BuildingBlock: BETDEL_clean_sbu_0, # of connection points: 6
#     Node 9, Type 1, BuildingBlock: BETDEL_clean_sbu_0, # of connection points: 6
#     Node 10, Type 1, BuildingBlock: BETDEL_clean_sbu_0, # of connection points: 6
#     Node 11, Type 1, BuildingBlock: BETDEL_clean_sbu_0, # of connection points: 6
#     Edge 12, Type (0, 1), BuildingBlock: MIFKUJ_clean_linker_0, # of connection points: 2
#     Edge 13, Type (0, 1), BuildingBlock: MIFKUJ_clean_linker_0, # of connection points: 2
#     Edge 14, Type (0, 1), BuildingBlock: MIFKUJ_clean_linker_0, # of connection points: 2
#     Edge 15, Type (0, 1), BuildingBlock: MIFKUJ_clean_linker_0, # of connection points: 2
#     Edge 16, Type (0, 1), BuildingBlock: MIFKUJ_clean_linker_0, # of connection points: 2
#     Edge 17, Type (0, 1), BuildingBlock: MIFKUJ_clean_linker_0, # of connection points: 2
#     Edge 18, Type (0, 1), BuildingBlock: MIFKUJ_clean_linker_0, # of connection points: 2
#     Edge 19, Type (0, 1), BuildingBlock: MIFKUJ_clean_linker_0, # of connection points: 2
#     Edge 20, Type (0, 1), BuildingBlock: MIFKUJ_clean_linker_0, # of connection points: 2
#     Edge 21, Type (0, 1), BuildingBlock: MIFKUJ_clean_linker_0, # of connection points: 2
#     Edge 22, Type (0, 1), BuildingBlock: MIFKUJ_clean_linker_0, # of connection points: 2
#     Edge 23, Type (0, 1), BuildingBlock: MIFKUJ_clean_linker_0, # of connection points: 2
#     Edge 24, Type (0, 1), BuildingBlock: MIFKUJ_clean_linker_0, # of connection points: 2
#     Edge 25, Type (0, 1), BuildingBlock: MIFKUJ_clean_linker_0, # of connection points: 2
#     Edge 26, Type (0, 1), BuildingBlock: MIFKUJ_clean_linker_0, # of connection points: 2
#     Edge 27, Type (0, 1), BuildingBlock: MIFKUJ_clean_linker_0, # of connection points: 2
#     Edge 28, Type (0, 1), BuildingBlock: MIFKUJ_clean_linker_0, # of connection points: 2
#     Edge 29, Type (0, 1), BuildingBlock: MIFKUJ_clean_linker_0, # of connection points: 2
#     Edge 30, Type (0, 1), BuildingBlock: MIFKUJ_clean_linker_0, # of connection points: 2
#     Edge 31, Type (0, 1), BuildingBlock: MIFKUJ_clean_linker_0, # of connection points: 2
#     Edge 32, Type (0, 1), BuildingBlock: MIFKUJ_clean_linker_0, # of connection points: 2
#     Edge 33, Type (0, 1), BuildingBlock: MIFKUJ_clean_linker_0, # of connection points: 2
#     Edge 34, Type (0, 1), BuildingBlock: MIFKUJ_clean_linker_0, # of connection points: 2
#     Edge 35, Type (0, 1), BuildingBlock: MIFKUJ_clean_linker_0, # of connection points: 2
# Relax obj value: 0.080
# Max RMSD: 0.195
# Mean RMSD: 0.138
data_MOF--net-pyr--node1-BETDEL_clean_sbu_0--node2-PAMTOO_clean_linker_0--edge1-MIFKUJ_clean_linker_0
_symmetry_space_group_name_H-M    P1
_symmetry_Int_Tables_number       1
_symmetry_cell_setting            triclinic
loop_
_symmetry_equiv_pos_as_xyz
'x, y, z'
_cell_length_a     46.718309
_cell_length_b     50.295638
_cell_length_c     45.698966
_cell_angle_alpha  91.985267
_cell_angle_beta   90.531261
_cell_angle_gamma 99.285967
loop_
_atom_site_label
_atom_site_type_symbol
_atom_site_fract_x
_atom_site_fract_y
_atom_site_fract_z
_atom_type_partial_charge
H0 H 0.16798 0.22522 0.19866 0.0
H1 H 0.22036 0.16208 0.20076 0.0
H2 H 0.22868 0.21604 0.13008 0.0
H3 H 0.22963 0.15848 0.11477 0.0
C4 C 0.24118 0.15305 0.13456 0.0
O5 O 0.24789 0.17551 0.15304 0.0
H6 H 0.22673 0.1369 0.1458 0.0
C7 C 0.18412 0.21455 0.18897 0.0
C8 C 0.19697 0.22326 0.16249 0.0
C9 C 0.19216 0.19241 0.20316 0.0
C10 C 0.214 0.1795 0.1908 0.0
C11 C 0.22717 0.18827 0.16474 0.0
C12 C 0.2187 0.21 0.15063 0.0
H13 H 0.29747 0.88999 0.70279 0.0
H14 H 0.27955 0.82873 0.63392 0.0
H15 H 0.35028 0.8274 0.69422 0.0
H16 H 0.35533 0.82508 0.62466 0.0
C17 C 0.34073 0.80521 0.62432 0.0
O18 O 0.32267 0.80351 0.64822 0.0
H19 H 0.32728 0.80375 0.60397 0.0
C20 C 0.30242 0.87186 0.69177 0.0
C21 C 0.3257 0.85991 0.70186 0.0
C22 C 0.28567 0.86079 0.66728 0.0
C23 C 0.29219 0.83738 0.65293 0.0
C24 C 0.31577 0.82562 0.66248 0.0
C25 C 0.33237 0.83687 0.68686 0.0
H26 H 0.71525 0.32481 0.92049 0.0
H27 H 0.64384 0.31655 0.85847 0.0
H28 H 0.71163 0.38482 0.85637 0.0
H29 H 0.64641 0.39158 0.85774 0.0
C30 C 0.63995 0.37703 0.83898 0.0
O31 O 0.66173 0.36198 0.83358 0.0
H32 H 0.61981 0.36336 0.84476 0.0
C33 C 0.70428 0.33209 0.90214 0.0
C34 C 0.71677 0.35618 0.88947 0.0
C35 C 0.67799 0.31737 0.89115 0.0
C36 C 0.66399 0.32752 0.86759 0.0
C37 C 0.67589 0.35197 0.85549 0.0
C38 C 0.70243 0.36606 0.86611 0.0
H39 H 0.86144 0.71087 0.4169 0.0
H40 H 0.85951 0.64427 0.35436 0.0
H41 H 0.92763 0.71221 0.35179 0.0
H42 H 0.90216 0.69212 0.29428 0.0
C43 C 0.89671 0.67024 0.29852 0.0
O44 O 0.90556 0.6658 0.32661 0.0
H45 H 0.8728 0.66417 0.2962 0.0
C46 C 0.87074 0.70125 0.39853 0.0
C47 C 0.89632 0.71448 0.38602 0.0
C48 C 0.85717 0.67577 0.38747 0.0
C49 C 0.86937 0.66389 0.36326 0.0
C50 C 0.89453 0.67714 0.35034 0.0
C51 C 0.90816 0.70217 0.36195 0.0
H52 H 0.83734 0.89827 0.87102 0.0
H53 H 0.8241 0.84122 0.93964 0.0
H54 H 0.89313 0.83838 0.87905 0.0
H55 H 0.85469 0.78699 0.89175 0.0
C56 C 0.85453 0.78994 0.91601 0.0
O57 O 0.86657 0.81601 0.92421 0.0
H58 H 0.83161 0.78597 0.92325 0.0
C59 C 0.84359 0.88133 0.88212 0.0
C60 C 0.86732 0.86978 0.87206 0.0
C61 C 0.82791 0.87125 0.90653 0.0
C62 C 0.83606 0.84936 0.92088 0.0
C63 C 0.85925 0.8374 0.91064 0.0
C64 C 0.87491 0.84761 0.8864 0.0
H65 H 0.77893 0.15574 0.35151 0.0
H66 H 0.72704 0.21936 0.35355 0.0
H67 H 0.79144 0.21718 0.42047 0.0
H68 H 0.7413 0.23916 0.44437 0.0
C69 C 0.73064 0.24192 0.42309 0.0
O70 O 0.75101 0.24328 0.40121 0.0
H71 H 0.71329 0.22415 0.41898 0.0
C72 C 0.77295 0.17373 0.36185 0.0
C73 C 0.78764 0.18468 0.38761 0.0
C74 C 0.75121 0.18613 0.34899 0.0
C75 C 0.74414 0.20974 0.36253 0.0
C76 C 0.75859 0.22086 0.3882 0.0
C77 C 0.78056 0.20856 0.40048 0.0
H78 H 0.36916 0.71918 0.13164 0.0
H79 H 0.37626 0.65877 0.19486 0.0
H80 H 0.44085 0.72957 0.19307 0.0
H81 H 0.4666 0.6822 0.20679 0.0
C82 C 0.44664 0.66868 0.21334 0.0
O83 O 0.42475 0.68368 0.21818 0.0
H84 H 0.44018 0.6534 0.19525 0.0
C85 C 0.38054 0.71183 0.14967 0.0
C86 C 0.40621 0.72741 0.16086 0.0
C87 C 0.36928 0.68707 0.16183 0.0
C88 C 0.38454 0.67768 0.18495 0.0
C89 C 0.41033 0.69293 0.19596 0.0
C90 C 0.42093 0.71788 0.18423 0.0
H91 H 0.14604 0.32691 0.74682 0.0
H92 H 0.21501 0.39513 0.74842 0.0
H93 H 0.21586 0.33036 0.68523 0.0
H94 H 0.2722 0.35358 0.7155 0.0
C95 C 0.27005 0.37526 0.71447 0.0
O96 O 0.24268 0.37745 0.70416 0.0
H97 H 0.27328 0.38457 0.73693 0.0
C98 C 0.16606 0.33731 0.73798 0.0
C99 C 0.17937 0.32529 0.71459 0.0
C100 C 0.17892 0.36235 0.75065 0.0
C101 C 0.20508 0.37558 0.73934 0.0
C102 C 0.21827 0.364 0.71582 0.0
C103 C 0.20555 0.33891 0.70364 0.0
Dy104 Dy 0.05137 0.03777 0.50703 0.0
C105 C 0.00537 0.989 0.61826 0.0
C106 C 0.06459 0.06146 0.45525 0.0
Dy107 Dy 0.01876 0.01305 0.56662 0.0
O108 O 0.07377 0.03994 0.4639 0.0
O109 O 0.04777 0.07 0.47479 0.0
O110 O 0.09514 0.02606 0.51884 0.0
O111 O 0.0601 0.01723 0.54567 0.0
C112 C 0.08615 0.01463 0.54293 0.0
C113 C 0.98365 0.0357 0.53064 0.0
O114 O 0.04623 0.05201 0.58266 0.0
O115 O 0.05903 0.07329 0.53848 0.0
O116 O 0.00937 0.01487 0.61467 0.0
O117 O 0.00901 0.97627 0.59367 0.0
O118 O 0.9746 0.02394 0.55452 0.0
O119 O 0.00986 0.03367 0.5282 0.0
O120 O 0.02516 0.99821 0.49148 0.0
O121 O 0.01825 0.97692 0.53644 0.0
C122 C 0.0575 0.07338 0.56757 0.0
C123 C 0.018 0.97648 0.50734 0.0
Dy124 Dy 0.55925 0.03346 0.05189 0.0
C125 C 0.49411 0.97962 0.95227 0.0
C126 C 0.59671 0.06064 0.09304 0.0
Dy127 Dy 0.52394 0.00959 0.99704 0.0
O128 O 0.59043 0.03457 0.0898 0.0
O129 O 0.58278 0.07198 0.07345 0.0
O130 O 0.5285 0.00759 0.08044 0.0
O131 O 0.53628 0.99341 0.03806 0.0
C132 C 0.52126 0.98855 0.0606 0.0
C133 C 0.54585 0.06227 0.99564 0.0
O134 O 0.48964 0.02258 0.02533 0.0
O135 O 0.5202 0.054 0.05444 0.0
O136 O 0.4861 0.97951 0.97946 0.0
O137 O 0.51846 0.99592 0.94965 0.0
O138 O 0.52163 0.05154 0.98286 0.0
O139 O 0.55805 0.04415 0.00623 0.0
O140 O 0.59309 0.01438 0.02845 0.0
O141 O 0.56442 0.99183 0.99034 0.0
C142 C 0.49399 0.04328 0.04444 0.0
C143 C 0.58943 0.99782 0.00498 0.0
Dy144 Dy 0.55541 0.50593 0.51217 0.0
C145 C 0.5082 0.59201 0.57135 0.0
C146 C 0.58606 0.46884 0.48782 0.0
Dy147 Dy 0.53887 0.55492 0.5471 0.0
O148 O 0.55794 0.46645 0.48811 0.0
O149 O 0.59742 0.49169 0.50046 0.0
O150 O 0.50858 0.48592 0.51103 0.0
O151 O 0.52462 0.51168 0.5463 0.0
C152 C 0.50199 0.49826 0.53491 0.0
C153 C 0.59269 0.56191 0.52576 0.0
O154 O 0.55257 0.53236 0.5847 0.0
O155 O 0.57552 0.50265 0.5568 0.0
O156 O 0.53615 0.59572 0.56805 0.0
O157 O 0.49709 0.56788 0.56182 0.0
O158 O 0.58589 0.57352 0.55004 0.0
O159 O 0.57016 0.54926 0.51322 0.0
O160 O 0.54123 0.52828 0.47467 0.0
O161 O 0.51849 0.55805 0.50269 0.0
C162 C 0.56944 0.51353 0.58249 0.0
C163 C 0.52431 0.54703 0.47703 0.0
Dy164 Dy 0.05172 0.48601 0.04131 0.0
C165 C 0.01148 0.5881 0.01673 0.0
C166 C 0.07629 0.44095 0.04754 0.0
Dy167 Dy 0.03413 0.5418 0.0196 0.0
O168 O 0.05114 0.44431 0.05757 0.0
O169 O 0.08811 0.46225 0.03418 0.0
O170 O 0.02203 0.48698 0.07985 0.0
O171 O 0.04027 0.52297 0.06104 0.0
C172 C 0.02201 0.51281 0.07923 0.0
C173 C 0.05445 0.51253 0.97591 0.0
O174 O 0.07741 0.55634 0.04136 0.0
O175 O 0.09253 0.5152 0.05131 0.0
O176 O 0.03699 0.58495 0.00738 0.0
O177 O 0.99846 0.56599 0.0279 0.0
O178 O 0.04525 0.53513 0.97133 0.0
O179 O 0.0514 0.50808 0.00245 0.0
O180 O 0.01324 0.47258 0.01173 0.0
O181 O 0.99296 0.51196 0.01633 0.0
C182 C 0.0972 0.54199 0.05045 0.0
C183 C 0.99105 0.48591 0.00921 0.0
H184 H 0.21531 0.17079 0.25065 0.0
H185 H 0.18953 0.15008 0.29246 0.0
H186 H 0.10959 0.17103 0.25981 0.0
H187 H 0.13467 0.19041 0.21693 0.0
H188 H 0.12634 0.1814 0.32627 0.0
H189 H 0.11066 0.1138 0.24648 0.0
H190 H 0.12763 0.08686 0.20603 0.0
H191 H 0.18285 0.05396 0.26589 0.0
H192 H 0.16655 0.08107 0.30663 0.0
H193 H 0.04005 0.09973 0.42756 0.0
H194 H 0.05728 0.12314 0.38328 0.0
H195 H 0.12933 0.07902 0.37995 0.0
H196 H 0.111 0.05448 0.4227 0.0
H197 H 0.1122 0.08157 0.32865 0.0
H198 H 0.13325 0.14875 0.40723 0.0
H199 H 0.1215 0.17689 0.44933 0.0
H200 H 0.06264 0.21163 0.39528 0.0
H201 H 0.07384 0.18348 0.35292 0.0
C202 C 0.19221 0.17087 0.25211 0.0
C203 C 0.1771 0.18211 0.23011 0.0
C204 C 0.1776 0.15927 0.27621 0.0
C205 C 0.14774 0.15907 0.27907 0.0
C206 C 0.13272 0.1712 0.25797 0.0
C207 C 0.14719 0.18239 0.23355 0.0
C208 C 0.13203 0.14465 0.30321 0.0
C209 C 0.12278 0.15956 0.32674 0.0
C210 C 0.12813 0.11627 0.30391 0.0
C211 C 0.13759 0.09965 0.27953 0.0
C212 C 0.12661 0.101 0.25097 0.0
C213 C 0.13607 0.08566 0.228 0.0
C214 C 0.15636 0.06876 0.23337 0.0
C215 C 0.16716 0.06708 0.26175 0.0
C216 C 0.1578 0.08241 0.28479 0.0
C217 C 0.0594 0.09497 0.41709 0.0
C218 C 0.0742 0.07533 0.42838 0.0
C219 C 0.06941 0.1085 0.39198 0.0
C220 C 0.09497 0.10326 0.37843 0.0
C221 C 0.10953 0.08344 0.38979 0.0
C222 C 0.0991 0.06945 0.41431 0.0
C223 C 0.10686 0.11822 0.35251 0.0
C224 C 0.11542 0.10341 0.3284 0.0
C225 C 0.11072 0.14675 0.35166 0.0
C226 C 0.10416 0.16384 0.37701 0.0
C227 C 0.11769 0.1623 0.40438 0.0
C228 C 0.11114 0.17825 0.42827 0.0
C229 C 0.09128 0.19598 0.425 0.0
C230 C 0.07799 0.19786 0.39779 0.0
C231 C 0.08445 0.18194 0.37383 0.0
H232 H 0.08623 0.20831 0.44353 0.0
H233 H 0.16367 0.05691 0.21556 0.0
H234 H 0.3847 0.87135 0.70773 0.0
H235 H 0.41316 0.89042 0.75088 0.0
H236 H 0.33417 0.89285 0.79846 0.0
H237 H 0.30569 0.8747 0.75494 0.0
H238 H 0.36902 0.93663 0.81051 0.0
H239 H 0.37972 0.84376 0.80908 0.0
H240 H 0.39099 0.80093 0.78796 0.0
H241 H 0.47905 0.83811 0.7746 0.0
H242 H 0.4682 0.88129 0.79526 0.0
H243 H 0.43777 0.95455 0.95208 0.0
H244 H 0.409 0.93275 0.91005 0.0
H245 H 0.48375 0.94939 0.85498 0.0
H246 H 0.51243 0.97166 0.89676 0.0
H247 H 0.45078 0.8951 0.8482 0.0
H248 H 0.43764 0.98859 0.84967 0.0
H249 H 0.42494 0.03012 0.87267 0.0
H250 H 0.33894 0.98898 0.88872 0.0
H251 H 0.35129 0.94706 0.86619 0.0
C252 C 0.37346 0.87588 0.72746 0.0
C253 C 0.343 0.87146 0.72804 0.0
C254 C 0.38973 0.88667 0.75218 0.0
C255 C 0.37589 0.89266 0.77823 0.0
C256 C 0.34542 0.88842 0.77871 0.0
C257 C 0.32915 0.87804 0.75384 0.0
C258 C 0.39313 0.90373 0.80481 0.0
C259 C 0.38658 0.92723 0.81894 0.0
C260 C 0.4164 0.89181 0.81575 0.0
C261 C 0.42306 0.86583 0.80347 0.0
C262 C 0.40144 0.84286 0.80145 0.0
C263 C 0.40775 0.81851 0.78959 0.0
C264 C 0.4357 0.81682 0.77988 0.0
C265 C 0.4574 0.83946 0.78209 0.0
C266 C 0.45119 0.86387 0.7939 0.0
C267 C 0.44808 0.95337 0.93105 0.0
C268 C 0.47726 0.96484 0.92759 0.0
C269 C 0.43164 0.94099 0.90709 0.0
C270 C 0.44425 0.93958 0.87941 0.0
C271 C 0.47365 0.95026 0.87616 0.0
C272 C 0.48995 0.96302 0.89999 0.0
C273 C 0.42655 0.9278 0.85362 0.0
C274 C 0.43307 0.90426 0.83971 0.0
C275 C 0.40298 0.9394 0.84314 0.0
C276 C 0.39549 0.96462 0.85655 0.0
C277 C 0.41611 0.98833 0.85835 0.0
C278 C 0.40896 0.01196 0.87125 0.0
C279 C 0.38118 0.01217 0.88223 0.0
C280 C 0.36047 0.98877 0.88026 0.0
C281 C 0.36752 0.96508 0.86741 0.0
H282 H 0.37568 0.03048 0.8922 0.0
H283 H 0.44054 0.79795 0.77069 0.0
H284 H 0.6455 0.36307 0.78042 0.0
H285 H 0.6341 0.38786 0.7378 0.0
H286 H 0.60668 0.44875 0.79487 0.0
H287 H 0.61842 0.42419 0.83767 0.0
H288 H 0.56815 0.43167 0.74754 0.0
H289 H 0.67016 0.46272 0.76479 0.0
H290 H 0.72111 0.45708 0.77258 0.0
H291 H 0.72092 0.41625 0.68847 0.0
H292 H 0.66981 0.42129 0.68036 0.0
H293 H 0.56005 0.52837 0.63948 0.0
H294 H 0.57255 0.50647 0.68369 0.0
H295 H 0.61207 0.44994 0.63089 0.0
H296 H 0.6003 0.47199 0.58674 0.0
H297 H 0.64459 0.46577 0.67727 0.0
H298 H 0.54352 0.43336 0.65924 0.0
H299 H 0.49198 0.43666 0.65081 0.0
H300 H 0.48917 0.47698 0.73481 0.0
H301 H 0.54081 0.47433 0.74358 0.0
C302 C 0.63745 0.38193 0.78391 0.0
C303 C 0.63375 0.39222 0.81239 0.0
C304 C 0.63083 0.39599 0.75955 0.0
C305 C 0.61992 0.4203 0.76324 0.0
C306 C 0.61527 0.43013 0.7916 0.0
C307 C 0.62215 0.41621 0.81597 0.0
C308 C 0.61352 0.43552 0.73746 0.0
C309 C 0.58488 0.4395 0.73235 0.0
C310 C 0.63528 0.44505 0.71735 0.0
C311 C 0.66607 0.44216 0.7221 0.0
C312 C 0.68091 0.45234 0.74806 0.0
C313 C 0.70983 0.44929 0.75251 0.0
C314 C 0.72422 0.43625 0.73106 0.0
C315 C 0.70974 0.42631 0.70508 0.0
C316 C 0.6808 0.42928 0.70054 0.0
C317 C 0.57163 0.51143 0.63727 0.0
C318 C 0.57904 0.50188 0.60951 0.0
C319 C 0.57857 0.4988 0.66257 0.0
C320 C 0.5928 0.47626 0.66057 0.0
C321 C 0.60099 0.46724 0.63297 0.0
C322 C 0.5942 0.4799 0.60771 0.0
C323 C 0.59911 0.46193 0.68713 0.0
C324 C 0.62778 0.45807 0.69243 0.0
C325 C 0.57726 0.45223 0.70721 0.0
C326 C 0.54618 0.45395 0.70191 0.0
C327 C 0.532 0.44317 0.6758 0.0
C328 C 0.50275 0.44488 0.67098 0.0
C329 C 0.48737 0.45713 0.6922 0.0
C330 C 0.50115 0.46758 0.71835 0.0
C331 C 0.53041 0.46597 0.72326 0.0
H332 H 0.46475 0.45849 0.68843 0.0
H333 H 0.74661 0.43391 0.73455 0.0
H334 H 0.89739 0.61586 0.2971 0.0
H335 H 0.91837 0.58872 0.25983 0.0
H336 H 0.948 0.6605 0.21248 0.0
H337 H 0.92697 0.68759 0.24965 0.0
H338 H 0.92198 0.61949 0.17622 0.0
H339 H 0.99542 0.63157 0.25204 0.0
H340 H 0.01454 0.62996 0.30231 0.0
H341 H 0.98725 0.5442 0.30106 0.0
H342 H 0.96759 0.54535 0.2509 0.0
H343 H 0.02276 0.56723 0.08236 0.0
H344 H 0.99987 0.59318 0.11914 0.0
H345 H 0.96661 0.51984 0.16219 0.0
H346 H 0.98887 0.49371 0.12503 0.0
H347 H 0.99404 0.5609 0.20066 0.0
H348 H 0.91987 0.54792 0.12677 0.0
H349 H 0.89888 0.54816 0.0771 0.0
H350 H 0.92644 0.63364 0.07495 0.0
H351 H 0.94778 0.63398 0.12463 0.0
C352 C 0.9087 0.6258 0.27889 0.0
C353 C 0.91103 0.65383 0.27648 0.0
C354 C 0.92065 0.61033 0.25762 0.0
C355 C 0.93503 0.62263 0.2335 0.0
C356 C 0.93709 0.65061 0.23094 0.0
C357 C 0.92523 0.66607 0.25224 0.0
C358 C 0.94754 0.60627 0.2107 0.0
C359 C 0.93805 0.60699 0.18152 0.0
C360 C 0.96789 0.58935 0.21769 0.0
C361 C 0.97978 0.58859 0.24782 0.0
C362 C 0.99328 0.6124 0.26257 0.0
C363 C 0.00426 0.61156 0.29103 0.0
C364 C 0.00204 0.587 0.3049 0.0
C365 C 0.98891 0.56322 0.2903 0.0
C366 C 0.97787 0.56394 0.26185 0.0
C367 C 0.01021 0.55662 0.09941 0.0
C368 C 0.00739 0.52845 0.10073 0.0
C369 C 0.99721 0.57146 0.12044 0.0
C370 C 0.98148 0.55841 0.14335 0.0
C371 C 0.97867 0.53028 0.14471 0.0
C372 C 0.99132 0.5154 0.12344 0.0
C373 C 0.96855 0.57424 0.16626 0.0
C374 C 0.97798 0.57343 0.19541 0.0
C375 C 0.94803 0.59095 0.15929 0.0
C376 C 0.93558 0.59094 0.12933 0.0
C377 C 0.92163 0.56677 0.11563 0.0
C378 C 0.90957 0.56683 0.08754 0.0
C379 C 0.91118 0.59097 0.07298 0.0
C380 C 0.92501 0.61506 0.08641 0.0
C381 C 0.93708 0.61514 0.11453 0.0
H382 H 0.90184 0.591 0.05122 0.0
H383 H 0.01055 0.5864 0.32693 0.0
H384 H 0.25616 0.13542 0.08031 0.0
H385 H 0.29966 0.11661 0.06686 0.0
H386 H 0.33035 0.12712 0.15649 0.0
H387 H 0.28671 0.14577 0.17008 0.0
H388 H 0.37327 0.14464 0.1158 0.0
H389 H 0.30233 0.06657 0.1326 0.0
H390 H 0.25497 0.03705 0.12641 0.0
H391 H 0.27014 0.02701 0.03446 0.0
H392 H 0.31745 0.0568 0.04003 0.0
H393 H 0.48742 0.06802 0.09745 0.0
H394 H 0.44481 0.08606 0.1149 0.0
H395 H 0.40154 0.0636 0.03166 0.0
H396 H 0.44341 0.04413 0.01491 0.0
H397 H 0.36492 0.05208 0.07181 0.0
H398 H 0.43515 0.13137 0.05415 0.0
H399 H 0.48263 0.16074 0.06015 0.0
H400 H 0.46882 0.16927 0.15255 0.0
H401 H 0.42144 0.13961 0.14715 0.0
C402 C 0.27231 0.13388 0.09706 0.0
C403 C 0.26843 0.14251 0.1261 0.0
C404 C 0.29704 0.12305 0.0894 0.0
C405 C 0.31816 0.12047 0.11071 0.0
C406 C 0.31436 0.12911 0.13973 0.0
C407 C 0.28952 0.13975 0.14744 0.0
C408 C 0.34409 0.1085 0.10268 0.0
C409 C 0.37156 0.12429 0.10648 0.0
C410 C 0.34168 0.08216 0.09008 0.0
C411 C 0.31331 0.06412 0.0867 0.0
C412 C 0.29547 0.05825 0.11102 0.0
C413 C 0.26865 0.04143 0.10763 0.0
C414 C 0.25952 0.03021 0.08004 0.0
C415 C 0.27723 0.03573 0.05581 0.0
C416 C 0.30406 0.05257 0.05908 0.0
C417 C 0.46879 0.06701 0.08292 0.0
C418 C 0.46868 0.05479 0.05482 0.0
C419 C 0.4445 0.07745 0.09283 0.0
C420 C 0.42008 0.07671 0.07442 0.0
C421 C 0.42005 0.06444 0.04632 0.0
C422 C 0.44401 0.05338 0.03672 0.0
C423 C 0.39435 0.08836 0.08435 0.0
C424 C 0.36681 0.07247 0.08103 0.0
C425 C 0.39671 0.11472 0.09718 0.0
C426 C 0.42488 0.13307 0.10028 0.0
C427 C 0.44231 0.13943 0.07576 0.0
C428 C 0.4692 0.15613 0.07906 0.0
C429 C 0.47877 0.16681 0.10675 0.0
C430 C 0.46139 0.16095 0.13114 0.0
C431 C 0.43452 0.14421 0.12797 0.0
H432 H 0.49964 0.17963 0.10935 0.0
H433 H 0.23875 0.0172 0.07746 0.0
H434 H 0.29202 0.90949 0.64262 0.0
H435 H 0.25403 0.93382 0.62585 0.0
H436 H 0.18867 0.86832 0.65159 0.0
H437 H 0.22709 0.84329 0.66685 0.0
H438 H 0.17053 0.88623 0.6045 0.0
H439 H 0.20642 0.9297 0.69363 0.0
H440 H 0.24245 0.95132 0.73046 0.0
H441 H 0.27081 0.01506 0.6721 0.0
H442 H 0.23526 0.99362 0.63471 0.0
H443 H 0.06701 0.97739 0.5839 0.0
H444 H 0.09653 0.94975 0.61097 0.0
H445 H 0.17372 0.99106 0.57112 0.0
H446 H 0.14443 0.01819 0.54389 0.0
H447 H 0.17916 0.98334 0.633 0.0
H448 H 0.14299 0.93291 0.54232 0.0
H449 H 0.10228 0.91171 0.51023 0.0
H450 H 0.06863 0.86063 0.57949 0.0
H451 H 0.10892 0.88183 0.61211 0.0
C452 C 0.26952 0.90029 0.64448 0.0
C453 C 0.26237 0.87467 0.6561 0.0
C454 C 0.24776 0.91426 0.63516 0.0
C455 C 0.21828 0.90335 0.63818 0.0
C456 C 0.21115 0.87734 0.64917 0.0
C457 C 0.23304 0.86306 0.65792 0.0
C458 C 0.19524 0.91928 0.62988 0.0
C459 C 0.17223 0.90732 0.61123 0.0
C460 C 0.19691 0.94681 0.63881 0.0
C461 C 0.21828 0.95993 0.66128 0.0
C462 C 0.22046 0.94824 0.68857 0.0
C463 C 0.2408 0.96047 0.70956 0.0
C464 C 0.25894 0.98452 0.70361 0.0
C465 C 0.25675 0.99642 0.67667 0.0
C466 C 0.23648 0.98425 0.65558 0.0
C467 C 0.09031 0.98074 0.58131 0.0
C468 C 0.10349 0.99985 0.56182 0.0
C469 C 0.10711 0.96492 0.59665 0.0
C470 C 0.13731 0.9683 0.59293 0.0
C471 C 0.15049 0.98815 0.57435 0.0
C472 C 0.13373 0.00359 0.55876 0.0
C473 C 0.15544 0.9505 0.60699 0.0
C474 C 0.17741 0.96213 0.62675 0.0
C475 C 0.15228 0.92258 0.59977 0.0
C476 C 0.12882 0.90909 0.57971 0.0
C477 C 0.12686 0.91721 0.55072 0.0
C478 C 0.10385 0.90521 0.53244 0.0
C479 C 0.08284 0.88488 0.54283 0.0
C480 C 0.0849 0.8764 0.57146 0.0
C481 C 0.10783 0.88838 0.58985 0.0
H482 H 0.06501 0.87568 0.52867 0.0
H483 H 0.27467 0.99396 0.71988 0.0
H484 H 0.73123 0.37367 0.9455 0.0
H485 H 0.77878 0.3962 0.96422 0.0
H486 H 0.81361 0.39267 0.8774 0.0
H487 H 0.76585 0.37082 0.85839 0.0
H488 H 0.84195 0.37083 0.94015 0.0
H489 H 0.81497 0.44523 0.88308 0.0
H490 H 0.77999 0.47486 0.86984 0.0
H491 H 0.77482 0.5 0.96014 0.0
H492 H 0.80944 0.47015 0.97393 0.0
H493 H 0.98265 0.44517 0.96762 0.0
H494 H 0.9365 0.42325 0.94571 0.0
H495 H 0.89073 0.47173 0.00278 0.0
H496 H 0.93697 0.4948 0.02329 0.0
H497 H 0.8672 0.47022 0.95333 0.0
H498 H 0.89446 0.40117 0.01221 0.0
H499 H 0.92624 0.3705 0.03045 0.0
H500 H 0.92765 0.33349 0.94449 0.0
H501 H 0.89615 0.36417 0.92566 0.0
C502 C 0.74903 0.3779 0.93044 0.0
C503 C 0.74502 0.37069 0.90054 0.0
C504 C 0.77605 0.39069 0.94111 0.0
C505 C 0.79948 0.39604 0.92211 0.0
C506 C 0.79562 0.38875 0.89228 0.0
C507 C 0.76844 0.37644 0.88148 0.0
C508 C 0.82811 0.40897 0.93367 0.0
C509 C 0.84783 0.39256 0.94268 0.0
C510 C 0.83503 0.43718 0.93786 0.0
C511 C 0.81445 0.45522 0.92955 0.0
C512 C 0.8061 0.45685 0.90013 0.0
C513 C 0.78642 0.47373 0.89252 0.0
C514 C 0.77511 0.48924 0.91415 0.0
C515 C 0.78355 0.48794 0.94342 0.0
C516 C 0.8032 0.47106 0.95113 0.0
C517 C 0.96267 0.45097 0.97554 0.0
C518 C 0.96325 0.47156 0.99717 0.0
C519 C 0.93628 0.43836 0.96313 0.0
C520 C 0.90995 0.44545 0.97288 0.0
C521 C 0.91065 0.46589 0.99477 0.0
C522 C 0.93706 0.47901 0.00658 0.0
C523 C 0.88171 0.43215 0.95988 0.0
C524 C 0.86178 0.44846 0.95072 0.0
C525 C 0.87439 0.40373 0.95617 0.0
C526 C 0.89318 0.38515 0.96747 0.0
C527 C 0.9017 0.38661 0.99716 0.0
C528 C 0.91964 0.36921 0.00761 0.0
C529 C 0.92902 0.35011 0.98862 0.0
C530 C 0.9204 0.34832 0.95916 0.0
C531 C 0.90248 0.36568 0.9486 0.0
H532 H 0.94292 0.33667 0.99675 0.0
H533 H 0.75988 0.50231 0.90822 0.0
H534 H 0.80888 0.64697 0.35996 0.0
H535 H 0.76485 0.62401 0.38239 0.0
H536 H 0.8 0.6503 0.46809 0.0
H537 H 0.84459 0.67244 0.44588 0.0
H538 H 0.77382 0.5989 0.46841 0.0
H539 H 0.74952 0.68198 0.43443 0.0
H540 H 0.74469 0.71629 0.39824 0.0
H541 H 0.68687 0.65789 0.34609 0.0
H542 H 0.69169 0.62312 0.38179 0.0
H543 H 0.64322 0.5883 0.55004 0.0
H544 H 0.68887 0.60346 0.52514 0.0
H545 H 0.65119 0.56739 0.44376 0.0
H546 H 0.60554 0.55189 0.46865 0.0
H547 H 0.6781 0.62112 0.43934 0.0
H548 H 0.70016 0.53871 0.47531 0.0
H549 H 0.70423 0.50502 0.51237 0.0
H550 H 0.76565 0.56265 0.56161 0.0
H551 H 0.76159 0.59686 0.52505 0.0
C552 C 0.80742 0.64763 0.38361 0.0
C553 C 0.83029 0.66169 0.40109 0.0
C554 C 0.78209 0.63468 0.39639 0.0
C555 C 0.77892 0.63569 0.42693 0.0
C556 C 0.80188 0.6493 0.44448 0.0
C557 C 0.82726 0.6622 0.43172 0.0
C558 C 0.75155 0.6229 0.44059 0.0
C559 C 0.75294 0.60398 0.46226 0.0
C560 C 0.72416 0.629 0.4321 0.0
C561 C 0.72122 0.64988 0.41062 0.0
C562 C 0.73597 0.6764 0.41512 0.0
C563 C 0.7332 0.69594 0.39472 0.0
C564 C 0.71556 0.68926 0.36984 0.0
C565 C 0.70058 0.66303 0.36535 0.0
C566 C 0.70331 0.6434 0.38566 0.0
C567 C 0.6448 0.58335 0.52691 0.0
C568 C 0.62087 0.56901 0.51125 0.0
C569 C 0.67088 0.59196 0.51274 0.0
C570 C 0.67341 0.58652 0.48261 0.0
C571 C 0.64966 0.57181 0.46701 0.0
C572 C 0.62367 0.5629 0.48127 0.0
C573 C 0.70044 0.59733 0.46725 0.0
C574 C 0.69898 0.61591 0.44531 0.0
C575 C 0.72773 0.59099 0.47557 0.0
C576 C 0.73036 0.57044 0.49755 0.0
C577 C 0.71435 0.54429 0.49416 0.0
C578 C 0.71669 0.52508 0.51506 0.0
C579 C 0.73514 0.53171 0.53937 0.0
C580 C 0.75134 0.55755 0.54278 0.0
C581 C 0.74905 0.57686 0.52196 0.0
H582 H 0.73693 0.51681 0.55553 0.0
H583 H 0.71343 0.70442 0.35407 0.0
H584 H 0.14132 0.23251 0.15535 0.0
H585 H 0.12468 0.26895 0.12964 0.0
H586 H 0.21287 0.30024 0.10706 0.0
H587 H 0.2299 0.26437 0.13395 0.0
H588 H 0.18551 0.33996 0.12483 0.0
H589 H 0.16541 0.26661 0.05553 0.0
H590 H 0.14662 0.22027 0.03747 0.0
H591 H 0.05985 0.23184 0.05791 0.0
H592 H 0.07815 0.27814 0.0765 0.0
H593 H 0.13134 0.43388 0.03379 0.0
H594 H 0.15541 0.39575 0.04621 0.0
H595 H 0.07637 0.35652 0.0846 0.0
H596 H 0.0523 0.39447 0.07229 0.0
H597 H 0.10469 0.32109 0.05195 0.0
H598 H 0.12719 0.39237 0.12738 0.0
H599 H 0.14655 0.43876 0.14497 0.0
H600 H 0.23026 0.43069 0.11108 0.0
H601 H 0.21126 0.38434 0.09293 0.0
C602 C 0.15726 0.24729 0.14521 0.0
C603 C 0.18697 0.24554 0.14676 0.0
C604 C 0.14766 0.26792 0.13015 0.0
C605 C 0.16748 0.28705 0.11596 0.0
C606 C 0.19718 0.28556 0.11765 0.0
C607 C 0.20685 0.26495 0.13286 0.0
C608 C 0.15703 0.309 0.10016 0.0
C609 C 0.16827 0.33581 0.10843 0.0
C610 C 0.13437 0.30362 0.07892 0.0
C611 C 0.1232 0.27582 0.06759 0.0
C612 C 0.14234 0.25922 0.05636 0.0
C613 C 0.13177 0.23296 0.046 0.0
C614 C 0.10207 0.2231 0.04659 0.0
C615 C 0.08286 0.23951 0.05747 0.0
C616 C 0.09331 0.26578 0.06789 0.0
C617 C 0.11909 0.41698 0.04464 0.0
C618 C 0.09011 0.41716 0.05243 0.0
C619 C 0.13284 0.39527 0.05171 0.0
C620 C 0.11772 0.3735 0.06659 0.0
C621 C 0.08839 0.37315 0.07313 0.0
C622 C 0.07472 0.39487 0.06622 0.0
C623 C 0.1327 0.35183 0.0772 0.0
C624 C 0.1223 0.32513 0.06795 0.0
C625 C 0.15626 0.35729 0.09737 0.0
C626 C 0.16773 0.38504 0.1085 0.0
C627 C 0.14966 0.40057 0.12348 0.0
C628 C 0.16058 0.42684 0.13358 0.0
C629 C 0.1896 0.4377 0.12906 0.0
C630 C 0.20778 0.42227 0.11451 0.0
C631 C 0.19695 0.39601 0.10432 0.0
H632 H 0.19801 0.45804 0.13689 0.0
H633 H 0.09393 0.20276 0.03856 0.0
H634 H 0.70656 0.27785 0.91121 0.0
H635 H 0.68578 0.23594 0.9336 0.0
H636 H 0.5999 0.25544 0.92176 0.0
H637 H 0.62064 0.29824 0.90102 0.0
H638 H 0.6042 0.23587 0.97335 0.0
H639 H 0.62797 0.20895 0.87595 0.0
H640 H 0.65951 0.2056 0.83346 0.0
H641 H 0.71529 0.16504 0.88501 0.0
H642 H 0.68427 0.16847 0.92795 0.0
H643 H 0.52109 0.10369 0.97612 0.0
H644 H 0.54556 0.14869 0.96406 0.0
H645 H 0.62733 0.12845 0.99278 0.0
H646 H 0.60285 0.08345 0.00529 0.0
H647 H 0.62766 0.14833 0.93575 0.0
H648 H 0.59963 0.17249 0.03233 0.0
H649 H 0.56683 0.17647 0.07365 0.0
H650 H 0.51647 0.22172 0.02132 0.0
H651 H 0.54868 0.21765 0.97951 0.0
C652 C 0.68327 0.27346 0.91371 0.0
C653 C 0.66529 0.29149 0.90425 0.0
C654 C 0.67138 0.24927 0.9262 0.0
C655 C 0.64123 0.24231 0.92898 0.0
C656 C 0.62323 0.26032 0.91975 0.0
C657 C 0.63511 0.28466 0.90757 0.0
C658 C 0.62839 0.21632 0.94157 0.0
C659 C 0.60908 0.2167 0.96488 0.0
C660 C 0.6353 0.19134 0.93104 0.0
C661 C 0.65397 0.18924 0.90525 0.0
C662 C 0.64709 0.19951 0.87829 0.0
C663 C 0.66485 0.19757 0.85411 0.0
C664 C 0.68943 0.18519 0.85656 0.0
C665 C 0.69627 0.17467 0.88317 0.0
C666 C 0.6786 0.17659 0.90742 0.0
C667 C 0.54421 0.109 0.98025 0.0
C668 C 0.56016 0.09013 0.99142 0.0
C669 C 0.55813 0.1347 0.97346 0.0
C670 C 0.58822 0.14184 0.97756 0.0
C671 C 0.60408 0.12327 0.98949 0.0
C672 C 0.59009 0.09766 0.99666 0.0
C673 C 0.60328 0.16793 0.96724 0.0
C674 C 0.62298 0.16753 0.94432 0.0
C675 C 0.59639 0.19283 0.97785 0.0
C676 C 0.57647 0.19459 0.0027 0.0
C677 C 0.58136 0.183 0.0295 0.0
C678 C 0.56292 0.18535 0.05304 0.0
C679 C 0.53963 0.19938 0.0501 0.0
C680 C 0.53456 0.2109 0.02356 0.0
C681 C 0.55291 0.20859 0.99995 0.0
H682 H 0.52558 0.20147 0.06841 0.0
H683 H 0.70315 0.1837 0.83781 0.0
H684 H 0.87133 0.75924 0.39656 0.0
H685 H 0.89482 0.80373 0.41561 0.0
H686 H 0.97645 0.77456 0.42171 0.0
H687 H 0.95315 0.73013 0.40214 0.0
H688 H 0.95939 0.80488 0.47376 0.0
H689 H 0.97134 0.81124 0.36934 0.0
H690 H 0.95413 0.80747 0.31796 0.0
H691 H 0.89772 0.86519 0.33661 0.0
H692 H 0.91428 0.86899 0.38824 0.0
H693 H 0.04317 0.93167 0.51013 0.0
H694 H 0.0261 0.88724 0.48694 0.0
H695 H 0.95304 0.91758 0.44938 0.0
H696 H 0.9717 0.96254 0.47057 0.0
H697 H 0.96768 0.88514 0.41236 0.0
H698 H 0.95194 0.87808 0.51605 0.0
H699 H 0.96652 0.88209 0.56825 0.0
H700 H 0.02533 0.82585 0.5531 0.0
H701 H 0.01148 0.82187 0.50072 0.0
C702 C 0.89426 0.76234 0.40205 0.0
C703 C 0.91045 0.7413 0.39786 0.0
C704 C 0.90765 0.78772 0.41282 0.0
C705 C 0.93736 0.7924 0.41999 0.0
C706 C 0.9535 0.77132 0.41629 0.0
C707 C 0.94023 0.74605 0.405 0.0
C708 C 0.95155 0.81941 0.43119 0.0
C709 C 0.96159 0.82243 0.46031 0.0
C710 C 0.95367 0.84231 0.41379 0.0
C711 C 0.94384 0.84019 0.38272 0.0
C712 C 0.95507 0.82294 0.36255 0.0
C713 C 0.94547 0.82084 0.33337 0.0
C714 C 0.92479 0.83603 0.32405 0.0
C715 C 0.91371 0.85341 0.34387 0.0
C716 C 0.92322 0.85556 0.37309 0.0
C717 C 0.02369 0.92878 0.49656 0.0
C718 C 0.00864 0.95029 0.49203 0.0
C719 C 0.01372 0.90334 0.48357 0.0
C720 C 0.98769 0.89863 0.46704 0.0
C721 C 0.97308 0.92049 0.46205 0.0
C722 C 0.98366 0.94616 0.47418 0.0
C723 C 0.97535 0.871 0.45534 0.0
C724 C 0.9656 0.86774 0.42602 0.0
C725 C 0.97298 0.84793 0.47279 0.0
C726 C 0.98085 0.84986 0.50442 0.0
C727 C 0.96807 0.86666 0.52384 0.0
C728 C 0.97622 0.86894 0.55345 0.0
C729 C 0.9969 0.8543 0.56397 0.0
C730 C 0.00935 0.83722 0.54492 0.0
C731 C 1.00136 0.83494 0.51527 0.0
H732 H 0.00324 0.85614 0.58688 0.0
H733 H 0.91739 0.83437 0.30144 0.0
H734 H 0.32115 0.75076 0.62139 0.0
H735 H 0.34978 0.714 0.61636 0.0
H736 H 0.42862 0.77208 0.61995 0.0
H737 H 0.40007 0.80875 0.6249 0.0
H738 H 0.42896 0.73613 0.57494 0.0
H739 H 0.40913 0.73252 0.67743 0.0
H740 H 0.37858 0.72963 0.72127 0.0
H741 H 0.33358 0.65245 0.69015 0.0
H742 H 0.36361 0.65505 0.64589 0.0
H743 H 0.5285 0.64476 0.58596 0.0
H744 H 0.50009 0.6803 0.59865 0.0
H745 H 0.42133 0.62227 0.59192 0.0
H746 H 0.44971 0.5866 0.57928 0.0
H747 H 0.42097 0.65792 0.63934 0.0
H748 H 0.43994 0.66206 0.53648 0.0
H749 H 0.47045 0.66483 0.4926 0.0
H750 H 0.51681 0.74123 0.52444 0.0
H751 H 0.48685 0.73871 0.56876 0.0
C752 C 0.3446 0.75555 0.6215 0.0
C753 C 0.3584 0.78254 0.6237 0.0
C754 C 0.36095 0.73459 0.61866 0.0
C755 C 0.39141 0.74023 0.61794 0.0
C756 C 0.40518 0.7672 0.62045 0.0
C757 C 0.38886 0.78813 0.62339 0.0
C758 C 0.40888 0.71818 0.61333 0.0
C759 C 0.42752 0.71926 0.58931 0.0
C760 C 0.4065 0.69576 0.6316 0.0
C761 C 0.38843 0.69411 0.6582 0.0
C762 C 0.39255 0.71503 0.67981 0.0
C763 C 0.37536 0.71343 0.70476 0.0
C764 C 0.35409 0.6909 0.70845 0.0
C765 C 0.35003 0.6699 0.68724 0.0
C766 C 0.36715 0.67142 0.66222 0.0
C767 C 0.50515 0.63953 0.58748 0.0
C768 C 0.49129 0.61295 0.5815 0.0
C769 C 0.48893 0.65987 0.59463 0.0
C770 C 0.45852 0.65403 0.5959 0.0
C771 C 0.44473 0.62726 0.59103 0.0
C772 C 0.46096 0.60693 0.58375 0.0
C773 C 0.44111 0.67602 0.60108 0.0
C774 C 0.42245 0.67488 0.62508 0.0
C775 C 0.44341 0.69841 0.58279 0.0
C776 C 0.46135 0.70006 0.55608 0.0
C777 C 0.4568 0.67935 0.53424 0.0
C778 C 0.47396 0.68089 0.50927 0.0
C779 C 0.4956 0.70316 0.50577 0.0
C780 C 0.50007 0.72397 0.5272 0.0
C781 C 0.48299 0.7225 0.55224 0.0
H782 H 0.50887 0.70432 0.48642 0.0
H783 H 0.34081 0.6897 0.72779 0.0
H784 H 0.88705 0.92266 0.86219 0.0
H785 H 0.91302 0.94157 0.81958 0.0
H786 H 0.91147 0.86143 0.78202 0.0
H787 H 0.88572 0.84235 0.82491 0.0
H788 H 0.96316 0.89224 0.7739 0.0
H789 H 0.8636 0.90083 0.75869 0.0
H790 H 0.81657 0.91373 0.77207 0.0
H791 H 0.85619 0.99689 0.77999 0.0
H792 H 0.90358 0.98444 0.76706 0.0
H793 H 0.99306 0.93516 0.62775 0.0
H794 H 0.97213 0.91374 0.67174 0.0
H795 H 0.97378 0.99208 0.71394 0.0
H796 H 0.99437 0.01356 0.66992 0.0
H797 H 0.92163 0.96068 0.71879 0.0
H798 H 0.02162 0.9513 0.73381 0.0
H799 H 0.06819 0.93765 0.71999 0.0
H800 H 0.02692 0.85502 0.71114 0.0
H801 H 0.97999 0.86823 0.72452 0.0
C802 C 0.89219 0.90908 0.84481 0.0
C803 C 0.88412 0.88105 0.84671 0.0
C804 C 0.90704 0.91989 0.8205 0.0
C805 C 0.91374 0.90293 0.79738 0.0
C806 C 0.90646 0.87488 0.79958 0.0
C807 C 0.89177 0.86402 0.82406 0.0
C808 C 0.92769 0.9146 0.77067 0.0
C809 C 0.95391 0.90694 0.7616 0.0
C810 C 0.91579 0.93405 0.75487 0.0
C811 C 0.8872 0.94167 0.76215 0.0
C812 C 0.86232 0.92185 0.76345 0.0
C813 C 0.83559 0.92908 0.77094 0.0
C814 C 0.83341 0.9561 0.77696 0.0
C815 C 0.85793 0.97596 0.77536 0.0
C816 C 0.88472 0.96884 0.76792 0.0
C817 C 0.98924 0.94776 0.64655 0.0
C818 C 0.99528 0.97598 0.64551 0.0
C819 C 0.97736 0.93552 0.67167 0.0
C820 C 0.97151 0.95133 0.69616 0.0
C821 C 0.97808 0.97952 0.69527 0.0
C822 C 0.98994 0.99175 0.67019 0.0
C823 C 0.95732 0.93862 0.72223 0.0
C824 C 0.93092 0.946 0.73108 0.0
C825 C 0.96898 0.91881 0.73766 0.0
C826 C 0.99723 0.91079 0.7299 0.0
C827 C 0.02243 0.93024 0.72871 0.0
C828 C 0.0489 0.92258 0.72099 0.0
C829 C 0.0505 0.89549 0.71462 0.0
C830 C 0.02564 0.876 0.71605 0.0
C831 C 0.99911 0.88356 0.72373 0.0
H832 H 0.07101 0.8896 0.70863 0.0
H833 H 0.8127 0.96165 0.78281 0.0
H834 H 0.73436 0.21275 0.30192 0.0
H835 H 0.70939 0.19321 0.25701 0.0
H836 H 0.70894 0.11338 0.28867 0.0
H837 H 0.73331 0.13269 0.33387 0.0
H838 H 0.7262 0.11739 0.23148 0.0
H839 H 0.64824 0.14091 0.29027 0.0
H840 H 0.62289 0.17153 0.31988 0.0
H841 H 0.62037 0.22212 0.24642 0.0
H842 H 0.64609 0.19197 0.21647 0.0
H843 H 0.62275 0.03849 0.13741 0.0
H844 H 0.65076 0.06181 0.17876 0.0
H845 H 0.64051 0.1385 0.14408 0.0
H846 H 0.61175 0.11509 0.10288 0.0
H847 H 0.63056 0.13875 0.20084 0.0
H848 H 0.70617 0.1146 0.14103 0.0
H849 H 0.73191 0.08455 0.11107 0.0
H850 H 0.73984 0.03622 0.18544 0.0
H851 H 0.71378 0.06577 0.21577 0.0
C852 C 0.72865 0.19104 0.29952 0.0
C853 C 0.73588 0.17433 0.32161 0.0
C854 C 0.71448 0.17991 0.27376 0.0
C855 C 0.70718 0.15183 0.26953 0.0
C856 C 0.71449 0.13509 0.2914 0.0
C857 C 0.72854 0.14619 0.3172 0.0
C858 C 0.69197 0.13982 0.24232 0.0
C859 C 0.70514 0.12183 0.22491 0.0
C860 C 0.66492 0.14626 0.23329 0.0
C861 C 0.64937 0.16434 0.25123 0.0
C862 C 0.6425 0.15868 0.2805 0.0
C863 C 0.62802 0.17593 0.29733 0.0
C864 C 0.6201 0.1988 0.28507 0.0
C865 C 0.62656 0.20442 0.25591 0.0
C866 C 0.64107 0.18725 0.23899 0.0
C867 C 0.62667 0.06033 0.13847 0.0
C868 C 0.61517 0.075 0.11691 0.0
C869 C 0.64281 0.07366 0.16207 0.0
C870 C 0.64813 0.10196 0.16441 0.0
C871 C 0.63677 0.11667 0.14274 0.0
C872 C 0.62045 0.1033 0.11916 0.0
C873 C 0.66463 0.11603 0.19005 0.0
C874 C 0.65172 0.13443 0.2072 0.0
C875 C 0.69202 0.11007 0.19877 0.0
C876 C 0.7078 0.09229 0.18062 0.0
C877 C 0.71321 0.09745 0.15095 0.0
C878 C 0.72789 0.08052 0.13391 0.0
C879 C 0.73745 0.05846 0.14633 0.0
C880 C 0.7324 0.05331 0.17585 0.0
C881 C 0.71771 0.07016 0.19298 0.0
H882 H 0.74882 0.04538 0.1331 0.0
H883 H 0.60889 0.21213 0.29813 0.0
H884 H 0.45653 0.69137 0.26854 0.0
H885 H 0.46818 0.66963 0.3133 0.0
H886 H 0.46461 0.59411 0.26449 0.0
H887 H 0.45207 0.61567 0.21992 0.0
H888 H 0.43888 0.5855 0.31507 0.0
H889 H 0.5297 0.63358 0.28464 0.0
H890 H 0.5643 0.67276 0.26925 0.0
H891 H 0.55411 0.7143 0.35122 0.0
H892 H 0.51912 0.67549 0.36695 0.0
H893 H 0.52012 0.52412 0.42157 0.0
H894 H 0.50476 0.54371 0.37677 0.0
H895 H 0.48998 0.6144 0.42673 0.0
H896 H 0.50476 0.5949 0.47157 0.0
H897 H 0.52529 0.62447 0.37547 0.0
H898 H 0.43394 0.5747 0.4051 0.0
H899 H 0.40104 0.53413 0.41977 0.0
H900 H 0.4148 0.49401 0.33785 0.0
H901 H 0.44816 0.53424 0.32286 0.0
C902 C 0.45799 0.67008 0.26752 0.0
C903 C 0.45306 0.65509 0.24094 0.0
C904 C 0.46486 0.65772 0.29299 0.0
C905 C 0.46759 0.63028 0.29221 0.0
C906 C 0.46256 0.61527 0.26565 0.0
C907 C 0.45546 0.62759 0.24021 0.0
C908 C 0.47581 0.61729 0.31905 0.0
C909 C 0.458 0.59384 0.32803 0.0
C910 C 0.50056 0.62832 0.33624 0.0
C911 C 0.52156 0.65173 0.32685 0.0
C912 C 0.53465 0.65115 0.29929 0.0
C913 C 0.55437 0.67328 0.29052 0.0
C914 C 0.56134 0.69603 0.30922 0.0
C915 C 0.54866 0.69668 0.33675 0.0
C916 C 0.5289 0.67462 0.34561 0.0
C917 C 0.51339 0.54374 0.42303 0.0
C918 C 0.51363 0.55794 0.45011 0.0
C919 C 0.50459 0.55486 0.39746 0.0
C920 C 0.49626 0.58046 0.39854 0.0
C921 C 0.49635 0.59461 0.42551 0.0
C922 C 0.50468 0.58335 0.45111 0.0
C923 C 0.48829 0.59292 0.37142 0.0
C924 C 0.50621 0.6162 0.36241 0.0
C925 C 0.4639 0.58155 0.35406 0.0
C926 C 0.44381 0.55737 0.363 0.0
C927 C 0.43019 0.55713 0.39033 0.0
C928 C 0.4114 0.53422 0.39868 0.0
C929 C 0.4059 0.51147 0.3798 0.0
C930 C 0.41912 0.51163 0.35248 0.0
C931 C 0.43796 0.53448 0.34404 0.0
H932 H 0.39134 0.49376 0.38629 0.0
H933 H 0.57662 0.71314 0.30239 0.0
H934 H 0.12261 0.37034 0.7543 0.0
H935 H 0.10024 0.39337 0.79413 0.0
H936 H 0.18114 0.40541 0.84269 0.0
H937 H 0.20375 0.38279 0.80271 0.0
H938 H 0.12723 0.38673 0.87639 0.0
H939 H 0.1695 0.45538 0.81023 0.0
H940 H 0.17696 0.4751 0.76169 0.0
H941 H 0.08566 0.47685 0.7534 0.0
H942 H 0.07761 0.45673 0.80173 0.0
H943 H 0.09946 0.48523 0.98236 0.0
H944 H 0.11993 0.4579 0.94522 0.0
H945 H 0.05433 0.47242 0.88313 0.0
H946 H 0.03546 0.5015 0.91982 0.0
H947 H 0.10007 0.47572 0.856 0.0
H948 H 0.0558 0.40884 0.92105 0.0
H949 H 0.04584 0.3882 0.96885 0.0
H950 H 0.13561 0.3806 0.97865 0.0
H951 H 0.1462 0.40149 0.93103 0.0
C952 C 0.13551 0.37767 0.77361 0.0
C953 C 0.16493 0.37491 0.7754 0.0
C954 C 0.12274 0.39082 0.79628 0.0
C955 C 0.13907 0.40106 0.82131 0.0
C956 C 0.16818 0.39755 0.82359 0.0
C957 C 0.18109 0.38483 0.8007 0.0
C958 C 0.12623 0.41685 0.84427 0.0
C959 C 0.12145 0.40629 0.87215 0.0
C960 C 0.11805 0.44199 0.83838 0.0
C961 C 0.12292 0.45428 0.80944 0.0
C962 C 0.15099 0.45974 0.79794 0.0
C963 C 0.15533 0.47103 0.77049 0.0
C964 C 0.13179 0.47715 0.75443 0.0
C965 C 0.10386 0.47206 0.76584 0.0
C966 C 0.0994 0.46073 0.79326 0.0
C967 C 0.08937 0.48231 0.96082 0.0
C968 C 0.06582 0.49514 0.95387 0.0
C969 C 0.10092 0.46655 0.93959 0.0
C970 C 0.08832 0.46238 0.91137 0.0
C971 C 0.06454 0.47519 0.90464 0.0
C972 C 0.05366 0.49172 0.92558 0.0
C973 C 0.10055 0.44565 0.88851 0.0
C974 C 0.10543 0.45606 0.8605 0.0
C975 C 0.10824 0.4201 0.89422 0.0
C976 C 0.10182 0.40689 0.92253 0.0
C977 C 0.07344 0.40284 0.93342 0.0
C978 C 0.06768 0.3911 0.96049 0.0
C979 C 0.09008 0.3831 0.97676 0.0
C980 C 0.11828 0.38678 0.96598 0.0
C981 C 0.12416 0.39852 0.93893 0.0
H982 H 0.08558 0.37402 0.9977 0.0
H983 H 0.13519 0.4859 0.73319 0.0
H984 H 0.78181 0.88137 0.87434 0.0
H985 H 0.74096 0.90243 0.89128 0.0
H986 H 0.77766 0.91074 0.97882 0.0
H987 H 0.81797 0.88869 0.96207 0.0
H988 H 0.72209 0.89573 0.98174 0.0
H989 H 0.7829 0.96469 0.93088 0.0
H990 H 0.81119 0.98397 0.88917 0.0
H991 H 0.73393 0.97292 0.83556 0.0
H992 H 0.70522 0.95321 0.87684 0.0
H993 H 0.63981 0.99464 0.03474 0.0
H994 H 0.68025 0.97293 0.0179 0.0
H995 H 0.63581 0.95107 0.93532 0.0
H996 H 0.59517 0.97253 0.95196 0.0
H997 H 0.69518 0.97356 0.93016 0.0
H998 H 0.6349 0.90443 0.98219 0.0
H999 H 0.60742 0.88559 0.02458 0.0
H1000 H 0.68537 0.89865 0.07724 0.0
H1001 H 0.71325 0.91795 0.03524 0.0
C1002 C 0.78109 0.88774 0.89718 0.0
C1003 C 0.80303 0.88361 0.91691 0.0
C1004 C 0.75784 0.89985 0.90683 0.0
C1005 C 0.75651 0.90869 0.93622 0.0
C1006 C 0.77824 0.90416 0.95604 0.0
C1007 C 0.80124 0.89161 0.94648 0.0
C1008 C 0.73251 0.92267 0.9463 0.0
C1009 C 0.71653 0.91299 0.97069 0.0
C1010 C 0.72484 0.94493 0.9316 0.0
C1011 C 0.74196 0.95726 0.90689 0.0
C1012 C 0.77197 0.96625 0.91015 0.0
C1013 C 0.78808 0.97726 0.88659 0.0
C1014 C 0.77438 0.9796 0.85971 0.0
C1015 C 0.74451 0.97106 0.85638 0.0
C1016 C 0.72831 0.95999 0.87987 0.0
C1017 C 0.63865 0.98529 0.01296 0.0
C1018 C 0.61422 0.98523 0.99473 0.0
C1019 C 0.66173 0.97283 0.00343 0.0
C1020 C 0.66088 0.9603 0.97545 0.0
C1021 C 0.63682 0.96063 0.957 0.0
C1022 C 0.61358 0.9728 0.96662 0.0
C1023 C 0.685 0.9466 0.96552 0.0
C1024 C 0.70093 0.95635 0.94119 0.0
C1025 C 0.69281 0.92461 0.98042 0.0
C1026 C 0.6761 0.9129 0.00566 0.0
C1027 C 0.64614 0.90351 0.00288 0.0
C1028 C 0.63049 0.8927 0.02682 0.0
C1029 C 0.64462 0.89099 0.05361 0.0
C1030 C 0.67444 0.90002 0.05648 0.0
C1031 C 0.69018 0.91088 0.03262 0.0
H1032 H 0.63248 0.88261 0.07212 0.0
H1033 H 0.7869 0.98809 0.84147 0.0
H1034 H 0.78228 0.13145 0.39968 0.0
H1035 H 0.8183 0.10788 0.42225 0.0
H1036 H 0.87907 0.18214 0.42869 0.0
H1037 H 0.8428 0.20602 0.40642 0.0
H1038 H 0.90175 0.13291 0.40544 0.0
H1039 H 0.85081 0.16538 0.48725 0.0
H1040 H 0.80711 0.17191 0.51465 0.0
H1041 H 0.78146 0.08615 0.51778 0.0
H1042 H 0.82481 0.07911 0.48997 0.0
H1043 H 1.0013 0.08148 0.50079 0.0
H1044 H 0.97058 0.10807 0.47437 0.0
H1045 H 0.89553 0.04869 0.49148 0.0
H1046 H 0.92614 0.02297 0.51898 0.0
H1047 H 0.88187 0.09385 0.50277 0.0
H1048 H 0.92919 0.05948 0.42024 0.0
H1049 H 0.97029 0.05041 0.39009 0.0
H1050 H 1.00051 0.1354 0.38536 0.0
H1051 H 0.95971 0.14499 0.41577 0.0
C1052 C 0.80335 0.14275 0.4058 0.0
C1053 C 0.80973 0.17059 0.40132 0.0
C1054 C 0.82389 0.12927 0.4187 0.0
C1055 C 0.85135 0.14325 0.42709 0.0
C1056 C 0.85802 0.17098 0.42227 0.0
C1057 C 0.83725 0.18461 0.40978 0.0
C1058 C 0.87259 0.12887 0.44175 0.0
C1059 C 0.89774 0.12466 0.42692 0.0
C1060 C 0.86687 0.11754 0.46937 0.0
C1061 C 0.84092 0.12173 0.48629 0.0
C1062 C 0.83572 0.14792 0.49356 0.0
C1063 C 0.81104 0.15171 0.5092 0.0
C1064 C 0.79148 0.12946 0.51789 0.0
C1065 C 0.79661 0.10337 0.51101 0.0
C1066 C 0.82125 0.09947 0.49533 0.0
C1067 C 0.97837 0.07386 0.49819 0.0
C1068 C 0.9661 0.05003 0.51148 0.0
C1069 C 0.96074 0.08908 0.48313 0.0
C1070 C 0.93058 0.08038 0.48053 0.0
C1071 C 0.91861 0.05605 0.49319 0.0
C1072 C 0.93612 0.04123 0.50876 0.0
C1073 C 0.91111 0.09717 0.4663 0.0
C1074 C 0.88618 0.102 0.48129 0.0
C1075 C 0.91686 0.10862 0.43859 0.0
C1076 C 0.94153 0.10294 0.42049 0.0
C1077 C 0.94472 0.07623 0.41296 0.0
C1078 C 0.96791 0.071 0.39577 0.0
C1079 C 0.98795 0.09231 0.38578 0.0
C1080 C 0.98491 0.11891 0.39306 0.0
C1081 C 0.96174 0.12426 0.41025 0.0
H1082 H 0.00583 0.0882 0.37239 0.0
H1083 H 0.77238 0.13243 0.53 0.0
H1084 H 0.32003 0.7064 0.14633 0.0
H1085 H 0.27435 0.68089 0.12752 0.0
H1086 H 0.30892 0.6068 0.13463 0.0
H1087 H 0.35527 0.63235 0.15226 0.0
H1088 H 0.28041 0.60717 0.08403 0.0
H1089 H 0.26073 0.62521 0.18466 0.0
H1090 H 0.25871 0.65315 0.22977 0.0
H1091 H 0.20071 0.69815 0.18719 0.0
H1092 H 0.2027 0.67072 0.14167 0.0
H1093 H 0.14444 0.52055 0.0684 0.0
H1094 H 0.19074 0.54469 0.08742 0.0
H1095 H 0.16071 0.62051 0.07657 0.0
H1096 H 0.11414 0.5966 0.05775 0.0
H1097 H 0.18695 0.61812 0.12986 0.0
H1098 H 0.20769 0.59996 0.02883 0.0
H1099 H 0.20952 0.57122 0.98429 0.0
H1100 H 0.2654 0.52532 0.02871 0.0
H1101 H 0.26358 0.55357 0.07367 0.0
C1102 C 0.31808 0.6847 0.14359 0.0
C1103 C 0.34135 0.67141 0.15076 0.0
C1104 C 0.2918 0.67011 0.13317 0.0
C1105 C 0.28808 0.6419 0.13006 0.0
C1106 C 0.31129 0.62856 0.13699 0.0
C1107 C 0.33767 0.64316 0.1473 0.0
C1108 C 0.26005 0.62643 0.11919 0.0
C1109 C 0.26002 0.60925 0.09432 0.0
C1110 C 0.23339 0.62956 0.13228 0.0
C1111 C 0.23208 0.64606 0.15966 0.0
C1112 C 0.24772 0.6412 0.18484 0.0
C1113 C 0.24655 0.65693 0.2105 0.0
C1114 C 0.22965 0.67746 0.21132 0.0
C1115 C 0.21382 0.68226 0.18651 0.0
C1116 C 0.21494 0.66661 0.16078 0.0
C1117 C 0.14761 0.54237 0.06999 0.0
C1118 C 0.12551 0.55662 0.06149 0.0
C1119 C 0.17417 0.55612 0.08078 0.0
C1120 C 0.17921 0.58438 0.08317 0.0
C1121 C 0.15722 0.59868 0.07486 0.0
C1122 C 0.13065 0.58496 0.06401 0.0
C1123 C 0.20734 0.59903 0.09465 0.0
C1124 C 0.20737 0.61603 0.11964 0.0
C1125 C 0.23399 0.59562 0.08177 0.0
C1126 C 0.23527 0.57872 0.0547 0.0
C1127 C 0.22019 0.58361 0.02917 0.0
C1128 C 0.22125 0.56743 0.00383 0.0
C1129 C 0.2375 0.54641 0.00369 0.0
C1130 C 0.25279 0.54158 0.02886 0.0
C1131 C 0.25177 0.55769 0.05427 0.0
H1132 H 0.2383 0.53391 0.98405 0.0
H1133 H 0.22877 0.68961 0.23121 0.0
H1134 H 0.31616 0.35609 0.68915 0.0
H1135 H 0.35412 0.38021 0.65884 0.0
H1136 H 0.31371 0.45142 0.66612 0.0
H1137 H 0.27565 0.42725 0.6965 0.0
H1138 H 0.32996 0.44247 0.6104 0.0
H1139 H 0.37346 0.4476 0.70583 0.0
H1140 H 0.39025 0.43159 0.75237 0.0
H1141 H 0.4454 0.38499 0.70544 0.0
H1142 H 0.42856 0.40034 0.65858 0.0
H1143 H 0.48996 0.51564 0.58977 0.0
H1144 H 0.44845 0.49857 0.61975 0.0
H1145 H 0.4126 0.44473 0.54831 0.0
H1146 H 0.4541 0.46198 0.51805 0.0
H1147 H 0.43388 0.44891 0.63793 0.0
H1148 H 0.33828 0.43296 0.55385 0.0
H1149 H 0.32307 0.45392 0.5095 0.0
H1150 H 0.3732 0.5298 0.53774 0.0
H1151 H 0.38837 0.50941 0.58244 0.0
C1152 C 0.31532 0.37684 0.68413 0.0
C1153 C 0.29281 0.38975 0.69486 0.0
C1154 C 0.33707 0.39064 0.66695 0.0
C1155 C 0.33686 0.41768 0.66033 0.0
C1156 C 0.31427 0.43055 0.67086 0.0
C1157 C 0.29257 0.41678 0.68818 0.0
C1158 C 0.36025 0.43249 0.64246 0.0
C1159 C 0.35269 0.44387 0.61642 0.0
C1160 C 0.38991 0.43478 0.65055 0.0
C1161 C 0.39944 0.42486 0.67866 0.0
C1162 C 0.38887 0.43366 0.7054 0.0
C1163 C 0.39847 0.42476 0.73185 0.0
C1164 C 0.4188 0.40721 0.73186 0.0
C1165 C 0.42957 0.3985 0.70541 0.0
C1166 C 0.41998 0.40727 0.67889 0.0
C1167 C 0.47302 0.50046 0.58028 0.0
C1168 C 0.47527 0.49006 0.5516 0.0
C1169 C 0.44936 0.49064 0.59749 0.0
C1170 C 0.42738 0.47039 0.58631 0.0
C1171 C 0.42913 0.46057 0.55731 0.0
C1172 C 0.45286 0.47038 0.54007 0.0
C1173 C 0.40365 0.45843 0.60561 0.0
C1174 C 0.41116 0.4475 0.6319 0.0
C1175 C 0.37399 0.457 0.59799 0.0
C1176 C 0.36468 0.46955 0.57135 0.0
C1177 C 0.34596 0.45414 0.55065 0.0
C1178 C 0.33736 0.46592 0.52544 0.0
C1179 C 0.34724 0.49315 0.52076 0.0
C1180 C 0.36566 0.50869 0.54133 0.0
C1181 C 0.3743 0.49701 0.56659 0.0
H1182 H 0.34058 0.50222 0.50122 0.0
H1183 H 0.42627 0.40042 0.75237 0.0
H1184 H 0.91136 0.78655 0.9069 0.0
H1185 H 0.94012 0.75494 0.92776 0.0
H1186 H 0.86543 0.71832 0.97531 0.0
H1187 H 0.83689 0.75038 0.95501 0.0
H1188 H 0.91324 0.72407 0.00905 0.0
H1189 H 0.88591 0.68874 0.91214 0.0
H1190 H 0.88134 0.68997 0.85842 0.0
H1191 H 0.97401 0.70785 0.85163 0.0
H1192 H 0.97912 0.70708 0.90538 0.0
H1193 H 0.95709 0.59561 0.03147 0.0
H1194 H 0.93267 0.63345 0.01892 0.0
H1195 H 0.01083 0.67213 0.97853 0.0
H1196 H 0.03526 0.63437 0.99105 0.0
H1197 H 0.96281 0.66683 0.94241 0.0
H1198 H 0.98923 0.69675 0.04062 0.0
H1199 H 0.99227 0.69488 0.09432 0.0
H1200 H 0.89954 0.68622 0.0993 0.0
H1201 H 0.89581 0.68716 0.04552 0.0
C1202 C 0.90124 0.77178 0.92191 0.0
C1203 C 0.872 0.77073 0.92932 0.0
C1204 C 0.91757 0.75371 0.93372 0.0
C1205 C 0.9048 0.73406 0.95281 0.0
C1206 C 0.8757 0.73332 0.96062 0.0
C1207 C 0.8594 0.75151 0.94894 0.0
C1208 C 0.92163 0.7139 0.96413 0.0
C1209 C 0.9238 0.71128 0.99453 0.0
C1210 C 0.93588 0.69767 0.94513 0.0
C1211 C 0.93288 0.69813 0.9128 0.0
C1212 C 0.9053 0.69315 0.89921 0.0
C1213 C 0.90262 0.69373 0.86876 0.0
C1214 C 0.92736 0.69906 0.85163 0.0
C1215 C 0.95486 0.70377 0.86493 0.0
C1216 C 0.95767 0.70324 0.89538 0.0
C1217 C 0.96916 0.61249 0.02048 0.0
C1218 C 0.99797 0.61216 0.01224 0.0
C1219 C 0.95526 0.63407 0.01339 0.0
C1220 C 0.97003 0.65564 0.99798 0.0
C1221 C 0.99911 0.65569 0.9905 0.0
C1222 C 0.01302 0.63416 0.99768 0.0
C1223 C 0.95443 0.6769 0.98738 0.0
C1224 C 0.95238 0.67967 0.95702 0.0
C1225 C 0.94006 0.69298 0.00649 0.0
C1226 C 0.94223 0.6917 0.03888 0.0
C1227 C 0.96943 0.69401 0.05307 0.0
C1228 C 0.97128 0.69319 0.08357 0.0
C1229 C 0.94612 0.69044 0.10021 0.0
C1230 C 0.91902 0.68841 0.08638 0.0
C1231 C 0.91702 0.68899 0.05587 0.0
H1232 H 0.94761 0.68984 0.12383 0.0
H1233 H 0.92524 0.69949 0.82806 0.0
H1234 H 0.41386 0.73872 0.10321 0.0
H1235 H 0.43061 0.78275 0.08245 0.0
H1236 H 0.43961 0.81957 0.1694 0.0
H1237 H 0.423 0.77557 0.19028 0.0
H1238 H 0.40951 0.84719 0.12818 0.0
H1239 H 0.49788 0.80917 0.137 0.0
H1240 H 0.5288 0.77438 0.12845 0.0
H1241 H 0.52081 0.78203 0.03555 0.0
H1242 H 0.48947 0.81662 0.04356 0.0
H1243 H 0.49673 0.97304 0.11209 0.0
H1244 H 0.47355 0.92803 0.12465 0.0
H1245 H 0.48461 0.899 0.03612 0.0
H1246 H 0.5088 0.94412 0.02368 0.0
H1247 H 0.50122 0.86584 0.07317 0.0
H1248 H 0.41675 0.90616 0.06296 0.0
H1249 H 0.38521 0.94064 0.07002 0.0
H1250 H 0.38375 0.92818 0.1625 0.0
H1251 H 0.41566 0.8939 0.15608 0.0
C1252 C 0.41943 0.75624 0.11785 0.0
C1253 C 0.41722 0.75381 0.14833 0.0
C1254 C 0.42904 0.78129 0.106 0.0
C1255 C 0.43634 0.80433 0.12443 0.0
C1256 C 0.43403 0.80199 0.15485 0.0
C1257 C 0.42478 0.77688 0.16674 0.0
C1258 C 0.44646 0.83094 0.11203 0.0
C1259 C 0.42967 0.85143 0.11636 0.0
C1260 C 0.47219 0.83599 0.09569 0.0
C1261 C 0.49105 0.81524 0.09087 0.0
C1262 C 0.50248 0.80325 0.11474 0.0
C1263 C 0.52013 0.7836 0.11 0.0
C1264 C 0.52669 0.77593 0.08147 0.0
C1265 C 0.51567 0.78795 0.05763 0.0
C1266 C 0.49797 0.80758 0.06226 0.0
C1267 C 0.49394 0.95714 0.0952 0.0
C1268 C 0.50461 0.96199 0.06695 0.0
C1269 C 0.48051 0.93143 0.10235 0.0
C1270 C 0.477 0.91015 0.08125 0.0
C1271 C 0.48704 0.91512 0.05275 0.0
C1272 C 0.50074 0.94087 0.04563 0.0
C1273 C 0.46453 0.88247 0.08969 0.0
C1274 C 0.48084 0.86167 0.08463 0.0
C1275 C 0.43815 0.87706 0.10506 0.0
C1276 C 0.41879 0.89757 0.10905 0.0
C1277 C 0.40988 0.9109 0.08484 0.0
C1278 C 0.39191 0.93039 0.08872 0.0
C1279 C 0.38253 0.93663 0.11669 0.0
C1280 C 0.39105 0.92333 0.14084 0.0
C1281 C 0.40904 0.90384 0.13709 0.0
H1282 H 0.36862 0.95174 0.11965 0.0
H1283 H 0.54036 0.76073 0.07784 0.0
H1284 H 0.20622 0.28244 0.69949 0.0
H1285 H 0.18456 0.23927 0.67609 0.0
H1286 H 0.10061 0.26452 0.67691 0.0
H1287 H 0.12223 0.30792 0.69998 0.0
H1288 H 0.14215 0.1989 0.69291 0.0
H1289 H 0.06523 0.24011 0.61238 0.0
H1290 H 0.06224 0.28178 0.58634 0.0
H1291 H 0.15508 0.30257 0.58947 0.0
H1292 H 0.15863 0.26087 0.61512 0.0
H1293 H 0.04787 0.0878 0.6247 0.0
H1294 H 0.06716 0.13014 0.65111 0.0
H1295 H 0.11403 0.1584 0.5743 0.0
H1296 H 0.09413 0.11665 0.54756 0.0
H1297 H 0.09113 0.19737 0.59702 0.0
H1298 H 0.14711 0.13363 0.63564 0.0
H1299 H 0.15414 0.09175 0.65927 0.0
H1300 H 0.11082 0.11566 0.73593 0.0
H1301 H 0.10322 0.15753 0.7126 0.0
C1302 C 0.18316 0.27883 0.6946 0.0
C1303 C 0.16597 0.29866 0.70143 0.0
C1304 C 0.17077 0.25407 0.68146 0.0
C1305 C 0.14101 0.24872 0.67459 0.0
C1306 C 0.12367 0.26829 0.68183 0.0
C1307 C 0.13602 0.293 0.69516 0.0
C1308 C 0.12834 0.22299 0.65909 0.0
C1309 C 0.13089 0.19854 0.67199 0.0
C1310 C 0.11403 0.22249 0.6316 0.0
C1311 C 0.11214 0.24754 0.61599 0.0
C1312 C 0.08499 0.25355 0.60744 0.0
C1313 C 0.08321 0.27717 0.59275 0.0
C1314 C 0.10844 0.29486 0.58636 0.0
C1315 C 0.13553 0.28892 0.59455 0.0
C1316 C 0.13744 0.26532 0.6092 0.0
C1317 C 0.06235 0.10301 0.61346 0.0
C1318 C 0.06948 0.09877 0.58401 0.0
C1319 C 0.07345 0.12721 0.62863 0.0
C1320 C 0.09237 0.14744 0.61486 0.0
C1321 C 0.09943 0.14321 0.58544 0.0
C1322 C 0.08806 0.11923 0.57017 0.0
C1323 C 0.10481 0.17311 0.63082 0.0
C1324 C 0.10218 0.19763 0.61804 0.0
C1325 C 0.11957 0.17362 0.65813 0.0
C1326 C 0.12437 0.14858 0.67227 0.0
C1327 C 0.13894 0.12987 0.65746 0.0
C1328 C 0.14305 0.10615 0.67081 0.0
C1329 C 0.13288 0.10102 0.69905 0.0
C1330 C 0.11866 0.11964 0.71404 0.0
C1331 C 0.11447 0.14338 0.70078 0.0
H1332 H 0.13606 0.08263 0.70934 0.0
H1333 H 0.10701 0.31314 0.575 0.0
H1334 H 0.75751 0.29294 0.43912 0.0
H1335 H 0.7355 0.33382 0.44629 0.0
H1336 H 0.65216 0.28891 0.4197 0.0
H1337 H 0.67427 0.24834 0.41188 0.0
H1338 H 0.65871 0.33738 0.39759 0.0
H1339 H 0.67156 0.30285 0.49289 0.0
H1340 H 0.69902 0.28738 0.53355 0.0
H1341 H 0.75344 0.36482 0.54061 0.0
H1342 H 0.72652 0.38064 0.4997 0.0
H1343 H 0.56445 0.41955 0.46287 0.0
H1344 H 0.59134 0.38346 0.44817 0.0
H1345 H 0.67168 0.43424 0.47395 0.0
H1346 H 0.64476 0.47032 0.48902 0.0
H1347 H 0.6692 0.38493 0.49497 0.0
H1348 H 0.65326 0.42025 0.40133 0.0
H1349 H 0.62453 0.43523 0.36138 0.0
H1350 H 0.57457 0.35583 0.3518 0.0
H1351 H 0.60275 0.34046 0.39199 0.0
C1352 C 0.73457 0.29199 0.43453 0.0
C1353 C 0.71756 0.2675 0.42514 0.0
C1354 C 0.72195 0.31526 0.43879 0.0
C1355 C 0.69201 0.31441 0.43404 0.0
C1356 C 0.67525 0.29013 0.42362 0.0
C1357 C 0.68788 0.26692 0.41922 0.0
C1358 C 0.6779 0.33846 0.44073 0.0
C1359 C 0.6608 0.34761 0.41897 0.0
C1360 C 0.68105 0.35228 0.46843 0.0
C1361 C 0.69724 0.34282 0.49303 0.0
C1362 C 0.68953 0.31651 0.50296 0.0
C1363 C 0.70497 0.30769 0.52607 0.0
C1364 C 0.72802 0.32508 0.53959 0.0
C1365 C 0.73562 0.35136 0.53008 0.0
C1366 C 0.72027 0.36026 0.50694 0.0
C1367 C 0.58787 0.42311 0.46513 0.0
C1368 C 0.60252 0.44775 0.47704 0.0
C1369 C 0.60325 0.40249 0.45661 0.0
C1370 C 0.63362 0.40616 0.45967 0.0
C1371 C 0.64829 0.43092 0.47133 0.0
C1372 C 0.63291 0.45155 0.47984 0.0
C1373 C 0.64986 0.38376 0.45189 0.0
C1374 C 0.66731 0.37487 0.47349 0.0
C1375 C 0.64689 0.37012 0.42411 0.0
C1376 C 0.62997 0.37927 0.39985 0.0
C1377 C 0.63601 0.40604 0.39086 0.0
C1378 C 0.61984 0.41459 0.36814 0.0
C1379 C 0.59769 0.39651 0.3541 0.0
C1380 C 0.59171 0.36982 0.36271 0.0
C1381 C 0.6078 0.36117 0.38544 0.0
H1382 H 0.5852 0.40317 0.33652 0.0
H1383 H 0.73994 0.31822 0.55749 0.0
loop_
_geom_bond_atom_site_label_1
_geom_bond_atom_site_label_2
_geom_bond_distance
_geom_bond_site_symmetry_2
_ccdc_geom_bond_type
H0 C7 0.929 . S
H1 C10 0.930 . S
H2 C12 0.929 . S
H3 C4 0.969 . S
C4 H3 0.969 . S
C4 O5 1.550 . S
C4 H6 0.973 . S
O5 C4 1.550 . S
O5 C11 1.412 . S
H6 C4 0.973 . S
C7 H0 0.929 . S
C7 C8 1.400 . S
C7 C9 1.364 . S
C8 C7 1.400 . S
C8 C12 1.377 . S
C9 C7 1.364 . S
C9 C10 1.374 . S
C10 H1 0.930 . S
C10 C9 1.374 . S
C10 C11 1.383 . S
C11 O5 1.412 . S
C11 C10 1.383 . S
C11 C12 1.394 . S
C12 H2 0.929 . S
C12 C8 1.377 . S
C12 C11 1.394 . S
H13 C20 0.929 . S
H14 C23 0.930 . S
H15 C25 0.929 . S
H16 C17 0.969 . S
C17 H16 0.969 . S
C17 O18 1.550 . S
C17 H19 0.973 . S
O18 C17 1.550 . S
O18 C24 1.412 . S
H19 C17 0.973 . S
C20 H13 0.929 . S
C20 C21 1.400 . S
C20 C22 1.364 . S
C21 C20 1.400 . S
C21 C25 1.377 . S
C22 C20 1.364 . S
C22 C23 1.374 . S
C23 H14 0.930 . S
C23 C22 1.374 . S
C23 C24 1.383 . S
C24 O18 1.412 . S
C24 C23 1.383 . S
C24 C25 1.394 . S
C25 H15 0.929 . S
C25 C21 1.377 . S
C25 C24 1.394 . S
H26 C33 0.929 . S
H27 C36 0.930 . S
H28 C38 0.929 . S
H29 C30 0.969 . S
C30 H29 0.969 . S
C30 O31 1.550 . S
C30 H32 0.973 . S
O31 C30 1.550 . S
O31 C37 1.412 . S
H32 C30 0.973 . S
C33 H26 0.929 . S
C33 C34 1.400 . S
C33 C35 1.364 . S
C34 C33 1.400 . S
C34 C38 1.377 . S
C35 C33 1.364 . S
C35 C36 1.374 . S
C36 H27 0.930 . S
C36 C35 1.374 . S
C36 C37 1.383 . S
C37 O31 1.412 . S
C37 C36 1.383 . S
C37 C38 1.394 . S
C38 H28 0.929 . S
C38 C34 1.377 . S
C38 C37 1.394 . S
H39 C46 0.929 . S
H40 C49 0.930 . S
H41 C51 0.929 . S
H42 C43 0.969 . S
C43 H42 0.969 . S
C43 O44 1.550 . S
C43 H45 0.973 . S
O44 C43 1.550 . S
O44 C50 1.412 . S
H45 C43 0.973 . S
C46 H39 0.929 . S
C46 C47 1.400 . S
C46 C48 1.364 . S
C47 C46 1.400 . S
C47 C51 1.377 . S
C48 C46 1.364 . S
C48 C49 1.374 . S
C49 H40 0.930 . S
C49 C48 1.374 . S
C49 C50 1.383 . S
C50 O44 1.412 . S
C50 C49 1.383 . S
C50 C51 1.394 . S
C51 H41 0.929 . S
C51 C47 1.377 . S
C51 C50 1.394 . S
H52 C59 0.929 . S
H53 C62 0.930 . S
H54 C64 0.929 . S
H55 C56 0.969 . S
C56 H55 0.969 . S
C56 O57 1.550 . S
C56 H58 0.973 . S
O57 C56 1.550 . S
O57 C63 1.412 . S
H58 C56 0.973 . S
C59 H52 0.929 . S
C59 C60 1.400 . S
C59 C61 1.364 . S
C60 C59 1.400 . S
C60 C64 1.377 . S
C61 C59 1.364 . S
C61 C62 1.374 . S
C62 H53 0.930 . S
C62 C61 1.374 . S
C62 C63 1.383 . S
C63 O57 1.412 . S
C63 C62 1.383 . S
C63 C64 1.394 . S
C64 H54 0.929 . S
C64 C60 1.377 . S
C64 C63 1.394 . S
H65 C72 0.929 . S
H66 C75 0.930 . S
H67 C77 0.929 . S
H68 C69 0.969 . S
C69 H68 0.969 . S
C69 O70 1.550 . S
C69 H71 0.973 . S
O70 C69 1.550 . S
O70 C76 1.412 . S
H71 C69 0.973 . S
C72 H65 0.929 . S
C72 C73 1.400 . S
C72 C74 1.364 . S
C73 C72 1.400 . S
C73 C77 1.377 . S
C74 C72 1.364 . S
C74 C75 1.374 . S
C75 H66 0.930 . S
C75 C74 1.374 . S
C75 C76 1.383 . S
C76 O70 1.412 . S
C76 C75 1.383 . S
C76 C77 1.394 . S
C77 H67 0.929 . S
C77 C73 1.377 . S
C77 C76 1.394 . S
H78 C85 0.929 . S
H79 C88 0.930 . S
H80 C90 0.929 . S
H81 C82 0.969 . S
C82 H81 0.969 . S
C82 O83 1.550 . S
C82 H84 0.973 . S
O83 C82 1.550 . S
O83 C89 1.412 . S
H84 C82 0.973 . S
C85 H78 0.929 . S
C85 C86 1.400 . S
C85 C87 1.364 . S
C86 C85 1.400 . S
C86 C90 1.377 . S
C87 C85 1.364 . S
C87 C88 1.374 . S
C88 H79 0.930 . S
C88 C87 1.374 . S
C88 C89 1.383 . S
C89 O83 1.412 . S
C89 C88 1.383 . S
C89 C90 1.394 . S
C90 H80 0.929 . S
C90 C86 1.377 . S
C90 C89 1.394 . S
H91 C98 0.929 . S
H92 C101 0.930 . S
H93 C103 0.929 . S
H94 C95 0.969 . S
C95 H94 0.969 . S
C95 O96 1.550 . S
C95 H97 0.973 . S
O96 C95 1.550 . S
O96 C102 1.412 . S
H97 C95 0.973 . S
C98 H91 0.929 . S
C98 C99 1.400 . S
C98 C100 1.364 . S
C99 C98 1.400 . S
C99 C103 1.377 . S
C100 C98 1.364 . S
C100 C101 1.374 . S
C101 H92 0.930 . S
C101 C100 1.374 . S
C101 C102 1.383 . S
C102 O96 1.412 . S
C102 C101 1.383 . S
C102 C103 1.394 . S
C103 H93 0.929 . S
C103 C99 1.377 . S
C103 C102 1.394 . S
Dy104 O108 2.398 . S
Dy104 O109 2.491 . S
Dy104 O110 2.403 . S
Dy104 O111 2.664 . S
Dy104 O115 2.326 . S
Dy104 O119 2.306 . S
Dy104 O120 2.351 1_545 S
C105 O116 1.185 . S
C105 O117 1.355 . S
C106 O108 1.185 . S
C106 O109 1.355 . S
Dy107 O111 2.310 . S
Dy107 O114 2.351 . S
Dy107 O116 2.398 1_445 S
Dy107 O117 2.491 1_445 S
Dy107 O118 2.403 1_455 S
Dy107 O119 2.664 . S
Dy107 O121 2.326 1_445 S
O108 Dy104 2.398 . S
O108 C106 1.185 . S
O109 Dy104 2.491 . S
O109 C106 1.355 . S
O110 Dy104 2.403 . S
O110 C112 1.254 . S
O111 Dy104 2.664 . S
O111 Dy107 2.310 . S
O111 C112 1.268 . S
C112 O110 1.254 . S
C112 O111 1.268 . S
C113 O118 1.254 . S
C113 O119 1.271 1_655 S
O114 Dy107 2.351 . S
O114 C122 1.249 . S
O115 Dy104 2.326 . S
O115 C122 1.267 . S
O116 C105 1.185 . S
O116 Dy107 2.398 1_665 S
O117 C105 1.355 . S
O117 Dy107 2.491 1_665 S
O118 Dy107 2.403 1_655 S
O118 C113 1.254 . S
O119 Dy104 2.306 . S
O119 Dy107 2.664 . S
O119 C113 1.271 1_455 S
O120 Dy104 2.351 1_565 S
O120 C123 1.249 1_455 S
O121 Dy107 2.326 1_665 S
O121 C123 1.267 . S
C122 O114 1.249 . S
C122 O115 1.267 . S
C123 O120 1.249 1_655 S
C123 O121 1.267 . S
Dy124 O128 2.398 . S
Dy124 O129 2.491 . S
Dy124 O130 2.403 1_545 S
Dy124 O131 2.664 1_545 S
Dy124 O135 2.326 . S
Dy124 O139 2.310 . S
Dy124 O140 2.368 . S
C125 O136 1.185 1_565 S
C125 O137 1.355 . S
C126 O128 1.185 . S
C126 O129 1.355 . S
Dy127 O131 2.310 1_546 S
Dy127 O134 2.351 1_556 S
Dy127 O136 2.398 . S
Dy127 O137 2.491 1_545 S
Dy127 O138 2.403 . S
Dy127 O139 2.664 1_556 S
Dy127 O141 2.326 . S
O128 Dy124 2.398 . S
O128 C126 1.185 . S
O129 Dy124 2.491 . S
O129 C126 1.355 . S
O130 Dy124 2.403 1_565 S
O130 C132 1.254 . S
O131 Dy124 2.664 1_565 S
O131 Dy127 2.310 1_564 S
O131 C132 1.268 . S
C132 O130 1.254 . S
C132 O131 1.268 . S
C133 O138 1.254 . S
C133 O139 1.268 1_556 S
O134 Dy127 2.351 1_554 S
O134 C142 1.249 . S
O135 Dy124 2.326 . S
O135 C142 1.267 . S
O136 C125 1.185 1_545 S
O136 Dy127 2.398 . S
O137 C125 1.355 . S
O137 Dy127 2.491 1_565 S
O138 Dy127 2.403 . S
O138 C133 1.254 . S
O139 Dy124 2.310 . S
O139 Dy127 2.664 1_554 S
O139 C133 1.268 1_554 S
O140 Dy124 2.368 . S
O140 C143 1.246 1_544 S
O141 Dy127 2.326 . S
O141 C143 1.267 1_545 S
C142 O134 1.249 . S
C142 O135 1.267 . S
C143 O140 1.246 1_566 S
C143 O141 1.267 1_565 S
Dy144 O148 2.398 . S
Dy144 O149 2.491 . S
Dy144 O150 2.403 . S
Dy144 O151 2.664 . S
Dy144 O155 2.326 . S
Dy144 O159 2.310 . S
Dy144 O160 2.351 . S
C145 O156 1.185 . S
C145 O157 1.355 . S
C146 O148 1.185 . S
C146 O149 1.355 . S
Dy147 O151 2.310 . S
Dy147 O154 2.351 . S
Dy147 O156 2.398 . S
Dy147 O157 2.491 . S
Dy147 O158 2.403 . S
Dy147 O159 2.664 . S
Dy147 O161 2.326 . S
O148 Dy144 2.398 . S
O148 C146 1.185 . S
O149 Dy144 2.491 . S
O149 C146 1.355 . S
O150 Dy144 2.403 . S
O150 C152 1.254 . S
O151 Dy144 2.664 . S
O151 Dy147 2.310 . S
O151 C152 1.268 . S
C152 O150 1.254 . S
C152 O151 1.268 . S
C153 O158 1.254 . S
C153 O159 1.268 . S
O154 Dy147 2.351 . S
O154 C162 1.249 . S
O155 Dy144 2.326 . S
O155 C162 1.267 . S
O156 C145 1.185 . S
O156 Dy147 2.398 . S
O157 C145 1.355 . S
O157 Dy147 2.491 . S
O158 Dy147 2.403 . S
O158 C153 1.254 . S
O159 Dy144 2.310 . S
O159 Dy147 2.664 . S
O159 C153 1.268 . S
O160 Dy144 2.351 . S
O160 C163 1.249 . S
O161 Dy147 2.326 . S
O161 C163 1.267 . S
C162 O154 1.249 . S
C162 O155 1.267 . S
C163 O160 1.249 . S
C163 O161 1.267 . S
Dy164 O168 2.398 . S
Dy164 O169 2.491 . S
Dy164 O170 2.403 . S
Dy164 O171 2.664 . S
Dy164 O175 2.326 . S
Dy164 O179 2.310 . S
Dy164 O180 2.351 1_455 S
C165 O176 1.185 1_655 S
C165 O177 1.355 1_556 S
C166 O168 1.185 . S
C166 O169 1.355 . S
Dy167 O171 2.310 . S
Dy167 O174 2.351 . S
Dy167 O176 2.398 1_554 S
Dy167 O177 2.491 1_455 S
Dy167 O178 2.403 1_554 S
Dy167 O179 2.664 . S
Dy167 O181 2.326 1_455 S
O168 Dy164 2.398 . S
O168 C166 1.185 . S
O169 Dy164 2.491 . S
O169 C166 1.355 . S
O170 Dy164 2.403 . S
O170 C172 1.254 . S
O171 Dy164 2.664 . S
O171 Dy167 2.310 . S
O171 C172 1.268 . S
C172 O170 1.254 . S
C172 O171 1.268 . S
C173 O178 1.254 . S
C173 O179 1.268 1_556 S
O174 Dy167 2.351 . S
O174 C182 1.249 . S
O175 Dy164 2.326 . S
O175 C182 1.267 . S
O176 C165 1.185 1_455 S
O176 Dy167 2.398 1_556 S
O177 C165 1.355 1_554 S
O177 Dy167 2.491 1_655 S
O178 Dy167 2.403 1_556 S
O178 C173 1.254 . S
O179 Dy164 2.310 . S
O179 Dy167 2.664 . S
O179 C173 1.268 1_554 S
O180 Dy164 2.351 1_655 S
O180 C183 1.249 . S
O181 Dy167 2.326 1_655 S
O181 C183 1.267 . S
C182 O174 1.249 . S
C182 O175 1.267 . S
C183 O180 1.249 . S
C183 O181 1.267 . S
H184 C202 0.951 . S
H185 C204 0.951 . S
H186 C206 0.950 . S
H187 C207 0.950 . S
H188 C209 0.950 . S
H189 C212 0.950 . S
H190 C213 0.950 . S
H191 C215 0.950 . S
H192 C216 0.950 . S
H193 C217 0.951 . S
H194 C219 0.951 . S
H195 C221 0.950 . S
H196 C222 0.950 . S
H197 C224 0.950 . S
H198 C227 0.950 . S
H199 C228 0.950 . S
H200 C230 0.950 . S
H201 C231 0.950 . S
C202 H184 0.951 . S
C202 C203 1.366 . S
C202 C204 1.388 . S
C203 C202 1.366 . S
C203 C207 1.385 . S
C204 H185 0.951 . S
C204 C202 1.388 . S
C204 C205 1.366 . S
C205 C204 1.366 . S
C205 C206 1.414 . S
C205 C208 1.499 . S
C206 H186 0.950 . S
C206 C205 1.414 . S
C206 C207 1.374 . S
C207 H187 0.950 . S
C207 C203 1.385 . S
C207 C206 1.374 . S
C208 C205 1.499 . S
C208 C209 1.373 . S
C208 C210 1.389 . S
C209 H188 0.950 . S
C209 C208 1.373 . S
C209 C225 1.377 . S
C210 C208 1.389 . S
C210 C211 1.524 . S
C210 C224 1.377 . S
C211 C210 1.524 . S
C211 C212 1.397 . S
C211 C216 1.363 . S
C212 H189 0.950 . S
C212 C211 1.397 . S
C212 C213 1.334 . S
C213 H190 0.950 . S
C213 C212 1.334 . S
C213 C214 1.287 . S
C214 C213 1.287 . S
C214 C215 1.524 . S
C214 H233 0.913 . S
C215 H191 0.950 . S
C215 C214 1.524 . S
C215 C216 1.415 . S
C216 H192 0.950 . S
C216 C211 1.363 . S
C216 C215 1.415 . S
C217 H193 0.951 . S
C217 C218 1.366 . S
C217 C219 1.388 . S
C218 C217 1.366 . S
C218 C222 1.385 . S
C219 H194 0.951 . S
C219 C217 1.388 . S
C219 C220 1.366 . S
C220 C219 1.366 . S
C220 C221 1.414 . S
C220 C223 1.499 . S
C221 H195 0.950 . S
C221 C220 1.414 . S
C221 C222 1.374 . S
C222 H196 0.950 . S
C222 C218 1.385 . S
C222 C221 1.374 . S
C223 C220 1.499 . S
C223 C224 1.373 . S
C223 C225 1.389 . S
C224 H197 0.950 . S
C224 C210 1.377 . S
C224 C223 1.373 . S
C225 C209 1.377 . S
C225 C223 1.389 . S
C225 C226 1.524 . S
C226 C225 1.524 . S
C226 C227 1.397 . S
C226 C231 1.363 . S
C227 H198 0.950 . S
C227 C226 1.397 . S
C227 C228 1.334 . S
C228 H199 0.950 . S
C228 C227 1.334 . S
C228 C229 1.287 . S
C229 C228 1.287 . S
C229 C230 1.524 . S
C229 H232 0.999 . S
C230 H200 0.950 . S
C230 C229 1.524 . S
C230 C231 1.415 . S
C231 H201 0.950 . S
C231 C226 1.363 . S
C231 C230 1.415 . S
H232 C229 0.999 . S
H233 C214 0.913 . S
H234 C252 0.951 . S
H235 C254 0.951 . S
H236 C256 0.950 . S
H237 C257 0.950 . S
H238 C259 0.950 . S
H239 C262 0.950 . S
H240 C263 0.950 . S
H241 C265 0.950 . S
H242 C266 0.950 . S
H243 C267 0.929 1_545 S
H244 C269 0.951 . S
H245 C271 0.950 . S
H246 C272 0.950 . S
H247 C274 0.950 . S
H248 C277 0.950 1_565 S
H249 C278 0.950 . S
H250 C280 0.950 . S
H251 C281 0.950 . S
C252 H234 0.951 . S
C252 C253 1.366 . S
C252 C254 1.388 . S
C253 C252 1.366 . S
C253 C257 1.385 . S
C254 H235 0.951 . S
C254 C252 1.388 . S
C254 C255 1.366 . S
C255 C254 1.366 . S
C255 C256 1.414 . S
C255 C258 1.499 . S
C256 H236 0.950 . S
C256 C255 1.414 . S
C256 C257 1.374 . S
C257 H237 0.950 . S
C257 C253 1.385 . S
C257 C256 1.374 . S
C258 C255 1.499 . S
C258 C259 1.373 . S
C258 C260 1.389 . S
C259 H238 0.950 . S
C259 C258 1.373 . S
C259 C275 1.377 . S
C260 C258 1.389 . S
C260 C261 1.524 . S
C260 C274 1.377 . S
C261 C260 1.524 . S
C261 C262 1.397 . S
C261 C266 1.363 . S
C262 H239 0.950 . S
C262 C261 1.397 . S
C262 C263 1.334 . S
C263 H240 0.950 . S
C263 C262 1.334 . S
C263 C264 1.287 . S
C264 C263 1.287 . S
C264 C265 1.524 . S
C264 H283 0.913 . S
C265 H241 0.950 . S
C265 C264 1.524 . S
C265 C266 1.415 . S
C266 H242 0.950 . S
C266 C261 1.363 . S
C266 C265 1.415 . S
C267 H243 0.929 1_565 S
C267 C268 1.366 . S
C267 C269 1.388 . S
C268 C267 1.366 . S
C268 C272 1.385 . S
C269 H244 0.951 . S
C269 C267 1.388 . S
C269 C270 1.366 . S
C270 C269 1.366 . S
C270 C271 1.414 . S
C270 C273 1.499 . S
C271 H245 0.950 . S
C271 C270 1.414 . S
C271 C272 1.374 . S
C272 H246 0.950 . S
C272 C268 1.385 . S
C272 C271 1.374 . S
C273 C270 1.499 . S
C273 C274 1.373 . S
C273 C275 1.389 . S
C274 H247 0.950 . S
C274 C260 1.377 . S
C274 C273 1.373 . S
C275 C259 1.377 . S
C275 C273 1.389 . S
C275 C276 1.528 . S
C276 C275 1.528 . S
C276 C277 1.397 1_565 S
C276 C281 1.359 1_565 S
C277 H248 0.950 1_545 S
C277 C276 1.397 1_545 S
C277 C278 1.334 . S
C278 H249 0.950 . S
C278 C277 1.334 . S
C278 C279 1.287 . S
C279 C278 1.287 . S
C279 C280 1.524 . S
C279 H282 0.999 . S
C280 H250 0.950 . S
C280 C279 1.524 . S
C280 C281 1.415 . S
C281 H251 0.950 . S
C281 C276 1.359 1_545 S
C281 C280 1.415 . S
H282 C279 0.999 . S
H283 C264 0.913 . S
H284 C302 0.951 . S
H285 C304 0.951 . S
H286 C306 0.950 . S
H287 C307 0.950 . S
H288 C309 0.950 . S
H289 C312 0.950 . S
H290 C313 0.950 . S
H291 C315 0.950 . S
H292 C316 0.950 . S
H293 C317 0.951 . S
H294 C319 0.951 . S
H295 C321 0.950 . S
H296 C322 0.950 . S
H297 C324 0.950 . S
H298 C327 0.950 . S
H299 C328 0.950 . S
H300 C330 0.950 . S
H301 C331 0.950 . S
C302 H284 0.951 . S
C302 C303 1.366 . S
C302 C304 1.388 . S
C303 C302 1.366 . S
C303 C307 1.385 . S
C304 H285 0.951 . S
C304 C302 1.388 . S
C304 C305 1.366 . S
C305 C304 1.366 . S
C305 C306 1.414 . S
C305 C308 1.499 . S
C306 H286 0.950 . S
C306 C305 1.414 . S
C306 C307 1.374 . S
C307 H287 0.950 . S
C307 C303 1.385 . S
C307 C306 1.374 . S
C308 C305 1.499 . S
C308 C309 1.373 . S
C308 C310 1.389 . S
C309 H288 0.950 . S
C309 C308 1.373 . S
C309 C325 1.377 . S
C310 C308 1.389 . S
C310 C311 1.524 . S
C310 C324 1.377 . S
C311 C310 1.524 . S
C311 C312 1.397 . S
C311 C316 1.363 . S
C312 H289 0.950 . S
C312 C311 1.397 . S
C312 C313 1.334 . S
C313 H290 0.950 . S
C313 C312 1.334 . S
C313 C314 1.287 . S
C314 C313 1.287 . S
C314 C315 1.524 . S
C314 H333 0.913 . S
C315 H291 0.950 . S
C315 C314 1.524 . S
C315 C316 1.415 . S
C316 H292 0.950 . S
C316 C311 1.363 . S
C316 C315 1.415 . S
C317 H293 0.951 . S
C317 C318 1.366 . S
C317 C319 1.388 . S
C318 C317 1.366 . S
C318 C322 1.385 . S
C319 H294 0.951 . S
C319 C317 1.388 . S
C319 C320 1.366 . S
C320 C319 1.366 . S
C320 C321 1.414 . S
C320 C323 1.499 . S
C321 H295 0.950 . S
C321 C320 1.414 . S
C321 C322 1.374 . S
C322 H296 0.950 . S
C322 C318 1.385 . S
C322 C321 1.374 . S
C323 C320 1.499 . S
C323 C324 1.373 . S
C323 C325 1.389 . S
C324 H297 0.950 . S
C324 C310 1.377 . S
C324 C323 1.373 . S
C325 C309 1.377 . S
C325 C323 1.389 . S
C325 C326 1.524 . S
C326 C325 1.524 . S
C326 C327 1.397 . S
C326 C331 1.363 . S
C327 H298 0.950 . S
C327 C326 1.397 . S
C327 C328 1.334 . S
C328 H299 0.950 . S
C328 C327 1.334 . S
C328 C329 1.287 . S
C329 C328 1.287 . S
C329 C330 1.524 . S
C329 H332 0.999 . S
C330 H300 0.950 . S
C330 C329 1.524 . S
C330 C331 1.415 . S
C331 H301 0.950 . S
C331 C326 1.363 . S
C331 C330 1.415 . S
H332 C329 0.999 . S
H333 C314 0.913 . S
H334 C352 0.951 . S
H335 C354 0.951 . S
H336 C356 0.950 . S
H337 C357 0.950 . S
H338 C359 0.950 . S
H339 C362 0.950 . S
H340 C363 0.950 . S
H341 C365 0.950 . S
H342 C366 0.950 . S
H343 C367 0.951 1_455 S
H344 C369 0.951 . S
H345 C371 0.950 . S
H346 C372 0.950 . S
H347 C374 0.950 . S
H348 C377 0.950 . S
H349 C378 0.950 . S
H350 C380 0.950 . S
H351 C381 0.950 . S
C352 H334 0.951 . S
C352 C353 1.366 . S
C352 C354 1.388 . S
C353 C352 1.366 . S
C353 C357 1.385 . S
C354 H335 0.951 . S
C354 C352 1.388 . S
C354 C355 1.366 . S
C355 C354 1.366 . S
C355 C356 1.414 . S
C355 C358 1.499 . S
C356 H336 0.950 . S
C356 C355 1.414 . S
C356 C357 1.374 . S
C357 H337 0.950 . S
C357 C353 1.385 . S
C357 C356 1.374 . S
C358 C355 1.499 . S
C358 C359 1.373 . S
C358 C360 1.389 . S
C359 H338 0.950 . S
C359 C358 1.373 . S
C359 C375 1.377 . S
C360 C358 1.389 . S
C360 C361 1.524 . S
C360 C374 1.377 . S
C361 C360 1.524 . S
C361 C362 1.397 1_655 S
C361 C366 1.363 . S
C362 H339 0.950 . S
C362 C361 1.397 1_455 S
C362 C363 1.334 . S
C363 H340 0.950 . S
C363 C362 1.334 . S
C363 C364 1.287 . S
C364 C363 1.287 . S
C364 C365 1.524 . S
C364 H383 0.913 . S
C365 H341 0.950 . S
C365 C364 1.524 . S
C365 C366 1.415 1_455 S
C366 H342 0.950 . S
C366 C361 1.363 . S
C366 C365 1.415 1_655 S
C367 H343 0.951 1_655 S
C367 C368 1.366 . S
C367 C369 1.388 . S
C368 C367 1.366 . S
C368 C372 1.385 . S
C369 H344 0.951 . S
C369 C367 1.388 . S
C369 C370 1.366 . S
C370 C369 1.366 . S
C370 C371 1.414 . S
C370 C373 1.499 . S
C371 H345 0.950 . S
C371 C370 1.414 . S
C371 C372 1.374 . S
C372 H346 0.950 . S
C372 C368 1.385 . S
C372 C371 1.374 . S
C373 C370 1.499 . S
C373 C374 1.373 . S
C373 C375 1.389 . S
C374 H347 0.950 . S
C374 C360 1.377 . S
C374 C373 1.373 . S
C375 C359 1.377 . S
C375 C373 1.389 . S
C375 C376 1.524 . S
C376 C375 1.524 . S
C376 C377 1.397 . S
C376 C381 1.363 . S
C377 H348 0.950 . S
C377 C376 1.397 . S
C377 C378 1.334 . S
C378 H349 0.950 . S
C378 C377 1.334 . S
C378 C379 1.287 . S
C379 C378 1.287 . S
C379 C380 1.524 . S
C379 H382 0.999 . S
C380 H350 0.950 . S
C380 C379 1.524 . S
C380 C381 1.415 . S
C381 H351 0.950 . S
C381 C376 1.363 . S
C381 C380 1.415 . S
H382 C379 0.999 . S
H383 C364 0.913 . S
H384 C402 0.951 . S
H385 C404 0.951 . S
H386 C406 0.950 . S
H387 C407 0.950 . S
H388 C409 0.950 . S
H389 C412 0.950 . S
H390 C413 0.950 . S
H391 C415 0.950 . S
H392 C416 0.950 . S
H393 C417 0.951 . S
H394 C419 0.951 . S
H395 C421 0.950 . S
H396 C422 0.950 . S
H397 C424 0.950 . S
H398 C427 0.950 . S
H399 C428 0.950 . S
H400 C430 0.950 . S
H401 C431 0.950 . S
C402 H384 0.951 . S
C402 C403 1.366 . S
C402 C404 1.388 . S
C403 C402 1.366 . S
C403 C407 1.385 . S
C404 H385 0.951 . S
C404 C402 1.388 . S
C404 C405 1.366 . S
C405 C404 1.366 . S
C405 C406 1.414 . S
C405 C408 1.499 . S
C406 H386 0.950 . S
C406 C405 1.414 . S
C406 C407 1.374 . S
C407 H387 0.950 . S
C407 C403 1.385 . S
C407 C406 1.374 . S
C408 C405 1.499 . S
C408 C409 1.373 . S
C408 C410 1.389 . S
C409 H388 0.950 . S
C409 C408 1.373 . S
C409 C425 1.377 . S
C410 C408 1.389 . S
C410 C411 1.524 . S
C410 C424 1.377 . S
C411 C410 1.524 . S
C411 C412 1.397 . S
C411 C416 1.363 . S
C412 H389 0.950 . S
C412 C411 1.397 . S
C412 C413 1.334 . S
C413 H390 0.950 . S
C413 C412 1.334 . S
C413 C414 1.287 . S
C414 C413 1.287 . S
C414 C415 1.524 . S
C414 H433 0.913 . S
C415 H391 0.950 . S
C415 C414 1.524 . S
C415 C416 1.415 . S
C416 H392 0.950 . S
C416 C411 1.363 . S
C416 C415 1.415 . S
C417 H393 0.951 . S
C417 C418 1.366 . S
C417 C419 1.388 . S
C418 C417 1.366 . S
C418 C422 1.385 . S
C419 H394 0.951 . S
C419 C417 1.388 . S
C419 C420 1.366 . S
C420 C419 1.366 . S
C420 C421 1.414 . S
C420 C423 1.499 . S
C421 H395 0.950 . S
C421 C420 1.414 . S
C421 C422 1.374 . S
C422 H396 0.950 . S
C422 C418 1.385 . S
C422 C421 1.374 . S
C423 C420 1.499 . S
C423 C424 1.373 . S
C423 C425 1.389 . S
C424 H397 0.950 . S
C424 C410 1.377 . S
C424 C423 1.373 . S
C425 C409 1.377 . S
C425 C423 1.389 . S
C425 C426 1.524 . S
C426 C425 1.524 . S
C426 C427 1.397 . S
C426 C431 1.363 . S
C427 H398 0.950 . S
C427 C426 1.397 . S
C427 C428 1.334 . S
C428 H399 0.950 . S
C428 C427 1.334 . S
C428 C429 1.287 . S
C429 C428 1.287 . S
C429 C430 1.524 . S
C429 H432 0.999 . S
C430 H400 0.950 . S
C430 C429 1.524 . S
C430 C431 1.415 . S
C431 H401 0.950 . S
C431 C426 1.363 . S
C431 C430 1.415 . S
H432 C429 0.999 . S
H433 C414 0.913 . S
H434 C452 0.951 . S
H435 C454 0.951 . S
H436 C456 0.950 . S
H437 C457 0.950 . S
H438 C459 0.950 . S
H439 C462 0.950 . S
H440 C463 0.950 . S
H441 C465 0.950 1_545 S
H442 C466 0.950 . S
H443 C467 0.951 . S
H444 C469 0.951 . S
H445 C471 0.950 . S
H446 C472 0.950 . S
H447 C474 0.950 . S
H448 C477 0.950 . S
H449 C478 0.950 . S
H450 C480 0.950 . S
H451 C481 0.950 . S
C452 H434 0.951 . S
C452 C453 1.366 . S
C452 C454 1.388 . S
C453 C452 1.366 . S
C453 C457 1.385 . S
C454 H435 0.951 . S
C454 C452 1.388 . S
C454 C455 1.366 . S
C455 C454 1.366 . S
C455 C456 1.414 . S
C455 C458 1.499 . S
C456 H436 0.950 . S
C456 C455 1.414 . S
C456 C457 1.374 . S
C457 H437 0.950 . S
C457 C453 1.385 . S
C457 C456 1.374 . S
C458 C455 1.499 . S
C458 C459 1.373 . S
C458 C460 1.389 . S
C459 H438 0.950 . S
C459 C458 1.373 . S
C459 C475 1.377 . S
C460 C458 1.389 . S
C460 C461 1.524 . S
C460 C474 1.377 . S
C461 C460 1.524 . S
C461 C462 1.397 . S
C461 C466 1.363 . S
C462 H439 0.950 . S
C462 C461 1.397 . S
C462 C463 1.334 . S
C463 H440 0.950 . S
C463 C462 1.334 . S
C463 C464 1.287 . S
C464 C463 1.287 . S
C464 C465 1.524 . S
C464 H483 0.913 . S
C465 H441 0.950 1_565 S
C465 C464 1.524 . S
C465 C466 1.415 . S
C466 H442 0.950 . S
C466 C461 1.363 . S
C466 C465 1.415 . S
C467 H443 0.951 . S
C467 C468 1.366 . S
C467 C469 1.388 . S
C468 C467 1.366 . S
C468 C472 1.385 1_565 S
C469 H444 0.951 . S
C469 C467 1.388 . S
C469 C470 1.366 . S
C470 C469 1.366 . S
C470 C471 1.414 1_565 S
C470 C473 1.499 . S
C471 H445 0.950 . S
C471 C470 1.414 1_545 S
C471 C472 1.374 . S
C472 H446 0.950 . S
C472 C468 1.385 1_545 S
C472 C471 1.374 . S
C473 C470 1.499 . S
C473 C474 1.373 . S
C473 C475 1.389 . S
C474 H447 0.950 . S
C474 C460 1.377 . S
C474 C473 1.373 . S
C475 C459 1.377 . S
C475 C473 1.389 . S
C475 C476 1.524 . S
C476 C475 1.524 . S
C476 C477 1.397 . S
C476 C481 1.363 . S
C477 H448 0.950 . S
C477 C476 1.397 . S
C477 C478 1.334 . S
C478 H449 0.950 . S
C478 C477 1.334 . S
C478 C479 1.287 . S
C479 C478 1.287 . S
C479 C480 1.524 . S
C479 H482 0.999 . S
C480 H450 0.950 . S
C480 C479 1.524 . S
C480 C481 1.415 . S
C481 H451 0.950 . S
C481 C476 1.363 . S
C481 C480 1.415 . S
H482 C479 0.999 . S
H483 C464 0.913 . S
H484 C502 0.951 . S
H485 C504 0.951 . S
H486 C506 0.950 . S
H487 C507 0.950 . S
H488 C509 0.950 . S
H489 C512 0.950 . S
H490 C513 0.950 . S
H491 C515 0.950 . S
H492 C516 0.950 . S
H493 C517 0.951 . S
H494 C519 0.951 . S
H495 C521 0.950 . S
H496 C522 0.950 . S
H497 C524 0.950 . S
H498 C527 0.950 . S
H499 C528 0.950 . S
H500 C530 0.950 . S
H501 C531 0.950 . S
C502 H484 0.951 . S
C502 C503 1.366 . S
C502 C504 1.388 . S
C503 C502 1.366 . S
C503 C507 1.385 . S
C504 H485 0.951 . S
C504 C502 1.388 . S
C504 C505 1.366 . S
C505 C504 1.366 . S
C505 C506 1.414 . S
C505 C508 1.499 . S
C506 H486 0.950 . S
C506 C505 1.414 . S
C506 C507 1.374 . S
C507 H487 0.950 . S
C507 C503 1.385 . S
C507 C506 1.374 . S
C508 C505 1.499 . S
C508 C509 1.373 . S
C508 C510 1.389 . S
C509 H488 0.950 . S
C509 C508 1.373 . S
C509 C525 1.377 . S
C510 C508 1.389 . S
C510 C511 1.524 . S
C510 C524 1.377 . S
C511 C510 1.524 . S
C511 C512 1.397 . S
C511 C516 1.363 . S
C512 H489 0.950 . S
C512 C511 1.397 . S
C512 C513 1.334 . S
C513 H490 0.950 . S
C513 C512 1.334 . S
C513 C514 1.287 . S
C514 C513 1.287 . S
C514 C515 1.524 . S
C514 H533 0.913 . S
C515 H491 0.950 . S
C515 C514 1.524 . S
C515 C516 1.415 . S
C516 H492 0.950 . S
C516 C511 1.363 . S
C516 C515 1.415 . S
C517 H493 0.951 . S
C517 C518 1.366 1_556 S
C517 C519 1.388 . S
C518 C517 1.366 1_554 S
C518 C522 1.385 . S
C519 H494 0.951 . S
C519 C517 1.388 . S
C519 C520 1.366 . S
C520 C519 1.366 . S
C520 C521 1.414 1_556 S
C520 C523 1.499 . S
C521 H495 0.950 . S
C521 C520 1.414 1_554 S
C521 C522 1.374 . S
C522 H496 0.950 . S
C522 C518 1.385 . S
C522 C521 1.374 . S
C523 C520 1.499 . S
C523 C524 1.373 . S
C523 C525 1.389 . S
C524 H497 0.950 . S
C524 C510 1.377 . S
C524 C523 1.373 . S
C525 C509 1.377 . S
C525 C523 1.389 . S
C525 C526 1.524 . S
C526 C525 1.524 . S
C526 C527 1.397 . S
C526 C531 1.363 . S
C527 H498 0.950 . S
C527 C526 1.397 . S
C527 C528 1.334 . S
C528 H499 0.950 . S
C528 C527 1.334 . S
C528 C529 1.287 . S
C529 C528 1.287 . S
C529 C530 1.524 . S
C529 H532 0.999 . S
C530 H500 0.950 . S
C530 C529 1.524 . S
C530 C531 1.415 . S
C531 H501 0.950 . S
C531 C526 1.363 . S
C531 C530 1.415 . S
H532 C529 0.999 . S
H533 C514 0.913 . S
H534 C552 0.951 . S
H535 C554 0.951 . S
H536 C556 0.950 . S
H537 C557 0.950 . S
H538 C559 0.950 . S
H539 C562 0.950 . S
H540 C563 0.950 . S
H541 C565 0.950 . S
H542 C566 0.950 . S
H543 C567 0.951 . S
H544 C569 0.951 . S
H545 C571 0.950 . S
H546 C572 0.950 . S
H547 C574 0.950 . S
H548 C577 0.950 . S
H549 C578 0.950 . S
H550 C580 0.950 . S
H551 C581 0.950 . S
C552 H534 0.951 . S
C552 C553 1.366 . S
C552 C554 1.388 . S
C553 C552 1.366 . S
C553 C557 1.385 . S
C554 H535 0.951 . S
C554 C552 1.388 . S
C554 C555 1.366 . S
C555 C554 1.366 . S
C555 C556 1.414 . S
C555 C558 1.499 . S
C556 H536 0.950 . S
C556 C555 1.414 . S
C556 C557 1.374 . S
C557 H537 0.950 . S
C557 C553 1.385 . S
C557 C556 1.374 . S
C558 C555 1.499 . S
C558 C559 1.373 . S
C558 C560 1.389 . S
C559 H538 0.950 . S
C559 C558 1.373 . S
C559 C575 1.377 . S
C560 C558 1.389 . S
C560 C561 1.524 . S
C560 C574 1.377 . S
C561 C560 1.524 . S
C561 C562 1.397 . S
C561 C566 1.363 . S
C562 H539 0.950 . S
C562 C561 1.397 . S
C562 C563 1.334 . S
C563 H540 0.950 . S
C563 C562 1.334 . S
C563 C564 1.287 . S
C564 C563 1.287 . S
C564 C565 1.524 . S
C564 H583 0.913 . S
C565 H541 0.950 . S
C565 C564 1.524 . S
C565 C566 1.415 . S
C566 H542 0.950 . S
C566 C561 1.363 . S
C566 C565 1.415 . S
C567 H543 0.951 . S
C567 C568 1.366 . S
C567 C569 1.388 . S
C568 C567 1.366 . S
C568 C572 1.385 . S
C569 H544 0.951 . S
C569 C567 1.388 . S
C569 C570 1.366 . S
C570 C569 1.366 . S
C570 C571 1.414 . S
C570 C573 1.499 . S
C571 H545 0.950 . S
C571 C570 1.414 . S
C571 C572 1.374 . S
C572 H546 0.950 . S
C572 C568 1.385 . S
C572 C571 1.374 . S
C573 C570 1.499 . S
C573 C574 1.373 . S
C573 C575 1.389 . S
C574 H547 0.950 . S
C574 C560 1.377 . S
C574 C573 1.373 . S
C575 C559 1.377 . S
C575 C573 1.389 . S
C575 C576 1.524 . S
C576 C575 1.524 . S
C576 C577 1.397 . S
C576 C581 1.363 . S
C577 H548 0.950 . S
C577 C576 1.397 . S
C577 C578 1.334 . S
C578 H549 0.950 . S
C578 C577 1.334 . S
C578 C579 1.287 . S
C579 C578 1.287 . S
C579 C580 1.524 . S
C579 H582 0.999 . S
C580 H550 0.950 . S
C580 C579 1.524 . S
C580 C581 1.415 . S
C581 H551 0.950 . S
C581 C576 1.363 . S
C581 C580 1.415 . S
H582 C579 0.999 . S
H583 C564 0.913 . S
H584 C602 0.951 . S
H585 C604 0.951 . S
H586 C606 0.950 . S
H587 C607 0.950 . S
H588 C609 0.950 . S
H589 C612 0.950 . S
H590 C613 0.950 . S
H591 C615 0.950 . S
H592 C616 0.950 . S
H593 C617 0.951 . S
H594 C619 0.951 . S
H595 C621 0.950 . S
H596 C622 0.950 . S
H597 C624 0.950 . S
H598 C627 0.950 . S
H599 C628 0.950 . S
H600 C630 0.950 . S
H601 C631 0.950 . S
C602 H584 0.951 . S
C602 C603 1.366 . S
C602 C604 1.388 . S
C603 C602 1.366 . S
C603 C607 1.385 . S
C604 H585 0.951 . S
C604 C602 1.388 . S
C604 C605 1.366 . S
C605 C604 1.366 . S
C605 C606 1.414 . S
C605 C608 1.499 . S
C606 H586 0.950 . S
C606 C605 1.414 . S
C606 C607 1.374 . S
C607 H587 0.950 . S
C607 C603 1.385 . S
C607 C606 1.374 . S
C608 C605 1.499 . S
C608 C609 1.373 . S
C608 C610 1.389 . S
C609 H588 0.950 . S
C609 C608 1.373 . S
C609 C625 1.377 . S
C610 C608 1.389 . S
C610 C611 1.524 . S
C610 C624 1.377 . S
C611 C610 1.524 . S
C611 C612 1.397 . S
C611 C616 1.363 . S
C612 H589 0.950 . S
C612 C611 1.397 . S
C612 C613 1.334 . S
C613 H590 0.950 . S
C613 C612 1.334 . S
C613 C614 1.287 . S
C614 C613 1.287 . S
C614 C615 1.524 . S
C614 H633 0.913 . S
C615 H591 0.950 . S
C615 C614 1.524 . S
C615 C616 1.415 . S
C616 H592 0.950 . S
C616 C611 1.363 . S
C616 C615 1.415 . S
C617 H593 0.951 . S
C617 C618 1.366 . S
C617 C619 1.388 . S
C618 C617 1.366 . S
C618 C622 1.385 . S
C619 H594 0.951 . S
C619 C617 1.388 . S
C619 C620 1.366 . S
C620 C619 1.366 . S
C620 C621 1.414 . S
C620 C623 1.499 . S
C621 H595 0.950 . S
C621 C620 1.414 . S
C621 C622 1.374 . S
C622 H596 0.950 . S
C622 C618 1.385 . S
C622 C621 1.374 . S
C623 C620 1.499 . S
C623 C624 1.373 . S
C623 C625 1.389 . S
C624 H597 0.950 . S
C624 C610 1.377 . S
C624 C623 1.373 . S
C625 C609 1.377 . S
C625 C623 1.389 . S
C625 C626 1.524 . S
C626 C625 1.524 . S
C626 C627 1.397 . S
C626 C631 1.363 . S
C627 H598 0.950 . S
C627 C626 1.397 . S
C627 C628 1.334 . S
C628 H599 0.950 . S
C628 C627 1.334 . S
C628 C629 1.287 . S
C629 C628 1.287 . S
C629 C630 1.524 . S
C629 H632 0.999 . S
C630 H600 0.950 . S
C630 C629 1.524 . S
C630 C631 1.415 . S
C631 H601 0.950 . S
C631 C626 1.363 . S
C631 C630 1.415 . S
H632 C629 0.999 . S
H633 C614 0.913 . S
H634 C652 0.951 . S
H635 C654 0.951 . S
H636 C656 0.950 . S
H637 C657 0.950 . S
H638 C659 0.950 . S
H639 C662 0.950 . S
H640 C663 0.950 . S
H641 C665 0.950 . S
H642 C666 0.950 . S
H643 C667 0.951 . S
H644 C669 0.951 . S
H645 C671 0.950 . S
H646 C672 0.950 1_554 S
H647 C674 0.950 . S
H648 C677 0.967 . S
H649 C678 0.950 . S
H650 C680 0.950 . S
H651 C681 0.950 . S
C652 H634 0.951 . S
C652 C653 1.366 . S
C652 C654 1.388 . S
C653 C652 1.366 . S
C653 C657 1.385 . S
C654 H635 0.951 . S
C654 C652 1.388 . S
C654 C655 1.366 . S
C655 C654 1.366 . S
C655 C656 1.414 . S
C655 C658 1.499 . S
C656 H636 0.950 . S
C656 C655 1.414 . S
C656 C657 1.374 . S
C657 H637 0.950 . S
C657 C653 1.385 . S
C657 C656 1.374 . S
C658 C655 1.499 . S
C658 C659 1.373 . S
C658 C660 1.389 . S
C659 H638 0.950 . S
C659 C658 1.373 . S
C659 C675 1.377 . S
C660 C658 1.389 . S
C660 C661 1.524 . S
C660 C674 1.377 . S
C661 C660 1.524 . S
C661 C662 1.397 . S
C661 C666 1.363 . S
C662 H639 0.950 . S
C662 C661 1.397 . S
C662 C663 1.334 . S
C663 H640 0.950 . S
C663 C662 1.334 . S
C663 C664 1.287 . S
C664 C663 1.287 . S
C664 C665 1.524 . S
C664 H683 0.913 . S
C665 H641 0.950 . S
C665 C664 1.524 . S
C665 C666 1.415 . S
C666 H642 0.950 . S
C666 C661 1.363 . S
C666 C665 1.415 . S
C667 H643 0.951 . S
C667 C668 1.366 . S
C667 C669 1.388 . S
C668 C667 1.366 . S
C668 C672 1.385 . S
C669 H644 0.951 . S
C669 C667 1.388 . S
C669 C670 1.366 . S
C670 C669 1.366 . S
C670 C671 1.414 . S
C670 C673 1.499 . S
C671 H645 0.950 . S
C671 C670 1.414 . S
C671 C672 1.374 . S
C672 H646 0.950 1_556 S
C672 C668 1.385 . S
C672 C671 1.374 . S
C673 C670 1.499 . S
C673 C674 1.373 . S
C673 C675 1.389 . S
C674 H647 0.950 . S
C674 C660 1.377 . S
C674 C673 1.373 . S
C675 C659 1.377 . S
C675 C673 1.389 . S
C675 C676 1.524 . S
C676 C675 1.524 . S
C676 C677 1.397 . S
C676 C681 1.363 . S
C677 H648 0.967 . S
C677 C676 1.397 . S
C677 C678 1.334 1_556 S
C678 H649 0.950 . S
C678 C677 1.334 1_554 S
C678 C679 1.287 1_554 S
C679 C678 1.287 1_556 S
C679 C680 1.524 . S
C679 H682 0.991 1_556 S
C680 H650 0.950 . S
C680 C679 1.524 . S
C680 C681 1.415 . S
C681 H651 0.950 . S
C681 C676 1.363 . S
C681 C680 1.415 . S
H682 C679 0.991 1_554 S
H683 C664 0.913 . S
H684 C702 0.951 . S
H685 C704 0.951 . S
H686 C706 0.950 . S
H687 C707 0.950 . S
H688 C709 0.950 . S
H689 C712 0.950 . S
H690 C713 0.950 . S
H691 C715 0.950 . S
H692 C716 0.950 . S
H693 C717 0.951 . S
H694 C719 0.951 1_455 S
H695 C721 0.950 . S
H696 C722 0.950 . S
H697 C724 0.950 . S
H698 C727 0.950 . S
H699 C728 0.950 . S
H700 C730 0.950 . S
H701 C731 0.950 1_455 S
C702 H684 0.951 . S
C702 C703 1.366 . S
C702 C704 1.388 . S
C703 C702 1.366 . S
C703 C707 1.385 . S
C704 H685 0.951 . S
C704 C702 1.388 . S
C704 C705 1.366 . S
C705 C704 1.366 . S
C705 C706 1.414 . S
C705 C708 1.499 . S
C706 H686 0.950 . S
C706 C705 1.414 . S
C706 C707 1.374 . S
C707 H687 0.950 . S
C707 C703 1.385 . S
C707 C706 1.374 . S
C708 C705 1.499 . S
C708 C709 1.373 . S
C708 C710 1.389 . S
C709 H688 0.950 . S
C709 C708 1.373 . S
C709 C725 1.377 . S
C710 C708 1.389 . S
C710 C711 1.524 . S
C710 C724 1.377 . S
C711 C710 1.524 . S
C711 C712 1.397 . S
C711 C716 1.363 . S
C712 H689 0.950 . S
C712 C711 1.397 . S
C712 C713 1.334 . S
C713 H690 0.950 . S
C713 C712 1.334 . S
C713 C714 1.287 . S
C714 C713 1.287 . S
C714 C715 1.524 . S
C714 H733 0.913 . S
C715 H691 0.950 . S
C715 C714 1.524 . S
C715 C716 1.415 . S
C716 H692 0.950 . S
C716 C711 1.363 . S
C716 C715 1.415 . S
C717 H693 0.951 . S
C717 C718 1.366 1_455 S
C717 C719 1.388 1_455 S
C718 C717 1.366 1_655 S
C718 C722 1.385 . S
C719 H694 0.951 1_655 S
C719 C717 1.388 1_655 S
C719 C720 1.366 . S
C720 C719 1.366 . S
C720 C721 1.414 . S
C720 C723 1.499 . S
C721 H695 0.950 . S
C721 C720 1.414 . S
C721 C722 1.374 . S
C722 H696 0.950 . S
C722 C718 1.385 . S
C722 C721 1.374 . S
C723 C720 1.499 . S
C723 C724 1.373 . S
C723 C725 1.389 . S
C724 H697 0.950 . S
C724 C710 1.377 . S
C724 C723 1.373 . S
C725 C709 1.377 . S
C725 C723 1.389 . S
C725 C726 1.524 . S
C726 C725 1.524 . S
C726 C727 1.397 . S
C726 C731 1.363 . S
C727 H698 0.950 . S
C727 C726 1.397 . S
C727 C728 1.334 . S
C728 H699 0.950 . S
C728 C727 1.334 . S
C728 C729 1.287 . S
C729 C728 1.287 . S
C729 C730 1.524 1_655 S
C729 H732 0.999 . S
C730 H700 0.950 . S
C730 C729 1.524 1_455 S
C730 C731 1.415 1_455 S
C731 H701 0.950 1_655 S
C731 C726 1.363 . S
C731 C730 1.415 1_655 S
H732 C729 0.999 . S
H733 C714 0.913 . S
H734 C752 0.951 . S
H735 C754 0.951 . S
H736 C756 0.950 . S
H737 C757 0.950 . S
H738 C759 0.950 . S
H739 C762 0.950 . S
H740 C763 0.950 . S
H741 C765 0.950 . S
H742 C766 0.950 . S
H743 C767 0.951 . S
H744 C769 0.951 . S
H745 C771 0.950 . S
H746 C772 0.950 . S
H747 C774 0.950 . S
H748 C777 0.950 . S
H749 C778 0.950 . S
H750 C780 0.950 . S
H751 C781 0.950 . S
C752 H734 0.951 . S
C752 C753 1.366 . S
C752 C754 1.388 . S
C753 C752 1.366 . S
C753 C757 1.385 . S
C754 H735 0.951 . S
C754 C752 1.388 . S
C754 C755 1.366 . S
C755 C754 1.366 . S
C755 C756 1.414 . S
C755 C758 1.499 . S
C756 H736 0.950 . S
C756 C755 1.414 . S
C756 C757 1.374 . S
C757 H737 0.950 . S
C757 C753 1.385 . S
C757 C756 1.374 . S
C758 C755 1.499 . S
C758 C759 1.373 . S
C758 C760 1.389 . S
C759 H738 0.950 . S
C759 C758 1.373 . S
C759 C775 1.377 . S
C760 C758 1.389 . S
C760 C761 1.524 . S
C760 C774 1.377 . S
C761 C760 1.524 . S
C761 C762 1.397 . S
C761 C766 1.363 . S
C762 H739 0.950 . S
C762 C761 1.397 . S
C762 C763 1.334 . S
C763 H740 0.950 . S
C763 C762 1.334 . S
C763 C764 1.287 . S
C764 C763 1.287 . S
C764 C765 1.524 . S
C764 H783 0.913 . S
C765 H741 0.950 . S
C765 C764 1.524 . S
C765 C766 1.415 . S
C766 H742 0.950 . S
C766 C761 1.363 . S
C766 C765 1.415 . S
C767 H743 0.951 . S
C767 C768 1.366 . S
C767 C769 1.388 . S
C768 C767 1.366 . S
C768 C772 1.385 . S
C769 H744 0.951 . S
C769 C767 1.388 . S
C769 C770 1.366 . S
C770 C769 1.366 . S
C770 C771 1.414 . S
C770 C773 1.499 . S
C771 H745 0.950 . S
C771 C770 1.414 . S
C771 C772 1.374 . S
C772 H746 0.950 . S
C772 C768 1.385 . S
C772 C771 1.374 . S
C773 C770 1.499 . S
C773 C774 1.373 . S
C773 C775 1.389 . S
C774 H747 0.950 . S
C774 C760 1.377 . S
C774 C773 1.373 . S
C775 C759 1.377 . S
C775 C773 1.389 . S
C775 C776 1.524 . S
C776 C775 1.524 . S
C776 C777 1.397 . S
C776 C781 1.363 . S
C777 H748 0.950 . S
C777 C776 1.397 . S
C777 C778 1.334 . S
C778 H749 0.950 . S
C778 C777 1.334 . S
C778 C779 1.287 . S
C779 C778 1.287 . S
C779 C780 1.524 . S
C779 H782 0.999 . S
C780 H750 0.950 . S
C780 C779 1.524 . S
C780 C781 1.415 . S
C781 H751 0.950 . S
C781 C776 1.363 . S
C781 C780 1.415 . S
H782 C779 0.999 . S
H783 C764 0.913 . S
H784 C802 0.951 . S
H785 C804 0.951 . S
H786 C806 0.950 . S
H787 C807 0.950 . S
H788 C809 0.950 . S
H789 C812 0.950 . S
H790 C813 0.950 . S
H791 C815 0.950 . S
H792 C816 0.950 . S
H793 C817 0.951 . S
H794 C819 0.951 . S
H795 C821 0.950 . S
H796 C822 0.950 . S
H797 C824 0.950 . S
H798 C827 0.950 . S
H799 C828 0.950 1_455 S
H800 C830 0.950 . S
H801 C831 0.950 . S
C802 H784 0.951 . S
C802 C803 1.366 . S
C802 C804 1.388 . S
C803 C802 1.366 . S
C803 C807 1.385 . S
C804 H785 0.951 . S
C804 C802 1.388 . S
C804 C805 1.366 . S
C805 C804 1.366 . S
C805 C806 1.414 . S
C805 C808 1.499 . S
C806 H786 0.950 . S
C806 C805 1.414 . S
C806 C807 1.374 . S
C807 H787 0.950 . S
C807 C803 1.385 . S
C807 C806 1.374 . S
C808 C805 1.499 . S
C808 C809 1.373 . S
C808 C810 1.389 . S
C809 H788 0.950 . S
C809 C808 1.373 . S
C809 C825 1.377 . S
C810 C808 1.389 . S
C810 C811 1.524 . S
C810 C824 1.377 . S
C811 C810 1.524 . S
C811 C812 1.397 . S
C811 C816 1.363 . S
C812 H789 0.950 . S
C812 C811 1.397 . S
C812 C813 1.334 . S
C813 H790 0.950 . S
C813 C812 1.334 . S
C813 C814 1.287 . S
C814 C813 1.287 . S
C814 C815 1.524 . S
C814 H833 0.913 . S
C815 H791 0.950 . S
C815 C814 1.524 . S
C815 C816 1.415 . S
C816 H792 0.950 . S
C816 C811 1.363 . S
C816 C815 1.415 . S
C817 H793 0.951 . S
C817 C818 1.366 . S
C817 C819 1.388 . S
C818 C817 1.366 . S
C818 C822 1.385 . S
C819 H794 0.951 . S
C819 C817 1.388 . S
C819 C820 1.366 . S
C820 C819 1.366 . S
C820 C821 1.414 . S
C820 C823 1.499 . S
C821 H795 0.950 . S
C821 C820 1.414 . S
C821 C822 1.374 . S
C822 H796 0.950 . S
C822 C818 1.385 . S
C822 C821 1.374 . S
C823 C820 1.499 . S
C823 C824 1.373 . S
C823 C825 1.389 . S
C824 H797 0.950 . S
C824 C810 1.377 . S
C824 C823 1.373 . S
C825 C809 1.377 . S
C825 C823 1.389 . S
C825 C826 1.524 . S
C826 C825 1.524 . S
C826 C827 1.397 . S
C826 C831 1.363 . S
C827 H798 0.950 . S
C827 C826 1.397 . S
C827 C828 1.334 . S
C828 H799 0.950 1_655 S
C828 C827 1.334 . S
C828 C829 1.298 . S
C829 C828 1.298 . S
C829 C830 1.537 . S
C829 H832 0.972 1_655 S
C830 H800 0.950 . S
C830 C829 1.537 . S
C830 C831 1.415 . S
C831 H801 0.950 . S
C831 C826 1.363 . S
C831 C830 1.415 . S
H832 C829 0.972 1_455 S
H833 C814 0.913 . S
H834 C852 0.951 . S
H835 C854 0.951 . S
H836 C856 0.950 . S
H837 C857 0.950 . S
H838 C859 0.950 . S
H839 C862 0.950 . S
H840 C863 0.950 . S
H841 C865 0.950 . S
H842 C866 0.950 . S
H843 C867 0.951 . S
H844 C869 0.951 . S
H845 C871 0.950 . S
H846 C872 0.950 . S
H847 C874 0.950 . S
H848 C877 0.950 . S
H849 C878 0.950 . S
H850 C880 0.950 . S
H851 C881 0.950 . S
C852 H834 0.951 . S
C852 C853 1.366 . S
C852 C854 1.388 . S
C853 C852 1.366 . S
C853 C857 1.385 . S
C854 H835 0.951 . S
C854 C852 1.388 . S
C854 C855 1.366 . S
C855 C854 1.366 . S
C855 C856 1.414 . S
C855 C858 1.499 . S
C856 H836 0.950 . S
C856 C855 1.414 . S
C856 C857 1.374 . S
C857 H837 0.950 . S
C857 C853 1.385 . S
C857 C856 1.374 . S
C858 C855 1.499 . S
C858 C859 1.373 . S
C858 C860 1.389 . S
C859 H838 0.950 . S
C859 C858 1.373 . S
C859 C875 1.377 . S
C860 C858 1.389 . S
C860 C861 1.524 . S
C860 C874 1.377 . S
C861 C860 1.524 . S
C861 C862 1.397 . S
C861 C866 1.363 . S
C862 H839 0.950 . S
C862 C861 1.397 . S
C862 C863 1.334 . S
C863 H840 0.950 . S
C863 C862 1.334 . S
C863 C864 1.287 . S
C864 C863 1.287 . S
C864 C865 1.524 . S
C864 H883 0.913 . S
C865 H841 0.950 . S
C865 C864 1.524 . S
C865 C866 1.415 . S
C866 H842 0.950 . S
C866 C861 1.363 . S
C866 C865 1.415 . S
C867 H843 0.951 . S
C867 C868 1.366 . S
C867 C869 1.388 . S
C868 C867 1.366 . S
C868 C872 1.385 . S
C869 H844 0.951 . S
C869 C867 1.388 . S
C869 C870 1.366 . S
C870 C869 1.366 . S
C870 C871 1.414 . S
C870 C873 1.499 . S
C871 H845 0.950 . S
C871 C870 1.414 . S
C871 C872 1.374 . S
C872 H846 0.950 . S
C872 C868 1.385 . S
C872 C871 1.374 . S
C873 C870 1.499 . S
C873 C874 1.373 . S
C873 C875 1.389 . S
C874 H847 0.950 . S
C874 C860 1.377 . S
C874 C873 1.373 . S
C875 C859 1.377 . S
C875 C873 1.389 . S
C875 C876 1.524 . S
C876 C875 1.524 . S
C876 C877 1.397 . S
C876 C881 1.363 . S
C877 H848 0.950 . S
C877 C876 1.397 . S
C877 C878 1.334 . S
C878 H849 0.950 . S
C878 C877 1.334 . S
C878 C879 1.287 . S
C879 C878 1.287 . S
C879 C880 1.524 . S
C879 H882 0.999 . S
C880 H850 0.950 . S
C880 C879 1.524 . S
C880 C881 1.415 . S
C881 H851 0.950 . S
C881 C876 1.363 . S
C881 C880 1.415 . S
H882 C879 0.999 . S
H883 C864 0.913 . S
H884 C902 0.951 . S
H885 C904 0.951 . S
H886 C906 0.950 . S
H887 C907 0.950 . S
H888 C909 0.950 . S
H889 C912 0.950 . S
H890 C913 0.950 . S
H891 C915 0.950 . S
H892 C916 0.950 . S
H893 C917 0.951 . S
H894 C919 0.951 . S
H895 C921 0.950 . S
H896 C922 0.950 . S
H897 C924 0.950 . S
H898 C927 0.950 . S
H899 C928 0.950 . S
H900 C930 0.950 . S
H901 C931 0.950 . S
C902 H884 0.951 . S
C902 C903 1.366 . S
C902 C904 1.388 . S
C903 C902 1.366 . S
C903 C907 1.385 . S
C904 H885 0.951 . S
C904 C902 1.388 . S
C904 C905 1.366 . S
C905 C904 1.366 . S
C905 C906 1.414 . S
C905 C908 1.499 . S
C906 H886 0.950 . S
C906 C905 1.414 . S
C906 C907 1.374 . S
C907 H887 0.950 . S
C907 C903 1.385 . S
C907 C906 1.374 . S
C908 C905 1.499 . S
C908 C909 1.373 . S
C908 C910 1.389 . S
C909 H888 0.950 . S
C909 C908 1.373 . S
C909 C925 1.377 . S
C910 C908 1.389 . S
C910 C911 1.524 . S
C910 C924 1.377 . S
C911 C910 1.524 . S
C911 C912 1.397 . S
C911 C916 1.363 . S
C912 H889 0.950 . S
C912 C911 1.397 . S
C912 C913 1.334 . S
C913 H890 0.950 . S
C913 C912 1.334 . S
C913 C914 1.287 . S
C914 C913 1.287 . S
C914 C915 1.524 . S
C914 H933 0.913 . S
C915 H891 0.950 . S
C915 C914 1.524 . S
C915 C916 1.415 . S
C916 H892 0.950 . S
C916 C911 1.363 . S
C916 C915 1.415 . S
C917 H893 0.951 . S
C917 C918 1.366 . S
C917 C919 1.388 . S
C918 C917 1.366 . S
C918 C922 1.385 . S
C919 H894 0.951 . S
C919 C917 1.388 . S
C919 C920 1.366 . S
C920 C919 1.366 . S
C920 C921 1.414 . S
C920 C923 1.499 . S
C921 H895 0.950 . S
C921 C920 1.414 . S
C921 C922 1.374 . S
C922 H896 0.950 . S
C922 C918 1.385 . S
C922 C921 1.374 . S
C923 C920 1.499 . S
C923 C924 1.373 . S
C923 C925 1.389 . S
C924 H897 0.950 . S
C924 C910 1.377 . S
C924 C923 1.373 . S
C925 C909 1.377 . S
C925 C923 1.389 . S
C925 C926 1.524 . S
C926 C925 1.524 . S
C926 C927 1.397 . S
C926 C931 1.363 . S
C927 H898 0.950 . S
C927 C926 1.397 . S
C927 C928 1.334 . S
C928 H899 0.950 . S
C928 C927 1.334 . S
C928 C929 1.287 . S
C929 C928 1.287 . S
C929 C930 1.524 . S
C929 H932 0.999 . S
C930 H900 0.950 . S
C930 C929 1.524 . S
C930 C931 1.415 . S
C931 H901 0.950 . S
C931 C926 1.363 . S
C931 C930 1.415 . S
H932 C929 0.999 . S
H933 C914 0.913 . S
H934 C952 0.951 . S
H935 C954 0.951 . S
H936 C956 0.950 . S
H937 C957 0.950 . S
H938 C959 0.950 . S
H939 C962 0.950 . S
H940 C963 0.950 . S
H941 C965 0.950 . S
H942 C966 0.950 . S
H943 C967 0.951 . S
H944 C969 0.951 . S
H945 C971 0.950 . S
H946 C972 0.950 . S
H947 C974 0.950 . S
H948 C977 0.950 . S
H949 C978 0.950 . S
H950 C980 0.950 . S
H951 C981 0.950 . S
C952 H934 0.951 . S
C952 C953 1.366 . S
C952 C954 1.388 . S
C953 C952 1.366 . S
C953 C957 1.385 . S
C954 H935 0.951 . S
C954 C952 1.388 . S
C954 C955 1.366 . S
C955 C954 1.366 . S
C955 C956 1.414 . S
C955 C958 1.499 . S
C956 H936 0.950 . S
C956 C955 1.414 . S
C956 C957 1.374 . S
C957 H937 0.950 . S
C957 C953 1.385 . S
C957 C956 1.374 . S
C958 C955 1.499 . S
C958 C959 1.373 . S
C958 C960 1.389 . S
C959 H938 0.950 . S
C959 C958 1.373 . S
C959 C975 1.377 . S
C960 C958 1.389 . S
C960 C961 1.524 . S
C960 C974 1.377 . S
C961 C960 1.524 . S
C961 C962 1.397 . S
C961 C966 1.363 . S
C962 H939 0.950 . S
C962 C961 1.397 . S
C962 C963 1.334 . S
C963 H940 0.950 . S
C963 C962 1.334 . S
C963 C964 1.287 . S
C964 C963 1.287 . S
C964 C965 1.524 . S
C964 H983 0.913 . S
C965 H941 0.950 . S
C965 C964 1.524 . S
C965 C966 1.415 . S
C966 H942 0.950 . S
C966 C961 1.363 . S
C966 C965 1.415 . S
C967 H943 0.951 . S
C967 C968 1.366 . S
C967 C969 1.388 . S
C968 C967 1.366 . S
C968 C972 1.385 . S
C969 H944 0.951 . S
C969 C967 1.388 . S
C969 C970 1.366 . S
C970 C969 1.366 . S
C970 C971 1.414 . S
C970 C973 1.499 . S
C971 H945 0.950 . S
C971 C970 1.414 . S
C971 C972 1.374 . S
C972 H946 0.950 . S
C972 C968 1.385 . S
C972 C971 1.374 . S
C973 C970 1.499 . S
C973 C974 1.373 . S
C973 C975 1.389 . S
C974 H947 0.950 . S
C974 C960 1.377 . S
C974 C973 1.373 . S
C975 C959 1.377 . S
C975 C973 1.389 . S
C975 C976 1.524 . S
C976 C975 1.524 . S
C976 C977 1.397 . S
C976 C981 1.363 . S
C977 H948 0.950 . S
C977 C976 1.397 . S
C977 C978 1.334 . S
C978 H949 0.950 . S
C978 C977 1.334 . S
C978 C979 1.287 . S
C979 C978 1.287 . S
C979 C980 1.524 . S
C979 H982 0.999 . S
C980 H950 0.950 . S
C980 C979 1.524 . S
C980 C981 1.415 . S
C981 H951 0.950 . S
C981 C976 1.363 . S
C981 C980 1.415 . S
H982 C979 0.999 . S
H983 C964 0.913 . S
H984 C1002 0.951 . S
H985 C1004 0.951 . S
H986 C1006 0.950 . S
H987 C1007 0.950 . S
H988 C1009 0.950 . S
H989 C1012 0.950 . S
H990 C1013 0.950 . S
H991 C1015 0.950 . S
H992 C1016 0.950 . S
H993 C1017 0.951 . S
H994 C1019 0.951 . S
H995 C1021 0.950 . S
H996 C1022 0.950 . S
H997 C1024 0.950 . S
H998 C1027 0.950 . S
H999 C1028 0.950 . S
H1000 C1030 0.950 . S
H1001 C1031 0.950 . S
C1002 H984 0.951 . S
C1002 C1003 1.366 . S
C1002 C1004 1.388 . S
C1003 C1002 1.366 . S
C1003 C1007 1.385 . S
C1004 H985 0.951 . S
C1004 C1002 1.388 . S
C1004 C1005 1.366 . S
C1005 C1004 1.366 . S
C1005 C1006 1.414 . S
C1005 C1008 1.499 . S
C1006 H986 0.950 . S
C1006 C1005 1.414 . S
C1006 C1007 1.374 . S
C1007 H987 0.950 . S
C1007 C1003 1.385 . S
C1007 C1006 1.374 . S
C1008 C1005 1.499 . S
C1008 C1009 1.373 . S
C1008 C1010 1.389 . S
C1009 H988 0.950 . S
C1009 C1008 1.373 . S
C1009 C1025 1.377 . S
C1010 C1008 1.389 . S
C1010 C1011 1.524 . S
C1010 C1024 1.377 . S
C1011 C1010 1.524 . S
C1011 C1012 1.397 . S
C1011 C1016 1.363 . S
C1012 H989 0.950 . S
C1012 C1011 1.397 . S
C1012 C1013 1.334 . S
C1013 H990 0.950 . S
C1013 C1012 1.334 . S
C1013 C1014 1.287 . S
C1014 C1013 1.287 . S
C1014 C1015 1.524 . S
C1014 H1033 0.913 . S
C1015 H991 0.950 . S
C1015 C1014 1.524 . S
C1015 C1016 1.415 . S
C1016 H992 0.950 . S
C1016 C1011 1.363 . S
C1016 C1015 1.415 . S
C1017 H993 0.951 . S
C1017 C1018 1.366 . S
C1017 C1019 1.388 . S
C1018 C1017 1.366 . S
C1018 C1022 1.385 . S
C1019 H994 0.951 . S
C1019 C1017 1.388 . S
C1019 C1020 1.366 . S
C1020 C1019 1.366 . S
C1020 C1021 1.414 . S
C1020 C1023 1.499 . S
C1021 H995 0.950 . S
C1021 C1020 1.414 . S
C1021 C1022 1.374 . S
C1022 H996 0.950 . S
C1022 C1018 1.385 . S
C1022 C1021 1.374 . S
C1023 C1020 1.499 . S
C1023 C1024 1.373 . S
C1023 C1025 1.389 . S
C1024 H997 0.950 . S
C1024 C1010 1.377 . S
C1024 C1023 1.373 . S
C1025 C1009 1.377 . S
C1025 C1023 1.389 . S
C1025 C1026 1.524 . S
C1026 C1025 1.524 . S
C1026 C1027 1.397 . S
C1026 C1031 1.363 . S
C1027 H998 0.950 . S
C1027 C1026 1.397 . S
C1027 C1028 1.334 1_556 S
C1028 H999 0.950 . S
C1028 C1027 1.334 1_554 S
C1028 C1029 1.287 . S
C1029 C1028 1.287 . S
C1029 C1030 1.524 . S
C1029 H1032 0.999 . S
C1030 H1000 0.950 . S
C1030 C1029 1.524 . S
C1030 C1031 1.415 1_554 S
C1031 H1001 0.950 . S
C1031 C1026 1.363 . S
C1031 C1030 1.415 1_556 S
H1032 C1029 0.999 . S
H1033 C1014 0.913 . S
H1034 C1052 0.951 . S
H1035 C1054 0.951 . S
H1036 C1056 0.950 . S
H1037 C1057 0.950 . S
H1038 C1059 0.950 . S
H1039 C1062 0.950 . S
H1040 C1063 0.950 . S
H1041 C1065 0.950 . S
H1042 C1066 0.950 . S
H1043 C1067 0.951 . S
H1044 C1069 0.951 . S
H1045 C1071 0.950 . S
H1046 C1072 0.950 . S
H1047 C1074 0.950 . S
H1048 C1077 0.950 . S
H1049 C1078 0.950 . S
H1050 C1080 0.950 . S
H1051 C1081 0.950 . S
C1052 H1034 0.951 . S
C1052 C1053 1.366 . S
C1052 C1054 1.388 . S
C1053 C1052 1.366 . S
C1053 C1057 1.385 . S
C1054 H1035 0.951 . S
C1054 C1052 1.388 . S
C1054 C1055 1.366 . S
C1055 C1054 1.366 . S
C1055 C1056 1.414 . S
C1055 C1058 1.499 . S
C1056 H1036 0.950 . S
C1056 C1055 1.414 . S
C1056 C1057 1.374 . S
C1057 H1037 0.950 . S
C1057 C1053 1.385 . S
C1057 C1056 1.374 . S
C1058 C1055 1.499 . S
C1058 C1059 1.373 . S
C1058 C1060 1.389 . S
C1059 H1038 0.950 . S
C1059 C1058 1.373 . S
C1059 C1075 1.377 . S
C1060 C1058 1.389 . S
C1060 C1061 1.524 . S
C1060 C1074 1.377 . S
C1061 C1060 1.524 . S
C1061 C1062 1.397 . S
C1061 C1066 1.363 . S
C1062 H1039 0.950 . S
C1062 C1061 1.397 . S
C1062 C1063 1.334 . S
C1063 H1040 0.950 . S
C1063 C1062 1.334 . S
C1063 C1064 1.287 . S
C1064 C1063 1.287 . S
C1064 C1065 1.524 . S
C1064 H1083 0.913 . S
C1065 H1041 0.950 . S
C1065 C1064 1.524 . S
C1065 C1066 1.415 . S
C1066 H1042 0.950 . S
C1066 C1061 1.363 . S
C1066 C1065 1.415 . S
C1067 H1043 0.951 . S
C1067 C1068 1.366 . S
C1067 C1069 1.388 . S
C1068 C1067 1.366 . S
C1068 C1072 1.385 . S
C1069 H1044 0.951 . S
C1069 C1067 1.388 . S
C1069 C1070 1.366 . S
C1070 C1069 1.366 . S
C1070 C1071 1.414 . S
C1070 C1073 1.499 . S
C1071 H1045 0.950 . S
C1071 C1070 1.414 . S
C1071 C1072 1.374 . S
C1072 H1046 0.950 . S
C1072 C1068 1.385 . S
C1072 C1071 1.374 . S
C1073 C1070 1.499 . S
C1073 C1074 1.373 . S
C1073 C1075 1.389 . S
C1074 H1047 0.950 . S
C1074 C1060 1.377 . S
C1074 C1073 1.373 . S
C1075 C1059 1.377 . S
C1075 C1073 1.389 . S
C1075 C1076 1.524 . S
C1076 C1075 1.524 . S
C1076 C1077 1.397 . S
C1076 C1081 1.363 . S
C1077 H1048 0.950 . S
C1077 C1076 1.397 . S
C1077 C1078 1.334 . S
C1078 H1049 0.950 . S
C1078 C1077 1.334 . S
C1078 C1079 1.287 . S
C1079 C1078 1.287 . S
C1079 C1080 1.524 . S
C1079 H1082 0.999 . S
C1080 H1050 0.950 . S
C1080 C1079 1.524 . S
C1080 C1081 1.415 . S
C1081 H1051 0.950 . S
C1081 C1076 1.363 . S
C1081 C1080 1.415 . S
H1082 C1079 0.999 . S
H1083 C1064 0.913 . S
H1084 C1102 0.951 . S
H1085 C1104 0.951 . S
H1086 C1106 0.950 . S
H1087 C1107 0.950 . S
H1088 C1109 0.950 . S
H1089 C1112 0.950 . S
H1090 C1113 0.950 . S
H1091 C1115 0.950 . S
H1092 C1116 0.950 . S
H1093 C1117 0.951 . S
H1094 C1119 0.951 . S
H1095 C1121 0.950 . S
H1096 C1122 0.950 . S
H1097 C1124 0.950 . S
H1098 C1127 0.950 . S
H1099 C1128 0.950 1_556 S
H1100 C1130 0.950 . S
H1101 C1131 0.950 . S
C1102 H1084 0.951 . S
C1102 C1103 1.366 . S
C1102 C1104 1.388 . S
C1103 C1102 1.366 . S
C1103 C1107 1.385 . S
C1104 H1085 0.951 . S
C1104 C1102 1.388 . S
C1104 C1105 1.366 . S
C1105 C1104 1.366 . S
C1105 C1106 1.414 . S
C1105 C1108 1.499 . S
C1106 H1086 0.950 . S
C1106 C1105 1.414 . S
C1106 C1107 1.374 . S
C1107 H1087 0.950 . S
C1107 C1103 1.385 . S
C1107 C1106 1.374 . S
C1108 C1105 1.499 . S
C1108 C1109 1.373 . S
C1108 C1110 1.389 . S
C1109 H1088 0.950 . S
C1109 C1108 1.373 . S
C1109 C1125 1.377 . S
C1110 C1108 1.389 . S
C1110 C1111 1.524 . S
C1110 C1124 1.377 . S
C1111 C1110 1.524 . S
C1111 C1112 1.397 . S
C1111 C1116 1.363 . S
C1112 H1089 0.950 . S
C1112 C1111 1.397 . S
C1112 C1113 1.334 . S
C1113 H1090 0.950 . S
C1113 C1112 1.334 . S
C1113 C1114 1.287 . S
C1114 C1113 1.287 . S
C1114 C1115 1.524 . S
C1114 H1133 0.913 . S
C1115 H1091 0.950 . S
C1115 C1114 1.524 . S
C1115 C1116 1.415 . S
C1116 H1092 0.950 . S
C1116 C1111 1.363 . S
C1116 C1115 1.415 . S
C1117 H1093 0.951 . S
C1117 C1118 1.366 . S
C1117 C1119 1.388 . S
C1118 C1117 1.366 . S
C1118 C1122 1.385 . S
C1119 H1094 0.951 . S
C1119 C1117 1.388 . S
C1119 C1120 1.366 . S
C1120 C1119 1.366 . S
C1120 C1121 1.414 . S
C1120 C1123 1.499 . S
C1121 H1095 0.950 . S
C1121 C1120 1.414 . S
C1121 C1122 1.374 . S
C1122 H1096 0.950 . S
C1122 C1118 1.385 . S
C1122 C1121 1.374 . S
C1123 C1120 1.499 . S
C1123 C1124 1.373 . S
C1123 C1125 1.389 . S
C1124 H1097 0.950 . S
C1124 C1110 1.377 . S
C1124 C1123 1.373 . S
C1125 C1109 1.377 . S
C1125 C1123 1.389 . S
C1125 C1126 1.524 . S
C1126 C1125 1.524 . S
C1126 C1127 1.397 . S
C1126 C1131 1.363 . S
C1127 H1098 0.950 . S
C1127 C1126 1.397 . S
C1127 C1128 1.334 . S
C1128 H1099 0.950 1_554 S
C1128 C1127 1.334 . S
C1128 C1129 1.287 . S
C1129 C1128 1.287 . S
C1129 C1130 1.524 . S
C1129 H1132 0.999 1_554 S
C1130 H1100 0.950 . S
C1130 C1129 1.524 . S
C1130 C1131 1.415 . S
C1131 H1101 0.950 . S
C1131 C1126 1.363 . S
C1131 C1130 1.415 . S
H1132 C1129 0.999 1_556 S
H1133 C1114 0.913 . S
H1134 C1152 0.951 . S
H1135 C1154 0.951 . S
H1136 C1156 0.950 . S
H1137 C1157 0.950 . S
H1138 C1159 0.950 . S
H1139 C1162 0.950 . S
H1140 C1163 0.950 . S
H1141 C1165 0.950 . S
H1142 C1166 0.950 . S
H1143 C1167 0.951 . S
H1144 C1169 0.951 . S
H1145 C1171 0.950 . S
H1146 C1172 0.950 . S
H1147 C1174 0.950 . S
H1148 C1177 0.950 . S
H1149 C1178 0.950 . S
H1150 C1180 0.950 . S
H1151 C1181 0.950 . S
C1152 H1134 0.951 . S
C1152 C1153 1.366 . S
C1152 C1154 1.388 . S
C1153 C1152 1.366 . S
C1153 C1157 1.385 . S
C1154 H1135 0.951 . S
C1154 C1152 1.388 . S
C1154 C1155 1.366 . S
C1155 C1154 1.366 . S
C1155 C1156 1.414 . S
C1155 C1158 1.499 . S
C1156 H1136 0.950 . S
C1156 C1155 1.414 . S
C1156 C1157 1.374 . S
C1157 H1137 0.950 . S
C1157 C1153 1.385 . S
C1157 C1156 1.374 . S
C1158 C1155 1.499 . S
C1158 C1159 1.373 . S
C1158 C1160 1.389 . S
C1159 H1138 0.950 . S
C1159 C1158 1.373 . S
C1159 C1175 1.377 . S
C1160 C1158 1.389 . S
C1160 C1161 1.524 . S
C1160 C1174 1.377 . S
C1161 C1160 1.524 . S
C1161 C1162 1.397 . S
C1161 C1166 1.363 . S
C1162 H1139 0.950 . S
C1162 C1161 1.397 . S
C1162 C1163 1.334 . S
C1163 H1140 0.950 . S
C1163 C1162 1.334 . S
C1163 C1164 1.287 . S
C1164 C1163 1.287 . S
C1164 C1165 1.524 . S
C1164 H1183 0.913 . S
C1165 H1141 0.950 . S
C1165 C1164 1.524 . S
C1165 C1166 1.415 . S
C1166 H1142 0.950 . S
C1166 C1161 1.363 . S
C1166 C1165 1.415 . S
C1167 H1143 0.951 . S
C1167 C1168 1.366 . S
C1167 C1169 1.388 . S
C1168 C1167 1.366 . S
C1168 C1172 1.385 . S
C1169 H1144 0.951 . S
C1169 C1167 1.388 . S
C1169 C1170 1.366 . S
C1170 C1169 1.366 . S
C1170 C1171 1.414 . S
C1170 C1173 1.499 . S
C1171 H1145 0.950 . S
C1171 C1170 1.414 . S
C1171 C1172 1.374 . S
C1172 H1146 0.950 . S
C1172 C1168 1.385 . S
C1172 C1171 1.374 . S
C1173 C1170 1.499 . S
C1173 C1174 1.373 . S
C1173 C1175 1.389 . S
C1174 H1147 0.950 . S
C1174 C1160 1.377 . S
C1174 C1173 1.373 . S
C1175 C1159 1.377 . S
C1175 C1173 1.389 . S
C1175 C1176 1.524 . S
C1176 C1175 1.524 . S
C1176 C1177 1.397 . S
C1176 C1181 1.363 . S
C1177 H1148 0.950 . S
C1177 C1176 1.397 . S
C1177 C1178 1.334 . S
C1178 H1149 0.950 . S
C1178 C1177 1.334 . S
C1178 C1179 1.287 . S
C1179 C1178 1.287 . S
C1179 C1180 1.524 . S
C1179 H1182 0.999 . S
C1180 H1150 0.950 . S
C1180 C1179 1.524 . S
C1180 C1181 1.415 . S
C1181 H1151 0.950 . S
C1181 C1176 1.363 . S
C1181 C1180 1.415 . S
H1182 C1179 0.999 . S
H1183 C1164 0.913 . S
H1184 C1202 0.951 . S
H1185 C1204 0.951 . S
H1186 C1206 0.950 . S
H1187 C1207 0.950 . S
H1188 C1209 0.950 . S
H1189 C1212 0.950 . S
H1190 C1213 0.950 . S
H1191 C1215 0.950 . S
H1192 C1216 0.950 . S
H1193 C1217 0.951 . S
H1194 C1219 0.951 . S
H1195 C1221 0.950 . S
H1196 C1222 0.950 . S
H1197 C1224 0.950 . S
H1198 C1227 0.950 1_556 S
H1199 C1228 0.950 . S
H1200 C1230 0.950 . S
H1201 C1231 0.950 . S
C1202 H1184 0.951 . S
C1202 C1203 1.366 . S
C1202 C1204 1.388 . S
C1203 C1202 1.366 . S
C1203 C1207 1.385 . S
C1204 H1185 0.951 . S
C1204 C1202 1.388 . S
C1204 C1205 1.366 . S
C1205 C1204 1.366 . S
C1205 C1206 1.414 . S
C1205 C1208 1.499 . S
C1206 H1186 0.950 . S
C1206 C1205 1.414 . S
C1206 C1207 1.374 . S
C1207 H1187 0.950 . S
C1207 C1203 1.385 . S
C1207 C1206 1.374 . S
C1208 C1205 1.499 . S
C1208 C1209 1.373 . S
C1208 C1210 1.389 . S
C1209 H1188 0.950 . S
C1209 C1208 1.373 . S
C1209 C1225 1.377 . S
C1210 C1208 1.389 . S
C1210 C1211 1.524 . S
C1210 C1224 1.377 . S
C1211 C1210 1.524 . S
C1211 C1212 1.397 . S
C1211 C1216 1.363 . S
C1212 H1189 0.950 . S
C1212 C1211 1.397 . S
C1212 C1213 1.334 . S
C1213 H1190 0.950 . S
C1213 C1212 1.334 . S
C1213 C1214 1.287 . S
C1214 C1213 1.287 . S
C1214 C1215 1.524 . S
C1214 H1233 0.913 . S
C1215 H1191 0.950 . S
C1215 C1214 1.524 . S
C1215 C1216 1.415 . S
C1216 H1192 0.950 . S
C1216 C1211 1.363 . S
C1216 C1215 1.415 . S
C1217 H1193 0.951 . S
C1217 C1218 1.366 . S
C1217 C1219 1.388 . S
C1218 C1217 1.366 . S
C1218 C1222 1.385 . S
C1219 H1194 0.951 . S
C1219 C1217 1.388 . S
C1219 C1220 1.366 . S
C1220 C1219 1.366 . S
C1220 C1221 1.414 . S
C1220 C1223 1.499 . S
C1221 H1195 0.950 . S
C1221 C1220 1.414 . S
C1221 C1222 1.374 . S
C1222 H1196 0.950 . S
C1222 C1218 1.385 . S
C1222 C1221 1.374 . S
C1223 C1220 1.499 . S
C1223 C1224 1.373 . S
C1223 C1225 1.389 . S
C1224 H1197 0.950 . S
C1224 C1210 1.377 . S
C1224 C1223 1.373 . S
C1225 C1209 1.377 . S
C1225 C1223 1.389 . S
C1225 C1226 1.524 . S
C1226 C1225 1.524 . S
C1226 C1227 1.397 1_556 S
C1226 C1231 1.363 . S
C1227 H1198 0.950 1_554 S
C1227 C1226 1.397 1_554 S
C1227 C1228 1.334 . S
C1228 H1199 0.950 . S
C1228 C1227 1.334 . S
C1228 C1229 1.287 . S
C1229 C1228 1.287 . S
C1229 C1230 1.524 . S
C1229 H1232 0.999 . S
C1230 H1200 0.950 . S
C1230 C1229 1.524 . S
C1230 C1231 1.415 1_554 S
C1231 H1201 0.950 . S
C1231 C1226 1.363 . S
C1231 C1230 1.415 1_556 S
H1232 C1229 0.999 . S
H1233 C1214 0.913 . S
H1234 C1252 0.951 . S
H1235 C1254 0.951 . S
H1236 C1256 0.950 . S
H1237 C1257 0.950 . S
H1238 C1259 0.950 . S
H1239 C1262 0.950 . S
H1240 C1263 0.950 . S
H1241 C1265 0.950 . S
H1242 C1266 0.950 . S
H1243 C1267 0.951 . S
H1244 C1269 0.951 . S
H1245 C1271 0.950 . S
H1246 C1272 0.950 . S
H1247 C1274 0.950 . S
H1248 C1277 0.950 . S
H1249 C1278 0.950 . S
H1250 C1280 0.950 . S
H1251 C1281 0.950 . S
C1252 H1234 0.951 . S
C1252 C1253 1.366 . S
C1252 C1254 1.388 . S
C1253 C1252 1.366 . S
C1253 C1257 1.385 . S
C1254 H1235 0.951 . S
C1254 C1252 1.388 . S
C1254 C1255 1.366 . S
C1255 C1254 1.366 . S
C1255 C1256 1.414 . S
C1255 C1258 1.499 . S
C1256 H1236 0.950 . S
C1256 C1255 1.414 . S
C1256 C1257 1.374 . S
C1257 H1237 0.950 . S
C1257 C1253 1.385 . S
C1257 C1256 1.374 . S
C1258 C1255 1.499 . S
C1258 C1259 1.373 . S
C1258 C1260 1.389 . S
C1259 H1238 0.950 . S
C1259 C1258 1.373 . S
C1259 C1275 1.377 . S
C1260 C1258 1.389 . S
C1260 C1261 1.524 . S
C1260 C1274 1.377 . S
C1261 C1260 1.524 . S
C1261 C1262 1.397 . S
C1261 C1266 1.363 . S
C1262 H1239 0.950 . S
C1262 C1261 1.397 . S
C1262 C1263 1.334 . S
C1263 H1240 0.950 . S
C1263 C1262 1.334 . S
C1263 C1264 1.287 . S
C1264 C1263 1.287 . S
C1264 C1265 1.524 . S
C1264 H1283 0.913 . S
C1265 H1241 0.950 . S
C1265 C1264 1.524 . S
C1265 C1266 1.415 . S
C1266 H1242 0.950 . S
C1266 C1261 1.363 . S
C1266 C1265 1.415 . S
C1267 H1243 0.951 . S
C1267 C1268 1.366 . S
C1267 C1269 1.388 . S
C1268 C1267 1.366 . S
C1268 C1272 1.385 . S
C1269 H1244 0.951 . S
C1269 C1267 1.388 . S
C1269 C1270 1.366 . S
C1270 C1269 1.366 . S
C1270 C1271 1.414 . S
C1270 C1273 1.499 . S
C1271 H1245 0.950 . S
C1271 C1270 1.414 . S
C1271 C1272 1.374 . S
C1272 H1246 0.950 . S
C1272 C1268 1.385 . S
C1272 C1271 1.374 . S
C1273 C1270 1.499 . S
C1273 C1274 1.373 . S
C1273 C1275 1.389 . S
C1274 H1247 0.950 . S
C1274 C1260 1.377 . S
C1274 C1273 1.373 . S
C1275 C1259 1.377 . S
C1275 C1273 1.389 . S
C1275 C1276 1.524 . S
C1276 C1275 1.524 . S
C1276 C1277 1.397 . S
C1276 C1281 1.363 . S
C1277 H1248 0.950 . S
C1277 C1276 1.397 . S
C1277 C1278 1.334 . S
C1278 H1249 0.950 . S
C1278 C1277 1.334 . S
C1278 C1279 1.287 . S
C1279 C1278 1.287 . S
C1279 C1280 1.524 . S
C1279 H1282 0.999 . S
C1280 H1250 0.950 . S
C1280 C1279 1.524 . S
C1280 C1281 1.415 . S
C1281 H1251 0.950 . S
C1281 C1276 1.363 . S
C1281 C1280 1.415 . S
H1282 C1279 0.999 . S
H1283 C1264 0.913 . S
H1284 C1302 0.951 . S
H1285 C1304 0.951 . S
H1286 C1306 0.950 . S
H1287 C1307 0.950 . S
H1288 C1309 0.950 . S
H1289 C1312 0.950 . S
H1290 C1313 0.950 . S
H1291 C1315 0.950 . S
H1292 C1316 0.950 . S
H1293 C1317 0.951 . S
H1294 C1319 0.951 . S
H1295 C1321 0.950 . S
H1296 C1322 0.950 . S
H1297 C1324 0.950 . S
H1298 C1327 0.950 . S
H1299 C1328 0.950 . S
H1300 C1330 0.950 . S
H1301 C1331 0.950 . S
C1302 H1284 0.951 . S
C1302 C1303 1.366 . S
C1302 C1304 1.388 . S
C1303 C1302 1.366 . S
C1303 C1307 1.385 . S
C1304 H1285 0.951 . S
C1304 C1302 1.388 . S
C1304 C1305 1.366 . S
C1305 C1304 1.366 . S
C1305 C1306 1.414 . S
C1305 C1308 1.499 . S
C1306 H1286 0.950 . S
C1306 C1305 1.414 . S
C1306 C1307 1.374 . S
C1307 H1287 0.950 . S
C1307 C1303 1.385 . S
C1307 C1306 1.374 . S
C1308 C1305 1.499 . S
C1308 C1309 1.373 . S
C1308 C1310 1.389 . S
C1309 H1288 0.950 . S
C1309 C1308 1.373 . S
C1309 C1325 1.377 . S
C1310 C1308 1.389 . S
C1310 C1311 1.524 . S
C1310 C1324 1.377 . S
C1311 C1310 1.524 . S
C1311 C1312 1.397 . S
C1311 C1316 1.363 . S
C1312 H1289 0.950 . S
C1312 C1311 1.397 . S
C1312 C1313 1.334 . S
C1313 H1290 0.950 . S
C1313 C1312 1.334 . S
C1313 C1314 1.287 . S
C1314 C1313 1.287 . S
C1314 C1315 1.524 . S
C1314 H1333 0.913 . S
C1315 H1291 0.950 . S
C1315 C1314 1.524 . S
C1315 C1316 1.415 . S
C1316 H1292 0.950 . S
C1316 C1311 1.363 . S
C1316 C1315 1.415 . S
C1317 H1293 0.951 . S
C1317 C1318 1.366 . S
C1317 C1319 1.388 . S
C1318 C1317 1.366 . S
C1318 C1322 1.385 . S
C1319 H1294 0.951 . S
C1319 C1317 1.388 . S
C1319 C1320 1.366 . S
C1320 C1319 1.366 . S
C1320 C1321 1.414 . S
C1320 C1323 1.499 . S
C1321 H1295 0.950 . S
C1321 C1320 1.414 . S
C1321 C1322 1.374 . S
C1322 H1296 0.950 . S
C1322 C1318 1.385 . S
C1322 C1321 1.374 . S
C1323 C1320 1.499 . S
C1323 C1324 1.373 . S
C1323 C1325 1.389 . S
C1324 H1297 0.950 . S
C1324 C1310 1.377 . S
C1324 C1323 1.373 . S
C1325 C1309 1.377 . S
C1325 C1323 1.389 . S
C1325 C1326 1.524 . S
C1326 C1325 1.524 . S
C1326 C1327 1.397 . S
C1326 C1331 1.363 . S
C1327 H1298 0.950 . S
C1327 C1326 1.397 . S
C1327 C1328 1.334 . S
C1328 H1299 0.950 . S
C1328 C1327 1.334 . S
C1328 C1329 1.287 . S
C1329 C1328 1.287 . S
C1329 C1330 1.524 . S
C1329 H1332 0.999 . S
C1330 H1300 0.950 . S
C1330 C1329 1.524 . S
C1330 C1331 1.415 . S
C1331 H1301 0.950 . S
C1331 C1326 1.363 . S
C1331 C1330 1.415 . S
H1332 C1329 0.999 . S
H1333 C1314 0.913 . S
H1334 C1352 0.951 . S
H1335 C1354 0.951 . S
H1336 C1356 0.950 . S
H1337 C1357 0.950 . S
H1338 C1359 0.950 . S
H1339 C1362 0.950 . S
H1340 C1363 0.950 . S
H1341 C1365 0.950 . S
H1342 C1366 0.950 . S
H1343 C1367 0.951 . S
H1344 C1369 0.951 . S
H1345 C1371 0.950 . S
H1346 C1372 0.950 . S
H1347 C1374 0.950 . S
H1348 C1377 0.950 . S
H1349 C1378 0.950 . S
H1350 C1380 0.950 . S
H1351 C1381 0.950 . S
C1352 H1334 0.951 . S
C1352 C1353 1.366 . S
C1352 C1354 1.388 . S
C1353 C1352 1.366 . S
C1353 C1357 1.385 . S
C1354 H1335 0.951 . S
C1354 C1352 1.388 . S
C1354 C1355 1.366 . S
C1355 C1354 1.366 . S
C1355 C1356 1.414 . S
C1355 C1358 1.499 . S
C1356 H1336 0.950 . S
C1356 C1355 1.414 . S
C1356 C1357 1.374 . S
C1357 H1337 0.950 . S
C1357 C1353 1.385 . S
C1357 C1356 1.374 . S
C1358 C1355 1.499 . S
C1358 C1359 1.373 . S
C1358 C1360 1.389 . S
C1359 H1338 0.950 . S
C1359 C1358 1.373 . S
C1359 C1375 1.377 . S
C1360 C1358 1.389 . S
C1360 C1361 1.524 . S
C1360 C1374 1.377 . S
C1361 C1360 1.524 . S
C1361 C1362 1.397 . S
C1361 C1366 1.363 . S
C1362 H1339 0.950 . S
C1362 C1361 1.397 . S
C1362 C1363 1.334 . S
C1363 H1340 0.950 . S
C1363 C1362 1.334 . S
C1363 C1364 1.287 . S
C1364 C1363 1.287 . S
C1364 C1365 1.524 . S
C1364 H1383 0.913 . S
C1365 H1341 0.950 . S
C1365 C1364 1.524 . S
C1365 C1366 1.415 . S
C1366 H1342 0.950 . S
C1366 C1361 1.363 . S
C1366 C1365 1.415 . S
C1367 H1343 0.951 . S
C1367 C1368 1.366 . S
C1367 C1369 1.388 . S
C1368 C1367 1.366 . S
C1368 C1372 1.385 . S
C1369 H1344 0.951 . S
C1369 C1367 1.388 . S
C1369 C1370 1.366 . S
C1370 C1369 1.366 . S
C1370 C1371 1.414 . S
C1370 C1373 1.499 . S
C1371 H1345 0.950 . S
C1371 C1370 1.414 . S
C1371 C1372 1.374 . S
C1372 H1346 0.950 . S
C1372 C1368 1.385 . S
C1372 C1371 1.374 . S
C1373 C1370 1.499 . S
C1373 C1374 1.373 . S
C1373 C1375 1.389 . S
C1374 H1347 0.950 . S
C1374 C1360 1.377 . S
C1374 C1373 1.373 . S
C1375 C1359 1.377 . S
C1375 C1373 1.389 . S
C1375 C1376 1.524 . S
C1376 C1375 1.524 . S
C1376 C1377 1.397 . S
C1376 C1381 1.363 . S
C1377 H1348 0.950 . S
C1377 C1376 1.397 . S
C1377 C1378 1.334 . S
C1378 H1349 0.950 . S
C1378 C1377 1.334 . S
C1378 C1379 1.287 . S
C1379 C1378 1.287 . S
C1379 C1380 1.524 . S
C1379 H1382 0.999 . S
C1380 H1350 0.950 . S
C1380 C1379 1.524 . S
C1380 C1381 1.415 . S
C1381 H1351 0.950 . S
C1381 C1376 1.363 . S
C1381 C1380 1.415 . S
H1382 C1379 0.999 . S
H1383 C1364 0.913 . S
C203 C9 1.850 . S
C218 C106 1.831 . S
C253 C21 1.410 . S
C268 C125 1.374 . S
C318 C162 1.390 . S
C303 C30 1.384 . S
C353 C43 1.401 . S
C368 C172 1.449 1_655 S
C418 C142 1.792 . S
C403 C4 1.672 . S
C468 C112 2.066 1_565 S
C453 C22 2.134 . S
C518 C183 1.090 . S
C503 C34 1.106 . S
C568 C153 1.165 . S
C553 C48 1.179 . S
C603 C8 1.739 . S
C618 C166 1.746 . S
C668 C133 1.699 . S
C653 C35 1.749 . S
C703 C47 1.902 . S
C718 C123 1.899 . S
C753 C17 1.080 . S
C768 C145 1.079 . S
C818 C105 1.452 . S
C803 C60 1.455 . S
C853 C74 1.596 . S
C868 C126 1.572 . S
C903 C82 1.166 . S
C918 C163 1.190 . S
C953 C100 1.973 . S
C968 C173 1.916 . S
C1003 C61 2.284 . S
C1018 C143 2.320 . S
C1068 C113 1.532 . S
C1053 C73 1.577 . S
C1118 C182 1.703 . S
C1103 C87 1.737 . S
C1168 C152 0.907 . S
C1153 C95 0.899 . S
C1203 C56 1.740 . S
C1218 C165 1.737 . S
C1268 C132 1.814 . S
C1253 C86 1.861 . S
C1318 C122 1.657 . S
C1303 C99 1.658 . S
C1353 C69 1.089 . S
C1368 C146 1.117 . S
