# Generated by pormake.
# Topology anh, (6,3)-cn, num edge types: 1
# Building blocks:
#     Node 0, Type 0, BuildingBlock: BETGAK_clean_sbu_0, # of connection points: 6
#     Node 1, Type 0, BuildingBlock: BETGAK_clean_sbu_0, # of connection points: 6
#     Node 2, Type 0, BuildingBlock: BETGAK_clean_sbu_0, # of connection points: 6
#     Node 3, Type 1, BuildingBlock: BELTOD_clean_linker_0, # of connection points: 3
#     Node 4, Type 1, BuildingBlock: BELTOD_clean_linker_0, # of connection points: 3
#     Node 5, Type 1, BuildingBlock: BELTOD_clean_linker_0, # of connection points: 3
#     Node 6, Type 1, BuildingBlock: BELTOD_clean_linker_0, # of connection points: 3
#     Node 7, Type 1, BuildingBlock: BELTOD_clean_linker_0, # of connection points: 3
#     Node 8, Type 1, BuildingBlock: BELTOD_clean_linker_0, # of connection points: 3
#     Edge 9, Type (0, 1), BuildingBlock: TEMPAE_clean_linker_10, # of connection points: 2
#     Edge 10, Type (0, 1), BuildingBlock: TEMPAE_clean_linker_10, # of connection points: 2
#     Edge 11, Type (0, 1), BuildingBlock: TEMPAE_clean_linker_10, # of connection points: 2
#     Edge 12, Type (0, 1), BuildingBlock: TEMPAE_clean_linker_10, # of connection points: 2
#     Edge 13, Type (0, 1), BuildingBlock: TEMPAE_clean_linker_10, # of connection points: 2
#     Edge 14, Type (0, 1), BuildingBlock: TEMPAE_clean_linker_10, # of connection points: 2
#     Edge 15, Type (0, 1), BuildingBlock: TEMPAE_clean_linker_10, # of connection points: 2
#     Edge 16, Type (0, 1), BuildingBlock: TEMPAE_clean_linker_10, # of connection points: 2
#     Edge 17, Type (0, 1), BuildingBlock: TEMPAE_clean_linker_10, # of connection points: 2
#     Edge 18, Type (0, 1), BuildingBlock: TEMPAE_clean_linker_10, # of connection points: 2
#     Edge 19, Type (0, 1), BuildingBlock: TEMPAE_clean_linker_10, # of connection points: 2
#     Edge 20, Type (0, 1), BuildingBlock: TEMPAE_clean_linker_10, # of connection points: 2
#     Edge 21, Type (0, 1), BuildingBlock: TEMPAE_clean_linker_10, # of connection points: 2
#     Edge 22, Type (0, 1), BuildingBlock: TEMPAE_clean_linker_10, # of connection points: 2
#     Edge 23, Type (0, 1), BuildingBlock: TEMPAE_clean_linker_10, # of connection points: 2
#     Edge 24, Type (0, 1), BuildingBlock: TEMPAE_clean_linker_10, # of connection points: 2
#     Edge 25, Type (0, 1), BuildingBlock: TEMPAE_clean_linker_10, # of connection points: 2
#     Edge 26, Type (0, 1), BuildingBlock: TEMPAE_clean_linker_10, # of connection points: 2
# Relax obj value: 0.180
# Max RMSD: 0.205
# Mean RMSD: 0.148
data_MOF--net-anh--node1-BETGAK_clean_sbu_0--node2-BELTOD_clean_linker_0--edge1-TEMPAE_clean_linker_10
_symmetry_space_group_name_H-M    P1
_symmetry_Int_Tables_number       1
_symmetry_cell_setting            triclinic
loop_
_symmetry_equiv_pos_as_xyz
'x, y, z'
_cell_length_a     35.734406
_cell_length_b     41.992106
_cell_length_c     61.384605
_cell_angle_alpha  92.665567
_cell_angle_beta   89.018511
_cell_angle_gamma 128.91948
loop_
_atom_site_label
_atom_site_type_symbol
_atom_site_fract_x
_atom_site_fract_y
_atom_site_fract_z
_atom_type_partial_charge
La0 La 0.09827 0.53069 0.14448 0.0
La1 La 0.05026 0.56312 0.16455 0.0
C2 C 0.14265 0.51558 0.11965 0.0
C3 C 0.18772 0.52159 0.12025 0.0
C4 C 0.20652 0.52125 0.14005 0.0
C5 C 0.2434 0.51841 0.14006 0.0
C6 C 0.26228 0.51622 0.12027 0.0
C7 C 0.24621 0.52037 0.10063 0.0
C8 C 0.20895 0.52274 0.10063 0.0
C9 C 0.09343 0.52886 0.18723 0.0
C10 C 0.15992 0.62794 0.15569 0.0
C11 C 1.00376 0.57617 0.18922 0.0
C12 C 0.95819 0.54851 0.20066 0.0
C13 C 0.92379 0.55439 0.19951 0.0
C14 C 0.87582 0.52255 0.20421 0.0
C15 C 0.86192 0.48453 0.20999 0.0
C16 C 0.89738 0.48059 0.21386 0.0
C17 C 0.94532 0.51236 0.20913 0.0
C18 C 0.05701 0.56453 0.12152 0.0
C19 C 0.98994 0.4672 0.15446 0.0
O20 O 0.11032 0.49009 0.13359 0.0
O21 O 0.14597 0.54831 0.1184 0.0
O22 O 0.09471 0.50373 0.17492 0.0
O23 O 0.10079 0.55629 0.1758 0.0
O24 O 0.1578 0.59776 0.14606 0.0
O25 O 0.12248 0.621 0.16564 0.0
O26 O 0.99958 0.57283 0.16792 0.0
O27 O 1.03982 0.57819 0.19592 0.0
O28 O 0.0594 0.59194 0.13363 0.0
O29 O 1.04772 0.53687 0.13336 0.0
O30 O 0.99616 0.49613 0.16767 0.0
O31 O 1.02303 0.47671 0.14 0.0
H32 H 0.19074 0.52067 0.15542 0.0
H33 H 0.2547 0.51509 0.15547 0.0
H34 H 0.2608 0.51972 0.08515 0.0
H35 H 0.1951 0.52336 0.08522 0.0
H36 H 0.93312 0.58212 0.19305 0.0
H37 H 0.84897 0.52614 0.20094 0.0
H38 H 0.88742 0.45171 0.21859 0.0
H39 H 0.97135 0.50721 0.21034 0.0
La40 La 0.60516 0.0228 0.48235 0.0
La41 La 0.54321 0.04604 0.47461 0.0
C42 C 0.64229 0.99352 0.49784 0.0
C43 C 0.63189 0.95384 0.50029 0.0
C44 C 0.66864 0.9513 0.49614 0.0
C45 C 0.6616 0.91527 0.49967 0.0
C46 C 0.61761 0.88089 0.5076 0.0
C47 C 0.58015 0.88302 0.51111 0.0
C48 C 0.58722 0.9192 0.50749 0.0
C49 C 0.59981 0.03534 0.44136 0.0
C50 C 0.49158 0.95271 0.47367 0.0
C51 C 0.50695 0.07822 0.46255 0.0
C52 C 0.51568 0.11725 0.46789 0.0
C53 C 0.48077 0.1165 0.47932 0.0
C54 C 0.48893 0.15292 0.48547 0.0
C55 C 0.53217 0.1911 0.48023 0.0
C56 C 0.56676 0.19179 0.46838 0.0
C57 C 0.55858 0.15529 0.46224 0.0
C58 C 0.5531 0.03637 0.51583 0.0
C59 C 0.65794 0.11615 0.47982 0.0
O60 O 0.64949 0.00621 0.47801 0.0
O61 O 0.61686 1.00077 0.50926 0.0
O62 O 0.63724 0.043 0.45051 0.0
O63 O 0.56538 0.01788 0.45457 0.0
O64 O 0.53198 0.96306 0.48218 0.0
O65 O 0.4898 0.9808 0.46617 0.0
O66 O 0.48999 0.05281 0.47833 0.0
O67 O 0.54003 0.08002 0.45166 0.0
O68 O 0.5143 0.02719 0.50751 0.0
O69 O 0.58514 0.05292 0.50166 0.0
O70 O 0.61617 0.10532 0.47303 0.0
O71 O 0.66108 0.08886 0.48737 0.0
H72 H 0.70327 0.97755 0.49046 0.0
H73 H 0.69088 0.91449 0.49634 0.0
H74 H 0.54589 0.85721 0.51729 0.0
H75 H 0.55814 0.92031 0.51071 0.0
H76 H 0.44729 0.08764 0.48382 0.0
H77 H 0.46171 0.15114 0.49479 0.0
H78 H 0.60016 0.22056 0.46375 0.0
H79 H 0.586 0.15697 0.4532 0.0
La80 La 0.59579 0.56201 0.84857 0.0
La81 La 0.52765 0.47044 0.8481 0.0
C82 C 0.63863 0.63535 0.83911 0.0
C83 C 0.62683 0.66216 0.83335 0.0
C84 C 0.63931 0.69443 0.8479 0.0
C85 C 0.63209 0.72211 0.84214 0.0
C86 C 0.61255 0.71842 0.82159 0.0
C87 C 0.59922 0.68565 0.80717 0.0
C88 C 0.60624 0.65783 0.81297 0.0
C89 C 0.5784 0.52983 0.88662 0.0
C90 C 0.47994 0.51344 0.85091 0.0
C91 C 0.48668 0.39656 0.85542 0.0
C92 C 0.49715 0.36791 0.8506 0.0
C93 C 0.4668 0.33388 0.83618 0.0
C94 C 0.47652 0.30702 0.8308 0.0
C95 C 0.51671 0.31325 0.83986 0.0
C96 C 0.54681 0.34712 0.85456 0.0
C97 C 0.53717 0.37415 0.85987 0.0
C98 C 0.54611 0.50169 0.80944 0.0
C99 C 0.64425 0.51958 0.84899 0.0
O100 O 0.63018 0.62314 0.85913 0.0
O101 O 0.62727 0.60619 0.82485 0.0
O102 O 0.62001 0.5632 0.88138 0.0
O103 O 0.54847 0.51754 0.87141 0.0
O104 O 0.52363 0.54728 0.84588 0.0
O105 O 0.47397 0.47971 0.85529 0.0
O106 O 0.47668 0.40812 0.83856 0.0
O107 O 0.51474 0.42706 0.86961 0.0
O108 O 0.50516 0.46819 0.8149 0.0
O109 O 0.57582 0.51478 0.82493 0.0
O110 O 0.5994 0.48449 0.85036 0.0
O111 O 0.65183 0.55456 0.84647 0.0
H112 H 0.65573 0.69885 0.8636 0.0
H113 H 0.64338 0.74726 0.85353 0.0
H114 H 0.58363 0.68165 0.7913 0.0
H115 H 0.59628 0.6334 0.80131 0.0
H116 H 0.43569 0.32828 0.82882 0.0
H117 H 0.45292 0.28175 0.81917 0.0
H118 H 0.57771 0.35265 0.8621 0.0
H119 H 0.56123 0.39996 0.87115 0.0
P120 P 0.6197 0.03208 0.20317 0.0
H121 H 0.58663 0.98527 0.16136 0.0
H122 H 0.50873 0.92071 0.1498 0.0
H123 H 0.44392 0.92906 0.20744 0.0
H124 H 0.52128 0.99312 0.21887 0.0
H125 H 0.72103 0.08598 0.19233 0.0
H126 H 0.77683 0.15649 0.18186 0.0
H127 H 0.66106 0.1632 0.18125 0.0
H128 H 0.60427 0.09101 0.19104 0.0
H129 H 0.62856 0.99424 0.23928 0.0
H130 H 0.59782 0.07726 0.23132 0.0
O131 O 0.64793 0.01238 0.19898 0.0
H132 H 0.61781 0.99591 0.27838 0.0
H133 H 0.58483 0.07777 0.27056 0.0
C134 C 0.56029 0.99414 0.1911 0.0
C135 C 0.55533 0.97394 0.17114 0.0
C136 C 0.51073 0.93685 0.16459 0.0
C137 C 0.47027 0.91919 0.17796 0.0
C138 C 0.47459 0.9413 0.19702 0.0
C139 C 0.51903 0.97837 0.20348 0.0
C140 C 0.65811 0.08277 0.19227 0.0
C141 C 0.7071 0.1021 0.18956 0.0
C142 C 0.73938 0.14291 0.18383 0.0
C143 C 0.72387 0.16606 0.181 0.0
C144 C 0.67437 0.14637 0.18317 0.0
C145 C 0.6418 0.10508 0.18881 0.0
C146 C 0.61487 0.0362 0.23235 0.0
C147 C 0.61972 0.01306 0.24594 0.0
C148 C 0.61282 0.01359 0.26837 0.0
C149 C 0.59994 0.03667 0.27773 0.0
C150 C 0.59526 0.06002 0.26402 0.0
C151 C 0.60271 0.05979 0.24154 0.0
P152 P 0.65438 0.57355 0.57634 0.0
H153 H 0.69028 0.55515 0.53887 0.0
H154 H 0.66415 0.49102 0.52082 0.0
H155 H 0.53856 0.42393 0.56146 0.0
H156 H 0.56575 0.48844 0.57983 0.0
H157 H 0.66382 0.64284 0.59511 0.0
H158 H 0.64424 0.68471 0.58194 0.0
H159 H 0.58506 0.60868 0.52252 0.0
H160 H 0.60503 0.56665 0.53592 0.0
H161 H 0.70137 0.56616 0.6119 0.0
H162 H 0.57573 0.55754 0.60327 0.0
O163 O 0.71416 0.60468 0.57432 0.0
H164 H 0.68565 0.55655 0.65099 0.0
H165 H 0.55992 0.54813 0.64236 0.0
C166 C 0.63045 0.52651 0.56096 0.0
C167 C 0.6569 0.52668 0.54378 0.0
C168 C 0.6417 0.48989 0.53336 0.0
C169 C 0.59944 0.45213 0.53981 0.0
C170 C 0.57177 0.45234 0.55636 0.0
C171 C 0.5871 0.48924 0.5668 0.0
C172 C 0.63495 0.6011 0.56673 0.0
C173 C 0.6458 0.63464 0.57941 0.0
C174 C 0.63445 0.65853 0.57187 0.0
C175 C 0.61258 0.64981 0.55126 0.0
C176 C 0.60187 0.61617 0.53847 0.0
C177 C 0.613 0.59199 0.54616 0.0
C178 C 0.64043 0.5636 0.60481 0.0
C179 C 0.6704 0.56219 0.61842 0.0
C180 C 0.66127 0.55654 0.64073 0.0
C181 C 0.62191 0.55214 0.64979 0.0
C182 C 0.59107 0.55227 0.63593 0.0
C183 C 0.60001 0.55755 0.61359 0.0
P184 P 0.0818 0.5449 0.88097 0.0
H185 H 0.13946 0.55557 0.8419 0.0
H186 H 0.202 0.54851 0.83559 0.0
H187 H 0.16732 0.48887 0.89643 0.0
H188 H 0.10569 0.49601 0.90261 0.0
H189 H 0.97855 0.48533 0.89657 0.0
H190 H 0.90736 0.47926 0.89021 0.0
H191 H 0.97832 0.56156 0.8376 0.0
H192 H 0.05042 0.56826 0.84432 0.0
H193 H 0.13123 0.61419 0.91367 0.0
H194 H 1.03182 0.48217 0.91424 0.0
O195 O 0.11929 0.59353 0.87374 0.0
H196 H 0.12894 0.61833 0.9534 0.0
H197 H 1.02851 0.48638 0.95402 0.0
C198 C 0.11605 0.52616 0.87273 0.0
C199 C 0.144 0.53975 0.85365 0.0
C200 C 0.1806 0.53596 0.85011 0.0
C201 C 0.19147 0.5187 0.86562 0.0
C202 C 0.16182 0.50332 0.88416 0.0
C203 C 0.1252 0.50692 0.8876 0.0
C204 C 1.02185 0.5277 0.87119 0.0
C205 C 0.97955 0.50196 0.88344 0.0
C206 C 0.93805 0.49869 0.87987 0.0
C207 C 0.93621 0.52049 0.8636 0.0
C208 C 0.97733 0.54409 0.85035 0.0
C209 C 1.01911 0.54774 0.85413 0.0
C210 C 0.08108 0.54778 0.91069 0.0
C211 C 0.10874 0.58599 0.9222 0.0
C212 C 0.10758 0.58842 0.94502 0.0
C213 C 0.07829 0.5527 0.95685 0.0
C214 C 0.0509 0.51448 0.94536 0.0
C215 C 0.05265 0.51208 0.92257 0.0
P216 P 0.1106 0.51733 0.4258 0.0
H217 H 0.16963 0.55895 0.46548 0.0
H218 H 0.22568 0.63179 0.47684 0.0
H219 H 0.16912 0.65894 0.42587 0.0
H220 H 0.11247 0.5861 0.4149 0.0
H221 H 0.06958 0.43221 0.42352 0.0
H222 H 0.99349 0.36925 0.43458 0.0
H223 H 0.95108 0.43896 0.46158 0.0
H224 H 1.02857 0.50275 0.45041 0.0
H225 H 0.17971 0.57158 0.39348 0.0
H226 H 1.02815 0.46887 0.39445 0.0
O227 O 0.15143 0.51032 0.42811 0.0
H228 H 0.1741 0.57599 0.35438 0.0
H229 H 1.02268 0.47157 0.35511 0.0
C230 C 0.13729 0.56697 0.4391 0.0
C231 C 0.16802 0.58033 0.45725 0.0
C232 C 0.20028 0.62208 0.46367 0.0
C233 C 0.20261 0.65127 0.45193 0.0
C234 C 0.16885 0.6373 0.43497 0.0
C235 C 0.13615 0.59552 0.42878 0.0
C236 C 0.05525 0.47234 0.43647 0.0
C237 C 1.04433 0.43421 0.43209 0.0
C238 C 1.00043 0.39804 0.43823 0.0
C239 C 0.96587 0.39887 0.44886 0.0
C240 C 0.97703 0.43725 0.45355 0.0
C241 C 1.02126 0.47372 0.44721 0.0
C242 C 0.10448 0.51994 0.39693 0.0
C243 C 0.14522 0.54982 0.38523 0.0
C244 C 0.14199 0.55206 0.36279 0.0
C245 C 0.09799 0.5239 0.35142 0.0
C246 C 0.05705 0.49409 0.36329 0.0
C247 C 0.06023 0.49226 0.38585 0.0
P248 P 0.65312 0.06926 0.751 0.0
H249 H 0.67499 0.11363 0.79291 0.0
H250 H 0.64657 0.14855 0.80997 0.0
H251 H 0.53879 0.09756 0.75889 0.0
H252 H 0.56815 0.06346 0.74171 0.0
H253 H 0.71027 0.04215 0.75024 0.0
H254 H 0.6974 0.98209 0.76332 0.0
H255 H 0.55749 0.93609 0.78668 0.0
H256 H 0.57076 0.99685 0.77332 0.0
H257 H 0.69284 0.12594 0.71589 0.0
H258 H 0.57958 0.99678 0.7232 0.0
O259 O 0.71224 0.10736 0.75353 0.0
H260 H 0.67404 0.11742 0.67701 0.0
H261 H 0.55958 0.98803 0.68425 0.0
C262 C 0.62422 0.08643 0.76588 0.0
C263 C 0.64468 0.10938 0.7856 0.0
C264 C 0.62826 0.12929 0.79537 0.0
C265 C 0.59081 0.12645 0.78564 0.0
C266 C 0.56842 0.10121 0.76657 0.0
C267 C 0.58494 0.08137 0.7568 0.0
C268 C 0.64197 0.02444 0.76127 0.0
C269 C 0.67697 0.0194 0.75836 0.0
C270 C 0.6696 0.98501 0.7659 0.0
C271 C 0.6267 0.95451 0.77634 0.0
C272 C 0.59097 0.95907 0.77874 0.0
C273 C 0.59858 0.99384 0.77126 0.0
C274 C 0.63829 0.06188 0.72233 0.0
C275 C 0.66393 0.09567 0.70909 0.0
C276 C 0.6528 0.09079 0.68687 0.0
C277 C 0.6153 0.052 0.67744 0.0
C278 C 0.58917 0.01821 0.69089 0.0
C279 C 0.60046 0.02316 0.71317 0.0
P280 P 0.43852 0.29558 0.08249 0.0
H281 H 0.43843 0.25951 0.12163 0.0
H282 H 0.50278 0.2796 0.14687 0.0
H283 H 0.60794 0.36713 0.10125 0.0
H284 H 0.54379 0.34971 0.07736 0.0
H285 H 0.34725 0.27664 0.09551 0.0
H286 H 0.32917 0.32058 0.11035 0.0
H287 H 0.48124 0.42066 0.1191 0.0
H288 H 0.499 0.37696 0.10376 0.0
H289 H 0.49763 0.29898 0.0467 0.0
H290 H 0.41159 0.33736 0.05867 0.0
O291 O 0.391 0.24595 0.08011 0.0
H292 H 0.52727 0.3371 0.01309 0.0
H293 H 0.43961 0.37392 0.0253 0.0
C294 C 0.48614 0.3022 0.09729 0.0
C295 C 0.47545 0.2823 0.11687 0.0
C296 C 0.51235 0.29384 0.1313 0.0
C297 C 0.56067 0.3254 0.12627 0.0
C298 C 0.57115 0.34339 0.10595 0.0
C299 C 0.53428 0.33261 0.09187 0.0
C300 C 0.42438 0.32338 0.09877 0.0
C301 C 0.37658 0.30762 0.10126 0.0
C302 C 0.36634 0.3328 0.10978 0.0
C303 C 0.40386 0.37418 0.11579 0.0
C304 C 0.45163 0.38906 0.11442 0.0
C305 C 0.46178 0.36393 0.10586 0.0
C306 C 0.45461 0.31725 0.05592 0.0
C307 C 0.48509 0.31549 0.04215 0.0
C308 C 0.50171 0.33701 0.02288 0.0
C309 C 0.48705 0.35972 0.01696 0.0
C310 C 0.45315 0.35816 0.02986 0.0
C311 C 0.43699 0.33705 0.04903 0.0
C312 C 0.3285 0.51864 0.13622 0.0
C313 C 0.29328 0.50398 0.11996 0.0
C314 C 0.35312 0.50273 0.13758 0.0
C315 C 0.34216 0.47151 0.12232 0.0
C316 C 0.30817 0.45789 0.10535 0.0
C317 C 0.28408 0.47416 0.10444 0.0
C318 C 0.38949 0.51821 0.15576 0.0
C319 C 0.29565 0.42477 0.08866 0.0
C320 C 0.41967 0.4404 0.11089 0.0
C321 C 0.39327 0.40264 0.12088 0.0
C322 C 0.40553 0.46488 0.11257 0.0
C323 C 0.36392 0.45115 0.12444 0.0
C324 C 0.33913 0.41451 0.13582 0.0
C325 C 0.35407 0.39061 0.13386 0.0
C326 C 0.43298 0.5038 0.10025 0.0
C327 C 0.29483 0.39908 0.14883 0.0
H328 H 0.33611 0.54197 0.14814 0.0
H329 H 0.25631 0.46202 0.09208 0.0
H330 H 0.37561 0.49355 0.1673 0.0
H331 H 0.42359 0.52657 0.14917 0.0
H332 H 0.39734 0.54528 0.16495 0.0
H333 H 0.27038 0.41926 0.07583 0.0
H334 H 0.3287 0.4332 0.08069 0.0
H335 H 0.27884 0.39567 0.09685 0.0
H336 H 0.44975 0.44974 0.10065 0.0
H337 H 0.33406 0.36177 0.14188 0.0
H338 H 0.43861 0.52905 0.11044 0.0
H339 H 0.4118 0.49875 0.08559 0.0
H340 H 0.46853 0.51358 0.09487 0.0
H341 H 0.30144 0.424 0.15976 0.0
H342 H 0.28332 0.37299 0.15884 0.0
H343 H 0.26482 0.38879 0.13755 0.0
C344 C 0.69921 0.18906 0.47052 0.0
C345 C 0.70216 0.15972 0.47827 0.0
C346 C 0.74077 0.2294 0.46706 0.0
C347 C 0.78677 0.241 0.47144 0.0
C348 C 0.78997 0.21199 0.48002 0.0
C349 C 0.74775 0.1718 0.48332 0.0
C350 C 0.73543 0.25916 0.45795 0.0
C351 C 0.83815 0.22298 0.48502 0.0
C352 C 0.89425 0.32587 0.43929 0.0
C353 C 0.91836 0.35944 0.45444 0.0
C354 C 0.85124 0.28758 0.44454 0.0
C355 C 0.83148 0.28234 0.46552 0.0
C356 C 0.85497 0.31631 0.48077 0.0
C357 C 0.89799 0.35447 0.47503 0.0
C358 C 0.82727 0.25251 0.42764 0.0
C359 C 0.83522 0.3121 0.50331 0.0
H360 H 0.66433 0.18033 0.46666 0.0
H361 H 0.75066 0.14957 0.48935 0.0
H362 H 0.75626 0.28819 0.46806 0.0
H363 H 0.75021 0.26676 0.44126 0.0
H364 H 0.69727 0.24657 0.45717 0.0
H365 H 0.83456 0.19808 0.49313 0.0
H366 H 0.85817 0.22933 0.46967 0.0
H367 H 0.86007 0.25126 0.49571 0.0
H368 H 0.90918 0.32953 0.42322 0.0
H369 H 0.91644 0.38009 0.48688 0.0
H370 H 0.78968 0.24013 0.42463 0.0
H371 H 0.82576 0.22727 0.43374 0.0
H372 H 0.84651 0.26182 0.41189 0.0
H373 H 0.79741 0.30017 0.5022 0.0
H374 H 0.85657 0.34168 0.51299 0.0
H375 H 0.83511 0.28963 0.51219 0.0
C376 C 0.5924 0.76548 0.82962 0.0
C377 C 0.60836 0.74983 0.81489 0.0
C378 C 0.59138 0.79701 0.82394 0.0
C379 C 0.6069 0.81353 0.80305 0.0
C380 C 0.6219 0.79716 0.78793 0.0
C381 C 0.62239 0.76555 0.79401 0.0
C382 C 0.5748 0.81335 0.84049 0.0
C383 C 0.63896 0.81396 0.76554 0.0
C384 C 0.57659 0.87844 0.78073 0.0
C385 C 0.6199 0.91827 0.7845 0.0
C386 C 0.57141 0.84403 0.78703 0.0
C387 C 0.61037 0.84957 0.79743 0.0
C388 C 0.65364 0.88977 0.80183 0.0
C389 C 0.65785 0.92351 0.79532 0.0
C390 C 0.52472 0.80171 0.78203 0.0
C391 C 0.69596 0.89718 0.81302 0.0
H392 H 0.58089 0.75316 0.84568 0.0
H393 H 0.63534 0.75406 0.78261 0.0
H394 H 0.60515 0.84578 0.84514 0.0
H395 H 0.54601 0.81268 0.83332 0.0
H396 H 0.56103 0.79555 0.85548 0.0
H397 H 0.6468 0.79636 0.75525 0.0
H398 H 0.61142 0.81346 0.75706 0.0
H399 H 0.67213 0.84637 0.76708 0.0
H400 H 0.54723 0.87408 0.77224 0.0
H401 H 0.69115 0.9542 0.79863 0.0
H402 H 0.51045 0.78414 0.79707 0.0
H403 H 0.53112 0.78477 0.77026 0.0
H404 H 0.49696 0.8026 0.775 0.0
H405 H 0.68491 0.88231 0.82891 0.0
H406 H 0.72645 0.93032 0.81593 0.0
H407 H 0.70875 0.88322 0.80291 0.0
C408 C 0.77327 0.44289 0.21533 0.0
C409 C 0.81194 0.44772 0.20534 0.0
C410 C 0.72659 0.4147 0.20642 0.0
C411 C 0.71937 0.3926 0.18663 0.0
C412 C 0.75773 0.39495 0.17765 0.0
C413 C 0.80349 0.42222 0.1873 0.0
C414 C 0.68597 0.41144 0.21703 0.0
C415 C 0.75185 0.3723 0.15648 0.0
C416 C 0.59925 0.31644 0.15689 0.0
C417 C 0.59984 0.34204 0.14267 0.0
C418 C 0.63668 0.33255 0.17221 0.0
C419 C 0.67611 0.37498 0.17285 0.0
C420 C 0.67641 0.40099 0.15885 0.0
C421 C 0.63796 0.38432 0.14429 0.0
C422 C 0.6344 0.30396 0.18723 0.0
C423 C 0.71816 0.4464 0.15867 0.0
H424 H 0.78 0.46276 0.22928 0.0
H425 H 0.8337 0.42658 0.17939 0.0
H426 H 0.67944 0.43007 0.20825 0.0
H427 H 0.65224 0.37922 0.21616 0.0
H428 H 0.69448 0.42278 0.23437 0.0
H429 H 0.78564 0.37806 0.15159 0.0
H430 H 0.72329 0.3389 0.15803 0.0
H431 H 0.74066 0.38193 0.14321 0.0
H432 H 0.57001 0.28372 0.15583 0.0
H433 H 0.63803 0.40467 0.13403 0.0
H434 H 0.64958 0.3189 0.20362 0.0
H435 H 0.65584 0.29519 0.18035 0.0
H436 H 0.59687 0.27546 0.18907 0.0
H437 H 0.72292 0.46116 0.17496 0.0
H438 H 0.71309 0.46211 0.14643 0.0
H439 H 0.75193 0.45132 0.15496 0.0
C440 C 0.45255 0.87774 0.47339 0.0
C441 C 0.44836 0.90859 0.47148 0.0
C442 C 0.41221 0.83597 0.47082 0.0
C443 C 0.36618 0.8245 0.46664 0.0
C444 C 0.36158 0.85551 0.46518 0.0
C445 C 0.40267 0.89706 0.46741 0.0
C446 C 0.41907 0.8041 0.47215 0.0
C447 C 0.31319 0.84477 0.46116 0.0
C448 C 0.27012 0.72032 0.4383 0.0
C449 C 0.24293 0.69601 0.45588 0.0
C450 C 0.31022 0.76195 0.44159 0.0
C451 C 0.32321 0.78021 0.46299 0.0
C452 C 0.29536 0.756 0.4808 0.0
C453 C 0.25595 0.71413 0.47706 0.0
C454 C 0.33926 0.78622 0.42216 0.0
C455 C 0.30727 0.77434 0.50381 0.0
H456 H 0.48763 0.88622 0.47648 0.0
H457 H 0.3989 0.92057 0.4661 0.0
H458 H 0.39567 0.78229 0.48488 0.0
H459 H 0.40824 0.78614 0.4564 0.0
H460 H 0.45695 0.81792 0.47596 0.0
H461 H 0.3152 0.87229 0.46161 0.0
H462 H 0.29857 0.82849 0.445 0.0
H463 H 0.28732 0.82371 0.4736 0.0
H464 H 0.26082 0.7064 0.42193 0.0
H465 H 0.23505 0.69557 0.49071 0.0
H466 H 0.37706 0.79851 0.42429 0.0
H467 H 0.33988 0.81281 0.42091 0.0
H468 H 0.32468 0.76749 0.40661 0.0
H469 H 0.34377 0.78575 0.50857 0.0
H470 H 0.28114 0.75189 0.51577 0.0
H471 H 0.30765 0.80099 0.50478 0.0
C472 C 0.57488 0.30003 0.83024 0.0
C473 C 0.52737 0.28486 0.83365 0.0
C474 C 0.58513 0.27382 0.82341 0.0
C475 C 0.54699 0.23135 0.81973 0.0
C476 C 0.49908 0.21572 0.82351 0.0
C477 C 0.48989 0.24255 0.83049 0.0
C478 C 0.63677 0.29176 0.81968 0.0
C479 C 0.45735 0.17069 0.81978 0.0
C480 C 0.56838 0.17162 0.78033 0.0
C481 C 0.57742 0.15178 0.79453 0.0
C482 C 0.55815 0.19728 0.78832 0.0
C483 C 0.55703 0.20354 0.81111 0.0
C484 C 0.56569 0.18339 0.82557 0.0
C485 C 0.57572 0.15776 0.81712 0.0
C486 C 0.54911 0.21813 0.77232 0.0
C487 C 0.56475 0.18917 0.84997 0.0
H488 H 0.60412 0.33265 0.83235 0.0
H489 H 0.45314 0.2303 0.83347 0.0
H490 H 0.64581 0.27549 0.82916 0.0
H491 H 0.64179 0.28753 0.8022 0.0
H492 H 0.66245 0.32497 0.8244 0.0
H493 H 0.42235 0.16316 0.82409 0.0
H494 H 0.45569 0.16135 0.80238 0.0
H495 H 0.46255 0.15218 0.8296 0.0
H496 H 0.57046 0.1679 0.76287 0.0
H497 H 0.58215 0.1423 0.82824 0.0
H498 H 0.57647 0.25187 0.77476 0.0
H499 H 0.5134 0.2101 0.77522 0.0
H500 H 0.55031 0.20944 0.7551 0.0
H501 H 0.59217 0.22203 0.85499 0.0
H502 H 0.57184 0.1711 0.85902 0.0
H503 H 0.52921 0.17991 0.85484 0.0
C504 C 0.64992 0.84824 0.52327 0.0
C505 C 0.61199 0.84381 0.513 0.0
C506 C 0.64591 0.81403 0.52844 0.0
C507 C 0.60273 0.77413 0.52338 0.0
C508 C 0.56411 0.76928 0.51312 0.0
C509 C 0.56917 0.80417 0.50805 0.0
C510 C 0.68793 0.82066 0.53947 0.0
C511 C 0.5175 0.72725 0.50749 0.0
C512 C 0.61647 0.69126 0.52173 0.0
C513 C 0.60359 0.67729 0.54297 0.0
C514 C 0.61405 0.72135 0.51471 0.0
C515 C 0.5983 0.73782 0.52927 0.0
C516 C 0.5828 0.72222 0.55033 0.0
C517 C 0.58566 0.69221 0.55691 0.0
C518 C 0.63086 0.7371 0.49212 0.0
C519 C 0.56543 0.73865 0.56632 0.0
H520 H 0.68277 0.87866 0.52758 0.0
H521 H 0.53982 0.80042 0.49996 0.0
H522 H 0.67697 0.80658 0.55558 0.0
H523 H 0.69941 0.80546 0.52955 0.0
H524 H 0.71929 0.85366 0.54195 0.0
H525 H 0.49089 0.72865 0.49954 0.0
H526 H 0.52445 0.70994 0.49638 0.0
H527 H 0.50147 0.70974 0.52248 0.0
H528 H 0.63067 0.68013 0.5109 0.0
H529 H 0.57486 0.68105 0.57323 0.0
H530 H 0.66502 0.76904 0.49335 0.0
H531 H 0.60411 0.73765 0.48365 0.0
H532 H 0.63702 0.71818 0.482 0.0
H533 H 0.59583 0.77089 0.5713 0.0
H534 H 0.55026 0.72058 0.58119 0.0
H535 H 0.53756 0.73858 0.55857 0.0
C536 C 0.73496 0.55605 0.85192 0.0
C537 C 0.68698 0.51939 0.85042 0.0
C538 C 0.77489 0.55628 0.85385 0.0
C539 C 0.76795 0.51896 0.85412 0.0
C540 C 0.71961 0.48182 0.8524 0.0
C541 C 0.6803 0.48249 0.85073 0.0
C542 C 0.82489 0.59687 0.85583 0.0
C543 C 0.70919 0.441 0.85234 0.0
C544 C 0.87629 0.5204 0.8404 0.0
C545 C 0.8926 0.51952 0.86101 0.0
C546 C 0.8361 0.51973 0.83794 0.0
C547 C 0.81087 0.51883 0.85645 0.0
C548 C 0.8273 0.51818 0.87728 0.0
C549 C 0.86709 0.51824 0.87926 0.0
C550 C 0.82041 0.51978 0.8153 0.0
C551 C 0.80303 0.51788 0.89771 0.0
H552 H 0.74149 0.58497 0.85184 0.0
H553 H 0.644 0.45371 0.84959 0.0
H554 H 0.84213 0.59915 0.87132 0.0
H555 H 0.84737 0.5991 0.84233 0.0
H556 H 0.82487 0.62328 0.85544 0.0
H557 H 0.67026 0.41482 0.85007 0.0
H558 H 0.72929 0.43904 0.8391 0.0
H559 H 0.72166 0.43801 0.86797 0.0
H560 H 0.89455 0.52097 0.82598 0.0
H561 H 0.8789 0.51819 0.89538 0.0
H562 H 0.8229 0.54726 0.8137 0.0
H563 H 0.7822 0.49252 0.81242 0.0
H564 H 0.84257 0.5196 0.80246 0.0
H565 H 0.80489 0.54531 0.89871 0.0
H566 H 0.81973 0.51762 0.91272 0.0
H567 H 0.76441 0.49057 0.89716 0.0
C568 C 0.20611 0.70363 0.16185 0.0
C569 C 0.20606 0.67074 0.15639 0.0
C570 C 0.2492 0.74415 0.16379 0.0
C571 C 0.29376 0.75227 0.1605 0.0
C572 C 0.29401 0.71935 0.15455 0.0
C573 C 0.25018 0.67905 0.15242 0.0
C574 C 0.24705 0.77823 0.16988 0.0
C575 C 0.34066 0.72653 0.1511 0.0
C576 C 0.40525 0.86302 0.15198 0.0
C577 C 0.42505 0.87653 0.17316 0.0
C578 C 0.36282 0.82263 0.14753 0.0
C579 C 0.33992 0.79484 0.16459 0.0
C580 C 0.36024 0.8082 0.1859 0.0
C581 C 0.40226 0.84875 0.18992 0.0
C582 C 0.3421 0.80985 0.12463 0.0
C583 C 0.33748 0.77963 0.20456 0.0
H584 H 0.17227 0.69772 0.16474 0.0
H585 H 0.25062 0.65392 0.14824 0.0
H586 H 0.26424 0.79217 0.18614 0.0
H587 H 0.26738 0.80275 0.15801 0.0
H588 H 0.20955 0.76728 0.17042 0.0
H589 H 0.33477 0.69815 0.14545 0.0
H590 H 0.36272 0.75017 0.13894 0.0
H591 H 0.36177 0.73826 0.16661 0.0
H592 H 0.42253 0.88425 0.13894 0.0
H593 H 0.41778 0.8586 0.20625 0.0
H594 H 0.30554 0.8009 0.12458 0.0
H595 H 0.33841 0.78264 0.11866 0.0
H596 H 0.36471 0.83469 0.11308 0.0
H597 H 0.30073 0.76949 0.20731 0.0
H598 H 0.35866 0.79426 0.21999 0.0
H599 H 0.33392 0.75181 0.20046 0.0
C600 C 0.58698 0.26379 0.49563 0.0
C601 C 0.54143 0.22993 0.48756 0.0
C602 C 0.59569 0.29996 0.50342 0.0
C603 C 0.55793 0.30243 0.50325 0.0
C604 C 0.51206 0.26861 0.49486 0.0
C605 C 0.5044 0.23287 0.48709 0.0
C606 C 0.64516 0.33533 0.51219 0.0
C607 C 0.47087 0.26999 0.49435 0.0
C608 C 0.56885 0.37993 0.54336 0.0
C609 C 0.58588 0.4128 0.53009 0.0
C610 C 0.55886 0.34365 0.53476 0.0
C611 C 0.56623 0.34005 0.51233 0.0
C612 C 0.58258 0.37277 0.49875 0.0
C613 C 0.59211 0.40866 0.50776 0.0
C614 C 0.54138 0.30946 0.54981 0.0
C615 C 0.59077 0.37013 0.47475 0.0
H616 H 0.61567 0.26172 0.49636 0.0
H617 H 0.46929 0.20717 0.48058 0.0
H618 H 0.6594 0.36342 0.50349 0.0
H619 H 0.64301 0.34179 0.5297 0.0
H620 H 0.67107 0.32911 0.5105 0.0
H621 H 0.43767 0.24145 0.48689 0.0
H622 H 0.46278 0.27465 0.51118 0.0
H623 H 0.48101 0.29629 0.48499 0.0
H624 H 0.56459 0.38295 0.56067 0.0
H625 H 0.60461 0.43361 0.4973 0.0
H626 H 0.56794 0.304 0.55046 0.0
H627 H 0.50703 0.28059 0.54346 0.0
H628 H 0.53572 0.31639 0.56665 0.0
H629 H 0.61875 0.36642 0.47258 0.0
H630 H 0.60235 0.39778 0.46628 0.0
H631 H 0.55731 0.34282 0.46675 0.0
C632 C 0.44387 0.5507 0.85091 0.0
C633 C 0.43745 0.51408 0.85251 0.0
C634 C 0.40487 0.55191 0.85275 0.0
C635 C 0.357 0.51559 0.85608 0.0
C636 C 0.35024 0.47848 0.85748 0.0
C637 C 0.38997 0.47821 0.85583 0.0
C638 C 0.41516 0.5925 0.85131 0.0
C639 C 0.30064 0.43866 0.86076 0.0
C640 C 0.26092 0.5224 0.8812 0.0
C641 C 0.2339 0.5178 0.86299 0.0
C642 C 0.30046 0.52198 0.87918 0.0
C643 C 0.31448 0.51647 0.8584 0.0
C644 C 0.28745 0.51175 0.83994 0.0
C645 C 0.24829 0.5127 0.84239 0.0
C646 C 0.32764 0.52778 0.89951 0.0
C647 C 0.29972 0.50535 0.81739 0.0
H648 H 0.47981 0.57888 0.84842 0.0
H649 H 0.38361 0.44951 0.85708 0.0
H650 H 0.39388 0.59089 0.83773 0.0
H651 H 0.40398 0.59952 0.86656 0.0
H652 H 0.45386 0.61805 0.84868 0.0
H653 H 0.30054 0.41218 0.86093 0.0
H654 H 0.28603 0.44062 0.8764 0.0
H655 H 0.27596 0.43292 0.84755 0.0
H656 H 0.25178 0.52719 0.89726 0.0
H657 H 0.22832 0.50868 0.82802 0.0
H658 H 0.36612 0.55489 0.89816 0.0
H659 H 0.32606 0.50079 0.90128 0.0
H660 H 0.31308 0.53209 0.91448 0.0
H661 H 0.33739 0.53168 0.81363 0.0
H662 H 0.27559 0.50186 0.80462 0.0
H663 H 0.29712 0.47756 0.81666 0.0
C664 C 0.94088 0.39239 0.14313 0.0
C665 C 0.94648 0.42334 0.15644 0.0
C666 C 0.90251 0.35063 0.14599 0.0
C667 C 0.86858 0.33918 0.16257 0.0
C668 C 0.87312 0.3702 0.17563 0.0
C669 C 0.91182 0.4118 0.17239 0.0
C670 C 0.89933 0.31868 0.13176 0.0
C671 C 0.83749 0.35922 0.19336 0.0
C672 C 0.75 0.22909 0.16168 0.0
C673 C 0.75993 0.21074 0.17656 0.0
C674 C 0.78474 0.27079 0.157 0.0
C675 C 0.83067 0.29487 0.16738 0.0
C676 C 0.84062 0.27664 0.18261 0.0
C677 C 0.80525 0.23511 0.18707 0.0
C678 C 0.77251 0.28893 0.14073 0.0
C679 C 0.8888 0.30106 0.19425 0.0
H680 H 0.96722 0.40069 0.13073 0.0
H681 H 0.91547 0.43525 0.18272 0.0
H682 H 0.90502 0.30082 0.14191 0.0
H683 H 0.86296 0.29682 0.12417 0.0
H684 H 0.92644 0.33244 0.11864 0.0
H685 H 0.84783 0.3864 0.2033 0.0
H686 H 0.80144 0.34381 0.18594 0.0
H687 H 0.8342 0.33742 0.20439 0.0
H688 H 0.71537 0.21065 0.15334 0.0
H689 H 0.81314 0.22174 0.19898 0.0
H690 H 0.79572 0.298 0.12627 0.0
H691 H 0.77977 0.31702 0.14798 0.0
H692 H 0.73427 0.26717 0.13524 0.0
H693 H 0.91796 0.31381 0.18218 0.0
H694 H 0.89108 0.28232 0.20548 0.0
H695 H 0.89551 0.32733 0.2038 0.0
C696 C 0.06212 0.53423 0.08671 0.0
C697 C 0.06158 0.56412 0.09748 0.0
C698 C 0.06632 0.53312 0.06392 0.0
C699 C 0.06888 0.56202 0.05149 0.0
C700 C 0.06816 0.59221 0.06231 0.0
C701 C 0.06496 0.59312 0.0852 0.0
C702 C 0.06784 0.50088 0.05317 0.0
C703 C 0.07015 0.62322 0.04968 0.0
C704 C 0.11829 0.58059 0.99382 0.0
C705 C 0.07601 0.55529 0.98108 0.0
C706 C 0.11655 0.58299 0.01672 0.0
C707 C 0.07143 0.56011 0.02716 0.0
C708 C 1.02863 0.53488 0.01433 0.0
C709 C 1.03145 0.53252 0.9915 0.0
C710 C 0.16303 0.60963 0.02977 0.0
C711 C 0.97979 0.51045 0.02473 0.0
H712 H 0.05938 0.51165 0.09611 0.0
H713 H 0.06442 0.61621 0.09347 0.0
H714 H 1.03619 0.48028 0.04211 0.0
H715 H 0.10045 0.51556 0.04306 0.0
H716 H 0.06799 0.48203 0.06523 0.0
H717 H 0.06916 0.64465 0.06049 0.0
H718 H 0.10349 0.64131 0.04 0.0
H719 H 1.03932 0.60723 0.038 0.0
H720 H 0.15283 0.59797 0.98587 0.0
H721 H 0.99866 0.51327 0.98173 0.0
H722 H 0.16462 0.59072 0.04115 0.0
H723 H 0.16467 0.63315 0.0398 0.0
H724 H 0.19514 0.62534 0.01922 0.0
H725 H 0.97564 0.48834 0.03583 0.0
H726 H 0.94997 0.49323 0.01246 0.0
H727 H 0.97641 0.5312 0.03475 0.0
C728 C 0.63417 0.0486 0.40428 0.0
C729 C 0.59578 0.03746 0.41764 0.0
C730 C 0.6311 0.049 0.38159 0.0
C731 C 0.58886 0.03873 0.37195 0.0
C732 C 0.55042 0.02866 0.38541 0.0
C733 C 0.55416 0.02778 0.40815 0.0
C734 C 0.67272 0.05941 0.3679 0.0
C735 C 0.50522 0.01833 0.37576 0.0
C736 C 0.60768 0.07225 0.31364 0.0
C737 C 0.59185 0.03631 0.3017 0.0
C738 C 0.60403 0.07288 0.33648 0.0
C739 C 0.58479 0.0369 0.34772 0.0
C740 C 0.56674 1.00012 0.33571 0.0
C741 C 0.57006 1.0002 0.3129 0.0
C742 C 0.62296 0.11256 0.34866 0.0
C743 C 0.54625 0.96112 0.34702 0.0
H744 H 0.6665 0.05622 0.41154 0.0
H745 H 0.52453 0.01936 0.41847 0.0
H746 H 0.66056 0.03308 0.35655 0.0
H747 H 0.686 0.08583 0.35784 0.0
H748 H 0.70319 0.0671 0.37797 0.0
H749 H 0.48031 0.01435 0.38852 0.0
H750 H 0.51442 0.04285 0.36505 0.0
H751 H 0.48615 0.98957 0.36549 0.0
H752 H 0.62472 0.1004 0.30525 0.0
H753 H 0.55641 0.97196 0.30384 0.0
H754 H 0.65691 0.12497 0.35737 0.0
H755 H 0.59692 0.10729 0.3611 0.0
H756 H 0.63028 0.136 0.33756 0.0
H757 H 0.57518 0.96511 0.35653 0.0
H758 H 0.53029 0.93442 0.33532 0.0
H759 H 0.51823 0.95421 0.35869 0.0
C760 C 0.52297 0.49254 0.7703 0.0
C761 C 0.55884 0.51376 0.7866 0.0
C762 C 0.53432 0.5008 0.74825 0.0
C763 C 0.58274 0.53133 0.74233 0.0
C764 C 0.61898 0.55382 0.75879 0.0
C765 C 0.60661 0.54461 0.78078 0.0
C766 C 0.49463 0.47601 0.73122 0.0
C767 C 0.67091 0.5869 0.75315 0.0
C768 C 0.6158 0.5207 0.68477 0.0
C769 C 0.61321 0.54768 0.67363 0.0
C770 C 0.6068 0.51565 0.70721 0.0
C771 C 0.59536 0.53841 0.71884 0.0
C772 C 0.59364 0.5663 0.70776 0.0
C773 C 0.60233 0.57044 0.68526 0.0
C774 C 0.60848 0.48526 0.71838 0.0
C775 C 0.58207 0.59142 0.71963 0.0
H776 H 0.48595 0.46872 0.77476 0.0
H777 H 0.63446 0.56096 0.79333 0.0
H778 H 0.49394 0.49664 0.72092 0.0
H779 H 0.50149 0.45839 0.72032 0.0
H780 H 0.45865 0.45419 0.73857 0.0
H781 H 0.69417 0.6034 0.7679 0.0
H782 H 0.68463 0.57317 0.74359 0.0
H783 H 0.67406 0.60942 0.74279 0.0
H784 H 0.62381 0.50281 0.67582 0.0
H785 H 0.60098 0.59177 0.67677 0.0
H786 H 0.57251 0.46066 0.72489 0.0
H787 H 0.63407 0.50058 0.73242 0.0
H788 H 0.61944 0.47096 0.70718 0.0
H789 H 0.5451 0.57085 0.72613 0.0
H790 H 0.58461 0.61328 0.7089 0.0
H791 H 0.607 0.60889 0.73376 0.0
C792 C 0.60732 0.05386 0.54737 0.0
C793 C 0.56104 0.03526 0.53923 0.0
C794 C 0.61559 0.05475 0.56976 0.0
C795 C 0.5766 0.03653 0.58434 0.0
C796 C 0.52961 0.01685 0.57609 0.0
C797 C 0.52242 0.01653 0.55363 0.0
C798 C 0.66624 0.07609 0.57789 0.0
C799 C 0.48705 0.99685 0.59105 0.0
C800 C 0.59299 0.01342 0.64109 0.0
C801 C 0.60378 0.04712 0.65369 0.0
C802 C 0.5837 0.00935 0.61854 0.0
C803 C 0.58534 0.03975 0.60831 0.0
C804 C 0.5957 0.07357 0.62096 0.0
C805 C 0.60461 0.07676 0.64345 0.0
C806 C 0.57264 0.97278 0.60561 0.0
C807 C 0.59767 0.10659 0.6107 0.0
H808 H 0.63727 0.06842 0.53626 0.0
H809 H 0.48655 1.00197 0.54735 0.0
H810 H 0.67806 0.10274 0.58888 0.0
H811 H 0.66745 0.05504 0.58753 0.0
H812 H 0.69218 0.08707 0.56436 0.0
H813 H 0.45255 0.98106 0.58195 0.0
H814 H 0.48473 0.97422 0.60093 0.0
H815 H 0.49178 0.02032 0.60258 0.0
H816 H 0.59278 0.99059 0.64878 0.0
H817 H 0.61205 0.10252 0.65309 0.0
H818 H 0.60029 0.98317 0.59299 0.0
H819 H 0.53745 0.95588 0.597 0.0
H820 H 0.57155 0.95133 0.61608 0.0
H821 H 0.6254 0.12099 0.59788 0.0
H822 H 0.60615 0.1309 0.62281 0.0
H823 H 0.56266 0.09298 0.60268 0.0
C824 C 0.52144 0.4751 0.91177 0.0
C825 C 0.56895 0.50603 0.90576 0.0
C826 C 0.51125 0.4512 0.92956 0.0
C827 C 0.54959 0.45826 0.9415 0.0
C828 C 0.59772 0.48919 0.9353 0.0
C829 C 0.60687 0.513 0.91754 0.0
C830 C 0.45947 0.41883 0.93578 0.0
C831 C 0.63944 0.49723 0.94748 0.0
C832 C 0.52008 0.42524 0.99973 0.0
C833 C 0.50762 0.38617 0.99791 0.0
C834 C 0.53542 0.44958 0.98164 0.0
C835 C 0.53897 0.43473 0.96121 0.0
C836 C 0.52879 0.3962 0.95942 0.0
C837 C 0.51312 0.37226 0.97784 0.0
C838 C 0.5459 0.49047 0.98424 0.0
C839 C 0.53269 0.37963 0.93789 0.0
H840 H 0.49213 0.46973 0.9026 0.0
H841 H 0.64363 0.53669 0.91269 0.0
H842 H 0.45098 0.38849 0.93585 0.0
H843 H 0.45365 0.42593 0.95253 0.0
H844 H 0.43388 0.41658 0.92447 0.0
H845 H 0.6745 0.5208 0.93984 0.0
H846 H 0.64058 0.50773 0.96456 0.0
H847 H 0.63468 0.46852 0.94812 0.0
H848 H 0.51707 0.4366 0.01534 0.0
H849 H 0.50356 0.34212 0.97633 0.0
H850 H 0.51954 0.48973 0.97442 0.0
H851 H 0.58219 0.51509 0.97804 0.0
H852 H 0.544 0.49855 0.00149 0.0
H853 H 0.50475 0.37291 0.92634 0.0
H854 H 0.52806 0.35113 0.93966 0.0
H855 H 0.56816 0.40283 0.93051 0.0
C856 C 0.10562 0.5632 0.2238 0.0
C857 C 0.09018 0.5281 0.21121 0.0
C858 C 0.105 0.56311 0.2467 0.0
C859 C 0.08792 0.52688 0.25716 0.0
C860 C 0.07075 0.49098 0.24441 0.0
C861 C 0.07249 0.49215 0.22158 0.0
C862 C 0.1241 0.60212 0.2597 0.0
C863 C 0.05146 0.45155 0.25488 0.0
C864 C 0.13348 0.53468 0.31417 0.0
C865 C 0.09531 0.52517 0.32725 0.0
C866 C 0.13183 0.53608 0.29144 0.0
C867 C 0.09062 0.52706 0.28137 0.0
C868 C 0.05181 0.51726 0.29437 0.0
C869 C 0.05474 0.51669 0.31715 0.0
C870 C 0.1741 0.54688 0.27818 0.0
C871 C 1.00705 0.50703 0.28418 0.0
H872 H 0.1195 0.59107 0.21576 0.0
H873 H 0.0601 0.46487 0.21181 0.0
H874 H 0.097 0.59648 0.27159 0.0
H875 H 0.15656 0.61272 0.26917 0.0
H876 H 0.13377 0.62703 0.24914 0.0
H877 H 1.03632 0.42566 0.24268 0.0
H878 H 0.08069 0.45566 0.26417 0.0
H879 H 1.02299 0.44328 0.26664 0.0
H880 H 0.16459 0.54046 0.32166 0.0
H881 H 1.0253 0.50985 0.32706 0.0
H882 H 0.18739 0.57321 0.26802 0.0
H883 H 0.16268 0.52065 0.26693 0.0
H884 H 0.20432 0.55488 0.28857 0.0
H885 H 1.01651 0.53296 0.27467 0.0
H886 H 0.98009 0.50018 0.29655 0.0
H887 H 0.99026 0.48008 0.27262 0.0
loop_
_geom_bond_atom_site_label_1
_geom_bond_atom_site_label_2
_geom_bond_distance
_geom_bond_site_symmetry_2
_ccdc_geom_bond_type
La0 C2 2.928 . S
La0 O20 2.521 . S
La0 O21 2.628 . S
La0 O22 2.554 . S
La0 O23 2.757 . S
La0 O24 2.470 . S
La0 O29 2.482 . S
La0 O31 2.503 1_455 S
La1 C11 2.928 . S
La1 O23 2.482 1_655 S
La1 O25 2.503 1_655 S
La1 O26 2.521 . S
La1 O27 2.628 . S
La1 O28 2.554 . S
La1 O29 2.757 1_655 S
La1 O30 2.470 . S
C2 La0 2.928 . S
C2 C3 1.503 . S
C2 O20 1.261 . S
C2 O21 1.243 . S
C3 C2 1.503 . S
C3 C4 1.394 . S
C3 C8 1.373 . S
C4 C3 1.394 . S
C4 C5 1.380 . S
C4 H32 0.930 . S
C5 C4 1.380 . S
C5 C6 1.376 . S
C5 H33 0.930 . S
C6 C5 1.376 . S
C6 C7 1.370 . S
C7 C6 1.370 . S
C7 C8 1.396 . S
C7 H34 0.929 . S
C8 C3 1.373 . S
C8 C7 1.396 . S
C8 H35 0.929 . S
C9 O22 1.240 . S
C9 O23 1.289 . S
C10 O24 1.258 . S
C10 O25 1.256 . S
C11 La1 2.928 . S
C11 C12 1.503 . S
C11 O26 1.261 . S
C11 O27 1.243 . S
C12 C11 1.503 . S
C12 C13 1.394 . S
C12 C17 1.373 . S
C13 C12 1.394 . S
C13 C14 1.380 . S
C13 H36 0.930 . S
C14 C13 1.380 . S
C14 C15 1.376 . S
C14 H37 0.930 . S
C15 C14 1.376 . S
C15 C16 1.370 . S
C16 C15 1.370 . S
C16 C17 1.396 . S
C16 H38 0.929 . S
C17 C12 1.373 . S
C17 C16 1.396 . S
C17 H39 0.929 . S
C18 O28 1.240 1_455 S
C18 O29 1.289 . S
C19 O30 1.258 . S
C19 O31 1.256 . S
O20 La0 2.521 . S
O20 C2 1.261 . S
O21 La0 2.628 . S
O21 C2 1.243 . S
O22 La0 2.554 . S
O22 C9 1.240 . S
O23 La0 2.757 . S
O23 La1 2.482 1_455 S
O23 C9 1.289 . S
O24 La0 2.470 . S
O24 C10 1.258 . S
O25 La1 2.503 1_455 S
O25 C10 1.256 . S
O26 La1 2.521 . S
O26 C11 1.261 . S
O27 La1 2.628 . S
O27 C11 1.243 . S
O28 La1 2.554 . S
O28 C18 1.240 1_655 S
O29 La0 2.482 . S
O29 La1 2.757 1_455 S
O29 C18 1.289 . S
O30 La1 2.470 . S
O30 C19 1.258 . S
O31 La0 2.503 1_655 S
O31 C19 1.256 . S
H32 C4 0.930 . S
H33 C5 0.930 . S
H34 C7 0.929 . S
H35 C8 0.929 . S
H36 C13 0.930 . S
H37 C14 0.930 . S
H38 C16 0.929 . S
H39 C17 0.929 . S
La40 C42 2.928 . S
La40 O60 2.521 . S
La40 O61 2.628 . S
La40 O62 2.554 . S
La40 O63 2.757 1_565 S
La40 O64 2.470 . S
La40 O69 2.482 . S
La40 O71 2.503 1_565 S
La41 C51 2.928 . S
La41 O63 2.482 . S
La41 O65 2.503 1_545 S
La41 O66 2.521 . S
La41 O67 2.628 . S
La41 O68 2.554 . S
La41 O69 2.757 1_545 S
La41 O70 2.470 . S
C42 La40 2.928 . S
C42 C43 1.503 . S
C42 O60 1.261 . S
C42 O61 1.243 . S
C43 C42 1.503 . S
C43 C44 1.394 . S
C43 C48 1.373 . S
C44 C43 1.394 . S
C44 C45 1.380 . S
C44 H72 0.930 . S
C45 C44 1.380 . S
C45 C46 1.376 . S
C45 H73 0.930 . S
C46 C45 1.376 . S
C46 C47 1.370 . S
C47 C46 1.370 . S
C47 C48 1.396 . S
C47 H74 0.929 . S
C48 C43 1.373 . S
C48 C47 1.396 . S
C48 H75 0.929 . S
C49 O62 1.240 1_545 S
C49 O63 1.289 . S
C50 O64 1.258 . S
C50 O65 1.256 . S
C51 La41 2.928 . S
C51 C52 1.503 . S
C51 O66 1.261 . S
C51 O67 1.243 . S
C52 C51 1.503 . S
C52 C53 1.394 . S
C52 C57 1.373 . S
C53 C52 1.394 . S
C53 C54 1.380 . S
C53 H76 0.930 . S
C54 C53 1.380 . S
C54 C55 1.376 . S
C54 H77 0.930 . S
C55 C54 1.376 . S
C55 C56 1.370 . S
C56 C55 1.370 . S
C56 C57 1.396 . S
C56 H78 0.929 . S
C57 C52 1.373 . S
C57 C56 1.396 . S
C57 H79 0.929 . S
C58 O68 1.240 . S
C58 O69 1.289 1_545 S
C59 O70 1.258 . S
C59 O71 1.256 . S
O60 La40 2.521 . S
O60 C42 1.261 . S
O61 La40 2.628 . S
O61 C42 1.243 . S
O62 La40 2.554 . S
O62 C49 1.240 1_565 S
O63 La40 2.757 1_545 S
O63 La41 2.482 . S
O63 C49 1.289 . S
O64 La40 2.470 . S
O64 C50 1.258 . S
O65 La41 2.503 1_565 S
O65 C50 1.256 . S
O66 La41 2.521 . S
O66 C51 1.261 . S
O67 La41 2.628 . S
O67 C51 1.243 . S
O68 La41 2.554 . S
O68 C58 1.240 . S
O69 La40 2.482 . S
O69 La41 2.757 1_565 S
O69 C58 1.289 1_565 S
O70 La41 2.470 . S
O70 C59 1.258 . S
O71 La40 2.503 1_545 S
O71 C59 1.256 . S
H72 C44 0.930 . S
H73 C45 0.930 . S
H74 C47 0.929 . S
H75 C48 0.929 . S
H76 C53 0.930 . S
H77 C54 0.930 . S
H78 C56 0.929 . S
H79 C57 0.929 . S
La80 C82 2.928 . S
La80 O100 2.521 . S
La80 O101 2.628 . S
La80 O102 2.554 . S
La80 O103 2.757 . S
La80 O104 2.470 . S
La80 O109 2.482 . S
La80 O111 2.503 . S
La81 C91 2.928 . S
La81 O103 2.482 . S
La81 O105 2.503 . S
La81 O106 2.521 . S
La81 O107 2.628 . S
La81 O108 2.554 . S
La81 O109 2.757 . S
La81 O110 2.470 . S
C82 La80 2.928 . S
C82 C83 1.503 . S
C82 O100 1.261 . S
C82 O101 1.243 . S
C83 C82 1.503 . S
C83 C84 1.394 . S
C83 C88 1.373 . S
C84 C83 1.394 . S
C84 C85 1.380 . S
C84 H112 0.930 . S
C85 C84 1.380 . S
C85 C86 1.376 . S
C85 H113 0.930 . S
C86 C85 1.376 . S
C86 C87 1.370 . S
C87 C86 1.370 . S
C87 C88 1.396 . S
C87 H114 0.929 . S
C88 C83 1.373 . S
C88 C87 1.396 . S
C88 H115 0.929 . S
C89 O102 1.240 . S
C89 O103 1.289 . S
C90 O104 1.258 . S
C90 O105 1.256 . S
C91 La81 2.928 . S
C91 C92 1.503 . S
C91 O106 1.261 . S
C91 O107 1.243 . S
C92 C91 1.503 . S
C92 C93 1.394 . S
C92 C97 1.373 . S
C93 C92 1.394 . S
C93 C94 1.380 . S
C93 H116 0.930 . S
C94 C93 1.380 . S
C94 C95 1.376 . S
C94 H117 0.930 . S
C95 C94 1.376 . S
C95 C96 1.370 . S
C96 C95 1.370 . S
C96 C97 1.396 . S
C96 H118 0.929 . S
C97 C92 1.373 . S
C97 C96 1.396 . S
C97 H119 0.929 . S
C98 O108 1.240 . S
C98 O109 1.289 . S
C99 O110 1.258 . S
C99 O111 1.256 . S
O100 La80 2.521 . S
O100 C82 1.261 . S
O101 La80 2.628 . S
O101 C82 1.243 . S
O102 La80 2.554 . S
O102 C89 1.240 . S
O103 La80 2.757 . S
O103 La81 2.482 . S
O103 C89 1.289 . S
O104 La80 2.470 . S
O104 C90 1.258 . S
O105 La81 2.503 . S
O105 C90 1.256 . S
O106 La81 2.521 . S
O106 C91 1.261 . S
O107 La81 2.628 . S
O107 C91 1.243 . S
O108 La81 2.554 . S
O108 C98 1.240 . S
O109 La80 2.482 . S
O109 La81 2.757 . S
O109 C98 1.289 . S
O110 La81 2.470 . S
O110 C99 1.258 . S
O111 La80 2.503 . S
O111 C99 1.256 . S
H112 C84 0.930 . S
H113 C85 0.930 . S
H114 C87 0.929 . S
H115 C88 0.929 . S
H116 C93 0.930 . S
H117 C94 0.930 . S
H118 C96 0.929 . S
H119 C97 0.929 . S
P120 O131 1.479 1_545 S
P120 C134 1.811 1_545 S
P120 C140 1.812 . S
P120 C146 1.823 . S
H121 C135 0.941 . S
H122 C136 0.939 . S
H123 C138 0.940 . S
H124 C139 0.940 . S
H125 C141 0.939 . S
H126 C142 0.942 . S
H127 C144 0.940 . S
H128 C145 0.939 . S
H129 C147 0.941 . S
H130 C151 0.939 . S
O131 P120 1.479 1_565 S
H132 C148 0.939 . S
H133 C150 0.940 . S
C134 P120 1.811 1_565 S
C134 C135 1.389 . S
C134 C139 1.391 . S
C135 H121 0.941 . S
C135 C134 1.389 . S
C135 C136 1.397 . S
C136 H122 0.939 . S
C136 C135 1.397 . S
C136 C137 1.378 . S
C137 C136 1.378 . S
C137 C138 1.378 . S
C138 H123 0.940 . S
C138 C137 1.378 . S
C138 C139 1.396 . S
C139 H124 0.940 . S
C139 C134 1.391 . S
C139 C138 1.396 . S
C140 P120 1.812 . S
C140 C141 1.378 . S
C140 C145 1.400 . S
C141 H125 0.939 . S
C141 C140 1.378 . S
C141 C142 1.361 . S
C142 H126 0.942 . S
C142 C141 1.361 . S
C142 C143 1.369 . S
C143 C142 1.369 . S
C143 C144 1.404 . S
C144 H127 0.940 . S
C144 C143 1.404 . S
C144 C145 1.389 . S
C145 H128 0.939 . S
C145 C140 1.400 . S
C145 C144 1.389 . S
C146 P120 1.823 . S
C146 C147 1.391 1_545 S
C146 C151 1.391 . S
C147 H129 0.941 . S
C147 C146 1.391 1_565 S
C147 C148 1.396 . S
C148 H132 0.939 . S
C148 C147 1.396 . S
C148 C149 1.397 1_565 S
C149 C148 1.397 1_545 S
C149 C150 1.385 . S
C150 H133 0.940 . S
C150 C149 1.385 . S
C150 C151 1.388 . S
C151 H130 0.939 . S
C151 C146 1.391 . S
C151 C150 1.388 . S
P152 O163 1.490 . S
P152 C166 1.812 . S
P152 C172 1.803 . S
P152 C178 1.819 . S
H153 C167 0.941 . S
H154 C168 0.939 . S
H155 C170 0.940 . S
H156 C171 0.940 . S
H157 C173 0.939 . S
H158 C174 0.942 . S
H159 C176 0.940 . S
H160 C177 0.939 . S
H161 C179 0.941 . S
H162 C183 0.939 . S
O163 P152 1.490 . S
H164 C180 0.939 . S
H165 C182 0.940 . S
C166 P152 1.812 . S
C166 C167 1.389 . S
C166 C171 1.391 . S
C167 H153 0.941 . S
C167 C166 1.389 . S
C167 C168 1.397 . S
C168 H154 0.939 . S
C168 C167 1.397 . S
C168 C169 1.378 . S
C169 C168 1.378 . S
C169 C170 1.378 . S
C170 H155 0.940 . S
C170 C169 1.378 . S
C170 C171 1.396 . S
C171 H156 0.940 . S
C171 C166 1.391 . S
C171 C170 1.396 . S
C172 P152 1.803 . S
C172 C173 1.378 . S
C172 C177 1.400 . S
C173 H157 0.939 . S
C173 C172 1.378 . S
C173 C174 1.361 . S
C174 H158 0.942 . S
C174 C173 1.361 . S
C174 C175 1.369 . S
C175 C174 1.369 . S
C175 C176 1.404 . S
C176 H159 0.940 . S
C176 C175 1.404 . S
C176 C177 1.389 . S
C177 H160 0.939 . S
C177 C172 1.400 . S
C177 C176 1.389 . S
C178 P152 1.819 . S
C178 C179 1.391 . S
C178 C183 1.391 . S
C179 H161 0.941 . S
C179 C178 1.391 . S
C179 C180 1.396 . S
C180 H164 0.939 . S
C180 C179 1.396 . S
C180 C181 1.397 . S
C181 C180 1.397 . S
C181 C182 1.385 . S
C182 H165 0.940 . S
C182 C181 1.385 . S
C182 C183 1.388 . S
C183 H162 0.939 . S
C183 C178 1.391 . S
C183 C182 1.388 . S
P184 O195 1.490 . S
P184 C198 1.812 . S
P184 C204 1.803 . S
P184 C210 1.819 . S
H185 C199 0.941 . S
H186 C200 0.939 . S
H187 C202 0.940 . S
H188 C203 0.940 . S
H189 C205 0.939 . S
H190 C206 0.942 . S
H191 C208 0.940 . S
H192 C209 0.939 . S
H193 C211 0.941 . S
H194 C215 0.954 . S
O195 P184 1.490 . S
H196 C212 0.939 . S
H197 C214 0.940 1_655 S
C198 P184 1.812 . S
C198 C199 1.389 . S
C198 C203 1.391 . S
C199 H185 0.941 . S
C199 C198 1.389 . S
C199 C200 1.397 . S
C200 H186 0.939 . S
C200 C199 1.397 . S
C200 C201 1.378 . S
C201 C200 1.378 . S
C201 C202 1.378 . S
C202 H187 0.940 . S
C202 C201 1.378 . S
C202 C203 1.396 . S
C203 H188 0.940 . S
C203 C198 1.391 . S
C203 C202 1.396 . S
C204 P184 1.803 . S
C204 C205 1.378 . S
C204 C209 1.400 . S
C205 H189 0.939 . S
C205 C204 1.378 . S
C205 C206 1.361 1_455 S
C206 H190 0.942 . S
C206 C205 1.361 1_655 S
C206 C207 1.369 . S
C207 C206 1.369 . S
C207 C208 1.404 . S
C208 H191 0.940 . S
C208 C207 1.404 . S
C208 C209 1.389 1_655 S
C209 H192 0.939 . S
C209 C204 1.400 . S
C209 C208 1.389 1_455 S
C210 P184 1.819 . S
C210 C211 1.391 . S
C210 C215 1.391 . S
C211 H193 0.941 . S
C211 C210 1.391 . S
C211 C212 1.396 . S
C212 H196 0.939 . S
C212 C211 1.396 . S
C212 C213 1.397 . S
C213 C212 1.397 . S
C213 C214 1.385 . S
C214 H197 0.940 1_455 S
C214 C213 1.385 . S
C214 C215 1.388 . S
C215 H194 0.954 . S
C215 C210 1.391 . S
C215 C214 1.388 . S
P216 O227 1.490 . S
P216 C230 1.812 . S
P216 C236 1.803 1_455 S
P216 C242 1.819 . S
H217 C231 0.941 . S
H218 C232 0.939 . S
H219 C234 0.940 . S
H220 C235 0.940 . S
H221 C237 0.939 . S
H222 C238 0.942 . S
H223 C240 0.940 . S
H224 C241 0.939 . S
H225 C243 0.941 . S
H226 C247 0.939 . S
O227 P216 1.490 . S
H228 C244 0.939 . S
H229 C246 0.940 . S
C230 P216 1.812 . S
C230 C231 1.389 . S
C230 C235 1.391 . S
C231 H217 0.941 . S
C231 C230 1.389 . S
C231 C232 1.397 . S
C232 H218 0.939 . S
C232 C231 1.397 . S
C232 C233 1.378 . S
C233 C232 1.378 . S
C233 C234 1.378 . S
C234 H219 0.940 . S
C234 C233 1.378 . S
C234 C235 1.396 . S
C235 H220 0.940 . S
C235 C230 1.391 . S
C235 C234 1.396 . S
C236 P216 1.803 1_655 S
C236 C237 1.378 . S
C236 C241 1.400 . S
C237 H221 0.939 . S
C237 C236 1.378 . S
C237 C238 1.361 . S
C238 H222 0.942 . S
C238 C237 1.361 . S
C238 C239 1.369 . S
C239 C238 1.369 . S
C239 C240 1.404 . S
C240 H223 0.940 . S
C240 C239 1.404 . S
C240 C241 1.389 . S
C241 H224 0.939 . S
C241 C236 1.400 . S
C241 C240 1.389 . S
C242 P216 1.819 . S
C242 C243 1.391 . S
C242 C247 1.391 1_455 S
C243 H225 0.941 . S
C243 C242 1.391 . S
C243 C244 1.396 . S
C244 H228 0.939 . S
C244 C243 1.396 . S
C244 C245 1.397 . S
C245 C244 1.397 . S
C245 C246 1.385 1_455 S
C246 H229 0.940 . S
C246 C245 1.385 1_655 S
C246 C247 1.388 . S
C247 H226 0.939 . S
C247 C242 1.391 1_655 S
C247 C246 1.388 . S
P248 O259 1.490 . S
P248 C262 1.812 . S
P248 C268 1.803 1_545 S
P248 C274 1.819 . S
H249 C263 0.941 . S
H250 C264 0.939 . S
H251 C266 0.940 . S
H252 C267 0.940 . S
H253 C269 0.939 . S
H254 C270 0.942 . S
H255 C272 0.940 . S
H256 C273 0.939 . S
H257 C275 0.941 . S
H258 C279 0.939 . S
O259 P248 1.490 . S
H260 C276 0.939 . S
H261 C278 0.940 . S
C262 P248 1.812 . S
C262 C263 1.389 . S
C262 C267 1.391 . S
C263 H249 0.941 . S
C263 C262 1.389 . S
C263 C264 1.397 . S
C264 H250 0.939 . S
C264 C263 1.397 . S
C264 C265 1.378 . S
C265 C264 1.378 . S
C265 C266 1.378 . S
C266 H251 0.940 . S
C266 C265 1.378 . S
C266 C267 1.396 . S
C267 H252 0.940 . S
C267 C262 1.391 . S
C267 C266 1.396 . S
C268 P248 1.803 1_565 S
C268 C269 1.378 . S
C268 C273 1.400 . S
C269 H253 0.939 . S
C269 C268 1.378 . S
C269 C270 1.361 . S
C270 H254 0.942 . S
C270 C269 1.361 . S
C270 C271 1.369 . S
C271 C270 1.369 . S
C271 C272 1.404 . S
C272 H255 0.940 . S
C272 C271 1.404 . S
C272 C273 1.389 . S
C273 H256 0.939 . S
C273 C268 1.400 . S
C273 C272 1.389 . S
C274 P248 1.819 . S
C274 C275 1.391 . S
C274 C279 1.391 1_545 S
C275 H257 0.941 . S
C275 C274 1.391 . S
C275 C276 1.396 . S
C276 H260 0.939 . S
C276 C275 1.396 . S
C276 C277 1.397 . S
C277 C276 1.397 . S
C277 C278 1.385 1_545 S
C278 H261 0.940 . S
C278 C277 1.385 1_565 S
C278 C279 1.388 . S
C279 H258 0.939 . S
C279 C274 1.391 1_565 S
C279 C278 1.388 . S
P280 O291 1.490 . S
P280 C294 1.812 . S
P280 C300 1.803 . S
P280 C306 1.819 . S
H281 C295 0.941 . S
H282 C296 0.939 . S
H283 C298 0.940 . S
H284 C299 0.940 . S
H285 C301 0.939 . S
H286 C302 0.942 . S
H287 C304 0.940 . S
H288 C305 0.939 . S
H289 C307 0.941 . S
H290 C311 0.939 . S
O291 P280 1.490 . S
H292 C308 0.939 . S
H293 C310 0.940 . S
C294 P280 1.812 . S
C294 C295 1.389 . S
C294 C299 1.391 . S
C295 H281 0.941 . S
C295 C294 1.389 . S
C295 C296 1.397 . S
C296 H282 0.939 . S
C296 C295 1.397 . S
C296 C297 1.378 . S
C297 C296 1.378 . S
C297 C298 1.378 . S
C298 H283 0.940 . S
C298 C297 1.378 . S
C298 C299 1.396 . S
C299 H284 0.940 . S
C299 C294 1.391 . S
C299 C298 1.396 . S
C300 P280 1.803 . S
C300 C301 1.378 . S
C300 C305 1.400 . S
C301 H285 0.939 . S
C301 C300 1.378 . S
C301 C302 1.361 . S
C302 H286 0.942 . S
C302 C301 1.361 . S
C302 C303 1.369 . S
C303 C302 1.369 . S
C303 C304 1.404 . S
C304 H287 0.940 . S
C304 C303 1.404 . S
C304 C305 1.389 . S
C305 H288 0.939 . S
C305 C300 1.400 . S
C305 C304 1.389 . S
C306 P280 1.819 . S
C306 C307 1.391 . S
C306 C311 1.391 . S
C307 H289 0.941 . S
C307 C306 1.391 . S
C307 C308 1.396 . S
C308 H292 0.939 . S
C308 C307 1.396 . S
C308 C309 1.397 . S
C309 C308 1.397 . S
C309 C310 1.385 . S
C310 H293 0.940 . S
C310 C309 1.385 . S
C310 C311 1.388 . S
C311 H290 0.939 . S
C311 C306 1.391 . S
C311 C310 1.388 . S
C312 C313 1.391 . S
C312 C314 1.394 . S
C312 H328 0.931 . S
C313 C312 1.391 . S
C313 C317 1.376 . S
C314 C312 1.394 . S
C314 C315 1.369 . S
C314 C318 1.531 . S
C315 C314 1.369 . S
C315 C316 1.410 . S
C315 C323 1.503 . S
C316 C315 1.410 . S
C316 C317 1.392 . S
C316 C319 1.511 . S
C317 C313 1.376 . S
C317 C316 1.392 . S
C317 H329 0.929 . S
C318 C314 1.531 . S
C318 H330 0.960 . S
C318 H331 0.962 . S
C318 H332 0.960 . S
C319 C316 1.511 . S
C319 H333 0.961 . S
C319 H334 0.961 . S
C319 H335 0.961 . S
C320 C321 1.370 . S
C320 C322 1.363 . S
C320 H336 0.931 . S
C321 C320 1.370 . S
C321 C325 1.408 . S
C322 C320 1.363 . S
C322 C323 1.370 . S
C322 C326 1.524 . S
C323 C315 1.503 . S
C323 C322 1.370 . S
C323 C324 1.403 . S
C324 C323 1.403 . S
C324 C325 1.404 . S
C324 C327 1.539 . S
C325 C321 1.408 . S
C325 C324 1.404 . S
C325 H337 0.930 . S
C326 C322 1.524 . S
C326 H338 0.956 . S
C326 H339 0.961 . S
C326 H340 0.961 . S
C327 C324 1.539 . S
C327 H341 0.958 . S
C327 H342 0.961 . S
C327 H343 0.960 . S
H328 C312 0.931 . S
H329 C317 0.929 . S
H330 C318 0.960 . S
H331 C318 0.962 . S
H332 C318 0.960 . S
H333 C319 0.961 . S
H334 C319 0.961 . S
H335 C319 0.961 . S
H336 C320 0.931 . S
H337 C325 0.930 . S
H338 C326 0.956 . S
H339 C326 0.961 . S
H340 C326 0.961 . S
H341 C327 0.958 . S
H342 C327 0.961 . S
H343 C327 0.960 . S
C344 C345 1.391 . S
C344 C346 1.394 . S
C344 H360 0.931 . S
C345 C344 1.391 . S
C345 C349 1.376 . S
C346 C344 1.394 . S
C346 C347 1.369 . S
C346 C350 1.531 . S
C347 C346 1.369 . S
C347 C348 1.410 . S
C347 C355 1.503 . S
C348 C347 1.410 . S
C348 C349 1.392 . S
C348 C351 1.511 . S
C349 C345 1.376 . S
C349 C348 1.392 . S
C349 H361 0.929 . S
C350 C346 1.531 . S
C350 H362 0.960 . S
C350 H363 0.962 . S
C350 H364 0.960 . S
C351 C348 1.511 . S
C351 H365 0.961 . S
C351 H366 0.961 . S
C351 H367 0.961 . S
C352 C353 1.370 . S
C352 C354 1.363 . S
C352 H368 0.931 . S
C353 C352 1.370 . S
C353 C357 1.408 . S
C354 C352 1.363 . S
C354 C355 1.370 . S
C354 C358 1.524 . S
C355 C347 1.503 . S
C355 C354 1.370 . S
C355 C356 1.403 . S
C356 C355 1.403 . S
C356 C357 1.404 . S
C356 C359 1.539 . S
C357 C353 1.408 . S
C357 C356 1.404 . S
C357 H369 0.930 . S
C358 C354 1.524 . S
C358 H370 0.956 . S
C358 H371 0.961 . S
C358 H372 0.961 . S
C359 C356 1.539 . S
C359 H373 0.958 . S
C359 H374 0.961 . S
C359 H375 0.960 . S
H360 C344 0.931 . S
H361 C349 0.929 . S
H362 C350 0.960 . S
H363 C350 0.962 . S
H364 C350 0.960 . S
H365 C351 0.961 . S
H366 C351 0.961 . S
H367 C351 0.961 . S
H368 C352 0.931 . S
H369 C357 0.930 . S
H370 C358 0.956 . S
H371 C358 0.961 . S
H372 C358 0.961 . S
H373 C359 0.958 . S
H374 C359 0.961 . S
H375 C359 0.960 . S
C376 C377 1.391 . S
C376 C378 1.394 . S
C376 H392 0.931 . S
C377 C376 1.391 . S
C377 C381 1.376 . S
C378 C376 1.394 . S
C378 C379 1.369 . S
C378 C382 1.531 . S
C379 C378 1.369 . S
C379 C380 1.410 . S
C379 C387 1.503 . S
C380 C379 1.410 . S
C380 C381 1.392 . S
C380 C383 1.511 . S
C381 C377 1.376 . S
C381 C380 1.392 . S
C381 H393 0.929 . S
C382 C378 1.531 . S
C382 H394 0.960 . S
C382 H395 0.962 . S
C382 H396 0.960 . S
C383 C380 1.511 . S
C383 H397 0.961 . S
C383 H398 0.961 . S
C383 H399 0.961 . S
C384 C385 1.370 . S
C384 C386 1.363 . S
C384 H400 0.931 . S
C385 C384 1.370 . S
C385 C389 1.408 . S
C386 C384 1.363 . S
C386 C387 1.370 . S
C386 C390 1.524 . S
C387 C379 1.503 . S
C387 C386 1.370 . S
C387 C388 1.403 . S
C388 C387 1.403 . S
C388 C389 1.404 . S
C388 C391 1.539 . S
C389 C385 1.408 . S
C389 C388 1.404 . S
C389 H401 0.930 . S
C390 C386 1.524 . S
C390 H402 0.956 . S
C390 H403 0.961 . S
C390 H404 0.961 . S
C391 C388 1.539 . S
C391 H405 0.958 . S
C391 H406 0.961 . S
C391 H407 0.960 . S
H392 C376 0.931 . S
H393 C381 0.929 . S
H394 C382 0.960 . S
H395 C382 0.962 . S
H396 C382 0.960 . S
H397 C383 0.961 . S
H398 C383 0.961 . S
H399 C383 0.961 . S
H400 C384 0.931 . S
H401 C389 0.930 . S
H402 C390 0.956 . S
H403 C390 0.961 . S
H404 C390 0.961 . S
H405 C391 0.958 . S
H406 C391 0.961 . S
H407 C391 0.960 . S
C408 C409 1.391 . S
C408 C410 1.394 . S
C408 H424 0.931 . S
C409 C408 1.391 . S
C409 C413 1.376 . S
C410 C408 1.394 . S
C410 C411 1.369 . S
C410 C414 1.531 . S
C411 C410 1.369 . S
C411 C412 1.410 . S
C411 C419 1.503 . S
C412 C411 1.410 . S
C412 C413 1.392 . S
C412 C415 1.511 . S
C413 C409 1.376 . S
C413 C412 1.392 . S
C413 H425 0.929 . S
C414 C410 1.531 . S
C414 H426 0.960 . S
C414 H427 0.962 . S
C414 H428 0.960 . S
C415 C412 1.511 . S
C415 H429 0.961 . S
C415 H430 0.961 . S
C415 H431 0.961 . S
C416 C417 1.370 . S
C416 C418 1.363 . S
C416 H432 0.931 . S
C417 C416 1.370 . S
C417 C421 1.408 . S
C418 C416 1.363 . S
C418 C419 1.370 . S
C418 C422 1.524 . S
C419 C411 1.503 . S
C419 C418 1.370 . S
C419 C420 1.403 . S
C420 C419 1.403 . S
C420 C421 1.404 . S
C420 C423 1.539 . S
C421 C417 1.408 . S
C421 C420 1.404 . S
C421 H433 0.930 . S
C422 C418 1.524 . S
C422 H434 0.956 . S
C422 H435 0.961 . S
C422 H436 0.961 . S
C423 C420 1.539 . S
C423 H437 0.958 . S
C423 H438 0.961 . S
C423 H439 0.960 . S
H424 C408 0.931 . S
H425 C413 0.929 . S
H426 C414 0.960 . S
H427 C414 0.962 . S
H428 C414 0.960 . S
H429 C415 0.961 . S
H430 C415 0.961 . S
H431 C415 0.961 . S
H432 C416 0.931 . S
H433 C421 0.930 . S
H434 C422 0.956 . S
H435 C422 0.961 . S
H436 C422 0.961 . S
H437 C423 0.958 . S
H438 C423 0.961 . S
H439 C423 0.960 . S
C440 C441 1.391 . S
C440 C442 1.394 . S
C440 H456 0.931 . S
C441 C440 1.391 . S
C441 C445 1.376 . S
C442 C440 1.394 . S
C442 C443 1.369 . S
C442 C446 1.531 . S
C443 C442 1.369 . S
C443 C444 1.410 . S
C443 C451 1.503 . S
C444 C443 1.410 . S
C444 C445 1.392 . S
C444 C447 1.511 . S
C445 C441 1.376 . S
C445 C444 1.392 . S
C445 H457 0.929 . S
C446 C442 1.531 . S
C446 H458 0.960 . S
C446 H459 0.962 . S
C446 H460 0.960 . S
C447 C444 1.511 . S
C447 H461 0.961 . S
C447 H462 0.961 . S
C447 H463 0.961 . S
C448 C449 1.370 . S
C448 C450 1.363 . S
C448 H464 0.931 . S
C449 C448 1.370 . S
C449 C453 1.408 . S
C450 C448 1.363 . S
C450 C451 1.370 . S
C450 C454 1.524 . S
C451 C443 1.503 . S
C451 C450 1.370 . S
C451 C452 1.403 . S
C452 C451 1.403 . S
C452 C453 1.404 . S
C452 C455 1.539 . S
C453 C449 1.408 . S
C453 C452 1.404 . S
C453 H465 0.930 . S
C454 C450 1.524 . S
C454 H466 0.956 . S
C454 H467 0.961 . S
C454 H468 0.961 . S
C455 C452 1.539 . S
C455 H469 0.958 . S
C455 H470 0.961 . S
C455 H471 0.960 . S
H456 C440 0.931 . S
H457 C445 0.929 . S
H458 C446 0.960 . S
H459 C446 0.962 . S
H460 C446 0.960 . S
H461 C447 0.961 . S
H462 C447 0.961 . S
H463 C447 0.961 . S
H464 C448 0.931 . S
H465 C453 0.930 . S
H466 C454 0.956 . S
H467 C454 0.961 . S
H468 C454 0.961 . S
H469 C455 0.958 . S
H470 C455 0.961 . S
H471 C455 0.960 . S
C472 C473 1.391 . S
C472 C474 1.394 . S
C472 H488 0.931 . S
C473 C472 1.391 . S
C473 C477 1.376 . S
C474 C472 1.394 . S
C474 C475 1.369 . S
C474 C478 1.531 . S
C475 C474 1.369 . S
C475 C476 1.410 . S
C475 C483 1.503 . S
C476 C475 1.410 . S
C476 C477 1.392 . S
C476 C479 1.511 . S
C477 C473 1.376 . S
C477 C476 1.392 . S
C477 H489 0.929 . S
C478 C474 1.531 . S
C478 H490 0.960 . S
C478 H491 0.962 . S
C478 H492 0.960 . S
C479 C476 1.511 . S
C479 H493 0.961 . S
C479 H494 0.961 . S
C479 H495 0.961 . S
C480 C481 1.370 . S
C480 C482 1.363 . S
C480 H496 0.931 . S
C481 C480 1.370 . S
C481 C485 1.408 . S
C482 C480 1.363 . S
C482 C483 1.370 . S
C482 C486 1.524 . S
C483 C475 1.503 . S
C483 C482 1.370 . S
C483 C484 1.403 . S
C484 C483 1.403 . S
C484 C485 1.404 . S
C484 C487 1.539 . S
C485 C481 1.408 . S
C485 C484 1.404 . S
C485 H497 0.930 . S
C486 C482 1.524 . S
C486 H498 0.956 . S
C486 H499 0.961 . S
C486 H500 0.961 . S
C487 C484 1.539 . S
C487 H501 0.958 . S
C487 H502 0.961 . S
C487 H503 0.960 . S
H488 C472 0.931 . S
H489 C477 0.929 . S
H490 C478 0.960 . S
H491 C478 0.962 . S
H492 C478 0.960 . S
H493 C479 0.961 . S
H494 C479 0.961 . S
H495 C479 0.961 . S
H496 C480 0.931 . S
H497 C485 0.930 . S
H498 C486 0.956 . S
H499 C486 0.961 . S
H500 C486 0.961 . S
H501 C487 0.958 . S
H502 C487 0.961 . S
H503 C487 0.960 . S
C504 C505 1.391 . S
C504 C506 1.394 . S
C504 H520 0.931 . S
C505 C504 1.391 . S
C505 C509 1.376 . S
C506 C504 1.394 . S
C506 C507 1.369 . S
C506 C510 1.531 . S
C507 C506 1.369 . S
C507 C508 1.410 . S
C507 C515 1.503 . S
C508 C507 1.410 . S
C508 C509 1.392 . S
C508 C511 1.511 . S
C509 C505 1.376 . S
C509 C508 1.392 . S
C509 H521 0.929 . S
C510 C506 1.531 . S
C510 H522 0.960 . S
C510 H523 0.962 . S
C510 H524 0.960 . S
C511 C508 1.511 . S
C511 H525 0.961 . S
C511 H526 0.961 . S
C511 H527 0.961 . S
C512 C513 1.370 . S
C512 C514 1.363 . S
C512 H528 0.931 . S
C513 C512 1.370 . S
C513 C517 1.408 . S
C514 C512 1.363 . S
C514 C515 1.370 . S
C514 C518 1.524 . S
C515 C507 1.503 . S
C515 C514 1.370 . S
C515 C516 1.403 . S
C516 C515 1.403 . S
C516 C517 1.404 . S
C516 C519 1.539 . S
C517 C513 1.408 . S
C517 C516 1.404 . S
C517 H529 0.930 . S
C518 C514 1.524 . S
C518 H530 0.956 . S
C518 H531 0.961 . S
C518 H532 0.961 . S
C519 C516 1.539 . S
C519 H533 0.958 . S
C519 H534 0.961 . S
C519 H535 0.960 . S
H520 C504 0.931 . S
H521 C509 0.929 . S
H522 C510 0.960 . S
H523 C510 0.962 . S
H524 C510 0.960 . S
H525 C511 0.961 . S
H526 C511 0.961 . S
H527 C511 0.961 . S
H528 C512 0.931 . S
H529 C517 0.930 . S
H530 C518 0.956 . S
H531 C518 0.961 . S
H532 C518 0.961 . S
H533 C519 0.958 . S
H534 C519 0.961 . S
H535 C519 0.960 . S
C536 C537 1.391 . S
C536 C538 1.394 . S
C536 H552 0.931 . S
C537 C536 1.391 . S
C537 C541 1.376 . S
C538 C536 1.394 . S
C538 C539 1.369 . S
C538 C542 1.531 . S
C539 C538 1.369 . S
C539 C540 1.410 . S
C539 C547 1.503 . S
C540 C539 1.410 . S
C540 C541 1.392 . S
C540 C543 1.511 . S
C541 C537 1.376 . S
C541 C540 1.392 . S
C541 H553 0.929 . S
C542 C538 1.531 . S
C542 H554 0.960 . S
C542 H555 0.962 . S
C542 H556 0.960 . S
C543 C540 1.511 . S
C543 H557 0.961 . S
C543 H558 0.961 . S
C543 H559 0.961 . S
C544 C545 1.370 . S
C544 C546 1.363 . S
C544 H560 0.931 . S
C545 C544 1.370 . S
C545 C549 1.408 . S
C546 C544 1.363 . S
C546 C547 1.370 . S
C546 C550 1.524 . S
C547 C539 1.503 . S
C547 C546 1.370 . S
C547 C548 1.403 . S
C548 C547 1.403 . S
C548 C549 1.404 . S
C548 C551 1.539 . S
C549 C545 1.408 . S
C549 C548 1.404 . S
C549 H561 0.930 . S
C550 C546 1.524 . S
C550 H562 0.956 . S
C550 H563 0.961 . S
C550 H564 0.961 . S
C551 C548 1.539 . S
C551 H565 0.958 . S
C551 H566 0.961 . S
C551 H567 0.960 . S
H552 C536 0.931 . S
H553 C541 0.929 . S
H554 C542 0.960 . S
H555 C542 0.962 . S
H556 C542 0.960 . S
H557 C543 0.961 . S
H558 C543 0.961 . S
H559 C543 0.961 . S
H560 C544 0.931 . S
H561 C549 0.930 . S
H562 C550 0.956 . S
H563 C550 0.961 . S
H564 C550 0.961 . S
H565 C551 0.958 . S
H566 C551 0.961 . S
H567 C551 0.960 . S
C568 C569 1.391 . S
C568 C570 1.394 . S
C568 H584 0.931 . S
C569 C568 1.391 . S
C569 C573 1.376 . S
C570 C568 1.394 . S
C570 C571 1.369 . S
C570 C574 1.531 . S
C571 C570 1.369 . S
C571 C572 1.410 . S
C571 C579 1.503 . S
C572 C571 1.410 . S
C572 C573 1.392 . S
C572 C575 1.511 . S
C573 C569 1.376 . S
C573 C572 1.392 . S
C573 H585 0.929 . S
C574 C570 1.531 . S
C574 H586 0.960 . S
C574 H587 0.962 . S
C574 H588 0.960 . S
C575 C572 1.511 . S
C575 H589 0.961 . S
C575 H590 0.961 . S
C575 H591 0.961 . S
C576 C577 1.370 . S
C576 C578 1.363 . S
C576 H592 0.931 . S
C577 C576 1.370 . S
C577 C581 1.408 . S
C578 C576 1.363 . S
C578 C579 1.370 . S
C578 C582 1.524 . S
C579 C571 1.503 . S
C579 C578 1.370 . S
C579 C580 1.403 . S
C580 C579 1.403 . S
C580 C581 1.404 . S
C580 C583 1.539 . S
C581 C577 1.408 . S
C581 C580 1.404 . S
C581 H593 0.930 . S
C582 C578 1.524 . S
C582 H594 0.956 . S
C582 H595 0.961 . S
C582 H596 0.961 . S
C583 C580 1.539 . S
C583 H597 0.958 . S
C583 H598 0.961 . S
C583 H599 0.960 . S
H584 C568 0.931 . S
H585 C573 0.929 . S
H586 C574 0.960 . S
H587 C574 0.962 . S
H588 C574 0.960 . S
H589 C575 0.961 . S
H590 C575 0.961 . S
H591 C575 0.961 . S
H592 C576 0.931 . S
H593 C581 0.930 . S
H594 C582 0.956 . S
H595 C582 0.961 . S
H596 C582 0.961 . S
H597 C583 0.958 . S
H598 C583 0.961 . S
H599 C583 0.960 . S
C600 C601 1.391 . S
C600 C602 1.394 . S
C600 H616 0.931 . S
C601 C600 1.391 . S
C601 C605 1.376 . S
C602 C600 1.394 . S
C602 C603 1.369 . S
C602 C606 1.531 . S
C603 C602 1.369 . S
C603 C604 1.410 . S
C603 C611 1.503 . S
C604 C603 1.410 . S
C604 C605 1.392 . S
C604 C607 1.511 . S
C605 C601 1.376 . S
C605 C604 1.392 . S
C605 H617 0.929 . S
C606 C602 1.531 . S
C606 H618 0.960 . S
C606 H619 0.962 . S
C606 H620 0.960 . S
C607 C604 1.511 . S
C607 H621 0.961 . S
C607 H622 0.961 . S
C607 H623 0.961 . S
C608 C609 1.370 . S
C608 C610 1.363 . S
C608 H624 0.931 . S
C609 C608 1.370 . S
C609 C613 1.408 . S
C610 C608 1.363 . S
C610 C611 1.370 . S
C610 C614 1.524 . S
C611 C603 1.503 . S
C611 C610 1.370 . S
C611 C612 1.403 . S
C612 C611 1.403 . S
C612 C613 1.404 . S
C612 C615 1.539 . S
C613 C609 1.408 . S
C613 C612 1.404 . S
C613 H625 0.930 . S
C614 C610 1.524 . S
C614 H626 0.956 . S
C614 H627 0.961 . S
C614 H628 0.961 . S
C615 C612 1.539 . S
C615 H629 0.958 . S
C615 H630 0.961 . S
C615 H631 0.960 . S
H616 C600 0.931 . S
H617 C605 0.929 . S
H618 C606 0.960 . S
H619 C606 0.962 . S
H620 C606 0.960 . S
H621 C607 0.961 . S
H622 C607 0.961 . S
H623 C607 0.961 . S
H624 C608 0.931 . S
H625 C613 0.930 . S
H626 C614 0.956 . S
H627 C614 0.961 . S
H628 C614 0.961 . S
H629 C615 0.958 . S
H630 C615 0.961 . S
H631 C615 0.960 . S
C632 C633 1.391 . S
C632 C634 1.394 . S
C632 H648 0.931 . S
C633 C632 1.391 . S
C633 C637 1.376 . S
C634 C632 1.394 . S
C634 C635 1.369 . S
C634 C638 1.531 . S
C635 C634 1.369 . S
C635 C636 1.410 . S
C635 C643 1.503 . S
C636 C635 1.410 . S
C636 C637 1.392 . S
C636 C639 1.511 . S
C637 C633 1.376 . S
C637 C636 1.392 . S
C637 H649 0.929 . S
C638 C634 1.531 . S
C638 H650 0.960 . S
C638 H651 0.962 . S
C638 H652 0.960 . S
C639 C636 1.511 . S
C639 H653 0.961 . S
C639 H654 0.961 . S
C639 H655 0.961 . S
C640 C641 1.370 . S
C640 C642 1.363 . S
C640 H656 0.931 . S
C641 C640 1.370 . S
C641 C645 1.408 . S
C642 C640 1.363 . S
C642 C643 1.370 . S
C642 C646 1.524 . S
C643 C635 1.503 . S
C643 C642 1.370 . S
C643 C644 1.403 . S
C644 C643 1.403 . S
C644 C645 1.404 . S
C644 C647 1.539 . S
C645 C641 1.408 . S
C645 C644 1.404 . S
C645 H657 0.930 . S
C646 C642 1.524 . S
C646 H658 0.956 . S
C646 H659 0.961 . S
C646 H660 0.961 . S
C647 C644 1.539 . S
C647 H661 0.958 . S
C647 H662 0.961 . S
C647 H663 0.960 . S
H648 C632 0.931 . S
H649 C637 0.929 . S
H650 C638 0.960 . S
H651 C638 0.962 . S
H652 C638 0.960 . S
H653 C639 0.961 . S
H654 C639 0.961 . S
H655 C639 0.961 . S
H656 C640 0.931 . S
H657 C645 0.930 . S
H658 C646 0.956 . S
H659 C646 0.961 . S
H660 C646 0.961 . S
H661 C647 0.958 . S
H662 C647 0.961 . S
H663 C647 0.960 . S
C664 C665 1.391 . S
C664 C666 1.394 . S
C664 H680 0.931 . S
C665 C664 1.391 . S
C665 C669 1.376 . S
C666 C664 1.394 . S
C666 C667 1.369 . S
C666 C670 1.531 . S
C667 C666 1.369 . S
C667 C668 1.410 . S
C667 C675 1.503 . S
C668 C667 1.410 . S
C668 C669 1.392 . S
C668 C671 1.511 . S
C669 C665 1.376 . S
C669 C668 1.392 . S
C669 H681 0.929 . S
C670 C666 1.531 . S
C670 H682 0.960 . S
C670 H683 0.962 . S
C670 H684 0.960 . S
C671 C668 1.511 . S
C671 H685 0.961 . S
C671 H686 0.961 . S
C671 H687 0.961 . S
C672 C673 1.370 . S
C672 C674 1.363 . S
C672 H688 0.931 . S
C673 C672 1.370 . S
C673 C677 1.408 . S
C674 C672 1.363 . S
C674 C675 1.370 . S
C674 C678 1.524 . S
C675 C667 1.503 . S
C675 C674 1.370 . S
C675 C676 1.403 . S
C676 C675 1.403 . S
C676 C677 1.404 . S
C676 C679 1.539 . S
C677 C673 1.408 . S
C677 C676 1.404 . S
C677 H689 0.930 . S
C678 C674 1.524 . S
C678 H690 0.956 . S
C678 H691 0.961 . S
C678 H692 0.961 . S
C679 C676 1.539 . S
C679 H693 0.958 . S
C679 H694 0.961 . S
C679 H695 0.960 . S
H680 C664 0.931 . S
H681 C669 0.929 . S
H682 C670 0.960 . S
H683 C670 0.962 . S
H684 C670 0.960 . S
H685 C671 0.961 . S
H686 C671 0.961 . S
H687 C671 0.961 . S
H688 C672 0.931 . S
H689 C677 0.930 . S
H690 C678 0.956 . S
H691 C678 0.961 . S
H692 C678 0.961 . S
H693 C679 0.958 . S
H694 C679 0.961 . S
H695 C679 0.960 . S
C696 C697 1.391 1_655 S
C696 C698 1.394 . S
C696 H712 0.931 . S
C697 C696 1.391 1_455 S
C697 C701 1.376 . S
C698 C696 1.394 . S
C698 C699 1.369 1_655 S
C698 C702 1.531 . S
C699 C698 1.369 1_455 S
C699 C700 1.410 . S
C699 C707 1.503 . S
C700 C699 1.410 . S
C700 C701 1.392 . S
C700 C703 1.511 . S
C701 C697 1.376 . S
C701 C700 1.392 . S
C701 H713 0.929 . S
C702 C698 1.531 . S
C702 H714 0.960 . S
C702 H715 0.962 . S
C702 H716 0.960 . S
C703 C700 1.511 . S
C703 H717 0.961 . S
C703 H718 0.961 . S
C703 H719 0.961 . S
C704 C705 1.370 . S
C704 C706 1.363 1_556 S
C704 H720 0.931 . S
C705 C704 1.370 . S
C705 C709 1.408 . S
C706 C704 1.363 1_554 S
C706 C707 1.370 . S
C706 C710 1.524 . S
C707 C699 1.503 . S
C707 C706 1.370 . S
C707 C708 1.403 . S
C708 C707 1.403 . S
C708 C709 1.404 1_554 S
C708 C711 1.539 1_455 S
C709 C705 1.408 . S
C709 C708 1.404 1_556 S
C709 H721 0.930 1_455 S
C710 C706 1.524 . S
C710 H722 0.956 . S
C710 H723 0.961 . S
C710 H724 0.961 . S
C711 C708 1.539 1_655 S
C711 H725 0.958 . S
C711 H726 0.961 . S
C711 H727 0.960 . S
H712 C696 0.931 . S
H713 C701 0.929 . S
H714 C702 0.960 . S
H715 C702 0.962 . S
H716 C702 0.960 . S
H717 C703 0.961 . S
H718 C703 0.961 . S
H719 C703 0.961 . S
H720 C704 0.931 . S
H721 C709 0.930 1_655 S
H722 C710 0.956 . S
H723 C710 0.961 . S
H724 C710 0.961 . S
H725 C711 0.958 . S
H726 C711 0.961 . S
H727 C711 0.960 . S
C728 C729 1.391 1_565 S
C728 C730 1.394 . S
C728 H744 0.931 . S
C729 C728 1.391 1_545 S
C729 C733 1.376 . S
C730 C728 1.394 . S
C730 C731 1.369 1_565 S
C730 C734 1.531 . S
C731 C730 1.369 1_545 S
C731 C732 1.410 . S
C731 C739 1.503 . S
C732 C731 1.410 . S
C732 C733 1.392 . S
C732 C735 1.511 . S
C733 C729 1.376 . S
C733 C732 1.392 . S
C733 H745 0.929 . S
C734 C730 1.531 . S
C734 H746 0.960 . S
C734 H747 0.962 . S
C734 H748 0.960 . S
C735 C732 1.511 . S
C735 H749 0.961 . S
C735 H750 0.961 . S
C735 H751 0.961 . S
C736 C737 1.370 . S
C736 C738 1.363 . S
C736 H752 0.931 . S
C737 C736 1.370 . S
C737 C741 1.408 1_545 S
C738 C736 1.363 . S
C738 C739 1.370 . S
C738 C742 1.524 . S
C739 C731 1.503 . S
C739 C738 1.370 . S
C739 C740 1.403 1_545 S
C740 C739 1.403 1_565 S
C740 C741 1.404 . S
C740 C743 1.539 . S
C741 C737 1.408 1_565 S
C741 C740 1.404 . S
C741 H753 0.930 . S
C742 C738 1.524 . S
C742 H754 0.956 . S
C742 H755 0.961 . S
C742 H756 0.961 . S
C743 C740 1.539 . S
C743 H757 0.958 . S
C743 H758 0.961 . S
C743 H759 0.960 . S
H744 C728 0.931 . S
H745 C733 0.929 . S
H746 C734 0.960 . S
H747 C734 0.962 . S
H748 C734 0.960 . S
H749 C735 0.961 . S
H750 C735 0.961 . S
H751 C735 0.961 . S
H752 C736 0.931 . S
H753 C741 0.930 . S
H754 C742 0.956 . S
H755 C742 0.961 . S
H756 C742 0.961 . S
H757 C743 0.958 . S
H758 C743 0.961 . S
H759 C743 0.960 . S
C760 C761 1.391 . S
C760 C762 1.394 . S
C760 H776 0.931 . S
C761 C760 1.391 . S
C761 C765 1.376 . S
C762 C760 1.394 . S
C762 C763 1.369 . S
C762 C766 1.531 . S
C763 C762 1.369 . S
C763 C764 1.410 . S
C763 C771 1.503 . S
C764 C763 1.410 . S
C764 C765 1.392 . S
C764 C767 1.511 . S
C765 C761 1.376 . S
C765 C764 1.392 . S
C765 H777 0.929 . S
C766 C762 1.531 . S
C766 H778 0.960 . S
C766 H779 0.962 . S
C766 H780 0.960 . S
C767 C764 1.511 . S
C767 H781 0.961 . S
C767 H782 0.961 . S
C767 H783 0.961 . S
C768 C769 1.370 . S
C768 C770 1.363 . S
C768 H784 0.931 . S
C769 C768 1.370 . S
C769 C773 1.408 . S
C770 C768 1.363 . S
C770 C771 1.370 . S
C770 C774 1.524 . S
C771 C763 1.503 . S
C771 C770 1.370 . S
C771 C772 1.403 . S
C772 C771 1.403 . S
C772 C773 1.404 . S
C772 C775 1.539 . S
C773 C769 1.408 . S
C773 C772 1.404 . S
C773 H785 0.930 . S
C774 C770 1.524 . S
C774 H786 0.956 . S
C774 H787 0.961 . S
C774 H788 0.961 . S
C775 C772 1.539 . S
C775 H789 0.958 . S
C775 H790 0.961 . S
C775 H791 0.960 . S
H776 C760 0.931 . S
H777 C765 0.929 . S
H778 C766 0.960 . S
H779 C766 0.962 . S
H780 C766 0.960 . S
H781 C767 0.961 . S
H782 C767 0.961 . S
H783 C767 0.961 . S
H784 C768 0.931 . S
H785 C773 0.930 . S
H786 C774 0.956 . S
H787 C774 0.961 . S
H788 C774 0.961 . S
H789 C775 0.958 . S
H790 C775 0.961 . S
H791 C775 0.960 . S
C792 C793 1.391 . S
C792 C794 1.394 . S
C792 H808 0.931 . S
C793 C792 1.391 . S
C793 C797 1.376 1_545 S
C794 C792 1.394 . S
C794 C795 1.369 . S
C794 C798 1.531 . S
C795 C794 1.369 . S
C795 C796 1.410 1_545 S
C795 C803 1.503 . S
C796 C795 1.410 1_565 S
C796 C797 1.392 . S
C796 C799 1.511 . S
C797 C793 1.376 1_565 S
C797 C796 1.392 . S
C797 H809 0.929 . S
C798 C794 1.531 . S
C798 H810 0.960 . S
C798 H811 0.962 . S
C798 H812 0.960 . S
C799 C796 1.511 . S
C799 H813 0.961 . S
C799 H814 0.961 . S
C799 H815 0.961 . S
C800 C801 1.370 1_565 S
C800 C802 1.363 . S
C800 H816 0.931 . S
C801 C800 1.370 1_545 S
C801 C805 1.408 . S
C802 C800 1.363 . S
C802 C803 1.370 1_565 S
C802 C806 1.524 . S
C803 C795 1.503 . S
C803 C802 1.370 1_545 S
C803 C804 1.403 . S
C804 C803 1.403 . S
C804 C805 1.404 . S
C804 C807 1.539 . S
C805 C801 1.408 . S
C805 C804 1.404 . S
C805 H817 0.930 . S
C806 C802 1.524 . S
C806 H818 0.956 . S
C806 H819 0.961 . S
C806 H820 0.961 . S
C807 C804 1.539 . S
C807 H821 0.958 . S
C807 H822 0.961 . S
C807 H823 0.960 . S
H808 C792 0.931 . S
H809 C797 0.929 . S
H810 C798 0.960 . S
H811 C798 0.962 . S
H812 C798 0.960 . S
H813 C799 0.961 . S
H814 C799 0.961 . S
H815 C799 0.961 . S
H816 C800 0.931 . S
H817 C805 0.930 . S
H818 C806 0.956 . S
H819 C806 0.961 . S
H820 C806 0.961 . S
H821 C807 0.958 . S
H822 C807 0.961 . S
H823 C807 0.960 . S
C824 C825 1.391 . S
C824 C826 1.394 . S
C824 H840 0.931 . S
C825 C824 1.391 . S
C825 C829 1.376 . S
C826 C824 1.394 . S
C826 C827 1.369 . S
C826 C830 1.531 . S
C827 C826 1.369 . S
C827 C828 1.410 . S
C827 C835 1.503 . S
C828 C827 1.410 . S
C828 C829 1.392 . S
C828 C831 1.511 . S
C829 C825 1.376 . S
C829 C828 1.392 . S
C829 H841 0.929 . S
C830 C826 1.531 . S
C830 H842 0.960 . S
C830 H843 0.962 . S
C830 H844 0.960 . S
C831 C828 1.511 . S
C831 H845 0.961 . S
C831 H846 0.961 . S
C831 H847 0.961 . S
C832 C833 1.370 1_556 S
C832 C834 1.363 . S
C832 H848 0.931 1_556 S
C833 C832 1.370 1_554 S
C833 C837 1.408 1_554 S
C834 C832 1.363 . S
C834 C835 1.370 . S
C834 C838 1.524 . S
C835 C827 1.503 . S
C835 C834 1.370 . S
C835 C836 1.403 . S
C836 C835 1.403 . S
C836 C837 1.404 . S
C836 C839 1.539 . S
C837 C833 1.408 1_556 S
C837 C836 1.404 . S
C837 H849 0.930 . S
C838 C834 1.524 . S
C838 H850 0.956 . S
C838 H851 0.961 . S
C838 H852 0.961 . S
C839 C836 1.539 . S
C839 H853 0.958 . S
C839 H854 0.961 . S
C839 H855 0.960 . S
H840 C824 0.931 . S
H841 C829 0.929 . S
H842 C830 0.960 . S
H843 C830 0.962 . S
H844 C830 0.960 . S
H845 C831 0.961 . S
H846 C831 0.961 . S
H847 C831 0.961 . S
H848 C832 0.931 1_554 S
H849 C837 0.930 . S
H850 C838 0.956 . S
H851 C838 0.961 . S
H852 C838 0.961 . S
H853 C839 0.958 . S
H854 C839 0.961 . S
H855 C839 0.960 . S
C856 C857 1.391 . S
C856 C858 1.394 . S
C856 H872 0.931 . S
C857 C856 1.391 . S
C857 C861 1.376 1_455 S
C858 C856 1.394 . S
C858 C859 1.369 . S
C858 C862 1.531 . S
C859 C858 1.369 . S
C859 C860 1.410 1_455 S
C859 C867 1.503 . S
C860 C859 1.410 1_655 S
C860 C861 1.392 . S
C860 C863 1.511 . S
C861 C857 1.376 1_655 S
C861 C860 1.392 . S
C861 H873 0.929 . S
C862 C858 1.531 . S
C862 H874 0.960 . S
C862 H875 0.962 . S
C862 H876 0.960 . S
C863 C860 1.511 . S
C863 H877 0.961 . S
C863 H878 0.961 . S
C863 H879 0.961 . S
C864 C865 1.370 . S
C864 C866 1.363 . S
C864 H880 0.931 . S
C865 C864 1.370 . S
C865 C869 1.408 1_455 S
C866 C864 1.363 . S
C866 C867 1.370 . S
C866 C870 1.524 . S
C867 C859 1.503 . S
C867 C866 1.370 . S
C867 C868 1.403 1_455 S
C868 C867 1.403 1_655 S
C868 C869 1.404 . S
C868 C871 1.539 . S
C869 C865 1.408 1_655 S
C869 C868 1.404 . S
C869 H881 0.930 . S
C870 C866 1.524 . S
C870 H882 0.956 . S
C870 H883 0.961 1_455 S
C870 H884 0.961 . S
C871 C868 1.539 . S
C871 H885 0.958 1_655 S
C871 H886 0.961 . S
C871 H887 0.960 . S
H872 C856 0.931 . S
H873 C861 0.929 . S
H874 C862 0.960 . S
H875 C862 0.962 . S
H876 C862 0.960 . S
H877 C863 0.961 . S
H878 C863 0.961 . S
H879 C863 0.961 . S
H880 C864 0.931 . S
H881 C869 0.930 . S
H882 C870 0.956 . S
H883 C870 0.961 1_655 S
H884 C870 0.961 . S
H885 C871 0.958 1_455 S
H886 C871 0.961 . S
H887 C871 0.960 . S
C313 C6 0.556 . S
C321 C303 0.513 . S
C345 C59 1.875 . S
C353 C239 1.845 . S
C377 C86 1.258 . S
C385 C271 1.211 . S
C409 C15 0.412 . S
C417 C297 0.448 . S
C449 C233 1.906 . S
C441 C50 1.952 . S
C481 C265 1.283 . S
C473 C95 1.291 . S
C505 C46 1.187 . S
C513 C175 1.212 . S
C537 C99 3.053 . S
C545 C207 2.995 . S
C569 C10 1.943 . S
C577 C137 1.929 . S
C609 C169 1.273 . S
C601 C55 1.287 . S
C641 C201 2.990 . S
C633 C90 3.002 . S
C665 C19 1.892 . S
C673 C143 1.847 . S
C705 C213 1.740 . S
C697 C18 1.678 . S
C729 C49 1.336 . S
C737 C149 1.355 . S
C761 C98 1.480 . S
C769 C181 1.473 . S
C801 C277 1.453 . S
C793 C58 1.411 . S
C833 C309 1.074 . S
C825 C89 1.100 . S
C857 C9 1.353 . S
C865 C245 1.348 . S
