# Generated by pormake.
# Topology llj, (12,3)-cn, num edge types: 1
# Building blocks:
#     Node 0, Type 0, BuildingBlock: QEWDON_clean_sbu_0, # of connection points: 12
#     Node 1, Type 0, BuildingBlock: QEWDON_clean_sbu_0, # of connection points: 12
#     Node 2, Type 1, BuildingBlock: KAKCAD_clean_linker_0, # of connection points: 3
#     Node 3, Type 1, BuildingBlock: KAKCAD_clean_linker_0, # of connection points: 3
#     Node 4, Type 1, BuildingBlock: KAKCAD_clean_linker_0, # of connection points: 3
#     Node 5, Type 1, BuildingBlock: KAKCAD_clean_linker_0, # of connection points: 3
#     Node 6, Type 1, BuildingBlock: KAKCAD_clean_linker_0, # of connection points: 3
#     Node 7, Type 1, BuildingBlock: KAKCAD_clean_linker_0, # of connection points: 3
#     Node 8, Type 1, BuildingBlock: KAKCAD_clean_linker_0, # of connection points: 3
#     Node 9, Type 1, BuildingBlock: KAKCAD_clean_linker_0, # of connection points: 3
#     Edge 10, Type (0, 1), BuildingBlock: OJICUG_clean_linker_0, # of connection points: 2
#     Edge 11, Type (0, 1), BuildingBlock: OJICUG_clean_linker_0, # of connection points: 2
#     Edge 12, Type (0, 1), BuildingBlock: OJICUG_clean_linker_0, # of connection points: 2
#     Edge 13, Type (0, 1), BuildingBlock: OJICUG_clean_linker_0, # of connection points: 2
#     Edge 14, Type (0, 1), BuildingBlock: OJICUG_clean_linker_0, # of connection points: 2
#     Edge 15, Type (0, 1), BuildingBlock: OJICUG_clean_linker_0, # of connection points: 2
#     Edge 16, Type (0, 1), BuildingBlock: OJICUG_clean_linker_0, # of connection points: 2
#     Edge 17, Type (0, 1), BuildingBlock: OJICUG_clean_linker_0, # of connection points: 2
#     Edge 18, Type (0, 1), BuildingBlock: OJICUG_clean_linker_0, # of connection points: 2
#     Edge 19, Type (0, 1), BuildingBlock: OJICUG_clean_linker_0, # of connection points: 2
#     Edge 20, Type (0, 1), BuildingBlock: OJICUG_clean_linker_0, # of connection points: 2
#     Edge 21, Type (0, 1), BuildingBlock: OJICUG_clean_linker_0, # of connection points: 2
#     Edge 22, Type (0, 1), BuildingBlock: OJICUG_clean_linker_0, # of connection points: 2
#     Edge 23, Type (0, 1), BuildingBlock: OJICUG_clean_linker_0, # of connection points: 2
#     Edge 24, Type (0, 1), BuildingBlock: OJICUG_clean_linker_0, # of connection points: 2
#     Edge 25, Type (0, 1), BuildingBlock: OJICUG_clean_linker_0, # of connection points: 2
#     Edge 26, Type (0, 1), BuildingBlock: OJICUG_clean_linker_0, # of connection points: 2
#     Edge 27, Type (0, 1), BuildingBlock: OJICUG_clean_linker_0, # of connection points: 2
#     Edge 28, Type (0, 1), BuildingBlock: OJICUG_clean_linker_0, # of connection points: 2
#     Edge 29, Type (0, 1), BuildingBlock: OJICUG_clean_linker_0, # of connection points: 2
#     Edge 30, Type (0, 1), BuildingBlock: OJICUG_clean_linker_0, # of connection points: 2
#     Edge 31, Type (0, 1), BuildingBlock: OJICUG_clean_linker_0, # of connection points: 2
#     Edge 32, Type (0, 1), BuildingBlock: OJICUG_clean_linker_0, # of connection points: 2
#     Edge 33, Type (0, 1), BuildingBlock: OJICUG_clean_linker_0, # of connection points: 2
# Relax obj value: 0.011
# Max RMSD: 0.055
# Mean RMSD: 0.051
data_MOF--net-llj--node1-QEWDON_clean_sbu_0--node2-KAKCAD_clean_linker_0--edge1-OJICUG_clean_linker_0
_symmetry_space_group_name_H-M    P1
_symmetry_Int_Tables_number       1
_symmetry_cell_setting            triclinic
loop_
_symmetry_equiv_pos_as_xyz
'x, y, z'
_cell_length_a     36.299863
_cell_length_b     36.309344
_cell_length_c     25.284843
_cell_angle_alpha  90.075074
_cell_angle_beta   89.900712
_cell_angle_gamma 90.285886
loop_
_atom_site_label
_atom_site_type_symbol
_atom_site_fract_x
_atom_site_fract_y
_atom_site_fract_z
_atom_type_partial_charge
Zn0 Zn 0.9296 0.08832 0.94834 0.0
Zn1 Zn 0.93121 0.08105 0.07366 0.0
O2 O 0.96317 0.07982 0.00989 0.0
H3 H 0.98581 0.06629 0.00588 0.0
C4 C 0.90869 0.00382 0.89072 0.0
O5 O 0.89646 0.0148 0.93705 0.0
Zn6 Zn 0.06773 0.92189 0.06081 0.0
Zn7 Zn 0.06989 0.91252 0.93488 0.0
O8 O 0.03643 0.92396 -0.00374 0.0
H9 H 0.01154 0.93306 0.9936 0.0
Zn10 Zn 0.93414 0.94571 0.95782 0.0
O11 O 0.94745 0.9785 0.01908 0.0
Zn12 Zn 0.94106 0.94669 0.08227 0.0
H13 H 0.96256 0.00036 0.01633 0.0
Zn14 Zn 0.05113 0.05527 0.95256 0.0
O15 O 0.04265 0.02277 0.01634 0.0
H16 H 0.02769 0.00072 0.01669 0.0
Zn17 Zn 0.05542 0.0547 0.0776 0.0
C18 C 0.0773 0.9995 0.88317 0.0
O19 O 0.09513 0.99215 0.92707 0.0
O20 O 0.8812 0.1137 0.96928 0.0
O21 O 0.88297 0.10815 0.05704 0.0
O22 O 0.12014 0.89226 0.9565 0.0
O23 O 0.11759 0.89788 0.04407 0.0
O24 O 0.89937 0.9033 0.97951 0.0
O25 O 0.9028 0.90621 0.06741 0.0
C26 C 0.99381 0.09787 0.13545 0.0
O27 O 0.0894 0.09615 0.96685 0.0
O28 O 0.09407 0.09262 0.0545 0.0
O29 O 0.04545 0.89016 0.86889 0.0
C30 C 0.86703 0.11913 0.01481 0.0
O31 O 0.95629 0.10015 0.87812 0.0
C32 C 0.00574 0.89899 0.12121 0.0
O33 O 0.9257 0.9734 0.88758 0.0
C34 C 0.1345 0.88805 0.00197 0.0
O35 O 0.05558 0.02681 0.88229 0.0
C36 C 0.92119 0.01361 0.13897 0.0
O37 O 0.95968 0.1054 0.13316 0.0
O38 O 0.00735 0.07846 0.09839 0.0
C39 C 0.88966 0.89185 0.02517 0.0
O40 O 0.03978 0.89211 0.11497 0.0
O41 O 0.9917 0.92464 0.09362 0.0
C42 C 0.07705 0.98824 0.13169 0.0
O43 O 0.92582 0.97912 0.14445 0.0
O44 O 0.92414 0.02758 0.0931 0.0
C45 C 0.10394 0.10658 0.01026 0.0
O46 O 0.07313 0.0228 0.13785 0.0
O47 O 0.0728 0.97459 0.08577 0.0
C48 C 0.01679 0.90558 0.85105 0.0
O49 O 0.00404 0.93498 0.87515 0.0
C50 C 0.98877 0.11302 0.88217 0.0
O51 O 0.0023 0.11945 0.92946 0.0
Zn52 Zn 0.43021 0.57818 0.4601 0.0
Zn53 Zn 0.43236 0.58087 0.58239 0.0
O54 O 0.4659 0.58375 0.52011 0.0
H55 H 0.48787 0.59871 0.51675 0.0
C56 C 0.40701 0.50379 0.38977 0.0
O57 O 0.38926 0.51043 0.43408 0.0
Zn58 Zn 0.56895 0.42723 0.56797 0.0
Zn59 Zn 0.56841 0.41209 0.44225 0.0
O60 O 0.53715 0.42882 0.5037 0.0
H61 H 0.51448 0.44238 0.5001 0.0
Zn62 Zn 0.43705 0.44872 0.45738 0.0
O63 O 0.44709 0.48075 0.52072 0.0
Zn64 Zn 0.44045 0.44657 0.58149 0.0
H65 H 0.46205 0.50279 0.5195 0.0
Zn66 Zn 0.55442 0.55764 0.45832 0.0
O67 O 0.54236 0.52802 0.5236 0.0
H68 H 0.52678 0.50642 0.52451 0.0
Zn69 Zn 0.55559 0.55964 0.58501 0.0
C70 C 0.54305 0.50709 0.36844 0.0
O71 O 0.50872 0.50726 0.38495 0.0
O72 O 0.38079 0.60366 0.47646 0.0
O73 O 0.38402 0.6066 0.56432 0.0
O74 O 0.61914 0.39304 0.46398 0.0
O75 O 0.61801 0.40176 0.55116 0.0
O76 O 0.4032 0.40481 0.47366 0.0
O77 O 0.4029 0.40645 0.56168 0.0
C78 C 0.49287 0.59906 0.64606 0.0
O79 O 0.58971 0.60071 0.47428 0.0
O80 O 0.59215 0.59952 0.56223 0.0
O81 O 0.54172 0.38572 0.38078 0.0
C82 C 0.36729 0.61337 0.52093 0.0
O83 O 0.45558 0.58697 0.38832 0.0
C84 C 0.50664 0.40622 0.62908 0.0
O85 O 0.4295 0.47717 0.38808 0.0
C86 C 0.6342 0.39042 0.50928 0.0
O87 O 0.56685 0.52671 0.39229 0.0
C88 C 0.42123 0.51095 0.64291 0.0
O89 O 0.45844 0.60502 0.64406 0.0
O90 O 0.50708 0.58048 0.6087 0.0
C91 C 0.39187 0.39247 0.51798 0.0
O92 O 0.54117 0.40093 0.62603 0.0
O93 O 0.49134 0.42572 0.59372 0.0
C94 C 0.58066 0.49379 0.63685 0.0
O95 O 0.42455 0.4761 0.64589 0.0
O96 O 0.42564 0.52658 0.59836 0.0
C97 C 0.60241 0.61297 0.51788 0.0
O98 O 0.57618 0.5282 0.64341 0.0
O99 O 0.5754 0.48012 0.59112 0.0
C100 C 0.5083 0.39397 0.37245 0.0
O101 O 0.49263 0.41897 0.40238 0.0
C102 C 0.45378 0.61839 0.36661 0.0
O103 O 0.43397 0.64426 0.3891 0.0
C104 C 0.39074 0.34854 0.81517 0.0
C105 C 0.42896 0.34437 0.80797 0.0
C106 C 0.3733 0.33426 0.86017 0.0
C107 C 0.39384 0.31584 0.89888 0.0
C108 C 0.43173 0.31062 0.89086 0.0
C109 C 0.44906 0.32457 0.84586 0.0
C110 C 0.37663 0.30393 0.94919 0.0
C111 C 0.3438 0.28331 0.94978 0.0
C112 C 0.32862 0.27114 -0.00202 0.0
C113 C 0.34636 0.28042 0.04562 0.0
C114 C 0.37889 0.3015 0.0456 0.0
C115 C 0.39371 0.31314 -0.00286 0.0
C116 C 0.39733 0.3118 0.09596 0.0
C117 C 0.37652 0.3221 0.14046 0.0
C118 C 0.436 0.31242 0.09941 0.0
C119 C 0.45343 0.32403 0.14571 0.0
C120 C 0.43263 0.33488 0.18995 0.0
C121 C 0.29466 0.24818 -0.00104 0.0
C122 C 0.26439 0.2568 0.96676 0.0
C123 C 0.29217 0.21763 0.03289 0.0
C124 C 0.26006 0.1964 0.035 0.0
C125 C 0.22963 0.20515 0.00321 0.0
C126 C 0.23219 0.23551 0.96888 0.0
C127 C 0.39397 0.33334 0.18698 0.0
H128 H 0.37448 0.36384 0.78693 0.0
H129 H 0.34407 0.3388 0.86565 0.0
H130 H 0.44808 0.29599 0.91976 0.0
H131 H 0.47832 0.31995 0.84094 0.0
H132 H 0.33082 0.27575 0.91273 0.0
H133 H 0.41831 0.33018 -0.0034 0.0
H134 H 0.3348 0.27113 0.08285 0.0
H135 H 0.34671 0.3223 0.13908 0.0
H136 H 0.4529 0.3041 0.06619 0.0
H137 H 0.48324 0.32526 0.1463 0.0
H138 H 0.26535 0.2804 0.94063 0.0
H139 H 0.31526 0.20983 0.05746 0.0
H140 H 0.37709 0.34098 0.22057 0.0
H141 H 0.2091 0.24316 0.9442 0.0
H142 H 0.25931 0.17272 0.06101 0.0
C143 C 0.60847 0.36778 0.82308 0.0
C144 C 0.61298 0.40626 0.82124 0.0
C145 C 0.61536 0.3485 0.86999 0.0
C146 C 0.6268 0.36749 0.9156 0.0
C147 C 0.63269 0.40572 0.91286 0.0
C148 C 0.62578 0.42486 0.86632 0.0
C149 C 0.63126 0.34835 0.96691 0.0
C150 C 0.65159 0.31569 0.97106 0.0
C151 C 0.65876 0.30002 0.02099 0.0
C152 C 0.64433 0.31696 0.06668 0.0
C153 C 0.62402 0.34956 0.06265 0.0
C154 C 0.6172 0.36468 0.01285 0.0
C155 C 0.61305 0.3705 0.1101 0.0
C156 C 0.58912 0.35536 0.148 0.0
C157 C 0.62549 0.40692 0.11601 0.0
C158 C 0.61403 0.42808 0.15888 0.0
C159 C 0.58959 0.41336 0.19645 0.0
C160 C 0.68443 0.26842 0.02553 0.0
C161 C 0.68286 0.23901 0.98941 0.0
C162 C 0.71245 0.26881 0.06386 0.0
C163 C 0.73912 0.2412 0.06477 0.0
C164 C 0.7384 0.2125 0.02741 0.0
C165 C 0.70949 0.21131 0.99042 0.0
C166 C 0.57718 0.37682 0.19073 0.0
H167 H 0.59854 0.35281 0.78882 0.0
H168 H 0.61059 0.31904 0.87111 0.0
H169 H 0.64237 0.42097 0.94703 0.0
H170 H 0.63032 0.45438 0.86568 0.0
H171 H 0.66371 0.30381 0.93578 0.0
H172 H 0.60145 0.38992 0.01007 0.0
H173 H 0.6501 0.30567 0.10545 0.0
H174 H 0.57909 0.32736 0.14388 0.0
H175 H 0.64399 0.41908 0.08716 0.0
H176 H 0.62378 0.45624 0.16216 0.0
H177 H 0.66133 0.2377 0.95985 0.0
H178 H 0.71482 0.29137 0.09173 0.0
H179 H 0.55852 0.36485 0.21944 0.0
H180 H 0.70776 0.18926 0.96164 0.0
H181 H 0.76125 0.24333 0.09329 0.0
C182 C 0.56868 0.68816 0.19235 0.0
C183 C 0.5506 0.65379 0.1924 0.0
C184 C 0.59281 0.69764 0.15137 0.0
C185 C 0.59924 0.67297 0.1096 0.0
C186 C 0.5819 0.63825 0.11044 0.0
C187 C 0.5578 0.62879 0.1513 0.0
C188 C 0.62184 0.68411 0.06336 0.0
C189 C 0.65538 0.70323 0.06942 0.0
C190 C 0.67621 0.71386 0.02484 0.0
C191 C 0.66313 0.70489 0.97396 0.0
C192 C 0.62942 0.6865 0.96781 0.0
C193 C 0.60901 0.67629 0.01234 0.0
C194 C 0.61418 0.67854 0.91514 0.0
C195 C 0.58166 0.69588 0.89919 0.0
C196 C 0.6292 0.65052 0.88379 0.0
C197 C 0.61088 0.63878 0.83811 0.0
C198 C 0.57741 0.65515 0.82296 0.0
C199 C 0.71069 0.73574 0.03098 0.0
C200 C 0.71241 0.76519 0.06709 0.0
C201 C 0.74146 0.72861 -0.00119 0.0
C202 C 0.77264 0.75126 0.0012 0.0
C203 C 0.7738 0.78163 0.03577 0.0
C204 C 0.74362 0.78788 0.06947 0.0
C205 C 0.56363 0.68456 0.85328 0.0
H206 H 0.56413 0.70778 0.22396 0.0
H207 H 0.60556 0.72468 0.15159 0.0
H208 H 0.58663 0.61848 0.07905 0.0
H209 H 0.54417 0.6022 0.15003 0.0
H210 H 0.66547 0.70937 0.10878 0.0
H211 H 0.58267 0.66255 0.00701 0.0
H212 H 0.67832 0.71341 0.93908 0.0
H213 H 0.5697 0.71755 0.92311 0.0
H214 H 0.65406 0.63654 0.89604 0.0
H215 H 0.62212 0.61584 0.81608 0.0
H216 H 0.68903 0.77166 0.09205 0.0
H217 H 0.74127 0.70573 0.97128 0.0
H218 H 0.53847 0.69843 0.84216 0.0
H219 H 0.74343 0.81125 0.09612 0.0
H220 H 0.79571 0.74528 0.97541 0.0
C221 C 0.35963 0.6175 0.19924 0.0
C222 C 0.39433 0.6033 0.21256 0.0
C223 C 0.35525 0.63885 0.154 0.0
C224 C 0.38537 0.64625 0.12072 0.0
C225 C 0.42032 0.63302 0.13455 0.0
C226 C 0.42482 0.61193 0.18029 0.0
C227 C 0.37905 0.66477 0.06952 0.0
C228 C 0.35676 0.69606 0.06713 0.0
C229 C 0.34477 0.70996 0.01837 0.0
C230 C 0.35631 0.69265 0.97137 0.0
C231 C 0.37895 0.66127 0.97314 0.0
C232 C 0.39083 0.64811 0.02249 0.0
C233 C 0.38699 0.63982 0.92432 0.0
C234 C 0.38493 0.60111 0.92519 0.0
C235 C 0.39572 0.65751 0.87645 0.0
C236 C 0.40218 0.6369 0.83055 0.0
C237 C 0.40012 0.59821 0.83169 0.0
C238 C 0.31723 0.74007 0.01732 0.0
C239 C 0.28747 0.73954 0.05298 0.0
C240 C 0.31986 0.76895 0.98056 0.0
C241 C 0.29318 0.79666 0.9795 0.0
C242 C 0.2633 0.79593 0.01507 0.0
C243 C 0.2609 0.76711 0.05192 0.0
C244 C 0.39156 0.58059 0.87954 0.0
H245 H 0.33542 0.61091 0.22252 0.0
H246 H 0.32786 0.64815 0.14374 0.0
H247 H 0.444 0.63856 0.10959 0.0
H248 H 0.45207 0.60199 0.18993 0.0
H249 H 0.34775 0.70892 0.10363 0.0
H250 H 0.40768 0.62359 0.0245 0.0
H251 H 0.34571 0.70211 0.93375 0.0
H252 H 0.37733 0.58656 0.96097 0.0
H253 H 0.39776 0.68725 0.87455 0.0
H254 H 0.40905 0.65121 0.79426 0.0
H255 H 0.28413 0.71723 0.08101 0.0
H256 H 0.34261 0.77019 0.95283 0.0
H257 H 0.38909 0.55088 0.88146 0.0
H258 H 0.23782 0.76514 0.07898 0.0
H259 H 0.29593 0.81864 0.95083 0.0
C260 C 0.88981 0.82246 0.29471 0.0
C261 C 0.92837 0.82313 0.28878 0.0
C262 C 0.87377 0.81179 0.34265 0.0
C263 C 0.89595 0.80123 0.38547 0.0
C264 C 0.93432 0.79964 0.37835 0.0
C265 C 0.95034 0.81072 0.33082 0.0
C266 C 0.87966 0.79438 0.43849 0.0
C267 C 0.84598 0.77561 0.44429 0.0
C268 C 0.8307 0.76977 0.49474 0.0
C269 C 0.84962 0.78259 0.53961 0.0
C270 C 0.88319 0.80163 0.53444 0.0
C271 C 0.89771 0.80767 0.48376 0.0
C272 C 0.90301 0.81585 0.58158 0.0
C273 C 0.88361 0.83205 0.62366 0.0
C274 C 0.94166 0.81418 0.58416 0.0
C275 C 0.96052 0.82893 0.62736 0.0
C276 C 0.94115 0.84537 0.66929 0.0
C277 C 0.79502 0.75015 0.50061 0.0
C278 C 0.76528 0.75853 0.46733 0.0
C279 C 0.79053 0.7228 0.53936 0.0
C280 C 0.75721 0.70371 0.54407 0.0
C281 C 0.7276 0.71164 0.51023 0.0
C282 C 0.7319 0.73954 0.47217 0.0
C283 C 0.90246 0.84652 0.6671 0.0
H284 H 0.87199 0.83113 0.26281 0.0
H285 H 0.84412 0.81334 0.34678 0.0
H286 H 0.95217 0.79083 0.41015 0.0
H287 H 0.98011 0.81112 0.3281 0.0
H288 H 0.83201 0.76487 0.40968 0.0
H289 H 0.92276 0.82374 0.47946 0.0
H290 H 0.83807 0.77788 0.57858 0.0
H291 H 0.85387 0.83414 0.62268 0.0
H292 H 0.95743 0.80146 0.55272 0.0
H293 H 0.99034 0.8279 0.62748 0.0
H294 H 0.76778 0.77992 0.43769 0.0
H295 H 0.81311 0.71549 0.5652 0.0
H296 H 0.88664 0.85846 0.6991 0.0
H297 H 0.70945 0.74669 0.44602 0.0
H298 H 0.75506 0.68195 0.57319 0.0
C299 C 0.10339 0.86193 0.31894 0.0
C300 C 0.10634 0.90058 0.31706 0.0
C301 C 0.11121 0.84293 0.36581 0.0
C302 C 0.12198 0.86237 0.41137 0.0
C303 C 0.12602 0.90082 0.40871 0.0
C304 C 0.11828 0.91967 0.36222 0.0
C305 C 0.12851 0.84346 0.46239 0.0
C306 C 0.15146 0.81257 0.46572 0.0
C307 C 0.16161 0.79831 0.51536 0.0
C308 C 0.14827 0.81532 0.56167 0.0
C309 C 0.12507 0.84611 0.55876 0.0
C310 C 0.11443 0.85903 0.50889 0.0
C311 C 0.11462 0.86712 0.60704 0.0
C312 C 0.1066 0.84918 0.65502 0.0
C313 C 0.11382 0.90588 0.60559 0.0
C314 C 0.10508 0.92615 0.65064 0.0
C315 C 0.09762 0.90827 0.69856 0.0
C316 C 0.18858 0.76773 0.51889 0.0
C317 C 0.18625 0.73724 0.48472 0.0
C318 C 0.21766 0.76948 0.55546 0.0
C319 C 0.24408 0.7417 0.55736 0.0
C320 C 0.24212 0.71144 0.52273 0.0
C321 C 0.2127 0.70937 0.48665 0.0
C322 C 0.09844 0.86961 0.7005 0.0
H323 H 0.09421 0.84654 0.28465 0.0
H324 H 0.10795 0.81327 0.36686 0.0
H325 H 0.1352 0.91646 0.4428 0.0
H326 H 0.12177 0.94932 0.36162 0.0
H327 H 0.16314 0.80105 0.42989 0.0
H328 H 0.09589 0.88225 0.50606 0.0
H329 H 0.15696 0.80526 0.59995 0.0
H330 H 0.10663 0.81941 0.65747 0.0
H331 H 0.12088 0.92081 0.56991 0.0
H332 H 0.10532 0.95595 0.64839 0.0
H333 H 0.16396 0.73494 0.45647 0.0
H334 H 0.2207 0.79293 0.58165 0.0
H335 H 0.09274 0.85525 0.73715 0.0
H336 H 0.21013 0.68622 0.45984 0.0
H337 H 0.26674 0.74459 0.58489 0.0
C338 C 0.09408 0.17829 0.69254 0.0
C339 C 0.07636 0.14394 0.69657 0.0
C340 C 0.11345 0.18774 0.64679 0.0
C341 C 0.11571 0.16293 0.60419 0.0
C342 C 0.0985 0.12829 0.60864 0.0
C343 C 0.07893 0.11893 0.65432 0.0
C344 C 0.13484 0.17375 0.55464 0.0
C345 C 0.16778 0.19415 0.5563 0.0
C346 C 0.18492 0.20632 0.50954 0.0
C347 C 0.1694 0.1966 0.46045 0.0
C348 C 0.1365 0.17624 0.45843 0.0
C349 C 0.11931 0.16509 0.5054 0.0
C350 C 0.11853 0.16793 0.40761 0.0
C351 C 0.085 0.1847 0.39511 0.0
C352 C 0.13308 0.14118 0.37364 0.0
C353 C 0.11362 0.13042 0.32842 0.0
C354 C 0.07949 0.14663 0.3161 0.0
C355 C 0.21766 0.23096 0.51248 0.0
C356 C 0.21878 0.25965 0.54987 0.0
C357 C 0.24753 0.22663 0.47765 0.0
C358 C 0.27772 0.25068 0.47995 0.0
C359 C 0.27862 0.27961 0.51704 0.0
C360 C 0.24888 0.28364 0.55215 0.0
C361 C 0.06585 0.17446 0.34955 0.0
H362 H 0.09211 0.19831 0.72421 0.0
H363 H 0.12583 0.21489 0.64429 0.0
H364 H 0.10019 0.10836 0.57683 0.0
H365 H 0.06591 0.09207 0.65669 0.0
H366 H 0.18015 0.20061 0.59419 0.0
H367 H 0.09336 0.15024 0.50338 0.0
H368 H 0.18187 0.20618 0.42396 0.0
H369 H 0.07341 0.20545 0.42101 0.0
H370 H 0.15878 0.12768 0.38313 0.0
H371 H 0.12482 0.10857 0.30416 0.0
H372 H 0.19591 0.2642 0.57662 0.0
H373 H 0.24765 0.20455 0.4488 0.0
H374 H 0.0402 0.18826 0.34085 0.0
H375 H 0.24832 0.30603 0.58048 0.0
H376 H 0.30041 0.24658 0.45272 0.0
C377 C 0.85553 0.11197 0.69596 0.0
C378 C 0.88988 0.09581 0.70613 0.0
C379 C 0.8502 0.13311 0.65067 0.0
C380 C 0.87905 0.13855 0.61435 0.0
C381 C 0.9135 0.12266 0.62452 0.0
C382 C 0.91888 0.10156 0.67001 0.0
C383 C 0.87236 0.15939 0.56497 0.0
C384 C 0.85145 0.19174 0.56628 0.0
C385 C 0.84058 0.20918 0.51937 0.0
C386 C 0.85199 0.19446 0.47057 0.0
C387 C 0.87356 0.16242 0.46859 0.0
C388 C 0.88387 0.14525 0.51603 0.0
C389 C 0.8824 0.14465 0.41728 0.0
C390 C 0.85477 0.13951 0.37913 0.0
C391 C 0.91773 0.13047 0.40756 0.0
C392 C 0.92503 0.11085 0.36113 0.0
C393 C 0.89708 0.10472 0.32361 0.0
C394 C 0.81474 0.24075 0.52153 0.0
C395 C 0.78488 0.24011 0.55703 0.0
C396 C 0.81874 0.27094 0.48723 0.0
C397 C 0.79298 0.29947 0.48773 0.0
C398 C 0.76272 0.29837 0.52256 0.0
C399 C 0.75926 0.26858 0.55761 0.0
C400 C 0.86198 0.1197 0.33291 0.0
H401 H 0.83238 0.10751 0.72229 0.0
H402 H 0.8231 0.14437 0.64335 0.0
H403 H 0.93628 0.1266 0.59734 0.0
H404 H 0.94578 0.0898 0.6769 0.0
H405 H 0.84302 0.203 0.60411 0.0
H406 H 0.89891 0.11954 0.51471 0.0
H407 H 0.84308 0.20719 0.43405 0.0
H408 H 0.82712 0.14959 0.38592 0.0
H409 H 0.93963 0.13432 0.43611 0.0
H410 H 0.95254 0.10029 0.3548 0.0
H411 H 0.78051 0.21693 0.58326 0.0
H412 H 0.84168 0.27242 0.45985 0.0
H413 H 0.83963 0.11506 0.30535 0.0
H414 H 0.73588 0.26646 0.58413 0.0
H415 H 0.79654 0.32224 0.46053 0.0
C416 C 0.152 0.14502 0.05575 0.0
C417 C 0.13423 0.13408 0.0089 0.0
H418 H 0.19565 0.17644 0.09073 0.0
C419 C 0.14682 0.1484 0.9604 0.0
H420 H 0.14288 0.13477 0.09383 0.0
C421 C 0.17723 0.17212 0.95865 0.0
C422 C 0.19573 0.18209 0.00534 0.0
H423 H 0.13375 0.14065 0.92352 0.0
H424 H 0.18695 0.1817 0.92053 0.0
C425 C 0.1824 0.16874 0.05397 0.0
C426 C 0.81484 0.15283 0.9723 0.0
C427 C 0.83223 0.14025 0.01851 0.0
H428 H 0.77208 0.18557 0.93891 0.0
C429 C 0.81696 0.14959 0.06787 0.0
H430 H 0.82573 0.14614 0.93356 0.0
C431 C 0.7858 0.17207 0.07088 0.0
C432 C 0.7692 0.18566 0.02463 0.0
H433 H 0.8295 0.14021 0.10426 0.0
H434 H 0.77496 0.17917 0.10948 0.0
C435 C 0.78379 0.17525 0.97533 0.0
C436 C 0.84762 0.85042 0.07796 0.0
C437 C 0.86163 0.86205 0.02879 0.0
H438 H 0.80914 0.8156 0.11889 0.0
C439 C 0.84767 0.84574 0.98244 0.0
H440 H 0.85786 0.86226 0.11447 0.0
C441 C 0.81985 0.81915 0.98502 0.0
C442 C 0.80519 0.8081 0.03398 0.0
H443 H 0.85776 0.85393 0.94385 0.0
H444 H 0.80906 0.80805 0.94837 0.0
C445 C 0.8196 0.8238 0.08051 0.0
C446 C 0.18833 0.85677 0.95954 0.0
C447 C 0.17022 0.86864 0.00574 0.0
H448 H 0.2316 0.8244 0.92626 0.0
C449 C 0.18519 0.85935 0.05514 0.0
H450 H 0.17771 0.86355 0.92077 0.0
C451 C 0.21642 0.83706 0.05821 0.0
C452 C 0.23333 0.82359 0.01198 0.0
H453 H 0.17214 0.86825 0.0915 0.0
H454 H 0.22685 0.82968 0.09686 0.0
C455 C 0.21947 0.83449 0.96263 0.0
C456 C 0.64811 0.65423 0.56349 0.0
C457 C 0.63178 0.64139 0.51652 0.0
H458 H 0.69083 0.68702 0.59841 0.0
C459 C 0.64553 0.65409 0.46778 0.0
H460 H 0.63805 0.64522 0.60172 0.0
C461 C 0.6759 0.67773 0.46592 0.0
C462 C 0.69319 0.68942 0.51275 0.0
H463 H 0.63364 0.64483 0.43079 0.0
H464 H 0.6867 0.68566 0.42762 0.0
C465 C 0.67851 0.678 0.5616 0.0
C466 C 0.31793 0.64769 0.56992 0.0
C467 C 0.33289 0.63524 0.52182 0.0
H468 H 0.27714 0.68089 0.608 0.0
C469 C 0.31598 0.64589 0.47425 0.0
H470 H 0.33007 0.63983 0.60732 0.0
C471 C 0.28582 0.66965 0.47466 0.0
C472 C 0.27176 0.68328 0.52264 0.0
H473 H 0.32672 0.63682 0.43643 0.0
H474 H 0.27447 0.67847 0.4372 0.0
C475 C 0.28771 0.67142 0.57031 0.0
C476 C 0.35077 0.3477 0.56603 0.0
C477 C 0.36455 0.362 0.51825 0.0
H478 H 0.3133 0.30999 0.60316 0.0
C479 C 0.35118 0.34758 0.47026 0.0
H480 H 0.36066 0.35795 0.6037 0.0
C481 C 0.324 0.32026 0.46998 0.0
C482 C 0.30951 0.30662 0.51767 0.0
H483 H 0.36118 0.35786 0.43266 0.0
H484 H 0.31353 0.31067 0.43229 0.0
C485 C 0.32353 0.32031 0.56572 0.0
C486 C 0.68846 0.35984 0.46715 0.0
C487 C 0.67 0.37126 0.51327 0.0
H488 H 0.73205 0.32788 0.43398 0.0
C489 C 0.68468 0.36169 0.56276 0.0
H490 H 0.6781 0.36692 0.42834 0.0
C491 C 0.7159 0.33938 0.56591 0.0
C492 C 0.73312 0.32634 0.51969 0.0
H493 H 0.67132 0.37023 0.59906 0.0
H494 H 0.72601 0.33155 0.60456 0.0
C495 C 0.71965 0.33767 0.47033 0.0
C496 C 0.9984 0.1215 0.22799 0.0
C497 C 0.01601 0.11015 0.18128 0.0
H498 H 0.00431 0.14051 0.3074 0.0
C499 C 0.05462 0.11065 0.17923 0.0
H500 H 0.96865 0.12118 0.23109 0.0
C501 C 0.07526 0.12272 0.22261 0.0
C502 C 0.05769 0.13401 0.26951 0.0
H503 H 0.06898 0.10229 0.14396 0.0
H504 H 0.10497 0.12364 0.21897 0.0
C505 C 0.01894 0.13293 0.2717 0.0
C506 C 0.93137 0.02774 0.23457 0.0
C507 C 0.91547 0.03709 0.18588 0.0
H508 H 0.938 0.04164 0.31623 0.0
C509 C 0.89354 0.06868 0.18263 0.0
H510 H 0.94826 0.00336 0.2382 0.0
C511 C 0.88804 0.09095 0.22699 0.0
C512 C 0.90401 0.08179 0.27586 0.0
H513 H 0.88024 0.07592 0.14593 0.0
H514 H 0.87136 0.11542 0.22288 0.0
C515 C 0.92579 0.04991 0.27908 0.0
C516 C 0.99852 0.84512 0.18186 0.0
C517 C 0.98391 0.87743 0.15987 0.0
H518 H 0.99186 0.80168 0.2381 0.0
C519 C 0.94939 0.88963 0.17733 0.0
H520 H 0.02493 0.83462 0.16889 0.0
C521 C 0.93066 0.87117 0.21764 0.0
C522 C 0.9459 0.83968 0.24117 0.0
H523 H 0.93737 0.91421 0.16156 0.0
H524 H 0.90506 0.8827 0.23191 0.0
C525 C 0.97962 0.8263 0.22175 0.0
C526 C 0.10281 0.9315 0.17395 0.0
C527 C 0.08331 0.96466 0.17822 0.0
H528 H 0.12535 0.88496 0.21452 0.0
C529 C 0.07027 0.97581 0.22797 0.0
H530 H 0.11386 0.92276 0.13637 0.0
C531 C 0.07688 0.95439 0.27264 0.0
C532 C 0.09694 0.92148 0.26864 0.0
H533 H 0.05491 0.00115 0.23241 0.0
H534 H 0.06643 0.96373 0.31048 0.0
C535 C 0.10942 0.90995 0.21871 0.0
C536 C 0.10722 0.94663 0.8368 0.0
C537 C 0.08205 0.97593 0.83603 0.0
H538 H 0.13129 0.90178 0.79405 0.0
C539 C 0.06122 0.98212 0.79012 0.0
H540 H 0.12379 0.94124 0.87147 0.0
C541 C 0.06569 0.95959 0.74579 0.0
C542 C 0.09087 0.93036 0.74668 0.0
H543 H 0.04148 0.00436 0.78836 0.0
H544 H 0.04949 0.96503 0.71074 0.0
C545 C 0.11137 0.92387 0.79268 0.0
C546 C 0.99784 0.11178 0.78403 0.0
C547 C 0.01135 0.12021 0.83467 0.0
H548 H 0.00794 0.11278 0.70058 0.0
C549 C 0.04683 0.13548 0.83967 0.0
H550 H 0.97068 0.09991 0.77895 0.0
C551 C 0.06811 0.14278 0.79486 0.0
C552 C 0.05444 0.13475 0.7442 0.0
H553 H 0.05816 0.14205 0.87817 0.0
H554 H 0.09535 0.15461 0.79986 0.0
C555 C 0.01924 0.1189 0.73923 0.0
C556 C 0.88248 0.05932 0.84633 0.0
C557 C 0.90368 0.02712 0.84343 0.0
H558 H 0.8624 0.10679 0.80591 0.0
C559 C 0.92056 0.01785 0.79524 0.0
H560 H 0.86917 0.06731 0.88292 0.0
C561 C 0.91616 0.04012 0.75078 0.0
C562 C 0.89504 0.0724 0.75364 0.0
H563 H 0.93731 0.99345 0.79175 0.0
H564 H 0.929 0.03176 0.71402 0.0
C565 C 0.87838 0.08182 0.80203 0.0
C566 C 0.01073 0.85823 0.77963 0.0
C567 C 0.99809 0.89063 0.80388 0.0
H568 H 0.00234 0.81814 0.71883 0.0
C569 C 0.96716 0.90841 0.783 0.0
H570 H 0.03448 0.84381 0.7949 0.0
C571 C 0.949 0.89403 0.73896 0.0
C572 C 0.96119 0.86126 0.71514 0.0
H573 H 0.95684 0.93335 0.80086 0.0
H574 H 0.92548 0.90872 0.72348 0.0
C575 C 0.99242 0.84364 0.7358 0.0
C576 C 0.49698 0.6256 0.73689 0.0
C577 C 0.51485 0.61291 0.69111 0.0
H578 H 0.50252 0.64774 0.81467 0.0
C579 C 0.55348 0.61388 0.68907 0.0
H580 H 0.46724 0.6249 0.73998 0.0
C581 C 0.57386 0.62779 0.73153 0.0
C582 C 0.556 0.64063 0.77732 0.0
H583 H 0.56804 0.60442 0.65452 0.0
H584 H 0.60358 0.62892 0.72811 0.0
C585 C 0.51728 0.63903 0.7796 0.0
C586 C 0.39401 0.56498 0.68976 0.0
C587 C 0.41548 0.53298 0.6912 0.0
H588 H 0.37247 0.61087 0.73298 0.0
C589 C 0.43172 0.52232 0.73909 0.0
H590 H 0.38046 0.57318 0.65366 0.0
C591 C 0.4271 0.54374 0.78456 0.0
C592 C 0.40596 0.57609 0.78304 0.0
H593 H 0.44847 0.49775 0.74118 0.0
H594 H 0.44036 0.53517 0.82083 0.0
C595 C 0.38947 0.58648 0.73514 0.0
C596 C 0.50213 0.39183 0.72487 0.0
C597 C 0.48591 0.39166 0.67459 0.0
H598 H 0.49649 0.37822 0.8066 0.0
C599 C 0.45074 0.37625 0.66821 0.0
H600 H 0.52929 0.40359 0.73075 0.0
C601 C 0.43197 0.36116 0.71146 0.0
C602 C 0.44819 0.36122 0.76196 0.0
H603 H 0.43845 0.37445 0.6295 0.0
H604 H 0.40524 0.34857 0.70503 0.0
C605 C 0.48338 0.37707 0.76818 0.0
C606 C 0.57566 0.48142 0.73334 0.0
C607 C 0.5881 0.47038 0.6832 0.0
H608 H 0.57314 0.46934 0.81598 0.0
C609 C 0.60823 0.43764 0.67846 0.0
H610 H 0.55991 0.50648 0.73819 0.0
C611 C 0.61569 0.41618 0.72304 0.0
C612 C 0.60358 0.42751 0.77324 0.0
H613 H 0.61902 0.42916 0.64064 0.0
H614 H 0.63181 0.39135 0.71848 0.0
C615 C 0.58326 0.46019 0.77785 0.0
C616 C 0.5921 0.4796 0.31167 0.0
C617 C 0.55454 0.4832 0.32409 0.0
H618 H 0.63251 0.45427 0.26206 0.0
C619 C 0.52847 0.46327 0.29444 0.0
H620 H 0.61295 0.49446 0.33379 0.0
C621 C 0.5398 0.43989 0.25357 0.0
C622 C 0.57736 0.43648 0.24127 0.0
H623 H 0.49936 0.46554 0.303 0.0
H624 H 0.5192 0.42498 0.23103 0.0
C625 C 0.60336 0.45656 0.27066 0.0
C626 C 0.50051 0.59992 0.29899 0.0
C627 C 0.4763 0.62652 0.31935 0.0
H628 H 0.54339 0.58785 0.24366 0.0
C629 C 0.47539 0.66155 0.29594 0.0
H630 H 0.50173 0.57258 0.31595 0.0
C631 C 0.49914 0.67023 0.25424 0.0
C632 C 0.52428 0.64406 0.23511 0.0
H633 H 0.45677 0.68252 0.31038 0.0
H634 H 0.4979 0.69751 0.23705 0.0
C635 C 0.5243 0.60861 0.25739 0.0
C636 C 0.37945 0.55908 0.34679 0.0
C637 C 0.40286 0.52847 0.34387 0.0
H638 H 0.35959 0.60753 0.30871 0.0
C639 C 0.42356 0.52268 0.29764 0.0
H640 H 0.3633 0.56444 0.38199 0.0
C641 C 0.42115 0.54719 0.25534 0.0
C642 C 0.39804 0.57807 0.25838 0.0
H643 H 0.44173 0.49926 0.29409 0.0
H644 H 0.437 0.54154 0.21995 0.0
C645 C 0.37726 0.58375 0.30466 0.0
C646 C 0.50274 0.34749 0.29979 0.0
C647 C 0.48809 0.37756 0.32759 0.0
H648 H 0.49634 0.30982 0.23538 0.0
C649 C 0.45452 0.39266 0.31102 0.0
H650 H 0.52849 0.33514 0.31181 0.0
C651 C 0.4364 0.37862 0.26671 0.0
C652 C 0.45122 0.34881 0.23835 0.0
H653 H 0.44263 0.41597 0.33142 0.0
H654 H 0.41124 0.39179 0.25396 0.0
C655 C 0.48442 0.33316 0.25577 0.0
loop_
_geom_bond_atom_site_label_1
_geom_bond_atom_site_label_2
_geom_bond_distance
_geom_bond_site_symmetry_2
_ccdc_geom_bond_type
Zn0 O2 1.933 1_556 S
Zn0 O20 1.985 . S
Zn0 O31 1.955 . S
Zn1 O2 1.911 . S
Zn1 O21 1.970 . S
Zn1 O37 1.945 . S
Zn1 O44 1.981 . S
O2 Zn0 1.933 1_554 S
O2 Zn1 1.911 . S
O2 H3 0.841 1_655 S
H3 O2 0.841 1_455 S
C4 O5 1.246 . S
C4 O33 1.276 1_545 S
O5 C4 1.246 . S
Zn6 O8 1.911 . S
Zn6 O23 1.970 . S
Zn6 O40 1.945 . S
Zn6 O47 1.981 . S
Zn7 O8 1.933 1_556 S
Zn7 O22 1.985 . S
Zn7 O29 1.955 . S
O8 Zn6 1.911 . S
O8 Zn7 1.933 1_554 S
O8 H9 0.841 1_455 S
H9 O8 0.841 1_655 S
Zn10 O11 1.933 1_556 S
Zn10 O24 1.985 . S
Zn10 O33 1.955 . S
O11 Zn10 1.933 1_554 S
O11 Zn12 1.911 . S
O11 H13 0.841 1_565 S
Zn12 O11 1.911 . S
Zn12 O25 1.970 . S
Zn12 O41 1.981 . S
Zn12 O43 1.945 . S
H13 O11 0.841 1_545 S
Zn14 O15 1.933 1_556 S
Zn14 O27 1.985 . S
Zn14 O35 1.955 . S
O15 Zn14 1.933 1_554 S
O15 H16 0.841 1_545 S
O15 Zn17 1.911 . S
H16 O15 0.841 1_565 S
Zn17 O15 1.911 . S
Zn17 O28 1.970 . S
Zn17 O38 1.981 . S
Zn17 O46 1.945 . S
C18 O19 1.246 . S
C18 O35 1.276 1_565 S
O19 C18 1.246 . S
O20 Zn0 1.985 . S
O20 C30 1.245 1_556 S
O21 Zn1 1.970 . S
O21 C30 1.263 . S
O22 Zn7 1.985 . S
O22 C34 1.245 1_556 S
O23 Zn6 1.970 . S
O23 C34 1.263 . S
O24 Zn10 1.985 . S
O24 C39 1.245 1_556 S
O25 Zn12 1.970 . S
O25 C39 1.263 . S
C26 O37 1.262 1_455 S
C26 O38 1.245 . S
O27 Zn14 1.985 . S
O27 C45 1.245 1_556 S
O28 Zn17 1.970 . S
O28 C45 1.263 . S
O29 Zn7 1.955 . S
O29 C48 1.276 1_455 S
C30 O20 1.245 1_554 S
C30 O21 1.263 . S
O31 Zn0 1.955 . S
O31 C50 1.276 1_655 S
C32 O40 1.262 1_655 S
C32 O41 1.245 . S
O33 C4 1.276 1_565 S
O33 Zn10 1.955 . S
C34 O22 1.245 1_554 S
C34 O23 1.263 . S
O35 Zn14 1.955 . S
O35 C18 1.276 1_545 S
C36 O43 1.262 1_545 S
C36 O44 1.245 . S
O37 Zn1 1.945 . S
O37 C26 1.262 1_655 S
O38 Zn17 1.981 . S
O38 C26 1.245 . S
C39 O24 1.245 1_554 S
C39 O25 1.263 . S
O40 Zn6 1.945 . S
O40 C32 1.262 1_455 S
O41 Zn12 1.981 . S
O41 C32 1.245 . S
C42 O46 1.262 1_565 S
C42 O47 1.245 . S
O43 Zn12 1.945 . S
O43 C36 1.262 1_565 S
O44 Zn1 1.981 . S
O44 C36 1.245 . S
C45 O27 1.245 1_554 S
C45 O28 1.263 . S
O46 Zn17 1.945 . S
O46 C42 1.262 1_545 S
O47 Zn6 1.981 . S
O47 C42 1.245 . S
C48 O29 1.276 1_655 S
C48 O49 1.246 . S
O49 C48 1.246 . S
C50 O31 1.276 1_455 S
C50 O51 1.246 . S
O51 C50 1.246 . S
Zn52 O54 1.933 . S
Zn52 O72 1.985 . S
Zn52 O83 1.955 . S
Zn53 O54 1.911 . S
Zn53 O73 1.970 . S
Zn53 O89 1.945 . S
Zn53 O96 1.981 . S
O54 Zn52 1.933 . S
O54 Zn53 1.911 . S
O54 H55 0.841 . S
H55 O54 0.841 . S
C56 O57 1.246 . S
C56 O85 1.276 . S
O57 C56 1.246 . S
Zn58 O60 1.911 . S
Zn58 O75 1.970 . S
Zn58 O92 1.945 . S
Zn58 O99 1.981 . S
Zn59 O60 1.933 . S
Zn59 O74 1.985 . S
Zn59 O81 1.955 . S
O60 Zn58 1.911 . S
O60 Zn59 1.933 . S
O60 H61 0.841 . S
H61 O60 0.841 . S
Zn62 O63 1.933 . S
Zn62 O76 1.985 . S
Zn62 O85 1.955 . S
O63 Zn62 1.933 . S
O63 Zn64 1.911 . S
O63 H65 0.841 . S
Zn64 O63 1.911 . S
Zn64 O77 1.970 . S
Zn64 O93 1.981 . S
Zn64 O95 1.945 . S
H65 O63 0.841 . S
Zn66 O67 1.933 . S
Zn66 O79 1.985 . S
Zn66 O87 1.955 . S
O67 Zn66 1.933 . S
O67 H68 0.841 . S
O67 Zn69 1.911 . S
H68 O67 0.841 . S
Zn69 O67 1.911 . S
Zn69 O80 1.970 . S
Zn69 O90 1.981 . S
Zn69 O98 1.945 . S
C70 O71 1.246 . S
C70 O87 1.276 . S
O71 C70 1.246 . S
O72 Zn52 1.985 . S
O72 C82 1.245 . S
O73 Zn53 1.970 . S
O73 C82 1.263 . S
O74 Zn59 1.985 . S
O74 C86 1.245 . S
O75 Zn58 1.970 . S
O75 C86 1.263 . S
O76 Zn62 1.985 . S
O76 C91 1.245 . S
O77 Zn64 1.970 . S
O77 C91 1.263 . S
C78 O89 1.262 . S
C78 O90 1.245 . S
O79 Zn66 1.985 . S
O79 C97 1.245 . S
O80 Zn69 1.970 . S
O80 C97 1.263 . S
O81 Zn59 1.955 . S
O81 C100 1.276 . S
C82 O72 1.245 . S
C82 O73 1.263 . S
O83 Zn52 1.955 . S
O83 C102 1.276 . S
C84 O92 1.262 . S
C84 O93 1.245 . S
O85 C56 1.276 . S
O85 Zn62 1.955 . S
C86 O74 1.245 . S
C86 O75 1.263 . S
O87 Zn66 1.955 . S
O87 C70 1.276 . S
C88 O95 1.262 . S
C88 O96 1.245 . S
O89 Zn53 1.945 . S
O89 C78 1.262 . S
O90 Zn69 1.981 . S
O90 C78 1.245 . S
C91 O76 1.245 . S
C91 O77 1.263 . S
O92 Zn58 1.945 . S
O92 C84 1.262 . S
O93 Zn64 1.981 . S
O93 C84 1.245 . S
C94 O98 1.262 . S
C94 O99 1.245 . S
O95 Zn64 1.945 . S
O95 C88 1.262 . S
O96 Zn53 1.981 . S
O96 C88 1.245 . S
C97 O79 1.245 . S
C97 O80 1.263 . S
O98 Zn69 1.945 . S
O98 C94 1.262 . S
O99 Zn58 1.981 . S
O99 C94 1.245 . S
C100 O81 1.276 . S
C100 O101 1.246 . S
O101 C100 1.246 . S
C102 O83 1.276 . S
C102 O103 1.246 . S
O103 C102 1.246 . S
C104 C105 1.386 . S
C104 C106 1.397 . S
C104 H128 0.931 . S
C105 C104 1.386 . S
C105 C109 1.397 . S
C106 C104 1.397 . S
C106 C107 1.384 . S
C106 H129 0.930 . S
C107 C106 1.384 . S
C107 C108 1.377 . S
C107 C110 1.481 . S
C108 C107 1.377 . S
C108 C109 1.389 . S
C108 H130 0.929 . S
C109 C105 1.397 . S
C109 C108 1.389 . S
C109 H131 0.931 . S
C110 C107 1.481 . S
C110 C111 1.387 . S
C110 C115 1.390 1_556 S
C111 C110 1.387 . S
C111 C112 1.401 1_556 S
C111 H132 0.930 . S
C112 C111 1.401 1_554 S
C112 C113 1.376 . S
C112 C121 1.511 . S
C113 C112 1.376 . S
C113 C114 1.392 . S
C113 H134 0.931 . S
C114 C113 1.392 . S
C114 C115 1.361 . S
C114 C116 1.500 . S
C115 C110 1.390 1_554 S
C115 C114 1.361 . S
C115 H133 0.931 . S
C116 C114 1.500 . S
C116 C117 1.371 . S
C116 C118 1.365 . S
C117 C116 1.371 . S
C117 C127 1.386 . S
C117 H135 0.931 . S
C118 C116 1.365 . S
C118 C119 1.409 . S
C118 H136 0.929 . S
C119 C118 1.409 . S
C119 C120 1.380 . S
C119 H137 0.930 . S
C120 C119 1.380 . S
C120 C127 1.357 . S
C121 C112 1.511 . S
C121 C122 1.341 1_554 S
C121 C123 1.371 . S
C122 C121 1.341 1_556 S
C122 C126 1.394 . S
C122 H138 0.930 . S
C123 C121 1.371 . S
C123 C124 1.392 . S
C123 H139 0.931 . S
C124 C123 1.392 . S
C124 C125 1.331 . S
C124 H142 0.932 . S
C125 C124 1.331 . S
C125 C126 1.336 1_554 S
C126 C122 1.394 . S
C126 C125 1.336 1_556 S
C126 H141 0.929 . S
C127 C117 1.386 . S
C127 C120 1.357 . S
C127 H140 0.928 . S
H128 C104 0.931 . S
H129 C106 0.930 . S
H130 C108 0.929 . S
H131 C109 0.931 . S
H132 C111 0.930 . S
H133 C115 0.931 . S
H134 C113 0.931 . S
H135 C117 0.931 . S
H136 C118 0.929 . S
H137 C119 0.930 . S
H138 C122 0.930 . S
H139 C123 0.931 . S
H140 C127 0.928 . S
H141 C126 0.929 . S
H142 C124 0.932 . S
C143 C144 1.386 . S
C143 C145 1.397 . S
C143 H167 0.931 . S
C144 C143 1.386 . S
C144 C148 1.397 . S
C145 C143 1.397 . S
C145 C146 1.384 . S
C145 H168 0.930 . S
C146 C145 1.384 . S
C146 C147 1.377 . S
C146 C149 1.481 . S
C147 C146 1.377 . S
C147 C148 1.389 . S
C147 H169 0.929 . S
C148 C144 1.397 . S
C148 C147 1.389 . S
C148 H170 0.931 . S
C149 C146 1.481 . S
C149 C150 1.387 . S
C149 C154 1.390 1_556 S
C150 C149 1.387 . S
C150 C151 1.401 1_556 S
C150 H171 0.930 . S
C151 C150 1.401 1_554 S
C151 C152 1.376 . S
C151 C160 1.511 . S
C152 C151 1.376 . S
C152 C153 1.392 . S
C152 H173 0.931 . S
C153 C152 1.392 . S
C153 C154 1.361 . S
C153 C155 1.500 . S
C154 C149 1.390 1_554 S
C154 C153 1.361 . S
C154 H172 0.931 . S
C155 C153 1.500 . S
C155 C156 1.371 . S
C155 C157 1.365 . S
C156 C155 1.371 . S
C156 C166 1.386 . S
C156 H174 0.931 . S
C157 C155 1.365 . S
C157 C158 1.409 . S
C157 H175 0.929 . S
C158 C157 1.409 . S
C158 C159 1.380 . S
C158 H176 0.930 . S
C159 C158 1.380 . S
C159 C166 1.357 . S
C160 C151 1.511 . S
C160 C161 1.341 1_554 S
C160 C162 1.371 . S
C161 C160 1.341 1_556 S
C161 C165 1.394 . S
C161 H177 0.930 . S
C162 C160 1.371 . S
C162 C163 1.392 . S
C162 H178 0.931 . S
C163 C162 1.392 . S
C163 C164 1.331 . S
C163 H181 0.932 . S
C164 C163 1.331 . S
C164 C165 1.336 1_554 S
C165 C161 1.394 . S
C165 C164 1.336 1_556 S
C165 H180 0.929 . S
C166 C156 1.386 . S
C166 C159 1.357 . S
C166 H179 0.928 . S
H167 C143 0.931 . S
H168 C145 0.930 . S
H169 C147 0.929 . S
H170 C148 0.931 . S
H171 C150 0.930 . S
H172 C154 0.931 . S
H173 C152 0.931 . S
H174 C156 0.931 . S
H175 C157 0.929 . S
H176 C158 0.930 . S
H177 C161 0.930 . S
H178 C162 0.931 . S
H179 C166 0.928 . S
H180 C165 0.929 . S
H181 C163 0.932 . S
C182 C183 1.386 . S
C182 C184 1.397 . S
C182 H206 0.931 . S
C183 C182 1.386 . S
C183 C187 1.397 . S
C184 C182 1.397 . S
C184 C185 1.384 . S
C184 H207 0.930 . S
C185 C184 1.384 . S
C185 C186 1.377 . S
C185 C188 1.481 . S
C186 C185 1.377 . S
C186 C187 1.389 . S
C186 H208 0.929 . S
C187 C183 1.397 . S
C187 C186 1.389 . S
C187 H209 0.931 . S
C188 C185 1.481 . S
C188 C189 1.387 . S
C188 C193 1.390 . S
C189 C188 1.387 . S
C189 C190 1.401 . S
C189 H210 0.930 . S
C190 C189 1.401 . S
C190 C191 1.376 1_554 S
C190 C199 1.511 . S
C191 C190 1.376 1_556 S
C191 C192 1.392 . S
C191 H212 0.931 . S
C192 C191 1.392 . S
C192 C193 1.361 1_556 S
C192 C194 1.500 . S
C193 C188 1.390 . S
C193 C192 1.361 1_554 S
C193 H211 0.931 . S
C194 C192 1.500 . S
C194 C195 1.371 . S
C194 C196 1.365 . S
C195 C194 1.371 . S
C195 C205 1.386 . S
C195 H213 0.931 . S
C196 C194 1.365 . S
C196 C197 1.409 . S
C196 H214 0.929 . S
C197 C196 1.409 . S
C197 C198 1.380 . S
C197 H215 0.930 . S
C198 C197 1.380 . S
C198 C205 1.357 . S
C199 C190 1.511 . S
C199 C200 1.341 . S
C199 C201 1.371 1_554 S
C200 C199 1.341 . S
C200 C204 1.394 . S
C200 H216 0.930 . S
C201 C199 1.371 1_556 S
C201 C202 1.392 . S
C201 H217 0.931 . S
C202 C201 1.392 . S
C202 C203 1.331 1_556 S
C202 H220 0.932 . S
C203 C202 1.331 1_554 S
C203 C204 1.336 . S
C204 C200 1.394 . S
C204 C203 1.336 . S
C204 H219 0.929 . S
C205 C195 1.386 . S
C205 C198 1.357 . S
C205 H218 0.928 . S
H206 C182 0.931 . S
H207 C184 0.930 . S
H208 C186 0.929 . S
H209 C187 0.931 . S
H210 C189 0.930 . S
H211 C193 0.931 . S
H212 C191 0.931 . S
H213 C195 0.931 . S
H214 C196 0.929 . S
H215 C197 0.930 . S
H216 C200 0.930 . S
H217 C201 0.931 . S
H218 C205 0.928 . S
H219 C204 0.929 . S
H220 C202 0.932 . S
C221 C222 1.386 . S
C221 C223 1.397 . S
C221 H245 0.931 . S
C222 C221 1.386 . S
C222 C226 1.397 . S
C223 C221 1.397 . S
C223 C224 1.384 . S
C223 H246 0.930 . S
C224 C223 1.384 . S
C224 C225 1.377 . S
C224 C227 1.481 . S
C225 C224 1.377 . S
C225 C226 1.389 . S
C225 H247 0.929 . S
C226 C222 1.397 . S
C226 C225 1.389 . S
C226 H248 0.931 . S
C227 C224 1.481 . S
C227 C228 1.387 . S
C227 C232 1.390 . S
C228 C227 1.387 . S
C228 C229 1.401 . S
C228 H249 0.930 . S
C229 C228 1.401 . S
C229 C230 1.376 1_554 S
C229 C238 1.511 . S
C230 C229 1.376 1_556 S
C230 C231 1.392 . S
C230 H251 0.931 . S
C231 C230 1.392 . S
C231 C232 1.361 1_556 S
C231 C233 1.500 . S
C232 C227 1.390 . S
C232 C231 1.361 1_554 S
C232 H250 0.931 . S
C233 C231 1.500 . S
C233 C234 1.371 . S
C233 C235 1.365 . S
C234 C233 1.371 . S
C234 C244 1.386 . S
C234 H252 0.931 . S
C235 C233 1.365 . S
C235 C236 1.409 . S
C235 H253 0.929 . S
C236 C235 1.409 . S
C236 C237 1.380 . S
C236 H254 0.930 . S
C237 C236 1.380 . S
C237 C244 1.357 . S
C238 C229 1.511 . S
C238 C239 1.341 . S
C238 C240 1.371 1_554 S
C239 C238 1.341 . S
C239 C243 1.394 . S
C239 H255 0.930 . S
C240 C238 1.371 1_556 S
C240 C241 1.392 . S
C240 H256 0.931 . S
C241 C240 1.392 . S
C241 C242 1.331 1_556 S
C241 H259 0.932 . S
C242 C241 1.331 1_554 S
C242 C243 1.336 . S
C243 C239 1.394 . S
C243 C242 1.336 . S
C243 H258 0.929 . S
C244 C234 1.386 . S
C244 C237 1.357 . S
C244 H257 0.928 . S
H245 C221 0.931 . S
H246 C223 0.930 . S
H247 C225 0.929 . S
H248 C226 0.931 . S
H249 C228 0.930 . S
H250 C232 0.931 . S
H251 C230 0.931 . S
H252 C234 0.931 . S
H253 C235 0.929 . S
H254 C236 0.930 . S
H255 C239 0.930 . S
H256 C240 0.931 . S
H257 C244 0.928 . S
H258 C243 0.929 . S
H259 C241 0.932 . S
C260 C261 1.386 . S
C260 C262 1.397 . S
C260 H284 0.931 . S
C261 C260 1.386 . S
C261 C265 1.397 . S
C262 C260 1.397 . S
C262 C263 1.384 . S
C262 H285 0.930 . S
C263 C262 1.384 . S
C263 C264 1.377 . S
C263 C266 1.481 . S
C264 C263 1.377 . S
C264 C265 1.389 . S
C264 H286 0.929 . S
C265 C261 1.397 . S
C265 C264 1.389 . S
C265 H287 0.931 . S
C266 C263 1.481 . S
C266 C267 1.387 . S
C266 C271 1.390 . S
C267 C266 1.387 . S
C267 C268 1.401 . S
C267 H288 0.930 . S
C268 C267 1.401 . S
C268 C269 1.376 . S
C268 C277 1.511 . S
C269 C268 1.376 . S
C269 C270 1.392 . S
C269 H290 0.931 . S
C270 C269 1.392 . S
C270 C271 1.361 . S
C270 C272 1.500 . S
C271 C266 1.390 . S
C271 C270 1.361 . S
C271 H289 0.931 . S
C272 C270 1.500 . S
C272 C273 1.371 . S
C272 C274 1.365 . S
C273 C272 1.371 . S
C273 C283 1.386 . S
C273 H291 0.931 . S
C274 C272 1.365 . S
C274 C275 1.409 . S
C274 H292 0.929 . S
C275 C274 1.409 . S
C275 C276 1.380 . S
C275 H293 0.930 . S
C276 C275 1.380 . S
C276 C283 1.357 . S
C277 C268 1.511 . S
C277 C278 1.341 . S
C277 C279 1.371 . S
C278 C277 1.341 . S
C278 C282 1.394 . S
C278 H294 0.930 . S
C279 C277 1.371 . S
C279 C280 1.392 . S
C279 H295 0.931 . S
C280 C279 1.392 . S
C280 C281 1.331 . S
C280 H298 0.932 . S
C281 C280 1.331 . S
C281 C282 1.336 . S
C282 C278 1.394 . S
C282 C281 1.336 . S
C282 H297 0.929 . S
C283 C273 1.386 . S
C283 C276 1.357 . S
C283 H296 0.928 . S
H284 C260 0.931 . S
H285 C262 0.930 . S
H286 C264 0.929 . S
H287 C265 0.931 . S
H288 C267 0.930 . S
H289 C271 0.931 . S
H290 C269 0.931 . S
H291 C273 0.931 . S
H292 C274 0.929 . S
H293 C275 0.930 . S
H294 C278 0.930 . S
H295 C279 0.931 . S
H296 C283 0.928 . S
H297 C282 0.929 . S
H298 C280 0.932 . S
C299 C300 1.386 . S
C299 C301 1.397 . S
C299 H323 0.931 . S
C300 C299 1.386 . S
C300 C304 1.397 . S
C301 C299 1.397 . S
C301 C302 1.384 . S
C301 H324 0.930 . S
C302 C301 1.384 . S
C302 C303 1.377 . S
C302 C305 1.481 . S
C303 C302 1.377 . S
C303 C304 1.389 . S
C303 H325 0.929 . S
C304 C300 1.397 . S
C304 C303 1.389 . S
C304 H326 0.931 . S
C305 C302 1.481 . S
C305 C306 1.387 . S
C305 C310 1.390 . S
C306 C305 1.387 . S
C306 C307 1.401 . S
C306 H327 0.930 . S
C307 C306 1.401 . S
C307 C308 1.376 . S
C307 C316 1.511 . S
C308 C307 1.376 . S
C308 C309 1.392 . S
C308 H329 0.931 . S
C309 C308 1.392 . S
C309 C310 1.361 . S
C309 C311 1.500 . S
C310 C305 1.390 . S
C310 C309 1.361 . S
C310 H328 0.931 . S
C311 C309 1.500 . S
C311 C312 1.371 . S
C311 C313 1.365 . S
C312 C311 1.371 . S
C312 C322 1.386 . S
C312 H330 0.931 . S
C313 C311 1.365 . S
C313 C314 1.409 . S
C313 H331 0.929 . S
C314 C313 1.409 . S
C314 C315 1.380 . S
C314 H332 0.930 . S
C315 C314 1.380 . S
C315 C322 1.357 . S
C316 C307 1.511 . S
C316 C317 1.341 . S
C316 C318 1.371 . S
C317 C316 1.341 . S
C317 C321 1.394 . S
C317 H333 0.930 . S
C318 C316 1.371 . S
C318 C319 1.392 . S
C318 H334 0.931 . S
C319 C318 1.392 . S
C319 C320 1.331 . S
C319 H337 0.932 . S
C320 C319 1.331 . S
C320 C321 1.336 . S
C321 C317 1.394 . S
C321 C320 1.336 . S
C321 H336 0.929 . S
C322 C312 1.386 . S
C322 C315 1.357 . S
C322 H335 0.928 . S
H323 C299 0.931 . S
H324 C301 0.930 . S
H325 C303 0.929 . S
H326 C304 0.931 . S
H327 C306 0.930 . S
H328 C310 0.931 . S
H329 C308 0.931 . S
H330 C312 0.931 . S
H331 C313 0.929 . S
H332 C314 0.930 . S
H333 C317 0.930 . S
H334 C318 0.931 . S
H335 C322 0.928 . S
H336 C321 0.929 . S
H337 C319 0.932 . S
C338 C339 1.386 . S
C338 C340 1.397 . S
C338 H362 0.931 . S
C339 C338 1.386 . S
C339 C343 1.397 . S
C340 C338 1.397 . S
C340 C341 1.384 . S
C340 H363 0.930 . S
C341 C340 1.384 . S
C341 C342 1.377 . S
C341 C344 1.481 . S
C342 C341 1.377 . S
C342 C343 1.389 . S
C342 H364 0.929 . S
C343 C339 1.397 . S
C343 C342 1.389 . S
C343 H365 0.931 . S
C344 C341 1.481 . S
C344 C345 1.387 . S
C344 C349 1.390 . S
C345 C344 1.387 . S
C345 C346 1.401 . S
C345 H366 0.930 . S
C346 C345 1.401 . S
C346 C347 1.376 . S
C346 C355 1.511 . S
C347 C346 1.376 . S
C347 C348 1.392 . S
C347 H368 0.931 . S
C348 C347 1.392 . S
C348 C349 1.361 . S
C348 C350 1.500 . S
C349 C344 1.390 . S
C349 C348 1.361 . S
C349 H367 0.931 . S
C350 C348 1.500 . S
C350 C351 1.371 . S
C350 C352 1.365 . S
C351 C350 1.371 . S
C351 C361 1.386 . S
C351 H369 0.931 . S
C352 C350 1.365 . S
C352 C353 1.409 . S
C352 H370 0.929 . S
C353 C352 1.409 . S
C353 C354 1.380 . S
C353 H371 0.930 . S
C354 C353 1.380 . S
C354 C361 1.357 . S
C355 C346 1.511 . S
C355 C356 1.341 . S
C355 C357 1.371 . S
C356 C355 1.341 . S
C356 C360 1.394 . S
C356 H372 0.930 . S
C357 C355 1.371 . S
C357 C358 1.392 . S
C357 H373 0.931 . S
C358 C357 1.392 . S
C358 C359 1.331 . S
C358 H376 0.932 . S
C359 C358 1.331 . S
C359 C360 1.336 . S
C360 C356 1.394 . S
C360 C359 1.336 . S
C360 H375 0.929 . S
C361 C351 1.386 . S
C361 C354 1.357 . S
C361 H374 0.928 . S
H362 C338 0.931 . S
H363 C340 0.930 . S
H364 C342 0.929 . S
H365 C343 0.931 . S
H366 C345 0.930 . S
H367 C349 0.931 . S
H368 C347 0.931 . S
H369 C351 0.931 . S
H370 C352 0.929 . S
H371 C353 0.930 . S
H372 C356 0.930 . S
H373 C357 0.931 . S
H374 C361 0.928 . S
H375 C360 0.929 . S
H376 C358 0.932 . S
C377 C378 1.386 . S
C377 C379 1.397 . S
C377 H401 0.931 . S
C378 C377 1.386 . S
C378 C382 1.397 . S
C379 C377 1.397 . S
C379 C380 1.384 . S
C379 H402 0.930 . S
C380 C379 1.384 . S
C380 C381 1.377 . S
C380 C383 1.481 . S
C381 C380 1.377 . S
C381 C382 1.389 . S
C381 H403 0.929 . S
C382 C378 1.397 . S
C382 C381 1.389 . S
C382 H404 0.931 . S
C383 C380 1.481 . S
C383 C384 1.387 . S
C383 C388 1.390 . S
C384 C383 1.387 . S
C384 C385 1.401 . S
C384 H405 0.930 . S
C385 C384 1.401 . S
C385 C386 1.376 . S
C385 C394 1.511 . S
C386 C385 1.376 . S
C386 C387 1.392 . S
C386 H407 0.931 . S
C387 C386 1.392 . S
C387 C388 1.361 . S
C387 C389 1.500 . S
C388 C383 1.390 . S
C388 C387 1.361 . S
C388 H406 0.931 . S
C389 C387 1.500 . S
C389 C390 1.371 . S
C389 C391 1.365 . S
C390 C389 1.371 . S
C390 C400 1.386 . S
C390 H408 0.931 . S
C391 C389 1.365 . S
C391 C392 1.409 . S
C391 H409 0.929 . S
C392 C391 1.409 . S
C392 C393 1.380 . S
C392 H410 0.930 . S
C393 C392 1.380 . S
C393 C400 1.357 . S
C394 C385 1.511 . S
C394 C395 1.341 . S
C394 C396 1.371 . S
C395 C394 1.341 . S
C395 C399 1.394 . S
C395 H411 0.930 . S
C396 C394 1.371 . S
C396 C397 1.392 . S
C396 H412 0.931 . S
C397 C396 1.392 . S
C397 C398 1.331 . S
C397 H415 0.932 . S
C398 C397 1.331 . S
C398 C399 1.336 . S
C399 C395 1.394 . S
C399 C398 1.336 . S
C399 H414 0.929 . S
C400 C390 1.386 . S
C400 C393 1.357 . S
C400 H413 0.928 . S
H401 C377 0.931 . S
H402 C379 0.930 . S
H403 C381 0.929 . S
H404 C382 0.931 . S
H405 C384 0.930 . S
H406 C388 0.931 . S
H407 C386 0.931 . S
H408 C390 0.931 . S
H409 C391 0.929 . S
H410 C392 0.930 . S
H411 C395 0.930 . S
H412 C396 0.931 . S
H413 C400 0.928 . S
H414 C399 0.929 . S
H415 C397 0.932 . S
C416 C417 1.387 . S
C416 H420 0.950 . S
C416 C425 1.390 . S
C417 C416 1.387 . S
C417 C419 1.387 1_554 S
H418 C425 0.950 . S
C419 C417 1.387 1_556 S
C419 C421 1.390 . S
C419 H423 0.950 . S
H420 C416 0.950 . S
C421 C419 1.390 . S
C421 C422 1.387 1_556 S
C421 H424 0.950 . S
C422 C421 1.387 1_554 S
C422 C425 1.387 . S
H423 C419 0.950 . S
H424 C421 0.950 . S
C425 C416 1.390 . S
C425 H418 0.950 . S
C425 C422 1.387 . S
C426 C427 1.387 1_556 S
C426 H430 0.950 . S
C426 C435 1.390 . S
C427 C426 1.387 1_554 S
C427 C429 1.387 . S
H428 C435 0.950 . S
C429 C427 1.387 . S
C429 C431 1.390 . S
C429 H433 0.950 . S
H430 C426 0.950 . S
C431 C429 1.390 . S
C431 C432 1.387 . S
C431 H434 0.950 . S
C432 C431 1.387 . S
C432 C435 1.387 1_554 S
H433 C429 0.950 . S
H434 C431 0.950 . S
C435 C426 1.390 . S
C435 H428 0.950 . S
C435 C432 1.387 1_556 S
C436 C437 1.387 . S
C436 H440 0.950 . S
C436 C445 1.390 . S
C437 C436 1.387 . S
C437 C439 1.387 1_554 S
H438 C445 0.950 . S
C439 C437 1.387 1_556 S
C439 C441 1.390 . S
C439 H443 0.950 . S
H440 C436 0.950 . S
C441 C439 1.390 . S
C441 C442 1.387 1_556 S
C441 H444 0.950 . S
C442 C441 1.387 1_554 S
C442 C445 1.387 . S
H443 C439 0.950 . S
H444 C441 0.950 . S
C445 C436 1.390 . S
C445 H438 0.950 . S
C445 C442 1.387 . S
C446 C447 1.387 1_556 S
C446 H450 0.950 . S
C446 C455 1.390 . S
C447 C446 1.387 1_554 S
C447 C449 1.387 . S
H448 C455 0.950 . S
C449 C447 1.387 . S
C449 C451 1.390 . S
C449 H453 0.950 . S
H450 C446 0.950 . S
C451 C449 1.390 . S
C451 C452 1.387 . S
C451 H454 0.950 . S
C452 C451 1.387 . S
C452 C455 1.387 1_554 S
H453 C449 0.950 . S
H454 C451 0.950 . S
C455 C446 1.390 . S
C455 H448 0.950 . S
C455 C452 1.387 1_556 S
C456 C457 1.387 . S
C456 H460 0.950 . S
C456 C465 1.390 . S
C457 C456 1.387 . S
C457 C459 1.387 . S
H458 C465 0.950 . S
C459 C457 1.387 . S
C459 C461 1.390 . S
C459 H463 0.950 . S
H460 C456 0.950 . S
C461 C459 1.390 . S
C461 C462 1.387 . S
C461 H464 0.950 . S
C462 C461 1.387 . S
C462 C465 1.387 . S
H463 C459 0.950 . S
H464 C461 0.950 . S
C465 C456 1.390 . S
C465 H458 0.950 . S
C465 C462 1.387 . S
C466 C467 1.387 . S
C466 H470 0.950 . S
C466 C475 1.390 . S
C467 C466 1.387 . S
C467 C469 1.387 . S
H468 C475 0.950 . S
C469 C467 1.387 . S
C469 C471 1.390 . S
C469 H473 0.950 . S
H470 C466 0.950 . S
C471 C469 1.390 . S
C471 C472 1.387 . S
C471 H474 0.950 . S
C472 C471 1.387 . S
C472 C475 1.387 . S
H473 C469 0.950 . S
H474 C471 0.950 . S
C475 C466 1.390 . S
C475 H468 0.950 . S
C475 C472 1.387 . S
C476 C477 1.387 . S
C476 H480 0.950 . S
C476 C485 1.390 . S
C477 C476 1.387 . S
C477 C479 1.387 . S
H478 C485 0.950 . S
C479 C477 1.387 . S
C479 C481 1.390 . S
C479 H483 0.950 . S
H480 C476 0.950 . S
C481 C479 1.390 . S
C481 C482 1.387 . S
C481 H484 0.950 . S
C482 C481 1.387 . S
C482 C485 1.387 . S
H483 C479 0.950 . S
H484 C481 0.950 . S
C485 C476 1.390 . S
C485 H478 0.950 . S
C485 C482 1.387 . S
C486 C487 1.387 . S
C486 H490 0.950 . S
C486 C495 1.390 . S
C487 C486 1.387 . S
C487 C489 1.387 . S
H488 C495 0.950 . S
C489 C487 1.387 . S
C489 C491 1.390 . S
C489 H493 0.950 . S
H490 C486 0.950 . S
C491 C489 1.390 . S
C491 C492 1.387 . S
C491 H494 0.950 . S
C492 C491 1.387 . S
C492 C495 1.387 . S
H493 C489 0.950 . S
H494 C491 0.950 . S
C495 C486 1.390 . S
C495 H488 0.950 . S
C495 C492 1.387 . S
C496 C497 1.387 . S
C496 H500 0.950 1_455 S
C496 C505 1.390 . S
C497 C496 1.387 . S
C497 C499 1.387 . S
H498 C505 0.950 1_655 S
C499 C497 1.387 . S
C499 C501 1.390 . S
C499 H503 0.950 . S
H500 C496 0.950 1_655 S
C501 C499 1.390 . S
C501 C502 1.387 . S
C501 H504 0.950 . S
C502 C501 1.387 . S
C502 C505 1.387 . S
H503 C499 0.950 . S
H504 C501 0.950 . S
C505 C496 1.390 . S
C505 H498 0.950 1_455 S
C505 C502 1.387 . S
C506 C507 1.387 . S
C506 H510 0.950 1_545 S
C506 C515 1.390 . S
C507 C506 1.387 . S
C507 C509 1.387 . S
H508 C515 0.950 1_565 S
C509 C507 1.387 . S
C509 C511 1.390 . S
C509 H513 0.950 . S
H510 C506 0.950 1_565 S
C511 C509 1.390 . S
C511 C512 1.387 . S
C511 H514 0.950 . S
C512 C511 1.387 . S
C512 C515 1.387 . S
H513 C509 0.950 . S
H514 C511 0.950 . S
C515 C506 1.390 . S
C515 H508 0.950 1_545 S
C515 C512 1.387 . S
C516 C517 1.387 . S
C516 H520 0.950 1_655 S
C516 C525 1.390 . S
C517 C516 1.387 . S
C517 C519 1.387 . S
H518 C525 0.950 1_455 S
C519 C517 1.387 . S
C519 C521 1.390 . S
C519 H523 0.950 . S
H520 C516 0.950 1_455 S
C521 C519 1.390 . S
C521 C522 1.387 . S
C521 H524 0.950 . S
C522 C521 1.387 . S
C522 C525 1.387 . S
H523 C519 0.950 . S
H524 C521 0.950 . S
C525 C516 1.390 . S
C525 H518 0.950 1_655 S
C525 C522 1.387 . S
C526 C527 1.387 . S
C526 H530 0.950 . S
C526 C535 1.390 . S
C527 C526 1.387 . S
C527 C529 1.387 . S
H528 C535 0.950 . S
C529 C527 1.387 . S
C529 C531 1.390 . S
C529 H533 0.950 1_565 S
H530 C526 0.950 . S
C531 C529 1.390 . S
C531 C532 1.387 . S
C531 H534 0.950 1_565 S
C532 C531 1.387 . S
C532 C535 1.387 . S
H533 C529 0.950 1_545 S
H534 C531 0.950 1_545 S
C535 C526 1.390 . S
C535 H528 0.950 . S
C535 C532 1.387 . S
C536 C537 1.387 . S
C536 H540 0.950 . S
C536 C545 1.390 . S
C537 C536 1.387 . S
C537 C539 1.387 . S
H538 C545 0.950 . S
C539 C537 1.387 . S
C539 C541 1.390 . S
C539 H543 0.950 1_565 S
H540 C536 0.950 . S
C541 C539 1.390 . S
C541 C542 1.387 . S
C541 H544 0.929 1_565 S
C542 C541 1.387 . S
C542 C545 1.387 . S
H543 C539 0.950 1_545 S
H544 C541 0.929 1_545 S
C545 C536 1.390 . S
C545 H538 0.950 . S
C545 C542 1.387 . S
C546 C547 1.387 . S
C546 H550 0.950 1_455 S
C546 C555 1.390 . S
C547 C546 1.387 . S
C547 C549 1.387 . S
H548 C555 0.950 1_655 S
C549 C547 1.387 . S
C549 C551 1.390 . S
C549 H553 0.950 . S
H550 C546 0.950 1_655 S
C551 C549 1.390 . S
C551 C552 1.387 . S
C551 H554 0.950 . S
C552 C551 1.387 . S
C552 C555 1.387 . S
H553 C549 0.950 . S
H554 C551 0.950 . S
C555 C546 1.390 . S
C555 H548 0.950 1_455 S
C555 C552 1.387 . S
C556 C557 1.387 . S
C556 H560 0.950 . S
C556 C565 1.390 . S
C557 C556 1.387 . S
C557 C559 1.387 . S
H558 C565 0.950 . S
C559 C557 1.387 . S
C559 C561 1.390 . S
C559 H563 0.950 1_545 S
H560 C556 0.950 . S
C561 C559 1.390 . S
C561 C562 1.387 . S
C561 H564 0.950 1_545 S
C562 C561 1.387 . S
C562 C565 1.387 . S
H563 C559 0.950 1_565 S
H564 C561 0.950 1_565 S
C565 C556 1.390 . S
C565 H558 0.950 . S
C565 C562 1.387 . S
C566 C567 1.387 . S
C566 H570 0.950 1_655 S
C566 C575 1.390 . S
C567 C566 1.387 . S
C567 C569 1.387 . S
H568 C575 0.950 1_455 S
C569 C567 1.387 . S
C569 C571 1.390 . S
C569 H573 0.950 . S
H570 C566 0.950 1_455 S
C571 C569 1.390 . S
C571 C572 1.387 . S
C571 H574 0.950 . S
C572 C571 1.387 . S
C572 C575 1.387 . S
H573 C569 0.950 . S
H574 C571 0.950 . S
C575 C566 1.390 . S
C575 H568 0.950 1_655 S
C575 C572 1.387 . S
C576 C577 1.387 . S
C576 H580 0.950 . S
C576 C585 1.390 . S
C577 C576 1.387 . S
C577 C579 1.387 . S
H578 C585 0.950 . S
C579 C577 1.387 . S
C579 C581 1.390 . S
C579 H583 0.950 . S
H580 C576 0.950 . S
C581 C579 1.390 . S
C581 C582 1.387 . S
C581 H584 0.950 . S
C582 C581 1.387 . S
C582 C585 1.387 . S
H583 C579 0.950 . S
H584 C581 0.950 . S
C585 C576 1.390 . S
C585 H578 0.950 . S
C585 C582 1.387 . S
C586 C587 1.387 . S
C586 H590 0.950 . S
C586 C595 1.390 . S
C587 C586 1.387 . S
C587 C589 1.387 . S
H588 C595 0.950 . S
C589 C587 1.387 . S
C589 C591 1.390 . S
C589 H593 0.950 . S
H590 C586 0.950 . S
C591 C589 1.390 . S
C591 C592 1.387 . S
C591 H594 0.950 . S
C592 C591 1.387 . S
C592 C595 1.387 . S
H593 C589 0.950 . S
H594 C591 0.950 . S
C595 C586 1.390 . S
C595 H588 0.950 . S
C595 C592 1.387 . S
C596 C597 1.387 . S
C596 H600 0.950 . S
C596 C605 1.390 . S
C597 C596 1.387 . S
C597 C599 1.387 . S
H598 C605 0.950 . S
C599 C597 1.387 . S
C599 C601 1.390 . S
C599 H603 0.950 . S
H600 C596 0.950 . S
C601 C599 1.390 . S
C601 C602 1.387 . S
C601 H604 0.950 . S
C602 C601 1.387 . S
C602 C605 1.387 . S
H603 C599 0.950 . S
H604 C601 0.950 . S
C605 C596 1.390 . S
C605 H598 0.950 . S
C605 C602 1.387 . S
C606 C607 1.387 . S
C606 H610 0.950 . S
C606 C615 1.390 . S
C607 C606 1.387 . S
C607 C609 1.387 . S
H608 C615 0.950 . S
C609 C607 1.387 . S
C609 C611 1.390 . S
C609 H613 0.950 . S
H610 C606 0.950 . S
C611 C609 1.390 . S
C611 C612 1.387 . S
C611 H614 0.950 . S
C612 C611 1.387 . S
C612 C615 1.387 . S
H613 C609 0.950 . S
H614 C611 0.950 . S
C615 C606 1.390 . S
C615 H608 0.950 . S
C615 C612 1.387 . S
C616 C617 1.387 . S
C616 H620 0.950 . S
C616 C625 1.390 . S
C617 C616 1.387 . S
C617 C619 1.387 . S
H618 C625 0.950 . S
C619 C617 1.387 . S
C619 C621 1.390 . S
C619 H623 0.950 . S
H620 C616 0.950 . S
C621 C619 1.390 . S
C621 C622 1.387 . S
C621 H624 0.950 . S
C622 C621 1.387 . S
C622 C625 1.387 . S
H623 C619 0.950 . S
H624 C621 0.950 . S
C625 C616 1.390 . S
C625 H618 0.950 . S
C625 C622 1.387 . S
C626 C627 1.387 . S
C626 H630 0.950 . S
C626 C635 1.390 . S
C627 C626 1.387 . S
C627 C629 1.387 . S
H628 C635 0.950 . S
C629 C627 1.387 . S
C629 C631 1.390 . S
C629 H633 0.950 . S
H630 C626 0.950 . S
C631 C629 1.390 . S
C631 C632 1.387 . S
C631 H634 0.950 . S
C632 C631 1.387 . S
C632 C635 1.387 . S
H633 C629 0.950 . S
H634 C631 0.950 . S
C635 C626 1.390 . S
C635 H628 0.950 . S
C635 C632 1.387 . S
C636 C637 1.387 . S
C636 H640 0.950 . S
C636 C645 1.390 . S
C637 C636 1.387 . S
C637 C639 1.387 . S
H638 C645 0.950 . S
C639 C637 1.387 . S
C639 C641 1.390 . S
C639 H643 0.950 . S
H640 C636 0.950 . S
C641 C639 1.390 . S
C641 C642 1.387 . S
C641 H644 0.950 . S
C642 C641 1.387 . S
C642 C645 1.387 . S
H643 C639 0.950 . S
H644 C641 0.950 . S
C645 C636 1.390 . S
C645 H638 0.950 . S
C645 C642 1.387 . S
C646 C647 1.387 . S
C646 H650 0.950 . S
C646 C655 1.390 . S
C647 C646 1.387 . S
C647 C649 1.387 . S
H648 C655 0.950 . S
C649 C647 1.387 . S
C649 C651 1.390 . S
C649 H653 0.950 . S
H650 C646 0.950 . S
C651 C649 1.390 . S
C651 C652 1.387 . S
C651 H654 0.950 . S
C652 C651 1.387 . S
C652 C655 1.387 . S
H653 C649 0.950 . S
H654 C651 0.950 . S
C655 C646 1.390 . S
C655 H648 0.950 . S
C655 C652 1.387 . S
C417 C45 1.638 . S
C422 C125 1.646 . S
C427 C30 1.635 . S
C432 C164 1.643 . S
C437 C39 1.638 . S
C442 C203 1.663 . S
C452 C242 1.660 . S
C447 C34 1.635 . S
C457 C97 1.638 . S
C462 C281 1.646 . S
C472 C320 1.646 . S
C467 C82 1.638 . S
C482 C359 1.662 . S
C477 C91 1.638 . S
C492 C398 1.660 . S
C487 C86 1.635 . S
C502 C354 1.575 . S
C497 C26 1.509 . S
C512 C393 1.574 . S
C507 C36 1.509 . S
C522 C261 1.575 . S
C517 C32 1.510 . S
C532 C300 1.578 . S
C527 C42 1.514 . S
C537 C18 1.576 . S
C542 C315 1.670 . S
C552 C339 1.677 . S
C547 C50 1.582 . S
C557 C4 1.578 . S
C562 C378 1.675 . S
C567 C48 1.580 . S
C572 C276 1.673 . S
C582 C198 1.575 . S
C577 C78 1.509 . S
C587 C88 1.512 . S
C592 C237 1.577 . S
C602 C105 1.575 . S
C597 C84 1.510 . S
C612 C144 1.575 . S
C607 C94 1.510 . S
C622 C159 1.673 . S
C617 C70 1.580 . S
C632 C183 1.676 . S
C627 C102 1.580 . S
C637 C56 1.578 . S
C642 C222 1.675 . S
C647 C100 1.580 . S
C652 C120 1.673 . S
