# Generated by pormake.
# Topology pyr, (3,6)-cn, num edge types: 1
# Building blocks:
#     Node 0, Type 0, BuildingBlock: BETDAH_clean_linker_0, # of connection points: 3
#     Node 1, Type 0, BuildingBlock: BETDAH_clean_linker_0, # of connection points: 3
#     Node 2, Type 0, BuildingBlock: BETDAH_clean_linker_0, # of connection points: 3
#     Node 3, Type 0, BuildingBlock: BETDAH_clean_linker_0, # of connection points: 3
#     Node 4, Type 0, BuildingBlock: BETDAH_clean_linker_0, # of connection points: 3
#     Node 5, Type 0, BuildingBlock: BETDAH_clean_linker_0, # of connection points: 3
#     Node 6, Type 0, BuildingBlock: BETDAH_clean_linker_0, # of connection points: 3
#     Node 7, Type 0, BuildingBlock: BETDAH_clean_linker_0, # of connection points: 3
#     Node 8, Type 1, BuildingBlock: BETGAK_clean_sbu_0, # of connection points: 6
#     Node 9, Type 1, BuildingBlock: BETGAK_clean_sbu_0, # of connection points: 6
#     Node 10, Type 1, BuildingBlock: BETGAK_clean_sbu_0, # of connection points: 6
#     Node 11, Type 1, BuildingBlock: BETGAK_clean_sbu_0, # of connection points: 6
#     Edge 12, Type (0, 1), BuildingBlock: EZIPEK_clean_linker_0, # of connection points: 2
#     Edge 13, Type (0, 1), BuildingBlock: EZIPEK_clean_linker_0, # of connection points: 2
#     Edge 14, Type (0, 1), BuildingBlock: EZIPEK_clean_linker_0, # of connection points: 2
#     Edge 15, Type (0, 1), BuildingBlock: EZIPEK_clean_linker_0, # of connection points: 2
#     Edge 16, Type (0, 1), BuildingBlock: EZIPEK_clean_linker_0, # of connection points: 2
#     Edge 17, Type (0, 1), BuildingBlock: EZIPEK_clean_linker_0, # of connection points: 2
#     Edge 18, Type (0, 1), BuildingBlock: EZIPEK_clean_linker_0, # of connection points: 2
#     Edge 19, Type (0, 1), BuildingBlock: EZIPEK_clean_linker_0, # of connection points: 2
#     Edge 20, Type (0, 1), BuildingBlock: EZIPEK_clean_linker_0, # of connection points: 2
#     Edge 21, Type (0, 1), BuildingBlock: EZIPEK_clean_linker_0, # of connection points: 2
#     Edge 22, Type (0, 1), BuildingBlock: EZIPEK_clean_linker_0, # of connection points: 2
#     Edge 23, Type (0, 1), BuildingBlock: EZIPEK_clean_linker_0, # of connection points: 2
#     Edge 24, Type (0, 1), BuildingBlock: EZIPEK_clean_linker_0, # of connection points: 2
#     Edge 25, Type (0, 1), BuildingBlock: EZIPEK_clean_linker_0, # of connection points: 2
#     Edge 26, Type (0, 1), BuildingBlock: EZIPEK_clean_linker_0, # of connection points: 2
#     Edge 27, Type (0, 1), BuildingBlock: EZIPEK_clean_linker_0, # of connection points: 2
#     Edge 28, Type (0, 1), BuildingBlock: EZIPEK_clean_linker_0, # of connection points: 2
#     Edge 29, Type (0, 1), BuildingBlock: EZIPEK_clean_linker_0, # of connection points: 2
#     Edge 30, Type (0, 1), BuildingBlock: EZIPEK_clean_linker_0, # of connection points: 2
#     Edge 31, Type (0, 1), BuildingBlock: EZIPEK_clean_linker_0, # of connection points: 2
#     Edge 32, Type (0, 1), BuildingBlock: EZIPEK_clean_linker_0, # of connection points: 2
#     Edge 33, Type (0, 1), BuildingBlock: EZIPEK_clean_linker_0, # of connection points: 2
#     Edge 34, Type (0, 1), BuildingBlock: EZIPEK_clean_linker_0, # of connection points: 2
#     Edge 35, Type (0, 1), BuildingBlock: EZIPEK_clean_linker_0, # of connection points: 2
# Relax obj value: 0.217
# Max RMSD: 0.195
# Mean RMSD: 0.142
data_MOF--net-pyr--node1-BETGAK_clean_sbu_0--node2-BETDAH_clean_linker_0--edge1-EZIPEK_clean_linker_0
_symmetry_space_group_name_H-M    P1
_symmetry_Int_Tables_number       1
_symmetry_cell_setting            triclinic
loop_
_symmetry_equiv_pos_as_xyz
'x, y, z'
_cell_length_a     27.07403
_cell_length_b     29.729735
_cell_length_c     27.844322
_cell_angle_alpha  91.252409
_cell_angle_beta   90.105642
_cell_angle_gamma 109.75689
loop_
_atom_site_label
_atom_site_type_symbol
_atom_site_fract_x
_atom_site_fract_y
_atom_site_fract_z
_atom_type_partial_charge
H0 H 0.41212 0.28771 0.31427 0.0
H1 H 0.50442 0.36032 0.19559 0.0
H2 H 0.39241 0.41526 0.26244 0.0
C3 C 0.42465 0.31814 0.29087 0.0
C4 C 0.39889 0.35176 0.29266 0.0
C5 C 0.4619 0.32029 0.25525 0.0
C6 C 0.47654 0.35892 0.22389 0.0
C7 C 0.45213 0.39367 0.2264 0.0
C8 C 0.41335 0.39001 0.26122 0.0
N9 N 0.46342 0.42918 0.19085 0.0
C10 C 0.42615 0.44906 0.17688 0.0
H11 H 0.29892 0.86574 0.78479 0.0
H12 H 0.18041 0.92381 0.74565 0.0
H13 H 0.21693 0.82407 0.64963 0.0
C14 C 0.26866 0.86707 0.7598 0.0
C15 C 0.26104 0.84113 0.71631 0.0
C16 C 0.23905 0.89625 0.77045 0.0
C17 C 0.20185 0.9 0.73739 0.0
C18 C 0.19368 0.87409 0.69356 0.0
C19 C 0.22233 0.8435 0.68372 0.0
N20 N 0.1594 0.88066 0.65796 0.0
C21 C 0.15695 0.9257 0.64898 0.0
H22 H 0.74462 0.39636 1.02412 0.0
H23 H 0.75463 0.49848 0.91278 0.0
H24 H 0.62846 0.36295 0.91149 0.0
C25 C 0.72905 0.40645 0.99176 0.0
C26 C 0.68266 0.37439 0.97104 0.0
C27 C 0.75578 0.45129 0.9713 0.0
C28 C 0.73451 0.46445 0.92899 0.0
C29 C 0.68839 0.43239 0.90691 0.0
C30 C 0.66353 0.38773 0.92835 0.0
N31 N 0.66672 0.44054 0.86186 0.0
C32 C 0.67222 0.48235 0.8361 0.0
H33 H 0.85429 0.81617 0.52161 0.0
H34 H 0.98619 0.84269 0.42763 0.0
H35 H 0.86125 0.70649 0.41948 0.0
C36 C 0.8746 0.80414 0.49327 0.0
C37 C 0.85201 0.75697 0.47402 0.0
C38 C 0.92347 0.83557 0.47764 0.0
C39 C 0.94864 0.81918 0.44015 0.0
C40 C 0.92634 0.77369 0.41738 0.0
C41 C 0.87822 0.74201 0.43532 0.0
N42 N 0.95498 0.76368 0.37706 0.0
C43 C 0.9476 0.72407 0.34532 0.0
H44 H 0.78908 0.84461 0.94016 0.0
H45 H 0.64444 0.78669 1.01696 0.0
H46 H 0.65792 0.88723 0.90424 0.0
C47 C 0.74869 0.84226 0.9462 0.0
C48 C 0.72649 0.86907 0.91845 0.0
C49 C 0.71955 0.81261 0.98173 0.0
C50 C 0.66721 0.80956 0.98937 0.0
C51 C 0.64502 0.83748 0.96227 0.0
C52 C 0.67476 0.86675 0.92637 0.0
N53 N 0.59292 0.83565 0.97145 0.0
C54 C 0.57842 0.87636 0.97243 0.0
H55 H 0.86456 0.21489 0.47493 0.0
H56 H 0.94917 0.32715 0.57506 0.0
H57 H 0.86744 0.35815 0.45416 0.0
C58 C 0.87708 0.25206 0.4869 0.0
C59 C 0.864 0.28511 0.45929 0.0
C60 C 0.90885 0.26697 0.52808 0.0
C61 C 0.92521 0.3153 0.54293 0.0
C62 C 0.90801 0.34775 0.51791 0.0
C63 C 0.87853 0.33277 0.47522 0.0
N64 N 0.91844 0.39456 0.53714 0.0
C65 C 0.88104 0.41665 0.53276 0.0
H66 H 0.35307 0.83121 0.19781 0.0
H67 H 0.3529 0.73063 0.30794 0.0
H68 H 0.47275 0.87002 0.30749 0.0
C69 C 0.37095 0.82198 0.22926 0.0
C70 C 0.41613 0.85616 0.24974 0.0
C71 C 0.34748 0.77655 0.24973 0.0
C72 C 0.371 0.76485 0.29138 0.0
C73 C 0.41687 0.7985 0.3123 0.0
C74 C 0.43835 0.84379 0.29113 0.0
N75 N 0.44106 0.79132 0.35632 0.0
C76 C 0.43905 0.74974 0.38097 0.0
H77 H 0.27249 0.41899 0.69948 0.0
H78 H 0.26443 0.53859 0.78615 0.0
H79 H 0.14162 0.40151 0.79317 0.0
C80 C 0.2531 0.43352 0.72666 0.0
C81 C 0.20492 0.40384 0.74503 0.0
C82 C 0.27561 0.48215 0.74107 0.0
C83 C 0.24912 0.5009 0.77641 0.0
C84 C 0.20127 0.47164 0.79699 0.0
C85 C 0.17966 0.42343 0.78019 0.0
N86 N 0.16746 0.49201 0.82311 0.0
C87 C 0.17237 0.51338 0.86976 0.0
La88 La 0.07785 0.14076 0.56284 0.0
La89 La 0.05507 0.09947 0.65908 0.0
C90 C 0.08731 0.18955 0.48842 0.0
C91 C 0.13265 0.22381 0.4652 0.0
C92 C 0.18334 0.22292 0.47419 0.0
C93 C 0.22577 0.25144 0.44794 0.0
C94 C 0.21812 0.28158 0.41281 0.0
C95 C 0.16801 0.28485 0.40604 0.0
C96 C 0.12533 0.25579 0.43196 0.0
C97 C 0.15115 0.10738 0.59596 0.0
C98 C 0.1148 0.20938 0.65675 0.0
C99 C 1.03815 1.05046 0.7337 0.0
C100 C 0.98846 1.02338 0.75575 0.0
C101 C 0.94103 1.01996 0.73282 0.0
C102 C 0.89329 0.99573 0.75437 0.0
C103 C 0.89274 0.97487 0.79904 0.0
C104 C 0.94012 0.97797 0.8218 0.0
C105 C 0.98792 1.00215 0.80016 0.0
C106 C 0.98061 0.13013 0.62327 0.0
C107 C 1.02138 1.03015 0.56653 0.0
O108 O 0.08705 0.14552 0.48833 0.0
O109 O 0.07446 0.20288 0.53023 0.0
O110 O 0.14025 0.11058 0.55127 0.0
O111 O 0.12518 0.1281 0.61956 0.0
O112 O 0.09995 0.20542 0.61089 0.0
O113 O 0.10956 0.17037 0.68138 0.0
O114 O 0.04869 0.09663 0.73414 0.0
O115 O 0.04628 1.0343 0.69162 0.0
O116 O 0.99306 0.13139 0.668 0.0
O117 O 1.00766 0.10962 0.6015 0.0
O118 O 0.0404 1.03536 0.61107 0.0
O119 O 1.02315 0.06894 0.54289 0.0
H120 H 0.18977 0.19882 0.50018 0.0
H121 H 0.26419 0.2486 0.45364 0.0
H122 H 0.16159 0.30805 0.37905 0.0
H123 H 0.08647 0.25709 0.42493 0.0
H124 H 0.94102 1.0364 0.69847 0.0
H125 H 0.85692 0.99358 0.73658 0.0
H126 H 0.93997 0.96193 0.8564 0.0
H127 H 1.0243 1.00469 0.81818 0.0
La128 La 0.58886 0.11825 0.12732 0.0
La129 La 0.48999 0.11135 0.09091 0.0
C130 C 0.68483 0.14195 0.14873 0.0
C131 C 0.71445 0.16078 0.19335 0.0
C132 C 0.69884 0.13836 0.23744 0.0
C133 C 0.72387 0.15996 0.28008 0.0
C134 C 0.7642 0.20446 0.27922 0.0
C135 C 0.78008 0.22667 0.23524 0.0
C136 C 0.75558 0.20481 0.19258 0.0
C137 C 0.51164 1.05005 0.17226 0.0
C138 C 0.52235 0.1657 0.18703 0.0
C139 C 0.39951 0.09496 1.05555 0.0
C140 C 0.36314 1.05934 1.02361 0.0
C141 C 0.32383 0.07143 0.9999 0.0
C142 C 0.29555 1.04259 0.96207 0.0
C143 C 0.30661 1.00157 0.94769 0.0
C144 C 0.34356 0.9878 0.97338 0.0
C145 C 0.3718 1.01664 1.01127 0.0
C146 C 0.56537 0.19358 0.06747 0.0
C147 C 0.54768 1.04682 1.04084 0.0
O148 O 0.65277 0.09772 0.14823 0.0
O149 O 0.66343 0.17069 0.12965 0.0
O150 O 0.55373 0.07945 0.19244 0.0
O151 O 0.51454 1.05989 0.12821 0.0
O152 O 0.57 0.17163 0.1718 0.0
O153 O 0.4825 0.13504 0.16366 0.0
O154 O 0.44289 0.12077 1.03517 0.0
O155 O 0.40806 0.08104 0.09806 0.0
O156 O 0.52148 0.18974 0.08794 0.0
O157 O 0.56792 0.15173 0.06567 0.0
O158 O 0.50441 1.05782 1.0431 0.0
O159 O 0.58875 0.06909 0.06829 0.0
H160 H 0.66666 0.10476 0.23916 0.0
H161 H 0.7113 0.1424 0.31383 0.0
H162 H 0.8112 0.26102 0.23407 0.0
H163 H 0.76775 0.22293 0.15902 0.0
H164 H 0.31708 0.10452 1.00887 0.0
H165 H 0.26731 1.05366 0.94224 0.0
H166 H 0.35256 0.95628 0.96236 0.0
H167 H 0.40215 1.00694 1.02916 0.0
La168 La 0.55517 0.57534 0.58045 0.0
La169 La 0.5705 0.66068 0.62996 0.0
C170 C 0.56194 0.51203 0.52189 0.0
C171 C 0.60898 0.49902 0.51382 0.0
C172 C 0.60511 0.45317 0.49698 0.0
C173 C 0.64988 0.43963 0.49571 0.0
C174 C 0.69859 0.47181 0.51159 0.0
C175 C 0.70261 0.51807 0.52693 0.0
C176 C 0.65815 0.53156 0.52809 0.0
C177 C 0.47602 0.56765 0.64218 0.0
C178 C 0.61074 0.58307 0.67934 0.0
C179 C 0.56556 0.72566 0.68716 0.0
C180 C 0.51828 0.73797 0.6961 0.0
C181 C 0.52166 0.78287 0.7152 0.0
C182 C 0.47656 0.79574 0.71807 0.0
C183 C 0.42794 0.76386 0.70155 0.0
C184 C 0.42451 0.71864 0.68334 0.0
C185 C 0.46933 0.70574 0.68078 0.0
C186 C 0.64942 0.66771 0.56808 0.0
C187 C 0.51166 0.65162 0.53271 0.0
O188 O 0.54173 0.50257 0.56451 0.0
O189 O 0.56613 0.55521 0.50957 0.0
O190 O 0.49476 0.53449 0.63052 0.0
O191 O 0.49829 0.60273 0.61553 0.0
O192 O 0.6087 0.56508 0.63537 0.0
O193 O 0.59287 0.61899 0.68663 0.0
O194 O 0.58366 0.73373 0.6437 0.0
O195 O 0.56298 0.68329 0.70076 0.0
O196 O 0.62994 0.70058 0.57859 0.0
O197 O 0.62742 0.63309 0.59536 0.0
O198 O 0.51448 0.66945 0.57677 0.0
O199 O 0.53041 0.6164 0.52459 0.0
H200 H 0.56741 0.42752 0.48636 0.0
H201 H 0.64631 0.40367 0.48399 0.0
H202 H 0.73983 0.54317 0.53953 0.0
H203 H 0.66188 0.56696 0.54176 0.0
H204 H 0.55918 0.80828 0.72664 0.0
H205 H 0.47971 0.83092 0.73199 0.0
H206 H 0.38738 0.69382 0.6702 0.0
H207 H 0.46602 0.67102 0.6655 0.0
La208 La 0.05295 0.5629 0.13527 0.0
La209 La 0.05339 0.65783 0.08475 0.0
C210 C 0.0777 0.49021 0.14958 0.0
C211 C 0.12881 0.4834 0.14601 0.0
C212 C 0.13998 0.45008 0.17504 0.0
C213 C 0.19047 0.44729 0.17596 0.0
C214 C 0.23026 0.47783 0.14789 0.0
C215 C 0.21894 0.51058 0.1181 0.0
C216 C 0.1685 0.51347 0.11728 0.0
C217 C 1.00696 0.61222 0.19159 0.0
C218 C 0.15037 0.66228 0.15126 0.0
C219 C 1.02962 0.73106 0.06877 0.0
C220 C 0.97914 0.73932 0.0655 0.0
C221 C 0.97744 0.78336 1.05024 0.0
C222 C 0.92911 0.78991 1.04348 0.0
C223 C 0.88198 0.75253 1.05214 0.0
C224 C 0.88378 0.70902 0.06898 0.0
C225 C 0.93203 0.70231 0.0749 0.0
C226 C 0.1027 0.60898 1.03028 0.0
C227 C 0.95489 0.55958 0.06983 0.0
O228 O 0.07489 0.52004 0.1839 0.0
O229 O 0.05702 0.4975 0.10913 0.0
O230 O 1.01173 0.57144 0.2019 0.0
O231 O 1.02533 0.62076 0.14939 0.0
O232 O 0.13156 0.61475 0.15404 0.0
O233 O 0.1257 0.68685 0.12743 0.0
O234 O 1.03754 0.7031 1.03489 0.0
O235 O 0.04281 0.7206 0.11136 0.0
O236 O 0.09908 0.65026 1.02012 0.0
O237 O 0.08099 0.59974 0.07103 0.0
O238 O 0.97571 0.60653 0.06423 0.0
O239 O 0.97791 0.53483 0.09556 0.0
H240 H 0.11003 0.42711 0.19785 0.0
H241 H 0.1988 0.42189 0.19916 0.0
H242 H 0.24937 0.53447 0.09638 0.0
H243 H 0.16078 0.53993 0.09513 0.0
H244 H 1.01336 0.81225 1.0425 0.0
H245 H 0.92838 0.82378 1.03051 0.0
H246 H 0.84785 0.67981 0.07582 0.0
H247 H 0.93247 0.66785 0.08561 0.0
C248 C 0.35271 0.35822 0.36952 0.0
C249 C 0.35045 0.34126 0.32134 0.0
C250 C 0.26027 0.28785 0.33204 0.0
C251 C 0.26174 0.30552 0.38 0.0
N252 N 0.30444 0.36412 0.44148 0.0
N253 N 0.29854 0.30029 0.25291 0.0
C254 C 0.30652 0.34295 0.39783 0.0
C255 C 0.30291 0.3096 0.30133 0.0
N256 N 0.39931 0.38767 0.38847 0.0
N257 N 0.21981 0.2483 0.31662 0.0
H258 H 0.32912 0.3153 0.22916 0.0
H259 H 0.26313 0.28144 0.23572 0.0
H260 H 0.188 0.23036 0.338 0.0
H261 H 0.22001 0.23057 0.28398 0.0
H262 H 0.40515 0.39702 0.42482 0.0
H263 H 0.43321 0.4008 0.36801 0.0
H264 H 0.33398 0.39438 0.45476 0.0
H265 H 0.27095 0.35376 0.46277 0.0
C266 C 0.29022 0.97153 0.81427 0.0
C267 C 0.25071 0.92588 0.81501 0.0
C268 C 0.24132 0.93391 0.90192 0.0
C269 C 0.28509 0.97676 0.90184 0.0
N270 N 0.35493 1.03485 0.8595 0.0
N271 N 0.18964 0.86166 0.8583 0.0
C272 C 0.31031 0.99546 0.85837 0.0
C273 C 0.22618 0.90661 0.85849 0.0
N274 N 0.30834 0.99199 0.77133 0.0
N275 N 0.21402 0.91987 0.94339 0.0
H276 H 0.17617 0.84153 0.8268 0.0
H277 H 0.17464 0.84321 0.88931 0.0
H278 H 0.22472 0.93894 0.97587 0.0
H279 H 0.17872 0.89152 0.94506 0.0
H280 H 0.3328 1.02732 0.76822 0.0
H281 H 0.29558 0.97491 0.7382 0.0
H282 H 0.37871 1.04671 0.82982 0.0
H283 H 0.37065 1.05403 0.89099 0.0
C284 C 0.61358 0.52352 0.80155 0.0
C285 C 0.66189 0.51464 0.80003 0.0
C286 C 0.68058 0.55654 0.72224 0.0
C287 C 0.62944 0.56039 0.72131 0.0
N288 N 0.54317 0.53563 0.7558 0.0
N289 N 0.74001 0.51931 0.75652 0.0
C290 C 0.59509 0.54113 0.76015 0.0
C291 C 0.69511 0.53042 0.7597 0.0
N292 N 0.58478 0.51472 0.84269 0.0
N293 N 0.71584 0.57887 0.68796 0.0
H294 H 0.75263 0.50229 0.78397 0.0
H295 H 0.76304 0.52447 0.72587 0.0
H296 H 0.70662 0.59793 0.66036 0.0
H297 H 0.75523 0.58174 0.68891 0.0
H298 H 0.55189 0.52488 0.84786 0.0
H299 H 0.59682 0.50154 0.87337 0.0
H300 H 0.51494 0.51781 0.78058 0.0
H301 H 0.52735 0.54346 0.72432 0.0
C302 C 0.93575 0.68862 0.25993 0.0
C303 C 0.95894 0.69317 0.30662 0.0
C304 C 1.01901 0.65274 0.27462 0.0
C305 C 0.99303 0.64448 0.2289 0.0
N306 N 0.91966 0.64723 0.18189 0.0
N307 N 1.01728 0.67224 0.35989 0.0
C308 C 0.94963 0.66073 0.22256 0.0
C309 C 0.99888 0.67292 0.31426 0.0
N310 N 0.90082 0.71155 0.25091 0.0
N311 N 0.06462 0.64307 0.27985 0.0
H312 H 1.00395 0.68684 0.38949 0.0
H313 H 0.04198 0.65345 0.36916 0.0
H314 H 0.08171 0.62993 0.25179 0.0
H315 H 0.08866 0.65294 0.31023 0.0
H316 H 0.88697 0.71445 0.2166 0.0
H317 H 0.88832 0.73037 0.27758 0.0
H318 H 0.88431 0.65324 0.17682 0.0
H319 H 0.92825 0.62642 0.15474 0.0
C320 C 0.44185 0.23291 0.23626 0.0
C321 C 0.4797 0.27856 0.24667 0.0
C322 C 0.55011 0.24424 0.23624 0.0
C323 C 0.51141 0.19993 0.22236 0.0
N324 N 0.42402 0.14791 0.23936 0.0
N325 N 0.56857 0.32484 0.26969 0.0
C326 C 0.45837 0.19288 0.23259 0.0
C327 C 0.53371 0.28347 0.2507 0.0
N328 N 0.39071 0.22779 0.22661 0.0
N329 N 0.60187 0.24841 0.23677 0.0
H330 H 0.55725 0.3534 0.28155 0.0
H331 H 0.60778 0.32984 0.27702 0.0
H332 H 0.61397 0.21864 0.23643 0.0
H333 H 0.63256 0.28089 0.23944 0.0
H334 H 0.36322 0.19534 0.21508 0.0
H335 H 0.37715 0.25658 0.22462 0.0
H336 H 0.38526 0.14123 0.24982 0.0
H337 H 0.43682 0.11856 0.24085 0.0
C338 C 0.17789 0.99102 0.59061 0.0
C339 C 0.16052 0.974 0.63696 0.0
C340 C 0.1601 1.05339 0.66172 0.0
C341 C 0.16825 0.06772 0.61348 0.0
N342 N 0.21 1.05968 0.53926 0.0
N343 N 0.12951 0.98681 0.71544 0.0
C344 C 0.18466 1.03929 0.57984 0.0
C345 C 0.15071 1.00473 0.6725 0.0
N346 N 0.18587 0.96055 0.55638 0.0
N347 N 0.16402 0.08678 0.69723 0.0
H348 H 0.11699 0.95038 0.72234 0.0
H349 H 0.11914 1.00698 0.74206 0.0
H350 H 0.17611 0.12317 0.69014 0.0
H351 H 0.16234 0.0793 0.73367 0.0
H352 H 0.19257 0.96905 0.52037 0.0
H353 H 0.18219 0.9252 0.56325 0.0
H354 H 0.22651 1.04224 0.5146 0.0
H355 H 0.22041 0.09627 0.53347 0.0
C356 C 0.80683 0.49881 1.04368 0.0
C357 C 0.80664 0.48316 0.99488 0.0
C358 C 0.90291 0.5237 0.99381 0.0
C359 C 0.90367 0.53345 1.04415 0.0
N360 N 0.85613 0.5252 0.11826 0.0
N361 N 0.85709 0.47398 0.92628 0.0
C362 C 0.8555 0.51941 0.06943 0.0
C363 C 0.85541 0.49407 0.97059 0.0
N364 N 0.76038 0.49555 0.06503 0.0
N365 N 0.94752 0.54309 0.96778 0.0
H366 H 0.82386 0.45126 0.90843 0.0
H367 H 0.892 0.47619 0.90919 0.0
H368 H 0.98303 0.56449 0.9832 0.0
H369 H 0.94812 0.54152 0.93038 0.0
H370 H 0.75795 0.51044 0.09876 0.0
H371 H 0.72438 0.48219 1.04697 0.0
H372 H 0.82303 0.51116 0.13942 0.0
H373 H 0.89068 0.54074 0.13808 0.0
C374 C 0.75326 0.70727 0.46965 0.0
C375 C 0.80116 0.7245 0.49635 0.0
C376 C 0.75017 0.69726 0.57087 0.0
C377 C 0.70258 0.67935 0.54392 0.0
N378 N 0.66287 0.65369 0.46634 0.0
N379 N 0.84558 0.72246 0.57089 0.0
C380 C 0.70556 0.68004 0.49289 0.0
C381 C 0.79959 0.71518 0.54655 0.0
N382 N 0.75222 0.71922 0.42268 0.0
N383 N 0.74827 0.69883 0.61986 0.0
H384 H 0.88191 0.73369 0.55392 0.0
H385 H 0.84733 0.71255 0.60632 0.0
H386 H 0.71339 0.68483 0.63877 0.0
H387 H 0.78071 0.71656 0.64154 0.0
H388 H 0.71751 0.71232 0.40308 0.0
H389 H 0.7855 0.73975 0.40446 0.0
H390 H 0.6637 0.64874 0.42922 0.0
H391 H 0.62819 0.63293 0.48233 0.0
C392 C 0.35046 0.44192 0.12404 0.0
C393 C 0.3815 0.46325 0.16486 0.0
C394 C 0.31868 0.5027 0.18782 0.0
C395 C 0.28423 0.47605 0.15092 0.0
N396 N 0.26529 0.41932 0.08445 0.0
N397 N 0.39642 0.51302 0.23654 0.0
C398 C 0.29978 0.44574 0.11879 0.0
C399 C 0.36627 0.49385 0.19678 0.0
N400 N 0.36976 0.41837 0.09022 0.0
N401 N 0.30599 0.53675 0.21382 0.0
H402 H 0.43266 0.50896 0.24292 0.0
H403 H 0.38454 0.53082 0.2644 0.0
H404 H 0.27108 0.54364 0.20854 0.0
H405 H 0.33157 0.56076 0.23793 0.0
H406 H 0.35139 0.40576 0.05735 0.0
H407 H 0.40673 0.41489 0.09334 0.0
H408 H 0.27166 0.39242 0.0635 0.0
H409 H 0.2285 0.4224 0.07861 0.0
C410 C 0.67592 0.2901 0.99758 0.0
C411 C 0.6534 0.3269 0.99424 0.0
C412 C 0.57066 0.27035 1.02447 0.0
C413 C 0.59538 0.23654 1.03683 0.0
N414 N 0.67392 0.21503 1.0316 0.0
N415 N 0.58113 0.35366 1.01428 0.0
C416 C 0.64871 0.24663 1.02229 0.0
C417 C 0.60143 0.31746 1.01077 0.0
N418 N 0.72228 0.29552 0.97497 0.0
N419 N 0.51723 0.25656 1.02129 0.0
H420 H 0.60241 0.38886 1.00566 0.0
H421 H 0.54523 0.34951 1.03054 0.0
H422 H 0.49304 0.22093 1.02247 0.0
H423 H 0.4977 0.27904 1.00924 0.0
H424 H 0.73815 0.26828 0.97113 0.0
H425 H 0.74271 0.32603 0.9561 0.0
H426 H 0.71446 0.22368 1.02942 0.0
H427 H 0.65469 0.1803 1.04227 0.0
C428 C 0.95352 0.89269 0.55135 0.0
C429 C 0.94844 0.88564 0.5005 0.0
C430 C 0.99885 0.97195 0.49322 0.0
C431 C 0.99612 0.98025 0.54369 0.0
N432 N 0.95442 0.94657 0.61787 0.0
N433 N 0.95488 0.92426 0.42409 0.0
C434 C 0.96881 0.94006 0.572 0.0
C435 C 0.96774 0.92698 0.47173 0.0
N436 N 0.94588 0.85457 0.58036 0.0
N437 N 1.03305 1.00567 0.46558 0.0
H438 H 0.92943 0.89328 0.40752 0.0
H439 H 0.96443 0.95432 0.4027 0.0
H440 H 0.06025 1.03694 0.47987 0.0
H441 H 0.03911 0.99946 0.42943 0.0
H442 H 0.95339 0.8585 0.61725 0.0
H443 H 0.93846 0.81989 0.56694 0.0
H444 H 0.93118 0.91844 0.63837 0.0
H445 H 0.95907 0.98015 0.6329 0.0
C446 C 0.29529 0.77476 0.73198 0.0
C447 C 0.29751 0.81501 0.7046 0.0
C448 C 0.37879 0.81361 0.6674 0.0
C449 C 0.38112 0.77896 0.70069 0.0
N450 N 0.34373 0.72828 0.76723 0.0
N451 N 0.3441 0.87643 0.64957 0.0
C452 C 0.33963 0.75949 0.73339 0.0
C453 C 0.33964 0.83514 0.67267 0.0
N454 N 0.25068 0.75131 0.75655 0.0
N455 N 0.41356 0.82541 0.63035 0.0
H456 H 0.31633 0.89353 0.65216 0.0
H457 H 0.37737 0.89576 0.63062 0.0
H458 H 0.44268 0.81011 0.62522 0.0
H459 H 0.41034 0.84679 0.6022 0.0
H460 H 0.24466 0.71917 0.77375 0.0
H461 H 0.21757 0.7618 0.75585 0.0
H462 H 0.31742 0.71692 0.79532 0.0
H463 H 0.37574 0.7164 0.76953 0.0
C464 C 0.76988 0.87711 0.83902 0.0
C465 C 0.75892 0.8995 0.88112 0.0
C466 C 0.82541 0.97508 0.85983 0.0
C467 C 0.84256 0.9504 0.82296 0.0
N468 N 0.83236 0.87844 0.77633 0.0
N469 N 0.77525 0.96924 0.93283 0.0
C470 C 0.81461 0.90167 0.81163 0.0
C471 C 0.7857 0.94865 0.89145 0.0
N472 N 0.73743 0.83232 0.82567 0.0
N473 N 0.84722 1.02371 0.86442 0.0
H474 H 0.74539 0.95131 0.95621 0.0
H475 H 0.79785 1.00322 0.94543 0.0
H476 H 0.87681 1.04396 0.84193 0.0
H477 H 0.83306 1.04438 0.88759 0.0
H478 H 0.74044 0.8154 0.79323 0.0
H479 H 0.7043 0.81372 0.84533 0.0
H480 H 0.81741 0.84164 0.77007 0.0
H481 H 0.86432 0.89569 0.75475 0.0
C482 C 0.78517 0.26276 0.40415 0.0
C483 C 0.83908 0.26973 0.41158 0.0
C484 C 0.8432 0.23225 0.33337 0.0
C485 C 0.79017 0.22784 0.32449 0.0
N486 N 0.71385 0.24797 0.34654 0.0
N487 N 0.92258 0.2729 0.37884 0.0
C488 C 0.76201 0.24585 0.35846 0.0
C489 C 0.86911 0.25816 0.37472 0.0
N490 N 0.75578 0.27069 0.44113 0.0
N491 N 0.86818 0.20998 0.30347 0.0
H492 H 0.94302 0.29321 0.40816 0.0
H493 H 0.94686 0.26938 0.35109 0.0
H494 H 0.8503 0.18982 0.27313 0.0
H495 H 0.90494 0.20776 0.31119 0.0
H496 H 0.71508 0.26113 0.43943 0.0
H497 H 0.77165 0.28376 0.47487 0.0
H498 H 0.6938 0.26509 0.36797 0.0
H499 H 0.69592 0.23637 0.31318 0.0
C500 C 0.42049 0.69958 0.45602 0.0
C501 C 0.45258 0.71798 0.4156 0.0
C502 C 0.52325 0.69493 0.45288 0.0
C503 C 0.49026 0.6733 0.4918 0.0
N504 N 0.40416 0.64947 0.52659 0.0
N505 N 0.53047 0.72361 0.37121 0.0
C506 C 0.43784 0.67407 0.49221 0.0
C507 C 0.50245 0.71221 0.41263 0.0
N508 N 0.37393 0.70762 0.46053 0.0
N509 N 0.57581 0.70284 0.45613 0.0
H510 H 0.51672 0.73662 0.34135 0.0
H511 H 0.56465 0.71579 0.36488 0.0
H512 H 0.593 0.69492 0.48678 0.0
H513 H 0.60296 0.72243 0.43137 0.0
H514 H 0.35129 0.70042 0.49144 0.0
H515 H 0.35935 0.72414 0.43397 0.0
H516 H 0.36418 0.64437 0.52651 0.0
H517 H 0.41547 0.63082 0.55334 0.0
C518 C 0.11835 0.50811 0.94503 0.0
C519 C 0.16127 0.5347 0.91622 0.0
C520 C 0.17415 0.60409 0.97228 0.0
C521 C 0.12618 0.58004 0.99637 0.0
N522 N 0.04981 0.50905 1.00074 0.0
N523 N 0.22894 0.60964 0.9016 0.0
C524 C 0.09803 0.53171 0.98191 0.0
C525 C 0.18904 0.58308 0.92991 0.0
N526 N 0.09673 0.45986 0.93717 0.0
N527 N 0.20663 0.64674 0.99094 0.0
H528 H 0.24206 0.59502 0.87188 0.0
H529 H 0.24679 0.6465 0.90577 0.0
H530 H 0.19808 0.66213 1.02248 0.0
H531 H 0.24425 0.66426 0.97827 0.0
H532 H 0.06918 0.43736 0.95983 0.0
H533 H 0.1101 0.44172 0.91048 0.0
H534 H 1.02423 0.47638 0.98767 0.0
H535 H 1.0335 0.52486 1.02696 0.0
C536 C 0.58247 0.9597 0.95643 0.0
C537 C 0.56202 0.91735 0.98288 0.0
C538 C 0.51748 0.95733 1.03638 0.0
C539 C 0.54643 1.0019 1.01585 0.0
N540 N 0.60753 1.04621 0.95686 0.0
N541 N 0.51093 0.87512 1.04894 0.0
C542 C 0.57917 1.00329 0.97585 0.0
C543 C 0.52928 0.91581 1.02281 0.0
N544 N 0.60324 0.95785 0.91215 0.0
N545 N 0.47866 0.95436 0.06874 0.0
H546 H 0.51644 0.84317 1.03883 0.0
H547 H 0.49295 0.87373 0.08218 0.0
H548 H 0.46842 0.98345 0.08024 0.0
H549 H 0.45289 0.92211 0.08096 0.0
H550 H 0.61579 0.98692 0.88955 0.0
H551 H 0.60157 0.92552 0.89576 0.0
H552 H 0.63658 1.05003 0.93127 0.0
H553 H 0.60378 0.07846 0.96869 0.0
C554 C 0.9112 0.2214 0.6034 0.0
C555 C 0.92509 0.23122 0.5545 0.0
C556 C 0.95079 0.16042 0.54978 0.0
C557 C 0.9505 0.15797 0.60034 0.0
N558 N 0.92128 0.18165 0.67587 0.0
N559 N 0.96794 0.214 0.48367 0.0
C560 C 0.92813 0.18725 0.62755 0.0
C561 C 0.94806 0.20198 0.52846 0.0
N562 N 0.87901 0.24203 0.62574 0.0
N563 N 0.94984 0.12185 0.52201 0.0
H564 H 0.97061 0.24635 0.46819 0.0
H565 H 0.98677 0.19414 0.46441 0.0
H566 H 0.94213 0.08832 0.53691 0.0
H567 H 0.94752 0.12145 0.4846 0.0
H568 H 0.86339 0.23267 0.6597 0.0
H569 H 0.86356 0.26524 0.60865 0.0
H570 H 0.9139 0.207 0.69847 0.0
H571 H 0.92195 0.15121 0.69324 0.0
C572 C 0.29476 0.70498 0.19666 0.0
C573 C 0.29595 0.74349 0.22849 0.0
C574 C 0.20077 0.7251 0.21362 0.0
C575 C 0.20069 0.68975 0.17813 0.0
N576 N 0.24946 0.64979 0.132 0.0
N577 N 0.25052 0.79218 0.26529 0.0
C578 C 0.24813 0.68034 0.16902 0.0
C579 C 0.24896 0.75394 0.23636 0.0
N580 N 0.33839 0.6919 0.19281 0.0
N581 N 0.15423 0.72978 0.22734 0.0
H582 H 0.28347 0.81167 0.28567 0.0
H583 H 0.2202 0.80626 0.26729 0.0
H584 H 0.1182 0.70989 0.21184 0.0
H585 H 0.15039 0.75036 0.25689 0.0
H586 H 0.33881 0.66099 0.17478 0.0
H587 H 0.37349 0.71013 0.21086 0.0
H588 H 0.28362 0.64477 0.11995 0.0
H589 H 0.21689 0.63218 0.11036 0.0
C590 C 0.37336 0.53429 0.74219 0.0
C591 C 0.32555 0.51281 0.71618 0.0
C592 C 0.37545 0.53423 0.64025 0.0
C593 C 0.42296 0.5563 0.66644 0.0
N594 N 0.46256 0.59017 0.7421 0.0
N595 N 0.27992 0.50518 0.64041 0.0
C596 C 0.42029 0.56044 0.71731 0.0
C597 C 0.32635 0.51685 0.66513 0.0
N598 N 0.37518 0.52735 0.7904 0.0
N599 N 0.37724 0.52857 0.59155 0.0
H600 H 0.24364 0.49396 0.65747 0.0
H601 H 0.27743 0.51131 0.60396 0.0
H602 H 0.41175 0.54258 0.5721 0.0
H603 H 0.34524 0.50778 0.57088 0.0
H604 H 0.4101 0.5374 0.81016 0.0
H605 H 0.3425 0.50779 0.80996 0.0
H606 H 0.46167 0.59886 0.77847 0.0
H607 H 0.497 0.60944 0.7249 0.0
C608 C 0.75575 0.74667 0.98736 0.0
C609 C 0.7464 0.78595 1.01014 0.0
C610 C 0.81449 0.791 0.0701 0.0
C611 C 0.83093 0.75878 1.04136 0.0
N612 N 0.81844 0.70651 0.97126 0.0
N613 N 0.76506 0.84553 0.07381 0.0
C614 C 0.80123 0.73586 1.00013 0.0
C615 C 0.77452 0.80749 1.0524 0.0
N616 N 0.72163 0.72074 0.95262 0.0
N617 N 0.83723 0.80569 0.11417 0.0
H618 H 0.73463 0.85713 0.06274 0.0
H619 H 0.78861 0.86679 0.101 0.0
H620 H 0.86646 0.7939 0.12798 0.0
H621 H 0.82403 0.82594 0.13867 0.0
H622 H 0.72347 0.68912 0.93721 0.0
H623 H 0.68827 0.72859 0.94275 0.0
H624 H 0.80172 0.69318 0.93794 0.0
H625 H 0.85197 0.69808 0.97876 0.0
C626 C 0.41459 0.94024 0.23392 0.0
C627 C 0.43985 0.90547 0.22837 0.0
C628 C 0.51245 0.9654 0.18612 0.0
C629 C 0.48606 0.99953 0.18999 0.0
N630 N 0.40657 1.0152 0.20818 0.0
N631 N 0.50824 0.88247 0.19142 0.0
C632 C 0.43549 0.98558 0.21111 0.0
C633 C 0.4876 0.9175 0.20233 0.0
N634 N 0.37147 0.93061 0.26254 0.0
N635 N 0.56162 0.97879 0.16704 0.0
H636 H 0.49131 0.84733 0.20253 0.0
H637 H 0.5395 0.88694 0.16817 0.0
H638 H 0.57954 1.0119 0.15166 0.0
H639 H 0.5859 0.95817 0.16852 0.0
H640 H 0.35458 0.95604 0.27256 0.0
H641 H 0.35503 0.89815 0.27966 0.0
H642 H 0.3674 1.00548 0.21825 0.0
H643 H 0.42032 1.04802 0.19133 0.0
C644 C 0.20452 0.31809 0.73186 0.0
C645 C 0.18001 0.353 0.72472 0.0
C646 C 0.10962 0.29185 0.67829 0.0
C647 C 0.13725 0.25872 0.68077 0.0
N648 N 0.21686 0.24483 0.7032 0.0
N649 N 0.11364 0.37472 0.68281 0.0
C650 C 0.1862 0.27304 0.70598 0.0
C651 C 0.1337 0.34022 0.69568 0.0
N652 N 0.24475 0.32748 0.76442 0.0
N653 N 0.05919 0.27672 0.66111 0.0
H654 H 0.13012 0.41039 0.69405 0.0
H655 H 0.08368 0.36886 0.65742 0.0
H656 H 0.03952 0.24164 0.64949 0.0
H657 H 1.03506 0.29754 0.66303 0.0
H658 H 0.26068 0.3019 0.77514 0.0
H659 H 0.25886 0.35957 0.78418 0.0
H660 H 0.2552 0.25546 0.71641 0.0
H661 H 0.20608 0.2128 0.68334 0.0
C662 C 0.79196 0.41131 0.55789 0.0
C663 C 0.83576 0.43168 0.52796 0.0
C664 C 0.78717 0.47355 0.48336 0.0
C665 C 0.74501 0.45642 0.51591 0.0
N666 N 0.7104 0.41596 0.58913 0.0
N667 N 0.8787 0.486 0.466 0.0
C668 C 0.74816 0.42709 0.55453 0.0
C669 C 0.83448 0.46399 0.49176 0.0
N670 N 0.79168 0.37608 0.58881 0.0
N671 N 0.78128 0.49775 0.44377 0.0
H672 H 0.91362 0.47897 0.47077 0.0
H673 H 0.88213 0.51365 0.44253 0.0
H674 H 0.74706 0.50524 0.43658 0.0
H675 H 0.80841 0.50714 0.41611 0.0
H676 H 0.75843 0.35585 0.60724 0.0
H677 H 0.82364 0.36445 0.59342 0.0
H678 H 0.71371 0.39943 0.62098 0.0
H679 H 0.67756 0.42675 0.5881 0.0
loop_
_geom_bond_atom_site_label_1
_geom_bond_atom_site_label_2
_geom_bond_distance
_geom_bond_site_symmetry_2
_ccdc_geom_bond_type
H0 C3 0.929 . S
H1 C6 0.929 . S
H2 C8 0.930 . S
C3 H0 0.929 . S
C3 C4 1.398 . S
C3 C5 1.396 . S
C4 C3 1.398 . S
C4 C8 1.407 . S
C5 C3 1.396 . S
C5 C6 1.394 . S
C6 H1 0.929 . S
C6 C5 1.394 . S
C6 C7 1.382 . S
C7 C6 1.382 . S
C7 C8 1.392 . S
C7 N9 1.420 . S
C8 H2 0.930 . S
C8 C4 1.407 . S
C8 C7 1.392 . S
N9 C7 1.420 . S
N9 C10 1.244 . S
C10 N9 1.244 . S
H11 C14 0.929 . S
H12 C17 0.929 . S
H13 C19 0.930 . S
C14 H11 0.929 . S
C14 C15 1.398 . S
C14 C16 1.396 . S
C15 C14 1.398 . S
C15 C19 1.407 . S
C16 C14 1.396 . S
C16 C17 1.394 . S
C17 H12 0.929 . S
C17 C16 1.394 . S
C17 C18 1.382 . S
C18 C17 1.382 . S
C18 C19 1.392 . S
C18 N20 1.420 . S
C19 H13 0.930 . S
C19 C15 1.407 . S
C19 C18 1.392 . S
N20 C18 1.420 . S
N20 C21 1.244 . S
C21 N20 1.244 . S
H22 C25 0.929 . S
H23 C28 0.929 . S
H24 C30 0.930 . S
C25 H22 0.929 . S
C25 C26 1.398 . S
C25 C27 1.396 . S
C26 C25 1.398 . S
C26 C30 1.407 . S
C27 C25 1.396 . S
C27 C28 1.394 . S
C28 H23 0.929 . S
C28 C27 1.394 . S
C28 C29 1.382 . S
C29 C28 1.382 . S
C29 C30 1.392 . S
C29 N31 1.420 . S
C30 H24 0.930 . S
C30 C26 1.407 . S
C30 C29 1.392 . S
N31 C29 1.420 . S
N31 C32 1.244 . S
C32 N31 1.244 . S
H33 C36 0.929 . S
H34 C39 0.929 . S
H35 C41 0.930 . S
C36 H33 0.929 . S
C36 C37 1.398 . S
C36 C38 1.396 . S
C37 C36 1.398 . S
C37 C41 1.407 . S
C38 C36 1.396 . S
C38 C39 1.394 . S
C39 H34 0.929 . S
C39 C38 1.394 . S
C39 C40 1.382 . S
C40 C39 1.382 . S
C40 C41 1.392 . S
C40 N42 1.420 . S
C41 H35 0.930 . S
C41 C37 1.407 . S
C41 C40 1.392 . S
N42 C40 1.420 . S
N42 C43 1.244 . S
C43 N42 1.244 . S
H44 C47 0.929 . S
H45 C50 0.929 . S
H46 C52 0.930 . S
C47 H44 0.929 . S
C47 C48 1.398 . S
C47 C49 1.396 . S
C48 C47 1.398 . S
C48 C52 1.407 . S
C49 C47 1.396 . S
C49 C50 1.394 . S
C50 H45 0.929 . S
C50 C49 1.394 . S
C50 C51 1.382 . S
C51 C50 1.382 . S
C51 C52 1.392 . S
C51 N53 1.420 . S
C52 H46 0.930 . S
C52 C48 1.407 . S
C52 C51 1.392 . S
N53 C51 1.420 . S
N53 C54 1.244 . S
C54 N53 1.244 . S
H55 C58 0.929 . S
H56 C61 0.929 . S
H57 C63 0.930 . S
C58 H55 0.929 . S
C58 C59 1.398 . S
C58 C60 1.396 . S
C59 C58 1.398 . S
C59 C63 1.407 . S
C60 C58 1.396 . S
C60 C61 1.394 . S
C61 H56 0.929 . S
C61 C60 1.394 . S
C61 C62 1.382 . S
C62 C61 1.382 . S
C62 C63 1.392 . S
C62 N64 1.420 . S
C63 H57 0.930 . S
C63 C59 1.407 . S
C63 C62 1.392 . S
N64 C62 1.420 . S
N64 C65 1.244 . S
C65 N64 1.244 . S
H66 C69 0.929 . S
H67 C72 0.929 . S
H68 C74 0.930 . S
C69 H66 0.929 . S
C69 C70 1.398 . S
C69 C71 1.396 . S
C70 C69 1.398 . S
C70 C74 1.407 . S
C71 C69 1.396 . S
C71 C72 1.394 . S
C72 H67 0.929 . S
C72 C71 1.394 . S
C72 C73 1.382 . S
C73 C72 1.382 . S
C73 C74 1.392 . S
C73 N75 1.420 . S
C74 H68 0.930 . S
C74 C70 1.407 . S
C74 C73 1.392 . S
N75 C73 1.420 . S
N75 C76 1.244 . S
C76 N75 1.244 . S
H77 C80 0.929 . S
H78 C83 0.929 . S
H79 C85 0.930 . S
C80 H77 0.929 . S
C80 C81 1.398 . S
C80 C82 1.396 . S
C81 C80 1.398 . S
C81 C85 1.407 . S
C82 C80 1.396 . S
C82 C83 1.394 . S
C83 H78 0.929 . S
C83 C82 1.394 . S
C83 C84 1.382 . S
C84 C83 1.382 . S
C84 C85 1.392 . S
C84 N86 1.420 . S
C85 H79 0.930 . S
C85 C81 1.407 . S
C85 C84 1.392 . S
N86 C84 1.420 . S
N86 C87 1.244 . S
C87 N86 1.244 . S
La88 C90 2.928 . S
La88 O108 2.521 . S
La88 O109 2.628 . S
La88 O110 2.554 . S
La88 O111 2.767 . S
La88 O112 2.470 . S
La88 O117 2.482 1_455 S
La88 O119 2.503 1_445 S
La89 C99 2.928 1_545 S
La89 O111 2.493 1_655 S
La89 O113 2.503 1_655 S
La89 O114 2.521 1_545 S
La89 O115 2.628 1_545 S
La89 O116 2.554 . S
La89 O117 2.757 . S
La89 O118 2.470 1_545 S
C90 La88 2.928 . S
C90 C91 1.503 . S
C90 O108 1.261 . S
C90 O109 1.243 . S
C91 C90 1.503 . S
C91 C92 1.394 . S
C91 C96 1.373 . S
C92 C91 1.394 . S
C92 C93 1.380 . S
C92 H120 0.930 . S
C93 C92 1.380 . S
C93 C94 1.376 . S
C93 H121 0.930 . S
C94 C93 1.376 . S
C94 C95 1.370 . S
C95 C94 1.370 . S
C95 C96 1.396 . S
C95 H122 0.929 . S
C96 C91 1.373 . S
C96 C95 1.396 . S
C96 H123 0.929 . S
C97 O110 1.240 1_565 S
C97 O111 1.280 1_565 S
C98 O112 1.258 . S
C98 O113 1.256 . S
C99 La89 2.928 1_565 S
C99 C100 1.503 . S
C99 O114 1.261 . S
C99 O115 1.243 . S
C100 C99 1.503 . S
C100 C101 1.394 . S
C100 C105 1.373 . S
C101 C100 1.394 . S
C101 C102 1.380 . S
C101 H124 0.930 . S
C102 C101 1.380 . S
C102 C103 1.376 . S
C102 H125 0.930 . S
C103 C102 1.376 . S
C103 C104 1.370 . S
C104 C103 1.370 . S
C104 C105 1.396 . S
C104 H126 0.929 . S
C105 C100 1.373 . S
C105 C104 1.396 . S
C105 H127 0.929 . S
C106 O116 1.240 . S
C106 O117 1.289 . S
C107 O118 1.258 . S
C107 O119 1.256 . S
O108 La88 2.521 . S
O108 C90 1.261 . S
O109 La88 2.628 . S
O109 C90 1.243 . S
O110 La88 2.554 . S
O110 C97 1.240 1_545 S
O111 La88 2.767 . S
O111 La89 2.493 1_455 S
O111 C97 1.280 1_545 S
O112 La88 2.470 . S
O112 C98 1.258 . S
O113 La89 2.503 1_455 S
O113 C98 1.256 . S
O114 La89 2.521 1_565 S
O114 C99 1.261 . S
O115 La89 2.628 1_565 S
O115 C99 1.243 . S
O116 La89 2.554 . S
O116 C106 1.240 . S
O117 La88 2.482 1_655 S
O117 La89 2.757 . S
O117 C106 1.289 . S
O118 La89 2.470 1_565 S
O118 C107 1.258 . S
O119 La88 2.503 1_665 S
O119 C107 1.256 . S
H120 C92 0.930 . S
H121 C93 0.930 . S
H122 C95 0.929 . S
H123 C96 0.929 . S
H124 C101 0.930 . S
H125 C102 0.930 . S
H126 C104 0.929 . S
H127 C105 0.929 . S
La128 C130 2.928 . S
La128 O148 2.521 . S
La128 O149 2.628 . S
La128 O150 2.554 1_545 S
La128 O151 2.757 1_545 S
La128 O152 2.470 . S
La128 O157 2.482 . S
La128 O159 2.503 1_545 S
La129 C139 2.928 1_544 S
La129 O151 2.482 1_545 S
La129 O153 2.503 . S
La129 O154 2.521 1_554 S
La129 O155 2.628 1_544 S
La129 O156 2.554 1_554 S
La129 O157 2.757 . S
La129 O158 2.470 1_554 S
C130 La128 2.928 . S
C130 C131 1.503 . S
C130 O148 1.261 . S
C130 O149 1.243 . S
C131 C130 1.503 . S
C131 C132 1.394 . S
C131 C136 1.373 . S
C132 C131 1.394 . S
C132 C133 1.380 . S
C132 H160 0.930 . S
C133 C132 1.380 . S
C133 C134 1.376 . S
C133 H161 0.930 . S
C134 C133 1.376 . S
C134 C135 1.370 . S
C135 C134 1.370 . S
C135 C136 1.396 . S
C135 H162 0.929 . S
C136 C131 1.373 . S
C136 C135 1.396 . S
C136 H163 0.929 . S
C137 O150 1.240 . S
C137 O151 1.289 . S
C138 O152 1.258 . S
C138 O153 1.256 . S
C139 La129 2.928 1_566 S
C139 C140 1.503 . S
C139 O154 1.261 1_565 S
C139 O155 1.243 . S
C140 C139 1.503 . S
C140 C141 1.394 . S
C140 C145 1.373 . S
C141 C140 1.394 . S
C141 C142 1.380 . S
C141 H164 0.930 1_565 S
C142 C141 1.380 . S
C142 C143 1.376 . S
C142 H165 0.930 . S
C143 C142 1.376 . S
C143 C144 1.370 . S
C144 C143 1.370 . S
C144 C145 1.396 . S
C144 H166 0.929 . S
C145 C140 1.373 . S
C145 C144 1.396 . S
C145 H167 0.929 . S
C146 O156 1.240 1_554 S
C146 O157 1.289 . S
C147 O158 1.259 1_565 S
C147 O159 1.253 1_556 S
O148 La128 2.521 . S
O148 C130 1.261 . S
O149 La128 2.628 . S
O149 C130 1.243 . S
O150 La128 2.554 1_565 S
O150 C137 1.240 . S
O151 La128 2.757 1_565 S
O151 La129 2.482 1_565 S
O151 C137 1.289 . S
O152 La128 2.470 . S
O152 C138 1.258 . S
O153 La129 2.503 . S
O153 C138 1.256 . S
O154 La129 2.521 1_556 S
O154 C139 1.261 1_545 S
O155 La129 2.628 1_566 S
O155 C139 1.243 . S
O156 La129 2.554 1_556 S
O156 C146 1.240 1_556 S
O157 La128 2.482 . S
O157 La129 2.757 . S
O157 C146 1.289 . S
O158 La129 2.470 1_556 S
O158 C147 1.259 1_545 S
O159 La128 2.503 1_565 S
O159 C147 1.253 1_554 S
H160 C132 0.930 . S
H161 C133 0.930 . S
H162 C135 0.929 . S
H163 C136 0.929 . S
H164 C141 0.930 1_545 S
H165 C142 0.930 . S
H166 C144 0.929 . S
H167 C145 0.929 . S
La168 C170 2.928 . S
La168 O188 2.521 . S
La168 O189 2.628 . S
La168 O190 2.554 . S
La168 O191 2.757 . S
La168 O192 2.470 . S
La168 O197 2.482 . S
La168 O199 2.503 . S
La169 C179 2.928 . S
La169 O191 2.482 . S
La169 O193 2.503 . S
La169 O194 2.521 . S
La169 O195 2.628 . S
La169 O196 2.554 . S
La169 O197 2.757 . S
La169 O198 2.470 . S
C170 La168 2.928 . S
C170 C171 1.503 . S
C170 O188 1.261 . S
C170 O189 1.243 . S
C171 C170 1.503 . S
C171 C172 1.394 . S
C171 C176 1.373 . S
C172 C171 1.394 . S
C172 C173 1.380 . S
C172 H200 0.930 . S
C173 C172 1.380 . S
C173 C174 1.376 . S
C173 H201 0.930 . S
C174 C173 1.376 . S
C174 C175 1.370 . S
C175 C174 1.370 . S
C175 C176 1.396 . S
C175 H202 0.929 . S
C176 C171 1.373 . S
C176 C175 1.396 . S
C176 H203 0.929 . S
C177 O190 1.240 . S
C177 O191 1.289 . S
C178 O192 1.258 . S
C178 O193 1.256 . S
C179 La169 2.928 . S
C179 C180 1.503 . S
C179 O194 1.261 . S
C179 O195 1.243 . S
C180 C179 1.503 . S
C180 C181 1.394 . S
C180 C185 1.373 . S
C181 C180 1.394 . S
C181 C182 1.380 . S
C181 H204 0.930 . S
C182 C181 1.380 . S
C182 C183 1.376 . S
C182 H205 0.930 . S
C183 C182 1.376 . S
C183 C184 1.370 . S
C184 C183 1.370 . S
C184 C185 1.396 . S
C184 H206 0.929 . S
C185 C180 1.373 . S
C185 C184 1.396 . S
C185 H207 0.929 . S
C186 O196 1.240 . S
C186 O197 1.289 . S
C187 O198 1.258 . S
C187 O199 1.256 . S
O188 La168 2.521 . S
O188 C170 1.261 . S
O189 La168 2.628 . S
O189 C170 1.243 . S
O190 La168 2.554 . S
O190 C177 1.240 . S
O191 La168 2.757 . S
O191 La169 2.482 . S
O191 C177 1.289 . S
O192 La168 2.470 . S
O192 C178 1.258 . S
O193 La169 2.503 . S
O193 C178 1.256 . S
O194 La169 2.521 . S
O194 C179 1.261 . S
O195 La169 2.628 . S
O195 C179 1.243 . S
O196 La169 2.554 . S
O196 C186 1.240 . S
O197 La168 2.482 . S
O197 La169 2.757 . S
O197 C186 1.289 . S
O198 La169 2.470 . S
O198 C187 1.258 . S
O199 La168 2.503 . S
O199 C187 1.256 . S
H200 C172 0.930 . S
H201 C173 0.930 . S
H202 C175 0.929 . S
H203 C176 0.929 . S
H204 C181 0.930 . S
H205 C182 0.930 . S
H206 C184 0.929 . S
H207 C185 0.929 . S
La208 C210 2.928 . S
La208 O228 2.521 . S
La208 O229 2.628 . S
La208 O230 2.554 1_455 S
La208 O231 2.757 1_455 S
La208 O232 2.470 . S
La208 O237 2.482 1_554 S
La208 O239 2.503 1_455 S
La209 C219 2.928 1_455 S
La209 O231 2.482 1_456 S
La209 O233 2.503 1_556 S
La209 O234 2.521 1_455 S
La209 O235 2.628 1_455 S
La209 O236 2.554 . S
La209 O237 2.757 . S
La209 O238 2.470 1_455 S
C210 La208 2.928 . S
C210 C211 1.503 . S
C210 O228 1.261 . S
C210 O229 1.243 . S
C211 C210 1.503 . S
C211 C212 1.394 . S
C211 C216 1.373 . S
C212 C211 1.394 . S
C212 C213 1.380 . S
C212 H240 0.930 . S
C213 C212 1.380 . S
C213 C214 1.376 . S
C213 H241 0.930 . S
C214 C213 1.376 . S
C214 C215 1.370 . S
C215 C214 1.370 . S
C215 C216 1.396 . S
C215 H242 0.929 . S
C216 C211 1.373 . S
C216 C215 1.396 . S
C216 H243 0.929 . S
C217 O230 1.240 . S
C217 O231 1.289 . S
C218 O232 1.258 . S
C218 O233 1.256 . S
C219 La209 2.928 1_655 S
C219 C220 1.503 . S
C219 O234 1.261 . S
C219 O235 1.243 . S
C220 C219 1.503 . S
C220 C221 1.394 . S
C220 C225 1.373 . S
C221 C220 1.394 . S
C221 C222 1.380 . S
C221 H244 0.930 . S
C222 C221 1.380 . S
C222 C223 1.376 . S
C222 H245 0.930 . S
C223 C222 1.376 . S
C223 C224 1.370 . S
C224 C223 1.370 . S
C224 C225 1.396 . S
C224 H246 0.929 . S
C225 C220 1.373 . S
C225 C224 1.396 . S
C225 H247 0.929 . S
C226 O236 1.240 . S
C226 O237 1.289 . S
C227 O238 1.258 . S
C227 O239 1.256 1_556 S
O228 La208 2.521 . S
O228 C210 1.261 . S
O229 La208 2.628 . S
O229 C210 1.243 . S
O230 La208 2.554 1_655 S
O230 C217 1.240 . S
O231 La208 2.757 1_655 S
O231 La209 2.482 1_654 S
O231 C217 1.289 . S
O232 La208 2.470 . S
O232 C218 1.258 . S
O233 La209 2.503 1_554 S
O233 C218 1.256 . S
O234 La209 2.521 1_655 S
O234 C219 1.261 . S
O235 La209 2.628 1_655 S
O235 C219 1.243 . S
O236 La209 2.554 . S
O236 C226 1.240 . S
O237 La208 2.482 1_556 S
O237 La209 2.757 . S
O237 C226 1.289 . S
O238 La209 2.470 1_655 S
O238 C227 1.258 . S
O239 La208 2.503 1_655 S
O239 C227 1.256 1_554 S
H240 C212 0.930 . S
H241 C213 0.930 . S
H242 C215 0.929 . S
H243 C216 0.929 . S
H244 C221 0.930 . S
H245 C222 0.930 . S
H246 C224 0.929 . S
H247 C225 0.929 . S
C248 C249 1.363 . S
C248 C254 1.379 . S
C248 N256 1.356 . S
C249 C248 1.363 . S
C249 C255 1.363 . S
C250 C251 1.363 . S
C250 C255 1.379 . S
C250 N257 1.356 . S
C251 C250 1.363 . S
C251 C254 1.363 . S
N252 C254 1.356 . S
N252 H264 0.984 . S
N252 H265 0.985 . S
N253 C255 1.356 . S
N253 H258 0.984 . S
N253 H259 0.985 . S
C254 C248 1.379 . S
C254 C251 1.363 . S
C254 N252 1.356 . S
C255 C249 1.363 . S
C255 C250 1.379 . S
C255 N253 1.356 . S
N256 C248 1.356 . S
N256 H262 0.984 . S
N256 H263 0.984 . S
N257 C250 1.356 . S
N257 H260 0.984 . S
N257 H261 0.985 . S
H258 N253 0.984 . S
H259 N253 0.985 . S
H260 N257 0.984 . S
H261 N257 0.985 . S
H262 N256 0.984 . S
H263 N256 0.984 . S
H264 N252 0.984 . S
H265 N252 0.985 . S
C266 C267 1.363 . S
C266 C272 1.379 . S
C266 N274 1.356 . S
C267 C266 1.363 . S
C267 C273 1.363 . S
C268 C269 1.363 . S
C268 C273 1.379 . S
C268 N275 1.356 . S
C269 C268 1.363 . S
C269 C272 1.363 . S
N270 C272 1.356 . S
N270 H282 0.984 . S
N270 H283 0.985 . S
N271 C273 1.356 . S
N271 H276 0.984 . S
N271 H277 0.985 . S
C272 C266 1.379 . S
C272 C269 1.363 . S
C272 N270 1.356 . S
C273 C267 1.363 . S
C273 C268 1.379 . S
C273 N271 1.356 . S
N274 C266 1.356 . S
N274 H280 0.984 . S
N274 H281 0.984 . S
N275 C268 1.356 . S
N275 H278 0.984 . S
N275 H279 0.985 . S
H276 N271 0.984 . S
H277 N271 0.985 . S
H278 N275 0.984 . S
H279 N275 0.985 . S
H280 N274 0.984 . S
H281 N274 0.984 . S
H282 N270 0.984 . S
H283 N270 0.985 . S
C284 C285 1.363 . S
C284 C290 1.379 . S
C284 N292 1.356 . S
C285 C284 1.363 . S
C285 C291 1.363 . S
C286 C287 1.363 . S
C286 C291 1.379 . S
C286 N293 1.356 . S
C287 C286 1.363 . S
C287 C290 1.363 . S
N288 C290 1.356 . S
N288 H300 0.984 . S
N288 H301 0.985 . S
N289 C291 1.356 . S
N289 H294 0.984 . S
N289 H295 0.985 . S
C290 C284 1.379 . S
C290 C287 1.363 . S
C290 N288 1.356 . S
C291 C285 1.363 . S
C291 C286 1.379 . S
C291 N289 1.356 . S
N292 C284 1.356 . S
N292 H298 0.984 . S
N292 H299 0.984 . S
N293 C286 1.356 . S
N293 H296 0.984 . S
N293 H297 0.985 . S
H294 N289 0.984 . S
H295 N289 0.985 . S
H296 N293 0.984 . S
H297 N293 0.985 . S
H298 N292 0.984 . S
H299 N292 0.984 . S
H300 N288 0.984 . S
H301 N288 0.985 . S
C302 C303 1.363 . S
C302 C308 1.379 . S
C302 N310 1.356 . S
C303 C302 1.363 . S
C303 C309 1.363 . S
C304 C305 1.363 . S
C304 C309 1.379 . S
C304 N311 1.356 1_655 S
C305 C304 1.363 . S
C305 C308 1.363 . S
N306 C308 1.356 . S
N306 H318 0.984 . S
N306 H319 0.985 . S
N307 C309 1.356 . S
N307 H312 0.984 . S
N307 H313 0.985 . S
C308 C302 1.379 . S
C308 C305 1.363 . S
C308 N306 1.356 . S
C309 C303 1.363 . S
C309 C304 1.379 . S
C309 N307 1.356 . S
N310 C302 1.356 . S
N310 H316 0.984 . S
N310 H317 0.984 . S
N311 C304 1.356 1_455 S
N311 H314 0.984 . S
N311 H315 0.985 . S
H312 N307 0.984 . S
H313 N307 0.985 . S
H314 N311 0.984 . S
H315 N311 0.985 . S
H316 N310 0.984 . S
H317 N310 0.984 . S
H318 N306 0.984 . S
H319 N306 0.985 . S
C320 C321 1.363 . S
C320 C326 1.379 . S
C320 N328 1.356 . S
C321 C320 1.363 . S
C321 C327 1.363 . S
C322 C323 1.363 . S
C322 C327 1.379 . S
C322 N329 1.356 . S
C323 C322 1.363 . S
C323 C326 1.363 . S
N324 C326 1.356 . S
N324 H336 0.984 . S
N324 H337 0.985 . S
N325 C327 1.356 . S
N325 H330 0.984 . S
N325 H331 0.985 . S
C326 C320 1.379 . S
C326 C323 1.363 . S
C326 N324 1.356 . S
C327 C321 1.363 . S
C327 C322 1.379 . S
C327 N325 1.356 . S
N328 C320 1.356 . S
N328 H334 0.984 . S
N328 H335 0.984 . S
N329 C322 1.356 . S
N329 H332 0.984 . S
N329 H333 0.985 . S
H330 N325 0.984 . S
H331 N325 0.985 . S
H332 N329 0.984 . S
H333 N329 0.985 . S
H334 N328 0.984 . S
H335 N328 0.984 . S
H336 N324 0.984 . S
H337 N324 0.985 . S
C338 C339 1.363 . S
C338 C344 1.379 . S
C338 N346 1.356 . S
C339 C338 1.363 . S
C339 C345 1.363 . S
C340 C341 1.363 . S
C340 C345 1.379 . S
C340 N347 1.356 . S
C341 C340 1.363 . S
C341 C344 1.363 . S
N342 C344 1.356 1_545 S
N342 H354 0.984 . S
N342 H355 0.985 . S
N343 C345 1.356 . S
N343 H348 0.984 . S
N343 H349 0.985 . S
C344 C338 1.379 . S
C344 C341 1.363 . S
C344 N342 1.356 1_565 S
C345 C339 1.363 . S
C345 C340 1.379 . S
C345 N343 1.356 . S
N346 C338 1.356 . S
N346 H352 0.984 . S
N346 H353 0.984 . S
N347 C340 1.356 . S
N347 H350 0.984 1_565 S
N347 H351 0.975 1_455 S
H348 N343 0.984 . S
H349 N343 0.985 . S
H350 N347 0.984 1_545 S
H351 N347 0.975 1_655 S
H352 N346 0.984 . S
H353 N346 0.984 . S
H354 N342 0.984 . S
H355 N342 0.985 . S
C356 C357 1.363 . S
C356 C362 1.379 . S
C356 N364 1.356 . S
C357 C356 1.363 . S
C357 C363 1.363 . S
C358 C359 1.363 . S
C358 C363 1.379 . S
C358 N365 1.356 . S
C359 C358 1.363 . S
C359 C362 1.363 . S
N360 C362 1.356 . S
N360 H372 0.985 1_556 S
N360 H373 0.985 1_556 S
N361 C363 1.356 . S
N361 H366 0.984 . S
N361 H367 0.985 . S
C362 C356 1.379 . S
C362 C359 1.363 . S
C362 N360 1.356 . S
C363 C357 1.363 . S
C363 C358 1.379 . S
C363 N361 1.356 . S
N364 C356 1.356 . S
N364 H370 0.984 . S
N364 H371 0.984 . S
N365 C358 1.356 . S
N365 H368 0.984 . S
N365 H369 0.985 . S
H366 N361 0.984 . S
H367 N361 0.985 . S
H368 N365 0.984 . S
H369 N365 0.985 . S
H370 N364 0.984 . S
H371 N364 0.984 . S
H372 N360 0.985 1_554 S
H373 N360 0.985 1_554 S
C374 C375 1.363 . S
C374 C380 1.379 . S
C374 N382 1.356 . S
C375 C374 1.363 . S
C375 C381 1.363 . S
C376 C377 1.363 . S
C376 C381 1.379 . S
C376 N383 1.356 . S
C377 C376 1.363 . S
C377 C380 1.363 . S
N378 C380 1.356 . S
N378 H390 0.984 . S
N378 H391 0.985 . S
N379 C381 1.356 . S
N379 H384 0.984 . S
N379 H385 0.985 . S
C380 C374 1.379 . S
C380 C377 1.363 . S
C380 N378 1.356 . S
C381 C375 1.363 . S
C381 C376 1.379 . S
C381 N379 1.356 . S
N382 C374 1.356 . S
N382 H388 0.984 . S
N382 H389 0.984 . S
N383 C376 1.356 . S
N383 H386 0.984 . S
N383 H387 0.985 . S
H384 N379 0.984 . S
H385 N379 0.985 . S
H386 N383 0.984 . S
H387 N383 0.985 . S
H388 N382 0.984 . S
H389 N382 0.984 . S
H390 N378 0.984 . S
H391 N378 0.985 . S
C392 C393 1.363 . S
C392 C398 1.379 . S
C392 N400 1.356 . S
C393 C392 1.363 . S
C393 C399 1.363 . S
C394 C395 1.363 . S
C394 C399 1.379 . S
C394 N401 1.356 . S
C395 C394 1.363 . S
C395 C398 1.363 . S
N396 C398 1.356 . S
N396 H408 0.984 . S
N396 H409 0.985 . S
N397 C399 1.356 . S
N397 H402 0.984 . S
N397 H403 0.985 . S
C398 C392 1.379 . S
C398 C395 1.363 . S
C398 N396 1.356 . S
C399 C393 1.363 . S
C399 C394 1.379 . S
C399 N397 1.356 . S
N400 C392 1.356 . S
N400 H406 0.984 . S
N400 H407 0.984 . S
N401 C394 1.356 . S
N401 H404 0.984 . S
N401 H405 0.985 . S
H402 N397 0.984 . S
H403 N397 0.985 . S
H404 N401 0.984 . S
H405 N401 0.985 . S
H406 N400 0.984 . S
H407 N400 0.984 . S
H408 N396 0.984 . S
H409 N396 0.985 . S
C410 C411 1.363 . S
C410 C416 1.379 . S
C410 N418 1.356 . S
C411 C410 1.363 . S
C411 C417 1.363 . S
C412 C413 1.363 . S
C412 C417 1.379 . S
C412 N419 1.356 . S
C413 C412 1.363 . S
C413 C416 1.363 . S
N414 C416 1.356 1_554 S
N414 H426 0.984 . S
N414 H427 0.985 . S
N415 C417 1.356 . S
N415 H420 0.984 . S
N415 H421 0.985 . S
C416 C410 1.379 . S
C416 C413 1.363 . S
C416 N414 1.356 1_556 S
C417 C411 1.363 . S
C417 C412 1.379 . S
C417 N415 1.356 . S
N418 C410 1.356 . S
N418 H424 0.984 . S
N418 H425 0.984 . S
N419 C412 1.356 . S
N419 H422 0.984 . S
N419 H423 0.985 . S
H420 N415 0.984 . S
H421 N415 0.985 . S
H422 N419 0.984 . S
H423 N419 0.985 . S
H424 N418 0.984 . S
H425 N418 0.984 . S
H426 N414 0.984 . S
H427 N414 0.985 . S
C428 C429 1.363 . S
C428 C434 1.379 . S
C428 N436 1.356 . S
C429 C428 1.363 . S
C429 C435 1.363 . S
C430 C431 1.363 . S
C430 C435 1.379 . S
C430 N437 1.356 . S
C431 C430 1.363 . S
C431 C434 1.363 . S
N432 C434 1.356 . S
N432 H444 0.984 . S
N432 H445 0.985 . S
N433 C435 1.356 . S
N433 H438 0.984 . S
N433 H439 0.985 . S
C434 C428 1.379 . S
C434 C431 1.363 . S
C434 N432 1.356 . S
C435 C429 1.363 . S
C435 C430 1.379 . S
C435 N433 1.356 . S
N436 C428 1.356 . S
N436 H442 0.984 . S
N436 H443 0.984 . S
N437 C430 1.356 . S
N437 H440 0.984 . S
N437 H441 0.985 . S
H438 N433 0.984 . S
H439 N433 0.985 . S
H440 N437 0.984 . S
H441 N437 0.985 . S
H442 N436 0.984 . S
H443 N436 0.984 . S
H444 N432 0.984 . S
H445 N432 0.985 . S
C446 C447 1.363 . S
C446 C452 1.379 . S
C446 N454 1.356 . S
C447 C446 1.363 . S
C447 C453 1.363 . S
C448 C449 1.363 . S
C448 C453 1.379 . S
C448 N455 1.356 . S
C449 C448 1.363 . S
C449 C452 1.363 . S
N450 C452 1.356 . S
N450 H462 0.984 . S
N450 H463 0.985 . S
N451 C453 1.356 . S
N451 H456 0.984 . S
N451 H457 0.985 . S
C452 C446 1.379 . S
C452 C449 1.363 . S
C452 N450 1.356 . S
C453 C447 1.363 . S
C453 C448 1.379 . S
C453 N451 1.356 . S
N454 C446 1.356 . S
N454 H460 0.984 . S
N454 H461 0.984 . S
N455 C448 1.356 . S
N455 H458 0.984 . S
N455 H459 0.985 . S
H456 N451 0.984 . S
H457 N451 0.985 . S
H458 N455 0.984 . S
H459 N455 0.985 . S
H460 N454 0.984 . S
H461 N454 0.984 . S
H462 N450 0.984 . S
H463 N450 0.985 . S
C464 C465 1.363 . S
C464 C470 1.379 . S
C464 N472 1.356 . S
C465 C464 1.363 . S
C465 C471 1.363 . S
C466 C467 1.363 . S
C466 C471 1.379 . S
C466 N473 1.356 . S
C467 C466 1.363 . S
C467 C470 1.363 . S
N468 C470 1.356 . S
N468 H480 0.984 . S
N468 H481 0.985 . S
N469 C471 1.356 . S
N469 H474 0.984 . S
N469 H475 0.985 . S
C470 C464 1.379 . S
C470 C467 1.363 . S
C470 N468 1.356 . S
C471 C465 1.363 . S
C471 C466 1.379 . S
C471 N469 1.356 . S
N472 C464 1.356 . S
N472 H478 0.984 . S
N472 H479 0.984 . S
N473 C466 1.356 . S
N473 H476 0.984 . S
N473 H477 0.985 . S
H474 N469 0.984 . S
H475 N469 0.985 . S
H476 N473 0.984 . S
H477 N473 0.985 . S
H478 N472 0.984 . S
H479 N472 0.984 . S
H480 N468 0.984 . S
H481 N468 0.985 . S
C482 C483 1.363 . S
C482 C488 1.379 . S
C482 N490 1.356 . S
C483 C482 1.363 . S
C483 C489 1.363 . S
C484 C485 1.363 . S
C484 C489 1.379 . S
C484 N491 1.356 . S
C485 C484 1.363 . S
C485 C488 1.363 . S
N486 C488 1.356 . S
N486 H498 0.984 . S
N486 H499 0.985 . S
N487 C489 1.356 . S
N487 H492 0.984 . S
N487 H493 0.985 . S
C488 C482 1.379 . S
C488 C485 1.363 . S
C488 N486 1.356 . S
C489 C483 1.363 . S
C489 C484 1.379 . S
C489 N487 1.356 . S
N490 C482 1.356 . S
N490 H496 0.984 . S
N490 H497 0.984 . S
N491 C484 1.356 . S
N491 H494 0.984 . S
N491 H495 0.985 . S
H492 N487 0.984 . S
H493 N487 0.985 . S
H494 N491 0.984 . S
H495 N491 0.985 . S
H496 N490 0.984 . S
H497 N490 0.984 . S
H498 N486 0.984 . S
H499 N486 0.985 . S
C500 C501 1.363 . S
C500 C506 1.379 . S
C500 N508 1.356 . S
C501 C500 1.363 . S
C501 C507 1.363 . S
C502 C503 1.363 . S
C502 C507 1.379 . S
C502 N509 1.356 . S
C503 C502 1.363 . S
C503 C506 1.363 . S
N504 C506 1.356 . S
N504 H516 0.984 . S
N504 H517 0.985 . S
N505 C507 1.356 . S
N505 H510 0.984 . S
N505 H511 0.985 . S
C506 C500 1.379 . S
C506 C503 1.363 . S
C506 N504 1.356 . S
C507 C501 1.363 . S
C507 C502 1.379 . S
C507 N505 1.356 . S
N508 C500 1.356 . S
N508 H514 0.984 . S
N508 H515 0.984 . S
N509 C502 1.356 . S
N509 H512 0.984 . S
N509 H513 0.985 . S
H510 N505 0.984 . S
H511 N505 0.985 . S
H512 N509 0.984 . S
H513 N509 0.985 . S
H514 N508 0.984 . S
H515 N508 0.984 . S
H516 N504 0.984 . S
H517 N504 0.985 . S
C518 C519 1.363 . S
C518 C524 1.379 . S
C518 N526 1.356 . S
C519 C518 1.363 . S
C519 C525 1.363 . S
C520 C521 1.363 . S
C520 C525 1.379 . S
C520 N527 1.356 . S
C521 C520 1.363 . S
C521 C524 1.363 . S
N522 C524 1.356 . S
N522 H534 0.984 . S
N522 H535 0.985 . S
N523 C525 1.356 . S
N523 H528 0.984 . S
N523 H529 0.985 . S
C524 C518 1.379 . S
C524 C521 1.363 . S
C524 N522 1.356 . S
C525 C519 1.363 . S
C525 C520 1.379 . S
C525 N523 1.356 . S
N526 C518 1.356 . S
N526 H532 0.984 . S
N526 H533 0.984 . S
N527 C520 1.356 . S
N527 H530 0.984 . S
N527 H531 0.985 . S
H528 N523 0.984 . S
H529 N523 0.985 . S
H530 N527 0.984 . S
H531 N527 0.985 . S
H532 N526 0.984 . S
H533 N526 0.984 . S
H534 N522 0.984 . S
H535 N522 0.985 . S
C536 C537 1.363 . S
C536 C542 1.379 . S
C536 N544 1.356 . S
C537 C536 1.363 . S
C537 C543 1.363 . S
C538 C539 1.363 . S
C538 C543 1.379 . S
C538 N545 1.356 1_556 S
C539 C538 1.363 . S
C539 C542 1.363 . S
N540 C542 1.356 . S
N540 H552 0.984 . S
N540 H553 0.985 . S
N541 C543 1.356 . S
N541 H546 0.984 . S
N541 H547 0.985 . S
C542 C536 1.379 . S
C542 C539 1.363 . S
C542 N540 1.356 . S
C543 C537 1.363 . S
C543 C538 1.379 . S
C543 N541 1.356 . S
N544 C536 1.356 . S
N544 H550 0.984 . S
N544 H551 0.984 . S
N545 C538 1.356 1_554 S
N545 H548 0.984 . S
N545 H549 0.985 . S
H546 N541 0.984 . S
H547 N541 0.985 . S
H548 N545 0.984 . S
H549 N545 0.985 . S
H550 N544 0.984 . S
H551 N544 0.984 . S
H552 N540 0.984 . S
H553 N540 0.985 . S
C554 C555 1.363 . S
C554 C560 1.379 . S
C554 N562 1.356 . S
C555 C554 1.363 . S
C555 C561 1.363 . S
C556 C557 1.363 . S
C556 C561 1.379 . S
C556 N563 1.356 . S
C557 C556 1.363 . S
C557 C560 1.363 . S
N558 C560 1.356 . S
N558 H570 0.984 . S
N558 H571 0.985 . S
N559 C561 1.356 . S
N559 H564 0.984 . S
N559 H565 0.985 . S
C560 C554 1.379 . S
C560 C557 1.363 . S
C560 N558 1.356 . S
C561 C555 1.363 . S
C561 C556 1.379 . S
C561 N559 1.356 . S
N562 C554 1.356 . S
N562 H568 0.984 . S
N562 H569 0.984 . S
N563 C556 1.356 . S
N563 H566 0.984 . S
N563 H567 0.985 . S
H564 N559 0.984 . S
H565 N559 0.985 . S
H566 N563 0.984 . S
H567 N563 0.985 . S
H568 N562 0.984 . S
H569 N562 0.984 . S
H570 N558 0.984 . S
H571 N558 0.985 . S
C572 C573 1.363 . S
C572 C578 1.379 . S
C572 N580 1.356 . S
C573 C572 1.363 . S
C573 C579 1.363 . S
C574 C575 1.363 . S
C574 C579 1.379 . S
C574 N581 1.356 . S
C575 C574 1.363 . S
C575 C578 1.363 . S
N576 C578 1.356 . S
N576 H588 0.984 . S
N576 H589 0.985 . S
N577 C579 1.356 . S
N577 H582 0.984 . S
N577 H583 0.985 . S
C578 C572 1.379 . S
C578 C575 1.363 . S
C578 N576 1.356 . S
C579 C573 1.363 . S
C579 C574 1.379 . S
C579 N577 1.356 . S
N580 C572 1.356 . S
N580 H586 0.984 . S
N580 H587 0.984 . S
N581 C574 1.356 . S
N581 H584 0.984 . S
N581 H585 0.985 . S
H582 N577 0.984 . S
H583 N577 0.985 . S
H584 N581 0.984 . S
H585 N581 0.985 . S
H586 N580 0.984 . S
H587 N580 0.984 . S
H588 N576 0.984 . S
H589 N576 0.985 . S
C590 C591 1.363 . S
C590 C596 1.379 . S
C590 N598 1.356 . S
C591 C590 1.363 . S
C591 C597 1.363 . S
C592 C593 1.363 . S
C592 C597 1.379 . S
C592 N599 1.356 . S
C593 C592 1.363 . S
C593 C596 1.363 . S
N594 C596 1.356 . S
N594 H606 0.984 . S
N594 H607 0.985 . S
N595 C597 1.356 . S
N595 H600 0.984 . S
N595 H601 0.985 . S
C596 C590 1.379 . S
C596 C593 1.363 . S
C596 N594 1.356 . S
C597 C591 1.363 . S
C597 C592 1.379 . S
C597 N595 1.356 . S
N598 C590 1.356 . S
N598 H604 0.984 . S
N598 H605 0.984 . S
N599 C592 1.356 . S
N599 H602 0.984 . S
N599 H603 0.985 . S
H600 N595 0.984 . S
H601 N595 0.985 . S
H602 N599 0.984 . S
H603 N599 0.985 . S
H604 N598 0.984 . S
H605 N598 0.984 . S
H606 N594 0.984 . S
H607 N594 0.985 . S
C608 C609 1.363 . S
C608 C614 1.379 . S
C608 N616 1.356 . S
C609 C608 1.363 . S
C609 C615 1.363 . S
C610 C611 1.363 . S
C610 C615 1.379 . S
C610 N617 1.356 . S
C611 C610 1.363 . S
C611 C614 1.363 . S
N612 C614 1.356 . S
N612 H624 0.984 . S
N612 H625 0.985 . S
N613 C615 1.356 . S
N613 H618 0.984 . S
N613 H619 0.985 . S
C614 C608 1.379 . S
C614 C611 1.363 . S
C614 N612 1.356 . S
C615 C609 1.363 . S
C615 C610 1.379 . S
C615 N613 1.356 . S
N616 C608 1.356 . S
N616 H622 0.984 . S
N616 H623 0.984 . S
N617 C610 1.356 . S
N617 H620 0.984 . S
N617 H621 0.985 . S
H618 N613 0.984 . S
H619 N613 0.985 . S
H620 N617 0.984 . S
H621 N617 0.985 . S
H622 N616 0.984 . S
H623 N616 0.984 . S
H624 N612 0.984 . S
H625 N612 0.985 . S
C626 C627 1.363 . S
C626 C632 1.379 . S
C626 N634 1.356 . S
C627 C626 1.363 . S
C627 C633 1.363 . S
C628 C629 1.363 . S
C628 C633 1.379 . S
C628 N635 1.356 . S
C629 C628 1.363 . S
C629 C632 1.363 . S
N630 C632 1.356 . S
N630 H642 0.984 . S
N630 H643 0.985 . S
N631 C633 1.356 . S
N631 H636 0.984 . S
N631 H637 0.985 . S
C632 C626 1.379 . S
C632 C629 1.363 . S
C632 N630 1.356 . S
C633 C627 1.363 . S
C633 C628 1.379 . S
C633 N631 1.356 . S
N634 C626 1.356 . S
N634 H640 0.984 . S
N634 H641 0.984 . S
N635 C628 1.356 . S
N635 H638 0.984 . S
N635 H639 0.985 . S
H636 N631 0.984 . S
H637 N631 0.985 . S
H638 N635 0.984 . S
H639 N635 0.985 . S
H640 N634 0.984 . S
H641 N634 0.984 . S
H642 N630 0.984 . S
H643 N630 0.985 . S
C644 C645 1.363 . S
C644 C650 1.379 . S
C644 N652 1.356 . S
C645 C644 1.363 . S
C645 C651 1.363 . S
C646 C647 1.363 . S
C646 C651 1.379 . S
C646 N653 1.356 . S
C647 C646 1.363 . S
C647 C650 1.363 . S
N648 C650 1.356 . S
N648 H660 0.984 . S
N648 H661 0.985 . S
N649 C651 1.356 . S
N649 H654 0.984 . S
N649 H655 0.985 . S
C650 C644 1.379 . S
C650 C647 1.363 . S
C650 N648 1.356 . S
C651 C645 1.363 . S
C651 C646 1.379 . S
C651 N649 1.356 . S
N652 C644 1.356 . S
N652 H658 0.984 . S
N652 H659 0.984 . S
N653 C646 1.356 . S
N653 H656 0.984 . S
N653 H657 0.985 . S
H654 N649 0.984 . S
H655 N649 0.985 . S
H656 N653 0.984 . S
H657 N653 0.985 . S
H658 N652 0.984 . S
H659 N652 0.984 . S
H660 N648 0.984 . S
H661 N648 0.985 . S
C662 C663 1.363 . S
C662 C668 1.379 . S
C662 N670 1.356 . S
C663 C662 1.363 . S
C663 C669 1.363 . S
C664 C665 1.363 . S
C664 C669 1.379 . S
C664 N671 1.356 . S
C665 C664 1.363 . S
C665 C668 1.363 . S
N666 C668 1.356 . S
N666 H678 0.984 . S
N666 H679 0.985 . S
N667 C669 1.356 . S
N667 H672 0.984 . S
N667 H673 0.985 . S
C668 C662 1.379 . S
C668 C665 1.363 . S
C668 N666 1.356 . S
C669 C663 1.363 . S
C669 C664 1.379 . S
C669 N667 1.356 . S
N670 C662 1.356 . S
N670 H676 0.984 . S
N670 H677 0.984 . S
N671 C664 1.356 . S
N671 H674 0.984 . S
N671 H675 0.985 . S
H672 N667 0.984 . S
H673 N667 0.985 . S
H674 N671 0.984 . S
H675 N671 0.985 . S
H676 N670 0.984 . S
H677 N670 0.984 . S
H678 N666 0.984 . S
H679 N666 0.985 . S
C249 C4 1.116 . S
C251 C94 1.146 . S
C267 C16 1.251 . S
C269 C143 1.270 . S
C287 C178 2.167 . S
C285 C32 2.224 . S
C303 C43 2.400 . S
C305 C217 2.341 . S
C323 C138 2.517 . S
C321 C5 2.345 . S
C341 C97 0.530 . S
C339 C21 0.566 . S
C359 C227 1.951 . S
C357 C27 2.022 . S
C377 C186 1.780 . S
C375 C37 1.772 . S
C393 C10 1.434 . S
C395 C214 1.472 . S
C413 C146 2.521 1_556 S
C411 C26 2.625 . S
C429 C38 2.154 . S
C431 C107 2.150 . S
C447 C15 1.326 . S
C449 C183 1.351 . S
C467 C103 1.223 . S
C465 C48 1.207 . S
C483 C59 1.158 . S
C485 C134 1.166 . S
C501 C76 2.530 . S
C503 C187 2.466 . S
C519 C87 2.261 . S
C521 C226 2.255 . S
C537 C54 1.883 . S
C539 C147 2.067 . S
C557 C106 1.262 . S
C555 C60 1.303 . S
C575 C218 1.843 . S
C573 C71 1.905 . S
C593 C177 1.716 . S
C591 C82 1.792 . S
C609 C49 1.665 . S
C611 C223 1.804 . S
C629 C137 2.042 . S
C627 C70 2.138 . S
C647 C98 2.548 . S
C645 C81 2.561 . S
C663 C65 1.080 . S
C665 C174 1.096 . S
