# Generated by pormake.
# Topology pto, (3,4)-cn, num edge types: 1
# Building blocks:
#     Node 0, Type 0, BuildingBlock: WUSLED_clean_sbu_0, # of connection points: 3
#     Node 1, Type 0, BuildingBlock: WUSLED_clean_sbu_0, # of connection points: 3
#     Node 2, Type 0, BuildingBlock: WUSLED_clean_sbu_0, # of connection points: 3
#     Node 3, Type 0, BuildingBlock: WUSLED_clean_sbu_0, # of connection points: 3
#     Node 4, Type 0, BuildingBlock: WUSLED_clean_sbu_0, # of connection points: 3
#     Node 5, Type 0, BuildingBlock: WUSLED_clean_sbu_0, # of connection points: 3
#     Node 6, Type 0, BuildingBlock: WUSLED_clean_sbu_0, # of connection points: 3
#     Node 7, Type 0, BuildingBlock: WUSLED_clean_sbu_0, # of connection points: 3
#     Node 8, Type 1, BuildingBlock: MUDLON_clean_linker_0, # of connection points: 4
#     Node 9, Type 1, BuildingBlock: MUDLON_clean_linker_0, # of connection points: 4
#     Node 10, Type 1, BuildingBlock: MUDLON_clean_linker_0, # of connection points: 4
#     Node 11, Type 1, BuildingBlock: MUDLON_clean_linker_0, # of connection points: 4
#     Node 12, Type 1, BuildingBlock: MUDLON_clean_linker_0, # of connection points: 4
#     Node 13, Type 1, BuildingBlock: MUDLON_clean_linker_0, # of connection points: 4
#     Edge 14, Type (0, 1), BuildingBlock: OJICUG_clean_linker_0, # of connection points: 2
#     Edge 15, Type (0, 1), BuildingBlock: OJICUG_clean_linker_0, # of connection points: 2
#     Edge 16, Type (0, 1), BuildingBlock: OJICUG_clean_linker_0, # of connection points: 2
#     Edge 17, Type (0, 1), BuildingBlock: OJICUG_clean_linker_0, # of connection points: 2
#     Edge 18, Type (0, 1), BuildingBlock: OJICUG_clean_linker_0, # of connection points: 2
#     Edge 19, Type (0, 1), BuildingBlock: OJICUG_clean_linker_0, # of connection points: 2
#     Edge 20, Type (0, 1), BuildingBlock: OJICUG_clean_linker_0, # of connection points: 2
#     Edge 21, Type (0, 1), BuildingBlock: OJICUG_clean_linker_0, # of connection points: 2
#     Edge 22, Type (0, 1), BuildingBlock: OJICUG_clean_linker_0, # of connection points: 2
#     Edge 23, Type (0, 1), BuildingBlock: OJICUG_clean_linker_0, # of connection points: 2
#     Edge 24, Type (0, 1), BuildingBlock: OJICUG_clean_linker_0, # of connection points: 2
#     Edge 25, Type (0, 1), BuildingBlock: OJICUG_clean_linker_0, # of connection points: 2
#     Edge 26, Type (0, 1), BuildingBlock: OJICUG_clean_linker_0, # of connection points: 2
#     Edge 27, Type (0, 1), BuildingBlock: OJICUG_clean_linker_0, # of connection points: 2
#     Edge 28, Type (0, 1), BuildingBlock: OJICUG_clean_linker_0, # of connection points: 2
#     Edge 29, Type (0, 1), BuildingBlock: OJICUG_clean_linker_0, # of connection points: 2
#     Edge 30, Type (0, 1), BuildingBlock: OJICUG_clean_linker_0, # of connection points: 2
#     Edge 31, Type (0, 1), BuildingBlock: OJICUG_clean_linker_0, # of connection points: 2
#     Edge 32, Type (0, 1), BuildingBlock: OJICUG_clean_linker_0, # of connection points: 2
#     Edge 33, Type (0, 1), BuildingBlock: OJICUG_clean_linker_0, # of connection points: 2
#     Edge 34, Type (0, 1), BuildingBlock: OJICUG_clean_linker_0, # of connection points: 2
#     Edge 35, Type (0, 1), BuildingBlock: OJICUG_clean_linker_0, # of connection points: 2
#     Edge 36, Type (0, 1), BuildingBlock: OJICUG_clean_linker_0, # of connection points: 2
#     Edge 37, Type (0, 1), BuildingBlock: OJICUG_clean_linker_0, # of connection points: 2
# Relax obj value: 0.006
# Max RMSD: 0.037
# Mean RMSD: 0.021
data_MOF--net-pto--node1-WUSLED_clean_sbu_0--node2-MUDLON_clean_linker_0--edge1-OJICUG_clean_linker_0
_symmetry_space_group_name_H-M    P1
_symmetry_Int_Tables_number       1
_symmetry_cell_setting            triclinic
loop_
_symmetry_equiv_pos_as_xyz
'x, y, z'
_cell_length_a     41.389294
_cell_length_b     68.995035
_cell_length_c     55.560596
_cell_angle_alpha  89.532895
_cell_angle_beta   90.517612
_cell_angle_gamma 90.638535
loop_
_atom_site_label
_atom_site_type_symbol
_atom_site_fract_x
_atom_site_fract_y
_atom_site_fract_z
_atom_type_partial_charge
C0 C 0.22546 0.22662 0.36925 0.0
C1 C 0.22808 0.209 0.35694 0.0
C2 C 0.22611 0.19115 0.39495 0.0
C3 C 0.22821 0.1914 0.36968 0.0
C4 C 0.22378 0.20886 0.40714 0.0
C5 C 0.22339 0.2264 0.3944 0.0
U6 U 0.25185 0.26043 0.31785 0.0
O7 O 0.2242 0.2816 0.29655 0.0
O8 O 0.26505 0.29144 0.31895 0.0
C9 C 0.24035 0.29649 0.30536 0.0
C10 C 0.22491 0.24539 0.35639 0.0
C11 C 0.22068 0.31238 0.31464 0.0
C12 C 0.17369 0.32391 0.33591 0.0
C13 C 0.19257 0.30861 0.32788 0.0
C14 C 0.21127 0.34694 0.31812 0.0
C15 C 0.18269 0.34329 0.33102 0.0
C16 C 0.23001 0.33162 0.30998 0.0
C17 C 0.31026 0.24287 0.2701 0.0
C18 C 0.31781 0.25741 0.23049 0.0
C19 C 0.35943 0.2371 0.24788 0.0
C20 C 0.34057 0.23419 0.26835 0.0
C21 C 0.34826 0.24869 0.22861 0.0
C22 C 0.29904 0.2546 0.25108 0.0
C23 C 0.29103 0.23965 0.29198 0.0
O24 O 0.25205 0.25544 0.35705 0.0
O25 O 0.21082 0.24551 0.33507 0.0
O26 O 0.25946 0.23938 0.28903 0.0
O27 O 0.30063 0.24943 0.31098 0.0
H28 H 0.22999 0.20884 0.33751 0.0
H29 H 0.23031 0.178 0.35982 0.0
H30 H 0.22169 0.20915 0.42655 0.0
H31 H 0.22136 0.23983 0.40422 0.0
H32 H 0.15166 0.32051 0.3455 0.0
H33 H 0.18502 0.29384 0.33178 0.0
H34 H 0.21926 0.36165 0.31436 0.0
H35 H 0.25178 0.3348 0.29992 0.0
H36 H 0.30828 0.26627 0.21595 0.0
H37 H 0.383 0.23048 0.24734 0.0
H38 H 0.34975 0.22522 0.28292 0.0
H39 H 0.27577 0.26156 0.25211 0.0
C40 C 0.22306 0.79766 0.65939 0.0
C41 C 0.22324 0.81578 0.67079 0.0
C42 C 0.22437 0.83225 0.63181 0.0
C43 C 0.22371 0.83292 0.6571 0.0
C44 C 0.22453 0.81407 0.62054 0.0
C45 C 0.22381 0.79697 0.63419 0.0
U46 U 0.2482 0.76546 0.71282 0.0
O47 O 0.21952 0.74491 0.73458 0.0
O48 O 0.26046 0.73453 0.71364 0.0
C49 C 0.23566 0.72982 0.72717 0.0
C50 C 0.22189 0.77931 0.6732 0.0
C51 C 0.21582 0.71337 0.71877 0.0
C52 C 0.18246 0.6977 0.68826 0.0
C53 C 0.2016 0.71343 0.69576 0.0
C54 C 0.19159 0.68178 0.72673 0.0
C55 C 0.17711 0.68173 0.70373 0.0
C56 C 0.21079 0.69746 0.73415 0.0
C57 C 0.30667 0.78377 0.76065 0.0
C58 C 0.32493 0.76238 0.79282 0.0
C59 C 0.34473 0.79554 0.79079 0.0
C60 C 0.3259 0.79874 0.77014 0.0
C61 C 0.34467 0.77728 0.80228 0.0
C62 C 0.30608 0.76561 0.77219 0.0
C63 C 0.28789 0.78705 0.73847 0.0
O64 O 0.24867 0.76924 0.67341 0.0
O65 O 0.20772 0.7798 0.69429 0.0
O66 O 0.25636 0.78719 0.74107 0.0
O67 O 0.2971 0.77694 0.71985 0.0
H68 H 0.22293 0.8167 0.69024 0.0
H69 H 0.22385 0.8467 0.66631 0.0
H70 H 0.22461 0.81304 0.60109 0.0
H71 H 0.22364 0.78316 0.62504 0.0
H72 H 0.17133 0.69822 0.67056 0.0
H73 H 0.20513 0.72567 0.68369 0.0
H74 H 0.18826 0.66963 0.73896 0.0
H75 H 0.22165 0.69719 0.75197 0.0
H76 H 0.32402 0.74823 0.80138 0.0
H77 H 0.35996 0.80724 0.79739 0.0
H78 H 0.32667 0.81283 0.76139 0.0
H79 H 0.29125 0.7539 0.7651 0.0
C80 C 0.72156 0.78655 0.2745 0.0
C81 C 0.73136 0.77675 0.25378 0.0
C82 C 0.68109 0.78533 0.2333 0.0
C83 C 0.71133 0.77618 0.23334 0.0
C84 C 0.67118 0.79473 0.25434 0.0
C85 C 0.69126 0.79538 0.27466 0.0
U86 U 0.78281 0.76612 0.32015 0.0
O87 O 0.82541 0.78045 0.33648 0.0
O88 O 0.78581 0.76994 0.35933 0.0
C89 C 0.8128 0.78013 0.35811 0.0
C90 C 0.74262 0.78821 0.29593 0.0
C91 C 0.81297 0.79884 0.37074 0.0
C92 C 0.78568 0.82785 0.38405 0.0
C93 C 0.78522 0.81036 0.37146 0.0
C94 C 0.84187 0.82283 0.39469 0.0
C95 C 0.81398 0.83424 0.39589 0.0
C96 C 0.84132 0.80527 0.38228 0.0
C97 C 0.81232 0.71401 0.31474 0.0
C98 C 0.84446 0.69796 0.34566 0.0
C99 C 0.83647 0.68281 0.30683 0.0
C100 C 0.81772 0.69849 0.29925 0.0
C101 C 0.8501 0.68237 0.33011 0.0
C102 C 0.82582 0.71369 0.338 0.0
C103 C 0.79267 0.73039 0.30632 0.0
O104 O 0.73391 0.77779 0.31474 0.0
O105 O 0.77392 0.78809 0.29211 0.0
O106 O 0.80892 0.74537 0.29779 0.0
O107 O 0.7689 0.73529 0.32049 0.0
H108 H 0.75462 0.76972 0.25328 0.0
H109 H 0.71985 0.76893 0.21744 0.0
H110 H 0.64778 0.80155 0.25519 0.0
H111 H 0.68317 0.80291 0.29051 0.0
H112 H 0.76392 0.83641 0.38445 0.0
H113 H 0.76315 0.80578 0.36243 0.0
H114 H 0.86394 0.82725 0.40384 0.0
H115 H 0.86299 0.79661 0.38186 0.0
H116 H 0.85496 0.69818 0.36358 0.0
H117 H 0.84007 0.67095 0.29452 0.0
H118 H 0.80743 0.69849 0.28124 0.0
H119 H 0.82202 0.72563 0.35017 0.0
C120 C 0.76684 0.20477 0.68918 0.0
C121 C 0.7767 0.20971 0.66579 0.0
C122 C 0.77738 0.17554 0.65495 0.0
C123 C 0.78179 0.19523 0.6488 0.0
C124 C 0.7679 0.17069 0.67851 0.0
C125 C 0.7626 0.1852 0.69544 0.0
U126 U 0.77967 0.25594 0.71342 0.0
O127 O 0.74505 0.27609 0.72919 0.0
O128 O 0.78638 0.26594 0.75064 0.0
C129 C 0.75913 0.27555 0.75047 0.0
C130 C 0.76088 0.21984 0.70718 0.0
C131 C 0.7375 0.27142 0.77073 0.0
C132 C 0.70384 0.24905 0.79366 0.0
C133 C 0.72487 0.25271 0.77455 0.0
C134 C 0.70792 0.28277 0.80532 0.0
C135 C 0.69501 0.26406 0.80923 0.0
C136 C 0.729 0.2864 0.78624 0.0
C137 C 0.83512 0.29151 0.67979 0.0
C138 C 0.83701 0.32639 0.68584 0.0
C139 C 0.88015 0.31065 0.66456 0.0
C140 C 0.86457 0.29275 0.66766 0.0
C141 C 0.8665 0.32774 0.67344 0.0
C142 C 0.82149 0.30841 0.68904 0.0
C143 C 0.81926 0.27243 0.68262 0.0
O144 O 0.7859 0.22475 0.72062 0.0
O145 O 0.74418 0.23481 0.69953 0.0
O146 O 0.78771 0.27201 0.67964 0.0
O147 O 0.8292 0.262 0.70109 0.0
H148 H 0.7804 0.22475 0.66067 0.0
H149 H 0.78954 0.19943 0.63092 0.0
H150 H 0.76406 0.15569 0.68375 0.0
H151 H 0.75505 0.18112 0.71343 0.0
H152 H 0.694 0.23455 0.79596 0.0
H153 H 0.73109 0.241 0.76263 0.0
H154 H 0.70188 0.29459 0.81712 0.0
H155 H 0.73859 0.30092 0.78354 0.0
H156 H 0.82569 0.33924 0.69278 0.0
H157 H 0.90315 0.31102 0.65541 0.0
H158 H 0.87559 0.27984 0.66059 0.0
H159 H 0.79881 0.30773 0.69861 0.0
C160 C 0.80733 0.71019 0.71587 0.0
C161 C 0.81128 0.70713 0.69112 0.0
C162 C 0.84486 0.67899 0.69964 0.0
C163 C 0.82978 0.69163 0.68308 0.0
C164 C 0.84084 0.68223 0.72441 0.0
C165 C 0.82221 0.69763 0.7324 0.0
U166 U 0.77489 0.76208 0.71188 0.0
O167 O 0.72681 0.77319 0.72029 0.0
O168 O 0.76913 0.78326 0.74096 0.0
C169 C 0.73747 0.78308 0.73893 0.0
C170 C 0.78807 0.72636 0.72494 0.0
C171 C 0.71969 0.77989 0.76144 0.0
C172 C 0.69168 0.75854 0.78954 0.0
C173 C 0.7099 0.7612 0.76867 0.0
C174 C 0.69384 0.79313 0.79664 0.0
C175 C 0.68311 0.77451 0.80367 0.0
C176 C 0.71187 0.79578 0.77569 0.0
C177 C 0.79686 0.79566 0.65931 0.0
C178 C 0.79257 0.83082 0.65917 0.0
C179 C 0.79696 0.81361 0.62152 0.0
C180 C 0.79831 0.79602 0.63413 0.0
C181 C 0.79427 0.83123 0.63388 0.0
C182 C 0.79367 0.81317 0.67177 0.0
C183 C 0.7988 0.77692 0.67213 0.0
O184 O 0.80475 0.74148 0.7325 0.0
O185 O 0.76232 0.73103 0.71222 0.0
O186 O 0.77189 0.76664 0.67263 0.0
O187 O 0.81441 0.77702 0.69286 0.0
H188 H 0.80008 0.7167 0.67802 0.0
H189 H 0.83205 0.68949 0.66389 0.0
H190 H 0.85256 0.67308 0.73771 0.0
H191 H 0.81959 0.69983 0.75157 0.0
H192 H 0.68357 0.74403 0.79421 0.0
H193 H 0.71586 0.74871 0.75794 0.0
H194 H 0.68822 0.80571 0.80729 0.0
H195 H 0.71947 0.81029 0.77049 0.0
H196 H 0.7902 0.84412 0.66917 0.0
H197 H 0.79876 0.81344 0.60209 0.0
H198 H 0.80074 0.78267 0.6242 0.0
H199 H 0.79218 0.81321 0.69123 0.0
C200 C 0.72066 0.23771 0.27129 0.0
C201 C 0.72225 0.25544 0.25881 0.0
C202 C 0.68207 0.24382 0.22986 0.0
C203 C 0.70315 0.25847 0.23826 0.0
C204 C 0.68083 0.226 0.24238 0.0
C205 C 0.69998 0.223 0.26293 0.0
U206 U 0.77961 0.25682 0.31819 0.0
O207 O 0.78164 0.25264 0.35741 0.0
O208 O 0.82207 0.2432 0.33517 0.0
C209 C 0.80923 0.2434 0.35672 0.0
C210 C 0.74024 0.23459 0.29313 0.0
C211 C 0.81083 0.2251 0.37049 0.0
C212 C 0.78628 0.19532 0.38587 0.0
C213 C 0.78453 0.21207 0.37149 0.0
C214 C 0.84091 0.20417 0.3977 0.0
C215 C 0.81436 0.19132 0.39944 0.0
C216 C 0.8391 0.22088 0.38343 0.0
C217 C 0.80906 0.30939 0.31264 0.0
C218 C 0.84326 0.32479 0.34285 0.0
C219 C 0.83201 0.3414 0.30515 0.0
C220 C 0.81294 0.32567 0.29767 0.0
C221 C 0.8475 0.34112 0.32779 0.0
C222 C 0.82427 0.30903 0.3353 0.0
C223 C 0.78951 0.29284 0.30419 0.0
O224 O 0.77166 0.23511 0.28992 0.0
O225 O 0.7311 0.24435 0.31206 0.0
O226 O 0.76557 0.28747 0.31822 0.0
O227 O 0.80596 0.27817 0.29595 0.0
H228 H 0.73819 0.26696 0.26502 0.0
H229 H 0.70501 0.27226 0.2289 0.0
H230 H 0.66456 0.21451 0.23662 0.0
H231 H 0.69842 0.20924 0.27242 0.0
H232 H 0.76534 0.1858 0.38688 0.0
H233 H 0.7625 0.21502 0.36151 0.0
H234 H 0.86314 0.20136 0.40749 0.0
H235 H 0.85973 0.23068 0.38274 0.0
H236 H 0.85519 0.32401 0.36025 0.0
H237 H 0.83449 0.35382 0.29324 0.0
H238 H 0.80132 0.32618 0.28012 0.0
H239 H 0.82165 0.2965 0.34704 0.0
C240 C 0.22726 0.22509 0.65503 0.0
C241 C 0.22418 0.20734 0.66749 0.0
C242 C 0.22726 0.18969 0.62979 0.0
C243 C 0.22399 0.18982 0.65495 0.0
C244 C 0.23088 0.20746 0.61745 0.0
C245 C 0.23075 0.22497 0.62996 0.0
U246 U 0.25433 0.25761 0.70682 0.0
O247 O 0.26794 0.28851 0.70713 0.0
O248 O 0.22712 0.27808 0.72878 0.0
C249 C 0.24361 0.29319 0.72089 0.0
C250 C 0.22683 0.24381 0.66775 0.0
C251 C 0.22411 0.30965 0.71248 0.0
C252 C 0.19132 0.32563 0.68189 0.0
C253 C 0.21032 0.30997 0.68932 0.0
C254 C 0.19974 0.34073 0.7207 0.0
C255 C 0.18564 0.34114 0.69757 0.0
C256 C 0.21881 0.32513 0.72806 0.0
C257 C 0.31325 0.23652 0.75388 0.0
C258 C 0.32195 0.24644 0.79538 0.0
C259 C 0.36264 0.22784 0.77505 0.0
C260 C 0.34339 0.2275 0.75429 0.0
C261 C 0.35204 0.23712 0.79597 0.0
C262 C 0.30274 0.24619 0.7745 0.0
C263 C 0.29318 0.23525 0.73189 0.0
O264 O 0.21265 0.2438 0.68885 0.0
O265 O 0.25405 0.2538 0.66746 0.0
O266 O 0.30291 0.2459 0.71357 0.0
O267 O 0.2617 0.2354 0.73484 0.0
H268 H 0.2218 0.20698 0.68688 0.0
H269 H 0.22146 0.17636 0.66496 0.0
H270 H 0.23308 0.20785 0.59804 0.0
H271 H 0.23318 0.23847 0.62 0.0
H272 H 0.18049 0.32539 0.66408 0.0
H273 H 0.21403 0.29806 0.6771 0.0
H274 H 0.19615 0.35253 0.73311 0.0
H275 H 0.22932 0.32512 0.74599 0.0
H276 H 0.31294 0.25362 0.81119 0.0
H277 H 0.38596 0.22089 0.77462 0.0
H278 H 0.35202 0.22008 0.73851 0.0
H279 H 0.27959 0.25335 0.77456 0.0
C280 C 0.19881 0.72955 0.35405 0.0
C281 C 0.21253 0.71263 0.34489 0.0
C282 C 0.16715 0.69335 0.35998 0.0
C283 C 0.19687 0.69467 0.34789 0.0
C284 C 0.15344 0.71045 0.3688 0.0
C285 C 0.16916 0.72832 0.36591 0.0
U286 U 0.25417 0.76506 0.32035 0.0
O287 O 0.24789 0.79624 0.31301 0.0
O288 O 0.28976 0.78623 0.33401 0.0
C289 C 0.2729 0.80118 0.32645 0.0
C290 C 0.21471 0.74862 0.35127 0.0
C291 C 0.26711 0.81652 0.34423 0.0
C292 C 0.26179 0.82736 0.38556 0.0
C293 C 0.26698 0.81251 0.36907 0.0
C294 C 0.25615 0.85035 0.35266 0.0
C295 C 0.25627 0.84644 0.37754 0.0
C296 C 0.26165 0.83554 0.33619 0.0
C297 C 0.29572 0.74942 0.26283 0.0
C298 C 0.3288 0.77176 0.23941 0.0
C299 C 0.32492 0.73795 0.22812 0.0
C300 C 0.30416 0.73437 0.24742 0.0
C301 C 0.33754 0.75668 0.22392 0.0
C302 C 0.3081 0.76815 0.25874 0.0
C303 C 0.27433 0.74536 0.28325 0.0
O304 O 0.24628 0.74902 0.35418 0.0
O305 O 0.2047 0.75909 0.33286 0.0
O306 O 0.2471 0.75498 0.28321 0.0
O307 O 0.28865 0.74489 0.30446 0.0
H308 H 0.23536 0.71329 0.33552 0.0
H309 H 0.20825 0.68182 0.34101 0.0
H310 H 0.13027 0.7101 0.37771 0.0
H311 H 0.15807 0.74125 0.3729 0.0
H312 H 0.26157 0.82384 0.4046 0.0
H313 H 0.27082 0.79792 0.37577 0.0
H314 H 0.25217 0.86492 0.34595 0.0
H315 H 0.26167 0.83895 0.31712 0.0
H316 H 0.33845 0.78629 0.23688 0.0
H317 H 0.3309 0.72608 0.2164 0.0
H318 H 0.29476 0.71983 0.25034 0.0
H319 H 0.30192 0.77992 0.27058 0.0
H320 H 0.98812 0.41042 0.40503 0.0
N321 N 0.01498 0.43851 0.3789 0.0
H322 H 0.94445 0.38832 0.39305 0.0
H323 H 0.97742 0.44205 0.33835 0.0
H324 H 0.9331 0.42027 0.32629 0.0
H325 H 0.03285 0.42915 0.33318 0.0
H326 H 0.07659 0.4077 0.3223 0.0
H327 H 0.06197 0.42572 0.40771 0.0
H328 H 0.10694 0.40479 0.3969 0.0
H329 H 0.97706 0.46141 0.40408 0.0
H330 H 0.04924 0.46327 0.3485 0.0
H331 H 0.97438 0.49664 0.40314 0.0
H332 H 0.04834 0.4984 0.34865 0.0
H333 H 0.98284 0.60941 0.4096 0.0
H334 H 0.94035 0.63186 0.39745 0.0
H335 H 0.93482 0.60452 0.32778 0.0
H336 H 0.9779 0.58263 0.33987 0.0
H337 H 0.03403 0.59811 0.33899 0.0
H338 H 0.07663 0.62237 0.33365 0.0
H339 H 0.10148 0.61734 0.40921 0.0
H340 H 0.0574 0.59385 0.41451 0.0
H341 H 0.00289 0.55881 0.41755 0.0
H342 H 0.00326 0.52354 0.41568 0.0
H343 H 0.02162 0.52712 0.3392 0.0
N344 N 0.0126 0.58403 0.38222 0.0
H345 H 0.02341 0.56247 0.34183 0.0
C346 C 0.98597 0.42782 0.37267 0.0
C347 C 0.97572 0.41283 0.38804 0.0
C348 C 0.9507 0.40026 0.38115 0.0
C349 C 0.93531 0.40243 0.35863 0.0
C350 C 0.94474 0.418 0.3436 0.0
C351 C 0.96988 0.43058 0.35054 0.0
C352 C 0.04402 0.42894 0.37137 0.0
C353 C 0.04912 0.42411 0.34716 0.0
C354 C 0.07439 0.4119 0.34094 0.0
C355 C 0.0952 0.40431 0.35875 0.0
C356 C 0.09103 0.41005 0.38278 0.0
C357 C 0.06563 0.42218 0.38898 0.0
C358 C 0.01332 0.45943 0.37657 0.0
C359 C 0.99239 0.4694 0.3917 0.0
C360 C 0.99121 0.48962 0.39132 0.0
C361 C 0.01155 0.50058 0.37609 0.0
C362 C 0.03205 0.49058 0.36048 0.0
C363 C 0.03277 0.47027 0.36055 0.0
C364 C 0.98355 0.59429 0.37581 0.0
C365 C 0.97187 0.60801 0.39192 0.0
C366 C 0.94755 0.62081 0.38491 0.0
C367 C 0.93428 0.62014 0.36153 0.0
C368 C 0.94488 0.60568 0.34578 0.0
C369 C 0.96935 0.59294 0.35279 0.0
C370 C 0.04222 0.59443 0.37732 0.0
C371 C 0.04903 0.60194 0.3543 0.0
C372 C 0.07362 0.61581 0.35126 0.0
C373 C 0.09216 0.62221 0.37111 0.0
C374 C 0.08712 0.61323 0.39364 0.0
C375 C 0.06224 0.5996 0.3967 0.0
C376 C 0.01263 0.56325 0.37988 0.0
C377 C 0.00699 0.55191 0.40042 0.0
C378 C 0.0069 0.53171 0.3992 0.0
C379 C 0.01198 0.52226 0.37718 0.0
C380 C 0.01784 0.53375 0.35652 0.0
C381 C 0.01846 0.55404 0.3579 0.0
H382 H 0.99908 0.42365 0.69201 0.0
N383 N 0.01889 0.43791 0.64842 0.0
H384 H 0.95708 0.39913 0.69809 0.0
H385 H 0.97344 0.42763 0.61685 0.0
H386 H 0.92998 0.40383 0.62293 0.0
H387 H 0.04858 0.41289 0.62049 0.0
H388 H 0.09206 0.39088 0.63188 0.0
H389 H 0.0547 0.4396 0.69022 0.0
H390 H 0.09876 0.41813 0.70156 0.0
H391 H 0.008 0.45933 0.68891 0.0
H392 H 0.02758 0.46324 0.61306 0.0
H393 H 0.00821 0.49472 0.69146 0.0
H394 H 0.02598 0.49852 0.61493 0.0
H395 H 0.9902 0.59078 0.69734 0.0
H396 H 0.94608 0.61226 0.70778 0.0
H397 H 0.9232 0.61986 0.63231 0.0
H398 H 0.96771 0.59833 0.62202 0.0
H399 H 0.03942 0.6109 0.6255 0.0
H400 H 0.08245 0.63332 0.63779 0.0
H401 H 0.09073 0.60297 0.70593 0.0
H402 H 0.04705 0.58084 0.6935 0.0
H403 H 0.97701 0.55803 0.68156 0.0
H404 H 0.9794 0.52294 0.68147 0.0
H405 H 0.05438 0.52578 0.62784 0.0
N406 N 0.0115 0.58336 0.6519 0.0
H407 H 0.05052 0.56097 0.627 0.0
C408 C 0.98971 0.42722 0.65381 0.0
C409 C 0.98372 0.41969 0.67695 0.0
C410 C 0.95947 0.40567 0.68041 0.0
C411 C 0.94047 0.39912 0.66088 0.0
C412 C 0.94472 0.40807 0.63824 0.0
C413 C 0.96924 0.42187 0.63476 0.0
C414 C 0.04839 0.42793 0.65434 0.0
C415 C 0.06001 0.41437 0.638 0.0
C416 C 0.0849 0.40182 0.64458 0.0
C417 C 0.09881 0.40259 0.66775 0.0
C418 C 0.08823 0.41689 0.68372 0.0
C419 C 0.0632 0.42939 0.67714 0.0
C420 C 0.01832 0.45868 0.65078 0.0
C421 C 0.01241 0.46782 0.6728 0.0
C422 C 0.01217 0.48811 0.67414 0.0
C423 C 0.01737 0.49966 0.65344 0.0
C424 C 0.02273 0.49029 0.63142 0.0
C425 C 0.02338 0.47009 0.63021 0.0
C426 C 0.98209 0.59282 0.65881 0.0
C427 C 0.97523 0.59667 0.68306 0.0
C428 C 0.94994 0.60896 0.68901 0.0
C429 C 0.93127 0.61786 0.67085 0.0
C430 C 0.93736 0.61337 0.64668 0.0
C431 C 0.96249 0.60093 0.64077 0.0
C432 C 0.0401 0.59427 0.65851 0.0
C433 C 0.05101 0.60891 0.64289 0.0
C434 C 0.07567 0.62166 0.64996 0.0
C435 C 0.09001 0.62004 0.67292 0.0
C436 C 0.07989 0.60482 0.68826 0.0
C437 C 0.05512 0.59206 0.68114 0.0
C438 C 0.01358 0.56244 0.65406 0.0
C439 C 0.99408 0.55131 0.66976 0.0
C440 C 0.99562 0.53102 0.66984 0.0
C441 C 0.01688 0.52133 0.65449 0.0
C442 C 0.03707 0.53256 0.63949 0.0
C443 C 0.03518 0.55276 0.63915 0.0
H444 H 0.15437 0.10216 0.53579 0.0
N445 N 0.19939 0.08322 0.51222 0.0
H446 H 0.16275 0.12565 0.56807 0.0
H447 H 0.2557 0.08873 0.5373 0.0
H448 H 0.26457 0.11253 0.56939 0.0
H449 H 0.25828 0.09499 0.49524 0.0
H450 H 0.26748 0.11869 0.46314 0.0
H451 H 0.15593 0.09611 0.48066 0.0
H452 H 0.16481 0.12007 0.44858 0.0
H453 H 0.15314 0.05815 0.52367 0.0
H454 H 0.253 0.06155 0.50289 0.0
H455 H 0.1556 0.02284 0.52422 0.0
H456 H 0.25545 0.02613 0.50212 0.0
H457 H 0.15782 0.92321 0.53782 0.0
H458 H 0.16456 0.89963 0.57061 0.0
H459 H 0.26821 0.90411 0.56324 0.0
H460 H 0.26116 0.92746 0.53041 0.0
H461 H 0.26298 0.93591 0.48892 0.0
H462 H 0.27719 0.91527 0.45491 0.0
H463 H 0.17709 0.89776 0.44743 0.0
H464 H 0.16334 0.91815 0.48166 0.0
H465 H 0.15678 0.9617 0.49679 0.0
H466 H 0.15727 0.99705 0.4972 0.0
H467 H 0.25524 0.99664 0.52495 0.0
N468 N 0.20364 0.93797 0.50976 0.0
H469 H 0.25482 0.96118 0.52329 0.0
C470 C 0.20435 0.09388 0.5341 0.0
C471 C 0.17829 0.10398 0.54357 0.0
C472 C 0.18317 0.11738 0.56198 0.0
C473 C 0.21439 0.12107 0.57113 0.0
C474 C 0.24031 0.11016 0.56248 0.0
C475 C 0.23529 0.09653 0.54422 0.0
C476 C 0.20629 0.09374 0.49033 0.0
C477 C 0.23783 0.09991 0.48473 0.0
C478 C 0.24304 0.11365 0.46647 0.0
C479 C 0.21685 0.12146 0.45348 0.0
C480 C 0.18556 0.11425 0.45808 0.0
C481 C 0.1804 0.10056 0.47638 0.0
C482 C 0.20259 0.06247 0.51291 0.0
C483 C 0.17556 0.0512 0.51907 0.0
C484 C 0.17701 0.03099 0.51915 0.0
C485 C 0.20559 0.02148 0.51277 0.0
C486 C 0.23306 0.03287 0.50721 0.0
C487 C 0.23164 0.0532 0.50741 0.0
C488 C 0.20884 0.92709 0.53166 0.0
C489 C 0.18196 0.91945 0.54375 0.0
C490 C 0.1859 0.90599 0.56248 0.0
C491 C 0.21694 0.89985 0.56941 0.0
C492 C 0.24397 0.90834 0.5581 0.0
C493 C 0.23997 0.92185 0.53942 0.0
C494 C 0.21209 0.92838 0.48785 0.0
C495 C 0.24413 0.92775 0.47981 0.0
C496 C 0.2522 0.91593 0.46043 0.0
C497 C 0.22826 0.90482 0.44858 0.0
C498 C 0.19602 0.90626 0.45602 0.0
C499 C 0.1881 0.91786 0.47554 0.0
C500 C 0.20546 0.95881 0.51028 0.0
C501 C 0.17834 0.96929 0.50291 0.0
C502 C 0.17865 0.98952 0.50338 0.0
C503 C 0.20614 0.99984 0.5115 0.0
C504 C 0.23368 0.98926 0.51849 0.0
C505 C 0.23341 0.96892 0.51776 0.0
H506 H 0.53327 0.75516 0.12896 0.0
N507 N 0.51112 0.78708 0.10447 0.0
H508 H 0.57781 0.75464 0.15785 0.0
H509 H 0.55536 0.81475 0.11137 0.0
H510 H 0.60123 0.81415 0.13947 0.0
H511 H 0.47863 0.81136 0.13164 0.0
H512 H 0.434 0.8037 0.15874 0.0
H513 H 0.47959 0.7521 0.10791 0.0
H514 H 0.43445 0.74427 0.13467 0.0
H515 H 0.54217 0.75628 0.08382 0.0
H516 H 0.47976 0.80456 0.06881 0.0
H517 H 0.5434 0.74866 0.04117 0.0
H518 H 0.47881 0.79626 0.02626 0.0
H519 H 0.54364 0.72727 0.90344 0.0
H520 H 0.58843 0.73201 0.87541 0.0
H521 H 0.59596 0.79204 0.89638 0.0
H522 H 0.55138 0.78726 0.92406 0.0
H523 H 0.49672 0.78893 0.90825 0.0
H524 H 0.45247 0.79421 0.87998 0.0
H525 H 0.4225 0.73436 0.88842 0.0
H526 H 0.46753 0.72911 0.91662 0.0
H527 H 0.51765 0.7293 0.9652 0.0
H528 H 0.51567 0.73623 0.00823 0.0
H529 H 0.50888 0.79745 0.99164 0.0
N530 N 0.51399 0.75415 0.92866 0.0
H531 H 0.50833 0.79017 0.94906 0.0
C532 C 0.54069 0.78516 0.11823 0.0
C533 C 0.54815 0.76804 0.13093 0.0
C534 C 0.57391 0.76772 0.14738 0.0
C535 C 0.59293 0.78445 0.15132 0.0
C536 C 0.58665 0.80114 0.13736 0.0
C537 C 0.5607 0.80148 0.12109 0.0
C538 C 0.48231 0.78239 0.11779 0.0
C539 C 0.46866 0.79678 0.13197 0.0
C540 C 0.44312 0.79236 0.14737 0.0
C541 C 0.43066 0.77334 0.14893 0.0
C542 C 0.44374 0.759 0.13411 0.0
C543 C 0.46935 0.76348 0.11867 0.0
C544 C 0.5113 0.78132 0.07953 0.0
C545 C 0.52853 0.76521 0.07141 0.0
C546 C 0.52889 0.76072 0.04687 0.0
C547 C 0.51144 0.77192 0.02997 0.0
C548 C 0.49335 0.78759 0.03843 0.0
C549 C 0.49355 0.79228 0.06283 0.0
C550 C 0.54395 0.7568 0.91588 0.0
C551 C 0.55553 0.74131 0.90239 0.0
C552 C 0.58111 0.74406 0.88641 0.0
C553 C 0.59553 0.76246 0.88351 0.0
C554 C 0.58502 0.77776 0.89796 0.0
C555 C 0.55953 0.77497 0.914 0.0
C556 C 0.48545 0.75853 0.91466 0.0
C557 C 0.48034 0.77701 0.90453 0.0
C558 C 0.45487 0.78004 0.88829 0.0
C559 C 0.43401 0.76468 0.88179 0.0
C560 C 0.43839 0.74643 0.89276 0.0
C561 C 0.46387 0.74343 0.90902 0.0
C562 C 0.51359 0.75912 0.95383 0.0
C563 C 0.51568 0.74419 0.97098 0.0
C564 C 0.51481 0.74824 0.9956 0.0
C565 C 0.51224 0.76746 1.00367 0.0
C566 C 0.51031 0.78243 0.98632 0.0
C567 C 0.51055 0.7783 0.96172 0.0
H568 H 0.76829 0.09676 0.53266 0.0
N569 N 0.82893 0.08441 0.52206 0.0
H570 H 0.75368 0.11709 0.56663 0.0
H571 H 0.86574 0.09309 0.56002 0.0
H572 H 0.85144 0.11353 0.5941 0.0
H573 H 0.87621 0.10717 0.50624 0.0
H574 H 0.8731 0.13182 0.47448 0.0
H575 H 0.77845 0.08905 0.49064 0.0
H576 H 0.77458 0.11417 0.45911 0.0
H577 H 0.77642 0.06126 0.53286 0.0
H578 H 0.87301 0.06092 0.50467 0.0
H579 H 0.7743 0.02589 0.53146 0.0
H580 H 0.87051 0.02571 0.5017 0.0
H581 H 0.76586 0.92865 0.53364 0.0
H582 H 0.75462 0.90466 0.56545 0.0
H583 H 0.85688 0.90126 0.5811 0.0
H584 H 0.86766 0.92511 0.54928 0.0
H585 H 0.87431 0.92186 0.49643 0.0
H586 H 0.87102 0.89836 0.46383 0.0
H587 H 0.76858 0.90898 0.45668 0.0
H588 H 0.77214 0.9319 0.48989 0.0
H589 H 0.77247 0.96175 0.50964 0.0
H590 H 0.77148 0.99724 0.50855 0.0
H591 H 0.87335 0.99873 0.52676 0.0
N592 N 0.82542 0.93923 0.51767 0.0
H593 H 0.87418 0.96341 0.52629 0.0
C594 C 0.8182 0.09342 0.54385 0.0
C595 C 0.7864 0.10002 0.54623 0.0
C596 C 0.77815 0.11178 0.56557 0.0
C597 C 0.80148 0.1171 0.58294 0.0
C598 C 0.83282 0.10959 0.58116 0.0
C599 C 0.84106 0.09791 0.56174 0.0
C600 C 0.8276 0.09646 0.50083 0.0
C601 C 0.85422 0.10838 0.49564 0.0
C602 C 0.85224 0.12257 0.47768 0.0
C603 C 0.82337 0.12522 0.46457 0.0
C604 C 0.79716 0.1125 0.46887 0.0
C605 C 0.79926 0.0982 0.48691 0.0
C606 C 0.82525 0.06374 0.51928 0.0
C607 C 0.79706 0.05361 0.5261 0.0
C608 C 0.79579 0.0333 0.52508 0.0
C609 C 0.82245 0.02274 0.51685 0.0
C610 C 0.84986 0.03314 0.50888 0.0
C611 C 0.85127 0.05333 0.51029 0.0
C612 C 0.81764 0.92853 0.53916 0.0
C613 C 0.78569 0.92303 0.54433 0.0
C614 C 0.77936 0.90926 0.56239 0.0
C615 C 0.80489 0.90093 0.57567 0.0
C616 C 0.83664 0.90749 0.57141 0.0
C617 C 0.84289 0.92111 0.55326 0.0
C618 C 0.82363 0.9287 0.49547 0.0
C619 C 0.85136 0.91944 0.48735 0.0
C620 C 0.84937 0.90602 0.46868 0.0
C621 C 0.81945 0.90161 0.45766 0.0
C622 C 0.79192 0.91176 0.465 0.0
C623 C 0.79396 0.9251 0.48381 0.0
C624 C 0.82362 0.96002 0.51761 0.0
C625 C 0.79459 0.96978 0.51304 0.0
C626 C 0.79405 0.99012 0.51271 0.0
C627 C 0.82243 1.00104 0.51727 0.0
C628 C 0.85117 0.991 0.52244 0.0
C629 C 0.85172 0.97077 0.52243 0.0
H630 H 0.52841 0.23417 0.12434 0.0
N631 N 0.51552 0.26887 0.10211 0.0
H632 H 0.572 0.22796 0.15303 0.0
H633 H 0.56531 0.29207 0.11237 0.0
H634 H 0.60954 0.28589 0.14095 0.0
H635 H 0.49149 0.29507 0.13135 0.0
H636 H 0.44741 0.29071 0.15984 0.0
H637 H 0.47257 0.23797 0.10322 0.0
H638 H 0.42785 0.23379 0.13082 0.0
H639 H 0.52031 0.23255 0.08251 0.0
H640 H 0.51203 0.29324 0.06506 0.0
H641 H 0.51983 0.22469 0.04003 0.0
H642 H 0.51397 0.28573 0.02219 0.0
H643 H 0.55158 0.20964 0.89987 0.0
H644 H 0.59674 0.21715 0.87321 0.0
H645 H 0.59679 0.2765 0.89758 0.0
H646 H 0.55112 0.26884 0.92387 0.0
H647 H 0.49786 0.26607 0.90209 0.0
H648 H 0.45385 0.26688 0.87279 0.0
H649 H 0.42905 0.20752 0.89089 0.0
H650 H 0.4744 0.20662 0.91945 0.0
H651 H 0.54953 0.21662 0.96299 0.0
H652 H 0.55006 0.22528 0.00544 0.0
H653 H 0.48624 0.27303 0.98946 0.0
N654 N 0.51897 0.23402 0.92686 0.0
H655 H 0.48787 0.26506 0.94696 0.0
C656 C 0.54365 0.26366 0.11613 0.0
C657 C 0.5464 0.24539 0.12736 0.0
C658 C 0.57142 0.24185 0.14383 0.0
C659 C 0.59412 0.25648 0.14946 0.0
C660 C 0.59216 0.27441 0.1373 0.0
C661 C 0.56715 0.27792 0.12082 0.0
C662 C 0.48552 0.26699 0.11505 0.0
C663 C 0.47717 0.28184 0.13081 0.0
C664 C 0.45188 0.27931 0.14707 0.0
C665 C 0.43416 0.2618 0.14784 0.0
C666 C 0.44137 0.24731 0.13108 0.0
C667 C 0.46688 0.24981 0.11497 0.0
C668 C 0.51563 0.26356 0.07705 0.0
C669 C 0.51839 0.24424 0.06955 0.0
C670 C 0.51861 0.23978 0.04505 0.0
C671 C 0.51694 0.25454 0.02739 0.0
C672 C 0.51461 0.27388 0.03506 0.0
C673 C 0.51375 0.27826 0.05959 0.0
C674 C 0.54809 0.23859 0.91383 0.0
C675 C 0.56176 0.22417 0.89971 0.0
C676 C 0.58762 0.2285 0.88456 0.0
C677 C 0.60038 0.24745 0.88319 0.0
C678 C 0.58728 0.26181 0.89798 0.0
C679 C 0.56135 0.25744 0.91316 0.0
C680 C 0.48972 0.23611 0.91276 0.0
C681 C 0.48279 0.25329 0.89998 0.0
C682 C 0.45733 0.25377 0.88329 0.0
C683 C 0.43807 0.23717 0.87916 0.0
C684 C 0.44382 0.22043 0.89316 0.0
C685 C 0.46947 0.21993 0.90969 0.0
C686 C 0.51843 0.23992 0.95175 0.0
C687 C 0.5358 0.22901 0.96871 0.0
C688 C 0.53576 0.2339 0.99306 0.0
C689 C 0.51781 0.24975 1.00118 0.0
C690 C 0.50066 0.26086 0.98402 0.0
C691 C 0.50126 0.25616 0.95956 0.0
C692 C 0.15716 0.37582 0.32381 0.0
C693 C 0.16192 0.35956 0.33883 0.0
H694 H 0.13313 0.40284 0.31847 0.0
C695 C 0.14591 0.35872 0.36103 0.0
H696 H 0.16883 0.37692 0.30648 0.0
C697 C 0.12496 0.37345 0.36772 0.0
C698 C 0.1196 0.38949 0.35246 0.0
H699 H 0.14935 0.34659 0.37324 0.0
H700 H 0.11223 0.37194 0.38459 0.0
C701 C 0.13634 0.39061 0.33056 0.0
C702 C 0.1576 0.65786 0.67267 0.0
C703 C 0.15594 0.66527 0.69612 0.0
H704 H 0.13883 0.63746 0.64716 0.0
C705 C 0.13347 0.65706 0.71218 0.0
H706 H 0.175 0.66365 0.65999 0.0
C707 C 0.11269 0.64209 0.70483 0.0
C708 C 0.11391 0.6349 0.68124 0.0
H709 H 0.13127 0.6626 0.73027 0.0
H710 H 0.09493 0.6366 0.71744 0.0
C711 C 0.13689 0.64283 0.66534 0.0
C712 C 0.89374 0.6583 0.3223 0.0
C713 C 0.87067 0.66589 0.33794 0.0
H714 H 0.93206 0.63823 0.31752 0.0
C715 C 0.8678 0.65783 0.36115 0.0
H716 H 0.8969 0.66437 0.30442 0.0
C717 C 0.88781 0.64267 0.36864 0.0
C718 C 0.9113 0.63529 0.35313 0.0
H719 H 0.84994 0.66318 0.37351 0.0
H720 H 0.88488 0.63674 0.3866 0.0
C721 C 0.91384 0.64323 0.32981 0.0
C722 C 0.89928 0.3508 0.64806 0.0
C723 C 0.88321 0.34678 0.66975 0.0
H724 H 0.93008 0.37005 0.62843 0.0
C725 C 0.88425 0.36079 0.68801 0.0
H726 H 0.89854 0.34053 0.63342 0.0
C727 C 0.90184 0.37809 0.68492 0.0
C728 C 0.91887 0.38178 0.66352 0.0
H729 H 0.87229 0.35817 0.705 0.0
H730 H 0.90242 0.38846 0.69945 0.0
C731 C 0.91697 0.36797 0.64504 0.0
C732 C 0.24386 0.17077 0.43015 0.0
C733 C 0.22586 0.17256 0.4087 0.0
H734 H 0.25515 0.15331 0.46098 0.0
C735 C 0.20656 0.15681 0.40113 0.0
H736 H 0.25924 0.18256 0.43632 0.0
C737 C 0.20434 0.13993 0.41523 0.0
C738 C 0.22162 0.13839 0.43707 0.0
H739 H 0.19229 0.15778 0.38474 0.0
H740 H 0.18873 0.1282 0.40923 0.0
C741 C 0.24181 0.15389 0.44414 0.0
C742 C 0.37014 0.7877 0.84147 0.0
C743 C 0.36597 0.77361 0.82352 0.0
H744 H 0.3943 0.79578 0.87421 0.0
C745 C 0.38318 0.75622 0.82556 0.0
H746 H 0.35687 0.80113 0.84064 0.0
C747 C 0.40458 0.75315 0.84478 0.0
C748 C 0.40931 0.7674 0.86246 0.0
H749 H 0.38093 0.74518 0.81187 0.0
H750 H 0.41826 0.73986 0.8453 0.0
C751 C 0.39156 0.78463 0.86072 0.0
C752 C 0.84045 0.86544 0.40903 0.0
C753 C 0.81421 0.85237 0.41019 0.0
H754 H 0.86226 0.89153 0.42242 0.0
C755 C 0.78875 0.85631 0.42591 0.0
H756 H 0.86021 0.86294 0.39682 0.0
C757 C 0.79002 0.87258 0.44074 0.0
C758 C 0.81669 0.88542 0.4401 0.0
H759 H 0.76837 0.8464 0.42743 0.0
H760 H 0.77063 0.87464 0.45339 0.0
C761 C 0.84162 0.8818 0.42373 0.0
C762 C 0.64722 0.27353 0.83392 0.0
C763 C 0.67188 0.26029 0.8291 0.0
H764 H 0.60522 0.27979 0.85451 0.0
C765 C 0.67377 0.24323 0.84302 0.0
H766 H 0.64482 0.28669 0.82333 0.0
C767 C 0.65113 0.23931 0.86099 0.0
C768 C 0.626 0.25232 0.86544 0.0
H769 H 0.6928 0.23289 0.84004 0.0
H770 H 0.65327 0.22602 0.87137 0.0
C771 C 0.62454 0.26959 0.85186 0.0
C772 C 0.2033 0.86557 0.62243 0.0
C773 C 0.22429 0.85035 0.61706 0.0
H774 H 0.18465 0.89324 0.61173 0.0
C775 C 0.24426 0.85216 0.59682 0.0
H776 H 0.18748 0.86457 0.63782 0.0
C777 C 0.24262 0.86852 0.58189 0.0
C778 C 0.22086 0.88347 0.58677 0.0
H779 H 0.26096 0.84078 0.59234 0.0
H780 H 0.25763 0.86913 0.56603 0.0
C781 C 0.2015 0.88192 0.60739 0.0
C782 C 0.65702 0.76876 0.19689 0.0
C783 C 0.65994 0.78529 0.21145 0.0
H784 H 0.63423 0.75561 0.16625 0.0
C785 C 0.64196 0.80179 0.20524 0.0
H786 H 0.67034 0.75575 0.20119 0.0
C787 C 0.62088 0.80161 0.18548 0.0
C788 C 0.61737 0.78496 0.1712 0.0
H789 H 0.64401 0.81491 0.21574 0.0
H790 H 0.60665 0.81439 0.18187 0.0
C791 C 0.63602 0.76861 0.17699 0.0
C792 C 0.79947 0.14323 0.64292 0.0
C793 C 0.7826 0.16018 0.6368 0.0
H794 H 0.81851 0.11626 0.63079 0.0
C795 C 0.77101 0.16247 0.6131 0.0
H796 H 0.80889 0.14109 0.66099 0.0
C797 C 0.77651 0.14827 0.59585 0.0
C798 C 0.79389 0.13148 0.60182 0.0
H799 H 0.75762 0.17525 0.60788 0.0
H800 H 0.76782 0.1507 0.57764 0.0
C801 C 0.80518 0.12908 0.62559 0.0
C802 C 0.37009 0.26999 0.19531 0.0
C803 C 0.36859 0.25179 0.20687 0.0
H804 H 0.39121 0.28733 0.16734 0.0
C805 C 0.38742 0.23667 0.19791 0.0
H806 H 0.35613 0.28203 0.20179 0.0
C807 C 0.408 0.23981 0.17844 0.0
C808 C 0.41012 0.25813 0.16723 0.0
H809 H 0.38651 0.22236 0.20606 0.0
H810 H 0.42298 0.22798 0.1727 0.0
C811 C 0.39053 0.2731 0.17569 0.0
C812 C 0.86568 0.6449 0.70364 0.0
C813 C 0.86539 0.66279 0.69126 0.0
H814 H 0.88637 0.61663 0.70678 0.0
C815 C 0.88574 0.66529 0.6713 0.0
H816 H 0.8499 0.64229 0.71879 0.0
C817 C 0.90634 0.65048 0.66427 0.0
C818 C 0.90727 0.63284 0.6771 0.0
H819 H 0.88658 0.67892 0.66153 0.0
H820 H 0.92243 0.65313 0.6493 0.0
C821 C 0.88647 0.63015 0.69672 0.0
C822 C 0.89029 0.36626 0.31909 0.0
C823 C 0.86866 0.35758 0.33541 0.0
H824 H 0.9284 0.38697 0.31362 0.0
C825 C 0.86798 0.36444 0.35915 0.0
H826 H 0.89174 0.36115 0.30075 0.0
C827 C 0.88888 0.37937 0.36652 0.0
C828 C 0.91108 0.38774 0.35034 0.0
H829 H 0.85123 0.35828 0.37206 0.0
H830 H 0.88773 0.3843 0.38494 0.0
C831 C 0.91127 0.38113 0.32646 0.0
C832 C 0.16637 0.36557 0.66689 0.0
C833 C 0.16441 0.35743 0.69012 0.0
H834 H 0.14796 0.38654 0.6418 0.0
C835 C 0.14158 0.36476 0.70616 0.0
H836 H 0.184 0.36044 0.65422 0.0
C837 C 0.12085 0.37964 0.69904 0.0
C838 C 0.12249 0.38766 0.67572 0.0
H839 H 0.13909 0.35862 0.72406 0.0
H840 H 0.10286 0.38443 0.71164 0.0
C841 C 0.14571 0.38054 0.65979 0.0
C842 C 0.1336 0.6703 0.3848 0.0
C843 C 0.15022 0.67435 0.36336 0.0
H844 H 0.10211 0.6511 0.40389 0.0
C845 C 0.14949 0.6604 0.34501 0.0
H846 H 0.13408 0.6805 0.39951 0.0
C847 C 0.13166 0.64315 0.34776 0.0
C848 C 0.11406 0.63946 0.3689 0.0
H849 H 0.16187 0.66305 0.32819 0.0
H850 H 0.13133 0.63285 0.33317 0.0
C851 C 0.11566 0.65319 0.38748 0.0
C852 C 0.81352 0.86564 0.62813 0.0
C853 C 0.7943 0.84992 0.62035 0.0
H854 H 0.83167 0.89419 0.62028 0.0
C855 C 0.77648 0.85184 0.59882 0.0
H856 H 0.82767 0.86459 0.64458 0.0
C857 C 0.77877 0.86877 0.58492 0.0
C858 C 0.7991 0.88416 0.59215 0.0
H859 H 0.76116 0.84008 0.59248 0.0
H860 H 0.76569 0.86946 0.56797 0.0
C861 C 0.81599 0.88254 0.61414 0.0
C862 C 0.64538 0.26519 0.20539 0.0
C863 C 0.6608 0.24728 0.20854 0.0
H864 H 0.61216 0.28203 0.18452 0.0
C865 C 0.65509 0.23263 0.19152 0.0
H866 H 0.64878 0.27669 0.21835 0.0
C867 C 0.63403 0.2357 0.17205 0.0
C868 C 0.61823 0.25352 0.16914 0.0
H869 H 0.66696 0.21877 0.1932 0.0
H870 H 0.6301 0.22412 0.15927 0.0
C871 C 0.62438 0.26827 0.18594 0.0
C872 C 0.20185 0.15721 0.62126 0.0
C873 C 0.22591 0.17119 0.61627 0.0
H874 H 0.17949 0.1303 0.61101 0.0
C875 C 0.24768 0.16775 0.59755 0.0
H876 H 0.18461 0.15949 0.63548 0.0
C877 C 0.24484 0.15101 0.58363 0.0
C878 C 0.21996 0.13742 0.58797 0.0
H879 H 0.26666 0.17816 0.59344 0.0
H880 H 0.26131 0.14911 0.56881 0.0
C881 C 0.1988 0.14056 0.60717 0.0
C882 C 0.35786 0.77739 0.1897 0.0
C883 C 0.36025 0.76043 0.20377 0.0
H884 H 0.37762 0.79453 0.161 0.0
C885 C 0.38501 0.74729 0.19883 0.0
H886 H 0.33874 0.78764 0.19277 0.0
C887 C 0.40732 0.75124 0.18064 0.0
C888 C 0.40538 0.76841 0.16692 0.0
H889 H 0.38778 0.73421 0.20952 0.0
H890 H 0.42674 0.74113 0.17789 0.0
C891 C 0.38013 0.78132 0.17148 0.0
C892 C 0.80259 0.15615 0.40951 0.0
C893 C 0.81584 0.17427 0.41603 0.0
H894 H 0.79484 0.12634 0.41957 0.0
C895 C 0.83074 0.17609 0.43875 0.0
H896 H 0.7911 0.15421 0.3921 0.0
C897 C 0.83295 0.16021 0.45434 0.0
C898 C 0.82029 0.14201 0.44772 0.0
H899 H 0.84046 0.18991 0.44466 0.0
H900 H 0.84431 0.16227 0.47178 0.0
C901 C 0.80476 0.14018 0.42522 0.0
C902 C 0.3899 0.22025 0.82462 0.0
C903 C 0.3724 0.2369 0.81823 0.0
H904 H 0.42442 0.20736 0.8484 0.0
C905 C 0.37521 0.25336 0.83291 0.0
H906 H 0.38791 0.20719 0.81402 0.0
C907 C 0.39573 0.25332 0.8531 0.0
C908 C 0.41397 0.23683 0.85904 0.0
H909 H 0.36224 0.26647 0.82848 0.0
H910 H 0.3975 0.26628 0.8639 0.0
C911 C 0.41049 0.22025 0.84466 0.0
C912 C 0.2248 0.87517 0.3913 0.0
C913 C 0.25022 0.86211 0.39508 0.0
H914 H 0.19803 0.89897 0.40519 0.0
C915 C 0.26935 0.86387 0.41601 0.0
H916 H 0.20952 0.87412 0.37543 0.0
C917 C 0.26288 0.87815 0.43297 0.0
C918 C 0.23691 0.89086 0.42951 0.0
H919 H 0.28929 0.85414 0.4193 0.0
H920 H 0.27759 0.87886 0.44917 0.0
C921 C 0.2181 0.88932 0.40839 0.0
C922 C 0.66506 0.75556 0.84028 0.0
C923 C 0.66198 0.77185 0.82505 0.0
H924 H 0.64681 0.73992 0.87088 0.0
C925 C 0.63773 0.78535 0.82992 0.0
H926 H 0.68377 0.74502 0.83731 0.0
C927 C 0.61682 0.78251 0.84925 0.0
C928 C 0.61949 0.76605 0.86417 0.0
H929 H 0.63418 0.79787 0.81835 0.0
H930 H 0.59783 0.79292 0.85201 0.0
C931 C 0.64398 0.75266 0.85957 0.0
loop_
_geom_bond_atom_site_label_1
_geom_bond_atom_site_label_2
_geom_bond_distance
_geom_bond_site_symmetry_2
_ccdc_geom_bond_type
C0 C1 1.264 . S
C0 C5 1.479 . S
C0 C10 1.465 . S
C1 C0 1.264 . S
C1 C3 1.339 . S
C1 H28 0.931 . S
C2 C3 1.395 . S
C2 C4 1.320 . S
C3 C1 1.339 . S
C3 C2 1.395 . S
C3 H29 0.929 . S
C4 C2 1.320 . S
C4 C5 1.405 . S
C4 H30 0.930 . S
C5 C0 1.479 . S
C5 C4 1.405 . S
C5 H31 0.931 . S
U6 O7 2.454 . S
U6 O8 2.458 . S
U6 C9 2.984 . S
U6 C10 2.847 . S
U6 C23 2.882 . S
U6 O24 2.441 . S
U6 O25 2.420 . S
U6 O26 2.455 . S
U6 O27 2.449 . S
O7 U6 2.454 . S
O7 C9 1.353 . S
O8 U6 2.458 . S
O8 C9 1.286 . S
C9 U6 2.984 . S
C9 O7 1.353 . S
C9 O8 1.286 . S
C9 C11 1.363 . S
C10 C0 1.465 . S
C10 U6 2.847 . S
C10 O24 1.249 . S
C10 O25 1.202 . S
C11 C9 1.363 . S
C11 C13 1.408 . S
C11 C16 1.342 . S
C12 C13 1.310 . S
C12 C15 1.461 . S
C12 H32 0.932 . S
C13 C11 1.408 . S
C13 C12 1.310 . S
C13 H33 0.930 . S
C14 C15 1.474 . S
C14 C16 1.285 . S
C14 H34 0.929 . S
C15 C12 1.461 . S
C15 C14 1.474 . S
C16 C11 1.342 . S
C16 C14 1.285 . S
C16 H35 0.930 . S
C17 C20 1.424 . S
C17 C22 1.245 . S
C17 C23 1.428 . S
C18 C21 1.260 . S
C18 C22 1.477 . S
C18 H36 0.932 . S
C19 C20 1.384 . S
C19 C21 1.479 . S
C19 H37 0.929 . S
C20 C17 1.424 . S
C20 C19 1.384 . S
C20 H38 0.928 . S
C21 C18 1.260 . S
C21 C19 1.479 . S
C22 C17 1.245 . S
C22 C18 1.477 . S
C22 H39 0.932 . S
C23 U6 2.882 . S
C23 C17 1.428 . S
C23 O26 1.301 . S
C23 O27 1.282 . S
O24 U6 2.441 . S
O24 C10 1.249 . S
O25 U6 2.420 . S
O25 C10 1.202 . S
O26 U6 2.455 . S
O26 C23 1.301 . S
O27 U6 2.449 . S
O27 C23 1.282 . S
H28 C1 0.931 . S
H29 C3 0.929 . S
H30 C4 0.930 . S
H31 C5 0.931 . S
H32 C12 0.932 . S
H33 C13 0.930 . S
H34 C14 0.929 . S
H35 C16 0.930 . S
H36 C18 0.932 . S
H37 C19 0.929 . S
H38 C20 0.928 . S
H39 C22 0.932 . S
C40 C41 1.264 . S
C40 C45 1.479 . S
C40 C50 1.465 . S
C41 C40 1.264 . S
C41 C43 1.339 . S
C41 H68 0.931 . S
C42 C43 1.395 . S
C42 C44 1.320 . S
C43 C41 1.339 . S
C43 C42 1.395 . S
C43 H69 0.929 . S
C44 C42 1.320 . S
C44 C45 1.405 . S
C44 H70 0.930 . S
C45 C40 1.479 . S
C45 C44 1.405 . S
C45 H71 0.931 . S
U46 O47 2.454 . S
U46 O48 2.458 . S
U46 C49 2.984 . S
U46 C50 2.847 . S
U46 C63 2.882 . S
U46 O64 2.441 . S
U46 O65 2.420 . S
U46 O66 2.455 . S
U46 O67 2.449 . S
O47 U46 2.454 . S
O47 C49 1.353 . S
O48 U46 2.458 . S
O48 C49 1.286 . S
C49 U46 2.984 . S
C49 O47 1.353 . S
C49 O48 1.286 . S
C49 C51 1.363 . S
C50 C40 1.465 . S
C50 U46 2.847 . S
C50 O64 1.249 . S
C50 O65 1.202 . S
C51 C49 1.363 . S
C51 C53 1.408 . S
C51 C56 1.342 . S
C52 C53 1.310 . S
C52 C55 1.461 . S
C52 H72 0.932 . S
C53 C51 1.408 . S
C53 C52 1.310 . S
C53 H73 0.930 . S
C54 C55 1.474 . S
C54 C56 1.285 . S
C54 H74 0.929 . S
C55 C52 1.461 . S
C55 C54 1.474 . S
C56 C51 1.342 . S
C56 C54 1.285 . S
C56 H75 0.930 . S
C57 C60 1.424 . S
C57 C62 1.245 . S
C57 C63 1.428 . S
C58 C61 1.260 . S
C58 C62 1.477 . S
C58 H76 0.932 . S
C59 C60 1.384 . S
C59 C61 1.479 . S
C59 H77 0.929 . S
C60 C57 1.424 . S
C60 C59 1.384 . S
C60 H78 0.928 . S
C61 C58 1.260 . S
C61 C59 1.479 . S
C62 C57 1.245 . S
C62 C58 1.477 . S
C62 H79 0.932 . S
C63 U46 2.882 . S
C63 C57 1.428 . S
C63 O66 1.301 . S
C63 O67 1.282 . S
O64 U46 2.441 . S
O64 C50 1.249 . S
O65 U46 2.420 . S
O65 C50 1.202 . S
O66 U46 2.455 . S
O66 C63 1.301 . S
O67 U46 2.449 . S
O67 C63 1.282 . S
H68 C41 0.931 . S
H69 C43 0.929 . S
H70 C44 0.930 . S
H71 C45 0.931 . S
H72 C52 0.932 . S
H73 C53 0.930 . S
H74 C54 0.929 . S
H75 C56 0.930 . S
H76 C58 0.932 . S
H77 C59 0.929 . S
H78 C60 0.928 . S
H79 C62 0.932 . S
C80 C81 1.264 . S
C80 C85 1.479 . S
C80 C90 1.465 . S
C81 C80 1.264 . S
C81 C83 1.339 . S
C81 H108 0.931 . S
C82 C83 1.395 . S
C82 C84 1.320 . S
C83 C81 1.339 . S
C83 C82 1.395 . S
C83 H109 0.929 . S
C84 C82 1.320 . S
C84 C85 1.405 . S
C84 H110 0.930 . S
C85 C80 1.479 . S
C85 C84 1.405 . S
C85 H111 0.931 . S
U86 O87 2.454 . S
U86 O88 2.458 . S
U86 C89 2.984 . S
U86 C90 2.847 . S
U86 C103 2.882 . S
U86 O104 2.441 . S
U86 O105 2.420 . S
U86 O106 2.455 . S
U86 O107 2.449 . S
O87 U86 2.454 . S
O87 C89 1.353 . S
O88 U86 2.458 . S
O88 C89 1.286 . S
C89 U86 2.984 . S
C89 O87 1.353 . S
C89 O88 1.286 . S
C89 C91 1.363 . S
C90 C80 1.465 . S
C90 U86 2.847 . S
C90 O104 1.249 . S
C90 O105 1.202 . S
C91 C89 1.363 . S
C91 C93 1.408 . S
C91 C96 1.342 . S
C92 C93 1.310 . S
C92 C95 1.461 . S
C92 H112 0.932 . S
C93 C91 1.408 . S
C93 C92 1.310 . S
C93 H113 0.930 . S
C94 C95 1.474 . S
C94 C96 1.285 . S
C94 H114 0.929 . S
C95 C92 1.461 . S
C95 C94 1.474 . S
C96 C91 1.342 . S
C96 C94 1.285 . S
C96 H115 0.930 . S
C97 C100 1.424 . S
C97 C102 1.245 . S
C97 C103 1.428 . S
C98 C101 1.260 . S
C98 C102 1.477 . S
C98 H116 0.932 . S
C99 C100 1.384 . S
C99 C101 1.479 . S
C99 H117 0.929 . S
C100 C97 1.424 . S
C100 C99 1.384 . S
C100 H118 0.928 . S
C101 C98 1.260 . S
C101 C99 1.479 . S
C102 C97 1.245 . S
C102 C98 1.477 . S
C102 H119 0.932 . S
C103 U86 2.882 . S
C103 C97 1.428 . S
C103 O106 1.301 . S
C103 O107 1.282 . S
O104 U86 2.441 . S
O104 C90 1.249 . S
O105 U86 2.420 . S
O105 C90 1.202 . S
O106 U86 2.455 . S
O106 C103 1.301 . S
O107 U86 2.449 . S
O107 C103 1.282 . S
H108 C81 0.931 . S
H109 C83 0.929 . S
H110 C84 0.930 . S
H111 C85 0.931 . S
H112 C92 0.932 . S
H113 C93 0.930 . S
H114 C94 0.929 . S
H115 C96 0.930 . S
H116 C98 0.932 . S
H117 C99 0.929 . S
H118 C100 0.928 . S
H119 C102 0.932 . S
C120 C121 1.264 . S
C120 C125 1.479 . S
C120 C130 1.465 . S
C121 C120 1.264 . S
C121 C123 1.339 . S
C121 H148 0.931 . S
C122 C123 1.395 . S
C122 C124 1.320 . S
C123 C121 1.339 . S
C123 C122 1.395 . S
C123 H149 0.929 . S
C124 C122 1.320 . S
C124 C125 1.405 . S
C124 H150 0.930 . S
C125 C120 1.479 . S
C125 C124 1.405 . S
C125 H151 0.931 . S
U126 O127 2.454 . S
U126 O128 2.458 . S
U126 C129 2.984 . S
U126 C130 2.847 . S
U126 C143 2.882 . S
U126 O144 2.441 . S
U126 O145 2.420 . S
U126 O146 2.455 . S
U126 O147 2.449 . S
O127 U126 2.454 . S
O127 C129 1.353 . S
O128 U126 2.458 . S
O128 C129 1.286 . S
C129 U126 2.984 . S
C129 O127 1.353 . S
C129 O128 1.286 . S
C129 C131 1.363 . S
C130 C120 1.465 . S
C130 U126 2.847 . S
C130 O144 1.249 . S
C130 O145 1.202 . S
C131 C129 1.363 . S
C131 C133 1.408 . S
C131 C136 1.342 . S
C132 C133 1.310 . S
C132 C135 1.461 . S
C132 H152 0.932 . S
C133 C131 1.408 . S
C133 C132 1.310 . S
C133 H153 0.930 . S
C134 C135 1.474 . S
C134 C136 1.285 . S
C134 H154 0.929 . S
C135 C132 1.461 . S
C135 C134 1.474 . S
C136 C131 1.342 . S
C136 C134 1.285 . S
C136 H155 0.930 . S
C137 C140 1.424 . S
C137 C142 1.245 . S
C137 C143 1.428 . S
C138 C141 1.260 . S
C138 C142 1.477 . S
C138 H156 0.932 . S
C139 C140 1.384 . S
C139 C141 1.479 . S
C139 H157 0.929 . S
C140 C137 1.424 . S
C140 C139 1.384 . S
C140 H158 0.928 . S
C141 C138 1.260 . S
C141 C139 1.479 . S
C142 C137 1.245 . S
C142 C138 1.477 . S
C142 H159 0.932 . S
C143 U126 2.882 . S
C143 C137 1.428 . S
C143 O146 1.301 . S
C143 O147 1.282 . S
O144 U126 2.441 . S
O144 C130 1.249 . S
O145 U126 2.420 . S
O145 C130 1.202 . S
O146 U126 2.455 . S
O146 C143 1.301 . S
O147 U126 2.449 . S
O147 C143 1.282 . S
H148 C121 0.931 . S
H149 C123 0.929 . S
H150 C124 0.930 . S
H151 C125 0.931 . S
H152 C132 0.932 . S
H153 C133 0.930 . S
H154 C134 0.929 . S
H155 C136 0.930 . S
H156 C138 0.932 . S
H157 C139 0.929 . S
H158 C140 0.928 . S
H159 C142 0.932 . S
C160 C161 1.264 . S
C160 C165 1.479 . S
C160 C170 1.465 . S
C161 C160 1.264 . S
C161 C163 1.339 . S
C161 H188 0.931 . S
C162 C163 1.395 . S
C162 C164 1.320 . S
C163 C161 1.339 . S
C163 C162 1.395 . S
C163 H189 0.929 . S
C164 C162 1.320 . S
C164 C165 1.405 . S
C164 H190 0.930 . S
C165 C160 1.479 . S
C165 C164 1.405 . S
C165 H191 0.931 . S
U166 O167 2.454 . S
U166 O168 2.458 . S
U166 C169 2.984 . S
U166 C170 2.847 . S
U166 C183 2.882 . S
U166 O184 2.441 . S
U166 O185 2.420 . S
U166 O186 2.455 . S
U166 O187 2.449 . S
O167 U166 2.454 . S
O167 C169 1.353 . S
O168 U166 2.458 . S
O168 C169 1.286 . S
C169 U166 2.984 . S
C169 O167 1.353 . S
C169 O168 1.286 . S
C169 C171 1.363 . S
C170 C160 1.465 . S
C170 U166 2.847 . S
C170 O184 1.249 . S
C170 O185 1.202 . S
C171 C169 1.363 . S
C171 C173 1.408 . S
C171 C176 1.342 . S
C172 C173 1.310 . S
C172 C175 1.461 . S
C172 H192 0.932 . S
C173 C171 1.408 . S
C173 C172 1.310 . S
C173 H193 0.930 . S
C174 C175 1.474 . S
C174 C176 1.285 . S
C174 H194 0.929 . S
C175 C172 1.461 . S
C175 C174 1.474 . S
C176 C171 1.342 . S
C176 C174 1.285 . S
C176 H195 0.930 . S
C177 C180 1.424 . S
C177 C182 1.245 . S
C177 C183 1.428 . S
C178 C181 1.260 . S
C178 C182 1.477 . S
C178 H196 0.932 . S
C179 C180 1.384 . S
C179 C181 1.479 . S
C179 H197 0.929 . S
C180 C177 1.424 . S
C180 C179 1.384 . S
C180 H198 0.928 . S
C181 C178 1.260 . S
C181 C179 1.479 . S
C182 C177 1.245 . S
C182 C178 1.477 . S
C182 H199 0.932 . S
C183 U166 2.882 . S
C183 C177 1.428 . S
C183 O186 1.301 . S
C183 O187 1.282 . S
O184 U166 2.441 . S
O184 C170 1.249 . S
O185 U166 2.420 . S
O185 C170 1.202 . S
O186 U166 2.455 . S
O186 C183 1.301 . S
O187 U166 2.449 . S
O187 C183 1.282 . S
H188 C161 0.931 . S
H189 C163 0.929 . S
H190 C164 0.930 . S
H191 C165 0.931 . S
H192 C172 0.932 . S
H193 C173 0.930 . S
H194 C174 0.929 . S
H195 C176 0.930 . S
H196 C178 0.932 . S
H197 C179 0.929 . S
H198 C180 0.928 . S
H199 C182 0.932 . S
C200 C201 1.264 . S
C200 C205 1.479 . S
C200 C210 1.465 . S
C201 C200 1.264 . S
C201 C203 1.339 . S
C201 H228 0.931 . S
C202 C203 1.395 . S
C202 C204 1.320 . S
C203 C201 1.339 . S
C203 C202 1.395 . S
C203 H229 0.929 . S
C204 C202 1.320 . S
C204 C205 1.405 . S
C204 H230 0.930 . S
C205 C200 1.479 . S
C205 C204 1.405 . S
C205 H231 0.931 . S
U206 O207 2.454 . S
U206 O208 2.458 . S
U206 C209 2.984 . S
U206 C210 2.847 . S
U206 C223 2.882 . S
U206 O224 2.441 . S
U206 O225 2.420 . S
U206 O226 2.455 . S
U206 O227 2.449 . S
O207 U206 2.454 . S
O207 C209 1.353 . S
O208 U206 2.458 . S
O208 C209 1.286 . S
C209 U206 2.984 . S
C209 O207 1.353 . S
C209 O208 1.286 . S
C209 C211 1.363 . S
C210 C200 1.465 . S
C210 U206 2.847 . S
C210 O224 1.249 . S
C210 O225 1.202 . S
C211 C209 1.363 . S
C211 C213 1.408 . S
C211 C216 1.342 . S
C212 C213 1.310 . S
C212 C215 1.461 . S
C212 H232 0.932 . S
C213 C211 1.408 . S
C213 C212 1.310 . S
C213 H233 0.930 . S
C214 C215 1.474 . S
C214 C216 1.285 . S
C214 H234 0.929 . S
C215 C212 1.461 . S
C215 C214 1.474 . S
C216 C211 1.342 . S
C216 C214 1.285 . S
C216 H235 0.930 . S
C217 C220 1.424 . S
C217 C222 1.245 . S
C217 C223 1.428 . S
C218 C221 1.260 . S
C218 C222 1.477 . S
C218 H236 0.932 . S
C219 C220 1.384 . S
C219 C221 1.479 . S
C219 H237 0.929 . S
C220 C217 1.424 . S
C220 C219 1.384 . S
C220 H238 0.928 . S
C221 C218 1.260 . S
C221 C219 1.479 . S
C222 C217 1.245 . S
C222 C218 1.477 . S
C222 H239 0.932 . S
C223 U206 2.882 . S
C223 C217 1.428 . S
C223 O226 1.301 . S
C223 O227 1.282 . S
O224 U206 2.441 . S
O224 C210 1.249 . S
O225 U206 2.420 . S
O225 C210 1.202 . S
O226 U206 2.455 . S
O226 C223 1.301 . S
O227 U206 2.449 . S
O227 C223 1.282 . S
H228 C201 0.931 . S
H229 C203 0.929 . S
H230 C204 0.930 . S
H231 C205 0.931 . S
H232 C212 0.932 . S
H233 C213 0.930 . S
H234 C214 0.929 . S
H235 C216 0.930 . S
H236 C218 0.932 . S
H237 C219 0.929 . S
H238 C220 0.928 . S
H239 C222 0.932 . S
C240 C241 1.264 . S
C240 C245 1.479 . S
C240 C250 1.465 . S
C241 C240 1.264 . S
C241 C243 1.339 . S
C241 H268 0.931 . S
C242 C243 1.395 . S
C242 C244 1.320 . S
C243 C241 1.339 . S
C243 C242 1.395 . S
C243 H269 0.929 . S
C244 C242 1.320 . S
C244 C245 1.405 . S
C244 H270 0.930 . S
C245 C240 1.479 . S
C245 C244 1.405 . S
C245 H271 0.931 . S
U246 O247 2.454 . S
U246 O248 2.458 . S
U246 C249 2.984 . S
U246 C250 2.847 . S
U246 C263 2.882 . S
U246 O264 2.441 . S
U246 O265 2.420 . S
U246 O266 2.455 . S
U246 O267 2.449 . S
O247 U246 2.454 . S
O247 C249 1.353 . S
O248 U246 2.458 . S
O248 C249 1.286 . S
C249 U246 2.984 . S
C249 O247 1.353 . S
C249 O248 1.286 . S
C249 C251 1.363 . S
C250 C240 1.465 . S
C250 U246 2.847 . S
C250 O264 1.249 . S
C250 O265 1.202 . S
C251 C249 1.363 . S
C251 C253 1.408 . S
C251 C256 1.342 . S
C252 C253 1.310 . S
C252 C255 1.461 . S
C252 H272 0.932 . S
C253 C251 1.408 . S
C253 C252 1.310 . S
C253 H273 0.930 . S
C254 C255 1.474 . S
C254 C256 1.285 . S
C254 H274 0.929 . S
C255 C252 1.461 . S
C255 C254 1.474 . S
C256 C251 1.342 . S
C256 C254 1.285 . S
C256 H275 0.930 . S
C257 C260 1.424 . S
C257 C262 1.245 . S
C257 C263 1.428 . S
C258 C261 1.260 . S
C258 C262 1.477 . S
C258 H276 0.932 . S
C259 C260 1.384 . S
C259 C261 1.479 . S
C259 H277 0.929 . S
C260 C257 1.424 . S
C260 C259 1.384 . S
C260 H278 0.928 . S
C261 C258 1.260 . S
C261 C259 1.479 . S
C262 C257 1.245 . S
C262 C258 1.477 . S
C262 H279 0.932 . S
C263 U246 2.882 . S
C263 C257 1.428 . S
C263 O266 1.301 . S
C263 O267 1.282 . S
O264 U246 2.441 . S
O264 C250 1.249 . S
O265 U246 2.420 . S
O265 C250 1.202 . S
O266 U246 2.455 . S
O266 C263 1.301 . S
O267 U246 2.449 . S
O267 C263 1.282 . S
H268 C241 0.931 . S
H269 C243 0.929 . S
H270 C244 0.930 . S
H271 C245 0.931 . S
H272 C252 0.932 . S
H273 C253 0.930 . S
H274 C254 0.929 . S
H275 C256 0.930 . S
H276 C258 0.932 . S
H277 C259 0.929 . S
H278 C260 0.928 . S
H279 C262 0.932 . S
C280 C281 1.264 . S
C280 C285 1.479 . S
C280 C290 1.465 . S
C281 C280 1.264 . S
C281 C283 1.339 . S
C281 H308 0.931 . S
C282 C283 1.395 . S
C282 C284 1.320 . S
C283 C281 1.339 . S
C283 C282 1.395 . S
C283 H309 0.929 . S
C284 C282 1.320 . S
C284 C285 1.405 . S
C284 H310 0.930 . S
C285 C280 1.479 . S
C285 C284 1.405 . S
C285 H311 0.931 . S
U286 O287 2.454 . S
U286 O288 2.458 . S
U286 C289 2.984 . S
U286 C290 2.847 . S
U286 C303 2.882 . S
U286 O304 2.441 . S
U286 O305 2.420 . S
U286 O306 2.455 . S
U286 O307 2.449 . S
O287 U286 2.454 . S
O287 C289 1.353 . S
O288 U286 2.458 . S
O288 C289 1.286 . S
C289 U286 2.984 . S
C289 O287 1.353 . S
C289 O288 1.286 . S
C289 C291 1.363 . S
C290 C280 1.465 . S
C290 U286 2.847 . S
C290 O304 1.249 . S
C290 O305 1.202 . S
C291 C289 1.363 . S
C291 C293 1.408 . S
C291 C296 1.342 . S
C292 C293 1.310 . S
C292 C295 1.461 . S
C292 H312 0.932 . S
C293 C291 1.408 . S
C293 C292 1.310 . S
C293 H313 0.930 . S
C294 C295 1.474 . S
C294 C296 1.285 . S
C294 H314 0.929 . S
C295 C292 1.461 . S
C295 C294 1.474 . S
C296 C291 1.342 . S
C296 C294 1.285 . S
C296 H315 0.930 . S
C297 C300 1.424 . S
C297 C302 1.245 . S
C297 C303 1.428 . S
C298 C301 1.260 . S
C298 C302 1.477 . S
C298 H316 0.932 . S
C299 C300 1.384 . S
C299 C301 1.479 . S
C299 H317 0.929 . S
C300 C297 1.424 . S
C300 C299 1.384 . S
C300 H318 0.928 . S
C301 C298 1.260 . S
C301 C299 1.479 . S
C302 C297 1.245 . S
C302 C298 1.477 . S
C302 H319 0.932 . S
C303 U286 2.882 . S
C303 C297 1.428 . S
C303 O306 1.301 . S
C303 O307 1.282 . S
O304 U286 2.441 . S
O304 C290 1.249 . S
O305 U286 2.420 . S
O305 C290 1.202 . S
O306 U286 2.455 . S
O306 C303 1.301 . S
O307 U286 2.449 . S
O307 C303 1.282 . S
H308 C281 0.931 . S
H309 C283 0.929 . S
H310 C284 0.930 . S
H311 C285 0.931 . S
H312 C292 0.932 . S
H313 C293 0.930 . S
H314 C294 0.929 . S
H315 C296 0.930 . S
H316 C298 0.932 . S
H317 C299 0.929 . S
H318 C300 0.928 . S
H319 C302 0.932 . S
H320 C347 0.929 . S
N321 C346 1.433 1_455 S
N321 C352 1.435 . S
N321 C358 1.423 . S
H322 C348 0.930 . S
H323 C351 0.931 . S
H324 C350 0.929 . S
H325 C353 0.930 . S
H326 C354 0.932 . S
H327 C357 0.929 . S
H328 C356 0.931 . S
H329 C359 0.929 . S
H330 C363 0.932 . S
H331 C360 0.931 1_655 S
H332 C362 0.929 . S
H333 C365 0.929 . S
H334 C366 0.930 . S
H335 C368 0.929 . S
H336 C369 0.931 . S
H337 C371 0.930 . S
H338 C372 0.932 . S
H339 C374 0.931 . S
H340 C375 0.929 . S
H341 C377 0.929 . S
H342 C378 0.931 1_655 S
H343 C380 0.929 . S
N344 C364 1.433 1_455 S
N344 C370 1.435 . S
N344 C376 1.423 . S
H345 C381 0.932 . S
C346 N321 1.433 1_655 S
C346 C347 1.363 . S
C346 C351 1.370 . S
C347 H320 0.929 . S
C347 C346 1.363 . S
C347 C348 1.385 . S
C348 H322 0.930 . S
C348 C347 1.385 . S
C348 C349 1.357 . S
C349 C348 1.357 . S
C349 C350 1.406 . S
C350 H324 0.929 . S
C350 C349 1.406 . S
C350 C351 1.391 . S
C351 H323 0.931 . S
C351 C346 1.370 . S
C351 C350 1.391 . S
C352 N321 1.435 . S
C352 C353 1.358 . S
C352 C357 1.371 . S
C353 H325 0.930 . S
C353 C352 1.358 . S
C353 C354 1.405 . S
C354 H326 0.932 . S
C354 C353 1.405 . S
C354 C355 1.383 . S
C355 C354 1.383 . S
C355 C356 1.393 . S
C356 H328 0.931 . S
C356 C355 1.393 . S
C356 C357 1.382 . S
C357 H327 0.929 . S
C357 C352 1.371 . S
C357 C356 1.382 . S
C358 N321 1.423 . S
C358 C359 1.362 1_455 S
C358 C363 1.388 . S
C359 H329 0.929 . S
C359 C358 1.362 1_655 S
C359 C360 1.376 1_655 S
C360 H331 0.931 1_455 S
C360 C359 1.376 1_455 S
C360 C361 1.396 . S
C361 C360 1.396 . S
C361 C362 1.348 . S
C361 C379 1.472 . S
C362 H332 0.929 . S
C362 C361 1.348 . S
C362 C363 1.443 . S
C363 H330 0.932 . S
C363 C358 1.388 . S
C363 C362 1.443 . S
C364 N344 1.433 1_655 S
C364 C365 1.363 . S
C364 C369 1.370 . S
C365 H333 0.929 . S
C365 C364 1.363 . S
C365 C366 1.385 . S
C366 H334 0.930 . S
C366 C365 1.385 . S
C366 C367 1.357 . S
C367 C366 1.357 . S
C367 C368 1.406 . S
C368 H335 0.929 . S
C368 C367 1.406 . S
C368 C369 1.391 . S
C369 H336 0.931 . S
C369 C364 1.370 . S
C369 C368 1.391 . S
C370 N344 1.435 . S
C370 C371 1.358 . S
C370 C375 1.371 . S
C371 H337 0.930 . S
C371 C370 1.358 . S
C371 C372 1.405 . S
C372 H338 0.932 . S
C372 C371 1.405 . S
C372 C373 1.383 . S
C373 C372 1.383 . S
C373 C374 1.393 . S
C374 H339 0.931 . S
C374 C373 1.393 . S
C374 C375 1.382 . S
C375 H340 0.929 . S
C375 C370 1.371 . S
C375 C374 1.382 . S
C376 N344 1.423 . S
C376 C377 1.362 1_455 S
C376 C381 1.388 . S
C377 H341 0.929 . S
C377 C376 1.362 1_655 S
C377 C378 1.376 1_655 S
C378 H342 0.931 1_455 S
C378 C377 1.376 1_455 S
C378 C379 1.396 . S
C379 C361 1.472 . S
C379 C378 1.396 . S
C379 C380 1.348 . S
C380 H343 0.929 . S
C380 C379 1.348 . S
C380 C381 1.443 . S
C381 H345 0.932 . S
C381 C376 1.388 . S
C381 C380 1.443 . S
H382 C409 0.929 . S
N383 C408 1.433 1_455 S
N383 C414 1.435 . S
N383 C420 1.423 . S
H384 C410 0.930 . S
H385 C413 0.931 . S
H386 C412 0.929 . S
H387 C415 0.930 . S
H388 C416 0.932 . S
H389 C419 0.929 . S
H390 C418 0.931 . S
H391 C421 0.927 . S
H392 C425 0.932 . S
H393 C422 0.931 1_655 S
H394 C424 0.929 . S
H395 C427 0.929 . S
H396 C428 0.930 . S
H397 C430 0.929 . S
H398 C431 0.931 . S
H399 C433 0.930 . S
H400 C434 0.932 . S
H401 C436 0.931 . S
H402 C437 0.929 . S
H403 C439 0.928 1_655 S
H404 C440 0.931 1_655 S
H405 C442 0.929 . S
N406 C426 1.433 1_455 S
N406 C432 1.435 . S
N406 C438 1.423 . S
H407 C443 0.932 . S
C408 N383 1.433 1_655 S
C408 C409 1.363 . S
C408 C413 1.370 . S
C409 H382 0.929 . S
C409 C408 1.363 . S
C409 C410 1.385 . S
C410 H384 0.930 . S
C410 C409 1.385 . S
C410 C411 1.357 . S
C411 C410 1.357 . S
C411 C412 1.406 . S
C412 H386 0.929 . S
C412 C411 1.406 . S
C412 C413 1.391 . S
C413 H385 0.931 . S
C413 C408 1.370 . S
C413 C412 1.391 . S
C414 N383 1.435 . S
C414 C415 1.358 . S
C414 C419 1.371 . S
C415 H387 0.930 . S
C415 C414 1.358 . S
C415 C416 1.405 . S
C416 H388 0.932 . S
C416 C415 1.405 . S
C416 C417 1.383 . S
C417 C416 1.383 . S
C417 C418 1.393 . S
C418 H390 0.931 . S
C418 C417 1.393 . S
C418 C419 1.382 . S
C419 H389 0.929 . S
C419 C414 1.371 . S
C419 C418 1.382 . S
C420 N383 1.423 . S
C420 C421 1.364 1_455 S
C420 C425 1.388 . S
C421 H391 0.927 . S
C421 C420 1.364 1_655 S
C421 C422 1.377 1_655 S
C422 H393 0.931 1_455 S
C422 C421 1.377 1_455 S
C422 C423 1.396 . S
C423 C422 1.396 . S
C423 C424 1.348 . S
C423 C441 1.472 . S
C424 H394 0.929 . S
C424 C423 1.348 . S
C424 C425 1.443 . S
C425 H392 0.932 . S
C425 C420 1.388 . S
C425 C424 1.443 . S
C426 N406 1.433 1_655 S
C426 C427 1.363 . S
C426 C431 1.370 . S
C427 H395 0.929 . S
C427 C426 1.363 . S
C427 C428 1.385 . S
C428 H396 0.930 . S
C428 C427 1.385 . S
C428 C429 1.357 . S
C429 C428 1.357 . S
C429 C430 1.406 . S
C430 H397 0.929 . S
C430 C429 1.406 . S
C430 C431 1.391 . S
C431 H398 0.931 . S
C431 C426 1.370 . S
C431 C430 1.391 . S
C432 N406 1.435 . S
C432 C433 1.358 . S
C432 C437 1.371 . S
C433 H399 0.930 . S
C433 C432 1.358 . S
C433 C434 1.405 . S
C434 H400 0.932 . S
C434 C433 1.405 . S
C434 C435 1.383 . S
C435 C434 1.383 . S
C435 C436 1.393 . S
C436 H401 0.931 . S
C436 C435 1.393 . S
C436 C437 1.382 . S
C437 H402 0.929 . S
C437 C432 1.371 . S
C437 C436 1.382 . S
C438 N406 1.423 . S
C438 C439 1.363 . S
C438 C443 1.388 . S
C439 H403 0.928 1_455 S
C439 C438 1.363 . S
C439 C440 1.376 . S
C440 H404 0.931 1_455 S
C440 C439 1.376 . S
C440 C441 1.396 . S
C441 C423 1.472 . S
C441 C440 1.396 . S
C441 C442 1.348 . S
C442 H405 0.929 . S
C442 C441 1.348 . S
C442 C443 1.443 . S
C443 H407 0.932 . S
C443 C438 1.388 . S
C443 C442 1.443 . S
H444 C471 0.929 . S
N445 C470 1.433 . S
N445 C476 1.435 . S
N445 C482 1.423 . S
H446 C472 0.930 . S
H447 C475 0.931 . S
H448 C474 0.929 . S
H449 C477 0.930 . S
H450 C478 0.932 . S
H451 C481 0.929 . S
H452 C480 0.931 . S
H453 C483 0.929 . S
H454 C487 0.932 . S
H455 C484 0.931 . S
H456 C486 0.929 . S
H457 C489 0.929 . S
H458 C490 0.930 . S
H459 C492 0.929 . S
H460 C493 0.931 . S
H461 C495 0.930 . S
H462 C496 0.932 . S
H463 C498 0.931 . S
H464 C499 0.929 . S
H465 C501 0.929 . S
H466 C502 0.931 . S
H467 C504 0.929 . S
N468 C488 1.433 . S
N468 C494 1.435 . S
N468 C500 1.423 . S
H469 C505 0.932 . S
C470 N445 1.433 . S
C470 C471 1.363 . S
C470 C475 1.370 . S
C471 H444 0.929 . S
C471 C470 1.363 . S
C471 C472 1.385 . S
C472 H446 0.930 . S
C472 C471 1.385 . S
C472 C473 1.357 . S
C473 C472 1.357 . S
C473 C474 1.406 . S
C474 H448 0.929 . S
C474 C473 1.406 . S
C474 C475 1.391 . S
C475 H447 0.931 . S
C475 C470 1.370 . S
C475 C474 1.391 . S
C476 N445 1.435 . S
C476 C477 1.358 . S
C476 C481 1.371 . S
C477 H449 0.930 . S
C477 C476 1.358 . S
C477 C478 1.405 . S
C478 H450 0.932 . S
C478 C477 1.405 . S
C478 C479 1.383 . S
C479 C478 1.383 . S
C479 C480 1.393 . S
C480 H452 0.931 . S
C480 C479 1.393 . S
C480 C481 1.382 . S
C481 H451 0.929 . S
C481 C476 1.371 . S
C481 C480 1.382 . S
C482 N445 1.423 . S
C482 C483 1.362 . S
C482 C487 1.388 . S
C483 H453 0.929 . S
C483 C482 1.362 . S
C483 C484 1.376 . S
C484 H455 0.931 . S
C484 C483 1.376 . S
C484 C485 1.396 . S
C485 C484 1.396 . S
C485 C486 1.348 . S
C485 C503 1.472 1_545 S
C486 H456 0.929 . S
C486 C485 1.348 . S
C486 C487 1.443 . S
C487 H454 0.932 . S
C487 C482 1.388 . S
C487 C486 1.443 . S
C488 N468 1.433 . S
C488 C489 1.363 . S
C488 C493 1.370 . S
C489 H457 0.929 . S
C489 C488 1.363 . S
C489 C490 1.385 . S
C490 H458 0.930 . S
C490 C489 1.385 . S
C490 C491 1.357 . S
C491 C490 1.357 . S
C491 C492 1.406 . S
C492 H459 0.929 . S
C492 C491 1.406 . S
C492 C493 1.391 . S
C493 H460 0.931 . S
C493 C488 1.370 . S
C493 C492 1.391 . S
C494 N468 1.435 . S
C494 C495 1.358 . S
C494 C499 1.371 . S
C495 H461 0.930 . S
C495 C494 1.358 . S
C495 C496 1.405 . S
C496 H462 0.932 . S
C496 C495 1.405 . S
C496 C497 1.383 . S
C497 C496 1.383 . S
C497 C498 1.393 . S
C498 H463 0.931 . S
C498 C497 1.393 . S
C498 C499 1.382 . S
C499 H464 0.929 . S
C499 C494 1.371 . S
C499 C498 1.382 . S
C500 N468 1.423 . S
C500 C501 1.362 . S
C500 C505 1.388 . S
C501 H465 0.929 . S
C501 C500 1.362 . S
C501 C502 1.376 . S
C502 H466 0.931 . S
C502 C501 1.376 . S
C502 C503 1.396 . S
C503 C485 1.472 1_565 S
C503 C502 1.396 . S
C503 C504 1.348 . S
C504 H467 0.929 . S
C504 C503 1.348 . S
C504 C505 1.443 . S
C505 H469 0.932 . S
C505 C500 1.388 . S
C505 C504 1.443 . S
H506 C533 0.929 . S
N507 C532 1.433 . S
N507 C538 1.435 . S
N507 C544 1.423 . S
H508 C534 0.930 . S
H509 C537 0.931 . S
H510 C536 0.929 . S
H511 C539 0.930 . S
H512 C540 0.932 . S
H513 C543 0.929 . S
H514 C542 0.931 . S
H515 C545 0.929 . S
H516 C549 0.932 . S
H517 C546 0.931 . S
H518 C548 0.929 . S
H519 C551 0.929 . S
H520 C552 0.930 . S
H521 C554 0.929 . S
H522 C555 0.931 . S
H523 C557 0.930 . S
H524 C558 0.932 . S
H525 C560 0.931 . S
H526 C561 0.929 . S
H527 C563 0.929 . S
H528 C564 0.931 . S
H529 C566 0.929 . S
N530 C550 1.433 . S
N530 C556 1.435 . S
N530 C562 1.423 . S
H531 C567 0.932 . S
C532 N507 1.433 . S
C532 C533 1.363 . S
C532 C537 1.370 . S
C533 H506 0.929 . S
C533 C532 1.363 . S
C533 C534 1.385 . S
C534 H508 0.930 . S
C534 C533 1.385 . S
C534 C535 1.357 . S
C535 C534 1.357 . S
C535 C536 1.406 . S
C536 H510 0.929 . S
C536 C535 1.406 . S
C536 C537 1.391 . S
C537 H509 0.931 . S
C537 C532 1.370 . S
C537 C536 1.391 . S
C538 N507 1.435 . S
C538 C539 1.358 . S
C538 C543 1.371 . S
C539 H511 0.930 . S
C539 C538 1.358 . S
C539 C540 1.405 . S
C540 H512 0.932 . S
C540 C539 1.405 . S
C540 C541 1.383 . S
C541 C540 1.383 . S
C541 C542 1.393 . S
C542 H514 0.931 . S
C542 C541 1.393 . S
C542 C543 1.382 . S
C543 H513 0.929 . S
C543 C538 1.371 . S
C543 C542 1.382 . S
C544 N507 1.423 . S
C544 C545 1.362 . S
C544 C549 1.388 . S
C545 H515 0.929 . S
C545 C544 1.362 . S
C545 C546 1.376 . S
C546 H517 0.931 . S
C546 C545 1.376 . S
C546 C547 1.396 . S
C547 C546 1.396 . S
C547 C548 1.348 . S
C547 C565 1.472 1_554 S
C548 H518 0.929 . S
C548 C547 1.348 . S
C548 C549 1.443 . S
C549 H516 0.932 . S
C549 C544 1.388 . S
C549 C548 1.443 . S
C550 N530 1.433 . S
C550 C551 1.363 . S
C550 C555 1.370 . S
C551 H519 0.929 . S
C551 C550 1.363 . S
C551 C552 1.385 . S
C552 H520 0.930 . S
C552 C551 1.385 . S
C552 C553 1.357 . S
C553 C552 1.357 . S
C553 C554 1.406 . S
C554 H521 0.929 . S
C554 C553 1.406 . S
C554 C555 1.391 . S
C555 H522 0.931 . S
C555 C550 1.370 . S
C555 C554 1.391 . S
C556 N530 1.435 . S
C556 C557 1.358 . S
C556 C561 1.371 . S
C557 H523 0.930 . S
C557 C556 1.358 . S
C557 C558 1.405 . S
C558 H524 0.932 . S
C558 C557 1.405 . S
C558 C559 1.383 . S
C559 C558 1.383 . S
C559 C560 1.393 . S
C560 H525 0.931 . S
C560 C559 1.393 . S
C560 C561 1.382 . S
C561 H526 0.929 . S
C561 C556 1.371 . S
C561 C560 1.382 . S
C562 N530 1.423 . S
C562 C563 1.362 . S
C562 C567 1.388 . S
C563 H527 0.929 . S
C563 C562 1.362 . S
C563 C564 1.376 . S
C564 H528 0.931 . S
C564 C563 1.376 . S
C564 C565 1.396 . S
C565 C547 1.472 1_556 S
C565 C564 1.396 . S
C565 C566 1.348 . S
C566 H529 0.929 . S
C566 C565 1.348 . S
C566 C567 1.443 . S
C567 H531 0.932 . S
C567 C562 1.388 . S
C567 C566 1.443 . S
H568 C595 0.929 . S
N569 C594 1.433 . S
N569 C600 1.435 . S
N569 C606 1.423 . S
H570 C596 0.930 . S
H571 C599 0.931 . S
H572 C598 0.929 . S
H573 C601 0.930 . S
H574 C602 0.932 . S
H575 C605 0.929 . S
H576 C604 0.931 . S
H577 C607 0.929 . S
H578 C611 0.932 . S
H579 C608 0.931 . S
H580 C610 0.929 . S
H581 C613 0.929 . S
H582 C614 0.930 . S
H583 C616 0.929 . S
H584 C617 0.931 . S
H585 C619 0.930 . S
H586 C620 0.932 . S
H587 C622 0.931 . S
H588 C623 0.929 . S
H589 C625 0.929 . S
H590 C626 0.931 . S
H591 C628 0.929 . S
N592 C612 1.433 . S
N592 C618 1.435 . S
N592 C624 1.423 . S
H593 C629 0.932 . S
C594 N569 1.433 . S
C594 C595 1.363 . S
C594 C599 1.370 . S
C595 H568 0.929 . S
C595 C594 1.363 . S
C595 C596 1.385 . S
C596 H570 0.930 . S
C596 C595 1.385 . S
C596 C597 1.357 . S
C597 C596 1.357 . S
C597 C598 1.406 . S
C598 H572 0.929 . S
C598 C597 1.406 . S
C598 C599 1.391 . S
C599 H571 0.931 . S
C599 C594 1.370 . S
C599 C598 1.391 . S
C600 N569 1.435 . S
C600 C601 1.358 . S
C600 C605 1.371 . S
C601 H573 0.930 . S
C601 C600 1.358 . S
C601 C602 1.405 . S
C602 H574 0.932 . S
C602 C601 1.405 . S
C602 C603 1.383 . S
C603 C602 1.383 . S
C603 C604 1.393 . S
C604 H576 0.931 . S
C604 C603 1.393 . S
C604 C605 1.382 . S
C605 H575 0.929 . S
C605 C600 1.371 . S
C605 C604 1.382 . S
C606 N569 1.423 . S
C606 C607 1.362 . S
C606 C611 1.388 . S
C607 H577 0.929 . S
C607 C606 1.362 . S
C607 C608 1.376 . S
C608 H579 0.931 . S
C608 C607 1.376 . S
C608 C609 1.396 . S
C609 C608 1.396 . S
C609 C610 1.348 . S
C609 C627 1.472 1_545 S
C610 H580 0.929 . S
C610 C609 1.348 . S
C610 C611 1.443 . S
C611 H578 0.932 . S
C611 C606 1.388 . S
C611 C610 1.443 . S
C612 N592 1.433 . S
C612 C613 1.363 . S
C612 C617 1.370 . S
C613 H581 0.929 . S
C613 C612 1.363 . S
C613 C614 1.385 . S
C614 H582 0.930 . S
C614 C613 1.385 . S
C614 C615 1.357 . S
C615 C614 1.357 . S
C615 C616 1.406 . S
C616 H583 0.929 . S
C616 C615 1.406 . S
C616 C617 1.391 . S
C617 H584 0.931 . S
C617 C612 1.370 . S
C617 C616 1.391 . S
C618 N592 1.435 . S
C618 C619 1.358 . S
C618 C623 1.371 . S
C619 H585 0.930 . S
C619 C618 1.358 . S
C619 C620 1.405 . S
C620 H586 0.932 . S
C620 C619 1.405 . S
C620 C621 1.383 . S
C621 C620 1.383 . S
C621 C622 1.393 . S
C622 H587 0.931 . S
C622 C621 1.393 . S
C622 C623 1.382 . S
C623 H588 0.929 . S
C623 C618 1.371 . S
C623 C622 1.382 . S
C624 N592 1.423 . S
C624 C625 1.362 . S
C624 C629 1.388 . S
C625 H589 0.929 . S
C625 C624 1.362 . S
C625 C626 1.376 . S
C626 H590 0.931 . S
C626 C625 1.376 . S
C626 C627 1.396 . S
C627 C609 1.472 1_565 S
C627 C626 1.396 . S
C627 C628 1.348 . S
C628 H591 0.929 . S
C628 C627 1.348 . S
C628 C629 1.443 . S
C629 H593 0.932 . S
C629 C624 1.388 . S
C629 C628 1.443 . S
H630 C657 0.929 . S
N631 C656 1.433 . S
N631 C662 1.435 . S
N631 C668 1.423 . S
H632 C658 0.930 . S
H633 C661 0.931 . S
H634 C660 0.929 . S
H635 C663 0.930 . S
H636 C664 0.932 . S
H637 C667 0.929 . S
H638 C666 0.931 . S
H639 C669 0.929 . S
H640 C673 0.932 . S
H641 C670 0.931 . S
H642 C672 0.929 . S
H643 C675 0.929 . S
H644 C676 0.930 . S
H645 C678 0.929 . S
H646 C679 0.931 . S
H647 C681 0.930 . S
H648 C682 0.932 . S
H649 C684 0.931 . S
H650 C685 0.929 . S
H651 C687 0.929 . S
H652 C688 0.931 . S
H653 C690 0.929 . S
N654 C674 1.433 . S
N654 C680 1.435 . S
N654 C686 1.423 . S
H655 C691 0.932 . S
C656 N631 1.433 . S
C656 C657 1.363 . S
C656 C661 1.370 . S
C657 H630 0.929 . S
C657 C656 1.363 . S
C657 C658 1.385 . S
C658 H632 0.930 . S
C658 C657 1.385 . S
C658 C659 1.357 . S
C659 C658 1.357 . S
C659 C660 1.406 . S
C660 H634 0.929 . S
C660 C659 1.406 . S
C660 C661 1.391 . S
C661 H633 0.931 . S
C661 C656 1.370 . S
C661 C660 1.391 . S
C662 N631 1.435 . S
C662 C663 1.358 . S
C662 C667 1.371 . S
C663 H635 0.930 . S
C663 C662 1.358 . S
C663 C664 1.405 . S
C664 H636 0.932 . S
C664 C663 1.405 . S
C664 C665 1.383 . S
C665 C664 1.383 . S
C665 C666 1.393 . S
C666 H638 0.931 . S
C666 C665 1.393 . S
C666 C667 1.382 . S
C667 H637 0.929 . S
C667 C662 1.371 . S
C667 C666 1.382 . S
C668 N631 1.423 . S
C668 C669 1.362 . S
C668 C673 1.388 . S
C669 H639 0.929 . S
C669 C668 1.362 . S
C669 C670 1.376 . S
C670 H641 0.931 . S
C670 C669 1.376 . S
C670 C671 1.396 . S
C671 C670 1.396 . S
C671 C672 1.348 . S
C671 C689 1.472 1_554 S
C672 H642 0.929 . S
C672 C671 1.348 . S
C672 C673 1.443 . S
C673 H640 0.932 . S
C673 C668 1.388 . S
C673 C672 1.443 . S
C674 N654 1.433 . S
C674 C675 1.363 . S
C674 C679 1.370 . S
C675 H643 0.929 . S
C675 C674 1.363 . S
C675 C676 1.385 . S
C676 H644 0.930 . S
C676 C675 1.385 . S
C676 C677 1.357 . S
C677 C676 1.357 . S
C677 C678 1.406 . S
C678 H645 0.929 . S
C678 C677 1.406 . S
C678 C679 1.391 . S
C679 H646 0.931 . S
C679 C674 1.370 . S
C679 C678 1.391 . S
C680 N654 1.435 . S
C680 C681 1.358 . S
C680 C685 1.371 . S
C681 H647 0.930 . S
C681 C680 1.358 . S
C681 C682 1.405 . S
C682 H648 0.932 . S
C682 C681 1.405 . S
C682 C683 1.383 . S
C683 C682 1.383 . S
C683 C684 1.393 . S
C684 H649 0.931 . S
C684 C683 1.393 . S
C684 C685 1.382 . S
C685 H650 0.929 . S
C685 C680 1.371 . S
C685 C684 1.382 . S
C686 N654 1.423 . S
C686 C687 1.362 . S
C686 C691 1.388 . S
C687 H651 0.929 . S
C687 C686 1.362 . S
C687 C688 1.376 . S
C688 H652 0.931 . S
C688 C687 1.376 . S
C688 C689 1.396 . S
C689 C671 1.472 1_556 S
C689 C688 1.396 . S
C689 C690 1.348 . S
C690 H653 0.929 . S
C690 C689 1.348 . S
C690 C691 1.443 . S
C691 H655 0.932 . S
C691 C686 1.388 . S
C691 C690 1.443 . S
C692 C693 1.387 . S
C692 H696 0.950 . S
C692 C701 1.390 . S
C693 C692 1.387 . S
C693 C695 1.387 . S
H694 C701 0.950 . S
C695 C693 1.387 . S
C695 C697 1.390 . S
C695 H699 0.950 . S
H696 C692 0.950 . S
C697 C695 1.390 . S
C697 C698 1.387 . S
C697 H700 0.950 . S
C698 C697 1.387 . S
C698 C701 1.387 . S
H699 C695 0.950 . S
H700 C697 0.950 . S
C701 C692 1.390 . S
C701 H694 0.950 . S
C701 C698 1.387 . S
C702 C703 1.387 . S
C702 H706 0.950 . S
C702 C711 1.390 . S
C703 C702 1.387 . S
C703 C705 1.387 . S
H704 C711 0.950 . S
C705 C703 1.387 . S
C705 C707 1.390 . S
C705 H709 0.950 . S
H706 C702 0.950 . S
C707 C705 1.390 . S
C707 C708 1.387 . S
C707 H710 0.950 . S
C708 C707 1.387 . S
C708 C711 1.387 . S
H709 C705 0.950 . S
H710 C707 0.950 . S
C711 C702 1.390 . S
C711 H704 0.950 . S
C711 C708 1.387 . S
C712 C713 1.387 . S
C712 H716 0.950 . S
C712 C721 1.390 . S
C713 C712 1.387 . S
C713 C715 1.387 . S
H714 C721 0.950 . S
C715 C713 1.387 . S
C715 C717 1.390 . S
C715 H719 0.950 . S
H716 C712 0.950 . S
C717 C715 1.390 . S
C717 C718 1.387 . S
C717 H720 0.950 . S
C718 C717 1.387 . S
C718 C721 1.387 . S
H719 C715 0.950 . S
H720 C717 0.950 . S
C721 C712 1.390 . S
C721 H714 0.950 . S
C721 C718 1.387 . S
C722 C723 1.387 . S
C722 H726 0.950 . S
C722 C731 1.390 . S
C723 C722 1.387 . S
C723 C725 1.387 . S
H724 C731 0.950 . S
C725 C723 1.387 . S
C725 C727 1.390 . S
C725 H729 0.950 . S
H726 C722 0.950 . S
C727 C725 1.390 . S
C727 C728 1.387 . S
C727 H730 0.950 . S
C728 C727 1.387 . S
C728 C731 1.387 . S
H729 C725 0.950 . S
H730 C727 0.950 . S
C731 C722 1.390 . S
C731 H724 0.950 . S
C731 C728 1.387 . S
C732 C733 1.387 . S
C732 H736 0.950 . S
C732 C741 1.390 . S
C733 C732 1.387 . S
C733 C735 1.387 . S
H734 C741 0.950 . S
C735 C733 1.387 . S
C735 C737 1.390 . S
C735 H739 0.950 . S
H736 C732 0.950 . S
C737 C735 1.390 . S
C737 C738 1.387 . S
C737 H740 0.950 . S
C738 C737 1.387 . S
C738 C741 1.387 . S
H739 C735 0.950 . S
H740 C737 0.950 . S
C741 C732 1.390 . S
C741 H734 0.950 . S
C741 C738 1.387 . S
C742 C743 1.387 . S
C742 H746 0.950 . S
C742 C751 1.390 . S
C743 C742 1.387 . S
C743 C745 1.387 . S
H744 C751 0.950 . S
C745 C743 1.387 . S
C745 C747 1.390 . S
C745 H749 0.950 . S
H746 C742 0.950 . S
C747 C745 1.390 . S
C747 C748 1.387 . S
C747 H750 0.950 . S
C748 C747 1.387 . S
C748 C751 1.387 . S
H749 C745 0.950 . S
H750 C747 0.950 . S
C751 C742 1.390 . S
C751 H744 0.950 . S
C751 C748 1.387 . S
C752 C753 1.387 . S
C752 H756 0.950 . S
C752 C761 1.390 . S
C753 C752 1.387 . S
C753 C755 1.387 . S
H754 C761 0.950 . S
C755 C753 1.387 . S
C755 C757 1.390 . S
C755 H759 0.950 . S
H756 C752 0.950 . S
C757 C755 1.390 . S
C757 C758 1.387 . S
C757 H760 0.950 . S
C758 C757 1.387 . S
C758 C761 1.387 . S
H759 C755 0.950 . S
H760 C757 0.950 . S
C761 C752 1.390 . S
C761 H754 0.950 . S
C761 C758 1.387 . S
C762 C763 1.387 . S
C762 H766 0.950 . S
C762 C771 1.390 . S
C763 C762 1.387 . S
C763 C765 1.387 . S
H764 C771 0.950 . S
C765 C763 1.387 . S
C765 C767 1.390 . S
C765 H769 0.950 . S
H766 C762 0.950 . S
C767 C765 1.390 . S
C767 C768 1.387 . S
C767 H770 0.950 . S
C768 C767 1.387 . S
C768 C771 1.387 . S
H769 C765 0.950 . S
H770 C767 0.950 . S
C771 C762 1.390 . S
C771 H764 0.950 . S
C771 C768 1.387 . S
C772 C773 1.387 . S
C772 H776 0.950 . S
C772 C781 1.390 . S
C773 C772 1.387 . S
C773 C775 1.387 . S
H774 C781 0.950 . S
C775 C773 1.387 . S
C775 C777 1.390 . S
C775 H779 0.950 . S
H776 C772 0.950 . S
C777 C775 1.390 . S
C777 C778 1.387 . S
C777 H780 0.950 . S
C778 C777 1.387 . S
C778 C781 1.387 . S
H779 C775 0.950 . S
H780 C777 0.950 . S
C781 C772 1.390 . S
C781 H774 0.950 . S
C781 C778 1.387 . S
C782 C783 1.387 . S
C782 H786 0.950 . S
C782 C791 1.390 . S
C783 C782 1.387 . S
C783 C785 1.387 . S
H784 C791 0.950 . S
C785 C783 1.387 . S
C785 C787 1.390 . S
C785 H789 0.950 . S
H786 C782 0.950 . S
C787 C785 1.390 . S
C787 C788 1.387 . S
C787 H790 0.950 . S
C788 C787 1.387 . S
C788 C791 1.387 . S
H789 C785 0.950 . S
H790 C787 0.950 . S
C791 C782 1.390 . S
C791 H784 0.950 . S
C791 C788 1.387 . S
C792 C793 1.387 . S
C792 H796 0.950 . S
C792 C801 1.390 . S
C793 C792 1.387 . S
C793 C795 1.387 . S
H794 C801 0.950 . S
C795 C793 1.387 . S
C795 C797 1.390 . S
C795 H799 0.950 . S
H796 C792 0.950 . S
C797 C795 1.390 . S
C797 C798 1.387 . S
C797 H800 0.950 . S
C798 C797 1.387 . S
C798 C801 1.387 . S
H799 C795 0.950 . S
H800 C797 0.950 . S
C801 C792 1.390 . S
C801 H794 0.950 . S
C801 C798 1.387 . S
C802 C803 1.387 . S
C802 H806 0.950 . S
C802 C811 1.390 . S
C803 C802 1.387 . S
C803 C805 1.387 . S
H804 C811 0.950 . S
C805 C803 1.387 . S
C805 C807 1.390 . S
C805 H809 0.950 . S
H806 C802 0.950 . S
C807 C805 1.390 . S
C807 C808 1.387 . S
C807 H810 0.950 . S
C808 C807 1.387 . S
C808 C811 1.387 . S
H809 C805 0.950 . S
H810 C807 0.950 . S
C811 C802 1.390 . S
C811 H804 0.950 . S
C811 C808 1.387 . S
C812 C813 1.387 . S
C812 H816 0.950 . S
C812 C821 1.390 . S
C813 C812 1.387 . S
C813 C815 1.387 . S
H814 C821 0.950 . S
C815 C813 1.387 . S
C815 C817 1.390 . S
C815 H819 0.950 . S
H816 C812 0.950 . S
C817 C815 1.390 . S
C817 C818 1.387 . S
C817 H820 0.950 . S
C818 C817 1.387 . S
C818 C821 1.387 . S
H819 C815 0.950 . S
H820 C817 0.950 . S
C821 C812 1.390 . S
C821 H814 0.950 . S
C821 C818 1.387 . S
C822 C823 1.387 . S
C822 H826 0.950 . S
C822 C831 1.390 . S
C823 C822 1.387 . S
C823 C825 1.387 . S
H824 C831 0.950 . S
C825 C823 1.387 . S
C825 C827 1.390 . S
C825 H829 0.950 . S
H826 C822 0.950 . S
C827 C825 1.390 . S
C827 C828 1.387 . S
C827 H830 0.950 . S
C828 C827 1.387 . S
C828 C831 1.387 . S
H829 C825 0.950 . S
H830 C827 0.950 . S
C831 C822 1.390 . S
C831 H824 0.950 . S
C831 C828 1.387 . S
C832 C833 1.387 . S
C832 H836 0.950 . S
C832 C841 1.390 . S
C833 C832 1.387 . S
C833 C835 1.387 . S
H834 C841 0.950 . S
C835 C833 1.387 . S
C835 C837 1.390 . S
C835 H839 0.950 . S
H836 C832 0.950 . S
C837 C835 1.390 . S
C837 C838 1.387 . S
C837 H840 0.950 . S
C838 C837 1.387 . S
C838 C841 1.387 . S
H839 C835 0.950 . S
H840 C837 0.950 . S
C841 C832 1.390 . S
C841 H834 0.950 . S
C841 C838 1.387 . S
C842 C843 1.387 . S
C842 H846 0.950 . S
C842 C851 1.390 . S
C843 C842 1.387 . S
C843 C845 1.387 . S
H844 C851 0.950 . S
C845 C843 1.387 . S
C845 C847 1.390 . S
C845 H849 0.950 . S
H846 C842 0.950 . S
C847 C845 1.390 . S
C847 C848 1.387 . S
C847 H850 0.950 . S
C848 C847 1.387 . S
C848 C851 1.387 . S
H849 C845 0.950 . S
H850 C847 0.950 . S
C851 C842 1.390 . S
C851 H844 0.950 . S
C851 C848 1.387 . S
C852 C853 1.387 . S
C852 H856 0.950 . S
C852 C861 1.390 . S
C853 C852 1.387 . S
C853 C855 1.387 . S
H854 C861 0.950 . S
C855 C853 1.387 . S
C855 C857 1.390 . S
C855 H859 0.950 . S
H856 C852 0.950 . S
C857 C855 1.390 . S
C857 C858 1.387 . S
C857 H860 0.950 . S
C858 C857 1.387 . S
C858 C861 1.387 . S
H859 C855 0.950 . S
H860 C857 0.950 . S
C861 C852 1.390 . S
C861 H854 0.950 . S
C861 C858 1.387 . S
C862 C863 1.387 . S
C862 H866 0.950 . S
C862 C871 1.390 . S
C863 C862 1.387 . S
C863 C865 1.387 . S
H864 C871 0.950 . S
C865 C863 1.387 . S
C865 C867 1.390 . S
C865 H869 0.950 . S
H866 C862 0.950 . S
C867 C865 1.390 . S
C867 C868 1.387 . S
C867 H870 0.950 . S
C868 C867 1.387 . S
C868 C871 1.387 . S
H869 C865 0.950 . S
H870 C867 0.950 . S
C871 C862 1.390 . S
C871 H864 0.950 . S
C871 C868 1.387 . S
C872 C873 1.387 . S
C872 H876 0.950 . S
C872 C881 1.390 . S
C873 C872 1.387 . S
C873 C875 1.387 . S
H874 C881 0.950 . S
C875 C873 1.387 . S
C875 C877 1.390 . S
C875 H879 0.950 . S
H876 C872 0.950 . S
C877 C875 1.390 . S
C877 C878 1.387 . S
C877 H880 0.950 . S
C878 C877 1.387 . S
C878 C881 1.387 . S
H879 C875 0.950 . S
H880 C877 0.950 . S
C881 C872 1.390 . S
C881 H874 0.950 . S
C881 C878 1.387 . S
C882 C883 1.387 . S
C882 H886 0.950 . S
C882 C891 1.390 . S
C883 C882 1.387 . S
C883 C885 1.387 . S
H884 C891 0.950 . S
C885 C883 1.387 . S
C885 C887 1.390 . S
C885 H889 0.950 . S
H886 C882 0.950 . S
C887 C885 1.390 . S
C887 C888 1.387 . S
C887 H890 0.950 . S
C888 C887 1.387 . S
C888 C891 1.387 . S
H889 C885 0.950 . S
H890 C887 0.950 . S
C891 C882 1.390 . S
C891 H884 0.950 . S
C891 C888 1.387 . S
C892 C893 1.387 . S
C892 H896 0.950 . S
C892 C901 1.390 . S
C893 C892 1.387 . S
C893 C895 1.387 . S
H894 C901 0.950 . S
C895 C893 1.387 . S
C895 C897 1.390 . S
C895 H899 0.950 . S
H896 C892 0.950 . S
C897 C895 1.390 . S
C897 C898 1.387 . S
C897 H900 0.950 . S
C898 C897 1.387 . S
C898 C901 1.387 . S
H899 C895 0.950 . S
H900 C897 0.950 . S
C901 C892 1.390 . S
C901 H894 0.950 . S
C901 C898 1.387 . S
C902 C903 1.387 . S
C902 H906 0.950 . S
C902 C911 1.390 . S
C903 C902 1.387 . S
C903 C905 1.387 . S
H904 C911 0.950 . S
C905 C903 1.387 . S
C905 C907 1.390 . S
C905 H909 0.950 . S
H906 C902 0.950 . S
C907 C905 1.390 . S
C907 C908 1.387 . S
C907 H910 0.950 . S
C908 C907 1.387 . S
C908 C911 1.387 . S
H909 C905 0.950 . S
H910 C907 0.950 . S
C911 C902 1.390 . S
C911 H904 0.950 . S
C911 C908 1.387 . S
C912 C913 1.387 . S
C912 H916 0.950 . S
C912 C921 1.390 . S
C913 C912 1.387 . S
C913 C915 1.387 . S
H914 C921 0.950 . S
C915 C913 1.387 . S
C915 C917 1.390 . S
C915 H919 0.950 . S
H916 C912 0.950 . S
C917 C915 1.390 . S
C917 C918 1.387 . S
C917 H920 0.950 . S
C918 C917 1.387 . S
C918 C921 1.387 . S
H919 C915 0.950 . S
H920 C917 0.950 . S
C921 C912 1.390 . S
C921 H914 0.950 . S
C921 C918 1.387 . S
C922 C923 1.387 . S
C922 H926 0.950 . S
C922 C931 1.390 . S
C923 C922 1.387 . S
C923 C925 1.387 . S
H924 C931 0.950 . S
C925 C923 1.387 . S
C925 C927 1.390 . S
C925 H929 0.950 . S
H926 C922 0.950 . S
C927 C925 1.390 . S
C927 C928 1.387 . S
C927 H930 0.950 . S
C928 C927 1.387 . S
C928 C931 1.387 . S
H929 C925 0.950 . S
H930 C927 0.950 . S
C931 C922 1.390 . S
C931 H924 0.950 . S
C931 C928 1.387 . S
C698 C355 1.579 . S
C693 C15 1.568 . S
C708 C435 1.699 . S
C703 C55 1.753 . S
C718 C367 1.632 . S
C713 C101 1.728 . S
C728 C411 1.774 . S
C723 C141 1.971 . S
C738 C479 1.547 . S
C733 C2 1.508 . S
C748 C559 1.475 . S
C743 C61 1.495 . S
C753 C95 1.850 . S
C758 C621 1.774 . S
C768 C677 1.488 . S
C763 C135 1.623 . S
C778 C491 1.587 . S
C773 C42 1.658 . S
C783 C82 1.605 . S
C788 C535 1.475 . S
C798 C597 1.805 . S
C793 C122 2.064 . S
C808 C665 1.486 . S
C803 C21 1.493 . S
C813 C162 1.970 . S
C818 C429 1.767 . S
C828 C349 1.631 . S
C823 C221 1.719 . S
C833 C255 1.757 . S
C838 C417 1.699 . S
C843 C282 1.524 . S
C848 C373 1.577 . S
C858 C615 1.817 . S
C853 C181 2.079 . S
C868 C659 1.507 . S
C863 C202 1.652 . S
C878 C473 1.587 . S
C873 C242 1.759 . S
C883 C301 1.493 . S
C888 C541 1.469 . S
C898 C603 1.769 . S
C893 C215 1.851 . S
C908 C683 1.485 . S
C903 C261 1.529 . S
C918 C497 1.533 . S
C913 C295 1.562 . S
C923 C175 1.628 . S
C928 C553 1.465 . S
