# Generated by pormake.
# Topology dag, (6,3)-cn, num edge types: 1
# Building blocks:
#     Node 0, Type 0, BuildingBlock: MIDCAF_clean_sbu_0, # of connection points: 6
#     Node 1, Type 0, BuildingBlock: MIDCAF_clean_sbu_0, # of connection points: 6
#     Node 2, Type 0, BuildingBlock: MIDCAF_clean_sbu_0, # of connection points: 6
#     Node 3, Type 0, BuildingBlock: MIDCAF_clean_sbu_0, # of connection points: 6
#     Node 4, Type 1, BuildingBlock: PAMTOO_clean_linker_0, # of connection points: 3
#     Node 5, Type 1, BuildingBlock: PAMTOO_clean_linker_0, # of connection points: 3
#     Node 6, Type 1, BuildingBlock: PAMTOO_clean_linker_0, # of connection points: 3
#     Node 7, Type 1, BuildingBlock: PAMTOO_clean_linker_0, # of connection points: 3
#     Node 8, Type 1, BuildingBlock: PAMTOO_clean_linker_0, # of connection points: 3
#     Node 9, Type 1, BuildingBlock: PAMTOO_clean_linker_0, # of connection points: 3
#     Node 10, Type 1, BuildingBlock: PAMTOO_clean_linker_0, # of connection points: 3
#     Node 11, Type 1, BuildingBlock: PAMTOO_clean_linker_0, # of connection points: 3
#     Edge 12, Type (0, 1), BuildingBlock: EZIPEK_clean_linker_0, # of connection points: 2
#     Edge 13, Type (0, 1), BuildingBlock: EZIPEK_clean_linker_0, # of connection points: 2
#     Edge 14, Type (0, 1), BuildingBlock: EZIPEK_clean_linker_0, # of connection points: 2
#     Edge 15, Type (0, 1), BuildingBlock: EZIPEK_clean_linker_0, # of connection points: 2
#     Edge 16, Type (0, 1), BuildingBlock: EZIPEK_clean_linker_0, # of connection points: 2
#     Edge 17, Type (0, 1), BuildingBlock: EZIPEK_clean_linker_0, # of connection points: 2
#     Edge 18, Type (0, 1), BuildingBlock: EZIPEK_clean_linker_0, # of connection points: 2
#     Edge 19, Type (0, 1), BuildingBlock: EZIPEK_clean_linker_0, # of connection points: 2
#     Edge 20, Type (0, 1), BuildingBlock: EZIPEK_clean_linker_0, # of connection points: 2
#     Edge 21, Type (0, 1), BuildingBlock: EZIPEK_clean_linker_0, # of connection points: 2
#     Edge 22, Type (0, 1), BuildingBlock: EZIPEK_clean_linker_0, # of connection points: 2
#     Edge 23, Type (0, 1), BuildingBlock: EZIPEK_clean_linker_0, # of connection points: 2
#     Edge 24, Type (0, 1), BuildingBlock: EZIPEK_clean_linker_0, # of connection points: 2
#     Edge 25, Type (0, 1), BuildingBlock: EZIPEK_clean_linker_0, # of connection points: 2
#     Edge 26, Type (0, 1), BuildingBlock: EZIPEK_clean_linker_0, # of connection points: 2
#     Edge 27, Type (0, 1), BuildingBlock: EZIPEK_clean_linker_0, # of connection points: 2
#     Edge 28, Type (0, 1), BuildingBlock: EZIPEK_clean_linker_0, # of connection points: 2
#     Edge 29, Type (0, 1), BuildingBlock: EZIPEK_clean_linker_0, # of connection points: 2
#     Edge 30, Type (0, 1), BuildingBlock: EZIPEK_clean_linker_0, # of connection points: 2
#     Edge 31, Type (0, 1), BuildingBlock: EZIPEK_clean_linker_0, # of connection points: 2
#     Edge 32, Type (0, 1), BuildingBlock: EZIPEK_clean_linker_0, # of connection points: 2
#     Edge 33, Type (0, 1), BuildingBlock: EZIPEK_clean_linker_0, # of connection points: 2
#     Edge 34, Type (0, 1), BuildingBlock: EZIPEK_clean_linker_0, # of connection points: 2
#     Edge 35, Type (0, 1), BuildingBlock: EZIPEK_clean_linker_0, # of connection points: 2
# Relax obj value: 0.132
# Max RMSD: 0.143
# Mean RMSD: 0.116
data_MOF--net-dag--node1-MIDCAF_clean_sbu_0--node2-PAMTOO_clean_linker_0--edge1-EZIPEK_clean_linker_0
_symmetry_space_group_name_H-M    P1
_symmetry_Int_Tables_number       1
_symmetry_cell_setting            triclinic
loop_
_symmetry_equiv_pos_as_xyz
'x, y, z'
_cell_length_a     29.338419
_cell_length_b     30.251553
_cell_length_c     22.797008
_cell_angle_alpha  90.569239
_cell_angle_beta   92.844472
_cell_angle_gamma 90.345594
loop_
_atom_site_label
_atom_site_type_symbol
_atom_site_fract_x
_atom_site_fract_y
_atom_site_fract_z
_atom_type_partial_charge
Zn0 Zn 0.22593 0.89174 0.11063 0.0
Zn1 Zn 0.19257 0.91036 0.90338 0.0
Zn2 Zn 0.20681 0.90089 1.0078 0.0
C3 C 0.19473 -0.00524 0.95124 0.0
C4 C 0.11865 0.86618 0.92849 0.0
O5 O 0.26126 0.84975 0.01805 0.0
O6 O 0.255 0.83453 0.11196 0.0
C7 C 0.23849 0.9738 0.1083 0.0
O8 O 0.20948 0.97326 0.99669 0.0
O9 O 0.18173 0.97415 0.90503 0.0
O10 O 0.13889 0.87403 0.88229 0.0
O11 O 0.13791 0.87549 0.97918 0.0
O12 O 0.26403 0.94527 0.13251 0.0
O13 O 0.2151 0.96324 0.06079 0.0
O14 O 0.14263 0.87461 0.04071 0.0
O15 O 0.16092 0.89017 0.13365 0.0
C16 C 0.13139 0.8781 0.0945 0.0
O17 O 0.2666 0.8701 0.962 0.0
O18 O 0.25017 0.89325 0.87241 0.0
C19 C 0.27038 0.82498 0.06296 0.0
C20 C 0.27812 0.87537 0.90832 0.0
Zn21 Zn 0.69295 0.60615 0.39358 0.0
Zn22 Zn 0.68441 0.59891 0.60054 0.0
Zn23 Zn 0.68841 0.60229 0.4991 0.0
C24 C 0.67495 0.51436 0.57559 0.0
C25 C 0.61696 0.65669 0.57457 0.0
O26 O 0.74969 0.64456 0.47872 0.0
O27 O 0.73893 0.65066 0.38272 0.0
C28 C 0.70565 0.51802 0.41382 0.0
O29 O 0.68833 0.53077 0.52712 0.0
O30 O 0.66446 0.5397 0.61673 0.0
O31 O 0.64154 0.64451 0.61796 0.0
O32 O 0.62502 0.64019 0.52349 0.0
O33 O 0.71102 0.54611 0.3745 0.0
O34 O 0.69489 0.53187 0.46522 0.0
O35 O 0.62108 0.62705 0.46329 0.0
O36 O 0.62996 0.6197 0.3679 0.0
C37 C 0.6048 0.6283 0.40957 0.0
O38 O 0.74894 0.63918 0.5404 0.0
O39 O 0.74574 0.61316 0.63007 0.0
C40 C 0.76171 0.66049 0.42933 0.0
C41 C 0.76583 0.6363 0.59366 0.0
Zn42 Zn 0.78338 0.0693 0.96109 0.0
Zn43 Zn 0.7899 0.10825 0.17762 0.0
Zn44 Zn 0.78881 0.08356 0.07064 0.0
C45 C 0.87634 0.12499 0.14587 0.0
C46 C 0.77874 0.01504 0.17437 0.0
O47 O 0.73409 0.12454 0.02746 0.0
O48 O 0.72945 0.10215 0.9347 0.0
C49 C 0.86625 0.11112 0.9826 0.0
O50 O 0.85768 0.10972 0.09735 0.0
O51 O 0.85321 0.12941 0.19061 0.0
O52 O 0.77898 0.04861 0.20757 0.0
O53 O 0.7817 0.02043 0.11855 0.0
O54 O 0.84163 0.09594 0.94013 0.0
O55 O 0.85293 0.1083 0.03548 0.0
O56 O 0.78245 0.0096 0.05615 0.0
O57 O 0.78094 0.00559 0.95919 0.0
C58 C 0.78169 0.98648 1.00803 0.0
O59 O 0.73113 0.13048 0.08846 0.0
O60 O 0.7409 0.15097 0.18175 0.0
C61 C 0.71649 0.12746 0.97463 0.0
C62 C 0.71859 0.15311 0.13328 0.0
Zn63 Zn 0.28703 0.41238 0.63999 0.0
Zn64 Zn 0.27316 0.36407 0.43679 0.0
Zn65 Zn 0.28389 0.38935 0.542 0.0
C66 C 0.36503 0.34894 0.47069 0.0
C67 C 0.26356 0.45236 0.42888 0.0
O68 O 0.2282 0.35734 0.59325 0.0
O69 O 0.22509 0.40548 0.66603 0.0
C70 C 0.36056 0.36165 0.63652 0.0
O71 O 0.35096 0.36149 0.52081 0.0
O72 O 0.3378 0.34748 0.42612 0.0
O73 O 0.25162 0.419 0.3981 0.0
O74 O 0.27608 0.44758 0.4835 0.0
O75 O 0.33298 0.37189 0.67494 0.0
O76 O 0.35004 0.36839 0.58185 0.0
O77 O 0.28084 0.4636 0.543 0.0
O78 O 0.30773 0.47317 0.63416 0.0
C79 C 0.29605 0.48936 0.58511 0.0
O80 O 0.22641 0.34021 0.53452 0.0
O81 O 0.22927 0.31667 0.44253 0.0
C82 C 0.20988 0.37094 0.6406 0.0
C83 C 0.21214 0.31443 0.49193 0.0
H84 H 0.09273 0.09789 0.15132 0.0
H85 H 0.05056 0.18588 0.28727 0.0
H86 H 0.18871 0.13939 0.2903 0.0
H87 H 0.14759 0.14378 0.40573 0.0
C88 C 0.1234 0.17158 0.39912 0.0
O89 O 0.13013 0.18898 0.34425 0.0
H90 H 0.08809 0.15836 0.40143 0.0
C91 C 0.10124 0.11849 0.18953 0.0
C92 C 0.14534 0.11702 0.21631 0.0
C93 C 0.06684 0.14299 0.21516 0.0
C94 C 0.07712 0.16746 0.2667 0.0
C95 C 0.12104 0.16637 0.29358 0.0
C96 C 0.15524 0.14142 0.26821 0.0
H97 H 0.42178 0.63753 0.58469 0.0
H98 H 0.3082 0.70048 0.66428 0.0
H99 H 0.43952 0.76402 0.66918 0.0
H100 H 0.41103 0.74979 0.77688 0.0
C101 C 0.37352 0.75527 0.77295 0.0
O102 O 0.35956 0.76288 0.71493 0.0
H103 H 0.35566 0.72485 0.78678 0.0
C104 C 0.40703 0.66565 0.60654 0.0
C105 C 0.43488 0.70202 0.62183 0.0
C106 C 0.36078 0.66484 0.62022 0.0
C107 C 0.34334 0.70076 0.65172 0.0
C108 C 0.37244 0.73515 0.672 0.0
C109 C 0.41725 0.73718 0.65378 0.0
H110 H 0.92155 0.89976 0.16396 0.0
H111 H 0.86023 0.83652 0.3085 0.0
H112 H 0.99235 0.79542 0.25663 0.0
H113 H 0.94275 0.71568 0.33101 0.0
C114 C 0.91301 0.7375 0.32222 0.0
O115 O 0.92704 0.78104 0.32973 0.0
H116 H 0.90329 0.72951 0.27554 0.0
C117 C 0.92208 0.87411 0.19666 0.0
C118 C 0.96116 0.84793 0.20512 0.0
C119 C 0.88531 0.86961 0.23318 0.0
C120 C 0.88758 0.83862 0.27841 0.0
C121 C 0.92542 0.8109 0.28579 0.0
C122 C 0.96236 0.81577 0.24939 0.0
H123 H 0.55759 0.38122 0.64534 0.0
H124 H 0.54651 0.28077 0.7748 0.0
H125 H 0.67922 0.32524 0.72769 0.0
H126 H 0.67819 0.2331 0.77265 0.0
C127 C 0.64746 0.23536 0.79916 0.0
O128 O 0.63384 0.27866 0.80284 0.0
H129 H 0.62103 0.21486 0.7749 0.0
C130 C 0.57424 0.35771 0.67485 0.0
C131 C 0.622 0.3569 0.68159 0.0
C132 C 0.54724 0.32884 0.7057 0.0
C133 C 0.56751 0.30102 0.7478 0.0
C134 C 0.61501 0.30075 0.75675 0.0
C135 C 0.64241 0.32672 0.72146 0.0
H136 H 0.57435 0.38558 0.4212 0.0
H137 H 0.52192 0.27018 0.32869 0.0
H138 H 0.65813 0.31658 0.30199 0.0
H139 H 0.57039 0.29476 0.19884 0.0
C140 C 0.57745 0.26007 0.21199 0.0
O141 O 0.5955 0.25758 0.26924 0.0
H142 H 0.54373 0.24357 0.21142 0.0
C143 C 0.5796 0.35764 0.39251 0.0
C144 C 0.62073 0.35409 0.3643 0.0
C145 C 0.54383 0.32735 0.3808 0.0
C146 C 0.54956 0.29325 0.33937 0.0
C147 C 0.59052 0.28969 0.31025 0.0
C148 C 0.62642 0.31942 0.32401 0.0
H149 H 0.06657 0.11472 0.93002 0.0
H150 H 0.02262 0.24596 0.88491 0.0
H151 H 0.16197 0.20873 0.86528 0.0
H152 H 0.04771 0.28884 0.78069 0.0
C153 C 0.08182 0.2732 0.77951 0.0
O154 O 0.09884 0.26729 0.83671 0.0
H155 H 0.07785 0.24021 0.75762 0.0
C156 C 0.0739 0.14751 0.91391 0.0
C157 C 0.11892 0.15858 0.90167 0.0
C158 C 0.03917 0.17911 0.91093 0.0
C159 C 0.04891 0.22098 0.88841 0.0
C160 C 0.09198 0.22984 0.86691 0.0
C161 C 0.12774 0.19981 0.87671 0.0
H162 H 0.39273 0.59038 0.38503 0.0
H163 H 0.42972 0.67524 0.24473 0.0
H164 H 0.29239 0.62608 0.25041 0.0
H165 H 0.32213 0.64077 0.13148 0.0
C166 C 0.34857 0.66684 0.13936 0.0
O167 O 0.34683 0.68038 0.19729 0.0
H168 H 0.38244 0.65251 0.13076 0.0
C169 C 0.38321 0.60947 0.34647 0.0
C170 C 0.33893 0.60507 0.32095 0.0
C171 C 0.41676 0.63407 0.31923 0.0
C172 C 0.40442 0.6564 0.26702 0.0
C173 C 0.35924 0.65507 0.24376 0.0
C174 C 0.32657 0.62907 0.27041 0.0
H175 H 0.90916 0.87289 0.94674 0.0
H176 H 0.93743 0.78632 0.805 0.0
H177 H 0.8016 0.78986 0.86849 0.0
H178 H 0.85663 0.69515 0.80786 0.0
C179 C 0.86987 0.71754 0.77415 0.0
O180 O 0.85274 0.75932 0.78446 0.0
H181 H 0.90776 0.71802 0.77864 0.0
C182 C 0.89689 0.84762 0.91567 0.0
C183 C 0.85043 0.83558 0.91148 0.0
C184 C 0.92842 0.82753 0.88057 0.0
C185 C 0.91327 0.79889 0.83537 0.0
C186 C 0.86747 0.78523 0.83062 0.0
C187 C 0.83662 0.8015 0.8712 0.0
C188 C 0.23028 0.05607 0.12404 0.0
C189 C 0.22378 0.01224 0.14381 0.0
C190 C 0.17234 0.0391 0.21797 0.0
C191 C 0.1773 0.08257 0.19666 0.0
N192 N 0.21758 0.13483 0.13943 0.0
N193 N 0.19827 0.96379 0.22045 0.0
C194 C 0.20865 0.09185 0.15294 0.0
C195 C 0.19809 0.00433 0.19428 0.0
N196 N 0.25619 0.06313 0.0768 0.0
N197 N 0.14129 0.03062 0.25937 0.0
H198 H 0.21459 0.93605 0.2049 0.0
H199 H 0.18528 0.95818 0.26141 0.0
H200 H 0.12499 0.0554 0.28232 0.0
H201 H 0.12973 -0.00099 0.26893 0.0
H202 H 0.25866 0.09334 0.05577 0.0
H203 H 0.27405 0.03779 0.05689 0.0
H204 H 0.24243 0.14456 0.11114 0.0
H205 H 0.20175 0.16128 0.15975 0.0
C206 C 0.54582 0.69959 0.54152 0.0
C207 C 0.57552 0.68357 0.58679 0.0
C208 C 0.51627 0.69248 0.65743 0.0
C209 C 0.4841 0.70045 0.61038 0.0
N210 N 0.46801 0.71559 0.50779 0.0
N211 N 0.59556 0.69764 0.68952 0.0
C212 C 0.49891 0.70591 0.55248 0.0
C213 C 0.56299 0.68995 0.64566 0.0
N214 N 0.56369 0.71433 0.49135 0.0
N215 N 0.50236 0.68503 0.71284 0.0
H216 H 0.62967 0.70341 0.68091 0.0
H217 H 0.58775 0.70557 0.73245 0.0
H218 H 0.46828 0.68575 0.72375 0.0
H219 H 0.52452 0.67429 0.74686 0.0
H220 H 0.54511 0.73352 0.46112 0.0
H221 H 0.59868 0.71331 0.48511 0.0
H222 H 0.47602 0.715 0.46387 0.0
H223 H 0.43382 0.72232 0.51458 0.0
C224 C 0.81186 0.96997 0.25738 0.0
C225 C 0.78729 0.97104 0.20233 0.0
C226 C 0.8112 0.89499 0.18385 0.0
C227 C 0.84677 0.90106 0.22799 0.0
N228 N 0.88022 0.9445 0.30899 0.0
N229 N 0.7469 0.9282 0.12795 0.0
C230 C 0.84651 0.93825 0.26613 0.0
C231 C 0.78155 0.93121 0.16994 0.0
N232 N 0.80065 -0.0024 0.30201 0.0
N233 N 0.80677 0.85525 0.15517 0.0
H234 H 0.72404 0.95416 0.12079 0.0
H235 H 0.73942 0.90018 0.10245 0.0
H236 H 0.82753 0.82838 0.16619 0.0
H237 H 0.78239 0.84832 0.12165 0.0
H238 H 0.81608 -0.00396 0.34412 0.0
H239 H 0.77131 0.01694 0.29931 0.0
H240 H 0.88382 0.97379 0.33333 0.0
H241 H 0.90643 0.92196 0.31735 0.0
C242 C 0.42633 0.30898 0.6434 0.0
C243 C 0.40756 0.35073 0.65637 0.0
C244 C 0.47586 0.37037 0.71679 0.0
C245 C 0.49727 0.33185 0.69643 0.0
N246 N 0.4952 0.2659 0.63592 0.0
N247 N 0.41754 0.42469 0.6967 0.0
C248 C 0.4731 0.30124 0.65877 0.0
C249 C 0.43301 0.38236 0.69106 0.0
N250 N 0.39923 0.27647 0.61819 0.0
N251 N 0.49673 0.39557 0.76053 0.0
H252 H 0.38715 0.43572 0.67639 0.0
H253 H 0.43708 0.45012 0.71644 0.0
H254 H 0.52833 0.3874 0.78043 0.0
H255 H 0.48074 0.4218 0.78096 0.0
H256 H 0.40997 0.24395 0.61314 0.0
H257 H 0.36478 0.28127 0.60652 0.0
H258 H 0.48064 0.24544 0.60297 0.0
H259 H 0.52919 0.25867 0.64737 0.0
C260 C 0.68705 0.45922 0.33719 0.0
C261 C 0.70218 0.47014 0.39567 0.0
C262 C 0.68284 0.39467 0.42443 0.0
C263 C 0.65499 0.39039 0.37172 0.0
N264 N 0.63031 0.41977 0.27703 0.0
N265 N 0.73377 0.442 0.48632 0.0
C266 C 0.65749 0.42265 0.3274 0.0
C267 C 0.70608 0.43573 0.43709 0.0
N268 N 0.70308 0.48168 0.29076 0.0
N269 N 0.68632 0.35977 0.46188 0.0
H270 H 0.7532 0.47083 0.49283 0.0
H271 H 0.73936 0.41862 0.51895 0.0
H272 H 0.67049 0.3294 0.4521 0.0
H273 H 0.70516 0.36021 0.5017 0.0
H274 H 0.69471 0.47285 0.24721 0.0
H275 H 0.73046 0.50377 0.29546 0.0
H276 H 0.62774 0.44537 0.24677 0.0
H277 H 0.60772 0.39365 0.26758 0.0
C278 C 0.91029 0.16376 0.92288 0.0
C279 C 0.90974 0.13311 0.96963 0.0
C280 C 0.99138 0.14462 0.98721 0.0
C281 C -0.0065 0.16748 0.93313 0.0
N282 N 0.95341 0.18855 0.8421 0.0
N283 N 0.95323 0.08547 0.03562 0.0
C284 C 0.9525 0.17468 0.89886 0.0
C285 C 0.95123 0.12101 0.99919 0.0
N286 N 0.87077 0.18263 0.9015 0.0
N287 N 0.02742 0.14585 0.02731 0.0
H288 H 0.92499 0.06557 0.04296 0.0
H289 H 0.98395 0.07325 0.0536 0.0
H290 H 0.05477 0.16756 0.02325 0.0
H291 H 0.02758 0.12928 0.0671 0.0
H292 H 0.87033 0.20768 0.87038 0.0
H293 H 0.83933 0.17689 0.91966 0.0
H294 H 0.92405 0.19054 0.81458 0.0
H295 H 0.98347 0.19277 0.82029 0.0
C296 C 0.25935 0.53479 0.41018 0.0
C297 C 0.27745 0.49256 0.39732 0.0
C298 C 0.32279 0.52495 0.32115 0.0
C299 C 0.31053 0.56763 0.34005 0.0
N300 N 0.26722 0.61471 0.4017 0.0
N301 N 0.33482 0.44959 0.34942 0.0
C302 C 0.27836 0.57307 0.38402 0.0
C303 C 0.31106 0.48808 0.35472 0.0
N304 N 0.22425 0.53808 0.4471 0.0
N305 N 0.34648 0.51965 0.2714 0.0
H306 H 0.33002 0.42207 0.37538 0.0
H307 H 0.36324 0.44662 0.32403 0.0
H308 H 0.35629 0.54609 0.24575 0.0
H309 H 0.35223 0.48884 0.25238 0.0
H310 H 0.20706 0.56735 0.45506 0.0
H311 H 0.21032 0.51056 0.46706 0.0
H312 H 0.24793 0.62138 0.43781 0.0
H313 H 0.27949 0.64291 0.38154 0.0
C314 C 0.05348 0.81235 0.92807 0.0
C315 C 0.06963 0.85612 0.92241 0.0
C316 C -0.00514 0.87964 0.88275 0.0
C317 C 0.9776 0.83667 0.89249 0.0
N318 N 0.98765 0.76457 0.93598 0.0
N319 N 0.05425 0.93354 0.90699 0.0
C320 C 0.00609 0.8036 0.91848 0.0
C321 C 0.03979 0.89046 0.90371 0.0
N322 N 0.08351 0.77904 0.94076 0.0
N323 N 0.96883 0.90959 0.85178 0.0
H324 H 0.08697 0.9428 0.92273 0.0
H325 H 0.03259 0.96027 0.89956 0.0
H326 H 0.93589 0.90248 0.83482 0.0
H327 H 0.98133 0.93992 0.83822 0.0
H328 H 0.07436 0.74571 0.93908 0.0
H329 H 0.11834 0.78468 0.9494 0.0
H330 H 0.00601 0.7414 0.96086 0.0
H331 H 0.95301 0.75691 0.93008 0.0
C332 C 0.75849 0.91587 0.9603 0.0
C333 C 0.7854 0.93745 1.00534 0.0
C334 C 0.83514 0.87312 1.00688 0.0
C335 C 0.81862 0.86106 0.94916 0.0
N336 N 0.7635 0.87685 0.86854 0.0
N337 N 0.85412 0.93637 0.06846 0.0
C338 C 0.7789 0.88288 0.92556 0.0
C339 C 0.82445 0.91552 0.02933 0.0
N340 N 0.71512 0.92998 0.94748 0.0
N341 N 0.86383 0.84559 0.03782 0.0
H342 H 0.84809 0.96736 0.08654 0.0
H343 H 0.88635 0.92374 0.07927 0.0
H344 H 0.87141 0.81405 0.02216 0.0
H345 H 0.87654 0.85285 0.08035 0.0
H346 H 0.693 0.91381 0.917 0.0
H347 H 0.70045 0.95497 0.97213 0.0
H348 H 0.73729 0.89569 0.84921 0.0
H349 H 0.77938 0.85699 0.83843 0.0
C350 C 0.43629 0.30336 0.46394 0.0
C351 C 0.41426 0.34483 0.46048 0.0
C352 C 0.47534 0.37384 0.40235 0.0
C353 C 0.49946 0.33344 0.40938 0.0
N354 N 0.50787 0.26409 0.46037 0.0
N355 N 0.41876 0.42276 0.44077 0.0
C356 C 0.4815 0.29945 0.44444 0.0
C357 C 0.43604 0.3812 0.4348 0.0
N358 N 0.41348 0.26739 0.48351 0.0
N359 N 0.48793 0.40402 0.36184 0.0
H360 H 0.39002 0.42919 0.46462 0.0
H361 H 0.43551 0.45108 0.4272 0.0
H362 H 0.51456 0.3988 0.334 0.0
H363 H 0.46876 0.43198 0.35128 0.0
H364 H 0.42614 0.23534 0.48133 0.0
H365 H 0.38043 0.26939 0.49823 0.0
H366 H 0.49783 0.24044 0.49011 0.0
H367 H 0.54156 0.26079 0.44842 0.0
C368 C 0.20494 0.06524 0.89875 0.0
C369 C 0.19111 0.04354 0.95001 0.0
C370 C 0.15475 0.11171 0.97924 0.0
C371 C 0.1554 0.127 0.92077 0.0
N372 N 0.18182 0.11676 0.82273 0.0
N373 N 0.14504 0.04583 0.03543 0.0
C374 C 0.18175 0.10408 0.88001 0.0
C375 C 0.16479 0.06689 0.99043 0.0
N376 N 0.2388 0.04764 0.86706 0.0
N377 N 0.14144 0.1393 0.02269 0.0
H378 H 0.148 0.01208 0.04267 0.0
H379 H 0.12196 0.06137 0.06205 0.0
H380 H 0.13524 0.17275 0.01492 0.0
H381 H 0.14097 0.12987 0.06647 0.0
H382 H 0.25224 0.06367 0.83147 0.0
H383 H 0.25643 0.01932 0.88058 0.0
H384 H 0.19662 0.09791 0.79031 0.0
H385 H 0.1644 0.14432 0.80668 0.0
C386 C 0.53811 0.67144 0.36757 0.0
C387 C 0.55541 0.63264 0.39472 0.0
C388 C 0.48588 0.59321 0.36129 0.0
C389 C 0.46514 0.63383 0.34401 0.0
N390 N 0.4702 0.71385 0.34506 0.0
N391 N 0.54247 0.55754 0.42505 0.0
C392 C 0.49087 0.67372 0.35106 0.0
C393 C 0.52788 0.59405 0.39489 0.0
N394 N 0.56663 0.70592 0.35673 0.0
N395 N 0.46767 0.55375 0.34165 0.0
H396 H 0.57366 0.55642 0.44902 0.0
H397 H 0.52167 0.52995 0.43042 0.0
H398 H 0.43986 0.5516 0.31144 0.0
H399 H 0.48367 0.52354 0.34928 0.0
H400 H 0.55622 0.73299 0.3316 0.0
H401 H 0.6012 0.70611 0.36998 0.0
H402 H 0.48736 0.74361 0.35414 0.0
H403 H 0.435 0.71733 0.33844 0.0
C404 C 0.32678 0.55917 0.54024 0.0
C405 C 0.2989 0.53815 0.58071 0.0
C406 C 0.30707 0.60213 0.64635 0.0
C407 C 0.33272 0.62457 0.60431 0.0
N408 N 0.35011 0.62964 0.50221 0.0
N409 N 0.24842 0.54726 0.66009 0.0
C410 C 0.33641 0.60494 0.54786 0.0
C411 C 0.28351 0.56285 0.6289 0.0
N412 N 0.34774 0.53537 0.49835 0.0
N413 N 0.30893 0.61469 0.70414 0.0
H414 H 0.23063 0.51834 0.64778 0.0
H415 H 0.23436 0.56553 0.69369 0.0
H416 H 0.3307 0.63928 0.72157 0.0
H417 H 0.29325 0.59654 0.73625 0.0
H418 H 0.37186 0.54925 0.47184 0.0
H419 H 0.34417 0.50125 0.49377 0.0
H420 H 0.35091 0.61692 0.4598 0.0
H421 H 0.35548 0.66372 0.5058 0.0
C422 C 0.06382 0.90688 0.14425 0.0
C423 C 0.0836 0.87216 0.11204 0.0
C424 C 0.01736 0.82508 0.13001 0.0
C425 C 0.00219 0.85695 0.17077 0.0
N426 N 0.01497 0.92643 0.22263 0.0
N427 N 0.08138 0.79625 0.07861 0.0
C428 C 0.02628 0.89759 0.17918 0.0
C429 C 0.0607 0.83082 0.10532 0.0
N430 N 0.08073 0.94897 0.14088 0.0
N431 N 0.99006 0.78977 0.1142 0.0
H432 H 0.11328 0.79899 0.06075 0.0
H433 H 0.06845 0.7641 0.07801 0.0
H434 H 0.95809 0.78477 0.13124 0.0
H435 H -0.00278 0.76792 0.08031 0.0
H436 H 0.06516 0.97638 0.15912 0.0
H437 H 0.10754 0.9571 0.11445 0.0
H438 H 0.03452 0.95424 0.2346 0.0
H439 H 0.98865 0.92053 0.25067 0.0
C440 C 0.69896 0.45351 0.64085 0.0
C441 C 0.67486 0.46656 0.58863 0.0
C442 C 0.63449 0.39594 0.58727 0.0
C443 C 0.64845 0.38937 0.6472 0.0
N444 N 0.69041 0.41859 0.73397 0.0
N445 N 0.6159 0.45106 0.5139 0.0
C446 C 0.68075 0.41921 0.67475 0.0
C447 C 0.64207 0.43768 0.56145 0.0
N448 N 0.7376 0.47584 0.65965 0.0
N449 N 0.6128 0.36268 0.55594 0.0
H450 H 0.62121 0.48104 0.49305 0.0
H451 H 0.58697 0.43367 0.49833 0.0
H452 H 0.60891 0.33105 0.57298 0.0
H453 H 0.60295 0.36541 0.51176 0.0
H454 H 0.75826 0.46578 0.69555 0.0
H455 H 0.75115 0.50142 0.63528 0.0
H456 H 0.71061 0.44266 0.75577 0.0
H457 H 0.67438 0.39771 0.76256 0.0
C458 C 0.94886 0.16959 0.14665 0.0
C459 C 0.92636 0.12864 0.15412 0.0
C460 C -0.00474 0.09767 0.20191 0.0
C461 C 0.01865 0.13806 0.1927 0.0
N462 N 0.02082 0.20995 0.14827 0.0
N463 N 0.92992 0.05088 0.17614 0.0
C464 C -0.00372 0.17346 0.16283 0.0
C465 C 0.95026 0.09175 0.17758 0.0
N466 N 0.92459 0.20481 0.12517 0.0
N467 N 0.01505 0.06589 0.23682 0.0
H468 H 0.89668 0.04529 0.15916 0.0
H469 H 0.94729 0.02185 0.18652 0.0
H470 H 0.04744 0.06937 0.25718 0.0
H471 H -0.00217 0.03787 0.25033 0.0
H472 H 0.93745 0.23693 0.12447 0.0
H473 H 0.89045 0.20212 0.11029 0.0
H474 H 0.00784 0.23496 0.12139 0.0
H475 H 0.05558 0.2136 0.15937 0.0
C476 C 0.28446 0.74592 0.03609 0.0
C477 C 0.30084 0.78632 0.06145 0.0
C478 C 0.36251 0.74718 0.11485 0.0
C479 C 0.33976 0.70683 0.10042 0.0
N480 N 0.29494 0.66646 0.02649 0.0
N481 N 0.35831 0.8272 0.11869 0.0
C482 C 0.30566 0.70568 0.05409 0.0
C483 C 0.34145 0.78748 0.098 0.0
N484 N 0.24688 0.74596 0.99822 0.0
N485 N 0.40423 0.74655 0.14422 0.0
H486 H 0.34504 0.85734 0.10414 0.0
H487 H 0.3843 0.83048 0.15122 0.0
H488 H 0.42085 0.71709 0.15474 0.0
H489 H 0.42435 0.77452 0.15283 0.0
H490 H 0.22968 0.71748 0.98346 0.0
H491 H 0.23191 0.77509 0.98283 0.0
H492 H 0.2724 0.66343 0.98996 0.0
H493 H 0.31277 0.63749 0.03622 0.0
C494 C 0.80845 0.7064 0.62229 0.0
C495 C 0.80766 0.65975 0.61637 0.0
C496 C 0.86114 0.65314 0.70154 0.0
C497 C 0.85623 0.69916 0.71286 0.0
N498 N 0.8494 0.76977 0.66458 0.0
N499 N 0.84712 0.59168 0.63306 0.0
C500 C 0.83757 0.72619 0.66707 0.0
C501 C 0.83937 0.63428 0.65002 0.0
N502 N 0.77991 0.73161 0.58767 0.0
N503 N 0.88506 0.62733 0.74096 0.0
H504 H 0.83101 0.57803 0.59512 0.0
H505 H 0.87203 0.57164 0.65286 0.0
H506 H 0.9042 0.64032 0.77693 0.0
H507 H 0.88512 0.59294 0.73894 0.0
H508 H 0.77522 0.76528 0.5952 0.0
H509 H 0.75976 0.71841 0.55281 0.0
H510 H 0.83876 0.79012 0.62998 0.0
H511 H 0.87512 0.78358 0.69235 0.0
C512 C 0.68915 0.22947 0.1415 0.0
C513 C 0.67985 0.18422 0.1295 0.0
C514 C 0.59876 0.1973 0.14227 0.0
C515 C 0.61014 0.23843 0.17019 0.0
N516 N 0.66445 0.29829 0.18478 0.0
N517 N 0.62554 0.12477 0.11423 0.0
C518 C 0.65473 0.25631 0.16519 0.0
C519 C 0.6344 0.16821 0.12735 0.0
N520 N 0.73116 0.2463 0.13042 0.0
N521 N 0.55425 0.18685 0.12781 0.0
H522 H 0.65067 0.10307 0.10111 0.0
H523 H 0.59387 0.10989 0.11919 0.0
H524 H 0.52785 0.20936 0.13219 0.0
H525 H 0.54434 0.15862 0.10382 0.0
H526 H 0.73966 0.27971 0.13354 0.0
H527 H 0.75659 0.22688 0.11297 0.0
H528 H 0.69734 0.31128 0.18997 0.0
H529 H 0.63941 0.32032 0.19704 0.0
C530 C 0.18606 0.33797 0.73398 0.0
C531 C 0.17715 0.34367 0.67275 0.0
C532 C 0.10489 0.3035 0.68049 0.0
C533 C 0.11254 0.30188 0.74288 0.0
N534 N 0.14992 0.34051 0.82591 0.0
N535 N 0.12191 0.34192 0.5911 0.0
C536 C 0.15001 0.32579 0.76914 0.0
C537 C 0.13489 0.32901 0.64657 0.0
N538 N 0.22896 0.34383 0.75898 0.0
N539 N 0.06872 0.28148 0.65355 0.0
H540 H 0.14203 0.36269 0.56679 0.0
H541 H 0.08956 0.33575 0.57173 0.0
H542 H 0.04333 0.26599 0.67647 0.0
H543 H 0.06511 0.27708 0.60815 0.0
H544 H 0.23677 0.33721 0.80317 0.0
H545 H 0.2573 0.35 0.73436 0.0
H546 H 0.17624 0.36002 0.84492 0.0
H547 H 0.12064 0.33994 0.85003 0.0
C548 C 0.8463 0.68004 0.44041 0.0
C549 C 0.8008 0.69136 0.42307 0.0
C550 C 0.82826 0.73812 0.34554 0.0
C551 C 0.87409 0.72668 0.36193 0.0
N552 N 0.92567 0.70271 0.44138 0.0
N553 N 0.75156 0.74606 0.37857 0.0
C554 C 0.88287 0.70313 0.41511 0.0
C555 C 0.7932 0.72616 0.38289 0.0
N556 N 0.85501 0.64564 0.47741 0.0
N557 N 0.81714 0.75719 0.29275 0.0
H558 H 0.72548 0.73752 0.40602 0.0
H559 H 0.74504 0.77377 0.35269 0.0
H560 H 0.84069 0.76438 0.26161 0.0
H561 H 0.78348 0.762 0.27743 0.0
H562 H 0.88774 0.63332 0.4861 0.0
H563 H 0.82939 0.62753 0.49622 0.0
H564 H 0.93278 0.68841 0.48222 0.0
H565 H 0.95256 0.72135 0.42607 0.0
C566 C 0.71492 0.20441 0.94091 0.0
C567 C 0.68982 0.16626 0.95528 0.0
C568 C 0.62768 0.1886 0.88694 0.0
C569 C 0.65837 0.21798 0.86054 0.0
N570 N 0.72826 0.26075 0.86863 0.0
N571 N 0.62017 0.12441 0.94908 0.0
C572 C 0.70074 0.22882 0.89033 0.0
C573 C 0.64498 0.1597 0.93134 0.0
N574 N 0.75307 0.21602 0.97445 0.0
N575 N 0.58241 0.18872 0.86996 0.0
H576 H 0.63198 0.10424 0.98345 0.0
H577 H 0.58918 0.11447 0.9287 0.0
H578 H 0.56861 0.21153 0.84011 0.0
H579 H 0.55799 0.16992 0.89027 0.0
H580 H 0.77135 0.24518 0.96926 0.0
H581 H 0.76404 0.19819 1.01133 0.0
H582 H 0.76191 0.26628 0.88362 0.0
H583 H 0.7179 0.28119 0.83399 0.0
C584 C 0.13531 0.28781 0.46001 0.0
C585 C 0.17498 0.28189 0.49705 0.0
C586 C 0.16312 0.20185 0.49377 0.0
C587 C 0.13171 0.20787 0.44524 0.0
N588 N 0.07222 0.25356 0.40278 0.0
N589 N 0.22149 0.23556 0.5599 0.0
C590 C 0.11214 0.25004 0.43577 0.0
C591 C 0.18629 0.23954 0.51888 0.0
N592 N 0.12289 0.32959 0.44391 0.0
N593 N 0.16986 0.1605 0.51585 0.0
H594 H 0.23737 0.26318 0.57987 0.0
H595 H 0.2353 0.20553 0.57344 0.0
H596 H 0.15047 0.13338 0.50047 0.0
H597 H 0.19078 0.15377 0.55282 0.0
H598 H 0.09755 0.33666 0.4119 0.0
H599 H 0.13946 0.35754 0.46203 0.0
H600 H 0.0545 0.28298 0.3968 0.0
H601 H 0.0546 0.22588 0.38571 0.0
C602 C 0.34306 0.82073 0.91062 0.0
C603 C 0.32019 0.8562 0.88345 0.0
C604 C 0.35784 0.83739 0.79291 0.0
C605 C 0.36249 0.79347 0.81373 0.0
N606 N 0.37224 0.74697 0.89955 0.0
N607 N 0.32255 0.90907 0.80509 0.0
C608 C 0.35942 0.78622 0.87502 0.0
C609 C 0.33305 0.86817 0.82634 0.0
N610 N 0.35504 0.82337 0.96877 0.0
N611 N 0.37949 0.85019 0.74416 0.0
H612 H 0.31111 0.93433 0.83212 0.0
H613 H 0.32539 0.91782 0.76135 0.0
H614 H 0.40249 0.8297 0.72368 0.0
H615 H 0.37948 0.88244 0.7287 0.0
H616 H 0.37742 0.80102 0.98923 0.0
H617 H 0.34817 0.85169 0.99325 0.0
H618 H 0.36581 0.73921 0.94288 0.0
H619 H 0.38838 0.72214 0.87643 0.0
loop_
_geom_bond_atom_site_label_1
_geom_bond_atom_site_label_2
_geom_bond_distance
_geom_bond_site_symmetry_2
_ccdc_geom_bond_type
Zn0 O6 1.920 . S
Zn0 O12 1.898 . S
Zn0 O15 1.905 . S
Zn1 O9 1.905 . S
Zn1 O10 1.898 . S
Zn1 O18 1.920 . S
Zn2 O5 2.081 . S
Zn2 O8 2.114 1_554 S
Zn2 O11 2.120 1_554 S
Zn2 O13 2.120 . S
Zn2 O14 2.114 . S
Zn2 O17 2.080 1_554 S
C3 O8 1.166 . S
C3 O9 1.182 . S
C4 O10 1.167 . S
C4 O11 1.299 . S
O5 Zn2 2.081 . S
O5 C19 1.305 . S
O6 Zn0 1.920 . S
O6 C19 1.234 . S
C7 O12 1.167 . S
C7 O13 1.299 . S
O8 Zn2 2.114 1_556 S
O8 C3 1.166 . S
O9 Zn1 1.905 . S
O9 C3 1.182 . S
O10 Zn1 1.898 . S
O10 C4 1.167 . S
O11 Zn2 2.120 1_556 S
O11 C4 1.299 . S
O12 Zn0 1.898 . S
O12 C7 1.167 . S
O13 Zn2 2.120 . S
O13 C7 1.299 . S
O14 Zn2 2.114 . S
O14 C16 1.166 . S
O15 Zn0 1.905 . S
O15 C16 1.182 . S
C16 O14 1.166 . S
C16 O15 1.182 . S
O17 Zn2 2.080 1_556 S
O17 C20 1.305 . S
O18 Zn1 1.920 . S
O18 C20 1.234 . S
C19 O5 1.305 . S
C19 O6 1.234 . S
C20 O17 1.305 . S
C20 O18 1.234 . S
Zn21 O27 1.920 . S
Zn21 O33 1.898 . S
Zn21 O36 1.905 . S
Zn22 O30 1.905 . S
Zn22 O31 1.898 . S
Zn22 O39 1.920 . S
Zn23 O26 2.080 . S
Zn23 O29 2.114 . S
Zn23 O32 2.120 . S
Zn23 O34 2.120 . S
Zn23 O35 2.114 . S
Zn23 O38 2.080 . S
C24 O29 1.166 . S
C24 O30 1.182 . S
C25 O31 1.167 . S
C25 O32 1.299 . S
O26 Zn23 2.080 . S
O26 C40 1.305 . S
O27 Zn21 1.920 . S
O27 C40 1.234 . S
C28 O33 1.167 . S
C28 O34 1.299 . S
O29 Zn23 2.114 . S
O29 C24 1.166 . S
O30 Zn22 1.905 . S
O30 C24 1.182 . S
O31 Zn22 1.898 . S
O31 C25 1.167 . S
O32 Zn23 2.120 . S
O32 C25 1.299 . S
O33 Zn21 1.898 . S
O33 C28 1.167 . S
O34 Zn23 2.120 . S
O34 C28 1.299 . S
O35 Zn23 2.114 . S
O35 C37 1.166 . S
O36 Zn21 1.905 . S
O36 C37 1.182 . S
C37 O35 1.166 . S
C37 O36 1.182 . S
O38 Zn23 2.080 . S
O38 C41 1.305 . S
O39 Zn22 1.920 . S
O39 C41 1.234 . S
C40 O26 1.305 . S
C40 O27 1.234 . S
C41 O38 1.305 . S
C41 O39 1.234 . S
Zn42 O48 1.920 . S
Zn42 O54 1.898 . S
Zn42 O57 1.905 . S
Zn43 O51 1.905 . S
Zn43 O52 1.898 . S
Zn43 O60 1.920 . S
Zn44 O47 2.080 1_554 S
Zn44 O50 2.114 . S
Zn44 O53 2.120 . S
Zn44 O55 2.120 1_554 S
Zn44 O56 2.114 1_554 S
Zn44 O59 2.080 . S
C45 O50 1.166 . S
C45 O51 1.182 . S
C46 O52 1.167 . S
C46 O53 1.299 . S
O47 Zn44 2.080 1_556 S
O47 C61 1.305 . S
O48 Zn42 1.920 . S
O48 C61 1.234 . S
C49 O54 1.167 . S
C49 O55 1.299 . S
O50 Zn44 2.114 . S
O50 C45 1.166 . S
O51 Zn43 1.905 . S
O51 C45 1.182 . S
O52 Zn43 1.898 . S
O52 C46 1.167 . S
O53 Zn44 2.120 . S
O53 C46 1.299 . S
O54 Zn42 1.898 . S
O54 C49 1.167 . S
O55 Zn44 2.120 1_556 S
O55 C49 1.299 . S
O56 Zn44 2.114 1_556 S
O56 C58 1.166 . S
O57 Zn42 1.905 . S
O57 C58 1.182 . S
C58 O56 1.166 . S
C58 O57 1.182 . S
O59 Zn44 2.080 . S
O59 C62 1.305 . S
O60 Zn43 1.920 . S
O60 C62 1.234 . S
C61 O47 1.305 . S
C61 O48 1.234 . S
C62 O59 1.305 . S
C62 O60 1.234 . S
Zn63 O69 1.920 . S
Zn63 O75 1.898 . S
Zn63 O78 1.905 . S
Zn64 O72 1.905 . S
Zn64 O73 1.898 . S
Zn64 O81 1.920 . S
Zn65 O68 2.080 . S
Zn65 O71 2.114 . S
Zn65 O74 2.120 . S
Zn65 O76 2.120 . S
Zn65 O77 2.114 . S
Zn65 O80 2.080 . S
C66 O71 1.166 . S
C66 O72 1.182 . S
C67 O73 1.167 . S
C67 O74 1.299 . S
O68 Zn65 2.080 . S
O68 C82 1.305 . S
O69 Zn63 1.920 . S
O69 C82 1.234 . S
C70 O75 1.167 . S
C70 O76 1.299 . S
O71 Zn65 2.114 . S
O71 C66 1.166 . S
O72 Zn64 1.905 . S
O72 C66 1.182 . S
O73 Zn64 1.898 . S
O73 C67 1.167 . S
O74 Zn65 2.120 . S
O74 C67 1.299 . S
O75 Zn63 1.898 . S
O75 C70 1.167 . S
O76 Zn65 2.120 . S
O76 C70 1.299 . S
O77 Zn65 2.114 . S
O77 C79 1.166 . S
O78 Zn63 1.905 . S
O78 C79 1.182 . S
C79 O77 1.166 . S
C79 O78 1.182 . S
O80 Zn65 2.080 . S
O80 C83 1.305 . S
O81 Zn64 1.920 . S
O81 C83 1.234 . S
C82 O68 1.305 . S
C82 O69 1.234 . S
C83 O80 1.305 . S
C83 O81 1.234 . S
H84 C91 0.929 . S
H85 C94 0.930 . S
H86 C96 0.929 . S
H87 C88 0.969 . S
C88 H87 0.969 . S
C88 O89 1.550 . S
C88 H90 0.973 . S
O89 C88 1.550 . S
O89 C95 1.412 . S
H90 C88 0.973 . S
C91 H84 0.929 . S
C91 C92 1.400 . S
C91 C93 1.364 . S
C92 C91 1.400 . S
C92 C96 1.377 . S
C93 C91 1.364 . S
C93 C94 1.374 . S
C94 H85 0.930 . S
C94 C93 1.374 . S
C94 C95 1.383 . S
C95 O89 1.412 . S
C95 C94 1.383 . S
C95 C96 1.394 . S
C96 H86 0.929 . S
C96 C92 1.377 . S
C96 C95 1.394 . S
H97 C104 0.929 . S
H98 C107 0.930 . S
H99 C109 0.929 . S
H100 C101 0.969 . S
C101 H100 0.969 . S
C101 O102 1.550 . S
C101 H103 0.973 . S
O102 C101 1.550 . S
O102 C108 1.412 . S
H103 C101 0.973 . S
C104 H97 0.929 . S
C104 C105 1.400 . S
C104 C106 1.364 . S
C105 C104 1.400 . S
C105 C109 1.377 . S
C106 C104 1.364 . S
C106 C107 1.374 . S
C107 H98 0.930 . S
C107 C106 1.374 . S
C107 C108 1.383 . S
C108 O102 1.412 . S
C108 C107 1.383 . S
C108 C109 1.394 . S
C109 H99 0.929 . S
C109 C105 1.377 . S
C109 C108 1.394 . S
H110 C117 0.929 . S
H111 C120 0.930 . S
H112 C122 0.929 . S
H113 C114 0.969 . S
C114 H113 0.969 . S
C114 O115 1.550 . S
C114 H116 0.973 . S
O115 C114 1.550 . S
O115 C121 1.412 . S
H116 C114 0.973 . S
C117 H110 0.929 . S
C117 C118 1.400 . S
C117 C119 1.364 . S
C118 C117 1.400 . S
C118 C122 1.377 . S
C119 C117 1.364 . S
C119 C120 1.374 . S
C120 H111 0.930 . S
C120 C119 1.374 . S
C120 C121 1.383 . S
C121 O115 1.412 . S
C121 C120 1.383 . S
C121 C122 1.394 . S
C122 H112 0.929 . S
C122 C118 1.377 . S
C122 C121 1.394 . S
H123 C130 0.929 . S
H124 C133 0.930 . S
H125 C135 0.929 . S
H126 C127 0.969 . S
C127 H126 0.969 . S
C127 O128 1.550 . S
C127 H129 0.973 . S
O128 C127 1.550 . S
O128 C134 1.412 . S
H129 C127 0.973 . S
C130 H123 0.929 . S
C130 C131 1.400 . S
C130 C132 1.364 . S
C131 C130 1.400 . S
C131 C135 1.377 . S
C132 C130 1.364 . S
C132 C133 1.374 . S
C133 H124 0.930 . S
C133 C132 1.374 . S
C133 C134 1.383 . S
C134 O128 1.412 . S
C134 C133 1.383 . S
C134 C135 1.394 . S
C135 H125 0.929 . S
C135 C131 1.377 . S
C135 C134 1.394 . S
H136 C143 0.929 . S
H137 C146 0.930 . S
H138 C148 0.929 . S
H139 C140 0.969 . S
C140 H139 0.969 . S
C140 O141 1.550 . S
C140 H142 0.973 . S
O141 C140 1.550 . S
O141 C147 1.412 . S
H142 C140 0.973 . S
C143 H136 0.929 . S
C143 C144 1.400 . S
C143 C145 1.364 . S
C144 C143 1.400 . S
C144 C148 1.377 . S
C145 C143 1.364 . S
C145 C146 1.374 . S
C146 H137 0.930 . S
C146 C145 1.374 . S
C146 C147 1.383 . S
C147 O141 1.412 . S
C147 C146 1.383 . S
C147 C148 1.394 . S
C148 H138 0.929 . S
C148 C144 1.377 . S
C148 C147 1.394 . S
H149 C156 0.929 . S
H150 C159 0.930 . S
H151 C161 0.929 . S
H152 C153 0.969 . S
C153 H152 0.969 . S
C153 O154 1.550 . S
C153 H155 0.973 . S
O154 C153 1.550 . S
O154 C160 1.412 . S
H155 C153 0.973 . S
C156 H149 0.929 . S
C156 C157 1.400 . S
C156 C158 1.364 . S
C157 C156 1.400 . S
C157 C161 1.377 . S
C158 C156 1.364 . S
C158 C159 1.374 . S
C159 H150 0.930 . S
C159 C158 1.374 . S
C159 C160 1.383 . S
C160 O154 1.412 . S
C160 C159 1.383 . S
C160 C161 1.394 . S
C161 H151 0.929 . S
C161 C157 1.377 . S
C161 C160 1.394 . S
H162 C169 0.929 . S
H163 C172 0.930 . S
H164 C174 0.929 . S
H165 C166 0.969 . S
C166 H165 0.969 . S
C166 O167 1.550 . S
C166 H168 0.973 . S
O167 C166 1.550 . S
O167 C173 1.412 . S
H168 C166 0.973 . S
C169 H162 0.929 . S
C169 C170 1.400 . S
C169 C171 1.364 . S
C170 C169 1.400 . S
C170 C174 1.377 . S
C171 C169 1.364 . S
C171 C172 1.374 . S
C172 H163 0.930 . S
C172 C171 1.374 . S
C172 C173 1.383 . S
C173 O167 1.412 . S
C173 C172 1.383 . S
C173 C174 1.394 . S
C174 H164 0.929 . S
C174 C170 1.377 . S
C174 C173 1.394 . S
H175 C182 0.929 . S
H176 C185 0.930 . S
H177 C187 0.929 . S
H178 C179 0.969 . S
C179 H178 0.969 . S
C179 O180 1.550 . S
C179 H181 0.973 . S
O180 C179 1.550 . S
O180 C186 1.412 . S
H181 C179 0.973 . S
C182 H175 0.929 . S
C182 C183 1.400 . S
C182 C184 1.364 . S
C183 C182 1.400 . S
C183 C187 1.377 . S
C184 C182 1.364 . S
C184 C185 1.374 . S
C185 H176 0.930 . S
C185 C184 1.374 . S
C185 C186 1.383 . S
C186 O180 1.412 . S
C186 C185 1.383 . S
C186 C187 1.394 . S
C187 H177 0.929 . S
C187 C183 1.377 . S
C187 C186 1.394 . S
C188 C189 1.363 . S
C188 C194 1.379 1_565 S
C188 N196 1.356 . S
C189 C188 1.363 . S
C189 C195 1.363 . S
C190 C191 1.363 1_565 S
C190 C195 1.379 . S
C190 N197 1.356 . S
C191 C190 1.363 1_545 S
C191 C194 1.363 . S
N192 C194 1.356 . S
N192 H204 0.984 . S
N192 H205 0.985 . S
N193 C195 1.356 . S
N193 H198 0.984 . S
N193 H199 0.985 . S
C194 C188 1.379 1_545 S
C194 C191 1.363 . S
C194 N192 1.356 . S
C195 C189 1.363 . S
C195 C190 1.379 . S
C195 N193 1.356 . S
N196 C188 1.356 . S
N196 H202 0.984 1_565 S
N196 H203 0.984 . S
N197 C190 1.356 . S
N197 H200 0.984 . S
N197 H201 0.985 . S
H198 N193 0.984 . S
H199 N193 0.985 . S
H200 N197 0.984 . S
H201 N197 0.985 . S
H202 N196 0.984 1_545 S
H203 N196 0.984 . S
H204 N192 0.984 . S
H205 N192 0.985 . S
C206 C207 1.363 . S
C206 C212 1.379 . S
C206 N214 1.356 . S
C207 C206 1.363 . S
C207 C213 1.363 . S
C208 C209 1.363 . S
C208 C213 1.379 . S
C208 N215 1.356 . S
C209 C208 1.363 . S
C209 C212 1.363 . S
N210 C212 1.356 . S
N210 H222 0.984 . S
N210 H223 0.985 . S
N211 C213 1.356 . S
N211 H216 0.984 . S
N211 H217 0.985 . S
C212 C206 1.379 . S
C212 C209 1.363 . S
C212 N210 1.356 . S
C213 C207 1.363 . S
C213 C208 1.379 . S
C213 N211 1.356 . S
N214 C206 1.356 . S
N214 H220 0.984 . S
N214 H221 0.984 . S
N215 C208 1.356 . S
N215 H218 0.984 . S
N215 H219 0.985 . S
H216 N211 0.984 . S
H217 N211 0.985 . S
H218 N215 0.984 . S
H219 N215 0.985 . S
H220 N214 0.984 . S
H221 N214 0.984 . S
H222 N210 0.984 . S
H223 N210 0.985 . S
C224 C225 1.363 . S
C224 C230 1.379 1_545 S
C224 N232 1.356 . S
C225 C224 1.363 . S
C225 C231 1.363 1_545 S
C226 C227 1.363 . S
C226 C231 1.379 . S
C226 N233 1.356 . S
C227 C226 1.363 . S
C227 C230 1.363 . S
N228 C230 1.356 . S
N228 H240 0.984 . S
N228 H241 0.985 . S
N229 C231 1.356 1_545 S
N229 H234 0.984 . S
N229 H235 0.985 1_554 S
C230 C224 1.379 1_565 S
C230 C227 1.363 . S
C230 N228 1.356 . S
C231 C225 1.363 1_565 S
C231 C226 1.379 . S
C231 N229 1.356 1_565 S
N232 C224 1.356 . S
N232 H238 0.984 . S
N232 H239 0.984 . S
N233 C226 1.356 . S
N233 H236 0.984 . S
N233 H237 0.985 . S
H234 N229 0.984 . S
H235 N229 0.985 1_556 S
H236 N233 0.984 . S
H237 N233 0.985 . S
H238 N232 0.984 . S
H239 N232 0.984 . S
H240 N228 0.984 . S
H241 N228 0.985 . S
C242 C243 1.363 . S
C242 C248 1.379 . S
C242 N250 1.356 . S
C243 C242 1.363 . S
C243 C249 1.363 . S
C244 C245 1.363 . S
C244 C249 1.379 . S
C244 N251 1.356 . S
C245 C244 1.363 . S
C245 C248 1.363 . S
N246 C248 1.356 . S
N246 H258 0.984 . S
N246 H259 0.985 . S
N247 C249 1.356 . S
N247 H252 0.984 . S
N247 H253 0.985 . S
C248 C242 1.379 . S
C248 C245 1.363 . S
C248 N246 1.356 . S
C249 C243 1.363 . S
C249 C244 1.379 . S
C249 N247 1.356 . S
N250 C242 1.356 . S
N250 H256 0.984 . S
N250 H257 0.984 . S
N251 C244 1.356 . S
N251 H254 0.984 . S
N251 H255 0.985 . S
H252 N247 0.984 . S
H253 N247 0.985 . S
H254 N251 0.984 . S
H255 N251 0.985 . S
H256 N250 0.984 . S
H257 N250 0.984 . S
H258 N246 0.984 . S
H259 N246 0.985 . S
C260 C261 1.363 . S
C260 C266 1.379 . S
C260 N268 1.356 . S
C261 C260 1.363 . S
C261 C267 1.363 . S
C262 C263 1.363 . S
C262 C267 1.379 . S
C262 N269 1.356 . S
C263 C262 1.363 . S
C263 C266 1.363 . S
N264 C266 1.356 . S
N264 H276 0.984 . S
N264 H277 0.985 . S
N265 C267 1.356 . S
N265 H270 0.984 . S
N265 H271 0.985 . S
C266 C260 1.379 . S
C266 C263 1.363 . S
C266 N264 1.356 . S
C267 C261 1.363 . S
C267 C262 1.379 . S
C267 N265 1.356 . S
N268 C260 1.356 . S
N268 H274 0.984 . S
N268 H275 0.984 . S
N269 C262 1.356 . S
N269 H272 0.984 . S
N269 H273 0.985 . S
H270 N265 0.984 . S
H271 N265 0.985 . S
H272 N269 0.984 . S
H273 N269 0.985 . S
H274 N268 0.984 . S
H275 N268 0.984 . S
H276 N264 0.984 . S
H277 N264 0.985 . S
C278 C279 1.363 . S
C278 C284 1.379 1_655 S
C278 N286 1.356 . S
C279 C278 1.363 . S
C279 C285 1.363 1_655 S
C280 C281 1.363 . S
C280 C285 1.379 . S
C280 N287 1.356 . S
C281 C280 1.363 . S
C281 C284 1.363 . S
N282 C284 1.356 . S
N282 H294 0.984 . S
N282 H295 0.985 . S
N283 C285 1.356 . S
N283 H288 0.984 1_455 S
N283 H289 0.985 . S
C284 C278 1.379 1_455 S
C284 C281 1.363 . S
C284 N282 1.356 . S
C285 C279 1.363 1_455 S
C285 C280 1.379 . S
C285 N283 1.356 . S
N286 C278 1.356 . S
N286 H292 0.984 . S
N286 H293 0.984 . S
N287 C280 1.356 . S
N287 H290 0.984 . S
N287 H291 0.985 . S
H288 N283 0.984 1_655 S
H289 N283 0.985 . S
H290 N287 0.984 . S
H291 N287 0.985 . S
H292 N286 0.984 . S
H293 N286 0.984 . S
H294 N282 0.984 . S
H295 N282 0.985 . S
C296 C297 1.363 . S
C296 C302 1.379 . S
C296 N304 1.356 . S
C297 C296 1.363 . S
C297 C303 1.363 . S
C298 C299 1.363 . S
C298 C303 1.379 . S
C298 N305 1.356 . S
C299 C298 1.363 . S
C299 C302 1.363 . S
N300 C302 1.356 . S
N300 H312 0.984 . S
N300 H313 0.985 . S
N301 C303 1.356 . S
N301 H306 0.984 . S
N301 H307 0.985 . S
C302 C296 1.379 . S
C302 C299 1.363 . S
C302 N300 1.356 . S
C303 C297 1.363 . S
C303 C298 1.379 . S
C303 N301 1.356 . S
N304 C296 1.356 . S
N304 H310 0.984 . S
N304 H311 0.984 . S
N305 C298 1.356 . S
N305 H308 0.984 . S
N305 H309 0.985 . S
H306 N301 0.984 . S
H307 N301 0.985 . S
H308 N305 0.984 . S
H309 N305 0.985 . S
H310 N304 0.984 . S
H311 N304 0.984 . S
H312 N300 0.984 . S
H313 N300 0.985 . S
C314 C315 1.363 1_655 S
C314 C320 1.379 . S
C314 N322 1.356 1_655 S
C315 C314 1.363 1_455 S
C315 C321 1.363 . S
C316 C317 1.363 . S
C316 C321 1.379 1_655 S
C316 N323 1.356 . S
C317 C316 1.363 . S
C317 C320 1.363 . S
N318 C320 1.356 . S
N318 H330 0.984 . S
N318 H331 0.985 . S
N319 C321 1.356 . S
N319 H324 0.984 . S
N319 H325 0.985 . S
C320 C314 1.379 . S
C320 C317 1.363 . S
C320 N318 1.356 . S
C321 C315 1.363 . S
C321 C316 1.379 1_455 S
C321 N319 1.356 . S
N322 C314 1.356 1_455 S
N322 H328 0.984 . S
N322 H329 0.984 . S
N323 C316 1.356 . S
N323 H326 0.984 . S
N323 H327 0.985 . S
H324 N319 0.984 . S
H325 N319 0.985 . S
H326 N323 0.984 . S
H327 N323 0.985 . S
H328 N322 0.984 . S
H329 N322 0.984 . S
H330 N318 0.984 . S
H331 N318 0.985 . S
C332 C333 1.363 . S
C332 C338 1.379 1_545 S
C332 N340 1.356 . S
C333 C332 1.363 . S
C333 C339 1.363 1_545 S
C334 C335 1.363 . S
C334 C339 1.379 . S
C334 N341 1.356 . S
C335 C334 1.363 . S
C335 C338 1.363 . S
N336 C338 1.356 . S
N336 H348 0.984 . S
N336 H349 0.985 . S
N337 C339 1.356 . S
N337 H342 0.984 1_565 S
N337 H343 0.985 . S
C338 C332 1.379 1_565 S
C338 C335 1.363 . S
C338 N336 1.356 . S
C339 C333 1.363 1_565 S
C339 C334 1.379 . S
C339 N337 1.356 . S
N340 C332 1.356 . S
N340 H346 0.984 . S
N340 H347 0.984 . S
N341 C334 1.356 . S
N341 H344 0.984 . S
N341 H345 0.985 . S
H342 N337 0.984 1_545 S
H343 N337 0.985 . S
H344 N341 0.984 . S
H345 N341 0.985 . S
H346 N340 0.984 . S
H347 N340 0.984 . S
H348 N336 0.984 . S
H349 N336 0.985 . S
C350 C351 1.363 . S
C350 C356 1.379 . S
C350 N358 1.356 . S
C351 C350 1.363 . S
C351 C357 1.363 . S
C352 C353 1.363 . S
C352 C357 1.379 . S
C352 N359 1.356 . S
C353 C352 1.363 . S
C353 C356 1.363 . S
N354 C356 1.356 . S
N354 H366 0.984 . S
N354 H367 0.985 . S
N355 C357 1.356 . S
N355 H360 0.984 . S
N355 H361 0.985 . S
C356 C350 1.379 . S
C356 C353 1.363 . S
C356 N354 1.356 . S
C357 C351 1.363 . S
C357 C352 1.379 . S
C357 N355 1.356 . S
N358 C350 1.356 . S
N358 H364 0.984 . S
N358 H365 0.984 . S
N359 C352 1.356 . S
N359 H362 0.984 . S
N359 H363 0.985 . S
H360 N355 0.984 . S
H361 N355 0.985 . S
H362 N359 0.984 . S
H363 N359 0.985 . S
H364 N358 0.984 . S
H365 N358 0.984 . S
H366 N354 0.984 . S
H367 N354 0.985 . S
C368 C369 1.363 . S
C368 C374 1.379 . S
C368 N376 1.356 1_545 S
C369 C368 1.363 . S
C369 C375 1.363 . S
C370 C371 1.363 . S
C370 C375 1.379 . S
C370 N377 1.356 . S
C371 C370 1.363 . S
C371 C374 1.363 . S
N372 C374 1.356 . S
N372 H384 0.984 . S
N372 H385 0.985 . S
N373 C375 1.356 . S
N373 H378 0.985 1_545 S
N373 H379 0.985 1_556 S
C374 C368 1.379 . S
C374 C371 1.363 . S
C374 N372 1.356 . S
C375 C369 1.363 . S
C375 C370 1.379 . S
C375 N373 1.356 . S
N376 C368 1.356 1_565 S
N376 H382 0.984 . S
N376 H383 0.984 . S
N377 C370 1.356 . S
N377 H380 0.984 . S
N377 H381 0.985 . S
H378 N373 0.985 1_565 S
H379 N373 0.985 1_554 S
H380 N377 0.984 . S
H381 N377 0.985 . S
H382 N376 0.984 . S
H383 N376 0.984 . S
H384 N372 0.984 . S
H385 N372 0.985 . S
C386 C387 1.363 . S
C386 C392 1.379 . S
C386 N394 1.356 . S
C387 C386 1.363 . S
C387 C393 1.363 . S
C388 C389 1.363 . S
C388 C393 1.379 . S
C388 N395 1.356 . S
C389 C388 1.363 . S
C389 C392 1.363 . S
N390 C392 1.356 . S
N390 H402 0.984 . S
N390 H403 0.985 . S
N391 C393 1.356 . S
N391 H396 0.984 . S
N391 H397 0.985 . S
C392 C386 1.379 . S
C392 C389 1.363 . S
C392 N390 1.356 . S
C393 C387 1.363 . S
C393 C388 1.379 . S
C393 N391 1.356 . S
N394 C386 1.356 . S
N394 H400 0.984 . S
N394 H401 0.984 . S
N395 C388 1.356 . S
N395 H398 0.984 . S
N395 H399 0.985 . S
H396 N391 0.984 . S
H397 N391 0.985 . S
H398 N395 0.984 . S
H399 N395 0.985 . S
H400 N394 0.984 . S
H401 N394 0.984 . S
H402 N390 0.984 . S
H403 N390 0.985 . S
C404 C405 1.363 . S
C404 C410 1.379 . S
C404 N412 1.356 . S
C405 C404 1.363 . S
C405 C411 1.363 . S
C406 C407 1.363 . S
C406 C411 1.379 . S
C406 N413 1.356 . S
C407 C406 1.363 . S
C407 C410 1.363 . S
N408 C410 1.356 . S
N408 H420 0.984 . S
N408 H421 0.985 . S
N409 C411 1.356 . S
N409 H414 0.984 . S
N409 H415 0.985 . S
C410 C404 1.379 . S
C410 C407 1.363 . S
C410 N408 1.356 . S
C411 C405 1.363 . S
C411 C406 1.379 . S
C411 N409 1.356 . S
N412 C404 1.356 . S
N412 H418 0.984 . S
N412 H419 0.984 . S
N413 C406 1.356 . S
N413 H416 0.984 . S
N413 H417 0.985 . S
H414 N409 0.984 . S
H415 N409 0.985 . S
H416 N413 0.984 . S
H417 N413 0.985 . S
H418 N412 0.984 . S
H419 N412 0.984 . S
H420 N408 0.984 . S
H421 N408 0.985 . S
C422 C423 1.363 . S
C422 C428 1.379 . S
C422 N430 1.356 1_655 S
C423 C422 1.363 . S
C423 C429 1.363 . S
C424 C425 1.363 . S
C424 C429 1.379 . S
C424 N431 1.356 . S
C425 C424 1.363 . S
C425 C428 1.363 . S
N426 C428 1.356 . S
N426 H438 0.984 . S
N426 H439 0.985 . S
N427 C429 1.356 . S
N427 H432 0.984 1_655 S
N427 H433 0.985 . S
C428 C422 1.379 . S
C428 C425 1.363 . S
C428 N426 1.356 . S
C429 C423 1.363 . S
C429 C424 1.379 . S
C429 N427 1.356 . S
N430 C422 1.356 1_455 S
N430 H436 0.984 . S
N430 H437 0.984 . S
N431 C424 1.356 . S
N431 H434 0.984 . S
N431 H435 0.985 . S
H432 N427 0.984 1_455 S
H433 N427 0.985 . S
H434 N431 0.984 . S
H435 N431 0.985 . S
H436 N430 0.984 . S
H437 N430 0.984 . S
H438 N426 0.984 . S
H439 N426 0.985 . S
C440 C441 1.363 . S
C440 C446 1.379 . S
C440 N448 1.356 . S
C441 C440 1.363 . S
C441 C447 1.363 . S
C442 C443 1.363 . S
C442 C447 1.379 . S
C442 N449 1.356 . S
C443 C442 1.363 . S
C443 C446 1.363 . S
N444 C446 1.356 . S
N444 H456 0.984 . S
N444 H457 0.985 . S
N445 C447 1.356 . S
N445 H450 0.984 . S
N445 H451 0.985 . S
C446 C440 1.379 . S
C446 C443 1.363 . S
C446 N444 1.356 . S
C447 C441 1.363 . S
C447 C442 1.379 . S
C447 N445 1.356 . S
N448 C440 1.356 . S
N448 H454 0.984 . S
N448 H455 0.984 . S
N449 C442 1.356 . S
N449 H452 0.984 . S
N449 H453 0.985 . S
H450 N445 0.984 . S
H451 N445 0.985 . S
H452 N449 0.984 . S
H453 N449 0.985 . S
H454 N448 0.984 . S
H455 N448 0.984 . S
H456 N444 0.984 . S
H457 N444 0.985 . S
C458 C459 1.363 . S
C458 C464 1.379 . S
C458 N466 1.356 . S
C459 C458 1.363 . S
C459 C465 1.363 . S
C460 C461 1.363 . S
C460 C465 1.379 . S
C460 N467 1.356 . S
C461 C460 1.363 . S
C461 C464 1.363 . S
N462 C464 1.356 . S
N462 H474 0.984 . S
N462 H475 0.985 . S
N463 C465 1.356 1_655 S
N463 H468 0.984 . S
N463 H469 0.985 . S
C464 C458 1.379 . S
C464 C461 1.363 . S
C464 N462 1.356 . S
C465 C459 1.363 . S
C465 C460 1.379 . S
C465 N463 1.356 1_455 S
N466 C458 1.356 . S
N466 H472 0.984 . S
N466 H473 0.984 1_455 S
N467 C460 1.356 . S
N467 H470 0.984 . S
N467 H471 0.985 . S
H468 N463 0.984 . S
H469 N463 0.985 . S
H470 N467 0.984 . S
H471 N467 0.985 . S
H472 N466 0.984 . S
H473 N466 0.984 1_655 S
H474 N462 0.984 . S
H475 N462 0.985 . S
C476 C477 1.363 . S
C476 C482 1.379 . S
C476 N484 1.356 . S
C477 C476 1.363 . S
C477 C483 1.363 . S
C478 C479 1.363 . S
C478 C483 1.379 . S
C478 N485 1.356 . S
C479 C478 1.363 . S
C479 C482 1.363 . S
N480 C482 1.356 . S
N480 H492 0.984 . S
N480 H493 0.985 . S
N481 C483 1.356 . S
N481 H486 0.984 . S
N481 H487 0.985 . S
C482 C476 1.379 . S
C482 C479 1.363 . S
C482 N480 1.356 . S
C483 C477 1.363 . S
C483 C478 1.379 . S
C483 N481 1.356 . S
N484 C476 1.356 . S
N484 H490 0.984 . S
N484 H491 0.984 . S
N485 C478 1.356 . S
N485 H488 0.984 . S
N485 H489 0.985 . S
H486 N481 0.984 . S
H487 N481 0.985 . S
H488 N485 0.984 . S
H489 N485 0.985 . S
H490 N484 0.984 . S
H491 N484 0.984 . S
H492 N480 0.984 . S
H493 N480 0.985 . S
C494 C495 1.363 . S
C494 C500 1.379 . S
C494 N502 1.356 . S
C495 C494 1.363 . S
C495 C501 1.363 . S
C496 C497 1.363 . S
C496 C501 1.379 . S
C496 N503 1.356 . S
C497 C496 1.363 . S
C497 C500 1.363 . S
N498 C500 1.356 . S
N498 H510 0.984 . S
N498 H511 0.985 . S
N499 C501 1.356 . S
N499 H504 0.984 . S
N499 H505 0.985 . S
C500 C494 1.379 . S
C500 C497 1.363 . S
C500 N498 1.356 . S
C501 C495 1.363 . S
C501 C496 1.379 . S
C501 N499 1.356 . S
N502 C494 1.356 . S
N502 H508 0.984 . S
N502 H509 0.984 . S
N503 C496 1.356 . S
N503 H506 0.984 . S
N503 H507 0.985 . S
H504 N499 0.984 . S
H505 N499 0.985 . S
H506 N503 0.984 . S
H507 N503 0.985 . S
H508 N502 0.984 . S
H509 N502 0.984 . S
H510 N498 0.984 . S
H511 N498 0.985 . S
C512 C513 1.363 . S
C512 C518 1.379 . S
C512 N520 1.356 . S
C513 C512 1.363 . S
C513 C519 1.363 . S
C514 C515 1.363 . S
C514 C519 1.379 . S
C514 N521 1.356 . S
C515 C514 1.363 . S
C515 C518 1.363 . S
N516 C518 1.356 . S
N516 H528 0.984 . S
N516 H529 0.985 . S
N517 C519 1.356 . S
N517 H522 0.984 . S
N517 H523 0.985 . S
C518 C512 1.379 . S
C518 C515 1.363 . S
C518 N516 1.356 . S
C519 C513 1.363 . S
C519 C514 1.379 . S
C519 N517 1.356 . S
N520 C512 1.356 . S
N520 H526 0.984 . S
N520 H527 0.984 . S
N521 C514 1.356 . S
N521 H524 0.984 . S
N521 H525 0.985 . S
H522 N517 0.984 . S
H523 N517 0.985 . S
H524 N521 0.984 . S
H525 N521 0.985 . S
H526 N520 0.984 . S
H527 N520 0.984 . S
H528 N516 0.984 . S
H529 N516 0.985 . S
C530 C531 1.363 . S
C530 C536 1.379 . S
C530 N538 1.356 . S
C531 C530 1.363 . S
C531 C537 1.363 . S
C532 C533 1.363 . S
C532 C537 1.379 . S
C532 N539 1.356 . S
C533 C532 1.363 . S
C533 C536 1.363 . S
N534 C536 1.356 . S
N534 H546 0.984 . S
N534 H547 0.985 . S
N535 C537 1.356 . S
N535 H540 0.984 . S
N535 H541 0.985 . S
C536 C530 1.379 . S
C536 C533 1.363 . S
C536 N534 1.356 . S
C537 C531 1.363 . S
C537 C532 1.379 . S
C537 N535 1.356 . S
N538 C530 1.356 . S
N538 H544 0.984 . S
N538 H545 0.984 . S
N539 C532 1.356 . S
N539 H542 0.984 . S
N539 H543 0.985 . S
H540 N535 0.984 . S
H541 N535 0.985 . S
H542 N539 0.984 . S
H543 N539 0.985 . S
H544 N538 0.984 . S
H545 N538 0.984 . S
H546 N534 0.984 . S
H547 N534 0.985 . S
C548 C549 1.363 . S
C548 C554 1.379 . S
C548 N556 1.356 . S
C549 C548 1.363 . S
C549 C555 1.363 . S
C550 C551 1.363 . S
C550 C555 1.379 . S
C550 N557 1.356 . S
C551 C550 1.363 . S
C551 C554 1.363 . S
N552 C554 1.356 . S
N552 H564 0.984 . S
N552 H565 0.985 . S
N553 C555 1.356 . S
N553 H558 0.984 . S
N553 H559 0.985 . S
C554 C548 1.379 . S
C554 C551 1.363 . S
C554 N552 1.356 . S
C555 C549 1.363 . S
C555 C550 1.379 . S
C555 N553 1.356 . S
N556 C548 1.356 . S
N556 H562 0.984 . S
N556 H563 0.984 . S
N557 C550 1.356 . S
N557 H560 0.984 . S
N557 H561 0.985 . S
H558 N553 0.984 . S
H559 N553 0.985 . S
H560 N557 0.984 . S
H561 N557 0.985 . S
H562 N556 0.984 . S
H563 N556 0.984 . S
H564 N552 0.984 . S
H565 N552 0.985 . S
C566 C567 1.363 . S
C566 C572 1.379 . S
C566 N574 1.356 . S
C567 C566 1.363 . S
C567 C573 1.363 . S
C568 C569 1.363 . S
C568 C573 1.379 . S
C568 N575 1.356 . S
C569 C568 1.363 . S
C569 C572 1.363 . S
N570 C572 1.356 . S
N570 H582 0.984 . S
N570 H583 0.985 . S
N571 C573 1.356 1_554 S
N571 H576 0.984 . S
N571 H577 0.985 . S
C572 C566 1.379 . S
C572 C569 1.363 . S
C572 N570 1.356 . S
C573 C567 1.363 . S
C573 C568 1.379 . S
C573 N571 1.356 1_556 S
N574 C566 1.356 . S
N574 H580 0.984 . S
N574 H581 0.984 . S
N575 C568 1.356 . S
N575 H578 0.984 . S
N575 H579 0.985 . S
H576 N571 0.984 . S
H577 N571 0.985 . S
H578 N575 0.984 . S
H579 N575 0.985 . S
H580 N574 0.984 . S
H581 N574 0.984 . S
H582 N570 0.984 . S
H583 N570 0.985 . S
C584 C585 1.363 . S
C584 C590 1.379 . S
C584 N592 1.356 . S
C585 C584 1.363 . S
C585 C591 1.363 . S
C586 C587 1.363 . S
C586 C591 1.379 . S
C586 N593 1.356 . S
C587 C586 1.363 . S
C587 C590 1.363 . S
N588 C590 1.356 . S
N588 H600 0.984 . S
N588 H601 0.985 . S
N589 C591 1.356 . S
N589 H594 0.984 . S
N589 H595 0.985 . S
C590 C584 1.379 . S
C590 C587 1.363 . S
C590 N588 1.356 . S
C591 C585 1.363 . S
C591 C586 1.379 . S
C591 N589 1.356 . S
N592 C584 1.356 . S
N592 H598 0.984 . S
N592 H599 0.984 . S
N593 C586 1.356 . S
N593 H596 0.984 . S
N593 H597 0.985 . S
H594 N589 0.984 . S
H595 N589 0.985 . S
H596 N593 0.984 . S
H597 N593 0.985 . S
H598 N592 0.984 . S
H599 N592 0.984 . S
H600 N588 0.984 . S
H601 N588 0.985 . S
C602 C603 1.363 . S
C602 C608 1.379 . S
C602 N610 1.356 . S
C603 C602 1.363 . S
C603 C609 1.363 . S
C604 C605 1.363 . S
C604 C609 1.379 . S
C604 N611 1.356 . S
C605 C604 1.363 . S
C605 C608 1.363 . S
N606 C608 1.356 . S
N606 H618 0.984 . S
N606 H619 0.985 . S
N607 C609 1.356 . S
N607 H612 0.984 . S
N607 H613 0.985 . S
C608 C602 1.379 . S
C608 C605 1.363 . S
C608 N606 1.356 . S
C609 C603 1.363 . S
C609 C604 1.379 . S
C609 N607 1.356 . S
N610 C602 1.356 . S
N610 H616 0.984 . S
N610 H617 0.984 . S
N611 C604 1.356 . S
N611 H614 0.984 . S
N611 H615 0.985 . S
H612 N607 0.984 . S
H613 N607 0.985 . S
H614 N611 0.984 . S
H615 N611 0.985 . S
H616 N610 0.984 . S
H617 N610 0.984 . S
H618 N606 0.984 . S
H619 N606 0.985 . S
C189 C7 1.003 . S
C191 C92 1.055 . S
C207 C25 0.871 . S
C209 C105 0.900 . S
C225 C46 1.062 . S
C227 C119 1.056 . S
C245 C132 0.925 . S
C243 C70 0.892 . S
C263 C144 0.947 . S
C261 C28 0.935 . S
C279 C49 1.026 . S
C281 C158 1.047 . S
C297 C67 0.972 . S
C299 C170 1.021 . S
C315 C4 0.889 . S
C317 C184 0.927 . S
C333 C58 1.485 . S
C335 C183 1.572 . S
C353 C145 1.708 . S
C351 C66 1.689 . S
C371 C157 1.623 . S
C369 C3 1.548 1_545 S
C387 C37 1.597 . S
C389 C171 1.680 . S
C407 C106 1.736 . S
C405 C79 1.686 . S
C423 C16 1.525 1_655 S
C425 C118 1.576 . S
C443 C131 1.591 . S
C441 C24 1.507 . S
C461 C93 1.684 . S
C459 C45 1.603 1_455 S
C479 C166 1.382 . S
C477 C19 1.319 . S
C497 C179 1.311 . S
C495 C41 1.250 . S
C513 C62 1.267 . S
C515 C140 1.363 . S
C533 C153 1.489 . S
C531 C82 1.310 . S
C551 C114 1.418 . S
C549 C40 1.271 . S
C567 C61 1.283 . S
C569 C127 1.344 . S
C587 C88 1.410 . S
C585 C83 1.348 . S
C605 C101 1.346 . S
C603 C20 1.247 . S
