# Generated by pormake.
# Topology ptr, (4,4)-cn, num edge types: 1
# Building blocks:
#     Node 0, Type 0, BuildingBlock: QUQFOY_clean_sbu_3, # of connection points: 4
#     Node 1, Type 0, BuildingBlock: QUQFOY_clean_sbu_3, # of connection points: 4
#     Node 2, Type 0, BuildingBlock: QUQFOY_clean_sbu_3, # of connection points: 4
#     Node 3, Type 0, BuildingBlock: QUQFOY_clean_sbu_3, # of connection points: 4
#     Node 4, Type 0, BuildingBlock: QUQFOY_clean_sbu_3, # of connection points: 4
#     Node 5, Type 0, BuildingBlock: QUQFOY_clean_sbu_3, # of connection points: 4
#     Node 6, Type 0, BuildingBlock: QUQFOY_clean_sbu_3, # of connection points: 4
#     Node 7, Type 0, BuildingBlock: QUQFOY_clean_sbu_3, # of connection points: 4
#     Node 8, Type 0, BuildingBlock: QUQFOY_clean_sbu_3, # of connection points: 4
#     Node 9, Type 0, BuildingBlock: QUQFOY_clean_sbu_3, # of connection points: 4
#     Node 10, Type 0, BuildingBlock: QUQFOY_clean_sbu_3, # of connection points: 4
#     Node 11, Type 0, BuildingBlock: QUQFOY_clean_sbu_3, # of connection points: 4
#     Node 12, Type 0, BuildingBlock: QUQFOY_clean_sbu_3, # of connection points: 4
#     Node 13, Type 0, BuildingBlock: QUQFOY_clean_sbu_3, # of connection points: 4
#     Node 14, Type 0, BuildingBlock: QUQFOY_clean_sbu_3, # of connection points: 4
#     Node 15, Type 0, BuildingBlock: QUQFOY_clean_sbu_3, # of connection points: 4
#     Node 16, Type 0, BuildingBlock: QUQFOY_clean_sbu_3, # of connection points: 4
#     Node 17, Type 0, BuildingBlock: QUQFOY_clean_sbu_3, # of connection points: 4
#     Node 18, Type 1, BuildingBlock: NAHDIM_clean_linker_0, # of connection points: 4
#     Node 19, Type 1, BuildingBlock: NAHDIM_clean_linker_0, # of connection points: 4
#     Node 20, Type 1, BuildingBlock: NAHDIM_clean_linker_0, # of connection points: 4
#     Node 21, Type 1, BuildingBlock: NAHDIM_clean_linker_0, # of connection points: 4
#     Node 22, Type 1, BuildingBlock: NAHDIM_clean_linker_0, # of connection points: 4
#     Node 23, Type 1, BuildingBlock: NAHDIM_clean_linker_0, # of connection points: 4
#     Node 24, Type 1, BuildingBlock: NAHDIM_clean_linker_0, # of connection points: 4
#     Node 25, Type 1, BuildingBlock: NAHDIM_clean_linker_0, # of connection points: 4
#     Node 26, Type 1, BuildingBlock: NAHDIM_clean_linker_0, # of connection points: 4
#     Node 27, Type 1, BuildingBlock: NAHDIM_clean_linker_0, # of connection points: 4
#     Node 28, Type 1, BuildingBlock: NAHDIM_clean_linker_0, # of connection points: 4
#     Node 29, Type 1, BuildingBlock: NAHDIM_clean_linker_0, # of connection points: 4
#     Node 30, Type 1, BuildingBlock: NAHDIM_clean_linker_0, # of connection points: 4
#     Node 31, Type 1, BuildingBlock: NAHDIM_clean_linker_0, # of connection points: 4
#     Node 32, Type 1, BuildingBlock: NAHDIM_clean_linker_0, # of connection points: 4
#     Node 33, Type 1, BuildingBlock: NAHDIM_clean_linker_0, # of connection points: 4
#     Node 34, Type 1, BuildingBlock: NAHDIM_clean_linker_0, # of connection points: 4
#     Node 35, Type 1, BuildingBlock: NAHDIM_clean_linker_0, # of connection points: 4
#     Edge 36, Type (0, 1), BuildingBlock: KIFKEQ_clean_linker_1, # of connection points: 2
#     Edge 37, Type (0, 1), BuildingBlock: KIFKEQ_clean_linker_1, # of connection points: 2
#     Edge 38, Type (0, 1), BuildingBlock: KIFKEQ_clean_linker_1, # of connection points: 2
#     Edge 39, Type (0, 1), BuildingBlock: KIFKEQ_clean_linker_1, # of connection points: 2
#     Edge 40, Type (0, 1), BuildingBlock: KIFKEQ_clean_linker_1, # of connection points: 2
#     Edge 41, Type (0, 1), BuildingBlock: KIFKEQ_clean_linker_1, # of connection points: 2
#     Edge 42, Type (0, 1), BuildingBlock: KIFKEQ_clean_linker_1, # of connection points: 2
#     Edge 43, Type (0, 1), BuildingBlock: KIFKEQ_clean_linker_1, # of connection points: 2
#     Edge 44, Type (0, 1), BuildingBlock: KIFKEQ_clean_linker_1, # of connection points: 2
#     Edge 45, Type (0, 1), BuildingBlock: KIFKEQ_clean_linker_1, # of connection points: 2
#     Edge 46, Type (0, 1), BuildingBlock: KIFKEQ_clean_linker_1, # of connection points: 2
#     Edge 47, Type (0, 1), BuildingBlock: KIFKEQ_clean_linker_1, # of connection points: 2
#     Edge 48, Type (0, 1), BuildingBlock: KIFKEQ_clean_linker_1, # of connection points: 2
#     Edge 49, Type (0, 1), BuildingBlock: KIFKEQ_clean_linker_1, # of connection points: 2
#     Edge 50, Type (0, 1), BuildingBlock: KIFKEQ_clean_linker_1, # of connection points: 2
#     Edge 51, Type (0, 1), BuildingBlock: KIFKEQ_clean_linker_1, # of connection points: 2
#     Edge 52, Type (0, 1), BuildingBlock: KIFKEQ_clean_linker_1, # of connection points: 2
#     Edge 53, Type (0, 1), BuildingBlock: KIFKEQ_clean_linker_1, # of connection points: 2
#     Edge 54, Type (0, 1), BuildingBlock: KIFKEQ_clean_linker_1, # of connection points: 2
#     Edge 55, Type (0, 1), BuildingBlock: KIFKEQ_clean_linker_1, # of connection points: 2
#     Edge 56, Type (0, 1), BuildingBlock: KIFKEQ_clean_linker_1, # of connection points: 2
#     Edge 57, Type (0, 1), BuildingBlock: KIFKEQ_clean_linker_1, # of connection points: 2
#     Edge 58, Type (0, 1), BuildingBlock: KIFKEQ_clean_linker_1, # of connection points: 2
#     Edge 59, Type (0, 1), BuildingBlock: KIFKEQ_clean_linker_1, # of connection points: 2
#     Edge 60, Type (0, 1), BuildingBlock: KIFKEQ_clean_linker_1, # of connection points: 2
#     Edge 61, Type (0, 1), BuildingBlock: KIFKEQ_clean_linker_1, # of connection points: 2
#     Edge 62, Type (0, 1), BuildingBlock: KIFKEQ_clean_linker_1, # of connection points: 2
#     Edge 63, Type (0, 1), BuildingBlock: KIFKEQ_clean_linker_1, # of connection points: 2
#     Edge 64, Type (0, 1), BuildingBlock: KIFKEQ_clean_linker_1, # of connection points: 2
#     Edge 65, Type (0, 1), BuildingBlock: KIFKEQ_clean_linker_1, # of connection points: 2
#     Edge 66, Type (0, 1), BuildingBlock: KIFKEQ_clean_linker_1, # of connection points: 2
#     Edge 67, Type (0, 1), BuildingBlock: KIFKEQ_clean_linker_1, # of connection points: 2
#     Edge 68, Type (0, 1), BuildingBlock: KIFKEQ_clean_linker_1, # of connection points: 2
#     Edge 69, Type (0, 1), BuildingBlock: KIFKEQ_clean_linker_1, # of connection points: 2
#     Edge 70, Type (0, 1), BuildingBlock: KIFKEQ_clean_linker_1, # of connection points: 2
#     Edge 71, Type (0, 1), BuildingBlock: KIFKEQ_clean_linker_1, # of connection points: 2
#     Edge 72, Type (0, 1), BuildingBlock: KIFKEQ_clean_linker_1, # of connection points: 2
#     Edge 73, Type (0, 1), BuildingBlock: KIFKEQ_clean_linker_1, # of connection points: 2
#     Edge 74, Type (0, 1), BuildingBlock: KIFKEQ_clean_linker_1, # of connection points: 2
#     Edge 75, Type (0, 1), BuildingBlock: KIFKEQ_clean_linker_1, # of connection points: 2
#     Edge 76, Type (0, 1), BuildingBlock: KIFKEQ_clean_linker_1, # of connection points: 2
#     Edge 77, Type (0, 1), BuildingBlock: KIFKEQ_clean_linker_1, # of connection points: 2
#     Edge 78, Type (0, 1), BuildingBlock: KIFKEQ_clean_linker_1, # of connection points: 2
#     Edge 79, Type (0, 1), BuildingBlock: KIFKEQ_clean_linker_1, # of connection points: 2
#     Edge 80, Type (0, 1), BuildingBlock: KIFKEQ_clean_linker_1, # of connection points: 2
#     Edge 81, Type (0, 1), BuildingBlock: KIFKEQ_clean_linker_1, # of connection points: 2
#     Edge 82, Type (0, 1), BuildingBlock: KIFKEQ_clean_linker_1, # of connection points: 2
#     Edge 83, Type (0, 1), BuildingBlock: KIFKEQ_clean_linker_1, # of connection points: 2
#     Edge 84, Type (0, 1), BuildingBlock: KIFKEQ_clean_linker_1, # of connection points: 2
#     Edge 85, Type (0, 1), BuildingBlock: KIFKEQ_clean_linker_1, # of connection points: 2
#     Edge 86, Type (0, 1), BuildingBlock: KIFKEQ_clean_linker_1, # of connection points: 2
#     Edge 87, Type (0, 1), BuildingBlock: KIFKEQ_clean_linker_1, # of connection points: 2
#     Edge 88, Type (0, 1), BuildingBlock: KIFKEQ_clean_linker_1, # of connection points: 2
#     Edge 89, Type (0, 1), BuildingBlock: KIFKEQ_clean_linker_1, # of connection points: 2
#     Edge 90, Type (0, 1), BuildingBlock: KIFKEQ_clean_linker_1, # of connection points: 2
#     Edge 91, Type (0, 1), BuildingBlock: KIFKEQ_clean_linker_1, # of connection points: 2
#     Edge 92, Type (0, 1), BuildingBlock: KIFKEQ_clean_linker_1, # of connection points: 2
#     Edge 93, Type (0, 1), BuildingBlock: KIFKEQ_clean_linker_1, # of connection points: 2
#     Edge 94, Type (0, 1), BuildingBlock: KIFKEQ_clean_linker_1, # of connection points: 2
#     Edge 95, Type (0, 1), BuildingBlock: KIFKEQ_clean_linker_1, # of connection points: 2
#     Edge 96, Type (0, 1), BuildingBlock: KIFKEQ_clean_linker_1, # of connection points: 2
#     Edge 97, Type (0, 1), BuildingBlock: KIFKEQ_clean_linker_1, # of connection points: 2
#     Edge 98, Type (0, 1), BuildingBlock: KIFKEQ_clean_linker_1, # of connection points: 2
#     Edge 99, Type (0, 1), BuildingBlock: KIFKEQ_clean_linker_1, # of connection points: 2
#     Edge 100, Type (0, 1), BuildingBlock: KIFKEQ_clean_linker_1, # of connection points: 2
#     Edge 101, Type (0, 1), BuildingBlock: KIFKEQ_clean_linker_1, # of connection points: 2
#     Edge 102, Type (0, 1), BuildingBlock: KIFKEQ_clean_linker_1, # of connection points: 2
#     Edge 103, Type (0, 1), BuildingBlock: KIFKEQ_clean_linker_1, # of connection points: 2
#     Edge 104, Type (0, 1), BuildingBlock: KIFKEQ_clean_linker_1, # of connection points: 2
#     Edge 105, Type (0, 1), BuildingBlock: KIFKEQ_clean_linker_1, # of connection points: 2
#     Edge 106, Type (0, 1), BuildingBlock: KIFKEQ_clean_linker_1, # of connection points: 2
#     Edge 107, Type (0, 1), BuildingBlock: KIFKEQ_clean_linker_1, # of connection points: 2
# Relax obj value: 0.030
# Max RMSD: 0.171
# Mean RMSD: 0.059
data_MOF--net-ptr--node1-QUQFOY_clean_sbu_3--node2-NAHDIM_clean_linker_0--edge1-KIFKEQ_clean_linker_1
_symmetry_space_group_name_H-M    P1
_symmetry_Int_Tables_number       1
_symmetry_cell_setting            triclinic
loop_
_symmetry_equiv_pos_as_xyz
'x, y, z'
_cell_length_a     96.170151
_cell_length_b     96.217852
_cell_length_c     82.128964
_cell_angle_alpha  91.121145
_cell_angle_beta   89.930005
_cell_angle_gamma 120.66887
loop_
_atom_site_label
_atom_site_type_symbol
_atom_site_fract_x
_atom_site_fract_y
_atom_site_fract_z
_atom_type_partial_charge
C0 C 0.97362 0.31109 0.98988 0.0
O1 O 0.96516 0.31718 0.99426 0.0
Cd2 Cd 0.97714 0.34341 0.00787 0.0
O3 O 0.98861 0.31833 0.99337 0.0
Cd4 Cd 0.00968 0.34255 0.0077 0.0
C5 C 0.00682 0.36627 0.98019 0.0
O6 O 0.99473 0.34648 0.02981 0.0
O7 O 0.01849 0.36657 0.02409 0.0
O8 O 0.01551 0.3261 0.02465 0.0
C9 C 0.00625 0.3607 0.03327 0.0
O10 O 0.994 0.36289 0.98788 0.0
C11 C 0.02998 0.33157 0.0202 0.0
O12 O 0.01485 0.35942 0.98347 0.0
O13 O 0.0353 0.34217 0.00919 0.0
C14 C 0.65633 0.68308 0.03648 0.0
O15 O 0.64123 0.67704 0.03435 0.0
Cd16 Cd 0.6252 0.65329 0.01758 0.0
O17 O 0.66375 0.67701 0.02915 0.0
Cd18 Cd 0.65919 0.65545 0.00926 0.0
C19 C 0.63452 0.62705 0.03601 0.0
O20 O 0.63956 0.65789 0.99265 0.0
O21 O 0.64351 0.63834 0.986 0.0
O22 O 0.6849 0.67672 -0.00063 0.0
C23 C 0.63638 0.64607 0.98314 0.0
O24 O 0.62429 0.63129 0.03267 0.0
C25 C 0.6912 0.66803 0.99724 0.0
O26 O 0.64861 0.63432 0.02985 0.0
O27 O 0.68263 0.65322 0.0009 0.0
C28 C 0.30692 0.96678 0.0097 0.0
O29 O 0.31172 0.95761 0.004 0.0
Cd30 Cd 0.33974 0.96945 0.99672 0.0
O31 O 0.31613 0.98204 0.00938 0.0
Cd32 Cd 0.3425 0.00305 -0.00066 0.0
C33 C 0.35862 0.99397 0.0305 0.0
O34 O 0.34828 0.9899 0.97649 0.0
O35 O 0.36826 0.01189 0.98712 0.0
O36 O 0.33034 0.01352 0.98141 0.0
C37 C 0.36309 0.00102 0.97598 0.0
O38 O 0.35436 0.98106 0.02222 0.0
C39 C 0.33526 0.02683 0.98901 0.0
O40 O 0.35571 0.00467 0.02539 0.0
O41 O 0.34374 0.02935 0.00182 0.0
C42 C 0.96502 0.65945 0.99429 0.0
O43 O 0.95563 0.64525 -0.00076 0.0
Cd44 Cd 0.96649 0.63023 0.0118 0.0
O45 O 0.98007 0.66671 0.99756 0.0
Cd46 Cd -3e-05 0.66366 0.01354 0.0
C47 C 0.99718 0.63691 0.98505 0.0
O48 O 0.98285 0.64532 0.03466 0.0
O49 O 0.0067 0.64853 0.03204 0.0
O50 O 0.0043 0.68804 0.02672 0.0
C51 C 0.99344 0.6422 0.03967 0.0
O52 O 0.98367 0.62743 0.99169 0.0
C53 C 0.01951 0.69626 0.02504 0.0
O54 O 0.00569 0.6517 0.98965 0.0
O55 O 0.02609 0.68931 0.01771 0.0
C56 C 0.32087 0.34973 0.02033 0.0
O57 O 0.32666 0.3649 0.02099 0.0
Cd58 Cd 0.35172 0.38261 0.00774 0.0
O59 O 0.32813 0.3438 0.01249 0.0
Cd60 Cd 0.35186 0.35117 0.99532 0.0
C61 C 0.37692 0.37226 0.02702 0.0
O62 O 0.34978 0.37163 0.98068 0.0
O63 O 0.37147 0.37073 0.97618 0.0
O64 O 0.33168 0.32801 0.98005 0.0
C65 C 0.36272 0.37665 0.97272 0.0
O66 O 0.37245 0.38246 0.02474 0.0
C67 C 0.33918 0.32037 0.97924 0.0
O68 O 0.37088 0.35922 0.01848 0.0
O69 O 0.35326 0.32728 0.98564 0.0
C70 C 0.69484 0.03253 0.9973 0.0
O71 O 0.68945 0.04177 0.00097 0.0
Cd72 Cd 0.66316 0.03119 0.01314 0.0
O73 O 0.68678 0.01764 0.00079 0.0
Cd74 Cd 0.66165 0.99803 0.01439 0.0
C75 C 0.63904 0.00128 0.98519 0.0
O76 O 0.66 0.01483 0.03607 0.0
O77 O 0.63802 0.99219 0.03042 0.0
O78 O 0.67706 0.99088 0.03172 0.0
C79 C 0.64547 0.00462 0.03966 0.0
O80 O 0.64311 0.01472 0.99234 0.0
C81 C 0.6709 0.97634 0.02679 0.0
O82 O 0.64497 0.99274 0.98968 0.0
O83 O 0.66008 0.97147 0.01569 0.0
C84 C 0.63772 0.64826 0.31813 0.0
O85 O 0.62903 0.65466 0.31963 0.0
Cd86 Cd 0.63726 0.67909 0.33518 0.0
O87 O 0.65135 0.65447 0.32545 0.0
Cd88 Cd 0.66895 0.67716 0.34453 0.0
C89 C 0.67354 0.70468 0.31647 0.0
O90 O 0.64692 0.67575 0.36067 0.0
O91 O 0.6708 0.69573 0.36643 0.0
O92 O 0.67258 0.6566 0.35703 0.0
C93 C 0.65582 0.68813 0.36952 0.0
O94 O 0.65897 0.70049 0.31969 0.0
C95 C 0.68782 0.66509 0.35877 0.0
O96 O 0.68023 0.69762 0.32306 0.0
O97 O 0.69463 0.67944 0.35357 0.0
C98 C 0.32432 0.01909 0.36863 0.0
O99 O 0.30909 0.01304 0.36853 0.0
Cd100 Cd 0.28984 0.98738 0.35663 0.0
O101 O 0.33055 0.01136 0.36226 0.0
Cd102 Cd 0.32068 0.98489 0.34788 0.0
C103 C 0.29667 0.96168 0.37865 0.0
O104 O 0.30118 0.98693 0.33081 0.0
O105 O 0.30062 0.96427 0.32888 0.0
O106 O 0.34397 0.99622 0.32969 0.0
C107 C 0.29554 0.97326 0.32378 0.0
O108 O 0.28691 0.96639 0.37496 0.0
C109 C 0.34906 0.98705 0.33421 0.0
O110 O 0.31011 0.96725 0.37135 0.0
O111 O 0.34112 0.97708 0.34526 0.0
C112 C 0.99017 0.30651 0.3608 0.0
O113 O 0.99639 0.29761 0.36049 0.0
Cd114 Cd 0.0213 0.30455 0.34743 0.0
O115 O 0.99729 0.32024 0.35405 0.0
Cd116 Cd 0.02281 0.33679 0.33884 0.0
C117 C 0.04724 0.33845 0.36949 0.0
O118 O 0.02049 0.31486 0.32129 0.0
O119 O 0.04314 0.33741 0.32036 0.0
O120 O 0.00849 0.34679 0.32267 0.0
C121 C 0.0341 0.32325 0.3146 0.0
O122 O 0.04296 0.32397 0.36541 0.0
C123 C 0.01917 0.36163 0.32454 0.0
O124 O 0.04091 0.34566 0.36258 0.0
O125 O 0.03138 0.36489 0.33329 0.0
C126 C 0.63983 0.97588 0.32539 0.0
O127 O 0.63274 0.96054 0.32527 0.0
Cd128 Cd 0.64193 0.94559 0.34059 0.0
O129 O 0.65279 0.98442 0.33363 0.0
Cd130 Cd 0.67163 0.98152 0.35162 0.0
C131 C 0.67882 0.95953 0.32285 0.0
O132 O 0.64999 0.95976 0.36617 0.0
O133 O 0.67387 0.96626 0.37446 0.0
O134 O 0.67492 0.00522 0.36641 0.0
C135 C 0.65868 0.95742 0.37599 0.0
O136 O 0.66474 0.94764 0.32559 0.0
C137 C 0.6901 0.01381 0.3646 0.0
O138 O 0.68386 0.97324 0.32988 0.0
O139 O 0.69689 0.00731 0.35691 0.0
C140 C 0.98917 0.6889 0.35904 0.0
O141 O 0.99483 0.70404 0.35884 0.0
Cd142 Cd 0.02084 0.72232 0.34795 0.0
O143 O 0.997 0.68277 0.35269 0.0
Cd144 Cd 0.02244 0.69215 0.33709 0.0
C145 C 0.04593 0.7137 0.36943 0.0
O146 O 0.02035 0.71186 0.32094 0.0
O147 O 0.04329 0.71294 0.31948 0.0
O148 O 0.00779 0.66899 0.31852 0.0
C149 C 0.03394 0.71753 0.31413 0.0
O150 O 0.04131 0.72374 0.36687 0.0
C151 C 0.01658 0.66293 0.32112 0.0
O152 O 0.04041 0.70084 0.36074 0.0
O153 O 0.02828 0.67053 0.3311 0.0
C154 C 0.34939 0.36507 0.3221 0.0
O155 O 0.34291 0.37366 0.32382 0.0
Cd156 Cd 0.31767 0.36399 0.33763 0.0
O157 O 0.34315 0.35124 0.32856 0.0
Cd158 Cd 0.32052 0.3335 0.34666 0.0
C159 C 0.29341 0.32785 0.31711 0.0
O160 O 0.32168 0.35527 0.36336 0.0
O161 O 0.30131 0.33153 0.36772 0.0
O162 O 0.34133 0.33029 0.35966 0.0
C163 C 0.30928 0.34641 0.37172 0.0
O164 O 0.29658 0.34213 0.3207 0.0
C165 C 0.33315 0.315 0.3604 0.0
O166 O 0.30102 0.3219 0.324 0.0
O167 O 0.31881 0.30805 0.3547 0.0
C168 C 0.30589 0.98488 0.65151 0.0
O169 O 0.297 0.99109 0.65211 0.0
Cd170 Cd 0.30405 0.01602 0.66601 0.0
O171 O 0.31958 0.99176 0.65879 0.0
Cd172 Cd 0.33626 0.01627 0.67623 0.0
C173 C 0.33947 0.04188 0.64666 0.0
O174 O 0.3139 0.01458 0.69219 0.0
O175 O 0.33737 0.03581 0.69639 0.0
O176 O 0.34327 -0.00064 0.69165 0.0
C177 C 0.3226 0.02762 0.70021 0.0
O178 O 0.32483 0.03746 0.64977 0.0
C179 C 0.35837 0.00939 0.69228 0.0
O180 O 0.34647 0.03542 0.65377 0.0
O181 O 0.36339 0.02257 0.68488 0.0
C182 C 0.97935 0.34061 0.69655 0.0
O183 O 0.9644 0.33211 0.69302 0.0
Cd184 Cd 0.95284 0.30916 0.67492 0.0
O185 O 0.98946 0.33731 0.6902 0.0
Cd186 Cd 0.98902 0.31688 0.67079 0.0
C187 C 0.96445 0.2862 0.69567 0.0
O188 O 0.9701 0.31725 0.65184 0.0
O189 O 0.97433 0.29755 0.64786 0.0
O190 O 0.01383 0.33719 0.65783 0.0
C191 C 0.96781 0.30536 0.64298 0.0
O192 O 0.95292 0.28783 0.69042 0.0
C193 C 0.02189 0.33039 0.66073 0.0
O194 O 0.97896 0.29577 0.69131 0.0
O195 O 0.01477 0.31733 0.66855 0.0
C196 C 0.65242 0.63719 0.69109 0.0
O197 O 0.65874 0.62858 0.68838 0.0
Cd198 Cd 0.68414 0.63858 0.6749 0.0
O199 O 0.65905 0.65156 0.68588 0.0
Cd200 Cd 0.68261 0.67048 0.66942 0.0
C201 C 0.70895 0.67274 0.69817 0.0
O202 O 0.68245 0.6507 0.65043 0.0
O203 O 0.70364 0.67459 0.64986 0.0
O204 O 0.66574 0.67677 0.65284 0.0
C205 C 0.69577 0.66038 0.64378 0.0
O206 O 0.7049 0.65845 0.6935 0.0
C207 C 0.67246 0.69154 0.65718 0.0
O208 O 0.7022 0.67991 0.69201 0.0
O209 O 0.68409 0.69672 0.66737 0.0
C210 C 0.30426 0.31979 0.65352 0.0
O211 O 0.29532 0.30451 0.65343 0.0
Cd212 Cd 0.3037 0.2883 0.66771 0.0
O213 O 0.31755 0.32668 0.66148 0.0
Cd214 Cd 0.33407 0.32042 0.67957 0.0
C215 C 0.33992 0.29946 0.64951 0.0
O216 O 0.31158 0.29958 0.69488 0.0
O217 O 0.33469 0.30151 0.69894 0.0
O218 O 0.33762 0.34412 0.69422 0.0
C219 C 0.31998 0.29531 0.7029 0.0
O220 O 0.32545 0.28829 0.65215 0.0
C221 C 0.35289 0.35135 0.69552 0.0
O222 O 0.34595 0.31309 0.65695 0.0
O223 O 0.35972 0.34407 0.68953 0.0
C224 C 0.66557 0.02857 0.68457 0.0
O225 O 0.67435 0.04388 0.68462 0.0
Cd226 Cd 0.69867 0.05779 0.66911 0.0
O227 O 0.66964 0.01981 0.67642 0.0
Cd228 Cd 0.69129 0.0222 0.65832 0.0
C229 C 0.72028 0.04309 0.6876 0.0
O230 O 0.69124 0.04348 0.64348 0.0
O231 O 0.70937 0.03808 0.63569 0.0
O232 O 0.66862 0.99766 0.64662 0.0
C233 C 0.70243 0.04614 0.63367 0.0
O234 O 0.71891 0.05526 0.68453 0.0
C235 C 0.67597 0.98989 0.64512 0.0
O236 O 0.71112 0.02943 0.68058 0.0
O237 O 0.69072 0.99722 0.64963 0.0
C238 C 0.01135 0.69804 0.65395 0.0
O239 O 0.00561 0.70735 0.65382 0.0
Cd240 Cd 0.98043 0.70018 0.66642 0.0
O241 O 0.00373 0.68449 0.661 0.0
Cd242 Cd 0.9784 0.66878 0.67687 0.0
C243 C 0.95422 0.66564 0.64536 0.0
O244 O 0.98196 0.69164 0.69352 0.0
O245 O 0.9588 0.66976 0.69561 0.0
O246 O 0.99419 0.65994 0.69212 0.0
C247 C 0.96864 0.68394 0.70089 0.0
O248 O 0.95885 0.68042 0.64828 0.0
C249 C 0.98336 0.64508 0.69199 0.0
O250 O 0.9601 0.65865 0.65343 0.0
O251 O 0.97013 0.64118 0.68482 0.0
C252 C 0.21738 0.25891 0.08417 0.0
C253 C 0.21816 0.27464 0.07969 0.0
C254 C 0.20569 0.28396 0.09987 0.0
C255 C 0.20931 0.29783 0.10895 0.0
C256 C 0.19705 0.29961 0.11607 0.0
C257 C 0.18081 0.28683 0.11459 0.0
C258 C 0.17704 0.2727 0.10541 0.0
C259 C 0.18954 0.27147 0.09799 0.0
C260 C 0.20153 0.31504 0.12538 0.0
C261 C 0.15987 0.25881 0.10368 0.0
C262 C 0.09173 0.30912 0.05986 0.0
C263 C 0.10179 0.30284 0.06667 0.0
C264 C 0.11806 0.30609 0.09089 0.0
C265 C 0.11565 0.29039 0.09045 0.0
C266 C 0.12428 0.28612 0.10097 0.0
C267 C 0.13609 0.29794 0.1117 0.0
C268 C 0.13877 0.31386 0.11195 0.0
C269 C 0.12939 0.31757 0.10183 0.0
C270 C 0.12084 0.26895 0.10043 0.0
C271 C 0.15165 0.32704 0.12271 0.0
C272 C 0.09957 0.28926 0.21295 0.0
C273 C 0.09695 0.27417 0.20741 0.0
C274 C 0.10952 0.27278 0.20043 0.0
C275 C 0.125 0.28673 0.19898 0.0
C276 C 0.1278 0.30184 0.20491 0.0
C277 C 0.11501 0.30289 0.21179 0.0
C278 C 0.10616 0.25649 0.19419 0.0
C279 C 0.1442 0.31693 0.2036 0.0
C280 C 0.21413 0.25107 0.22235 0.0
C281 C 0.21388 0.26669 0.22535 0.0
C282 C 0.18923 0.26729 0.2199 0.0
C283 C 0.17298 0.25601 0.21677 0.0
C284 C 0.16334 0.26 0.20748 0.0
C285 C 0.17001 0.27592 0.20171 0.0
C286 C 0.18631 0.28765 0.20557 0.0
C287 C 0.19581 0.28314 0.21446 0.0
C288 C 0.14604 0.24713 0.20375 0.0
C289 C 0.19369 0.30492 0.2003 0.0
C290 C 0.16791 0.28798 0.12331 0.0
C291 C 0.15823 0.29216 0.11448 0.0
C292 C 0.14608 0.29378 0.12206 0.0
C293 C 0.14368 0.29141 0.13903 0.0
C294 C 0.13149 0.29273 0.14709 0.0
C295 C 0.12959 0.29088 0.16385 0.0
C296 C 0.13968 0.28743 0.1732 0.0
C297 C 0.13792 0.28564 0.19025 0.0
C298 C 0.14818 0.28228 0.19921 0.0
C299 C 0.15998 0.28017 0.19152 0.0
C300 C 0.16172 0.28162 0.17441 0.0
C301 C 0.17304 0.27902 0.16616 0.0
C302 C 0.17496 0.28091 0.14942 0.0
C303 C 0.16563 0.28546 0.14024 0.0
C304 C 0.15369 0.28749 0.14817 0.0
C305 C 0.15172 0.28555 0.16528 0.0
C306 C 0.06188 0.27546 0.20618 0.0
C307 C 0.07172 0.27959 0.22211 0.0
O308 O 0.21819 0.28291 0.09369 0.0
O309 O 0.19809 0.26261 0.22856 0.0
O310 O 0.08762 0.29135 0.21911 0.0
O311 O 0.1097 0.31058 0.08109 0.0
H312 H 0.20754 0.27172 0.07183 0.0
H313 H 0.20611 0.25107 0.09092 0.0
H314 H 0.22787 0.26142 0.09198 0.0
H315 H 0.21739 0.25224 0.07297 0.0
H316 H 0.22184 0.30736 0.11033 0.0
H317 H 0.1867 0.26059 0.09116 0.0
H318 H 0.19328 0.31945 0.12203 0.0
H319 H 0.21418 0.32473 0.12306 0.0
H320 H 0.20027 0.31268 0.13863 0.0
H321 H 0.15914 0.24804 0.09759 0.0
H322 H 0.15276 0.26265 0.09638 0.0
H323 H 0.15416 0.25532 0.11583 0.0
H324 H 0.10988 0.30153 0.05782 0.0
H325 H 0.06807 0.2893 0.06102 0.0
H326 H 0.09765 0.31477 0.04802 0.0
H327 H 0.09564 0.32102 0.06632 0.0
H328 H 0.10694 0.28133 0.08207 0.0
H329 H 0.1312 0.32965 0.10209 0.0
H330 H 0.13062 0.26854 0.09367 0.0
H331 H 0.10917 0.26057 0.09419 0.0
H332 H 0.12054 0.26457 0.11291 0.0
H333 H 0.15417 0.33922 0.11929 0.0
H334 H 0.16307 0.32681 0.12203 0.0
H335 H 0.14761 0.32504 0.13555 0.0
H336 H 0.0711 0.26846 0.22661 0.0
H337 H 0.0851 0.26346 0.20815 0.0
H338 H 0.11694 0.31447 0.21613 0.0
H339 H 0.10797 0.25687 0.18081 0.0
H340 H 0.09365 0.24667 0.19682 0.0
H341 H 0.1148 0.25353 0.1998 0.0
H342 H 0.14462 0.32762 0.2095 0.0
H343 H 0.14736 0.31951 0.19056 0.0
H344 H 0.15354 0.31502 0.20934 0.0
H345 H 0.21828 0.27385 0.21404 0.0
H346 H 0.22645 0.25378 0.21901 0.0
H347 H 0.20576 0.244 0.21214 0.0
H348 H 0.21021 0.24356 0.2334 0.0
H349 H 0.16799 0.24388 0.22128 0.0
H350 H 0.20828 0.29203 0.21739 0.0
H351 H 0.14325 0.24704 0.19061 0.0
H352 H 0.13782 0.24984 0.2108 0.0
H353 H 0.14347 0.23489 0.20699 0.0
H354 H 0.20539 0.31306 0.20661 0.0
H355 H 0.1853 0.30943 0.20273 0.0
H356 H 0.19589 0.30554 0.18699 0.0
H357 H 0.16018 0.29419 0.10152 0.0
H358 H 0.12335 0.29533 0.14054 0.0
H359 H 0.12012 0.29223 0.16938 0.0
H360 H 0.14675 0.28099 0.2123 0.0
H361 H 0.18061 0.27556 0.17255 0.0
H362 H 0.18392 0.27881 0.14377 0.0
H363 H 0.06087 0.28591 0.20227 0.0
H364 H 0.04964 0.26473 0.20772 0.0
H365 H 0.06782 0.27245 0.19628 0.0
C366 C 0.73883 0.92111 0.05324 0.0
C367 C 0.72546 0.91679 0.0657 0.0
C368 C 0.72912 0.91156 0.09367 0.0
C369 C 0.71321 0.89999 0.09762 0.0
C370 C 0.71006 0.88856 0.10958 0.0
C371 C 0.72314 0.88855 0.1175 0.0
C372 C 0.73921 0.90078 0.11408 0.0
C373 C 0.74196 0.91237 0.10241 0.0
C374 C 0.69275 0.876 0.11313 0.0
C375 C 0.75351 0.90106 0.12201 0.0
C376 C 0.70067 0.76899 0.07657 0.0
C377 C 0.70942 0.78592 0.08299 0.0
C378 C 0.70317 0.80474 0.09701 0.0
C379 C 0.71921 0.81596 0.10163 0.0
C380 C 0.72285 0.82966 0.11121 0.0
C381 C 0.7102 0.83211 0.11632 0.0
C382 C 0.69406 0.82089 0.11161 0.0
C383 C 0.69078 0.80734 0.10197 0.0
C384 C 0.74021 0.84152 0.11591 0.0
C385 C 0.6803 0.82319 0.11682 0.0
C386 C 0.71547 0.80644 0.21891 0.0
C387 C 0.73055 0.81915 0.21387 0.0
C388 C 0.73183 0.83277 0.20642 0.0
C389 C 0.71782 0.83382 0.20411 0.0
C390 C 0.7027 0.82125 0.20952 0.0
C391 C 0.70174 0.8077 0.21679 0.0
C392 C 0.74813 0.84589 0.20065 0.0
C393 C 0.68752 0.82196 0.20723 0.0
C394 C 0.75503 0.96049 0.22784 0.0
C395 C 0.7397 0.94418 0.23057 0.0
C396 C 0.73897 0.91884 0.22454 0.0
C397 C 0.75004 0.91391 0.22115 0.0
C398 C 0.74555 0.89986 0.21181 0.0
C399 C 0.72935 0.89019 0.20626 0.0
C400 C 0.71787 0.89474 0.21033 0.0
C401 C 0.72286 0.90915 0.21929 0.0
C402 C 0.75815 0.89542 0.2079 0.0
C403 C 0.70037 0.88439 0.20523 0.0
C404 C 0.72007 0.87441 0.12722 0.0
C405 C 0.71656 0.86034 0.11852 0.0
C406 C 0.71385 0.84651 0.12646 0.0
C407 C 0.71477 0.8466 0.14362 0.0
C408 C 0.71231 0.83292 0.15195 0.0
C409 C 0.71359 0.83321 0.16882 0.0
C410 C 0.71724 0.84715 0.17804 0.0
C411 C 0.71888 0.84762 0.19518 0.0
C412 C 0.72236 0.86162 0.20402 0.0
C413 C 0.72456 0.87539 0.19616 0.0
C414 C 0.72316 0.8752 0.17897 0.0
C415 C 0.72556 0.88887 0.17059 0.0
C416 C 0.7243 0.88858 0.15366 0.0
C417 C 0.72091 0.87473 0.14445 0.0
C418 C 0.71834 0.86077 0.15266 0.0
C419 C 0.71947 0.86101 0.16992 0.0
C420 C 0.72981 0.78315 0.21358 0.0
C421 C 0.72528 0.78894 0.22921 0.0
O422 O 0.73239 0.92169 0.08111 0.0
O423 O 0.74417 0.93279 0.23323 0.0
O424 O 0.71348 0.79266 0.22551 0.0
O425 O 0.69909 0.79124 0.08789 0.0
H426 H 0.71741 0.90339 0.06495 0.0
H427 H 0.74541 0.91474 0.0561 0.0
H428 H 0.74763 0.93433 0.0535 0.0
H429 H 0.73356 0.91733 0.04078 0.0
H430 H 0.70327 0.89973 0.09112 0.0
H431 H 0.7542 0.92152 0.09936 0.0
H432 H 0.68968 0.86451 0.10672 0.0
H433 H 0.6842 0.87975 0.10891 0.0
H434 H 0.69107 0.87365 0.12638 0.0
H435 H 0.76521 0.91073 0.11719 0.0
H436 H 0.75274 0.88924 0.12005 0.0
H437 H 0.75338 0.90308 0.13534 0.0
H438 H 0.71952 0.79476 0.0753 0.0
H439 H 0.70416 0.76992 0.06337 0.0
H440 H 0.68787 0.76581 0.07388 0.0
H441 H 0.70631 0.75649 0.09341 0.0
H442 H 0.72894 0.81412 0.09779 0.0
H443 H 0.67845 0.79863 0.09832 0.0
H444 H 0.74153 0.84223 0.12938 0.0
H445 H 0.74365 0.85376 0.11173 0.0
H446 H 0.74871 0.83809 0.11064 0.0
H447 H 0.66837 0.81309 0.11254 0.0
H448 H 0.6821 0.83465 0.1119 0.0
H449 H 0.68018 0.82417 0.13031 0.0
H450 H 0.73627 0.79982 0.23419 0.0
H451 H 0.74134 0.81846 0.21539 0.0
H452 H 0.69016 0.79788 0.22073 0.0
H453 H 0.74771 0.84711 0.18727 0.0
H454 H 0.75794 0.84341 0.20354 0.0
H455 H 0.75113 0.85763 0.20642 0.0
H456 H 0.67682 0.81158 0.21281 0.0
H457 H 0.68508 0.82198 0.19402 0.0
H458 H 0.6892 0.83337 0.21271 0.0
H459 H 0.73214 0.94107 0.21931 0.0
H460 H 0.75196 0.96986 0.22502 0.0
H461 H 0.7618 0.95944 0.21738 0.0
H462 H 0.76297 0.96442 0.23884 0.0
H463 H 0.76239 0.92138 0.22551 0.0
H464 H 0.71415 0.91271 0.22242 0.0
H465 H 0.75761 0.89213 0.19478 0.0
H466 H 0.7557 0.88474 0.21503 0.0
H467 H 0.77058 0.90541 0.21093 0.0
H468 H 0.69261 0.88845 0.21114 0.0
H469 H 0.69576 0.87158 0.20831 0.0
H470 H 0.69928 0.88488 0.19183 0.0
H471 H 0.71599 0.86017 0.10531 0.0
H472 H 0.70949 0.82184 0.1455 0.0
H473 H 0.7117 0.82233 0.17452 0.0
H474 H 0.72372 0.86193 0.21715 0.0
H475 H 0.72846 0.89997 0.17701 0.0
H476 H 0.72616 0.8994 0.14786 0.0
H477 H 0.74033 0.78162 0.21589 0.0
H478 H 0.73333 0.79216 0.20387 0.0
H479 H 0.71939 0.77157 0.20897 0.0
C480 C 0.18765 0.91018 0.05884 0.0
C481 C 0.2015 0.92041 0.07094 0.0
C482 C 0.18972 0.90348 0.09492 0.0
C483 C 0.17831 0.90806 0.09861 0.0
C484 C 0.16571 0.89912 0.10948 0.0
C485 C 0.16448 0.88532 0.11672 0.0
C486 C 0.17634 0.88109 0.11356 0.0
C487 C 0.18893 0.89039 0.10283 0.0
C488 C 0.15346 0.90414 0.11289 0.0
C489 C 0.17538 0.86642 0.12103 0.0
C490 C 0.06849 0.81926 0.0528 0.0
C491 C 0.07584 0.8126 0.0646 0.0
C492 C 0.08357 0.82292 0.09235 0.0
C493 C 0.09578 0.81939 0.09522 0.0
C494 C 0.10787 0.82823 0.10698 0.0
C495 C 0.1079 0.84109 0.11572 0.0
C496 C 0.09525 0.8443 0.11315 0.0
C497 C 0.083 0.83486 0.10173 0.0
C498 C 0.12091 0.82416 0.10963 0.0
C499 C 0.09502 0.85815 0.12186 0.0
C500 C 0.07887 0.82148 0.22132 0.0
C501 C 0.08874 0.81577 0.21532 0.0
C502 C 0.10309 0.82609 0.2071 0.0
C503 C 0.10739 0.84232 0.20454 0.0
C504 C 0.09762 0.84816 0.21097 0.0
C505 C 0.0836 0.83769 0.21952 0.0
C506 C 0.11361 0.81965 0.20108 0.0
C507 C 0.10186 0.86541 0.20867 0.0
C508 C 0.21728 0.94942 0.22095 0.0
C509 C 0.21042 0.93763 0.23505 0.0
C510 C 0.19194 0.91116 0.22194 0.0
C511 C 0.18987 0.89602 0.21804 0.0
C512 C 0.17602 0.88417 0.20969 0.0
C513 C 0.16397 0.88763 0.20509 0.0
C514 C 0.16583 0.90284 0.20919 0.0
C515 C 0.1798 0.91447 0.21757 0.0
C516 C 0.1744 0.86807 0.2055 0.0
C517 C 0.15317 0.9069 0.20444 0.0
C518 C 0.15005 0.8745 0.12642 0.0
C519 C 0.13612 0.86335 0.11787 0.0
C520 C 0.12212 0.85231 0.12597 0.0
C521 C 0.12197 0.8523 0.14319 0.0
C522 C 0.10821 0.84121 0.15179 0.0
C523 C 0.10811 0.84156 0.16875 0.0
C524 C 0.12189 0.85277 0.17776 0.0
C525 C 0.12197 0.85318 0.19501 0.0
C526 C 0.13589 0.86452 0.20354 0.0
C527 C 0.14977 0.87564 0.19532 0.0
C528 C 0.14994 0.87544 0.17811 0.0
C529 C 0.16373 0.88651 0.16949 0.0
C530 C 0.16379 0.88627 0.15256 0.0
C531 C 0.15008 0.87492 0.14361 0.0
C532 C 0.136 0.86372 0.15203 0.0
C533 C 0.13596 0.86394 0.16932 0.0
C534 C 0.03707 0.79329 0.2239 0.0
C535 C 0.05402 0.79566 0.22521 0.0
O536 O 0.20141 0.91105 0.08361 0.0
O537 O 0.20589 0.92213 0.22968 0.0
O538 O 0.0648 0.81177 0.22905 0.0
O539 O 0.07238 0.81519 0.08038 0.0
H540 H 0.2002 0.93052 0.07593 0.0
H541 H 0.17575 0.90551 0.06474 0.0
H542 H 0.1885 0.89973 0.05413 0.0
H543 H 0.18813 0.9176 0.04842 0.0
H544 H 0.17901 0.91842 0.09289 0.0
H545 H 0.19791 0.88708 0.10005 0.0
H546 H 0.14168 0.89514 0.10725 0.0
H547 H 0.15719 0.91622 0.10797 0.0
H548 H 0.15159 0.90441 0.12621 0.0
H549 H 0.18534 0.86455 0.11699 0.0
H550 H 0.16365 0.85547 0.11773 0.0
H551 H 0.17591 0.86776 0.13451 0.0
H552 H 0.08916 0.81936 0.06261 0.0
H553 H 0.07142 0.8178 0.04002 0.0
H554 H 0.07351 0.83234 0.05542 0.0
H555 H 0.05514 0.81288 0.05411 0.0
H556 H 0.09591 0.80981 0.08818 0.0
H557 H 0.07337 0.83732 0.09947 0.0
H558 H 0.13217 0.83331 0.10364 0.0
H559 H 0.11746 0.81206 0.10445 0.0
H560 H 0.12359 0.82448 0.12283 0.0
H561 H 0.08533 0.86009 0.11716 0.0
H562 H 0.10684 0.8695 0.12055 0.0
H563 H 0.09303 0.85566 0.13505 0.0
H564 H 0.05683 0.79234 0.21308 0.0
H565 H 0.08534 0.80332 0.21722 0.0
H566 H 0.07599 0.842 0.22445 0.0
H567 H 0.113 0.81871 0.18758 0.0
H568 H 0.10975 0.80752 0.20592 0.0
H569 H 0.12641 0.82808 0.20465 0.0
H570 H 0.09205 0.86752 0.21276 0.0
H571 H 0.10439 0.86864 0.19566 0.0
H572 H 0.11298 0.87363 0.21579 0.0
H573 H 0.19979 0.9378 0.24016 0.0
H574 H 0.22117 0.96189 0.22536 0.0
H575 H 0.20796 0.94603 0.2113 0.0
H576 H 0.22781 0.94933 0.21548 0.0
H577 H 0.19928 0.89356 0.22146 0.0
H578 H 0.18116 0.92612 0.22044 0.0
H579 H 0.1739 0.86633 0.19206 0.0
H580 H 0.16291 0.85816 0.21044 0.0
H581 H 0.18461 0.86707 0.2104 0.0
H582 H 0.1562 0.91912 0.20887 0.0
H583 H 0.14129 0.89784 0.20946 0.0
H584 H 0.15187 0.90632 0.19097 0.0
H585 H 0.13619 0.86323 0.10465 0.0
H586 H 0.09733 0.83221 0.14549 0.0
H587 H 0.09709 0.83287 0.17469 0.0
H588 H 0.13584 0.86483 0.21675 0.0
H589 H 0.17465 0.89551 0.17574 0.0
H590 H 0.17471 0.89509 0.14657 0.0
H591 H 0.03342 0.79618 0.23575 0.0
H592 H 0.0281 0.78062 0.22021 0.0
H593 H 0.03692 0.8014 0.21455 0.0
C594 C 0.29427 0.10828 0.95763 0.0
C595 C 0.29187 0.09479 0.94563 0.0
C596 C 0.29342 0.10861 0.92024 0.0
C597 C 0.2772 0.10459 0.91912 0.0
C598 C 0.27258 0.1129 0.90861 0.0
C599 C 0.28446 0.12572 0.89933 0.0
C600 C 0.30077 0.1296 0.90026 0.0
C601 C 0.30493 0.12071 0.91045 0.0
C602 C 0.25502 0.10817 0.90767 0.0
C603 C 0.31391 0.14345 0.89093 0.0
C604 C 0.25904 0.19795 0.96239 0.0
C605 C 0.27204 0.20224 0.94953 0.0
C606 C 0.26737 0.18908 0.92289 0.0
C607 C 0.28304 0.19237 0.9195 0.0
C608 C 0.28557 0.18278 0.90819 0.0
C609 C 0.27209 0.1694 0.90044 0.0
C610 C 0.25629 0.16631 0.90362 0.0
C611 C 0.2542 0.17649 0.91454 0.0
C612 C 0.30262 0.18671 0.90483 0.0
C613 C 0.24157 0.15195 0.89599 0.0
C614 C 0.26194 0.18809 0.79438 0.0
C615 C 0.27744 0.19334 0.80066 0.0
C616 C 0.28062 0.18272 0.80917 0.0
C617 C 0.26792 0.16666 0.81173 0.0
C618 C 0.25238 0.1613 0.80508 0.0
C619 C 0.24968 0.17206 0.79624 0.0
C620 C 0.29754 0.18864 0.81538 0.0
C621 C 0.23856 0.14427 0.80742 0.0
C622 C 0.2783 0.0649 0.80186 0.0
C623 C 0.2775 0.07145 0.78522 0.0
C624 C 0.28311 0.09862 0.79365 0.0
C625 C 0.29565 0.11462 0.79567 0.0
C626 C 0.29339 0.12597 0.80439 0.0
C627 C 0.27803 0.12121 0.81095 0.0
C628 C 0.26507 0.10517 0.80844 0.0
C629 C 0.26777 0.09397 0.79993 0.0
C630 C 0.30747 0.14297 0.80681 0.0
C631 C 0.24844 0.09984 0.81492 0.0
C632 C 0.28009 0.1359 0.88973 0.0
C633 C 0.2778 0.14724 0.89829 0.0
C634 C 0.27446 0.15788 0.89023 0.0
C635 C 0.27349 0.15735 0.87303 0.0
C636 C 0.27058 0.16814 0.86447 0.0
C637 C 0.26951 0.16741 0.84754 0.0
C638 C 0.27162 0.15607 0.83849 0.0
C639 C 0.27088 0.15543 0.82126 0.0
C640 C 0.27291 0.1439 0.81269 0.0
C641 C 0.2757 0.13292 0.82084 0.0
C642 C 0.2766 0.13344 0.83805 0.0
C643 C 0.27956 0.12266 0.84662 0.0
C644 C 0.2805 0.12331 0.86355 0.0
C645 C 0.27874 0.13487 0.87255 0.0
C646 C 0.27556 0.14574 0.86417 0.0
C647 C 0.27457 0.14506 0.84689 0.0
C648 C 0.24853 0.21527 0.79349 0.0
C649 C 0.26355 0.21395 0.79067 0.0
O650 O 0.29852 0.10129 0.93068 0.0
O651 O 0.28647 0.0882 0.78564 0.0
O652 O 0.25853 0.1981 0.78617 0.0
O653 O 0.2646 0.19771 0.93432 0.0
H654 H 0.27874 0.08591 0.94412 0.0
H655 H 0.2881 0.11455 0.95302 0.0
H656 H 0.30735 0.11729 0.95926 0.0
H657 H 0.28903 0.10324 0.96966 0.0
H658 H 0.26808 0.095 0.92636 0.0
H659 H 0.31738 0.12363 0.91132 0.0
H660 H 0.25343 0.11754 0.91403 0.0
H661 H 0.24698 0.09637 0.91342 0.0
H662 H 0.25119 0.10745 0.89478 0.0
H663 H 0.32618 0.14613 0.89456 0.0
H664 H 0.31321 0.15453 0.8929 0.0
H665 H 0.31224 0.14043 0.87771 0.0
H666 H 0.27806 0.19523 0.95229 0.0
H667 H 0.26453 0.201 0.9748 0.0
H668 H 0.25011 0.18478 0.96173 0.0
H669 H 0.25258 0.20461 0.96035 0.0
H670 H 0.29326 0.20242 0.92572 0.0
H671 H 0.24217 0.17419 0.9172 0.0
H672 H 0.30437 0.18589 0.89156 0.0
H673 H 0.30481 0.1778 0.91092 0.0
H674 H 0.31174 0.19899 0.90944 0.0
H675 H 0.23013 0.15017 0.90124 0.0
H676 H 0.24204 0.14077 0.89768 0.0
H677 H 0.24135 0.15371 0.88271 0.0
H678 H 0.27048 0.21737 0.80238 0.0
H679 H 0.28707 0.20564 0.7987 0.0
H680 H 0.23783 0.1681 0.79109 0.0
H681 H 0.29779 0.18974 0.82886 0.0
H682 H 0.30644 0.20062 0.81046 0.0
H683 H 0.30135 0.17984 0.81205 0.0
H684 H 0.22686 0.14252 0.80295 0.0
H685 H 0.23741 0.14123 0.82052 0.0
H686 H 0.24107 0.13567 0.80072 0.0
H687 H 0.26472 0.06725 0.78197 0.0
H688 H 0.27118 0.05148 0.80162 0.0
H689 H 0.27315 0.06923 0.81143 0.0
H690 H 0.29103 0.06901 0.80522 0.0
H691 H 0.3074 0.1181 0.79068 0.0
H692 H 0.25786 0.08168 0.79827 0.0
H693 H 0.30943 0.14616 0.82002 0.0
H694 H 0.30471 0.1516 0.80095 0.0
H695 H 0.31884 0.14452 0.8016 0.0
H696 H 0.23929 0.08748 0.81054 0.0
H697 H 0.24455 0.10839 0.8112 0.0
H698 H 0.24878 0.09996 0.82843 0.0
H699 H 0.27875 0.14788 0.91149 0.0
H700 H 0.26907 0.17726 0.87078 0.0
H701 H 0.2671 0.17594 0.84163 0.0
H702 H 0.27235 0.14348 0.79948 0.0
H703 H 0.28119 0.1136 0.84035 0.0
H704 H 0.28271 0.11466 0.8695 0.0
H705 H 0.24126 0.2123 0.78209 0.0
H706 H 0.25201 0.22768 0.79773 0.0
H707 H 0.24092 0.20669 0.803 0.0
C708 C 0.81163 0.0647 0.95775 0.0
C709 C 0.80506 0.07352 0.94799 0.0
C710 C 0.81251 0.08183 0.92025 0.0
C711 C 0.80806 0.09349 0.91848 0.0
C712 C 0.81627 0.10619 0.90761 0.0
C713 C 0.8295 0.10745 0.89873 0.0
C714 C 0.83373 0.0954 0.90028 0.0
C715 C 0.82484 0.08248 0.91074 0.0
C716 C 0.81114 0.11855 0.9061 0.0
C717 C 0.84808 0.09651 0.89155 0.0
C718 C 0.92521 0.22475 0.94675 0.0
C719 C 0.91691 0.20859 0.93849 0.0
C720 C 0.89231 0.19104 0.92269 0.0
C721 C 0.89725 0.18024 0.91738 0.0
C722 C 0.88736 0.16708 0.907 0.0
C723 C 0.87227 0.16469 0.90176 0.0
C724 C 0.8673 0.17555 0.90702 0.0
C725 C 0.87741 0.1886 0.91745 0.0
C726 C 0.89296 0.15564 0.90167 0.0
C727 C 0.85127 0.17333 0.90165 0.0
C728 C 0.90648 0.19241 0.79947 0.0
C729 C 0.90832 0.17973 0.80513 0.0
C730 C 0.89543 0.16627 0.81249 0.0
C731 C 0.88033 0.16534 0.81409 0.0
C732 C 0.87836 0.17796 0.80824 0.0
C733 C 0.89151 0.19138 0.80109 0.0
C734 C 0.89805 0.15315 0.81885 0.0
C735 C 0.86244 0.17737 0.80981 0.0
C736 C 0.7905 0.03892 0.78572 0.0
C737 C 0.79182 0.05529 0.78342 0.0
C738 C 0.81645 0.08062 0.79092 0.0
C739 C 0.83252 0.08586 0.7948 0.0
C740 C 0.84177 0.09971 0.8046 0.0
C741 C 0.83489 0.10889 0.81016 0.0
C742 C 0.81879 0.10402 0.80565 0.0
C743 C 0.80966 0.08982 0.7962 0.0
C744 C 0.85892 0.1045 0.80894 0.0
C745 C 0.81126 0.11384 0.81078 0.0
C746 C 0.84009 0.12232 0.88953 0.0
C747 C 0.85043 0.13628 0.89865 0.0
C748 C 0.86152 0.15057 0.89114 0.0
C749 C 0.86257 0.15105 0.87398 0.0
C750 C 0.87394 0.16513 0.86607 0.0
C751 C 0.8753 0.16533 0.84922 0.0
C752 C 0.86519 0.15151 0.8396 0.0
C753 C 0.86688 0.15145 0.8225 0.0
C754 C 0.85648 0.13761 0.81325 0.0
C755 C 0.8446 0.12354 0.82066 0.0
C756 C 0.84298 0.12326 0.83782 0.0
C757 C 0.8315 0.10922 0.84578 0.0
C758 C 0.83027 0.10897 0.86269 0.0
C759 C 0.84067 0.12265 0.87231 0.0
C760 C 0.85211 0.13703 0.86453 0.0
C761 C 0.85332 0.13731 0.84729 0.0
C762 C 0.9454 0.21506 0.80319 0.0
C763 C 0.93391 0.20872 0.78835 0.0
O764 O 0.80546 0.07023 0.93154 0.0
O765 O 0.80802 0.06689 0.78175 0.0
O766 O 0.91876 0.2059 0.79265 0.0
O767 O 0.90153 0.2039 0.9328 0.0
H768 H 0.81318 0.08671 0.95067 0.0
H769 H 0.82427 0.06887 0.95408 0.0
H770 H 0.8042 0.05144 0.95549 0.0
H771 H 0.81163 0.06732 0.97099 0.0
H772 H 0.79829 0.09272 0.92576 0.0
H773 H 0.82808 0.07332 0.91223 0.0
H774 H 0.81966 0.12962 0.91319 0.0
H775 H 0.79878 0.11403 0.91086 0.0
H776 H 0.81149 0.12194 0.8932 0.0
H777 H 0.8512 0.08761 0.89604 0.0
H778 H 0.85884 0.10882 0.89308 0.0
H779 H 0.84533 0.09414 0.87833 0.0
H780 H 0.91738 0.19887 0.94521 0.0
H781 H 0.92684 0.22235 0.95977 0.0
H782 H 0.9156 0.22782 0.94963 0.0
H783 H 0.94475 0.23878 0.93154 0.0
H784 H 0.90877 0.18196 0.92133 0.0
H785 H 0.87371 0.19698 0.92158 0.0
H786 H 0.8841 0.1432 0.90553 0.0
H787 H 0.90502 0.15915 0.90682 0.0
H788 H 0.8936 0.15535 0.88818 0.0
H789 H 0.84934 0.18307 0.90648 0.0
H790 H 0.8413 0.16152 0.90587 0.0
H791 H 0.85061 0.17311 0.88814 0.0
H792 H 0.93311 0.19729 0.78403 0.0
H793 H 0.91977 0.18025 0.80409 0.0
H794 H 0.89017 0.20119 0.79672 0.0
H795 H 0.89598 0.15208 0.83218 0.0
H796 H 0.91044 0.15553 0.81646 0.0
H797 H 0.8892 0.14137 0.81308 0.0
H798 H 0.86271 0.18793 0.80424 0.0
H799 H 0.85937 0.17707 0.82289 0.0
H800 H 0.85268 0.16613 0.80389 0.0
H801 H 0.78676 0.05783 0.79453 0.0
H802 H 0.77773 0.02935 0.78771 0.0
H803 H 0.79773 0.03954 0.79654 0.0
H804 H 0.79515 0.03556 0.77485 0.0
H805 H 0.8377 0.07879 0.79042 0.0
H806 H 0.79736 0.08606 0.7927 0.0
H807 H 0.86141 0.10779 0.82209 0.0
H808 H 0.86736 0.11526 0.80189 0.0
H809 H 0.86148 0.0947 0.80607 0.0
H810 H 0.79941 0.10955 0.80467 0.0
H811 H 0.81948 0.12677 0.80796 0.0
H812 H 0.80939 0.11305 0.82414 0.0
H813 H 0.85003 0.13594 0.91186 0.0
H814 H 0.88207 0.17611 0.87285 0.0
H815 H 0.88441 0.17646 0.84382 0.0
H816 H 0.85796 0.13762 0.80015 0.0
H817 H 0.82336 0.09823 0.83904 0.0
H818 H 0.82119 0.09786 0.86815 0.0
H819 H 0.94493 0.22511 0.80951 0.0
H820 H 0.95801 0.21924 0.79941 0.0
H821 H 0.94188 0.20533 0.81211 0.0
C822 C 0.81432 0.72682 0.95962 0.0
C823 C 0.80181 0.71946 0.9457 0.0
C824 C 0.81602 0.71229 0.92527 0.0
C825 C 0.82723 0.7282 0.92075 0.0
C826 C 0.83974 0.73136 0.90989 0.0
C827 C 0.84106 0.71838 0.90337 0.0
C828 C 0.82953 0.70233 0.90748 0.0
C829 C 0.81713 0.69951 0.91835 0.0
C830 C 0.8518 0.74861 0.90567 0.0
C831 C 0.83058 0.68821 0.90069 0.0
C832 C 0.93392 0.74672 0.96631 0.0
C833 C 0.92722 0.73293 0.95357 0.0
C834 C 0.92142 0.73634 0.92586 0.0
C835 C 0.90954 0.72051 0.92145 0.0
C836 C 0.89755 0.71757 0.90992 0.0
C837 C 0.89733 0.73079 0.9029 0.0
C838 C 0.90978 0.74679 0.90683 0.0
C839 C 0.92189 0.74933 0.91807 0.0
C840 C 0.88474 0.70035 0.90575 0.0
C841 C 0.90984 0.7612 0.89981 0.0
C842 C 0.92697 0.74347 0.7984 0.0
C843 C 0.9167 0.72746 0.80311 0.0
C844 C 0.90206 0.72296 0.81098 0.0
C845 C 0.89785 0.73482 0.81448 0.0
C846 C 0.90797 0.75084 0.80923 0.0
C847 C 0.92229 0.75488 0.80101 0.0
C848 C 0.89123 0.70562 0.81577 0.0
C849 C 0.90384 0.76379 0.8126 0.0
C850 C 0.78744 0.72889 0.8022 0.0
C851 C 0.79444 0.72522 0.78704 0.0
C852 C 0.81343 0.7177 0.79842 0.0
C853 C 0.81578 0.70472 0.80097 0.0
C854 C 0.82953 0.70688 0.80922 0.0
C855 C 0.84123 0.72246 0.81509 0.0
C856 C 0.8391 0.73574 0.81234 0.0
C857 C 0.82523 0.73324 0.80402 0.0
C858 C 0.83146 0.69248 0.81187 0.0
C859 C 0.8514 0.75252 0.81841 0.0
C860 C 0.85522 0.7217 0.89333 0.0
C861 C 0.86916 0.72451 0.90151 0.0
C862 C 0.88312 0.72789 0.89306 0.0
C863 C 0.88325 0.72847 0.87587 0.0
C864 C 0.89703 0.73173 0.86696 0.0
C865 C 0.89712 0.7326 0.85007 0.0
C866 C 0.88331 0.72991 0.8414 0.0
C867 C 0.88326 0.7307 0.82421 0.0
C868 C 0.86937 0.7281 0.81601 0.0
C869 C 0.85544 0.72478 0.82453 0.0
C870 C 0.85523 0.72387 0.8417 0.0
C871 C 0.84139 0.72048 0.85064 0.0
C872 C 0.84133 0.71973 0.86755 0.0
C873 C 0.85511 0.72233 0.87616 0.0
C874 C 0.86919 0.72573 0.8674 0.0
C875 C 0.86923 0.72646 0.85015 0.0
C876 C 0.96882 0.75713 0.79671 0.0
C877 C 0.95171 0.74261 0.79447 0.0
O878 O 0.80418 0.70869 0.93638 0.0
O879 O 0.79957 0.71452 0.7907 0.0
O880 O 0.94139 0.74833 0.79121 0.0
O881 O 0.93198 0.73932 0.93821 0.0
H882 H 0.80304 0.72936 0.93792 0.0
H883 H 0.82672 0.73403 0.95473 0.0
H884 H 0.81386 0.7172 0.96727 0.0
H885 H 0.81199 0.73498 0.96739 0.0
H886 H 0.82655 0.7383 0.92577 0.0
H887 H 0.8084 0.68727 0.92179 0.0
H888 H 0.86394 0.7519 0.91039 0.0
H889 H 0.84852 0.75729 0.91086 0.0
H890 H 0.85269 0.74985 0.89223 0.0
H891 H 0.82034 0.67642 0.9046 0.0
H892 H 0.84207 0.68923 0.90476 0.0
H893 H 0.83068 0.68843 0.88717 0.0
H894 H 0.9138 0.7267 0.95465 0.0
H895 H 0.93083 0.74181 0.97877 0.0
H896 H 0.92847 0.75434 0.96434 0.0
H897 H 0.94724 0.75455 0.96537 0.0
H898 H 0.90947 0.71048 0.92727 0.0
H899 H 0.93124 0.76151 0.92153 0.0
H900 H 0.88243 0.69873 0.89241 0.0
H901 H 0.87327 0.69752 0.91177 0.0
H902 H 0.8882 0.69159 0.90988 0.0
H903 H 0.91984 0.77283 0.90485 0.0
H904 H 0.89817 0.76053 0.90237 0.0
H905 H 0.91112 0.7611 0.88639 0.0
H906 H 0.94841 0.73598 0.80613 0.0
H907 H 0.92005 0.71847 0.80056 0.0
H908 H 0.93021 0.76714 0.79706 0.0
H909 H 0.89155 0.70477 0.82921 0.0
H910 H 0.89503 0.69749 0.81016 0.0
H911 H 0.87853 0.7013 0.81211 0.0
H912 H 0.9136 0.77592 0.80884 0.0
H913 H 0.90156 0.76434 0.82579 0.0
H914 H 0.89259 0.76076 0.80589 0.0
H915 H 0.80478 0.73666 0.7825 0.0
H916 H 0.78306 0.73721 0.79916 0.0
H917 H 0.79682 0.73479 0.81189 0.0
H918 H 0.77723 0.71758 0.80709 0.0
H919 H 0.80666 0.69279 0.79657 0.0
H920 H 0.82369 0.74346 0.80211 0.0
H921 H 0.83209 0.69079 0.82513 0.0
H922 H 0.84299 0.69469 0.80647 0.0
H923 H 0.82135 0.68117 0.80641 0.0
H924 H 0.84828 0.76169 0.81483 0.0
H925 H 0.8635 0.75602 0.81354 0.0
H926 H 0.85226 0.75265 0.8319 0.0
H927 H 0.86916 0.72412 0.91471 0.0
H928 H 0.90795 0.73377 0.87298 0.0
H929 H 0.90816 0.73537 0.8439 0.0
H930 H 0.86944 0.72882 0.80284 0.0
H931 H 0.83043 0.71839 0.84467 0.0
H932 H 0.83036 0.7171 0.8738 0.0
H933 H 0.97741 0.75312 0.80002 0.0
H934 H 0.96899 0.76519 0.80668 0.0
H935 H 0.97296 0.76415 0.78534 0.0
C936 C 0.86523 0.60001 0.38563 0.0
C937 C 0.87421 0.61527 0.39646 0.0
C938 C 0.86308 0.61336 0.42307 0.0
C939 C 0.86751 0.629 0.42836 0.0
C940 C 0.85714 0.63172 0.43817 0.0
C941 C 0.84202 0.61846 0.44267 0.0
C942 C 0.83773 0.60258 0.43767 0.0
C943 C 0.84844 0.60021 0.42801 0.0
C944 C 0.86221 0.64876 0.44353 0.0
C945 C 0.8217 0.58819 0.44224 0.0
C946 C 0.7434 0.6345 0.39797 0.0
C947 C 0.75216 0.62756 0.40634 0.0
C948 C 0.77716 0.63583 0.42147 0.0
C949 C 0.77238 0.62017 0.4267 0.0
C950 C 0.78264 0.61739 0.43647 0.0
C951 C 0.79795 0.63051 0.44125 0.0
C952 C 0.80277 0.64628 0.43612 0.0
C953 C 0.7923 0.64872 0.42626 0.0
C954 C 0.77715 0.6004 0.44166 0.0
C955 C 0.81899 0.66053 0.44105 0.0
C956 C 0.76777 0.62875 0.54482 0.0
C957 C 0.76403 0.61353 0.53843 0.0
C958 C 0.77586 0.61145 0.53064 0.0
C959 C 0.79172 0.62483 0.52916 0.0
C960 C 0.7956 0.64007 0.5358 0.0
C961 C 0.78355 0.64181 0.54355 0.0
C962 C 0.77136 0.59501 0.52374 0.0
C963 C 0.81241 0.65456 0.53444 0.0
C964 C 0.88371 0.58923 0.54734 0.0
C965 C 0.88032 0.60293 0.55059 0.0
C966 C 0.85464 0.6018 0.54626 0.0
C967 C 0.83846 0.59061 0.54269 0.0
C968 C 0.82864 0.59526 0.53467 0.0
C969 C 0.83514 0.61163 0.53054 0.0
C970 C 0.85125 0.62322 0.53507 0.0
C971 C 0.86089 0.61816 0.5428 0.0
C972 C 0.81145 0.58261 0.53024 0.0
C973 C 0.85838 0.64087 0.53141 0.0
C974 C 0.83047 0.62129 0.45207 0.0
C975 C 0.82026 0.62491 0.4434 0.0
C976 C 0.80898 0.62761 0.45138 0.0
C977 C 0.8079 0.62684 0.46856 0.0
C978 C 0.7968 0.62963 0.477 0.0
C979 C 0.79559 0.62849 0.49386 0.0
C980 C 0.80543 0.62451 0.50294 0.0
C981 C 0.80404 0.62298 0.52005 0.0
C982 C 0.81403 0.61906 0.52872 0.0
C983 C 0.82537 0.61644 0.52073 0.0
C984 C 0.82688 0.61783 0.5036 0.0
C985 C 0.83804 0.61512 0.49513 0.0
C986 C 0.83937 0.61642 0.47829 0.0
C987 C 0.82944 0.62026 0.46922 0.0
C988 C 0.81811 0.62305 0.47749 0.0
C989 C 0.81686 0.62188 0.4947 0.0
C990 C 0.73072 0.61796 0.5387 0.0
C991 C 0.74037 0.62049 0.55444 0.0
O992 O 0.87257 0.61091 0.41263 0.0
O993 O 0.86387 0.59637 0.55291 0.0
O994 O 0.75663 0.63148 0.55209 0.0
O995 O 0.76756 0.63894 0.41187 0.0
H996 H 0.86821 0.62239 0.3941 0.0
H997 H 0.85201 0.59419 0.38766 0.0
H998 H 0.86887 0.5911 0.38863 0.0
H999 H 0.86758 0.60311 0.37256 0.0
H1000 H 0.87902 0.63906 0.42468 0.0
H1001 H 0.84521 0.58817 0.42384 0.0
H1002 H 0.85393 0.65226 0.43802 0.0
H1003 H 0.87479 0.65761 0.43992 0.0
H1004 H 0.86126 0.64942 0.45697 0.0
H1005 H 0.82007 0.57666 0.43714 0.0
H1006 H 0.81169 0.58973 0.43775 0.0
H1007 H 0.82077 0.58737 0.4557 0.0
H1008 H 0.7518 0.61712 0.39976 0.0
H1009 H 0.74168 0.62978 0.38504 0.0
H1010 H 0.75276 0.64728 0.39488 0.0
H1011 H 0.72397 0.62888 0.41339 0.0
H1012 H 0.76069 0.61004 0.42318 0.0
H1013 H 0.79589 0.66074 0.42223 0.0
H1014 H 0.7861 0.59698 0.43778 0.0
H1015 H 0.76513 0.59141 0.43645 0.0
H1016 H 0.77646 0.59982 0.45514 0.0
H1017 H 0.82067 0.67213 0.43665 0.0
H1018 H 0.82876 0.65883 0.43603 0.0
H1019 H 0.82027 0.66128 0.45452 0.0
H1020 H 0.73876 0.6087 0.55817 0.0
H1021 H 0.75192 0.60324 0.53927 0.0
H1022 H 0.78635 0.65348 0.54854 0.0
H1023 H 0.77272 0.59562 0.5103 0.0
H1024 H 0.75873 0.58563 0.52661 0.0
H1025 H 0.77966 0.59124 0.52865 0.0
H1026 H 0.81354 0.66555 0.54041 0.0
H1027 H 0.81561 0.65705 0.5214 0.0
H1028 H 0.82128 0.65194 0.54012 0.0
H1029 H 0.88426 0.61044 0.53949 0.0
H1030 H 0.89686 0.5942 0.54549 0.0
H1031 H 0.87715 0.58234 0.53614 0.0
H1032 H 0.87962 0.58076 0.55765 0.0
H1033 H 0.83369 0.57806 0.54567 0.0
H1034 H 0.87327 0.62699 0.54609 0.0
H1035 H 0.80943 0.58269 0.51695 0.0
H1036 H 0.803 0.58548 0.5366 0.0
H1037 H 0.80848 0.57026 0.5336 0.0
H1038 H 0.87033 0.64858 0.53745 0.0
H1039 H 0.85004 0.64503 0.53544 0.0
H1040 H 0.85992 0.64255 0.51806 0.0
H1041 H 0.82098 0.62547 0.43022 0.0
H1042 H 0.78889 0.63268 0.47066 0.0
H1043 H 0.78679 0.63072 0.49969 0.0
H1044 H 0.8128 0.6178 0.54182 0.0
H1045 H 0.84589 0.61195 0.50142 0.0
H1046 H 0.8482 0.61425 0.47245 0.0
H1047 H 0.73237 0.62961 0.53449 0.0
H1048 H 0.71764 0.60942 0.54073 0.0
H1049 H 0.73478 0.61279 0.52888 0.0
C1050 C 0.40196 0.26157 0.38883 0.0
C1051 C 0.38776 0.25571 0.40053 0.0
C1052 C 0.39125 0.24801 0.42746 0.0
C1053 C 0.37566 0.23538 0.43091 0.0
C1054 C 0.37329 0.22334 0.44184 0.0
C1055 C 0.38687 0.22382 0.44917 0.0
C1056 C 0.40262 0.23681 0.44594 0.0
C1057 C 0.40456 0.24896 0.43537 0.0
C1058 C 0.3563 0.2099 0.44519 0.0
C1059 C 0.41743 0.2376 0.45318 0.0
C1060 C 0.36786 0.10238 0.41559 0.0
C1061 C 0.3758 0.11804 0.42477 0.0
C1062 C 0.36988 0.13899 0.43342 0.0
C1063 C 0.38573 0.1504 0.43844 0.0
C1064 C 0.38916 0.16495 0.44621 0.0
C1065 C 0.37644 0.16799 0.44927 0.0
C1066 C 0.36056 0.15667 0.44389 0.0
C1067 C 0.35753 0.14237 0.43591 0.0
C1068 C 0.40631 0.17693 0.45146 0.0
C1069 C 0.34672 0.15953 0.44688 0.0
C1070 C 0.38233 0.14436 0.55089 0.0
C1071 C 0.39728 0.15754 0.54626 0.0
C1072 C 0.39816 0.17113 0.53919 0.0
C1073 C 0.38385 0.17165 0.53688 0.0
C1074 C 0.36888 0.15867 0.54205 0.0
C1075 C 0.36832 0.14515 0.5489 0.0
C1076 C 0.41431 0.18471 0.53366 0.0
C1077 C 0.3534 0.15884 0.53979 0.0
C1078 C 0.41845 0.29733 0.55914 0.0
C1079 C 0.4028 0.28117 0.56137 0.0
C1080 C 0.40221 0.25583 0.55608 0.0
C1081 C 0.4136 0.25124 0.55311 0.0
C1082 C 0.4096 0.2373 0.54379 0.0
C1083 C 0.39357 0.22737 0.53787 0.0
C1084 C 0.38177 0.23162 0.54149 0.0
C1085 C 0.38628 0.24596 0.55039 0.0
C1086 C 0.42256 0.23323 0.54037 0.0
C1087 C 0.3644 0.22098 0.53605 0.0
C1088 C 0.38464 0.21005 0.45904 0.0
C1089 C 0.38173 0.19601 0.45062 0.0
C1090 C 0.37957 0.18253 0.45892 0.0
C1091 C 0.38036 0.18296 0.47611 0.0
C1092 C 0.37815 0.16956 0.4848 0.0
C1093 C 0.37942 0.17021 0.50167 0.0
C1094 C 0.38273 0.18423 0.51056 0.0
C1095 C 0.3844 0.18508 0.5277 0.0
C1096 C 0.38746 0.19908 0.53623 0.0
C1097 C 0.38923 0.21252 0.52805 0.0
C1098 C 0.38783 0.21197 0.51084 0.0
C1099 C 0.38982 0.22531 0.50212 0.0
C1100 C 0.38849 0.22463 0.48518 0.0
C1101 C 0.38553 0.21074 0.47627 0.0
C1102 C 0.38345 0.19715 0.48482 0.0
C1103 C 0.38456 0.19775 0.50209 0.0
C1104 C 0.39834 0.12231 0.54561 0.0
C1105 C 0.39284 0.12742 0.56103 0.0
O1106 O 0.39373 0.25928 0.41638 0.0
O1107 O 0.40686 0.26962 0.56485 0.0
O1108 O 0.38072 0.13053 0.55688 0.0
O1109 O 0.36593 0.1246 0.42624 0.0
H1110 H 0.37996 0.24238 0.39855 0.0
H1111 H 0.4089 0.25552 0.39147 0.0
H1112 H 0.4102 0.27485 0.39021 0.0
H1113 H 0.39752 0.2586 0.37602 0.0
H1114 H 0.36537 0.23494 0.42499 0.0
H1115 H 0.41654 0.25889 0.43266 0.0
H1116 H 0.35402 0.19878 0.43852 0.0
H1117 H 0.34712 0.2129 0.44116 0.0
H1118 H 0.35472 0.20724 0.45838 0.0
H1119 H 0.42881 0.24757 0.44811 0.0
H1120 H 0.41707 0.226 0.45089 0.0
H1121 H 0.41765 0.2395 0.46656 0.0
H1122 H 0.38173 0.11815 0.43649 0.0
H1123 H 0.38174 0.10732 0.39451 0.0
H1124 H 0.35451 0.09791 0.41523 0.0
H1125 H 0.36669 0.09323 0.42468 0.0
H1126 H 0.39544 0.148 0.43637 0.0
H1127 H 0.34538 0.13354 0.43185 0.0
H1128 H 0.40974 0.18926 0.44758 0.0
H1129 H 0.41508 0.17379 0.44636 0.0
H1130 H 0.40721 0.17723 0.46495 0.0
H1131 H 0.33492 0.14912 0.44275 0.0
H1132 H 0.3489 0.17041 0.44028 0.0
H1133 H 0.346 0.16187 0.46006 0.0
H1134 H 0.40339 0.13846 0.56643 0.0
H1135 H 0.40827 0.1572 0.54771 0.0
H1136 H 0.35685 0.13497 0.55255 0.0
H1137 H 0.41403 0.18594 0.52027 0.0
H1138 H 0.4244 0.18272 0.53673 0.0
H1139 H 0.41677 0.19628 0.53942 0.0
H1140 H 0.34293 0.14839 0.54556 0.0
H1141 H 0.35078 0.15853 0.52658 0.0
H1142 H 0.35478 0.1702 0.54508 0.0
H1143 H 0.39586 0.27809 0.54969 0.0
H1144 H 0.41579 0.30683 0.55559 0.0
H1145 H 0.42574 0.29608 0.54933 0.0
H1146 H 0.42574 0.30123 0.57058 0.0
H1147 H 0.42579 0.25886 0.55781 0.0
H1148 H 0.37735 0.24931 0.55317 0.0
H1149 H 0.42214 0.22955 0.52739 0.0
H1150 H 0.42042 0.22292 0.54797 0.0
H1151 H 0.43485 0.24355 0.54325 0.0
H1152 H 0.35633 0.22471 0.54183 0.0
H1153 H 0.36 0.20819 0.53902 0.0
H1154 H 0.36353 0.22161 0.52265 0.0
H1155 H 0.38116 0.19558 0.43741 0.0
H1156 H 0.37555 0.15841 0.47867 0.0
H1157 H 0.37779 0.15955 0.50763 0.0
H1158 H 0.38883 0.19966 0.54938 0.0
H1159 H 0.39241 0.23643 0.50828 0.0
H1160 H 0.38999 0.23521 0.47914 0.0
H1161 H 0.40901 0.12115 0.54837 0.0
H1162 H 0.40199 0.13153 0.53609 0.0
H1163 H 0.38836 0.11068 0.54053 0.0
C1164 C 0.8657 0.25513 0.38974 0.0
C1165 C 0.87676 0.25847 0.40457 0.0
C1166 C 0.85968 0.23522 0.42193 0.0
C1167 C 0.84842 0.23983 0.42627 0.0
C1168 C 0.83488 0.22971 0.43567 0.0
C1169 C 0.83268 0.21482 0.44096 0.0
C1170 C 0.84422 0.21038 0.437 0.0
C1171 C 0.85756 0.22066 0.42751 0.0
C1172 C 0.82282 0.23482 0.43983 0.0
C1173 C 0.84236 0.19469 0.44265 0.0
C1174 C 0.74174 0.14001 0.37532 0.0
C1175 C 0.74663 0.13364 0.38984 0.0
C1176 C 0.75326 0.14766 0.41611 0.0
C1177 C 0.76547 0.14478 0.4212 0.0
C1178 C 0.77722 0.15513 0.43262 0.0
C1179 C 0.77681 0.16871 0.43895 0.0
C1180 C 0.76408 0.17121 0.43438 0.0
C1181 C 0.75228 0.16045 0.42318 0.0
C1182 C 0.79036 0.15183 0.43753 0.0
C1183 C 0.76327 0.18556 0.44086 0.0
C1184 C 0.74355 0.1483 0.54029 0.0
C1185 C 0.75496 0.14372 0.53668 0.0
C1186 C 0.77007 0.15486 0.53026 0.0
C1187 C 0.77373 0.17081 0.52729 0.0
C1188 C 0.76261 0.17568 0.53179 0.0
C1189 C 0.7477 0.16435 0.5384 0.0
C1190 C 0.78191 0.14947 0.52615 0.0
C1191 C 0.76625 0.19267 0.52904 0.0
C1192 C 0.88656 0.27514 0.54144 0.0
C1193 C 0.87987 0.26502 0.55677 0.0
C1194 C 0.85942 0.23824 0.54569 0.0
C1195 C 0.85622 0.2226 0.54226 0.0
C1196 C 0.84203 0.21121 0.53404 0.0
C1197 C 0.83072 0.21561 0.52919 0.0
C1198 C 0.83359 0.23125 0.53306 0.0
C1199 C 0.84792 0.24244 0.54124 0.0
C1200 C 0.83929 0.19459 0.53018 0.0
C1201 C 0.82166 0.23625 0.52818 0.0
C1202 C 0.81807 0.20364 0.45024 0.0
C1203 C 0.80446 0.1922 0.44142 0.0
C1204 C 0.7904 0.18091 0.44929 0.0
C1205 C 0.78976 0.18111 0.46649 0.0
C1206 C 0.77581 0.17001 0.47482 0.0
C1207 C 0.7753 0.17038 0.49175 0.0
C1208 C 0.78885 0.18165 0.50102 0.0
C1209 C 0.78852 0.18199 0.51825 0.0
C1210 C 0.80227 0.19317 0.5271 0.0
C1211 C 0.81642 0.2042 0.51916 0.0
C1212 C 0.81691 0.20422 0.50195 0.0
C1213 C 0.83091 0.21528 0.4936 0.0
C1214 C 0.83129 0.21519 0.47667 0.0
C1215 C 0.81773 0.20396 0.46744 0.0
C1216 C 0.80351 0.19268 0.47559 0.0
C1217 C 0.80308 0.19286 0.49287 0.0
C1218 C 0.70228 0.11583 0.53844 0.0
C1219 C 0.71991 0.12112 0.54205 0.0
O1220 O 0.87261 0.24421 0.41229 0.0
O1221 O 0.87377 0.2488 0.55307 0.0
O1222 O 0.72842 0.13761 0.54541 0.0
O1223 O 0.74256 0.13853 0.40416 0.0
H1224 H 0.8757 0.26692 0.41323 0.0
H1225 H 0.85296 0.24997 0.39353 0.0
H1226 H 0.86629 0.2464 0.38112 0.0
H1227 H 0.86939 0.26654 0.38332 0.0
H1228 H 0.84999 0.25119 0.42229 0.0
H1229 H 0.86637 0.21727 0.42422 0.0
H1230 H 0.8108 0.22586 0.43463 0.0
H1231 H 0.82642 0.24693 0.4351 0.0
H1232 H 0.82152 0.23507 0.45325 0.0
H1233 H 0.85263 0.19319 0.43888 0.0
H1234 H 0.83099 0.18439 0.43756 0.0
H1235 H 0.84147 0.19417 0.45613 0.0
H1236 H 0.76 0.13916 0.38899 0.0
H1237 H 0.74456 0.13591 0.36369 0.0
H1238 H 0.7486 0.15344 0.37577 0.0
H1239 H 0.72863 0.13582 0.37555 0.0
H1240 H 0.76589 0.13453 0.4161 0.0
H1241 H 0.74265 0.16241 0.41931 0.0
H1242 H 0.79208 0.15296 0.45096 0.0
H1243 H 0.80193 0.16092 0.43199 0.0
H1244 H 0.78764 0.1396 0.43347 0.0
H1245 H 0.75284 0.18604 0.43574 0.0
H1246 H 0.77459 0.19691 0.43792 0.0
H1247 H 0.76223 0.18503 0.45432 0.0
H1248 H 0.72463 0.11832 0.53083 0.0
H1249 H 0.75206 0.13144 0.53873 0.0
H1250 H 0.73891 0.16782 0.54152 0.0
H1251 H 0.78307 0.14908 0.51273 0.0
H1252 H 0.77806 0.1373 0.5309 0.0
H1253 H 0.79405 0.15827 0.53125 0.0
H1254 H 0.75639 0.19458 0.53336 0.0
H1255 H 0.76811 0.19531 0.51586 0.0
H1256 H 0.77763 0.20143 0.53552 0.0
H1257 H 0.87012 0.26676 0.56187 0.0
H1258 H 0.89182 0.28818 0.54455 0.0
H1259 H 0.87679 0.27165 0.53229 0.0
H1260 H 0.89606 0.27333 0.53584 0.0
H1261 H 0.86509 0.21942 0.54581 0.0
H1262 H 0.85006 0.25443 0.54385 0.0
H1263 H 0.83859 0.19257 0.51677 0.0
H1264 H 0.82757 0.18527 0.53529 0.0
H1265 H 0.84907 0.19292 0.53515 0.0
H1266 H 0.82512 0.24848 0.53298 0.0
H1267 H 0.80944 0.22741 0.53268 0.0
H1268 H 0.82088 0.23623 0.51469 0.0
H1269 H 0.80489 0.19195 0.42822 0.0
H1270 H 0.76508 0.16097 0.46833 0.0
H1271 H 0.76416 0.16162 0.49746 0.0
H1272 H 0.80195 0.1933 0.5403 0.0
H1273 H 0.84174 0.22417 0.50004 0.0
H1274 H 0.84238 0.22401 0.47091 0.0
H1275 H 0.69519 0.10266 0.53549 0.0
H1276 H 0.7016 0.12243 0.52781 0.0
H1277 H 0.69676 0.11846 0.54907 0.0
C1278 C 0.018 0.46619 0.28819 0.0
C1279 C 0.00871 0.4518 0.27637 0.0
C1280 C 0.01036 0.46365 0.25014 0.0
C1281 C 0.99402 0.45774 0.24646 0.0
C1282 C 0.98947 0.46622 0.23615 0.0
C1283 C 0.00153 0.48087 0.2294 0.0
C1284 C 0.01805 0.48648 0.23254 0.0
C1285 C 0.02226 0.47763 0.24273 0.0
C1286 C 0.97176 0.45968 0.23268 0.0
C1287 C 0.03121 0.50202 0.22547 0.0
C1288 C 0.9688 0.53931 0.29438 0.0
C1289 C 0.98062 0.54964 0.28117 0.0
C1290 C 0.97672 0.53796 0.25395 0.0
C1291 C 0.99284 0.54384 0.24953 0.0
C1292 C 0.99675 0.5355 0.23793 0.0
C1293 C 0.98426 0.52096 0.23075 0.0
C1294 C 0.96793 0.51548 0.23459 0.0
C1295 C 0.96436 0.52425 0.246 0.0
C1296 C 0.01424 0.54195 0.23376 0.0
C1297 C 0.9543 0.50001 0.22721 0.0
C1298 C 0.96977 0.53862 0.1297 0.0
C1299 C 0.98629 0.54442 0.13217 0.0
C1300 C 0.99151 0.53439 0.1385 0.0
C1301 C 0.97995 0.51828 0.14239 0.0
C1302 C 0.9634 0.51211 0.13885 0.0
C1303 C 0.95853 0.52238 0.13239 0.0
C1304 C 0.00931 0.54113 0.14158 0.0
C1305 C 0.9508 0.49489 0.14254 0.0
C1306 C 0.01758 0.43117 0.13881 0.0
C1307 C 0.00562 0.43076 0.12627 0.0
C1308 C 0.00601 0.4564 0.12743 0.0
C1309 C 0.0176 0.47273 0.1297 0.0
C1310 C 0.01349 0.48353 0.13671 0.0
C1311 C 0.9973 0.47781 0.14126 0.0
C1312 C 0.9853 0.46152 0.13798 0.0
C1313 C 0.98978 0.45095 0.13104 0.0
C1314 C 0.02653 0.50089 0.13986 0.0
C1315 C 0.96784 0.45519 0.14225 0.0
C1316 C 0.9968 0.49079 0.21988 0.0
C1317 C 0.99299 0.50102 0.22852 0.0
C1318 C 0.98839 0.51073 0.2205 0.0
C1319 C 0.98764 0.51038 0.20331 0.0
C1320 C 0.9833 0.52016 0.19483 0.0
C1321 C 0.98236 0.51951 0.1779 0.0
C1322 C 0.98589 0.50916 0.16879 0.0
C1323 C 0.98495 0.50839 0.15157 0.0
C1324 C 0.98867 0.49808 0.14288 0.0
C1325 C 0.99327 0.48839 0.151 0.0
C1326 C 0.99415 0.48889 0.1682 0.0
C1327 C 0.99863 0.47918 0.17672 0.0
C1328 C -0.00054 0.47974 0.19363 0.0
C1329 C 0.99593 0.49008 0.20269 0.0
C1330 C 0.99136 0.49994 0.19438 0.0
C1331 C 0.99047 0.49934 0.17711 0.0
C1332 C 0.95695 0.56414 0.14137 0.0
C1333 C 0.96987 0.564 0.13062 0.0
O1334 O 0.01494 0.45614 0.26084 0.0
O1335 O 0.0109 0.44639 0.1214 0.0
O1336 O 0.96429 0.54838 0.12481 0.0
O1337 O 0.97283 0.54502 0.26614 0.0
H1338 H 0.99581 0.44846 0.27659 0.0
H1339 H 0.01648 0.47638 0.28449 0.0
H1340 H 0.03112 0.47036 0.28821 0.0
H1341 H 0.0133 0.4628 0.30074 0.0
H1342 H 0.98483 0.44651 0.25164 0.0
H1343 H 0.03485 0.48192 0.24547 0.0
H1344 H 0.96809 0.46793 0.23821 0.0
H1345 H 0.96397 0.44742 0.23763 0.0
H1346 H 0.96962 0.45916 0.21934 0.0
H1347 H 0.04348 0.50487 0.22932 0.0
H1348 H 0.02951 0.51218 0.22934 0.0
H1349 H 0.03044 0.50115 0.21197 0.0
H1350 H 0.99078 0.54723 0.28166 0.0
H1351 H 0.97472 0.54303 0.30657 0.0
H1352 H 0.96492 0.5264 0.29212 0.0
H1353 H 0.95786 0.54043 0.29435 0.0
H1354 H 0.00235 0.55481 0.25532 0.0
H1355 H 0.95195 0.51999 0.24936 0.0
H1356 H 0.01567 0.54176 0.22035 0.0
H1357 H 0.0183 0.53407 0.23908 0.0
H1358 H 0.02222 0.55448 0.23853 0.0
H1359 H 0.94231 0.49708 0.23198 0.0
H1360 H 0.95622 0.48981 0.22976 0.0
H1361 H 0.95416 0.50105 0.21378 0.0
H1362 H 0.9808 0.56834 0.13849 0.0
H1363 H 0.99509 0.5568 0.12929 0.0
H1364 H 0.94584 0.51795 0.13006 0.0
H1365 H 0.01162 0.54178 0.15489 0.0
H1366 H 0.01687 0.5534 0.13658 0.0
H1367 H 0.0131 0.53297 0.13603 0.0
H1368 H 0.93853 0.49172 0.13834 0.0
H1369 H 0.95049 0.49307 0.15587 0.0
H1370 H 0.95404 0.48648 0.13658 0.0
H1371 H 0.99358 0.4253 0.13211 0.0
H1372 H 0.01353 0.41879 0.14306 0.0
H1373 H 0.01833 0.43876 0.14953 0.0
H1374 H 0.02982 0.43635 0.13348 0.0
H1375 H 0.03003 0.47687 0.12649 0.0
H1376 H 0.98059 0.43851 0.12844 0.0
H1377 H 0.02809 0.50341 0.1532 0.0
H1378 H 0.0229 0.50911 0.13455 0.0
H1379 H 0.03833 0.50368 0.13468 0.0
H1380 H 0.95978 0.44256 0.1378 0.0
H1381 H 0.96368 0.463 0.13696 0.0
H1382 H 0.9667 0.45562 0.15568 0.0
H1383 H 0.99356 0.50138 0.24174 0.0
H1384 H 0.98051 0.52839 0.2012 0.0
H1385 H 0.97884 0.52726 0.17206 0.0
H1386 H 0.98798 0.49759 0.12968 0.0
H1387 H 0.00152 0.471 0.17042 0.0
H1388 H 0.00292 0.47197 0.19953 0.0
H1389 H 0.96113 0.57661 0.14601 0.0
H1390 H 0.9546 0.55627 0.15198 0.0
H1391 H 0.94543 0.55958 0.13449 0.0
C1392 C 0.47209 0.40582 0.29298 0.0
C1393 C 0.46326 0.41078 0.281 0.0
C1394 C 0.47377 0.41783 0.25382 0.0
C1395 C 0.47 0.42966 0.24994 0.0
C1396 C 0.47977 0.44211 0.23934 0.0
C1397 C 0.49367 0.4428 0.23266 0.0
C1398 C 0.49707 0.43043 0.23602 0.0
C1399 C 0.48687 0.41792 0.24639 0.0
C1400 C 0.47553 0.45484 0.23575 0.0
C1401 C 0.51187 0.43084 0.22925 0.0
C1402 C 0.59198 0.56143 0.278 0.0
C1403 C 0.58336 0.54466 0.27107 0.0
C1404 C 0.55886 0.5267 0.25519 0.0
C1405 C 0.56324 0.51513 0.25139 0.0
C1406 C 0.55315 0.50149 0.24161 0.0
C1407 C 0.53843 0.49938 0.23551 0.0
C1408 C 0.53395 0.51094 0.23941 0.0
C1409 C 0.54426 0.52447 0.24921 0.0
C1410 C 0.55823 0.48933 0.23771 0.0
C1411 C 0.5183 0.50902 0.23317 0.0
C1412 C 0.57269 0.52671 0.13405 0.0
C1413 C 0.57438 0.51369 0.13887 0.0
C1414 C 0.56139 0.49997 0.14578 0.0
C1415 C 0.54639 0.49917 0.14783 0.0
C1416 C 0.54454 0.51208 0.14268 0.0
C1417 C 0.55776 0.52571 0.13591 0.0
C1418 C 0.56381 0.48646 0.15128 0.0
C1419 C 0.52872 0.51162 0.14471 0.0
C1420 C 0.44895 0.37375 0.12646 0.0
C1421 C 0.45197 0.3904 0.12189 0.0
C1422 C 0.47827 0.41475 0.12663 0.0
C1423 C 0.49415 0.41878 0.12993 0.0
C1424 C 0.50471 0.43288 0.13889 0.0
C1425 C 0.49933 0.44341 0.14425 0.0
C1426 C 0.48354 0.43985 0.1401 0.0
C1427 C 0.47312 0.42549 0.1314 0.0
C1428 C 0.52152 0.43635 0.14286 0.0
C1429 C 0.47761 0.4511 0.14505 0.0
C1430 C 0.50543 0.45721 0.22352 0.0
C1431 C 0.51607 0.47108 0.23261 0.0
C1432 C 0.52771 0.48509 0.22504 0.0
C1433 C 0.52899 0.48532 0.20789 0.0
C1434 C 0.54082 0.4991 0.19992 0.0
C1435 C 0.54215 0.49914 0.18306 0.0
C1436 C 0.5316 0.48545 0.17349 0.0
C1437 C 0.53304 0.48532 0.15636 0.0
C1438 C 0.5222 0.47162 0.14717 0.0
C1439 C 0.51004 0.4578 0.15467 0.0
C1440 C 0.50862 0.4576 0.17185 0.0
C1441 C 0.49679 0.4438 0.17987 0.0
C1442 C 0.4956 0.44368 0.19677 0.0
C1443 C 0.50629 0.45729 0.20632 0.0
C1444 C 0.5182 0.47138 0.1985 0.0
C1445 C 0.51942 0.4715 0.18126 0.0
C1446 C 0.61116 0.5494 0.13938 0.0
C1447 C 0.60048 0.54379 0.12394 0.0
O1448 O 0.46534 0.40672 0.26527 0.0
O1449 O 0.46828 0.40047 0.11879 0.0
O1450 O 0.58509 0.54054 0.12791 0.0
O1451 O 0.56833 0.54016 0.26449 0.0
H1452 H 0.46914 0.42417 0.28261 0.0
H1453 H 0.48534 0.41331 0.29107 0.0
H1454 H 0.46852 0.39296 0.29107 0.0
H1455 H 0.46952 0.40779 0.30574 0.0
H1456 H 0.45958 0.42928 0.25543 0.0
H1457 H 0.48955 0.40861 0.24941 0.0
H1458 H 0.48419 0.46627 0.24225 0.0
H1459 H 0.4631 0.45122 0.23971 0.0
H1460 H 0.47656 0.45728 0.22251 0.0
H1461 H 0.51322 0.42075 0.23369 0.0
H1462 H 0.52288 0.44246 0.23271 0.0
H1463 H 0.51111 0.43005 0.21575 0.0
H1464 H 0.5831 0.5353 0.27908 0.0
H1465 H 0.59302 0.55997 0.29144 0.0
H1466 H 0.5827 0.56519 0.27946 0.0
H1467 H 0.61219 0.57361 0.26308 0.0
H1468 H 0.5745 0.51668 0.25597 0.0
H1469 H 0.54098 0.53344 0.25221 0.0
H1470 H 0.54893 0.47726 0.24208 0.0
H1471 H 0.57006 0.4927 0.24336 0.0
H1472 H 0.55909 0.48824 0.22431 0.0
H1473 H 0.5165 0.51902 0.23741 0.0
H1474 H 0.50798 0.4974 0.23731 0.0
H1475 H 0.51815 0.50861 0.21965 0.0
H1476 H 0.59998 0.53272 0.11894 0.0
H1477 H 0.58582 0.51421 0.1376 0.0
H1478 H 0.55654 0.53578 0.13216 0.0
H1479 H 0.56198 0.48503 0.16463 0.0
H1480 H 0.57607 0.48869 0.14844 0.0
H1481 H 0.55469 0.4749 0.14531 0.0
H1482 H 0.52898 0.52225 0.13932 0.0
H1483 H 0.52594 0.51132 0.15786 0.0
H1484 H 0.51878 0.50043 0.13887 0.0
H1485 H 0.44825 0.39495 0.13263 0.0
H1486 H 0.43592 0.36542 0.12889 0.0
H1487 H 0.45594 0.37486 0.13766 0.0
H1488 H 0.45282 0.36847 0.11654 0.0
H1489 H 0.49807 0.41054 0.12592 0.0
H1490 H 0.46102 0.4227 0.12827 0.0
H1491 H 0.52394 0.43865 0.15616 0.0
H1492 H 0.53051 0.44742 0.13655 0.0
H1493 H 0.52335 0.42626 0.13906 0.0
H1494 H 0.46583 0.44765 0.13921 0.0
H1495 H 0.48663 0.4637 0.14178 0.0
H1496 H 0.47613 0.4509 0.15847 0.0
H1497 H 0.5153 0.47096 0.2458 0.0
H1498 H 0.54928 0.50999 0.20663 0.0
H1499 H 0.55158 0.51007 0.17763 0.0
H1500 H 0.52342 0.4716 0.13403 0.0
H1501 H 0.48833 0.4329 0.17318 0.0
H1502 H 0.48625 0.43275 0.20228 0.0
H1503 H 0.62325 0.5511 0.13669 0.0
H1504 H 0.60566 0.54018 0.14894 0.0
H1505 H 0.61249 0.56084 0.14436 0.0
C1506 C 0.43613 0.96223 0.28639 0.0
C1507 C 0.43848 0.97814 0.28007 0.0
C1508 C 0.45011 0.98298 0.25323 0.0
C1509 C 0.46188 -0.00057 0.25346 0.0
C1510 C 0.47543 0.00531 0.24337 0.0
C1511 C 0.47731 0.99439 0.23309 0.0
C1512 C 0.46526 0.97777 0.23272 0.0
C1513 C 0.45161 0.97234 0.2426 0.0
C1514 C 0.48785 0.02313 0.24388 0.0
C1515 C 0.46697 0.96569 0.22221 0.0
C1516 C 0.60077 0.04206 0.25196 0.0
C1517 C 0.58885 0.02803 0.2625 0.0
C1518 C 0.5632 0.01399 0.24687 0.0
C1519 C 0.55253 -0.00053 0.2388 0.0
C1520 C 0.5382 0.997 0.23167 0.0
C1521 C 0.53466 0.00956 0.23237 0.0
C1522 C 0.5452 0.02419 0.24086 0.0
C1523 C 0.55935 0.02625 0.24813 0.0
C1524 C 0.52709 0.98111 0.22299 0.0
C1525 C 0.5417 0.03779 0.24184 0.0
C1526 C 0.56779 0.03154 0.1317 0.0
C1527 C 0.55752 0.01519 0.13521 0.0
C1528 C 0.54226 0.00985 0.14202 0.0
C1529 C 0.53736 0.02118 0.1456 0.0
C1530 C 0.54742 0.03753 0.14131 0.0
C1531 C 0.56244 0.04244 0.13416 0.0
C1532 C 0.53157 0.99219 0.1458 0.0
C1533 C 0.54255 0.04992 0.14477 0.0
C1534 C 0.41965 0.00025 0.14286 0.0
C1535 C 0.42945 0.00809 0.12756 0.0
C1536 C 0.45229 0.00363 0.13066 0.0
C1537 C 0.45521 0.99082 0.13094 0.0
C1538 C 0.46898 0.99251 0.13873 0.0
C1539 C 0.48027 0.00754 0.14605 0.0
C1540 C 0.47777 0.02078 0.14518 0.0
C1541 C 0.46375 0.01867 0.13758 0.0
C1542 C 0.47128 0.97816 0.13949 0.0
C1543 C 0.48987 0.03711 0.15244 0.0
C1544 C 0.49225 0.0002 0.22342 0.0
C1545 C 0.50613 0.0027 0.23155 0.0
C1546 C 0.52055 0.00778 0.22322 0.0
C1547 C 0.52125 0.01042 0.20631 0.0
C1548 C 0.53564 0.01567 0.19762 0.0
C1549 C 0.5361 0.01772 0.1809 0.0
C1550 C 0.52219 0.01459 0.17218 0.0
C1551 C 0.52245 0.01625 0.15508 0.0
C1552 C 0.50855 0.01358 0.14686 0.0
C1553 C 0.49431 0.00929 0.1553 0.0
C1554 C 0.49371 0.00719 0.17233 0.0
C1555 C 0.4795 0.00264 0.18115 0.0
C1556 C 0.47903 0.00053 0.1979 0.0
C1557 C 0.4927 0.00277 0.20647 0.0
C1558 C 0.50722 0.00769 0.19787 0.0
C1559 C 0.5077 0.00981 0.18078 0.0
C1560 C 0.60807 0.04806 0.13937 0.0
C1561 C 0.5939 0.03308 0.13124 0.0
O1562 O 0.43723 0.97715 0.26323 0.0
O1563 O 0.43847 0.00102 0.12336 0.0
O1564 O 0.58284 0.03716 0.12575 0.0
O1565 O 0.57713 0.01564 0.25283 0.0
H1566 H 0.45072 0.98804 0.28402 0.0
H1567 H 0.44543 0.95993 0.28113 0.0
H1568 H 0.42397 0.95199 0.28286 0.0
H1569 H 0.43741 0.9628 0.29987 0.0
H1570 H 0.4604 0.00762 0.26153 0.0
H1571 H 0.44232 0.95966 0.2425 0.0
H1572 H 0.49904 0.02505 0.24991 0.0
H1573 H 0.48351 0.03027 0.25067 0.0
H1574 H 0.49103 0.02776 0.23132 0.0
H1575 H 0.45747 0.95303 0.22472 0.0
H1576 H 0.47901 0.96702 0.22421 0.0
H1577 H 0.46608 0.968 0.20918 0.0
H1578 H 0.5831 0.03244 0.27132 0.0
H1579 H 0.61035 0.05182 0.25975 0.0
H1580 H 0.59446 0.0472 0.24531 0.0
H1581 H 0.60652 0.0379 0.24288 0.0
H1582 H 0.55557 0.99008 0.23798 0.0
H1583 H 0.56745 0.03754 0.25441 0.0
H1584 H 0.52758 0.98303 0.20967 0.0
H1585 H 0.5144 0.97635 0.22686 0.0
H1586 H 0.53049 0.97189 0.22535 0.0
H1587 H 0.55123 0.04853 0.24865 0.0
H1588 H 0.52994 0.03357 0.24795 0.0
H1589 H 0.54064 0.04144 0.22937 0.0
H1590 H 0.58846 0.02357 0.14061 0.0
H1591 H 0.56142 0.00663 0.13263 0.0
H1592 H 0.57037 0.05497 0.13105 0.0
H1593 H 0.53149 0.99062 0.15915 0.0
H1594 H 0.53583 0.9846 0.13982 0.0
H1595 H 0.51893 0.98779 0.14181 0.0
H1596 H 0.55212 0.0623 0.14145 0.0
H1597 H 0.53979 0.04997 0.1579 0.0
H1598 H 0.53139 0.04667 0.13776 0.0
H1599 H 0.43745 0.02124 0.13001 0.0
H1600 H 0.41229 0.00574 0.14629 0.0
H1601 H 0.42793 0.00218 0.15319 0.0
H1602 H 0.4115 0.98704 0.14077 0.0
H1603 H 0.44639 0.97932 0.12539 0.0
H1604 H 0.46202 0.0289 0.13693 0.0
H1605 H 0.4717 0.97517 0.1524 0.0
H1606 H 0.48302 0.9812 0.13395 0.0
H1607 H 0.46145 0.96731 0.13307 0.0
H1608 H 0.48668 0.04645 0.14988 0.0
H1609 H 0.50207 0.04113 0.14752 0.0
H1610 H 0.49053 0.03619 0.16583 0.0
H1611 H 0.50567 0.00049 0.2445 0.0
H1612 H 0.54673 0.01821 0.20364 0.0
H1613 H 0.54753 0.02176 0.17492 0.0
H1614 H 0.50887 0.01508 0.13378 0.0
H1615 H 0.46856 0.00058 0.17519 0.0
H1616 H 0.46778 0.99702 0.20405 0.0
H1617 H 0.61427 0.05786 0.13044 0.0
H1618 H 0.61694 0.04515 0.14452 0.0
H1619 H 0.60357 0.05249 0.14949 0.0
C1620 C 0.56064 0.96212 0.75953 0.0
C1621 C 0.56336 0.97721 0.75078 0.0
C1622 C 0.55396 0.99179 0.76833 0.0
C1623 C 0.5592 0.00678 0.77591 0.0
C1624 C 0.54822 0.01042 0.78319 0.0
C1625 C 0.53162 0.99846 0.78338 0.0
C1626 C 0.52617 0.98326 0.7756 0.0
C1627 C 0.53739 0.98013 0.76797 0.0
C1628 C 0.55446 0.02694 0.79092 0.0
C1629 C 0.50855 0.97019 0.77566 0.0
C1630 C 0.42392 0.99703 0.73866 0.0
C1631 C 0.43487 0.99361 0.74834 0.0
C1632 C 0.46144 0.00695 0.76145 0.0
C1633 C 0.45865 0.99308 0.7697 0.0
C1634 C 0.47067 0.99332 0.77952 0.0
C1635 C 0.48579 0.00778 0.78136 0.0
C1636 C 0.48863 0.02183 0.77327 0.0
C1637 C 0.47639 0.02122 0.76338 0.0
C1638 C 0.4672 0.97802 0.78784 0.0
C1639 C 0.50458 0.03744 0.77509 0.0
C1640 C 0.46267 0.01992 0.88065 0.0
C1641 C 0.4576 0.00365 0.87724 0.0
C1642 C 0.4686 -0.00075 0.87143 0.0
C1643 C 0.48495 0.01136 0.86921 0.0
C1644 C 0.49028 0.02757 0.87376 0.0
C1645 C 0.47904 0.03162 0.87952 0.0
C1646 C 0.46264 0.98178 0.86709 0.0
C1647 C 0.50768 0.04073 0.87179 0.0
C1648 C 0.55899 0.95788 0.881 0.0
C1649 C 0.56247 0.97355 0.88969 0.0
C1650 C 0.54036 0.9789 0.88699 0.0
C1651 C 0.52384 0.96936 0.88366 0.0
C1652 C 0.51554 0.97567 0.87549 0.0
C1653 C 0.52393 0.99212 0.87107 0.0
C1654 C 0.5405 0.00208 0.87529 0.0
C1655 C 0.5486 0.99532 0.88309 0.0
C1656 C 0.49787 0.96467 0.87133 0.0
C1657 C 0.54967 0.01979 0.87132 0.0
C1658 C 0.52013 0.00161 0.79244 0.0
C1659 C 0.5098 0.00494 0.78358 0.0
C1660 C 0.4986 0.00782 0.79145 0.0
C1661 C 0.49836 0.00843 0.80866 0.0
C1662 C 0.48799 0.01235 0.81695 0.0
C1663 C 0.4874 0.01231 0.83387 0.0
C1664 C 0.49694 0.00806 0.84314 0.0
C1665 C 0.49598 0.00742 0.86032 0.0
C1666 C 0.50524 0.00269 0.86915 0.0
C1667 C 0.51554 0.99851 0.86123 0.0
C1668 C 0.51691 -0.00058 0.84406 0.0
C1669 C 0.52716 0.99536 0.83568 0.0
C1670 C 0.52836 0.99622 0.81881 0.0
C1671 C 0.51915 0.0009 0.80961 0.0
C1672 C 0.50847 0.00466 0.81776 0.0
C1673 C 0.50754 0.00417 0.83501 0.0
C1674 C 0.43377 0.03007 0.87161 0.0
C1675 C 0.43607 0.01777 0.88096 0.0
O1676 O 0.56539 0.98904 0.76201 0.0
O1677 O 0.5479 0.97203 0.8944 0.0
O1678 O 0.45229 0.02488 0.88517 0.0
O1679 O 0.45006 0.00695 0.75157 0.0
H1680 H 0.55278 0.97391 0.7427 0.0
H1681 H 0.54951 0.957 0.76692 0.0
H1682 H 0.57099 0.96508 0.76777 0.0
H1683 H 0.55923 0.95273 0.75048 0.0
H1684 H 0.57201 0.0157 0.77607 0.0
H1685 H 0.53318 0.96846 0.76215 0.0
H1686 H 0.54664 0.03183 0.78748 0.0
H1687 H 0.56708 0.03564 0.7873 0.0
H1688 H 0.55417 0.02598 0.80437 0.0
H1689 H 0.50651 0.95852 0.77053 0.0
H1690 H 0.50144 0.97402 0.76833 0.0
H1691 H 0.50384 0.96827 0.78828 0.0
H1692 H 0.43541 0.98284 0.74394 0.0
H1693 H 0.42176 0.99002 0.72687 0.0
H1694 H 0.43179 0.0092 0.73308 0.0
H1695 H 0.4053 0.99238 0.7549 0.0
H1696 H 0.44713 0.98195 0.76851 0.0
H1697 H 0.47846 0.03188 0.75706 0.0
H1698 H 0.46705 0.97973 0.80123 0.0
H1699 H 0.47687 0.97527 0.78514 0.0
H1700 H 0.45539 0.96744 0.784 0.0
H1701 H 0.50454 0.04759 0.76889 0.0
H1702 H 0.51434 0.03584 0.76985 0.0
H1703 H 0.50749 0.04069 0.7882 0.0
H1704 H 0.4321 0.0071 0.87267 0.0
H1705 H 0.44511 0.99436 0.87899 0.0
H1706 H 0.48288 0.04409 0.88257 0.0
H1707 H 0.46388 0.98049 0.85378 0.0
H1708 H 0.4498 0.97368 0.87042 0.0
H1709 H 0.47017 0.9778 0.8734 0.0
H1710 H 0.51018 0.05247 0.87719 0.0
H1711 H 0.51063 0.04236 0.85863 0.0
H1712 H 0.51581 0.0372 0.87761 0.0
H1713 H 0.56882 0.98355 0.88094 0.0
H1714 H 0.57038 0.95884 0.87663 0.0
H1715 H 0.55097 0.95547 0.87029 0.0
H1716 H 0.55289 0.94752 0.88934 0.0
H1717 H 0.51757 0.95678 0.88704 0.0
H1718 H 0.56128 0.00285 0.88629 0.0
H1719 H 0.49573 0.96522 0.85814 0.0
H1720 H 0.49061 0.9688 0.87815 0.0
H1721 H 0.49347 0.9519 0.87443 0.0
H1722 H 0.56177 0.02632 0.87732 0.0
H1723 H 0.54269 0.02557 0.87518 0.0
H1724 H 0.55133 0.02113 0.85796 0.0
H1725 H 0.51008 0.00468 0.77037 0.0
H1726 H 0.48027 0.01554 0.81043 0.0
H1727 H 0.47918 0.01546 0.83955 0.0
H1728 H 0.50419 0.00194 0.8823 0.0
H1729 H 0.53441 0.9915 0.84204 0.0
H1730 H 0.53646 0.99294 0.81306 0.0
H1731 H 0.42101 0.02469 0.86751 0.0
H1732 H 0.44155 0.03388 0.86066 0.0
H1733 H 0.43716 0.04095 0.87939 0.0
C1734 C 0.01977 0.5636 0.73075 0.0
C1735 C 0.00544 0.56214 0.74032 0.0
C1736 C 0.00573 0.55263 0.76725 0.0
C1737 C 0.9897 0.54038 0.76964 0.0
C1738 C 0.98608 0.52753 0.77995 0.0
C1739 C -0.00116 0.52688 0.7878 0.0
C1740 C 0.01504 0.53949 0.78565 0.0
C1741 C 0.01822 0.55241 0.77563 0.0
C1742 C 0.96868 0.51447 0.78216 0.0
C1743 C 0.02903 0.53911 0.79348 0.0
C1744 C -5e-05 0.41952 0.74387 0.0
C1745 C 0.00406 0.43522 0.75167 0.0
C1746 C 0.99099 0.44782 0.76619 0.0
C1747 C 0.00551 0.46111 0.77209 0.0
C1748 C 0.00544 0.47324 0.78173 0.0
C1749 C 0.99055 0.47214 0.78548 0.0
C1750 C 0.97591 0.45885 0.77952 0.0
C1751 C 0.97632 0.4468 0.76998 0.0
C1752 C 0.0213 0.48726 0.78791 0.0
C1753 C 0.95987 0.45738 0.78333 0.0
C1754 C 0.98781 0.44065 0.88353 0.0
C1755 C 0.00334 0.45331 0.87967 0.0
C1756 C 0.00568 0.4681 0.87425 0.0
C1757 C 0.99227 0.47035 0.87297 0.0
C1758 C 0.97685 0.45803 0.87799 0.0
C1759 C 0.97485 0.44334 0.88326 0.0
C1760 C 0.02236 0.48112 0.86933 0.0
C1761 C 0.96235 0.46011 0.87702 0.0
C1762 C 0.04132 0.59862 0.88357 0.0
C1763 C 0.026 0.58617 0.89222 0.0
C1764 C 0.0211 0.55873 0.89065 0.0
C1765 C 0.03077 0.55223 0.88679 0.0
C1766 C 0.0242 0.53706 0.879 0.0
C1767 C 0.00738 0.52794 0.87557 0.0
C1768 C 0.99735 0.53404 0.8805 0.0
C1769 C 0.00437 0.54952 0.88783 0.0
C1770 C 0.03531 0.53093 0.8742 0.0
C1771 C 0.97931 0.52438 0.8777 0.0
C1772 C 0.99535 0.51236 0.79704 0.0
C1773 C 0.99271 0.49874 0.78804 0.0
C1774 C 0.99052 0.48497 0.79573 0.0
C1775 C 0.99041 0.48446 0.8129 0.0
C1776 C 0.9879 0.47063 0.82097 0.0
C1777 C 0.98865 0.47051 0.83785 0.0
C1778 C 0.99223 0.48432 0.84732 0.0
C1779 C 0.99398 0.4846 0.86444 0.0
C1780 C 0.99818 0.49871 0.87346 0.0
C1781 C 0.00068 0.51267 0.86578 0.0
C1782 C 0.9985 0.51244 0.84869 0.0
C1783 C 0.00066 0.52615 0.84056 0.0
C1784 C -0.00096 0.52597 0.82371 0.0
C1785 C 0.99582 0.5123 0.81426 0.0
C1786 C 0.99336 0.49828 0.8222 0.0
C1787 C 0.99448 0.49828 0.83944 0.0
C1788 C 0.98226 0.40315 0.87295 0.0
C1789 C 0.99329 0.41821 0.88333 0.0
O1790 O 0.0094 0.56468 0.75676 0.0
O1791 O 0.02821 0.5738 0.89742 0.0
O1792 O 0.98475 0.42576 0.88772 0.0
O1793 O 0.99064 0.43579 0.75691 0.0
H1794 H 0.99492 0.54974 0.73804 0.0
H1795 H 0.02265 0.55443 0.73491 0.0
H1796 H 0.03063 0.5758 0.73266 0.0
H1797 H 0.0168 0.56147 0.71753 0.0
H1798 H 0.98006 0.54088 0.76337 0.0
H1799 H 0.03055 0.56207 0.77375 0.0
H1800 H 0.96644 0.50323 0.77578 0.0
H1801 H 0.96013 0.51792 0.77721 0.0
H1802 H 0.96612 0.51176 0.79528 0.0
H1803 H 0.04088 0.54862 0.78878 0.0
H1804 H 0.02791 0.52715 0.79135 0.0
H1805 H 0.02893 0.54102 0.80683 0.0
H1806 H 0.01272 0.44612 0.74478 0.0
H1807 H 0.00383 0.42244 0.73084 0.0
H1808 H 0.98662 0.413 0.74088 0.0
H1809 H 0.01016 0.41023 0.75969 0.0
H1810 H 0.01697 0.46209 0.76928 0.0
H1811 H 0.96518 0.43651 0.7654 0.0
H1812 H 0.02116 0.48814 0.8014 0.0
H1813 H 0.02299 0.49871 0.78307 0.0
H1814 H 0.03181 0.48611 0.78427 0.0
H1815 H 0.94956 0.44643 0.77756 0.0
H1816 H 0.95981 0.46823 0.77905 0.0
H1817 H 0.95812 0.45688 0.79672 0.0
H1818 H 0.00391 0.42607 0.87573 0.0
H1819 H 0.01367 0.45177 0.88079 0.0
H1820 H 0.96298 0.43364 0.88666 0.0
H1821 H 0.02237 0.48348 0.85614 0.0
H1822 H 0.03166 0.4778 0.87169 0.0
H1823 H 0.02576 0.49252 0.8761 0.0
H1824 H 0.95151 0.45001 0.88274 0.0
H1825 H 0.95948 0.4607 0.86405 0.0
H1826 H 0.96512 0.47166 0.88311 0.0
H1827 H 0.01578 0.5815 0.8833 0.0
H1828 H 0.03979 0.60849 0.87878 0.0
H1829 H 0.04382 0.59272 0.87314 0.0
H1830 H 0.05186 0.60389 0.89206 0.0
H1831 H 0.04363 0.55937 0.88939 0.0
H1832 H 0.99684 0.5544 0.89142 0.0
H1833 H 0.03332 0.52684 0.86123 0.0
H1834 H 0.03259 0.5204 0.88172 0.0
H1835 H 0.04826 0.54027 0.87601 0.0
H1836 H 0.97298 0.52962 0.88447 0.0
H1837 H 0.97438 0.5117 0.88148 0.0
H1838 H 0.97664 0.5241 0.86452 0.0
H1839 H 0.99304 0.4991 0.77484 0.0
H1840 H 0.98538 0.45976 0.81432 0.0
H1841 H 0.98667 0.45952 0.84333 0.0
H1842 H 2e-05 0.49899 0.88652 0.0
H1843 H 0.00366 0.53722 0.8471 0.0
H1844 H 0.00074 0.53683 0.81813 0.0
H1845 H 0.97133 0.39465 0.87986 0.0
H1846 H 0.98879 0.39688 0.86913 0.0
H1847 H 0.97834 0.40667 0.86183 0.0
C1848 C 0.53124 0.57884 0.73031 0.0
C1849 C 0.54288 0.58768 0.74467 0.0
C1850 C 0.52757 0.56818 0.76605 0.0
C1851 C 0.51551 0.57218 0.76818 0.0
C1852 C 0.50179 0.56248 0.77753 0.0
C1853 C 0.50009 0.54849 0.78481 0.0
C1854 C 0.51234 0.5446 0.78291 0.0
C1855 C 0.52602 0.55464 0.7737 0.0
C1856 C 0.48904 0.56708 0.77955 0.0
C1857 C 0.51089 0.52973 0.79042 0.0
C1858 C 0.40612 0.47504 0.7214 0.0
C1859 C 0.41228 0.46799 0.73409 0.0
C1860 C 0.41998 0.48116 0.76073 0.0
C1861 C 0.43272 0.47884 0.76504 0.0
C1862 C 0.4447 0.48942 0.77617 0.0
C1863 C 0.44402 0.50275 0.78286 0.0
C1864 C 0.43094 0.50489 0.77873 0.0
C1865 C 0.41887 0.4938 0.76795 0.0
C1866 C 0.45826 0.48655 0.7805 0.0
C1867 C 0.42997 0.51914 0.78527 0.0
C1868 C 0.41115 0.48645 0.88738 0.0
C1869 C 0.42093 0.48049 0.88174 0.0
C1870 C 0.4356 0.49069 0.87395 0.0
C1871 C 0.44024 0.50701 0.87133 0.0
C1872 C 0.43053 0.51308 0.87739 0.0
C1873 C 0.41624 0.50275 0.88562 0.0
C1874 C 0.44605 0.484 0.86845 0.0
C1875 C 0.43511 0.53042 0.87499 0.0
C1876 C 0.55394 0.60923 0.88134 0.0
C1877 C 0.5469 0.60244 0.89807 0.0
C1878 C 0.52516 0.57501 0.88984 0.0
C1879 C 0.52171 0.55912 0.88779 0.0
C1880 C 0.50785 0.54753 0.87927 0.0
C1881 C 0.49703 0.55194 0.87289 0.0
C1882 C 0.50009 0.56786 0.87547 0.0
C1883 C 0.5142 0.57929 0.88382 0.0
C1884 C 0.50497 0.53068 0.87674 0.0
C1885 C 0.48859 0.57284 0.86911 0.0
C1886 C 0.4853 0.53768 0.79407 0.0
C1887 C 0.47177 0.52608 0.78529 0.0
C1888 C 0.45759 0.51503 0.79317 0.0
C1889 C 0.45679 0.51563 0.81036 0.0
C1890 C 0.44274 0.50476 0.81873 0.0
C1891 C 0.44205 0.50559 0.83563 0.0
C1892 C 0.45554 0.51699 0.84486 0.0
C1893 C 0.4551 0.51773 0.86208 0.0
C1894 C 0.46878 0.52918 0.87084 0.0
C1895 C 0.48293 0.54012 0.86288 0.0
C1896 C 0.4836 0.53964 0.84569 0.0
C1897 C 0.49766 0.55051 0.83731 0.0
C1898 C 0.49819 0.55 0.82041 0.0
C1899 C 0.48477 0.53847 0.81123 0.0
C1900 C 0.47045 0.52739 0.8194 0.0
C1901 C 0.46986 0.528 0.83667 0.0
C1902 C 0.36905 0.45991 0.8886 0.0
C1903 C 0.38553 0.46118 0.88986 0.0
O1904 O 0.54078 0.57685 0.75666 0.0
O1905 O 0.53921 0.58571 0.89757 0.0
O1906 O 0.39684 0.47685 0.89473 0.0
O1907 O 0.40872 0.47143 0.74949 0.0
H1908 H 0.54066 0.59715 0.74982 0.0
H1909 H 0.51848 0.57319 0.73426 0.0
H1910 H 0.53322 0.56921 0.7252 0.0
H1911 H 0.53308 0.58744 0.72056 0.0
H1912 H 0.51668 0.5828 0.76256 0.0
H1913 H 0.53544 0.55172 0.77208 0.0
H1914 H 0.4776 0.55768 0.77363 0.0
H1915 H 0.49267 0.57892 0.77411 0.0
H1916 H 0.48655 0.56762 0.79268 0.0
H1917 H 0.52104 0.52791 0.78701 0.0
H1918 H 0.49934 0.51886 0.78651 0.0
H1919 H 0.51068 0.53078 0.80389 0.0
H1920 H 0.42562 0.47386 0.73251 0.0
H1921 H 0.40911 0.47278 0.70892 0.0
H1922 H 0.41195 0.48831 0.72345 0.0
H1923 H 0.3928 0.46957 0.72232 0.0
H1924 H 0.43328 0.46877 0.75965 0.0
H1925 H 0.40886 0.49535 0.76458 0.0
H1926 H 0.46047 0.48785 0.79386 0.0
H1927 H 0.46954 0.49573 0.77457 0.0
H1928 H 0.45566 0.47437 0.77642 0.0
H1929 H 0.4199 0.51991 0.77962 0.0
H1930 H 0.44149 0.53056 0.78306 0.0
H1931 H 0.42812 0.51812 0.79863 0.0
H1932 H 0.38842 0.4584 0.8775 0.0
H1933 H 0.41718 0.46795 0.8836 0.0
H1934 H 0.40867 0.50723 0.89028 0.0
H1935 H 0.44532 0.48248 0.855 0.0
H1936 H 0.44219 0.47207 0.87384 0.0
H1937 H 0.4589 0.49251 0.87183 0.0
H1938 H 0.42537 0.53273 0.87881 0.0
H1939 H 0.43791 0.53362 0.862 0.0
H1940 H 0.44615 0.53854 0.88227 0.0
H1941 H 0.53816 0.60624 0.90169 0.0
H1942 H 0.54418 0.60477 0.87201 0.0
H1943 H 0.56025 0.62264 0.88174 0.0
H1944 H 0.56266 0.60546 0.87756 0.0
H1945 H 0.53018 0.55592 0.89258 0.0
H1946 H 0.51656 0.59148 0.8855 0.0
H1947 H 0.50416 0.52774 0.86351 0.0
H1948 H 0.49326 0.5218 0.88222 0.0
H1949 H 0.5147 0.52925 0.88224 0.0
H1950 H 0.49187 0.58517 0.87342 0.0
H1951 H 0.47607 0.56414 0.87301 0.0
H1952 H 0.48865 0.57259 0.8556 0.0
H1953 H 0.47234 0.52551 0.77211 0.0
H1954 H 0.43208 0.49556 0.81229 0.0
H1955 H 0.43081 0.49706 0.84136 0.0
H1956 H 0.46838 0.52967 0.88403 0.0
H1957 H 0.50842 0.55958 0.84372 0.0
H1958 H 0.50931 0.55873 0.81463 0.0
H1959 H 0.36531 0.46219 0.9007 0.0
H1960 H 0.35969 0.44775 0.88395 0.0
H1961 H 0.36974 0.46902 0.88 0.0
C1962 C 0.63542 0.77511 0.62389 0.0
C1963 C 0.62889 0.75952 0.61354 0.0
C1964 C 0.62748 0.77074 0.58752 0.0
C1965 C 0.61141 0.76723 0.58782 0.0
C1966 C 0.60632 0.77546 0.57776 0.0
C1967 C 0.61761 0.78767 0.5675 0.0
C1968 C 0.6338 0.79111 0.56712 0.0
C1969 C 0.63838 0.78228 0.57686 0.0
C1970 C 0.5889 0.77123 0.57824 0.0
C1971 C 0.64639 0.80438 0.55678 0.0
C1972 C 0.59939 0.86458 0.62679 0.0
C1973 C 0.61271 0.87104 0.61402 0.0
C1974 C 0.6065 0.85628 0.58828 0.0
C1975 C 0.62142 0.85813 0.58391 0.0
C1976 C 0.62218 0.84674 0.57359 0.0
C1977 C 0.60766 0.83306 0.56782 0.0
C1978 C 0.59258 0.83132 0.57207 0.0
C1979 C 0.59223 0.84319 0.58199 0.0
C1980 C 0.63849 0.84922 0.56904 0.0
C1981 C 0.57683 0.81676 0.56648 0.0
C1982 C 0.59602 0.85188 0.46722 0.0
C1983 C 0.6115 0.85429 0.47001 0.0
C1984 C 0.61345 0.84196 0.47635 0.0
C1985 C 0.59962 0.8269 0.47986 0.0
C1986 C 0.58406 0.82403 0.47587 0.0
C1987 C 0.58247 0.83658 0.46946 0.0
C1988 C 0.63027 0.84526 0.47998 0.0
C1989 C 0.5691 0.80798 0.47912 0.0
C1990 C 0.61087 0.7253 0.47072 0.0
C1991 C 0.60957 0.73145 0.45401 0.0
C1992 C 0.61422 0.75833 0.46223 0.0
C1993 C 0.62638 0.7745 0.46413 0.0
C1994 C 0.6237 0.78559 0.47282 0.0
C1995 C 0.60827 0.78041 0.47946 0.0
C1996 C 0.59568 0.76417 0.4771 0.0
C1997 C 0.59882 0.75323 0.46863 0.0
C1998 C 0.63743 0.80281 0.47501 0.0
C1999 C 0.57898 0.75836 0.48366 0.0
C2000 C 0.6128 0.79752 0.55793 0.0
C2001 C 0.61154 0.80962 0.56627 0.0
C2002 C 0.60829 0.82024 0.55803 0.0
C2003 C 0.60625 0.81881 0.54091 0.0
C2004 C 0.60345 0.82956 0.53217 0.0
C2005 C 0.60161 0.82816 0.51532 0.0
C2006 C 0.60271 0.81606 0.50651 0.0
C2007 C 0.60142 0.81491 0.48932 0.0
C2008 C 0.60275 0.80288 0.4809 0.0
C2009 C 0.60553 0.79196 0.48922 0.0
C2010 C 0.60682 0.79289 0.50643 0.0
C2011 C 0.60969 0.78217 0.5152 0.0
C2012 C 0.61131 0.78343 0.53209 0.0
C2013 C 0.61043 0.79565 0.54085 0.0
C2014 C 0.60726 0.80643 0.5323 0.0
C2015 C 0.60546 0.80503 0.51508 0.0
C2016 C 0.5923 0.88512 0.47691 0.0
C2017 C 0.60304 0.88009 0.46785 0.0
O2018 O 0.63294 0.76333 0.59735 0.0
O2019 O 0.61799 0.74821 0.4542 0.0
O2020 O 0.59373 0.86407 0.46268 0.0
O2021 O 0.60561 0.86692 0.59864 0.0
H2022 H 0.61554 0.75219 0.61476 0.0
H2023 H 0.63004 0.78226 0.61972 0.0
H2024 H 0.64878 0.78261 0.62286 0.0
H2025 H 0.63224 0.77232 0.6369 0.0
H2026 H 0.60278 0.75799 0.59572 0.0
H2027 H 0.65072 0.78479 0.57668 0.0
H2028 H 0.58816 0.7812 0.58442 0.0
H2029 H 0.58115 0.75991 0.58489 0.0
H2030 H 0.58402 0.76983 0.56568 0.0
H2031 H 0.65882 0.80713 0.55978 0.0
H2032 H 0.6459 0.81561 0.55841 0.0
H2033 H 0.64393 0.80065 0.54374 0.0
H2034 H 0.62004 0.86524 0.61612 0.0
H2035 H 0.60473 0.86747 0.63926 0.0
H2036 H 0.59171 0.85124 0.62538 0.0
H2037 H 0.59161 0.86994 0.62533 0.0
H2038 H 0.63244 0.86852 0.58858 0.0
H2039 H 0.58078 0.84199 0.5854 0.0
H2040 H 0.63896 0.84728 0.55572 0.0
H2041 H 0.64044 0.84025 0.57534 0.0
H2042 H 0.64851 0.86152 0.5725 0.0
H2043 H 0.56621 0.81639 0.57228 0.0
H2044 H 0.57675 0.80549 0.56933 0.0
H2045 H 0.57556 0.817 0.55308 0.0
H2046 H 0.61231 0.88168 0.477 0.0
H2047 H 0.62208 0.86586 0.46749 0.0
H2048 H 0.57058 0.83473 0.4669 0.0
H2049 H 0.63206 0.84559 0.49336 0.0
H2050 H 0.63977 0.85695 0.47501 0.0
H2051 H 0.63179 0.8354 0.47478 0.0
H2052 H 0.55795 0.80735 0.47446 0.0
H2053 H 0.56791 0.80594 0.49244 0.0
H2054 H 0.5702 0.79806 0.47333 0.0
H2055 H 0.59665 0.72676 0.45091 0.0
H2056 H 0.60424 0.71188 0.47061 0.0
H2057 H 0.60548 0.72937 0.48027 0.0
H2058 H 0.62374 0.72996 0.47398 0.0
H2059 H 0.63818 0.77834 0.45904 0.0
H2060 H 0.58919 0.7408 0.46709 0.0
H2061 H 0.63893 0.80653 0.48808 0.0
H2062 H 0.63457 0.81094 0.46827 0.0
H2063 H 0.64907 0.80451 0.47046 0.0
H2064 H 0.57011 0.74587 0.47938 0.0
H2065 H 0.57468 0.76657 0.47992 0.0
H2066 H 0.57942 0.75859 0.49718 0.0
H2067 H 0.61342 0.811 0.57937 0.0
H2068 H 0.6027 0.83924 0.53824 0.0
H2069 H 0.59944 0.83679 0.50929 0.0
H2070 H 0.60203 0.80228 0.4677 0.0
H2071 H 0.61076 0.77268 0.50911 0.0
H2072 H 0.61343 0.7748 0.53819 0.0
H2073 H 0.5815 0.88239 0.46951 0.0
H2074 H 0.59924 0.89824 0.48007 0.0
H2075 H 0.58799 0.87831 0.48838 0.0
C2076 C 0.13182 0.72916 0.63364 0.0
C2077 C 0.12698 0.73857 0.62249 0.0
C2078 C 0.13941 0.74897 0.59643 0.0
C2079 C 0.13657 0.76179 0.59483 0.0
C2080 C 0.14649 0.77493 0.58499 0.0
C2081 C 0.15975 0.7754 0.57691 0.0
C2082 C 0.16246 0.7623 0.57835 0.0
C2083 C 0.15195 0.74905 0.58779 0.0
C2084 C 0.14297 0.78845 0.5835 0.0
C2085 C 0.1767 0.76248 0.57038 0.0
C2086 C 0.26034 0.89572 0.61862 0.0
C2087 C 0.25134 0.87843 0.61327 0.0
C2088 C 0.22599 0.8597 0.59894 0.0
C2089 C 0.23015 0.84797 0.59516 0.0
C2090 C 0.2197 0.83412 0.5858 0.0
C2091 C 0.20482 0.83198 0.58015 0.0
C2092 C 0.20049 0.84362 0.58418 0.0
C2093 C 0.21117 0.85735 0.59352 0.0
C2094 C 0.22462 0.82187 0.58173 0.0
C2095 C 0.18468 0.84166 0.57842 0.0
C2096 C 0.23695 0.86116 0.47824 0.0
C2097 C 0.23901 0.84816 0.48221 0.0
C2098 C 0.22642 0.83423 0.48927 0.0
C2099 C 0.21144 0.83322 0.4923 0.0
C2100 C 0.20921 0.8461 0.48797 0.0
C2101 C 0.22204 0.85994 0.48107 0.0
C2102 C 0.22922 0.82073 0.49385 0.0
C2103 C 0.19338 0.84538 0.49097 0.0
C2104 C 0.11196 0.70761 0.46874 0.0
C2105 C 0.11665 0.72508 0.46562 0.0
C2106 C 0.14338 0.74864 0.47112 0.0
C2107 C 0.15914 0.75239 0.47462 0.0
C2108 C 0.16984 0.76651 0.48345 0.0
C2109 C 0.16471 0.77732 0.48852 0.0
C2110 C 0.14907 0.77406 0.48415 0.0
C2111 C 0.13852 0.7597 0.47554 0.0
C2112 C 0.1865 0.7697 0.48768 0.0
C2113 C 0.14343 0.7856 0.48886 0.0
C2114 C 0.1714 0.79004 0.56792 0.0
C2115 C 0.18231 0.80371 0.57712 0.0
C2116 C 0.19395 0.81779 0.56963 0.0
C2117 C 0.19504 0.81827 0.55247 0.0
C2118 C 0.2069 0.83212 0.54458 0.0
C2119 C 0.20803 0.83242 0.52771 0.0
C2120 C 0.19726 0.81894 0.51803 0.0
C2121 C 0.19846 0.81908 0.50086 0.0
C2122 C 0.18755 0.80549 0.49158 0.0
C2123 C 0.17544 0.7916 0.49902 0.0
C2124 C 0.1741 0.79121 0.5162 0.0
C2125 C 0.16212 0.77742 0.5241 0.0
C2126 C 0.16103 0.77709 0.54101 0.0
C2127 C 0.17203 0.79043 0.5507 0.0
C2128 C 0.18403 0.80455 0.54297 0.0
C2129 C 0.18508 0.80492 0.52571 0.0
C2130 C 0.27553 0.88402 0.48202 0.0
C2131 C 0.26421 0.87868 0.46706 0.0
O2132 O 0.13046 0.73659 0.60653 0.0
O2133 O 0.13324 0.73427 0.46353 0.0
O2134 O 0.24898 0.87518 0.47202 0.0
O2135 O 0.23589 0.87347 0.60758 0.0
H2136 H 0.13443 0.75152 0.62644 0.0
H2137 H 0.145 0.73387 0.63263 0.0
H2138 H 0.12523 0.7161 0.63019 0.0
H2139 H 0.12914 0.73059 0.64653 0.0
H2140 H 0.12662 0.7615 0.60132 0.0
H2141 H 0.15395 0.739 0.58908 0.0
H2142 H 0.15199 0.79909 0.59082 0.0
H2143 H 0.13072 0.78494 0.58797 0.0
H2144 H 0.14399 0.79218 0.57064 0.0
H2145 H 0.17854 0.75269 0.57485 0.0
H2146 H 0.18795 0.77427 0.57269 0.0
H2147 H 0.17468 0.76082 0.55702 0.0
H2148 H 0.25164 0.86981 0.62195 0.0
H2149 H 0.26232 0.89548 0.6321 0.0
H2150 H 0.25116 0.89961 0.62011 0.0
H2151 H 0.27945 0.9065 0.60217 0.0
H2152 H 0.24155 0.84959 0.59939 0.0
H2153 H 0.20805 0.86644 0.59654 0.0
H2154 H 0.22539 0.82084 0.56831 0.0
H2155 H 0.21529 0.80981 0.58608 0.0
H2156 H 0.23646 0.82514 0.58727 0.0
H2157 H 0.18291 0.8516 0.58295 0.0
H2158 H 0.17447 0.82998 0.58259 0.0
H2159 H 0.18427 0.84137 0.5649 0.0
H2160 H 0.26357 0.86778 0.46136 0.0
H2161 H 0.25045 0.84885 0.48016 0.0
H2162 H 0.22054 0.86999 0.47795 0.0
H2163 H 0.22755 0.81875 0.50716 0.0
H2164 H 0.24152 0.8233 0.49062 0.0
H2165 H 0.22017 0.80933 0.48755 0.0
H2166 H 0.19326 0.856 0.48606 0.0
H2167 H 0.19112 0.8449 0.50427 0.0
H2168 H 0.1833 0.8342 0.48528 0.0
H2169 H 0.11299 0.7293 0.47667 0.0
H2170 H 0.09869 0.69997 0.47044 0.0
H2171 H 0.11812 0.70714 0.47998 0.0
H2172 H 0.11561 0.70256 0.45842 0.0
H2173 H 0.16285 0.74391 0.47089 0.0
H2174 H 0.12652 0.75714 0.47228 0.0
H2175 H 0.18858 0.77156 0.50104 0.0
H2176 H 0.19572 0.78095 0.48179 0.0
H2177 H 0.1883 0.75965 0.48364 0.0
H2178 H 0.13165 0.78222 0.48307 0.0
H2179 H 0.15257 0.79807 0.48532 0.0
H2180 H 0.14209 0.7857 0.50228 0.0
H2181 H 0.18175 0.80339 0.59031 0.0
H2182 H 0.21553 0.84286 0.55138 0.0
H2183 H 0.21749 0.84339 0.52235 0.0
H2184 H 0.18862 0.80565 0.47842 0.0
H2185 H 0.15345 0.7667 0.51732 0.0
H2186 H 0.15151 0.7662 0.54641 0.0
H2187 H 0.28724 0.8851 0.47873 0.0
H2188 H 0.27014 0.87494 0.49172 0.0
H2189 H 0.27763 0.89573 0.48709 0.0
C2190 C 0.14347 0.36712 0.62891 0.0
C2191 C 0.13529 0.37417 0.61864 0.0
C2192 C 0.14838 0.37489 0.59284 0.0
C2193 C 0.16145 0.39086 0.59333 0.0
C2194 C 0.1751 0.39545 0.58361 0.0
C2195 C 0.17581 0.38373 0.57351 0.0
C2196 C 0.16256 0.36764 0.57296 0.0
C2197 C 0.14885 0.36356 0.58235 0.0
C2198 C 0.18879 0.4128 0.58425 0.0
C2199 C 0.16297 0.3546 0.5628 0.0
C2200 C 0.27459 0.40784 0.6354 0.0
C2201 C 0.26531 0.39457 0.62249 0.0
C2202 C 0.25667 0.39901 0.59637 0.0
C2203 C 0.24353 0.38349 0.59297 0.0
C2204 C 0.23118 0.38122 0.58221 0.0
C2205 C 0.23185 0.39482 0.57503 0.0
C2206 C 0.24527 0.41047 0.57829 0.0
C2207 C 0.25772 0.41229 0.58864 0.0
C2208 C 0.2173 0.36431 0.57872 0.0
C2209 C 0.24629 0.42534 0.57124 0.0
C2210 C 0.26295 0.4026 0.4716 0.0
C2211 C 0.25028 0.38704 0.47525 0.0
C2212 C 0.23619 0.38483 0.48278 0.0
C2213 C 0.23479 0.39845 0.48671 0.0
C2214 C 0.24723 0.41405 0.48233 0.0
C2215 C 0.2611 0.41589 0.47467 0.0
C2216 C 0.22292 0.36797 0.48679 0.0
C2217 C 0.24602 0.42881 0.48613 0.0
C2218 C 0.12724 0.39871 0.47196 0.0
C2219 C 0.13363 0.39405 0.45697 0.0
C2220 C 0.1523 0.38632 0.46875 0.0
C2221 C 0.15417 0.37316 0.47193 0.0
C2222 C 0.16781 0.37518 0.48027 0.0
C2223 C 0.17989 0.39083 0.48559 0.0
C2224 C 0.17832 0.4043 0.48209 0.0
C2225 C 0.16453 0.40193 0.47368 0.0
C2226 C 0.16918 0.36056 0.48368 0.0
C2227 C 0.19106 0.42115 0.48754 0.0
C2228 C 0.19071 0.38806 0.56419 0.0
C2229 C 0.20405 0.3898 0.57282 0.0
C2230 C 0.21812 0.39275 0.56485 0.0
C2231 C 0.2189 0.39372 0.54769 0.0
C2232 C 0.23254 0.39591 0.53919 0.0
C2233 C 0.23322 0.39694 0.5223 0.0
C2234 C 0.2202 0.39567 0.51323 0.0
C2235 C 0.22067 0.39646 0.49604 0.0
C2236 C 0.2075 0.39511 0.4874 0.0
C2237 C 0.19375 0.39293 0.49549 0.0
C2238 C 0.19305 0.39212 0.51268 0.0
C2239 C 0.17939 0.38993 0.52119 0.0
C2240 C 0.17868 0.38881 0.53807 0.0
C2241 C 0.19154 0.38973 0.54709 0.0
C2242 C 0.2056 0.39235 0.5388 0.0
C2243 C 0.20631 0.39344 0.52156 0.0
C2244 C 0.30168 0.4084 0.475 0.0
C2245 C 0.2847 0.39666 0.46834 0.0
O2246 O 0.13517 0.36996 0.60235 0.0
O2247 O 0.13844 0.38323 0.46112 0.0
O2248 O 0.27704 0.40524 0.46505 0.0
O2249 O 0.26832 0.40152 0.6073 0.0
H2250 H 0.14206 0.38754 0.62022 0.0
H2251 H 0.13687 0.35373 0.62752 0.0
H2252 H 0.15615 0.37198 0.62496 0.0
H2253 H 0.1438 0.37043 0.64199 0.0
H2254 H 0.16098 0.39981 0.60111 0.0
H2255 H 0.13864 0.3513 0.58202 0.0
H2256 H 0.19922 0.41358 0.59089 0.0
H2257 H 0.18532 0.42089 0.59055 0.0
H2258 H 0.19283 0.41723 0.57175 0.0
H2259 H 0.15295 0.34233 0.56582 0.0
H2260 H 0.17464 0.35504 0.56458 0.0
H2261 H 0.16187 0.35658 0.54972 0.0
H2262 H 0.25223 0.38898 0.62546 0.0
H2263 H 0.27229 0.40259 0.64773 0.0
H2264 H 0.27054 0.41677 0.63516 0.0
H2265 H 0.2878 0.41426 0.63306 0.0
H2266 H 0.24296 0.37318 0.59873 0.0
H2267 H 0.26801 0.42421 0.59132 0.0
H2268 H 0.20632 0.36262 0.58497 0.0
H2269 H 0.21988 0.35497 0.58304 0.0
H2270 H 0.21459 0.36239 0.56545 0.0
H2271 H 0.2563 0.43667 0.57679 0.0
H2272 H 0.23476 0.42515 0.5731 0.0
H2273 H 0.24834 0.4255 0.55794 0.0
H2274 H 0.27828 0.3877 0.47803 0.0
H2275 H 0.25135 0.37663 0.47221 0.0
H2276 H 0.27083 0.42781 0.4715 0.0
H2277 H 0.22178 0.36677 0.50021 0.0
H2278 H 0.22526 0.35856 0.48176 0.0
H2279 H 0.21117 0.36574 0.4819 0.0
H2280 H 0.25678 0.44011 0.482 0.0
H2281 H 0.24471 0.42984 0.49947 0.0
H2282 H 0.23507 0.42754 0.48014 0.0
H2283 H 0.14402 0.4051 0.45187 0.0
H2284 H 0.12302 0.40707 0.46849 0.0
H2285 H 0.13691 0.40493 0.48132 0.0
H2286 H 0.11703 0.3878 0.47745 0.0
H2287 H 0.14473 0.36118 0.468 0.0
H2288 H 0.16337 0.41229 0.47122 0.0
H2289 H 0.16968 0.35926 0.49703 0.0
H2290 H 0.18057 0.3622 0.47849 0.0
H2291 H 0.15886 0.34924 0.47847 0.0
H2292 H 0.18847 0.43047 0.48321 0.0
H2293 H 0.20307 0.42394 0.48295 0.0
H2294 H 0.19182 0.42185 0.50105 0.0
H2295 H 0.20341 0.38869 0.58597 0.0
H2296 H 0.24286 0.39681 0.5455 0.0
H2297 H 0.24407 0.39868 0.51645 0.0
H2298 H 0.20789 0.39558 0.47421 0.0
H2299 H 0.16906 0.389 0.5149 0.0
H2300 H 0.16787 0.38715 0.54397 0.0
H2301 H 0.30808 0.40183 0.47782 0.0
H2302 H 0.30085 0.41434 0.4864 0.0
H2303 H 0.30885 0.41792 0.46604 0.0
H2304 H 0.97966 0.35503 0.05084 0.0
H2305 H 0.03099 0.38829 0.04653 0.0
H2306 H 0.97851 0.37196 0.07279 0.0
H2307 H 0.03004 0.40475 0.06873 0.0
H2308 H 0.02221 0.43997 0.0972 0.0
H2309 H 0.02103 0.42283 0.07457 0.0
H2310 H 0.98641 0.38053 0.10053 0.0
H2311 H 0.98693 0.39791 0.12291 0.0
C2312 C 0.9907 0.36587 0.05469 0.0
C2313 C 0.00539 0.3704 0.04694 0.0
C2314 C 0.99007 0.37554 0.06729 0.0
C2315 C 0.00416 0.38981 0.07245 0.0
C2316 C 0.01887 0.39409 0.06483 0.0
C2317 C 0.01945 0.38457 0.05216 0.0
C2318 C 0.0141 0.42704 0.09798 0.0
C2319 C 0.0044 0.42029 0.11173 0.0
C2320 C 0.01358 0.41717 0.08506 0.0
C2321 C 0.00371 0.40027 0.08575 0.0
C2322 C 0.99396 0.3935 0.09948 0.0
C2323 C 0.9943 0.40342 0.11232 0.0
H2324 H 0.65391 0.61707 0.04976 0.0
H2325 H 0.60477 0.60733 0.04887 0.0
H2326 H 0.64634 0.59629 0.07019 0.0
H2327 H 0.59736 0.58683 0.06928 0.0
H2328 H 0.58572 0.54099 0.09508 0.0
H2329 H 0.59417 0.55996 0.07281 0.0
H2330 H 0.63801 0.59274 0.09925 0.0
H2331 H 0.62981 0.57399 0.12137 0.0
C2332 C 0.6415 0.61045 0.05383 0.0
C2333 C 0.62997 0.6139 0.0477 0.0
C2334 C 0.6372 0.59863 0.06559 0.0
C2335 C 0.62126 0.58993 0.07134 0.0
C2336 C 0.60969 0.59317 0.06496 0.0
C2337 C 0.61399 0.60502 0.05331 0.0
C2338 C 0.59717 0.55226 0.09614 0.0
C2339 C 0.60678 0.55593 0.11026 0.0
C2340 C 0.60199 0.56312 0.0834 0.0
C2341 C 0.6167 0.57789 0.08434 0.0
C2342 C 0.62665 0.5814 0.09814 0.0
C2343 C 0.62179 0.57058 0.11095 0.0
H2344 H 0.38109 0.02255 0.04518 0.0
H2345 H 0.35582 0.97083 0.05079 0.0
H2346 H 0.39764 0.02604 0.0692 0.0
H2347 H 0.37161 0.97424 0.07517 0.0
H2348 H 0.41538 0.98344 0.10435 0.0
H2349 H 0.39779 0.9806 0.08179 0.0
H2350 H 0.39906 0.02433 0.09781 0.0
H2351 H 0.41751 0.02761 0.11995 0.0
C2352 C 0.37887 0.01197 0.05176 0.0
C2353 C 0.36734 0.99642 0.04604 0.0
C2354 C 0.3883 0.01394 0.06556 0.0
C2355 C 0.38615 0.0004 0.07404 0.0
C2356 C 0.37398 0.98492 0.06871 0.0
C2357 C 0.36481 0.98295 0.05479 0.0
C2358 C 0.41208 0.99256 0.10294 0.0
C2359 C 0.41821 0.00602 0.11364 0.0
C2360 C 0.40177 0.99083 0.09012 0.0
C2361 C 0.39696 0.00225 0.08791 0.0
C2362 C 0.40274 0.01547 0.09891 0.0
C2363 C 0.41325 0.01732 0.11163 0.0
H2364 H 0.39252 0.02649 0.96869 0.0
H2365 H 0.35794 0.97751 0.95329 0.0
H2366 H 0.41 0.02873 0.94643 0.0
H2367 H 0.37591 0.97945 0.93122 0.0
H2368 H 0.40341 0.99742 0.88249 0.0
H2369 H 0.38573 0.99193 0.90581 0.0
H2370 H 0.42761 0.02064 0.93672 0.0
H2371 H 0.44504 0.02694 0.91335 0.0
C2372 C 0.38875 0.01608 0.96065 0.0
C2373 C 0.37383 0.00183 0.96271 0.0
C2374 C 0.39888 0.01731 0.94792 0.0
C2375 C 0.39449 0.00422 0.93704 0.0
C2376 C 0.37961 0.98983 0.93924 0.0
C2377 C 0.36934 0.98868 0.95192 0.0
C2378 C 0.40878 0.00241 0.89433 0.0
C2379 C 0.4256 0.01264 0.896 0.0
C2380 C 0.39868 0.99919 0.90773 0.0
C2381 C 0.4052 0.006 0.92316 0.0
C2382 C 0.4221 0.01552 0.92496 0.0
C2383 C 0.43216 0.01899 0.91154 0.0
H2384 H 0.0166 0.36389 0.94941 0.0
H2385 H 0.00683 0.39424 0.98094 0.0
H2386 H 0.01661 0.37919 0.92583 0.0
H2387 H 0.00727 0.40973 0.95765 0.0
H2388 H 0.97818 0.40915 0.91295 0.0
H2389 H 0.98593 0.39964 0.93646 0.0
H2390 H 0.02793 0.4057 0.91099 0.0
H2391 H 0.02013 0.41542 0.88723 0.0
C2392 C 0.0151 0.37422 0.95134 0.0
C2393 C 0.0115 0.3778 0.96688 0.0
C2394 C 0.01508 0.38296 0.93788 0.0
C2395 C 0.01155 0.39541 0.93989 0.0
C2396 C 0.00962 0.39995 0.95569 0.0
C2397 C 0.00947 0.39116 0.96902 0.0
C2398 C 0.98927 0.40883 0.91245 0.0
C2399 C -0.0012 0.41346 0.89839 0.0
C2400 C 0.99373 0.40339 0.92594 0.0
C2401 C 0.0077 0.40217 0.92567 0.0
C2402 C 0.01717 0.40662 0.91157 0.0
C2403 C 0.01277 0.41225 0.89806 0.0
H2404 H 0.61171 0.65218 0.98096 0.0
H2405 H 0.63327 0.62802 0.956 0.0
H2406 H 0.5903 0.64191 0.9604 0.0
H2407 H 0.61252 0.61853 0.93487 0.0
H2408 H 0.5641 0.58873 0.90988 0.0
H2409 H 0.58556 0.59972 0.93015 0.0
H2410 H 0.58315 0.64337 0.93363 0.0
H2411 H 0.56075 0.63173 0.91405 0.0
C2412 C 0.61199 0.64488 0.9709 0.0
C2413 C 0.62406 0.64079 0.97011 0.0
C2414 C 0.59977 0.63906 0.95903 0.0
C2415 C 0.59954 0.62927 0.94594 0.0
C2416 C 0.61199 0.62566 0.94495 0.0
C2417 C 0.62399 0.6312 0.95699 0.0
C2418 C 0.56794 0.60056 0.91515 0.0
C2419 C 0.56039 0.60919 0.9107 0.0
C2420 C 0.58048 0.60702 0.92664 0.0
C2421 C 0.58618 0.62249 0.93362 0.0
C2422 C 0.57889 0.63129 0.92883 0.0
C2423 C 0.56611 0.62468 0.91755 0.0
H2424 H 0.9898 0.60586 0.98074 0.0
H2425 H 0.01712 0.65308 0.95964 0.0
H2426 H 0.99791 0.59437 0.95854 0.0
H2427 H 0.02496 0.64138 0.93711 0.0
H2428 H 0.01281 0.60538 0.89118 0.0
H2429 H 0.00738 0.61891 0.91379 0.0
H2430 H 0.02593 0.59855 0.94779 0.0
H2431 H 0.03184 0.58546 0.92531 0.0
C2432 C 0.99756 0.61379 0.97135 0.0
C2433 C 0.00282 0.63036 0.97189 0.0
C2434 C 0.00224 0.60721 0.95871 0.0
C2435 C 0.01202 0.61701 0.94617 0.0
C2436 C 0.01736 0.6336 0.94666 0.0
C2437 C 0.01295 0.64028 0.95955 0.0
C2438 C 0.01573 0.60383 0.9035 0.0
C2439 C 0.02243 0.59409 0.90645 0.0
C2440 C 0.01274 0.61165 0.91637 0.0
C2441 C 0.01622 0.6097 0.93246 0.0
C2442 C 0.02305 0.60012 0.93546 0.0
C2443 C 0.02634 0.59256 0.92258 0.0
H2444 H 0.39299 0.39759 0.9613 0.0
H2445 H 0.34276 0.38347 0.95587 0.0
H2446 H 0.40032 0.41847 0.94081 0.0
H2447 H 0.35008 0.4039 0.93515 0.0
H2448 H 0.37094 0.42866 0.88504 0.0
H2449 H 0.36644 0.40801 0.90473 0.0
H2450 H 0.39389 0.44522 0.94093 0.0
H2451 H 0.39791 0.46592 0.92156 0.0
C2452 C 0.38355 0.39887 0.95565 0.0
C2453 C 0.36732 0.38896 0.96016 0.0
C2454 C 0.38774 0.41079 0.94401 0.0
C2455 C 0.37572 0.41264 0.93647 0.0
C2456 C 0.35951 0.40259 0.94079 0.0
C2457 C 0.35536 0.39097 0.95266 0.0
C2458 C 0.37616 0.43243 0.89715 0.0
C2459 C 0.38476 0.44891 0.9017 0.0
C2460 C 0.37359 0.42065 0.90836 0.0
C2461 C 0.37988 0.42513 0.92422 0.0
C2462 C 0.38906 0.44157 0.92867 0.0
C2463 C 0.39133 0.45338 0.91757 0.0
H2464 H 0.61596 0.00908 0.98041 0.0
H2465 H 0.63549 0.98123 0.95927 0.0
H2466 H 0.59708 0.00127 0.95755 0.0
H2467 H 0.61666 0.97366 0.93609 0.0
H2468 H 0.59506 0.98585 0.88975 0.0
H2469 H 0.61321 0.99101 0.91294 0.0
H2470 H 0.57283 0.97387 0.9456 0.0
H2471 H 0.55462 0.96825 0.92252 0.0
C2472 C 0.6162 0.00127 0.97087 0.0
C2473 C 0.62722 0.99579 0.9716 0.0
C2474 C 0.60534 0.99675 0.95785 0.0
C2475 C 0.60546 0.9869 0.94511 0.0
C2476 C 0.61641 0.98133 0.94579 0.0
C2477 C 0.62709 0.98558 0.95904 0.0
C2478 C 0.59009 0.98319 0.9019 0.0
C2479 C 0.57348 0.97699 0.90429 0.0
C2480 C 0.60043 0.98602 0.91511 0.0
C2481 C 0.59438 0.98287 0.93101 0.0
C2482 C 0.57778 0.97651 0.93344 0.0
C2483 C 0.56739 0.97339 0.92022 0.0
H2484 H 0.61312 0.99246 0.04323 0.0
H2485 H 0.65934 0.02349 0.06677 0.0
H2486 H 0.59961 0.99816 0.06547 0.0
H2487 H 0.64572 0.02876 0.08922 0.0
H2488 H 0.61034 0.017 0.13337 0.0
H2489 H 0.62246 0.00916 0.11144 0.0
H2490 H 0.60313 0.02747 0.07598 0.0
H2491 H 0.59154 0.03588 0.09776 0.0
C2492 C 0.62036 0.00037 0.05322 0.0
C2493 C 0.63727 0.0076 0.05329 0.0
C2494 C 0.61264 0.00363 0.06588 0.0
C2495 C 0.62168 0.01384 0.07898 0.0
C2496 C 0.63853 0.02078 0.07924 0.0
C2497 C 0.64629 0.01783 0.0664 0.0
C2498 C 0.6086 0.01925 0.12088 0.0
C2499 C 0.5999 0.02697 0.11735 0.0
C2500 C 0.61554 0.01481 0.1084 0.0
C2501 C 0.61365 0.01772 0.09212 0.0
C2502 C 0.60461 0.025 0.08847 0.0
C2503 C 0.59797 0.02979 0.10097 0.0
H2504 H 0.01414 0.63396 0.05303 0.0
H2505 H 0.96532 0.62478 0.0564 0.0
H2506 H 0.00859 0.61478 0.07458 0.0
H2507 H 0.95984 0.60572 0.07812 0.0
H2508 H 0.95112 0.56003 0.10372 0.0
H2509 H 0.95692 0.57888 0.08164 0.0
H2510 H 0.00307 0.61231 0.10407 0.0
H2511 H 0.99729 0.5934 0.12604 0.0
C2512 C 0.00224 0.6279 0.05842 0.0
C2513 C 0.99016 0.63088 0.05302 0.0
C2514 C -0.0009 0.61697 0.07081 0.0
C2515 C 0.98378 0.60873 0.07802 0.0
C2516 C 0.9717 0.61174 0.07264 0.0
C2517 C 0.97487 0.62273 0.06029 0.0
C2518 C 0.96253 0.57137 0.10383 0.0
C2519 C 0.9738 0.57523 0.11652 0.0
C2520 C 0.96581 0.5822 0.09128 0.0
C2521 C 0.98043 0.59709 0.09116 0.0
C2522 C 0.99177 0.60085 0.10375 0.0
C2523 C 0.98846 0.59007 0.11634 0.0
H2524 H 0.39008 0.39756 0.04892 0.0
H2525 H 0.39086 0.35441 0.03494 0.0
H2526 H 0.40893 0.40266 0.0711 0.0
H2527 H 0.40973 0.35953 0.05734 0.0
H2528 H 0.45553 0.38324 0.09005 0.0
H2529 H 0.43805 0.37923 0.06659 0.0
H2530 H 0.40806 0.38999 0.09725 0.0
H2531 H 0.42552 0.39402 0.12059 0.0
C2532 C 0.39429 0.38917 0.05052 0.0
C2533 C 0.38889 0.37553 0.04013 0.0
C2534 C 0.40505 0.39207 0.06331 0.0
C2535 C 0.41076 0.38147 0.06602 0.0
C2536 C 0.40564 0.36799 0.05548 0.0
C2537 C 0.39476 0.36502 0.0427 0.0
C2538 C 0.44526 0.38486 0.09169 0.0
C2539 C 0.44192 0.38903 0.1071 0.0
C2540 C 0.4352 0.38245 0.07832 0.0
C2541 C 0.42168 0.38429 0.08008 0.0
C2542 C 0.4185 0.38868 0.09545 0.0
C2543 C 0.42846 0.39096 0.10882 0.0
H2544 H 0.67166 0.70899 0.39492 0.0
H2545 H 0.6245 0.68063 0.37242 0.0
H2546 H 0.66046 0.71893 0.41553 0.0
H2547 H 0.61338 0.69124 0.39242 0.0
H2548 H 0.59476 0.70158 0.43921 0.0
H2549 H 0.60579 0.69058 0.41948 0.0
H2550 H 0.65083 0.73639 0.41985 0.0
H2551 H 0.64016 0.74689 0.4403 0.0
C2552 C 0.6589 0.70499 0.39433 0.0
C2553 C 0.64895 0.69403 0.38209 0.0
C2554 C 0.65247 0.71079 0.40607 0.0
C2555 C 0.63598 0.70601 0.40566 0.0
C2556 C 0.62605 0.69501 0.39336 0.0
C2557 C 0.63244 0.68898 0.3818 0.0
C2558 C 0.607 0.70926 0.43499 0.0
C2559 C 0.61642 0.72518 0.44108 0.0
C2560 C 0.61332 0.70302 0.4236 0.0
C2561 C 0.62922 0.71259 0.41791 0.0
C2562 C 0.63864 0.72853 0.42406 0.0
C2563 C 0.63241 0.73467 0.43566 0.0
H2564 H 0.31491 0.94965 0.39072 0.0
H2565 H 0.26839 0.94603 0.39552 0.0
H2566 H 0.30742 0.9294 0.41161 0.0
H2567 H 0.26105 0.92597 0.41649 0.0
H2568 H 0.24698 0.87836 0.44076 0.0
H2569 H 0.25482 0.89792 0.41916 0.0
H2570 H 0.30225 0.9265 0.44105 0.0
H2571 H 0.29467 0.90707 0.46246 0.0
C2572 C 0.30311 0.94458 0.39624 0.0
C2573 C 0.29226 0.94949 0.39143 0.0
C2574 C 0.29886 0.93303 0.40826 0.0
C2575 C 0.28364 0.92607 0.41568 0.0
C2576 C 0.27279 0.93095 0.41085 0.0
C2577 C 0.27705 0.94254 0.3989 0.0
C2578 C 0.25905 0.88889 0.44106 0.0
C2579 C 0.26988 0.89124 0.45378 0.0
C2580 C 0.26353 0.9001 0.42868 0.0
C2581 C 0.27908 0.91386 0.42852 0.0
C2582 C 0.29016 0.91599 0.44083 0.0
C2583 C 0.28568 0.90481 0.45327 0.0
H2584 H 0.06381 0.32699 0.38603 0.0
H2585 H 0.05905 0.36913 0.38205 0.0
H2586 H 0.08441 0.3408 0.40707 0.0
H2587 H 0.07956 0.38285 0.40339 0.0
H2588 H 0.12975 0.40734 0.42921 0.0
H2589 H 0.10874 0.39426 0.40814 0.0
H2590 H 0.08639 0.35013 0.43529 0.0
H2591 H 0.10747 0.36314 0.45615 0.0
C2592 C 0.06709 0.33918 0.38969 0.0
C2593 C 0.05974 0.34693 0.38236 0.0
C2594 C 0.07886 0.34706 0.40183 0.0
C2595 C 0.08356 0.36289 0.40696 0.0
C2596 C 0.07629 0.37071 0.39959 0.0
C2597 C 0.06449 0.36281 0.38743 0.0
C2598 C 0.12036 0.39484 0.4306 0.0
C2599 C 0.12044 0.38614 0.44411 0.0
C2600 C 0.10828 0.38739 0.41862 0.0
C2601 C 0.09601 0.37111 0.41997 0.0
C2602 C 0.09586 0.36258 0.43373 0.0
C2603 C 0.10789 0.37003 0.44569 0.0
H2604 H 0.01664 0.29389 0.29909 0.0
H2605 H 0.06364 0.33748 0.30011 0.0
H2606 H 0.02547 0.28286 0.27706 0.0
H2607 H 0.07239 0.3265 0.27799 0.0
H2608 H 0.0872 0.29423 0.2505 0.0
H2609 H 0.07821 0.30442 0.27308 0.0
H2610 H 0.03285 0.28816 0.24808 0.0
H2611 H 0.04156 0.27786 0.22566 0.0
C2612 C 0.02885 0.30111 0.2946 0.0
C2613 C 0.03945 0.31655 0.30131 0.0
C2614 C 0.03387 0.29483 0.28194 0.0
C2615 C 0.04961 0.30382 0.27581 0.0
C2616 C 0.06024 0.31922 0.2826 0.0
C2617 C 0.0552 0.32554 0.29519 0.0
C2618 C 0.07536 0.29297 0.24972 0.0
C2619 C 0.06545 0.28569 0.23588 0.0
C2620 C 0.07023 0.29881 0.26267 0.0
C2621 C 0.05491 0.29726 0.26225 0.0
C2622 C 0.04473 0.28951 0.24874 0.0
C2623 C 0.04987 0.28372 0.23575 0.0
H2624 H 0.66352 0.72364 0.30261 0.0
H2625 H 0.70364 0.71529 0.3034 0.0
H2626 H 0.67721 0.74427 0.28243 0.0
H2627 H 0.71751 0.73629 0.28317 0.0
H2628 H 0.72538 0.75958 0.23228 0.0
H2629 H 0.71421 0.74046 0.25408 0.0
H2630 H 0.70072 0.77142 0.27957 0.0
H2631 H 0.71175 0.79068 0.25758 0.0
C2632 C 0.67533 0.72626 0.29857 0.0
C2633 C 0.68245 0.71774 0.30464 0.0
C2634 C 0.68324 0.73822 0.28706 0.0
C2635 C 0.69847 0.74198 0.28123 0.0
C2636 C 0.70571 0.73358 0.28734 0.0
C2637 C 0.69781 0.72161 0.29899 0.0
C2638 C 0.72003 0.76247 0.24238 0.0
C2639 C 0.71903 0.77663 0.24278 0.0
C2640 C 0.71374 0.75146 0.25505 0.0
C2641 C 0.70641 0.75431 0.26847 0.0
C2642 C 0.706 0.7687 0.26923 0.0
C2643 C 0.71232 0.77973 0.25662 0.0
H2644 H 0.2812 0.94469 0.30635 0.0
H2645 H 0.28182 0.98976 0.31188 0.0
H2646 H 0.26054 0.93596 0.28503 0.0
H2647 H 0.26143 0.98117 0.29043 0.0
H2648 H 0.21248 0.95311 0.26417 0.0
H2649 H 0.23288 0.96143 0.28569 0.0
H2650 H 0.25765 0.94269 0.25701 0.0
H2651 H 0.23706 0.93413 0.23563 0.0
C2652 C 0.27695 0.95274 0.30299 0.0
C2653 C 0.28311 0.96789 0.31081 0.0
C2654 C 0.2652 0.94778 0.29072 0.0
C2655 C 0.25934 0.95787 0.28606 0.0
C2656 C 0.26553 0.97303 0.29389 0.0
C2657 C 0.27728 0.97799 0.30612 0.0
C2658 C 0.22224 0.9507 0.26254 0.0
C2659 C 0.22305 0.94274 0.24837 0.0
C2660 C 0.23398 0.95555 0.27479 0.0
C2661 C 0.24684 0.95264 0.27308 0.0
C2662 C 0.24774 0.94484 0.25881 0.0
C2663 C 0.23601 0.94 0.24656 0.0
H2664 H 0.67754 0.93155 0.3135 0.0
H2665 H 0.70277 0.98275 0.30437 0.0
H2666 H 0.69272 0.92768 0.29174 0.0
H2667 H 0.71768 0.97875 0.28236 0.0
H2668 H 0.72107 0.958 0.23104 0.0
H2669 H 0.70741 0.96221 0.25412 0.0
H2670 H 0.72377 0.93779 0.28538 0.0
H2671 H 0.73789 0.934 0.2625 0.0
C2672 C 0.68639 0.94198 0.30691 0.0
C2673 C 0.68896 0.95746 0.31063 0.0
C2674 C 0.69509 0.93975 0.29452 0.0
C2675 C 0.70627 0.9529 0.28537 0.0
C2676 C 0.70904 0.96842 0.28921 0.0
C2677 C 0.70059 0.9707 0.30185 0.0
C2678 C 0.72169 0.95348 0.24284 0.0
C2679 C 0.73038 0.9455 0.24486 0.0
C2680 C 0.71398 0.95598 0.25603 0.0
C2681 C 0.7146 0.95035 0.27148 0.0
C2682 C 0.72307 0.94217 0.27354 0.0
C2683 C 0.73109 0.93995 0.26041 0.0
H2684 H 0.06439 0.74025 0.30444 0.0
H2685 H 0.01372 0.72062 0.2936 0.0
H2686 H 0.07147 0.7597 0.28245 0.0
H2687 H 0.02083 0.73962 0.27146 0.0
H2688 H 0.04277 0.76345 0.222 0.0
H2689 H 0.03937 0.74441 0.24317 0.0
H2690 H 0.06219 0.78376 0.2783 0.0
H2691 H 0.06511 0.8028 0.25737 0.0
C2692 C 0.05482 0.74001 0.29729 0.0
C2693 C 0.03851 0.72899 0.30072 0.0
C2694 C 0.05886 0.75112 0.2848 0.0
C2695 C 0.04666 0.75101 0.27532 0.0
C2696 C 0.03042 0.73982 0.27858 0.0
C2697 C 0.02638 0.72903 0.29127 0.0
C2698 C 0.0473 0.76806 0.23419 0.0
C2699 C 0.05429 0.78462 0.23796 0.0
C2700 C 0.04534 0.75719 0.24624 0.0
C2701 C 0.0506 0.76271 0.26225 0.0
C2702 C 0.05822 0.77931 0.26596 0.0
C2703 C 0.05988 0.79017 0.25397 0.0
H2704 H 0.29074 0.30295 0.29809 0.0
H2705 H 0.26833 0.33144 0.3073 0.0
H2706 H 0.27123 0.28836 0.27602 0.0
H2707 H 0.24865 0.31657 0.28547 0.0
H2708 H 0.20662 0.27085 0.25738 0.0
H2709 H 0.22556 0.28553 0.27976 0.0
H2710 H 0.26567 0.2982 0.24769 0.0
H2711 H 0.24678 0.28399 0.22508 0.0
C2712 C 0.28156 0.30598 0.29552 0.0
C2713 C 0.28108 0.31836 0.3044 0.0
C2714 C 0.27048 0.29769 0.28285 0.0
C2715 C 0.2585 0.3014 0.27907 0.0
C2716 C 0.25775 0.31347 0.2882 0.0
C2717 C 0.26904 0.32199 0.30063 0.0
C2718 C 0.21946 0.27695 0.25499 0.0
C2719 C 0.22522 0.2764 0.23935 0.0
C2720 C 0.23028 0.2853 0.26784 0.0
C2721 C 0.24703 0.2929 0.26542 0.0
C2722 C 0.2528 0.29233 0.24987 0.0
C2723 C 0.24201 0.28429 0.23695 0.0
H2724 H 0.32401 0.37788 0.38204 0.0
H2725 H 0.28332 0.33054 0.39191 0.0
H2726 H 0.31647 0.38931 0.40465 0.0
H2727 H 0.27555 0.34209 0.41444 0.0
H2728 H 0.28083 0.36648 0.4654 0.0
H2729 H 0.28552 0.35389 0.44156 0.0
H2730 H 0.29603 0.39542 0.41316 0.0
H2731 H 0.29169 0.40811 0.43713 0.0
C2732 C 0.31337 0.36992 0.38897 0.0
C2733 C 0.30429 0.35329 0.38521 0.0
C2734 C 0.30897 0.3765 0.40187 0.0
C2735 C 0.29537 0.36663 0.41133 0.0
C2736 C 0.28619 0.35 0.40748 0.0
C2737 C 0.29059 0.3434 0.39454 0.0
C2738 C 0.28389 0.37277 0.45398 0.0
C2739 C 0.28571 0.38817 0.45306 0.0
C2740 C 0.28653 0.36556 0.44031 0.0
C2741 C 0.29118 0.37366 0.42546 0.0
C2742 C 0.29264 0.38893 0.42446 0.0
C2743 C 0.29 0.39614 0.43813 0.0
H2744 H 0.67169 0.9566 0.40522 0.0
H2745 H 0.62892 0.9304 0.37504 0.0
H2746 H 0.65836 0.93738 0.4269 0.0
H2747 H 0.6159 0.91053 0.39612 0.0
H2748 H 0.58974 0.88867 0.44289 0.0
H2749 H 0.60356 0.90687 0.4208 0.0
H2750 H 0.64875 0.91175 0.43672 0.0
H2751 H 0.63503 0.89465 0.45972 0.0
C2752 C 0.65953 0.94652 0.40314 0.0
C2753 C 0.65127 0.94504 0.38856 0.0
C2754 C 0.65188 0.93541 0.41552 0.0
C2755 C 0.63592 0.92235 0.41341 0.0
C2756 C 0.62798 0.92061 0.39846 0.0
C2757 C 0.63549 0.93193 0.38628 0.0
C2758 C 0.60267 0.89385 0.44185 0.0
C2759 C 0.61138 0.89066 0.45341 0.0
C2760 C 0.61061 0.90411 0.42895 0.0
C2761 C 0.62739 0.91098 0.42691 0.0
C2762 C 0.63594 0.90712 0.43808 0.0
C2763 C 0.62804 0.89717 0.45121 0.0
H2764 H 0.0577 0.73798 0.39266 0.0
H2765 H 0.06048 0.69642 0.37657 0.0
H2766 H 0.0761 0.74242 0.41525 0.0
H2767 H 0.07871 0.70081 0.39921 0.0
H2768 H 0.12221 0.72138 0.43339 0.0
H2769 H 0.10628 0.72003 0.40956 0.0
H2770 H 0.07493 0.72844 0.44067 0.0
H2771 H 0.09094 0.7299 0.46441 0.0
C2772 C 0.06227 0.72983 0.39389 0.0
C2773 C 0.05756 0.71681 0.38282 0.0
C2774 C 0.07276 0.73234 0.40687 0.0
C2775 C 0.07885 0.72197 0.40902 0.0
C2776 C 0.07438 0.70913 0.39778 0.0
C2777 C 0.06383 0.70656 0.38487 0.0
C2778 C 0.11204 0.72315 0.43505 0.0
C2779 C 0.10785 0.72584 0.45071 0.0
C2780 C 0.10286 0.72227 0.42146 0.0
C2781 C 0.08932 0.72408 0.42325 0.0
C2782 C 0.0854 0.72718 0.43887 0.0
C2783 C 0.09452 0.72797 0.45247 0.0
H2784 H 0.29116 0.01957 0.70369 0.0
H2785 H 0.33867 0.04872 0.72524 0.0
H2786 H 0.28017 0.03017 0.72389 0.0
H2787 H 0.32765 0.05859 0.74606 0.0
H2788 H 0.30783 0.08665 0.77089 0.0
H2789 H 0.31803 0.0759 0.75031 0.0
H2790 H 0.27302 0.03007 0.75099 0.0
H2791 H 0.26236 0.04138 0.77083 0.0
C2792 C 0.2992 0.02809 0.71291 0.0
C2793 C 0.31577 0.03342 0.71287 0.0
C2794 C 0.2929 0.0341 0.72458 0.0
C2795 C 0.30299 0.04534 0.73665 0.0
C2796 C 0.31953 0.0503 0.73676 0.0
C2797 C 0.32587 0.04456 0.72489 0.0
C2798 C 0.29997 0.07436 0.76648 0.0
C2799 C 0.28409 0.06496 0.77226 0.0
C2800 C 0.30594 0.06808 0.7548 0.0
C2801 C 0.29641 0.05205 0.74893 0.0
C2802 C 0.28063 0.04256 0.75493 0.0
C2803 C 0.27453 0.04897 0.76638 0.0
H2804 H 0.93542 0.25918 0.70169 0.0
H2805 H 0.98545 0.28518 0.71739 0.0
H2806 H 0.92897 0.24002 0.72354 0.0
H2807 H 0.97888 0.26605 0.73939 0.0
H2808 H 0.95254 0.24264 0.78841 0.0
H2809 H 0.96082 0.26021 0.76511 0.0
H2810 H 0.93588 0.21864 0.73279 0.0
H2811 H 0.92784 0.20083 0.75614 0.0
C2812 C 0.94506 0.26071 0.70971 0.0
C2813 C 0.96093 0.27371 0.70785 0.0
C2814 C 0.94137 0.24971 0.72216 0.0
C2815 C 0.95342 0.25162 0.73316 0.0
C2816 C 0.96936 0.26439 0.73111 0.0
C2817 C 0.97312 0.27525 0.71847 0.0
C2818 C 0.94908 0.2371 0.77639 0.0
C2819 C 0.93994 0.22017 0.77415 0.0
C2820 C 0.95385 0.24725 0.76302 0.0
C2821 C 0.94916 0.24076 0.74717 0.0
C2822 C 0.93974 0.22394 0.7449 0.0
C2823 C 0.93521 0.21377 0.75824 0.0
H2824 H 0.72634 0.66126 0.71302 0.0
H2825 H 0.72023 0.70276 0.71236 0.0
H2826 H 0.74684 0.67431 0.73424 0.0
H2827 H 0.74068 0.71574 0.73391 0.0
H2828 H 0.79054 0.73981 0.76037 0.0
H2829 H 0.76991 0.72759 0.73883 0.0
H2830 H 0.74833 0.68179 0.76299 0.0
H2831 H 0.76902 0.69395 0.78431 0.0
C2832 C 0.72931 0.67315 0.71743 0.0
C2833 C 0.72157 0.68092 0.711 0.0
C2834 C 0.74103 0.6806 0.72968 0.0
C2835 C 0.74531 0.69602 0.73585 0.0
C2836 C 0.73773 0.70391 0.72932 0.0
C2837 C 0.72596 0.69643 0.71703 0.0
C2838 C 0.78141 0.72711 0.76098 0.0
C2839 C 0.78161 0.71773 0.77378 0.0
C2840 C 0.76954 0.72015 0.74874 0.0
C2841 C 0.75759 0.70368 0.74912 0.0
C2842 C 0.75757 0.69442 0.76216 0.0
C2843 C 0.76939 0.70138 0.77438 0.0
H2844 H 0.68074 0.63123 0.62768 0.0
H2845 H 0.72553 0.67716 0.62971 0.0
H2846 H 0.69151 0.62192 0.606 0.0
H2847 H 0.73651 0.66769 0.60831 0.0
H2848 H 0.74464 0.65089 0.55841 0.0
H2849 H 0.73376 0.66071 0.57963 0.0
H2850 H 0.71118 0.61393 0.60199 0.0
H2851 H 0.72167 0.60406 0.58049 0.0
C2852 C 0.69292 0.63932 0.62353 0.0
C2853 C 0.70229 0.65492 0.63043 0.0
C2854 C 0.69914 0.63395 0.61117 0.0
C2855 C 0.71491 0.64402 0.60546 0.0
C2856 C 0.72425 0.65968 0.61228 0.0
C2857 C 0.71799 0.66509 0.62461 0.0
C2858 C 0.7374 0.64277 0.56792 0.0
C2859 C 0.73414 0.62677 0.56791 0.0
C2860 C 0.73122 0.64839 0.58011 0.0
C2861 C 0.72161 0.63812 0.59254 0.0
C2862 C 0.71836 0.62211 0.59249 0.0
C2863 C 0.72448 0.61648 0.58027 0.0
H2864 H 0.37004 0.0532 0.6347 0.0
H2865 H 0.3288 0.05963 0.63132 0.0
H2866 H 0.3842 0.07437 0.61472 0.0
H2867 H 0.34286 0.08052 0.6114 0.0
H2868 H 0.37818 0.12824 0.58888 0.0
H2869 H 0.3664 0.10831 0.61021 0.0
H2870 H 0.38179 0.07866 0.58518 0.0
H2871 H 0.39364 0.09842 0.56396 0.0
C2872 C 0.364 0.05911 0.62973 0.0
C2873 C 0.34828 0.05471 0.63463 0.0
C2874 C 0.37209 0.07117 0.61825 0.0
C2875 C 0.36467 0.07915 0.61156 0.0
C2876 C 0.349 0.07478 0.61651 0.0
C2877 C 0.3409 0.0627 0.62787 0.0
C2878 C 0.37903 0.11745 0.58789 0.0
C2879 C 0.38646 0.11487 0.57433 0.0
C2880 C 0.37227 0.10604 0.6001 0.0
C2881 C 0.37298 0.09182 0.59924 0.0
C2882 C 0.38106 0.08951 0.58616 0.0
C2883 C 0.38776 0.10089 0.57386 0.0
H2884 H 0.95438 0.27637 0.62618 0.0
H2885 H 0.9548 0.32147 0.62886 0.0
H2886 H 0.9333 0.26637 0.60512 0.0
H2887 H 0.9342 0.31174 0.6076 0.0
H2888 H 0.88428 0.28296 0.58469 0.0
H2889 H 0.90591 0.29245 0.60492 0.0
H2890 H 0.92757 0.26983 0.57718 0.0
H2891 H 0.90556 0.25992 0.55716 0.0
C2892 C 0.95012 0.28421 0.62212 0.0
C2893 C 0.95612 0.29963 0.62927 0.0
C2894 C 0.93809 0.27852 0.61003 0.0
C2895 C 0.93192 0.28819 0.60481 0.0
C2896 C 0.93838 0.30382 0.6116 0.0
C2897 C 0.95029 0.30945 0.62372 0.0
C2898 C 0.8936 0.27992 0.583 0.0
C2899 C 0.89314 0.27056 0.56946 0.0
C2900 C 0.90608 0.28547 0.5945 0.0
C2901 C 0.91852 0.28196 0.59264 0.0
C2902 C 0.91807 0.27258 0.57908 0.0
C2903 C 0.90553 0.26697 0.56759 0.0
H2904 H 0.36546 0.32192 0.63199 0.0
H2905 H 0.33614 0.27052 0.63945 0.0
H2906 H 0.38046 0.31696 0.61081 0.0
H2907 H 0.35144 0.26567 0.61854 0.0
H2908 H 0.39797 0.26998 0.59321 0.0
H2909 H 0.38283 0.27416 0.61475 0.0
H2910 H 0.37084 0.30098 0.58184 0.0
H2911 H 0.3855 0.29635 0.56005 0.0
C2912 C 0.36233 0.30959 0.62923 0.0
C2913 C 0.3496 0.2966 0.63734 0.0
C2914 C 0.37085 0.30677 0.61707 0.0
C2915 C 0.36704 0.29094 0.61307 0.0
C2916 C 0.35461 0.27798 0.62146 0.0
C2917 C 0.34585 0.28077 0.63336 0.0
C2918 C 0.39193 0.27656 0.59045 0.0
C2919 C 0.3928 0.28271 0.57482 0.0
C2920 C 0.3833 0.27898 0.60281 0.0
C2921 C 0.37577 0.28795 0.59992 0.0
C2922 C 0.37666 0.29412 0.58438 0.0
C2923 C 0.38496 0.29141 0.57193 0.0
H2924 H 0.72539 0.05425 0.61004 0.0
H2925 H 0.69009 0.06554 0.62843 0.0
H2926 H 0.73232 0.07395 0.58852 0.0
H2927 H 0.69672 0.08481 0.60693 0.0
H2928 H 0.71943 0.12743 0.57484 0.0
H2929 H 0.71776 0.11069 0.59756 0.0
H2930 H 0.71953 0.07659 0.56386 0.0
H2931 H 0.72168 0.09363 0.54119 0.0
C2932 C 0.71916 0.06095 0.60951 0.0
C2933 C 0.70718 0.05832 0.62089 0.0
C2934 C 0.72308 0.07218 0.59717 0.0
C2935 C 0.71511 0.081 0.59605 0.0
C2936 C 0.7033 0.07846 0.6076 0.0
C2937 C 0.6994 0.06728 0.61986 0.0
C2938 C 0.71984 0.11654 0.57235 0.0
C2939 C 0.72086 0.1119 0.55628 0.0
C2940 C 0.71873 0.10688 0.58533 0.0
C2941 C 0.7184 0.09225 0.58251 0.0
C2942 C 0.71996 0.08787 0.56647 0.0
C2943 C 0.72112 0.09758 0.55349 0.0
H2944 H 0.93914 0.63328 0.63803 0.0
H2945 H 0.94195 0.67746 0.62303 0.0
H2946 H 0.92017 0.61856 0.61579 0.0
H2947 H 0.92287 0.66264 0.60084 0.0
H2948 H 0.90671 0.63361 0.55151 0.0
H2949 H 0.92348 0.64894 0.575 0.0
H2950 H 0.8922 0.60988 0.6064 0.0
H2951 H 0.87542 0.59454 0.58284 0.0
C2952 C 0.93565 0.63984 0.63006 0.0
C2953 C 0.94214 0.65657 0.63228 0.0
C2954 C 0.92469 0.63137 0.61738 0.0
C2955 C 0.92004 0.63945 0.60657 0.0
C2956 C 0.92635 0.65613 0.6089 0.0
C2957 C 0.93722 0.66459 0.62166 0.0
C2958 C 0.90332 0.62841 0.56347 0.0
C2959 C 0.88976 0.61292 0.56538 0.0
C2960 C 0.91287 0.6372 0.57692 0.0
C2961 C 0.90917 0.63059 0.59253 0.0
C2962 C 0.89543 0.61521 0.59449 0.0
C2963 C 0.8858 0.60648 0.58105 0.0
H2964 H 0.98995 0.70809 0.72114 0.0
H2965 H 0.93881 0.67636 0.71209 0.0
H2966 H 0.98393 0.72044 0.74433 0.0
H2967 H 0.93285 0.68919 0.73509 0.0
H2968 H 0.94101 0.73954 0.76233 0.0
H2969 H 0.94349 0.72361 0.74016 0.0
H2970 H 0.96542 0.70596 0.77328 0.0
H2971 H 0.96242 0.72138 0.7957 0.0
C2972 C 0.97743 0.70382 0.72407 0.0
C2973 C 0.96483 0.6913 0.71483 0.0
C2974 C 0.97402 0.71082 0.73735 0.0
C2975 C 0.95796 0.70569 0.7414 0.0
C2976 C 0.94532 0.69328 0.73212 0.0
C2977 C 0.94873 0.68597 0.71905 0.0
C2978 C 0.94598 0.73196 0.76502 0.0
C2979 C 0.95139 0.73159 0.78084 0.0
C2980 C 0.9474 0.72288 0.75231 0.0
C2981 C 0.95461 0.71362 0.75512 0.0
C2982 C 0.95978 0.71301 0.77091 0.0
C2983 C 0.95805 0.72179 0.78367 0.0
H2984 H 0.33084 0.27624 0.71512 0.0
H2985 H 0.29281 0.28738 0.72003 0.0
H2986 H 0.31832 0.25605 0.73649 0.0
H2987 H 0.28068 0.26759 0.74163 0.0
H2988 H 0.28369 0.24647 0.79409 0.0
H2989 H 0.29831 0.26626 0.77293 0.0
H2990 H 0.2815 0.22774 0.73691 0.0
H2991 H 0.26638 0.20792 0.75783 0.0
C2992 C 0.3199 0.27445 0.72082 0.0
C2993 C 0.31276 0.28334 0.71592 0.0
C2994 C 0.31277 0.26292 0.73297 0.0
C2995 C 0.29863 0.26041 0.74059 0.0
C2996 C 0.29161 0.2694 0.73586 0.0
C2997 C 0.29852 0.28066 0.72351 0.0
C2998 C 0.2833 0.24222 0.78169 0.0
C2999 C 0.27401 0.22563 0.7777 0.0
C3000 C 0.29163 0.25351 0.76965 0.0
C3001 C 0.29103 0.2484 0.75345 0.0
C3002 C 0.2822 0.23185 0.74942 0.0
C3003 C 0.27359 0.22055 0.76141 0.0
H3004 H 0.74757 0.07063 0.69791 0.0
H3005 H 0.71915 0.01933 0.70626 0.0
H3006 H 0.76551 0.07378 0.72057 0.0
H3007 H 0.73696 0.0226 0.72912 0.0
H3008 H 0.75919 0.04181 0.78132 0.0
H3009 H 0.7425 0.03841 0.75739 0.0
H3010 H 0.78543 0.06328 0.72828 0.0
H3011 H 0.80213 0.06629 0.75203 0.0
C3012 C 0.74523 0.06002 0.70451 0.0
C3013 C 0.73194 0.04473 0.70032 0.0
C3014 C 0.75552 0.06183 0.71743 0.0
C3015 C 0.75253 0.04845 0.72661 0.0
C3016 C 0.73943 0.03312 0.72227 0.0
C3017 C 0.72933 0.03124 0.70914 0.0
C3018 C 0.76505 0.04662 0.76982 0.0
C3019 C 0.78197 0.05451 0.76866 0.0
C3020 C 0.75551 0.04458 0.75614 0.0
C3021 C 0.76271 0.05057 0.74103 0.0
C3022 C 0.77962 0.05864 0.73984 0.0
C3023 C 0.78916 0.06041 0.75346 0.0
H3024 H 0.02537 0.31816 0.04981 0.0
H3025 H 0.05711 0.33227 0.00839 0.0
H3026 H 0.04069 0.30765 0.0628 0.0
H3027 H 0.0725 0.32146 0.02149 0.0
H3028 H 0.08578 0.27815 0.03938 0.0
H3029 H 0.0701 0.29394 0.0251 0.0
H3030 H 0.06369 0.31352 0.08004 0.0
H3031 H 0.07895 0.29803 0.09579 0.0
C3032 C 0.0357 0.31908 0.04351 0.0
C3033 C 0.04 0.32596 0.02804 0.0
C3034 C 0.04459 0.3132 0.05104 0.0
C3035 C 0.05783 0.31383 0.04318 0.0
C3036 C 0.06228 0.32079 0.02776 0.0
C3037 C 0.05354 0.32702 0.02031 0.0
C3038 C 0.08105 0.28408 0.04694 0.0
C3039 C 0.08662 0.28895 0.06888 0.0
C3040 C 0.07216 0.29476 0.03811 0.0
C3041 C 0.06629 0.30643 0.0508 0.0
C3042 C 0.06801 0.30702 0.07277 0.0
C3043 C 0.07676 0.29678 0.08278 0.0
H3044 H 0.64526 0.70083 0.05227 0.0
H3045 H 0.68831 0.69802 0.04506 0.0
H3046 H 0.66075 0.72518 0.06902 0.0
H3047 H 0.70364 0.72207 0.0622 0.0
H3048 H 0.73811 0.78139 0.07958 0.0
H3049 H 0.71996 0.75035 0.06318 0.0
H3050 H 0.67028 0.73717 0.09518 0.0
H3051 H 0.68727 0.76797 0.11232 0.0
C3052 C 0.65798 0.7053 0.05439 0.0
C3053 C 0.66554 0.6975 0.04725 0.0
C3054 C 0.66685 0.71921 0.06411 0.0
C3055 C 0.68344 0.72557 0.06695 0.0
C3056 C 0.69095 0.71767 0.06002 0.0
C3057 C 0.68211 0.70378 0.05027 0.0
C3058 C 0.72584 0.77283 0.08311 0.0
C3059 C 0.7137 0.77907 0.09558 0.0
C3060 C 0.71418 0.75371 0.07247 0.0
C3061 C 0.69288 0.74062 0.07668 0.0
C3062 C 0.68282 0.74553 0.09245 0.0
C3063 C 0.69345 0.76437 0.10374 0.0
H3064 H 0.28231 0.93512 0.00991 0.0
H3065 H 0.29563 0.98293 0.02775 0.0
H3066 H 0.25666 0.92395 0.02418 0.0
H3067 H 0.27042 0.97176 0.04249 0.0
H3068 H 0.22083 0.90718 0.06592 0.0
H3069 H 0.24598 0.91839 0.05087 0.0
H3070 H 0.24217 0.95999 0.03932 0.0
H3071 H 0.21741 0.94907 0.05511 0.0
C3072 C 0.27977 0.94324 0.01687 0.0
C3073 C 0.291 0.95991 0.01765 0.0
C3074 C 0.26512 0.93683 0.02517 0.0
C3075 C 0.26146 0.94693 0.03455 0.0
C3076 C 0.27267 0.96363 0.03518 0.0
C3077 C 0.2872 0.97004 0.02677 0.0
C3078 C 0.22554 0.91886 0.0604 0.0
C3079 C 0.21742 0.92751 0.0621 0.0
C3080 C 0.23983 0.92518 0.05155 0.0
C3081 C 0.24617 0.94013 0.04388 0.0
C3082 C 0.23786 0.94862 0.04534 0.0
C3083 C 0.22366 0.94237 0.05435 0.0
H3084 H 0.33178 0.04921 0.00684 0.0
H3085 H 0.32883 0.03066 0.95786 0.0
H3086 H 0.3222 0.06685 0.99687 0.0
H3087 H 0.31979 0.04856 0.94794 0.0
H3088 H 0.32088 0.0967 0.93699 0.0
H3089 H 0.33258 0.08151 0.94805 0.0
H3090 H 0.29299 0.05832 0.98156 0.0
H3091 H 0.28081 0.07302 0.97009 0.0
C3092 C 0.32934 0.04911 0.99395 0.0
C3093 C 0.33098 0.03857 0.98311 0.0
C3094 C 0.32381 0.0591 0.98829 0.0
C3095 C 0.3203 0.059 0.97167 0.0
C3096 C 0.32251 0.04889 0.96079 0.0
C3097 C 0.32761 0.03864 0.96648 0.0
C3098 C 0.31454 0.08829 0.94661 0.0
C3099 C 0.29968 0.08581 0.95245 0.0
C3100 C 0.32133 0.07969 0.95299 0.0
C3101 C 0.31367 0.06883 0.96564 0.0
C3102 C 0.29915 0.06673 0.97187 0.0
C3103 C 0.29216 0.07504 0.96526 0.0
H3104 H 0.94304 0.2938 0.97661 0.0
H3105 H 0.98783 0.2938 0.98106 0.0
H3106 H 0.93177 0.26918 0.95969 0.0
H3107 H 0.97673 0.26957 0.964 0.0
H3108 H 0.94963 0.21197 0.94244 0.0
H3109 H 0.96275 0.24116 0.96214 0.0
H3110 H 0.92939 0.25902 0.93187 0.0
H3111 H 0.91539 0.23014 0.91138 0.0
C3112 C 0.95045 0.28854 0.97404 0.0
C3113 C 0.96633 0.29578 0.98021 0.0
C3114 C 0.94405 0.27451 0.96424 0.0
C3115 C 0.95336 0.26743 0.96053 0.0
C3116 C 0.96912 0.27453 0.96686 0.0
C3117 C 0.97554 0.28855 0.97657 0.0
C3118 C 0.94652 0.22106 0.93994 0.0
C3119 C 0.92895 0.21665 0.92681 0.0
C3120 C 0.95403 0.23895 0.95264 0.0
C3121 C 0.94683 0.25286 0.94991 0.0
C3122 C 0.93282 0.25006 0.93371 0.0
C3123 C 0.92462 0.23253 0.92036 0.0
H3124 H 0.7054 0.65187 0.98424 0.0
H3125 H 0.714 0.6998 0.99478 0.0
H3126 H 0.7318 0.6636 0.97125 0.0
H3127 H 0.74051 0.71151 0.98248 0.0
H3128 H 0.77883 0.72824 0.94425 0.0
H3129 H 0.75217 0.71518 0.95647 0.0
H3130 H 0.76039 0.67849 0.97587 0.0
H3131 H 0.78687 0.69127 0.96293 0.0
C3132 C 0.71302 0.6649 0.98396 0.0
C3133 C 0.70759 0.67492 0.99041 0.0
C3134 C 0.72817 0.67164 0.97657 0.0
C3135 C 0.73825 0.68852 0.97564 0.0
C3136 C 0.73293 0.69847 0.98257 0.0
C3137 C 0.71777 0.69175 0.98976 0.0
C3138 C 0.77486 0.71728 0.95097 0.0
C3139 C 0.78491 0.71075 0.95261 0.0
C3140 C 0.75964 0.70987 0.95814 0.0
C3141 C 0.75416 0.69586 0.96734 0.0
C3142 C 0.76413 0.68917 0.96876 0.0
C3143 C 0.77933 0.69652 0.96144 0.0
H3144 H 0.93535 0.65634 0.99756 0.0
H3145 H 0.98022 0.68255 0.9716 0.0
H3146 H 0.92611 0.67332 0.98593 0.0
H3147 H 0.97066 0.69887 0.95899 0.0
H3148 H 0.95836 0.73874 0.95685 0.0
H3149 H 0.96682 0.72005 0.96506 0.0
H3150 H 0.91692 0.68106 0.96402 0.0
H3151 H 0.90849 0.70016 0.95712 0.0
C3152 C 0.94305 0.66549 0.98902 0.0
C3153 C 0.95853 0.66823 0.98558 0.0
C3154 C 0.93774 0.67521 0.98224 0.0
C3155 C 0.94765 0.68767 0.97155 0.0
C3156 C 0.96283 0.68977 0.9675 0.0
C3157 C 0.96828 0.68031 0.9746 0.0
C3158 C 0.94921 0.7262 0.95852 0.0
C3159 C 0.93273 0.72103 0.95687 0.0
C3160 C 0.95406 0.71536 0.963 0.0
C3161 C 0.94257 0.69895 0.96545 0.0
C3162 C 0.92613 0.69364 0.96277 0.0
C3163 C 0.92128 0.70457 0.95866 0.0
H3164 H 0.35155 0.30027 0.9754 0.0
H3165 H 0.30866 0.30296 0.96694 0.0
H3166 H 0.3372 0.2722 0.96536 0.0
H3167 H 0.29427 0.27504 0.95758 0.0
H3168 H 0.27271 0.22727 0.9327 0.0
H3169 H 0.29093 0.2562 0.93705 0.0
H3170 H 0.31636 0.2465 0.97435 0.0
H3171 H 0.2986 0.21757 0.96934 0.0
C3172 C 0.33912 0.29491 0.9713 0.0
C3173 C 0.33124 0.30383 0.972 0.0
C3174 C 0.33086 0.27881 0.96564 0.0
C3175 C 0.31453 0.27129 0.96065 0.0
C3176 C 0.30688 0.28043 0.96099 0.0
C3177 C 0.31513 0.29647 0.96652 0.0
C3178 C 0.28246 0.23133 0.94151 0.0
C3179 C 0.28437 0.22015 0.95055 0.0
C3180 C 0.29281 0.24793 0.94416 0.0
C3181 C 0.30508 0.25375 0.95616 0.0
C3182 C 0.30726 0.24253 0.96483 0.0
C3183 C 0.29703 0.22594 0.96204 0.0
H3184 H 0.71542 0.06349 0.98734 0.0
H3185 H 0.70993 0.01604 0.98844 0.0
H3186 H 0.74141 0.07383 0.97385 0.0
H3187 H 0.73594 0.02643 0.97532 0.0
H3188 H 0.77655 0.04595 0.93909 0.0
H3189 H 0.74949 0.03655 0.94971 0.0
H3190 H 0.76855 0.07957 0.98031 0.0
H3191 H 0.79547 0.08907 0.96938 0.0
C3192 C 0.71974 0.05527 0.98473 0.0
C3193 C 0.71059 0.03894 0.989 0.0
C3194 C 0.73466 0.06121 0.97705 0.0
C3195 C 0.74074 0.05095 0.97346 0.0
C3196 C 0.73151 0.03461 0.97764 0.0
C3197 C 0.71663 0.02868 0.9853 0.0
C3198 C 0.77485 0.0535 0.94786 0.0
C3199 C 0.78804 0.06834 0.95324 0.0
C3200 C 0.75941 0.04807 0.95406 0.0
C3201 C 0.75686 0.05729 0.96589 0.0
C3202 C 0.77003 0.07228 0.97104 0.0
C3203 C 0.78545 0.07771 0.96482 0.0
H3204 H 0.66831 0.94874 0.01338 0.0
H3205 H 0.68647 0.98069 0.05559 0.0
H3206 H 0.68053 0.93367 0.02366 0.0
H3207 H 0.69805 0.96537 0.06617 0.0
H3208 H 0.73475 0.94884 0.06911 0.0
H3209 H 0.72034 0.96215 0.06026 0.0
H3210 H 0.68017 0.916 0.04403 0.0
H3211 H 0.69495 0.90284 0.05241 0.0
C3212 C 0.67465 0.95235 0.02498 0.0
C3213 C 0.6766 0.96598 0.03358 0.0
C3214 C 0.68161 0.94369 0.03092 0.0
C3215 C 0.69047 0.94842 0.04568 0.0
C3216 C 0.69171 0.96163 0.05458 0.0
C3217 C 0.68496 0.97036 0.04856 0.0
C3218 C 0.72277 0.94156 0.0638 0.0
C3219 C 0.71591 0.92481 0.06158 0.0
C3220 C 0.71445 0.94914 0.05878 0.0
C3221 C 0.69902 0.94014 0.05147 0.0
C3222 C 0.69208 0.92333 0.04944 0.0
C3223 C 0.70047 0.91577 0.05438 0.0
H3224 H 0.00739 0.71427 0.03721 0.0
H3225 H 0.05253 0.71628 0.02743 0.0
H3226 H 0.02199 0.74175 0.04788 0.0
H3227 H 0.06732 0.7439 0.03875 0.0
H3228 H 0.08637 0.79914 0.04185 0.0
H3229 H 0.07375 0.77087 0.03298 0.0
H3230 H 0.03763 0.75775 0.07028 0.0
H3231 H 0.04979 0.78605 0.07851 0.0
C3232 C 0.02048 0.72055 0.03748 0.0
C3233 C 0.02881 0.71308 0.03147 0.0
C3234 C 0.02888 0.73632 0.04377 0.0
C3235 C 0.04586 0.74504 0.04439 0.0
C3236 C 0.05424 0.73758 0.03836 0.0
C3237 C 0.04579 0.72175 0.03192 0.0
C3238 C 0.07587 0.79013 0.04828 0.0
C3239 C 0.06918 0.7948 0.06096 0.0
C3240 C 0.06867 0.77392 0.04326 0.0
C3241 C 0.05459 0.762 0.05083 0.0
C3242 C 0.04828 0.76663 0.06395 0.0
C3243 C 0.05536 0.78285 0.06882 0.0
H3244 H 0.30627 0.35708 0.04484 0.0
H3245 H 0.30074 0.31751 0.01417 0.0
H3246 H 0.28121 0.33854 0.05877 0.0
H3247 H 0.27562 0.2991 0.02799 0.0
H3248 H 0.22228 0.27739 0.04653 0.0
H3249 H 0.24693 0.29552 0.0316 0.0
H3250 H 0.27305 0.31373 0.07712 0.0
H3251 H 0.24865 0.2955 0.09198 0.0
C3252 C 0.29967 0.34447 0.04102 0.0
C3253 C 0.30551 0.33873 0.02849 0.0
C3254 C 0.28539 0.33387 0.04902 0.0
C3255 C 0.27657 0.31743 0.04444 0.0
C3256 C 0.28219 0.31175 0.03168 0.0
C3257 C 0.2966 0.32227 0.02386 0.0
C3258 C 0.23331 0.28527 0.05329 0.0
C3259 C 0.23345 0.28534 0.0704 0.0
C3260 C 0.24737 0.29558 0.04478 0.0
C3261 C 0.26176 0.30616 0.05327 0.0
C3262 C 0.26201 0.30591 0.07033 0.0
C3263 C 0.24806 0.29547 0.07881 0.0
H3264 H 0.67642 0.63403 0.36747 0.0
H3265 H 0.71957 0.68134 0.369 0.0
H3266 H 0.69024 0.62331 0.38282 0.0
H3267 H 0.73361 0.67042 0.3843 0.0
H3268 H 0.75334 0.65196 0.43294 0.0
H3269 H 0.7381 0.66454 0.41224 0.0
H3270 H 0.70562 0.61073 0.38339 0.0
H3271 H 0.71993 0.59688 0.40328 0.0
C3272 C 0.68896 0.64212 0.37092 0.0
C3273 C 0.69688 0.65855 0.36703 0.0
C3274 C 0.69696 0.63591 0.37963 0.0
C3275 C 0.71307 0.64599 0.38472 0.0
C3276 C 0.72114 0.66239 0.38066 0.0
C3277 C 0.71314 0.66861 0.3718 0.0
C3278 C 0.74409 0.64424 0.42415 0.0
C3279 C 0.7403 0.62378 0.4182 0.0
C3280 C 0.73517 0.65216 0.41062 0.0
C3281 C 0.72103 0.63942 0.3948 0.0
C3282 C 0.7145 0.61819 0.39258 0.0
C3283 C 0.72273 0.60918 0.40545 0.0
H3284 H 0.35706 0.03494 0.37439 0.0
H3285 H 0.3154 0.04064 0.37845 0.0
H3286 H 0.37438 0.0627 0.38454 0.0
H3287 H 0.33264 0.06816 0.38864 0.0
H3288 H 0.36693 0.12811 0.39245 0.0
H3289 H 0.34933 0.09553 0.37918 0.0
H3290 H 0.38609 0.08116 0.40816 0.0
H3291 H 0.40459 0.11341 0.4222 0.0
C3292 C 0.35159 0.04207 0.37751 0.0
C3293 C 0.33485 0.03558 0.37554 0.0
C3294 C 0.3615 0.05793 0.38339 0.0
C3295 C 0.35486 0.06762 0.3872 0.0
C3296 C 0.33815 0.06109 0.38546 0.0
C3297 C 0.32824 0.04523 0.37976 0.0
C3298 C 0.37086 0.11962 0.39477 0.0
C3299 C 0.38585 0.12327 0.41108 0.0
C3300 C 0.35958 0.0991 0.38718 0.0
C3301 C 0.36517 0.0845 0.39288 0.0
C3302 C 0.38288 0.0901 0.40528 0.0
C3303 C 0.39494 0.11036 0.41353 0.0
H3304 H 0.97079 0.31975 0.35999 0.0
H3305 H 0.97354 0.27973 0.3793 0.0
H3306 H 0.94375 0.30867 0.37126 0.0
H3307 H 0.94676 0.26892 0.39083 0.0
H3308 H 0.8917 0.24373 0.38993 0.0
H3309 H 0.91937 0.25604 0.38026 0.0
H3310 H 0.92852 0.30297 0.39659 0.0
H3311 H 0.90061 0.29058 0.40605 0.0
C3312 C 0.96572 0.3087 0.36679 0.0
C3313 C 0.97427 0.30055 0.36861 0.0
C3314 C 0.95025 0.30239 0.37331 0.0
C3315 C 0.94305 0.28783 0.38182 0.0
C3316 C 0.95183 0.27999 0.38406 0.0
C3317 C 0.96723 0.28624 0.37751 0.0
C3318 C 0.89968 0.25666 0.39159 0.0
C3319 C 0.89411 0.26617 0.39904 0.0
C3320 C 0.91554 0.26371 0.3861 0.0
C3321 C 0.92621 0.28047 0.38782 0.0
C3322 C 0.92059 0.29004 0.39505 0.0
C3323 C 0.90467 0.28295 0.40057 0.0
H3324 H 0.9937 0.35827 0.30655 0.0
H3325 H 0.04112 0.39401 0.32474 0.0
H3326 H 0.99117 0.37951 0.2936 0.0
H3327 H 0.0385 0.41523 0.31196 0.0
H3328 H 0.03472 0.44728 0.27415 0.0
H3329 H 0.03721 0.42507 0.28482 0.0
H3330 H 0.98819 0.40252 0.3023 0.0
H3331 H 0.98569 0.4246 0.29149 0.0
C3332 C 0.00357 0.37066 0.30781 0.0
C3333 C 0.01758 0.37447 0.31672 0.0
C3334 C 0.0021 0.38282 0.30043 0.0
C3335 C 0.01464 0.39904 0.30176 0.0
C3336 C 0.02871 0.40283 0.31055 0.0
C3337 C 0.03016 0.39068 0.31798 0.0
C3338 C 0.02444 0.43745 0.2801 0.0
C3339 C 0.00995 0.43756 0.28184 0.0
C3340 C 0.02589 0.42482 0.28631 0.0
C3341 C 0.01289 0.41205 0.2944 0.0
C3342 C 0.99834 0.41206 0.29593 0.0
C3343 C 0.99692 0.42471 0.28978 0.0
H3344 H 0.60922 0.63153 0.30101 0.0
H3345 H 0.65286 0.63107 0.31242 0.0
H3346 H 0.59929 0.60664 0.28502 0.0
H3347 H 0.64306 0.6064 0.29607 0.0
H3348 H 0.61534 0.54717 0.27813 0.0
H3349 H 0.62876 0.57791 0.29517 0.0
H3350 H 0.59805 0.59468 0.25895 0.0
H3351 H 0.58382 0.56427 0.24104 0.0
C3352 C 0.61675 0.62619 0.30003 0.0
C3353 C 0.63184 0.63332 0.30804 0.0
C3354 C 0.6111 0.61196 0.29074 0.0
C3355 C 0.62038 0.60453 0.28926 0.0
C3356 C 0.63548 0.61165 0.29718 0.0
C3357 C 0.64116 0.6259 0.30647 0.0
C3358 C 0.61283 0.5563 0.27403 0.0
C3359 C 0.59591 0.55139 0.25967 0.0
C3360 C 0.62056 0.57523 0.28503 0.0
C3361 C 0.61424 0.58937 0.27962 0.0
C3362 C 0.601 0.58568 0.26236 0.0
C3363 C 0.59265 0.56711 0.25062 0.0
H3364 H 0.36293 0.00026 0.30521 0.0
H3365 H 0.36694 0.97467 0.34589 0.0
H3366 H 0.38527 -0.00055 0.2918 0.0
H3367 H 0.38941 0.97413 0.33258 0.0
H3368 H 0.43953 0.99148 0.30994 0.0
H3369 H 0.41869 0.99499 0.32326 0.0
H3370 H 0.38836 0.9754 0.28038 0.0
H3371 H 0.40895 0.97152 0.26719 0.0
C3372 C 0.36869 0.99463 0.31135 0.0
C3373 C 0.36319 0.98749 0.32658 0.0
C3374 C 0.3814 0.99411 0.30365 0.0
C3375 C 0.38901 0.98673 0.31118 0.0
C3376 C 0.3838 0.97999 0.32658 0.0
C3377 C 0.37091 0.98024 0.33415 0.0
C3378 C 0.42847 0.98811 0.30332 0.0
C3379 C 0.42602 0.9815 0.28744 0.0
C3380 C 0.41656 0.99004 0.31095 0.0
C3381 C 0.402 0.98553 0.30279 0.0
C3382 C 0.39959 0.97917 0.28683 0.0
C3383 C 0.41139 0.97697 0.27929 0.0
H3384 H 0.61538 0.96235 0.30274 0.0
H3385 H 0.64862 0.00774 0.32702 0.0
H3386 H 0.60389 0.97574 0.28758 0.0
H3387 H 0.6371 0.02108 0.31178 0.0
H3388 H 0.59769 0.03261 0.29492 0.0
H3389 H 0.61058 0.02046 0.31012 0.0
H3390 H 0.61303 0.99669 0.26598 0.0
H3391 H 0.60018 0.00878 0.25085 0.0
C3392 C 0.62025 0.97517 0.30483 0.0
C3393 C 0.63292 0.98398 0.31607 0.0
C3394 C 0.61373 0.98285 0.29608 0.0
C3395 C 0.61964 -0.00055 0.29849 0.0
C3396 C 0.63225 0.00825 0.30978 0.0
C3397 C 0.63888 0.00061 0.31842 0.0
C3398 C 0.60104 0.02483 0.2885 0.0
C3399 C 0.59766 0.02137 0.27179 0.0
C3400 C 0.60847 0.01795 0.29716 0.0
C3401 C 0.61261 0.00749 0.28924 0.0
C3402 C 0.60969 0.00446 0.27244 0.0
C3403 C 0.60239 0.01141 0.26379 0.0
H3404 H 0.9968 0.64755 0.29496 0.0
H3405 H 0.02797 0.64328 0.32975 0.0
H3406 H 0.98943 0.62124 0.2831 0.0
H3407 H 0.02007 0.61665 0.31844 0.0
H3408 H 0.01169 0.57343 0.28876 0.0
H3409 H 0.02165 0.60163 0.29628 0.0
H3410 H 0.97354 0.59374 0.28942 0.0
H3411 H 0.96389 0.56581 0.28112 0.0
C3412 C 0.00207 0.64096 0.30008 0.0
C3413 C 0.01291 0.64743 0.31333 0.0
C3414 C 0.99776 0.62583 0.29335 0.0
C3415 C 0.00403 0.6167 0.29987 0.0
C3416 C 0.01517 0.62339 0.31291 0.0
C3417 C 0.01964 0.63863 0.31949 0.0
C3418 C 0.00333 0.57783 0.28868 0.0
C3419 C 0.98699 0.56741 0.28452 0.0
C3420 C 0.00899 0.59395 0.29311 0.0
C3421 C 0.99839 0.59998 0.29367 0.0
C3422 C 0.98213 0.58963 0.28899 0.0
C3423 C 0.97652 0.57357 0.28436 0.0
H3424 H 0.37368 0.39639 0.32103 0.0
H3425 H 0.36018 0.34832 0.30424 0.0
H3426 H 0.40041 0.40687 0.30965 0.0
H3427 H 0.38651 0.35887 0.29159 0.0
H3428 H 0.44078 0.37895 0.28853 0.0
H3429 H 0.41304 0.36802 0.29702 0.0
H3430 H 0.41689 0.41399 0.28773 0.0
H3431 H 0.44513 0.42527 0.2809 0.0
C3432 C 0.37635 0.38814 0.3145 0.0
C3433 C 0.36492 0.37156 0.31357 0.0
C3434 C 0.39168 0.39415 0.30783 0.0
C3435 C 0.39584 0.38378 0.29962 0.0
C3436 C 0.38405 0.36723 0.29814 0.0
C3437 C 0.36886 0.36116 0.30525 0.0
C3438 C 0.43578 0.38679 0.28855 0.0
C3439 C 0.44541 0.4032 0.28468 0.0
C3440 C 0.41969 0.38043 0.29316 0.0
C3441 C 0.41259 0.39013 0.29339 0.0
C3442 C 0.42196 0.40623 0.28834 0.0
C3443 C 0.43817 0.41269 0.2842 0.0
H3444 H 0.31806 0.28259 0.3665 0.0
H3445 H 0.36432 0.32688 0.37016 0.0
H3446 H 0.33009 0.26782 0.37792 0.0
H3447 H 0.37644 0.31215 0.38098 0.0
H3448 H 0.3921 0.28483 0.41227 0.0
H3449 H 0.37781 0.29847 0.40405 0.0
H3450 H 0.34831 0.25879 0.37069 0.0
H3451 H 0.3622 0.24491 0.37949 0.0
C3452 C 0.3308 0.28915 0.3697 0.0
C3453 C 0.34023 0.3059 0.36742 0.0
C3454 C 0.33772 0.28069 0.37618 0.0
C3455 C 0.35426 0.28877 0.38042 0.0
C3456 C 0.36362 0.30554 0.37818 0.0
C3457 C 0.35669 0.31399 0.37182 0.0
C3458 C 0.38232 0.27888 0.40347 0.0
C3459 C 0.37804 0.26365 0.39676 0.0
C3460 C 0.37424 0.28678 0.39858 0.0
C3461 C 0.36191 0.27977 0.38665 0.0
C3462 C 0.35753 0.26444 0.38011 0.0
C3463 C 0.36551 0.25649 0.3851 0.0
H3464 H 0.68065 0.02837 0.38722 0.0
H3465 H 0.72002 0.03762 0.35529 0.0
H3466 H 0.69478 0.05673 0.39576 0.0
H3467 H 0.73383 0.06615 0.36312 0.0
H3468 H 0.7609 0.11525 0.38695 0.0
H3469 H 0.74795 0.08605 0.38321 0.0
H3470 H 0.70105 0.08187 0.38604 0.0
H3471 H 0.71412 0.11095 0.39074 0.0
C3472 C 0.69234 0.0365 0.38202 0.0
C3473 C 0.69921 0.03079 0.37055 0.0
C3474 C 0.70041 0.0528 0.38682 0.0
C3475 C 0.71543 0.06387 0.38006 0.0
C3476 C 0.72243 0.05802 0.36883 0.0
C3477 C 0.71447 0.04165 0.36423 0.0
C3478 C 0.74782 0.10802 0.38697 0.0
C3479 C 0.73851 0.11539 0.3889 0.0
C3480 C 0.74037 0.09128 0.38468 0.0
C3481 C 0.72341 0.08151 0.38406 0.0
C3482 C 0.71412 0.08889 0.38658 0.0
C3483 C 0.72159 0.10561 0.38912 0.0
H3484 H 0.97759 0.65923 0.37247 0.0
H3485 H 0.96427 0.69452 0.36101 0.0
H3486 H 0.95072 0.64163 0.38346 0.0
H3487 H 0.93717 0.67664 0.37079 0.0
H3488 H 0.89265 0.64799 0.39934 0.0
H3489 H 0.92085 0.66571 0.3927 0.0
H3490 H 0.92402 0.62423 0.37701 0.0
H3491 H 0.89633 0.60652 0.38523 0.0
C3492 C 0.96884 0.66315 0.37221 0.0
C3493 C 0.97302 0.67826 0.36597 0.0
C3494 C 0.95337 0.65301 0.37839 0.0
C3495 C 0.94159 0.65759 0.37808 0.0
C3496 C 0.9459 0.67275 0.37172 0.0
C3497 C 0.96145 0.68302 0.36595 0.0
C3498 C 0.89944 0.64266 0.39466 0.0
C3499 C 0.89199 0.62584 0.39239 0.0
C3500 C 0.91562 0.65285 0.39062 0.0
C3501 C 0.92478 0.64655 0.38388 0.0
C3502 C 0.9175 0.62964 0.3822 0.0
C3503 C 0.90141 0.61941 0.38669 0.0
H3504 H 0.35095 0.98148 0.70724 0.0
H3505 H 0.39041 0.0301 0.69962 0.0
H3506 H 0.36798 0.9767 0.72527 0.0
H3507 H 0.40766 0.02516 0.71759 0.0
H3508 H 0.43471 0.02102 0.7695 0.0
H3509 H 0.41504 0.02612 0.74641 0.0
H3510 H 0.38614 0.96758 0.72899 0.0
H3511 H 0.40493 0.96108 0.75153 0.0
C3512 C 0.36335 0.99109 0.70924 0.0
C3513 C 0.36932 0.00617 0.702 0.0
C3514 C 0.37319 0.9883 0.7195 0.0
C3515 C 0.3892 0.00054 0.72281 0.0
C3516 C 0.3953 0.01556 0.71539 0.0
C3517 C 0.38547 0.01833 0.705 0.0
C3518 C 0.4253 0.01107 0.7624 0.0
C3519 C 0.42381 0.99099 0.76075 0.0
C3520 C 0.41358 0.01426 0.74741 0.0
C3521 C 0.39918 0.99772 0.73439 0.0
C3522 C 0.39518 0.97732 0.73657 0.0
C3523 C 0.40626 0.97293 0.75114 0.0
H3524 H 0.96094 0.35034 0.71294 0.0
H3525 H 0.01039 0.36201 0.70673 0.0
H3526 H 0.97001 0.37312 0.73184 0.0
H3527 H 0.0194 0.38465 0.726 0.0
H3528 H 0.03797 0.44159 0.7483 0.0
H3529 H 0.02837 0.41254 0.72927 0.0
H3530 H 0.97596 0.38281 0.75939 0.0
H3531 H 0.98432 0.41124 0.77916 0.0
C3532 C 0.97375 0.3577 0.71568 0.0
C3533 C 0.98495 0.35437 0.70825 0.0
C3534 C 0.97893 0.37069 0.72666 0.0
C3535 C 0.9954 0.38064 0.73046 0.0
C3536 C 0.00663 0.37732 0.72315 0.0
C3537 C 0.00145 0.36428 0.71216 0.0
C3538 C 0.02693 0.43047 0.75097 0.0
C3539 C 0.01083 0.43022 0.76373 0.0
C3540 C 0.0205 0.41246 0.73872 0.0
C3541 C 0.00079 0.3947 0.74158 0.0
C3542 C 0.98737 0.39381 0.75755 0.0
C3543 C 0.99274 0.41121 0.77042 0.0
H3544 H 0.63968 0.65359 0.70644 0.0
H3545 H 0.63038 0.60541 0.6959 0.0
H3546 H 0.61417 0.64231 0.72091 0.0
H3547 H 0.60454 0.59408 0.70955 0.0
H3548 H 0.56484 0.57706 0.74575 0.0
H3549 H 0.59179 0.58975 0.73449 0.0
H3550 H 0.58615 0.62866 0.71677 0.0
H3551 H 0.5595 0.61641 0.72912 0.0
C3552 C 0.63212 0.64058 0.70713 0.0
C3553 C 0.63704 0.63039 0.70004 0.0
C3554 C 0.61743 0.63409 0.71535 0.0
C3555 C 0.60719 0.61724 0.71643 0.0
C3556 C 0.6122 0.6071 0.70931 0.0
C3557 C 0.62699 0.61359 0.70136 0.0
C3558 C 0.56946 0.58851 0.73978 0.0
C3559 C 0.56012 0.59591 0.7386 0.0
C3560 C 0.58489 0.5957 0.73308 0.0
C3561 C 0.59121 0.61022 0.72459 0.0
C3562 C 0.58187 0.61764 0.72346 0.0
C3563 C 0.56655 0.6106 0.73045 0.0
H3564 H 0.65604 0.6873 0.62885 0.0
H3565 H 0.67605 0.71932 0.67088 0.0
H3566 H 0.64607 0.70423 0.6182 0.0
H3567 H 0.66557 0.73598 0.66037 0.0
H3568 H 0.6216 0.74283 0.64179 0.0
H3569 H 0.63295 0.72713 0.65269 0.0
H3570 H 0.66269 0.7375 0.61015 0.0
H3571 H 0.65204 0.75376 0.59951 0.0
C3572 C 0.65828 0.69794 0.63581 0.0
C3573 C 0.66682 0.70203 0.65068 0.0
C3574 C 0.65262 0.7076 0.62969 0.0
C3575 C 0.65507 0.72131 0.63852 0.0
C3576 C 0.66354 0.72541 0.65341 0.0
C3577 C 0.66956 0.71595 0.65936 0.0
C3578 C 0.63063 0.74182 0.63482 0.0
C3579 C 0.63578 0.74948 0.61976 0.0
C3580 C 0.63712 0.73291 0.64107 0.0
C3581 C 0.64864 0.73119 0.63221 0.0
C3582 C 0.65376 0.73867 0.61713 0.0
C3583 C 0.64758 0.74792 0.61105 0.0
H3584 H 0.32168 0.96808 0.64698 0.0
H3585 H 0.27696 0.96643 0.63568 0.0
H3586 H 0.31186 0.94238 0.63241 0.0
H3587 H 0.26704 0.94062 0.62159 0.0
H3588 H 0.2496 0.895 0.58176 0.0
H3589 H 0.26469 0.92685 0.59674 0.0
H3590 H 0.29816 0.91387 0.6334 0.0
H3591 H 0.28391 0.88175 0.61925 0.0
C3592 C 0.30975 0.96224 0.64143 0.0
C3593 C 0.30012 0.96936 0.6425 0.0
C3594 C 0.30408 0.94743 0.63317 0.0
C3595 C 0.28868 0.93946 0.62581 0.0
C3596 C 0.2791 0.94659 0.62681 0.0
C3597 C 0.28475 0.96137 0.63504 0.0
C3598 C 0.25908 0.89877 0.59082 0.0
C3599 C 0.26312 0.88408 0.60104 0.0
C3600 C 0.26803 0.91831 0.60078 0.0
C3601 C 0.28242 0.92366 0.61734 0.0
C3602 C 0.28932 0.91024 0.6237 0.0
C3603 C 0.28103 0.89039 0.61448 0.0
H3604 H 0.04528 0.32495 0.67237 0.0
H3605 H 0.03622 0.35115 0.63582 0.0
H3606 H 0.07294 0.33612 0.66227 0.0
H3607 H 0.06367 0.36183 0.62549 0.0
H3608 H 0.10578 0.35207 0.60372 0.0
H3609 H 0.07861 0.3422 0.61418 0.0
H3610 H 0.09871 0.37142 0.65783 0.0
H3611 H 0.12605 0.38202 0.64715 0.0
C3612 C 0.04918 0.33304 0.66218 0.0
C3613 C 0.03863 0.33721 0.65488 0.0
C3614 C 0.06496 0.33943 0.65647 0.0
C3615 C 0.07027 0.34975 0.64314 0.0
C3616 C 0.05975 0.35386 0.63578 0.0
C3617 C 0.04411 0.34779 0.64172 0.0
C3618 C 0.10451 0.3566 0.61546 0.0
C3619 C 0.11818 0.36798 0.62458 0.0
C3620 C 0.08894 0.35089 0.62143 0.0
C3621 C 0.08671 0.35607 0.63676 0.0
C3622 C 0.10022 0.36726 0.64597 0.0
C3623 C 0.1158 0.37329 0.63986 0.0
H3624 H 0.27503 0.30991 0.63866 0.0
H3625 H 0.32121 0.35252 0.64999 0.0
H3626 H 0.26532 0.32695 0.62786 0.0
H3627 H 0.31144 0.36946 0.63947 0.0
H3628 H 0.2932 0.39647 0.61111 0.0
H3629 H 0.30254 0.37743 0.61538 0.0
H3630 H 0.25821 0.34578 0.64045 0.0
H3631 H 0.24886 0.36468 0.63595 0.0
C3632 C 0.28317 0.32288 0.63869 0.0
C3633 C 0.29885 0.32985 0.64534 0.0
C3634 C 0.27758 0.33264 0.63257 0.0
C3635 C 0.28757 0.34957 0.63289 0.0
C3636 C 0.30348 0.35647 0.63887 0.0
C3637 C 0.30904 0.34673 0.64503 0.0
C3638 C 0.28536 0.38527 0.61722 0.0
C3639 C 0.27027 0.38198 0.62311 0.0
C3640 C 0.29073 0.37443 0.61977 0.0
C3641 C 0.28114 0.36011 0.62829 0.0
C3642 C 0.2658 0.35657 0.63363 0.0
C3643 C 0.26046 0.36742 0.63113 0.0
H3644 H 0.68886 0.97083 0.63812 0.0
H3645 H 0.64387 0.97069 0.63801 0.0
H3646 H 0.67455 0.94267 0.62858 0.0
H3647 H 0.62952 0.9425 0.62905 0.0
H3648 H 0.60875 0.89524 0.6013 0.0
H3649 H 0.62493 0.92427 0.607 0.0
H3650 H 0.65612 0.91647 0.6386 0.0
H3651 H 0.64029 0.88758 0.63235 0.0
C3652 C 0.67592 0.96478 0.63606 0.0
C3653 C 0.66751 0.97298 0.63884 0.0
C3654 C 0.66769 0.94861 0.63067 0.0
C3655 C 0.65085 0.94025 0.62805 0.0
C3656 C 0.64251 0.94858 0.63065 0.0
C3657 C 0.65074 0.96474 0.63592 0.0
C3658 C 0.61929 0.89981 0.60916 0.0
C3659 C 0.62347 0.88919 0.61612 0.0
C3660 C 0.62846 0.91642 0.6126 0.0
C3661 C 0.64186 0.92277 0.62329 0.0
C3662 C 0.6461 0.91211 0.63008 0.0
C3663 C 0.637 0.89554 0.62655 0.0
H3664 H 0.02737 0.68131 0.65172 0.0
H3665 H 0.03173 0.72694 0.63981 0.0
H3666 H 0.05473 0.69111 0.64195 0.0
H3667 H 0.05899 0.73661 0.6299 0.0
H3668 H 0.11342 0.75434 0.63762 0.0
H3669 H 0.08497 0.74428 0.64316 0.0
H3670 H 0.07198 0.69964 0.61739 0.0
H3671 H 0.10061 0.70977 0.61193 0.0
C3672 C 0.03407 0.69335 0.64684 0.0
C3673 C 0.02738 0.70338 0.64668 0.0
C3674 C 0.04972 0.69893 0.64115 0.0
C3675 C 0.05906 0.71467 0.63523 0.0
C3676 C 0.05218 0.7245 0.63459 0.0
C3677 C 0.03652 0.71891 0.64021 0.0
C3678 C 0.10447 0.74248 0.63293 0.0
C3679 C 0.10921 0.73286 0.6243 0.0
C3680 C 0.08816 0.73673 0.63605 0.0
C3681 C 0.07622 0.72115 0.63071 0.0
C3682 C 0.08092 0.71164 0.62177 0.0
C3683 C 0.09726 0.71745 0.61856 0.0
H3684 H 0.01167 0.64947 0.70433 0.0
H3685 H 0.96131 0.61326 0.69712 0.0
H3686 H 0.01649 0.62941 0.71645 0.0
H3687 H 0.96597 0.59327 0.70981 0.0
H3688 H 0.98435 0.55807 0.71593 0.0
H3689 H 0.97875 0.57798 0.70462 0.0
H3690 H 0.01158 0.6136 0.7399 0.0
H3691 H 0.01765 0.59383 0.75066 0.0
C3692 C 0.00159 0.63724 0.70548 0.0
C3693 C 0.98612 0.63293 0.69973 0.0
C3694 C 0.00432 0.62575 0.71254 0.0
C3695 C 0.99162 0.6097 0.71416 0.0
C3696 C 0.97609 0.60545 0.70854 0.0
C3697 C 0.97339 0.61692 0.70135 0.0
C3698 C 0.99021 0.57012 0.72135 0.0
C3699 C 0.00116 0.57429 0.73439 0.0
C3700 C 0.98697 0.58152 0.71493 0.0
C3701 C 0.99465 0.5974 0.72139 0.0
C3702 C 0.00557 0.60154 0.7345 0.0
C3703 C 0.00891 0.59017 0.74082 0.0
H3704 H 0.38544 0.36938 0.70227 0.0
H3705 H 0.34113 0.37036 0.70588 0.0
H3706 H 0.40045 0.39682 0.71388 0.0
H3707 H 0.35606 0.39778 0.71683 0.0
H3708 H 0.3839 0.44307 0.74665 0.0
H3709 H 0.37044 0.41438 0.73947 0.0
H3710 H 0.40913 0.42381 0.70634 0.0
H3711 H 0.42288 0.45238 0.71416 0.0
C3712 C 0.37891 0.37544 0.70556 0.0
C3713 C 0.36211 0.3677 0.70314 0.0
C3714 C 0.38752 0.39119 0.71213 0.0
C3715 C 0.3795 0.39957 0.71632 0.0
C3716 C 0.36264 0.39166 0.71408 0.0
C3717 C 0.35407 0.37593 0.70765 0.0
C3718 C 0.3897 0.43894 0.73814 0.0
C3719 C 0.4046 0.44994 0.73117 0.0
C3720 C 0.38191 0.42251 0.73386 0.0
C3721 C 0.38863 0.41673 0.72224 0.0
C3722 C 0.40369 0.42772 0.71553 0.0
C3723 C 0.41156 0.44412 0.71994 0.0
H3724 H 0.64054 0.99736 0.68172 0.0
H3725 H 0.65627 0.04219 0.70847 0.0
H3726 H 0.61556 0.98445 0.69734 0.0
H3727 H 0.63132 0.02921 0.72407 0.0
H3728 H 0.5949 0.99467 0.76119 0.0
H3729 H 0.61935 0.00686 0.74484 0.0
H3730 H 0.59036 0.98684 0.70113 0.0
H3731 H 0.56577 0.97466 0.71756 0.0
C3732 C 0.63868 0.00445 0.69094 0.0
C3733 C 0.65041 0.02078 0.69392 0.0
C3734 C 0.62434 0.99708 0.69978 0.0
C3735 C 0.62158 0.00583 0.71192 0.0
C3736 C 0.63325 0.02215 0.71487 0.0
C3737 C 0.64749 0.02959 0.70589 0.0
C3738 C 0.59376 0.99291 0.74809 0.0
C3739 C 0.57844 0.98398 0.74059 0.0
C3740 C 0.60772 -9e-05 0.73874 0.0
C3741 C 0.6067 0.99793 0.72173 0.0
C3742 C 0.59145 0.98853 0.71424 0.0
C3743 C 0.57742 0.98163 0.7236 0.0
loop_
_geom_bond_atom_site_label_1
_geom_bond_atom_site_label_2
_geom_bond_distance
_geom_bond_site_symmetry_2
_ccdc_geom_bond_type
C0 O1 1.306 . S
C0 O3 1.160 . S
O1 C0 1.306 . S
O1 Cd2 2.228 1_556 S
Cd2 O1 2.228 1_554 S
Cd2 O6 2.273 . S
Cd2 O10 2.277 1_554 S
O3 C0 1.160 . S
O3 Cd4 2.203 1_656 S
Cd4 O3 2.203 1_454 S
Cd4 O6 2.411 1_455 S
Cd4 O7 2.333 . S
Cd4 O8 2.352 . S
Cd4 O12 2.277 1_554 S
Cd4 O13 2.356 . S
C5 O10 1.209 1_455 S
C5 O12 1.226 . S
O6 Cd2 2.273 . S
O6 Cd4 2.411 1_655 S
O6 C9 1.320 1_655 S
O7 Cd4 2.333 . S
O7 C9 1.214 . S
O8 Cd4 2.352 . S
O8 C11 1.258 . S
C9 O6 1.320 1_455 S
C9 O7 1.214 . S
O10 Cd2 2.277 1_556 S
O10 C5 1.209 1_655 S
C11 O8 1.258 . S
C11 O13 1.282 . S
O12 Cd4 2.277 1_556 S
O12 C5 1.226 . S
O13 Cd4 2.356 . S
O13 C11 1.282 . S
C14 O15 1.306 . S
C14 O17 1.160 . S
O15 C14 1.306 . S
O15 Cd16 2.228 . S
Cd16 O15 2.228 . S
Cd16 O20 2.273 . S
Cd16 O24 2.277 . S
O17 C14 1.160 . S
O17 Cd18 2.203 . S
Cd18 O17 2.203 . S
Cd18 O20 2.411 . S
Cd18 O21 2.333 1_554 S
Cd18 O22 2.352 1_554 S
Cd18 O26 2.277 . S
Cd18 O27 2.356 . S
C19 O24 1.209 . S
C19 O26 1.226 . S
O20 Cd16 2.273 . S
O20 Cd18 2.411 . S
O20 C23 1.320 1_554 S
O21 Cd18 2.333 1_556 S
O21 C23 1.214 . S
O22 Cd18 2.352 1_556 S
O22 C25 1.258 . S
C23 O20 1.320 1_556 S
C23 O21 1.214 . S
O24 Cd16 2.277 . S
O24 C19 1.209 . S
C25 O22 1.258 . S
C25 O27 1.282 1_556 S
O26 Cd18 2.277 . S
O26 C19 1.226 . S
O27 Cd18 2.356 . S
O27 C25 1.282 1_554 S
C28 O29 1.306 . S
C28 O31 1.160 . S
O29 C28 1.306 . S
O29 Cd30 2.228 . S
Cd30 O29 2.228 . S
Cd30 O34 2.273 1_554 S
Cd30 O38 2.277 . S
O31 C28 1.160 . S
O31 Cd32 2.203 1_565 S
Cd32 O31 2.203 1_545 S
Cd32 O34 2.411 1_544 S
Cd32 O35 2.333 1_554 S
Cd32 O36 2.352 1_554 S
Cd32 O40 2.277 . S
Cd32 O41 2.356 . S
C33 O38 1.209 1_545 S
C33 O40 1.226 . S
O34 Cd30 2.273 1_556 S
O34 Cd32 2.411 1_566 S
O34 C37 1.320 1_565 S
O35 Cd32 2.333 1_556 S
O35 C37 1.214 . S
O36 Cd32 2.352 1_556 S
O36 C39 1.258 . S
C37 O34 1.320 1_545 S
C37 O35 1.214 . S
O38 Cd30 2.277 . S
O38 C33 1.209 1_565 S
C39 O36 1.258 . S
C39 O41 1.282 1_556 S
O40 Cd32 2.277 . S
O40 C33 1.226 . S
O41 Cd32 2.356 . S
O41 C39 1.282 1_554 S
C42 O43 1.306 1_556 S
C42 O45 1.160 . S
O43 C42 1.306 1_554 S
O43 Cd44 2.228 . S
Cd44 O43 2.228 . S
Cd44 O48 2.273 . S
Cd44 O52 2.277 1_554 S
O45 C42 1.160 . S
O45 Cd46 2.203 1_656 S
Cd46 O45 2.203 1_454 S
Cd46 O48 2.411 1_455 S
Cd46 O49 2.333 . S
Cd46 O50 2.352 . S
Cd46 O54 2.277 1_554 S
Cd46 O55 2.356 . S
C47 O52 1.209 1_455 S
C47 O54 1.226 . S
O48 Cd44 2.273 . S
O48 Cd46 2.411 1_655 S
O48 C51 1.320 . S
O49 Cd46 2.333 . S
O49 C51 1.214 1_455 S
O50 Cd46 2.352 . S
O50 C53 1.258 . S
C51 O48 1.320 . S
C51 O49 1.214 1_655 S
O52 Cd44 2.277 1_556 S
O52 C47 1.209 1_655 S
C53 O50 1.258 . S
C53 O55 1.282 . S
O54 Cd46 2.277 1_556 S
O54 C47 1.226 . S
O55 Cd46 2.356 . S
O55 C53 1.282 . S
C56 O57 1.306 . S
C56 O59 1.160 . S
O57 C56 1.306 . S
O57 Cd58 2.228 . S
Cd58 O57 2.228 . S
Cd58 O62 2.273 1_554 S
Cd58 O66 2.277 . S
O59 C56 1.160 . S
O59 Cd60 2.203 . S
Cd60 O59 2.203 . S
Cd60 O62 2.411 1_554 S
Cd60 O63 2.333 1_554 S
Cd60 O64 2.352 1_554 S
Cd60 O68 2.277 . S
Cd60 O69 2.356 1_554 S
C61 O66 1.209 . S
C61 O68 1.226 . S
O62 Cd58 2.273 1_556 S
O62 Cd60 2.411 1_556 S
O62 C65 1.320 . S
O63 Cd60 2.333 1_556 S
O63 C65 1.214 . S
O64 Cd60 2.352 1_556 S
O64 C67 1.258 . S
C65 O62 1.320 . S
C65 O63 1.214 . S
O66 Cd58 2.277 . S
O66 C61 1.209 . S
C67 O64 1.258 . S
C67 O69 1.282 . S
O68 Cd60 2.277 . S
O68 C61 1.226 . S
O69 Cd60 2.356 1_556 S
O69 C67 1.282 . S
C70 O71 1.306 1_556 S
C70 O73 1.160 . S
O71 C70 1.306 1_554 S
O71 Cd72 2.228 . S
Cd72 O71 2.228 . S
Cd72 O76 2.273 . S
Cd72 O80 2.277 1_554 S
O73 C70 1.160 . S
O73 Cd74 2.203 1_546 S
Cd74 O73 2.203 1_564 S
Cd74 O76 2.411 1_565 S
Cd74 O77 2.333 . S
Cd74 O78 2.352 . S
Cd74 O82 2.277 1_554 S
Cd74 O83 2.356 . S
C75 O80 1.209 1_565 S
C75 O82 1.226 . S
O76 Cd72 2.273 . S
O76 Cd74 2.411 1_545 S
O76 C79 1.320 . S
O77 Cd74 2.333 . S
O77 C79 1.214 1_565 S
O78 Cd74 2.352 . S
O78 C81 1.258 . S
C79 O76 1.320 . S
C79 O77 1.214 1_545 S
O80 Cd72 2.277 1_556 S
O80 C75 1.209 1_545 S
C81 O78 1.258 . S
C81 O83 1.282 . S
O82 Cd74 2.277 1_556 S
O82 C75 1.226 . S
O83 Cd74 2.356 . S
O83 C81 1.282 . S
C84 O85 1.306 . S
C84 O87 1.160 . S
O85 C84 1.306 . S
O85 Cd86 2.228 . S
Cd86 O85 2.228 . S
Cd86 O90 2.273 . S
Cd86 O94 2.277 . S
O87 C84 1.160 . S
O87 Cd88 2.203 . S
Cd88 O87 2.203 . S
Cd88 O90 2.411 . S
Cd88 O91 2.333 . S
Cd88 O92 2.352 . S
Cd88 O96 2.277 . S
Cd88 O97 2.356 . S
C89 O94 1.209 . S
C89 O96 1.226 . S
O90 Cd86 2.273 . S
O90 Cd88 2.411 . S
O90 C93 1.320 . S
O91 Cd88 2.333 . S
O91 C93 1.214 . S
O92 Cd88 2.352 . S
O92 C95 1.258 . S
C93 O90 1.320 . S
C93 O91 1.214 . S
O94 Cd86 2.277 . S
O94 C89 1.209 . S
C95 O92 1.258 . S
C95 O97 1.282 . S
O96 Cd88 2.277 . S
O96 C89 1.226 . S
O97 Cd88 2.356 . S
O97 C95 1.282 . S
C98 O99 1.306 . S
C98 O101 1.160 . S
O99 C98 1.306 . S
O99 Cd100 2.228 1_545 S
Cd100 O99 2.228 1_565 S
Cd100 O104 2.273 . S
Cd100 O108 2.277 . S
O101 C98 1.160 . S
O101 Cd102 2.203 1_545 S
Cd102 O101 2.203 1_565 S
Cd102 O104 2.411 . S
Cd102 O105 2.333 . S
Cd102 O106 2.352 . S
Cd102 O110 2.277 . S
Cd102 O111 2.356 . S
C103 O108 1.209 . S
C103 O110 1.226 . S
O104 Cd100 2.273 . S
O104 Cd102 2.411 . S
O104 C107 1.320 . S
O105 Cd102 2.333 . S
O105 C107 1.214 . S
O106 Cd102 2.352 . S
O106 C109 1.258 . S
C107 O104 1.320 . S
C107 O105 1.214 . S
O108 Cd100 2.277 . S
O108 C103 1.209 . S
C109 O106 1.258 . S
C109 O111 1.282 . S
O110 Cd102 2.277 . S
O110 C103 1.226 . S
O111 Cd102 2.356 . S
O111 C109 1.282 . S
C112 O113 1.300 1_655 S
C112 O115 1.159 1_655 S
O113 C112 1.300 1_455 S
O113 Cd114 2.228 . S
Cd114 O113 2.228 . S
Cd114 O118 2.273 . S
Cd114 O122 2.277 . S
O115 C112 1.159 1_455 S
O115 Cd116 2.203 . S
Cd116 O115 2.203 . S
Cd116 O118 2.411 . S
Cd116 O119 2.333 . S
Cd116 O120 2.352 . S
Cd116 O124 2.277 . S
Cd116 O125 2.356 . S
C117 O122 1.209 . S
C117 O124 1.226 . S
O118 Cd114 2.273 . S
O118 Cd116 2.411 . S
O118 C121 1.320 . S
O119 Cd116 2.333 . S
O119 C121 1.214 . S
O120 Cd116 2.352 . S
O120 C123 1.258 . S
C121 O118 1.320 . S
C121 O119 1.214 . S
O122 Cd114 2.277 . S
O122 C117 1.209 . S
C123 O120 1.258 . S
C123 O125 1.282 . S
O124 Cd116 2.277 . S
O124 C117 1.226 . S
O125 Cd116 2.356 . S
O125 C123 1.282 . S
C126 O127 1.306 . S
C126 O129 1.160 . S
O127 C126 1.306 . S
O127 Cd128 2.228 . S
Cd128 O127 2.228 . S
Cd128 O132 2.273 . S
Cd128 O136 2.277 . S
O129 C126 1.160 . S
O129 Cd130 2.203 . S
Cd130 O129 2.203 . S
Cd130 O132 2.411 . S
Cd130 O133 2.333 . S
Cd130 O134 2.352 1_565 S
Cd130 O138 2.277 . S
Cd130 O139 2.356 1_565 S
C131 O136 1.209 . S
C131 O138 1.226 . S
O132 Cd128 2.273 . S
O132 Cd130 2.411 . S
O132 C135 1.320 . S
O133 Cd130 2.333 . S
O133 C135 1.214 . S
O134 Cd130 2.352 1_545 S
O134 C137 1.258 . S
C135 O132 1.320 . S
C135 O133 1.214 . S
O136 Cd128 2.277 . S
O136 C131 1.209 . S
C137 O134 1.258 . S
C137 O139 1.282 . S
O138 Cd130 2.277 . S
O138 C131 1.226 . S
O139 Cd130 2.356 1_545 S
O139 C137 1.282 . S
C140 O141 1.306 . S
C140 O143 1.160 1_655 S
O141 C140 1.306 . S
O141 Cd142 2.228 1_655 S
Cd142 O141 2.228 1_455 S
Cd142 O146 2.273 . S
Cd142 O150 2.277 . S
O143 C140 1.160 1_455 S
O143 Cd144 2.203 . S
Cd144 O143 2.203 . S
Cd144 O146 2.411 . S
Cd144 O147 2.333 . S
Cd144 O148 2.352 . S
Cd144 O152 2.277 . S
Cd144 O153 2.356 . S
C145 O150 1.209 . S
C145 O152 1.226 . S
O146 Cd142 2.273 . S
O146 Cd144 2.411 . S
O146 C149 1.320 . S
O147 Cd144 2.333 . S
O147 C149 1.214 . S
O148 Cd144 2.352 . S
O148 C151 1.258 . S
C149 O146 1.320 . S
C149 O147 1.214 . S
O150 Cd142 2.277 . S
O150 C145 1.209 . S
C151 O148 1.258 . S
C151 O153 1.282 . S
O152 Cd144 2.277 . S
O152 C145 1.226 . S
O153 Cd144 2.356 . S
O153 C151 1.282 . S
C154 O155 1.306 . S
C154 O157 1.160 . S
O155 C154 1.306 . S
O155 Cd156 2.228 . S
Cd156 O155 2.228 . S
Cd156 O160 2.273 . S
Cd156 O164 2.277 . S
O157 C154 1.160 . S
O157 Cd158 2.203 . S
Cd158 O157 2.203 . S
Cd158 O160 2.411 . S
Cd158 O161 2.333 . S
Cd158 O162 2.352 . S
Cd158 O166 2.277 . S
Cd158 O167 2.356 . S
C159 O164 1.209 . S
C159 O166 1.226 . S
O160 Cd156 2.273 . S
O160 Cd158 2.411 . S
O160 C163 1.320 . S
O161 Cd158 2.333 . S
O161 C163 1.214 . S
O162 Cd158 2.352 . S
O162 C165 1.258 . S
C163 O160 1.320 . S
C163 O161 1.214 . S
O164 Cd156 2.277 . S
O164 C159 1.209 . S
C165 O162 1.258 . S
C165 O167 1.282 . S
O166 Cd158 2.277 . S
O166 C159 1.226 . S
O167 Cd158 2.356 . S
O167 C165 1.282 . S
C168 O169 1.306 . S
C168 O171 1.159 1_565 S
O169 C168 1.306 . S
O169 Cd170 2.228 1_565 S
Cd170 O169 2.228 1_545 S
Cd170 O174 2.273 . S
Cd170 O178 2.277 . S
O171 C168 1.159 1_545 S
O171 Cd172 2.211 . S
Cd172 O171 2.211 . S
Cd172 O174 2.411 . S
Cd172 O175 2.333 . S
Cd172 O176 2.352 . S
Cd172 O180 2.277 . S
Cd172 O181 2.356 . S
C173 O178 1.209 . S
C173 O180 1.226 . S
O174 Cd170 2.273 . S
O174 Cd172 2.411 . S
O174 C177 1.320 . S
O175 Cd172 2.333 . S
O175 C177 1.214 . S
O176 Cd172 2.352 . S
O176 C179 1.258 . S
C177 O174 1.320 . S
C177 O175 1.214 . S
O178 Cd170 2.277 . S
O178 C173 1.209 . S
C179 O176 1.258 . S
C179 O181 1.282 . S
O180 Cd172 2.277 . S
O180 C173 1.226 . S
O181 Cd172 2.356 . S
O181 C179 1.282 . S
C182 O183 1.306 . S
C182 O185 1.160 . S
O183 C182 1.306 . S
O183 Cd184 2.228 . S
Cd184 O183 2.228 . S
Cd184 O188 2.273 . S
Cd184 O192 2.277 . S
O185 C182 1.160 . S
O185 Cd186 2.203 . S
Cd186 O185 2.203 . S
Cd186 O188 2.411 . S
Cd186 O189 2.333 . S
Cd186 O190 2.352 1_655 S
Cd186 O194 2.277 . S
Cd186 O195 2.356 1_655 S
C187 O192 1.209 . S
C187 O194 1.226 . S
O188 Cd184 2.273 . S
O188 Cd186 2.411 . S
O188 C191 1.320 . S
O189 Cd186 2.333 . S
O189 C191 1.214 . S
O190 Cd186 2.352 1_455 S
O190 C193 1.258 . S
C191 O188 1.320 . S
C191 O189 1.214 . S
O192 Cd184 2.277 . S
O192 C187 1.209 . S
C193 O190 1.258 . S
C193 O195 1.282 . S
O194 Cd186 2.277 . S
O194 C187 1.226 . S
O195 Cd186 2.356 1_455 S
O195 C193 1.282 . S
C196 O197 1.306 . S
C196 O199 1.160 . S
O197 C196 1.306 . S
O197 Cd198 2.228 . S
Cd198 O197 2.228 . S
Cd198 O202 2.273 . S
Cd198 O206 2.277 . S
O199 C196 1.160 . S
O199 Cd200 2.203 . S
Cd200 O199 2.203 . S
Cd200 O202 2.411 . S
Cd200 O203 2.333 . S
Cd200 O204 2.352 . S
Cd200 O208 2.277 . S
Cd200 O209 2.356 . S
C201 O206 1.209 . S
C201 O208 1.226 . S
O202 Cd198 2.273 . S
O202 Cd200 2.411 . S
O202 C205 1.320 . S
O203 Cd200 2.333 . S
O203 C205 1.214 . S
O204 Cd200 2.352 . S
O204 C207 1.258 . S
C205 O202 1.320 . S
C205 O203 1.214 . S
O206 Cd198 2.277 . S
O206 C201 1.209 . S
C207 O204 1.258 . S
C207 O209 1.282 . S
O208 Cd200 2.277 . S
O208 C201 1.226 . S
O209 Cd200 2.356 . S
O209 C207 1.282 . S
C210 O211 1.306 . S
C210 O213 1.160 . S
O211 C210 1.306 . S
O211 Cd212 2.228 . S
Cd212 O211 2.228 . S
Cd212 O216 2.273 . S
Cd212 O220 2.277 . S
O213 C210 1.160 . S
O213 Cd214 2.203 . S
Cd214 O213 2.203 . S
Cd214 O216 2.411 . S
Cd214 O217 2.333 . S
Cd214 O218 2.352 . S
Cd214 O222 2.277 . S
Cd214 O223 2.356 . S
C215 O220 1.209 . S
C215 O222 1.226 . S
O216 Cd212 2.273 . S
O216 Cd214 2.411 . S
O216 C219 1.320 . S
O217 Cd214 2.333 . S
O217 C219 1.214 . S
O218 Cd214 2.352 . S
O218 C221 1.258 . S
C219 O216 1.320 . S
C219 O217 1.214 . S
O220 Cd212 2.277 . S
O220 C215 1.209 . S
C221 O218 1.258 . S
C221 O223 1.282 . S
O222 Cd214 2.277 . S
O222 C215 1.226 . S
O223 Cd214 2.356 . S
O223 C221 1.282 . S
C224 O225 1.306 . S
C224 O227 1.160 . S
O225 C224 1.306 . S
O225 Cd226 2.228 . S
Cd226 O225 2.228 . S
Cd226 O230 2.273 . S
Cd226 O234 2.277 . S
O227 C224 1.160 . S
O227 Cd228 2.203 . S
Cd228 O227 2.203 . S
Cd228 O230 2.411 . S
Cd228 O231 2.333 . S
Cd228 O232 2.352 1_545 S
Cd228 O236 2.277 . S
Cd228 O237 2.356 1_545 S
C229 O234 1.209 . S
C229 O236 1.226 . S
O230 Cd226 2.273 . S
O230 Cd228 2.411 . S
O230 C233 1.320 . S
O231 Cd228 2.333 . S
O231 C233 1.214 . S
O232 Cd228 2.352 1_565 S
O232 C235 1.258 . S
C233 O230 1.320 . S
C233 O231 1.214 . S
O234 Cd226 2.277 . S
O234 C229 1.209 . S
C235 O232 1.258 . S
C235 O237 1.282 . S
O236 Cd228 2.277 . S
O236 C229 1.226 . S
O237 Cd228 2.356 1_565 S
O237 C235 1.282 . S
C238 O239 1.306 . S
C238 O241 1.160 . S
O239 C238 1.306 . S
O239 Cd240 2.228 1_455 S
Cd240 O239 2.228 1_655 S
Cd240 O244 2.273 . S
Cd240 O248 2.277 . S
O241 C238 1.160 . S
O241 Cd242 2.203 1_455 S
Cd242 O241 2.203 1_655 S
Cd242 O244 2.411 . S
Cd242 O245 2.333 . S
Cd242 O246 2.352 . S
Cd242 O250 2.277 . S
Cd242 O251 2.356 . S
C243 O248 1.209 . S
C243 O250 1.226 . S
O244 Cd240 2.273 . S
O244 Cd242 2.411 . S
O244 C247 1.320 . S
O245 Cd242 2.333 . S
O245 C247 1.214 . S
O246 Cd242 2.352 . S
O246 C249 1.258 . S
C247 O244 1.320 . S
C247 O245 1.214 . S
O248 Cd240 2.277 . S
O248 C243 1.209 . S
C249 O246 1.258 . S
C249 O251 1.282 . S
O250 Cd242 2.277 . S
O250 C243 1.226 . S
O251 Cd242 2.356 . S
O251 C249 1.282 . S
C252 C253 1.560 . S
C252 H313 0.959 . S
C252 H314 0.959 . S
C252 H315 0.960 . S
C253 C252 1.560 . S
C253 O308 1.426 . S
C253 H312 0.980 . S
C254 C255 1.407 . S
C254 C259 1.418 . S
C254 O308 1.334 . S
C255 C254 1.407 . S
C255 C256 1.360 . S
C255 H316 0.929 . S
C256 C255 1.360 . S
C256 C257 1.401 . S
C256 C260 1.527 . S
C257 C256 1.401 . S
C257 C258 1.405 . S
C257 C290 1.587 . S
C258 C257 1.405 . S
C258 C259 1.332 . S
C258 C261 1.496 . S
C259 C254 1.418 . S
C259 C258 1.332 . S
C259 H317 0.929 . S
C260 C256 1.527 . S
C260 H318 0.959 . S
C260 H319 0.961 . S
C260 H320 0.961 . S
C261 C258 1.496 . S
C261 H321 0.960 . S
C261 H322 0.960 . S
C261 H323 0.961 . S
C262 C263 1.517 . S
C262 H325 0.961 . S
C262 H326 0.960 . S
C262 H327 0.959 . S
C263 C262 1.517 . S
C263 O311 1.468 . S
C263 H324 0.980 . S
C264 C265 1.349 . S
C264 C269 1.367 . S
C264 O311 1.408 . S
C265 C264 1.349 . S
C265 C266 1.407 . S
C265 H328 0.930 . S
C266 C265 1.407 . S
C266 C267 1.449 . S
C266 C270 1.535 . S
C267 C266 1.449 . S
C267 C268 1.384 . S
C267 C292 1.553 . S
C268 C267 1.384 . S
C268 C269 1.364 . S
C268 C271 1.450 . S
C269 C264 1.367 . S
C269 C268 1.364 . S
C269 H329 0.931 . S
C270 C266 1.535 . S
C270 H330 0.959 . S
C270 H331 0.961 . S
C270 H332 0.959 . S
C271 C268 1.450 . S
C271 H333 0.960 . S
C271 H334 0.960 . S
C271 H335 0.960 . S
C272 C273 1.309 . S
C272 C277 1.304 . S
C272 O310 1.435 . S
C273 C272 1.309 . S
C273 C274 1.476 . S
C273 H337 0.930 . S
C274 C273 1.476 . S
C274 C275 1.400 . S
C274 C278 1.567 . S
C275 C274 1.400 . S
C275 C276 1.373 . S
C275 C297 1.432 . S
C276 C275 1.373 . S
C276 C277 1.339 . S
C276 C279 1.530 . S
C277 C272 1.304 . S
C277 C276 1.339 . S
C277 H338 0.930 . S
C278 C274 1.567 . S
C278 H339 0.961 . S
C278 H340 0.960 . S
C278 H341 0.958 . S
C279 C276 1.530 . S
C279 H342 0.961 . S
C279 H343 0.960 . S
C279 H344 0.960 . S
C280 C281 1.530 . S
C280 H346 0.961 . S
C280 H347 0.961 . S
C280 H348 0.959 . S
C281 C280 1.530 . S
C281 O309 1.412 . S
C281 H345 0.980 . S
C282 C283 1.288 . S
C282 C287 1.377 . S
C282 O309 1.393 . S
C283 C282 1.288 . S
C283 C284 1.369 . S
C283 H349 0.932 . S
C284 C283 1.369 . S
C284 C285 1.398 . S
C284 C288 1.527 . S
C285 C284 1.398 . S
C285 C286 1.380 . S
C285 C299 1.497 . S
C286 C285 1.380 . S
C286 C287 1.383 . S
C286 C289 1.603 . S
C287 C282 1.377 . S
C287 C286 1.383 . S
C287 H350 0.929 . S
C288 C284 1.527 . S
C288 H351 0.961 . S
C288 H352 0.959 . S
C288 H353 0.959 . S
C289 C286 1.603 . S
C289 H354 0.960 . S
C289 H355 0.962 . S
C289 H356 0.961 . S
C290 C257 1.587 . S
C290 C291 1.360 . S
C290 C303 1.412 . S
C291 C290 1.360 . S
C291 C292 1.365 . S
C291 H357 0.929 . S
C292 C267 1.553 . S
C292 C291 1.365 . S
C292 C293 1.404 . S
C293 C292 1.404 . S
C293 C294 1.395 . S
C293 C304 1.451 . S
C294 C293 1.395 . S
C294 C295 1.322 . S
C294 H358 0.930 . S
C295 C294 1.322 . S
C295 C296 1.459 . S
C295 H359 0.929 . S
C296 C295 1.459 . S
C296 C297 1.445 . S
C296 C305 1.395 . S
C297 C275 1.432 . S
C297 C296 1.445 . S
C297 C298 1.370 . S
C298 C297 1.370 . S
C298 C299 1.438 . S
C298 H360 0.930 . S
C299 C285 1.497 . S
C299 C298 1.438 . S
C299 C300 1.360 . S
C300 C299 1.360 . S
C300 C301 1.401 . S
C300 C305 1.446 . S
C301 C300 1.401 . S
C301 C302 1.347 . S
C301 H361 0.929 . S
C302 C301 1.347 . S
C302 C303 1.455 . S
C302 H362 0.930 . S
C303 C290 1.412 . S
C303 C302 1.455 . S
C303 C304 1.331 . S
C304 C293 1.451 . S
C304 C303 1.331 . S
C304 C305 1.497 . S
C305 C296 1.395 . S
C305 C300 1.446 . S
C305 C304 1.497 . S
C306 C307 1.582 . S
C306 H363 0.962 . S
C306 H364 0.959 . S
C306 H365 0.958 . S
C307 C306 1.582 . S
C307 O310 1.458 . S
C307 H336 0.980 . S
O308 C253 1.426 . S
O308 C254 1.334 . S
O309 C281 1.412 . S
O309 C282 1.393 . S
O310 C272 1.435 . S
O310 C307 1.458 . S
O311 C263 1.468 . S
O311 C264 1.408 . S
H312 C253 0.980 . S
H313 C252 0.959 . S
H314 C252 0.959 . S
H315 C252 0.960 . S
H316 C255 0.929 . S
H317 C259 0.929 . S
H318 C260 0.959 . S
H319 C260 0.961 . S
H320 C260 0.961 . S
H321 C261 0.960 . S
H322 C261 0.960 . S
H323 C261 0.961 . S
H324 C263 0.980 . S
H325 C262 0.961 . S
H326 C262 0.960 . S
H327 C262 0.959 . S
H328 C265 0.930 . S
H329 C269 0.931 . S
H330 C270 0.959 . S
H331 C270 0.961 . S
H332 C270 0.959 . S
H333 C271 0.960 . S
H334 C271 0.960 . S
H335 C271 0.960 . S
H336 C307 0.980 . S
H337 C273 0.930 . S
H338 C277 0.930 . S
H339 C278 0.961 . S
H340 C278 0.960 . S
H341 C278 0.958 . S
H342 C279 0.961 . S
H343 C279 0.960 . S
H344 C279 0.960 . S
H345 C281 0.980 . S
H346 C280 0.961 . S
H347 C280 0.961 . S
H348 C280 0.959 . S
H349 C283 0.932 . S
H350 C287 0.929 . S
H351 C288 0.961 . S
H352 C288 0.959 . S
H353 C288 0.959 . S
H354 C289 0.960 . S
H355 C289 0.962 . S
H356 C289 0.961 . S
H357 C291 0.929 . S
H358 C294 0.930 . S
H359 C295 0.929 . S
H360 C298 0.930 . S
H361 C301 0.929 . S
H362 C302 0.930 . S
H363 C306 0.962 . S
H364 C306 0.959 . S
H365 C306 0.958 . S
C366 C367 1.560 . S
C366 H427 0.959 . S
C366 H428 0.959 . S
C366 H429 0.960 . S
C367 C366 1.560 . S
C367 O422 1.426 . S
C367 H426 0.980 . S
C368 C369 1.407 . S
C368 C373 1.418 . S
C368 O422 1.334 . S
C369 C368 1.407 . S
C369 C370 1.360 . S
C369 H430 0.929 . S
C370 C369 1.360 . S
C370 C371 1.401 . S
C370 C374 1.527 . S
C371 C370 1.401 . S
C371 C372 1.405 . S
C371 C404 1.587 . S
C372 C371 1.405 . S
C372 C373 1.332 . S
C372 C375 1.496 . S
C373 C368 1.418 . S
C373 C372 1.332 . S
C373 H431 0.929 . S
C374 C370 1.527 . S
C374 H432 0.959 . S
C374 H433 0.961 . S
C374 H434 0.961 . S
C375 C372 1.496 . S
C375 H435 0.960 . S
C375 H436 0.960 . S
C375 H437 0.961 . S
C376 C377 1.517 . S
C376 H439 0.961 . S
C376 H440 0.960 . S
C376 H441 0.959 . S
C377 C376 1.517 . S
C377 O425 1.468 . S
C377 H438 0.980 . S
C378 C379 1.349 . S
C378 C383 1.367 . S
C378 O425 1.408 . S
C379 C378 1.349 . S
C379 C380 1.407 . S
C379 H442 0.930 . S
C380 C379 1.407 . S
C380 C381 1.449 . S
C380 C384 1.535 . S
C381 C380 1.449 . S
C381 C382 1.384 . S
C381 C406 1.553 . S
C382 C381 1.384 . S
C382 C383 1.364 . S
C382 C385 1.450 . S
C383 C378 1.367 . S
C383 C382 1.364 . S
C383 H443 0.931 . S
C384 C380 1.535 . S
C384 H444 0.959 . S
C384 H445 0.961 . S
C384 H446 0.959 . S
C385 C382 1.450 . S
C385 H447 0.960 . S
C385 H448 0.960 . S
C385 H449 0.960 . S
C386 C387 1.309 . S
C386 C391 1.304 . S
C386 O424 1.435 . S
C387 C386 1.309 . S
C387 C388 1.476 . S
C387 H451 0.930 . S
C388 C387 1.476 . S
C388 C389 1.400 . S
C388 C392 1.567 . S
C389 C388 1.400 . S
C389 C390 1.373 . S
C389 C411 1.432 . S
C390 C389 1.373 . S
C390 C391 1.339 . S
C390 C393 1.530 . S
C391 C386 1.304 . S
C391 C390 1.339 . S
C391 H452 0.930 . S
C392 C388 1.567 . S
C392 H453 0.961 . S
C392 H454 0.960 . S
C392 H455 0.958 . S
C393 C390 1.530 . S
C393 H456 0.961 . S
C393 H457 0.960 . S
C393 H458 0.960 . S
C394 C395 1.530 . S
C394 H460 0.961 . S
C394 H461 0.961 . S
C394 H462 0.959 . S
C395 C394 1.530 . S
C395 O423 1.412 . S
C395 H459 0.980 . S
C396 C397 1.288 . S
C396 C401 1.377 . S
C396 O423 1.393 . S
C397 C396 1.288 . S
C397 C398 1.369 . S
C397 H463 0.932 . S
C398 C397 1.369 . S
C398 C399 1.398 . S
C398 C402 1.527 . S
C399 C398 1.398 . S
C399 C400 1.380 . S
C399 C413 1.497 . S
C400 C399 1.380 . S
C400 C401 1.383 . S
C400 C403 1.603 . S
C401 C396 1.377 . S
C401 C400 1.383 . S
C401 H464 0.929 . S
C402 C398 1.527 . S
C402 H465 0.961 . S
C402 H466 0.959 . S
C402 H467 0.959 . S
C403 C400 1.603 . S
C403 H468 0.960 . S
C403 H469 0.962 . S
C403 H470 0.961 . S
C404 C371 1.587 . S
C404 C405 1.360 . S
C404 C417 1.412 . S
C405 C404 1.360 . S
C405 C406 1.365 . S
C405 H471 0.929 . S
C406 C381 1.553 . S
C406 C405 1.365 . S
C406 C407 1.404 . S
C407 C406 1.404 . S
C407 C408 1.395 . S
C407 C418 1.451 . S
C408 C407 1.395 . S
C408 C409 1.322 . S
C408 H472 0.930 . S
C409 C408 1.322 . S
C409 C410 1.459 . S
C409 H473 0.929 . S
C410 C409 1.459 . S
C410 C411 1.445 . S
C410 C419 1.395 . S
C411 C389 1.432 . S
C411 C410 1.445 . S
C411 C412 1.370 . S
C412 C411 1.370 . S
C412 C413 1.438 . S
C412 H474 0.930 . S
C413 C399 1.497 . S
C413 C412 1.438 . S
C413 C414 1.360 . S
C414 C413 1.360 . S
C414 C415 1.401 . S
C414 C419 1.446 . S
C415 C414 1.401 . S
C415 C416 1.347 . S
C415 H475 0.929 . S
C416 C415 1.347 . S
C416 C417 1.455 . S
C416 H476 0.930 . S
C417 C404 1.412 . S
C417 C416 1.455 . S
C417 C418 1.331 . S
C418 C407 1.451 . S
C418 C417 1.331 . S
C418 C419 1.497 . S
C419 C410 1.395 . S
C419 C414 1.446 . S
C419 C418 1.497 . S
C420 C421 1.582 . S
C420 H477 0.962 . S
C420 H478 0.959 . S
C420 H479 0.958 . S
C421 C420 1.582 . S
C421 O424 1.458 . S
C421 H450 0.980 . S
O422 C367 1.426 . S
O422 C368 1.334 . S
O423 C395 1.412 . S
O423 C396 1.393 . S
O424 C386 1.435 . S
O424 C421 1.458 . S
O425 C377 1.468 . S
O425 C378 1.408 . S
H426 C367 0.980 . S
H427 C366 0.959 . S
H428 C366 0.959 . S
H429 C366 0.960 . S
H430 C369 0.929 . S
H431 C373 0.929 . S
H432 C374 0.959 . S
H433 C374 0.961 . S
H434 C374 0.961 . S
H435 C375 0.960 . S
H436 C375 0.960 . S
H437 C375 0.961 . S
H438 C377 0.980 . S
H439 C376 0.961 . S
H440 C376 0.960 . S
H441 C376 0.959 . S
H442 C379 0.930 . S
H443 C383 0.931 . S
H444 C384 0.959 . S
H445 C384 0.961 . S
H446 C384 0.959 . S
H447 C385 0.960 . S
H448 C385 0.960 . S
H449 C385 0.960 . S
H450 C421 0.980 . S
H451 C387 0.930 . S
H452 C391 0.930 . S
H453 C392 0.961 . S
H454 C392 0.960 . S
H455 C392 0.958 . S
H456 C393 0.961 . S
H457 C393 0.960 . S
H458 C393 0.960 . S
H459 C395 0.980 . S
H460 C394 0.961 . S
H461 C394 0.961 . S
H462 C394 0.959 . S
H463 C397 0.932 . S
H464 C401 0.929 . S
H465 C402 0.961 . S
H466 C402 0.959 . S
H467 C402 0.959 . S
H468 C403 0.960 . S
H469 C403 0.962 . S
H470 C403 0.961 . S
H471 C405 0.929 . S
H472 C408 0.930 . S
H473 C409 0.929 . S
H474 C412 0.930 . S
H475 C415 0.929 . S
H476 C416 0.930 . S
H477 C420 0.962 . S
H478 C420 0.959 . S
H479 C420 0.958 . S
C480 C481 1.560 . S
C480 H541 0.959 . S
C480 H542 0.959 . S
C480 H543 0.960 . S
C481 C480 1.560 . S
C481 O536 1.426 . S
C481 H540 0.980 . S
C482 C483 1.407 . S
C482 C487 1.418 . S
C482 O536 1.334 . S
C483 C482 1.407 . S
C483 C484 1.360 . S
C483 H544 0.929 . S
C484 C483 1.360 . S
C484 C485 1.401 . S
C484 C488 1.527 . S
C485 C484 1.401 . S
C485 C486 1.405 . S
C485 C518 1.587 . S
C486 C485 1.405 . S
C486 C487 1.332 . S
C486 C489 1.496 . S
C487 C482 1.418 . S
C487 C486 1.332 . S
C487 H545 0.929 . S
C488 C484 1.527 . S
C488 H546 0.959 . S
C488 H547 0.961 . S
C488 H548 0.961 . S
C489 C486 1.496 . S
C489 H549 0.960 . S
C489 H550 0.960 . S
C489 H551 0.961 . S
C490 C491 1.517 . S
C490 H553 0.961 . S
C490 H554 0.960 . S
C490 H555 0.959 . S
C491 C490 1.517 . S
C491 O539 1.468 . S
C491 H552 0.980 . S
C492 C493 1.349 . S
C492 C497 1.367 . S
C492 O539 1.408 . S
C493 C492 1.349 . S
C493 C494 1.407 . S
C493 H556 0.930 . S
C494 C493 1.407 . S
C494 C495 1.449 . S
C494 C498 1.535 . S
C495 C494 1.449 . S
C495 C496 1.384 . S
C495 C520 1.553 . S
C496 C495 1.384 . S
C496 C497 1.364 . S
C496 C499 1.450 . S
C497 C492 1.367 . S
C497 C496 1.364 . S
C497 H557 0.931 . S
C498 C494 1.535 . S
C498 H558 0.959 . S
C498 H559 0.961 . S
C498 H560 0.959 . S
C499 C496 1.450 . S
C499 H561 0.960 . S
C499 H562 0.960 . S
C499 H563 0.960 . S
C500 C501 1.309 . S
C500 C505 1.304 . S
C500 O538 1.435 . S
C501 C500 1.309 . S
C501 C502 1.476 . S
C501 H565 0.930 . S
C502 C501 1.476 . S
C502 C503 1.400 . S
C502 C506 1.567 . S
C503 C502 1.400 . S
C503 C504 1.373 . S
C503 C525 1.432 . S
C504 C503 1.373 . S
C504 C505 1.339 . S
C504 C507 1.530 . S
C505 C500 1.304 . S
C505 C504 1.339 . S
C505 H566 0.930 . S
C506 C502 1.567 . S
C506 H567 0.961 . S
C506 H568 0.960 . S
C506 H569 0.958 . S
C507 C504 1.530 . S
C507 H570 0.961 . S
C507 H571 0.960 . S
C507 H572 0.960 . S
C508 C509 1.530 . S
C508 H574 0.961 . S
C508 H575 0.961 . S
C508 H576 0.959 . S
C509 C508 1.530 . S
C509 O537 1.412 . S
C509 H573 0.980 . S
C510 C511 1.288 . S
C510 C515 1.377 . S
C510 O537 1.393 . S
C511 C510 1.288 . S
C511 C512 1.369 . S
C511 H577 0.932 . S
C512 C511 1.369 . S
C512 C513 1.398 . S
C512 C516 1.527 . S
C513 C512 1.398 . S
C513 C514 1.380 . S
C513 C527 1.497 . S
C514 C513 1.380 . S
C514 C515 1.383 . S
C514 C517 1.603 . S
C515 C510 1.377 . S
C515 C514 1.383 . S
C515 H578 0.929 . S
C516 C512 1.527 . S
C516 H579 0.961 . S
C516 H580 0.959 . S
C516 H581 0.959 . S
C517 C514 1.603 . S
C517 H582 0.960 . S
C517 H583 0.962 . S
C517 H584 0.961 . S
C518 C485 1.587 . S
C518 C519 1.360 . S
C518 C531 1.412 . S
C519 C518 1.360 . S
C519 C520 1.365 . S
C519 H585 0.929 . S
C520 C495 1.553 . S
C520 C519 1.365 . S
C520 C521 1.404 . S
C521 C520 1.404 . S
C521 C522 1.395 . S
C521 C532 1.451 . S
C522 C521 1.395 . S
C522 C523 1.322 . S
C522 H586 0.930 . S
C523 C522 1.322 . S
C523 C524 1.459 . S
C523 H587 0.929 . S
C524 C523 1.459 . S
C524 C525 1.445 . S
C524 C533 1.395 . S
C525 C503 1.432 . S
C525 C524 1.445 . S
C525 C526 1.370 . S
C526 C525 1.370 . S
C526 C527 1.438 . S
C526 H588 0.930 . S
C527 C513 1.497 . S
C527 C526 1.438 . S
C527 C528 1.360 . S
C528 C527 1.360 . S
C528 C529 1.401 . S
C528 C533 1.446 . S
C529 C528 1.401 . S
C529 C530 1.347 . S
C529 H589 0.929 . S
C530 C529 1.347 . S
C530 C531 1.455 . S
C530 H590 0.930 . S
C531 C518 1.412 . S
C531 C530 1.455 . S
C531 C532 1.331 . S
C532 C521 1.451 . S
C532 C531 1.331 . S
C532 C533 1.497 . S
C533 C524 1.395 . S
C533 C528 1.446 . S
C533 C532 1.497 . S
C534 C535 1.582 . S
C534 H591 0.962 . S
C534 H592 0.959 . S
C534 H593 0.958 . S
C535 C534 1.582 . S
C535 O538 1.458 . S
C535 H564 0.980 . S
O536 C481 1.426 . S
O536 C482 1.334 . S
O537 C509 1.412 . S
O537 C510 1.393 . S
O538 C500 1.435 . S
O538 C535 1.458 . S
O539 C491 1.468 . S
O539 C492 1.408 . S
H540 C481 0.980 . S
H541 C480 0.959 . S
H542 C480 0.959 . S
H543 C480 0.960 . S
H544 C483 0.929 . S
H545 C487 0.929 . S
H546 C488 0.959 . S
H547 C488 0.961 . S
H548 C488 0.961 . S
H549 C489 0.960 . S
H550 C489 0.960 . S
H551 C489 0.961 . S
H552 C491 0.980 . S
H553 C490 0.961 . S
H554 C490 0.960 . S
H555 C490 0.959 . S
H556 C493 0.930 . S
H557 C497 0.931 . S
H558 C498 0.959 . S
H559 C498 0.961 . S
H560 C498 0.959 . S
H561 C499 0.960 . S
H562 C499 0.960 . S
H563 C499 0.960 . S
H564 C535 0.980 . S
H565 C501 0.930 . S
H566 C505 0.930 . S
H567 C506 0.961 . S
H568 C506 0.960 . S
H569 C506 0.958 . S
H570 C507 0.961 . S
H571 C507 0.960 . S
H572 C507 0.960 . S
H573 C509 0.980 . S
H574 C508 0.961 . S
H575 C508 0.961 . S
H576 C508 0.959 . S
H577 C511 0.932 . S
H578 C515 0.929 . S
H579 C516 0.961 . S
H580 C516 0.959 . S
H581 C516 0.959 . S
H582 C517 0.960 . S
H583 C517 0.962 . S
H584 C517 0.961 . S
H585 C519 0.929 . S
H586 C522 0.930 . S
H587 C523 0.929 . S
H588 C526 0.930 . S
H589 C529 0.929 . S
H590 C530 0.930 . S
H591 C534 0.962 . S
H592 C534 0.959 . S
H593 C534 0.958 . S
C594 C595 1.560 . S
C594 H655 0.959 . S
C594 H656 0.959 . S
C594 H657 0.960 . S
C595 C594 1.560 . S
C595 O650 1.426 . S
C595 H654 0.980 . S
C596 C597 1.407 . S
C596 C601 1.418 . S
C596 O650 1.334 . S
C597 C596 1.407 . S
C597 C598 1.360 . S
C597 H658 0.929 . S
C598 C597 1.360 . S
C598 C599 1.401 . S
C598 C602 1.527 . S
C599 C598 1.401 . S
C599 C600 1.405 . S
C599 C632 1.587 . S
C600 C599 1.405 . S
C600 C601 1.332 . S
C600 C603 1.496 . S
C601 C596 1.418 . S
C601 C600 1.332 . S
C601 H659 0.929 . S
C602 C598 1.527 . S
C602 H660 0.959 . S
C602 H661 0.961 . S
C602 H662 0.961 . S
C603 C600 1.496 . S
C603 H663 0.960 . S
C603 H664 0.960 . S
C603 H665 0.961 . S
C604 C605 1.517 . S
C604 H667 0.961 . S
C604 H668 0.960 . S
C604 H669 0.959 . S
C605 C604 1.517 . S
C605 O653 1.468 . S
C605 H666 0.980 . S
C606 C607 1.349 . S
C606 C611 1.367 . S
C606 O653 1.408 . S
C607 C606 1.349 . S
C607 C608 1.407 . S
C607 H670 0.930 . S
C608 C607 1.407 . S
C608 C609 1.449 . S
C608 C612 1.535 . S
C609 C608 1.449 . S
C609 C610 1.384 . S
C609 C634 1.553 . S
C610 C609 1.384 . S
C610 C611 1.364 . S
C610 C613 1.450 . S
C611 C606 1.367 . S
C611 C610 1.364 . S
C611 H671 0.931 . S
C612 C608 1.535 . S
C612 H672 0.959 . S
C612 H673 0.961 . S
C612 H674 0.959 . S
C613 C610 1.450 . S
C613 H675 0.960 . S
C613 H676 0.960 . S
C613 H677 0.960 . S
C614 C615 1.309 . S
C614 C619 1.304 . S
C614 O652 1.435 . S
C615 C614 1.309 . S
C615 C616 1.476 . S
C615 H679 0.930 . S
C616 C615 1.476 . S
C616 C617 1.400 . S
C616 C620 1.567 . S
C617 C616 1.400 . S
C617 C618 1.373 . S
C617 C639 1.432 . S
C618 C617 1.373 . S
C618 C619 1.339 . S
C618 C621 1.530 . S
C619 C614 1.304 . S
C619 C618 1.339 . S
C619 H680 0.930 . S
C620 C616 1.567 . S
C620 H681 0.961 . S
C620 H682 0.960 . S
C620 H683 0.958 . S
C621 C618 1.530 . S
C621 H684 0.961 . S
C621 H685 0.960 . S
C621 H686 0.960 . S
C622 C623 1.530 . S
C622 H688 0.961 . S
C622 H689 0.961 . S
C622 H690 0.959 . S
C623 C622 1.530 . S
C623 O651 1.412 . S
C623 H687 0.980 . S
C624 C625 1.288 . S
C624 C629 1.377 . S
C624 O651 1.393 . S
C625 C624 1.288 . S
C625 C626 1.369 . S
C625 H691 0.932 . S
C626 C625 1.369 . S
C626 C627 1.398 . S
C626 C630 1.527 . S
C627 C626 1.398 . S
C627 C628 1.380 . S
C627 C641 1.497 . S
C628 C627 1.380 . S
C628 C629 1.383 . S
C628 C631 1.603 . S
C629 C624 1.377 . S
C629 C628 1.383 . S
C629 H692 0.929 . S
C630 C626 1.527 . S
C630 H693 0.961 . S
C630 H694 0.959 . S
C630 H695 0.959 . S
C631 C628 1.603 . S
C631 H696 0.960 . S
C631 H697 0.962 . S
C631 H698 0.961 . S
C632 C599 1.587 . S
C632 C633 1.360 . S
C632 C645 1.412 . S
C633 C632 1.360 . S
C633 C634 1.365 . S
C633 H699 0.929 . S
C634 C609 1.553 . S
C634 C633 1.365 . S
C634 C635 1.404 . S
C635 C634 1.404 . S
C635 C636 1.395 . S
C635 C646 1.451 . S
C636 C635 1.395 . S
C636 C637 1.322 . S
C636 H700 0.930 . S
C637 C636 1.322 . S
C637 C638 1.459 . S
C637 H701 0.929 . S
C638 C637 1.459 . S
C638 C639 1.445 . S
C638 C647 1.395 . S
C639 C617 1.432 . S
C639 C638 1.445 . S
C639 C640 1.370 . S
C640 C639 1.370 . S
C640 C641 1.438 . S
C640 H702 0.930 . S
C641 C627 1.497 . S
C641 C640 1.438 . S
C641 C642 1.360 . S
C642 C641 1.360 . S
C642 C643 1.401 . S
C642 C647 1.446 . S
C643 C642 1.401 . S
C643 C644 1.347 . S
C643 H703 0.929 . S
C644 C643 1.347 . S
C644 C645 1.455 . S
C644 H704 0.930 . S
C645 C632 1.412 . S
C645 C644 1.455 . S
C645 C646 1.331 . S
C646 C635 1.451 . S
C646 C645 1.331 . S
C646 C647 1.497 . S
C647 C638 1.395 . S
C647 C642 1.446 . S
C647 C646 1.497 . S
C648 C649 1.582 . S
C648 H705 0.962 . S
C648 H706 0.959 . S
C648 H707 0.958 . S
C649 C648 1.582 . S
C649 O652 1.458 . S
C649 H678 0.980 . S
O650 C595 1.426 . S
O650 C596 1.334 . S
O651 C623 1.412 . S
O651 C624 1.393 . S
O652 C614 1.435 . S
O652 C649 1.458 . S
O653 C605 1.468 . S
O653 C606 1.408 . S
H654 C595 0.980 . S
H655 C594 0.959 . S
H656 C594 0.959 . S
H657 C594 0.960 . S
H658 C597 0.929 . S
H659 C601 0.929 . S
H660 C602 0.959 . S
H661 C602 0.961 . S
H662 C602 0.961 . S
H663 C603 0.960 . S
H664 C603 0.960 . S
H665 C603 0.961 . S
H666 C605 0.980 . S
H667 C604 0.961 . S
H668 C604 0.960 . S
H669 C604 0.959 . S
H670 C607 0.930 . S
H671 C611 0.931 . S
H672 C612 0.959 . S
H673 C612 0.961 . S
H674 C612 0.959 . S
H675 C613 0.960 . S
H676 C613 0.960 . S
H677 C613 0.960 . S
H678 C649 0.980 . S
H679 C615 0.930 . S
H680 C619 0.930 . S
H681 C620 0.961 . S
H682 C620 0.960 . S
H683 C620 0.958 . S
H684 C621 0.961 . S
H685 C621 0.960 . S
H686 C621 0.960 . S
H687 C623 0.980 . S
H688 C622 0.961 . S
H689 C622 0.961 . S
H690 C622 0.959 . S
H691 C625 0.932 . S
H692 C629 0.929 . S
H693 C630 0.961 . S
H694 C630 0.959 . S
H695 C630 0.959 . S
H696 C631 0.960 . S
H697 C631 0.962 . S
H698 C631 0.961 . S
H699 C633 0.929 . S
H700 C636 0.930 . S
H701 C637 0.929 . S
H702 C640 0.930 . S
H703 C643 0.929 . S
H704 C644 0.930 . S
H705 C648 0.962 . S
H706 C648 0.959 . S
H707 C648 0.958 . S
C708 C709 1.560 . S
C708 H769 0.959 . S
C708 H770 0.959 . S
C708 H771 0.960 . S
C709 C708 1.560 . S
C709 O764 1.426 . S
C709 H768 0.980 . S
C710 C711 1.407 . S
C710 C715 1.418 . S
C710 O764 1.334 . S
C711 C710 1.407 . S
C711 C712 1.360 . S
C711 H772 0.929 . S
C712 C711 1.360 . S
C712 C713 1.401 . S
C712 C716 1.527 . S
C713 C712 1.401 . S
C713 C714 1.405 . S
C713 C746 1.587 . S
C714 C713 1.405 . S
C714 C715 1.332 . S
C714 C717 1.496 . S
C715 C710 1.418 . S
C715 C714 1.332 . S
C715 H773 0.929 . S
C716 C712 1.527 . S
C716 H774 0.959 . S
C716 H775 0.961 . S
C716 H776 0.961 . S
C717 C714 1.496 . S
C717 H777 0.960 . S
C717 H778 0.960 . S
C717 H779 0.961 . S
C718 C719 1.517 . S
C718 H781 0.961 . S
C718 H782 0.960 . S
C718 H783 0.959 . S
C719 C718 1.517 . S
C719 O767 1.468 . S
C719 H780 0.980 . S
C720 C721 1.349 . S
C720 C725 1.367 . S
C720 O767 1.408 . S
C721 C720 1.349 . S
C721 C722 1.407 . S
C721 H784 0.930 . S
C722 C721 1.407 . S
C722 C723 1.449 . S
C722 C726 1.535 . S
C723 C722 1.449 . S
C723 C724 1.384 . S
C723 C748 1.553 . S
C724 C723 1.384 . S
C724 C725 1.364 . S
C724 C727 1.450 . S
C725 C720 1.367 . S
C725 C724 1.364 . S
C725 H785 0.931 . S
C726 C722 1.535 . S
C726 H786 0.959 . S
C726 H787 0.961 . S
C726 H788 0.959 . S
C727 C724 1.450 . S
C727 H789 0.960 . S
C727 H790 0.960 . S
C727 H791 0.960 . S
C728 C729 1.309 . S
C728 C733 1.304 . S
C728 O766 1.435 . S
C729 C728 1.309 . S
C729 C730 1.476 . S
C729 H793 0.930 . S
C730 C729 1.476 . S
C730 C731 1.400 . S
C730 C734 1.567 . S
C731 C730 1.400 . S
C731 C732 1.373 . S
C731 C753 1.432 . S
C732 C731 1.373 . S
C732 C733 1.339 . S
C732 C735 1.530 . S
C733 C728 1.304 . S
C733 C732 1.339 . S
C733 H794 0.930 . S
C734 C730 1.567 . S
C734 H795 0.961 . S
C734 H796 0.960 . S
C734 H797 0.958 . S
C735 C732 1.530 . S
C735 H798 0.961 . S
C735 H799 0.960 . S
C735 H800 0.960 . S
C736 C737 1.530 . S
C736 H802 0.961 . S
C736 H803 0.961 . S
C736 H804 0.959 . S
C737 C736 1.530 . S
C737 O765 1.412 . S
C737 H801 0.980 . S
C738 C739 1.288 . S
C738 C743 1.377 . S
C738 O765 1.393 . S
C739 C738 1.288 . S
C739 C740 1.369 . S
C739 H805 0.932 . S
C740 C739 1.369 . S
C740 C741 1.398 . S
C740 C744 1.527 . S
C741 C740 1.398 . S
C741 C742 1.380 . S
C741 C755 1.497 . S
C742 C741 1.380 . S
C742 C743 1.383 . S
C742 C745 1.603 . S
C743 C738 1.377 . S
C743 C742 1.383 . S
C743 H806 0.929 . S
C744 C740 1.527 . S
C744 H807 0.961 . S
C744 H808 0.959 . S
C744 H809 0.959 . S
C745 C742 1.603 . S
C745 H810 0.960 . S
C745 H811 0.962 . S
C745 H812 0.961 . S
C746 C713 1.587 . S
C746 C747 1.360 . S
C746 C759 1.412 . S
C747 C746 1.360 . S
C747 C748 1.365 . S
C747 H813 0.929 . S
C748 C723 1.553 . S
C748 C747 1.365 . S
C748 C749 1.404 . S
C749 C748 1.404 . S
C749 C750 1.395 . S
C749 C760 1.451 . S
C750 C749 1.395 . S
C750 C751 1.322 . S
C750 H814 0.930 . S
C751 C750 1.322 . S
C751 C752 1.459 . S
C751 H815 0.929 . S
C752 C751 1.459 . S
C752 C753 1.445 . S
C752 C761 1.395 . S
C753 C731 1.432 . S
C753 C752 1.445 . S
C753 C754 1.370 . S
C754 C753 1.370 . S
C754 C755 1.438 . S
C754 H816 0.930 . S
C755 C741 1.497 . S
C755 C754 1.438 . S
C755 C756 1.360 . S
C756 C755 1.360 . S
C756 C757 1.401 . S
C756 C761 1.446 . S
C757 C756 1.401 . S
C757 C758 1.347 . S
C757 H817 0.929 . S
C758 C757 1.347 . S
C758 C759 1.455 . S
C758 H818 0.930 . S
C759 C746 1.412 . S
C759 C758 1.455 . S
C759 C760 1.331 . S
C760 C749 1.451 . S
C760 C759 1.331 . S
C760 C761 1.497 . S
C761 C752 1.395 . S
C761 C756 1.446 . S
C761 C760 1.497 . S
C762 C763 1.582 . S
C762 H819 0.962 . S
C762 H820 0.959 . S
C762 H821 0.958 . S
C763 C762 1.582 . S
C763 O766 1.458 . S
C763 H792 0.980 . S
O764 C709 1.426 . S
O764 C710 1.334 . S
O765 C737 1.412 . S
O765 C738 1.393 . S
O766 C728 1.435 . S
O766 C763 1.458 . S
O767 C719 1.468 . S
O767 C720 1.408 . S
H768 C709 0.980 . S
H769 C708 0.959 . S
H770 C708 0.959 . S
H771 C708 0.960 . S
H772 C711 0.929 . S
H773 C715 0.929 . S
H774 C716 0.959 . S
H775 C716 0.961 . S
H776 C716 0.961 . S
H777 C717 0.960 . S
H778 C717 0.960 . S
H779 C717 0.961 . S
H780 C719 0.980 . S
H781 C718 0.961 . S
H782 C718 0.960 . S
H783 C718 0.959 . S
H784 C721 0.930 . S
H785 C725 0.931 . S
H786 C726 0.959 . S
H787 C726 0.961 . S
H788 C726 0.959 . S
H789 C727 0.960 . S
H790 C727 0.960 . S
H791 C727 0.960 . S
H792 C763 0.980 . S
H793 C729 0.930 . S
H794 C733 0.930 . S
H795 C734 0.961 . S
H796 C734 0.960 . S
H797 C734 0.958 . S
H798 C735 0.961 . S
H799 C735 0.960 . S
H800 C735 0.960 . S
H801 C737 0.980 . S
H802 C736 0.961 . S
H803 C736 0.961 . S
H804 C736 0.959 . S
H805 C739 0.932 . S
H806 C743 0.929 . S
H807 C744 0.961 . S
H808 C744 0.959 . S
H809 C744 0.959 . S
H810 C745 0.960 . S
H811 C745 0.962 . S
H812 C745 0.961 . S
H813 C747 0.929 . S
H814 C750 0.930 . S
H815 C751 0.929 . S
H816 C754 0.930 . S
H817 C757 0.929 . S
H818 C758 0.930 . S
H819 C762 0.962 . S
H820 C762 0.959 . S
H821 C762 0.958 . S
C822 C823 1.560 . S
C822 H883 0.959 . S
C822 H884 0.959 . S
C822 H885 0.960 . S
C823 C822 1.560 . S
C823 O878 1.426 . S
C823 H882 0.980 . S
C824 C825 1.407 . S
C824 C829 1.418 . S
C824 O878 1.334 . S
C825 C824 1.407 . S
C825 C826 1.360 . S
C825 H886 0.929 . S
C826 C825 1.360 . S
C826 C827 1.401 . S
C826 C830 1.527 . S
C827 C826 1.401 . S
C827 C828 1.405 . S
C827 C860 1.587 . S
C828 C827 1.405 . S
C828 C829 1.332 . S
C828 C831 1.496 . S
C829 C824 1.418 . S
C829 C828 1.332 . S
C829 H887 0.929 . S
C830 C826 1.527 . S
C830 H888 0.959 . S
C830 H889 0.961 . S
C830 H890 0.961 . S
C831 C828 1.496 . S
C831 H891 0.960 . S
C831 H892 0.960 . S
C831 H893 0.961 . S
C832 C833 1.517 . S
C832 H895 0.961 . S
C832 H896 0.960 . S
C832 H897 0.959 . S
C833 C832 1.517 . S
C833 O881 1.468 . S
C833 H894 0.980 . S
C834 C835 1.349 . S
C834 C839 1.367 . S
C834 O881 1.408 . S
C835 C834 1.349 . S
C835 C836 1.407 . S
C835 H898 0.930 . S
C836 C835 1.407 . S
C836 C837 1.449 . S
C836 C840 1.535 . S
C837 C836 1.449 . S
C837 C838 1.384 . S
C837 C862 1.553 . S
C838 C837 1.384 . S
C838 C839 1.364 . S
C838 C841 1.450 . S
C839 C834 1.367 . S
C839 C838 1.364 . S
C839 H899 0.931 . S
C840 C836 1.535 . S
C840 H900 0.959 . S
C840 H901 0.961 . S
C840 H902 0.959 . S
C841 C838 1.450 . S
C841 H903 0.960 . S
C841 H904 0.960 . S
C841 H905 0.960 . S
C842 C843 1.309 . S
C842 C847 1.304 . S
C842 O880 1.435 . S
C843 C842 1.309 . S
C843 C844 1.476 . S
C843 H907 0.930 . S
C844 C843 1.476 . S
C844 C845 1.400 . S
C844 C848 1.567 . S
C845 C844 1.400 . S
C845 C846 1.373 . S
C845 C867 1.432 . S
C846 C845 1.373 . S
C846 C847 1.339 . S
C846 C849 1.530 . S
C847 C842 1.304 . S
C847 C846 1.339 . S
C847 H908 0.930 . S
C848 C844 1.567 . S
C848 H909 0.961 . S
C848 H910 0.960 . S
C848 H911 0.958 . S
C849 C846 1.530 . S
C849 H912 0.961 . S
C849 H913 0.960 . S
C849 H914 0.960 . S
C850 C851 1.530 . S
C850 H916 0.961 . S
C850 H917 0.961 . S
C850 H918 0.959 . S
C851 C850 1.530 . S
C851 O879 1.412 . S
C851 H915 0.980 . S
C852 C853 1.288 . S
C852 C857 1.377 . S
C852 O879 1.393 . S
C853 C852 1.288 . S
C853 C854 1.369 . S
C853 H919 0.932 . S
C854 C853 1.369 . S
C854 C855 1.398 . S
C854 C858 1.527 . S
C855 C854 1.398 . S
C855 C856 1.380 . S
C855 C869 1.497 . S
C856 C855 1.380 . S
C856 C857 1.383 . S
C856 C859 1.603 . S
C857 C852 1.377 . S
C857 C856 1.383 . S
C857 H920 0.929 . S
C858 C854 1.527 . S
C858 H921 0.961 . S
C858 H922 0.959 . S
C858 H923 0.959 . S
C859 C856 1.603 . S
C859 H924 0.960 . S
C859 H925 0.962 . S
C859 H926 0.961 . S
C860 C827 1.587 . S
C860 C861 1.360 . S
C860 C873 1.412 . S
C861 C860 1.360 . S
C861 C862 1.365 . S
C861 H927 0.929 . S
C862 C837 1.553 . S
C862 C861 1.365 . S
C862 C863 1.404 . S
C863 C862 1.404 . S
C863 C864 1.395 . S
C863 C874 1.451 . S
C864 C863 1.395 . S
C864 C865 1.322 . S
C864 H928 0.930 . S
C865 C864 1.322 . S
C865 C866 1.459 . S
C865 H929 0.929 . S
C866 C865 1.459 . S
C866 C867 1.445 . S
C866 C875 1.395 . S
C867 C845 1.432 . S
C867 C866 1.445 . S
C867 C868 1.370 . S
C868 C867 1.370 . S
C868 C869 1.438 . S
C868 H930 0.930 . S
C869 C855 1.497 . S
C869 C868 1.438 . S
C869 C870 1.360 . S
C870 C869 1.360 . S
C870 C871 1.401 . S
C870 C875 1.446 . S
C871 C870 1.401 . S
C871 C872 1.347 . S
C871 H931 0.929 . S
C872 C871 1.347 . S
C872 C873 1.455 . S
C872 H932 0.930 . S
C873 C860 1.412 . S
C873 C872 1.455 . S
C873 C874 1.331 . S
C874 C863 1.451 . S
C874 C873 1.331 . S
C874 C875 1.497 . S
C875 C866 1.395 . S
C875 C870 1.446 . S
C875 C874 1.497 . S
C876 C877 1.582 . S
C876 H933 0.962 . S
C876 H934 0.959 . S
C876 H935 0.958 . S
C877 C876 1.582 . S
C877 O880 1.458 . S
C877 H906 0.980 . S
O878 C823 1.426 . S
O878 C824 1.334 . S
O879 C851 1.412 . S
O879 C852 1.393 . S
O880 C842 1.435 . S
O880 C877 1.458 . S
O881 C833 1.468 . S
O881 C834 1.408 . S
H882 C823 0.980 . S
H883 C822 0.959 . S
H884 C822 0.959 . S
H885 C822 0.960 . S
H886 C825 0.929 . S
H887 C829 0.929 . S
H888 C830 0.959 . S
H889 C830 0.961 . S
H890 C830 0.961 . S
H891 C831 0.960 . S
H892 C831 0.960 . S
H893 C831 0.961 . S
H894 C833 0.980 . S
H895 C832 0.961 . S
H896 C832 0.960 . S
H897 C832 0.959 . S
H898 C835 0.930 . S
H899 C839 0.931 . S
H900 C840 0.959 . S
H901 C840 0.961 . S
H902 C840 0.959 . S
H903 C841 0.960 . S
H904 C841 0.960 . S
H905 C841 0.960 . S
H906 C877 0.980 . S
H907 C843 0.930 . S
H908 C847 0.930 . S
H909 C848 0.961 . S
H910 C848 0.960 . S
H911 C848 0.958 . S
H912 C849 0.961 . S
H913 C849 0.960 . S
H914 C849 0.960 . S
H915 C851 0.980 . S
H916 C850 0.961 . S
H917 C850 0.961 . S
H918 C850 0.959 . S
H919 C853 0.932 . S
H920 C857 0.929 . S
H921 C858 0.961 . S
H922 C858 0.959 . S
H923 C858 0.959 . S
H924 C859 0.960 . S
H925 C859 0.962 . S
H926 C859 0.961 . S
H927 C861 0.929 . S
H928 C864 0.930 . S
H929 C865 0.929 . S
H930 C868 0.930 . S
H931 C871 0.929 . S
H932 C872 0.930 . S
H933 C876 0.962 . S
H934 C876 0.959 . S
H935 C876 0.958 . S
C936 C937 1.560 . S
C936 H997 0.959 . S
C936 H998 0.959 . S
C936 H999 0.960 . S
C937 C936 1.560 . S
C937 O992 1.426 . S
C937 H996 0.980 . S
C938 C939 1.407 . S
C938 C943 1.418 . S
C938 O992 1.334 . S
C939 C938 1.407 . S
C939 C940 1.360 . S
C939 H1000 0.929 . S
C940 C939 1.360 . S
C940 C941 1.401 . S
C940 C944 1.527 . S
C941 C940 1.401 . S
C941 C942 1.405 . S
C941 C974 1.587 . S
C942 C941 1.405 . S
C942 C943 1.332 . S
C942 C945 1.496 . S
C943 C938 1.418 . S
C943 C942 1.332 . S
C943 H1001 0.929 . S
C944 C940 1.527 . S
C944 H1002 0.959 . S
C944 H1003 0.961 . S
C944 H1004 0.961 . S
C945 C942 1.496 . S
C945 H1005 0.960 . S
C945 H1006 0.960 . S
C945 H1007 0.961 . S
C946 C947 1.517 . S
C946 H1009 0.961 . S
C946 H1010 0.960 . S
C946 H1011 0.959 . S
C947 C946 1.517 . S
C947 O995 1.468 . S
C947 H1008 0.980 . S
C948 C949 1.349 . S
C948 C953 1.367 . S
C948 O995 1.408 . S
C949 C948 1.349 . S
C949 C950 1.407 . S
C949 H1012 0.930 . S
C950 C949 1.407 . S
C950 C951 1.449 . S
C950 C954 1.535 . S
C951 C950 1.449 . S
C951 C952 1.384 . S
C951 C976 1.553 . S
C952 C951 1.384 . S
C952 C953 1.364 . S
C952 C955 1.450 . S
C953 C948 1.367 . S
C953 C952 1.364 . S
C953 H1013 0.931 . S
C954 C950 1.535 . S
C954 H1014 0.959 . S
C954 H1015 0.961 . S
C954 H1016 0.959 . S
C955 C952 1.450 . S
C955 H1017 0.960 . S
C955 H1018 0.960 . S
C955 H1019 0.960 . S
C956 C957 1.309 . S
C956 C961 1.304 . S
C956 O994 1.435 . S
C957 C956 1.309 . S
C957 C958 1.476 . S
C957 H1021 0.930 . S
C958 C957 1.476 . S
C958 C959 1.400 . S
C958 C962 1.567 . S
C959 C958 1.400 . S
C959 C960 1.373 . S
C959 C981 1.432 . S
C960 C959 1.373 . S
C960 C961 1.339 . S
C960 C963 1.530 . S
C961 C956 1.304 . S
C961 C960 1.339 . S
C961 H1022 0.930 . S
C962 C958 1.567 . S
C962 H1023 0.961 . S
C962 H1024 0.960 . S
C962 H1025 0.958 . S
C963 C960 1.530 . S
C963 H1026 0.961 . S
C963 H1027 0.960 . S
C963 H1028 0.960 . S
C964 C965 1.530 . S
C964 H1030 0.961 . S
C964 H1031 0.961 . S
C964 H1032 0.959 . S
C965 C964 1.530 . S
C965 O993 1.412 . S
C965 H1029 0.980 . S
C966 C967 1.288 . S
C966 C971 1.377 . S
C966 O993 1.393 . S
C967 C966 1.288 . S
C967 C968 1.369 . S
C967 H1033 0.932 . S
C968 C967 1.369 . S
C968 C969 1.398 . S
C968 C972 1.527 . S
C969 C968 1.398 . S
C969 C970 1.380 . S
C969 C983 1.497 . S
C970 C969 1.380 . S
C970 C971 1.383 . S
C970 C973 1.603 . S
C971 C966 1.377 . S
C971 C970 1.383 . S
C971 H1034 0.929 . S
C972 C968 1.527 . S
C972 H1035 0.961 . S
C972 H1036 0.959 . S
C972 H1037 0.959 . S
C973 C970 1.603 . S
C973 H1038 0.960 . S
C973 H1039 0.962 . S
C973 H1040 0.961 . S
C974 C941 1.587 . S
C974 C975 1.360 . S
C974 C987 1.412 . S
C975 C974 1.360 . S
C975 C976 1.365 . S
C975 H1041 0.929 . S
C976 C951 1.553 . S
C976 C975 1.365 . S
C976 C977 1.404 . S
C977 C976 1.404 . S
C977 C978 1.395 . S
C977 C988 1.451 . S
C978 C977 1.395 . S
C978 C979 1.322 . S
C978 H1042 0.930 . S
C979 C978 1.322 . S
C979 C980 1.459 . S
C979 H1043 0.929 . S
C980 C979 1.459 . S
C980 C981 1.445 . S
C980 C989 1.395 . S
C981 C959 1.432 . S
C981 C980 1.445 . S
C981 C982 1.370 . S
C982 C981 1.370 . S
C982 C983 1.438 . S
C982 H1044 0.930 . S
C983 C969 1.497 . S
C983 C982 1.438 . S
C983 C984 1.360 . S
C984 C983 1.360 . S
C984 C985 1.401 . S
C984 C989 1.446 . S
C985 C984 1.401 . S
C985 C986 1.347 . S
C985 H1045 0.929 . S
C986 C985 1.347 . S
C986 C987 1.455 . S
C986 H1046 0.930 . S
C987 C974 1.412 . S
C987 C986 1.455 . S
C987 C988 1.331 . S
C988 C977 1.451 . S
C988 C987 1.331 . S
C988 C989 1.497 . S
C989 C980 1.395 . S
C989 C984 1.446 . S
C989 C988 1.497 . S
C990 C991 1.582 . S
C990 H1047 0.962 . S
C990 H1048 0.959 . S
C990 H1049 0.958 . S
C991 C990 1.582 . S
C991 O994 1.458 . S
C991 H1020 0.980 . S
O992 C937 1.426 . S
O992 C938 1.334 . S
O993 C965 1.412 . S
O993 C966 1.393 . S
O994 C956 1.435 . S
O994 C991 1.458 . S
O995 C947 1.468 . S
O995 C948 1.408 . S
H996 C937 0.980 . S
H997 C936 0.959 . S
H998 C936 0.959 . S
H999 C936 0.960 . S
H1000 C939 0.929 . S
H1001 C943 0.929 . S
H1002 C944 0.959 . S
H1003 C944 0.961 . S
H1004 C944 0.961 . S
H1005 C945 0.960 . S
H1006 C945 0.960 . S
H1007 C945 0.961 . S
H1008 C947 0.980 . S
H1009 C946 0.961 . S
H1010 C946 0.960 . S
H1011 C946 0.959 . S
H1012 C949 0.930 . S
H1013 C953 0.931 . S
H1014 C954 0.959 . S
H1015 C954 0.961 . S
H1016 C954 0.959 . S
H1017 C955 0.960 . S
H1018 C955 0.960 . S
H1019 C955 0.960 . S
H1020 C991 0.980 . S
H1021 C957 0.930 . S
H1022 C961 0.930 . S
H1023 C962 0.961 . S
H1024 C962 0.960 . S
H1025 C962 0.958 . S
H1026 C963 0.961 . S
H1027 C963 0.960 . S
H1028 C963 0.960 . S
H1029 C965 0.980 . S
H1030 C964 0.961 . S
H1031 C964 0.961 . S
H1032 C964 0.959 . S
H1033 C967 0.932 . S
H1034 C971 0.929 . S
H1035 C972 0.961 . S
H1036 C972 0.959 . S
H1037 C972 0.959 . S
H1038 C973 0.960 . S
H1039 C973 0.962 . S
H1040 C973 0.961 . S
H1041 C975 0.929 . S
H1042 C978 0.930 . S
H1043 C979 0.929 . S
H1044 C982 0.930 . S
H1045 C985 0.929 . S
H1046 C986 0.930 . S
H1047 C990 0.962 . S
H1048 C990 0.959 . S
H1049 C990 0.958 . S
C1050 C1051 1.560 . S
C1050 H1111 0.959 . S
C1050 H1112 0.959 . S
C1050 H1113 0.960 . S
C1051 C1050 1.560 . S
C1051 O1106 1.426 . S
C1051 H1110 0.980 . S
C1052 C1053 1.407 . S
C1052 C1057 1.418 . S
C1052 O1106 1.334 . S
C1053 C1052 1.407 . S
C1053 C1054 1.360 . S
C1053 H1114 0.929 . S
C1054 C1053 1.360 . S
C1054 C1055 1.401 . S
C1054 C1058 1.527 . S
C1055 C1054 1.401 . S
C1055 C1056 1.405 . S
C1055 C1088 1.587 . S
C1056 C1055 1.405 . S
C1056 C1057 1.332 . S
C1056 C1059 1.496 . S
C1057 C1052 1.418 . S
C1057 C1056 1.332 . S
C1057 H1115 0.929 . S
C1058 C1054 1.527 . S
C1058 H1116 0.959 . S
C1058 H1117 0.961 . S
C1058 H1118 0.961 . S
C1059 C1056 1.496 . S
C1059 H1119 0.960 . S
C1059 H1120 0.960 . S
C1059 H1121 0.961 . S
C1060 C1061 1.517 . S
C1060 H1123 0.961 . S
C1060 H1124 0.960 . S
C1060 H1125 0.959 . S
C1061 C1060 1.517 . S
C1061 O1109 1.468 . S
C1061 H1122 0.980 . S
C1062 C1063 1.349 . S
C1062 C1067 1.367 . S
C1062 O1109 1.408 . S
C1063 C1062 1.349 . S
C1063 C1064 1.407 . S
C1063 H1126 0.930 . S
C1064 C1063 1.407 . S
C1064 C1065 1.449 . S
C1064 C1068 1.535 . S
C1065 C1064 1.449 . S
C1065 C1066 1.384 . S
C1065 C1090 1.553 . S
C1066 C1065 1.384 . S
C1066 C1067 1.364 . S
C1066 C1069 1.450 . S
C1067 C1062 1.367 . S
C1067 C1066 1.364 . S
C1067 H1127 0.931 . S
C1068 C1064 1.535 . S
C1068 H1128 0.959 . S
C1068 H1129 0.961 . S
C1068 H1130 0.959 . S
C1069 C1066 1.450 . S
C1069 H1131 0.960 . S
C1069 H1132 0.960 . S
C1069 H1133 0.960 . S
C1070 C1071 1.309 . S
C1070 C1075 1.304 . S
C1070 O1108 1.435 . S
C1071 C1070 1.309 . S
C1071 C1072 1.476 . S
C1071 H1135 0.930 . S
C1072 C1071 1.476 . S
C1072 C1073 1.400 . S
C1072 C1076 1.567 . S
C1073 C1072 1.400 . S
C1073 C1074 1.373 . S
C1073 C1095 1.432 . S
C1074 C1073 1.373 . S
C1074 C1075 1.339 . S
C1074 C1077 1.530 . S
C1075 C1070 1.304 . S
C1075 C1074 1.339 . S
C1075 H1136 0.930 . S
C1076 C1072 1.567 . S
C1076 H1137 0.961 . S
C1076 H1138 0.960 . S
C1076 H1139 0.958 . S
C1077 C1074 1.530 . S
C1077 H1140 0.961 . S
C1077 H1141 0.960 . S
C1077 H1142 0.960 . S
C1078 C1079 1.530 . S
C1078 H1144 0.961 . S
C1078 H1145 0.961 . S
C1078 H1146 0.959 . S
C1079 C1078 1.530 . S
C1079 O1107 1.412 . S
C1079 H1143 0.980 . S
C1080 C1081 1.288 . S
C1080 C1085 1.377 . S
C1080 O1107 1.393 . S
C1081 C1080 1.288 . S
C1081 C1082 1.369 . S
C1081 H1147 0.932 . S
C1082 C1081 1.369 . S
C1082 C1083 1.398 . S
C1082 C1086 1.527 . S
C1083 C1082 1.398 . S
C1083 C1084 1.380 . S
C1083 C1097 1.497 . S
C1084 C1083 1.380 . S
C1084 C1085 1.383 . S
C1084 C1087 1.603 . S
C1085 C1080 1.377 . S
C1085 C1084 1.383 . S
C1085 H1148 0.929 . S
C1086 C1082 1.527 . S
C1086 H1149 0.961 . S
C1086 H1150 0.959 . S
C1086 H1151 0.959 . S
C1087 C1084 1.603 . S
C1087 H1152 0.960 . S
C1087 H1153 0.962 . S
C1087 H1154 0.961 . S
C1088 C1055 1.587 . S
C1088 C1089 1.360 . S
C1088 C1101 1.412 . S
C1089 C1088 1.360 . S
C1089 C1090 1.365 . S
C1089 H1155 0.929 . S
C1090 C1065 1.553 . S
C1090 C1089 1.365 . S
C1090 C1091 1.404 . S
C1091 C1090 1.404 . S
C1091 C1092 1.395 . S
C1091 C1102 1.451 . S
C1092 C1091 1.395 . S
C1092 C1093 1.322 . S
C1092 H1156 0.930 . S
C1093 C1092 1.322 . S
C1093 C1094 1.459 . S
C1093 H1157 0.929 . S
C1094 C1093 1.459 . S
C1094 C1095 1.445 . S
C1094 C1103 1.395 . S
C1095 C1073 1.432 . S
C1095 C1094 1.445 . S
C1095 C1096 1.370 . S
C1096 C1095 1.370 . S
C1096 C1097 1.438 . S
C1096 H1158 0.930 . S
C1097 C1083 1.497 . S
C1097 C1096 1.438 . S
C1097 C1098 1.360 . S
C1098 C1097 1.360 . S
C1098 C1099 1.401 . S
C1098 C1103 1.446 . S
C1099 C1098 1.401 . S
C1099 C1100 1.347 . S
C1099 H1159 0.929 . S
C1100 C1099 1.347 . S
C1100 C1101 1.455 . S
C1100 H1160 0.930 . S
C1101 C1088 1.412 . S
C1101 C1100 1.455 . S
C1101 C1102 1.331 . S
C1102 C1091 1.451 . S
C1102 C1101 1.331 . S
C1102 C1103 1.497 . S
C1103 C1094 1.395 . S
C1103 C1098 1.446 . S
C1103 C1102 1.497 . S
C1104 C1105 1.582 . S
C1104 H1161 0.962 . S
C1104 H1162 0.959 . S
C1104 H1163 0.958 . S
C1105 C1104 1.582 . S
C1105 O1108 1.458 . S
C1105 H1134 0.980 . S
O1106 C1051 1.426 . S
O1106 C1052 1.334 . S
O1107 C1079 1.412 . S
O1107 C1080 1.393 . S
O1108 C1070 1.435 . S
O1108 C1105 1.458 . S
O1109 C1061 1.468 . S
O1109 C1062 1.408 . S
H1110 C1051 0.980 . S
H1111 C1050 0.959 . S
H1112 C1050 0.959 . S
H1113 C1050 0.960 . S
H1114 C1053 0.929 . S
H1115 C1057 0.929 . S
H1116 C1058 0.959 . S
H1117 C1058 0.961 . S
H1118 C1058 0.961 . S
H1119 C1059 0.960 . S
H1120 C1059 0.960 . S
H1121 C1059 0.961 . S
H1122 C1061 0.980 . S
H1123 C1060 0.961 . S
H1124 C1060 0.960 . S
H1125 C1060 0.959 . S
H1126 C1063 0.930 . S
H1127 C1067 0.931 . S
H1128 C1068 0.959 . S
H1129 C1068 0.961 . S
H1130 C1068 0.959 . S
H1131 C1069 0.960 . S
H1132 C1069 0.960 . S
H1133 C1069 0.960 . S
H1134 C1105 0.980 . S
H1135 C1071 0.930 . S
H1136 C1075 0.930 . S
H1137 C1076 0.961 . S
H1138 C1076 0.960 . S
H1139 C1076 0.958 . S
H1140 C1077 0.961 . S
H1141 C1077 0.960 . S
H1142 C1077 0.960 . S
H1143 C1079 0.980 . S
H1144 C1078 0.961 . S
H1145 C1078 0.961 . S
H1146 C1078 0.959 . S
H1147 C1081 0.932 . S
H1148 C1085 0.929 . S
H1149 C1086 0.961 . S
H1150 C1086 0.959 . S
H1151 C1086 0.959 . S
H1152 C1087 0.960 . S
H1153 C1087 0.962 . S
H1154 C1087 0.961 . S
H1155 C1089 0.929 . S
H1156 C1092 0.930 . S
H1157 C1093 0.929 . S
H1158 C1096 0.930 . S
H1159 C1099 0.929 . S
H1160 C1100 0.930 . S
H1161 C1104 0.962 . S
H1162 C1104 0.959 . S
H1163 C1104 0.958 . S
C1164 C1165 1.560 . S
C1164 H1225 0.959 . S
C1164 H1226 0.959 . S
C1164 H1227 0.960 . S
C1165 C1164 1.560 . S
C1165 O1220 1.426 . S
C1165 H1224 0.980 . S
C1166 C1167 1.407 . S
C1166 C1171 1.418 . S
C1166 O1220 1.334 . S
C1167 C1166 1.407 . S
C1167 C1168 1.360 . S
C1167 H1228 0.929 . S
C1168 C1167 1.360 . S
C1168 C1169 1.401 . S
C1168 C1172 1.527 . S
C1169 C1168 1.401 . S
C1169 C1170 1.405 . S
C1169 C1202 1.587 . S
C1170 C1169 1.405 . S
C1170 C1171 1.332 . S
C1170 C1173 1.496 . S
C1171 C1166 1.418 . S
C1171 C1170 1.332 . S
C1171 H1229 0.929 . S
C1172 C1168 1.527 . S
C1172 H1230 0.959 . S
C1172 H1231 0.961 . S
C1172 H1232 0.961 . S
C1173 C1170 1.496 . S
C1173 H1233 0.960 . S
C1173 H1234 0.960 . S
C1173 H1235 0.961 . S
C1174 C1175 1.517 . S
C1174 H1237 0.961 . S
C1174 H1238 0.960 . S
C1174 H1239 0.959 . S
C1175 C1174 1.517 . S
C1175 O1223 1.468 . S
C1175 H1236 0.980 . S
C1176 C1177 1.349 . S
C1176 C1181 1.367 . S
C1176 O1223 1.408 . S
C1177 C1176 1.349 . S
C1177 C1178 1.407 . S
C1177 H1240 0.930 . S
C1178 C1177 1.407 . S
C1178 C1179 1.449 . S
C1178 C1182 1.535 . S
C1179 C1178 1.449 . S
C1179 C1180 1.384 . S
C1179 C1204 1.553 . S
C1180 C1179 1.384 . S
C1180 C1181 1.364 . S
C1180 C1183 1.450 . S
C1181 C1176 1.367 . S
C1181 C1180 1.364 . S
C1181 H1241 0.931 . S
C1182 C1178 1.535 . S
C1182 H1242 0.959 . S
C1182 H1243 0.961 . S
C1182 H1244 0.959 . S
C1183 C1180 1.450 . S
C1183 H1245 0.960 . S
C1183 H1246 0.960 . S
C1183 H1247 0.960 . S
C1184 C1185 1.309 . S
C1184 C1189 1.304 . S
C1184 O1222 1.435 . S
C1185 C1184 1.309 . S
C1185 C1186 1.476 . S
C1185 H1249 0.930 . S
C1186 C1185 1.476 . S
C1186 C1187 1.400 . S
C1186 C1190 1.567 . S
C1187 C1186 1.400 . S
C1187 C1188 1.373 . S
C1187 C1209 1.432 . S
C1188 C1187 1.373 . S
C1188 C1189 1.339 . S
C1188 C1191 1.530 . S
C1189 C1184 1.304 . S
C1189 C1188 1.339 . S
C1189 H1250 0.930 . S
C1190 C1186 1.567 . S
C1190 H1251 0.961 . S
C1190 H1252 0.960 . S
C1190 H1253 0.958 . S
C1191 C1188 1.530 . S
C1191 H1254 0.961 . S
C1191 H1255 0.960 . S
C1191 H1256 0.960 . S
C1192 C1193 1.530 . S
C1192 H1258 0.961 . S
C1192 H1259 0.961 . S
C1192 H1260 0.959 . S
C1193 C1192 1.530 . S
C1193 O1221 1.412 . S
C1193 H1257 0.980 . S
C1194 C1195 1.288 . S
C1194 C1199 1.377 . S
C1194 O1221 1.393 . S
C1195 C1194 1.288 . S
C1195 C1196 1.369 . S
C1195 H1261 0.932 . S
C1196 C1195 1.369 . S
C1196 C1197 1.398 . S
C1196 C1200 1.527 . S
C1197 C1196 1.398 . S
C1197 C1198 1.380 . S
C1197 C1211 1.497 . S
C1198 C1197 1.380 . S
C1198 C1199 1.383 . S
C1198 C1201 1.603 . S
C1199 C1194 1.377 . S
C1199 C1198 1.383 . S
C1199 H1262 0.929 . S
C1200 C1196 1.527 . S
C1200 H1263 0.961 . S
C1200 H1264 0.959 . S
C1200 H1265 0.959 . S
C1201 C1198 1.603 . S
C1201 H1266 0.960 . S
C1201 H1267 0.962 . S
C1201 H1268 0.961 . S
C1202 C1169 1.587 . S
C1202 C1203 1.360 . S
C1202 C1215 1.412 . S
C1203 C1202 1.360 . S
C1203 C1204 1.365 . S
C1203 H1269 0.929 . S
C1204 C1179 1.553 . S
C1204 C1203 1.365 . S
C1204 C1205 1.404 . S
C1205 C1204 1.404 . S
C1205 C1206 1.395 . S
C1205 C1216 1.451 . S
C1206 C1205 1.395 . S
C1206 C1207 1.322 . S
C1206 H1270 0.930 . S
C1207 C1206 1.322 . S
C1207 C1208 1.459 . S
C1207 H1271 0.929 . S
C1208 C1207 1.459 . S
C1208 C1209 1.445 . S
C1208 C1217 1.395 . S
C1209 C1187 1.432 . S
C1209 C1208 1.445 . S
C1209 C1210 1.370 . S
C1210 C1209 1.370 . S
C1210 C1211 1.438 . S
C1210 H1272 0.930 . S
C1211 C1197 1.497 . S
C1211 C1210 1.438 . S
C1211 C1212 1.360 . S
C1212 C1211 1.360 . S
C1212 C1213 1.401 . S
C1212 C1217 1.446 . S
C1213 C1212 1.401 . S
C1213 C1214 1.347 . S
C1213 H1273 0.929 . S
C1214 C1213 1.347 . S
C1214 C1215 1.455 . S
C1214 H1274 0.930 . S
C1215 C1202 1.412 . S
C1215 C1214 1.455 . S
C1215 C1216 1.331 . S
C1216 C1205 1.451 . S
C1216 C1215 1.331 . S
C1216 C1217 1.497 . S
C1217 C1208 1.395 . S
C1217 C1212 1.446 . S
C1217 C1216 1.497 . S
C1218 C1219 1.582 . S
C1218 H1275 0.962 . S
C1218 H1276 0.959 . S
C1218 H1277 0.958 . S
C1219 C1218 1.582 . S
C1219 O1222 1.458 . S
C1219 H1248 0.980 . S
O1220 C1165 1.426 . S
O1220 C1166 1.334 . S
O1221 C1193 1.412 . S
O1221 C1194 1.393 . S
O1222 C1184 1.435 . S
O1222 C1219 1.458 . S
O1223 C1175 1.468 . S
O1223 C1176 1.408 . S
H1224 C1165 0.980 . S
H1225 C1164 0.959 . S
H1226 C1164 0.959 . S
H1227 C1164 0.960 . S
H1228 C1167 0.929 . S
H1229 C1171 0.929 . S
H1230 C1172 0.959 . S
H1231 C1172 0.961 . S
H1232 C1172 0.961 . S
H1233 C1173 0.960 . S
H1234 C1173 0.960 . S
H1235 C1173 0.961 . S
H1236 C1175 0.980 . S
H1237 C1174 0.961 . S
H1238 C1174 0.960 . S
H1239 C1174 0.959 . S
H1240 C1177 0.930 . S
H1241 C1181 0.931 . S
H1242 C1182 0.959 . S
H1243 C1182 0.961 . S
H1244 C1182 0.959 . S
H1245 C1183 0.960 . S
H1246 C1183 0.960 . S
H1247 C1183 0.960 . S
H1248 C1219 0.980 . S
H1249 C1185 0.930 . S
H1250 C1189 0.930 . S
H1251 C1190 0.961 . S
H1252 C1190 0.960 . S
H1253 C1190 0.958 . S
H1254 C1191 0.961 . S
H1255 C1191 0.960 . S
H1256 C1191 0.960 . S
H1257 C1193 0.980 . S
H1258 C1192 0.961 . S
H1259 C1192 0.961 . S
H1260 C1192 0.959 . S
H1261 C1195 0.932 . S
H1262 C1199 0.929 . S
H1263 C1200 0.961 . S
H1264 C1200 0.959 . S
H1265 C1200 0.959 . S
H1266 C1201 0.960 . S
H1267 C1201 0.962 . S
H1268 C1201 0.961 . S
H1269 C1203 0.929 . S
H1270 C1206 0.930 . S
H1271 C1207 0.929 . S
H1272 C1210 0.930 . S
H1273 C1213 0.929 . S
H1274 C1214 0.930 . S
H1275 C1218 0.962 . S
H1276 C1218 0.959 . S
H1277 C1218 0.958 . S
C1278 C1279 1.560 . S
C1278 H1339 0.959 . S
C1278 H1340 0.959 . S
C1278 H1341 0.960 . S
C1279 C1278 1.560 . S
C1279 O1334 1.426 . S
C1279 H1338 0.980 . S
C1280 C1281 1.407 1_455 S
C1280 C1285 1.418 . S
C1280 O1334 1.334 . S
C1281 C1280 1.407 1_655 S
C1281 C1282 1.360 . S
C1281 H1342 0.929 . S
C1282 C1281 1.360 . S
C1282 C1283 1.401 1_655 S
C1282 C1286 1.527 . S
C1283 C1282 1.401 1_455 S
C1283 C1284 1.405 . S
C1283 C1316 1.587 1_455 S
C1284 C1283 1.405 . S
C1284 C1285 1.332 . S
C1284 C1287 1.496 . S
C1285 C1280 1.418 . S
C1285 C1284 1.332 . S
C1285 H1343 0.929 . S
C1286 C1282 1.527 . S
C1286 H1344 0.959 . S
C1286 H1345 0.961 . S
C1286 H1346 0.961 . S
C1287 C1284 1.496 . S
C1287 H1347 0.960 . S
C1287 H1348 0.960 . S
C1287 H1349 0.961 . S
C1288 C1289 1.517 . S
C1288 H1351 0.981 . S
C1288 H1352 0.960 . S
C1288 H1353 0.959 . S
C1289 C1288 1.517 . S
C1289 O1337 1.468 . S
C1289 H1350 0.980 1_655 S
C1290 C1291 1.349 . S
C1290 C1295 1.367 . S
C1290 O1337 1.408 . S
C1291 C1290 1.349 . S
C1291 C1292 1.360 1_655 S
C1291 H1354 0.930 1_655 S
C1292 C1291 1.360 1_455 S
C1292 C1293 1.409 1_455 S
C1292 C1296 1.618 . S
C1293 C1292 1.409 1_655 S
C1293 C1294 1.384 . S
C1293 C1318 1.553 . S
C1294 C1293 1.384 . S
C1294 C1295 1.364 . S
C1294 C1297 1.450 . S
C1295 C1290 1.367 . S
C1295 C1294 1.364 . S
C1295 H1355 0.931 . S
C1296 C1292 1.618 . S
C1296 H1356 0.959 . S
C1296 H1357 0.961 . S
C1296 H1358 0.959 . S
C1297 C1294 1.450 . S
C1297 H1359 0.960 . S
C1297 H1360 0.960 . S
C1297 H1361 0.960 . S
C1298 C1299 1.309 . S
C1298 C1303 1.304 . S
C1298 O1336 1.435 . S
C1299 C1298 1.309 . S
C1299 C1300 1.475 . S
C1299 H1363 0.930 1_655 S
C1300 C1299 1.475 . S
C1300 C1301 1.400 . S
C1300 C1304 1.567 1_655 S
C1301 C1300 1.400 . S
C1301 C1302 1.373 . S
C1301 C1323 1.432 . S
C1302 C1301 1.373 . S
C1302 C1303 1.339 . S
C1302 C1305 1.530 . S
C1303 C1298 1.304 . S
C1303 C1302 1.339 . S
C1303 H1364 0.930 . S
C1304 C1300 1.567 1_455 S
C1304 H1365 0.961 . S
C1304 H1366 0.960 . S
C1304 H1367 0.958 . S
C1305 C1302 1.530 . S
C1305 H1368 0.961 . S
C1305 H1369 0.960 . S
C1305 H1370 0.960 . S
C1306 C1307 1.525 1_455 S
C1306 H1372 0.961 . S
C1306 H1373 0.961 . S
C1306 H1374 0.959 . S
C1307 C1306 1.525 1_655 S
C1307 O1335 1.411 1_655 S
C1307 H1371 0.982 . S
C1308 C1309 1.288 . S
C1308 C1313 1.377 1_455 S
C1308 O1335 1.393 . S
C1309 C1308 1.288 . S
C1309 C1310 1.369 . S
C1309 H1375 0.932 . S
C1310 C1309 1.369 . S
C1310 C1311 1.398 1_455 S
C1310 C1314 1.527 . S
C1311 C1310 1.398 1_655 S
C1311 C1312 1.380 . S
C1311 C1325 1.497 . S
C1312 C1311 1.380 . S
C1312 C1313 1.383 . S
C1312 C1315 1.603 . S
C1313 C1308 1.377 1_655 S
C1313 C1312 1.383 . S
C1313 H1376 0.929 . S
C1314 C1310 1.527 . S
C1314 H1377 0.961 . S
C1314 H1378 0.959 . S
C1314 H1379 0.959 . S
C1315 C1312 1.603 . S
C1315 H1380 0.960 . S
C1315 H1381 0.962 . S
C1315 H1382 0.961 . S
C1316 C1283 1.587 1_655 S
C1316 C1317 1.360 . S
C1316 C1329 1.412 . S
C1317 C1316 1.360 . S
C1317 C1318 1.365 . S
C1317 H1383 0.929 . S
C1318 C1293 1.553 . S
C1318 C1317 1.365 . S
C1318 C1319 1.404 . S
C1319 C1318 1.404 . S
C1319 C1320 1.395 . S
C1319 C1330 1.451 . S
C1320 C1319 1.395 . S
C1320 C1321 1.322 . S
C1320 H1384 0.930 . S
C1321 C1320 1.322 . S
C1321 C1322 1.459 . S
C1321 H1385 0.929 . S
C1322 C1321 1.459 . S
C1322 C1323 1.445 . S
C1322 C1331 1.395 . S
C1323 C1301 1.432 . S
C1323 C1322 1.445 . S
C1323 C1324 1.370 . S
C1324 C1323 1.370 . S
C1324 C1325 1.438 . S
C1324 H1386 0.930 . S
C1325 C1311 1.497 . S
C1325 C1324 1.438 . S
C1325 C1326 1.360 . S
C1326 C1325 1.360 . S
C1326 C1327 1.401 . S
C1326 C1331 1.446 . S
C1327 C1326 1.401 . S
C1327 C1328 1.347 . S
C1327 H1387 0.929 . S
C1328 C1327 1.347 . S
C1328 C1329 1.455 . S
C1328 H1388 0.930 . S
C1329 C1316 1.412 . S
C1329 C1328 1.455 . S
C1329 C1330 1.331 . S
C1330 C1319 1.451 . S
C1330 C1329 1.331 . S
C1330 C1331 1.497 . S
C1331 C1322 1.395 . S
C1331 C1326 1.446 . S
C1331 C1330 1.497 . S
C1332 C1333 1.582 . S
C1332 H1389 0.962 . S
C1332 H1390 0.959 . S
C1332 H1391 0.958 . S
C1333 C1332 1.582 . S
C1333 O1336 1.458 . S
C1333 H1362 0.980 . S
O1334 C1279 1.426 . S
O1334 C1280 1.334 . S
O1335 C1307 1.411 1_455 S
O1335 C1308 1.393 . S
O1336 C1298 1.435 . S
O1336 C1333 1.458 . S
O1337 C1289 1.468 . S
O1337 C1290 1.408 . S
H1338 C1279 0.980 . S
H1339 C1278 0.959 . S
H1340 C1278 0.959 . S
H1341 C1278 0.960 . S
H1342 C1281 0.929 . S
H1343 C1285 0.929 . S
H1344 C1286 0.959 . S
H1345 C1286 0.961 . S
H1346 C1286 0.961 . S
H1347 C1287 0.960 . S
H1348 C1287 0.960 . S
H1349 C1287 0.961 . S
H1350 C1289 0.980 1_455 S
H1351 C1288 0.981 . S
H1352 C1288 0.960 . S
H1353 C1288 0.959 . S
H1354 C1291 0.930 1_455 S
H1355 C1295 0.931 . S
H1356 C1296 0.959 . S
H1357 C1296 0.961 . S
H1358 C1296 0.959 . S
H1359 C1297 0.960 . S
H1360 C1297 0.960 . S
H1361 C1297 0.960 . S
H1362 C1333 0.980 . S
H1363 C1299 0.930 1_455 S
H1364 C1303 0.930 . S
H1365 C1304 0.961 . S
H1366 C1304 0.960 . S
H1367 C1304 0.958 . S
H1368 C1305 0.961 . S
H1369 C1305 0.960 . S
H1370 C1305 0.960 . S
H1371 C1307 0.982 . S
H1372 C1306 0.961 . S
H1373 C1306 0.961 . S
H1374 C1306 0.959 . S
H1375 C1309 0.932 . S
H1376 C1313 0.929 . S
H1377 C1314 0.961 . S
H1378 C1314 0.959 . S
H1379 C1314 0.959 . S
H1380 C1315 0.960 . S
H1381 C1315 0.962 . S
H1382 C1315 0.961 . S
H1383 C1317 0.929 . S
H1384 C1320 0.930 . S
H1385 C1321 0.929 . S
H1386 C1324 0.930 . S
H1387 C1327 0.929 . S
H1388 C1328 0.930 . S
H1389 C1332 0.962 . S
H1390 C1332 0.959 . S
H1391 C1332 0.958 . S
C1392 C1393 1.560 . S
C1392 H1453 0.959 . S
C1392 H1454 0.959 . S
C1392 H1455 0.960 . S
C1393 C1392 1.560 . S
C1393 O1448 1.426 . S
C1393 H1452 0.980 . S
C1394 C1395 1.407 . S
C1394 C1399 1.418 . S
C1394 O1448 1.334 . S
C1395 C1394 1.407 . S
C1395 C1396 1.360 . S
C1395 H1456 0.929 . S
C1396 C1395 1.360 . S
C1396 C1397 1.401 . S
C1396 C1400 1.527 . S
C1397 C1396 1.401 . S
C1397 C1398 1.405 . S
C1397 C1430 1.587 . S
C1398 C1397 1.405 . S
C1398 C1399 1.332 . S
C1398 C1401 1.496 . S
C1399 C1394 1.418 . S
C1399 C1398 1.332 . S
C1399 H1457 0.929 . S
C1400 C1396 1.527 . S
C1400 H1458 0.959 . S
C1400 H1459 0.961 . S
C1400 H1460 0.961 . S
C1401 C1398 1.496 . S
C1401 H1461 0.960 . S
C1401 H1462 0.960 . S
C1401 H1463 0.961 . S
C1402 C1403 1.517 . S
C1402 H1465 0.961 . S
C1402 H1466 0.960 . S
C1402 H1467 0.959 . S
C1403 C1402 1.517 . S
C1403 O1451 1.468 . S
C1403 H1464 0.980 . S
C1404 C1405 1.349 . S
C1404 C1409 1.367 . S
C1404 O1451 1.408 . S
C1405 C1404 1.349 . S
C1405 C1406 1.407 . S
C1405 H1468 0.930 . S
C1406 C1405 1.407 . S
C1406 C1407 1.449 . S
C1406 C1410 1.535 . S
C1407 C1406 1.449 . S
C1407 C1408 1.384 . S
C1407 C1432 1.553 . S
C1408 C1407 1.384 . S
C1408 C1409 1.364 . S
C1408 C1411 1.450 . S
C1409 C1404 1.367 . S
C1409 C1408 1.364 . S
C1409 H1469 0.931 . S
C1410 C1406 1.535 . S
C1410 H1470 0.959 . S
C1410 H1471 0.961 . S
C1410 H1472 0.959 . S
C1411 C1408 1.450 . S
C1411 H1473 0.960 . S
C1411 H1474 0.960 . S
C1411 H1475 0.960 . S
C1412 C1413 1.309 . S
C1412 C1417 1.304 . S
C1412 O1450 1.435 . S
C1413 C1412 1.309 . S
C1413 C1414 1.476 . S
C1413 H1477 0.930 . S
C1414 C1413 1.476 . S
C1414 C1415 1.400 . S
C1414 C1418 1.567 . S
C1415 C1414 1.400 . S
C1415 C1416 1.373 . S
C1415 C1437 1.432 . S
C1416 C1415 1.373 . S
C1416 C1417 1.339 . S
C1416 C1419 1.530 . S
C1417 C1412 1.304 . S
C1417 C1416 1.339 . S
C1417 H1478 0.930 . S
C1418 C1414 1.567 . S
C1418 H1479 0.961 . S
C1418 H1480 0.960 . S
C1418 H1481 0.958 . S
C1419 C1416 1.530 . S
C1419 H1482 0.961 . S
C1419 H1483 0.960 . S
C1419 H1484 0.960 . S
C1420 C1421 1.530 . S
C1420 H1486 0.961 . S
C1420 H1487 0.961 . S
C1420 H1488 0.959 . S
C1421 C1420 1.530 . S
C1421 O1449 1.412 . S
C1421 H1485 0.980 . S
C1422 C1423 1.288 . S
C1422 C1427 1.377 . S
C1422 O1449 1.393 . S
C1423 C1422 1.288 . S
C1423 C1424 1.369 . S
C1423 H1489 0.932 . S
C1424 C1423 1.369 . S
C1424 C1425 1.398 . S
C1424 C1428 1.527 . S
C1425 C1424 1.398 . S
C1425 C1426 1.380 . S
C1425 C1439 1.497 . S
C1426 C1425 1.380 . S
C1426 C1427 1.383 . S
C1426 C1429 1.603 . S
C1427 C1422 1.377 . S
C1427 C1426 1.383 . S
C1427 H1490 0.929 . S
C1428 C1424 1.527 . S
C1428 H1491 0.961 . S
C1428 H1492 0.959 . S
C1428 H1493 0.959 . S
C1429 C1426 1.603 . S
C1429 H1494 0.960 . S
C1429 H1495 0.962 . S
C1429 H1496 0.961 . S
C1430 C1397 1.587 . S
C1430 C1431 1.360 . S
C1430 C1443 1.412 . S
C1431 C1430 1.360 . S
C1431 C1432 1.365 . S
C1431 H1497 0.929 . S
C1432 C1407 1.553 . S
C1432 C1431 1.365 . S
C1432 C1433 1.404 . S
C1433 C1432 1.404 . S
C1433 C1434 1.395 . S
C1433 C1444 1.451 . S
C1434 C1433 1.395 . S
C1434 C1435 1.322 . S
C1434 H1498 0.930 . S
C1435 C1434 1.322 . S
C1435 C1436 1.459 . S
C1435 H1499 0.929 . S
C1436 C1435 1.459 . S
C1436 C1437 1.445 . S
C1436 C1445 1.395 . S
C1437 C1415 1.432 . S
C1437 C1436 1.445 . S
C1437 C1438 1.370 . S
C1438 C1437 1.370 . S
C1438 C1439 1.438 . S
C1438 H1500 0.930 . S
C1439 C1425 1.497 . S
C1439 C1438 1.438 . S
C1439 C1440 1.360 . S
C1440 C1439 1.360 . S
C1440 C1441 1.401 . S
C1440 C1445 1.446 . S
C1441 C1440 1.401 . S
C1441 C1442 1.347 . S
C1441 H1501 0.929 . S
C1442 C1441 1.347 . S
C1442 C1443 1.455 . S
C1442 H1502 0.930 . S
C1443 C1430 1.412 . S
C1443 C1442 1.455 . S
C1443 C1444 1.331 . S
C1444 C1433 1.451 . S
C1444 C1443 1.331 . S
C1444 C1445 1.497 . S
C1445 C1436 1.395 . S
C1445 C1440 1.446 . S
C1445 C1444 1.497 . S
C1446 C1447 1.582 . S
C1446 H1503 0.962 . S
C1446 H1504 0.959 . S
C1446 H1505 0.958 . S
C1447 C1446 1.582 . S
C1447 O1450 1.458 . S
C1447 H1476 0.980 . S
O1448 C1393 1.426 . S
O1448 C1394 1.334 . S
O1449 C1421 1.412 . S
O1449 C1422 1.393 . S
O1450 C1412 1.435 . S
O1450 C1447 1.458 . S
O1451 C1403 1.468 . S
O1451 C1404 1.408 . S
H1452 C1393 0.980 . S
H1453 C1392 0.959 . S
H1454 C1392 0.959 . S
H1455 C1392 0.960 . S
H1456 C1395 0.929 . S
H1457 C1399 0.929 . S
H1458 C1400 0.959 . S
H1459 C1400 0.961 . S
H1460 C1400 0.961 . S
H1461 C1401 0.960 . S
H1462 C1401 0.960 . S
H1463 C1401 0.961 . S
H1464 C1403 0.980 . S
H1465 C1402 0.961 . S
H1466 C1402 0.960 . S
H1467 C1402 0.959 . S
H1468 C1405 0.930 . S
H1469 C1409 0.931 . S
H1470 C1410 0.959 . S
H1471 C1410 0.961 . S
H1472 C1410 0.959 . S
H1473 C1411 0.960 . S
H1474 C1411 0.960 . S
H1475 C1411 0.960 . S
H1476 C1447 0.980 . S
H1477 C1413 0.930 . S
H1478 C1417 0.930 . S
H1479 C1418 0.961 . S
H1480 C1418 0.960 . S
H1481 C1418 0.958 . S
H1482 C1419 0.961 . S
H1483 C1419 0.960 . S
H1484 C1419 0.960 . S
H1485 C1421 0.980 . S
H1486 C1420 0.961 . S
H1487 C1420 0.961 . S
H1488 C1420 0.959 . S
H1489 C1423 0.932 . S
H1490 C1427 0.929 . S
H1491 C1428 0.961 . S
H1492 C1428 0.959 . S
H1493 C1428 0.959 . S
H1494 C1429 0.960 . S
H1495 C1429 0.962 . S
H1496 C1429 0.961 . S
H1497 C1431 0.929 . S
H1498 C1434 0.930 . S
H1499 C1435 0.929 . S
H1500 C1438 0.930 . S
H1501 C1441 0.929 . S
H1502 C1442 0.930 . S
H1503 C1446 0.962 . S
H1504 C1446 0.959 . S
H1505 C1446 0.958 . S
C1506 C1507 1.560 . S
C1506 H1567 0.959 . S
C1506 H1568 0.959 . S
C1506 H1569 0.960 . S
C1507 C1506 1.560 . S
C1507 O1562 1.426 . S
C1507 H1566 0.980 . S
C1508 C1509 1.407 1_565 S
C1508 C1513 1.418 . S
C1508 O1562 1.334 . S
C1509 C1508 1.407 1_545 S
C1509 C1510 1.360 . S
C1509 H1570 0.929 . S
C1510 C1509 1.360 . S
C1510 C1511 1.401 1_545 S
C1510 C1514 1.527 . S
C1511 C1510 1.401 1_565 S
C1511 C1512 1.405 . S
C1511 C1544 1.587 1_565 S
C1512 C1511 1.405 . S
C1512 C1513 1.332 . S
C1512 C1515 1.496 . S
C1513 C1508 1.418 . S
C1513 C1512 1.332 . S
C1513 H1571 0.929 . S
C1514 C1510 1.527 . S
C1514 H1572 0.959 . S
C1514 H1573 0.961 . S
C1514 H1574 0.961 . S
C1515 C1512 1.496 . S
C1515 H1575 0.960 . S
C1515 H1576 0.960 . S
C1515 H1577 0.961 . S
C1516 C1517 1.517 . S
C1516 H1579 0.961 1_545 S
C1516 H1580 0.960 . S
C1516 H1581 0.959 . S
C1517 C1516 1.517 . S
C1517 O1565 1.468 . S
C1517 H1578 0.980 1_545 S
C1518 C1519 1.377 . S
C1518 C1523 1.367 . S
C1518 O1565 1.408 . S
C1519 C1518 1.377 . S
C1519 C1520 1.425 1_545 S
C1519 H1582 0.885 1_545 S
C1520 C1519 1.425 1_565 S
C1520 C1521 1.449 1_565 S
C1520 C1524 1.535 . S
C1521 C1520 1.449 1_545 S
C1521 C1522 1.384 . S
C1521 C1546 1.553 . S
C1522 C1521 1.384 . S
C1522 C1523 1.364 . S
C1522 C1525 1.450 . S
C1523 C1518 1.367 . S
C1523 C1522 1.364 . S
C1523 H1583 0.931 . S
C1524 C1520 1.535 . S
C1524 H1584 0.959 . S
C1524 H1585 0.961 . S
C1524 H1586 0.959 . S
C1525 C1522 1.450 . S
C1525 H1587 0.960 . S
C1525 H1588 0.960 . S
C1525 H1589 0.960 . S
C1526 C1527 1.309 . S
C1526 C1531 1.304 . S
C1526 O1564 1.435 . S
C1527 C1526 1.309 . S
C1527 C1528 1.496 1_545 S
C1527 H1591 0.930 1_545 S
C1528 C1527 1.496 1_565 S
C1528 C1529 1.336 1_565 S
C1528 C1532 1.611 . S
C1529 C1528 1.336 1_545 S
C1529 C1530 1.373 . S
C1529 C1551 1.432 . S
C1530 C1529 1.373 . S
C1530 C1531 1.339 . S
C1530 C1533 1.530 . S
C1531 C1526 1.304 . S
C1531 C1530 1.339 . S
C1531 H1592 0.930 . S
C1532 C1528 1.611 . S
C1532 H1593 0.961 . S
C1532 H1594 0.960 . S
C1532 H1595 0.958 . S
C1533 C1530 1.530 . S
C1533 H1596 0.961 . S
C1533 H1597 0.960 . S
C1533 H1598 0.960 . S
C1534 C1535 1.530 1_565 S
C1534 H1600 0.961 . S
C1534 H1601 0.961 . S
C1534 H1602 0.959 . S
C1535 C1534 1.530 1_545 S
C1535 O1563 1.412 1_545 S
C1535 H1599 0.980 . S
C1536 C1537 1.288 . S
C1536 C1541 1.377 1_565 S
C1536 O1563 1.393 . S
C1537 C1536 1.288 . S
C1537 C1538 1.369 . S
C1537 H1603 0.932 . S
C1538 C1537 1.369 . S
C1538 C1539 1.398 1_565 S
C1538 C1542 1.527 . S
C1539 C1538 1.398 1_545 S
C1539 C1540 1.380 . S
C1539 C1553 1.497 . S
C1540 C1539 1.380 . S
C1540 C1541 1.383 . S
C1540 C1543 1.603 . S
C1541 C1536 1.377 1_545 S
C1541 C1540 1.383 . S
C1541 H1604 0.929 . S
C1542 C1538 1.527 . S
C1542 H1605 0.961 . S
C1542 H1606 0.959 . S
C1542 H1607 0.959 . S
C1543 C1540 1.603 . S
C1543 H1608 0.960 . S
C1543 H1609 0.962 . S
C1543 H1610 0.961 . S
C1544 C1511 1.587 1_545 S
C1544 C1545 1.360 . S
C1544 C1557 1.412 . S
C1545 C1544 1.360 . S
C1545 C1546 1.365 . S
C1545 H1611 0.929 . S
C1546 C1521 1.553 . S
C1546 C1545 1.365 . S
C1546 C1547 1.404 . S
C1547 C1546 1.404 . S
C1547 C1548 1.395 . S
C1547 C1558 1.451 . S
C1548 C1547 1.395 . S
C1548 C1549 1.322 . S
C1548 H1612 0.930 . S
C1549 C1548 1.322 . S
C1549 C1550 1.459 . S
C1549 H1613 0.929 . S
C1550 C1549 1.459 . S
C1550 C1551 1.445 . S
C1550 C1559 1.395 . S
C1551 C1529 1.432 . S
C1551 C1550 1.445 . S
C1551 C1552 1.370 . S
C1552 C1551 1.370 . S
C1552 C1553 1.438 . S
C1552 H1614 0.930 . S
C1553 C1539 1.497 . S
C1553 C1552 1.438 . S
C1553 C1554 1.360 . S
C1554 C1553 1.360 . S
C1554 C1555 1.401 . S
C1554 C1559 1.446 . S
C1555 C1554 1.401 . S
C1555 C1556 1.347 . S
C1555 H1615 0.929 . S
C1556 C1555 1.347 . S
C1556 C1557 1.455 . S
C1556 H1616 0.930 . S
C1557 C1544 1.412 . S
C1557 C1556 1.455 . S
C1557 C1558 1.331 . S
C1558 C1547 1.451 . S
C1558 C1557 1.331 . S
C1558 C1559 1.497 . S
C1559 C1550 1.395 . S
C1559 C1554 1.446 . S
C1559 C1558 1.497 . S
C1560 C1561 1.582 . S
C1560 H1617 0.962 . S
C1560 H1618 0.959 . S
C1560 H1619 0.958 . S
C1561 C1560 1.582 . S
C1561 O1564 1.458 . S
C1561 H1590 0.980 . S
O1562 C1507 1.426 . S
O1562 C1508 1.334 . S
O1563 C1535 1.412 1_565 S
O1563 C1536 1.393 . S
O1564 C1526 1.435 . S
O1564 C1561 1.458 . S
O1565 C1517 1.468 . S
O1565 C1518 1.408 . S
H1566 C1507 0.980 . S
H1567 C1506 0.959 . S
H1568 C1506 0.959 . S
H1569 C1506 0.960 . S
H1570 C1509 0.929 . S
H1571 C1513 0.929 . S
H1572 C1514 0.959 . S
H1573 C1514 0.961 . S
H1574 C1514 0.961 . S
H1575 C1515 0.960 . S
H1576 C1515 0.960 . S
H1577 C1515 0.961 . S
H1578 C1517 0.980 1_565 S
H1579 C1516 0.961 1_565 S
H1580 C1516 0.960 . S
H1581 C1516 0.959 . S
H1582 C1519 0.885 1_565 S
H1583 C1523 0.931 . S
H1584 C1524 0.959 . S
H1585 C1524 0.961 . S
H1586 C1524 0.959 . S
H1587 C1525 0.960 . S
H1588 C1525 0.960 . S
H1589 C1525 0.960 . S
H1590 C1561 0.980 . S
H1591 C1527 0.930 1_565 S
H1592 C1531 0.930 . S
H1593 C1532 0.961 . S
H1594 C1532 0.960 . S
H1595 C1532 0.958 . S
H1596 C1533 0.961 . S
H1597 C1533 0.960 . S
H1598 C1533 0.960 . S
H1599 C1535 0.980 . S
H1600 C1534 0.961 . S
H1601 C1534 0.961 . S
H1602 C1534 0.959 . S
H1603 C1537 0.932 . S
H1604 C1541 0.929 . S
H1605 C1542 0.961 . S
H1606 C1542 0.959 . S
H1607 C1542 0.959 . S
H1608 C1543 0.960 . S
H1609 C1543 0.962 . S
H1610 C1543 0.961 . S
H1611 C1545 0.929 . S
H1612 C1548 0.930 . S
H1613 C1549 0.929 . S
H1614 C1552 0.930 . S
H1615 C1555 0.929 . S
H1616 C1556 0.930 . S
H1617 C1560 0.962 . S
H1618 C1560 0.959 . S
H1619 C1560 0.958 . S
C1620 C1621 1.560 . S
C1620 H1681 0.959 . S
C1620 H1682 0.959 . S
C1620 H1683 0.960 . S
C1621 C1620 1.560 . S
C1621 O1676 1.426 . S
C1621 H1680 0.980 1_565 S
C1622 C1623 1.407 1_565 S
C1622 C1627 1.418 . S
C1622 O1676 1.334 . S
C1623 C1622 1.407 1_545 S
C1623 C1624 1.360 . S
C1623 H1684 0.929 . S
C1624 C1623 1.360 . S
C1624 C1625 1.401 . S
C1624 C1628 1.527 . S
C1625 C1624 1.401 . S
C1625 C1626 1.405 1_545 S
C1625 C1658 1.587 . S
C1626 C1625 1.405 1_565 S
C1626 C1627 1.332 . S
C1626 C1629 1.496 . S
C1627 C1622 1.418 . S
C1627 C1626 1.332 . S
C1627 H1685 0.929 . S
C1628 C1624 1.527 . S
C1628 H1686 0.959 . S
C1628 H1687 0.961 . S
C1628 H1688 0.961 . S
C1629 C1626 1.496 . S
C1629 H1689 0.960 . S
C1629 H1690 0.960 . S
C1629 H1691 0.961 . S
C1630 C1631 1.517 . S
C1630 H1693 0.961 . S
C1630 H1694 0.960 . S
C1630 H1695 0.959 . S
C1631 C1630 1.517 . S
C1631 O1679 1.468 . S
C1631 H1692 0.980 . S
C1632 C1633 1.349 . S
C1632 C1637 1.367 . S
C1632 O1679 1.408 . S
C1633 C1632 1.349 . S
C1633 C1634 1.407 . S
C1633 H1696 0.933 1_545 S
C1634 C1633 1.407 . S
C1634 C1635 1.449 . S
C1634 C1638 1.535 1_545 S
C1635 C1634 1.449 . S
C1635 C1636 1.384 . S
C1635 C1660 1.553 . S
C1636 C1635 1.384 . S
C1636 C1637 1.364 . S
C1636 C1639 1.450 . S
C1637 C1632 1.367 . S
C1637 C1636 1.364 . S
C1637 H1697 0.931 . S
C1638 C1634 1.535 1_565 S
C1638 H1698 0.959 . S
C1638 H1699 0.961 . S
C1638 H1700 0.959 . S
C1639 C1636 1.450 . S
C1639 H1701 0.960 . S
C1639 H1702 0.960 . S
C1639 H1703 0.960 . S
C1640 C1641 1.309 1_545 S
C1640 C1645 1.304 . S
C1640 O1678 1.435 . S
C1641 C1640 1.309 1_565 S
C1641 C1642 1.476 . S
C1641 H1705 0.930 . S
C1642 C1641 1.476 . S
C1642 C1643 1.400 1_565 S
C1642 C1646 1.567 . S
C1643 C1642 1.400 1_545 S
C1643 C1644 1.373 . S
C1643 C1665 1.432 . S
C1644 C1643 1.373 . S
C1644 C1645 1.339 . S
C1644 C1647 1.530 . S
C1645 C1640 1.304 . S
C1645 C1644 1.339 . S
C1645 H1706 0.930 . S
C1646 C1642 1.567 . S
C1646 H1707 0.961 . S
C1646 H1708 0.960 . S
C1646 H1709 0.958 . S
C1647 C1644 1.530 . S
C1647 H1710 0.961 . S
C1647 H1711 0.960 . S
C1647 H1712 0.960 . S
C1648 C1649 1.530 . S
C1648 H1714 0.961 . S
C1648 H1715 0.961 . S
C1648 H1716 0.959 . S
C1649 C1648 1.530 . S
C1649 O1677 1.412 . S
C1649 H1713 1.006 . S
C1650 C1651 1.288 . S
C1650 C1655 1.377 1_565 S
C1650 O1677 1.393 . S
C1651 C1650 1.288 . S
C1651 C1652 1.369 . S
C1651 H1717 0.932 . S
C1652 C1651 1.369 . S
C1652 C1653 1.398 . S
C1652 C1656 1.527 . S
C1653 C1652 1.398 . S
C1653 C1654 1.380 1_565 S
C1653 C1667 1.497 1_565 S
C1654 C1653 1.380 1_545 S
C1654 C1655 1.383 . S
C1654 C1657 1.603 . S
C1655 C1650 1.377 1_545 S
C1655 C1654 1.383 . S
C1655 H1718 0.929 . S
C1656 C1652 1.527 . S
C1656 H1719 0.961 . S
C1656 H1720 0.959 . S
C1656 H1721 0.959 . S
C1657 C1654 1.603 . S
C1657 H1722 0.960 . S
C1657 H1723 0.962 . S
C1657 H1724 0.961 . S
C1658 C1625 1.587 . S
C1658 C1659 1.360 . S
C1658 C1671 1.412 . S
C1659 C1658 1.360 . S
C1659 C1660 1.365 . S
C1659 H1725 0.929 . S
C1660 C1635 1.553 . S
C1660 C1659 1.365 . S
C1660 C1661 1.404 . S
C1661 C1660 1.404 . S
C1661 C1662 1.395 . S
C1661 C1672 1.451 . S
C1662 C1661 1.395 . S
C1662 C1663 1.322 . S
C1662 H1726 0.930 . S
C1663 C1662 1.322 . S
C1663 C1664 1.459 . S
C1663 H1727 0.929 . S
C1664 C1663 1.459 . S
C1664 C1665 1.445 . S
C1664 C1673 1.395 . S
C1665 C1643 1.432 . S
C1665 C1664 1.445 . S
C1665 C1666 1.370 . S
C1666 C1665 1.370 . S
C1666 C1667 1.438 . S
C1666 H1728 0.930 . S
C1667 C1653 1.497 1_545 S
C1667 C1666 1.438 . S
C1667 C1668 1.360 . S
C1668 C1667 1.360 . S
C1668 C1669 1.401 . S
C1668 C1673 1.446 . S
C1669 C1668 1.401 . S
C1669 C1670 1.347 . S
C1669 H1729 0.957 . S
C1670 C1669 1.347 . S
C1670 C1671 1.455 . S
C1670 H1730 0.930 . S
C1671 C1658 1.412 . S
C1671 C1670 1.455 . S
C1671 C1672 1.331 . S
C1672 C1661 1.451 . S
C1672 C1671 1.331 . S
C1672 C1673 1.497 . S
C1673 C1664 1.395 . S
C1673 C1668 1.446 . S
C1673 C1672 1.497 . S
C1674 C1675 1.582 . S
C1674 H1731 0.962 . S
C1674 H1732 0.959 . S
C1674 H1733 0.958 . S
C1675 C1674 1.582 . S
C1675 O1678 1.458 . S
C1675 H1704 0.980 1_545 S
O1676 C1621 1.426 . S
O1676 C1622 1.334 . S
O1677 C1649 1.412 . S
O1677 C1650 1.393 . S
O1678 C1640 1.435 . S
O1678 C1675 1.458 . S
O1679 C1631 1.468 . S
O1679 C1632 1.408 . S
H1680 C1621 0.980 1_545 S
H1681 C1620 0.959 . S
H1682 C1620 0.959 . S
H1683 C1620 0.960 . S
H1684 C1623 0.929 . S
H1685 C1627 0.929 . S
H1686 C1628 0.959 . S
H1687 C1628 0.961 . S
H1688 C1628 0.961 . S
H1689 C1629 0.960 . S
H1690 C1629 0.960 . S
H1691 C1629 0.961 . S
H1692 C1631 0.980 . S
H1693 C1630 0.961 . S
H1694 C1630 0.960 . S
H1695 C1630 0.959 . S
H1696 C1633 0.933 1_565 S
H1697 C1637 0.931 . S
H1698 C1638 0.959 . S
H1699 C1638 0.961 . S
H1700 C1638 0.959 . S
H1701 C1639 0.960 . S
H1702 C1639 0.960 . S
H1703 C1639 0.960 . S
H1704 C1675 0.980 1_565 S
H1705 C1641 0.930 . S
H1706 C1645 0.930 . S
H1707 C1646 0.961 . S
H1708 C1646 0.960 . S
H1709 C1646 0.958 . S
H1710 C1647 0.961 . S
H1711 C1647 0.960 . S
H1712 C1647 0.960 . S
H1713 C1649 1.006 . S
H1714 C1648 0.961 . S
H1715 C1648 0.961 . S
H1716 C1648 0.959 . S
H1717 C1651 0.932 . S
H1718 C1655 0.929 . S
H1719 C1656 0.961 . S
H1720 C1656 0.959 . S
H1721 C1656 0.959 . S
H1722 C1657 0.960 . S
H1723 C1657 0.962 . S
H1724 C1657 0.961 . S
H1725 C1659 0.929 . S
H1726 C1662 0.930 . S
H1727 C1663 0.929 . S
H1728 C1666 0.930 . S
H1729 C1669 0.957 . S
H1730 C1670 0.930 . S
H1731 C1674 0.962 . S
H1732 C1674 0.959 . S
H1733 C1674 0.958 . S
C1734 C1735 1.560 . S
C1734 H1795 0.959 . S
C1734 H1796 0.959 . S
C1734 H1797 0.960 . S
C1735 C1734 1.560 . S
C1735 O1790 1.426 . S
C1735 H1794 0.980 1_455 S
C1736 C1737 1.407 1_455 S
C1736 C1741 1.418 . S
C1736 O1790 1.334 . S
C1737 C1736 1.407 1_655 S
C1737 C1738 1.360 . S
C1737 H1798 0.929 . S
C1738 C1737 1.360 . S
C1738 C1739 1.401 . S
C1738 C1742 1.527 . S
C1739 C1738 1.401 . S
C1739 C1740 1.405 1_655 S
C1739 C1772 1.587 . S
C1740 C1739 1.405 1_455 S
C1740 C1741 1.332 . S
C1740 C1743 1.496 . S
C1741 C1736 1.418 . S
C1741 C1740 1.332 . S
C1741 H1799 0.929 . S
C1742 C1738 1.527 . S
C1742 H1800 0.959 . S
C1742 H1801 0.961 . S
C1742 H1802 0.961 . S
C1743 C1740 1.496 . S
C1743 H1803 0.960 . S
C1743 H1804 0.960 . S
C1743 H1805 0.961 . S
C1744 C1745 1.517 . S
C1744 H1807 0.961 . S
C1744 H1808 0.960 . S
C1744 H1809 0.959 . S
C1745 C1744 1.517 . S
C1745 O1793 1.468 . S
C1745 H1806 0.980 . S
C1746 C1747 1.349 . S
C1746 C1751 1.367 . S
C1746 O1793 1.408 . S
C1747 C1746 1.349 . S
C1747 C1748 1.407 . S
C1747 H1810 0.885 1_655 S
C1748 C1747 1.407 . S
C1748 C1749 1.449 . S
C1748 C1752 1.535 1_655 S
C1749 C1748 1.449 . S
C1749 C1750 1.384 . S
C1749 C1774 1.553 . S
C1750 C1749 1.384 . S
C1750 C1751 1.364 . S
C1750 C1753 1.450 . S
C1751 C1746 1.367 . S
C1751 C1750 1.364 . S
C1751 H1811 0.931 . S
C1752 C1748 1.535 1_455 S
C1752 H1812 0.959 . S
C1752 H1813 0.961 . S
C1752 H1814 0.959 . S
C1753 C1750 1.450 . S
C1753 H1815 0.960 . S
C1753 H1816 0.960 . S
C1753 H1817 0.960 . S
C1754 C1755 1.309 1_655 S
C1754 C1759 1.304 . S
C1754 O1792 1.435 . S
C1755 C1754 1.309 1_455 S
C1755 C1756 1.476 . S
C1755 H1819 0.930 . S
C1756 C1755 1.476 . S
C1756 C1757 1.400 1_455 S
C1756 C1760 1.567 . S
C1757 C1756 1.400 1_655 S
C1757 C1758 1.373 . S
C1757 C1779 1.432 . S
C1758 C1757 1.373 . S
C1758 C1759 1.339 . S
C1758 C1761 1.530 . S
C1759 C1754 1.304 . S
C1759 C1758 1.339 . S
C1759 H1820 0.930 . S
C1760 C1756 1.567 . S
C1760 H1821 0.961 . S
C1760 H1822 0.960 . S
C1760 H1823 0.958 . S
C1761 C1758 1.530 . S
C1761 H1824 0.961 . S
C1761 H1825 0.960 . S
C1761 H1826 0.960 . S
C1762 C1763 1.530 . S
C1762 H1828 0.961 . S
C1762 H1829 0.961 . S
C1762 H1830 0.959 . S
C1763 C1762 1.530 . S
C1763 O1791 1.412 . S
C1763 H1827 0.965 1_455 S
C1764 C1765 1.288 . S
C1764 C1769 1.377 1_455 S
C1764 O1791 1.393 . S
C1765 C1764 1.288 . S
C1765 C1766 1.369 . S
C1765 H1831 0.932 . S
C1766 C1765 1.369 . S
C1766 C1767 1.398 . S
C1766 C1770 1.527 . S
C1767 C1766 1.398 . S
C1767 C1768 1.380 1_455 S
C1767 C1781 1.497 1_455 S
C1768 C1767 1.380 1_655 S
C1768 C1769 1.383 . S
C1768 C1771 1.603 . S
C1769 C1764 1.377 1_655 S
C1769 C1768 1.383 . S
C1769 H1832 0.929 . S
C1770 C1766 1.527 . S
C1770 H1833 0.961 . S
C1770 H1834 0.959 . S
C1770 H1835 0.959 . S
C1771 C1768 1.603 . S
C1771 H1836 0.960 . S
C1771 H1837 0.962 . S
C1771 H1838 0.961 . S
C1772 C1739 1.587 . S
C1772 C1773 1.360 . S
C1772 C1785 1.412 . S
C1773 C1772 1.360 . S
C1773 C1774 1.365 . S
C1773 H1839 0.929 . S
C1774 C1749 1.553 . S
C1774 C1773 1.365 . S
C1774 C1775 1.404 . S
C1775 C1774 1.404 . S
C1775 C1776 1.395 . S
C1775 C1786 1.451 . S
C1776 C1775 1.395 . S
C1776 C1777 1.322 . S
C1776 H1840 0.930 . S
C1777 C1776 1.322 . S
C1777 C1778 1.459 . S
C1777 H1841 0.929 . S
C1778 C1777 1.459 . S
C1778 C1779 1.445 . S
C1778 C1787 1.395 . S
C1779 C1757 1.432 . S
C1779 C1778 1.445 . S
C1779 C1780 1.370 . S
C1780 C1779 1.370 . S
C1780 C1781 1.438 . S
C1780 H1842 0.930 . S
C1781 C1767 1.497 1_655 S
C1781 C1780 1.438 . S
C1781 C1782 1.360 . S
C1782 C1781 1.360 . S
C1782 C1783 1.401 . S
C1782 C1787 1.446 . S
C1783 C1782 1.401 . S
C1783 C1784 1.347 . S
C1783 H1843 0.929 . S
C1784 C1783 1.347 . S
C1784 C1785 1.455 . S
C1784 H1844 0.930 . S
C1785 C1772 1.412 . S
C1785 C1784 1.455 . S
C1785 C1786 1.331 . S
C1786 C1775 1.451 . S
C1786 C1785 1.331 . S
C1786 C1787 1.497 . S
C1787 C1778 1.395 . S
C1787 C1782 1.446 . S
C1787 C1786 1.497 . S
C1788 C1789 1.582 1_655 S
C1788 H1845 0.966 1_655 S
C1788 H1846 0.959 . S
C1788 H1847 0.958 . S
C1789 C1788 1.582 1_455 S
C1789 O1792 1.390 1_455 S
C1789 H1818 1.009 . S
O1790 C1735 1.426 . S
O1790 C1736 1.334 . S
O1791 C1763 1.412 . S
O1791 C1764 1.393 . S
O1792 C1754 1.435 . S
O1792 C1789 1.390 1_655 S
O1793 C1745 1.468 . S
O1793 C1746 1.408 . S
H1794 C1735 0.980 1_655 S
H1795 C1734 0.959 . S
H1796 C1734 0.959 . S
H1797 C1734 0.960 . S
H1798 C1737 0.929 . S
H1799 C1741 0.929 . S
H1800 C1742 0.959 . S
H1801 C1742 0.961 . S
H1802 C1742 0.961 . S
H1803 C1743 0.960 . S
H1804 C1743 0.960 . S
H1805 C1743 0.961 . S
H1806 C1745 0.980 . S
H1807 C1744 0.961 . S
H1808 C1744 0.960 . S
H1809 C1744 0.959 . S
H1810 C1747 0.885 1_455 S
H1811 C1751 0.931 . S
H1812 C1752 0.959 . S
H1813 C1752 0.961 . S
H1814 C1752 0.959 . S
H1815 C1753 0.960 . S
H1816 C1753 0.960 . S
H1817 C1753 0.960 . S
H1818 C1789 1.009 . S
H1819 C1755 0.930 . S
H1820 C1759 0.930 . S
H1821 C1760 0.961 . S
H1822 C1760 0.960 . S
H1823 C1760 0.958 . S
H1824 C1761 0.961 . S
H1825 C1761 0.960 . S
H1826 C1761 0.960 . S
H1827 C1763 0.965 1_655 S
H1828 C1762 0.961 . S
H1829 C1762 0.961 . S
H1830 C1762 0.959 . S
H1831 C1765 0.932 . S
H1832 C1769 0.929 . S
H1833 C1770 0.961 . S
H1834 C1770 0.959 . S
H1835 C1770 0.959 . S
H1836 C1771 0.960 . S
H1837 C1771 0.962 . S
H1838 C1771 0.961 . S
H1839 C1773 0.929 . S
H1840 C1776 0.930 . S
H1841 C1777 0.929 . S
H1842 C1780 0.930 . S
H1843 C1783 0.929 . S
H1844 C1784 0.930 . S
H1845 C1788 0.966 1_455 S
H1846 C1788 0.959 . S
H1847 C1788 0.958 . S
C1848 C1849 1.560 . S
C1848 H1909 0.959 . S
C1848 H1910 0.959 . S
C1848 H1911 0.960 . S
C1849 C1848 1.560 . S
C1849 O1904 1.426 . S
C1849 H1908 0.980 . S
C1850 C1851 1.407 . S
C1850 C1855 1.418 . S
C1850 O1904 1.334 . S
C1851 C1850 1.407 . S
C1851 C1852 1.360 . S
C1851 H1912 0.929 . S
C1852 C1851 1.360 . S
C1852 C1853 1.401 . S
C1852 C1856 1.527 . S
C1853 C1852 1.401 . S
C1853 C1854 1.405 . S
C1853 C1886 1.587 . S
C1854 C1853 1.405 . S
C1854 C1855 1.332 . S
C1854 C1857 1.496 . S
C1855 C1850 1.418 . S
C1855 C1854 1.332 . S
C1855 H1913 0.929 . S
C1856 C1852 1.527 . S
C1856 H1914 0.959 . S
C1856 H1915 0.961 . S
C1856 H1916 0.961 . S
C1857 C1854 1.496 . S
C1857 H1917 0.960 . S
C1857 H1918 0.960 . S
C1857 H1919 0.961 . S
C1858 C1859 1.517 . S
C1858 H1921 0.961 . S
C1858 H1922 0.960 . S
C1858 H1923 0.959 . S
C1859 C1858 1.517 . S
C1859 O1907 1.468 . S
C1859 H1920 0.980 . S
C1860 C1861 1.349 . S
C1860 C1865 1.367 . S
C1860 O1907 1.408 . S
C1861 C1860 1.349 . S
C1861 C1862 1.407 . S
C1861 H1924 0.930 . S
C1862 C1861 1.407 . S
C1862 C1863 1.449 . S
C1862 C1866 1.535 . S
C1863 C1862 1.449 . S
C1863 C1864 1.384 . S
C1863 C1888 1.553 . S
C1864 C1863 1.384 . S
C1864 C1865 1.364 . S
C1864 C1867 1.450 . S
C1865 C1860 1.367 . S
C1865 C1864 1.364 . S
C1865 H1925 0.931 . S
C1866 C1862 1.535 . S
C1866 H1926 0.959 . S
C1866 H1927 0.961 . S
C1866 H1928 0.959 . S
C1867 C1864 1.450 . S
C1867 H1929 0.960 . S
C1867 H1930 0.960 . S
C1867 H1931 0.960 . S
C1868 C1869 1.309 . S
C1868 C1873 1.304 . S
C1868 O1906 1.435 . S
C1869 C1868 1.309 . S
C1869 C1870 1.476 . S
C1869 H1933 0.930 . S
C1870 C1869 1.476 . S
C1870 C1871 1.400 . S
C1870 C1874 1.567 . S
C1871 C1870 1.400 . S
C1871 C1872 1.373 . S
C1871 C1893 1.432 . S
C1872 C1871 1.373 . S
C1872 C1873 1.339 . S
C1872 C1875 1.530 . S
C1873 C1868 1.304 . S
C1873 C1872 1.339 . S
C1873 H1934 0.930 . S
C1874 C1870 1.567 . S
C1874 H1935 0.961 . S
C1874 H1936 0.960 . S
C1874 H1937 0.958 . S
C1875 C1872 1.530 . S
C1875 H1938 0.961 . S
C1875 H1939 0.960 . S
C1875 H1940 0.960 . S
C1876 C1877 1.530 . S
C1876 H1942 0.961 . S
C1876 H1943 0.961 . S
C1876 H1944 0.959 . S
C1877 C1876 1.530 . S
C1877 O1905 1.412 . S
C1877 H1941 0.980 . S
C1878 C1879 1.288 . S
C1878 C1883 1.377 . S
C1878 O1905 1.393 . S
C1879 C1878 1.288 . S
C1879 C1880 1.369 . S
C1879 H1945 0.932 . S
C1880 C1879 1.369 . S
C1880 C1881 1.398 . S
C1880 C1884 1.527 . S
C1881 C1880 1.398 . S
C1881 C1882 1.380 . S
C1881 C1895 1.497 . S
C1882 C1881 1.380 . S
C1882 C1883 1.383 . S
C1882 C1885 1.603 . S
C1883 C1878 1.377 . S
C1883 C1882 1.383 . S
C1883 H1946 0.929 . S
C1884 C1880 1.527 . S
C1884 H1947 0.961 . S
C1884 H1948 0.959 . S
C1884 H1949 0.959 . S
C1885 C1882 1.603 . S
C1885 H1950 0.960 . S
C1885 H1951 0.962 . S
C1885 H1952 0.961 . S
C1886 C1853 1.587 . S
C1886 C1887 1.360 . S
C1886 C1899 1.412 . S
C1887 C1886 1.360 . S
C1887 C1888 1.365 . S
C1887 H1953 0.929 . S
C1888 C1863 1.553 . S
C1888 C1887 1.365 . S
C1888 C1889 1.404 . S
C1889 C1888 1.404 . S
C1889 C1890 1.395 . S
C1889 C1900 1.451 . S
C1890 C1889 1.395 . S
C1890 C1891 1.322 . S
C1890 H1954 0.930 . S
C1891 C1890 1.322 . S
C1891 C1892 1.459 . S
C1891 H1955 0.929 . S
C1892 C1891 1.459 . S
C1892 C1893 1.445 . S
C1892 C1901 1.395 . S
C1893 C1871 1.432 . S
C1893 C1892 1.445 . S
C1893 C1894 1.370 . S
C1894 C1893 1.370 . S
C1894 C1895 1.438 . S
C1894 H1956 0.930 . S
C1895 C1881 1.497 . S
C1895 C1894 1.438 . S
C1895 C1896 1.360 . S
C1896 C1895 1.360 . S
C1896 C1897 1.401 . S
C1896 C1901 1.446 . S
C1897 C1896 1.401 . S
C1897 C1898 1.347 . S
C1897 H1957 0.929 . S
C1898 C1897 1.347 . S
C1898 C1899 1.455 . S
C1898 H1958 0.930 . S
C1899 C1886 1.412 . S
C1899 C1898 1.455 . S
C1899 C1900 1.331 . S
C1900 C1889 1.451 . S
C1900 C1899 1.331 . S
C1900 C1901 1.497 . S
C1901 C1892 1.395 . S
C1901 C1896 1.446 . S
C1901 C1900 1.497 . S
C1902 C1903 1.582 . S
C1902 H1959 0.962 . S
C1902 H1960 0.959 . S
C1902 H1961 0.958 . S
C1903 C1902 1.582 . S
C1903 O1906 1.458 . S
C1903 H1932 0.980 . S
O1904 C1849 1.426 . S
O1904 C1850 1.334 . S
O1905 C1877 1.412 . S
O1905 C1878 1.393 . S
O1906 C1868 1.435 . S
O1906 C1903 1.458 . S
O1907 C1859 1.468 . S
O1907 C1860 1.408 . S
H1908 C1849 0.980 . S
H1909 C1848 0.959 . S
H1910 C1848 0.959 . S
H1911 C1848 0.960 . S
H1912 C1851 0.929 . S
H1913 C1855 0.929 . S
H1914 C1856 0.959 . S
H1915 C1856 0.961 . S
H1916 C1856 0.961 . S
H1917 C1857 0.960 . S
H1918 C1857 0.960 . S
H1919 C1857 0.961 . S
H1920 C1859 0.980 . S
H1921 C1858 0.961 . S
H1922 C1858 0.960 . S
H1923 C1858 0.959 . S
H1924 C1861 0.930 . S
H1925 C1865 0.931 . S
H1926 C1866 0.959 . S
H1927 C1866 0.961 . S
H1928 C1866 0.959 . S
H1929 C1867 0.960 . S
H1930 C1867 0.960 . S
H1931 C1867 0.960 . S
H1932 C1903 0.980 . S
H1933 C1869 0.930 . S
H1934 C1873 0.930 . S
H1935 C1874 0.961 . S
H1936 C1874 0.960 . S
H1937 C1874 0.958 . S
H1938 C1875 0.961 . S
H1939 C1875 0.960 . S
H1940 C1875 0.960 . S
H1941 C1877 0.980 . S
H1942 C1876 0.961 . S
H1943 C1876 0.961 . S
H1944 C1876 0.959 . S
H1945 C1879 0.932 . S
H1946 C1883 0.929 . S
H1947 C1884 0.961 . S
H1948 C1884 0.959 . S
H1949 C1884 0.959 . S
H1950 C1885 0.960 . S
H1951 C1885 0.962 . S
H1952 C1885 0.961 . S
H1953 C1887 0.929 . S
H1954 C1890 0.930 . S
H1955 C1891 0.929 . S
H1956 C1894 0.930 . S
H1957 C1897 0.929 . S
H1958 C1898 0.930 . S
H1959 C1902 0.962 . S
H1960 C1902 0.959 . S
H1961 C1902 0.958 . S
C1962 C1963 1.560 . S
C1962 H2023 0.959 . S
C1962 H2024 0.959 . S
C1962 H2025 0.960 . S
C1963 C1962 1.560 . S
C1963 O2018 1.426 . S
C1963 H2022 0.980 . S
C1964 C1965 1.407 . S
C1964 C1969 1.418 . S
C1964 O2018 1.334 . S
C1965 C1964 1.407 . S
C1965 C1966 1.360 . S
C1965 H2026 0.929 . S
C1966 C1965 1.360 . S
C1966 C1967 1.401 . S
C1966 C1970 1.527 . S
C1967 C1966 1.401 . S
C1967 C1968 1.405 . S
C1967 C2000 1.587 . S
C1968 C1967 1.405 . S
C1968 C1969 1.332 . S
C1968 C1971 1.496 . S
C1969 C1964 1.418 . S
C1969 C1968 1.332 . S
C1969 H2027 0.929 . S
C1970 C1966 1.527 . S
C1970 H2028 0.959 . S
C1970 H2029 0.961 . S
C1970 H2030 0.961 . S
C1971 C1968 1.496 . S
C1971 H2031 0.960 . S
C1971 H2032 0.960 . S
C1971 H2033 0.961 . S
C1972 C1973 1.517 . S
C1972 H2035 0.961 . S
C1972 H2036 0.960 . S
C1972 H2037 0.959 . S
C1973 C1972 1.517 . S
C1973 O2021 1.468 . S
C1973 H2034 0.980 . S
C1974 C1975 1.349 . S
C1974 C1979 1.367 . S
C1974 O2021 1.408 . S
C1975 C1974 1.349 . S
C1975 C1976 1.407 . S
C1975 H2038 0.930 . S
C1976 C1975 1.407 . S
C1976 C1977 1.449 . S
C1976 C1980 1.535 . S
C1977 C1976 1.449 . S
C1977 C1978 1.384 . S
C1977 C2002 1.553 . S
C1978 C1977 1.384 . S
C1978 C1979 1.364 . S
C1978 C1981 1.450 . S
C1979 C1974 1.367 . S
C1979 C1978 1.364 . S
C1979 H2039 0.931 . S
C1980 C1976 1.535 . S
C1980 H2040 0.959 . S
C1980 H2041 0.961 . S
C1980 H2042 0.959 . S
C1981 C1978 1.450 . S
C1981 H2043 0.960 . S
C1981 H2044 0.960 . S
C1981 H2045 0.960 . S
C1982 C1983 1.309 . S
C1982 C1987 1.304 . S
C1982 O2020 1.435 . S
C1983 C1982 1.309 . S
C1983 C1984 1.476 . S
C1983 H2047 0.930 . S
C1984 C1983 1.476 . S
C1984 C1985 1.400 . S
C1984 C1988 1.567 . S
C1985 C1984 1.400 . S
C1985 C1986 1.373 . S
C1985 C2007 1.432 . S
C1986 C1985 1.373 . S
C1986 C1987 1.339 . S
C1986 C1989 1.530 . S
C1987 C1982 1.304 . S
C1987 C1986 1.339 . S
C1987 H2048 0.930 . S
C1988 C1984 1.567 . S
C1988 H2049 0.961 . S
C1988 H2050 0.960 . S
C1988 H2051 0.958 . S
C1989 C1986 1.530 . S
C1989 H2052 0.961 . S
C1989 H2053 0.960 . S
C1989 H2054 0.960 . S
C1990 C1991 1.530 . S
C1990 H2056 0.961 . S
C1990 H2057 0.961 . S
C1990 H2058 0.959 . S
C1991 C1990 1.530 . S
C1991 O2019 1.412 . S
C1991 H2055 0.980 . S
C1992 C1993 1.288 . S
C1992 C1997 1.377 . S
C1992 O2019 1.393 . S
C1993 C1992 1.288 . S
C1993 C1994 1.369 . S
C1993 H2059 0.932 . S
C1994 C1993 1.369 . S
C1994 C1995 1.398 . S
C1994 C1998 1.527 . S
C1995 C1994 1.398 . S
C1995 C1996 1.380 . S
C1995 C2009 1.497 . S
C1996 C1995 1.380 . S
C1996 C1997 1.383 . S
C1996 C1999 1.603 . S
C1997 C1992 1.377 . S
C1997 C1996 1.383 . S
C1997 H2060 0.929 . S
C1998 C1994 1.527 . S
C1998 H2061 0.961 . S
C1998 H2062 0.959 . S
C1998 H2063 0.959 . S
C1999 C1996 1.603 . S
C1999 H2064 0.960 . S
C1999 H2065 0.962 . S
C1999 H2066 0.961 . S
C2000 C1967 1.587 . S
C2000 C2001 1.360 . S
C2000 C2013 1.412 . S
C2001 C2000 1.360 . S
C2001 C2002 1.365 . S
C2001 H2067 0.929 . S
C2002 C1977 1.553 . S
C2002 C2001 1.365 . S
C2002 C2003 1.404 . S
C2003 C2002 1.404 . S
C2003 C2004 1.395 . S
C2003 C2014 1.451 . S
C2004 C2003 1.395 . S
C2004 C2005 1.322 . S
C2004 H2068 0.930 . S
C2005 C2004 1.322 . S
C2005 C2006 1.459 . S
C2005 H2069 0.929 . S
C2006 C2005 1.459 . S
C2006 C2007 1.445 . S
C2006 C2015 1.395 . S
C2007 C1985 1.432 . S
C2007 C2006 1.445 . S
C2007 C2008 1.370 . S
C2008 C2007 1.370 . S
C2008 C2009 1.438 . S
C2008 H2070 0.930 . S
C2009 C1995 1.497 . S
C2009 C2008 1.438 . S
C2009 C2010 1.360 . S
C2010 C2009 1.360 . S
C2010 C2011 1.401 . S
C2010 C2015 1.446 . S
C2011 C2010 1.401 . S
C2011 C2012 1.347 . S
C2011 H2071 0.929 . S
C2012 C2011 1.347 . S
C2012 C2013 1.455 . S
C2012 H2072 0.930 . S
C2013 C2000 1.412 . S
C2013 C2012 1.455 . S
C2013 C2014 1.331 . S
C2014 C2003 1.451 . S
C2014 C2013 1.331 . S
C2014 C2015 1.497 . S
C2015 C2006 1.395 . S
C2015 C2010 1.446 . S
C2015 C2014 1.497 . S
C2016 C2017 1.582 . S
C2016 H2073 0.962 . S
C2016 H2074 0.959 . S
C2016 H2075 0.958 . S
C2017 C2016 1.582 . S
C2017 O2020 1.458 . S
C2017 H2046 0.980 . S
O2018 C1963 1.426 . S
O2018 C1964 1.334 . S
O2019 C1991 1.412 . S
O2019 C1992 1.393 . S
O2020 C1982 1.435 . S
O2020 C2017 1.458 . S
O2021 C1973 1.468 . S
O2021 C1974 1.408 . S
H2022 C1963 0.980 . S
H2023 C1962 0.959 . S
H2024 C1962 0.959 . S
H2025 C1962 0.960 . S
H2026 C1965 0.929 . S
H2027 C1969 0.929 . S
H2028 C1970 0.959 . S
H2029 C1970 0.961 . S
H2030 C1970 0.961 . S
H2031 C1971 0.960 . S
H2032 C1971 0.960 . S
H2033 C1971 0.961 . S
H2034 C1973 0.980 . S
H2035 C1972 0.961 . S
H2036 C1972 0.960 . S
H2037 C1972 0.959 . S
H2038 C1975 0.930 . S
H2039 C1979 0.931 . S
H2040 C1980 0.959 . S
H2041 C1980 0.961 . S
H2042 C1980 0.959 . S
H2043 C1981 0.960 . S
H2044 C1981 0.960 . S
H2045 C1981 0.960 . S
H2046 C2017 0.980 . S
H2047 C1983 0.930 . S
H2048 C1987 0.930 . S
H2049 C1988 0.961 . S
H2050 C1988 0.960 . S
H2051 C1988 0.958 . S
H2052 C1989 0.961 . S
H2053 C1989 0.960 . S
H2054 C1989 0.960 . S
H2055 C1991 0.980 . S
H2056 C1990 0.961 . S
H2057 C1990 0.961 . S
H2058 C1990 0.959 . S
H2059 C1993 0.932 . S
H2060 C1997 0.929 . S
H2061 C1998 0.961 . S
H2062 C1998 0.959 . S
H2063 C1998 0.959 . S
H2064 C1999 0.960 . S
H2065 C1999 0.962 . S
H2066 C1999 0.961 . S
H2067 C2001 0.929 . S
H2068 C2004 0.930 . S
H2069 C2005 0.929 . S
H2070 C2008 0.930 . S
H2071 C2011 0.929 . S
H2072 C2012 0.930 . S
H2073 C2016 0.962 . S
H2074 C2016 0.959 . S
H2075 C2016 0.958 . S
C2076 C2077 1.560 . S
C2076 H2137 0.959 . S
C2076 H2138 0.959 . S
C2076 H2139 0.960 . S
C2077 C2076 1.560 . S
C2077 O2132 1.426 . S
C2077 H2136 0.980 . S
C2078 C2079 1.407 . S
C2078 C2083 1.418 . S
C2078 O2132 1.334 . S
C2079 C2078 1.407 . S
C2079 C2080 1.360 . S
C2079 H2140 0.929 . S
C2080 C2079 1.360 . S
C2080 C2081 1.401 . S
C2080 C2084 1.527 . S
C2081 C2080 1.401 . S
C2081 C2082 1.405 . S
C2081 C2114 1.587 . S
C2082 C2081 1.405 . S
C2082 C2083 1.332 . S
C2082 C2085 1.496 . S
C2083 C2078 1.418 . S
C2083 C2082 1.332 . S
C2083 H2141 0.929 . S
C2084 C2080 1.527 . S
C2084 H2142 0.959 . S
C2084 H2143 0.961 . S
C2084 H2144 0.961 . S
C2085 C2082 1.496 . S
C2085 H2145 0.960 . S
C2085 H2146 0.960 . S
C2085 H2147 0.961 . S
C2086 C2087 1.517 . S
C2086 H2149 0.961 . S
C2086 H2150 0.960 . S
C2086 H2151 0.959 . S
C2087 C2086 1.517 . S
C2087 O2135 1.468 . S
C2087 H2148 0.980 . S
C2088 C2089 1.349 . S
C2088 C2093 1.367 . S
C2088 O2135 1.408 . S
C2089 C2088 1.349 . S
C2089 C2090 1.407 . S
C2089 H2152 0.930 . S
C2090 C2089 1.407 . S
C2090 C2091 1.449 . S
C2090 C2094 1.535 . S
C2091 C2090 1.449 . S
C2091 C2092 1.384 . S
C2091 C2116 1.553 . S
C2092 C2091 1.384 . S
C2092 C2093 1.364 . S
C2092 C2095 1.450 . S
C2093 C2088 1.367 . S
C2093 C2092 1.364 . S
C2093 H2153 0.931 . S
C2094 C2090 1.535 . S
C2094 H2154 0.959 . S
C2094 H2155 0.961 . S
C2094 H2156 0.959 . S
C2095 C2092 1.450 . S
C2095 H2157 0.960 . S
C2095 H2158 0.960 . S
C2095 H2159 0.960 . S
C2096 C2097 1.309 . S
C2096 C2101 1.304 . S
C2096 O2134 1.435 . S
C2097 C2096 1.309 . S
C2097 C2098 1.476 . S
C2097 H2161 0.930 . S
C2098 C2097 1.476 . S
C2098 C2099 1.400 . S
C2098 C2102 1.567 . S
C2099 C2098 1.400 . S
C2099 C2100 1.373 . S
C2099 C2121 1.432 . S
C2100 C2099 1.373 . S
C2100 C2101 1.339 . S
C2100 C2103 1.530 . S
C2101 C2096 1.304 . S
C2101 C2100 1.339 . S
C2101 H2162 0.930 . S
C2102 C2098 1.567 . S
C2102 H2163 0.961 . S
C2102 H2164 0.960 . S
C2102 H2165 0.958 . S
C2103 C2100 1.530 . S
C2103 H2166 0.961 . S
C2103 H2167 0.960 . S
C2103 H2168 0.960 . S
C2104 C2105 1.530 . S
C2104 H2170 0.961 . S
C2104 H2171 0.961 . S
C2104 H2172 0.959 . S
C2105 C2104 1.530 . S
C2105 O2133 1.412 . S
C2105 H2169 0.980 . S
C2106 C2107 1.288 . S
C2106 C2111 1.377 . S
C2106 O2133 1.393 . S
C2107 C2106 1.288 . S
C2107 C2108 1.369 . S
C2107 H2173 0.932 . S
C2108 C2107 1.369 . S
C2108 C2109 1.398 . S
C2108 C2112 1.527 . S
C2109 C2108 1.398 . S
C2109 C2110 1.380 . S
C2109 C2123 1.497 . S
C2110 C2109 1.380 . S
C2110 C2111 1.383 . S
C2110 C2113 1.603 . S
C2111 C2106 1.377 . S
C2111 C2110 1.383 . S
C2111 H2174 0.929 . S
C2112 C2108 1.527 . S
C2112 H2175 0.961 . S
C2112 H2176 0.959 . S
C2112 H2177 0.959 . S
C2113 C2110 1.603 . S
C2113 H2178 0.960 . S
C2113 H2179 0.962 . S
C2113 H2180 0.961 . S
C2114 C2081 1.587 . S
C2114 C2115 1.360 . S
C2114 C2127 1.412 . S
C2115 C2114 1.360 . S
C2115 C2116 1.365 . S
C2115 H2181 0.929 . S
C2116 C2091 1.553 . S
C2116 C2115 1.365 . S
C2116 C2117 1.404 . S
C2117 C2116 1.404 . S
C2117 C2118 1.395 . S
C2117 C2128 1.451 . S
C2118 C2117 1.395 . S
C2118 C2119 1.322 . S
C2118 H2182 0.930 . S
C2119 C2118 1.322 . S
C2119 C2120 1.459 . S
C2119 H2183 0.929 . S
C2120 C2119 1.459 . S
C2120 C2121 1.445 . S
C2120 C2129 1.395 . S
C2121 C2099 1.432 . S
C2121 C2120 1.445 . S
C2121 C2122 1.370 . S
C2122 C2121 1.370 . S
C2122 C2123 1.438 . S
C2122 H2184 0.930 . S
C2123 C2109 1.497 . S
C2123 C2122 1.438 . S
C2123 C2124 1.360 . S
C2124 C2123 1.360 . S
C2124 C2125 1.401 . S
C2124 C2129 1.446 . S
C2125 C2124 1.401 . S
C2125 C2126 1.347 . S
C2125 H2185 0.929 . S
C2126 C2125 1.347 . S
C2126 C2127 1.455 . S
C2126 H2186 0.930 . S
C2127 C2114 1.412 . S
C2127 C2126 1.455 . S
C2127 C2128 1.331 . S
C2128 C2117 1.451 . S
C2128 C2127 1.331 . S
C2128 C2129 1.497 . S
C2129 C2120 1.395 . S
C2129 C2124 1.446 . S
C2129 C2128 1.497 . S
C2130 C2131 1.582 . S
C2130 H2187 0.962 . S
C2130 H2188 0.959 . S
C2130 H2189 0.958 . S
C2131 C2130 1.582 . S
C2131 O2134 1.458 . S
C2131 H2160 0.980 . S
O2132 C2077 1.426 . S
O2132 C2078 1.334 . S
O2133 C2105 1.412 . S
O2133 C2106 1.393 . S
O2134 C2096 1.435 . S
O2134 C2131 1.458 . S
O2135 C2087 1.468 . S
O2135 C2088 1.408 . S
H2136 C2077 0.980 . S
H2137 C2076 0.959 . S
H2138 C2076 0.959 . S
H2139 C2076 0.960 . S
H2140 C2079 0.929 . S
H2141 C2083 0.929 . S
H2142 C2084 0.959 . S
H2143 C2084 0.961 . S
H2144 C2084 0.961 . S
H2145 C2085 0.960 . S
H2146 C2085 0.960 . S
H2147 C2085 0.961 . S
H2148 C2087 0.980 . S
H2149 C2086 0.961 . S
H2150 C2086 0.960 . S
H2151 C2086 0.959 . S
H2152 C2089 0.930 . S
H2153 C2093 0.931 . S
H2154 C2094 0.959 . S
H2155 C2094 0.961 . S
H2156 C2094 0.959 . S
H2157 C2095 0.960 . S
H2158 C2095 0.960 . S
H2159 C2095 0.960 . S
H2160 C2131 0.980 . S
H2161 C2097 0.930 . S
H2162 C2101 0.930 . S
H2163 C2102 0.961 . S
H2164 C2102 0.960 . S
H2165 C2102 0.958 . S
H2166 C2103 0.961 . S
H2167 C2103 0.960 . S
H2168 C2103 0.960 . S
H2169 C2105 0.980 . S
H2170 C2104 0.961 . S
H2171 C2104 0.961 . S
H2172 C2104 0.959 . S
H2173 C2107 0.932 . S
H2174 C2111 0.929 . S
H2175 C2112 0.961 . S
H2176 C2112 0.959 . S
H2177 C2112 0.959 . S
H2178 C2113 0.960 . S
H2179 C2113 0.962 . S
H2180 C2113 0.961 . S
H2181 C2115 0.929 . S
H2182 C2118 0.930 . S
H2183 C2119 0.929 . S
H2184 C2122 0.930 . S
H2185 C2125 0.929 . S
H2186 C2126 0.930 . S
H2187 C2130 0.962 . S
H2188 C2130 0.959 . S
H2189 C2130 0.958 . S
C2190 C2191 1.560 . S
C2190 H2251 0.959 . S
C2190 H2252 0.959 . S
C2190 H2253 0.960 . S
C2191 C2190 1.560 . S
C2191 O2246 1.426 . S
C2191 H2250 0.980 . S
C2192 C2193 1.407 . S
C2192 C2197 1.418 . S
C2192 O2246 1.334 . S
C2193 C2192 1.407 . S
C2193 C2194 1.360 . S
C2193 H2254 0.929 . S
C2194 C2193 1.360 . S
C2194 C2195 1.401 . S
C2194 C2198 1.527 . S
C2195 C2194 1.401 . S
C2195 C2196 1.405 . S
C2195 C2228 1.587 . S
C2196 C2195 1.405 . S
C2196 C2197 1.332 . S
C2196 C2199 1.496 . S
C2197 C2192 1.418 . S
C2197 C2196 1.332 . S
C2197 H2255 0.929 . S
C2198 C2194 1.527 . S
C2198 H2256 0.959 . S
C2198 H2257 0.961 . S
C2198 H2258 0.961 . S
C2199 C2196 1.496 . S
C2199 H2259 0.960 . S
C2199 H2260 0.960 . S
C2199 H2261 0.961 . S
C2200 C2201 1.517 . S
C2200 H2263 0.961 . S
C2200 H2264 0.960 . S
C2200 H2265 0.959 . S
C2201 C2200 1.517 . S
C2201 O2249 1.468 . S
C2201 H2262 0.980 . S
C2202 C2203 1.349 . S
C2202 C2207 1.367 . S
C2202 O2249 1.408 . S
C2203 C2202 1.349 . S
C2203 C2204 1.407 . S
C2203 H2266 0.930 . S
C2204 C2203 1.407 . S
C2204 C2205 1.449 . S
C2204 C2208 1.535 . S
C2205 C2204 1.449 . S
C2205 C2206 1.384 . S
C2205 C2230 1.553 . S
C2206 C2205 1.384 . S
C2206 C2207 1.364 . S
C2206 C2209 1.450 . S
C2207 C2202 1.367 . S
C2207 C2206 1.364 . S
C2207 H2267 0.931 . S
C2208 C2204 1.535 . S
C2208 H2268 0.959 . S
C2208 H2269 0.961 . S
C2208 H2270 0.959 . S
C2209 C2206 1.450 . S
C2209 H2271 0.960 . S
C2209 H2272 0.960 . S
C2209 H2273 0.960 . S
C2210 C2211 1.309 . S
C2210 C2215 1.304 . S
C2210 O2248 1.435 . S
C2211 C2210 1.309 . S
C2211 C2212 1.476 . S
C2211 H2275 0.930 . S
C2212 C2211 1.476 . S
C2212 C2213 1.400 . S
C2212 C2216 1.567 . S
C2213 C2212 1.400 . S
C2213 C2214 1.373 . S
C2213 C2235 1.432 . S
C2214 C2213 1.373 . S
C2214 C2215 1.339 . S
C2214 C2217 1.530 . S
C2215 C2210 1.304 . S
C2215 C2214 1.339 . S
C2215 H2276 0.930 . S
C2216 C2212 1.567 . S
C2216 H2277 0.961 . S
C2216 H2278 0.960 . S
C2216 H2279 0.958 . S
C2217 C2214 1.530 . S
C2217 H2280 0.961 . S
C2217 H2281 0.960 . S
C2217 H2282 0.960 . S
C2218 C2219 1.530 . S
C2218 H2284 0.961 . S
C2218 H2285 0.961 . S
C2218 H2286 0.959 . S
C2219 C2218 1.530 . S
C2219 O2247 1.412 . S
C2219 H2283 0.980 . S
C2220 C2221 1.288 . S
C2220 C2225 1.377 . S
C2220 O2247 1.393 . S
C2221 C2220 1.288 . S
C2221 C2222 1.369 . S
C2221 H2287 0.932 . S
C2222 C2221 1.369 . S
C2222 C2223 1.398 . S
C2222 C2226 1.527 . S
C2223 C2222 1.398 . S
C2223 C2224 1.380 . S
C2223 C2237 1.497 . S
C2224 C2223 1.380 . S
C2224 C2225 1.383 . S
C2224 C2227 1.603 . S
C2225 C2220 1.377 . S
C2225 C2224 1.383 . S
C2225 H2288 0.929 . S
C2226 C2222 1.527 . S
C2226 H2289 0.961 . S
C2226 H2290 0.959 . S
C2226 H2291 0.959 . S
C2227 C2224 1.603 . S
C2227 H2292 0.960 . S
C2227 H2293 0.962 . S
C2227 H2294 0.961 . S
C2228 C2195 1.587 . S
C2228 C2229 1.360 . S
C2228 C2241 1.412 . S
C2229 C2228 1.360 . S
C2229 C2230 1.365 . S
C2229 H2295 0.929 . S
C2230 C2205 1.553 . S
C2230 C2229 1.365 . S
C2230 C2231 1.404 . S
C2231 C2230 1.404 . S
C2231 C2232 1.395 . S
C2231 C2242 1.451 . S
C2232 C2231 1.395 . S
C2232 C2233 1.322 . S
C2232 H2296 0.930 . S
C2233 C2232 1.322 . S
C2233 C2234 1.459 . S
C2233 H2297 0.929 . S
C2234 C2233 1.459 . S
C2234 C2235 1.445 . S
C2234 C2243 1.395 . S
C2235 C2213 1.432 . S
C2235 C2234 1.445 . S
C2235 C2236 1.370 . S
C2236 C2235 1.370 . S
C2236 C2237 1.438 . S
C2236 H2298 0.930 . S
C2237 C2223 1.497 . S
C2237 C2236 1.438 . S
C2237 C2238 1.360 . S
C2238 C2237 1.360 . S
C2238 C2239 1.401 . S
C2238 C2243 1.446 . S
C2239 C2238 1.401 . S
C2239 C2240 1.347 . S
C2239 H2299 0.929 . S
C2240 C2239 1.347 . S
C2240 C2241 1.455 . S
C2240 H2300 0.930 . S
C2241 C2228 1.412 . S
C2241 C2240 1.455 . S
C2241 C2242 1.331 . S
C2242 C2231 1.451 . S
C2242 C2241 1.331 . S
C2242 C2243 1.497 . S
C2243 C2234 1.395 . S
C2243 C2238 1.446 . S
C2243 C2242 1.497 . S
C2244 C2245 1.582 . S
C2244 H2301 0.962 . S
C2244 H2302 0.959 . S
C2244 H2303 0.958 . S
C2245 C2244 1.582 . S
C2245 O2248 1.458 . S
C2245 H2274 0.980 . S
O2246 C2191 1.426 . S
O2246 C2192 1.334 . S
O2247 C2219 1.412 . S
O2247 C2220 1.393 . S
O2248 C2210 1.435 . S
O2248 C2245 1.458 . S
O2249 C2201 1.468 . S
O2249 C2202 1.408 . S
H2250 C2191 0.980 . S
H2251 C2190 0.959 . S
H2252 C2190 0.959 . S
H2253 C2190 0.960 . S
H2254 C2193 0.929 . S
H2255 C2197 0.929 . S
H2256 C2198 0.959 . S
H2257 C2198 0.961 . S
H2258 C2198 0.961 . S
H2259 C2199 0.960 . S
H2260 C2199 0.960 . S
H2261 C2199 0.961 . S
H2262 C2201 0.980 . S
H2263 C2200 0.961 . S
H2264 C2200 0.960 . S
H2265 C2200 0.959 . S
H2266 C2203 0.930 . S
H2267 C2207 0.931 . S
H2268 C2208 0.959 . S
H2269 C2208 0.961 . S
H2270 C2208 0.959 . S
H2271 C2209 0.960 . S
H2272 C2209 0.960 . S
H2273 C2209 0.960 . S
H2274 C2245 0.980 . S
H2275 C2211 0.930 . S
H2276 C2215 0.930 . S
H2277 C2216 0.961 . S
H2278 C2216 0.960 . S
H2279 C2216 0.958 . S
H2280 C2217 0.961 . S
H2281 C2217 0.960 . S
H2282 C2217 0.960 . S
H2283 C2219 0.980 . S
H2284 C2218 0.961 . S
H2285 C2218 0.961 . S
H2286 C2218 0.959 . S
H2287 C2221 0.932 . S
H2288 C2225 0.929 . S
H2289 C2226 0.961 . S
H2290 C2226 0.959 . S
H2291 C2226 0.959 . S
H2292 C2227 0.960 . S
H2293 C2227 0.962 . S
H2294 C2227 0.961 . S
H2295 C2229 0.929 . S
H2296 C2232 0.930 . S
H2297 C2233 0.929 . S
H2298 C2236 0.930 . S
H2299 C2239 0.929 . S
H2300 C2240 0.930 . S
H2301 C2244 0.962 . S
H2302 C2244 0.959 . S
H2303 C2244 0.958 . S
H2304 C2312 0.950 . S
H2305 C2317 0.950 . S
H2306 C2314 0.950 . S
H2307 C2316 0.950 . S
H2308 C2318 0.950 . S
H2309 C2320 0.950 . S
H2310 C2322 0.950 . S
H2311 C2323 0.950 . S
C2312 H2304 0.950 . S
C2312 C2313 1.386 . S
C2312 C2314 1.391 . S
C2313 C2312 1.386 . S
C2313 C2317 1.393 1_655 S
C2314 H2306 0.950 . S
C2314 C2312 1.391 . S
C2314 C2315 1.400 . S
C2315 C2314 1.400 . S
C2315 C2316 1.398 1_655 S
C2315 C2321 1.491 . S
C2316 H2307 0.950 . S
C2316 C2315 1.398 1_455 S
C2316 C2317 1.391 . S
C2317 H2305 0.950 . S
C2317 C2313 1.393 1_455 S
C2317 C2316 1.391 . S
C2318 H2308 0.950 . S
C2318 C2319 1.386 1_455 S
C2318 C2320 1.391 . S
C2319 C2318 1.386 1_655 S
C2319 C2323 1.393 . S
C2320 H2309 0.950 . S
C2320 C2318 1.391 . S
C2320 C2321 1.400 1_455 S
C2321 C2315 1.491 . S
C2321 C2320 1.400 1_655 S
C2321 C2322 1.398 . S
C2322 H2310 0.950 . S
C2322 C2321 1.398 . S
C2322 C2323 1.391 . S
C2323 H2311 0.950 . S
C2323 C2319 1.393 . S
C2323 C2322 1.391 . S
H2324 C2332 0.950 . S
H2325 C2337 0.950 . S
H2326 C2334 0.950 . S
H2327 C2336 0.950 . S
H2328 C2338 0.950 . S
H2329 C2340 0.950 . S
H2330 C2342 0.950 . S
H2331 C2343 0.950 . S
C2332 H2324 0.950 . S
C2332 C2333 1.386 . S
C2332 C2334 1.391 . S
C2333 C2332 1.386 . S
C2333 C2337 1.393 . S
C2334 H2326 0.950 . S
C2334 C2332 1.391 . S
C2334 C2335 1.400 . S
C2335 C2334 1.400 . S
C2335 C2336 1.398 . S
C2335 C2341 1.491 . S
C2336 H2327 0.950 . S
C2336 C2335 1.398 . S
C2336 C2337 1.391 . S
C2337 H2325 0.950 . S
C2337 C2333 1.393 . S
C2337 C2336 1.391 . S
C2338 H2328 0.950 . S
C2338 C2339 1.386 . S
C2338 C2340 1.391 . S
C2339 C2338 1.386 . S
C2339 C2343 1.393 . S
C2340 H2329 0.950 . S
C2340 C2338 1.391 . S
C2340 C2341 1.400 . S
C2341 C2335 1.491 . S
C2341 C2340 1.400 . S
C2341 C2342 1.398 . S
C2342 H2330 0.950 . S
C2342 C2341 1.398 . S
C2342 C2343 1.391 . S
C2343 H2331 0.950 . S
C2343 C2339 1.393 . S
C2343 C2342 1.391 . S
H2344 C2352 0.950 . S
H2345 C2357 0.950 . S
H2346 C2354 0.950 . S
H2347 C2356 0.950 . S
H2348 C2358 0.950 . S
H2349 C2360 0.950 . S
H2350 C2362 0.950 . S
H2351 C2363 0.950 . S
C2352 H2344 0.950 . S
C2352 C2353 1.386 . S
C2352 C2354 1.391 . S
C2353 C2352 1.386 . S
C2353 C2357 1.393 1_545 S
C2354 H2346 0.950 . S
C2354 C2352 1.391 . S
C2354 C2355 1.400 . S
C2355 C2354 1.400 . S
C2355 C2356 1.398 1_545 S
C2355 C2361 1.491 . S
C2356 H2347 0.950 . S
C2356 C2355 1.398 1_565 S
C2356 C2357 1.391 . S
C2357 H2345 0.950 . S
C2357 C2353 1.393 1_565 S
C2357 C2356 1.391 . S
C2358 H2348 0.950 . S
C2358 C2359 1.386 1_565 S
C2358 C2360 1.391 . S
C2359 C2358 1.386 1_545 S
C2359 C2363 1.393 . S
C2360 H2349 0.950 . S
C2360 C2358 1.391 . S
C2360 C2361 1.400 1_565 S
C2361 C2355 1.491 . S
C2361 C2360 1.400 1_545 S
C2361 C2362 1.398 . S
C2362 H2350 0.950 . S
C2362 C2361 1.398 . S
C2362 C2363 1.391 . S
C2363 H2351 0.950 . S
C2363 C2359 1.393 . S
C2363 C2362 1.391 . S
H2364 C2372 0.950 . S
H2365 C2377 0.950 . S
H2366 C2374 0.950 . S
H2367 C2376 0.950 . S
H2368 C2378 0.950 . S
H2369 C2380 0.950 . S
H2370 C2382 0.950 . S
H2371 C2383 0.950 . S
C2372 H2364 0.950 . S
C2372 C2373 1.386 1_545 S
C2372 C2374 1.391 . S
C2373 C2372 1.386 1_565 S
C2373 C2377 1.393 . S
C2374 H2366 0.950 . S
C2374 C2372 1.391 . S
C2374 C2375 1.400 1_545 S
C2375 C2374 1.400 1_565 S
C2375 C2376 1.398 . S
C2375 C2381 1.491 . S
C2376 H2367 0.950 . S
C2376 C2375 1.398 . S
C2376 C2377 1.391 . S
C2377 H2365 0.950 . S
C2377 C2373 1.393 . S
C2377 C2376 1.391 . S
C2378 H2368 0.950 . S
C2378 C2379 1.386 . S
C2378 C2380 1.391 . S
C2379 C2378 1.386 . S
C2379 C2383 1.393 1_565 S
C2380 H2369 0.950 . S
C2380 C2378 1.391 . S
C2380 C2381 1.400 . S
C2381 C2375 1.491 . S
C2381 C2380 1.400 . S
C2381 C2382 1.398 1_565 S
C2382 H2370 0.950 . S
C2382 C2381 1.398 1_545 S
C2382 C2383 1.391 . S
C2383 H2371 0.950 . S
C2383 C2379 1.393 1_545 S
C2383 C2382 1.391 . S
H2384 C2392 0.950 . S
H2385 C2397 0.950 . S
H2386 C2394 0.950 . S
H2387 C2396 0.950 . S
H2388 C2398 0.950 . S
H2389 C2400 0.950 . S
H2390 C2402 0.950 . S
H2391 C2403 0.950 . S
C2392 H2384 0.950 . S
C2392 C2393 1.386 . S
C2392 C2394 1.391 . S
C2393 C2392 1.386 . S
C2393 C2397 1.393 . S
C2394 H2386 0.950 . S
C2394 C2392 1.391 . S
C2394 C2395 1.400 . S
C2395 C2394 1.400 . S
C2395 C2396 1.398 . S
C2395 C2401 1.491 . S
C2396 H2387 0.950 . S
C2396 C2395 1.398 . S
C2396 C2397 1.391 . S
C2397 H2385 0.950 . S
C2397 C2393 1.393 . S
C2397 C2396 1.391 . S
C2398 H2388 0.950 . S
C2398 C2399 1.386 . S
C2398 C2400 1.391 . S
C2399 C2398 1.386 . S
C2399 C2403 1.393 . S
C2400 H2389 0.950 . S
C2400 C2398 1.391 . S
C2400 C2401 1.400 . S
C2401 C2395 1.491 . S
C2401 C2400 1.400 . S
C2401 C2402 1.398 . S
C2402 H2390 0.950 . S
C2402 C2401 1.398 . S
C2402 C2403 1.391 . S
C2403 H2391 0.950 . S
C2403 C2399 1.393 . S
C2403 C2402 1.391 . S
H2404 C2412 0.950 . S
H2405 C2417 0.950 . S
H2406 C2414 0.950 . S
H2407 C2416 0.950 . S
H2408 C2418 0.950 . S
H2409 C2420 0.950 . S
H2410 C2422 0.950 . S
H2411 C2423 0.950 . S
C2412 H2404 0.950 . S
C2412 C2413 1.386 . S
C2412 C2414 1.391 . S
C2413 C2412 1.386 . S
C2413 C2417 1.393 . S
C2414 H2406 0.950 . S
C2414 C2412 1.391 . S
C2414 C2415 1.400 . S
C2415 C2414 1.400 . S
C2415 C2416 1.398 . S
C2415 C2421 1.491 . S
C2416 H2407 0.950 . S
C2416 C2415 1.398 . S
C2416 C2417 1.391 . S
C2417 H2405 0.950 . S
C2417 C2413 1.393 . S
C2417 C2416 1.391 . S
C2418 H2408 0.950 . S
C2418 C2419 1.386 . S
C2418 C2420 1.391 . S
C2419 C2418 1.386 . S
C2419 C2423 1.393 . S
C2420 H2409 0.950 . S
C2420 C2418 1.391 . S
C2420 C2421 1.400 . S
C2421 C2415 1.491 . S
C2421 C2420 1.400 . S
C2421 C2422 1.398 . S
C2422 H2410 0.950 . S
C2422 C2421 1.398 . S
C2422 C2423 1.391 . S
C2423 H2411 0.950 . S
C2423 C2419 1.393 . S
C2423 C2422 1.391 . S
H2424 C2432 0.951 . S
H2425 C2437 0.950 . S
H2426 C2434 0.950 1_655 S
H2427 C2436 0.950 . S
H2428 C2438 0.950 . S
H2429 C2440 0.950 . S
H2430 C2442 0.950 1_655 S
H2431 C2443 0.950 . S
C2432 H2424 0.951 . S
C2432 C2433 1.386 . S
C2432 C2434 1.391 . S
C2433 C2432 1.386 . S
C2433 C2437 1.393 . S
C2434 H2426 0.950 1_455 S
C2434 C2432 1.391 . S
C2434 C2435 1.400 . S
C2435 C2434 1.400 . S
C2435 C2436 1.398 . S
C2435 C2441 1.491 . S
C2436 H2427 0.950 . S
C2436 C2435 1.398 . S
C2436 C2437 1.391 . S
C2437 H2425 0.950 . S
C2437 C2433 1.393 . S
C2437 C2436 1.391 . S
C2438 H2428 0.950 . S
C2438 C2439 1.386 . S
C2438 C2440 1.391 . S
C2439 C2438 1.386 . S
C2439 C2443 1.393 1_455 S
C2440 H2429 0.950 . S
C2440 C2438 1.391 . S
C2440 C2441 1.400 . S
C2441 C2435 1.491 . S
C2441 C2440 1.400 . S
C2441 C2442 1.394 . S
C2442 H2430 0.950 1_455 S
C2442 C2441 1.394 . S
C2442 C2443 1.395 1_455 S
C2443 H2431 0.950 . S
C2443 C2439 1.393 1_655 S
C2443 C2442 1.395 1_655 S
H2444 C2452 0.950 . S
H2445 C2457 0.950 . S
H2446 C2454 0.950 . S
H2447 C2456 0.950 . S
H2448 C2458 0.950 . S
H2449 C2460 0.950 . S
H2450 C2462 0.950 . S
H2451 C2463 0.950 . S
C2452 H2444 0.950 . S
C2452 C2453 1.386 . S
C2452 C2454 1.391 . S
C2453 C2452 1.386 . S
C2453 C2457 1.393 . S
C2454 H2446 0.950 . S
C2454 C2452 1.391 . S
C2454 C2455 1.400 . S
C2455 C2454 1.400 . S
C2455 C2456 1.398 . S
C2455 C2461 1.491 . S
C2456 H2447 0.950 . S
C2456 C2455 1.398 . S
C2456 C2457 1.391 . S
C2457 H2445 0.950 . S
C2457 C2453 1.393 . S
C2457 C2456 1.391 . S
C2458 H2448 0.950 . S
C2458 C2459 1.386 . S
C2458 C2460 1.391 . S
C2459 C2458 1.386 . S
C2459 C2463 1.393 . S
C2460 H2449 0.950 . S
C2460 C2458 1.391 . S
C2460 C2461 1.400 . S
C2461 C2455 1.491 . S
C2461 C2460 1.400 . S
C2461 C2462 1.398 . S
C2462 H2450 0.950 . S
C2462 C2461 1.398 . S
C2462 C2463 1.391 . S
C2463 H2451 0.950 . S
C2463 C2459 1.393 . S
C2463 C2462 1.391 . S
H2464 C2472 0.950 . S
H2465 C2477 0.950 . S
H2466 C2474 0.950 . S
H2467 C2476 0.950 . S
H2468 C2478 0.950 . S
H2469 C2480 0.950 . S
H2470 C2482 0.950 . S
H2471 C2483 0.950 . S
C2472 H2464 0.950 . S
C2472 C2473 1.386 1_545 S
C2472 C2474 1.391 . S
C2473 C2472 1.386 1_565 S
C2473 C2477 1.393 . S
C2474 H2466 0.950 . S
C2474 C2472 1.391 . S
C2474 C2475 1.400 1_545 S
C2475 C2474 1.400 1_565 S
C2475 C2476 1.398 . S
C2475 C2481 1.491 . S
C2476 H2467 0.950 . S
C2476 C2475 1.398 . S
C2476 C2477 1.391 . S
C2477 H2465 0.950 . S
C2477 C2473 1.393 . S
C2477 C2476 1.391 . S
C2478 H2468 0.950 . S
C2478 C2479 1.386 . S
C2478 C2480 1.391 . S
C2479 C2478 1.386 . S
C2479 C2483 1.393 1_565 S
C2480 H2469 0.950 . S
C2480 C2478 1.391 . S
C2480 C2481 1.400 . S
C2481 C2475 1.491 . S
C2481 C2480 1.400 . S
C2481 C2482 1.398 1_565 S
C2482 H2470 0.950 . S
C2482 C2481 1.398 1_545 S
C2482 C2483 1.391 . S
C2483 H2471 0.950 . S
C2483 C2479 1.393 1_545 S
C2483 C2482 1.391 . S
H2484 C2492 0.950 . S
H2485 C2497 0.950 . S
H2486 C2494 0.950 . S
H2487 C2496 0.922 1_565 S
H2488 C2498 0.950 . S
H2489 C2500 0.954 . S
H2490 C2502 0.950 . S
H2491 C2503 0.950 . S
C2492 H2484 0.950 . S
C2492 C2493 1.386 . S
C2492 C2494 1.391 . S
C2493 C2492 1.386 . S
C2493 C2497 1.393 . S
C2494 H2486 0.950 . S
C2494 C2492 1.391 . S
C2494 C2495 1.400 . S
C2495 C2494 1.400 . S
C2495 C2496 1.452 . S
C2495 C2501 1.491 . S
C2496 H2487 0.922 1_545 S
C2496 C2495 1.452 . S
C2496 C2497 1.371 . S
C2497 H2485 0.950 . S
C2497 C2493 1.393 . S
C2497 C2496 1.371 . S
C2498 H2488 0.950 . S
C2498 C2499 1.386 1_565 S
C2498 C2500 1.389 . S
C2499 C2498 1.386 1_545 S
C2499 C2503 1.393 . S
C2500 H2489 0.954 . S
C2500 C2498 1.389 . S
C2500 C2501 1.398 1_565 S
C2501 C2495 1.491 . S
C2501 C2500 1.398 1_545 S
C2501 C2502 1.398 . S
C2502 H2490 0.950 . S
C2502 C2501 1.398 . S
C2502 C2503 1.391 . S
C2503 H2491 0.950 . S
C2503 C2499 1.393 . S
C2503 C2502 1.391 . S
H2504 C2512 0.950 . S
H2505 C2517 0.950 . S
H2506 C2514 0.950 . S
H2507 C2516 0.950 . S
H2508 C2518 0.950 . S
H2509 C2520 0.950 . S
H2510 C2522 0.950 . S
H2511 C2523 0.950 . S
C2512 H2504 0.950 . S
C2512 C2513 1.386 1_455 S
C2512 C2514 1.391 . S
C2513 C2512 1.386 1_655 S
C2513 C2517 1.393 . S
C2514 H2506 0.950 . S
C2514 C2512 1.391 . S
C2514 C2515 1.400 1_455 S
C2515 C2514 1.400 1_655 S
C2515 C2516 1.398 . S
C2515 C2521 1.491 . S
C2516 H2507 0.950 . S
C2516 C2515 1.398 . S
C2516 C2517 1.391 . S
C2517 H2505 0.950 . S
C2517 C2513 1.393 . S
C2517 C2516 1.391 . S
C2518 H2508 0.950 . S
C2518 C2519 1.386 . S
C2518 C2520 1.391 . S
C2519 C2518 1.386 . S
C2519 C2523 1.393 1_655 S
C2520 H2509 0.950 . S
C2520 C2518 1.391 . S
C2520 C2521 1.400 . S
C2521 C2515 1.491 . S
C2521 C2520 1.400 . S
C2521 C2522 1.398 1_655 S
C2522 H2510 0.950 . S
C2522 C2521 1.398 1_455 S
C2522 C2523 1.391 . S
C2523 H2511 0.950 . S
C2523 C2519 1.393 1_455 S
C2523 C2522 1.391 . S
H2524 C2532 0.950 . S
H2525 C2537 0.950 . S
H2526 C2534 0.950 . S
H2527 C2536 0.950 . S
H2528 C2538 0.950 . S
H2529 C2540 0.950 . S
H2530 C2542 0.950 . S
H2531 C2543 0.950 . S
C2532 H2524 0.950 . S
C2532 C2533 1.386 . S
C2532 C2534 1.391 . S
C2533 C2532 1.386 . S
C2533 C2537 1.393 . S
C2534 H2526 0.950 . S
C2534 C2532 1.391 . S
C2534 C2535 1.400 . S
C2535 C2534 1.400 . S
C2535 C2536 1.398 . S
C2535 C2541 1.491 . S
C2536 H2527 0.950 . S
C2536 C2535 1.398 . S
C2536 C2537 1.391 . S
C2537 H2525 0.950 . S
C2537 C2533 1.393 . S
C2537 C2536 1.391 . S
C2538 H2528 0.950 . S
C2538 C2539 1.386 . S
C2538 C2540 1.391 . S
C2539 C2538 1.386 . S
C2539 C2543 1.393 . S
C2540 H2529 0.950 . S
C2540 C2538 1.391 . S
C2540 C2541 1.400 . S
C2541 C2535 1.491 . S
C2541 C2540 1.400 . S
C2541 C2542 1.398 . S
C2542 H2530 0.950 . S
C2542 C2541 1.398 . S
C2542 C2543 1.391 . S
C2543 H2531 0.950 . S
C2543 C2539 1.393 . S
C2543 C2542 1.391 . S
H2544 C2552 0.950 . S
H2545 C2557 0.950 . S
H2546 C2554 0.950 . S
H2547 C2556 0.950 . S
H2548 C2558 0.950 . S
H2549 C2560 0.950 . S
H2550 C2562 0.950 . S
H2551 C2563 0.950 . S
C2552 H2544 0.950 . S
C2552 C2553 1.386 . S
C2552 C2554 1.391 . S
C2553 C2552 1.386 . S
C2553 C2557 1.393 . S
C2554 H2546 0.950 . S
C2554 C2552 1.391 . S
C2554 C2555 1.400 . S
C2555 C2554 1.400 . S
C2555 C2556 1.398 . S
C2555 C2561 1.491 . S
C2556 H2547 0.950 . S
C2556 C2555 1.398 . S
C2556 C2557 1.391 . S
C2557 H2545 0.950 . S
C2557 C2553 1.393 . S
C2557 C2556 1.391 . S
C2558 H2548 0.950 . S
C2558 C2559 1.386 . S
C2558 C2560 1.391 . S
C2559 C2558 1.386 . S
C2559 C2563 1.393 . S
C2560 H2549 0.950 . S
C2560 C2558 1.391 . S
C2560 C2561 1.400 . S
C2561 C2555 1.491 . S
C2561 C2560 1.400 . S
C2561 C2562 1.398 . S
C2562 H2550 0.950 . S
C2562 C2561 1.398 . S
C2562 C2563 1.391 . S
C2563 H2551 0.950 . S
C2563 C2559 1.393 . S
C2563 C2562 1.391 . S
H2564 C2572 0.950 . S
H2565 C2577 0.950 . S
H2566 C2574 0.950 . S
H2567 C2576 0.950 . S
H2568 C2578 0.950 . S
H2569 C2580 0.950 . S
H2570 C2582 0.950 . S
H2571 C2583 0.950 . S
C2572 H2564 0.950 . S
C2572 C2573 1.386 . S
C2572 C2574 1.391 . S
C2573 C2572 1.386 . S
C2573 C2577 1.393 . S
C2574 H2566 0.950 . S
C2574 C2572 1.391 . S
C2574 C2575 1.400 . S
C2575 C2574 1.400 . S
C2575 C2576 1.398 . S
C2575 C2581 1.491 . S
C2576 H2567 0.950 . S
C2576 C2575 1.398 . S
C2576 C2577 1.391 . S
C2577 H2565 0.950 . S
C2577 C2573 1.393 . S
C2577 C2576 1.391 . S
C2578 H2568 0.950 . S
C2578 C2579 1.386 . S
C2578 C2580 1.391 . S
C2579 C2578 1.386 . S
C2579 C2583 1.393 . S
C2580 H2569 0.950 . S
C2580 C2578 1.391 . S
C2580 C2581 1.400 . S
C2581 C2575 1.491 . S
C2581 C2580 1.400 . S
C2581 C2582 1.398 . S
C2582 H2570 0.950 . S
C2582 C2581 1.398 . S
C2582 C2583 1.391 . S
C2583 H2571 0.950 . S
C2583 C2579 1.393 . S
C2583 C2582 1.391 . S
H2584 C2592 0.950 . S
H2585 C2597 0.950 . S
H2586 C2594 0.950 . S
H2587 C2596 0.950 . S
H2588 C2598 0.950 . S
H2589 C2600 0.950 . S
H2590 C2602 0.950 . S
H2591 C2603 0.950 . S
C2592 H2584 0.950 . S
C2592 C2593 1.386 . S
C2592 C2594 1.391 . S
C2593 C2592 1.386 . S
C2593 C2597 1.393 . S
C2594 H2586 0.950 . S
C2594 C2592 1.391 . S
C2594 C2595 1.400 . S
C2595 C2594 1.400 . S
C2595 C2596 1.398 . S
C2595 C2601 1.491 . S
C2596 H2587 0.950 . S
C2596 C2595 1.398 . S
C2596 C2597 1.391 . S
C2597 H2585 0.950 . S
C2597 C2593 1.393 . S
C2597 C2596 1.391 . S
C2598 H2588 0.950 . S
C2598 C2599 1.386 . S
C2598 C2600 1.391 . S
C2599 C2598 1.386 . S
C2599 C2603 1.393 . S
C2600 H2589 0.950 . S
C2600 C2598 1.391 . S
C2600 C2601 1.400 . S
C2601 C2595 1.491 . S
C2601 C2600 1.400 . S
C2601 C2602 1.398 . S
C2602 H2590 0.950 . S
C2602 C2601 1.398 . S
C2602 C2603 1.391 . S
C2603 H2591 0.950 . S
C2603 C2599 1.393 . S
C2603 C2602 1.391 . S
H2604 C2612 0.950 . S
H2605 C2617 0.950 . S
H2606 C2614 0.950 . S
H2607 C2616 0.950 . S
H2608 C2618 0.950 . S
H2609 C2620 0.950 . S
H2610 C2622 0.950 . S
H2611 C2623 0.950 . S
C2612 H2604 0.950 . S
C2612 C2613 1.386 . S
C2612 C2614 1.391 . S
C2613 C2612 1.386 . S
C2613 C2617 1.393 . S
C2614 H2606 0.950 . S
C2614 C2612 1.391 . S
C2614 C2615 1.400 . S
C2615 C2614 1.400 . S
C2615 C2616 1.398 . S
C2615 C2621 1.491 . S
C2616 H2607 0.950 . S
C2616 C2615 1.398 . S
C2616 C2617 1.391 . S
C2617 H2605 0.950 . S
C2617 C2613 1.393 . S
C2617 C2616 1.391 . S
C2618 H2608 0.950 . S
C2618 C2619 1.386 . S
C2618 C2620 1.391 . S
C2619 C2618 1.386 . S
C2619 C2623 1.393 . S
C2620 H2609 0.950 . S
C2620 C2618 1.391 . S
C2620 C2621 1.400 . S
C2621 C2615 1.491 . S
C2621 C2620 1.400 . S
C2621 C2622 1.398 . S
C2622 H2610 0.950 . S
C2622 C2621 1.398 . S
C2622 C2623 1.391 . S
C2623 H2611 0.950 . S
C2623 C2619 1.393 . S
C2623 C2622 1.391 . S
H2624 C2632 0.950 . S
H2625 C2637 0.950 . S
H2626 C2634 0.950 . S
H2627 C2636 0.950 . S
H2628 C2638 0.950 . S
H2629 C2640 0.950 . S
H2630 C2642 0.950 . S
H2631 C2643 0.950 . S
C2632 H2624 0.950 . S
C2632 C2633 1.386 . S
C2632 C2634 1.391 . S
C2633 C2632 1.386 . S
C2633 C2637 1.393 . S
C2634 H2626 0.950 . S
C2634 C2632 1.391 . S
C2634 C2635 1.400 . S
C2635 C2634 1.400 . S
C2635 C2636 1.398 . S
C2635 C2641 1.491 . S
C2636 H2627 0.950 . S
C2636 C2635 1.398 . S
C2636 C2637 1.391 . S
C2637 H2625 0.950 . S
C2637 C2633 1.393 . S
C2637 C2636 1.391 . S
C2638 H2628 0.950 . S
C2638 C2639 1.386 . S
C2638 C2640 1.391 . S
C2639 C2638 1.386 . S
C2639 C2643 1.393 . S
C2640 H2629 0.950 . S
C2640 C2638 1.391 . S
C2640 C2641 1.400 . S
C2641 C2635 1.491 . S
C2641 C2640 1.400 . S
C2641 C2642 1.398 . S
C2642 H2630 0.950 . S
C2642 C2641 1.398 . S
C2642 C2643 1.391 . S
C2643 H2631 0.950 . S
C2643 C2639 1.393 . S
C2643 C2642 1.391 . S
H2644 C2652 0.950 . S
H2645 C2657 0.950 . S
H2646 C2654 0.950 . S
H2647 C2656 0.950 . S
H2648 C2658 0.950 . S
H2649 C2660 0.950 . S
H2650 C2662 0.950 . S
H2651 C2663 0.950 . S
C2652 H2644 0.950 . S
C2652 C2653 1.386 . S
C2652 C2654 1.391 . S
C2653 C2652 1.386 . S
C2653 C2657 1.393 . S
C2654 H2646 0.950 . S
C2654 C2652 1.391 . S
C2654 C2655 1.400 . S
C2655 C2654 1.400 . S
C2655 C2656 1.398 . S
C2655 C2661 1.491 . S
C2656 H2647 0.950 . S
C2656 C2655 1.398 . S
C2656 C2657 1.391 . S
C2657 H2645 0.950 . S
C2657 C2653 1.393 . S
C2657 C2656 1.391 . S
C2658 H2648 0.950 . S
C2658 C2659 1.386 . S
C2658 C2660 1.391 . S
C2659 C2658 1.386 . S
C2659 C2663 1.393 . S
C2660 H2649 0.950 . S
C2660 C2658 1.391 . S
C2660 C2661 1.400 . S
C2661 C2655 1.491 . S
C2661 C2660 1.400 . S
C2661 C2662 1.398 . S
C2662 H2650 0.950 . S
C2662 C2661 1.398 . S
C2662 C2663 1.391 . S
C2663 H2651 0.950 . S
C2663 C2659 1.393 . S
C2663 C2662 1.391 . S
H2664 C2672 0.950 . S
H2665 C2677 0.950 . S
H2666 C2674 0.950 . S
H2667 C2676 0.950 . S
H2668 C2678 0.950 . S
H2669 C2680 0.950 . S
H2670 C2682 0.950 . S
H2671 C2683 0.950 . S
C2672 H2664 0.950 . S
C2672 C2673 1.386 . S
C2672 C2674 1.391 . S
C2673 C2672 1.386 . S
C2673 C2677 1.393 . S
C2674 H2666 0.950 . S
C2674 C2672 1.391 . S
C2674 C2675 1.400 . S
C2675 C2674 1.400 . S
C2675 C2676 1.398 . S
C2675 C2681 1.491 . S
C2676 H2667 0.950 . S
C2676 C2675 1.398 . S
C2676 C2677 1.391 . S
C2677 H2665 0.950 . S
C2677 C2673 1.393 . S
C2677 C2676 1.391 . S
C2678 H2668 0.950 . S
C2678 C2679 1.386 . S
C2678 C2680 1.391 . S
C2679 C2678 1.386 . S
C2679 C2683 1.393 . S
C2680 H2669 0.950 . S
C2680 C2678 1.391 . S
C2680 C2681 1.400 . S
C2681 C2675 1.491 . S
C2681 C2680 1.400 . S
C2681 C2682 1.398 . S
C2682 H2670 0.950 . S
C2682 C2681 1.398 . S
C2682 C2683 1.391 . S
C2683 H2671 0.950 . S
C2683 C2679 1.393 . S
C2683 C2682 1.391 . S
H2684 C2692 0.950 . S
H2685 C2697 0.950 . S
H2686 C2694 0.950 . S
H2687 C2696 0.950 . S
H2688 C2698 0.950 . S
H2689 C2700 0.950 . S
H2690 C2702 0.950 . S
H2691 C2703 0.950 . S
C2692 H2684 0.950 . S
C2692 C2693 1.386 . S
C2692 C2694 1.391 . S
C2693 C2692 1.386 . S
C2693 C2697 1.393 . S
C2694 H2686 0.950 . S
C2694 C2692 1.391 . S
C2694 C2695 1.400 . S
C2695 C2694 1.400 . S
C2695 C2696 1.398 . S
C2695 C2701 1.491 . S
C2696 H2687 0.950 . S
C2696 C2695 1.398 . S
C2696 C2697 1.391 . S
C2697 H2685 0.950 . S
C2697 C2693 1.393 . S
C2697 C2696 1.391 . S
C2698 H2688 0.950 . S
C2698 C2699 1.386 . S
C2698 C2700 1.391 . S
C2699 C2698 1.386 . S
C2699 C2703 1.393 . S
C2700 H2689 0.950 . S
C2700 C2698 1.391 . S
C2700 C2701 1.400 . S
C2701 C2695 1.491 . S
C2701 C2700 1.400 . S
C2701 C2702 1.398 . S
C2702 H2690 0.950 . S
C2702 C2701 1.398 . S
C2702 C2703 1.391 . S
C2703 H2691 0.950 . S
C2703 C2699 1.393 . S
C2703 C2702 1.391 . S
H2704 C2712 0.950 . S
H2705 C2717 0.950 . S
H2706 C2714 0.950 . S
H2707 C2716 0.950 . S
H2708 C2718 0.950 . S
H2709 C2720 0.950 . S
H2710 C2722 0.950 . S
H2711 C2723 0.950 . S
C2712 H2704 0.950 . S
C2712 C2713 1.386 . S
C2712 C2714 1.391 . S
C2713 C2712 1.386 . S
C2713 C2717 1.393 . S
C2714 H2706 0.950 . S
C2714 C2712 1.391 . S
C2714 C2715 1.400 . S
C2715 C2714 1.400 . S
C2715 C2716 1.398 . S
C2715 C2721 1.491 . S
C2716 H2707 0.950 . S
C2716 C2715 1.398 . S
C2716 C2717 1.391 . S
C2717 H2705 0.950 . S
C2717 C2713 1.393 . S
C2717 C2716 1.391 . S
C2718 H2708 0.950 . S
C2718 C2719 1.386 . S
C2718 C2720 1.391 . S
C2719 C2718 1.386 . S
C2719 C2723 1.393 . S
C2720 H2709 0.950 . S
C2720 C2718 1.391 . S
C2720 C2721 1.400 . S
C2721 C2715 1.491 . S
C2721 C2720 1.400 . S
C2721 C2722 1.398 . S
C2722 H2710 0.950 . S
C2722 C2721 1.398 . S
C2722 C2723 1.391 . S
C2723 H2711 0.950 . S
C2723 C2719 1.393 . S
C2723 C2722 1.391 . S
H2724 C2732 0.950 . S
H2725 C2737 0.950 . S
H2726 C2734 0.950 . S
H2727 C2736 0.950 . S
H2728 C2738 0.950 . S
H2729 C2740 0.950 . S
H2730 C2742 0.950 . S
H2731 C2743 0.950 . S
C2732 H2724 0.950 . S
C2732 C2733 1.386 . S
C2732 C2734 1.391 . S
C2733 C2732 1.386 . S
C2733 C2737 1.393 . S
C2734 H2726 0.950 . S
C2734 C2732 1.391 . S
C2734 C2735 1.400 . S
C2735 C2734 1.400 . S
C2735 C2736 1.398 . S
C2735 C2741 1.491 . S
C2736 H2727 0.950 . S
C2736 C2735 1.398 . S
C2736 C2737 1.391 . S
C2737 H2725 0.950 . S
C2737 C2733 1.393 . S
C2737 C2736 1.391 . S
C2738 H2728 0.950 . S
C2738 C2739 1.386 . S
C2738 C2740 1.391 . S
C2739 C2738 1.386 . S
C2739 C2743 1.393 . S
C2740 H2729 0.950 . S
C2740 C2738 1.391 . S
C2740 C2741 1.400 . S
C2741 C2735 1.491 . S
C2741 C2740 1.400 . S
C2741 C2742 1.398 . S
C2742 H2730 0.950 . S
C2742 C2741 1.398 . S
C2742 C2743 1.391 . S
C2743 H2731 0.950 . S
C2743 C2739 1.393 . S
C2743 C2742 1.391 . S
H2744 C2752 0.950 . S
H2745 C2757 0.950 . S
H2746 C2754 0.950 . S
H2747 C2756 0.950 . S
H2748 C2758 0.950 . S
H2749 C2760 0.950 . S
H2750 C2762 0.950 . S
H2751 C2763 0.950 . S
C2752 H2744 0.950 . S
C2752 C2753 1.386 . S
C2752 C2754 1.391 . S
C2753 C2752 1.386 . S
C2753 C2757 1.393 . S
C2754 H2746 0.950 . S
C2754 C2752 1.391 . S
C2754 C2755 1.400 . S
C2755 C2754 1.400 . S
C2755 C2756 1.398 . S
C2755 C2761 1.491 . S
C2756 H2747 0.950 . S
C2756 C2755 1.398 . S
C2756 C2757 1.391 . S
C2757 H2745 0.950 . S
C2757 C2753 1.393 . S
C2757 C2756 1.391 . S
C2758 H2748 0.950 . S
C2758 C2759 1.386 . S
C2758 C2760 1.391 . S
C2759 C2758 1.386 . S
C2759 C2763 1.393 . S
C2760 H2749 0.950 . S
C2760 C2758 1.391 . S
C2760 C2761 1.400 . S
C2761 C2755 1.491 . S
C2761 C2760 1.400 . S
C2761 C2762 1.398 . S
C2762 H2750 0.950 . S
C2762 C2761 1.398 . S
C2762 C2763 1.391 . S
C2763 H2751 0.950 . S
C2763 C2759 1.393 . S
C2763 C2762 1.391 . S
H2764 C2772 0.950 . S
H2765 C2777 0.950 . S
H2766 C2774 0.950 . S
H2767 C2776 0.950 . S
H2768 C2778 0.950 . S
H2769 C2780 0.950 . S
H2770 C2782 0.950 . S
H2771 C2783 0.950 . S
C2772 H2764 0.950 . S
C2772 C2773 1.386 . S
C2772 C2774 1.391 . S
C2773 C2772 1.386 . S
C2773 C2777 1.393 . S
C2774 H2766 0.950 . S
C2774 C2772 1.391 . S
C2774 C2775 1.400 . S
C2775 C2774 1.400 . S
C2775 C2776 1.398 . S
C2775 C2781 1.491 . S
C2776 H2767 0.950 . S
C2776 C2775 1.398 . S
C2776 C2777 1.391 . S
C2777 H2765 0.950 . S
C2777 C2773 1.393 . S
C2777 C2776 1.391 . S
C2778 H2768 0.950 . S
C2778 C2779 1.386 . S
C2778 C2780 1.391 . S
C2779 C2778 1.386 . S
C2779 C2783 1.393 . S
C2780 H2769 0.950 . S
C2780 C2778 1.391 . S
C2780 C2781 1.400 . S
C2781 C2775 1.491 . S
C2781 C2780 1.400 . S
C2781 C2782 1.398 . S
C2782 H2770 0.950 . S
C2782 C2781 1.398 . S
C2782 C2783 1.391 . S
C2783 H2771 0.950 . S
C2783 C2779 1.393 . S
C2783 C2782 1.391 . S
H2784 C2792 0.950 . S
H2785 C2797 0.950 . S
H2786 C2794 0.950 . S
H2787 C2796 0.950 . S
H2788 C2798 0.950 . S
H2789 C2800 0.950 . S
H2790 C2802 0.950 . S
H2791 C2803 0.950 . S
C2792 H2784 0.950 . S
C2792 C2793 1.386 . S
C2792 C2794 1.391 . S
C2793 C2792 1.386 . S
C2793 C2797 1.393 . S
C2794 H2786 0.950 . S
C2794 C2792 1.391 . S
C2794 C2795 1.400 . S
C2795 C2794 1.400 . S
C2795 C2796 1.398 . S
C2795 C2801 1.491 . S
C2796 H2787 0.950 . S
C2796 C2795 1.398 . S
C2796 C2797 1.391 . S
C2797 H2785 0.950 . S
C2797 C2793 1.393 . S
C2797 C2796 1.391 . S
C2798 H2788 0.950 . S
C2798 C2799 1.386 . S
C2798 C2800 1.391 . S
C2799 C2798 1.386 . S
C2799 C2803 1.393 . S
C2800 H2789 0.950 . S
C2800 C2798 1.391 . S
C2800 C2801 1.400 . S
C2801 C2795 1.491 . S
C2801 C2800 1.400 . S
C2801 C2802 1.398 . S
C2802 H2790 0.950 . S
C2802 C2801 1.398 . S
C2802 C2803 1.391 . S
C2803 H2791 0.950 . S
C2803 C2799 1.393 . S
C2803 C2802 1.391 . S
H2804 C2812 0.950 . S
H2805 C2817 0.950 . S
H2806 C2814 0.950 . S
H2807 C2816 0.950 . S
H2808 C2818 0.950 . S
H2809 C2820 0.950 . S
H2810 C2822 0.950 . S
H2811 C2823 0.950 . S
C2812 H2804 0.950 . S
C2812 C2813 1.386 . S
C2812 C2814 1.391 . S
C2813 C2812 1.386 . S
C2813 C2817 1.393 . S
C2814 H2806 0.950 . S
C2814 C2812 1.391 . S
C2814 C2815 1.400 . S
C2815 C2814 1.400 . S
C2815 C2816 1.398 . S
C2815 C2821 1.491 . S
C2816 H2807 0.950 . S
C2816 C2815 1.398 . S
C2816 C2817 1.391 . S
C2817 H2805 0.950 . S
C2817 C2813 1.393 . S
C2817 C2816 1.391 . S
C2818 H2808 0.950 . S
C2818 C2819 1.386 . S
C2818 C2820 1.391 . S
C2819 C2818 1.386 . S
C2819 C2823 1.393 . S
C2820 H2809 0.950 . S
C2820 C2818 1.391 . S
C2820 C2821 1.400 . S
C2821 C2815 1.491 . S
C2821 C2820 1.400 . S
C2821 C2822 1.398 . S
C2822 H2810 0.950 . S
C2822 C2821 1.398 . S
C2822 C2823 1.391 . S
C2823 H2811 0.950 . S
C2823 C2819 1.393 . S
C2823 C2822 1.391 . S
H2824 C2832 0.950 . S
H2825 C2837 0.950 . S
H2826 C2834 0.950 . S
H2827 C2836 0.950 . S
H2828 C2838 0.950 . S
H2829 C2840 0.950 . S
H2830 C2842 0.950 . S
H2831 C2843 0.950 . S
C2832 H2824 0.950 . S
C2832 C2833 1.386 . S
C2832 C2834 1.391 . S
C2833 C2832 1.386 . S
C2833 C2837 1.393 . S
C2834 H2826 0.950 . S
C2834 C2832 1.391 . S
C2834 C2835 1.400 . S
C2835 C2834 1.400 . S
C2835 C2836 1.398 . S
C2835 C2841 1.491 . S
C2836 H2827 0.950 . S
C2836 C2835 1.398 . S
C2836 C2837 1.391 . S
C2837 H2825 0.950 . S
C2837 C2833 1.393 . S
C2837 C2836 1.391 . S
C2838 H2828 0.950 . S
C2838 C2839 1.386 . S
C2838 C2840 1.391 . S
C2839 C2838 1.386 . S
C2839 C2843 1.393 . S
C2840 H2829 0.950 . S
C2840 C2838 1.391 . S
C2840 C2841 1.400 . S
C2841 C2835 1.491 . S
C2841 C2840 1.400 . S
C2841 C2842 1.398 . S
C2842 H2830 0.950 . S
C2842 C2841 1.398 . S
C2842 C2843 1.391 . S
C2843 H2831 0.950 . S
C2843 C2839 1.393 . S
C2843 C2842 1.391 . S
H2844 C2852 0.950 . S
H2845 C2857 0.950 . S
H2846 C2854 0.950 . S
H2847 C2856 0.950 . S
H2848 C2858 0.950 . S
H2849 C2860 0.950 . S
H2850 C2862 0.950 . S
H2851 C2863 0.950 . S
C2852 H2844 0.950 . S
C2852 C2853 1.386 . S
C2852 C2854 1.391 . S
C2853 C2852 1.386 . S
C2853 C2857 1.393 . S
C2854 H2846 0.950 . S
C2854 C2852 1.391 . S
C2854 C2855 1.400 . S
C2855 C2854 1.400 . S
C2855 C2856 1.398 . S
C2855 C2861 1.491 . S
C2856 H2847 0.950 . S
C2856 C2855 1.398 . S
C2856 C2857 1.391 . S
C2857 H2845 0.950 . S
C2857 C2853 1.393 . S
C2857 C2856 1.391 . S
C2858 H2848 0.950 . S
C2858 C2859 1.386 . S
C2858 C2860 1.391 . S
C2859 C2858 1.386 . S
C2859 C2863 1.393 . S
C2860 H2849 0.950 . S
C2860 C2858 1.391 . S
C2860 C2861 1.400 . S
C2861 C2855 1.491 . S
C2861 C2860 1.400 . S
C2861 C2862 1.398 . S
C2862 H2850 0.950 . S
C2862 C2861 1.398 . S
C2862 C2863 1.391 . S
C2863 H2851 0.950 . S
C2863 C2859 1.393 . S
C2863 C2862 1.391 . S
H2864 C2872 0.950 . S
H2865 C2877 0.950 . S
H2866 C2874 0.950 . S
H2867 C2876 0.950 . S
H2868 C2878 0.950 . S
H2869 C2880 0.950 . S
H2870 C2882 0.950 . S
H2871 C2883 0.950 . S
C2872 H2864 0.950 . S
C2872 C2873 1.386 . S
C2872 C2874 1.391 . S
C2873 C2872 1.386 . S
C2873 C2877 1.393 . S
C2874 H2866 0.950 . S
C2874 C2872 1.391 . S
C2874 C2875 1.400 . S
C2875 C2874 1.400 . S
C2875 C2876 1.398 . S
C2875 C2881 1.491 . S
C2876 H2867 0.950 . S
C2876 C2875 1.398 . S
C2876 C2877 1.391 . S
C2877 H2865 0.950 . S
C2877 C2873 1.393 . S
C2877 C2876 1.391 . S
C2878 H2868 0.950 . S
C2878 C2879 1.386 . S
C2878 C2880 1.391 . S
C2879 C2878 1.386 . S
C2879 C2883 1.393 . S
C2880 H2869 0.950 . S
C2880 C2878 1.391 . S
C2880 C2881 1.400 . S
C2881 C2875 1.491 . S
C2881 C2880 1.400 . S
C2881 C2882 1.398 . S
C2882 H2870 0.950 . S
C2882 C2881 1.398 . S
C2882 C2883 1.391 . S
C2883 H2871 0.950 . S
C2883 C2879 1.393 . S
C2883 C2882 1.391 . S
H2884 C2892 0.950 . S
H2885 C2897 0.950 . S
H2886 C2894 0.950 . S
H2887 C2896 0.950 . S
H2888 C2898 0.950 . S
H2889 C2900 0.950 . S
H2890 C2902 0.950 . S
H2891 C2903 0.950 . S
C2892 H2884 0.950 . S
C2892 C2893 1.386 . S
C2892 C2894 1.391 . S
C2893 C2892 1.386 . S
C2893 C2897 1.393 . S
C2894 H2886 0.950 . S
C2894 C2892 1.391 . S
C2894 C2895 1.400 . S
C2895 C2894 1.400 . S
C2895 C2896 1.398 . S
C2895 C2901 1.491 . S
C2896 H2887 0.950 . S
C2896 C2895 1.398 . S
C2896 C2897 1.391 . S
C2897 H2885 0.950 . S
C2897 C2893 1.393 . S
C2897 C2896 1.391 . S
C2898 H2888 0.950 . S
C2898 C2899 1.386 . S
C2898 C2900 1.391 . S
C2899 C2898 1.386 . S
C2899 C2903 1.393 . S
C2900 H2889 0.950 . S
C2900 C2898 1.391 . S
C2900 C2901 1.400 . S
C2901 C2895 1.491 . S
C2901 C2900 1.400 . S
C2901 C2902 1.398 . S
C2902 H2890 0.950 . S
C2902 C2901 1.398 . S
C2902 C2903 1.391 . S
C2903 H2891 0.950 . S
C2903 C2899 1.393 . S
C2903 C2902 1.391 . S
H2904 C2912 0.950 . S
H2905 C2917 0.950 . S
H2906 C2914 0.950 . S
H2907 C2916 0.950 . S
H2908 C2918 0.950 . S
H2909 C2920 0.950 . S
H2910 C2922 0.950 . S
H2911 C2923 0.950 . S
C2912 H2904 0.950 . S
C2912 C2913 1.386 . S
C2912 C2914 1.391 . S
C2913 C2912 1.386 . S
C2913 C2917 1.393 . S
C2914 H2906 0.950 . S
C2914 C2912 1.391 . S
C2914 C2915 1.400 . S
C2915 C2914 1.400 . S
C2915 C2916 1.398 . S
C2915 C2921 1.491 . S
C2916 H2907 0.950 . S
C2916 C2915 1.398 . S
C2916 C2917 1.391 . S
C2917 H2905 0.950 . S
C2917 C2913 1.393 . S
C2917 C2916 1.391 . S
C2918 H2908 0.950 . S
C2918 C2919 1.386 . S
C2918 C2920 1.391 . S
C2919 C2918 1.386 . S
C2919 C2923 1.393 . S
C2920 H2909 0.950 . S
C2920 C2918 1.391 . S
C2920 C2921 1.400 . S
C2921 C2915 1.491 . S
C2921 C2920 1.400 . S
C2921 C2922 1.398 . S
C2922 H2910 0.950 . S
C2922 C2921 1.398 . S
C2922 C2923 1.391 . S
C2923 H2911 0.950 . S
C2923 C2919 1.393 . S
C2923 C2922 1.391 . S
H2924 C2932 0.950 . S
H2925 C2937 0.950 . S
H2926 C2934 0.950 . S
H2927 C2936 0.950 . S
H2928 C2938 0.950 . S
H2929 C2940 0.950 . S
H2930 C2942 0.950 . S
H2931 C2943 0.950 . S
C2932 H2924 0.950 . S
C2932 C2933 1.386 . S
C2932 C2934 1.391 . S
C2933 C2932 1.386 . S
C2933 C2937 1.393 . S
C2934 H2926 0.950 . S
C2934 C2932 1.391 . S
C2934 C2935 1.400 . S
C2935 C2934 1.400 . S
C2935 C2936 1.398 . S
C2935 C2941 1.491 . S
C2936 H2927 0.950 . S
C2936 C2935 1.398 . S
C2936 C2937 1.391 . S
C2937 H2925 0.950 . S
C2937 C2933 1.393 . S
C2937 C2936 1.391 . S
C2938 H2928 0.950 . S
C2938 C2939 1.386 . S
C2938 C2940 1.391 . S
C2939 C2938 1.386 . S
C2939 C2943 1.393 . S
C2940 H2929 0.950 . S
C2940 C2938 1.391 . S
C2940 C2941 1.400 . S
C2941 C2935 1.491 . S
C2941 C2940 1.400 . S
C2941 C2942 1.398 . S
C2942 H2930 0.950 . S
C2942 C2941 1.398 . S
C2942 C2943 1.391 . S
C2943 H2931 0.950 . S
C2943 C2939 1.393 . S
C2943 C2942 1.391 . S
H2944 C2952 0.950 . S
H2945 C2957 0.950 . S
H2946 C2954 0.950 . S
H2947 C2956 0.950 . S
H2948 C2958 0.950 . S
H2949 C2960 0.950 . S
H2950 C2962 0.950 . S
H2951 C2963 0.950 . S
C2952 H2944 0.950 . S
C2952 C2953 1.386 . S
C2952 C2954 1.391 . S
C2953 C2952 1.386 . S
C2953 C2957 1.393 . S
C2954 H2946 0.950 . S
C2954 C2952 1.391 . S
C2954 C2955 1.400 . S
C2955 C2954 1.400 . S
C2955 C2956 1.398 . S
C2955 C2961 1.491 . S
C2956 H2947 0.950 . S
C2956 C2955 1.398 . S
C2956 C2957 1.391 . S
C2957 H2945 0.950 . S
C2957 C2953 1.393 . S
C2957 C2956 1.391 . S
C2958 H2948 0.950 . S
C2958 C2959 1.386 . S
C2958 C2960 1.391 . S
C2959 C2958 1.386 . S
C2959 C2963 1.393 . S
C2960 H2949 0.950 . S
C2960 C2958 1.391 . S
C2960 C2961 1.400 . S
C2961 C2955 1.491 . S
C2961 C2960 1.400 . S
C2961 C2962 1.398 . S
C2962 H2950 0.950 . S
C2962 C2961 1.398 . S
C2962 C2963 1.391 . S
C2963 H2951 0.950 . S
C2963 C2959 1.393 . S
C2963 C2962 1.391 . S
H2964 C2972 0.950 . S
H2965 C2977 0.950 . S
H2966 C2974 0.950 . S
H2967 C2976 0.950 . S
H2968 C2978 0.950 . S
H2969 C2980 0.950 . S
H2970 C2982 0.950 . S
H2971 C2983 0.950 . S
C2972 H2964 0.950 . S
C2972 C2973 1.386 . S
C2972 C2974 1.391 . S
C2973 C2972 1.386 . S
C2973 C2977 1.393 . S
C2974 H2966 0.950 . S
C2974 C2972 1.391 . S
C2974 C2975 1.400 . S
C2975 C2974 1.400 . S
C2975 C2976 1.398 . S
C2975 C2981 1.491 . S
C2976 H2967 0.950 . S
C2976 C2975 1.398 . S
C2976 C2977 1.391 . S
C2977 H2965 0.950 . S
C2977 C2973 1.393 . S
C2977 C2976 1.391 . S
C2978 H2968 0.950 . S
C2978 C2979 1.386 . S
C2978 C2980 1.391 . S
C2979 C2978 1.386 . S
C2979 C2983 1.393 . S
C2980 H2969 0.950 . S
C2980 C2978 1.391 . S
C2980 C2981 1.400 . S
C2981 C2975 1.491 . S
C2981 C2980 1.400 . S
C2981 C2982 1.398 . S
C2982 H2970 0.950 . S
C2982 C2981 1.398 . S
C2982 C2983 1.391 . S
C2983 H2971 0.950 . S
C2983 C2979 1.393 . S
C2983 C2982 1.391 . S
H2984 C2992 0.950 . S
H2985 C2997 0.950 . S
H2986 C2994 0.950 . S
H2987 C2996 0.950 . S
H2988 C2998 0.950 . S
H2989 C3000 0.950 . S
H2990 C3002 0.950 . S
H2991 C3003 0.950 . S
C2992 H2984 0.950 . S
C2992 C2993 1.386 . S
C2992 C2994 1.391 . S
C2993 C2992 1.386 . S
C2993 C2997 1.393 . S
C2994 H2986 0.950 . S
C2994 C2992 1.391 . S
C2994 C2995 1.400 . S
C2995 C2994 1.400 . S
C2995 C2996 1.398 . S
C2995 C3001 1.491 . S
C2996 H2987 0.950 . S
C2996 C2995 1.398 . S
C2996 C2997 1.391 . S
C2997 H2985 0.950 . S
C2997 C2993 1.393 . S
C2997 C2996 1.391 . S
C2998 H2988 0.950 . S
C2998 C2999 1.386 . S
C2998 C3000 1.391 . S
C2999 C2998 1.386 . S
C2999 C3003 1.393 . S
C3000 H2989 0.950 . S
C3000 C2998 1.391 . S
C3000 C3001 1.400 . S
C3001 C2995 1.491 . S
C3001 C3000 1.400 . S
C3001 C3002 1.398 . S
C3002 H2990 0.950 . S
C3002 C3001 1.398 . S
C3002 C3003 1.391 . S
C3003 H2991 0.950 . S
C3003 C2999 1.393 . S
C3003 C3002 1.391 . S
H3004 C3012 0.950 . S
H3005 C3017 0.950 . S
H3006 C3014 0.950 . S
H3007 C3016 0.950 . S
H3008 C3018 0.950 . S
H3009 C3020 0.950 . S
H3010 C3022 0.950 . S
H3011 C3023 0.950 . S
C3012 H3004 0.950 . S
C3012 C3013 1.386 . S
C3012 C3014 1.391 . S
C3013 C3012 1.386 . S
C3013 C3017 1.393 . S
C3014 H3006 0.950 . S
C3014 C3012 1.391 . S
C3014 C3015 1.400 . S
C3015 C3014 1.400 . S
C3015 C3016 1.398 . S
C3015 C3021 1.491 . S
C3016 H3007 0.950 . S
C3016 C3015 1.398 . S
C3016 C3017 1.391 . S
C3017 H3005 0.950 . S
C3017 C3013 1.393 . S
C3017 C3016 1.391 . S
C3018 H3008 0.950 . S
C3018 C3019 1.386 . S
C3018 C3020 1.391 . S
C3019 C3018 1.386 . S
C3019 C3023 1.393 . S
C3020 H3009 0.950 . S
C3020 C3018 1.391 . S
C3020 C3021 1.400 . S
C3021 C3015 1.491 . S
C3021 C3020 1.400 . S
C3021 C3022 1.398 . S
C3022 H3010 0.950 . S
C3022 C3021 1.398 . S
C3022 C3023 1.391 . S
C3023 H3011 0.950 . S
C3023 C3019 1.393 . S
C3023 C3022 1.391 . S
H3024 C3032 0.950 . S
H3025 C3037 0.950 . S
H3026 C3034 0.950 . S
H3027 C3036 0.950 . S
H3028 C3038 0.950 . S
H3029 C3040 0.950 . S
H3030 C3042 0.950 . S
H3031 C3043 0.950 . S
C3032 H3024 0.950 . S
C3032 C3033 1.386 . S
C3032 C3034 1.391 . S
C3033 C3032 1.386 . S
C3033 C3037 1.393 . S
C3034 H3026 0.950 . S
C3034 C3032 1.391 . S
C3034 C3035 1.400 . S
C3035 C3034 1.400 . S
C3035 C3036 1.398 . S
C3035 C3041 1.491 . S
C3036 H3027 0.950 . S
C3036 C3035 1.398 . S
C3036 C3037 1.391 . S
C3037 H3025 0.950 . S
C3037 C3033 1.393 . S
C3037 C3036 1.391 . S
C3038 H3028 0.950 . S
C3038 C3039 1.386 . S
C3038 C3040 1.391 . S
C3039 C3038 1.386 . S
C3039 C3043 1.393 . S
C3040 H3029 0.950 . S
C3040 C3038 1.391 . S
C3040 C3041 1.400 . S
C3041 C3035 1.491 . S
C3041 C3040 1.400 . S
C3041 C3042 1.398 . S
C3042 H3030 0.950 . S
C3042 C3041 1.398 . S
C3042 C3043 1.391 . S
C3043 H3031 0.950 . S
C3043 C3039 1.393 . S
C3043 C3042 1.391 . S
H3044 C3052 0.950 . S
H3045 C3057 0.950 . S
H3046 C3054 0.950 . S
H3047 C3056 0.950 . S
H3048 C3058 0.950 . S
H3049 C3060 0.950 . S
H3050 C3062 0.950 . S
H3051 C3063 0.950 . S
C3052 H3044 0.950 . S
C3052 C3053 1.386 . S
C3052 C3054 1.391 . S
C3053 C3052 1.386 . S
C3053 C3057 1.393 . S
C3054 H3046 0.950 . S
C3054 C3052 1.391 . S
C3054 C3055 1.400 . S
C3055 C3054 1.400 . S
C3055 C3056 1.398 . S
C3055 C3061 1.491 . S
C3056 H3047 0.950 . S
C3056 C3055 1.398 . S
C3056 C3057 1.391 . S
C3057 H3045 0.950 . S
C3057 C3053 1.393 . S
C3057 C3056 1.391 . S
C3058 H3048 0.950 . S
C3058 C3059 1.386 . S
C3058 C3060 1.391 . S
C3059 C3058 1.386 . S
C3059 C3063 1.393 . S
C3060 H3049 0.950 . S
C3060 C3058 1.391 . S
C3060 C3061 1.400 . S
C3061 C3055 1.491 . S
C3061 C3060 1.400 . S
C3061 C3062 1.398 . S
C3062 H3050 0.950 . S
C3062 C3061 1.398 . S
C3062 C3063 1.391 . S
C3063 H3051 0.950 . S
C3063 C3059 1.393 . S
C3063 C3062 1.391 . S
H3064 C3072 0.950 . S
H3065 C3077 0.950 . S
H3066 C3074 0.950 . S
H3067 C3076 0.950 . S
H3068 C3078 0.950 . S
H3069 C3080 0.950 . S
H3070 C3082 0.950 . S
H3071 C3083 0.950 . S
C3072 H3064 0.950 . S
C3072 C3073 1.386 . S
C3072 C3074 1.391 . S
C3073 C3072 1.386 . S
C3073 C3077 1.393 . S
C3074 H3066 0.950 . S
C3074 C3072 1.391 . S
C3074 C3075 1.400 . S
C3075 C3074 1.400 . S
C3075 C3076 1.398 . S
C3075 C3081 1.491 . S
C3076 H3067 0.950 . S
C3076 C3075 1.398 . S
C3076 C3077 1.391 . S
C3077 H3065 0.950 . S
C3077 C3073 1.393 . S
C3077 C3076 1.391 . S
C3078 H3068 0.950 . S
C3078 C3079 1.386 . S
C3078 C3080 1.391 . S
C3079 C3078 1.386 . S
C3079 C3083 1.393 . S
C3080 H3069 0.950 . S
C3080 C3078 1.391 . S
C3080 C3081 1.400 . S
C3081 C3075 1.491 . S
C3081 C3080 1.400 . S
C3081 C3082 1.398 . S
C3082 H3070 0.950 . S
C3082 C3081 1.398 . S
C3082 C3083 1.391 . S
C3083 H3071 0.950 . S
C3083 C3079 1.393 . S
C3083 C3082 1.391 . S
H3084 C3092 0.924 1_554 S
H3085 C3097 0.950 . S
H3086 C3094 0.950 . S
H3087 C3096 0.950 . S
H3088 C3098 0.950 . S
H3089 C3100 0.950 . S
H3090 C3102 0.950 . S
H3091 C3103 0.950 . S
C3092 H3084 0.924 1_556 S
C3092 C3093 1.386 . S
C3092 C3094 1.391 . S
C3093 C3092 1.386 . S
C3093 C3097 1.393 . S
C3094 H3086 0.950 . S
C3094 C3092 1.391 . S
C3094 C3095 1.400 . S
C3095 C3094 1.400 . S
C3095 C3096 1.398 . S
C3095 C3101 1.491 . S
C3096 H3087 0.950 . S
C3096 C3095 1.398 . S
C3096 C3097 1.391 . S
C3097 H3085 0.950 . S
C3097 C3093 1.393 . S
C3097 C3096 1.391 . S
C3098 H3088 0.950 . S
C3098 C3099 1.386 . S
C3098 C3100 1.391 . S
C3099 C3098 1.386 . S
C3099 C3103 1.393 . S
C3100 H3089 0.950 . S
C3100 C3098 1.391 . S
C3100 C3101 1.400 . S
C3101 C3095 1.491 . S
C3101 C3100 1.400 . S
C3101 C3102 1.398 . S
C3102 H3090 0.950 . S
C3102 C3101 1.398 . S
C3102 C3103 1.391 . S
C3103 H3091 0.950 . S
C3103 C3099 1.393 . S
C3103 C3102 1.391 . S
H3104 C3112 0.950 . S
H3105 C3117 0.950 . S
H3106 C3114 0.950 . S
H3107 C3116 0.950 . S
H3108 C3118 0.950 . S
H3109 C3120 0.950 . S
H3110 C3122 0.950 . S
H3111 C3123 0.950 . S
C3112 H3104 0.950 . S
C3112 C3113 1.386 . S
C3112 C3114 1.391 . S
C3113 C3112 1.386 . S
C3113 C3117 1.393 . S
C3114 H3106 0.950 . S
C3114 C3112 1.391 . S
C3114 C3115 1.400 . S
C3115 C3114 1.400 . S
C3115 C3116 1.398 . S
C3115 C3121 1.491 . S
C3116 H3107 0.950 . S
C3116 C3115 1.398 . S
C3116 C3117 1.391 . S
C3117 H3105 0.950 . S
C3117 C3113 1.393 . S
C3117 C3116 1.391 . S
C3118 H3108 0.950 . S
C3118 C3119 1.386 . S
C3118 C3120 1.391 . S
C3119 C3118 1.386 . S
C3119 C3123 1.393 . S
C3120 H3109 0.950 . S
C3120 C3118 1.391 . S
C3120 C3121 1.400 . S
C3121 C3115 1.491 . S
C3121 C3120 1.400 . S
C3121 C3122 1.398 . S
C3122 H3110 0.950 . S
C3122 C3121 1.398 . S
C3122 C3123 1.391 . S
C3123 H3111 0.950 . S
C3123 C3119 1.393 . S
C3123 C3122 1.391 . S
H3124 C3132 0.950 . S
H3125 C3137 0.950 1_554 S
H3126 C3134 0.950 . S
H3127 C3136 0.950 . S
H3128 C3138 0.950 . S
H3129 C3140 0.950 . S
H3130 C3142 0.950 . S
H3131 C3143 0.950 . S
C3132 H3124 0.950 . S
C3132 C3133 1.386 . S
C3132 C3134 1.391 . S
C3133 C3132 1.386 . S
C3133 C3137 1.393 . S
C3134 H3126 0.950 . S
C3134 C3132 1.391 . S
C3134 C3135 1.400 . S
C3135 C3134 1.400 . S
C3135 C3136 1.398 . S
C3135 C3141 1.491 . S
C3136 H3127 0.950 . S
C3136 C3135 1.398 . S
C3136 C3137 1.391 . S
C3137 H3125 0.950 1_556 S
C3137 C3133 1.393 . S
C3137 C3136 1.391 . S
C3138 H3128 0.950 . S
C3138 C3139 1.386 . S
C3138 C3140 1.391 . S
C3139 C3138 1.386 . S
C3139 C3143 1.393 . S
C3140 H3129 0.950 . S
C3140 C3138 1.391 . S
C3140 C3141 1.400 . S
C3141 C3135 1.491 . S
C3141 C3140 1.400 . S
C3141 C3142 1.398 . S
C3142 H3130 0.950 . S
C3142 C3141 1.398 . S
C3142 C3143 1.391 . S
C3143 H3131 0.950 . S
C3143 C3139 1.393 . S
C3143 C3142 1.391 . S
H3144 C3152 0.900 1_554 S
H3145 C3157 0.950 . S
H3146 C3154 0.950 . S
H3147 C3156 0.950 . S
H3148 C3158 0.950 . S
H3149 C3160 0.950 . S
H3150 C3162 0.950 . S
H3151 C3163 0.950 . S
C3152 H3144 0.900 1_556 S
C3152 C3153 1.386 . S
C3152 C3154 1.391 . S
C3153 C3152 1.386 . S
C3153 C3157 1.393 . S
C3154 H3146 0.950 . S
C3154 C3152 1.391 . S
C3154 C3155 1.400 . S
C3155 C3154 1.400 . S
C3155 C3156 1.398 . S
C3155 C3161 1.491 . S
C3156 H3147 0.950 . S
C3156 C3155 1.398 . S
C3156 C3157 1.391 . S
C3157 H3145 0.950 . S
C3157 C3153 1.393 . S
C3157 C3156 1.391 . S
C3158 H3148 0.950 . S
C3158 C3159 1.386 . S
C3158 C3160 1.391 . S
C3159 C3158 1.386 . S
C3159 C3163 1.393 . S
C3160 H3149 0.950 . S
C3160 C3158 1.391 . S
C3160 C3161 1.400 . S
C3161 C3155 1.491 . S
C3161 C3160 1.400 . S
C3161 C3162 1.398 . S
C3162 H3150 0.950 . S
C3162 C3161 1.398 . S
C3162 C3163 1.391 . S
C3163 H3151 0.950 . S
C3163 C3159 1.393 . S
C3163 C3162 1.391 . S
H3164 C3172 0.950 . S
H3165 C3177 0.950 . S
H3166 C3174 0.950 . S
H3167 C3176 0.950 . S
H3168 C3178 0.950 . S
H3169 C3180 0.950 . S
H3170 C3182 0.950 . S
H3171 C3183 0.950 . S
C3172 H3164 0.950 . S
C3172 C3173 1.386 . S
C3172 C3174 1.391 . S
C3173 C3172 1.386 . S
C3173 C3177 1.393 . S
C3174 H3166 0.950 . S
C3174 C3172 1.391 . S
C3174 C3175 1.400 . S
C3175 C3174 1.400 . S
C3175 C3176 1.398 . S
C3175 C3181 1.491 . S
C3176 H3167 0.950 . S
C3176 C3175 1.398 . S
C3176 C3177 1.391 . S
C3177 H3165 0.950 . S
C3177 C3173 1.393 . S
C3177 C3176 1.391 . S
C3178 H3168 0.950 . S
C3178 C3179 1.386 . S
C3178 C3180 1.391 . S
C3179 C3178 1.386 . S
C3179 C3183 1.393 . S
C3180 H3169 0.950 . S
C3180 C3178 1.391 . S
C3180 C3181 1.400 . S
C3181 C3175 1.491 . S
C3181 C3180 1.400 . S
C3181 C3182 1.398 . S
C3182 H3170 0.950 . S
C3182 C3181 1.398 . S
C3182 C3183 1.391 . S
C3183 H3171 0.950 . S
C3183 C3179 1.393 . S
C3183 C3182 1.391 . S
H3184 C3192 0.950 . S
H3185 C3197 0.892 1_554 S
H3186 C3194 0.950 . S
H3187 C3196 0.950 . S
H3188 C3198 0.950 . S
H3189 C3200 0.950 . S
H3190 C3202 0.950 . S
H3191 C3203 0.950 . S
C3192 H3184 0.950 . S
C3192 C3193 1.386 . S
C3192 C3194 1.391 . S
C3193 C3192 1.386 . S
C3193 C3197 1.393 . S
C3194 H3186 0.950 . S
C3194 C3192 1.391 . S
C3194 C3195 1.400 . S
C3195 C3194 1.400 . S
C3195 C3196 1.398 . S
C3195 C3201 1.491 . S
C3196 H3187 0.950 . S
C3196 C3195 1.398 . S
C3196 C3197 1.391 . S
C3197 H3185 0.892 1_556 S
C3197 C3193 1.393 . S
C3197 C3196 1.391 . S
C3198 H3188 0.950 . S
C3198 C3199 1.386 . S
C3198 C3200 1.391 . S
C3199 C3198 1.386 . S
C3199 C3203 1.393 . S
C3200 H3189 0.950 . S
C3200 C3198 1.391 . S
C3200 C3201 1.400 . S
C3201 C3195 1.491 . S
C3201 C3200 1.400 . S
C3201 C3202 1.398 . S
C3202 H3190 0.950 . S
C3202 C3201 1.398 . S
C3202 C3203 1.391 . S
C3203 H3191 0.950 . S
C3203 C3199 1.393 . S
C3203 C3202 1.391 . S
H3204 C3212 0.950 . S
H3205 C3217 0.950 . S
H3206 C3214 0.950 . S
H3207 C3216 0.950 . S
H3208 C3218 0.950 . S
H3209 C3220 0.950 . S
H3210 C3222 0.950 . S
H3211 C3223 0.950 . S
C3212 H3204 0.950 . S
C3212 C3213 1.386 . S
C3212 C3214 1.391 . S
C3213 C3212 1.386 . S
C3213 C3217 1.393 . S
C3214 H3206 0.950 . S
C3214 C3212 1.391 . S
C3214 C3215 1.400 . S
C3215 C3214 1.400 . S
C3215 C3216 1.398 . S
C3215 C3221 1.491 . S
C3216 H3207 0.950 . S
C3216 C3215 1.398 . S
C3216 C3217 1.391 . S
C3217 H3205 0.950 . S
C3217 C3213 1.393 . S
C3217 C3216 1.391 . S
C3218 H3208 0.950 . S
C3218 C3219 1.386 . S
C3218 C3220 1.391 . S
C3219 C3218 1.386 . S
C3219 C3223 1.393 . S
C3220 H3209 0.950 . S
C3220 C3218 1.391 . S
C3220 C3221 1.400 . S
C3221 C3215 1.491 . S
C3221 C3220 1.400 . S
C3221 C3222 1.398 . S
C3222 H3210 0.950 . S
C3222 C3221 1.398 . S
C3222 C3223 1.391 . S
C3223 H3211 0.950 . S
C3223 C3219 1.393 . S
C3223 C3222 1.391 . S
H3224 C3232 0.950 . S
H3225 C3237 0.950 . S
H3226 C3234 0.950 . S
H3227 C3236 0.950 . S
H3228 C3238 0.950 . S
H3229 C3240 0.950 . S
H3230 C3242 0.950 . S
H3231 C3243 0.950 . S
C3232 H3224 0.950 . S
C3232 C3233 1.386 . S
C3232 C3234 1.391 . S
C3233 C3232 1.386 . S
C3233 C3237 1.393 . S
C3234 H3226 0.950 . S
C3234 C3232 1.391 . S
C3234 C3235 1.400 . S
C3235 C3234 1.400 . S
C3235 C3236 1.398 . S
C3235 C3241 1.491 . S
C3236 H3227 0.950 . S
C3236 C3235 1.398 . S
C3236 C3237 1.391 . S
C3237 H3225 0.950 . S
C3237 C3233 1.393 . S
C3237 C3236 1.391 . S
C3238 H3228 0.950 . S
C3238 C3239 1.386 . S
C3238 C3240 1.391 . S
C3239 C3238 1.386 . S
C3239 C3243 1.393 . S
C3240 H3229 0.950 . S
C3240 C3238 1.391 . S
C3240 C3241 1.400 . S
C3241 C3235 1.491 . S
C3241 C3240 1.400 . S
C3241 C3242 1.398 . S
C3242 H3230 0.950 . S
C3242 C3241 1.398 . S
C3242 C3243 1.391 . S
C3243 H3231 0.950 . S
C3243 C3239 1.393 . S
C3243 C3242 1.391 . S
H3244 C3252 0.950 . S
H3245 C3257 0.950 . S
H3246 C3254 0.950 . S
H3247 C3256 0.950 . S
H3248 C3258 0.950 . S
H3249 C3260 0.950 . S
H3250 C3262 0.950 . S
H3251 C3263 0.950 . S
C3252 H3244 0.950 . S
C3252 C3253 1.386 . S
C3252 C3254 1.391 . S
C3253 C3252 1.386 . S
C3253 C3257 1.393 . S
C3254 H3246 0.950 . S
C3254 C3252 1.391 . S
C3254 C3255 1.400 . S
C3255 C3254 1.400 . S
C3255 C3256 1.398 . S
C3255 C3261 1.491 . S
C3256 H3247 0.950 . S
C3256 C3255 1.398 . S
C3256 C3257 1.391 . S
C3257 H3245 0.950 . S
C3257 C3253 1.393 . S
C3257 C3256 1.391 . S
C3258 H3248 0.950 . S
C3258 C3259 1.386 . S
C3258 C3260 1.391 . S
C3259 C3258 1.386 . S
C3259 C3263 1.393 . S
C3260 H3249 0.950 . S
C3260 C3258 1.391 . S
C3260 C3261 1.400 . S
C3261 C3255 1.491 . S
C3261 C3260 1.400 . S
C3261 C3262 1.398 . S
C3262 H3250 0.950 . S
C3262 C3261 1.398 . S
C3262 C3263 1.391 . S
C3263 H3251 0.950 . S
C3263 C3259 1.393 . S
C3263 C3262 1.391 . S
H3264 C3272 0.950 . S
H3265 C3277 0.950 . S
H3266 C3274 0.950 . S
H3267 C3276 0.950 . S
H3268 C3278 0.950 . S
H3269 C3280 0.950 . S
H3270 C3282 0.950 . S
H3271 C3283 0.950 . S
C3272 H3264 0.950 . S
C3272 C3273 1.386 . S
C3272 C3274 1.391 . S
C3273 C3272 1.386 . S
C3273 C3277 1.393 . S
C3274 H3266 0.950 . S
C3274 C3272 1.391 . S
C3274 C3275 1.400 . S
C3275 C3274 1.400 . S
C3275 C3276 1.398 . S
C3275 C3281 1.491 . S
C3276 H3267 0.950 . S
C3276 C3275 1.398 . S
C3276 C3277 1.391 . S
C3277 H3265 0.950 . S
C3277 C3273 1.393 . S
C3277 C3276 1.391 . S
C3278 H3268 0.950 . S
C3278 C3279 1.386 . S
C3278 C3280 1.391 . S
C3279 C3278 1.386 . S
C3279 C3283 1.393 . S
C3280 H3269 0.950 . S
C3280 C3278 1.391 . S
C3280 C3281 1.400 . S
C3281 C3275 1.491 . S
C3281 C3280 1.400 . S
C3281 C3282 1.398 . S
C3282 H3270 0.950 . S
C3282 C3281 1.398 . S
C3282 C3283 1.391 . S
C3283 H3271 0.950 . S
C3283 C3279 1.393 . S
C3283 C3282 1.391 . S
H3284 C3292 0.950 . S
H3285 C3297 0.950 . S
H3286 C3294 0.950 . S
H3287 C3296 0.950 . S
H3288 C3298 0.950 . S
H3289 C3300 0.950 . S
H3290 C3302 0.950 . S
H3291 C3303 0.950 . S
C3292 H3284 0.950 . S
C3292 C3293 1.386 . S
C3292 C3294 1.391 . S
C3293 C3292 1.386 . S
C3293 C3297 1.393 . S
C3294 H3286 0.950 . S
C3294 C3292 1.391 . S
C3294 C3295 1.400 . S
C3295 C3294 1.400 . S
C3295 C3296 1.398 . S
C3295 C3301 1.491 . S
C3296 H3287 0.950 . S
C3296 C3295 1.398 . S
C3296 C3297 1.391 . S
C3297 H3285 0.950 . S
C3297 C3293 1.393 . S
C3297 C3296 1.391 . S
C3298 H3288 0.950 . S
C3298 C3299 1.386 . S
C3298 C3300 1.391 . S
C3299 C3298 1.386 . S
C3299 C3303 1.393 . S
C3300 H3289 0.950 . S
C3300 C3298 1.391 . S
C3300 C3301 1.400 . S
C3301 C3295 1.491 . S
C3301 C3300 1.400 . S
C3301 C3302 1.398 . S
C3302 H3290 0.950 . S
C3302 C3301 1.398 . S
C3302 C3303 1.391 . S
C3303 H3291 0.950 . S
C3303 C3299 1.393 . S
C3303 C3302 1.391 . S
H3304 C3312 0.950 . S
H3305 C3317 0.950 . S
H3306 C3314 0.950 . S
H3307 C3316 0.950 . S
H3308 C3318 0.950 . S
H3309 C3320 0.950 . S
H3310 C3322 0.950 . S
H3311 C3323 0.950 . S
C3312 H3304 0.950 . S
C3312 C3313 1.386 . S
C3312 C3314 1.391 . S
C3313 C3312 1.386 . S
C3313 C3317 1.393 . S
C3314 H3306 0.950 . S
C3314 C3312 1.391 . S
C3314 C3315 1.400 . S
C3315 C3314 1.400 . S
C3315 C3316 1.398 . S
C3315 C3321 1.491 . S
C3316 H3307 0.950 . S
C3316 C3315 1.398 . S
C3316 C3317 1.391 . S
C3317 H3305 0.950 . S
C3317 C3313 1.393 . S
C3317 C3316 1.391 . S
C3318 H3308 0.950 . S
C3318 C3319 1.386 . S
C3318 C3320 1.391 . S
C3319 C3318 1.386 . S
C3319 C3323 1.393 . S
C3320 H3309 0.950 . S
C3320 C3318 1.391 . S
C3320 C3321 1.400 . S
C3321 C3315 1.491 . S
C3321 C3320 1.400 . S
C3321 C3322 1.398 . S
C3322 H3310 0.950 . S
C3322 C3321 1.398 . S
C3322 C3323 1.391 . S
C3323 H3311 0.950 . S
C3323 C3319 1.393 . S
C3323 C3322 1.391 . S
H3324 C3332 0.950 1_655 S
H3325 C3337 0.950 . S
H3326 C3334 0.950 1_655 S
H3327 C3336 0.950 . S
H3328 C3338 0.950 . S
H3329 C3340 0.950 . S
H3330 C3342 0.950 . S
H3331 C3343 0.950 . S
C3332 H3324 0.950 1_455 S
C3332 C3333 1.386 . S
C3332 C3334 1.391 . S
C3333 C3332 1.386 . S
C3333 C3337 1.393 . S
C3334 H3326 0.950 1_455 S
C3334 C3332 1.391 . S
C3334 C3335 1.400 . S
C3335 C3334 1.400 . S
C3335 C3336 1.398 . S
C3335 C3341 1.491 . S
C3336 H3327 0.950 . S
C3336 C3335 1.398 . S
C3336 C3337 1.391 . S
C3337 H3325 0.950 . S
C3337 C3333 1.393 . S
C3337 C3336 1.391 . S
C3338 H3328 0.950 . S
C3338 C3339 1.386 . S
C3338 C3340 1.391 . S
C3339 C3338 1.386 . S
C3339 C3343 1.393 1_455 S
C3340 H3329 0.950 . S
C3340 C3338 1.391 . S
C3340 C3341 1.400 . S
C3341 C3335 1.491 . S
C3341 C3340 1.400 . S
C3341 C3342 1.398 1_455 S
C3342 H3330 0.950 . S
C3342 C3341 1.398 1_655 S
C3342 C3343 1.391 . S
C3343 H3331 0.950 . S
C3343 C3339 1.393 1_655 S
C3343 C3342 1.391 . S
H3344 C3352 0.950 . S
H3345 C3357 0.950 . S
H3346 C3354 0.950 . S
H3347 C3356 0.950 . S
H3348 C3358 0.950 . S
H3349 C3360 0.950 . S
H3350 C3362 0.950 . S
H3351 C3363 0.950 . S
C3352 H3344 0.950 . S
C3352 C3353 1.386 . S
C3352 C3354 1.391 . S
C3353 C3352 1.386 . S
C3353 C3357 1.393 . S
C3354 H3346 0.950 . S
C3354 C3352 1.391 . S
C3354 C3355 1.400 . S
C3355 C3354 1.400 . S
C3355 C3356 1.398 . S
C3355 C3361 1.491 . S
C3356 H3347 0.950 . S
C3356 C3355 1.398 . S
C3356 C3357 1.391 . S
C3357 H3345 0.950 . S
C3357 C3353 1.393 . S
C3357 C3356 1.391 . S
C3358 H3348 0.950 . S
C3358 C3359 1.386 . S
C3358 C3360 1.391 . S
C3359 C3358 1.386 . S
C3359 C3363 1.393 . S
C3360 H3349 0.950 . S
C3360 C3358 1.391 . S
C3360 C3361 1.400 . S
C3361 C3355 1.491 . S
C3361 C3360 1.400 . S
C3361 C3362 1.398 . S
C3362 H3350 0.950 . S
C3362 C3361 1.398 . S
C3362 C3363 1.391 . S
C3363 H3351 0.950 . S
C3363 C3359 1.393 . S
C3363 C3362 1.391 . S
H3364 C3372 0.950 . S
H3365 C3377 0.938 1_545 S
H3366 C3374 0.950 . S
H3367 C3376 0.950 1_545 S
H3368 C3378 0.955 1_545 S
H3369 C3380 0.931 1_545 S
H3370 C3382 0.950 . S
H3371 C3383 0.950 . S
C3372 H3364 0.950 . S
C3372 C3373 1.386 . S
C3372 C3374 1.391 . S
C3373 C3372 1.386 . S
C3373 C3377 1.391 . S
C3374 H3366 0.950 . S
C3374 C3372 1.391 . S
C3374 C3375 1.400 . S
C3375 C3374 1.400 . S
C3375 C3376 1.400 . S
C3375 C3381 1.491 . S
C3376 H3367 0.950 1_565 S
C3376 C3375 1.400 . S
C3376 C3377 1.403 . S
C3377 H3365 0.938 1_565 S
C3377 C3373 1.391 . S
C3377 C3376 1.403 . S
C3378 H3368 0.955 1_565 S
C3378 C3379 1.405 . S
C3378 C3380 1.394 . S
C3379 C3378 1.405 . S
C3379 C3383 1.393 . S
C3380 H3369 0.931 1_565 S
C3380 C3378 1.394 . S
C3380 C3381 1.397 . S
C3381 C3375 1.491 . S
C3381 C3380 1.397 . S
C3381 C3382 1.398 . S
C3382 H3370 0.950 . S
C3382 C3381 1.398 . S
C3382 C3383 1.391 . S
C3383 H3371 0.950 . S
C3383 C3379 1.393 . S
C3383 C3382 1.391 . S
H3384 C3392 0.950 . S
H3385 C3397 0.950 . S
H3386 C3394 0.950 . S
H3387 C3396 0.950 . S
H3388 C3398 1.000 . S
H3389 C3400 0.941 1_545 S
H3390 C3402 0.950 . S
H3391 C3403 0.950 . S
C3392 H3384 0.950 . S
C3392 C3393 1.386 . S
C3392 C3394 1.391 . S
C3393 C3392 1.386 . S
C3393 C3397 1.393 . S
C3394 H3386 0.950 . S
C3394 C3392 1.391 . S
C3394 C3395 1.400 . S
C3395 C3394 1.400 . S
C3395 C3396 1.398 . S
C3395 C3401 1.491 . S
C3396 H3387 0.950 . S
C3396 C3395 1.398 . S
C3396 C3397 1.391 . S
C3397 H3385 0.950 . S
C3397 C3393 1.393 . S
C3397 C3396 1.391 . S
C3398 H3388 1.000 . S
C3398 C3399 1.375 1_545 S
C3398 C3400 1.333 1_545 S
C3399 C3398 1.375 1_565 S
C3399 C3403 1.393 . S
C3400 H3389 0.941 1_565 S
C3400 C3398 1.333 1_565 S
C3400 C3401 1.438 . S
C3401 C3395 1.491 . S
C3401 C3400 1.438 . S
C3401 C3402 1.398 . S
C3402 H3390 0.950 . S
C3402 C3401 1.398 . S
C3402 C3403 1.391 . S
C3403 H3391 0.950 . S
C3403 C3399 1.393 . S
C3403 C3402 1.391 . S
H3404 C3412 0.950 . S
H3405 C3417 0.950 . S
H3406 C3414 0.950 . S
H3407 C3416 0.950 . S
H3408 C3418 0.949 . S
H3409 C3420 0.950 . S
H3410 C3422 0.950 . S
H3411 C3423 0.960 . S
C3412 H3404 0.950 . S
C3412 C3413 1.386 . S
C3412 C3414 1.391 . S
C3413 C3412 1.386 . S
C3413 C3417 1.393 . S
C3414 H3406 0.950 . S
C3414 C3412 1.391 . S
C3414 C3415 1.400 . S
C3415 C3414 1.400 . S
C3415 C3416 1.398 . S
C3415 C3421 1.491 . S
C3416 H3407 0.950 . S
C3416 C3415 1.398 . S
C3416 C3417 1.391 . S
C3417 H3405 0.950 . S
C3417 C3413 1.393 . S
C3417 C3416 1.391 . S
C3418 H3408 0.949 . S
C3418 C3419 1.388 . S
C3418 C3420 1.391 . S
C3419 C3418 1.388 . S
C3419 C3423 1.382 . S
C3420 H3409 0.950 . S
C3420 C3418 1.391 . S
C3420 C3421 1.400 . S
C3421 C3415 1.491 . S
C3421 C3420 1.400 . S
C3421 C3422 1.398 . S
C3422 H3410 0.950 . S
C3422 C3421 1.398 . S
C3422 C3423 1.391 . S
C3423 H3411 0.960 . S
C3423 C3419 1.382 . S
C3423 C3422 1.391 . S
H3424 C3432 0.950 . S
H3425 C3437 0.950 . S
H3426 C3434 0.950 . S
H3427 C3436 0.950 . S
H3428 C3438 0.950 . S
H3429 C3440 0.950 . S
H3430 C3442 0.950 . S
H3431 C3443 0.950 . S
C3432 H3424 0.950 . S
C3432 C3433 1.386 . S
C3432 C3434 1.391 . S
C3433 C3432 1.386 . S
C3433 C3437 1.393 . S
C3434 H3426 0.950 . S
C3434 C3432 1.391 . S
C3434 C3435 1.400 . S
C3435 C3434 1.400 . S
C3435 C3436 1.398 . S
C3435 C3441 1.491 . S
C3436 H3427 0.950 . S
C3436 C3435 1.398 . S
C3436 C3437 1.391 . S
C3437 H3425 0.950 . S
C3437 C3433 1.393 . S
C3437 C3436 1.391 . S
C3438 H3428 0.950 . S
C3438 C3439 1.386 . S
C3438 C3440 1.391 . S
C3439 C3438 1.386 . S
C3439 C3443 1.393 . S
C3440 H3429 0.950 . S
C3440 C3438 1.391 . S
C3440 C3441 1.400 . S
C3441 C3435 1.491 . S
C3441 C3440 1.400 . S
C3441 C3442 1.398 . S
C3442 H3430 0.950 . S
C3442 C3441 1.398 . S
C3442 C3443 1.391 . S
C3443 H3431 0.950 . S
C3443 C3439 1.393 . S
C3443 C3442 1.391 . S
H3444 C3452 0.950 . S
H3445 C3457 0.950 . S
H3446 C3454 0.950 . S
H3447 C3456 0.950 . S
H3448 C3458 0.950 . S
H3449 C3460 0.950 . S
H3450 C3462 0.950 . S
H3451 C3463 0.950 . S
C3452 H3444 0.950 . S
C3452 C3453 1.386 . S
C3452 C3454 1.391 . S
C3453 C3452 1.386 . S
C3453 C3457 1.393 . S
C3454 H3446 0.950 . S
C3454 C3452 1.391 . S
C3454 C3455 1.400 . S
C3455 C3454 1.400 . S
C3455 C3456 1.398 . S
C3455 C3461 1.491 . S
C3456 H3447 0.950 . S
C3456 C3455 1.398 . S
C3456 C3457 1.391 . S
C3457 H3445 0.950 . S
C3457 C3453 1.393 . S
C3457 C3456 1.391 . S
C3458 H3448 0.950 . S
C3458 C3459 1.386 . S
C3458 C3460 1.391 . S
C3459 C3458 1.386 . S
C3459 C3463 1.393 . S
C3460 H3449 0.950 . S
C3460 C3458 1.391 . S
C3460 C3461 1.400 . S
C3461 C3455 1.491 . S
C3461 C3460 1.400 . S
C3461 C3462 1.398 . S
C3462 H3450 0.950 . S
C3462 C3461 1.398 . S
C3462 C3463 1.391 . S
C3463 H3451 0.950 . S
C3463 C3459 1.393 . S
C3463 C3462 1.391 . S
H3464 C3472 0.950 . S
H3465 C3477 0.950 . S
H3466 C3474 0.950 . S
H3467 C3476 0.950 . S
H3468 C3478 0.950 . S
H3469 C3480 0.950 . S
H3470 C3482 0.950 . S
H3471 C3483 0.950 . S
C3472 H3464 0.950 . S
C3472 C3473 1.386 . S
C3472 C3474 1.391 . S
C3473 C3472 1.386 . S
C3473 C3477 1.393 . S
C3474 H3466 0.950 . S
C3474 C3472 1.391 . S
C3474 C3475 1.400 . S
C3475 C3474 1.400 . S
C3475 C3476 1.398 . S
C3475 C3481 1.491 . S
C3476 H3467 0.950 . S
C3476 C3475 1.398 . S
C3476 C3477 1.391 . S
C3477 H3465 0.950 . S
C3477 C3473 1.393 . S
C3477 C3476 1.391 . S
C3478 H3468 0.950 . S
C3478 C3479 1.386 . S
C3478 C3480 1.391 . S
C3479 C3478 1.386 . S
C3479 C3483 1.393 . S
C3480 H3469 0.950 . S
C3480 C3478 1.391 . S
C3480 C3481 1.400 . S
C3481 C3475 1.491 . S
C3481 C3480 1.400 . S
C3481 C3482 1.398 . S
C3482 H3470 0.950 . S
C3482 C3481 1.398 . S
C3482 C3483 1.391 . S
C3483 H3471 0.950 . S
C3483 C3479 1.393 . S
C3483 C3482 1.391 . S
H3484 C3492 0.950 . S
H3485 C3497 0.950 . S
H3486 C3494 0.950 . S
H3487 C3496 0.950 . S
H3488 C3498 0.950 . S
H3489 C3500 0.950 . S
H3490 C3502 0.950 . S
H3491 C3503 0.950 . S
C3492 H3484 0.950 . S
C3492 C3493 1.386 . S
C3492 C3494 1.391 . S
C3493 C3492 1.386 . S
C3493 C3497 1.393 . S
C3494 H3486 0.950 . S
C3494 C3492 1.391 . S
C3494 C3495 1.400 . S
C3495 C3494 1.400 . S
C3495 C3496 1.398 . S
C3495 C3501 1.491 . S
C3496 H3487 0.950 . S
C3496 C3495 1.398 . S
C3496 C3497 1.391 . S
C3497 H3485 0.950 . S
C3497 C3493 1.393 . S
C3497 C3496 1.391 . S
C3498 H3488 0.950 . S
C3498 C3499 1.386 . S
C3498 C3500 1.391 . S
C3499 C3498 1.386 . S
C3499 C3503 1.393 . S
C3500 H3489 0.950 . S
C3500 C3498 1.391 . S
C3500 C3501 1.400 . S
C3501 C3495 1.491 . S
C3501 C3500 1.400 . S
C3501 C3502 1.398 . S
C3502 H3490 0.950 . S
C3502 C3501 1.398 . S
C3502 C3503 1.391 . S
C3503 H3491 0.950 . S
C3503 C3499 1.393 . S
C3503 C3502 1.391 . S
H3504 C3512 0.950 . S
H3505 C3517 0.950 . S
H3506 C3514 0.950 . S
H3507 C3516 0.950 . S
H3508 C3518 0.950 . S
H3509 C3520 0.950 . S
H3510 C3522 0.950 . S
H3511 C3523 0.950 . S
C3512 H3504 0.950 . S
C3512 C3513 1.386 1_565 S
C3512 C3514 1.391 . S
C3513 C3512 1.386 1_545 S
C3513 C3517 1.393 . S
C3514 H3506 0.950 . S
C3514 C3512 1.391 . S
C3514 C3515 1.400 1_565 S
C3515 C3514 1.400 1_545 S
C3515 C3516 1.398 . S
C3515 C3521 1.491 . S
C3516 H3507 0.950 . S
C3516 C3515 1.398 . S
C3516 C3517 1.391 . S
C3517 H3505 0.950 . S
C3517 C3513 1.393 . S
C3517 C3516 1.391 . S
C3518 H3508 0.950 . S
C3518 C3519 1.386 . S
C3518 C3520 1.391 . S
C3519 C3518 1.386 . S
C3519 C3523 1.393 1_545 S
C3520 H3509 0.950 . S
C3520 C3518 1.391 . S
C3520 C3521 1.400 . S
C3521 C3515 1.491 . S
C3521 C3520 1.400 . S
C3521 C3522 1.398 1_545 S
C3522 H3510 0.950 . S
C3522 C3521 1.398 1_565 S
C3522 C3523 1.391 . S
C3523 H3511 0.950 . S
C3523 C3519 1.393 1_565 S
C3523 C3522 1.391 . S
H3524 C3532 0.950 . S
H3525 C3537 0.950 . S
H3526 C3534 0.950 . S
H3527 C3536 0.950 . S
H3528 C3538 0.950 . S
H3529 C3540 0.950 . S
H3530 C3542 0.950 . S
H3531 C3543 0.950 . S
C3532 H3524 0.950 . S
C3532 C3533 1.386 . S
C3532 C3534 1.391 . S
C3533 C3532 1.386 . S
C3533 C3537 1.393 1_655 S
C3534 H3526 0.950 . S
C3534 C3532 1.391 . S
C3534 C3535 1.400 . S
C3535 C3534 1.400 . S
C3535 C3536 1.398 1_655 S
C3535 C3541 1.491 . S
C3536 H3527 0.950 . S
C3536 C3535 1.398 1_455 S
C3536 C3537 1.391 . S
C3537 H3525 0.950 . S
C3537 C3533 1.393 1_455 S
C3537 C3536 1.391 . S
C3538 H3528 0.950 . S
C3538 C3539 1.386 1_455 S
C3538 C3540 1.391 . S
C3539 C3538 1.386 1_655 S
C3539 C3543 1.393 . S
C3540 H3529 0.950 . S
C3540 C3538 1.391 . S
C3540 C3541 1.400 1_455 S
C3541 C3535 1.491 . S
C3541 C3540 1.400 1_655 S
C3541 C3542 1.398 . S
C3542 H3530 0.950 . S
C3542 C3541 1.398 . S
C3542 C3543 1.391 . S
C3543 H3531 0.950 . S
C3543 C3539 1.393 . S
C3543 C3542 1.391 . S
H3544 C3552 0.950 . S
H3545 C3557 0.950 . S
H3546 C3554 0.950 . S
H3547 C3556 0.950 . S
H3548 C3558 0.950 . S
H3549 C3560 0.950 . S
H3550 C3562 0.950 . S
H3551 C3563 0.950 . S
C3552 H3544 0.950 . S
C3552 C3553 1.386 . S
C3552 C3554 1.391 . S
C3553 C3552 1.386 . S
C3553 C3557 1.393 . S
C3554 H3546 0.950 . S
C3554 C3552 1.391 . S
C3554 C3555 1.400 . S
C3555 C3554 1.400 . S
C3555 C3556 1.398 . S
C3555 C3561 1.491 . S
C3556 H3547 0.950 . S
C3556 C3555 1.398 . S
C3556 C3557 1.391 . S
C3557 H3545 0.950 . S
C3557 C3553 1.393 . S
C3557 C3556 1.391 . S
C3558 H3548 0.950 . S
C3558 C3559 1.386 . S
C3558 C3560 1.391 . S
C3559 C3558 1.386 . S
C3559 C3563 1.393 . S
C3560 H3549 0.950 . S
C3560 C3558 1.391 . S
C3560 C3561 1.400 . S
C3561 C3555 1.491 . S
C3561 C3560 1.400 . S
C3561 C3562 1.398 . S
C3562 H3550 0.950 . S
C3562 C3561 1.398 . S
C3562 C3563 1.391 . S
C3563 H3551 0.950 . S
C3563 C3559 1.393 . S
C3563 C3562 1.391 . S
H3564 C3572 0.950 . S
H3565 C3577 0.950 . S
H3566 C3574 0.950 . S
H3567 C3576 0.950 . S
H3568 C3578 0.950 . S
H3569 C3580 0.950 . S
H3570 C3582 0.950 . S
H3571 C3583 0.950 . S
C3572 H3564 0.950 . S
C3572 C3573 1.386 . S
C3572 C3574 1.391 . S
C3573 C3572 1.386 . S
C3573 C3577 1.393 . S
C3574 H3566 0.950 . S
C3574 C3572 1.391 . S
C3574 C3575 1.400 . S
C3575 C3574 1.400 . S
C3575 C3576 1.398 . S
C3575 C3581 1.491 . S
C3576 H3567 0.950 . S
C3576 C3575 1.398 . S
C3576 C3577 1.391 . S
C3577 H3565 0.950 . S
C3577 C3573 1.393 . S
C3577 C3576 1.391 . S
C3578 H3568 0.950 . S
C3578 C3579 1.386 . S
C3578 C3580 1.391 . S
C3579 C3578 1.386 . S
C3579 C3583 1.393 . S
C3580 H3569 0.950 . S
C3580 C3578 1.391 . S
C3580 C3581 1.400 . S
C3581 C3575 1.491 . S
C3581 C3580 1.400 . S
C3581 C3582 1.398 . S
C3582 H3570 0.950 . S
C3582 C3581 1.398 . S
C3582 C3583 1.391 . S
C3583 H3571 0.950 . S
C3583 C3579 1.393 . S
C3583 C3582 1.391 . S
H3584 C3592 0.950 . S
H3585 C3597 0.950 . S
H3586 C3594 0.950 . S
H3587 C3596 0.950 . S
H3588 C3598 0.950 . S
H3589 C3600 0.950 . S
H3590 C3602 0.950 . S
H3591 C3603 0.950 . S
C3592 H3584 0.950 . S
C3592 C3593 1.386 . S
C3592 C3594 1.391 . S
C3593 C3592 1.386 . S
C3593 C3597 1.393 . S
C3594 H3586 0.950 . S
C3594 C3592 1.391 . S
C3594 C3595 1.400 . S
C3595 C3594 1.400 . S
C3595 C3596 1.398 . S
C3595 C3601 1.491 . S
C3596 H3587 0.950 . S
C3596 C3595 1.398 . S
C3596 C3597 1.391 . S
C3597 H3585 0.950 . S
C3597 C3593 1.393 . S
C3597 C3596 1.391 . S
C3598 H3588 0.950 . S
C3598 C3599 1.386 . S
C3598 C3600 1.391 . S
C3599 C3598 1.386 . S
C3599 C3603 1.393 . S
C3600 H3589 0.950 . S
C3600 C3598 1.391 . S
C3600 C3601 1.400 . S
C3601 C3595 1.491 . S
C3601 C3600 1.400 . S
C3601 C3602 1.398 . S
C3602 H3590 0.950 . S
C3602 C3601 1.398 . S
C3602 C3603 1.391 . S
C3603 H3591 0.950 . S
C3603 C3599 1.393 . S
C3603 C3602 1.391 . S
H3604 C3612 0.950 . S
H3605 C3617 0.950 . S
H3606 C3614 0.950 . S
H3607 C3616 0.950 . S
H3608 C3618 0.950 . S
H3609 C3620 0.950 . S
H3610 C3622 0.950 . S
H3611 C3623 0.950 . S
C3612 H3604 0.950 . S
C3612 C3613 1.386 . S
C3612 C3614 1.391 . S
C3613 C3612 1.386 . S
C3613 C3617 1.393 . S
C3614 H3606 0.950 . S
C3614 C3612 1.391 . S
C3614 C3615 1.400 . S
C3615 C3614 1.400 . S
C3615 C3616 1.398 . S
C3615 C3621 1.491 . S
C3616 H3607 0.950 . S
C3616 C3615 1.398 . S
C3616 C3617 1.391 . S
C3617 H3605 0.950 . S
C3617 C3613 1.393 . S
C3617 C3616 1.391 . S
C3618 H3608 0.950 . S
C3618 C3619 1.386 . S
C3618 C3620 1.391 . S
C3619 C3618 1.386 . S
C3619 C3623 1.393 . S
C3620 H3609 0.950 . S
C3620 C3618 1.391 . S
C3620 C3621 1.400 . S
C3621 C3615 1.491 . S
C3621 C3620 1.400 . S
C3621 C3622 1.398 . S
C3622 H3610 0.950 . S
C3622 C3621 1.398 . S
C3622 C3623 1.391 . S
C3623 H3611 0.950 . S
C3623 C3619 1.393 . S
C3623 C3622 1.391 . S
H3624 C3632 0.950 . S
H3625 C3637 0.950 . S
H3626 C3634 0.950 . S
H3627 C3636 0.950 . S
H3628 C3638 0.950 . S
H3629 C3640 0.950 . S
H3630 C3642 0.950 . S
H3631 C3643 0.950 . S
C3632 H3624 0.950 . S
C3632 C3633 1.386 . S
C3632 C3634 1.391 . S
C3633 C3632 1.386 . S
C3633 C3637 1.393 . S
C3634 H3626 0.950 . S
C3634 C3632 1.391 . S
C3634 C3635 1.400 . S
C3635 C3634 1.400 . S
C3635 C3636 1.398 . S
C3635 C3641 1.491 . S
C3636 H3627 0.950 . S
C3636 C3635 1.398 . S
C3636 C3637 1.391 . S
C3637 H3625 0.950 . S
C3637 C3633 1.393 . S
C3637 C3636 1.391 . S
C3638 H3628 0.950 . S
C3638 C3639 1.386 . S
C3638 C3640 1.391 . S
C3639 C3638 1.386 . S
C3639 C3643 1.393 . S
C3640 H3629 0.950 . S
C3640 C3638 1.391 . S
C3640 C3641 1.400 . S
C3641 C3635 1.491 . S
C3641 C3640 1.400 . S
C3641 C3642 1.398 . S
C3642 H3630 0.950 . S
C3642 C3641 1.398 . S
C3642 C3643 1.391 . S
C3643 H3631 0.950 . S
C3643 C3639 1.393 . S
C3643 C3642 1.391 . S
H3644 C3652 0.950 . S
H3645 C3657 0.950 . S
H3646 C3654 0.950 . S
H3647 C3656 0.950 . S
H3648 C3658 0.950 . S
H3649 C3660 0.950 . S
H3650 C3662 0.950 . S
H3651 C3663 0.950 . S
C3652 H3644 0.950 . S
C3652 C3653 1.386 . S
C3652 C3654 1.391 . S
C3653 C3652 1.386 . S
C3653 C3657 1.393 . S
C3654 H3646 0.950 . S
C3654 C3652 1.391 . S
C3654 C3655 1.400 . S
C3655 C3654 1.400 . S
C3655 C3656 1.398 . S
C3655 C3661 1.491 . S
C3656 H3647 0.950 . S
C3656 C3655 1.398 . S
C3656 C3657 1.391 . S
C3657 H3645 0.950 . S
C3657 C3653 1.393 . S
C3657 C3656 1.391 . S
C3658 H3648 0.950 . S
C3658 C3659 1.386 . S
C3658 C3660 1.391 . S
C3659 C3658 1.386 . S
C3659 C3663 1.393 . S
C3660 H3649 0.950 . S
C3660 C3658 1.391 . S
C3660 C3661 1.400 . S
C3661 C3655 1.491 . S
C3661 C3660 1.400 . S
C3661 C3662 1.398 . S
C3662 H3650 0.950 . S
C3662 C3661 1.398 . S
C3662 C3663 1.391 . S
C3663 H3651 0.950 . S
C3663 C3659 1.393 . S
C3663 C3662 1.391 . S
H3664 C3672 0.950 . S
H3665 C3677 0.950 . S
H3666 C3674 0.950 . S
H3667 C3676 0.950 . S
H3668 C3678 0.950 . S
H3669 C3680 0.950 . S
H3670 C3682 0.950 . S
H3671 C3683 0.950 . S
C3672 H3664 0.950 . S
C3672 C3673 1.386 . S
C3672 C3674 1.391 . S
C3673 C3672 1.386 . S
C3673 C3677 1.393 . S
C3674 H3666 0.950 . S
C3674 C3672 1.391 . S
C3674 C3675 1.400 . S
C3675 C3674 1.400 . S
C3675 C3676 1.398 . S
C3675 C3681 1.491 . S
C3676 H3667 0.950 . S
C3676 C3675 1.398 . S
C3676 C3677 1.391 . S
C3677 H3665 0.950 . S
C3677 C3673 1.393 . S
C3677 C3676 1.391 . S
C3678 H3668 0.950 . S
C3678 C3679 1.386 . S
C3678 C3680 1.391 . S
C3679 C3678 1.386 . S
C3679 C3683 1.393 . S
C3680 H3669 0.950 . S
C3680 C3678 1.391 . S
C3680 C3681 1.400 . S
C3681 C3675 1.491 . S
C3681 C3680 1.400 . S
C3681 C3682 1.398 . S
C3682 H3670 0.950 . S
C3682 C3681 1.398 . S
C3682 C3683 1.391 . S
C3683 H3671 0.950 . S
C3683 C3679 1.393 . S
C3683 C3682 1.391 . S
H3684 C3692 0.950 . S
H3685 C3697 0.950 . S
H3686 C3694 0.950 . S
H3687 C3696 0.950 . S
H3688 C3698 0.950 . S
H3689 C3700 0.950 . S
H3690 C3702 0.950 . S
H3691 C3703 0.950 . S
C3692 H3684 0.950 . S
C3692 C3693 1.386 1_455 S
C3692 C3694 1.391 . S
C3693 C3692 1.386 1_655 S
C3693 C3697 1.393 . S
C3694 H3686 0.950 . S
C3694 C3692 1.391 . S
C3694 C3695 1.400 1_455 S
C3695 C3694 1.400 1_655 S
C3695 C3696 1.398 . S
C3695 C3701 1.491 . S
C3696 H3687 0.950 . S
C3696 C3695 1.398 . S
C3696 C3697 1.391 . S
C3697 H3685 0.950 . S
C3697 C3693 1.393 . S
C3697 C3696 1.391 . S
C3698 H3688 0.950 . S
C3698 C3699 1.386 . S
C3698 C3700 1.391 . S
C3699 C3698 1.386 . S
C3699 C3703 1.393 1_655 S
C3700 H3689 0.950 . S
C3700 C3698 1.391 . S
C3700 C3701 1.400 . S
C3701 C3695 1.491 . S
C3701 C3700 1.400 . S
C3701 C3702 1.398 1_655 S
C3702 H3690 0.950 . S
C3702 C3701 1.398 1_455 S
C3702 C3703 1.391 . S
C3703 H3691 0.950 . S
C3703 C3699 1.393 1_455 S
C3703 C3702 1.391 . S
H3704 C3712 0.950 . S
H3705 C3717 0.950 . S
H3706 C3714 0.950 . S
H3707 C3716 0.950 . S
H3708 C3718 0.950 . S
H3709 C3720 0.950 . S
H3710 C3722 0.950 . S
H3711 C3723 0.950 . S
C3712 H3704 0.950 . S
C3712 C3713 1.386 . S
C3712 C3714 1.391 . S
C3713 C3712 1.386 . S
C3713 C3717 1.393 . S
C3714 H3706 0.950 . S
C3714 C3712 1.391 . S
C3714 C3715 1.400 . S
C3715 C3714 1.400 . S
C3715 C3716 1.398 . S
C3715 C3721 1.491 . S
C3716 H3707 0.950 . S
C3716 C3715 1.398 . S
C3716 C3717 1.391 . S
C3717 H3705 0.950 . S
C3717 C3713 1.393 . S
C3717 C3716 1.391 . S
C3718 H3708 0.950 . S
C3718 C3719 1.386 . S
C3718 C3720 1.391 . S
C3719 C3718 1.386 . S
C3719 C3723 1.393 . S
C3720 H3709 0.950 . S
C3720 C3718 1.391 . S
C3720 C3721 1.400 . S
C3721 C3715 1.491 . S
C3721 C3720 1.400 . S
C3721 C3722 1.398 . S
C3722 H3710 0.950 . S
C3722 C3721 1.398 . S
C3722 C3723 1.391 . S
C3723 H3711 0.950 . S
C3723 C3719 1.393 . S
C3723 C3722 1.391 . S
H3724 C3732 0.950 . S
H3725 C3737 0.950 . S
H3726 C3734 0.950 . S
H3727 C3736 0.950 . S
H3728 C3738 0.950 . S
H3729 C3740 0.950 . S
H3730 C3742 0.952 . S
H3731 C3743 0.943 . S
C3732 H3724 0.950 . S
C3732 C3733 1.386 . S
C3732 C3734 1.391 . S
C3733 C3732 1.386 . S
C3733 C3737 1.393 . S
C3734 H3726 0.950 . S
C3734 C3732 1.391 . S
C3734 C3735 1.400 . S
C3735 C3734 1.400 . S
C3735 C3736 1.398 . S
C3735 C3741 1.491 . S
C3736 H3727 0.950 . S
C3736 C3735 1.398 . S
C3736 C3737 1.391 . S
C3737 H3725 0.950 . S
C3737 C3733 1.393 . S
C3737 C3736 1.391 . S
C3738 H3728 0.950 . S
C3738 C3739 1.386 . S
C3738 C3740 1.391 . S
C3739 C3738 1.386 . S
C3739 C3743 1.390 1_545 S
C3740 H3729 0.950 . S
C3740 C3738 1.391 . S
C3740 C3741 1.400 . S
C3741 C3735 1.491 . S
C3741 C3740 1.400 . S
C3741 C3742 1.398 . S
C3742 H3730 0.952 . S
C3742 C3741 1.398 . S
C3742 C3743 1.402 1_545 S
C3743 H3731 0.943 . S
C3743 C3739 1.390 1_565 S
C3743 C3742 1.402 1_565 S
C2313 C9 1.325 1_655 S
C2319 C1307 1.093 . S
C2333 C19 1.724 . S
C2339 C1447 1.127 . S
C2359 C1535 1.183 . S
C2353 C33 1.415 . S
C2373 C37 1.446 1_565 S
C2379 C1675 1.040 1_565 S
C2393 C5 1.370 . S
C2399 C1789 1.114 . S
C2413 C23 1.787 . S
C2419 C1877 1.309 . S
C2433 C47 1.327 . S
C2439 C1763 1.071 . S
C2459 C1903 1.439 . S
C2453 C65 1.686 . S
C2479 C1649 1.138 . S
C2473 C75 1.367 . S
C2493 C79 1.342 . S
C2499 C1561 0.992 . S
C2519 C1333 1.089 . S
C2513 C51 1.403 . S
C2533 C61 1.655 . S
C2539 C1421 1.504 . S
C2553 C93 1.889 . S
C2559 C1991 1.339 . S
C2573 C103 1.813 . S
C2579 C2131 1.210 . S
C2599 C2219 1.304 . S
C2593 C117 1.789 . S
C2613 C121 1.844 . S
C2619 C307 1.216 . S
C2633 C89 1.847 . S
C2639 C421 1.167 . S
C2653 C107 1.867 . S
C2659 C509 1.378 . S
C2673 C131 1.588 . S
C2679 C395 1.410 . S
C2693 C149 1.753 . S
C2699 C535 1.522 . S
C2719 C281 1.513 . S
C2713 C159 1.679 . S
C2739 C2245 1.603 . S
C2733 C163 1.862 . S
C2759 C2017 1.543 . S
C2753 C135 1.776 . S
C2779 C2105 1.609 . S
C2773 C145 1.737 . S
C2793 C177 1.737 . S
C2799 C623 1.252 . S
C2813 C187 1.790 . S
C2819 C763 1.130 . S
C2833 C201 1.830 . S
C2839 C851 1.334 . S
C2853 C205 1.997 . S
C2859 C991 1.343 . S
C2879 C1105 1.190 . S
C2873 C173 1.825 . S
C2899 C1193 1.379 . S
C2893 C191 1.890 . S
C2919 C1079 1.588 . S
C2913 C215 1.751 . S
C2939 C1219 1.553 . S
C2933 C233 1.779 . S
C2953 C243 1.634 . S
C2959 C965 1.467 . S
C2979 C877 1.485 . S
C2973 C247 1.690 . S
C2993 C219 1.810 . S
C2999 C649 1.537 . S
C3019 C737 1.577 . S
C3013 C229 1.726 . S
C3039 C263 0.996 . S
C3033 C11 1.812 . S
C3053 C14 1.630 . S
C3059 C377 0.871 . S
C3079 C481 1.317 . S
C3073 C28 1.831 . S
C3099 C595 1.277 . S
C3093 C39 1.745 . S
C3119 C719 0.965 . S
C3113 C0 1.788 . S
C3139 C823 1.124 . S
C3133 C25 1.608 . S
C3153 C42 2.004 . S
C3159 C833 1.527 . S
C3173 C67 1.764 . S
C3179 C605 1.376 . S
C3193 C70 1.811 . S
C3199 C709 1.595 . S
C3213 C81 1.751 . S
C3219 C367 1.553 . S
C3239 C491 1.478 . S
C3233 C53 1.947 . S
C3253 C56 1.816 . S
C3259 C253 1.589 . S
C3279 C947 1.001 . S
C3273 C95 1.718 . S
C3293 C98 1.809 . S
C3299 C1061 1.036 . S
C3313 C112 1.870 . S
C3319 C1165 1.417 . S
C3339 C1279 1.053 . S
C3333 C123 1.262 . S
C3353 C84 1.698 . S
C3359 C1403 0.923 . S
C3373 C109 1.301 . S
C3379 C1507 1.034 . S
C3393 C126 1.491 . S
C3399 C1517 0.951 1_565 S
C3413 C151 1.342 . S
C3419 C1289 0.884 1_455 S
C3439 C1393 1.521 . S
C3433 C154 1.737 . S
C3453 C165 1.670 . S
C3459 C1051 1.504 . S
C3473 C137 1.934 . S
C3479 C1175 1.485 . S
C3499 C937 1.715 . S
C3493 C140 1.970 . S
C3519 C1631 0.941 . S
C3513 C179 1.427 . S
C3533 C182 1.319 . S
C3539 C1745 0.849 . S
C3553 C196 1.747 . S
C3559 C1849 1.291 . S
C3579 C1963 1.196 . S
C3573 C207 1.655 . S
C3599 C2087 1.096 . S
C3593 C168 1.808 . S
C3613 C193 1.779 . S
C3619 C2191 1.313 . S
C3633 C210 1.925 . S
C3639 C2201 1.478 . S
C3653 C235 1.933 . S
C3659 C1973 1.500 . S
C3679 C2077 1.600 . S
C3673 C238 1.835 . S
C3699 C1735 0.971 1_655 S
C3693 C249 1.192 . S
C3719 C1859 1.411 . S
C3713 C221 1.833 . S
C3733 C224 1.392 . S
C3739 C1621 1.145 1_545 S
