# Generated by pormake.
# Topology ptr, (4,4)-cn, num edge types: 1
# Building blocks:
#     Node 0, Type 0, BuildingBlock: GALJAG_clean_sbu_0, # of connection points: 4
#     Node 1, Type 0, BuildingBlock: GALJAG_clean_sbu_0, # of connection points: 4
#     Node 2, Type 0, BuildingBlock: GALJAG_clean_sbu_0, # of connection points: 4
#     Node 3, Type 0, BuildingBlock: GALJAG_clean_sbu_0, # of connection points: 4
#     Node 4, Type 0, BuildingBlock: GALJAG_clean_sbu_0, # of connection points: 4
#     Node 5, Type 0, BuildingBlock: GALJAG_clean_sbu_0, # of connection points: 4
#     Node 6, Type 0, BuildingBlock: GALJAG_clean_sbu_0, # of connection points: 4
#     Node 7, Type 0, BuildingBlock: GALJAG_clean_sbu_0, # of connection points: 4
#     Node 8, Type 0, BuildingBlock: GALJAG_clean_sbu_0, # of connection points: 4
#     Node 9, Type 0, BuildingBlock: GALJAG_clean_sbu_0, # of connection points: 4
#     Node 10, Type 0, BuildingBlock: GALJAG_clean_sbu_0, # of connection points: 4
#     Node 11, Type 0, BuildingBlock: GALJAG_clean_sbu_0, # of connection points: 4
#     Node 12, Type 0, BuildingBlock: GALJAG_clean_sbu_0, # of connection points: 4
#     Node 13, Type 0, BuildingBlock: GALJAG_clean_sbu_0, # of connection points: 4
#     Node 14, Type 0, BuildingBlock: GALJAG_clean_sbu_0, # of connection points: 4
#     Node 15, Type 0, BuildingBlock: GALJAG_clean_sbu_0, # of connection points: 4
#     Node 16, Type 0, BuildingBlock: GALJAG_clean_sbu_0, # of connection points: 4
#     Node 17, Type 0, BuildingBlock: GALJAG_clean_sbu_0, # of connection points: 4
#     Node 18, Type 1, BuildingBlock: NAWXER_clean_linker_0, # of connection points: 4
#     Node 19, Type 1, BuildingBlock: NAWXER_clean_linker_0, # of connection points: 4
#     Node 20, Type 1, BuildingBlock: NAWXER_clean_linker_0, # of connection points: 4
#     Node 21, Type 1, BuildingBlock: NAWXER_clean_linker_0, # of connection points: 4
#     Node 22, Type 1, BuildingBlock: NAWXER_clean_linker_0, # of connection points: 4
#     Node 23, Type 1, BuildingBlock: NAWXER_clean_linker_0, # of connection points: 4
#     Node 24, Type 1, BuildingBlock: NAWXER_clean_linker_0, # of connection points: 4
#     Node 25, Type 1, BuildingBlock: NAWXER_clean_linker_0, # of connection points: 4
#     Node 26, Type 1, BuildingBlock: NAWXER_clean_linker_0, # of connection points: 4
#     Node 27, Type 1, BuildingBlock: NAWXER_clean_linker_0, # of connection points: 4
#     Node 28, Type 1, BuildingBlock: NAWXER_clean_linker_0, # of connection points: 4
#     Node 29, Type 1, BuildingBlock: NAWXER_clean_linker_0, # of connection points: 4
#     Node 30, Type 1, BuildingBlock: NAWXER_clean_linker_0, # of connection points: 4
#     Node 31, Type 1, BuildingBlock: NAWXER_clean_linker_0, # of connection points: 4
#     Node 32, Type 1, BuildingBlock: NAWXER_clean_linker_0, # of connection points: 4
#     Node 33, Type 1, BuildingBlock: NAWXER_clean_linker_0, # of connection points: 4
#     Node 34, Type 1, BuildingBlock: NAWXER_clean_linker_0, # of connection points: 4
#     Node 35, Type 1, BuildingBlock: NAWXER_clean_linker_0, # of connection points: 4
#     Edge 36, Type (0, 1), BuildingBlock: XUDNAN_clean_linker_2, # of connection points: 2
#     Edge 37, Type (0, 1), BuildingBlock: XUDNAN_clean_linker_2, # of connection points: 2
#     Edge 38, Type (0, 1), BuildingBlock: XUDNAN_clean_linker_2, # of connection points: 2
#     Edge 39, Type (0, 1), BuildingBlock: XUDNAN_clean_linker_2, # of connection points: 2
#     Edge 40, Type (0, 1), BuildingBlock: XUDNAN_clean_linker_2, # of connection points: 2
#     Edge 41, Type (0, 1), BuildingBlock: XUDNAN_clean_linker_2, # of connection points: 2
#     Edge 42, Type (0, 1), BuildingBlock: XUDNAN_clean_linker_2, # of connection points: 2
#     Edge 43, Type (0, 1), BuildingBlock: XUDNAN_clean_linker_2, # of connection points: 2
#     Edge 44, Type (0, 1), BuildingBlock: XUDNAN_clean_linker_2, # of connection points: 2
#     Edge 45, Type (0, 1), BuildingBlock: XUDNAN_clean_linker_2, # of connection points: 2
#     Edge 46, Type (0, 1), BuildingBlock: XUDNAN_clean_linker_2, # of connection points: 2
#     Edge 47, Type (0, 1), BuildingBlock: XUDNAN_clean_linker_2, # of connection points: 2
#     Edge 48, Type (0, 1), BuildingBlock: XUDNAN_clean_linker_2, # of connection points: 2
#     Edge 49, Type (0, 1), BuildingBlock: XUDNAN_clean_linker_2, # of connection points: 2
#     Edge 50, Type (0, 1), BuildingBlock: XUDNAN_clean_linker_2, # of connection points: 2
#     Edge 51, Type (0, 1), BuildingBlock: XUDNAN_clean_linker_2, # of connection points: 2
#     Edge 52, Type (0, 1), BuildingBlock: XUDNAN_clean_linker_2, # of connection points: 2
#     Edge 53, Type (0, 1), BuildingBlock: XUDNAN_clean_linker_2, # of connection points: 2
#     Edge 54, Type (0, 1), BuildingBlock: XUDNAN_clean_linker_2, # of connection points: 2
#     Edge 55, Type (0, 1), BuildingBlock: XUDNAN_clean_linker_2, # of connection points: 2
#     Edge 56, Type (0, 1), BuildingBlock: XUDNAN_clean_linker_2, # of connection points: 2
#     Edge 57, Type (0, 1), BuildingBlock: XUDNAN_clean_linker_2, # of connection points: 2
#     Edge 58, Type (0, 1), BuildingBlock: XUDNAN_clean_linker_2, # of connection points: 2
#     Edge 59, Type (0, 1), BuildingBlock: XUDNAN_clean_linker_2, # of connection points: 2
#     Edge 60, Type (0, 1), BuildingBlock: XUDNAN_clean_linker_2, # of connection points: 2
#     Edge 61, Type (0, 1), BuildingBlock: XUDNAN_clean_linker_2, # of connection points: 2
#     Edge 62, Type (0, 1), BuildingBlock: XUDNAN_clean_linker_2, # of connection points: 2
#     Edge 63, Type (0, 1), BuildingBlock: XUDNAN_clean_linker_2, # of connection points: 2
#     Edge 64, Type (0, 1), BuildingBlock: XUDNAN_clean_linker_2, # of connection points: 2
#     Edge 65, Type (0, 1), BuildingBlock: XUDNAN_clean_linker_2, # of connection points: 2
#     Edge 66, Type (0, 1), BuildingBlock: XUDNAN_clean_linker_2, # of connection points: 2
#     Edge 67, Type (0, 1), BuildingBlock: XUDNAN_clean_linker_2, # of connection points: 2
#     Edge 68, Type (0, 1), BuildingBlock: XUDNAN_clean_linker_2, # of connection points: 2
#     Edge 69, Type (0, 1), BuildingBlock: XUDNAN_clean_linker_2, # of connection points: 2
#     Edge 70, Type (0, 1), BuildingBlock: XUDNAN_clean_linker_2, # of connection points: 2
#     Edge 71, Type (0, 1), BuildingBlock: XUDNAN_clean_linker_2, # of connection points: 2
#     Edge 72, Type (0, 1), BuildingBlock: XUDNAN_clean_linker_2, # of connection points: 2
#     Edge 73, Type (0, 1), BuildingBlock: XUDNAN_clean_linker_2, # of connection points: 2
#     Edge 74, Type (0, 1), BuildingBlock: XUDNAN_clean_linker_2, # of connection points: 2
#     Edge 75, Type (0, 1), BuildingBlock: XUDNAN_clean_linker_2, # of connection points: 2
#     Edge 76, Type (0, 1), BuildingBlock: XUDNAN_clean_linker_2, # of connection points: 2
#     Edge 77, Type (0, 1), BuildingBlock: XUDNAN_clean_linker_2, # of connection points: 2
#     Edge 78, Type (0, 1), BuildingBlock: XUDNAN_clean_linker_2, # of connection points: 2
#     Edge 79, Type (0, 1), BuildingBlock: XUDNAN_clean_linker_2, # of connection points: 2
#     Edge 80, Type (0, 1), BuildingBlock: XUDNAN_clean_linker_2, # of connection points: 2
#     Edge 81, Type (0, 1), BuildingBlock: XUDNAN_clean_linker_2, # of connection points: 2
#     Edge 82, Type (0, 1), BuildingBlock: XUDNAN_clean_linker_2, # of connection points: 2
#     Edge 83, Type (0, 1), BuildingBlock: XUDNAN_clean_linker_2, # of connection points: 2
#     Edge 84, Type (0, 1), BuildingBlock: XUDNAN_clean_linker_2, # of connection points: 2
#     Edge 85, Type (0, 1), BuildingBlock: XUDNAN_clean_linker_2, # of connection points: 2
#     Edge 86, Type (0, 1), BuildingBlock: XUDNAN_clean_linker_2, # of connection points: 2
#     Edge 87, Type (0, 1), BuildingBlock: XUDNAN_clean_linker_2, # of connection points: 2
#     Edge 88, Type (0, 1), BuildingBlock: XUDNAN_clean_linker_2, # of connection points: 2
#     Edge 89, Type (0, 1), BuildingBlock: XUDNAN_clean_linker_2, # of connection points: 2
#     Edge 90, Type (0, 1), BuildingBlock: XUDNAN_clean_linker_2, # of connection points: 2
#     Edge 91, Type (0, 1), BuildingBlock: XUDNAN_clean_linker_2, # of connection points: 2
#     Edge 92, Type (0, 1), BuildingBlock: XUDNAN_clean_linker_2, # of connection points: 2
#     Edge 93, Type (0, 1), BuildingBlock: XUDNAN_clean_linker_2, # of connection points: 2
#     Edge 94, Type (0, 1), BuildingBlock: XUDNAN_clean_linker_2, # of connection points: 2
#     Edge 95, Type (0, 1), BuildingBlock: XUDNAN_clean_linker_2, # of connection points: 2
#     Edge 96, Type (0, 1), BuildingBlock: XUDNAN_clean_linker_2, # of connection points: 2
#     Edge 97, Type (0, 1), BuildingBlock: XUDNAN_clean_linker_2, # of connection points: 2
#     Edge 98, Type (0, 1), BuildingBlock: XUDNAN_clean_linker_2, # of connection points: 2
#     Edge 99, Type (0, 1), BuildingBlock: XUDNAN_clean_linker_2, # of connection points: 2
#     Edge 100, Type (0, 1), BuildingBlock: XUDNAN_clean_linker_2, # of connection points: 2
#     Edge 101, Type (0, 1), BuildingBlock: XUDNAN_clean_linker_2, # of connection points: 2
#     Edge 102, Type (0, 1), BuildingBlock: XUDNAN_clean_linker_2, # of connection points: 2
#     Edge 103, Type (0, 1), BuildingBlock: XUDNAN_clean_linker_2, # of connection points: 2
#     Edge 104, Type (0, 1), BuildingBlock: XUDNAN_clean_linker_2, # of connection points: 2
#     Edge 105, Type (0, 1), BuildingBlock: XUDNAN_clean_linker_2, # of connection points: 2
#     Edge 106, Type (0, 1), BuildingBlock: XUDNAN_clean_linker_2, # of connection points: 2
#     Edge 107, Type (0, 1), BuildingBlock: XUDNAN_clean_linker_2, # of connection points: 2
# Relax obj value: 0.045
# Max RMSD: 0.081
# Mean RMSD: 0.066
data_MOF--net-ptr--node1-GALJAG_clean_sbu_0--node2-NAWXER_clean_linker_0--edge1-XUDNAN_clean_linker_2
_symmetry_space_group_name_H-M    P1
_symmetry_Int_Tables_number       1
_symmetry_cell_setting            triclinic
loop_
_symmetry_equiv_pos_as_xyz
'x, y, z'
_cell_length_a     85.93602
_cell_length_b     86.00435
_cell_length_c     67.234073
_cell_angle_alpha  90.049148
_cell_angle_beta   90.031498
_cell_angle_gamma 120.00711
loop_
_atom_site_label
_atom_site_type_symbol
_atom_site_fract_x
_atom_site_fract_y
_atom_site_fract_z
_atom_type_partial_charge
In0 In 0.00415 0.35069 0.01328 0.0
O1 O 0.98457 0.34791 0.03818 0.0
O2 O 0.0085 0.37309 0.03444 0.0
C3 C 0.98364 0.32303 0.98858 0.0
C4 C 0.02521 0.34077 0.03322 0.0
C5 C 0.01372 0.37568 0.98454 0.0
O6 O 0.97673 0.32752 1.00248 0.0
O7 O 1.00054 0.33219 0.98766 0.0
O8 O 0.02374 0.36953 0.98975 0.0
O9 O 0.99923 0.36961 0.99418 0.0
C10 C 0.99421 0.36392 0.04415 0.0
O11 O 0.03157 0.35603 0.02521 0.0
O12 O 0.00852 0.3307 0.03097 0.0
In13 In 0.64984 0.65356 0.00782 0.0
O14 O 0.64167 0.64386 0.0398 0.0
O15 O 0.6389 0.62458 0.01839 0.0
C16 C 0.68327 0.66281 0.99462 0.0
C17 C 0.65374 0.68414 0.02369 0.0
C18 C 0.62421 0.64056 0.97901 0.0
O19 O 0.67249 0.64732 1.00107 0.0
O20 O 0.67731 0.67351 0.99509 0.0
O21 O 0.6212 0.64348 0.99657 0.0
O22 O 0.64026 0.64468 0.97578 0.0
C23 C 0.63673 0.62768 0.0362 0.0
O24 O 0.64694 0.67856 0.00666 0.0
O25 O 0.65857 0.67433 0.03261 0.0
In26 In 0.35392 0.00456 0.01381 0.0
O27 O 0.3522 0.02951 0.0058 0.0
O28 O 0.33754 0.00574 0.98831 0.0
C29 C 0.37542 0.01334 0.04595 0.0
C30 C 0.37498 0.00443 0.98432 0.0
C31 C 0.32273 0.98122 0.03133 0.0
O32 O 0.37076 0.02396 0.03863 0.0
O33 O 0.36946 0.99859 0.03684 0.0
O34 O 0.33189 0.97582 0.02184 0.0
O35 O 0.32928 0.99801 0.03165 0.0
C36 C 0.342 0.022 0.99099 0.0
O37 O 0.36134 0.98998 0.99002 0.0
O38 O 0.37819 0.01821 0.99418 0.0
In39 In 0.00743 0.65165 0.01136 0.0
O40 O 0.0255 0.653 0.98553 0.0
O41 O 0.99922 0.63017 0.98782 0.0
C42 C 0.02613 0.6809 0.03405 0.0
C43 C 0.98362 0.66014 0.99644 0.0
C44 C 0.00867 0.63006 0.03946 0.0
O45 O 0.03269 0.67853 0.0182 0.0
O46 O 0.0102 0.66882 0.03787 0.0
O47 O 0.99405 0.62963 0.03533 0.0
O48 O 0.02191 0.64061 0.0289 0.0
C49 C 0.01385 0.63801 0.97835 0.0
O50 O 0.97849 0.64547 0.00556 0.0
O51 O 1.00042 0.67016 0.99504 0.0
In52 In 0.35476 0.35338 0.01146 0.0
O53 O 0.35585 0.37523 0.99119 0.0
O54 O 0.37637 0.36854 0.98797 0.0
C55 C 0.32267 0.34552 0.02743 0.0
C56 C 0.34779 0.32105 0.99707 0.0
C57 C 0.37964 0.37001 0.04024 0.0
O58 O 0.32625 0.34909 0.00925 0.0
O59 O 0.33512 0.34567 0.03746 0.0
O60 O 0.36893 0.37523 0.03488 0.0
O61 O 0.37806 0.35659 0.0308 0.0
C62 C 0.36983 0.37798 0.98207 0.0
O63 O 0.35348 0.32623 0.01448 0.0
O64 O 0.34543 0.33205 0.98701 0.0
In65 In 0.65208 0.0087 0.01849 0.0
O66 O 0.65269 0.02451 0.046 0.0
O67 O 0.6284 1.00037 0.03982 0.0
C68 C 0.68183 0.03578 1.00191 0.0
C69 C 0.66204 0.9857 0.03342 0.0
C70 C 0.63158 0.00591 0.98658 0.0
O71 O 0.67295 0.03819 0.01533 0.0
O72 O 0.67613 0.01954 0.99734 0.0
O73 O 0.63469 0.9934 0.99091 0.0
O74 O 0.63793 0.01879 0.99868 0.0
C75 C 0.63669 0.01382 0.05109 0.0
O76 O 0.64672 0.98015 0.02571 0.0
O77 O 0.67215 0.0025 0.03306 0.0
In78 In 0.66907 0.68951 0.34549 0.0
O79 O 0.65557 0.68557 0.37591 0.0
O80 O 0.67334 0.71226 0.36636 0.0
C81 C 0.63991 0.66271 0.32717 0.0
C82 C 0.69174 0.67901 0.36015 0.0
C83 C 0.67986 0.713 0.31473 0.0
O84 O 0.63882 0.67363 0.33885 0.0
O85 O 0.65554 0.66516 0.32504 0.0
O86 O 0.68646 0.70298 0.31786 0.0
O87 O 0.6684 0.71153 0.32739 0.0
C88 C 0.66306 0.70212 0.37981 0.0
O89 O 0.6969 0.69529 0.35648 0.0
O90 O 0.67551 0.66829 0.35601 0.0
In91 In 0.31396 0.98287 0.35397 0.0
O92 O 0.30794 0.96413 0.38084 0.0
O93 O 0.29395 0.97864 0.37811 0.0
C94 C 0.3418 0.98156 0.3372 0.0
C95 C 0.32841 0.01735 0.36585 0.0
C96 C 0.28801 0.96355 0.32708 0.0
O97 O 0.33572 0.9749 0.35415 0.0
O98 O 0.33384 0.98879 0.32889 0.0
O99 O 0.29806 0.98034 0.32526 0.0
O100 O 0.2911 0.95687 0.34219 0.0
C101 C 0.29632 0.96752 0.38798 0.0
O102 O 0.31377 0.00941 0.35632 0.0
O103 O 0.33588 0.00812 0.3687 0.0
In104 In 0.01452 0.32885 0.34447 0.0
O105 O 0.01795 0.357 0.348 0.0
O106 O 0.00705 0.34289 0.32096 0.0
C107 C 0.03312 0.32664 0.37571 0.0
C108 C 0.03158 0.32197 0.31505 0.0
C109 C 0.98037 0.30683 0.35632 0.0
O110 O 0.03617 0.34164 0.36897 0.0
O111 O 0.0211 0.3132 0.36655 0.0
O112 O 0.98624 0.30496 0.3398 0.0
O113 O 0.99156 0.32004 0.36652 0.0
C114 C 0.01174 0.35696 0.33094 0.0
O115 O 0.01612 0.31049 0.32109 0.0
O116 O 0.03848 0.33692 0.32389 0.0
In117 In 0.6593 0.97771 0.34897 0.0
O118 O 0.67607 0.97355 0.32457 0.0
O119 O 0.64762 0.96021 0.32201 0.0
C120 C 0.68235 0.00454 0.37297 0.0
C121 C 0.63939 0.99144 0.33488 0.0
C122 C 0.64947 0.95067 0.37517 0.0
O123 O 0.68722 0.0021 0.35601 0.0
O124 O 0.66614 0.99381 0.37725 0.0
O125 O 0.63925 0.95667 0.37035 0.0
O126 O 0.66444 0.95798 0.36635 0.0
C127 C 0.66224 0.96317 0.31448 0.0
O128 O 0.63253 0.97631 0.34332 0.0
O129 O 0.65636 0.99994 0.33416 0.0
In130 In 0.02138 0.68373 0.3473 0.0
O131 O 0.02157 0.70273 0.32341 0.0
O132 O 0.04319 0.69739 0.32378 0.0
C133 C 0.99449 0.6854 0.36631 0.0
C134 C 0.00966 0.65216 0.32788 0.0
C135 C 0.04484 0.69436 0.37822 0.0
O136 O 0.0069 0.69855 0.35713 0.0
O137 O 0.9954 0.67121 0.36563 0.0
O138 O 0.0322 0.67836 0.37632 0.0
O139 O 0.04593 0.70462 0.36429 0.0
C140 C 0.03614 0.70559 0.31563 0.0
O141 O 0.02456 0.65998 0.33689 0.0
O142 O 1.00062 0.66 0.32914 0.0
In143 In 0.32475 0.34049 0.34915 0.0
O144 O 0.31875 0.31147 0.35549 0.0
O145 O 0.34364 0.33346 0.36494 0.0
C146 C 0.30484 0.33983 0.31764 0.0
C147 C 0.3087 0.34678 0.3803 0.0
C148 C 0.35659 0.3648 0.33354 0.0
O149 O 0.30584 0.3261 0.32235 0.0
O150 O 0.31318 0.35308 0.32908 0.0
O151 O 0.35125 0.36684 0.35035 0.0
O152 O 0.34601 0.35027 0.32473 0.0
C153 C 0.33359 0.31669 0.36427 0.0
O154 O 0.32335 0.35868 0.37294 0.0
O155 O 0.30211 0.33162 0.37201 0.0
In156 In 0.33604 0.01683 0.67801 0.0
O157 O 0.36339 0.01785 0.68075 0.0
O158 O 0.34119 0.99869 0.69784 0.0
C159 C 0.33532 0.03472 0.6454 0.0
C160 C 0.33845 0.03973 0.70694 0.0
C161 C 0.30907 0.98494 0.66574 0.0
O162 O 0.34903 0.03341 0.6495 0.0
O163 O 0.32267 0.02748 0.6578 0.0
O164 O 0.30797 0.99257 0.68139 0.0
O165 O 0.32386 0.9933 0.65656 0.0
C166 C 0.35755 0.0053 0.69345 0.0
O167 O 0.324 0.02521 0.70362 0.0
O168 O 0.35134 0.0425 0.69573 0.0
In169 In 0.98121 0.31348 0.6757 0.0
O170 O 0.97866 0.33778 0.68535 0.0
O171 O 0.99471 0.33057 0.70286 0.0
C172 C 0.95805 0.30018 0.6447 0.0
C173 C 0.96628 0.2868 0.70286 0.0
C174 C 0.0127 0.32591 0.65612 0.0
O175 O 0.95932 0.31286 0.6554 0.0
O176 O 0.96823 0.29426 0.64982 0.0
O177 O 0.00519 0.311 0.66503 0.0
O178 O 0.00449 0.3346 0.65738 0.0
C179 C 0.98848 0.34098 0.70057 0.0
O180 O 0.98167 0.29211 0.69555 0.0
O181 O 0.95831 0.29466 0.69613 0.0
In182 In 0.68893 0.66914 0.68168 0.0
O183 O 0.69467 0.69796 0.68364 0.0
O184 O 0.67782 0.68138 0.66007 0.0
C185 C 0.70737 0.66497 0.7115 0.0
C186 C 0.7084 0.66891 0.65051 0.0
C187 C 0.65617 0.64941 0.69798 0.0
O188 O 0.70841 0.67993 0.70802 0.0
O189 O 0.69734 0.65245 0.69978 0.0
O190 O 0.66135 0.64315 0.684 0.0
O191 O 0.66724 0.66535 0.70292 0.0
C192 C 0.68546 0.69665 0.66834 0.0
O193 O 0.69255 0.65601 0.65335 0.0
O194 O 0.71409 0.68115 0.66348 0.0
In195 In 0.32995 0.31597 0.68113 0.0
O196 O 0.34546 0.31029 0.65657 0.0
O197 O 0.31686 0.29545 0.65698 0.0
C198 C 0.35289 0.34365 0.70421 0.0
C199 C 0.31173 0.33041 0.66413 0.0
C200 C 0.32019 0.29072 0.70957 0.0
O201 O 0.35844 0.33911 0.689 0.0
O202 O 0.33616 0.33456 0.70707 0.0
O203 O 0.31002 0.29652 0.70383 0.0
O204 O 0.33504 0.29728 0.70053 0.0
C205 C 0.33109 0.29842 0.64836 0.0
O206 O 0.30411 0.31634 0.67462 0.0
O207 O 0.32858 0.33744 0.66267 0.0
In208 In 0.68676 0.0185 0.68319 0.0
O209 O 0.69398 0.03897 0.6578 0.0
O210 O 0.71511 0.03745 0.67227 0.0
C211 C 0.65678 0.0169 0.69795 0.0
C212 C 0.67567 0.98911 0.65983 0.0
C213 C 0.70649 0.02644 0.71681 0.0
O214 O 0.66844 0.03014 0.68817 0.0
O215 O 0.66007 0.00422 0.70004 0.0
O216 O 0.70503 0.01442 0.70484 0.0
O217 O 0.69762 0.03396 0.71207 0.0
C218 C 0.71063 0.04474 0.65898 0.0
O219 O 0.68347 0.99068 0.67627 0.0
O220 O 0.67326 0.00202 0.65565 0.0
In221 In 0.98008 0.66478 0.67923 0.0
O222 O 0.97672 0.637 0.68658 0.0
O223 O 0.98993 0.65836 0.7074 0.0
C224 C 0.961 0.6589 0.64522 0.0
C225 C 0.96455 0.67662 0.70555 0.0
C226 C 0.01341 0.68388 0.66394 0.0
O227 O 0.95634 0.64678 0.65824 0.0
O228 O 0.9748 0.67354 0.6495 0.0
O229 O 0.00524 0.69125 0.67154 0.0
O230 O 0.00497 0.66692 0.66462 0.0
C231 C 0.98435 0.64209 0.70336 0.0
O232 O 0.98056 0.68631 0.69972 0.0
O233 O 0.95622 0.66136 0.69745 0.0
C234 C 0.2266 0.34067 0.12668 0.0
C235 C 0.22136 0.32825 0.11096 0.0
C236 C 0.21386 0.33988 0.14025 0.0
C237 C 0.19572 0.32643 0.13854 0.0
C238 C 0.2033 0.31461 0.10956 0.0
C239 C 0.19064 0.31374 0.12317 0.0
C240 C 0.18153 0.32654 0.15097 0.0
C241 C 0.21835 0.32116 0.1959 0.0
C242 C 0.22627 0.33567 0.20929 0.0
C243 C 0.20433 0.31895 0.18333 0.0
C244 C 0.19798 0.33117 0.18408 0.0
C245 C 0.21972 0.34771 0.21007 0.0
C246 C 0.20568 0.34541 0.19772 0.0
C247 C 0.1826 0.32881 0.17185 0.0
C248 C 0.10723 0.31013 0.19328 0.0
C249 C 0.11107 0.32067 0.21058 0.0
C250 C 0.121 0.31234 0.1805 0.0
C251 C 0.13891 0.32554 0.18433 0.0
C252 C 0.12902 0.33387 0.21438 0.0
C253 C 0.14275 0.33627 0.20141 0.0
C254 C 0.15389 0.32703 0.17192 0.0
C255 C 0.11973 0.33765 0.12938 0.0
C256 C 0.11131 0.32441 0.11462 0.0
C257 C 0.13329 0.33803 0.1413 0.0
C258 C 0.13867 0.32518 0.13868 0.0
C259 C 0.11696 0.31179 0.11182 0.0
C260 C 0.1306 0.31227 0.12361 0.0
C261 C 0.15318 0.32553 0.15096 0.0
H262 H 0.24039 0.35147 0.12797 0.0
H263 H 0.21809 0.35023 0.15152 0.0
H264 H 0.1989 0.30474 0.09774 0.0
H265 H 0.17673 0.30331 0.12144 0.0
H266 H 0.22313 0.31167 0.19501 0.0
H267 H 0.19832 0.30761 0.17325 0.0
H268 H 0.22533 0.35885 0.22045 0.0
H269 H 0.20085 0.35486 0.19877 0.0
H270 H 0.09358 0.29996 0.18969 0.0
H271 H 0.11762 0.30333 0.16794 0.0
H272 H 0.13261 0.34201 0.22772 0.0
H273 H 0.15646 0.34634 0.20493 0.0
H274 H 0.11564 0.34753 0.13192 0.0
H275 H 0.13961 0.3484 0.15252 0.0
H276 H 0.11091 0.30158 0.10038 0.0
H277 H 0.13469 0.30238 0.12112 0.0
N278 N 0.16688 0.32507 0.14141 0.0
N279 N 0.1687 0.32888 0.18143 0.0
C280 C 0.66425 0.8889 0.12607 0.0
C281 C 0.6778 0.89771 0.11172 0.0
C282 C 0.66377 0.8752 0.13782 0.0
C283 C 0.67688 0.87011 0.13552 0.0
C284 C 0.69069 0.89234 0.10925 0.0
C285 C 0.69017 0.87866 0.12093 0.0
C286 C 0.67636 0.85522 0.14722 0.0
C287 C 0.68482 0.89725 0.19368 0.0
C288 C 0.66957 0.8915 0.20573 0.0
C289 C 0.68633 0.88506 0.1811 0.0
C290 C 0.6727 0.86694 0.18065 0.0
C291 C 0.65604 0.87335 0.20529 0.0
C292 C 0.6577 0.86115 0.19305 0.0
C293 C 0.67425 0.85367 0.16809 0.0
C294 C 0.69366 0.7983 0.18971 0.0
C295 C 0.68092 0.78885 0.20469 0.0
C296 C 0.69164 0.81008 0.17703 0.0
C297 C 0.6769 0.81278 0.17914 0.0
C298 C 0.66595 0.79131 0.20636 0.0
C299 C 0.66411 0.80331 0.1939 0.0
C300 C 0.6756 0.82658 0.16725 0.0
C301 C 0.6635 0.78226 0.12325 0.0
C302 C 0.6736 0.78736 0.10562 0.0
C303 C 0.66497 0.79525 0.13687 0.0
C304 C 0.67695 0.8136 0.13339 0.0
C305 C 0.68574 0.80565 0.10226 0.0
C306 C 0.68741 0.81861 0.11599 0.0
C307 C 0.67712 0.82776 0.14628 0.0
H308 H 0.65414 0.89272 0.12837 0.0
H309 H 0.653 0.86845 0.14849 0.0
H310 H 0.70112 0.89859 0.09811 0.0
H311 H 0.70026 0.8748 0.11863 0.0
H312 H 0.6954 0.91119 0.19377 0.0
H313 H 0.69816 0.88973 0.17186 0.0
H314 H 0.64421 0.86859 0.21456 0.0
H315 H 0.64714 0.8472 0.19307 0.0
H316 H 0.70553 0.79707 0.18811 0.0
H317 H 0.7019 0.81754 0.16602 0.0
H318 H 0.65561 0.78403 0.21734 0.0
H319 H 0.65265 0.80521 0.19583 0.0
H320 H 0.65382 0.76827 0.12606 0.0
H321 H 0.65613 0.79091 0.14963 0.0
H322 H 0.69378 0.80996 0.08884 0.0
H323 H 0.69663 0.83263 0.11279 0.0
N324 N 0.67766 0.84217 0.1372 0.0
N325 N 0.67398 0.83945 0.17725 0.0
C326 C 0.12268 0.77544 0.13293 0.0
C327 C 0.11523 0.77937 0.11647 0.0
C328 C 0.13674 0.78925 0.14361 0.0
C329 C 0.1431 0.8073 0.13848 0.0
C330 C 0.12233 0.79728 0.11048 0.0
C331 C 0.13614 0.81116 0.12145 0.0
C332 C 0.15706 0.82214 0.15065 0.0
C333 C 0.11022 0.79223 0.19246 0.0
C334 C 0.1139 0.78565 0.20995 0.0
C335 C 0.12415 0.80382 0.17983 0.0
C336 C 0.14204 0.80871 0.1841 0.0
C337 C 0.13185 0.79069 0.21422 0.0
C338 C 0.14573 0.80207 0.20146 0.0
C339 C 0.15715 0.822 0.1717 0.0
C340 C 0.21282 0.89326 0.19955 0.0
C341 C 0.21901 0.88731 0.21556 0.0
C342 C 0.20293 0.88139 0.18411 0.0
C343 C 0.19934 0.86353 0.18448 0.0
C344 C 0.21653 0.86989 0.21503 0.0
C345 C 0.20675 0.85813 0.1997 0.0
C346 C 0.18524 0.84951 0.17179 0.0
C347 C 0.22952 0.88523 0.12914 0.0
C348 C 0.22389 0.89295 0.11441 0.0
C349 C 0.21689 0.87146 0.14128 0.0
C350 C 0.19844 0.86519 0.13883 0.0
C351 C 0.20542 0.88647 0.11188 0.0
C352 C 0.19285 0.87268 0.12387 0.0
C353 C 0.18469 0.85021 0.15084 0.0
H354 H 0.11753 0.76166 0.1376 0.0
H355 H 0.14239 0.78581 0.15609 0.0
H356 H 0.11675 0.80054 0.09777 0.0
H357 H 0.14103 0.82493 0.11697 0.0
H358 H 0.09658 0.78856 0.18855 0.0
H359 H 0.12092 0.8092 0.16694 0.0
H360 H 0.13531 0.78626 0.22774 0.0
H361 H 0.15943 0.80589 0.2053 0.0
H362 H 0.21449 0.90661 0.19971 0.0
H363 H 0.19705 0.88576 0.17273 0.0
H364 H 0.22133 0.86505 0.22711 0.0
H365 H 0.2041 0.84442 0.20033 0.0
H366 H 0.24367 0.88998 0.13144 0.0
H367 H 0.22153 0.86558 0.15237 0.0
H368 H 0.20065 0.89196 0.10046 0.0
H369 H 0.17869 0.86791 0.12153 0.0
N370 N 0.17067 0.83642 0.14111 0.0
N371 N 0.17139 0.83551 0.1813 0.0
C372 C 0.34179 0.12224 0.8291 0.0
C373 C 0.3304 0.11477 0.81258 0.0
C374 C 0.33893 0.13273 0.84281 0.0
C375 C 0.3244 0.13576 0.84055 0.0
C376 C 0.31559 0.1174 0.81053 0.0
C377 C 0.3127 0.12792 0.82433 0.0
C378 C 0.32272 0.14869 0.85373 0.0
C379 C 0.31169 0.10296 0.89357 0.0
C380 C 0.32599 0.10629 0.90639 0.0
C381 C 0.31161 0.11696 0.8832 0.0
C382 C 0.32572 0.13466 0.88556 0.0
C383 C 0.33997 0.12415 0.90899 0.0
C384 C 0.33972 0.13822 0.89882 0.0
C385 C 0.32556 0.14941 0.87447 0.0
C386 C 0.3176 0.21153 0.90303 0.0
C387 C 0.332 0.21872 0.91661 0.0
C388 C 0.31551 0.19826 0.88942 0.0
C389 C 0.32797 0.1922 0.88895 0.0
C390 C 0.34456 0.21282 0.91586 0.0
C391 C 0.34253 0.19969 0.90224 0.0
C392 C 0.32539 0.17706 0.87614 0.0
C393 C 0.32968 0.21865 0.83068 0.0
C394 C 0.31386 0.21251 0.81942 0.0
C395 C 0.33189 0.20688 0.84321 0.0
C396 C 0.31836 0.18879 0.84452 0.0
C397 C 0.30022 0.19449 0.82117 0.0
C398 C 0.30253 0.18273 0.83345 0.0
C399 C 0.32117 0.1756 0.85564 0.0
H400 H 0.35324 0.12036 0.83118 0.0
H401 H 0.34856 0.13906 0.85474 0.0
H402 H 0.30668 0.11197 0.79784 0.0
H403 H 0.30155 0.13026 0.82209 0.0
H404 H 0.30041 0.08952 0.8916 0.0
H405 H 0.30043 0.11398 0.87341 0.0
H406 H 0.35131 0.12726 0.91854 0.0
H407 H 0.35068 0.15182 0.90093 0.0
H408 H 0.30761 0.21569 0.90342 0.0
H409 H 0.30385 0.19235 0.87978 0.0
H410 H 0.35593 0.21828 0.92592 0.0
H411 H 0.3523 0.19523 0.90223 0.0
H412 H 0.3404 0.23248 0.82964 0.0
H413 H 0.34436 0.21175 0.85136 0.0
H414 H 0.288 0.18931 0.81247 0.0
H415 H 0.29202 0.16876 0.83408 0.0
N416 N 0.32023 0.1616 0.84521 0.0
N417 N 0.32717 0.16372 0.88479 0.0
C418 C 0.902 0.20931 0.89463 0.0
C419 C 0.89842 0.2214 0.90504 0.0
C420 C 0.88829 0.19451 0.8847 0.0
C421 C 0.87063 0.1914 0.88495 0.0
C422 C 0.88061 0.21798 0.90567 0.0
C423 C 0.86683 0.20305 0.89584 0.0
C424 C 0.85605 0.1757 0.87441 0.0
C425 C 0.89047 0.21252 0.8252 0.0
C426 C 0.89835 0.20533 0.81257 0.0
C427 C 0.87762 0.20167 0.83927 0.0
C428 C 0.87246 0.18344 0.8411 0.0
C429 C 0.89332 0.18714 0.81461 0.0
C430 C 0.88042 0.17629 0.82862 0.0
C431 C 0.85756 0.17138 0.85449 0.0
C432 C 0.78933 0.11576 0.82383 0.0
C433 C 0.79121 0.10052 0.82089 0.0
C434 C 0.80103 0.1297 0.83647 0.0
C435 C 0.81502 0.12888 0.84616 0.0
C436 C 0.80498 0.09961 0.83133 0.0
C437 C 0.817 0.11382 0.84339 0.0
C438 C 0.82897 0.14464 0.85697 0.0
C439 C 0.78658 0.11013 0.90202 0.0
C440 C 0.78103 0.11922 0.91511 0.0
C441 C 0.80152 0.11964 0.88966 0.0
C442 C 0.81088 0.13852 0.88934 0.0
C443 C 0.79088 0.13813 0.91527 0.0
C444 C 0.80541 0.14759 0.90246 0.0
C445 C 0.82708 0.1492 0.87672 0.0
H446 H 0.91543 0.21117 0.89426 0.0
H447 H 0.89147 0.18542 0.87694 0.0
H448 H 0.87734 0.22702 0.9134 0.0
H449 H 0.85326 0.20081 0.8964 0.0
H450 H 0.89413 0.2265 0.82408 0.0
H451 H 0.87135 0.20744 0.8483 0.0
H452 H 0.89893 0.18112 0.80493 0.0
H453 H 0.87648 0.16222 0.82955 0.0
H454 H 0.77929 0.11736 0.81585 0.0
H455 H 0.79959 0.14146 0.83805 0.0
H456 H 0.80672 0.08803 0.83008 0.0
H457 H 0.82789 0.11308 0.8506 0.0
H458 H 0.77947 0.09563 0.90122 0.0
H459 H 0.8059 0.11205 0.88087 0.0
H460 H 0.78763 0.1458 0.92552 0.0
H461 H 0.81251 0.16214 0.90297 0.0
N462 N 0.84081 0.16457 0.88461 0.0
N463 N 0.84404 0.15594 0.84668 0.0
C464 C 0.7943 0.68723 0.90328 0.0
C465 C 0.78678 0.67537 0.91941 0.0
C466 C 0.80689 0.68639 0.8909 0.0
C467 C 0.81207 0.67348 0.8941 0.0
C468 C 0.79198 0.66244 0.92265 0.0
C469 C 0.8046 0.6616 0.91019 0.0
C470 C 0.82611 0.67321 0.88149 0.0
C471 C 0.78001 0.65692 0.83877 0.0
C472 C 0.7836 0.66815 0.82216 0.0
C473 C 0.7938 0.65958 0.85179 0.0
C474 C 0.81144 0.67365 0.84861 0.0
C475 C 0.80114 0.68254 0.81934 0.0
C476 C 0.81492 0.68521 0.83238 0.0
C477 C 0.8266 0.67517 0.8606 0.0
C478 C 0.88953 0.67009 0.83175 0.0
C479 C 0.89732 0.6852 0.81919 0.0
C480 C 0.87639 0.66781 0.84564 0.0
C481 C 0.87075 0.68054 0.84702 0.0
C482 C 0.89189 0.69806 0.82098 0.0
C483 C 0.87864 0.69567 0.83462 0.0
C484 C 0.85549 0.67755 0.85977 0.0
C485 C 0.90063 0.68823 0.90187 0.0
C486 C 0.89629 0.67535 0.91695 0.0
C487 C 0.88723 0.68792 0.88981 0.0
C488 C 0.8692 0.67446 0.89221 0.0
C489 C 0.87823 0.66188 0.91931 0.0
C490 C 0.86485 0.66149 0.9071 0.0
C491 C 0.85462 0.6746 0.88053 0.0
H492 H 0.79049 0.69723 0.90021 0.0
H493 H 0.8128 0.6961 0.879 0.0
H494 H 0.78659 0.65324 0.93508 0.0
H495 H 0.80857 0.65168 0.91314 0.0
H496 H 0.7666 0.64579 0.84143 0.0
H497 H 0.79079 0.65017 0.86387 0.0
H498 H 0.80442 0.69129 0.80656 0.0
H499 H 0.82844 0.69605 0.82949 0.0
H500 H 0.8935 0.65998 0.83071 0.0
H501 H 0.87026 0.65589 0.85485 0.0
H502 H 0.89745 0.70971 0.81134 0.0
H503 H 0.87434 0.70555 0.8353 0.0
H504 H 0.9144 0.6987 0.89946 0.0
H505 H 0.89098 0.69852 0.87899 0.0
H506 H 0.87432 0.65191 0.93094 0.0
H507 H 0.85101 0.65112 0.90946 0.0
N508 N 0.84 0.67269 0.89058 0.0
N509 N 0.84138 0.67755 0.85068 0.0
C510 C 0.77014 0.64514 0.45603 0.0
C511 C 0.77506 0.65815 0.44099 0.0
C512 C 0.78317 0.64494 0.46832 0.0
C513 C 0.80141 0.65786 0.466 0.0
C514 C 0.79332 0.67106 0.43869 0.0
C515 C 0.80635 0.67084 0.45099 0.0
C516 C 0.81548 0.65743 0.47845 0.0
C517 C 0.78502 0.67165 0.52208 0.0
C518 C 0.77776 0.66039 0.53872 0.0
C519 C 0.79616 0.66932 0.50879 0.0
C520 C 0.8 0.65539 0.51154 0.0
C521 C 0.78109 0.64607 0.54113 0.0
C522 C 0.7922 0.64367 0.52772 0.0
C523 C 0.81393 0.65456 0.49925 0.0
C524 C 0.88671 0.66987 0.52512 0.0
C525 C 0.8826 0.65487 0.53711 0.0
C526 C 0.87366 0.67002 0.51284 0.0
C527 C 0.85622 0.65513 0.51216 0.0
C528 C 0.865 0.6401 0.53663 0.0
C529 C 0.85193 0.64029 0.52437 0.0
C530 C 0.84215 0.65535 0.49965 0.0
C531 C 0.88471 0.65752 0.45842 0.0
C532 C 0.89183 0.67212 0.44513 0.0
C533 C 0.86908 0.65294 0.46929 0.0
C534 C 0.86045 0.66311 0.4674 0.0
C535 C 0.88268 0.68174 0.44271 0.0
C536 C 0.86726 0.67732 0.45372 0.0
C537 C 0.84412 0.65908 0.479 0.0
H538 H 0.75619 0.63508 0.45832 0.0
H539 H 0.77899 0.6345 0.47944 0.0
H540 H 0.7976 0.6811 0.4271 0.0
H541 H 0.82034 0.68086 0.44877 0.0
H542 H 0.7826 0.68272 0.51969 0.0
H543 H 0.80241 0.67897 0.49691 0.0
H544 H 0.77588 0.63728 0.55391 0.0
H545 H 0.79516 0.63298 0.53034 0.0
H546 H 0.89997 0.68168 0.52546 0.0
H547 H 0.87714 0.68185 0.50401 0.0
H548 H 0.86136 0.62828 0.54554 0.0
H549 H 0.83847 0.62875 0.52426 0.0
H550 H 0.89135 0.64978 0.46069 0.0
H551 H 0.8638 0.64148 0.47915 0.0
H552 H 0.88737 0.69272 0.43221 0.0
H553 H 0.86075 0.68522 0.45167 0.0
N554 N 0.83062 0.65981 0.46928 0.0
N555 N 0.82718 0.65332 0.50891 0.0
C556 C 0.33385 0.22103 0.45998 0.0
C557 C 0.34781 0.22963 0.44603 0.0
C558 C 0.3331 0.20762 0.47245 0.0
C559 C 0.34639 0.20265 0.47137 0.0
C560 C 0.36088 0.22437 0.44477 0.0
C561 C 0.36013 0.21102 0.45723 0.0
C562 C 0.34537 0.18779 0.48363 0.0
C563 C 0.35121 0.22947 0.52915 0.0
C564 C 0.33586 0.2236 0.54109 0.0
C565 C 0.35302 0.21734 0.51677 0.0
C566 C 0.33957 0.19914 0.51632 0.0
C567 C 0.32251 0.20537 0.54064 0.0
C568 C 0.32443 0.19325 0.52853 0.0
C569 C 0.34154 0.18584 0.50422 0.0
C570 C 0.35081 0.12319 0.52792 0.0
C571 C 0.33591 0.11426 0.54064 0.0
C572 C 0.35272 0.13733 0.51584 0.0
C573 C 0.33978 0.14279 0.51629 0.0
C574 C 0.32316 0.11996 0.54122 0.0
C575 C 0.32514 0.1341 0.52928 0.0
C576 C 0.34174 0.15812 0.50424 0.0
C577 C 0.33374 0.11561 0.45942 0.0
C578 C 0.34827 0.12078 0.44632 0.0
C579 C 0.33297 0.12827 0.47184 0.0
C580 C 0.34675 0.14632 0.47147 0.0
C581 C 0.36198 0.13888 0.44592 0.0
C582 C 0.36114 0.15153 0.45826 0.0
C583 C 0.34563 0.16009 0.48367 0.0
H584 H 0.32359 0.22476 0.4614 0.0
H585 H 0.32196 0.20095 0.48269 0.0
H586 H 0.37161 0.23043 0.43395 0.0
H587 H 0.37034 0.20721 0.4558 0.0
H588 H 0.36168 0.24345 0.52923 0.0
H589 H 0.365 0.22211 0.50776 0.0
H590 H 0.31064 0.20043 0.54987 0.0
H591 H 0.31401 0.17925 0.52861 0.0
H592 H 0.36086 0.11913 0.52717 0.0
H593 H 0.3644 0.14412 0.50633 0.0
H594 H 0.31171 0.11359 0.55112 0.0
H595 H 0.31511 0.1382 0.53012 0.0
H596 H 0.32301 0.10176 0.46015 0.0
H597 H 0.32145 0.12399 0.48149 0.0
H598 H 0.37322 0.14333 0.4358 0.0
H599 H 0.37178 0.16543 0.45749 0.0
N600 N 0.34739 0.17488 0.47424 0.0
N601 N 0.33976 0.17104 0.51362 0.0
C602 C 0.78356 0.1038 0.46775 0.0
C603 C 0.77386 0.1055 0.45193 0.0
C604 C 0.79728 0.11902 0.47707 0.0
C605 C 0.80121 0.13631 0.47121 0.0
C606 C 0.77835 0.12273 0.44532 0.0
C607 C 0.79188 0.138 0.45492 0.0
C608 C 0.81553 0.15263 0.48128 0.0
C609 C 0.77889 0.12554 0.53577 0.0
C610 C 0.78686 0.1191 0.54932 0.0
C611 C 0.78863 0.13595 0.5194 0.0
C612 C 0.80646 0.14008 0.51645 0.0
C613 C 0.80431 0.12233 0.54539 0.0
C614 C 0.81407 0.13292 0.52931 0.0
C615 C 0.81819 0.15393 0.50208 0.0
C616 C 0.87286 0.23082 0.51784 0.0
C617 C 0.88146 0.22792 0.53408 0.0
C618 C 0.86115 0.21651 0.50557 0.0
C619 C 0.85797 0.19906 0.50919 0.0
C620 C 0.87849 0.21049 0.53733 0.0
C621 C 0.86691 0.19629 0.52506 0.0
C622 C 0.8438 0.1832 0.49844 0.0
C623 C 0.88429 0.21552 0.45148 0.0
C624 C 0.87755 0.22031 0.43497 0.0
C625 C 0.8726 0.20326 0.46549 0.0
C626 C 0.85392 0.19583 0.46352 0.0
C627 C 0.85887 0.21276 0.43292 0.0
C628 C 0.84718 0.20062 0.44705 0.0
C629 C 0.8413 0.18199 0.47758 0.0
H630 H 0.78057 0.09064 0.47286 0.0
H631 H 0.80488 0.11717 0.48873 0.0
H632 H 0.77106 0.12437 0.43313 0.0
H633 H 0.79486 0.15115 0.44981 0.0
H634 H 0.76551 0.12338 0.53837 0.0
H635 H 0.78262 0.14158 0.50974 0.0
H636 H 0.81069 0.11714 0.55512 0.0
H637 H 0.82783 0.13598 0.52724 0.0
H638 H 0.87492 0.24408 0.51481 0.0
H639 H 0.8541 0.21898 0.49374 0.0
H640 H 0.88453 0.20758 0.54987 0.0
H641 H 0.86454 0.18294 0.52834 0.0
H642 H 0.89861 0.22082 0.45322 0.0
H643 H 0.87819 0.19927 0.47756 0.0
H644 H 0.85329 0.21624 0.42038 0.0
H645 H 0.83283 0.19491 0.44506 0.0
N646 N 0.82718 0.1668 0.46987 0.0
N647 N 0.83217 0.16907 0.50972 0.0
C648 C 0.99136 0.54579 0.16211 0.0
C649 C 0.00582 0.55257 0.14865 0.0
C650 C 0.98856 0.53212 0.17549 0.0
C651 C 1.00023 0.52509 0.17565 0.0
C652 C 0.01728 0.54529 0.14876 0.0
C653 C 0.01448 0.53171 0.16204 0.0
C654 C 0.99719 0.50995 0.18869 0.0
C655 C 0.00731 0.55533 0.23084 0.0
C656 C 0.99272 0.5511 0.24356 0.0
C657 C 0.00778 0.54191 0.21946 0.0
C658 C 0.99368 0.52403 0.22061 0.0
C659 C 0.97875 0.53316 0.24478 0.0
C660 C 0.9793 0.51977 0.23355 0.0
C661 C 0.99417 0.50943 0.20941 0.0
C662 C 0.00554 0.44894 0.23536 0.0
C663 C 0.99493 0.44385 0.25262 0.0
C664 C 0.00453 0.46057 0.2216 0.0
C665 C 0.99252 0.467 0.22451 0.0
C666 C 0.9829 0.45022 0.25556 0.0
C667 C 0.9817 0.46165 0.24164 0.0
C668 C 0.99272 0.48092 0.21124 0.0
C669 C 0.97654 0.4351 0.16713 0.0
C670 C 0.99029 0.43797 0.15364 0.0
C671 C 0.97835 0.44889 0.17974 0.0
C672 C 0.99382 0.46592 0.17893 0.0
C673 C 0.00603 0.45496 0.15348 0.0
C674 C 0.00763 0.46882 0.16573 0.0
C675 C 0.99496 0.48115 0.1904 0.0
H676 H 0.9823 0.55111 0.16236 0.0
H677 H 0.97716 0.52689 0.18545 0.0
H678 H 0.02831 0.54991 0.13832 0.0
H679 H 0.02349 0.52632 0.16166 0.0
H680 H 0.01826 0.56904 0.22954 0.0
H681 H 0.01926 0.54547 0.20996 0.0
H682 H 0.96747 0.52941 0.25467 0.0
H683 H 0.9684 0.50604 0.23491 0.0
H684 H 0.01518 0.44451 0.23291 0.0
H685 H 0.01375 0.4651 0.20917 0.0
H686 H 0.97452 0.44645 0.26871 0.0
H687 H 0.9725 0.46657 0.24444 0.0
H688 H 0.96407 0.42241 0.16757 0.0
H689 H 0.96739 0.44645 0.18958 0.0
H690 H 0.01717 0.45768 0.14381 0.0
H691 H 0.01968 0.48188 0.16488 0.0
N692 N 0.99736 0.49574 0.18006 0.0
N693 N 0.99214 0.49497 0.21983 0.0
C694 C 0.46434 0.44022 0.16686 0.0
C695 C 0.45675 0.44371 0.15008 0.0
C696 C 0.47592 0.45421 0.17954 0.0
C697 C 0.47996 0.47191 0.17577 0.0
C698 C 0.46061 0.46141 0.14664 0.0
C699 C 0.47209 0.47531 0.1593 0.0
C700 C 0.49382 0.48733 0.18728 0.0
C701 C 0.45062 0.45487 0.23267 0.0
C702 C 0.45675 0.45039 0.24994 0.0
C703 C 0.46286 0.46685 0.21876 0.0
C704 C 0.48145 0.47425 0.22166 0.0
C705 C 0.47532 0.45765 0.25267 0.0
C706 C 0.48752 0.46946 0.23871 0.0
C707 C 0.49479 0.48829 0.20827 0.0
C708 C 0.54559 0.56564 0.22434 0.0
C709 C 0.55468 0.56437 0.24109 0.0
C710 C 0.53519 0.55057 0.21245 0.0
C711 C 0.5336 0.53393 0.21719 0.0
C712 C 0.55342 0.54781 0.24553 0.0
C713 C 0.54281 0.53269 0.23381 0.0
C714 C 0.52095 0.51751 0.20616 0.0
C715 C 0.56537 0.54795 0.16125 0.0
C716 C 0.55977 0.55028 0.14244 0.0
C717 C 0.55263 0.53761 0.17572 0.0
C718 C 0.53412 0.52979 0.17167 0.0
C719 C 0.5414 0.54295 0.13857 0.0
C720 C 0.52871 0.53288 0.15306 0.0
C721 C 0.52031 0.51629 0.1852 0.0
H722 H 0.46157 0.42673 0.17003 0.0
H723 H 0.48216 0.45127 0.19186 0.0
H724 H 0.45534 0.46472 0.13369 0.0
H725 H 0.47516 0.48888 0.15593 0.0
H726 H 0.43639 0.4497 0.23033 0.0
H727 H 0.45778 0.47076 0.20613 0.0
H728 H 0.48044 0.45433 0.26575 0.0
H729 H 0.50177 0.47508 0.24139 0.0
H730 H 0.54639 0.57826 0.22056 0.0
H731 H 0.52791 0.55179 0.19996 0.0
H732 H 0.56015 0.54642 0.25846 0.0
H733 H 0.5416 0.51994 0.23786 0.0
H734 H 0.57951 0.55333 0.16437 0.0
H735 H 0.55729 0.53497 0.18958 0.0
H736 H 0.53685 0.54458 0.12409 0.0
H737 H 0.51458 0.52694 0.14944 0.0
N738 N 0.50667 0.50132 0.17672 0.0
N739 N 0.5083 0.50338 0.21681 0.0
C740 C 0.44909 0.00876 0.24261 0.0
C741 C 0.44092 0.99268 0.25362 0.0
C742 C 0.46305 0.01246 0.2293 0.0
C743 C 0.46904 1.0001 0.22665 0.0
C744 C 0.44672 0.9802 0.25054 0.0
C745 C 0.46069 0.98394 0.23734 0.0
C746 C 0.48502 0.00445 0.2144 0.0
C747 C 0.44432 0.00208 0.16924 0.0
C748 C 0.45025 0.01827 0.15883 0.0
C749 C 0.45613 0.99972 0.18155 0.0
C750 C 0.47406 0.01351 0.18361 0.0
C751 C 0.4681 0.03216 0.16132 0.0
C752 C 0.4799 0.02974 0.17346 0.0
C753 C 0.48736 0.0107 0.1946 0.0
C754 C 0.54915 0.00255 0.16665 0.0
C755 C 0.55855 0.01809 0.15499 0.0
C756 C 0.53537 1.00057 0.17933 0.0
C757 C 0.53068 0.01404 0.18046 0.0
C758 C 0.55381 0.03152 0.15612 0.0
C759 C 0.53987 0.02941 0.16857 0.0
C760 C 0.51567 0.01179 0.19324 0.0
C761 C 0.55987 0.02095 0.23546 0.0
C762 C 0.5556 0.0082 0.25066 0.0
C763 C 0.54647 0.02035 0.22319 0.0
C764 C 0.5285 0.00661 0.22527 0.0
C765 C 0.53757 0.99451 0.25282 0.0
C766 C 0.52421 0.99372 0.24025 0.0
C767 C 0.51389 0.00666 0.21345 0.0
H768 H 0.44515 0.01879 0.2448 0.0
H769 H 0.46958 0.02524 0.22163 0.0
H770 H 0.44055 0.96755 0.25846 0.0
H771 H 0.46513 0.97423 0.2356 0.0
H772 H 0.43063 0.99116 0.16764 0.0
H773 H 0.45141 0.98693 0.1889 0.0
H774 H 0.47316 0.04468 0.15329 0.0
H775 H 0.49373 0.04049 0.17467 0.0
H776 H 0.55255 0.99202 0.16607 0.0
H777 H 0.52823 0.98844 0.18808 0.0
H778 H 0.5607 0.04352 0.14712 0.0
H779 H 0.53635 0.03987 0.16905 0.0
H780 H 0.57358 0.03156 0.23308 0.0
H781 H 0.5502 0.03102 0.21247 0.0
H782 H 0.53362 0.98465 0.26456 0.0
H783 H 0.51044 0.98316 0.24248 0.0
N784 N 0.49847 0.00286 0.22306 0.0
N785 N 0.50252 0.01395 0.18477 0.0
C786 C 0.55701 0.0128 0.79498 0.0
C787 C 0.55518 1.00069 0.7799 0.0
C788 C 0.54266 0.00903 0.80759 0.0
C789 C 0.52615 0.99304 0.8054 0.0
C790 C 0.53884 0.98445 0.77803 0.0
C791 C 0.52435 0.98076 0.79054 0.0
C792 C 0.51037 0.99032 0.81704 0.0
C793 C 0.54716 0.9859 0.86225 0.0
C794 C 0.55427 0.99995 0.87625 0.0
C795 C 0.53326 0.9836 0.84943 0.0
C796 C 0.52617 0.9952 0.85058 0.0
C797 C 0.54703 0.01139 0.87741 0.0
C798 C 0.53307 0.00896 0.86484 0.0
C799 C 0.51097 0.99272 0.83786 0.0
C800 C 0.43924 0.98411 0.86025 0.0
C801 C 0.44568 0.99925 0.8727 0.0
C802 C 0.45111 0.9818 0.8479 0.0
C803 C 0.46956 0.99453 0.84804 0.0
C804 C 0.46413 0.01192 0.87265 0.0
C805 C 0.47591 0.00953 0.86056 0.0
C806 C 0.48282 0.99198 0.83661 0.0
C807 C 0.45016 0.00152 0.7904 0.0
C808 C 0.44115 0.98723 0.77689 0.0
C809 C 0.46318 0.00199 0.80334 0.0
C810 C 0.46742 0.98817 0.80306 0.0
C811 C 0.44559 0.97355 0.77652 0.0
C812 C 0.45868 0.9741 0.78934 0.0
C813 C 0.48187 0.98897 0.81586 0.0
H814 H 0.56948 0.02539 0.79677 0.0
H815 H 0.54427 0.01896 0.81856 0.0
H816 H 0.53705 0.97496 0.76641 0.0
H817 H 0.51165 0.96848 0.78841 0.0
H818 H 0.5525 0.9769 0.86106 0.0
H819 H 0.5279 0.97264 0.83883 0.0
H820 H 0.55207 0.02219 0.88822 0.0
H821 H 0.52775 0.01799 0.86616 0.0
H822 H 0.42508 0.97413 0.86003 0.0
H823 H 0.44597 0.96993 0.83862 0.0
H824 H 0.46956 0.02357 0.8823 0.0
H825 H 0.49011 0.01943 0.86107 0.0
H826 H 0.44702 0.01223 0.79111 0.0
H827 H 0.47011 0.0133 0.81335 0.0
H828 H 0.43908 0.96249 0.76611 0.0
H829 H 0.46195 0.96348 0.78859 0.0
N830 N 0.49573 0.98827 0.80689 0.0
N831 N 0.49726 0.99364 0.84671 0.0
C832 C 0.98128 0.54198 0.80093 0.0
C833 C 0.9909 0.54958 0.78333 0.0
C834 C 0.98312 0.5288 0.811 0.0
C835 C 0.995 0.52328 0.80397 0.0
C836 C 0.00178 0.54315 0.77549 0.0
C837 C 0.00381 0.53009 0.78575 0.0
C838 C 0.99844 0.51071 0.81574 0.0
C839 C 0.01906 0.56078 0.85362 0.0
C840 C 0.01094 0.55805 0.87245 0.0
C841 C 0.01597 0.54614 0.8417 0.0
C842 C 0.00444 0.52848 0.8482 0.0
C843 C 0.99952 0.54034 0.87893 0.0
C844 C 0.99634 0.52576 0.86696 0.0
C845 C 0.00183 0.51272 0.83647 0.0
C846 C 0.02424 0.46108 0.86078 0.0
C847 C 0.01155 0.45068 0.87548 0.0
C848 C 0.02101 0.47185 0.84775 0.0
C849 C 0.00521 0.47271 0.84936 0.0
C850 C 0.99547 0.45129 0.87652 0.0
C851 C 0.99252 0.46244 0.86387 0.0
C852 C 0.00243 0.48531 0.83704 0.0
C853 C 0.98763 0.43608 0.80167 0.0
C854 C 0.99714 0.43909 0.7838 0.0
C855 C 0.98789 0.45033 0.81189 0.0
C856 C 0.9982 0.46802 0.80484 0.0
C857 C 0.00656 0.45657 0.77604 0.0
C858 C 0.00712 0.47093 0.78652 0.0
C859 C 0.99954 0.48345 0.81626 0.0
H860 H 0.97254 0.54646 0.80709 0.0
H861 H 0.97558 0.52325 0.82458 0.0
H862 H 0.00932 0.54879 0.76193 0.0
H863 H 0.01281 0.52583 0.77985 0.0
H864 H 0.02786 0.57421 0.84809 0.0
H865 H 0.02286 0.54866 0.82757 0.0
H866 H 0.99335 0.53766 0.89349 0.0
H867 H 0.98762 0.51228 0.87247 0.0
H868 H 0.03693 0.46134 0.85962 0.0
H869 H 0.03109 0.47992 0.8368 0.0
H870 H 0.98507 0.44319 0.88711 0.0
H871 H 0.98024 0.46297 0.86532 0.0
H872 H 0.97998 0.42264 0.80772 0.0
H873 H 0.98 0.44746 0.82532 0.0
H874 H 0.01395 0.45919 0.76224 0.0
H875 H 0.0149 0.48438 0.78055 0.0
N876 N 0.99769 0.49628 0.80639 0.0
N877 N 0.00347 0.49982 0.84627 0.0
C878 C 0.5389 0.56423 0.78568 0.0
C879 C 0.55323 0.56266 0.77776 0.0
C880 C 0.5256 0.55046 0.79706 0.0
C881 C 0.5261 0.53467 0.80056 0.0
C882 C 0.55348 0.54659 0.78098 0.0
C883 C 0.53992 0.53264 0.79217 0.0
C884 C 0.51194 0.52036 0.81278 0.0
C885 C 0.54937 0.55628 0.86336 0.0
C886 C 0.54287 0.56699 0.87168 0.0
C887 C 0.53905 0.54278 0.84955 0.0
C888 C 0.52198 0.53963 0.84399 0.0
C889 C 0.52624 0.56448 0.86492 0.0
C890 C 0.51581 0.55077 0.85148 0.0
C891 C 0.5095 0.52327 0.83287 0.0
C892 C 0.44863 0.45208 0.8602 0.0
C893 C 0.44 0.45852 0.87276 0.0
C894 C 0.46215 0.46372 0.84714 0.0
C895 C 0.46724 0.48198 0.84636 0.0
C896 C 0.44503 0.47677 0.87178 0.0
C897 C 0.45854 0.48836 0.85881 0.0
C898 C 0.4825 0.49493 0.83395 0.0
C899 C 0.43929 0.45877 0.79248 0.0
C900 C 0.44295 0.44662 0.78238 0.0
C901 C 0.45294 0.47365 0.80227 0.0
C902 C 0.47059 0.47677 0.80225 0.0
C903 C 0.46082 0.45023 0.78153 0.0
C904 C 0.47456 0.46526 0.79133 0.0
C905 C 0.48473 0.49206 0.81366 0.0
H906 H 0.53789 0.57611 0.78307 0.0
H907 H 0.51482 0.55211 0.8031 0.0
H908 H 0.56433 0.54493 0.77529 0.0
H909 H 0.54043 0.52046 0.79465 0.0
H910 H 0.56199 0.55762 0.86827 0.0
H911 H 0.54393 0.53414 0.8441 0.0
H912 H 0.52097 0.57275 0.87046 0.0
H913 H 0.50265 0.54853 0.84733 0.0
H914 H 0.44501 0.43808 0.86055 0.0
H915 H 0.46892 0.45852 0.83804 0.0
H916 H 0.43889 0.48224 0.88147 0.0
H917 H 0.46234 0.50242 0.85864 0.0
H918 H 0.42578 0.4567 0.79297 0.0
H919 H 0.44965 0.48267 0.81006 0.0
H920 H 0.46408 0.44115 0.77387 0.0
H921 H 0.48816 0.46757 0.79092 0.0
N922 N 0.49945 0.50487 0.80382 0.0
N923 N 0.49493 0.51047 0.84267 0.0
C924 C 0.67029 0.78033 0.50657 0.0
C925 C 0.6568 0.77165 0.49219 0.0
C926 C 0.67065 0.79387 0.51849 0.0
C927 C 0.65718 0.79855 0.51659 0.0
C928 C 0.64339 0.77627 0.49024 0.0
C929 C 0.64353 0.78951 0.50238 0.0
C930 C 0.65805 0.81402 0.52752 0.0
C931 C 0.65697 0.77781 0.57694 0.0
C932 C 0.67248 0.78548 0.58896 0.0
C933 C 0.65408 0.78829 0.56317 0.0
C934 C 0.66668 0.80663 0.56107 0.0
C935 C 0.68512 0.80382 0.58664 0.0
C936 C 0.68216 0.8143 0.57298 0.0
C937 C 0.66325 0.81822 0.54768 0.0
C938 C 0.64515 0.87589 0.56517 0.0
C939 C 0.66018 0.88807 0.57641 0.0
C940 C 0.64516 0.86172 0.55499 0.0
C941 C 0.66021 0.85943 0.55574 0.0
C942 C 0.67509 0.88549 0.57752 0.0
C943 C 0.67505 0.87123 0.56738 0.0
C944 C 0.66018 0.84429 0.54516 0.0
C945 C 0.6604 0.88028 0.49598 0.0
C946 C 0.64495 0.87232 0.48392 0.0
C947 C 0.66352 0.86998 0.5098 0.0
C948 C 0.65123 0.85154 0.51178 0.0
C949 C 0.63259 0.85391 0.48612 0.0
C950 C 0.63579 0.84361 0.49979 0.0
C951 C 0.65503 0.84012 0.52505 0.0
H952 H 0.68091 0.77708 0.50805 0.0
H953 H 0.6818 0.80105 0.52862 0.0
H954 H 0.63292 0.76975 0.47915 0.0
H955 H 0.63308 0.79294 0.50039 0.0
H956 H 0.64681 0.76381 0.57854 0.0
H957 H 0.6418 0.78217 0.55451 0.0
H958 H 0.69735 0.81013 0.59538 0.0
H959 H 0.69202 0.82844 0.57168 0.0
H960 H 0.63326 0.87716 0.56438 0.0
H961 H 0.63329 0.85244 0.54669 0.0
H962 H 0.68694 0.89466 0.5859 0.0
H963 H 0.68673 0.86959 0.56836 0.0
H964 H 0.67013 0.89445 0.49465 0.0
H965 H 0.67573 0.87634 0.51856 0.0
H966 H 0.6207 0.84736 0.47685 0.0
H967 H 0.62624 0.82937 0.50091 0.0
N968 N 0.65412 0.82517 0.51711 0.0
N969 N 0.6642 0.83323 0.55564 0.0
C970 C 0.13164 0.76392 0.50327 0.0
C971 C 0.12296 0.76747 0.48762 0.0
C972 C 0.14314 0.77762 0.51627 0.0
C973 C 0.1462 0.79515 0.51389 0.0
C974 C 0.12604 0.78507 0.48542 0.0
C975 C 0.13765 0.79876 0.49828 0.0
C976 C 0.15887 0.81 0.52696 0.0
C977 C 0.11213 0.77391 0.567 0.0
C978 C 0.11693 0.76584 0.58215 0.0
C979 C 0.12537 0.78774 0.55547 0.0
C980 C 0.14364 0.79379 0.559 0.0
C981 C 0.13521 0.77185 0.58553 0.0
C982 C 0.14844 0.78582 0.57419 0.0
C983 C 0.15785 0.80921 0.54791 0.0
C984 C 0.20002 0.87288 0.59133 0.0
C985 C 0.21877 0.88028 0.59045 0.0
C986 C 0.18874 0.8595 0.57802 0.0
C987 C 0.19591 0.85341 0.56323 0.0
C988 C 0.22595 0.87417 0.57553 0.0
C989 C 0.21462 0.86084 0.56205 0.0
C990 C 0.18351 0.83867 0.54991 0.0
C991 C 0.21735 0.86777 0.48871 0.0
C992 C 0.22104 0.88522 0.4935 0.0
C993 C 0.2059 0.85315 0.50062 0.0
C994 C 0.19782 0.85556 0.5176 0.0
C995 C 0.21316 0.88764 0.51073 0.0
C996 C 0.20149 0.87297 0.52245 0.0
C997 C 0.18445 0.83959 0.52889 0.0
H998 H 0.12987 0.75064 0.50526 0.0
H999 H 0.14991 0.77458 0.52793 0.0
H1000 H 0.11937 0.7883 0.47383 0.0
H1001 H 0.13983 0.81219 0.49615 0.0
H1002 H 0.09813 0.7695 0.56404 0.0
H1003 H 0.12137 0.79394 0.54408 0.0
H1004 H 0.13931 0.76602 0.59725 0.0
H1005 H 0.16246 0.79043 0.5773 0.0
H1006 H 0.19398 0.87748 0.60228 0.0
H1007 H 0.17435 0.85396 0.57919 0.0
H1008 H 0.24029 0.87937 0.57454 0.0
H1009 H 0.22043 0.85611 0.55097 0.0
H1010 H 0.22282 0.86525 0.47539 0.0
H1011 H 0.20311 0.83985 0.49634 0.0
H1012 H 0.21578 0.90087 0.51505 0.0
H1013 H 0.19499 0.87526 0.53498 0.0
N1014 N 0.17209 0.82516 0.5183 0.0
N1015 N 0.17022 0.82354 0.55853 0.0
C1016 C 0.23334 0.3598 0.50185 0.0
C1017 C 0.22975 0.34868 0.48509 0.0
C1018 C 0.21941 0.35789 0.51419 0.0
C1019 C 0.20157 0.34441 0.51051 0.0
C1020 C 0.2119 0.33513 0.4815 0.0
C1021 C 0.19801 0.33301 0.49407 0.0
C1022 C 0.18638 0.34328 0.52224 0.0
C1023 C 0.21978 0.33474 0.5676 0.0
C1024 C 0.22867 0.34909 0.58101 0.0
C1025 C 0.2063 0.33377 0.55513 0.0
C1026 C 0.20141 0.34709 0.55593 0.0
C1027 C 0.22367 0.36234 0.58189 0.0
C1028 C 0.21001 0.36122 0.56961 0.0
C1029 C 0.18692 0.34597 0.54305 0.0
C1030 C 0.11226 0.33039 0.56298 0.0
C1031 C 0.11622 0.34516 0.57529 0.0
C1032 C 0.12582 0.32999 0.5519 0.0
C1033 C 0.14358 0.34435 0.55289 0.0
C1034 C 0.13406 0.35939 0.57643 0.0
C1035 C 0.14761 0.35892 0.56545 0.0
C1036 C 0.15821 0.34402 0.54163 0.0
C1037 C 0.12126 0.34644 0.49504 0.0
C1038 C 0.11352 0.33133 0.48246 0.0
C1039 C 0.13537 0.34947 0.50786 0.0
C1040 C 0.14197 0.33745 0.50826 0.0
C1041 C 0.1203 0.31947 0.48282 0.0
C1042 C 0.13443 0.32256 0.49548 0.0
C1043 C 0.15736 0.34065 0.52098 0.0
H1044 H 0.2469 0.37025 0.50531 0.0
H1045 H 0.22261 0.36741 0.52619 0.0
H1046 H 0.20847 0.3265 0.46858 0.0
H1047 H 0.18438 0.32267 0.49066 0.0
H1048 H 0.22342 0.32439 0.56657 0.0
H1049 H 0.19961 0.32255 0.54495 0.0
H1050 H 0.23019 0.37344 0.59224 0.0
H1051 H 0.2063 0.37153 0.5706 0.0
H1052 H 0.09863 0.31925 0.56176 0.0
H1053 H 0.12246 0.31839 0.54268 0.0
H1054 H 0.13758 0.37082 0.58601 0.0
H1055 H 0.16126 0.37003 0.56665 0.0
H1056 H 0.11631 0.35581 0.49508 0.0
H1057 H 0.14127 0.3613 0.51724 0.0
H1058 H 0.11485 0.30789 0.47306 0.0
H1059 H 0.13946 0.31325 0.49534 0.0
N1060 N 0.17149 0.34049 0.51214 0.0
N1061 N 0.17295 0.34651 0.55186 0.0
H1062 H 0.00672 0.39922 0.05259 0.0
H1063 H 0.97184 0.34551 0.0752 0.0
H1064 H 0.96663 0.35842 0.10576 0.0
H1065 H 0.02734 0.41992 0.09795 0.0
H1066 H 0.02781 0.44071 0.09283 0.0
H1067 H 0.02831 0.42722 0.07262 0.0
H1068 H 1.00022 0.42614 0.05696 0.0
H1069 H 0.99975 0.43981 0.07701 0.0
H1070 H 0.98016 0.41841 0.07168 0.0
H1071 H 0.96743 0.37764 0.13506 0.0
H1072 H 0.97168 0.40111 0.15909 0.0
H1073 H 0.00383 0.44203 0.11552 0.0
C1074 C 0.99787 0.39017 0.06391 0.0
C1075 C 0.98972 0.37138 0.06163 0.0
C1076 C 0.97814 0.35995 0.07667 0.0
C1077 C 0.97517 0.36717 0.09408 0.0
C1078 C 0.98365 0.38581 0.09601 0.0
C1079 C 0.99451 0.39713 0.08115 0.0
C1080 C 0.0019 0.41664 0.08667 0.0
C1081 C 0.02256 0.42671 0.08757 0.0
C1082 C 0.99509 0.42578 0.07222 0.0
C1083 C 0.99382 0.4146 0.10716 0.0
C1084 C 0.98343 0.39675 0.11237 0.0
C1085 C 0.97528 0.39166 0.13097 0.0
C1086 C 0.9777 0.40515 0.14451 0.0
C1087 C 0.98802 0.4236 0.13936 0.0
C1088 C 0.99608 0.4282 0.12029 0.0
H1089 H 0.62938 0.63136 0.075 0.0
H1090 H 0.62286 0.5916 0.03098 0.0
H1091 H 0.60447 0.5674 0.05475 0.0
H1092 H 0.63105 0.60632 0.11919 0.0
H1093 H 0.61861 0.61366 0.13431 0.0
H1094 H 0.6329 0.62784 0.11466 0.0
H1095 H 0.60594 0.62923 0.09939 0.0
H1096 H 0.59155 0.61498 0.11887 0.0
H1097 H 0.58571 0.60862 0.09322 0.0
H1098 H 0.58402 0.54767 0.08157 0.0
H1099 H 0.56391 0.53366 0.11044 0.0
H1100 H 0.58422 0.586 0.13755 0.0
C1101 C 0.62441 0.61757 0.07052 0.0
C1102 C 0.6276 0.61334 0.05117 0.0
C1103 C 0.62067 0.59514 0.04576 0.0
C1104 C 0.61021 0.58131 0.05916 0.0
C1105 C 0.60696 0.58592 0.07796 0.0
C1106 C 0.61401 0.60361 0.08374 0.0
C1107 C 0.60763 0.60491 0.10438 0.0
C1108 C 0.6235 0.6137 0.119 0.0
C1109 C 0.59708 0.61503 0.10392 0.0
C1110 C 0.59548 0.5852 0.10907 0.0
C1111 C 0.59537 0.57448 0.09365 0.0
C1112 C 0.58424 0.55589 0.09388 0.0
C1113 C 0.57287 0.54806 0.11025 0.0
C1114 C 0.5728 0.5588 0.12614 0.0
C1115 C 0.58436 0.57756 0.12567 0.0
H1116 H 0.38559 0.99165 0.06462 0.0
H1117 H 0.39054 0.04433 0.06807 0.0
H1118 H 0.40917 0.05093 0.09842 0.0
H1119 H 0.3825 0.98311 0.11748 0.0
H1120 H 0.39542 0.97185 0.11641 0.0
H1121 H 0.38223 0.97122 0.09527 0.0
H1122 H 0.41056 0.98428 0.07291 0.0
H1123 H 0.4238 0.98485 0.09394 0.0
H1124 H 0.43025 0.00504 0.07994 0.0
H1125 H 0.428 0.05194 0.1279 0.0
H1126 H 0.44582 0.04749 0.15384 0.0
H1127 H 0.4282 0.99405 0.1309 0.0
C1128 C 0.39056 0.00458 0.07176 0.0
C1129 C 0.38665 0.01751 0.064 0.0
C1130 C 0.3934 0.03425 0.07378 0.0
C1131 C 0.40394 0.03809 0.09103 0.0
C1132 C 0.40752 0.02501 0.09831 0.0
C1133 C 0.40102 0.00859 0.08897 0.0
C1134 C 0.40703 0.99695 0.09952 0.0
C1135 C 0.39083 0.97977 0.10765 0.0
C1136 C 0.4186 0.99253 0.08576 0.0
C1137 C 0.41809 0.00943 0.11619 0.0
C1138 C 0.41818 0.02553 0.11529 0.0
C1139 C 0.42796 0.03936 0.12879 0.0
C1140 C 0.43807 0.03673 0.14342 0.0
C1141 C 0.43832 0.0204 0.14445 0.0
C1142 C 0.42801 0.00655 0.13074 0.0
H1143 H 0.37861 0.97798 0.96468 0.0
H1144 H 0.3949 0.03459 0.96303 0.0
H1145 H 0.41212 0.03832 0.93253 0.0
H1146 H 0.42123 0.98423 0.9493 0.0
H1147 H 0.41206 0.96405 0.93452 0.0
H1148 H 0.39963 0.96525 0.95544 0.0
H1149 H 0.37239 0.95702 0.93243 0.0
H1150 H 0.38482 0.95595 0.91139 0.0
H1151 H 0.37531 0.97046 0.91069 0.0
H1152 H 0.42809 0.0366 0.9031 0.0
H1153 H 0.44468 0.0301 0.87769 0.0
H1154 H 0.41978 0.97496 0.89825 0.0
C1155 C 0.38572 0.99109 0.95776 0.0
C1156 C 0.38539 0.00599 0.9662 0.0
C1157 C 0.39503 0.023 0.9569 0.0
C1158 C 0.40474 0.02525 0.93946 0.0
C1159 C 0.40486 0.01039 0.9315 0.0
C1160 C 0.39582 0.99367 0.94037 0.0
C1161 C 0.39938 0.98035 0.92931 0.0
C1162 C 0.40863 0.97304 0.94296 0.0
C1163 C 0.38193 0.96504 0.92043 0.0
C1164 C 0.41199 0.99231 0.9131 0.0
C1165 C 0.41467 0.0095 0.91454 0.0
C1166 C 0.42612 0.0232 0.90177 0.0
C1167 C 0.43551 0.01939 0.88743 0.0
C1168 C 0.43358 0.00207 0.88606 0.0
C1169 C 0.42133 0.98825 0.89879 0.0
H1170 H 1.00034 0.39801 0.97725 0.0
H1171 H 0.03588 0.38055 0.95311 0.0
H1172 H 0.03994 0.39844 0.92272 0.0
H1173 H 0.97837 0.39708 0.9329 0.0
H1174 H 0.9773 0.4171 0.93808 0.0
H1175 H 0.9779 0.40367 0.95826 0.0
H1176 H 0.00596 0.43141 0.97293 0.0
H1177 H 0.00532 0.44499 0.95291 0.0
H1178 H 0.02548 0.444 0.95748 0.0
H1179 H 0.03738 0.41573 0.89356 0.0
H1180 H 0.03122 0.43357 0.86952 0.0
H1181 H 0.99989 0.4422 0.91442 0.0
C1182 C 0.00916 0.39815 0.96567 0.0
C1183 C 0.01779 0.38791 0.96746 0.0
C1184 C 0.02926 0.38843 0.95205 0.0
C1185 C 0.03157 0.39847 0.93472 0.0
C1186 C 0.02259 0.40817 0.93324 0.0
C1187 C 0.0119 0.40838 0.94849 0.0
C1188 C 0.00377 0.41992 0.94327 0.0
C1189 C 0.98311 0.40877 0.94312 0.0
C1190 C 0.01054 0.43604 0.95749 0.0
C1191 C 0.01117 0.42582 0.9225 0.0
C1192 C 0.0219 0.41883 0.91691 0.0
C1193 C 0.02933 0.42161 0.89794 0.0
C1194 C 0.02582 0.43191 0.88439 0.0
C1195 C 0.01515 0.43958 0.8899 0.0
C1196 C 0.00789 0.43647 0.90937 0.0
H1197 H 0.62701 0.63036 0.94104 0.0
H1198 H 0.58878 0.63039 0.98318 0.0
H1199 H 0.56416 0.61326 0.95933 0.0
H1200 H 0.60491 0.63422 0.89571 0.0
H1201 H 0.60998 0.61949 0.88157 0.0
H1202 H 0.62482 0.63306 0.90127 0.0
H1203 H 0.62172 0.60448 0.91789 0.0
H1204 H 0.6068 0.59082 0.89835 0.0
H1205 H 0.59967 0.58617 0.92392 0.0
H1206 H 0.54349 0.59395 0.93243 0.0
H1207 H 0.52804 0.57441 0.90391 0.0
H1208 H 0.57964 0.58772 0.87818 0.0
C1209 C 0.6135 0.62703 0.9451 0.0
C1210 C 0.60981 0.63177 0.96394 0.0
C1211 C 0.59193 0.62697 0.9688 0.0
C1212 C 0.57785 0.61725 0.95535 0.0
C1213 C 0.58189 0.61251 0.93704 0.0
C1214 C 0.59927 0.61733 0.93181 0.0
C1215 C 0.59981 0.60984 0.91154 0.0
C1216 C 0.61051 0.62506 0.89664 0.0
C1217 C 0.60745 0.59707 0.91303 0.0
C1218 C 0.57996 0.59972 0.9064 0.0
C1219 C 0.56991 0.60153 0.9213 0.0
C1220 C 0.55124 0.59272 0.92048 0.0
C1221 C 0.54258 0.58172 0.90405 0.0
C1222 C 0.55253 0.57963 0.88845 0.0
C1223 C 0.57154 0.58893 0.88973 0.0
H1224 H 0.98944 0.6075 0.95926 0.0
H1225 H 0.04525 0.64988 0.95741 0.0
H1226 H 0.05039 0.63496 0.92865 0.0
H1227 H 0.99669 0.5716 0.94845 0.0
H1228 H 0.97679 0.55951 0.93338 0.0
H1229 H 0.97739 0.57415 0.95288 0.0
H1230 H 0.96933 0.59168 0.92747 0.0
H1231 H 0.96865 0.57705 0.90787 0.0
H1232 H 0.98303 0.60101 0.9056 0.0
H1233 H 0.04962 0.61407 0.90138 0.0
H1234 H 0.0431 0.58941 0.87794 0.0
H1235 H 0.98743 0.56155 0.89721 0.0
C1236 C 0.00272 0.61376 0.95271 0.0
C1237 C 0.01696 0.62984 0.96055 0.0
C1238 C 0.03414 0.63758 0.95158 0.0
C1239 C 0.03717 0.6292 0.93526 0.0
C1240 C 0.02283 0.61321 0.92803 0.0
C1241 C 0.00592 0.60566 0.93642 0.0
C1242 C 0.99287 0.58817 0.92634 0.0
C1243 C 0.98551 0.57243 0.94115 0.0
C1244 C 0.97757 0.58957 0.91622 0.0
C1245 C 0.00514 0.58683 0.91119 0.0
C1246 C 0.02234 0.60142 0.91229 0.0
C1247 C 0.03614 0.60271 0.90023 0.0
C1248 C 0.03226 0.58866 0.88686 0.0
C1249 C 0.01472 0.57349 0.88563 0.0
C1250 C 1.00101 0.57282 0.89785 0.0
H1251 H 0.4004 0.38672 0.96092 0.0
H1252 H 0.35673 0.39816 0.9655 0.0
H1253 H 0.36929 0.41913 0.93717 0.0
H1254 H 0.43482 0.4316 0.94907 0.0
H1255 H 0.44629 0.42458 0.93201 0.0
H1256 H 0.43363 0.41023 0.95237 0.0
H1257 H 0.41506 0.3844 0.92753 0.0
H1258 H 0.42759 0.39871 0.90707 0.0
H1259 H 0.40343 0.38806 0.90736 0.0
H1260 H 0.38668 0.43895 0.90848 0.0
H1261 H 0.40828 0.45709 0.88227 0.0
H1262 H 0.44087 0.43307 0.89674 0.0
C1263 C 0.39348 0.39363 0.95596 0.0
C1264 C 0.37758 0.39082 0.96539 0.0
C1265 C 0.36894 0.40014 0.9585 0.0
C1266 C 0.37593 0.41203 0.94238 0.0
C1267 C 0.39158 0.41444 0.93335 0.0
C1268 C 0.40029 0.40557 0.93992 0.0
C1269 C 0.4171 0.41084 0.92787 0.0
C1270 C 0.43396 0.41985 0.94112 0.0
C1271 C 0.4157 0.39453 0.9168 0.0
C1272 C 0.41653 0.42412 0.91354 0.0
C1273 C 0.40166 0.42595 0.91689 0.0
C1274 C 0.39839 0.43765 0.90573 0.0
C1275 C 0.41077 0.44795 0.89094 0.0
C1276 C 0.42629 0.44654 0.88745 0.0
C1277 C 0.42903 0.43429 0.89882 0.0
H1278 H 0.60331 0.97872 0.96515 0.0
H1279 H 0.64114 0.03602 0.96591 0.0
H1280 H 0.62727 0.03983 0.93571 0.0
H1281 H 0.59935 0.97333 0.91007 0.0
H1282 H 0.57553 0.95768 0.91083 0.0
H1283 H 0.58966 0.95875 0.93123 0.0
H1284 H 0.56971 0.96431 0.95574 0.0
H1285 H 0.55553 0.96324 0.93545 0.0
H1286 H 0.56578 0.98274 0.95135 0.0
H1287 H 0.60861 0.03834 0.90741 0.0
H1288 H 0.58479 0.0317 0.88286 0.0
H1289 H 0.55769 0.97554 0.89993 0.0
C1290 C 0.60881 0.99196 0.95865 0.0
C1291 C 0.62335 0.00709 0.96776 0.0
C1292 C 0.62998 0.02428 0.95917 0.0
C1293 C 0.62228 0.02658 0.94194 0.0
C1294 C 0.60781 0.01156 0.93346 0.0
C1295 C 0.60101 0.99457 0.94147 0.0
C1296 C 0.58431 0.98109 0.93018 0.0
C1297 C 0.5874 0.96687 0.91997 0.0
C1298 C 0.56786 0.97233 0.94401 0.0
C1299 C 0.58266 0.99328 0.91497 0.0
C1300 C 0.59657 0.01074 0.91705 0.0
C1301 C 0.5977 0.0247 0.9055 0.0
C1302 C 0.58408 0.02082 0.89167 0.0
C1303 C 0.56941 0.00314 0.88951 0.0
C1304 C 0.56889 0.98912 0.90108 0.0
H1305 H 0.6033 0.99149 0.0669 0.0
H1306 H 0.65094 0.04383 0.07438 0.0
H1307 H 0.63648 0.05021 0.10248 0.0
H1308 H 0.57121 0.00494 0.07725 0.0
H1309 H 0.55609 0.98481 0.09064 0.0
H1310 H 0.57041 0.98405 0.07158 0.0
H1311 H 0.58345 0.9708 0.09682 0.0
H1312 H 0.56915 0.9715 0.11597 0.0
H1313 H 0.59311 0.98258 0.11977 0.0
H1314 H 0.61629 0.05163 0.12844 0.0
H1315 H 0.5921 0.04742 0.15154 0.0
H1316 H 0.5579 0.99386 0.12794 0.0
C1317 C 0.61072 0.00423 0.07455 0.0
C1318 C 0.62824 0.01718 0.06846 0.0
C1319 C 0.63752 0.03371 0.07883 0.0
C1320 C 0.62942 0.03746 0.09479 0.0
C1321 C 0.6121 0.02448 0.10032 0.0
C1322 C 0.60289 0.00815 0.09064 0.0
C1323 C 0.58433 0.99662 0.09943 0.0
C1324 C 0.56965 0.99236 0.08379 0.0
C1325 C 0.58241 0.97935 0.10854 0.0
C1326 C 0.58444 0.00914 0.11537 0.0
C1327 C 0.60059 0.02515 0.11562 0.0
C1328 C 0.60365 0.0391 0.12851 0.0
C1329 C 0.58983 0.03663 0.14149 0.0
C1330 C 0.57321 0.02031 0.14156 0.0
C1331 C 0.57058 0.00637 0.1284 0.0
H1332 H 0.98258 0.60155 0.06135 0.0
H1333 H 0.04023 0.63695 0.05582 0.0
H1334 H 0.04525 0.6222 0.08435 0.0
H1335 H 0.98118 0.5987 0.11551 0.0
H1336 H 0.96448 0.57518 0.11608 0.0
H1337 H 0.96497 0.58898 0.09566 0.0
H1338 H 0.96735 0.56732 0.07068 0.0
H1339 H 0.96674 0.5534 0.091 0.0
H1340 H 0.9851 0.5621 0.07355 0.0
H1341 H 0.04453 0.6041 0.11302 0.0
H1342 H 0.03814 0.58158 0.13902 0.0
H1343 H 0.98111 0.55639 0.12586 0.0
C1344 C 0.99622 0.60618 0.06624 0.0
C1345 C 0.01101 0.62042 0.05637 0.0
C1346 C 0.02868 0.62603 0.06307 0.0
C1347 C 0.0317 0.61781 0.07936 0.0
C1348 C 0.01693 0.60387 0.08879 0.0
C1349 C 0.99953 0.59791 0.08244 0.0
C1350 C 0.98622 0.582 0.0948 0.0
C1351 C 0.97346 0.58649 0.10619 0.0
C1352 C 0.97574 0.56521 0.08173 0.0
C1353 C 0.99893 0.57997 0.1089 0.0
C1354 C 0.01654 0.59291 0.10523 0.0
C1355 C 0.0308 0.59383 0.116 0.0
C1356 C 0.02703 0.58091 0.13068 0.0
C1357 C 0.00916 0.5671 0.13436 0.0
C1358 C 0.9949 0.56685 0.12352 0.0
H1359 H 0.38319 0.39708 0.06463 0.0
H1360 H 0.40506 0.36207 0.05332 0.0
H1361 H 0.42622 0.37602 0.08141 0.0
H1362 H 0.42459 0.4362 0.07721 0.0
H1363 H 0.41492 0.44338 0.0964 0.0
H1364 H 0.40133 0.43032 0.07573 0.0
H1365 H 0.3783 0.4068 0.1002 0.0
H1366 H 0.39188 0.41976 0.12096 0.0
H1367 H 0.3858 0.39653 0.11833 0.0
H1368 H 0.44557 0.3945 0.11021 0.0
H1369 H 0.46214 0.41656 0.13673 0.0
H1370 H 0.42671 0.4386 0.12983 0.0
C1371 C 0.39243 0.39234 0.06805 0.0
C1372 C 0.39253 0.37852 0.05678 0.0
C1373 C 0.40479 0.37266 0.06176 0.0
C1374 C 0.41681 0.38047 0.07771 0.0
C1375 C 0.41631 0.39402 0.08858 0.0
C1376 C 0.40443 0.3999 0.08395 0.0
C1377 C 0.40678 0.41485 0.09774 0.0
C1378 C 0.41223 0.43221 0.08607 0.0
C1379 C 0.38967 0.40914 0.11004 0.0
C1380 C 0.42201 0.41665 0.11068 0.0
C1381 C 0.42727 0.40447 0.10525 0.0
C1382 C 0.44146 0.40399 0.11471 0.0
C1383 C 0.4507 0.4165 0.12989 0.0
C1384 C 0.44574 0.42933 0.13547 0.0
C1385 C 0.43098 0.42911 0.12586 0.0
H1386 H 0.66907 0.73591 0.38734 0.0
H1387 H 0.65124 0.68421 0.41511 0.0
H1388 H 0.64826 0.69648 0.44732 0.0
H1389 H 0.69456 0.76363 0.42813 0.0
H1390 H 0.68776 0.78011 0.42421 0.0
H1391 H 0.68871 0.76731 0.40351 0.0
H1392 H 0.6554 0.7566 0.39515 0.0
H1393 H 0.65438 0.76946 0.41576 0.0
H1394 H 0.63851 0.74574 0.4141 0.0
H1395 H 0.64859 0.71504 0.4769 0.0
H1396 H 0.64935 0.73757 0.50063 0.0
H1397 H 0.665 0.77627 0.45285 0.0
C1398 C 0.66453 0.72718 0.40021 0.0
C1399 C 0.66048 0.70915 0.39883 0.0
C1400 C 0.65438 0.69806 0.4159 0.0
C1401 C 0.65273 0.70493 0.43424 0.0
C1402 C 0.65696 0.72283 0.43515 0.0
C1403 C 0.66249 0.73372 0.4185 0.0
C1404 C 0.66563 0.75228 0.42324 0.0
C1405 C 0.68534 0.76668 0.41956 0.0
C1406 C 0.6527 0.75624 0.41136 0.0
C1407 C 0.66119 0.75023 0.4452 0.0
C1408 C 0.6564 0.73321 0.45187 0.0
C1409 C 0.65219 0.72835 0.47179 0.0
C1410 C 0.6527 0.74118 0.48515 0.0
C1411 C 0.65715 0.75847 0.47841 0.0
C1412 C 0.66147 0.76304 0.45824 0.0
H1413 H 0.29462 0.9393 0.40932 0.0
H1414 H 0.27308 0.9754 0.4067 0.0
H1415 H 0.25293 0.95941 0.43472 0.0
H1416 H 0.2535 0.89995 0.41924 0.0
H1417 H 0.26266 0.89033 0.43614 0.0
H1418 H 0.27661 0.90547 0.41695 0.0
H1419 H 0.29976 0.92588 0.44346 0.0
H1420 H 0.28591 0.91074 0.46275 0.0
H1421 H 0.29245 0.93416 0.46398 0.0
H1422 H 0.23345 0.93829 0.46093 0.0
H1423 H 0.21617 0.91361 0.48434 0.0
H1424 H 0.2508 0.89151 0.47131 0.0
C1425 C 0.28587 0.944 0.41489 0.0
C1426 C 0.28546 0.95863 0.40586 0.0
C1427 C 0.27365 0.96424 0.41339 0.0
C1428 C 0.26216 0.95527 0.42933 0.0
C1429 C 0.26266 0.94073 0.43768 0.0
C1430 C 0.27426 0.93516 0.43086 0.0
C1431 C 0.27145 0.91861 0.442 0.0
C1432 C 0.26571 0.90265 0.42773 0.0
C1433 C 0.2884 0.92259 0.45374 0.0
C1434 C 0.25623 0.91559 0.45582 0.0
C1435 C 0.25146 0.92857 0.45312 0.0
C1436 C 0.23725 0.9282 0.46345 0.0
C1437 C 0.22758 0.91415 0.47687 0.0
C1438 C 0.23216 0.90061 0.47997 0.0
C1439 C 0.24683 0.90154 0.46932 0.0
H1440 H 0.06337 0.35266 0.39516 0.0
H1441 H 0.02387 0.29576 0.39553 0.0
H1442 H 0.03914 0.29137 0.42411 0.0
H1443 H 0.10107 0.34747 0.40642 0.0
H1444 H 0.11212 0.36708 0.42208 0.0
H1445 H 0.09748 0.36616 0.40238 0.0
H1446 H 0.07867 0.37249 0.4278 0.0
H1447 H 0.09324 0.37338 0.4476 0.0
H1448 H 0.06937 0.35812 0.44918 0.0
H1449 H 0.05893 0.2926 0.45158 0.0
H1450 H 0.08292 0.29934 0.47599 0.0
H1451 H 0.11028 0.35529 0.45801 0.0
C1452 C 0.05788 0.33933 0.40141 0.0
C1453 C 0.04241 0.32456 0.39315 0.0
C1454 C 0.03572 0.30728 0.40158 0.0
C1455 C 0.04425 0.30464 0.41788 0.0
C1456 C 0.0595 0.3194 0.42561 0.0
C1457 C 0.06634 0.33641 0.41769 0.0
C1458 C 0.08345 0.34975 0.42838 0.0
C1459 C 0.09948 0.3581 0.41395 0.0
C1460 C 0.08103 0.3643 0.43886 0.0
C1461 C 0.08522 0.3375 0.44332 0.0
C1462 C 0.07115 0.32009 0.44151 0.0
C1463 C 0.07 0.30619 0.4532 0.0
C1464 C 0.08373 0.31013 0.46694 0.0
C1465 C 0.09848 0.32781 0.46886 0.0
C1466 C 0.09906 0.3417 0.45705 0.0
H1467 H 0.06214 0.34601 0.29532 0.0
H1468 H 0.02188 0.28946 0.2982 0.0
H1469 H 0.0375 0.28303 0.27137 0.0
H1470 H 0.06735 0.34787 0.24177 0.0
H1471 H 0.09119 0.36345 0.24268 0.0
H1472 H 0.07681 0.36357 0.26209 0.0
H1473 H 0.09626 0.35918 0.2885 0.0
H1474 H 0.11067 0.35901 0.26917 0.0
H1475 H 0.10005 0.34044 0.28625 0.0
H1476 H 0.05816 0.28263 0.24525 0.0
H1477 H 0.08178 0.28828 0.2209 0.0
H1478 H 0.1076 0.34544 0.23353 0.0
C1479 C 0.05662 0.33228 0.2903 0.0
C1480 C 0.04084 0.3182 0.29886 0.0
C1481 C 0.03395 0.30043 0.29182 0.0
C1482 C 0.04273 0.29665 0.27661 0.0
C1483 C 0.05828 0.31083 0.26849 0.0
C1484 C 0.0651 0.3283 0.27498 0.0
C1485 C 0.08195 0.34108 0.26365 0.0
C1486 C 0.07915 0.3548 0.25185 0.0
C1487 C 0.09819 0.35048 0.27774 0.0
C1488 C 0.08365 0.32803 0.24994 0.0
C1489 C 0.06988 0.31066 0.253 0.0
C1490 C 0.06888 0.29622 0.24252 0.0
C1491 C 0.08233 0.29961 0.22857 0.0
C1492 C 0.09656 0.31735 0.22503 0.0
C1493 C 0.09706 0.3317 0.23589 0.0
H1494 H 0.67095 0.7389 0.30809 0.0
H1495 H 0.69762 0.71271 0.28097 0.0
H1496 H 0.70159 0.72981 0.24993 0.0
H1497 H 0.64679 0.73904 0.26597 0.0
H1498 H 0.64939 0.76084 0.27075 0.0
H1499 H 0.64961 0.74737 0.2911 0.0
H1500 H 0.6807 0.77327 0.3024 0.0
H1501 H 0.68048 0.78691 0.2822 0.0
H1502 H 0.69903 0.78287 0.2849 0.0
H1503 H 0.70026 0.74806 0.22093 0.0
H1504 H 0.6958 0.76741 0.19729 0.0
H1505 H 0.67168 0.78293 0.24441 0.0
C1506 C 0.67785 0.73693 0.29572 0.0
C1507 C 0.684 0.72449 0.29691 0.0
C1508 C 0.69291 0.72226 0.28039 0.0
C1509 C 0.69516 0.73186 0.26269 0.0
C1510 C 0.68861 0.74378 0.26188 0.0
C1511 C 0.68037 0.74652 0.27807 0.0
C1512 C 0.67432 0.7599 0.27336 0.0
C1513 C 0.65381 0.75126 0.27542 0.0
C1514 C 0.68423 0.77673 0.28649 0.0
C1515 C 0.68013 0.76403 0.25185 0.0
C1516 C 0.68832 0.7546 0.24546 0.0
C1517 C 0.69413 0.75573 0.22589 0.0
C1518 C 0.69161 0.76687 0.21257 0.0
C1519 C 0.68345 0.77688 0.21886 0.0
C1520 C 0.67775 0.77538 0.23887 0.0
H1521 H 0.28737 0.9677 0.28643 0.0
H1522 H 0.25713 0.93318 0.33563 0.0
H1523 H 0.23471 0.91159 0.31218 0.0
H1524 H 0.24797 0.95724 0.25374 0.0
H1525 H 0.25962 0.95722 0.23146 0.0
H1526 H 0.27202 0.97143 0.25212 0.0
H1527 H 0.29227 0.95706 0.25271 0.0
H1528 H 0.27988 0.94275 0.23218 0.0
H1529 H 0.28207 0.93304 0.25501 0.0
H1530 H 0.2175 0.89243 0.2842 0.0
H1531 H 0.206 0.87626 0.25254 0.0
H1532 H 0.24708 0.92219 0.22035 0.0
C1533 C 0.27572 0.95584 0.29219 0.0
C1534 C 0.2738 0.95214 0.31282 0.0
C1535 C 0.25875 0.93625 0.31988 0.0
C1536 C 0.24592 0.92395 0.30669 0.0
C1537 C 0.24838 0.92767 0.28643 0.0
C1538 C 0.26283 0.9432 0.27911 0.0
C1539 C 0.26301 0.94294 0.2565 0.0
C1540 C 0.2605 0.95811 0.24795 0.0
C1541 C 0.28033 0.94401 0.24865 0.0
C1542 C 0.24669 0.92466 0.25238 0.0
C1543 C 0.23841 0.91626 0.26994 0.0
C1544 C 0.22372 0.89892 0.27032 0.0
C1545 C 0.21737 0.88981 0.2523 0.0
C1546 C 0.2257 0.89797 0.23409 0.0
C1547 C 0.24038 0.91575 0.23409 0.0
H1548 H 0.68823 0.95627 0.29928 0.0
H1549 H 0.63635 0.95113 0.28643 0.0
H1550 H 0.63424 0.9348 0.25562 0.0
H1551 H 0.70356 0.9607 0.24655 0.0
H1552 H 0.71411 0.94737 0.25057 0.0
H1553 H 0.71281 0.96063 0.2706 0.0
H1554 H 0.69694 0.9322 0.29264 0.0
H1555 H 0.69814 0.91886 0.27269 0.0
H1556 H 0.67674 0.91285 0.2837 0.0
H1557 H 0.63581 0.91655 0.22841 0.0
H1558 H 0.6414 0.89738 0.20559 0.0
H1559 H 0.69229 0.91385 0.23489 0.0
C1560 C 0.67667 0.95205 0.2897 0.0
C1561 C 0.66249 0.95502 0.2952 0.0
C1562 C 0.64737 0.94898 0.28253 0.0
C1563 C 0.64606 0.93975 0.26493 0.0
C1564 C 0.65999 0.93663 0.26011 0.0
C1565 C 0.67507 0.94261 0.27199 0.0
C1566 C 0.6874 0.9362 0.26389 0.0
C1567 C 0.70555 0.95218 0.25752 0.0
C1568 C 0.68994 0.92432 0.27914 0.0
C1569 C 0.67663 0.92535 0.24598 0.0
C1570 C 0.66094 0.92596 0.24406 0.0
C1571 C 0.64817 0.91616 0.22954 0.0
C1572 C 0.65141 0.90527 0.21671 0.0
C1573 C 0.66729 0.90429 0.21844 0.0
C1574 C 0.6802 0.91467 0.23307 0.0
H1575 H 0.06595 0.71158 0.2947 0.0
H1576 H 0.0254 0.72747 0.29831 0.0
H1577 H 0.0402 0.74892 0.27075 0.0
H1578 H 0.10308 0.7548 0.28498 0.0
H1579 H 0.1138 0.74698 0.26784 0.0
H1580 H 0.09961 0.7324 0.28727 0.0
H1581 H 0.08018 0.70833 0.26104 0.0
H1582 H 0.09435 0.72281 0.24151 0.0
H1583 H 0.07046 0.71429 0.24075 0.0
H1584 H 0.06044 0.76981 0.24406 0.0
H1585 H 0.08409 0.78807 0.21981 0.0
H1586 H 0.11056 0.75738 0.23256 0.0
C1587 C 0.06011 0.71949 0.28961 0.0
C1588 C 0.04454 0.71789 0.29864 0.0
C1589 C 0.03731 0.72847 0.29157 0.0
C1590 C 0.04562 0.74068 0.27593 0.0
C1591 C 0.06104 0.74202 0.26745 0.0
C1592 C 0.06815 0.73163 0.27395 0.0
C1593 C 0.08499 0.73583 0.26252 0.0
C1594 C 0.10133 0.74293 0.27649 0.0
C1595 C 0.08233 0.71933 0.25076 0.0
C1596 C 0.08641 0.75042 0.24877 0.0
C1597 C 0.07246 0.75378 0.25182 0.0
C1598 C 0.07129 0.76712 0.24136 0.0
C1599 C 0.08476 0.77735 0.22748 0.0
C1600 C 0.09922 0.77416 0.22407 0.0
C1601 C 0.09985 0.76035 0.23484 0.0
H1602 H 0.27552 0.31324 0.29699 0.0
H1603 H 0.31453 0.37025 0.29725 0.0
H1604 H 0.30021 0.37449 0.26771 0.0
H1605 H 0.27035 0.30775 0.24226 0.0
H1606 H 0.24644 0.29256 0.24351 0.0
H1607 H 0.26075 0.29332 0.26356 0.0
H1608 H 0.24169 0.29965 0.28861 0.0
H1609 H 0.22733 0.29887 0.26866 0.0
H1610 H 0.23825 0.31842 0.28443 0.0
H1611 H 0.28125 0.37337 0.23976 0.0
H1612 H 0.25733 0.36711 0.2155 0.0
H1613 H 0.22929 0.31105 0.23304 0.0
C1614 C 0.28115 0.32651 0.29056 0.0
C1615 C 0.29618 0.34142 0.29934 0.0
C1616 C 0.303 0.35866 0.2908 0.0
C1617 C 0.29503 0.36121 0.27394 0.0
C1618 C 0.28012 0.34639 0.26576 0.0
C1619 C 0.27312 0.32937 0.27375 0.0
C1620 C 0.25609 0.31613 0.26279 0.0
C1621 C 0.25856 0.30158 0.25241 0.0
C1622 C 0.23988 0.30778 0.27697 0.0
C1623 C 0.25455 0.32847 0.24772 0.0
C1624 C 0.26874 0.3458 0.24962 0.0
C1625 C 0.2701 0.35984 0.23804 0.0
C1626 C 0.2564 0.35617 0.22437 0.0
C1627 C 0.24144 0.33863 0.22242 0.0
C1628 C 0.24069 0.32453 0.23402 0.0
H1629 H 0.27901 0.32259 0.40134 0.0
H1630 H 0.31826 0.37935 0.39679 0.0
H1631 H 0.30293 0.38587 0.42383 0.0
H1632 H 0.2409 0.32743 0.4106 0.0
H1633 H 0.23073 0.30924 0.4282 0.0
H1634 H 0.24508 0.30892 0.4089 0.0
H1635 H 0.26512 0.3056 0.43542 0.0
H1636 H 0.25079 0.30587 0.45482 0.0
H1637 H 0.27455 0.32179 0.45532 0.0
H1638 H 0.28241 0.38643 0.44989 0.0
H1639 H 0.25875 0.381 0.47404 0.0
H1640 H 0.23376 0.3236 0.46326 0.0
C1641 C 0.28442 0.33638 0.40611 0.0
C1642 C 0.29981 0.35049 0.39696 0.0
C1643 C 0.30651 0.36834 0.40362 0.0
C1644 C 0.29789 0.37218 0.41896 0.0
C1645 C 0.28269 0.35799 0.4276 0.0
C1646 C 0.27607 0.34043 0.42154 0.0
C1647 C 0.25943 0.3277 0.43322 0.0
C1648 C 0.24307 0.31774 0.4194 0.0
C1649 C 0.26267 0.31446 0.44542 0.0
C1650 C 0.25758 0.34088 0.44658 0.0
C1651 C 0.27113 0.35827 0.44307 0.0
C1652 C 0.27188 0.37284 0.453 0.0
C1653 C 0.25841 0.36957 0.46686 0.0
C1654 C 0.24438 0.35183 0.47087 0.0
C1655 C 0.24414 0.33733 0.46057 0.0
H1656 H 0.67172 0.94068 0.39305 0.0
H1657 H 0.61689 0.93046 0.39327 0.0
H1658 H 0.60964 0.90912 0.4211 0.0
H1659 H 0.66151 0.89544 0.40487 0.0
H1660 H 0.68097 0.90286 0.42057 0.0
H1661 H 0.68151 0.91666 0.40014 0.0
H1662 H 0.69039 0.94321 0.42446 0.0
H1663 H 0.68974 0.92945 0.44498 0.0
H1664 H 0.67633 0.9402 0.44567 0.0
H1665 H 0.60855 0.88923 0.44922 0.0
H1666 H 0.61373 0.8723 0.47562 0.0
H1667 H 0.66945 0.89616 0.45738 0.0
C1668 C 0.65813 0.9338 0.3988 0.0
C1669 C 0.64481 0.93711 0.39094 0.0
C1670 C 0.62726 0.92804 0.39904 0.0
C1671 C 0.62303 0.91593 0.41484 0.0
C1672 C 0.63653 0.91313 0.42242 0.0
C1673 C 0.65373 0.92181 0.41466 0.0
C1674 C 0.66592 0.91683 0.42584 0.0
C1675 C 0.67288 0.90738 0.41203 0.0
C1676 C 0.68151 0.93341 0.43583 0.0
C1677 C 0.6529 0.904 0.4411 0.0
C1678 C 0.636 0.90198 0.43884 0.0
C1679 C 0.62172 0.89069 0.45112 0.0
C1680 C 0.62477 0.8811 0.46602 0.0
C1681 C 0.64199 0.88297 0.46858 0.0
C1682 C 0.65621 0.89465 0.45596 0.0
H1683 H 0.07368 0.72787 0.38393 0.0
H1684 H 0.04196 0.67633 0.41294 0.0
H1685 H 0.05951 0.68892 0.44388 0.0
H1686 H 0.11655 0.74001 0.4084 0.0
H1687 H 0.12302 0.7634 0.40999 0.0
H1688 H 0.10888 0.7498 0.38989 0.0
H1689 H 0.08513 0.75867 0.39944 0.0
H1690 H 0.09909 0.77214 0.41967 0.0
H1691 H 0.07633 0.75465 0.42441 0.0
H1692 H 0.07896 0.70815 0.4725 0.0
H1693 H 0.09935 0.73181 0.49584 0.0
H1694 H 0.11896 0.77031 0.44737 0.0
C1695 C 0.07061 0.71912 0.39668 0.0
C1696 C 0.05649 0.7011 0.39603 0.0
C1697 C 0.0528 0.69014 0.41308 0.0
C1698 C 0.06267 0.6972 0.43072 0.0
C1699 C 0.07627 0.71516 0.43097 0.0
C1700 C 0.08036 0.72591 0.41431 0.0
C1701 C 0.09514 0.74492 0.41857 0.0
C1702 C 0.11189 0.74981 0.40597 0.0
C1703 C 0.08852 0.75838 0.41533 0.0
C1704 C 0.09851 0.74334 0.44037 0.0
C1705 C 0.08756 0.72609 0.44727 0.0
C1706 C 0.08778 0.72164 0.46716 0.0
C1707 C 0.0995 0.73519 0.4803 0.0
C1708 C 0.11088 0.753 0.47353 0.0
C1709 C 0.11036 0.75694 0.45319 0.0
H1710 H 0.31217 0.03922 0.73101 0.0
H1711 H 0.36932 0.06952 0.71825 0.0
H1712 H 0.37327 0.09157 0.74401 0.0
H1713 H 0.30666 0.07758 0.73931 0.0
H1714 H 0.29073 0.06736 0.75927 0.0
H1715 H 0.29225 0.05354 0.74009 0.0
H1716 H 0.29776 0.03513 0.7668 0.0
H1717 H 0.29624 0.04887 0.78607 0.0
H1718 H 0.31592 0.04658 0.78431 0.0
H1719 H 0.37129 0.11039 0.77067 0.0
H1720 H 0.36339 0.12536 0.79673 0.0
H1721 H 0.30746 0.08335 0.79266 0.0
C1722 C 0.3255 0.05047 0.73371 0.0
C1723 C 0.34045 0.05265 0.72264 0.0
C1724 C 0.35768 0.06758 0.72653 0.0
C1725 C 0.36007 0.08018 0.74114 0.0
C1726 C 0.34511 0.07771 0.75174 0.0
C1727 C 0.32814 0.06329 0.74825 0.0
C1728 C 0.31434 0.06407 0.76165 0.0
C1729 C 0.30016 0.06574 0.74934 0.0
C1730 C 0.30555 0.04769 0.77553 0.0
C1731 C 0.32624 0.08119 0.77316 0.0
C1732 C 0.34393 0.08875 0.7672 0.0
C1733 C 0.3575 0.10457 0.77555 0.0
C1734 C 0.35288 0.1129 0.79044 0.0
C1735 C 0.33484 0.10545 0.79688 0.0
C1736 C 0.32135 0.08939 0.78801 0.0
H1737 H 0.93499 0.27603 0.7233 0.0
H1738 H 0.98023 0.26702 0.71865 0.0
H1739 H 0.96787 0.24517 0.74628 0.0
H1740 H 0.93204 0.27417 0.77635 0.0
H1741 H 0.90784 0.26289 0.77684 0.0
H1742 H 0.91996 0.27737 0.75633 0.0
H1743 H 0.9018 0.25135 0.73154 0.0
H1744 H 0.88954 0.23682 0.75196 0.0
H1745 H 0.90133 0.2303 0.73473 0.0
H1746 H 0.9506 0.2245 0.77476 0.0
H1747 H 0.92974 0.20656 0.80169 0.0
H1748 H 0.89598 0.22934 0.78766 0.0
C1749 C 0.94224 0.26936 0.72799 0.0
C1750 C 0.95854 0.27315 0.71878 0.0
C1751 C 0.96769 0.26427 0.72546 0.0
C1752 C 0.96079 0.25187 0.74116 0.0
C1753 C 0.94475 0.24855 0.75003 0.0
C1754 C 0.93559 0.25703 0.74367 0.0
C1755 C 0.91877 0.25131 0.75586 0.0
C1756 C 0.91972 0.26739 0.76701 0.0
C1757 C 0.90186 0.24188 0.74274 0.0
C1758 C 0.91989 0.23827 0.7701 0.0
C1759 C 0.93494 0.23683 0.76649 0.0
C1760 C 0.93875 0.2255 0.77769 0.0
C1761 C 0.92679 0.21532 0.7929 0.0
C1762 C 0.91124 0.21656 0.79683 0.0
C1763 C 0.90787 0.22827 0.78524 0.0
H1764 H 0.73253 0.69016 0.73683 0.0
H1765 H 0.70328 0.63303 0.72389 0.0
H1766 H 0.71852 0.62759 0.75184 0.0
H1767 H 0.77418 0.69253 0.74918 0.0
H1768 H 0.77974 0.70875 0.76884 0.0
H1769 H 0.76598 0.70815 0.74832 0.0
H1770 H 0.74116 0.70441 0.77296 0.0
H1771 H 0.75484 0.70495 0.79357 0.0
H1772 H 0.73237 0.68623 0.79063 0.0
H1773 H 0.73715 0.62826 0.78055 0.0
H1774 H 0.75917 0.63517 0.80743 0.0
H1775 H 0.77652 0.69186 0.80204 0.0
C1776 C 0.7293 0.67651 0.73996 0.0
C1777 C 0.71671 0.66201 0.72824 0.0
C1778 C 0.7129 0.64435 0.73268 0.0
C1779 C 0.72143 0.64111 0.74856 0.0
C1780 C 0.73377 0.65567 0.75983 0.0
C1781 C 0.73779 0.67303 0.75573 0.0
C1782 C 0.75204 0.68631 0.7698 0.0
C1783 C 0.76899 0.69972 0.75835 0.0
C1784 C 0.74466 0.69605 0.78249 0.0
C1785 C 0.75549 0.67369 0.78231 0.0
C1786 C 0.74468 0.65607 0.7764 0.0
C1787 C 0.74561 0.64199 0.78543 0.0
C1788 C 0.75807 0.64605 0.8008 0.0
C1789 C 0.7695 0.66404 0.80696 0.0
C1790 C 0.76802 0.67798 0.79764 0.0
H1791 H 0.70585 0.64213 0.62527 0.0
H1792 H 0.73638 0.69953 0.63651 0.0
H1793 H 0.75622 0.70337 0.6084 0.0
H1794 H 0.74397 0.63757 0.61312 0.0
H1795 H 0.73285 0.62112 0.59378 0.0
H1796 H 0.72 0.62267 0.61405 0.0
H1797 H 0.69954 0.62694 0.58898 0.0
H1798 H 0.71233 0.62537 0.56862 0.0
H1799 H 0.70953 0.64472 0.57086 0.0
H1800 H 0.77332 0.70139 0.58026 0.0
H1801 H 0.78766 0.69349 0.55359 0.0
H1802 H 0.74707 0.63725 0.55988 0.0
C1803 C 0.71661 0.65548 0.62161 0.0
C1804 C 0.71956 0.67054 0.63305 0.0
C1805 C 0.7339 0.68779 0.62802 0.0
C1806 C 0.74522 0.69015 0.61202 0.0
C1807 C 0.74215 0.67511 0.60118 0.0
C1808 C 0.72829 0.65808 0.60571 0.0
C1809 C 0.72868 0.6442 0.59203 0.0
C1810 C 0.73155 0.63059 0.60396 0.0
C1811 C 0.7115 0.63475 0.57937 0.0
C1812 C 0.74498 0.65614 0.57932 0.0
C1813 C 0.75237 0.67392 0.58483 0.0
C1814 C 0.76759 0.68754 0.57565 0.0
C1815 C 0.77558 0.68291 0.5604 0.0
C1816 C 0.76839 0.66479 0.55442 0.0
C1817 C 0.75286 0.65122 0.56409 0.0
H1818 H 0.36115 0.06444 0.62495 0.0
H1819 H 0.30458 0.02402 0.62513 0.0
H1820 H 0.29943 0.03853 0.59631 0.0
H1821 H 0.35432 0.1008 0.61476 0.0
H1822 H 0.37368 0.11281 0.59894 0.0
H1823 H 0.37367 0.09809 0.61797 0.0
H1824 H 0.38063 0.08052 0.5915 0.0
H1825 H 0.38068 0.09523 0.57238 0.0
H1826 H 0.36612 0.07129 0.57016 0.0
H1827 H 0.29961 0.05809 0.56941 0.0
H1828 H 0.30492 0.0825 0.54637 0.0
H1829 H 0.36112 0.11154 0.56372 0.0
C1830 C 0.34781 0.05849 0.61856 0.0
C1831 C 0.33327 0.04303 0.6271 0.0
C1832 C 0.31588 0.03584 0.61876 0.0
C1833 C 0.31284 0.04393 0.60234 0.0
C1834 C 0.3273 0.05933 0.59446 0.0
C1835 C 0.34445 0.06663 0.60225 0.0
C1836 C 0.35719 0.08419 0.5919 0.0
C1837 C 0.36518 0.0999 0.60678 0.0
C1838 C 0.37203 0.08271 0.58083 0.0
C1839 C 0.34441 0.0857 0.57743 0.0
C1840 C 0.3273 0.07105 0.57904 0.0
C1841 C 0.31297 0.06959 0.56791 0.0
C1842 C 0.31609 0.08359 0.55495 0.0
C1843 C 0.3334 0.09897 0.55328 0.0
C1844 C 0.3478 0.09986 0.56448 0.0
H1845 H 0.95563 0.27486 0.61849 0.0
H1846 H 0.93273 0.30858 0.63199 0.0
H1847 H 0.91183 0.2953 0.60348 0.0
H1848 H 0.95296 0.27674 0.56456 0.0
H1849 H 0.9474 0.25372 0.56134 0.0
H1850 H 0.961 0.26656 0.58215 0.0
H1851 H 0.93853 0.24232 0.60642 0.0
H1852 H 0.92489 0.22941 0.58571 0.0
H1853 H 0.91511 0.23594 0.60541 0.0
H1854 H 0.89224 0.27678 0.57449 0.0
H1855 H 0.87551 0.25459 0.54812 0.0
H1856 H 0.91243 0.23415 0.55307 0.0
C1857 C 0.94631 0.27956 0.6154 0.0
C1858 C 0.94577 0.29274 0.62745 0.0
C1859 C 0.93336 0.29851 0.62292 0.0
C1860 C 0.92148 0.29106 0.60674 0.0
C1861 C 0.92232 0.27801 0.5952 0.0
C1862 C 0.93449 0.27238 0.59932 0.0
C1863 C 0.93239 0.2578 0.5851 0.0
C1864 C 0.94945 0.26409 0.57254 0.0
C1865 C 0.92743 0.24034 0.59633 0.0
C1866 C 0.9169 0.25581 0.57253 0.0
C1867 C 0.91131 0.26763 0.57847 0.0
C1868 C 0.89666 0.26764 0.56957 0.0
C1869 C 0.88731 0.25504 0.55447 0.0
C1870 C 0.89262 0.24258 0.54841 0.0
C1871 C 0.90787 0.24333 0.5574 0.0
H1872 H 0.35713 0.29231 0.63158 0.0
H1873 H 0.30286 0.28258 0.6233 0.0
H1874 H 0.29949 0.26472 0.59341 0.0
H1875 H 0.36843 0.29438 0.57793 0.0
H1876 H 0.38069 0.28263 0.58133 0.0
H1877 H 0.37983 0.29635 0.60112 0.0
H1878 H 0.36734 0.26914 0.62503 0.0
H1879 H 0.36815 0.25537 0.60535 0.0
H1880 H 0.34733 0.24857 0.61822 0.0
H1881 H 0.30063 0.24615 0.5663 0.0
H1882 H 0.30631 0.22727 0.54319 0.0
H1883 H 0.35966 0.2481 0.56818 0.0
C1884 C 0.3447 0.28668 0.62321 0.0
C1885 C 0.33027 0.28888 0.62972 0.0
C1886 C 0.31408 0.28104 0.61863 0.0
C1887 C 0.31204 0.27093 0.60155 0.0
C1888 C 0.3263 0.2687 0.59568 0.0
C1889 C 0.34235 0.2763 0.60607 0.0
C1890 C 0.35499 0.27065 0.59709 0.0
C1891 C 0.372 0.28698 0.58888 0.0
C1892 C 0.35972 0.26032 0.61233 0.0
C1893 C 0.34336 0.25843 0.58039 0.0
C1894 C 0.32694 0.2577 0.5798 0.0
C1895 C 0.3135 0.24672 0.56645 0.0
C1896 C 0.3168 0.23599 0.55345 0.0
C1897 C 0.3334 0.23627 0.55388 0.0
C1898 C 0.34696 0.24786 0.56734 0.0
H1899 H 0.70579 0.0526 0.62066 0.0
H1900 H 0.74573 0.06753 0.66726 0.0
H1901 H 0.76904 0.08937 0.64469 0.0
H1902 H 0.73398 0.05351 0.58172 0.0
H1903 H 0.72528 0.06228 0.56316 0.0
H1904 H 0.71121 0.04916 0.58347 0.0
H1905 H 0.7055 0.07508 0.59296 0.0
H1906 H 0.71952 0.08827 0.5726 0.0
H1907 H 0.72435 0.09719 0.59754 0.0
H1908 H 0.78805 0.10866 0.61728 0.0
H1909 H 0.80233 0.12365 0.58596 0.0
H1910 H 0.75075 0.09491 0.55581 0.0
C1911 C 0.71938 0.06076 0.62616 0.0
C1912 C 0.724 0.0586 0.64572 0.0
C1913 C 0.74197 0.06909 0.65232 0.0
C1914 C 0.75526 0.08155 0.63965 0.0
C1915 C 0.75039 0.08319 0.62035 0.0
C1916 C 0.73293 0.07306 0.61353 0.0
C1917 C 0.73168 0.07658 0.59163 0.0
C1918 C 0.72515 0.05936 0.57927 0.0
C1919 C 0.71954 0.08477 0.58851 0.0
C1920 C 0.75118 0.09013 0.58723 0.0
C1921 C 0.76163 0.09386 0.60411 0.0
C1922 C 0.78004 0.1058 0.60392 0.0
C1923 C 0.78806 0.1141 0.58595 0.0
C1924 C 0.77777 0.11026 0.56825 0.0
C1925 C 0.75901 0.09821 0.56903 0.0
H1926 H 0.92455 0.64197 0.6382 0.0
H1927 H 0.97654 0.67167 0.60961 0.0
H1928 H 0.96179 0.67137 0.578 0.0
H1929 H 0.89877 0.61479 0.59434 0.0
H1930 H 0.87939 0.6168 0.60023 0.0
H1931 H 0.89374 0.61695 0.61988 0.0
H1932 H 0.89816 0.64739 0.63245 0.0
H1933 H 0.88391 0.64737 0.61281 0.0
H1934 H 0.9064 0.6661 0.61553 0.0
H1935 H 0.94194 0.66983 0.55033 0.0
H1936 H 0.91819 0.66818 0.5284 0.0
H1937 H 0.87888 0.64136 0.57522 0.0
C1938 C 0.9327 0.64791 0.62509 0.0
C1939 C 0.95163 0.65657 0.62613 0.0
C1940 C 0.962 0.66482 0.60896 0.0
C1941 C 0.95375 0.66469 0.59096 0.0
C1942 C 0.93509 0.65642 0.59043 0.0
C1943 C 0.92464 0.64823 0.60701 0.0
C1944 C 0.90501 0.64193 0.60282 0.0
C1945 C 0.89355 0.62139 0.60441 0.0
C1946 C 0.89797 0.65126 0.61672 0.0
C1947 C 0.90615 0.64813 0.58146 0.0
C1948 C 0.9236 0.65622 0.57456 0.0
C1949 C 0.92819 0.66349 0.55554 0.0
C1950 C 0.91462 0.66264 0.54324 0.0
C1951 C 0.89664 0.65476 0.55006 0.0
C1952 C 0.89241 0.64726 0.56941 0.0
H1953 H 0.93297 0.65545 0.72513 0.0
H1954 H 0.97872 0.70956 0.72349 0.0
H1955 H 0.9667 0.71763 0.75271 0.0
H1956 H 0.89968 0.66724 0.74022 0.0
H1957 H 0.88799 0.64794 0.75615 0.0
H1958 H 0.89988 0.64683 0.73464 0.0
H1959 H 0.9181 0.63722 0.75714 0.0
H1960 H 0.90641 0.6385 0.77874 0.0
H1961 H 0.93061 0.65121 0.77788 0.0
H1962 H 0.9498 0.71958 0.78243 0.0
H1963 H 0.92909 0.71543 0.81007 0.0
H1964 H 0.89487 0.6598 0.7927 0.0
C1965 C 0.94035 0.66907 0.73075 0.0
C1966 C 0.95672 0.68195 0.72196 0.0
C1967 C 0.96611 0.69954 0.72994 0.0
C1968 C 0.95941 0.70422 0.74655 0.0
C1969 C 0.94337 0.69111 0.75505 0.0
C1970 C 0.93395 0.67391 0.7474 0.0
C1971 C 0.91726 0.66221 0.75955 0.0
C1972 C 0.9002 0.65568 0.74688 0.0
C1973 C 0.91816 0.64635 0.76888 0.0
C1974 C 0.91874 0.67551 0.77525 0.0
C1975 C 0.93387 0.69212 0.77237 0.0
C1976 C 0.93793 0.70663 0.78482 0.0
C1977 C 0.92609 0.70416 0.80045 0.0
C1978 C 0.91043 0.68728 0.80357 0.0
C1979 C 0.90687 0.67277 0.79088 0.0
H1980 H 0.34149 0.2792 0.72688 0.0
H1981 H 0.28868 0.27404 0.73046 0.0
H1982 H 0.28157 0.25411 0.75962 0.0
H1983 H 0.32786 0.23364 0.74058 0.0
H1984 H 0.34794 0.23988 0.7548 0.0
H1985 H 0.34866 0.25352 0.73412 0.0
H1986 H 0.36142 0.28133 0.75728 0.0
H1987 H 0.36059 0.26774 0.77807 0.0
H1988 H 0.34924 0.28056 0.77943 0.0
H1989 H 0.28023 0.23464 0.78829 0.0
H1990 H 0.28454 0.21661 0.81404 0.0
H1991 H 0.33841 0.23495 0.792 0.0
C1992 C 0.32839 0.27379 0.73372 0.0
C1993 C 0.31559 0.2781 0.72638 0.0
C1994 C 0.29865 0.27086 0.73582 0.0
C1995 C 0.29452 0.25957 0.75241 0.0
C1996 C 0.3075 0.25573 0.75939 0.0
C1997 C 0.32408 0.26259 0.75033 0.0
C1998 C 0.33567 0.25643 0.76078 0.0
C1999 C 0.3403 0.2452 0.74673 0.0
C2000 C 0.35274 0.27247 0.7694 0.0
C2001 C 0.323 0.24498 0.77712 0.0
C2002 C 0.30682 0.24475 0.77606 0.0
C2003 C 0.29285 0.23476 0.7893 0.0
C2004 C 0.29541 0.22455 0.80383 0.0
C2005 C 0.31183 0.22446 0.80506 0.0
C2006 C 0.32583 0.23499 0.79163 0.0
H2007 H 0.70722 0.04712 0.74811 0.0
H2008 H 0.73471 0.02083 0.72332 0.0
H2009 H 0.75847 0.03534 0.74885 0.0
H2010 H 0.74486 0.08822 0.75839 0.0
H2011 H 0.73687 0.09213 0.78159 0.0
H2012 H 0.72107 0.0783 0.76278 0.0
H2013 H 0.70545 0.0521 0.78788 0.0
H2014 H 0.72107 0.06594 0.80689 0.0
H2015 H 0.7186 0.04436 0.80101 0.0
H2016 H 0.78122 0.05612 0.77376 0.0
H2017 H 0.79987 0.07902 0.79831 0.0
H2018 H 0.75611 0.08957 0.8094 0.0
C2019 C 0.71804 0.04411 0.74834 0.0
C2020 C 0.71914 0.03284 0.73378 0.0
C2021 C 0.73354 0.0293 0.73445 0.0
C2022 C 0.74712 0.03753 0.74885 0.0
C2023 C 0.74589 0.04897 0.76268 0.0
C2024 C 0.73152 0.05196 0.76281 0.0
C2025 C 0.7337 0.0653 0.77887 0.0
C2026 C 0.73416 0.08197 0.76986 0.0
C2027 C 0.71882 0.05639 0.7946 0.0
C2028 C 0.75184 0.06982 0.78729 0.0
C2029 C 0.75864 0.06027 0.77774 0.0
C2030 C 0.7758 0.06327 0.78177 0.0
C2031 C 0.78628 0.07631 0.79598 0.0
C2032 C 0.77955 0.08613 0.80634 0.0
C2033 C 0.76192 0.08255 0.8019 0.0
H2034 H 0.05968 0.36164 0.04764 0.0
H2035 H 0.01527 0.3068 0.04492 0.0
H2036 H 0.03264 0.29675 0.06494 0.0
H2037 H 0.09566 0.35111 0.04506 0.0
H2038 H 0.10984 0.36836 0.06251 0.0
H2039 H 0.09422 0.37124 0.04727 0.0
H2040 H 0.0801 0.37632 0.07889 0.0
H2041 H 0.09563 0.37338 0.09423 0.0
H2042 H 0.07179 0.35959 0.09826 0.0
H2043 H 0.05449 0.29253 0.08534 0.0
H2044 H 0.07936 0.29452 0.10565 0.0
H2045 H 0.10957 0.35212 0.09613 0.0
C2046 C 0.05371 0.34751 0.05113 0.0
C2047 C 0.03615 0.33498 0.04465 0.0
C2048 C 0.02869 0.31663 0.04972 0.0
C2049 C 0.03846 0.31078 0.06106 0.0
C2050 C 0.05565 0.32345 0.06737 0.0
C2051 C 0.06323 0.34144 0.06267 0.0
C2052 C 0.08177 0.3523 0.07188 0.0
C2053 C 0.09622 0.36128 0.05571 0.0
C2054 C 0.08235 0.36622 0.08669 0.0
C2055 C 0.08337 0.33759 0.08247 0.0
C2056 C 0.06818 0.32105 0.07955 0.0
C2057 C 0.06648 0.30539 0.08771 0.0
C2058 C 0.0807 0.30665 0.09915 0.0
C2059 C 0.09641 0.32345 0.10244 0.0
C2060 C 0.09767 0.33911 0.09401 0.0
H2061 H 0.66116 0.69504 0.06254 0.0
H2062 H 0.65147 0.71107 0.00478 0.0
H2063 H 0.65594 0.73943 0.0194 0.0
H2064 H 0.6378 0.71266 0.09095 0.0
H2065 H 0.65332 0.7197 0.11153 0.0
H2066 H 0.64972 0.70088 0.09643 0.0
H2067 H 0.68389 0.71632 0.0894 0.0
H2068 H 0.6876 0.73521 0.10444 0.0
H2069 H 0.69533 0.73864 0.07905 0.0
H2070 H 0.66229 0.76634 0.04013 0.0
H2071 H 0.66805 0.7891 0.06593 0.0
H2072 H 0.67236 0.75501 0.11051 0.0
C2073 C 0.66001 0.70454 0.05296 0.0
C2074 C 0.65606 0.70094 0.0325 0.0
C2075 C 0.65448 0.71359 0.02049 0.0
C2076 C 0.65705 0.72973 0.02865 0.0
C2077 C 0.66099 0.73291 0.04887 0.0
C2078 C 0.66229 0.7206 0.06092 0.0
C2079 C 0.66621 0.72708 0.08229 0.0
C2080 C 0.65084 0.71432 0.09611 0.0
C2081 C 0.68434 0.72946 0.08919 0.0
C2082 C 0.66701 0.74502 0.08037 0.0
C2083 C 0.6641 0.74818 0.06094 0.0
C2084 C 0.66453 0.76399 0.0554 0.0
C2085 C 0.66791 0.77687 0.07012 0.0
C2086 C 0.67067 0.77381 0.09018 0.0
C2087 C 0.67018 0.75764 0.09531 0.0
H2088 H 0.31075 0.94681 0.04501 0.0
H2089 H 0.29698 0.98891 0.0421 0.0
H2090 H 0.26994 0.97052 0.06224 0.0
H2091 H 0.26454 0.90863 0.04353 0.0
H2092 H 0.26912 0.8956 0.0611 0.0
H2093 H 0.28675 0.91145 0.04512 0.0
H2094 H 0.3065 0.92706 0.07602 0.0
H2095 H 0.28888 0.91136 0.0921 0.0
H2096 H 0.29789 0.93515 0.09544 0.0
H2097 H 0.24528 0.94855 0.08362 0.0
H2098 H 0.224 0.92384 0.10515 0.0
H2099 H 0.25362 0.89585 0.09528 0.0
C2100 C 0.30184 0.95196 0.04834 0.0
C2101 C 0.30586 0.96921 0.04191 0.0
C2102 C 0.29411 0.9757 0.04687 0.0
C2103 C 0.27872 0.96537 0.05828 0.0
C2104 C 0.27529 0.94859 0.06475 0.0
C2105 C 0.28644 0.94185 0.05998 0.0
C2106 C 0.27997 0.92372 0.0697 0.0
C2107 C 0.27479 0.90898 0.05392 0.0
C2108 C 0.29416 0.92437 0.08417 0.0
C2109 C 0.26356 0.92145 0.08074 0.0
C2110 C 0.26109 0.93593 0.07753 0.0
C2111 C 0.24698 0.93707 0.08616 0.0
C2112 C 0.23494 0.92295 0.09832 0.0
C2113 C 0.23711 0.90791 0.10182 0.0
C2114 C 0.2517 0.90724 0.09297 0.0
H2115 H 0.34841 0.05673 0.99347 0.0
H2116 H 0.32383 0.00904 0.95625 0.0
H2117 H 0.31677 0.02531 0.93101 0.0
H2118 H 0.31623 0.07149 0.98124 0.0
H2119 H 0.33308 0.09497 0.98145 0.0
H2120 H 0.33572 0.07939 0.99702 0.0
H2121 H 0.36683 0.08965 0.98114 0.0
H2122 H 0.36423 0.10513 0.96541 0.0
H2123 H 0.36858 0.08852 0.95452 0.0
H2124 H 0.31428 0.04703 0.90883 0.0
H2125 H 0.31443 0.0724 0.89187 0.0
H2126 H 0.33881 0.10579 0.94407 0.0
C2127 C 0.34137 0.04968 0.9801 0.0
C2128 C 0.33666 0.03162 0.97682 0.0
C2129 C 0.32752 0.02286 0.95912 0.0
C2130 C 0.32348 0.03199 0.94465 0.0
C2131 C 0.32851 0.04984 0.94818 0.0
C2132 C 0.33706 0.05858 0.96553 0.0
C2133 C 0.34104 0.07786 0.96543 0.0
C2134 C 0.33091 0.08111 0.98229 0.0
C2135 C 0.36138 0.09107 0.9667 0.0
C2136 C 0.33361 0.07861 0.94521 0.0
C2137 C 0.32652 0.0623 0.93553 0.0
C2138 C 0.31949 0.0598 0.91639 0.0
C2139 C 0.31953 0.07431 0.90693 0.0
C2140 C 0.32636 0.09113 0.91666 0.0
C2141 C 0.33354 0.09321 0.93609 0.0
H2142 H 0.94756 0.29698 0.98957 0.0
H2143 H 0.99609 0.31682 0.9542 0.0
H2144 H 0.9794 0.29356 0.92901 0.0
H2145 H 0.93101 0.24997 0.97947 0.0
H2146 H 0.90774 0.24409 0.97833 0.0
H2147 H 0.92329 0.26266 0.99355 0.0
H2148 H 0.9146 0.28365 0.97506 0.0
H2149 H 0.89906 0.26514 0.95975 0.0
H2150 H 0.91644 0.28537 0.94835 0.0
H2151 H 0.95782 0.26875 0.90741 0.0
H2152 H 0.93269 0.24261 0.89118 0.0
H2153 H 0.89801 0.23725 0.94085 0.0
C2154 C 0.95461 0.29642 0.97649 0.0
C2155 C 0.97314 0.30875 0.97384 0.0
C2156 C 0.98193 0.30751 0.9566 0.0
C2157 C 0.97256 0.29437 0.94214 0.0
C2158 C 0.95437 0.28243 0.94515 0.0
C2159 C 0.94546 0.28318 0.96191 0.0
C2160 C 0.92593 0.26829 0.96157 0.0
C2161 C 0.92175 0.2555 0.97928 0.0
C2162 C 0.91326 0.27608 0.96115 0.0
C2163 C 0.92534 0.25914 0.94202 0.0
C2164 C 0.9419 0.26763 0.9328 0.0
C2165 C 0.94481 0.26186 0.91456 0.0
C2166 C 0.93044 0.24687 0.90552 0.0
C2167 C 0.91334 0.23762 0.91478 0.0
C2168 C 0.91082 0.24401 0.93327 0.0
H2169 H 0.69536 0.64067 0.98068 0.0
H2170 H 0.71116 0.69668 0.98915 0.0
H2171 H 0.74024 0.70582 0.97294 0.0
H2172 H 0.74022 0.64563 0.98747 0.0
H2173 H 0.73677 0.62965 0.96817 0.0
H2174 H 0.71791 0.6274 0.98225 0.0
H2175 H 0.70205 0.6276 0.94955 0.0
H2176 H 0.72085 0.6299 0.93539 0.0
H2177 H 0.7135 0.64606 0.93245 0.0
H2178 H 0.76672 0.709 0.95436 0.0
H2179 H 0.78881 0.70613 0.93368 0.0
H2180 H 0.75556 0.64805 0.93574 0.0
C2181 C 0.70511 0.65484 0.97945 0.0
C2182 C 0.70112 0.66799 0.98631 0.0
C2183 C 0.71401 0.6864 0.98406 0.0
C2184 C 0.73057 0.69172 0.97492 0.0
C2185 C 0.73401 0.67846 0.96802 0.0
C2186 C 0.72167 0.66039 0.97012 0.0
C2187 C 0.72826 0.64894 0.96012 0.0
C2188 C 0.73095 0.63721 0.97542 0.0
C2189 C 0.7154 0.63745 0.94338 0.0
C2190 C 0.7461 0.6634 0.95185 0.0
C2191 C 0.74919 0.68031 0.95678 0.0
C2192 C 0.76448 0.69583 0.95042 0.0
C2193 C 0.77688 0.69405 0.93854 0.0
C2194 C 0.77389 0.67687 0.93294 0.0
C2195 C 0.75835 0.66136 0.93993 0.0
H2196 H 0.94984 0.63835 0.9809 0.0
H2197 H 0.99003 0.69403 0.99141 0.0
H2198 H 0.97112 0.7038 0.974 0.0
H2199 H 0.93978 0.64504 0.93183 0.0
H2200 H 0.91607 0.62902 0.93317 0.0
H2201 H 0.93164 0.62615 0.94849 0.0
H2202 H 0.91394 0.62538 0.98001 0.0
H2203 H 0.89825 0.62816 0.96477 0.0
H2204 H 0.90982 0.64364 0.98481 0.0
H2205 H 0.9489 0.7077 0.95426 0.0
H2206 H 0.92491 0.70564 0.9325 0.0
H2207 H 0.89973 0.64747 0.93255 0.0
C2208 C 0.95439 0.65255 0.9799 0.0
C2209 C 0.97126 0.66547 0.98766 0.0
C2210 C 0.97709 0.68396 0.98562 0.0
C2211 C 0.96644 0.68963 0.9758 0.0
C2212 C 0.95005 0.67663 0.96793 0.0
C2213 C 0.94402 0.65848 0.96979 0.0
C2214 C 0.92651 0.64742 0.95858 0.0
C2215 C 0.92864 0.63626 0.94204 0.0
C2216 C 0.91123 0.63544 0.9729 0.0
C2217 C 0.9238 0.66222 0.95001 0.0
C2218 C 0.93746 0.67893 0.9558 0.0
C2219 C 0.93813 0.69469 0.94958 0.0
C2220 C 0.92451 0.69337 0.93704 0.0
C2221 C 0.91046 0.6764 0.93058 0.0
C2222 C 0.91013 0.66064 0.93733 0.0
H2223 H 0.33749 0.30819 0.95916 0.0
H2224 H 0.35151 0.29512 0.01632 0.0
H2225 H 0.34775 0.2669 1.00222 0.0
H2226 H 0.30382 0.2625 0.9453 0.0
H2227 H 0.31014 0.26571 0.91943 0.0
H2228 H 0.31307 0.28445 0.93426 0.0
H2229 H 0.34681 0.30205 0.92482 0.0
H2230 H 0.34399 0.28337 0.90999 0.0
H2231 H 0.36065 0.29214 0.92947 0.0
H2232 H 0.34377 0.24088 0.98164 0.0
H2233 H 0.33964 0.21856 0.95602 0.0
H2234 H 0.3283 0.24853 0.91209 0.0
C2235 C 0.33959 0.2993 0.96876 0.0
C2236 C 0.34474 0.3038 0.98886 0.0
C2237 C 0.34752 0.2919 1.0009 0.0
C2238 C 0.3454 0.27585 0.99303 0.0
C2239 C 0.34047 0.27189 0.97311 0.0
C2240 C 0.33755 0.28323 0.96114 0.0
C2241 C 0.33289 0.27607 0.94007 0.0
C2242 C 0.31385 0.27193 0.93444 0.0
C2243 C 0.34692 0.28919 0.92521 0.0
C2244 C 0.33383 0.25901 0.94201 0.0
C2245 C 0.33818 0.25685 0.96122 0.0
C2246 C 0.34031 0.24239 0.96657 0.0
C2247 C 0.33804 0.22986 0.95188 0.0
C2248 C 0.33371 0.23184 0.93205 0.0
C2249 C 0.33142 0.24656 0.92716 0.0
H2250 H 0.7096 0.03619 0.98112 0.0
H2251 H 0.68686 0.06939 0.9979 0.0
H2252 H 0.70958 0.09417 0.97744 0.0
H2253 H 0.75643 0.07278 0.98249 0.0
H2254 H 0.76302 0.06408 0.96175 0.0
H2255 H 0.74497 0.04895 0.97777 0.0
H2256 H 0.72395 0.03611 0.94716 0.0
H2257 H 0.74188 0.05133 0.93108 0.0
H2258 H 0.7208 0.05112 0.93115 0.0
H2259 H 0.73281 0.11418 0.95288 0.0
H2260 H 0.75766 0.12989 0.92933 0.0
H2261 H 0.768 0.08527 0.93167 0.0
C2262 C 0.70954 0.04874 0.98058 0.0
C2263 C 0.69648 0.05091 0.99102 0.0
C2264 C 0.69682 0.06752 0.99009 0.0
C2265 C 0.7096 0.08163 0.97843 0.0
C2266 C 0.72216 0.07903 0.96811 0.0
C2267 C 0.7225 0.06316 0.96938 0.0
C2268 C 0.73781 0.06412 0.9572 0.0
C2269 C 0.75136 0.06239 0.97061 0.0
C2270 C 0.73067 0.04982 0.94067 0.0
C2271 C 0.74579 0.08288 0.94864 0.0
C2272 C 0.7364 0.09113 0.95495 0.0
C2273 C 0.74057 0.10806 0.94821 0.0
C2274 C 0.75491 0.11697 0.93491 0.0
C2275 C 0.7653 0.10917 0.92872 0.0
C2276 C 0.76048 0.09178 0.93578 0.0
H2277 H 0.64082 0.95084 0.04663 0.0
H2278 H 0.69613 0.99417 0.04271 0.0
H2279 H 0.70604 0.97603 0.06141 0.0
H2280 H 0.64371 0.93836 0.09628 0.0
H2281 H 0.6294 0.91457 0.09245 0.0
H2282 H 0.62652 0.93025 0.07737 0.0
H2283 H 0.63047 0.91573 0.04542 0.0
H2284 H 0.6332 0.89989 0.0604 0.0
H2285 H 0.65023 0.91368 0.0426 0.0
H2286 H 0.71002 0.95412 0.08172 0.0
H2287 H 0.70786 0.9294 0.10226 0.0
H2288 H 0.65002 0.89996 0.09372 0.0
C2289 C 0.65503 0.95634 0.04942 0.0
C2290 C 0.66773 0.97388 0.0431 0.0
C2291 C 0.68618 0.98076 0.04737 0.0
C2292 C 0.69195 0.97056 0.05798 0.0
C2293 C 0.67912 0.95349 0.06434 0.0
C2294 C 0.66105 0.94636 0.06022 0.0
C2295 C 0.65004 0.92792 0.06958 0.0
C2296 C 0.63663 0.92778 0.08483 0.0
C2297 C 0.64042 0.91345 0.05354 0.0
C2298 C 0.66475 0.92593 0.07971 0.0
C2299 C 0.68141 0.94082 0.07636 0.0
C2300 C 0.69706 0.9423 0.08432 0.0
C2301 C 0.6957 0.92815 0.09591 0.0
C2302 C 0.6788 0.91265 0.09953 0.0
C2303 C 0.66313 0.91164 0.09134 0.0
H2304 H 0.06037 0.70982 0.02948 0.0
H2305 H 0.01527 0.68565 0.07036 0.0
H2306 H 0.03284 0.70902 0.09515 0.0
H2307 H 0.0946 0.72164 0.06526 0.0
H2308 H 0.11031 0.74282 0.05407 0.0
H2309 H 0.09392 0.72483 0.03884 0.0
H2310 H 0.08236 0.74559 0.02583 0.0
H2311 H 0.09879 0.76368 0.04096 0.0
H2312 H 0.0753 0.75672 0.04334 0.0
H2313 H 0.0558 0.73302 0.1166 0.0
H2314 H 0.08253 0.75799 0.13271 0.0
H2315 H 0.11252 0.76794 0.07785 0.0
C2316 C 0.05414 0.70962 0.04355 0.0
C2317 C 0.03645 0.69592 0.04799 0.0
C2318 C 0.02878 0.69604 0.06659 0.0
C2319 C 0.03865 0.70925 0.08081 0.0
C2320 C 0.05612 0.72239 0.07613 0.0
C2321 C 0.06378 0.72286 0.0579 0.0
C2322 C 0.08297 0.73834 0.05692 0.0
C2323 C 0.09623 0.73149 0.05358 0.0
C2324 C 0.08497 0.75189 0.04081 0.0
C2325 C 0.08497 0.74621 0.07759 0.0
C2326 C 0.0693 0.73674 0.0884 0.0
C2327 C 0.06807 0.74073 0.10822 0.0
C2328 C 0.08327 0.75484 0.11725 0.0
C2329 C 0.09937 0.76483 0.1064 0.0
C2330 C 0.10021 0.76058 0.0863 0.0
H2331 H 0.31452 0.34363 0.06704 0.0
H2332 H 0.29223 0.33969 0.00809 0.0
H2333 H 0.26373 0.33439 0.02312 0.0
H2334 H 0.27383 0.30964 0.09055 0.0
H2335 H 0.27825 0.32176 0.11368 0.0
H2336 H 0.29666 0.32467 0.09827 0.0
H2337 H 0.30905 0.35902 0.09758 0.0
H2338 H 0.29066 0.35621 0.11294 0.0
H2339 H 0.29471 0.36747 0.08931 0.0
H2340 H 0.23778 0.32956 0.0445 0.0
H2341 H 0.21634 0.32644 0.07077 0.0
H2342 H 0.25575 0.33429 0.11588 0.0
C2343 C 0.30359 0.34153 0.05729 0.0
C2344 C 0.30551 0.34196 0.03639 0.0
C2345 C 0.291 0.33937 0.02414 0.0
C2346 C 0.27478 0.33634 0.03253 0.0
C2347 C 0.27335 0.33606 0.0532 0.0
C2348 C 0.28738 0.33866 0.06543 0.0
C2349 C 0.28253 0.33821 0.08718 0.0
C2350 C 0.28283 0.32264 0.09806 0.0
C2351 C 0.29498 0.3563 0.09734 0.0
C2352 C 0.26356 0.33495 0.08527 0.0
C2353 C 0.25851 0.33365 0.06554 0.0
C2354 C 0.24157 0.33053 0.06 0.0
C2355 C 0.22946 0.32868 0.07502 0.0
C2356 C 0.23436 0.33005 0.09535 0.0
C2357 C 0.25168 0.33329 0.10047 0.0
H2358 H 0.72445 0.69934 0.37878 0.0
H2359 H 0.68469 0.64457 0.36331 0.0
H2360 H 0.70227 0.63349 0.38121 0.0
H2361 H 0.764 0.69369 0.37542 0.0
H2362 H 0.77495 0.708 0.39652 0.0
H2363 H 0.75993 0.71181 0.38127 0.0
H2364 H 0.74119 0.70951 0.41245 0.0
H2365 H 0.75609 0.7056 0.42777 0.0
H2366 H 0.73231 0.68972 0.42783 0.0
H2367 H 0.72318 0.62811 0.40198 0.0
H2368 H 0.74641 0.6288 0.42409 0.0
H2369 H 0.77243 0.68694 0.42705 0.0
C2370 C 0.71963 0.68505 0.37889 0.0
C2371 C 0.70325 0.67281 0.36955 0.0
C2372 C 0.69721 0.65419 0.37032 0.0
C2373 C 0.70711 0.64775 0.38044 0.0
C2374 C 0.72303 0.66011 0.38977 0.0
C2375 C 0.72931 0.67837 0.38908 0.0
C2376 C 0.74643 0.68865 0.40116 0.0
C2377 C 0.76226 0.70128 0.38779 0.0
C2378 C 0.74384 0.69897 0.41832 0.0
C2379 C 0.74866 0.67329 0.40886 0.0
C2380 C 0.73504 0.65697 0.40203 0.0
C2381 C 0.73395 0.64082 0.40741 0.0
C2382 C 0.74714 0.64134 0.42012 0.0
C2383 C 0.76123 0.6579 0.42741 0.0
C2384 C 0.76197 0.67407 0.42158 0.0
H2385 H 0.30973 0.0344 0.37569 0.0
H2386 H 0.36284 0.04023 0.37738 0.0
H2387 H 0.37415 0.06845 0.39639 0.0
H2388 H 0.3242 0.08277 0.37265 0.0
H2389 H 0.30643 0.08043 0.38882 0.0
H2390 H 0.30308 0.06195 0.37322 0.0
H2391 H 0.29473 0.0415 0.40428 0.0
H2392 H 0.29824 0.05994 0.41999 0.0
H2393 H 0.3103 0.04818 0.4248 0.0
H2394 H 0.37918 0.0947 0.41721 0.0
H2395 H 0.37759 0.11718 0.43866 0.0
H2396 H 0.32099 0.09394 0.42438 0.0
C2397 C 0.32384 0.0419 0.3796 0.0
C2398 C 0.3355 0.03531 0.37486 0.0
C2399 C 0.35375 0.04516 0.38075 0.0
C2400 C 0.36029 0.06119 0.39153 0.0
C2401 C 0.34836 0.06712 0.39643 0.0
C2402 C 0.33053 0.05782 0.39064 0.0
C2403 C 0.32024 0.06636 0.39916 0.0
C2404 C 0.31307 0.07329 0.38247 0.0
C2405 C 0.30498 0.05321 0.41287 0.0
C2406 C 0.33501 0.08173 0.41087 0.0
C2407 C 0.35116 0.08203 0.40891 0.0
C2408 C 0.36665 0.09472 0.41871 0.0
C2409 C 0.36563 0.10746 0.43081 0.0
C2410 C 0.34919 0.10736 0.43316 0.0
C2411 C 0.33372 0.0943 0.42299 0.0
H2412 H 0.96864 0.3028 0.39465 0.0
H2413 H 0.95183 0.281 0.33527 0.0
H2414 H 0.92255 0.25763 0.34868 0.0
H2415 H 0.9503 0.2612 0.41881 0.0
H2416 H 0.94368 0.26827 0.44092 0.0
H2417 H 0.96238 0.28442 0.42639 0.0
H2418 H 0.9472 0.30382 0.42282 0.0
H2419 H 0.92847 0.28775 0.43745 0.0
H2420 H 0.92469 0.29382 0.413 0.0
H2421 H 0.89582 0.23571 0.36894 0.0
H2422 H 0.87422 0.21622 0.39453 0.0
H2423 H 0.9091 0.25193 0.44071 0.0
C2424 C 0.95866 0.29334 0.38441 0.0
C2425 C 0.96237 0.29379 0.3639 0.0
C2426 C 0.94916 0.28092 0.35102 0.0
C2427 C 0.93251 0.26765 0.3585 0.0
C2428 C 0.92938 0.2674 0.37888 0.0
C2429 C 0.94211 0.27989 0.39165 0.0
C2430 C 0.936 0.27592 0.41309 0.0
C2431 C 0.94885 0.27223 0.42552 0.0
C2432 C 0.93396 0.29124 0.42212 0.0
C2433 C 0.91793 0.25909 0.41043 0.0
C2434 C 0.91425 0.25452 0.39058 0.0
C2435 C 0.89851 0.23925 0.38451 0.0
C2436 C 0.88629 0.2283 0.39914 0.0
C2437 C 0.88998 0.23259 0.41958 0.0
C2438 C 0.90597 0.24827 0.4252 0.0
H2439 H 0.00561 0.36235 0.29247 0.0
H2440 H 0.0138 0.38549 0.35155 0.0
H2441 H 0.00976 0.41007 0.33811 0.0
H2442 H 0.02972 0.40433 0.26631 0.0
H2443 H 0.01473 0.39663 0.24524 0.0
H2444 H 0.01797 0.38086 0.25969 0.0
H2445 H 0.98362 0.36187 0.26556 0.0
H2446 H 0.98027 0.37763 0.25119 0.0
H2447 H 0.9719 0.37234 0.2763 0.0
H2448 H 0.00391 0.43163 0.31807 0.0
H2449 H 0.99901 0.44965 0.29278 0.0
H2450 H 0.99579 0.41275 0.2468 0.0
C2451 C 0.00654 0.37258 0.3026 0.0
C2452 C 0.00992 0.372 0.32307 0.0
C2453 C 0.01122 0.38572 0.33582 0.0
C2454 C 0.00889 0.39967 0.32832 0.0
C2455 C 0.00546 0.39976 0.30805 0.0
C2456 C 0.00447 0.38666 0.29535 0.0
C2457 C 1.0011 0.39001 0.2741 0.0
C2458 C 0.01682 0.39315 0.26054 0.0
C2459 C 0.98315 0.37454 0.26634 0.0
C2460 C 1.00023 0.40703 0.27679 0.0
C2461 C 0.00263 0.41238 0.29649 0.0
C2462 C 0.00208 0.42759 0.30261 0.0
C2463 C 0.99919 0.43767 0.28818 0.0
C2464 C 0.99704 0.43258 0.26787 0.0
C2465 C 0.99753 0.41703 0.2622 0.0
H2466 H 0.63831 0.63477 0.30605 0.0
H2467 H 0.60648 0.65896 0.32318 0.0
H2468 H 0.58111 0.63638 0.30298 0.0
H2469 H 0.62301 0.62435 0.25606 0.0
H2470 H 0.62264 0.60322 0.25565 0.0
H2471 H 0.63812 0.62102 0.27174 0.0
H2472 H 0.62546 0.59985 0.30219 0.0
H2473 H 0.61 0.58194 0.28618 0.0
H2474 H 0.60167 0.58858 0.30722 0.0
H2475 H 0.55981 0.61206 0.27948 0.0
H2476 H 0.54335 0.58642 0.25651 0.0
H2477 H 0.5888 0.57757 0.25577 0.0
C2478 C 0.62596 0.63526 0.30565 0.0
C2479 C 0.62434 0.64862 0.31613 0.0
C2480 C 0.60797 0.64879 0.31529 0.0
C2481 C 0.59352 0.63607 0.30382 0.0
C2482 C 0.59563 0.62318 0.29347 0.0
C2483 C 0.61138 0.62256 0.29447 0.0
C2484 C 0.61019 0.60729 0.28206 0.0
C2485 C 0.62433 0.6144 0.26539 0.0
C2486 C 0.61193 0.59361 0.2952 0.0
C2487 C 0.59137 0.5995 0.27375 0.0
C2488 C 0.58323 0.60892 0.28041 0.0
C2489 C 0.56601 0.60453 0.27429 0.0
C2490 C 0.55682 0.59004 0.26115 0.0
C2491 C 0.56481 0.58004 0.25442 0.0
C2492 C 0.58231 0.58488 0.26085 0.0
H2493 H 0.35593 0.99397 0.30028 0.0
H2494 H 0.36239 0.96838 0.35277 0.0
H2495 H 0.38834 0.96826 0.33701 0.0
H2496 H 0.36706 0.9699 0.26432 0.0
H2497 H 0.37877 0.98899 0.2481 0.0
H2498 H 0.36069 0.98693 0.2635 0.0
H2499 H 0.3819 0.01827 0.27875 0.0
H2500 H 0.40006 0.02041 0.26344 0.0
H2501 H 0.40274 0.02264 0.29006 0.0
H2502 H 0.41392 0.97151 0.31572 0.0
H2503 H 0.437 0.97743 0.29044 0.0
H2504 H 0.41331 1.00025 0.25145 0.0
C2505 C 0.36278 0.98831 0.30847 0.0
C2506 C 0.35716 0.98119 0.32777 0.0
C2507 C 0.36646 0.97389 0.33797 0.0
C2508 C 0.38121 0.97378 0.32914 0.0
C2509 C 0.38643 0.98096 0.3101 0.0
C2510 C 0.37747 0.98805 0.29987 0.0
C2511 C 0.38578 0.99495 0.2796 0.0
C2512 C 0.37227 0.98457 0.2629 0.0
C2513 C 0.39305 0.01527 0.27787 0.0
C2514 C 0.4009 0.99073 0.28005 0.0
C2515 C 0.40103 0.98266 0.29777 0.0
C2516 C 0.41385 0.97769 0.30173 0.0
C2517 C 0.42684 0.98101 0.28719 0.0
C2518 C 0.42694 0.98918 0.26883 0.0
C2519 C 0.41373 0.9941 0.26534 0.0
H2520 H 0.60587 0.97104 0.31931 0.0
H2521 H 0.64864 0.02614 0.32688 0.0
H2522 H 0.6311 0.03662 0.30753 0.0
H2523 H 0.59708 0.97608 0.2691 0.0
H2524 H 0.57317 0.961 0.27069 0.0
H2525 H 0.58814 0.95802 0.28693 0.0
H2526 H 0.57085 0.95975 0.31765 0.0
H2527 H 0.55577 0.96267 0.30149 0.0
H2528 H 0.56785 0.97891 0.32074 0.0
H2529 H 0.60907 0.04088 0.28684 0.0
H2530 H 0.58518 0.03877 0.26488 0.0
H2531 H 0.55825 0.98054 0.26813 0.0
C2532 C 0.61134 0.98534 0.31725 0.0
C2533 C 0.62843 0.99786 0.32483 0.0
C2534 C 0.63547 0.0164 0.32132 0.0
C2535 C 0.62561 0.02245 0.31039 0.0
C2536 C 0.60888 0.00973 0.30285 0.0
C2537 C 0.60186 0.99155 0.30602 0.0
C2538 C 0.58428 0.98058 0.29499 0.0
C2539 C 0.58577 0.9682 0.27951 0.0
C2540 C 0.56877 0.96985 0.30959 0.0
C2541 C 0.5825 0.99542 0.28512 0.0
C2542 C 0.5967 0.01212 0.29003 0.0
C2543 C 0.59795 0.02786 0.28277 0.0
C2544 C 0.58435 0.02648 0.27009 0.0
C2545 C 0.5698 0.00947 0.26446 0.0
C2546 C 0.56897 0.99378 0.27222 0.0
H2547 H 0.02941 0.63668 0.31572 0.0
H2548 H 0.97621 0.63064 0.31256 0.0
H2549 H 0.96613 0.60408 0.29096 0.0
H2550 H 0.03102 0.62502 0.265 0.0
H2551 H 0.04285 0.61309 0.27016 0.0
H2552 H 0.04578 0.63113 0.28623 0.0
H2553 H 0.03626 0.60983 0.31663 0.0
H2554 H 0.03343 0.59175 0.30067 0.0
H2555 H 0.0151 0.58906 0.3161 0.0
H2556 H 0.96189 0.57858 0.26929 0.0
H2557 H 0.96376 0.55574 0.24882 0.0
H2558 H 0.01983 0.57843 0.26533 0.0
C2559 C 0.01559 0.62962 0.31066 0.0
C2560 C 0.00354 0.63565 0.31592 0.0
C2561 C 0.98564 0.62623 0.30877 0.0
C2562 C 0.97979 0.61113 0.29648 0.0
C2563 C 0.99203 0.60566 0.29137 0.0
C2564 C 0.00955 0.61459 0.29821 0.0
C2565 C 0.02009 0.60619 0.28999 0.0
C2566 C 0.03587 0.61966 0.27708 0.0
C2567 C 0.0266 0.59876 0.30686 0.0
C2568 C 0.00575 0.59117 0.27746 0.0
C2569 C 0.98966 0.59109 0.27856 0.0
C2570 C 0.9744 0.57847 0.26836 0.0
C2571 C 0.97558 0.56551 0.25683 0.0
C2572 C 0.99191 0.56526 0.2555 0.0
C2573 C 0.0072 0.57837 0.2659 0.0
H2574 H 0.36677 0.36818 0.29443 0.0
H2575 H 0.38462 0.39292 0.35247 0.0
H2576 H 0.41265 0.41689 0.33749 0.0
H2577 H 0.41056 0.37853 0.27534 0.0
H2578 H 0.40598 0.38321 0.25056 0.0
H2579 H 0.38783 0.3674 0.26603 0.0
H2580 H 0.37147 0.38557 0.26137 0.0
H2581 H 0.38959 0.40147 0.24595 0.0
H2582 H 0.38299 0.40912 0.26761 0.0
H2583 H 0.43838 0.43837 0.31624 0.0
H2584 H 0.45972 0.45668 0.28993 0.0
H2585 H 0.42481 0.41864 0.24538 0.0
C2586 C 0.37669 0.37853 0.304 0.0
C2587 C 0.37364 0.37865 0.32463 0.0
C2588 C 0.38675 0.39257 0.33664 0.0
C2589 C 0.40271 0.40621 0.32827 0.0
C2590 C 0.40525 0.40581 0.30785 0.0
C2591 C 0.3926 0.39238 0.29584 0.0
C2592 C 0.39828 0.39557 0.27419 0.0
C2593 C 0.40081 0.38027 0.26606 0.0
C2594 C 0.38478 0.39809 0.26154 0.0
C2595 C 0.41609 0.41292 0.27592 0.0
C2596 C 0.41991 0.41848 0.29549 0.0
C2597 C 0.43557 0.43412 0.30087 0.0
C2598 C 0.44764 0.44438 0.28583 0.0
C2599 C 0.44396 0.43904 0.26563 0.0
C2600 C 0.42793 0.42309 0.26068 0.0
H2601 H 0.31187 0.28187 0.37761 0.0
H2602 H 0.36742 0.32463 0.37351 0.0
H2603 H 0.37696 0.30651 0.39278 0.0
H2604 H 0.31439 0.27015 0.42749 0.0
H2605 H 0.29991 0.2463 0.42425 0.0
H2606 H 0.29728 0.26175 0.40848 0.0
H2607 H 0.3012 0.24642 0.37722 0.0
H2608 H 0.30367 0.23081 0.3929 0.0
H2609 H 0.32084 0.24408 0.37499 0.0
H2610 H 0.38055 0.28506 0.41414 0.0
H2611 H 0.37806 0.26094 0.43593 0.0
H2612 H 0.32027 0.23152 0.4268 0.0
C2613 C 0.32605 0.2872 0.38043 0.0
C2614 C 0.33893 0.30461 0.37394 0.0
C2615 C 0.35734 0.31131 0.37829 0.0
C2616 C 0.3629 0.30112 0.38922 0.0
C2617 C 0.34991 0.28422 0.39582 0.0
C2618 C 0.33187 0.2772 0.39156 0.0
C2619 C 0.32069 0.259 0.40139 0.0
C2620 C 0.30728 0.25933 0.41629 0.0
C2621 C 0.31103 0.2442 0.38569 0.0
C2622 C 0.33526 0.25706 0.41197 0.0
C2623 C 0.352 0.27175 0.40842 0.0
C2624 C 0.36754 0.27336 0.41685 0.0
C2625 C 0.36598 0.25953 0.42916 0.0
C2626 C 0.34901 0.24421 0.43299 0.0
C2627 C 0.33344 0.24306 0.42427 0.0
H2628 H 0.71489 0.03556 0.36607 0.0
H2629 H 0.67706 0.00444 0.41262 0.0
H2630 H 0.69644 0.02674 0.4375 0.0
H2631 H 0.75551 0.05077 0.39513 0.0
H2632 H 0.76685 0.07299 0.38454 0.0
H2633 H 0.7503 0.05434 0.37015 0.0
H2634 H 0.73263 0.0711 0.3647 0.0
H2635 H 0.74911 0.0898 0.3791 0.0
H2636 H 0.72572 0.07897 0.38594 0.0
H2637 H 0.71979 0.05161 0.45755 0.0
H2638 H 0.74547 0.07897 0.47159 0.0
H2639 H 0.76787 0.09546 0.41245 0.0
C2640 C 0.71079 0.03346 0.38151 0.0
C2641 C 0.69449 0.01823 0.38743 0.0
C2642 C 0.68945 0.01602 0.40774 0.0
C2643 C 0.70038 0.02859 0.42201 0.0
C2644 C 0.71628 0.04347 0.41577 0.0
C2645 C 0.72147 0.04611 0.39603 0.0
C2646 C 0.73904 0.06364 0.39343 0.0
C2647 C 0.7538 0.06023 0.38534 0.0
C2648 C 0.73646 0.07665 0.38 0.0
C2649 C 0.74286 0.07031 0.41478 0.0
C2650 C 0.72959 0.05833 0.42739 0.0
C2651 C 0.73024 0.06116 0.44785 0.0
C2652 C 0.74487 0.07667 0.45569 0.0
C2653 C 0.75855 0.08927 0.44309 0.0
C2654 C 0.75747 0.08609 0.42235 0.0
H2655 H 0.96373 0.65812 0.3831 0.0
H2656 H 0.99365 0.71592 0.37504 0.0
H2657 H 0.97098 0.71874 0.3948 0.0
H2658 H 0.9196 0.65347 0.37897 0.0
H2659 H 0.90964 0.63601 0.39744 0.0
H2660 H 0.92834 0.63853 0.38286 0.0
H2661 H 0.94594 0.64122 0.4152 0.0
H2662 H 0.92734 0.63882 0.42987 0.0
H2663 H 0.94937 0.65811 0.43333 0.0
H2664 H 0.94579 0.71548 0.41622 0.0
H2665 H 0.91854 0.70629 0.4361 0.0
H2666 H 0.90376 0.65034 0.42883 0.0
C2667 C 0.96548 0.67135 0.38549 0.0
C2668 C 0.98047 0.68682 0.37758 0.0
C2669 C 0.98225 0.70389 0.38093 0.0
C2670 C 0.96948 0.70564 0.39218 0.0
C2671 C 0.95492 0.69016 0.39986 0.0
C2672 C 0.95273 0.67332 0.39654 0.0
C2673 C 0.93562 0.65885 0.40616 0.0
C2674 C 0.92253 0.64596 0.39041 0.0
C2675 C 0.93983 0.64865 0.42209 0.0
C2676 C 0.92859 0.67021 0.41547 0.0
C2677 C 0.94002 0.68823 0.41175 0.0
C2678 C 0.93661 0.70138 0.41903 0.0
C2679 C 0.92099 0.69599 0.43022 0.0
C2680 C 0.90875 0.67754 0.43388 0.0
C2681 C 0.9128 0.66454 0.42647 0.0
H2682 H 0.39333 0.02484 0.70406 0.0
H2683 H 0.3465 0.97148 0.70591 0.0
H2684 H 0.36342 0.96078 0.72581 0.0
H2685 H 0.42781 0.011 0.70273 0.0
H2686 H 0.44287 0.02893 0.719 0.0
H2687 H 0.42783 0.03197 0.70289 0.0
H2688 H 0.41507 0.0403 0.73339 0.0
H2689 H 0.42993 0.03713 0.7496 0.0
H2690 H 0.40604 0.02488 0.75397 0.0
H2691 H 0.38449 0.95615 0.74701 0.0
H2692 H 0.40842 0.95795 0.76884 0.0
H2693 H 0.44159 0.01455 0.7548 0.0
C2694 C 0.38686 0.01082 0.70824 0.0
C2695 C 0.3687 0.99888 0.70322 0.0
C2696 C 0.36045 0.98077 0.70948 0.0
C2697 C 0.36995 0.97457 0.72077 0.0
C2698 C 0.38768 0.98671 0.7259 0.0
C2699 C 0.3961 0.00446 0.71989 0.0
C2700 C 0.41483 0.01494 0.72879 0.0
C2701 C 0.42919 0.02213 0.71237 0.0
C2702 C 0.41656 0.03022 0.74224 0.0
C2703 C 0.41548 1.00036 0.74086 0.0
C2704 C 0.39973 0.98415 0.73877 0.0
C2705 C 0.39696 0.96873 0.74865 0.0
C2706 C 0.41065 0.96988 0.76097 0.0
C2707 C 0.42691 0.98635 0.76349 0.0
C2708 C 0.42928 0.00178 0.75326 0.0
H2709 H 0.98176 0.36904 0.69679 0.0
H2710 H 0.00289 0.34494 0.73748 0.0
H2711 H 0.0078 0.36771 0.76277 0.0
H2712 H 0.01309 0.4154 0.71102 0.0
H2713 H 0.99665 0.42247 0.70865 0.0
H2714 H 0.99486 0.40434 0.69352 0.0
H2715 H 0.96253 0.38365 0.70654 0.0
H2716 H 0.96424 0.40169 0.72173 0.0
H2717 H 0.95867 0.38051 0.73297 0.0
H2718 H 0.00889 0.39178 0.7843 0.0
H2719 H 0.00793 0.41722 0.80016 0.0
H2720 H 0.98773 0.42711 0.74532 0.0
C2721 C 0.98748 0.36863 0.711 0.0
C2722 C 0.99191 0.3552 0.7152 0.0
C2723 C 0.99944 0.35513 0.73392 0.0
C2724 C 0.00225 0.36798 0.74841 0.0
C2725 C 0.99767 0.38098 0.74388 0.0
C2726 C 0.99063 0.38156 0.7256 0.0
C2727 C 0.98702 0.39711 0.72462 0.0
C2728 C 0.9986 0.41063 0.70849 0.0
C2729 C 0.96692 0.39033 0.72127 0.0
C2730 C 0.99293 0.40499 0.74529 0.0
C2731 C 0.99892 0.39537 0.75616 0.0
C2732 C 0.0044 0.39953 0.7759 0.0
C2733 C 0.00375 0.41393 0.78479 0.0
C2734 C 0.99786 0.4241 0.7739 0.0
C2735 C 0.99249 0.41964 0.75386 0.0
H2736 H 0.63272 0.61262 0.69774 0.0
H2737 H 0.64161 0.66259 0.72395 0.0
H2738 H 0.61578 0.64577 0.7461 0.0
H2739 H 0.58284 0.589 0.70054 0.0
H2740 H 0.58102 0.56775 0.70665 0.0
H2741 H 0.5994 0.58371 0.69152 0.0
H2742 H 0.62198 0.58268 0.71627 0.0
H2743 H 0.6037 0.56691 0.73159 0.0
H2744 H 0.62109 0.58764 0.74217 0.0
H2745 H 0.59142 0.62412 0.76759 0.0
H2746 H 0.56774 0.59849 0.78579 0.0
H2747 H 0.57276 0.56184 0.74522 0.0
C2748 C 0.62895 0.61998 0.70784 0.0
C2749 C 0.63918 0.63893 0.70909 0.0
C2750 C 0.634 0.64809 0.72272 0.0
C2751 C 0.61934 0.63866 0.73539 0.0
C2752 C 0.60984 0.62003 0.73423 0.0
C2753 C 0.61421 0.61072 0.72068 0.0
C2754 C 0.60197 0.5906 0.72317 0.0
C2755 C 0.59064 0.58227 0.70435 0.0
C2756 C 0.61284 0.58142 0.72863 0.0
C2757 C 0.59039 0.59017 0.74046 0.0
C2758 C 0.59523 0.60734 0.74652 0.0
C2759 C 0.5872 0.61058 0.76273 0.0
C2760 C 0.57364 0.59587 0.77291 0.0
C2761 C 0.568 0.57803 0.76679 0.0
C2762 C 0.57666 0.57523 0.75034 0.0
H2763 H 0.67157 0.69853 0.63243 0.0
H2764 H 0.69683 0.72937 0.68578 0.0
H2765 H 0.69556 0.75526 0.67163 0.0
H2766 H 0.69493 0.7346 0.59829 0.0
H2767 H 0.67602 0.72749 0.58178 0.0
H2768 H 0.67812 0.71116 0.59652 0.0
H2769 H 0.64649 0.70014 0.61141 0.0
H2770 H 0.64429 0.71644 0.5967 0.0
H2771 H 0.64166 0.71604 0.62332 0.0
H2772 H 0.69181 0.77782 0.65145 0.0
H2773 H 0.68647 0.79568 0.62656 0.0
H2774 H 0.66487 0.75041 0.58579 0.0
C2775 C 0.67668 0.71068 0.64122 0.0
C2776 C 0.6842 0.71194 0.66025 0.0
C2777 C 0.69097 0.72812 0.67119 0.0
C2778 C 0.69029 0.74287 0.66329 0.0
C2779 C 0.68289 0.74122 0.64441 0.0
C2780 C 0.67625 0.72555 0.63349 0.0
C2781 C 0.66955 0.72744 0.6133 0.0
C2782 C 0.6803 0.72503 0.59648 0.0
C2783 C 0.64929 0.71423 0.61106 0.0
C2784 C 0.67349 0.74665 0.61453 0.0
C2785 C 0.6811 0.75433 0.63262 0.0
C2786 C 0.68593 0.77197 0.63719 0.0
C2787 C 0.68296 0.78206 0.62287 0.0
C2788 C 0.67534 0.77453 0.60411 0.0
C2789 C 0.67053 0.75654 0.60002 0.0
H2790 H 0.30511 0.97043 0.62857 0.0
H2791 H 0.27897 0.96096 0.68605 0.0
H2792 H 0.25354 0.93257 0.67337 0.0
H2793 H 0.2651 0.95454 0.59964 0.0
H2794 H 0.27214 0.94463 0.58057 0.0
H2795 H 0.28867 0.96364 0.5945 0.0
H2796 H 0.30415 0.94558 0.60469 0.0
H2797 H 0.28763 0.92649 0.5908 0.0
H2798 H 0.29117 0.92416 0.6168 0.0
H2799 H 0.23103 0.90532 0.65439 0.0
H2800 H 0.21224 0.88184 0.63018 0.0
H2801 H 0.25228 0.91003 0.5844 0.0
C2802 C 0.29411 0.96229 0.63855 0.0
C2803 C 0.29404 0.96778 0.65835 0.0
C2804 C 0.27929 0.95694 0.67085 0.0
C2805 C 0.26482 0.9408 0.66379 0.0
C2806 C 0.26527 0.9358 0.64416 0.0
C2807 C 0.27947 0.94627 0.63167 0.0
C2808 C 0.27629 0.93825 0.61096 0.0
C2809 C 0.2755 0.95102 0.59551 0.0
C2810 C 0.29067 0.93333 0.6055 0.0
C2811 C 0.25806 0.92162 0.61374 0.0
C2812 C 0.25202 0.9204 0.63304 0.0
C2813 C 0.23556 0.9062 0.63921 0.0
C2814 C 0.22492 0.89299 0.62526 0.0
C2815 C 0.23062 0.8941 0.60524 0.0
C2816 C 0.24753 0.90862 0.59956 0.0
H2817 H 0.02939 0.30712 0.64513 0.0
H2818 H 0.03345 0.35935 0.64041 0.0
H2819 H 0.06063 0.37007 0.61967 0.0
H2820 H 0.07725 0.32301 0.64732 0.0
H2821 H 0.07559 0.3048 0.63244 0.0
H2822 H 0.0569 0.30147 0.6476 0.0
H2823 H 0.03625 0.29099 0.61654 0.0
H2824 H 0.05489 0.29436 0.60127 0.0
H2825 H 0.04242 0.30543 0.59508 0.0
H2826 H 0.08704 0.375 0.59908 0.0
H2827 H 0.11072 0.37368 0.57962 0.0
H2828 H 0.08924 0.3181 0.59717 0.0
C2829 C 0.03611 0.32086 0.63988 0.0
C2830 C 0.02939 0.33245 0.64445 0.0
C2831 C 0.0384 0.35026 0.63711 0.0
C2832 C 0.05385 0.35648 0.62534 0.0
C2833 C 0.06004 0.34468 0.62095 0.0
C2834 C 0.05147 0.32724 0.62796 0.0
C2835 C 0.0606 0.31715 0.62056 0.0
C2836 C 0.06803 0.31127 0.63803 0.0
C2837 C 0.04777 0.30103 0.60759 0.0
C2838 C 0.07563 0.33164 0.60828 0.0
C2839 C 0.07511 0.34743 0.60878 0.0
C2840 C 0.08762 0.36272 0.59862 0.0
C2841 C 0.10106 0.36186 0.58767 0.0
C2842 C 0.10184 0.3458 0.58689 0.0
C2843 C 0.08889 0.33051 0.59733 0.0
H2844 H 0.27624 0.31207 0.65369 0.0
H2845 H 0.32459 0.36415 0.64914 0.0
H2846 H 0.30812 0.37515 0.6287 0.0
H2847 H 0.26246 0.31061 0.60384 0.0
H2848 H 0.23877 0.29931 0.60935 0.0
H2849 H 0.25381 0.29607 0.62519 0.0
H2850 H 0.24281 0.30628 0.65576 0.0
H2851 H 0.22765 0.30946 0.64003 0.0
H2852 H 0.24377 0.3277 0.65524 0.0
H2853 H 0.28655 0.38014 0.60798 0.0
H2854 H 0.26193 0.37833 0.58719 0.0
H2855 H 0.22819 0.32252 0.60394 0.0
C2856 C 0.28326 0.32589 0.6487 0.0
C2857 C 0.30161 0.33736 0.65317 0.0
C2858 C 0.31048 0.35521 0.64596 0.0
C2859 C 0.30124 0.36157 0.63438 0.0
C2860 C 0.2832 0.34983 0.63 0.0
C2861 C 0.27432 0.33234 0.63686 0.0
C2862 C 0.25527 0.3221 0.62894 0.0
C2863 C 0.25242 0.30608 0.61607 0.0
C2864 C 0.24157 0.31603 0.64601 0.0
C2865 C 0.25484 0.33653 0.61647 0.0
C2866 C 0.27101 0.35249 0.61746 0.0
C2867 C 0.27383 0.36773 0.60714 0.0
C2868 C 0.25977 0.3666 0.59543 0.0
C2869 C 0.24321 0.35029 0.59396 0.0
C2870 C 0.24077 0.33511 0.60468 0.0
H2871 H 0.68283 0.96123 0.66249 0.0
H2872 H 0.65705 0.98306 0.62531 0.0
H2873 H 0.64985 0.95932 0.60051 0.0
H2874 H 0.7029 0.94978 0.623 0.0
H2875 H 0.6994 0.92921 0.63413 0.0
H2876 H 0.70183 0.94736 0.64968 0.0
H2877 H 0.67128 0.92615 0.66646 0.0
H2878 H 0.66881 0.90789 0.65105 0.0
H2879 H 0.6515 0.9139 0.65125 0.0
H2880 H 0.64666 0.93438 0.57899 0.0
H2881 H 0.64687 0.90898 0.56234 0.0
H2882 H 0.67408 0.90246 0.61342 0.0
C2883 C 0.67549 0.96085 0.64924 0.0
C2884 C 0.67046 0.97398 0.64586 0.0
C2885 C 0.66102 0.97315 0.62824 0.0
C2886 C 0.65686 0.95971 0.61405 0.0
C2887 C 0.6622 0.94714 0.61765 0.0
C2888 C 0.67122 0.94748 0.63483 0.0
C2889 C 0.67573 0.93252 0.63471 0.0
C2890 C 0.69618 0.94018 0.63542 0.0
C2891 C 0.66626 0.91933 0.65189 0.0
C2892 C 0.66799 0.92389 0.61472 0.0
C2893 C 0.66023 0.93255 0.60518 0.0
C2894 C 0.65251 0.92734 0.58639 0.0
C2895 C 0.65261 0.91281 0.5771 0.0
C2896 C 0.66033 0.90355 0.58659 0.0
C2897 C 0.66815 0.90928 0.60567 0.0
H2898 H 0.02882 0.71828 0.64987 0.0
H2899 H 0.03676 0.67238 0.6538 0.0
H2900 H 0.06465 0.68869 0.63406 0.0
H2901 H 0.04264 0.72867 0.59964 0.0
H2902 H 0.05347 0.75266 0.60288 0.0
H2903 H 0.03499 0.73803 0.6187 0.0
H2904 H 0.05476 0.75249 0.64991 0.0
H2905 H 0.07327 0.76728 0.6342 0.0
H2906 H 0.07604 0.75324 0.65207 0.0
H2907 H 0.09126 0.70976 0.6132 0.0
H2908 H 0.11428 0.73377 0.59206 0.0
H2909 H 0.08821 0.76537 0.60054 0.0
C2910 C 0.03661 0.71179 0.64687 0.0
C2911 C 0.03078 0.69415 0.65353 0.0
C2912 C 0.04108 0.68594 0.64892 0.0
C2913 C 0.05692 0.69509 0.63773 0.0
C2914 C 0.06216 0.71238 0.63112 0.0
C2915 C 0.0523 0.72064 0.63547 0.0
C2916 C 0.06034 0.73892 0.6257 0.0
C2917 C 0.04707 0.7396 0.61085 0.0
C2918 C 0.06647 0.75386 0.64141 0.0
C2919 C 0.07623 0.73963 0.61511 0.0
C2920 C 0.07714 0.72426 0.61856 0.0
C2921 C 0.09071 0.72187 0.61042 0.0
C2922 C 0.10372 0.73557 0.59848 0.0
C2923 C 0.10297 0.75137 0.59463 0.0
C2924 C 0.08899 0.75334 0.60305 0.0
H2925 H 0.97999 0.60825 0.69716 0.0
H2926 H 0.99283 0.64901 0.74237 0.0
H2927 H 0.99569 0.62971 0.76731 0.0
H2928 H 0.95417 0.56972 0.72862 0.0
H2929 H 0.96269 0.55635 0.71762 0.0
H2930 H 0.96136 0.57321 0.70303 0.0
H2931 H 0.9953 0.58804 0.69494 0.0
H2932 H 0.99673 0.57121 0.7095 0.0
H2933 H 0.01131 0.59468 0.71501 0.0
H2934 H 0.99643 0.60617 0.78764 0.0
H2935 H 0.99659 0.5799 0.80209 0.0
H2936 H 0.98467 0.55434 0.74407 0.0
C2937 C 0.98338 0.61305 0.71232 0.0
C2938 C 0.98615 0.63013 0.71783 0.0
C2939 C 0.99069 0.63602 0.73778 0.0
C2940 C 0.99232 0.62513 0.75209 0.0
C2941 C 0.98953 0.60842 0.74625 0.0
C2942 C 0.98531 0.60239 0.72686 0.0
C2943 C 0.98341 0.58393 0.72465 0.0
C2944 C 0.96427 0.56998 0.71809 0.0
C2945 C 0.99753 0.58451 0.71017 0.0
C2946 C 0.98712 0.58057 0.74584 0.0
C2947 C 0.99048 0.59487 0.75802 0.0
C2948 C 0.99387 0.59489 0.77827 0.0
C2949 C 0.99385 0.5799 0.78636 0.0
C2950 C 0.9906 0.56512 0.77421 0.0
C2951 C 0.98729 0.56552 0.75364 0.0
H2952 H 0.38888 0.36984 0.70018 0.0
H2953 H 0.34337 0.34968 0.74047 0.0
H2954 H 0.36186 0.37297 0.76479 0.0
H2955 H 0.42335 0.38205 0.73833 0.0
H2956 H 0.43961 0.40233 0.72598 0.0
H2957 H 0.42313 0.3836 0.7116 0.0
H2958 H 0.41268 0.40412 0.69533 0.0
H2959 H 0.42915 0.42291 0.70962 0.0
H2960 H 0.40578 0.41665 0.71094 0.0
H2961 H 0.38447 0.39803 0.78475 0.0
H2962 H 0.41023 0.42486 0.79909 0.0
H2963 H 0.44161 0.4304 0.7462 0.0
C2964 C 0.3829 0.37033 0.71417 0.0
C2965 C 0.36466 0.3579 0.71841 0.0
C2966 C 0.35727 0.35904 0.73682 0.0
C2967 C 0.36767 0.3722 0.75081 0.0
C2968 C 0.38551 0.38426 0.74622 0.0
C2969 C 0.39313 0.38359 0.72838 0.0
C2970 C 0.41255 0.39872 0.72719 0.0
C2971 C 0.42542 0.39122 0.72569 0.0
C2972 C 0.41519 0.41135 0.70973 0.0
C2973 C 0.41448 0.40794 0.74708 0.0
C2974 C 0.39869 0.39921 0.75779 0.0
C2975 C 0.39691 0.40507 0.77649 0.0
C2976 C 0.4116 0.42042 0.78445 0.0
C2977 C 0.4279 0.42992 0.7737 0.0
C2978 C 0.42938 0.42341 0.75483 0.0
H2979 H 0.62994 0.99014 0.72026 0.0
H2980 H 0.64855 0.04366 0.69697 0.0
H2981 H 0.62381 0.0447 0.71433 0.0
H2982 H 0.58174 0.97486 0.71724 0.0
H2983 H 0.57662 0.96223 0.74004 0.0
H2984 H 0.59523 0.96525 0.72491 0.0
H2985 H 0.6166 0.97878 0.75513 0.0
H2986 H 0.5981 0.97588 0.77033 0.0
H2987 H 0.61784 0.99775 0.76804 0.0
H2988 H 0.59855 0.04092 0.7359 0.0
H2989 H 0.57335 0.03196 0.7593 0.0
H2990 H 0.5704 0.9806 0.76818 0.0
C2991 C 0.62866 0.00198 0.71862 0.0
C2992 C 0.64115 0.01682 0.70724 0.0
C2993 C 0.63911 0.03212 0.70556 0.0
C2994 C 0.6251 0.03284 0.71537 0.0
C2995 C 0.61317 0.0181 0.72668 0.0
C2996 C 0.61467 0.00289 0.72825 0.0
C2997 C 0.60028 0.98912 0.74181 0.0
C2998 C 0.58772 0.97184 0.73031 0.0
C2999 C 0.60872 0.98516 0.7599 0.0
C3000 C 0.59065 0.99909 0.74785 0.0
C3001 C 0.59833 0.01579 0.73894 0.0
C3002 C 0.59232 0.02782 0.74283 0.0
C3003 C 0.57809 0.02266 0.75621 0.0
C3004 C 0.56996 0.00561 0.76549 0.0
C3005 C 0.57625 0.99363 0.7611 0.0
loop_
_geom_bond_atom_site_label_1
_geom_bond_atom_site_label_2
_geom_bond_distance
_geom_bond_site_symmetry_2
_ccdc_geom_bond_type
In0 O1 2.294 1_455 S
In0 O2 2.326 . S
In0 O6 2.266 1_455 S
In0 O7 2.326 1_454 S
In0 O8 2.266 1_554 S
In0 O9 2.326 1_454 S
In0 O11 2.294 . S
In0 O12 2.326 . S
O1 In0 2.294 1_655 S
O1 C10 1.240 1_655 S
O2 In0 2.326 . S
O2 C10 1.253 . S
C3 O6 1.252 1_556 S
C3 O7 1.260 . S
C4 O11 1.240 . S
C4 O12 1.252 . S
C5 O8 1.252 . S
C5 O9 1.260 1_455 S
O6 In0 2.266 1_655 S
O6 C3 1.252 1_554 S
O7 In0 2.326 1_656 S
O7 C3 1.260 . S
O8 In0 2.266 1_556 S
O8 C5 1.252 . S
O9 In0 2.326 1_656 S
O9 C5 1.260 1_655 S
C10 O1 1.240 1_455 S
C10 O2 1.253 . S
O11 In0 2.294 . S
O11 C4 1.240 . S
O12 In0 2.326 . S
O12 C4 1.252 . S
In13 O14 2.294 . S
In13 O15 2.326 . S
In13 O19 2.266 . S
In13 O20 2.326 1_554 S
In13 O21 2.266 1_554 S
In13 O22 2.326 1_554 S
In13 O24 2.294 . S
In13 O25 2.326 . S
O14 In13 2.294 . S
O14 C23 1.240 . S
O15 In13 2.326 . S
O15 C23 1.252 . S
C16 O19 1.252 1_556 S
C16 O20 1.260 . S
C17 O24 1.240 . S
C17 O25 1.252 . S
C18 O21 1.252 . S
C18 O22 1.260 . S
O19 In13 2.266 . S
O19 C16 1.252 1_554 S
O20 In13 2.326 1_556 S
O20 C16 1.260 . S
O21 In13 2.266 1_556 S
O21 C18 1.252 . S
O22 In13 2.326 1_556 S
O22 C18 1.260 . S
C23 O14 1.240 . S
C23 O15 1.252 . S
O24 In13 2.294 . S
O24 C17 1.240 . S
O25 In13 2.326 . S
O25 C17 1.252 . S
In26 O27 2.294 . S
In26 O28 2.326 1_554 S
In26 O32 2.266 . S
In26 O33 2.326 1_545 S
In26 O34 2.266 1_545 S
In26 O35 2.326 1_545 S
In26 O37 2.294 1_544 S
In26 O38 2.326 1_554 S
O27 In26 2.294 . S
O27 C36 1.240 1_554 S
O28 In26 2.326 1_556 S
O28 C36 1.252 . S
C29 O32 1.252 . S
C29 O33 1.260 1_545 S
C30 O37 1.233 1_545 S
C30 O38 1.266 . S
C31 O34 1.252 . S
C31 O35 1.260 . S
O32 In26 2.266 . S
O32 C29 1.252 . S
O33 In26 2.326 1_565 S
O33 C29 1.260 1_565 S
O34 In26 2.266 1_565 S
O34 C31 1.252 . S
O35 In26 2.326 1_565 S
O35 C31 1.260 . S
C36 O27 1.240 1_556 S
C36 O28 1.252 . S
O37 In26 2.294 1_566 S
O37 C30 1.233 1_565 S
O38 In26 2.326 1_556 S
O38 C30 1.266 . S
In39 O40 2.293 1_554 S
In39 O41 2.326 1_454 S
In39 O45 2.265 . S
In39 O46 2.326 . S
In39 O47 2.267 1_455 S
In39 O48 2.324 . S
In39 O50 2.296 1_455 S
In39 O51 2.327 1_454 S
O40 In39 2.293 1_556 S
O40 C49 1.240 . S
O41 In39 2.326 1_656 S
O41 C49 1.252 1_655 S
C42 O45 1.252 . S
C42 O46 1.260 . S
C43 O50 1.240 1_556 S
C43 O51 1.252 . S
C44 O47 1.287 . S
C44 O48 1.235 1_655 S
O45 In39 2.265 . S
O45 C42 1.252 . S
O46 In39 2.326 . S
O46 C42 1.260 . S
O47 In39 2.267 1_655 S
O47 C44 1.287 . S
O48 In39 2.324 . S
O48 C44 1.235 1_455 S
C49 O40 1.240 . S
C49 O41 1.252 1_455 S
O50 In39 2.296 1_655 S
O50 C43 1.240 1_554 S
O51 In39 2.327 1_656 S
O51 C43 1.252 . S
In52 O53 2.294 1_554 S
In52 O54 2.326 1_554 S
In52 O58 2.266 . S
In52 O59 2.326 . S
In52 O60 2.266 . S
In52 O61 2.326 . S
In52 O63 2.294 . S
In52 O64 2.326 1_554 S
O53 In52 2.294 1_556 S
O53 C62 1.240 . S
O54 In52 2.326 1_556 S
O54 C62 1.252 . S
C55 O58 1.252 . S
C55 O59 1.260 . S
C56 O63 1.240 1_556 S
C56 O64 1.252 . S
C57 O60 1.252 . S
C57 O61 1.260 . S
O58 In52 2.266 . S
O58 C55 1.252 . S
O59 In52 2.326 . S
O59 C55 1.260 . S
O60 In52 2.266 . S
O60 C57 1.252 . S
O61 In52 2.326 . S
O61 C57 1.260 . S
C62 O53 1.240 . S
C62 O54 1.252 . S
O63 In52 2.294 . S
O63 C56 1.240 1_554 S
O64 In52 2.326 1_556 S
O64 C56 1.252 . S
In65 O66 2.293 . S
In65 O67 2.326 1_545 S
In65 O71 2.265 . S
In65 O72 2.326 1_554 S
In65 O73 2.267 1_544 S
In65 O74 2.324 1_554 S
In65 O76 2.296 1_545 S
In65 O77 2.327 1_545 S
O66 In65 2.293 . S
O66 C75 1.273 . S
O67 In65 2.326 1_565 S
O67 C75 1.196 1_565 S
C68 O71 1.252 1_556 S
C68 O72 1.260 . S
C69 O76 1.240 . S
C69 O77 1.252 . S
C70 O73 1.289 . S
C70 O74 1.233 1_565 S
O71 In65 2.265 . S
O71 C68 1.252 1_554 S
O72 In65 2.326 1_556 S
O72 C68 1.260 . S
O73 In65 2.267 1_566 S
O73 C70 1.289 . S
O74 In65 2.324 1_556 S
O74 C70 1.233 1_545 S
C75 O66 1.273 . S
C75 O67 1.196 1_545 S
O76 In65 2.296 1_565 S
O76 C69 1.240 . S
O77 In65 2.327 1_565 S
O77 C69 1.252 . S
In78 O79 2.294 . S
In78 O80 2.326 . S
In78 O84 2.266 . S
In78 O85 2.326 . S
In78 O86 2.266 . S
In78 O87 2.326 . S
In78 O89 2.294 . S
In78 O90 2.326 . S
O79 In78 2.294 . S
O79 C88 1.240 . S
O80 In78 2.326 . S
O80 C88 1.252 . S
C81 O84 1.252 . S
C81 O85 1.260 . S
C82 O89 1.240 . S
C82 O90 1.252 . S
C83 O86 1.252 . S
C83 O87 1.260 . S
O84 In78 2.266 . S
O84 C81 1.252 . S
O85 In78 2.326 . S
O85 C81 1.260 . S
O86 In78 2.266 . S
O86 C83 1.252 . S
O87 In78 2.326 . S
O87 C83 1.260 . S
C88 O79 1.240 . S
C88 O80 1.252 . S
O89 In78 2.294 . S
O89 C82 1.240 . S
O90 In78 2.326 . S
O90 C82 1.252 . S
In91 O92 2.294 . S
In91 O93 2.326 . S
In91 O97 2.266 . S
In91 O98 2.326 . S
In91 O99 2.266 . S
In91 O100 2.326 . S
In91 O102 2.294 1_565 S
In91 O103 2.326 1_565 S
O92 In91 2.294 . S
O92 C101 1.240 . S
O93 In91 2.326 . S
O93 C101 1.252 . S
C94 O97 1.252 . S
C94 O98 1.260 . S
C95 O102 1.240 . S
C95 O103 1.252 . S
C96 O99 1.252 . S
C96 O100 1.260 . S
O97 In91 2.266 . S
O97 C94 1.252 . S
O98 In91 2.326 . S
O98 C94 1.260 . S
O99 In91 2.266 . S
O99 C96 1.252 . S
O100 In91 2.326 . S
O100 C96 1.260 . S
C101 O92 1.240 . S
C101 O93 1.252 . S
O102 In91 2.294 1_545 S
O102 C95 1.240 . S
O103 In91 2.326 1_545 S
O103 C95 1.252 . S
In104 O105 2.294 . S
In104 O106 2.326 . S
In104 O110 2.266 . S
In104 O111 2.326 . S
In104 O112 2.266 1_455 S
In104 O113 2.326 1_455 S
In104 O115 2.294 . S
In104 O116 2.326 . S
O105 In104 2.294 . S
O105 C114 1.240 . S
O106 In104 2.326 . S
O106 C114 1.252 . S
C107 O110 1.252 . S
C107 O111 1.260 . S
C108 O115 1.240 . S
C108 O116 1.252 . S
C109 O112 1.252 . S
C109 O113 1.260 . S
O110 In104 2.266 . S
O110 C107 1.252 . S
O111 In104 2.326 . S
O111 C107 1.260 . S
O112 In104 2.266 1_655 S
O112 C109 1.252 . S
O113 In104 2.326 1_655 S
O113 C109 1.260 . S
C114 O105 1.240 . S
C114 O106 1.252 . S
O115 In104 2.294 . S
O115 C108 1.240 . S
O116 In104 2.326 . S
O116 C108 1.252 . S
In117 O118 2.294 . S
In117 O119 2.326 . S
In117 O123 2.266 1_565 S
In117 O124 2.326 1_565 S
In117 O125 2.266 . S
In117 O126 2.326 . S
In117 O128 2.294 . S
In117 O129 2.326 . S
O118 In117 2.294 . S
O118 C127 1.240 . S
O119 In117 2.326 . S
O119 C127 1.252 . S
C120 O123 1.252 . S
C120 O124 1.260 . S
C121 O128 1.240 . S
C121 O129 1.252 . S
C122 O125 1.252 . S
C122 O126 1.260 . S
O123 In117 2.266 1_545 S
O123 C120 1.252 . S
O124 In117 2.326 1_545 S
O124 C120 1.260 . S
O125 In117 2.266 . S
O125 C122 1.252 . S
O126 In117 2.326 . S
O126 C122 1.260 . S
C127 O118 1.240 . S
C127 O119 1.252 . S
O128 In117 2.294 . S
O128 C121 1.240 . S
O129 In117 2.326 . S
O129 C121 1.252 . S
In130 O131 2.294 . S
In130 O132 2.326 . S
In130 O136 2.266 1_455 S
In130 O137 2.326 1_455 S
In130 O138 2.266 . S
In130 O139 2.326 . S
In130 O141 2.294 . S
In130 O142 2.326 . S
O131 In130 2.294 . S
O131 C140 1.240 . S
O132 In130 2.326 . S
O132 C140 1.252 . S
C133 O136 1.252 . S
C133 O137 1.260 . S
C134 O141 1.240 . S
C134 O142 1.252 . S
C135 O138 1.252 . S
C135 O139 1.260 . S
O136 In130 2.266 1_655 S
O136 C133 1.252 . S
O137 In130 2.326 1_655 S
O137 C133 1.260 . S
O138 In130 2.266 . S
O138 C135 1.252 . S
O139 In130 2.326 . S
O139 C135 1.260 . S
C140 O131 1.240 . S
C140 O132 1.252 . S
O141 In130 2.294 . S
O141 C134 1.240 . S
O142 In130 2.326 . S
O142 C134 1.252 . S
In143 O144 2.294 . S
In143 O145 2.326 . S
In143 O149 2.266 . S
In143 O150 2.326 . S
In143 O151 2.266 . S
In143 O152 2.326 . S
In143 O154 2.294 . S
In143 O155 2.326 . S
O144 In143 2.294 . S
O144 C153 1.240 . S
O145 In143 2.326 . S
O145 C153 1.252 . S
C146 O149 1.252 . S
C146 O150 1.260 . S
C147 O154 1.240 . S
C147 O155 1.252 . S
C148 O151 1.252 . S
C148 O152 1.260 . S
O149 In143 2.266 . S
O149 C146 1.252 . S
O150 In143 2.326 . S
O150 C146 1.260 . S
O151 In143 2.266 . S
O151 C148 1.252 . S
O152 In143 2.326 . S
O152 C148 1.260 . S
C153 O144 1.240 . S
C153 O145 1.252 . S
O154 In143 2.294 . S
O154 C147 1.240 . S
O155 In143 2.326 . S
O155 C147 1.252 . S
In156 O157 2.294 . S
In156 O158 2.326 . S
In156 O162 2.266 . S
In156 O163 2.326 . S
In156 O164 2.266 1_545 S
In156 O165 2.326 1_545 S
In156 O167 2.294 . S
In156 O168 2.326 . S
O157 In156 2.294 . S
O157 C166 1.240 . S
O158 In156 2.326 . S
O158 C166 1.252 . S
C159 O162 1.252 . S
C159 O163 1.260 . S
C160 O167 1.240 . S
C160 O168 1.252 . S
C161 O164 1.252 . S
C161 O165 1.260 . S
O162 In156 2.266 . S
O162 C159 1.252 . S
O163 In156 2.326 . S
O163 C159 1.260 . S
O164 In156 2.266 1_565 S
O164 C161 1.252 . S
O165 In156 2.326 1_565 S
O165 C161 1.260 . S
C166 O157 1.240 . S
C166 O158 1.252 . S
O167 In156 2.294 . S
O167 C160 1.240 . S
O168 In156 2.326 . S
O168 C160 1.252 . S
In169 O170 2.294 . S
In169 O171 2.326 . S
In169 O175 2.266 . S
In169 O176 2.326 . S
In169 O177 2.266 1_655 S
In169 O178 2.326 1_655 S
In169 O180 2.294 . S
In169 O181 2.326 . S
O170 In169 2.294 . S
O170 C179 1.240 . S
O171 In169 2.326 . S
O171 C179 1.252 . S
C172 O175 1.252 . S
C172 O176 1.260 . S
C173 O180 1.240 . S
C173 O181 1.252 . S
C174 O177 1.252 . S
C174 O178 1.260 . S
O175 In169 2.266 . S
O175 C172 1.252 . S
O176 In169 2.326 . S
O176 C172 1.260 . S
O177 In169 2.266 1_455 S
O177 C174 1.252 . S
O178 In169 2.326 1_455 S
O178 C174 1.260 . S
C179 O170 1.240 . S
C179 O171 1.252 . S
O180 In169 2.294 . S
O180 C173 1.240 . S
O181 In169 2.326 . S
O181 C173 1.252 . S
In182 O183 2.294 . S
In182 O184 2.326 . S
In182 O188 2.266 . S
In182 O189 2.326 . S
In182 O190 2.266 . S
In182 O191 2.326 . S
In182 O193 2.294 . S
In182 O194 2.326 . S
O183 In182 2.294 . S
O183 C192 1.240 . S
O184 In182 2.326 . S
O184 C192 1.252 . S
C185 O188 1.252 . S
C185 O189 1.260 . S
C186 O193 1.240 . S
C186 O194 1.252 . S
C187 O190 1.252 . S
C187 O191 1.260 . S
O188 In182 2.266 . S
O188 C185 1.252 . S
O189 In182 2.326 . S
O189 C185 1.260 . S
O190 In182 2.266 . S
O190 C187 1.252 . S
O191 In182 2.326 . S
O191 C187 1.260 . S
C192 O183 1.240 . S
C192 O184 1.252 . S
O193 In182 2.294 . S
O193 C186 1.240 . S
O194 In182 2.326 . S
O194 C186 1.252 . S
In195 O196 2.294 . S
In195 O197 2.326 . S
In195 O201 2.266 . S
In195 O202 2.326 . S
In195 O203 2.266 . S
In195 O204 2.326 . S
In195 O206 2.294 . S
In195 O207 2.326 . S
O196 In195 2.294 . S
O196 C205 1.240 . S
O197 In195 2.326 . S
O197 C205 1.252 . S
C198 O201 1.252 . S
C198 O202 1.260 . S
C199 O206 1.240 . S
C199 O207 1.252 . S
C200 O203 1.252 . S
C200 O204 1.260 . S
O201 In195 2.266 . S
O201 C198 1.252 . S
O202 In195 2.326 . S
O202 C198 1.260 . S
O203 In195 2.266 . S
O203 C200 1.252 . S
O204 In195 2.326 . S
O204 C200 1.260 . S
C205 O196 1.240 . S
C205 O197 1.252 . S
O206 In195 2.294 . S
O206 C199 1.240 . S
O207 In195 2.326 . S
O207 C199 1.252 . S
In208 O209 2.294 . S
In208 O210 2.326 . S
In208 O214 2.266 . S
In208 O215 2.326 . S
In208 O216 2.266 . S
In208 O217 2.326 . S
In208 O219 2.294 1_545 S
In208 O220 2.326 1_545 S
O209 In208 2.294 . S
O209 C218 1.240 . S
O210 In208 2.326 . S
O210 C218 1.252 . S
C211 O214 1.252 . S
C211 O215 1.260 . S
C212 O219 1.240 . S
C212 O220 1.252 . S
C213 O216 1.252 . S
C213 O217 1.260 . S
O214 In208 2.266 . S
O214 C211 1.252 . S
O215 In208 2.326 . S
O215 C211 1.260 . S
O216 In208 2.266 . S
O216 C213 1.252 . S
O217 In208 2.326 . S
O217 C213 1.260 . S
C218 O209 1.240 . S
C218 O210 1.252 . S
O219 In208 2.294 1_565 S
O219 C212 1.240 . S
O220 In208 2.326 1_565 S
O220 C212 1.252 . S
In221 O222 2.294 . S
In221 O223 2.326 . S
In221 O227 2.266 . S
In221 O228 2.326 . S
In221 O229 2.266 1_655 S
In221 O230 2.326 1_655 S
In221 O232 2.294 . S
In221 O233 2.326 . S
O222 In221 2.294 . S
O222 C231 1.240 . S
O223 In221 2.326 . S
O223 C231 1.252 . S
C224 O227 1.252 . S
C224 O228 1.260 . S
C225 O232 1.240 . S
C225 O233 1.252 . S
C226 O229 1.252 . S
C226 O230 1.260 . S
O227 In221 2.266 . S
O227 C224 1.252 . S
O228 In221 2.326 . S
O228 C224 1.260 . S
O229 In221 2.266 1_455 S
O229 C226 1.252 . S
O230 In221 2.326 1_455 S
O230 C226 1.260 . S
C231 O222 1.240 . S
C231 O223 1.252 . S
O232 In221 2.294 . S
O232 C225 1.240 . S
O233 In221 2.326 . S
O233 C225 1.252 . S
C234 C235 1.384 . S
C234 C236 1.384 . S
C234 H262 0.931 . S
C235 C234 1.384 . S
C235 C238 1.382 . S
C236 C234 1.384 . S
C236 C237 1.381 . S
C236 H263 0.930 . S
C237 C236 1.381 . S
C237 C239 1.381 . S
C237 C240 1.487 . S
C238 C235 1.382 . S
C238 C239 1.387 . S
C238 H264 0.930 . S
C239 C237 1.381 . S
C239 C238 1.387 . S
C239 H265 0.931 . S
C240 C237 1.487 . S
C240 C247 1.399 . S
C240 N278 1.343 . S
C241 C242 1.384 . S
C241 C243 1.384 . S
C241 H266 0.931 . S
C242 C241 1.384 . S
C242 C245 1.382 . S
C243 C241 1.384 . S
C243 C244 1.381 . S
C243 H267 0.930 . S
C244 C243 1.381 . S
C244 C246 1.381 . S
C244 C247 1.487 . S
C245 C242 1.382 . S
C245 C246 1.387 . S
C245 H268 0.930 . S
C246 C244 1.381 . S
C246 C245 1.387 . S
C246 H269 0.931 . S
C247 C240 1.399 . S
C247 C244 1.487 . S
C247 N279 1.343 . S
C248 C249 1.384 . S
C248 C250 1.384 . S
C248 H270 0.931 . S
C249 C248 1.384 . S
C249 C252 1.382 . S
C250 C248 1.384 . S
C250 C251 1.381 . S
C250 H271 0.930 . S
C251 C250 1.381 . S
C251 C253 1.381 . S
C251 C254 1.487 . S
C252 C249 1.382 . S
C252 C253 1.387 . S
C252 H272 0.930 . S
C253 C251 1.381 . S
C253 C252 1.387 . S
C253 H273 0.931 . S
C254 C251 1.487 . S
C254 C261 1.399 . S
C254 N279 1.343 . S
C255 C256 1.384 . S
C255 C257 1.384 . S
C255 H274 0.931 . S
C256 C255 1.384 . S
C256 C259 1.382 . S
C257 C255 1.384 . S
C257 C258 1.381 . S
C257 H275 0.930 . S
C258 C257 1.381 . S
C258 C260 1.381 . S
C258 C261 1.487 . S
C259 C256 1.382 . S
C259 C260 1.387 . S
C259 H276 0.930 . S
C260 C258 1.381 . S
C260 C259 1.387 . S
C260 H277 0.931 . S
C261 C254 1.399 . S
C261 C258 1.487 . S
C261 N278 1.343 . S
H262 C234 0.931 . S
H263 C236 0.930 . S
H264 C238 0.930 . S
H265 C239 0.931 . S
H266 C241 0.931 . S
H267 C243 0.930 . S
H268 C245 0.930 . S
H269 C246 0.931 . S
H270 C248 0.931 . S
H271 C250 0.930 . S
H272 C252 0.930 . S
H273 C253 0.931 . S
H274 C255 0.931 . S
H275 C257 0.930 . S
H276 C259 0.930 . S
H277 C260 0.931 . S
N278 C240 1.343 . S
N278 C261 1.343 . S
N279 C247 1.343 . S
N279 C254 1.343 . S
C280 C281 1.384 . S
C280 C282 1.384 . S
C280 H308 0.931 . S
C281 C280 1.384 . S
C281 C284 1.382 . S
C282 C280 1.384 . S
C282 C283 1.381 . S
C282 H309 0.930 . S
C283 C282 1.381 . S
C283 C285 1.381 . S
C283 C286 1.487 . S
C284 C281 1.382 . S
C284 C285 1.387 . S
C284 H310 0.930 . S
C285 C283 1.381 . S
C285 C284 1.387 . S
C285 H311 0.931 . S
C286 C283 1.487 . S
C286 C293 1.399 . S
C286 N324 1.343 . S
C287 C288 1.384 . S
C287 C289 1.384 . S
C287 H312 0.931 . S
C288 C287 1.384 . S
C288 C291 1.382 . S
C289 C287 1.384 . S
C289 C290 1.381 . S
C289 H313 0.930 . S
C290 C289 1.381 . S
C290 C292 1.381 . S
C290 C293 1.487 . S
C291 C288 1.382 . S
C291 C292 1.387 . S
C291 H314 0.930 . S
C292 C290 1.381 . S
C292 C291 1.387 . S
C292 H315 0.931 . S
C293 C286 1.399 . S
C293 C290 1.487 . S
C293 N325 1.343 . S
C294 C295 1.384 . S
C294 C296 1.384 . S
C294 H316 0.931 . S
C295 C294 1.384 . S
C295 C298 1.382 . S
C296 C294 1.384 . S
C296 C297 1.381 . S
C296 H317 0.930 . S
C297 C296 1.381 . S
C297 C299 1.381 . S
C297 C300 1.487 . S
C298 C295 1.382 . S
C298 C299 1.387 . S
C298 H318 0.930 . S
C299 C297 1.381 . S
C299 C298 1.387 . S
C299 H319 0.931 . S
C300 C297 1.487 . S
C300 C307 1.399 . S
C300 N325 1.343 . S
C301 C302 1.384 . S
C301 C303 1.384 . S
C301 H320 0.931 . S
C302 C301 1.384 . S
C302 C305 1.382 . S
C303 C301 1.384 . S
C303 C304 1.381 . S
C303 H321 0.930 . S
C304 C303 1.381 . S
C304 C306 1.381 . S
C304 C307 1.487 . S
C305 C302 1.382 . S
C305 C306 1.387 . S
C305 H322 0.930 . S
C306 C304 1.381 . S
C306 C305 1.387 . S
C306 H323 0.931 . S
C307 C300 1.399 . S
C307 C304 1.487 . S
C307 N324 1.343 . S
H308 C280 0.931 . S
H309 C282 0.930 . S
H310 C284 0.930 . S
H311 C285 0.931 . S
H312 C287 0.931 . S
H313 C289 0.930 . S
H314 C291 0.930 . S
H315 C292 0.931 . S
H316 C294 0.931 . S
H317 C296 0.930 . S
H318 C298 0.930 . S
H319 C299 0.931 . S
H320 C301 0.931 . S
H321 C303 0.930 . S
H322 C305 0.930 . S
H323 C306 0.931 . S
N324 C286 1.343 . S
N324 C307 1.343 . S
N325 C293 1.343 . S
N325 C300 1.343 . S
C326 C327 1.384 . S
C326 C328 1.384 . S
C326 H354 0.931 . S
C327 C326 1.384 . S
C327 C330 1.382 . S
C328 C326 1.384 . S
C328 C329 1.381 . S
C328 H355 0.930 . S
C329 C328 1.381 . S
C329 C331 1.381 . S
C329 C332 1.487 . S
C330 C327 1.382 . S
C330 C331 1.387 . S
C330 H356 0.930 . S
C331 C329 1.381 . S
C331 C330 1.387 . S
C331 H357 0.931 . S
C332 C329 1.487 . S
C332 C339 1.399 . S
C332 N370 1.343 . S
C333 C334 1.384 . S
C333 C335 1.384 . S
C333 H358 0.931 . S
C334 C333 1.384 . S
C334 C337 1.382 . S
C335 C333 1.384 . S
C335 C336 1.381 . S
C335 H359 0.930 . S
C336 C335 1.381 . S
C336 C338 1.381 . S
C336 C339 1.487 . S
C337 C334 1.382 . S
C337 C338 1.387 . S
C337 H360 0.930 . S
C338 C336 1.381 . S
C338 C337 1.387 . S
C338 H361 0.931 . S
C339 C332 1.399 . S
C339 C336 1.487 . S
C339 N371 1.343 . S
C340 C341 1.384 . S
C340 C342 1.384 . S
C340 H362 0.931 . S
C341 C340 1.384 . S
C341 C344 1.382 . S
C342 C340 1.384 . S
C342 C343 1.381 . S
C342 H363 0.930 . S
C343 C342 1.381 . S
C343 C345 1.381 . S
C343 C346 1.487 . S
C344 C341 1.382 . S
C344 C345 1.387 . S
C344 H364 0.930 . S
C345 C343 1.381 . S
C345 C344 1.387 . S
C345 H365 0.931 . S
C346 C343 1.487 . S
C346 C353 1.399 . S
C346 N371 1.343 . S
C347 C348 1.384 . S
C347 C349 1.384 . S
C347 H366 0.931 . S
C348 C347 1.384 . S
C348 C351 1.382 . S
C349 C347 1.384 . S
C349 C350 1.381 . S
C349 H367 0.930 . S
C350 C349 1.381 . S
C350 C352 1.381 . S
C350 C353 1.487 . S
C351 C348 1.382 . S
C351 C352 1.387 . S
C351 H368 0.930 . S
C352 C350 1.381 . S
C352 C351 1.387 . S
C352 H369 0.931 . S
C353 C346 1.399 . S
C353 C350 1.487 . S
C353 N370 1.343 . S
H354 C326 0.931 . S
H355 C328 0.930 . S
H356 C330 0.930 . S
H357 C331 0.931 . S
H358 C333 0.931 . S
H359 C335 0.930 . S
H360 C337 0.930 . S
H361 C338 0.931 . S
H362 C340 0.931 . S
H363 C342 0.930 . S
H364 C344 0.930 . S
H365 C345 0.931 . S
H366 C347 0.931 . S
H367 C349 0.930 . S
H368 C351 0.930 . S
H369 C352 0.931 . S
N370 C332 1.343 . S
N370 C353 1.343 . S
N371 C339 1.343 . S
N371 C346 1.343 . S
C372 C373 1.384 . S
C372 C374 1.384 . S
C372 H400 0.931 . S
C373 C372 1.384 . S
C373 C376 1.382 . S
C374 C372 1.384 . S
C374 C375 1.381 . S
C374 H401 0.930 . S
C375 C374 1.381 . S
C375 C377 1.381 . S
C375 C378 1.487 . S
C376 C373 1.382 . S
C376 C377 1.387 . S
C376 H402 0.930 . S
C377 C375 1.381 . S
C377 C376 1.387 . S
C377 H403 0.931 . S
C378 C375 1.487 . S
C378 C385 1.399 . S
C378 N416 1.343 . S
C379 C380 1.384 . S
C379 C381 1.384 . S
C379 H404 0.931 . S
C380 C379 1.384 . S
C380 C383 1.382 . S
C381 C379 1.384 . S
C381 C382 1.381 . S
C381 H405 0.930 . S
C382 C381 1.381 . S
C382 C384 1.381 . S
C382 C385 1.487 . S
C383 C380 1.382 . S
C383 C384 1.387 . S
C383 H406 0.930 . S
C384 C382 1.381 . S
C384 C383 1.387 . S
C384 H407 0.931 . S
C385 C378 1.399 . S
C385 C382 1.487 . S
C385 N417 1.343 . S
C386 C387 1.384 . S
C386 C388 1.384 . S
C386 H408 0.931 . S
C387 C386 1.384 . S
C387 C390 1.382 . S
C388 C386 1.384 . S
C388 C389 1.381 . S
C388 H409 0.930 . S
C389 C388 1.381 . S
C389 C391 1.381 . S
C389 C392 1.487 . S
C390 C387 1.382 . S
C390 C391 1.387 . S
C390 H410 0.930 . S
C391 C389 1.381 . S
C391 C390 1.387 . S
C391 H411 0.931 . S
C392 C389 1.487 . S
C392 C399 1.399 . S
C392 N417 1.343 . S
C393 C394 1.384 . S
C393 C395 1.384 . S
C393 H412 0.931 . S
C394 C393 1.384 . S
C394 C397 1.382 . S
C395 C393 1.384 . S
C395 C396 1.381 . S
C395 H413 0.930 . S
C396 C395 1.381 . S
C396 C398 1.381 . S
C396 C399 1.487 . S
C397 C394 1.382 . S
C397 C398 1.387 . S
C397 H414 0.930 . S
C398 C396 1.381 . S
C398 C397 1.387 . S
C398 H415 0.931 . S
C399 C392 1.399 . S
C399 C396 1.487 . S
C399 N416 1.343 . S
H400 C372 0.931 . S
H401 C374 0.930 . S
H402 C376 0.930 . S
H403 C377 0.931 . S
H404 C379 0.931 . S
H405 C381 0.930 . S
H406 C383 0.930 . S
H407 C384 0.931 . S
H408 C386 0.931 . S
H409 C388 0.930 . S
H410 C390 0.930 . S
H411 C391 0.931 . S
H412 C393 0.931 . S
H413 C395 0.930 . S
H414 C397 0.930 . S
H415 C398 0.931 . S
N416 C378 1.343 . S
N416 C399 1.343 . S
N417 C385 1.343 . S
N417 C392 1.343 . S
C418 C419 1.384 . S
C418 C420 1.384 . S
C418 H446 0.931 . S
C419 C418 1.384 . S
C419 C422 1.382 . S
C420 C418 1.384 . S
C420 C421 1.381 . S
C420 H447 0.930 . S
C421 C420 1.381 . S
C421 C423 1.381 . S
C421 C424 1.487 . S
C422 C419 1.382 . S
C422 C423 1.387 . S
C422 H448 0.930 . S
C423 C421 1.381 . S
C423 C422 1.387 . S
C423 H449 0.931 . S
C424 C421 1.487 . S
C424 C431 1.399 . S
C424 N462 1.343 . S
C425 C426 1.384 . S
C425 C427 1.384 . S
C425 H450 0.931 . S
C426 C425 1.384 . S
C426 C429 1.382 . S
C427 C425 1.384 . S
C427 C428 1.381 . S
C427 H451 0.930 . S
C428 C427 1.381 . S
C428 C430 1.381 . S
C428 C431 1.487 . S
C429 C426 1.382 . S
C429 C430 1.387 . S
C429 H452 0.930 . S
C430 C428 1.381 . S
C430 C429 1.387 . S
C430 H453 0.931 . S
C431 C424 1.399 . S
C431 C428 1.487 . S
C431 N463 1.343 . S
C432 C433 1.384 . S
C432 C434 1.384 . S
C432 H454 0.931 . S
C433 C432 1.384 . S
C433 C436 1.382 . S
C434 C432 1.384 . S
C434 C435 1.381 . S
C434 H455 0.930 . S
C435 C434 1.381 . S
C435 C437 1.381 . S
C435 C438 1.487 . S
C436 C433 1.382 . S
C436 C437 1.387 . S
C436 H456 0.930 . S
C437 C435 1.381 . S
C437 C436 1.387 . S
C437 H457 0.931 . S
C438 C435 1.487 . S
C438 C445 1.399 . S
C438 N463 1.343 . S
C439 C440 1.384 . S
C439 C441 1.384 . S
C439 H458 0.931 . S
C440 C439 1.384 . S
C440 C443 1.382 . S
C441 C439 1.384 . S
C441 C442 1.381 . S
C441 H459 0.930 . S
C442 C441 1.381 . S
C442 C444 1.381 . S
C442 C445 1.487 . S
C443 C440 1.382 . S
C443 C444 1.387 . S
C443 H460 0.930 . S
C444 C442 1.381 . S
C444 C443 1.387 . S
C444 H461 0.931 . S
C445 C438 1.399 . S
C445 C442 1.487 . S
C445 N462 1.343 . S
H446 C418 0.931 . S
H447 C420 0.930 . S
H448 C422 0.930 . S
H449 C423 0.931 . S
H450 C425 0.931 . S
H451 C427 0.930 . S
H452 C429 0.930 . S
H453 C430 0.931 . S
H454 C432 0.931 . S
H455 C434 0.930 . S
H456 C436 0.930 . S
H457 C437 0.931 . S
H458 C439 0.931 . S
H459 C441 0.930 . S
H460 C443 0.930 . S
H461 C444 0.931 . S
N462 C424 1.343 . S
N462 C445 1.343 . S
N463 C431 1.343 . S
N463 C438 1.343 . S
C464 C465 1.384 . S
C464 C466 1.384 . S
C464 H492 0.931 . S
C465 C464 1.384 . S
C465 C468 1.382 . S
C466 C464 1.384 . S
C466 C467 1.381 . S
C466 H493 0.930 . S
C467 C466 1.381 . S
C467 C469 1.381 . S
C467 C470 1.487 . S
C468 C465 1.382 . S
C468 C469 1.387 . S
C468 H494 0.930 . S
C469 C467 1.381 . S
C469 C468 1.387 . S
C469 H495 0.931 . S
C470 C467 1.487 . S
C470 C477 1.399 . S
C470 N508 1.343 . S
C471 C472 1.384 . S
C471 C473 1.384 . S
C471 H496 0.931 . S
C472 C471 1.384 . S
C472 C475 1.382 . S
C473 C471 1.384 . S
C473 C474 1.381 . S
C473 H497 0.930 . S
C474 C473 1.381 . S
C474 C476 1.381 . S
C474 C477 1.487 . S
C475 C472 1.382 . S
C475 C476 1.387 . S
C475 H498 0.930 . S
C476 C474 1.381 . S
C476 C475 1.387 . S
C476 H499 0.931 . S
C477 C470 1.399 . S
C477 C474 1.487 . S
C477 N509 1.343 . S
C478 C479 1.384 . S
C478 C480 1.384 . S
C478 H500 0.931 . S
C479 C478 1.384 . S
C479 C482 1.382 . S
C480 C478 1.384 . S
C480 C481 1.381 . S
C480 H501 0.930 . S
C481 C480 1.381 . S
C481 C483 1.381 . S
C481 C484 1.487 . S
C482 C479 1.382 . S
C482 C483 1.387 . S
C482 H502 0.930 . S
C483 C481 1.381 . S
C483 C482 1.387 . S
C483 H503 0.931 . S
C484 C481 1.487 . S
C484 C491 1.399 . S
C484 N509 1.343 . S
C485 C486 1.384 . S
C485 C487 1.384 . S
C485 H504 0.931 . S
C486 C485 1.384 . S
C486 C489 1.382 . S
C487 C485 1.384 . S
C487 C488 1.381 . S
C487 H505 0.930 . S
C488 C487 1.381 . S
C488 C490 1.381 . S
C488 C491 1.487 . S
C489 C486 1.382 . S
C489 C490 1.387 . S
C489 H506 0.930 . S
C490 C488 1.381 . S
C490 C489 1.387 . S
C490 H507 0.931 . S
C491 C484 1.399 . S
C491 C488 1.487 . S
C491 N508 1.343 . S
H492 C464 0.931 . S
H493 C466 0.930 . S
H494 C468 0.930 . S
H495 C469 0.931 . S
H496 C471 0.931 . S
H497 C473 0.930 . S
H498 C475 0.930 . S
H499 C476 0.931 . S
H500 C478 0.931 . S
H501 C480 0.930 . S
H502 C482 0.930 . S
H503 C483 0.931 . S
H504 C485 0.931 . S
H505 C487 0.930 . S
H506 C489 0.930 . S
H507 C490 0.931 . S
N508 C470 1.343 . S
N508 C491 1.343 . S
N509 C477 1.343 . S
N509 C484 1.343 . S
C510 C511 1.384 . S
C510 C512 1.384 . S
C510 H538 0.931 . S
C511 C510 1.384 . S
C511 C514 1.382 . S
C512 C510 1.384 . S
C512 C513 1.381 . S
C512 H539 0.930 . S
C513 C512 1.381 . S
C513 C515 1.381 . S
C513 C516 1.487 . S
C514 C511 1.382 . S
C514 C515 1.387 . S
C514 H540 0.930 . S
C515 C513 1.381 . S
C515 C514 1.387 . S
C515 H541 0.931 . S
C516 C513 1.487 . S
C516 C523 1.399 . S
C516 N554 1.343 . S
C517 C518 1.384 . S
C517 C519 1.384 . S
C517 H542 0.931 . S
C518 C517 1.384 . S
C518 C521 1.382 . S
C519 C517 1.384 . S
C519 C520 1.381 . S
C519 H543 0.930 . S
C520 C519 1.381 . S
C520 C522 1.381 . S
C520 C523 1.487 . S
C521 C518 1.382 . S
C521 C522 1.387 . S
C521 H544 0.930 . S
C522 C520 1.381 . S
C522 C521 1.387 . S
C522 H545 0.931 . S
C523 C516 1.399 . S
C523 C520 1.487 . S
C523 N555 1.343 . S
C524 C525 1.384 . S
C524 C526 1.384 . S
C524 H546 0.931 . S
C525 C524 1.384 . S
C525 C528 1.382 . S
C526 C524 1.384 . S
C526 C527 1.381 . S
C526 H547 0.930 . S
C527 C526 1.381 . S
C527 C529 1.381 . S
C527 C530 1.487 . S
C528 C525 1.382 . S
C528 C529 1.387 . S
C528 H548 0.930 . S
C529 C527 1.381 . S
C529 C528 1.387 . S
C529 H549 0.931 . S
C530 C527 1.487 . S
C530 C537 1.399 . S
C530 N555 1.343 . S
C531 C532 1.384 . S
C531 C533 1.384 . S
C531 H550 0.931 . S
C532 C531 1.384 . S
C532 C535 1.382 . S
C533 C531 1.384 . S
C533 C534 1.381 . S
C533 H551 0.930 . S
C534 C533 1.381 . S
C534 C536 1.381 . S
C534 C537 1.487 . S
C535 C532 1.382 . S
C535 C536 1.387 . S
C535 H552 0.930 . S
C536 C534 1.381 . S
C536 C535 1.387 . S
C536 H553 0.931 . S
C537 C530 1.399 . S
C537 C534 1.487 . S
C537 N554 1.343 . S
H538 C510 0.931 . S
H539 C512 0.930 . S
H540 C514 0.930 . S
H541 C515 0.931 . S
H542 C517 0.931 . S
H543 C519 0.930 . S
H544 C521 0.930 . S
H545 C522 0.931 . S
H546 C524 0.931 . S
H547 C526 0.930 . S
H548 C528 0.930 . S
H549 C529 0.931 . S
H550 C531 0.931 . S
H551 C533 0.930 . S
H552 C535 0.930 . S
H553 C536 0.931 . S
N554 C516 1.343 . S
N554 C537 1.343 . S
N555 C523 1.343 . S
N555 C530 1.343 . S
C556 C557 1.384 . S
C556 C558 1.384 . S
C556 H584 0.931 . S
C557 C556 1.384 . S
C557 C560 1.382 . S
C558 C556 1.384 . S
C558 C559 1.381 . S
C558 H585 0.930 . S
C559 C558 1.381 . S
C559 C561 1.381 . S
C559 C562 1.487 . S
C560 C557 1.382 . S
C560 C561 1.387 . S
C560 H586 0.930 . S
C561 C559 1.381 . S
C561 C560 1.387 . S
C561 H587 0.931 . S
C562 C559 1.487 . S
C562 C569 1.399 . S
C562 N600 1.343 . S
C563 C564 1.384 . S
C563 C565 1.384 . S
C563 H588 0.931 . S
C564 C563 1.384 . S
C564 C567 1.382 . S
C565 C563 1.384 . S
C565 C566 1.381 . S
C565 H589 0.930 . S
C566 C565 1.381 . S
C566 C568 1.381 . S
C566 C569 1.487 . S
C567 C564 1.382 . S
C567 C568 1.387 . S
C567 H590 0.930 . S
C568 C566 1.381 . S
C568 C567 1.387 . S
C568 H591 0.931 . S
C569 C562 1.399 . S
C569 C566 1.487 . S
C569 N601 1.343 . S
C570 C571 1.384 . S
C570 C572 1.384 . S
C570 H592 0.931 . S
C571 C570 1.384 . S
C571 C574 1.382 . S
C572 C570 1.384 . S
C572 C573 1.381 . S
C572 H593 0.930 . S
C573 C572 1.381 . S
C573 C575 1.381 . S
C573 C576 1.487 . S
C574 C571 1.382 . S
C574 C575 1.387 . S
C574 H594 0.930 . S
C575 C573 1.381 . S
C575 C574 1.387 . S
C575 H595 0.931 . S
C576 C573 1.487 . S
C576 C583 1.399 . S
C576 N601 1.343 . S
C577 C578 1.384 . S
C577 C579 1.384 . S
C577 H596 0.931 . S
C578 C577 1.384 . S
C578 C581 1.382 . S
C579 C577 1.384 . S
C579 C580 1.381 . S
C579 H597 0.930 . S
C580 C579 1.381 . S
C580 C582 1.381 . S
C580 C583 1.487 . S
C581 C578 1.382 . S
C581 C582 1.387 . S
C581 H598 0.930 . S
C582 C580 1.381 . S
C582 C581 1.387 . S
C582 H599 0.931 . S
C583 C576 1.399 . S
C583 C580 1.487 . S
C583 N600 1.343 . S
H584 C556 0.931 . S
H585 C558 0.930 . S
H586 C560 0.930 . S
H587 C561 0.931 . S
H588 C563 0.931 . S
H589 C565 0.930 . S
H590 C567 0.930 . S
H591 C568 0.931 . S
H592 C570 0.931 . S
H593 C572 0.930 . S
H594 C574 0.930 . S
H595 C575 0.931 . S
H596 C577 0.931 . S
H597 C579 0.930 . S
H598 C581 0.930 . S
H599 C582 0.931 . S
N600 C562 1.343 . S
N600 C583 1.343 . S
N601 C569 1.343 . S
N601 C576 1.343 . S
C602 C603 1.384 . S
C602 C604 1.384 . S
C602 H630 0.931 . S
C603 C602 1.384 . S
C603 C606 1.382 . S
C604 C602 1.384 . S
C604 C605 1.381 . S
C604 H631 0.930 . S
C605 C604 1.381 . S
C605 C607 1.381 . S
C605 C608 1.487 . S
C606 C603 1.382 . S
C606 C607 1.387 . S
C606 H632 0.930 . S
C607 C605 1.381 . S
C607 C606 1.387 . S
C607 H633 0.931 . S
C608 C605 1.487 . S
C608 C615 1.399 . S
C608 N646 1.343 . S
C609 C610 1.384 . S
C609 C611 1.384 . S
C609 H634 0.931 . S
C610 C609 1.384 . S
C610 C613 1.382 . S
C611 C609 1.384 . S
C611 C612 1.381 . S
C611 H635 0.930 . S
C612 C611 1.381 . S
C612 C614 1.381 . S
C612 C615 1.487 . S
C613 C610 1.382 . S
C613 C614 1.387 . S
C613 H636 0.930 . S
C614 C612 1.381 . S
C614 C613 1.387 . S
C614 H637 0.931 . S
C615 C608 1.399 . S
C615 C612 1.487 . S
C615 N647 1.343 . S
C616 C617 1.384 . S
C616 C618 1.384 . S
C616 H638 0.931 . S
C617 C616 1.384 . S
C617 C620 1.382 . S
C618 C616 1.384 . S
C618 C619 1.381 . S
C618 H639 0.930 . S
C619 C618 1.381 . S
C619 C621 1.381 . S
C619 C622 1.487 . S
C620 C617 1.382 . S
C620 C621 1.387 . S
C620 H640 0.930 . S
C621 C619 1.381 . S
C621 C620 1.387 . S
C621 H641 0.931 . S
C622 C619 1.487 . S
C622 C629 1.399 . S
C622 N647 1.343 . S
C623 C624 1.384 . S
C623 C625 1.384 . S
C623 H642 0.931 . S
C624 C623 1.384 . S
C624 C627 1.382 . S
C625 C623 1.384 . S
C625 C626 1.381 . S
C625 H643 0.930 . S
C626 C625 1.381 . S
C626 C628 1.381 . S
C626 C629 1.487 . S
C627 C624 1.382 . S
C627 C628 1.387 . S
C627 H644 0.930 . S
C628 C626 1.381 . S
C628 C627 1.387 . S
C628 H645 0.931 . S
C629 C622 1.399 . S
C629 C626 1.487 . S
C629 N646 1.343 . S
H630 C602 0.931 . S
H631 C604 0.930 . S
H632 C606 0.930 . S
H633 C607 0.931 . S
H634 C609 0.931 . S
H635 C611 0.930 . S
H636 C613 0.930 . S
H637 C614 0.931 . S
H638 C616 0.931 . S
H639 C618 0.930 . S
H640 C620 0.930 . S
H641 C621 0.931 . S
H642 C623 0.931 . S
H643 C625 0.930 . S
H644 C627 0.930 . S
H645 C628 0.931 . S
N646 C608 1.343 . S
N646 C629 1.343 . S
N647 C615 1.343 . S
N647 C622 1.343 . S
C648 C649 1.384 . S
C648 C650 1.384 . S
C648 H676 0.931 . S
C649 C648 1.384 . S
C649 C652 1.382 1_655 S
C650 C648 1.384 . S
C650 C651 1.387 . S
C650 H677 0.930 . S
C651 C650 1.387 . S
C651 C653 1.378 1_655 S
C651 C654 1.477 1_655 S
C652 C649 1.382 1_455 S
C652 C653 1.387 . S
C652 H678 0.930 . S
C653 C651 1.378 1_455 S
C653 C652 1.387 . S
C653 H679 0.931 . S
C654 C651 1.477 1_455 S
C654 C661 1.399 1_455 S
C654 N692 1.319 . S
C655 C656 1.384 . S
C655 C657 1.384 . S
C655 H680 0.931 . S
C656 C655 1.384 . S
C656 C659 1.382 1_455 S
C657 C655 1.384 . S
C657 C658 1.384 . S
C657 H681 0.930 . S
C658 C657 1.384 . S
C658 C660 1.373 1_455 S
C658 C661 1.494 1_455 S
C659 C656 1.382 1_655 S
C659 C660 1.387 . S
C659 H682 0.930 . S
C660 C658 1.373 1_655 S
C660 C659 1.387 . S
C660 H683 0.931 . S
C661 C654 1.399 1_655 S
C661 C658 1.494 1_655 S
C661 N693 1.364 . S
C662 C663 1.384 . S
C662 C664 1.384 . S
C662 H684 0.931 . S
C663 C662 1.384 . S
C663 C666 1.382 1_455 S
C664 C662 1.384 . S
C664 C665 1.403 . S
C664 H685 0.930 . S
C665 C664 1.403 . S
C665 C667 1.370 1_455 S
C665 C668 1.477 1_455 S
C666 C663 1.382 1_655 S
C666 C667 1.387 . S
C666 H686 0.930 . S
C667 C665 1.370 1_655 S
C667 C666 1.387 . S
C667 H687 0.931 . S
C668 C665 1.477 1_655 S
C668 C675 1.399 1_655 S
C668 N693 1.319 . S
C669 C670 1.384 . S
C669 C671 1.384 . S
C669 H688 0.931 . S
C670 C669 1.384 . S
C670 C673 1.382 1_655 S
C671 C669 1.384 . S
C671 C672 1.381 . S
C671 H689 0.930 . S
C672 C671 1.381 . S
C672 C674 1.382 1_655 S
C672 C675 1.494 1_655 S
C673 C670 1.382 1_455 S
C673 C674 1.387 . S
C673 H690 0.930 . S
C674 C672 1.382 1_455 S
C674 C673 1.387 . S
C674 H691 0.931 . S
C675 C668 1.399 1_455 S
C675 C672 1.494 1_455 S
C675 N692 1.364 . S
H676 C648 0.931 . S
H677 C650 0.930 . S
H678 C652 0.930 . S
H679 C653 0.931 . S
H680 C655 0.931 . S
H681 C657 0.930 . S
H682 C659 0.930 . S
H683 C660 0.931 . S
H684 C662 0.931 . S
H685 C664 0.930 . S
H686 C666 0.930 . S
H687 C667 0.931 . S
H688 C669 0.931 . S
H689 C671 0.930 . S
H690 C673 0.930 . S
H691 C674 0.931 . S
N692 C654 1.319 . S
N692 C675 1.364 . S
N693 C661 1.364 . S
N693 C668 1.319 . S
C694 C695 1.384 . S
C694 C696 1.384 . S
C694 H722 0.931 . S
C695 C694 1.384 . S
C695 C698 1.382 . S
C696 C694 1.384 . S
C696 C697 1.381 . S
C696 H723 0.930 . S
C697 C696 1.381 . S
C697 C699 1.381 . S
C697 C700 1.487 . S
C698 C695 1.382 . S
C698 C699 1.387 . S
C698 H724 0.930 . S
C699 C697 1.381 . S
C699 C698 1.387 . S
C699 H725 0.931 . S
C700 C697 1.487 . S
C700 C707 1.399 . S
C700 N738 1.343 . S
C701 C702 1.384 . S
C701 C703 1.384 . S
C701 H726 0.931 . S
C702 C701 1.384 . S
C702 C705 1.382 . S
C703 C701 1.384 . S
C703 C704 1.381 . S
C703 H727 0.930 . S
C704 C703 1.381 . S
C704 C706 1.381 . S
C704 C707 1.487 . S
C705 C702 1.382 . S
C705 C706 1.387 . S
C705 H728 0.930 . S
C706 C704 1.381 . S
C706 C705 1.387 . S
C706 H729 0.931 . S
C707 C700 1.399 . S
C707 C704 1.487 . S
C707 N739 1.343 . S
C708 C709 1.384 . S
C708 C710 1.384 . S
C708 H730 0.931 . S
C709 C708 1.384 . S
C709 C712 1.382 . S
C710 C708 1.384 . S
C710 C711 1.381 . S
C710 H731 0.930 . S
C711 C710 1.381 . S
C711 C713 1.381 . S
C711 C714 1.487 . S
C712 C709 1.382 . S
C712 C713 1.387 . S
C712 H732 0.930 . S
C713 C711 1.381 . S
C713 C712 1.387 . S
C713 H733 0.931 . S
C714 C711 1.487 . S
C714 C721 1.399 . S
C714 N739 1.343 . S
C715 C716 1.384 . S
C715 C717 1.384 . S
C715 H734 0.931 . S
C716 C715 1.384 . S
C716 C719 1.382 . S
C717 C715 1.384 . S
C717 C718 1.381 . S
C717 H735 0.930 . S
C718 C717 1.381 . S
C718 C720 1.381 . S
C718 C721 1.487 . S
C719 C716 1.382 . S
C719 C720 1.387 . S
C719 H736 0.930 . S
C720 C718 1.381 . S
C720 C719 1.387 . S
C720 H737 0.931 . S
C721 C714 1.399 . S
C721 C718 1.487 . S
C721 N738 1.343 . S
H722 C694 0.931 . S
H723 C696 0.930 . S
H724 C698 0.930 . S
H725 C699 0.931 . S
H726 C701 0.931 . S
H727 C703 0.930 . S
H728 C705 0.930 . S
H729 C706 0.931 . S
H730 C708 0.931 . S
H731 C710 0.930 . S
H732 C712 0.930 . S
H733 C713 0.931 . S
H734 C715 0.931 . S
H735 C717 0.930 . S
H736 C719 0.930 . S
H737 C720 0.931 . S
N738 C700 1.343 . S
N738 C721 1.343 . S
N739 C707 1.343 . S
N739 C714 1.343 . S
C740 C741 1.384 1_545 S
C740 C742 1.384 . S
C740 H768 0.931 . S
C741 C740 1.384 1_565 S
C741 C744 1.382 . S
C742 C740 1.384 . S
C742 C743 1.381 1_545 S
C742 H769 0.930 . S
C743 C742 1.381 1_565 S
C743 C745 1.381 . S
C743 C746 1.487 . S
C744 C741 1.382 . S
C744 C745 1.387 . S
C744 H770 0.930 . S
C745 C743 1.381 . S
C745 C744 1.387 . S
C745 H771 0.931 . S
C746 C743 1.487 . S
C746 C753 1.399 1_565 S
C746 N784 1.343 . S
C747 C748 1.384 1_565 S
C747 C749 1.384 . S
C747 H772 0.931 . S
C748 C747 1.384 1_545 S
C748 C751 1.382 . S
C749 C747 1.384 . S
C749 C750 1.381 1_565 S
C749 H773 0.930 . S
C750 C749 1.381 1_545 S
C750 C752 1.381 . S
C750 C753 1.487 . S
C751 C748 1.382 . S
C751 C752 1.387 . S
C751 H774 0.930 . S
C752 C750 1.381 . S
C752 C751 1.387 . S
C752 H775 0.931 . S
C753 C746 1.399 1_545 S
C753 C750 1.487 . S
C753 N785 1.343 . S
C754 C755 1.384 1_565 S
C754 C756 1.384 . S
C754 H776 0.931 . S
C755 C754 1.384 1_545 S
C755 C758 1.382 . S
C756 C754 1.384 . S
C756 C757 1.381 1_565 S
C756 H777 0.930 . S
C757 C756 1.381 1_545 S
C757 C759 1.381 . S
C757 C760 1.487 . S
C758 C755 1.382 . S
C758 C759 1.387 . S
C758 H778 0.930 . S
C759 C757 1.381 . S
C759 C758 1.387 . S
C759 H779 0.931 . S
C760 C757 1.487 . S
C760 C767 1.399 1_545 S
C760 N785 1.343 . S
C761 C762 1.384 1_545 S
C761 C763 1.384 . S
C761 H780 0.931 . S
C762 C761 1.384 1_565 S
C762 C765 1.382 . S
C763 C761 1.384 . S
C763 C764 1.381 1_545 S
C763 H781 0.930 . S
C764 C763 1.381 1_565 S
C764 C766 1.381 . S
C764 C767 1.487 . S
C765 C762 1.382 . S
C765 C766 1.387 . S
C765 H782 0.930 . S
C766 C764 1.381 . S
C766 C765 1.387 . S
C766 H783 0.931 . S
C767 C760 1.399 1_565 S
C767 C764 1.487 . S
C767 N784 1.343 . S
H768 C740 0.931 . S
H769 C742 0.930 . S
H770 C744 0.930 . S
H771 C745 0.931 . S
H772 C747 0.931 . S
H773 C749 0.930 . S
H774 C751 0.930 . S
H775 C752 0.931 . S
H776 C754 0.931 . S
H777 C756 0.930 . S
H778 C758 0.930 . S
H779 C759 0.931 . S
H780 C761 0.931 . S
H781 C763 0.930 . S
H782 C765 0.930 . S
H783 C766 0.931 . S
N784 C746 1.343 . S
N784 C767 1.343 . S
N785 C753 1.343 . S
N785 C760 1.343 . S
C786 C787 1.384 . S
C786 C788 1.384 . S
C786 H814 0.931 . S
C787 C786 1.384 . S
C787 C790 1.382 1_545 S
C788 C786 1.384 . S
C788 C789 1.384 . S
C788 H815 0.930 . S
C789 C788 1.384 . S
C789 C791 1.374 1_545 S
C789 C792 1.494 1_545 S
C790 C787 1.382 1_565 S
C790 C791 1.387 . S
C790 H816 0.930 . S
C791 C789 1.374 1_565 S
C791 C790 1.387 . S
C791 H817 0.931 . S
C792 C789 1.494 1_565 S
C792 C799 1.399 1_565 S
C792 N830 1.364 . S
C793 C794 1.384 . S
C793 C795 1.384 . S
C793 H818 0.931 . S
C794 C793 1.384 . S
C794 C797 1.382 1_565 S
C795 C793 1.384 . S
C795 C796 1.388 . S
C795 H819 0.930 . S
C796 C795 1.388 . S
C796 C798 1.378 1_565 S
C796 C799 1.477 1_565 S
C797 C794 1.382 1_545 S
C797 C798 1.387 . S
C797 H820 0.930 . S
C798 C796 1.378 1_545 S
C798 C797 1.387 . S
C798 H821 0.931 . S
C799 C792 1.399 1_545 S
C799 C796 1.477 1_545 S
C799 N831 1.318 . S
C800 C801 1.384 . S
C800 C802 1.384 . S
C800 H822 0.931 . S
C801 C800 1.384 . S
C801 C804 1.382 1_565 S
C802 C800 1.384 . S
C802 C803 1.381 . S
C802 H823 0.930 . S
C803 C802 1.381 . S
C803 C805 1.383 1_565 S
C803 C806 1.494 1_565 S
C804 C801 1.382 1_545 S
C804 C805 1.387 . S
C804 H824 0.930 . S
C805 C803 1.383 1_545 S
C805 C804 1.387 . S
C805 H825 0.931 . S
C806 C803 1.494 1_545 S
C806 C813 1.399 1_545 S
C806 N831 1.364 . S
C807 C808 1.384 . S
C807 C809 1.384 . S
C807 H826 0.931 . S
C808 C807 1.384 . S
C808 C811 1.382 1_545 S
C809 C807 1.384 . S
C809 C810 1.404 . S
C809 H827 0.930 . S
C810 C809 1.404 . S
C810 C812 1.369 1_545 S
C810 C813 1.477 1_545 S
C811 C808 1.382 1_565 S
C811 C812 1.387 . S
C811 H828 0.930 . S
C812 C810 1.369 1_565 S
C812 C811 1.387 . S
C812 H829 0.931 . S
C813 C806 1.399 1_565 S
C813 C810 1.477 1_565 S
C813 N830 1.318 . S
H814 C786 0.931 . S
H815 C788 0.930 . S
H816 C790 0.930 . S
H817 C791 0.931 . S
H818 C793 0.931 . S
H819 C795 0.930 . S
H820 C797 0.930 . S
H821 C798 0.931 . S
H822 C800 0.931 . S
H823 C802 0.930 . S
H824 C804 0.930 . S
H825 C805 0.931 . S
H826 C807 0.931 . S
H827 C809 0.930 . S
H828 C811 0.930 . S
H829 C812 0.931 . S
N830 C792 1.364 . S
N830 C813 1.318 . S
N831 C799 1.318 . S
N831 C806 1.364 . S
C832 C833 1.384 . S
C832 C834 1.384 . S
C832 H860 0.931 . S
C833 C832 1.384 . S
C833 C836 1.382 1_655 S
C834 C832 1.384 . S
C834 C835 1.406 . S
C834 H861 0.930 . S
C835 C834 1.406 . S
C835 C837 1.369 1_655 S
C835 C838 1.477 1_655 S
C836 C833 1.382 1_455 S
C836 C837 1.387 . S
C836 H862 0.930 . S
C837 C835 1.369 1_455 S
C837 C836 1.387 . S
C837 H863 0.931 . S
C838 C835 1.477 1_455 S
C838 C845 1.399 1_455 S
C838 N876 1.319 . S
C839 C840 1.384 . S
C839 C841 1.384 . S
C839 H864 0.931 . S
C840 C839 1.384 . S
C840 C843 1.382 1_455 S
C841 C839 1.384 . S
C841 C842 1.381 . S
C841 H865 0.930 . S
C842 C841 1.381 . S
C842 C844 1.381 1_455 S
C842 C845 1.495 1_455 S
C843 C840 1.382 1_655 S
C843 C844 1.387 . S
C843 H866 0.930 . S
C844 C842 1.381 1_655 S
C844 C843 1.387 . S
C844 H867 0.931 . S
C845 C838 1.399 1_655 S
C845 C842 1.495 1_655 S
C845 N877 1.364 . S
C846 C847 1.384 . S
C846 C848 1.384 . S
C846 H868 0.931 . S
C847 C846 1.384 . S
C847 C850 1.382 1_455 S
C848 C846 1.384 . S
C848 C849 1.389 . S
C848 H869 0.930 . S
C849 C848 1.389 . S
C849 C851 1.377 1_455 S
C849 C852 1.477 1_455 S
C850 C847 1.382 1_655 S
C850 C851 1.387 . S
C850 H870 0.930 . S
C851 C849 1.377 1_655 S
C851 C850 1.387 . S
C851 H871 0.931 . S
C852 C849 1.477 1_655 S
C852 C859 1.399 1_655 S
C852 N877 1.319 . S
C853 C854 1.384 . S
C853 C855 1.384 . S
C853 H872 0.931 . S
C854 C853 1.384 . S
C854 C857 1.382 1_655 S
C855 C853 1.384 . S
C855 C856 1.385 . S
C855 H873 0.930 . S
C856 C855 1.385 . S
C856 C858 1.371 1_655 S
C856 C859 1.495 1_655 S
C857 C854 1.382 1_455 S
C857 C858 1.387 . S
C857 H874 0.930 . S
C858 C856 1.371 1_455 S
C858 C857 1.387 . S
C858 H875 0.931 . S
C859 C852 1.399 1_455 S
C859 C856 1.495 1_455 S
C859 N876 1.364 . S
H860 C832 0.931 . S
H861 C834 0.930 . S
H862 C836 0.930 . S
H863 C837 0.931 . S
H864 C839 0.931 . S
H865 C841 0.930 . S
H866 C843 0.930 . S
H867 C844 0.931 . S
H868 C846 0.931 . S
H869 C848 0.930 . S
H870 C850 0.930 . S
H871 C851 0.931 . S
H872 C853 0.931 . S
H873 C855 0.930 . S
H874 C857 0.930 . S
H875 C858 0.931 . S
N876 C838 1.319 . S
N876 C859 1.364 . S
N877 C845 1.364 . S
N877 C852 1.319 . S
C878 C879 1.384 . S
C878 C880 1.384 . S
C878 H906 0.931 . S
C879 C878 1.384 . S
C879 C882 1.382 . S
C880 C878 1.384 . S
C880 C881 1.381 . S
C880 H907 0.930 . S
C881 C880 1.381 . S
C881 C883 1.381 . S
C881 C884 1.487 . S
C882 C879 1.382 . S
C882 C883 1.387 . S
C882 H908 0.930 . S
C883 C881 1.381 . S
C883 C882 1.387 . S
C883 H909 0.931 . S
C884 C881 1.487 . S
C884 C891 1.399 . S
C884 N922 1.343 . S
C885 C886 1.384 . S
C885 C887 1.384 . S
C885 H910 0.931 . S
C886 C885 1.384 . S
C886 C889 1.382 . S
C887 C885 1.384 . S
C887 C888 1.381 . S
C887 H911 0.930 . S
C888 C887 1.381 . S
C888 C890 1.381 . S
C888 C891 1.487 . S
C889 C886 1.382 . S
C889 C890 1.387 . S
C889 H912 0.930 . S
C890 C888 1.381 . S
C890 C889 1.387 . S
C890 H913 0.931 . S
C891 C884 1.399 . S
C891 C888 1.487 . S
C891 N923 1.343 . S
C892 C893 1.384 . S
C892 C894 1.384 . S
C892 H914 0.931 . S
C893 C892 1.384 . S
C893 C896 1.382 . S
C894 C892 1.384 . S
C894 C895 1.381 . S
C894 H915 0.930 . S
C895 C894 1.381 . S
C895 C897 1.381 . S
C895 C898 1.487 . S
C896 C893 1.382 . S
C896 C897 1.387 . S
C896 H916 0.930 . S
C897 C895 1.381 . S
C897 C896 1.387 . S
C897 H917 0.931 . S
C898 C895 1.487 . S
C898 C905 1.399 . S
C898 N923 1.343 . S
C899 C900 1.384 . S
C899 C901 1.384 . S
C899 H918 0.931 . S
C900 C899 1.384 . S
C900 C903 1.382 . S
C901 C899 1.384 . S
C901 C902 1.381 . S
C901 H919 0.930 . S
C902 C901 1.381 . S
C902 C904 1.381 . S
C902 C905 1.487 . S
C903 C900 1.382 . S
C903 C904 1.387 . S
C903 H920 0.930 . S
C904 C902 1.381 . S
C904 C903 1.387 . S
C904 H921 0.931 . S
C905 C898 1.399 . S
C905 C902 1.487 . S
C905 N922 1.343 . S
H906 C878 0.931 . S
H907 C880 0.930 . S
H908 C882 0.930 . S
H909 C883 0.931 . S
H910 C885 0.931 . S
H911 C887 0.930 . S
H912 C889 0.930 . S
H913 C890 0.931 . S
H914 C892 0.931 . S
H915 C894 0.930 . S
H916 C896 0.930 . S
H917 C897 0.931 . S
H918 C899 0.931 . S
H919 C901 0.930 . S
H920 C903 0.930 . S
H921 C904 0.931 . S
N922 C884 1.343 . S
N922 C905 1.343 . S
N923 C891 1.343 . S
N923 C898 1.343 . S
C924 C925 1.384 . S
C924 C926 1.384 . S
C924 H952 0.931 . S
C925 C924 1.384 . S
C925 C928 1.382 . S
C926 C924 1.384 . S
C926 C927 1.381 . S
C926 H953 0.930 . S
C927 C926 1.381 . S
C927 C929 1.381 . S
C927 C930 1.487 . S
C928 C925 1.382 . S
C928 C929 1.387 . S
C928 H954 0.930 . S
C929 C927 1.381 . S
C929 C928 1.387 . S
C929 H955 0.931 . S
C930 C927 1.487 . S
C930 C937 1.399 . S
C930 N968 1.343 . S
C931 C932 1.384 . S
C931 C933 1.384 . S
C931 H956 0.931 . S
C932 C931 1.384 . S
C932 C935 1.382 . S
C933 C931 1.384 . S
C933 C934 1.381 . S
C933 H957 0.930 . S
C934 C933 1.381 . S
C934 C936 1.381 . S
C934 C937 1.487 . S
C935 C932 1.382 . S
C935 C936 1.387 . S
C935 H958 0.930 . S
C936 C934 1.381 . S
C936 C935 1.387 . S
C936 H959 0.931 . S
C937 C930 1.399 . S
C937 C934 1.487 . S
C937 N969 1.343 . S
C938 C939 1.384 . S
C938 C940 1.384 . S
C938 H960 0.931 . S
C939 C938 1.384 . S
C939 C942 1.382 . S
C940 C938 1.384 . S
C940 C941 1.381 . S
C940 H961 0.930 . S
C941 C940 1.381 . S
C941 C943 1.381 . S
C941 C944 1.487 . S
C942 C939 1.382 . S
C942 C943 1.387 . S
C942 H962 0.930 . S
C943 C941 1.381 . S
C943 C942 1.387 . S
C943 H963 0.931 . S
C944 C941 1.487 . S
C944 C951 1.399 . S
C944 N969 1.343 . S
C945 C946 1.384 . S
C945 C947 1.384 . S
C945 H964 0.931 . S
C946 C945 1.384 . S
C946 C949 1.382 . S
C947 C945 1.384 . S
C947 C948 1.381 . S
C947 H965 0.930 . S
C948 C947 1.381 . S
C948 C950 1.381 . S
C948 C951 1.487 . S
C949 C946 1.382 . S
C949 C950 1.387 . S
C949 H966 0.930 . S
C950 C948 1.381 . S
C950 C949 1.387 . S
C950 H967 0.931 . S
C951 C944 1.399 . S
C951 C948 1.487 . S
C951 N968 1.343 . S
H952 C924 0.931 . S
H953 C926 0.930 . S
H954 C928 0.930 . S
H955 C929 0.931 . S
H956 C931 0.931 . S
H957 C933 0.930 . S
H958 C935 0.930 . S
H959 C936 0.931 . S
H960 C938 0.931 . S
H961 C940 0.930 . S
H962 C942 0.930 . S
H963 C943 0.931 . S
H964 C945 0.931 . S
H965 C947 0.930 . S
H966 C949 0.930 . S
H967 C950 0.931 . S
N968 C930 1.343 . S
N968 C951 1.343 . S
N969 C937 1.343 . S
N969 C944 1.343 . S
C970 C971 1.384 . S
C970 C972 1.384 . S
C970 H998 0.931 . S
C971 C970 1.384 . S
C971 C974 1.382 . S
C972 C970 1.384 . S
C972 C973 1.381 . S
C972 H999 0.930 . S
C973 C972 1.381 . S
C973 C975 1.381 . S
C973 C976 1.487 . S
C974 C971 1.382 . S
C974 C975 1.387 . S
C974 H1000 0.930 . S
C975 C973 1.381 . S
C975 C974 1.387 . S
C975 H1001 0.931 . S
C976 C973 1.487 . S
C976 C983 1.399 . S
C976 N1014 1.343 . S
C977 C978 1.384 . S
C977 C979 1.384 . S
C977 H1002 0.931 . S
C978 C977 1.384 . S
C978 C981 1.382 . S
C979 C977 1.384 . S
C979 C980 1.381 . S
C979 H1003 0.930 . S
C980 C979 1.381 . S
C980 C982 1.381 . S
C980 C983 1.487 . S
C981 C978 1.382 . S
C981 C982 1.387 . S
C981 H1004 0.930 . S
C982 C980 1.381 . S
C982 C981 1.387 . S
C982 H1005 0.931 . S
C983 C976 1.399 . S
C983 C980 1.487 . S
C983 N1015 1.343 . S
C984 C985 1.384 . S
C984 C986 1.384 . S
C984 H1006 0.931 . S
C985 C984 1.384 . S
C985 C988 1.382 . S
C986 C984 1.384 . S
C986 C987 1.381 . S
C986 H1007 0.930 . S
C987 C986 1.381 . S
C987 C989 1.381 . S
C987 C990 1.487 . S
C988 C985 1.382 . S
C988 C989 1.387 . S
C988 H1008 0.930 . S
C989 C987 1.381 . S
C989 C988 1.387 . S
C989 H1009 0.931 . S
C990 C987 1.487 . S
C990 C997 1.399 . S
C990 N1015 1.343 . S
C991 C992 1.384 . S
C991 C993 1.384 . S
C991 H1010 0.931 . S
C992 C991 1.384 . S
C992 C995 1.382 . S
C993 C991 1.384 . S
C993 C994 1.381 . S
C993 H1011 0.930 . S
C994 C993 1.381 . S
C994 C996 1.381 . S
C994 C997 1.487 . S
C995 C992 1.382 . S
C995 C996 1.387 . S
C995 H1012 0.930 . S
C996 C994 1.381 . S
C996 C995 1.387 . S
C996 H1013 0.931 . S
C997 C990 1.399 . S
C997 C994 1.487 . S
C997 N1014 1.343 . S
H998 C970 0.931 . S
H999 C972 0.930 . S
H1000 C974 0.930 . S
H1001 C975 0.931 . S
H1002 C977 0.931 . S
H1003 C979 0.930 . S
H1004 C981 0.930 . S
H1005 C982 0.931 . S
H1006 C984 0.931 . S
H1007 C986 0.930 . S
H1008 C988 0.930 . S
H1009 C989 0.931 . S
H1010 C991 0.931 . S
H1011 C993 0.930 . S
H1012 C995 0.930 . S
H1013 C996 0.931 . S
N1014 C976 1.343 . S
N1014 C997 1.343 . S
N1015 C983 1.343 . S
N1015 C990 1.343 . S
C1016 C1017 1.384 . S
C1016 C1018 1.384 . S
C1016 H1044 0.931 . S
C1017 C1016 1.384 . S
C1017 C1020 1.382 . S
C1018 C1016 1.384 . S
C1018 C1019 1.381 . S
C1018 H1045 0.930 . S
C1019 C1018 1.381 . S
C1019 C1021 1.381 . S
C1019 C1022 1.487 . S
C1020 C1017 1.382 . S
C1020 C1021 1.387 . S
C1020 H1046 0.930 . S
C1021 C1019 1.381 . S
C1021 C1020 1.387 . S
C1021 H1047 0.931 . S
C1022 C1019 1.487 . S
C1022 C1029 1.399 . S
C1022 N1060 1.343 . S
C1023 C1024 1.384 . S
C1023 C1025 1.384 . S
C1023 H1048 0.931 . S
C1024 C1023 1.384 . S
C1024 C1027 1.382 . S
C1025 C1023 1.384 . S
C1025 C1026 1.381 . S
C1025 H1049 0.930 . S
C1026 C1025 1.381 . S
C1026 C1028 1.381 . S
C1026 C1029 1.487 . S
C1027 C1024 1.382 . S
C1027 C1028 1.387 . S
C1027 H1050 0.930 . S
C1028 C1026 1.381 . S
C1028 C1027 1.387 . S
C1028 H1051 0.931 . S
C1029 C1022 1.399 . S
C1029 C1026 1.487 . S
C1029 N1061 1.343 . S
C1030 C1031 1.384 . S
C1030 C1032 1.384 . S
C1030 H1052 0.931 . S
C1031 C1030 1.384 . S
C1031 C1034 1.382 . S
C1032 C1030 1.384 . S
C1032 C1033 1.381 . S
C1032 H1053 0.930 . S
C1033 C1032 1.381 . S
C1033 C1035 1.381 . S
C1033 C1036 1.487 . S
C1034 C1031 1.382 . S
C1034 C1035 1.387 . S
C1034 H1054 0.930 . S
C1035 C1033 1.381 . S
C1035 C1034 1.387 . S
C1035 H1055 0.931 . S
C1036 C1033 1.487 . S
C1036 C1043 1.399 . S
C1036 N1061 1.343 . S
C1037 C1038 1.384 . S
C1037 C1039 1.384 . S
C1037 H1056 0.931 . S
C1038 C1037 1.384 . S
C1038 C1041 1.382 . S
C1039 C1037 1.384 . S
C1039 C1040 1.381 . S
C1039 H1057 0.930 . S
C1040 C1039 1.381 . S
C1040 C1042 1.381 . S
C1040 C1043 1.487 . S
C1041 C1038 1.382 . S
C1041 C1042 1.387 . S
C1041 H1058 0.930 . S
C1042 C1040 1.381 . S
C1042 C1041 1.387 . S
C1042 H1059 0.931 . S
C1043 C1036 1.399 . S
C1043 C1040 1.487 . S
C1043 N1060 1.343 . S
H1044 C1016 0.931 . S
H1045 C1018 0.930 . S
H1046 C1020 0.930 . S
H1047 C1021 0.931 . S
H1048 C1023 0.931 . S
H1049 C1025 0.930 . S
H1050 C1027 0.930 . S
H1051 C1028 0.931 . S
H1052 C1030 0.931 . S
H1053 C1032 0.930 . S
H1054 C1034 0.930 . S
H1055 C1035 0.931 . S
H1056 C1037 0.931 . S
H1057 C1039 0.930 . S
H1058 C1041 0.930 . S
H1059 C1042 0.931 . S
N1060 C1022 1.343 . S
N1060 C1043 1.343 . S
N1061 C1029 1.343 . S
N1061 C1036 1.343 . S
H1062 C1074 0.930 . S
H1063 C1076 0.930 . S
H1064 C1077 0.930 . S
H1065 C1081 0.959 . S
H1066 C1081 0.959 . S
H1067 C1081 0.961 . S
H1068 C1082 0.960 . S
H1069 C1082 0.961 . S
H1070 C1082 0.959 . S
H1071 C1085 0.929 . S
H1072 C1086 0.931 . S
H1073 C1088 0.927 . S
C1074 H1062 0.930 . S
C1074 C1075 1.399 1_455 S
C1074 C1079 1.389 1_455 S
C1075 C1074 1.399 1_655 S
C1075 C1076 1.376 . S
C1076 H1063 0.930 . S
C1076 C1075 1.376 . S
C1076 C1077 1.388 . S
C1077 H1064 0.930 . S
C1077 C1076 1.388 . S
C1077 C1078 1.390 . S
C1078 C1077 1.390 . S
C1078 C1079 1.395 . S
C1078 C1084 1.465 . S
C1079 C1074 1.389 1_655 S
C1079 C1078 1.395 . S
C1079 C1080 1.527 1_655 S
C1080 C1079 1.527 1_455 S
C1080 C1081 1.502 . S
C1080 C1082 1.561 1_455 S
C1080 C1083 1.526 1_455 S
C1081 H1065 0.959 . S
C1081 H1066 0.959 . S
C1081 H1067 0.961 . S
C1081 C1080 1.502 . S
C1082 H1068 0.960 . S
C1082 H1069 0.961 . S
C1082 H1070 0.959 . S
C1082 C1080 1.561 1_655 S
C1083 C1080 1.526 1_655 S
C1083 C1084 1.396 . S
C1083 C1088 1.396 1_655 S
C1084 C1078 1.465 . S
C1084 C1083 1.396 . S
C1084 C1085 1.399 . S
C1085 H1071 0.929 . S
C1085 C1084 1.399 . S
C1085 C1086 1.385 . S
C1086 H1072 0.931 . S
C1086 C1085 1.385 . S
C1086 C1087 1.389 . S
C1087 C1086 1.389 . S
C1087 C1088 1.384 1_655 S
C1088 H1073 0.927 . S
C1088 C1083 1.396 1_455 S
C1088 C1087 1.384 1_455 S
H1089 C1101 0.930 . S
H1090 C1103 0.930 . S
H1091 C1104 0.930 . S
H1092 C1108 0.959 . S
H1093 C1108 0.959 . S
H1094 C1108 0.961 . S
H1095 C1109 0.960 . S
H1096 C1109 0.961 . S
H1097 C1109 0.959 . S
H1098 C1112 0.929 . S
H1099 C1113 0.931 . S
H1100 C1115 0.930 . S
C1101 H1089 0.930 . S
C1101 C1102 1.399 . S
C1101 C1106 1.399 . S
C1102 C1101 1.399 . S
C1102 C1103 1.376 . S
C1103 H1090 0.930 . S
C1103 C1102 1.376 . S
C1103 C1104 1.388 . S
C1104 H1091 0.930 . S
C1104 C1103 1.388 . S
C1104 C1105 1.390 . S
C1105 C1104 1.390 . S
C1105 C1106 1.394 . S
C1105 C1111 1.465 . S
C1106 C1101 1.399 . S
C1106 C1105 1.394 . S
C1106 C1107 1.516 . S
C1107 C1106 1.516 . S
C1107 C1108 1.502 . S
C1107 C1109 1.561 . S
C1107 C1110 1.526 . S
C1108 H1092 0.959 . S
C1108 H1093 0.959 . S
C1108 H1094 0.961 . S
C1108 C1107 1.502 . S
C1109 H1095 0.960 . S
C1109 H1096 0.961 . S
C1109 H1097 0.959 . S
C1109 C1107 1.561 . S
C1110 C1107 1.526 . S
C1110 C1111 1.396 . S
C1110 C1115 1.390 . S
C1111 C1105 1.465 . S
C1111 C1110 1.396 . S
C1111 C1112 1.399 . S
C1112 H1098 0.929 . S
C1112 C1111 1.399 . S
C1112 C1113 1.385 . S
C1113 H1099 0.931 . S
C1113 C1112 1.385 . S
C1113 C1114 1.389 . S
C1114 C1113 1.389 . S
C1114 C1115 1.387 . S
C1115 H1100 0.930 . S
C1115 C1110 1.390 . S
C1115 C1114 1.387 . S
H1116 C1128 0.930 . S
H1117 C1130 0.930 . S
H1118 C1131 0.930 . S
H1119 C1135 0.959 . S
H1120 C1135 0.959 . S
H1121 C1135 0.961 . S
H1122 C1136 0.960 . S
H1123 C1136 0.961 . S
H1124 C1136 0.959 . S
H1125 C1139 0.929 . S
H1126 C1140 0.931 . S
H1127 C1142 0.930 . S
C1128 H1116 0.930 . S
C1128 C1129 1.399 1_565 S
C1128 C1133 1.399 . S
C1129 C1128 1.399 1_545 S
C1129 C1130 1.376 . S
C1130 H1117 0.930 . S
C1130 C1129 1.376 . S
C1130 C1131 1.388 . S
C1131 H1118 0.930 . S
C1131 C1130 1.388 . S
C1131 C1132 1.390 . S
C1132 C1131 1.390 . S
C1132 C1133 1.394 1_545 S
C1132 C1138 1.465 . S
C1133 C1128 1.399 . S
C1133 C1132 1.394 1_565 S
C1133 C1134 1.516 . S
C1134 C1133 1.516 . S
C1134 C1135 1.502 . S
C1134 C1136 1.561 . S
C1134 C1137 1.526 . S
C1135 H1119 0.959 . S
C1135 H1120 0.959 . S
C1135 H1121 0.961 . S
C1135 C1134 1.502 . S
C1136 H1122 0.960 . S
C1136 H1123 0.961 . S
C1136 H1124 0.959 . S
C1136 C1134 1.561 . S
C1137 C1134 1.526 . S
C1137 C1138 1.396 1_565 S
C1137 C1142 1.390 . S
C1138 C1132 1.465 . S
C1138 C1137 1.396 1_545 S
C1138 C1139 1.399 . S
C1139 H1125 0.929 . S
C1139 C1138 1.399 . S
C1139 C1140 1.385 . S
C1140 H1126 0.931 . S
C1140 C1139 1.385 . S
C1140 C1141 1.389 . S
C1141 C1140 1.389 . S
C1141 C1142 1.387 1_545 S
C1142 H1127 0.930 . S
C1142 C1137 1.390 . S
C1142 C1141 1.387 1_565 S
H1143 C1155 0.930 . S
H1144 C1157 0.930 . S
H1145 C1158 0.930 . S
H1146 C1162 0.959 . S
H1147 C1162 0.959 . S
H1148 C1162 0.961 . S
H1149 C1163 0.960 . S
H1150 C1163 0.961 . S
H1151 C1163 0.959 . S
H1152 C1166 0.929 . S
H1153 C1167 0.931 . S
H1154 C1169 0.930 . S
C1155 H1143 0.930 . S
C1155 C1156 1.345 1_565 S
C1155 C1160 1.399 . S
C1156 C1155 1.345 1_545 S
C1156 C1157 1.421 . S
C1157 H1144 0.930 . S
C1157 C1156 1.421 . S
C1157 C1158 1.388 . S
C1158 H1145 0.930 . S
C1158 C1157 1.388 . S
C1158 C1159 1.390 . S
C1159 C1158 1.390 . S
C1159 C1160 1.394 1_545 S
C1159 C1165 1.465 . S
C1160 C1155 1.399 . S
C1160 C1159 1.394 1_565 S
C1160 C1161 1.516 . S
C1161 C1160 1.516 . S
C1161 C1162 1.502 . S
C1161 C1163 1.561 . S
C1161 C1164 1.526 . S
C1162 H1146 0.959 . S
C1162 H1147 0.959 . S
C1162 H1148 0.961 . S
C1162 C1161 1.502 . S
C1163 H1149 0.960 . S
C1163 H1150 0.961 . S
C1163 H1151 0.959 . S
C1163 C1161 1.561 . S
C1164 C1161 1.526 . S
C1164 C1165 1.396 1_565 S
C1164 C1169 1.390 . S
C1165 C1159 1.465 . S
C1165 C1164 1.396 1_545 S
C1165 C1166 1.399 . S
C1166 H1152 0.929 . S
C1166 C1165 1.399 . S
C1166 C1167 1.385 . S
C1167 H1153 0.931 . S
C1167 C1166 1.385 . S
C1167 C1168 1.316 1_545 S
C1168 C1167 1.316 1_565 S
C1168 C1169 1.422 . S
C1169 H1154 0.930 . S
C1169 C1164 1.390 . S
C1169 C1168 1.422 . S
H1170 C1182 0.930 . S
H1171 C1184 0.930 . S
H1172 C1185 0.930 . S
H1173 C1189 0.959 1_655 S
H1174 C1189 0.959 . S
H1175 C1189 0.961 . S
H1176 C1190 0.960 . S
H1177 C1190 0.961 . S
H1178 C1190 0.959 . S
H1179 C1193 0.929 . S
H1180 C1194 0.931 . S
H1181 C1196 0.930 . S
C1182 H1170 0.930 . S
C1182 C1183 1.399 . S
C1182 C1187 1.399 . S
C1183 C1182 1.399 . S
C1183 C1184 1.376 1_455 S
C1184 H1171 0.930 . S
C1184 C1183 1.376 1_655 S
C1184 C1185 1.388 . S
C1185 H1172 0.930 . S
C1185 C1184 1.388 . S
C1185 C1186 1.390 1_655 S
C1186 C1185 1.390 1_455 S
C1186 C1187 1.394 . S
C1186 C1192 1.465 . S
C1187 C1182 1.399 . S
C1187 C1186 1.394 . S
C1187 C1188 1.516 . S
C1188 C1187 1.516 . S
C1188 C1189 1.502 . S
C1188 C1190 1.561 . S
C1188 C1191 1.526 . S
C1189 H1173 0.959 1_455 S
C1189 H1174 0.959 . S
C1189 H1175 0.961 . S
C1189 C1188 1.502 . S
C1190 H1176 0.960 . S
C1190 H1177 0.961 . S
C1190 H1178 0.959 . S
C1190 C1188 1.561 . S
C1191 C1188 1.526 . S
C1191 C1192 1.396 . S
C1191 C1196 1.390 . S
C1192 C1186 1.465 . S
C1192 C1191 1.396 . S
C1192 C1193 1.399 1_455 S
C1193 H1179 0.929 . S
C1193 C1192 1.399 1_655 S
C1193 C1194 1.385 . S
C1194 H1180 0.931 . S
C1194 C1193 1.385 . S
C1194 C1195 1.389 1_655 S
C1195 C1194 1.389 1_455 S
C1195 C1196 1.387 . S
C1196 H1181 0.930 . S
C1196 C1191 1.390 . S
C1196 C1195 1.387 . S
H1197 C1209 0.930 . S
H1198 C1211 0.930 . S
H1199 C1212 0.930 . S
H1200 C1216 0.959 . S
H1201 C1216 0.959 . S
H1202 C1216 0.961 . S
H1203 C1217 0.960 . S
H1204 C1217 0.961 . S
H1205 C1217 0.959 . S
H1206 C1220 0.929 . S
H1207 C1221 0.931 . S
H1208 C1223 0.930 . S
C1209 H1197 0.930 . S
C1209 C1210 1.399 . S
C1209 C1214 1.399 . S
C1210 C1209 1.399 . S
C1210 C1211 1.376 . S
C1211 H1198 0.930 . S
C1211 C1210 1.376 . S
C1211 C1212 1.388 . S
C1212 H1199 0.930 . S
C1212 C1211 1.388 . S
C1212 C1213 1.390 . S
C1213 C1212 1.390 . S
C1213 C1214 1.394 . S
C1213 C1219 1.465 . S
C1214 C1209 1.399 . S
C1214 C1213 1.394 . S
C1214 C1215 1.516 . S
C1215 C1214 1.516 . S
C1215 C1216 1.502 . S
C1215 C1217 1.561 . S
C1215 C1218 1.526 . S
C1216 H1200 0.959 . S
C1216 H1201 0.959 . S
C1216 H1202 0.961 . S
C1216 C1215 1.502 . S
C1217 H1203 0.960 . S
C1217 H1204 0.961 . S
C1217 H1205 0.959 . S
C1217 C1215 1.561 . S
C1218 C1215 1.526 . S
C1218 C1219 1.396 . S
C1218 C1223 1.390 . S
C1219 C1213 1.465 . S
C1219 C1218 1.396 . S
C1219 C1220 1.399 . S
C1220 H1206 0.929 . S
C1220 C1219 1.399 . S
C1220 C1221 1.385 . S
C1221 H1207 0.931 . S
C1221 C1220 1.385 . S
C1221 C1222 1.389 . S
C1222 C1221 1.389 . S
C1222 C1223 1.387 . S
C1223 H1208 0.930 . S
C1223 C1218 1.390 . S
C1223 C1222 1.387 . S
H1224 C1236 0.930 . S
H1225 C1238 0.930 . S
H1226 C1239 0.930 . S
H1227 C1243 0.959 . S
H1228 C1243 0.959 . S
H1229 C1243 0.961 . S
H1230 C1244 0.960 . S
H1231 C1244 0.961 . S
H1232 C1244 0.959 . S
H1233 C1247 0.929 . S
H1234 C1248 0.931 . S
H1235 C1250 0.930 . S
C1236 H1224 0.930 . S
C1236 C1237 1.399 1_655 S
C1236 C1241 1.399 . S
C1237 C1236 1.399 1_455 S
C1237 C1238 1.376 . S
C1238 H1225 0.930 . S
C1238 C1237 1.376 . S
C1238 C1239 1.388 . S
C1239 H1226 0.930 . S
C1239 C1238 1.388 . S
C1239 C1240 1.390 . S
C1240 C1239 1.390 . S
C1240 C1241 1.394 1_455 S
C1240 C1246 1.465 . S
C1241 C1236 1.399 . S
C1241 C1240 1.394 1_655 S
C1241 C1242 1.516 . S
C1242 C1241 1.516 . S
C1242 C1243 1.502 . S
C1242 C1244 1.561 . S
C1242 C1245 1.526 . S
C1243 H1227 0.959 . S
C1243 H1228 0.959 . S
C1243 H1229 0.961 . S
C1243 C1242 1.502 . S
C1244 H1230 0.960 . S
C1244 H1231 0.961 . S
C1244 H1232 0.959 . S
C1244 C1242 1.561 . S
C1245 C1242 1.526 . S
C1245 C1246 1.396 1_655 S
C1245 C1250 1.390 . S
C1246 C1240 1.465 . S
C1246 C1245 1.396 1_455 S
C1246 C1247 1.399 . S
C1247 H1233 0.929 . S
C1247 C1246 1.399 . S
C1247 C1248 1.385 . S
C1248 H1234 0.931 . S
C1248 C1247 1.385 . S
C1248 C1249 1.389 . S
C1249 C1248 1.389 . S
C1249 C1250 1.387 1_455 S
C1250 H1235 0.930 . S
C1250 C1245 1.390 . S
C1250 C1249 1.387 1_655 S
H1251 C1263 0.930 . S
H1252 C1265 0.930 . S
H1253 C1266 0.930 . S
H1254 C1270 0.959 . S
H1255 C1270 0.959 . S
H1256 C1270 0.961 . S
H1257 C1271 0.960 . S
H1258 C1271 0.961 . S
H1259 C1271 0.959 . S
H1260 C1274 0.929 . S
H1261 C1275 0.931 . S
H1262 C1277 0.930 . S
C1263 H1251 0.930 . S
C1263 C1264 1.399 . S
C1263 C1268 1.399 . S
C1264 C1263 1.399 . S
C1264 C1265 1.376 . S
C1265 H1252 0.930 . S
C1265 C1264 1.376 . S
C1265 C1266 1.388 . S
C1266 H1253 0.930 . S
C1266 C1265 1.388 . S
C1266 C1267 1.390 . S
C1267 C1266 1.390 . S
C1267 C1268 1.394 . S
C1267 C1273 1.465 . S
C1268 C1263 1.399 . S
C1268 C1267 1.394 . S
C1268 C1269 1.516 . S
C1269 C1268 1.516 . S
C1269 C1270 1.502 . S
C1269 C1271 1.561 . S
C1269 C1272 1.526 . S
C1270 H1254 0.959 . S
C1270 H1255 0.959 . S
C1270 H1256 0.961 . S
C1270 C1269 1.502 . S
C1271 H1257 0.960 . S
C1271 H1258 0.961 . S
C1271 H1259 0.959 . S
C1271 C1269 1.561 . S
C1272 C1269 1.526 . S
C1272 C1273 1.396 . S
C1272 C1277 1.390 . S
C1273 C1267 1.465 . S
C1273 C1272 1.396 . S
C1273 C1274 1.399 . S
C1274 H1260 0.929 . S
C1274 C1273 1.399 . S
C1274 C1275 1.385 . S
C1275 H1261 0.931 . S
C1275 C1274 1.385 . S
C1275 C1276 1.389 . S
C1276 C1275 1.389 . S
C1276 C1277 1.387 . S
C1277 H1262 0.930 . S
C1277 C1272 1.390 . S
C1277 C1276 1.387 . S
H1278 C1290 0.930 . S
H1279 C1292 0.930 . S
H1280 C1293 0.930 . S
H1281 C1297 0.959 . S
H1282 C1297 0.959 . S
H1283 C1297 0.961 . S
H1284 C1298 0.960 . S
H1285 C1298 0.961 . S
H1286 C1298 0.959 . S
H1287 C1301 0.929 . S
H1288 C1302 0.931 . S
H1289 C1304 0.930 . S
C1290 H1278 0.930 . S
C1290 C1291 1.400 . S
C1290 C1295 1.399 . S
C1291 C1290 1.400 . S
C1291 C1292 1.375 1_565 S
C1292 H1279 0.930 . S
C1292 C1291 1.375 1_545 S
C1292 C1293 1.388 . S
C1293 H1280 0.930 . S
C1293 C1292 1.388 . S
C1293 C1294 1.390 . S
C1294 C1293 1.390 . S
C1294 C1295 1.394 1_545 S
C1294 C1300 1.465 . S
C1295 C1290 1.399 . S
C1295 C1294 1.394 1_565 S
C1295 C1296 1.516 . S
C1296 C1295 1.516 . S
C1296 C1297 1.502 . S
C1296 C1298 1.561 . S
C1296 C1299 1.526 . S
C1297 H1281 0.959 . S
C1297 H1282 0.959 . S
C1297 H1283 0.961 . S
C1297 C1296 1.502 . S
C1298 H1284 0.960 . S
C1298 H1285 0.961 . S
C1298 H1286 0.959 . S
C1298 C1296 1.561 . S
C1299 C1296 1.526 . S
C1299 C1300 1.396 1_565 S
C1299 C1304 1.390 . S
C1300 C1294 1.465 . S
C1300 C1299 1.396 1_545 S
C1300 C1301 1.399 . S
C1301 H1287 0.929 . S
C1301 C1300 1.399 . S
C1301 C1302 1.385 . S
C1302 H1288 0.931 . S
C1302 C1301 1.385 . S
C1302 C1303 1.389 1_545 S
C1303 C1302 1.389 1_565 S
C1303 C1304 1.387 . S
C1304 H1289 0.930 . S
C1304 C1299 1.390 . S
C1304 C1303 1.387 . S
H1305 C1317 0.930 . S
H1306 C1319 0.930 . S
H1307 C1320 0.930 . S
H1308 C1324 0.959 . S
H1309 C1324 0.959 . S
H1310 C1324 0.961 . S
H1311 C1325 0.960 . S
H1312 C1325 0.961 . S
H1313 C1325 0.959 . S
H1314 C1328 0.929 . S
H1315 C1329 0.931 . S
H1316 C1331 0.930 . S
C1317 H1305 0.930 . S
C1317 C1318 1.399 1_565 S
C1317 C1322 1.399 . S
C1318 C1317 1.399 1_545 S
C1318 C1319 1.376 . S
C1319 H1306 0.930 . S
C1319 C1318 1.376 . S
C1319 C1320 1.388 . S
C1320 H1307 0.930 . S
C1320 C1319 1.388 . S
C1320 C1321 1.390 . S
C1321 C1320 1.390 . S
C1321 C1322 1.394 1_545 S
C1321 C1327 1.465 . S
C1322 C1317 1.399 . S
C1322 C1321 1.394 1_565 S
C1322 C1323 1.516 . S
C1323 C1322 1.516 . S
C1323 C1324 1.502 . S
C1323 C1325 1.561 . S
C1323 C1326 1.526 . S
C1324 H1308 0.959 . S
C1324 H1309 0.959 . S
C1324 H1310 0.961 . S
C1324 C1323 1.502 . S
C1325 H1311 0.960 . S
C1325 H1312 0.961 . S
C1325 H1313 0.959 . S
C1325 C1323 1.561 . S
C1326 C1323 1.526 . S
C1326 C1327 1.396 1_565 S
C1326 C1331 1.390 . S
C1327 C1321 1.465 . S
C1327 C1326 1.396 1_545 S
C1327 C1328 1.399 . S
C1328 H1314 0.929 . S
C1328 C1327 1.399 . S
C1328 C1329 1.385 . S
C1329 H1315 0.931 . S
C1329 C1328 1.385 . S
C1329 C1330 1.389 . S
C1330 C1329 1.389 . S
C1330 C1331 1.387 1_545 S
C1331 H1316 0.930 . S
C1331 C1326 1.390 . S
C1331 C1330 1.387 1_565 S
H1332 C1344 0.930 . S
H1333 C1346 0.930 . S
H1334 C1347 0.930 . S
H1335 C1351 0.959 . S
H1336 C1351 0.959 . S
H1337 C1351 0.961 . S
H1338 C1352 0.960 . S
H1339 C1352 0.961 . S
H1340 C1352 0.959 . S
H1341 C1355 0.929 . S
H1342 C1356 0.931 . S
H1343 C1358 0.930 . S
C1344 H1332 0.930 . S
C1344 C1345 1.397 1_655 S
C1344 C1349 1.399 . S
C1345 C1344 1.397 1_455 S
C1345 C1346 1.381 . S
C1346 H1333 0.930 . S
C1346 C1345 1.381 . S
C1346 C1347 1.388 . S
C1347 H1334 0.930 . S
C1347 C1346 1.388 . S
C1347 C1348 1.390 . S
C1348 C1347 1.390 . S
C1348 C1349 1.394 1_455 S
C1348 C1354 1.465 . S
C1349 C1344 1.399 . S
C1349 C1348 1.394 1_655 S
C1349 C1350 1.516 . S
C1350 C1349 1.516 . S
C1350 C1351 1.502 . S
C1350 C1352 1.561 . S
C1350 C1353 1.526 . S
C1351 H1335 0.959 . S
C1351 H1336 0.959 . S
C1351 H1337 0.961 . S
C1351 C1350 1.502 . S
C1352 H1338 0.960 . S
C1352 H1339 0.961 . S
C1352 H1340 0.959 . S
C1352 C1350 1.561 . S
C1353 C1350 1.526 . S
C1353 C1354 1.396 1_655 S
C1353 C1358 1.390 . S
C1354 C1348 1.465 . S
C1354 C1353 1.396 1_455 S
C1354 C1355 1.399 . S
C1355 H1341 0.929 . S
C1355 C1354 1.399 . S
C1355 C1356 1.385 . S
C1356 H1342 0.931 . S
C1356 C1355 1.385 . S
C1356 C1357 1.389 1_455 S
C1357 C1356 1.389 1_655 S
C1357 C1358 1.387 . S
C1358 H1343 0.930 . S
C1358 C1353 1.390 . S
C1358 C1357 1.387 . S
H1359 C1371 0.930 . S
H1360 C1373 0.930 . S
H1361 C1374 0.930 . S
H1362 C1378 0.959 . S
H1363 C1378 0.959 . S
H1364 C1378 0.961 . S
H1365 C1379 0.960 . S
H1366 C1379 0.961 . S
H1367 C1379 0.959 . S
H1368 C1382 0.929 . S
H1369 C1383 0.931 . S
H1370 C1385 0.930 . S
C1371 H1359 0.930 . S
C1371 C1372 1.399 . S
C1371 C1376 1.399 . S
C1372 C1371 1.399 . S
C1372 C1373 1.376 . S
C1373 H1360 0.930 . S
C1373 C1372 1.376 . S
C1373 C1374 1.388 . S
C1374 H1361 0.930 . S
C1374 C1373 1.388 . S
C1374 C1375 1.390 . S
C1375 C1374 1.390 . S
C1375 C1376 1.394 . S
C1375 C1381 1.465 . S
C1376 C1371 1.399 . S
C1376 C1375 1.394 . S
C1376 C1377 1.516 . S
C1377 C1376 1.516 . S
C1377 C1378 1.502 . S
C1377 C1379 1.561 . S
C1377 C1380 1.526 . S
C1378 H1362 0.959 . S
C1378 H1363 0.959 . S
C1378 H1364 0.961 . S
C1378 C1377 1.502 . S
C1379 H1365 0.960 . S
C1379 H1366 0.961 . S
C1379 H1367 0.959 . S
C1379 C1377 1.561 . S
C1380 C1377 1.526 . S
C1380 C1381 1.396 . S
C1380 C1385 1.390 . S
C1381 C1375 1.465 . S
C1381 C1380 1.396 . S
C1381 C1382 1.399 . S
C1382 H1368 0.929 . S
C1382 C1381 1.399 . S
C1382 C1383 1.385 . S
C1383 H1369 0.931 . S
C1383 C1382 1.385 . S
C1383 C1384 1.389 . S
C1384 C1383 1.389 . S
C1384 C1385 1.387 . S
C1385 H1370 0.930 . S
C1385 C1380 1.390 . S
C1385 C1384 1.387 . S
H1386 C1398 0.930 . S
H1387 C1400 0.930 . S
H1388 C1401 0.930 . S
H1389 C1405 0.959 . S
H1390 C1405 0.959 . S
H1391 C1405 0.961 . S
H1392 C1406 0.960 . S
H1393 C1406 0.961 . S
H1394 C1406 0.959 . S
H1395 C1409 0.929 . S
H1396 C1410 0.931 . S
H1397 C1412 0.930 . S
C1398 H1386 0.930 . S
C1398 C1399 1.399 . S
C1398 C1403 1.399 . S
C1399 C1398 1.399 . S
C1399 C1400 1.376 . S
C1400 H1387 0.930 . S
C1400 C1399 1.376 . S
C1400 C1401 1.388 . S
C1401 H1388 0.930 . S
C1401 C1400 1.388 . S
C1401 C1402 1.390 . S
C1402 C1401 1.390 . S
C1402 C1403 1.394 . S
C1402 C1408 1.465 . S
C1403 C1398 1.399 . S
C1403 C1402 1.394 . S
C1403 C1404 1.516 . S
C1404 C1403 1.516 . S
C1404 C1405 1.502 . S
C1404 C1406 1.561 . S
C1404 C1407 1.526 . S
C1405 H1389 0.959 . S
C1405 H1390 0.959 . S
C1405 H1391 0.961 . S
C1405 C1404 1.502 . S
C1406 H1392 0.960 . S
C1406 H1393 0.961 . S
C1406 H1394 0.959 . S
C1406 C1404 1.561 . S
C1407 C1404 1.526 . S
C1407 C1408 1.396 . S
C1407 C1412 1.390 . S
C1408 C1402 1.465 . S
C1408 C1407 1.396 . S
C1408 C1409 1.399 . S
C1409 H1395 0.929 . S
C1409 C1408 1.399 . S
C1409 C1410 1.385 . S
C1410 H1396 0.931 . S
C1410 C1409 1.385 . S
C1410 C1411 1.389 . S
C1411 C1410 1.389 . S
C1411 C1412 1.387 . S
C1412 H1397 0.930 . S
C1412 C1407 1.390 . S
C1412 C1411 1.387 . S
H1413 C1425 0.930 . S
H1414 C1427 0.930 . S
H1415 C1428 0.930 . S
H1416 C1432 0.959 . S
H1417 C1432 0.959 . S
H1418 C1432 0.961 . S
H1419 C1433 0.960 . S
H1420 C1433 0.961 . S
H1421 C1433 0.959 . S
H1422 C1436 0.929 . S
H1423 C1437 0.931 . S
H1424 C1439 0.930 . S
C1425 H1413 0.930 . S
C1425 C1426 1.399 . S
C1425 C1430 1.399 . S
C1426 C1425 1.399 . S
C1426 C1427 1.376 . S
C1427 H1414 0.930 . S
C1427 C1426 1.376 . S
C1427 C1428 1.388 . S
C1428 H1415 0.930 . S
C1428 C1427 1.388 . S
C1428 C1429 1.390 . S
C1429 C1428 1.390 . S
C1429 C1430 1.394 . S
C1429 C1435 1.465 . S
C1430 C1425 1.399 . S
C1430 C1429 1.394 . S
C1430 C1431 1.516 . S
C1431 C1430 1.516 . S
C1431 C1432 1.502 . S
C1431 C1433 1.561 . S
C1431 C1434 1.526 . S
C1432 H1416 0.959 . S
C1432 H1417 0.959 . S
C1432 H1418 0.961 . S
C1432 C1431 1.502 . S
C1433 H1419 0.960 . S
C1433 H1420 0.961 . S
C1433 H1421 0.959 . S
C1433 C1431 1.561 . S
C1434 C1431 1.526 . S
C1434 C1435 1.396 . S
C1434 C1439 1.390 . S
C1435 C1429 1.465 . S
C1435 C1434 1.396 . S
C1435 C1436 1.399 . S
C1436 H1422 0.929 . S
C1436 C1435 1.399 . S
C1436 C1437 1.385 . S
C1437 H1423 0.931 . S
C1437 C1436 1.385 . S
C1437 C1438 1.389 . S
C1438 C1437 1.389 . S
C1438 C1439 1.387 . S
C1439 H1424 0.930 . S
C1439 C1434 1.390 . S
C1439 C1438 1.387 . S
H1440 C1452 0.930 . S
H1441 C1454 0.930 . S
H1442 C1455 0.930 . S
H1443 C1459 0.959 . S
H1444 C1459 0.959 . S
H1445 C1459 0.961 . S
H1446 C1460 0.960 . S
H1447 C1460 0.961 . S
H1448 C1460 0.959 . S
H1449 C1463 0.929 . S
H1450 C1464 0.931 . S
H1451 C1466 0.930 . S
C1452 H1440 0.930 . S
C1452 C1453 1.399 . S
C1452 C1457 1.399 . S
C1453 C1452 1.399 . S
C1453 C1454 1.376 . S
C1454 H1441 0.930 . S
C1454 C1453 1.376 . S
C1454 C1455 1.388 . S
C1455 H1442 0.930 . S
C1455 C1454 1.388 . S
C1455 C1456 1.390 . S
C1456 C1455 1.390 . S
C1456 C1457 1.394 . S
C1456 C1462 1.465 . S
C1457 C1452 1.399 . S
C1457 C1456 1.394 . S
C1457 C1458 1.516 . S
C1458 C1457 1.516 . S
C1458 C1459 1.502 . S
C1458 C1460 1.561 . S
C1458 C1461 1.526 . S
C1459 H1443 0.959 . S
C1459 H1444 0.959 . S
C1459 H1445 0.961 . S
C1459 C1458 1.502 . S
C1460 H1446 0.960 . S
C1460 H1447 0.961 . S
C1460 H1448 0.959 . S
C1460 C1458 1.561 . S
C1461 C1458 1.526 . S
C1461 C1462 1.396 . S
C1461 C1466 1.390 . S
C1462 C1456 1.465 . S
C1462 C1461 1.396 . S
C1462 C1463 1.399 . S
C1463 H1449 0.929 . S
C1463 C1462 1.399 . S
C1463 C1464 1.385 . S
C1464 H1450 0.931 . S
C1464 C1463 1.385 . S
C1464 C1465 1.389 . S
C1465 C1464 1.389 . S
C1465 C1466 1.387 . S
C1466 H1451 0.930 . S
C1466 C1461 1.390 . S
C1466 C1465 1.387 . S
H1467 C1479 0.930 . S
H1468 C1481 0.930 . S
H1469 C1482 0.930 . S
H1470 C1486 0.959 . S
H1471 C1486 0.959 . S
H1472 C1486 0.961 . S
H1473 C1487 0.960 . S
H1474 C1487 0.961 . S
H1475 C1487 0.959 . S
H1476 C1490 0.929 . S
H1477 C1491 0.931 . S
H1478 C1493 0.930 . S
C1479 H1467 0.930 . S
C1479 C1480 1.399 . S
C1479 C1484 1.399 . S
C1480 C1479 1.399 . S
C1480 C1481 1.376 . S
C1481 H1468 0.930 . S
C1481 C1480 1.376 . S
C1481 C1482 1.388 . S
C1482 H1469 0.930 . S
C1482 C1481 1.388 . S
C1482 C1483 1.390 . S
C1483 C1482 1.390 . S
C1483 C1484 1.394 . S
C1483 C1489 1.465 . S
C1484 C1479 1.399 . S
C1484 C1483 1.394 . S
C1484 C1485 1.516 . S
C1485 C1484 1.516 . S
C1485 C1486 1.502 . S
C1485 C1487 1.561 . S
C1485 C1488 1.526 . S
C1486 H1470 0.959 . S
C1486 H1471 0.959 . S
C1486 H1472 0.961 . S
C1486 C1485 1.502 . S
C1487 H1473 0.960 . S
C1487 H1474 0.961 . S
C1487 H1475 0.959 . S
C1487 C1485 1.561 . S
C1488 C1485 1.526 . S
C1488 C1489 1.396 . S
C1488 C1493 1.390 . S
C1489 C1483 1.465 . S
C1489 C1488 1.396 . S
C1489 C1490 1.399 . S
C1490 H1476 0.929 . S
C1490 C1489 1.399 . S
C1490 C1491 1.385 . S
C1491 H1477 0.931 . S
C1491 C1490 1.385 . S
C1491 C1492 1.389 . S
C1492 C1491 1.389 . S
C1492 C1493 1.387 . S
C1493 H1478 0.930 . S
C1493 C1488 1.390 . S
C1493 C1492 1.387 . S
H1494 C1506 0.930 . S
H1495 C1508 0.930 . S
H1496 C1509 0.930 . S
H1497 C1513 0.959 . S
H1498 C1513 0.959 . S
H1499 C1513 0.961 . S
H1500 C1514 0.960 . S
H1501 C1514 0.961 . S
H1502 C1514 0.959 . S
H1503 C1517 0.929 . S
H1504 C1518 0.931 . S
H1505 C1520 0.930 . S
C1506 H1494 0.930 . S
C1506 C1507 1.399 . S
C1506 C1511 1.399 . S
C1507 C1506 1.399 . S
C1507 C1508 1.376 . S
C1508 H1495 0.930 . S
C1508 C1507 1.376 . S
C1508 C1509 1.388 . S
C1509 H1496 0.930 . S
C1509 C1508 1.388 . S
C1509 C1510 1.390 . S
C1510 C1509 1.390 . S
C1510 C1511 1.394 . S
C1510 C1516 1.465 . S
C1511 C1506 1.399 . S
C1511 C1510 1.394 . S
C1511 C1512 1.516 . S
C1512 C1511 1.516 . S
C1512 C1513 1.502 . S
C1512 C1514 1.561 . S
C1512 C1515 1.526 . S
C1513 H1497 0.959 . S
C1513 H1498 0.959 . S
C1513 H1499 0.961 . S
C1513 C1512 1.502 . S
C1514 H1500 0.960 . S
C1514 H1501 0.961 . S
C1514 H1502 0.959 . S
C1514 C1512 1.561 . S
C1515 C1512 1.526 . S
C1515 C1516 1.396 . S
C1515 C1520 1.390 . S
C1516 C1510 1.465 . S
C1516 C1515 1.396 . S
C1516 C1517 1.399 . S
C1517 H1503 0.929 . S
C1517 C1516 1.399 . S
C1517 C1518 1.385 . S
C1518 H1504 0.931 . S
C1518 C1517 1.385 . S
C1518 C1519 1.389 . S
C1519 C1518 1.389 . S
C1519 C1520 1.387 . S
C1520 H1505 0.930 . S
C1520 C1515 1.390 . S
C1520 C1519 1.387 . S
H1521 C1533 0.930 . S
H1522 C1535 0.930 . S
H1523 C1536 0.930 . S
H1524 C1540 0.959 . S
H1525 C1540 0.959 . S
H1526 C1540 0.961 . S
H1527 C1541 0.960 . S
H1528 C1541 0.961 . S
H1529 C1541 0.959 . S
H1530 C1544 0.929 . S
H1531 C1545 0.931 . S
H1532 C1547 0.930 . S
C1533 H1521 0.930 . S
C1533 C1534 1.399 . S
C1533 C1538 1.399 . S
C1534 C1533 1.399 . S
C1534 C1535 1.376 . S
C1535 H1522 0.930 . S
C1535 C1534 1.376 . S
C1535 C1536 1.388 . S
C1536 H1523 0.930 . S
C1536 C1535 1.388 . S
C1536 C1537 1.390 . S
C1537 C1536 1.390 . S
C1537 C1538 1.394 . S
C1537 C1543 1.465 . S
C1538 C1533 1.399 . S
C1538 C1537 1.394 . S
C1538 C1539 1.516 . S
C1539 C1538 1.516 . S
C1539 C1540 1.502 . S
C1539 C1541 1.561 . S
C1539 C1542 1.526 . S
C1540 H1524 0.959 . S
C1540 H1525 0.959 . S
C1540 H1526 0.961 . S
C1540 C1539 1.502 . S
C1541 H1527 0.960 . S
C1541 H1528 0.961 . S
C1541 H1529 0.959 . S
C1541 C1539 1.561 . S
C1542 C1539 1.526 . S
C1542 C1543 1.396 . S
C1542 C1547 1.390 . S
C1543 C1537 1.465 . S
C1543 C1542 1.396 . S
C1543 C1544 1.399 . S
C1544 H1530 0.929 . S
C1544 C1543 1.399 . S
C1544 C1545 1.385 . S
C1545 H1531 0.931 . S
C1545 C1544 1.385 . S
C1545 C1546 1.389 . S
C1546 C1545 1.389 . S
C1546 C1547 1.387 . S
C1547 H1532 0.930 . S
C1547 C1542 1.390 . S
C1547 C1546 1.387 . S
H1548 C1560 0.930 . S
H1549 C1562 0.930 . S
H1550 C1563 0.930 . S
H1551 C1567 0.959 . S
H1552 C1567 0.959 . S
H1553 C1567 0.961 . S
H1554 C1568 0.960 . S
H1555 C1568 0.961 . S
H1556 C1568 0.959 . S
H1557 C1571 0.929 . S
H1558 C1572 0.931 . S
H1559 C1574 0.930 . S
C1560 H1548 0.930 . S
C1560 C1561 1.399 . S
C1560 C1565 1.399 . S
C1561 C1560 1.399 . S
C1561 C1562 1.376 . S
C1562 H1549 0.930 . S
C1562 C1561 1.376 . S
C1562 C1563 1.388 . S
C1563 H1550 0.930 . S
C1563 C1562 1.388 . S
C1563 C1564 1.390 . S
C1564 C1563 1.390 . S
C1564 C1565 1.394 . S
C1564 C1570 1.465 . S
C1565 C1560 1.399 . S
C1565 C1564 1.394 . S
C1565 C1566 1.516 . S
C1566 C1565 1.516 . S
C1566 C1567 1.502 . S
C1566 C1568 1.561 . S
C1566 C1569 1.526 . S
C1567 H1551 0.959 . S
C1567 H1552 0.959 . S
C1567 H1553 0.961 . S
C1567 C1566 1.502 . S
C1568 H1554 0.960 . S
C1568 H1555 0.961 . S
C1568 H1556 0.959 . S
C1568 C1566 1.561 . S
C1569 C1566 1.526 . S
C1569 C1570 1.396 . S
C1569 C1574 1.390 . S
C1570 C1564 1.465 . S
C1570 C1569 1.396 . S
C1570 C1571 1.399 . S
C1571 H1557 0.929 . S
C1571 C1570 1.399 . S
C1571 C1572 1.385 . S
C1572 H1558 0.931 . S
C1572 C1571 1.385 . S
C1572 C1573 1.389 . S
C1573 C1572 1.389 . S
C1573 C1574 1.387 . S
C1574 H1559 0.930 . S
C1574 C1569 1.390 . S
C1574 C1573 1.387 . S
H1575 C1587 0.930 . S
H1576 C1589 0.930 . S
H1577 C1590 0.930 . S
H1578 C1594 0.959 . S
H1579 C1594 0.959 . S
H1580 C1594 0.961 . S
H1581 C1595 0.960 . S
H1582 C1595 0.961 . S
H1583 C1595 0.959 . S
H1584 C1598 0.929 . S
H1585 C1599 0.931 . S
H1586 C1601 0.930 . S
C1587 H1575 0.930 . S
C1587 C1588 1.399 . S
C1587 C1592 1.399 . S
C1588 C1587 1.399 . S
C1588 C1589 1.376 . S
C1589 H1576 0.930 . S
C1589 C1588 1.376 . S
C1589 C1590 1.388 . S
C1590 H1577 0.930 . S
C1590 C1589 1.388 . S
C1590 C1591 1.390 . S
C1591 C1590 1.390 . S
C1591 C1592 1.394 . S
C1591 C1597 1.465 . S
C1592 C1587 1.399 . S
C1592 C1591 1.394 . S
C1592 C1593 1.516 . S
C1593 C1592 1.516 . S
C1593 C1594 1.502 . S
C1593 C1595 1.561 . S
C1593 C1596 1.526 . S
C1594 H1578 0.959 . S
C1594 H1579 0.959 . S
C1594 H1580 0.961 . S
C1594 C1593 1.502 . S
C1595 H1581 0.960 . S
C1595 H1582 0.961 . S
C1595 H1583 0.959 . S
C1595 C1593 1.561 . S
C1596 C1593 1.526 . S
C1596 C1597 1.396 . S
C1596 C1601 1.390 . S
C1597 C1591 1.465 . S
C1597 C1596 1.396 . S
C1597 C1598 1.399 . S
C1598 H1584 0.929 . S
C1598 C1597 1.399 . S
C1598 C1599 1.385 . S
C1599 H1585 0.931 . S
C1599 C1598 1.385 . S
C1599 C1600 1.389 . S
C1600 C1599 1.389 . S
C1600 C1601 1.387 . S
C1601 H1586 0.930 . S
C1601 C1596 1.390 . S
C1601 C1600 1.387 . S
H1602 C1614 0.930 . S
H1603 C1616 0.930 . S
H1604 C1617 0.930 . S
H1605 C1621 0.959 . S
H1606 C1621 0.959 . S
H1607 C1621 0.961 . S
H1608 C1622 0.960 . S
H1609 C1622 0.961 . S
H1610 C1622 0.959 . S
H1611 C1625 0.929 . S
H1612 C1626 0.931 . S
H1613 C1628 0.930 . S
C1614 H1602 0.930 . S
C1614 C1615 1.399 . S
C1614 C1619 1.399 . S
C1615 C1614 1.399 . S
C1615 C1616 1.376 . S
C1616 H1603 0.930 . S
C1616 C1615 1.376 . S
C1616 C1617 1.388 . S
C1617 H1604 0.930 . S
C1617 C1616 1.388 . S
C1617 C1618 1.390 . S
C1618 C1617 1.390 . S
C1618 C1619 1.394 . S
C1618 C1624 1.465 . S
C1619 C1614 1.399 . S
C1619 C1618 1.394 . S
C1619 C1620 1.516 . S
C1620 C1619 1.516 . S
C1620 C1621 1.502 . S
C1620 C1622 1.561 . S
C1620 C1623 1.526 . S
C1621 H1605 0.959 . S
C1621 H1606 0.959 . S
C1621 H1607 0.961 . S
C1621 C1620 1.502 . S
C1622 H1608 0.960 . S
C1622 H1609 0.961 . S
C1622 H1610 0.959 . S
C1622 C1620 1.561 . S
C1623 C1620 1.526 . S
C1623 C1624 1.396 . S
C1623 C1628 1.390 . S
C1624 C1618 1.465 . S
C1624 C1623 1.396 . S
C1624 C1625 1.399 . S
C1625 H1611 0.929 . S
C1625 C1624 1.399 . S
C1625 C1626 1.385 . S
C1626 H1612 0.931 . S
C1626 C1625 1.385 . S
C1626 C1627 1.389 . S
C1627 C1626 1.389 . S
C1627 C1628 1.387 . S
C1628 H1613 0.930 . S
C1628 C1623 1.390 . S
C1628 C1627 1.387 . S
H1629 C1641 0.930 . S
H1630 C1643 0.930 . S
H1631 C1644 0.930 . S
H1632 C1648 0.959 . S
H1633 C1648 0.959 . S
H1634 C1648 0.961 . S
H1635 C1649 0.960 . S
H1636 C1649 0.961 . S
H1637 C1649 0.959 . S
H1638 C1652 0.929 . S
H1639 C1653 0.931 . S
H1640 C1655 0.930 . S
C1641 H1629 0.930 . S
C1641 C1642 1.399 . S
C1641 C1646 1.399 . S
C1642 C1641 1.399 . S
C1642 C1643 1.376 . S
C1643 H1630 0.930 . S
C1643 C1642 1.376 . S
C1643 C1644 1.388 . S
C1644 H1631 0.930 . S
C1644 C1643 1.388 . S
C1644 C1645 1.390 . S
C1645 C1644 1.390 . S
C1645 C1646 1.394 . S
C1645 C1651 1.465 . S
C1646 C1641 1.399 . S
C1646 C1645 1.394 . S
C1646 C1647 1.516 . S
C1647 C1646 1.516 . S
C1647 C1648 1.502 . S
C1647 C1649 1.561 . S
C1647 C1650 1.526 . S
C1648 H1632 0.959 . S
C1648 H1633 0.959 . S
C1648 H1634 0.961 . S
C1648 C1647 1.502 . S
C1649 H1635 0.960 . S
C1649 H1636 0.961 . S
C1649 H1637 0.959 . S
C1649 C1647 1.561 . S
C1650 C1647 1.526 . S
C1650 C1651 1.396 . S
C1650 C1655 1.390 . S
C1651 C1645 1.465 . S
C1651 C1650 1.396 . S
C1651 C1652 1.399 . S
C1652 H1638 0.929 . S
C1652 C1651 1.399 . S
C1652 C1653 1.385 . S
C1653 H1639 0.931 . S
C1653 C1652 1.385 . S
C1653 C1654 1.389 . S
C1654 C1653 1.389 . S
C1654 C1655 1.387 . S
C1655 H1640 0.930 . S
C1655 C1650 1.390 . S
C1655 C1654 1.387 . S
H1656 C1668 0.930 . S
H1657 C1670 0.930 . S
H1658 C1671 0.930 . S
H1659 C1675 0.959 . S
H1660 C1675 0.959 . S
H1661 C1675 0.961 . S
H1662 C1676 0.960 . S
H1663 C1676 0.961 . S
H1664 C1676 0.959 . S
H1665 C1679 0.929 . S
H1666 C1680 0.931 . S
H1667 C1682 0.930 . S
C1668 H1656 0.930 . S
C1668 C1669 1.399 . S
C1668 C1673 1.399 . S
C1669 C1668 1.399 . S
C1669 C1670 1.376 . S
C1670 H1657 0.930 . S
C1670 C1669 1.376 . S
C1670 C1671 1.388 . S
C1671 H1658 0.930 . S
C1671 C1670 1.388 . S
C1671 C1672 1.390 . S
C1672 C1671 1.390 . S
C1672 C1673 1.394 . S
C1672 C1678 1.465 . S
C1673 C1668 1.399 . S
C1673 C1672 1.394 . S
C1673 C1674 1.516 . S
C1674 C1673 1.516 . S
C1674 C1675 1.502 . S
C1674 C1676 1.561 . S
C1674 C1677 1.526 . S
C1675 H1659 0.959 . S
C1675 H1660 0.959 . S
C1675 H1661 0.961 . S
C1675 C1674 1.502 . S
C1676 H1662 0.960 . S
C1676 H1663 0.961 . S
C1676 H1664 0.959 . S
C1676 C1674 1.561 . S
C1677 C1674 1.526 . S
C1677 C1678 1.396 . S
C1677 C1682 1.390 . S
C1678 C1672 1.465 . S
C1678 C1677 1.396 . S
C1678 C1679 1.399 . S
C1679 H1665 0.929 . S
C1679 C1678 1.399 . S
C1679 C1680 1.385 . S
C1680 H1666 0.931 . S
C1680 C1679 1.385 . S
C1680 C1681 1.389 . S
C1681 C1680 1.389 . S
C1681 C1682 1.387 . S
C1682 H1667 0.930 . S
C1682 C1677 1.390 . S
C1682 C1681 1.387 . S
H1683 C1695 0.930 . S
H1684 C1697 0.930 . S
H1685 C1698 0.930 . S
H1686 C1702 0.959 . S
H1687 C1702 0.959 . S
H1688 C1702 0.961 . S
H1689 C1703 0.960 . S
H1690 C1703 0.961 . S
H1691 C1703 0.959 . S
H1692 C1706 0.929 . S
H1693 C1707 0.931 . S
H1694 C1709 0.930 . S
C1695 H1683 0.930 . S
C1695 C1696 1.399 . S
C1695 C1700 1.399 . S
C1696 C1695 1.399 . S
C1696 C1697 1.376 . S
C1697 H1684 0.930 . S
C1697 C1696 1.376 . S
C1697 C1698 1.388 . S
C1698 H1685 0.930 . S
C1698 C1697 1.388 . S
C1698 C1699 1.390 . S
C1699 C1698 1.390 . S
C1699 C1700 1.394 . S
C1699 C1705 1.465 . S
C1700 C1695 1.399 . S
C1700 C1699 1.394 . S
C1700 C1701 1.516 . S
C1701 C1700 1.516 . S
C1701 C1702 1.502 . S
C1701 C1703 1.561 . S
C1701 C1704 1.526 . S
C1702 H1686 0.959 . S
C1702 H1687 0.959 . S
C1702 H1688 0.961 . S
C1702 C1701 1.502 . S
C1703 H1689 0.960 . S
C1703 H1690 0.961 . S
C1703 H1691 0.959 . S
C1703 C1701 1.561 . S
C1704 C1701 1.526 . S
C1704 C1705 1.396 . S
C1704 C1709 1.390 . S
C1705 C1699 1.465 . S
C1705 C1704 1.396 . S
C1705 C1706 1.399 . S
C1706 H1692 0.929 . S
C1706 C1705 1.399 . S
C1706 C1707 1.385 . S
C1707 H1693 0.931 . S
C1707 C1706 1.385 . S
C1707 C1708 1.389 . S
C1708 C1707 1.389 . S
C1708 C1709 1.387 . S
C1709 H1694 0.930 . S
C1709 C1704 1.390 . S
C1709 C1708 1.387 . S
H1710 C1722 0.930 . S
H1711 C1724 0.930 . S
H1712 C1725 0.930 . S
H1713 C1729 0.959 . S
H1714 C1729 0.959 . S
H1715 C1729 0.961 . S
H1716 C1730 0.960 . S
H1717 C1730 0.961 . S
H1718 C1730 0.959 . S
H1719 C1733 0.929 . S
H1720 C1734 0.931 . S
H1721 C1736 0.930 . S
C1722 H1710 0.930 . S
C1722 C1723 1.399 . S
C1722 C1727 1.399 . S
C1723 C1722 1.399 . S
C1723 C1724 1.376 . S
C1724 H1711 0.930 . S
C1724 C1723 1.376 . S
C1724 C1725 1.388 . S
C1725 H1712 0.930 . S
C1725 C1724 1.388 . S
C1725 C1726 1.390 . S
C1726 C1725 1.390 . S
C1726 C1727 1.394 . S
C1726 C1732 1.465 . S
C1727 C1722 1.399 . S
C1727 C1726 1.394 . S
C1727 C1728 1.516 . S
C1728 C1727 1.516 . S
C1728 C1729 1.502 . S
C1728 C1730 1.561 . S
C1728 C1731 1.526 . S
C1729 H1713 0.959 . S
C1729 H1714 0.959 . S
C1729 H1715 0.961 . S
C1729 C1728 1.502 . S
C1730 H1716 0.960 . S
C1730 H1717 0.961 . S
C1730 H1718 0.959 . S
C1730 C1728 1.561 . S
C1731 C1728 1.526 . S
C1731 C1732 1.396 . S
C1731 C1736 1.390 . S
C1732 C1726 1.465 . S
C1732 C1731 1.396 . S
C1732 C1733 1.399 . S
C1733 H1719 0.929 . S
C1733 C1732 1.399 . S
C1733 C1734 1.385 . S
C1734 H1720 0.931 . S
C1734 C1733 1.385 . S
C1734 C1735 1.389 . S
C1735 C1734 1.389 . S
C1735 C1736 1.387 . S
C1736 H1721 0.930 . S
C1736 C1731 1.390 . S
C1736 C1735 1.387 . S
H1737 C1749 0.930 . S
H1738 C1751 0.930 . S
H1739 C1752 0.930 . S
H1740 C1756 0.959 . S
H1741 C1756 0.959 . S
H1742 C1756 0.961 . S
H1743 C1757 0.960 . S
H1744 C1757 0.961 . S
H1745 C1757 0.959 . S
H1746 C1760 0.929 . S
H1747 C1761 0.931 . S
H1748 C1763 0.930 . S
C1749 H1737 0.930 . S
C1749 C1750 1.399 . S
C1749 C1754 1.399 . S
C1750 C1749 1.399 . S
C1750 C1751 1.376 . S
C1751 H1738 0.930 . S
C1751 C1750 1.376 . S
C1751 C1752 1.388 . S
C1752 H1739 0.930 . S
C1752 C1751 1.388 . S
C1752 C1753 1.390 . S
C1753 C1752 1.390 . S
C1753 C1754 1.394 . S
C1753 C1759 1.465 . S
C1754 C1749 1.399 . S
C1754 C1753 1.394 . S
C1754 C1755 1.516 . S
C1755 C1754 1.516 . S
C1755 C1756 1.502 . S
C1755 C1757 1.561 . S
C1755 C1758 1.526 . S
C1756 H1740 0.959 . S
C1756 H1741 0.959 . S
C1756 H1742 0.961 . S
C1756 C1755 1.502 . S
C1757 H1743 0.960 . S
C1757 H1744 0.961 . S
C1757 H1745 0.959 . S
C1757 C1755 1.561 . S
C1758 C1755 1.526 . S
C1758 C1759 1.396 . S
C1758 C1763 1.390 . S
C1759 C1753 1.465 . S
C1759 C1758 1.396 . S
C1759 C1760 1.399 . S
C1760 H1746 0.929 . S
C1760 C1759 1.399 . S
C1760 C1761 1.385 . S
C1761 H1747 0.931 . S
C1761 C1760 1.385 . S
C1761 C1762 1.389 . S
C1762 C1761 1.389 . S
C1762 C1763 1.387 . S
C1763 H1748 0.930 . S
C1763 C1758 1.390 . S
C1763 C1762 1.387 . S
H1764 C1776 0.930 . S
H1765 C1778 0.930 . S
H1766 C1779 0.930 . S
H1767 C1783 0.959 . S
H1768 C1783 0.959 . S
H1769 C1783 0.961 . S
H1770 C1784 0.960 . S
H1771 C1784 0.961 . S
H1772 C1784 0.959 . S
H1773 C1787 0.929 . S
H1774 C1788 0.931 . S
H1775 C1790 0.930 . S
C1776 H1764 0.930 . S
C1776 C1777 1.399 . S
C1776 C1781 1.399 . S
C1777 C1776 1.399 . S
C1777 C1778 1.376 . S
C1778 H1765 0.930 . S
C1778 C1777 1.376 . S
C1778 C1779 1.388 . S
C1779 H1766 0.930 . S
C1779 C1778 1.388 . S
C1779 C1780 1.390 . S
C1780 C1779 1.390 . S
C1780 C1781 1.394 . S
C1780 C1786 1.465 . S
C1781 C1776 1.399 . S
C1781 C1780 1.394 . S
C1781 C1782 1.516 . S
C1782 C1781 1.516 . S
C1782 C1783 1.502 . S
C1782 C1784 1.561 . S
C1782 C1785 1.526 . S
C1783 H1767 0.959 . S
C1783 H1768 0.959 . S
C1783 H1769 0.961 . S
C1783 C1782 1.502 . S
C1784 H1770 0.960 . S
C1784 H1771 0.961 . S
C1784 H1772 0.959 . S
C1784 C1782 1.561 . S
C1785 C1782 1.526 . S
C1785 C1786 1.396 . S
C1785 C1790 1.390 . S
C1786 C1780 1.465 . S
C1786 C1785 1.396 . S
C1786 C1787 1.399 . S
C1787 H1773 0.929 . S
C1787 C1786 1.399 . S
C1787 C1788 1.385 . S
C1788 H1774 0.931 . S
C1788 C1787 1.385 . S
C1788 C1789 1.389 . S
C1789 C1788 1.389 . S
C1789 C1790 1.387 . S
C1790 H1775 0.930 . S
C1790 C1785 1.390 . S
C1790 C1789 1.387 . S
H1791 C1803 0.930 . S
H1792 C1805 0.930 . S
H1793 C1806 0.930 . S
H1794 C1810 0.959 . S
H1795 C1810 0.959 . S
H1796 C1810 0.961 . S
H1797 C1811 0.960 . S
H1798 C1811 0.961 . S
H1799 C1811 0.959 . S
H1800 C1814 0.929 . S
H1801 C1815 0.931 . S
H1802 C1817 0.930 . S
C1803 H1791 0.930 . S
C1803 C1804 1.399 . S
C1803 C1808 1.399 . S
C1804 C1803 1.399 . S
C1804 C1805 1.376 . S
C1805 H1792 0.930 . S
C1805 C1804 1.376 . S
C1805 C1806 1.388 . S
C1806 H1793 0.930 . S
C1806 C1805 1.388 . S
C1806 C1807 1.390 . S
C1807 C1806 1.390 . S
C1807 C1808 1.394 . S
C1807 C1813 1.465 . S
C1808 C1803 1.399 . S
C1808 C1807 1.394 . S
C1808 C1809 1.516 . S
C1809 C1808 1.516 . S
C1809 C1810 1.502 . S
C1809 C1811 1.561 . S
C1809 C1812 1.526 . S
C1810 H1794 0.959 . S
C1810 H1795 0.959 . S
C1810 H1796 0.961 . S
C1810 C1809 1.502 . S
C1811 H1797 0.960 . S
C1811 H1798 0.961 . S
C1811 H1799 0.959 . S
C1811 C1809 1.561 . S
C1812 C1809 1.526 . S
C1812 C1813 1.396 . S
C1812 C1817 1.390 . S
C1813 C1807 1.465 . S
C1813 C1812 1.396 . S
C1813 C1814 1.399 . S
C1814 H1800 0.929 . S
C1814 C1813 1.399 . S
C1814 C1815 1.385 . S
C1815 H1801 0.931 . S
C1815 C1814 1.385 . S
C1815 C1816 1.389 . S
C1816 C1815 1.389 . S
C1816 C1817 1.387 . S
C1817 H1802 0.930 . S
C1817 C1812 1.390 . S
C1817 C1816 1.387 . S
H1818 C1830 0.930 . S
H1819 C1832 0.930 . S
H1820 C1833 0.930 . S
H1821 C1837 0.959 . S
H1822 C1837 0.959 . S
H1823 C1837 0.961 . S
H1824 C1838 0.960 . S
H1825 C1838 0.961 . S
H1826 C1838 0.959 . S
H1827 C1841 0.929 . S
H1828 C1842 0.931 . S
H1829 C1844 0.930 . S
C1830 H1818 0.930 . S
C1830 C1831 1.399 . S
C1830 C1835 1.399 . S
C1831 C1830 1.399 . S
C1831 C1832 1.376 . S
C1832 H1819 0.930 . S
C1832 C1831 1.376 . S
C1832 C1833 1.388 . S
C1833 H1820 0.930 . S
C1833 C1832 1.388 . S
C1833 C1834 1.390 . S
C1834 C1833 1.390 . S
C1834 C1835 1.394 . S
C1834 C1840 1.465 . S
C1835 C1830 1.399 . S
C1835 C1834 1.394 . S
C1835 C1836 1.516 . S
C1836 C1835 1.516 . S
C1836 C1837 1.502 . S
C1836 C1838 1.561 . S
C1836 C1839 1.526 . S
C1837 H1821 0.959 . S
C1837 H1822 0.959 . S
C1837 H1823 0.961 . S
C1837 C1836 1.502 . S
C1838 H1824 0.960 . S
C1838 H1825 0.961 . S
C1838 H1826 0.959 . S
C1838 C1836 1.561 . S
C1839 C1836 1.526 . S
C1839 C1840 1.396 . S
C1839 C1844 1.390 . S
C1840 C1834 1.465 . S
C1840 C1839 1.396 . S
C1840 C1841 1.399 . S
C1841 H1827 0.929 . S
C1841 C1840 1.399 . S
C1841 C1842 1.385 . S
C1842 H1828 0.931 . S
C1842 C1841 1.385 . S
C1842 C1843 1.389 . S
C1843 C1842 1.389 . S
C1843 C1844 1.387 . S
C1844 H1829 0.930 . S
C1844 C1839 1.390 . S
C1844 C1843 1.387 . S
H1845 C1857 0.930 . S
H1846 C1859 0.930 . S
H1847 C1860 0.930 . S
H1848 C1864 0.959 . S
H1849 C1864 0.959 . S
H1850 C1864 0.961 . S
H1851 C1865 0.960 . S
H1852 C1865 0.961 . S
H1853 C1865 0.959 . S
H1854 C1868 0.929 . S
H1855 C1869 0.931 . S
H1856 C1871 0.930 . S
C1857 H1845 0.930 . S
C1857 C1858 1.399 . S
C1857 C1862 1.399 . S
C1858 C1857 1.399 . S
C1858 C1859 1.376 . S
C1859 H1846 0.930 . S
C1859 C1858 1.376 . S
C1859 C1860 1.388 . S
C1860 H1847 0.930 . S
C1860 C1859 1.388 . S
C1860 C1861 1.390 . S
C1861 C1860 1.390 . S
C1861 C1862 1.394 . S
C1861 C1867 1.465 . S
C1862 C1857 1.399 . S
C1862 C1861 1.394 . S
C1862 C1863 1.516 . S
C1863 C1862 1.516 . S
C1863 C1864 1.502 . S
C1863 C1865 1.561 . S
C1863 C1866 1.526 . S
C1864 H1848 0.959 . S
C1864 H1849 0.959 . S
C1864 H1850 0.961 . S
C1864 C1863 1.502 . S
C1865 H1851 0.960 . S
C1865 H1852 0.961 . S
C1865 H1853 0.959 . S
C1865 C1863 1.561 . S
C1866 C1863 1.526 . S
C1866 C1867 1.396 . S
C1866 C1871 1.390 . S
C1867 C1861 1.465 . S
C1867 C1866 1.396 . S
C1867 C1868 1.399 . S
C1868 H1854 0.929 . S
C1868 C1867 1.399 . S
C1868 C1869 1.385 . S
C1869 H1855 0.931 . S
C1869 C1868 1.385 . S
C1869 C1870 1.389 . S
C1870 C1869 1.389 . S
C1870 C1871 1.387 . S
C1871 H1856 0.930 . S
C1871 C1866 1.390 . S
C1871 C1870 1.387 . S
H1872 C1884 0.930 . S
H1873 C1886 0.930 . S
H1874 C1887 0.930 . S
H1875 C1891 0.959 . S
H1876 C1891 0.959 . S
H1877 C1891 0.961 . S
H1878 C1892 0.960 . S
H1879 C1892 0.961 . S
H1880 C1892 0.959 . S
H1881 C1895 0.929 . S
H1882 C1896 0.931 . S
H1883 C1898 0.930 . S
C1884 H1872 0.930 . S
C1884 C1885 1.399 . S
C1884 C1889 1.399 . S
C1885 C1884 1.399 . S
C1885 C1886 1.376 . S
C1886 H1873 0.930 . S
C1886 C1885 1.376 . S
C1886 C1887 1.388 . S
C1887 H1874 0.930 . S
C1887 C1886 1.388 . S
C1887 C1888 1.390 . S
C1888 C1887 1.390 . S
C1888 C1889 1.394 . S
C1888 C1894 1.465 . S
C1889 C1884 1.399 . S
C1889 C1888 1.394 . S
C1889 C1890 1.516 . S
C1890 C1889 1.516 . S
C1890 C1891 1.502 . S
C1890 C1892 1.561 . S
C1890 C1893 1.526 . S
C1891 H1875 0.959 . S
C1891 H1876 0.959 . S
C1891 H1877 0.961 . S
C1891 C1890 1.502 . S
C1892 H1878 0.960 . S
C1892 H1879 0.961 . S
C1892 H1880 0.959 . S
C1892 C1890 1.561 . S
C1893 C1890 1.526 . S
C1893 C1894 1.396 . S
C1893 C1898 1.390 . S
C1894 C1888 1.465 . S
C1894 C1893 1.396 . S
C1894 C1895 1.399 . S
C1895 H1881 0.929 . S
C1895 C1894 1.399 . S
C1895 C1896 1.385 . S
C1896 H1882 0.931 . S
C1896 C1895 1.385 . S
C1896 C1897 1.389 . S
C1897 C1896 1.389 . S
C1897 C1898 1.387 . S
C1898 H1883 0.930 . S
C1898 C1893 1.390 . S
C1898 C1897 1.387 . S
H1899 C1911 0.930 . S
H1900 C1913 0.930 . S
H1901 C1914 0.930 . S
H1902 C1918 0.959 . S
H1903 C1918 0.959 . S
H1904 C1918 0.961 . S
H1905 C1919 0.960 . S
H1906 C1919 0.961 . S
H1907 C1919 0.959 . S
H1908 C1922 0.929 . S
H1909 C1923 0.931 . S
H1910 C1925 0.930 . S
C1911 H1899 0.930 . S
C1911 C1912 1.399 . S
C1911 C1916 1.399 . S
C1912 C1911 1.399 . S
C1912 C1913 1.376 . S
C1913 H1900 0.930 . S
C1913 C1912 1.376 . S
C1913 C1914 1.388 . S
C1914 H1901 0.930 . S
C1914 C1913 1.388 . S
C1914 C1915 1.390 . S
C1915 C1914 1.390 . S
C1915 C1916 1.394 . S
C1915 C1921 1.465 . S
C1916 C1911 1.399 . S
C1916 C1915 1.394 . S
C1916 C1917 1.516 . S
C1917 C1916 1.516 . S
C1917 C1918 1.502 . S
C1917 C1919 1.561 . S
C1917 C1920 1.526 . S
C1918 H1902 0.959 . S
C1918 H1903 0.959 . S
C1918 H1904 0.961 . S
C1918 C1917 1.502 . S
C1919 H1905 0.960 . S
C1919 H1906 0.961 . S
C1919 H1907 0.959 . S
C1919 C1917 1.561 . S
C1920 C1917 1.526 . S
C1920 C1921 1.396 . S
C1920 C1925 1.390 . S
C1921 C1915 1.465 . S
C1921 C1920 1.396 . S
C1921 C1922 1.399 . S
C1922 H1908 0.929 . S
C1922 C1921 1.399 . S
C1922 C1923 1.385 . S
C1923 H1909 0.931 . S
C1923 C1922 1.385 . S
C1923 C1924 1.389 . S
C1924 C1923 1.389 . S
C1924 C1925 1.387 . S
C1925 H1910 0.930 . S
C1925 C1920 1.390 . S
C1925 C1924 1.387 . S
H1926 C1938 0.930 . S
H1927 C1940 0.930 . S
H1928 C1941 0.930 . S
H1929 C1945 0.959 . S
H1930 C1945 0.959 . S
H1931 C1945 0.961 . S
H1932 C1946 0.960 . S
H1933 C1946 0.961 . S
H1934 C1946 0.959 . S
H1935 C1949 0.929 . S
H1936 C1950 0.931 . S
H1937 C1952 0.930 . S
C1938 H1926 0.930 . S
C1938 C1939 1.399 . S
C1938 C1943 1.399 . S
C1939 C1938 1.399 . S
C1939 C1940 1.376 . S
C1940 H1927 0.930 . S
C1940 C1939 1.376 . S
C1940 C1941 1.388 . S
C1941 H1928 0.930 . S
C1941 C1940 1.388 . S
C1941 C1942 1.390 . S
C1942 C1941 1.390 . S
C1942 C1943 1.394 . S
C1942 C1948 1.465 . S
C1943 C1938 1.399 . S
C1943 C1942 1.394 . S
C1943 C1944 1.516 . S
C1944 C1943 1.516 . S
C1944 C1945 1.502 . S
C1944 C1946 1.561 . S
C1944 C1947 1.526 . S
C1945 H1929 0.959 . S
C1945 H1930 0.959 . S
C1945 H1931 0.961 . S
C1945 C1944 1.502 . S
C1946 H1932 0.960 . S
C1946 H1933 0.961 . S
C1946 H1934 0.959 . S
C1946 C1944 1.561 . S
C1947 C1944 1.526 . S
C1947 C1948 1.396 . S
C1947 C1952 1.390 . S
C1948 C1942 1.465 . S
C1948 C1947 1.396 . S
C1948 C1949 1.399 . S
C1949 H1935 0.929 . S
C1949 C1948 1.399 . S
C1949 C1950 1.385 . S
C1950 H1936 0.931 . S
C1950 C1949 1.385 . S
C1950 C1951 1.389 . S
C1951 C1950 1.389 . S
C1951 C1952 1.387 . S
C1952 H1937 0.930 . S
C1952 C1947 1.390 . S
C1952 C1951 1.387 . S
H1953 C1965 0.930 . S
H1954 C1967 0.930 . S
H1955 C1968 0.930 . S
H1956 C1972 0.959 . S
H1957 C1972 0.959 . S
H1958 C1972 0.961 . S
H1959 C1973 0.960 . S
H1960 C1973 0.961 . S
H1961 C1973 0.959 . S
H1962 C1976 0.929 . S
H1963 C1977 0.931 . S
H1964 C1979 0.930 . S
C1965 H1953 0.930 . S
C1965 C1966 1.399 . S
C1965 C1970 1.399 . S
C1966 C1965 1.399 . S
C1966 C1967 1.376 . S
C1967 H1954 0.930 . S
C1967 C1966 1.376 . S
C1967 C1968 1.388 . S
C1968 H1955 0.930 . S
C1968 C1967 1.388 . S
C1968 C1969 1.390 . S
C1969 C1968 1.390 . S
C1969 C1970 1.394 . S
C1969 C1975 1.465 . S
C1970 C1965 1.399 . S
C1970 C1969 1.394 . S
C1970 C1971 1.516 . S
C1971 C1970 1.516 . S
C1971 C1972 1.502 . S
C1971 C1973 1.561 . S
C1971 C1974 1.526 . S
C1972 H1956 0.959 . S
C1972 H1957 0.959 . S
C1972 H1958 0.961 . S
C1972 C1971 1.502 . S
C1973 H1959 0.960 . S
C1973 H1960 0.961 . S
C1973 H1961 0.959 . S
C1973 C1971 1.561 . S
C1974 C1971 1.526 . S
C1974 C1975 1.396 . S
C1974 C1979 1.390 . S
C1975 C1969 1.465 . S
C1975 C1974 1.396 . S
C1975 C1976 1.399 . S
C1976 H1962 0.929 . S
C1976 C1975 1.399 . S
C1976 C1977 1.385 . S
C1977 H1963 0.931 . S
C1977 C1976 1.385 . S
C1977 C1978 1.389 . S
C1978 C1977 1.389 . S
C1978 C1979 1.387 . S
C1979 H1964 0.930 . S
C1979 C1974 1.390 . S
C1979 C1978 1.387 . S
H1980 C1992 0.930 . S
H1981 C1994 0.930 . S
H1982 C1995 0.930 . S
H1983 C1999 0.959 . S
H1984 C1999 0.959 . S
H1985 C1999 0.961 . S
H1986 C2000 0.960 . S
H1987 C2000 0.961 . S
H1988 C2000 0.959 . S
H1989 C2003 0.929 . S
H1990 C2004 0.931 . S
H1991 C2006 0.930 . S
C1992 H1980 0.930 . S
C1992 C1993 1.399 . S
C1992 C1997 1.399 . S
C1993 C1992 1.399 . S
C1993 C1994 1.376 . S
C1994 H1981 0.930 . S
C1994 C1993 1.376 . S
C1994 C1995 1.388 . S
C1995 H1982 0.930 . S
C1995 C1994 1.388 . S
C1995 C1996 1.390 . S
C1996 C1995 1.390 . S
C1996 C1997 1.394 . S
C1996 C2002 1.465 . S
C1997 C1992 1.399 . S
C1997 C1996 1.394 . S
C1997 C1998 1.516 . S
C1998 C1997 1.516 . S
C1998 C1999 1.502 . S
C1998 C2000 1.561 . S
C1998 C2001 1.526 . S
C1999 H1983 0.959 . S
C1999 H1984 0.959 . S
C1999 H1985 0.961 . S
C1999 C1998 1.502 . S
C2000 H1986 0.960 . S
C2000 H1987 0.961 . S
C2000 H1988 0.959 . S
C2000 C1998 1.561 . S
C2001 C1998 1.526 . S
C2001 C2002 1.396 . S
C2001 C2006 1.390 . S
C2002 C1996 1.465 . S
C2002 C2001 1.396 . S
C2002 C2003 1.399 . S
C2003 H1989 0.929 . S
C2003 C2002 1.399 . S
C2003 C2004 1.385 . S
C2004 H1990 0.931 . S
C2004 C2003 1.385 . S
C2004 C2005 1.389 . S
C2005 C2004 1.389 . S
C2005 C2006 1.387 . S
C2006 H1991 0.930 . S
C2006 C2001 1.390 . S
C2006 C2005 1.387 . S
H2007 C2019 0.930 . S
H2008 C2021 0.930 . S
H2009 C2022 0.930 . S
H2010 C2026 0.959 . S
H2011 C2026 0.959 . S
H2012 C2026 0.961 . S
H2013 C2027 0.960 . S
H2014 C2027 0.961 . S
H2015 C2027 0.959 . S
H2016 C2030 0.929 . S
H2017 C2031 0.931 . S
H2018 C2033 0.930 . S
C2019 H2007 0.930 . S
C2019 C2020 1.399 . S
C2019 C2024 1.399 . S
C2020 C2019 1.399 . S
C2020 C2021 1.376 . S
C2021 H2008 0.930 . S
C2021 C2020 1.376 . S
C2021 C2022 1.388 . S
C2022 H2009 0.930 . S
C2022 C2021 1.388 . S
C2022 C2023 1.390 . S
C2023 C2022 1.390 . S
C2023 C2024 1.394 . S
C2023 C2029 1.465 . S
C2024 C2019 1.399 . S
C2024 C2023 1.394 . S
C2024 C2025 1.516 . S
C2025 C2024 1.516 . S
C2025 C2026 1.502 . S
C2025 C2027 1.561 . S
C2025 C2028 1.526 . S
C2026 H2010 0.959 . S
C2026 H2011 0.959 . S
C2026 H2012 0.961 . S
C2026 C2025 1.502 . S
C2027 H2013 0.960 . S
C2027 H2014 0.961 . S
C2027 H2015 0.959 . S
C2027 C2025 1.561 . S
C2028 C2025 1.526 . S
C2028 C2029 1.396 . S
C2028 C2033 1.390 . S
C2029 C2023 1.465 . S
C2029 C2028 1.396 . S
C2029 C2030 1.399 . S
C2030 H2016 0.929 . S
C2030 C2029 1.399 . S
C2030 C2031 1.385 . S
C2031 H2017 0.931 . S
C2031 C2030 1.385 . S
C2031 C2032 1.389 . S
C2032 C2031 1.389 . S
C2032 C2033 1.387 . S
C2033 H2018 0.930 . S
C2033 C2028 1.390 . S
C2033 C2032 1.387 . S
H2034 C2046 0.930 . S
H2035 C2048 0.930 . S
H2036 C2049 0.930 . S
H2037 C2053 0.959 . S
H2038 C2053 0.959 . S
H2039 C2053 0.961 . S
H2040 C2054 0.960 . S
H2041 C2054 0.961 . S
H2042 C2054 0.959 . S
H2043 C2057 0.929 . S
H2044 C2058 0.931 . S
H2045 C2060 0.930 . S
C2046 H2034 0.930 . S
C2046 C2047 1.399 . S
C2046 C2051 1.399 . S
C2047 C2046 1.399 . S
C2047 C2048 1.376 . S
C2048 H2035 0.930 . S
C2048 C2047 1.376 . S
C2048 C2049 1.388 . S
C2049 H2036 0.930 . S
C2049 C2048 1.388 . S
C2049 C2050 1.390 . S
C2050 C2049 1.390 . S
C2050 C2051 1.394 . S
C2050 C2056 1.465 . S
C2051 C2046 1.399 . S
C2051 C2050 1.394 . S
C2051 C2052 1.516 . S
C2052 C2051 1.516 . S
C2052 C2053 1.502 . S
C2052 C2054 1.561 . S
C2052 C2055 1.526 . S
C2053 H2037 0.959 . S
C2053 H2038 0.959 . S
C2053 H2039 0.961 . S
C2053 C2052 1.502 . S
C2054 H2040 0.960 . S
C2054 H2041 0.961 . S
C2054 H2042 0.959 . S
C2054 C2052 1.561 . S
C2055 C2052 1.526 . S
C2055 C2056 1.396 . S
C2055 C2060 1.390 . S
C2056 C2050 1.465 . S
C2056 C2055 1.396 . S
C2056 C2057 1.399 . S
C2057 H2043 0.929 . S
C2057 C2056 1.399 . S
C2057 C2058 1.385 . S
C2058 H2044 0.931 . S
C2058 C2057 1.385 . S
C2058 C2059 1.389 . S
C2059 C2058 1.389 . S
C2059 C2060 1.387 . S
C2060 H2045 0.930 . S
C2060 C2055 1.390 . S
C2060 C2059 1.387 . S
H2061 C2073 0.930 . S
H2062 C2075 0.930 . S
H2063 C2076 0.930 . S
H2064 C2080 0.959 . S
H2065 C2080 0.959 . S
H2066 C2080 0.961 . S
H2067 C2081 0.960 . S
H2068 C2081 0.961 . S
H2069 C2081 0.959 . S
H2070 C2084 0.929 . S
H2071 C2085 0.931 . S
H2072 C2087 0.930 . S
C2073 H2061 0.930 . S
C2073 C2074 1.399 . S
C2073 C2078 1.399 . S
C2074 C2073 1.399 . S
C2074 C2075 1.376 . S
C2075 H2062 0.930 . S
C2075 C2074 1.376 . S
C2075 C2076 1.388 . S
C2076 H2063 0.930 . S
C2076 C2075 1.388 . S
C2076 C2077 1.390 . S
C2077 C2076 1.390 . S
C2077 C2078 1.394 . S
C2077 C2083 1.465 . S
C2078 C2073 1.399 . S
C2078 C2077 1.394 . S
C2078 C2079 1.516 . S
C2079 C2078 1.516 . S
C2079 C2080 1.502 . S
C2079 C2081 1.561 . S
C2079 C2082 1.526 . S
C2080 H2064 0.959 . S
C2080 H2065 0.959 . S
C2080 H2066 0.961 . S
C2080 C2079 1.502 . S
C2081 H2067 0.960 . S
C2081 H2068 0.961 . S
C2081 H2069 0.959 . S
C2081 C2079 1.561 . S
C2082 C2079 1.526 . S
C2082 C2083 1.396 . S
C2082 C2087 1.390 . S
C2083 C2077 1.465 . S
C2083 C2082 1.396 . S
C2083 C2084 1.399 . S
C2084 H2070 0.929 . S
C2084 C2083 1.399 . S
C2084 C2085 1.385 . S
C2085 H2071 0.931 . S
C2085 C2084 1.385 . S
C2085 C2086 1.389 . S
C2086 C2085 1.389 . S
C2086 C2087 1.387 . S
C2087 H2072 0.930 . S
C2087 C2082 1.390 . S
C2087 C2086 1.387 . S
H2088 C2100 0.930 . S
H2089 C2102 0.930 . S
H2090 C2103 0.930 . S
H2091 C2107 0.959 . S
H2092 C2107 0.959 . S
H2093 C2107 0.961 . S
H2094 C2108 0.960 . S
H2095 C2108 0.961 . S
H2096 C2108 0.959 . S
H2097 C2111 0.929 . S
H2098 C2112 0.931 . S
H2099 C2114 0.930 . S
C2100 H2088 0.930 . S
C2100 C2101 1.399 . S
C2100 C2105 1.399 . S
C2101 C2100 1.399 . S
C2101 C2102 1.376 . S
C2102 H2089 0.930 . S
C2102 C2101 1.376 . S
C2102 C2103 1.388 . S
C2103 H2090 0.930 . S
C2103 C2102 1.388 . S
C2103 C2104 1.390 . S
C2104 C2103 1.390 . S
C2104 C2105 1.394 . S
C2104 C2110 1.465 . S
C2105 C2100 1.399 . S
C2105 C2104 1.394 . S
C2105 C2106 1.516 . S
C2106 C2105 1.516 . S
C2106 C2107 1.502 . S
C2106 C2108 1.561 . S
C2106 C2109 1.526 . S
C2107 H2091 0.959 . S
C2107 H2092 0.959 . S
C2107 H2093 0.961 . S
C2107 C2106 1.502 . S
C2108 H2094 0.960 . S
C2108 H2095 0.961 . S
C2108 H2096 0.959 . S
C2108 C2106 1.561 . S
C2109 C2106 1.526 . S
C2109 C2110 1.396 . S
C2109 C2114 1.390 . S
C2110 C2104 1.465 . S
C2110 C2109 1.396 . S
C2110 C2111 1.399 . S
C2111 H2097 0.929 . S
C2111 C2110 1.399 . S
C2111 C2112 1.385 . S
C2112 H2098 0.931 . S
C2112 C2111 1.385 . S
C2112 C2113 1.389 . S
C2113 C2112 1.389 . S
C2113 C2114 1.387 . S
C2114 H2099 0.930 . S
C2114 C2109 1.390 . S
C2114 C2113 1.387 . S
H2115 C2127 0.930 . S
H2116 C2129 0.930 . S
H2117 C2130 0.930 . S
H2118 C2134 0.959 . S
H2119 C2134 0.959 . S
H2120 C2134 0.948 1_554 S
H2121 C2135 0.960 . S
H2122 C2135 0.961 . S
H2123 C2135 0.959 . S
H2124 C2138 0.929 . S
H2125 C2139 0.931 . S
H2126 C2141 0.930 . S
C2127 H2115 0.930 . S
C2127 C2128 1.399 . S
C2127 C2132 1.399 . S
C2128 C2127 1.399 . S
C2128 C2129 1.376 . S
C2129 H2116 0.930 . S
C2129 C2128 1.376 . S
C2129 C2130 1.388 . S
C2130 H2117 0.930 . S
C2130 C2129 1.388 . S
C2130 C2131 1.390 . S
C2131 C2130 1.390 . S
C2131 C2132 1.394 . S
C2131 C2137 1.465 . S
C2132 C2127 1.399 . S
C2132 C2131 1.394 . S
C2132 C2133 1.516 . S
C2133 C2132 1.516 . S
C2133 C2134 1.502 . S
C2133 C2135 1.561 . S
C2133 C2136 1.526 . S
C2134 H2118 0.959 . S
C2134 H2119 0.959 . S
C2134 H2120 0.948 1_556 S
C2134 C2133 1.502 . S
C2135 H2121 0.960 . S
C2135 H2122 0.961 . S
C2135 H2123 0.959 . S
C2135 C2133 1.561 . S
C2136 C2133 1.526 . S
C2136 C2137 1.396 . S
C2136 C2141 1.390 . S
C2137 C2131 1.465 . S
C2137 C2136 1.396 . S
C2137 C2138 1.399 . S
C2138 H2124 0.929 . S
C2138 C2137 1.399 . S
C2138 C2139 1.385 . S
C2139 H2125 0.931 . S
C2139 C2138 1.385 . S
C2139 C2140 1.389 . S
C2140 C2139 1.389 . S
C2140 C2141 1.387 . S
C2141 H2126 0.930 . S
C2141 C2136 1.390 . S
C2141 C2140 1.387 . S
H2142 C2154 0.930 . S
H2143 C2156 0.930 . S
H2144 C2157 0.930 . S
H2145 C2161 0.959 . S
H2146 C2161 0.959 . S
H2147 C2161 0.938 1_554 S
H2148 C2162 0.960 . S
H2149 C2162 0.961 . S
H2150 C2162 0.959 . S
H2151 C2165 0.929 . S
H2152 C2166 0.931 . S
H2153 C2168 0.930 . S
C2154 H2142 0.930 . S
C2154 C2155 1.399 . S
C2154 C2159 1.399 . S
C2155 C2154 1.399 . S
C2155 C2156 1.376 . S
C2156 H2143 0.930 . S
C2156 C2155 1.376 . S
C2156 C2157 1.388 . S
C2157 H2144 0.930 . S
C2157 C2156 1.388 . S
C2157 C2158 1.390 . S
C2158 C2157 1.390 . S
C2158 C2159 1.394 . S
C2158 C2164 1.465 . S
C2159 C2154 1.399 . S
C2159 C2158 1.394 . S
C2159 C2160 1.516 . S
C2160 C2159 1.516 . S
C2160 C2161 1.502 . S
C2160 C2162 1.561 . S
C2160 C2163 1.526 . S
C2161 H2145 0.959 . S
C2161 H2146 0.959 . S
C2161 H2147 0.938 1_556 S
C2161 C2160 1.502 . S
C2162 H2148 0.960 . S
C2162 H2149 0.961 . S
C2162 H2150 0.959 . S
C2162 C2160 1.561 . S
C2163 C2160 1.526 . S
C2163 C2164 1.396 . S
C2163 C2168 1.390 . S
C2164 C2158 1.465 . S
C2164 C2163 1.396 . S
C2164 C2165 1.399 . S
C2165 H2151 0.929 . S
C2165 C2164 1.399 . S
C2165 C2166 1.385 . S
C2166 H2152 0.931 . S
C2166 C2165 1.385 . S
C2166 C2167 1.389 . S
C2167 C2166 1.389 . S
C2167 C2168 1.387 . S
C2168 H2153 0.930 . S
C2168 C2163 1.390 . S
C2168 C2167 1.387 . S
H2169 C2181 0.930 . S
H2170 C2183 0.930 . S
H2171 C2184 0.930 . S
H2172 C2188 0.959 . S
H2173 C2188 0.959 . S
H2174 C2188 0.961 . S
H2175 C2189 0.960 . S
H2176 C2189 0.961 . S
H2177 C2189 0.959 . S
H2178 C2192 0.929 . S
H2179 C2193 0.931 . S
H2180 C2195 0.930 . S
C2181 H2169 0.930 . S
C2181 C2182 1.399 . S
C2181 C2186 1.399 . S
C2182 C2181 1.399 . S
C2182 C2183 1.376 . S
C2183 H2170 0.930 . S
C2183 C2182 1.376 . S
C2183 C2184 1.388 . S
C2184 H2171 0.930 . S
C2184 C2183 1.388 . S
C2184 C2185 1.390 . S
C2185 C2184 1.390 . S
C2185 C2186 1.394 . S
C2185 C2191 1.465 . S
C2186 C2181 1.399 . S
C2186 C2185 1.394 . S
C2186 C2187 1.516 . S
C2187 C2186 1.516 . S
C2187 C2188 1.502 . S
C2187 C2189 1.561 . S
C2187 C2190 1.526 . S
C2188 H2172 0.959 . S
C2188 H2173 0.959 . S
C2188 H2174 0.961 . S
C2188 C2187 1.502 . S
C2189 H2175 0.960 . S
C2189 H2176 0.961 . S
C2189 H2177 0.959 . S
C2189 C2187 1.561 . S
C2190 C2187 1.526 . S
C2190 C2191 1.396 . S
C2190 C2195 1.390 . S
C2191 C2185 1.465 . S
C2191 C2190 1.396 . S
C2191 C2192 1.399 . S
C2192 H2178 0.929 . S
C2192 C2191 1.399 . S
C2192 C2193 1.385 . S
C2193 H2179 0.931 . S
C2193 C2192 1.385 . S
C2193 C2194 1.389 . S
C2194 C2193 1.389 . S
C2194 C2195 1.387 . S
C2195 H2180 0.930 . S
C2195 C2190 1.390 . S
C2195 C2194 1.387 . S
H2196 C2208 0.930 . S
H2197 C2210 0.930 . S
H2198 C2211 0.930 . S
H2199 C2215 0.959 . S
H2200 C2215 0.959 . S
H2201 C2215 0.961 . S
H2202 C2216 0.960 . S
H2203 C2216 0.961 . S
H2204 C2216 0.959 . S
H2205 C2219 0.929 . S
H2206 C2220 0.931 . S
H2207 C2222 0.930 . S
C2208 H2196 0.930 . S
C2208 C2209 1.399 . S
C2208 C2213 1.399 . S
C2209 C2208 1.399 . S
C2209 C2210 1.376 . S
C2210 H2197 0.930 . S
C2210 C2209 1.376 . S
C2210 C2211 1.388 . S
C2211 H2198 0.930 . S
C2211 C2210 1.388 . S
C2211 C2212 1.390 . S
C2212 C2211 1.390 . S
C2212 C2213 1.394 . S
C2212 C2218 1.465 . S
C2213 C2208 1.399 . S
C2213 C2212 1.394 . S
C2213 C2214 1.516 . S
C2214 C2213 1.516 . S
C2214 C2215 1.502 . S
C2214 C2216 1.561 . S
C2214 C2217 1.526 . S
C2215 H2199 0.959 . S
C2215 H2200 0.959 . S
C2215 H2201 0.961 . S
C2215 C2214 1.502 . S
C2216 H2202 0.960 . S
C2216 H2203 0.961 . S
C2216 H2204 0.959 . S
C2216 C2214 1.561 . S
C2217 C2214 1.526 . S
C2217 C2218 1.396 . S
C2217 C2222 1.390 . S
C2218 C2212 1.465 . S
C2218 C2217 1.396 . S
C2218 C2219 1.399 . S
C2219 H2205 0.929 . S
C2219 C2218 1.399 . S
C2219 C2220 1.385 . S
C2220 H2206 0.931 . S
C2220 C2219 1.385 . S
C2220 C2221 1.389 . S
C2221 C2220 1.389 . S
C2221 C2222 1.387 . S
C2222 H2207 0.930 . S
C2222 C2217 1.390 . S
C2222 C2221 1.387 . S
H2223 C2235 0.930 . S
H2224 C2237 0.930 . S
H2225 C2238 0.930 . S
H2226 C2242 0.959 . S
H2227 C2242 0.959 . S
H2228 C2242 0.961 . S
H2229 C2243 0.960 . S
H2230 C2243 0.961 . S
H2231 C2243 0.959 . S
H2232 C2246 0.929 . S
H2233 C2247 0.931 . S
H2234 C2249 0.930 . S
C2235 H2223 0.930 . S
C2235 C2236 1.399 . S
C2235 C2240 1.399 . S
C2236 C2235 1.399 . S
C2236 C2237 1.376 . S
C2237 H2224 0.930 . S
C2237 C2236 1.376 . S
C2237 C2238 1.388 . S
C2238 H2225 0.930 . S
C2238 C2237 1.388 . S
C2238 C2239 1.390 . S
C2239 C2238 1.390 . S
C2239 C2240 1.394 . S
C2239 C2245 1.465 . S
C2240 C2235 1.399 . S
C2240 C2239 1.394 . S
C2240 C2241 1.516 . S
C2241 C2240 1.516 . S
C2241 C2242 1.502 . S
C2241 C2243 1.561 . S
C2241 C2244 1.526 . S
C2242 H2226 0.959 . S
C2242 H2227 0.959 . S
C2242 H2228 0.961 . S
C2242 C2241 1.502 . S
C2243 H2229 0.960 . S
C2243 H2230 0.961 . S
C2243 H2231 0.959 . S
C2243 C2241 1.561 . S
C2244 C2241 1.526 . S
C2244 C2245 1.396 . S
C2244 C2249 1.390 . S
C2245 C2239 1.465 . S
C2245 C2244 1.396 . S
C2245 C2246 1.399 . S
C2246 H2232 0.929 . S
C2246 C2245 1.399 . S
C2246 C2247 1.385 . S
C2247 H2233 0.931 . S
C2247 C2246 1.385 . S
C2247 C2248 1.389 . S
C2248 C2247 1.389 . S
C2248 C2249 1.387 . S
C2249 H2234 0.930 . S
C2249 C2244 1.390 . S
C2249 C2248 1.387 . S
H2250 C2262 0.930 . S
H2251 C2264 0.930 . S
H2252 C2265 0.930 . S
H2253 C2269 0.959 . S
H2254 C2269 0.959 . S
H2255 C2269 0.961 . S
H2256 C2270 0.960 . S
H2257 C2270 0.961 . S
H2258 C2270 0.959 . S
H2259 C2273 0.929 . S
H2260 C2274 0.931 . S
H2261 C2276 0.930 . S
C2262 H2250 0.930 . S
C2262 C2263 1.399 . S
C2262 C2267 1.399 . S
C2263 C2262 1.399 . S
C2263 C2264 1.376 . S
C2264 H2251 0.930 . S
C2264 C2263 1.376 . S
C2264 C2265 1.388 . S
C2265 H2252 0.930 . S
C2265 C2264 1.388 . S
C2265 C2266 1.390 . S
C2266 C2265 1.390 . S
C2266 C2267 1.394 . S
C2266 C2272 1.465 . S
C2267 C2262 1.399 . S
C2267 C2266 1.394 . S
C2267 C2268 1.516 . S
C2268 C2267 1.516 . S
C2268 C2269 1.502 . S
C2268 C2270 1.561 . S
C2268 C2271 1.526 . S
C2269 H2253 0.959 . S
C2269 H2254 0.959 . S
C2269 H2255 0.961 . S
C2269 C2268 1.502 . S
C2270 H2256 0.960 . S
C2270 H2257 0.961 . S
C2270 H2258 0.959 . S
C2270 C2268 1.561 . S
C2271 C2268 1.526 . S
C2271 C2272 1.396 . S
C2271 C2276 1.390 . S
C2272 C2266 1.465 . S
C2272 C2271 1.396 . S
C2272 C2273 1.399 . S
C2273 H2259 0.929 . S
C2273 C2272 1.399 . S
C2273 C2274 1.385 . S
C2274 H2260 0.931 . S
C2274 C2273 1.385 . S
C2274 C2275 1.389 . S
C2275 C2274 1.389 . S
C2275 C2276 1.387 . S
C2276 H2261 0.930 . S
C2276 C2271 1.390 . S
C2276 C2275 1.387 . S
H2277 C2289 0.930 . S
H2278 C2291 0.930 . S
H2279 C2292 0.930 . S
H2280 C2296 0.959 . S
H2281 C2296 0.959 . S
H2282 C2296 0.961 . S
H2283 C2297 0.960 . S
H2284 C2297 0.961 . S
H2285 C2297 0.959 . S
H2286 C2300 0.929 . S
H2287 C2301 0.931 . S
H2288 C2303 0.930 . S
C2289 H2277 0.930 . S
C2289 C2290 1.399 . S
C2289 C2294 1.399 . S
C2290 C2289 1.399 . S
C2290 C2291 1.376 . S
C2291 H2278 0.930 . S
C2291 C2290 1.376 . S
C2291 C2292 1.388 . S
C2292 H2279 0.930 . S
C2292 C2291 1.388 . S
C2292 C2293 1.390 . S
C2293 C2292 1.390 . S
C2293 C2294 1.394 . S
C2293 C2299 1.465 . S
C2294 C2289 1.399 . S
C2294 C2293 1.394 . S
C2294 C2295 1.516 . S
C2295 C2294 1.516 . S
C2295 C2296 1.502 . S
C2295 C2297 1.561 . S
C2295 C2298 1.526 . S
C2296 H2280 0.959 . S
C2296 H2281 0.959 . S
C2296 H2282 0.961 . S
C2296 C2295 1.502 . S
C2297 H2283 0.960 . S
C2297 H2284 0.961 . S
C2297 H2285 0.959 . S
C2297 C2295 1.561 . S
C2298 C2295 1.526 . S
C2298 C2299 1.396 . S
C2298 C2303 1.390 . S
C2299 C2293 1.465 . S
C2299 C2298 1.396 . S
C2299 C2300 1.399 . S
C2300 H2286 0.929 . S
C2300 C2299 1.399 . S
C2300 C2301 1.385 . S
C2301 H2287 0.931 . S
C2301 C2300 1.385 . S
C2301 C2302 1.389 . S
C2302 C2301 1.389 . S
C2302 C2303 1.387 . S
C2303 H2288 0.930 . S
C2303 C2298 1.390 . S
C2303 C2302 1.387 . S
H2304 C2316 0.930 . S
H2305 C2318 0.930 . S
H2306 C2319 0.930 . S
H2307 C2323 0.959 . S
H2308 C2323 0.959 . S
H2309 C2323 0.961 . S
H2310 C2324 0.960 . S
H2311 C2324 0.961 . S
H2312 C2324 0.959 . S
H2313 C2327 0.929 . S
H2314 C2328 0.931 . S
H2315 C2330 0.930 . S
C2316 H2304 0.930 . S
C2316 C2317 1.399 . S
C2316 C2321 1.399 . S
C2317 C2316 1.399 . S
C2317 C2318 1.376 . S
C2318 H2305 0.930 . S
C2318 C2317 1.376 . S
C2318 C2319 1.388 . S
C2319 H2306 0.930 . S
C2319 C2318 1.388 . S
C2319 C2320 1.390 . S
C2320 C2319 1.390 . S
C2320 C2321 1.394 . S
C2320 C2326 1.465 . S
C2321 C2316 1.399 . S
C2321 C2320 1.394 . S
C2321 C2322 1.516 . S
C2322 C2321 1.516 . S
C2322 C2323 1.502 . S
C2322 C2324 1.561 . S
C2322 C2325 1.526 . S
C2323 H2307 0.959 . S
C2323 H2308 0.959 . S
C2323 H2309 0.961 . S
C2323 C2322 1.502 . S
C2324 H2310 0.960 . S
C2324 H2311 0.961 . S
C2324 H2312 0.959 . S
C2324 C2322 1.561 . S
C2325 C2322 1.526 . S
C2325 C2326 1.396 . S
C2325 C2330 1.390 . S
C2326 C2320 1.465 . S
C2326 C2325 1.396 . S
C2326 C2327 1.399 . S
C2327 H2313 0.929 . S
C2327 C2326 1.399 . S
C2327 C2328 1.385 . S
C2328 H2314 0.931 . S
C2328 C2327 1.385 . S
C2328 C2329 1.389 . S
C2329 C2328 1.389 . S
C2329 C2330 1.387 . S
C2330 H2315 0.930 . S
C2330 C2325 1.390 . S
C2330 C2329 1.387 . S
H2331 C2343 0.930 . S
H2332 C2345 0.930 . S
H2333 C2346 0.930 . S
H2334 C2350 0.959 . S
H2335 C2350 0.959 . S
H2336 C2350 0.961 . S
H2337 C2351 0.960 . S
H2338 C2351 0.961 . S
H2339 C2351 0.959 . S
H2340 C2354 0.929 . S
H2341 C2355 0.931 . S
H2342 C2357 0.930 . S
C2343 H2331 0.930 . S
C2343 C2344 1.399 . S
C2343 C2348 1.399 . S
C2344 C2343 1.399 . S
C2344 C2345 1.376 . S
C2345 H2332 0.930 . S
C2345 C2344 1.376 . S
C2345 C2346 1.388 . S
C2346 H2333 0.930 . S
C2346 C2345 1.388 . S
C2346 C2347 1.390 . S
C2347 C2346 1.390 . S
C2347 C2348 1.394 . S
C2347 C2353 1.465 . S
C2348 C2343 1.399 . S
C2348 C2347 1.394 . S
C2348 C2349 1.516 . S
C2349 C2348 1.516 . S
C2349 C2350 1.502 . S
C2349 C2351 1.561 . S
C2349 C2352 1.526 . S
C2350 H2334 0.959 . S
C2350 H2335 0.959 . S
C2350 H2336 0.961 . S
C2350 C2349 1.502 . S
C2351 H2337 0.960 . S
C2351 H2338 0.961 . S
C2351 H2339 0.959 . S
C2351 C2349 1.561 . S
C2352 C2349 1.526 . S
C2352 C2353 1.396 . S
C2352 C2357 1.390 . S
C2353 C2347 1.465 . S
C2353 C2352 1.396 . S
C2353 C2354 1.399 . S
C2354 H2340 0.929 . S
C2354 C2353 1.399 . S
C2354 C2355 1.385 . S
C2355 H2341 0.931 . S
C2355 C2354 1.385 . S
C2355 C2356 1.389 . S
C2356 C2355 1.389 . S
C2356 C2357 1.387 . S
C2357 H2342 0.930 . S
C2357 C2352 1.390 . S
C2357 C2356 1.387 . S
H2358 C2370 0.930 . S
H2359 C2372 0.930 . S
H2360 C2373 0.930 . S
H2361 C2377 0.959 . S
H2362 C2377 0.959 . S
H2363 C2377 0.961 . S
H2364 C2378 0.960 . S
H2365 C2378 0.961 . S
H2366 C2378 0.959 . S
H2367 C2381 0.929 . S
H2368 C2382 0.931 . S
H2369 C2384 0.930 . S
C2370 H2358 0.930 . S
C2370 C2371 1.399 . S
C2370 C2375 1.399 . S
C2371 C2370 1.399 . S
C2371 C2372 1.376 . S
C2372 H2359 0.930 . S
C2372 C2371 1.376 . S
C2372 C2373 1.388 . S
C2373 H2360 0.930 . S
C2373 C2372 1.388 . S
C2373 C2374 1.390 . S
C2374 C2373 1.390 . S
C2374 C2375 1.394 . S
C2374 C2380 1.465 . S
C2375 C2370 1.399 . S
C2375 C2374 1.394 . S
C2375 C2376 1.516 . S
C2376 C2375 1.516 . S
C2376 C2377 1.502 . S
C2376 C2378 1.561 . S
C2376 C2379 1.526 . S
C2377 H2361 0.959 . S
C2377 H2362 0.959 . S
C2377 H2363 0.961 . S
C2377 C2376 1.502 . S
C2378 H2364 0.960 . S
C2378 H2365 0.961 . S
C2378 H2366 0.959 . S
C2378 C2376 1.561 . S
C2379 C2376 1.526 . S
C2379 C2380 1.396 . S
C2379 C2384 1.390 . S
C2380 C2374 1.465 . S
C2380 C2379 1.396 . S
C2380 C2381 1.399 . S
C2381 H2367 0.929 . S
C2381 C2380 1.399 . S
C2381 C2382 1.385 . S
C2382 H2368 0.931 . S
C2382 C2381 1.385 . S
C2382 C2383 1.389 . S
C2383 C2382 1.389 . S
C2383 C2384 1.387 . S
C2384 H2369 0.930 . S
C2384 C2379 1.390 . S
C2384 C2383 1.387 . S
H2385 C2397 0.930 . S
H2386 C2399 0.930 . S
H2387 C2400 0.930 . S
H2388 C2404 0.959 . S
H2389 C2404 0.959 . S
H2390 C2404 0.961 . S
H2391 C2405 0.960 . S
H2392 C2405 0.961 . S
H2393 C2405 0.959 . S
H2394 C2408 0.929 . S
H2395 C2409 0.931 . S
H2396 C2411 0.930 . S
C2397 H2385 0.930 . S
C2397 C2398 1.399 . S
C2397 C2402 1.399 . S
C2398 C2397 1.399 . S
C2398 C2399 1.376 . S
C2399 H2386 0.930 . S
C2399 C2398 1.376 . S
C2399 C2400 1.388 . S
C2400 H2387 0.930 . S
C2400 C2399 1.388 . S
C2400 C2401 1.390 . S
C2401 C2400 1.390 . S
C2401 C2402 1.394 . S
C2401 C2407 1.465 . S
C2402 C2397 1.399 . S
C2402 C2401 1.394 . S
C2402 C2403 1.516 . S
C2403 C2402 1.516 . S
C2403 C2404 1.502 . S
C2403 C2405 1.561 . S
C2403 C2406 1.526 . S
C2404 H2388 0.959 . S
C2404 H2389 0.959 . S
C2404 H2390 0.961 . S
C2404 C2403 1.502 . S
C2405 H2391 0.960 . S
C2405 H2392 0.961 . S
C2405 H2393 0.959 . S
C2405 C2403 1.561 . S
C2406 C2403 1.526 . S
C2406 C2407 1.396 . S
C2406 C2411 1.390 . S
C2407 C2401 1.465 . S
C2407 C2406 1.396 . S
C2407 C2408 1.399 . S
C2408 H2394 0.929 . S
C2408 C2407 1.399 . S
C2408 C2409 1.385 . S
C2409 H2395 0.931 . S
C2409 C2408 1.385 . S
C2409 C2410 1.389 . S
C2410 C2409 1.389 . S
C2410 C2411 1.387 . S
C2411 H2396 0.930 . S
C2411 C2406 1.390 . S
C2411 C2410 1.387 . S
H2412 C2424 0.930 . S
H2413 C2426 0.930 . S
H2414 C2427 0.930 . S
H2415 C2431 0.959 . S
H2416 C2431 0.959 . S
H2417 C2431 0.961 . S
H2418 C2432 0.960 . S
H2419 C2432 0.961 . S
H2420 C2432 0.959 . S
H2421 C2435 0.929 . S
H2422 C2436 0.931 . S
H2423 C2438 0.930 . S
C2424 H2412 0.930 . S
C2424 C2425 1.399 . S
C2424 C2429 1.399 . S
C2425 C2424 1.399 . S
C2425 C2426 1.376 . S
C2426 H2413 0.930 . S
C2426 C2425 1.376 . S
C2426 C2427 1.388 . S
C2427 H2414 0.930 . S
C2427 C2426 1.388 . S
C2427 C2428 1.390 . S
C2428 C2427 1.390 . S
C2428 C2429 1.394 . S
C2428 C2434 1.465 . S
C2429 C2424 1.399 . S
C2429 C2428 1.394 . S
C2429 C2430 1.516 . S
C2430 C2429 1.516 . S
C2430 C2431 1.502 . S
C2430 C2432 1.561 . S
C2430 C2433 1.526 . S
C2431 H2415 0.959 . S
C2431 H2416 0.959 . S
C2431 H2417 0.961 . S
C2431 C2430 1.502 . S
C2432 H2418 0.960 . S
C2432 H2419 0.961 . S
C2432 H2420 0.959 . S
C2432 C2430 1.561 . S
C2433 C2430 1.526 . S
C2433 C2434 1.396 . S
C2433 C2438 1.390 . S
C2434 C2428 1.465 . S
C2434 C2433 1.396 . S
C2434 C2435 1.399 . S
C2435 H2421 0.929 . S
C2435 C2434 1.399 . S
C2435 C2436 1.385 . S
C2436 H2422 0.931 . S
C2436 C2435 1.385 . S
C2436 C2437 1.389 . S
C2437 C2436 1.389 . S
C2437 C2438 1.387 . S
C2438 H2423 0.930 . S
C2438 C2433 1.390 . S
C2438 C2437 1.387 . S
H2439 C2451 0.930 . S
H2440 C2453 0.930 . S
H2441 C2454 0.930 . S
H2442 C2458 0.959 . S
H2443 C2458 0.959 . S
H2444 C2458 0.961 . S
H2445 C2459 0.960 . S
H2446 C2459 0.961 . S
H2447 C2459 0.959 . S
H2448 C2462 0.929 . S
H2449 C2463 0.931 . S
H2450 C2465 0.930 . S
C2451 H2439 0.930 . S
C2451 C2452 1.399 . S
C2451 C2456 1.399 . S
C2452 C2451 1.399 . S
C2452 C2453 1.376 . S
C2453 H2440 0.930 . S
C2453 C2452 1.376 . S
C2453 C2454 1.388 . S
C2454 H2441 0.930 . S
C2454 C2453 1.388 . S
C2454 C2455 1.390 . S
C2455 C2454 1.390 . S
C2455 C2456 1.394 . S
C2455 C2461 1.465 . S
C2456 C2451 1.399 . S
C2456 C2455 1.394 . S
C2456 C2457 1.516 . S
C2457 C2456 1.516 . S
C2457 C2458 1.502 . S
C2457 C2459 1.561 1_455 S
C2457 C2460 1.526 . S
C2458 H2442 0.959 . S
C2458 H2443 0.959 . S
C2458 H2444 0.961 . S
C2458 C2457 1.502 . S
C2459 H2445 0.960 . S
C2459 H2446 0.961 . S
C2459 H2447 0.959 . S
C2459 C2457 1.561 1_655 S
C2460 C2457 1.526 . S
C2460 C2461 1.396 . S
C2460 C2465 1.390 . S
C2461 C2455 1.465 . S
C2461 C2460 1.396 . S
C2461 C2462 1.399 . S
C2462 H2448 0.929 . S
C2462 C2461 1.399 . S
C2462 C2463 1.385 . S
C2463 H2449 0.931 . S
C2463 C2462 1.385 . S
C2463 C2464 1.389 . S
C2464 C2463 1.389 . S
C2464 C2465 1.387 . S
C2465 H2450 0.930 . S
C2465 C2460 1.390 . S
C2465 C2464 1.387 . S
H2466 C2478 0.930 . S
H2467 C2480 0.930 . S
H2468 C2481 0.930 . S
H2469 C2485 0.959 . S
H2470 C2485 0.959 . S
H2471 C2485 0.961 . S
H2472 C2486 0.960 . S
H2473 C2486 0.961 . S
H2474 C2486 0.959 . S
H2475 C2489 0.929 . S
H2476 C2490 0.931 . S
H2477 C2492 0.930 . S
C2478 H2466 0.930 . S
C2478 C2479 1.399 . S
C2478 C2483 1.399 . S
C2479 C2478 1.399 . S
C2479 C2480 1.376 . S
C2480 H2467 0.930 . S
C2480 C2479 1.376 . S
C2480 C2481 1.388 . S
C2481 H2468 0.930 . S
C2481 C2480 1.388 . S
C2481 C2482 1.390 . S
C2482 C2481 1.390 . S
C2482 C2483 1.394 . S
C2482 C2488 1.465 . S
C2483 C2478 1.399 . S
C2483 C2482 1.394 . S
C2483 C2484 1.516 . S
C2484 C2483 1.516 . S
C2484 C2485 1.502 . S
C2484 C2486 1.561 . S
C2484 C2487 1.526 . S
C2485 H2469 0.959 . S
C2485 H2470 0.959 . S
C2485 H2471 0.961 . S
C2485 C2484 1.502 . S
C2486 H2472 0.960 . S
C2486 H2473 0.961 . S
C2486 H2474 0.959 . S
C2486 C2484 1.561 . S
C2487 C2484 1.526 . S
C2487 C2488 1.396 . S
C2487 C2492 1.390 . S
C2488 C2482 1.465 . S
C2488 C2487 1.396 . S
C2488 C2489 1.399 . S
C2489 H2475 0.929 . S
C2489 C2488 1.399 . S
C2489 C2490 1.385 . S
C2490 H2476 0.931 . S
C2490 C2489 1.385 . S
C2490 C2491 1.389 . S
C2491 C2490 1.389 . S
C2491 C2492 1.387 . S
C2492 H2477 0.930 . S
C2492 C2487 1.390 . S
C2492 C2491 1.387 . S
H2493 C2505 0.930 . S
H2494 C2507 0.930 . S
H2495 C2508 0.930 . S
H2496 C2512 0.959 . S
H2497 C2512 0.959 . S
H2498 C2512 0.961 . S
H2499 C2513 0.960 . S
H2500 C2513 0.961 . S
H2501 C2513 0.959 1_545 S
H2502 C2516 0.929 . S
H2503 C2517 0.931 . S
H2504 C2519 0.930 . S
C2505 H2493 0.930 . S
C2505 C2506 1.399 . S
C2505 C2510 1.399 . S
C2506 C2505 1.399 . S
C2506 C2507 1.376 1_565 S
C2507 H2494 0.930 . S
C2507 C2506 1.376 1_545 S
C2507 C2508 1.388 . S
C2508 H2495 0.930 . S
C2508 C2507 1.388 . S
C2508 C2509 1.392 1_545 S
C2509 C2508 1.392 1_565 S
C2509 C2510 1.393 . S
C2509 C2515 1.464 1_565 S
C2510 C2505 1.399 . S
C2510 C2509 1.393 . S
C2510 C2511 1.516 . S
C2511 C2510 1.516 . S
C2511 C2512 1.502 . S
C2511 C2513 1.561 . S
C2511 C2514 1.526 . S
C2512 H2496 0.959 . S
C2512 H2497 0.959 . S
C2512 H2498 0.961 . S
C2512 C2511 1.502 . S
C2513 H2499 0.960 . S
C2513 H2500 0.961 . S
C2513 H2501 0.959 1_565 S
C2513 C2511 1.561 . S
C2514 C2511 1.526 . S
C2514 C2515 1.396 1_565 S
C2514 C2519 1.390 . S
C2515 C2509 1.464 1_545 S
C2515 C2514 1.396 1_545 S
C2515 C2516 1.399 . S
C2516 H2502 0.929 . S
C2516 C2515 1.399 . S
C2516 C2517 1.385 . S
C2517 H2503 0.931 . S
C2517 C2516 1.385 . S
C2517 C2518 1.389 1_545 S
C2518 C2517 1.389 1_565 S
C2518 C2519 1.387 . S
C2519 H2504 0.930 . S
C2519 C2514 1.390 . S
C2519 C2518 1.387 . S
H2520 C2532 0.930 . S
H2521 C2534 0.930 . S
H2522 C2535 0.930 . S
H2523 C2539 0.959 . S
H2524 C2539 0.959 . S
H2525 C2539 0.961 . S
H2526 C2540 0.960 . S
H2527 C2540 0.961 . S
H2528 C2540 0.959 . S
H2529 C2543 0.929 . S
H2530 C2544 0.931 . S
H2531 C2546 0.930 . S
C2532 H2520 0.930 . S
C2532 C2533 1.399 . S
C2532 C2537 1.399 . S
C2533 C2532 1.399 . S
C2533 C2534 1.376 1_565 S
C2534 H2521 0.930 . S
C2534 C2533 1.376 1_545 S
C2534 C2535 1.388 . S
C2535 H2522 0.930 . S
C2535 C2534 1.388 . S
C2535 C2536 1.404 . S
C2536 C2535 1.404 . S
C2536 C2537 1.355 1_545 S
C2536 C2542 1.485 . S
C2537 C2532 1.399 . S
C2537 C2536 1.355 1_565 S
C2537 C2538 1.516 . S
C2538 C2537 1.516 . S
C2538 C2539 1.502 . S
C2538 C2540 1.561 . S
C2538 C2541 1.526 . S
C2539 H2523 0.959 . S
C2539 H2524 0.959 . S
C2539 H2525 0.961 . S
C2539 C2538 1.502 . S
C2540 H2526 0.960 . S
C2540 H2527 0.961 . S
C2540 H2528 0.959 . S
C2540 C2538 1.561 . S
C2541 C2538 1.526 . S
C2541 C2542 1.396 1_565 S
C2541 C2546 1.390 . S
C2542 C2536 1.485 . S
C2542 C2541 1.396 1_545 S
C2542 C2543 1.399 . S
C2543 H2529 0.929 . S
C2543 C2542 1.399 . S
C2543 C2544 1.385 . S
C2544 H2530 0.931 . S
C2544 C2543 1.385 . S
C2544 C2545 1.389 1_545 S
C2545 C2544 1.389 1_565 S
C2545 C2546 1.387 . S
C2546 H2531 0.930 . S
C2546 C2541 1.390 . S
C2546 C2545 1.387 . S
H2547 C2559 0.930 . S
H2548 C2561 0.964 . S
H2549 C2562 0.930 . S
H2550 C2566 0.959 . S
H2551 C2566 0.959 . S
H2552 C2566 0.961 . S
H2553 C2567 0.960 . S
H2554 C2567 0.961 . S
H2555 C2567 0.959 1_655 S
H2556 C2570 0.929 . S
H2557 C2571 0.931 . S
H2558 C2573 0.930 . S
C2559 H2547 0.930 . S
C2559 C2560 1.399 . S
C2559 C2564 1.399 . S
C2560 C2559 1.399 . S
C2560 C2561 1.353 1_455 S
C2561 H2548 0.964 . S
C2561 C2560 1.353 1_655 S
C2561 C2562 1.380 . S
C2562 H2549 0.930 . S
C2562 C2561 1.380 . S
C2562 C2563 1.390 1_655 S
C2563 C2562 1.390 1_455 S
C2563 C2564 1.394 . S
C2563 C2569 1.453 . S
C2564 C2559 1.399 . S
C2564 C2563 1.394 . S
C2564 C2565 1.516 . S
C2565 C2564 1.516 . S
C2565 C2566 1.502 . S
C2565 C2567 1.561 . S
C2565 C2568 1.526 . S
C2566 H2550 0.959 . S
C2566 H2551 0.959 . S
C2566 H2552 0.961 . S
C2566 C2565 1.502 . S
C2567 H2553 0.960 . S
C2567 H2554 0.961 . S
C2567 H2555 0.959 1_455 S
C2567 C2565 1.561 . S
C2568 C2565 1.526 . S
C2568 C2569 1.421 . S
C2568 C2573 1.390 . S
C2569 C2563 1.453 . S
C2569 C2568 1.421 . S
C2569 C2570 1.391 1_455 S
C2570 H2556 0.929 . S
C2570 C2569 1.391 1_655 S
C2570 C2571 1.385 . S
C2571 H2557 0.931 . S
C2571 C2570 1.385 . S
C2571 C2572 1.389 1_655 S
C2572 C2571 1.389 1_455 S
C2572 C2573 1.387 . S
C2573 H2558 0.930 . S
C2573 C2568 1.390 . S
C2573 C2572 1.387 . S
H2574 C2586 0.930 . S
H2575 C2588 0.930 . S
H2576 C2589 0.930 . S
H2577 C2593 0.959 . S
H2578 C2593 0.959 . S
H2579 C2593 0.961 . S
H2580 C2594 0.960 . S
H2581 C2594 0.961 . S
H2582 C2594 0.959 . S
H2583 C2597 0.929 . S
H2584 C2598 0.931 . S
H2585 C2600 0.930 . S
C2586 H2574 0.930 . S
C2586 C2587 1.399 . S
C2586 C2591 1.399 . S
C2587 C2586 1.399 . S
C2587 C2588 1.376 . S
C2588 H2575 0.930 . S
C2588 C2587 1.376 . S
C2588 C2589 1.388 . S
C2589 H2576 0.930 . S
C2589 C2588 1.388 . S
C2589 C2590 1.390 . S
C2590 C2589 1.390 . S
C2590 C2591 1.394 . S
C2590 C2596 1.465 . S
C2591 C2586 1.399 . S
C2591 C2590 1.394 . S
C2591 C2592 1.516 . S
C2592 C2591 1.516 . S
C2592 C2593 1.502 . S
C2592 C2594 1.561 . S
C2592 C2595 1.526 . S
C2593 H2577 0.959 . S
C2593 H2578 0.959 . S
C2593 H2579 0.961 . S
C2593 C2592 1.502 . S
C2594 H2580 0.960 . S
C2594 H2581 0.961 . S
C2594 H2582 0.959 . S
C2594 C2592 1.561 . S
C2595 C2592 1.526 . S
C2595 C2596 1.396 . S
C2595 C2600 1.390 . S
C2596 C2590 1.465 . S
C2596 C2595 1.396 . S
C2596 C2597 1.399 . S
C2597 H2583 0.929 . S
C2597 C2596 1.399 . S
C2597 C2598 1.385 . S
C2598 H2584 0.931 . S
C2598 C2597 1.385 . S
C2598 C2599 1.389 . S
C2599 C2598 1.389 . S
C2599 C2600 1.387 . S
C2600 H2585 0.930 . S
C2600 C2595 1.390 . S
C2600 C2599 1.387 . S
H2601 C2613 0.930 . S
H2602 C2615 0.930 . S
H2603 C2616 0.930 . S
H2604 C2620 0.959 . S
H2605 C2620 0.959 . S
H2606 C2620 0.961 . S
H2607 C2621 0.960 . S
H2608 C2621 0.961 . S
H2609 C2621 0.959 . S
H2610 C2624 0.929 . S
H2611 C2625 0.931 . S
H2612 C2627 0.930 . S
C2613 H2601 0.930 . S
C2613 C2614 1.399 . S
C2613 C2618 1.399 . S
C2614 C2613 1.399 . S
C2614 C2615 1.376 . S
C2615 H2602 0.930 . S
C2615 C2614 1.376 . S
C2615 C2616 1.388 . S
C2616 H2603 0.930 . S
C2616 C2615 1.388 . S
C2616 C2617 1.390 . S
C2617 C2616 1.390 . S
C2617 C2618 1.394 . S
C2617 C2623 1.465 . S
C2618 C2613 1.399 . S
C2618 C2617 1.394 . S
C2618 C2619 1.516 . S
C2619 C2618 1.516 . S
C2619 C2620 1.502 . S
C2619 C2621 1.561 . S
C2619 C2622 1.526 . S
C2620 H2604 0.959 . S
C2620 H2605 0.959 . S
C2620 H2606 0.961 . S
C2620 C2619 1.502 . S
C2621 H2607 0.960 . S
C2621 H2608 0.961 . S
C2621 H2609 0.959 . S
C2621 C2619 1.561 . S
C2622 C2619 1.526 . S
C2622 C2623 1.396 . S
C2622 C2627 1.390 . S
C2623 C2617 1.465 . S
C2623 C2622 1.396 . S
C2623 C2624 1.399 . S
C2624 H2610 0.929 . S
C2624 C2623 1.399 . S
C2624 C2625 1.385 . S
C2625 H2611 0.931 . S
C2625 C2624 1.385 . S
C2625 C2626 1.389 . S
C2626 C2625 1.389 . S
C2626 C2627 1.387 . S
C2627 H2612 0.930 . S
C2627 C2622 1.390 . S
C2627 C2626 1.387 . S
H2628 C2640 0.930 . S
H2629 C2642 0.930 . S
H2630 C2643 0.930 . S
H2631 C2647 0.959 . S
H2632 C2647 0.959 . S
H2633 C2647 0.961 . S
H2634 C2648 0.960 . S
H2635 C2648 0.961 . S
H2636 C2648 0.959 . S
H2637 C2651 0.929 . S
H2638 C2652 0.931 . S
H2639 C2654 0.930 . S
C2640 H2628 0.930 . S
C2640 C2641 1.399 . S
C2640 C2645 1.399 . S
C2641 C2640 1.399 . S
C2641 C2642 1.376 . S
C2642 H2629 0.930 . S
C2642 C2641 1.376 . S
C2642 C2643 1.388 . S
C2643 H2630 0.930 . S
C2643 C2642 1.388 . S
C2643 C2644 1.390 . S
C2644 C2643 1.390 . S
C2644 C2645 1.394 . S
C2644 C2650 1.465 . S
C2645 C2640 1.399 . S
C2645 C2644 1.394 . S
C2645 C2646 1.516 . S
C2646 C2645 1.516 . S
C2646 C2647 1.502 . S
C2646 C2648 1.561 . S
C2646 C2649 1.526 . S
C2647 H2631 0.959 . S
C2647 H2632 0.959 . S
C2647 H2633 0.961 . S
C2647 C2646 1.502 . S
C2648 H2634 0.960 . S
C2648 H2635 0.961 . S
C2648 H2636 0.959 . S
C2648 C2646 1.561 . S
C2649 C2646 1.526 . S
C2649 C2650 1.396 . S
C2649 C2654 1.390 . S
C2650 C2644 1.465 . S
C2650 C2649 1.396 . S
C2650 C2651 1.399 . S
C2651 H2637 0.929 . S
C2651 C2650 1.399 . S
C2651 C2652 1.385 . S
C2652 H2638 0.931 . S
C2652 C2651 1.385 . S
C2652 C2653 1.389 . S
C2653 C2652 1.389 . S
C2653 C2654 1.387 . S
C2654 H2639 0.930 . S
C2654 C2649 1.390 . S
C2654 C2653 1.387 . S
H2655 C2667 0.930 . S
H2656 C2669 0.930 . S
H2657 C2670 0.930 . S
H2658 C2674 0.959 . S
H2659 C2674 0.959 . S
H2660 C2674 0.961 . S
H2661 C2675 0.960 . S
H2662 C2675 0.961 . S
H2663 C2675 0.959 . S
H2664 C2678 0.929 . S
H2665 C2679 0.931 . S
H2666 C2681 0.930 . S
C2667 H2655 0.930 . S
C2667 C2668 1.399 . S
C2667 C2672 1.399 . S
C2668 C2667 1.399 . S
C2668 C2669 1.376 . S
C2669 H2656 0.930 . S
C2669 C2668 1.376 . S
C2669 C2670 1.388 . S
C2670 H2657 0.930 . S
C2670 C2669 1.388 . S
C2670 C2671 1.390 . S
C2671 C2670 1.390 . S
C2671 C2672 1.394 . S
C2671 C2677 1.465 . S
C2672 C2667 1.399 . S
C2672 C2671 1.394 . S
C2672 C2673 1.516 . S
C2673 C2672 1.516 . S
C2673 C2674 1.502 . S
C2673 C2675 1.561 . S
C2673 C2676 1.526 . S
C2674 H2658 0.959 . S
C2674 H2659 0.959 . S
C2674 H2660 0.961 . S
C2674 C2673 1.502 . S
C2675 H2661 0.960 . S
C2675 H2662 0.961 . S
C2675 H2663 0.959 . S
C2675 C2673 1.561 . S
C2676 C2673 1.526 . S
C2676 C2677 1.396 . S
C2676 C2681 1.390 . S
C2677 C2671 1.465 . S
C2677 C2676 1.396 . S
C2677 C2678 1.399 . S
C2678 H2664 0.929 . S
C2678 C2677 1.399 . S
C2678 C2679 1.385 . S
C2679 H2665 0.931 . S
C2679 C2678 1.385 . S
C2679 C2680 1.389 . S
C2680 C2679 1.389 . S
C2680 C2681 1.387 . S
C2681 H2666 0.930 . S
C2681 C2676 1.390 . S
C2681 C2680 1.387 . S
H2682 C2694 0.930 . S
H2683 C2696 0.930 . S
H2684 C2697 0.930 . S
H2685 C2701 0.959 . S
H2686 C2701 0.959 . S
H2687 C2701 0.961 . S
H2688 C2702 0.960 . S
H2689 C2702 0.961 . S
H2690 C2702 0.959 . S
H2691 C2705 0.929 . S
H2692 C2706 0.931 . S
H2693 C2708 0.930 . S
C2694 H2682 0.930 . S
C2694 C2695 1.399 . S
C2694 C2699 1.399 . S
C2695 C2694 1.399 . S
C2695 C2696 1.376 1_545 S
C2696 H2683 0.930 . S
C2696 C2695 1.376 1_565 S
C2696 C2697 1.388 . S
C2697 H2684 0.930 . S
C2697 C2696 1.388 . S
C2697 C2698 1.388 . S
C2698 C2697 1.388 . S
C2698 C2699 1.400 1_565 S
C2698 C2704 1.461 . S
C2699 C2694 1.399 . S
C2699 C2698 1.400 1_545 S
C2699 C2700 1.516 . S
C2700 C2699 1.516 . S
C2700 C2701 1.502 . S
C2700 C2702 1.561 . S
C2700 C2703 1.526 . S
C2701 H2685 0.959 . S
C2701 H2686 0.959 . S
C2701 H2687 0.961 . S
C2701 C2700 1.502 . S
C2702 H2688 0.960 . S
C2702 H2689 0.961 . S
C2702 H2690 0.959 . S
C2702 C2700 1.561 . S
C2703 C2700 1.526 . S
C2703 C2704 1.396 1_545 S
C2703 C2708 1.390 . S
C2704 C2698 1.461 . S
C2704 C2703 1.396 1_565 S
C2704 C2705 1.399 . S
C2705 H2691 0.929 . S
C2705 C2704 1.399 . S
C2705 C2706 1.385 . S
C2706 H2692 0.931 . S
C2706 C2705 1.385 . S
C2706 C2707 1.389 1_565 S
C2707 C2706 1.389 1_545 S
C2707 C2708 1.387 . S
C2708 H2693 0.930 . S
C2708 C2703 1.390 . S
C2708 C2707 1.387 . S
H2709 C2721 0.930 . S
H2710 C2723 0.930 . S
H2711 C2724 0.930 . S
H2712 C2728 0.959 . S
H2713 C2728 0.959 . S
H2714 C2728 0.961 . S
H2715 C2729 0.960 . S
H2716 C2729 0.961 . S
H2717 C2729 0.959 . S
H2718 C2732 0.929 . S
H2719 C2733 0.931 . S
H2720 C2735 0.930 1_455 S
C2721 H2709 0.930 . S
C2721 C2722 1.399 . S
C2721 C2726 1.399 . S
C2722 C2721 1.399 . S
C2722 C2723 1.376 . S
C2723 H2710 0.930 . S
C2723 C2722 1.376 . S
C2723 C2724 1.388 . S
C2724 H2711 0.930 . S
C2724 C2723 1.388 . S
C2724 C2725 1.390 . S
C2725 C2724 1.390 . S
C2725 C2726 1.394 . S
C2725 C2731 1.465 . S
C2726 C2721 1.399 . S
C2726 C2725 1.394 . S
C2726 C2727 1.516 . S
C2727 C2726 1.516 . S
C2727 C2728 1.502 1_655 S
C2727 C2729 1.561 . S
C2727 C2730 1.526 . S
C2728 H2712 0.959 . S
C2728 H2713 0.959 . S
C2728 H2714 0.961 . S
C2728 C2727 1.502 1_455 S
C2729 H2715 0.960 . S
C2729 H2716 0.961 . S
C2729 H2717 0.959 . S
C2729 C2727 1.561 . S
C2730 C2727 1.526 . S
C2730 C2731 1.396 . S
C2730 C2735 1.390 . S
C2731 C2725 1.465 . S
C2731 C2730 1.396 . S
C2731 C2732 1.399 . S
C2732 H2718 0.929 . S
C2732 C2731 1.399 . S
C2732 C2733 1.385 . S
C2733 H2719 0.931 . S
C2733 C2732 1.385 . S
C2733 C2734 1.389 . S
C2734 C2733 1.389 . S
C2734 C2735 1.387 . S
C2735 H2720 0.930 1_655 S
C2735 C2730 1.390 . S
C2735 C2734 1.387 . S
H2736 C2748 0.930 . S
H2737 C2750 0.930 . S
H2738 C2751 0.930 . S
H2739 C2755 0.959 . S
H2740 C2755 0.959 . S
H2741 C2755 0.961 . S
H2742 C2756 0.960 . S
H2743 C2756 0.961 . S
H2744 C2756 0.959 . S
H2745 C2759 0.929 . S
H2746 C2760 0.931 . S
H2747 C2762 0.930 . S
C2748 H2736 0.930 . S
C2748 C2749 1.399 . S
C2748 C2753 1.399 . S
C2749 C2748 1.399 . S
C2749 C2750 1.376 . S
C2750 H2737 0.930 . S
C2750 C2749 1.376 . S
C2750 C2751 1.388 . S
C2751 H2738 0.930 . S
C2751 C2750 1.388 . S
C2751 C2752 1.390 . S
C2752 C2751 1.390 . S
C2752 C2753 1.394 . S
C2752 C2758 1.465 . S
C2753 C2748 1.399 . S
C2753 C2752 1.394 . S
C2753 C2754 1.516 . S
C2754 C2753 1.516 . S
C2754 C2755 1.502 . S
C2754 C2756 1.561 . S
C2754 C2757 1.526 . S
C2755 H2739 0.959 . S
C2755 H2740 0.959 . S
C2755 H2741 0.961 . S
C2755 C2754 1.502 . S
C2756 H2742 0.960 . S
C2756 H2743 0.961 . S
C2756 H2744 0.959 . S
C2756 C2754 1.561 . S
C2757 C2754 1.526 . S
C2757 C2758 1.396 . S
C2757 C2762 1.390 . S
C2758 C2752 1.465 . S
C2758 C2757 1.396 . S
C2758 C2759 1.399 . S
C2759 H2745 0.929 . S
C2759 C2758 1.399 . S
C2759 C2760 1.385 . S
C2760 H2746 0.931 . S
C2760 C2759 1.385 . S
C2760 C2761 1.389 . S
C2761 C2760 1.389 . S
C2761 C2762 1.387 . S
C2762 H2747 0.930 . S
C2762 C2757 1.390 . S
C2762 C2761 1.387 . S
H2763 C2775 0.930 . S
H2764 C2777 0.930 . S
H2765 C2778 0.930 . S
H2766 C2782 0.959 . S
H2767 C2782 0.959 . S
H2768 C2782 0.961 . S
H2769 C2783 0.960 . S
H2770 C2783 0.961 . S
H2771 C2783 0.959 . S
H2772 C2786 0.929 . S
H2773 C2787 0.931 . S
H2774 C2789 0.930 . S
C2775 H2763 0.930 . S
C2775 C2776 1.399 . S
C2775 C2780 1.399 . S
C2776 C2775 1.399 . S
C2776 C2777 1.376 . S
C2777 H2764 0.930 . S
C2777 C2776 1.376 . S
C2777 C2778 1.388 . S
C2778 H2765 0.930 . S
C2778 C2777 1.388 . S
C2778 C2779 1.390 . S
C2779 C2778 1.390 . S
C2779 C2780 1.394 . S
C2779 C2785 1.465 . S
C2780 C2775 1.399 . S
C2780 C2779 1.394 . S
C2780 C2781 1.516 . S
C2781 C2780 1.516 . S
C2781 C2782 1.502 . S
C2781 C2783 1.561 . S
C2781 C2784 1.526 . S
C2782 H2766 0.959 . S
C2782 H2767 0.959 . S
C2782 H2768 0.961 . S
C2782 C2781 1.502 . S
C2783 H2769 0.960 . S
C2783 H2770 0.961 . S
C2783 H2771 0.959 . S
C2783 C2781 1.561 . S
C2784 C2781 1.526 . S
C2784 C2785 1.396 . S
C2784 C2789 1.390 . S
C2785 C2779 1.465 . S
C2785 C2784 1.396 . S
C2785 C2786 1.399 . S
C2786 H2772 0.929 . S
C2786 C2785 1.399 . S
C2786 C2787 1.385 . S
C2787 H2773 0.931 . S
C2787 C2786 1.385 . S
C2787 C2788 1.389 . S
C2788 C2787 1.389 . S
C2788 C2789 1.387 . S
C2789 H2774 0.930 . S
C2789 C2784 1.390 . S
C2789 C2788 1.387 . S
H2790 C2802 0.930 . S
H2791 C2804 0.930 . S
H2792 C2805 0.930 . S
H2793 C2809 0.959 . S
H2794 C2809 0.959 . S
H2795 C2809 0.961 . S
H2796 C2810 0.960 . S
H2797 C2810 0.961 . S
H2798 C2810 0.959 . S
H2799 C2813 0.929 . S
H2800 C2814 0.931 . S
H2801 C2816 0.930 . S
C2802 H2790 0.930 . S
C2802 C2803 1.399 . S
C2802 C2807 1.399 . S
C2803 C2802 1.399 . S
C2803 C2804 1.376 . S
C2804 H2791 0.930 . S
C2804 C2803 1.376 . S
C2804 C2805 1.388 . S
C2805 H2792 0.930 . S
C2805 C2804 1.388 . S
C2805 C2806 1.390 . S
C2806 C2805 1.390 . S
C2806 C2807 1.394 . S
C2806 C2812 1.465 . S
C2807 C2802 1.399 . S
C2807 C2806 1.394 . S
C2807 C2808 1.516 . S
C2808 C2807 1.516 . S
C2808 C2809 1.502 . S
C2808 C2810 1.561 . S
C2808 C2811 1.526 . S
C2809 H2793 0.959 . S
C2809 H2794 0.959 . S
C2809 H2795 0.961 . S
C2809 C2808 1.502 . S
C2810 H2796 0.960 . S
C2810 H2797 0.961 . S
C2810 H2798 0.959 . S
C2810 C2808 1.561 . S
C2811 C2808 1.526 . S
C2811 C2812 1.396 . S
C2811 C2816 1.390 . S
C2812 C2806 1.465 . S
C2812 C2811 1.396 . S
C2812 C2813 1.399 . S
C2813 H2799 0.929 . S
C2813 C2812 1.399 . S
C2813 C2814 1.385 . S
C2814 H2800 0.931 . S
C2814 C2813 1.385 . S
C2814 C2815 1.389 . S
C2815 C2814 1.389 . S
C2815 C2816 1.387 . S
C2816 H2801 0.930 . S
C2816 C2811 1.390 . S
C2816 C2815 1.387 . S
H2817 C2829 0.930 . S
H2818 C2831 0.930 . S
H2819 C2832 0.930 . S
H2820 C2836 0.959 . S
H2821 C2836 0.959 . S
H2822 C2836 0.961 . S
H2823 C2837 0.960 . S
H2824 C2837 0.961 . S
H2825 C2837 0.959 . S
H2826 C2840 0.929 . S
H2827 C2841 0.931 . S
H2828 C2843 0.930 . S
C2829 H2817 0.930 . S
C2829 C2830 1.399 . S
C2829 C2834 1.399 . S
C2830 C2829 1.399 . S
C2830 C2831 1.376 . S
C2831 H2818 0.930 . S
C2831 C2830 1.376 . S
C2831 C2832 1.388 . S
C2832 H2819 0.930 . S
C2832 C2831 1.388 . S
C2832 C2833 1.390 . S
C2833 C2832 1.390 . S
C2833 C2834 1.394 . S
C2833 C2839 1.465 . S
C2834 C2829 1.399 . S
C2834 C2833 1.394 . S
C2834 C2835 1.516 . S
C2835 C2834 1.516 . S
C2835 C2836 1.502 . S
C2835 C2837 1.561 . S
C2835 C2838 1.526 . S
C2836 H2820 0.959 . S
C2836 H2821 0.959 . S
C2836 H2822 0.961 . S
C2836 C2835 1.502 . S
C2837 H2823 0.960 . S
C2837 H2824 0.961 . S
C2837 H2825 0.959 . S
C2837 C2835 1.561 . S
C2838 C2835 1.526 . S
C2838 C2839 1.396 . S
C2838 C2843 1.390 . S
C2839 C2833 1.465 . S
C2839 C2838 1.396 . S
C2839 C2840 1.399 . S
C2840 H2826 0.929 . S
C2840 C2839 1.399 . S
C2840 C2841 1.385 . S
C2841 H2827 0.931 . S
C2841 C2840 1.385 . S
C2841 C2842 1.389 . S
C2842 C2841 1.389 . S
C2842 C2843 1.387 . S
C2843 H2828 0.930 . S
C2843 C2838 1.390 . S
C2843 C2842 1.387 . S
H2844 C2856 0.930 . S
H2845 C2858 0.930 . S
H2846 C2859 0.930 . S
H2847 C2863 0.959 . S
H2848 C2863 0.959 . S
H2849 C2863 0.961 . S
H2850 C2864 0.960 . S
H2851 C2864 0.961 . S
H2852 C2864 0.959 . S
H2853 C2867 0.929 . S
H2854 C2868 0.931 . S
H2855 C2870 0.930 . S
C2856 H2844 0.930 . S
C2856 C2857 1.399 . S
C2856 C2861 1.399 . S
C2857 C2856 1.399 . S
C2857 C2858 1.376 . S
C2858 H2845 0.930 . S
C2858 C2857 1.376 . S
C2858 C2859 1.388 . S
C2859 H2846 0.930 . S
C2859 C2858 1.388 . S
C2859 C2860 1.390 . S
C2860 C2859 1.390 . S
C2860 C2861 1.394 . S
C2860 C2866 1.465 . S
C2861 C2856 1.399 . S
C2861 C2860 1.394 . S
C2861 C2862 1.516 . S
C2862 C2861 1.516 . S
C2862 C2863 1.502 . S
C2862 C2864 1.561 . S
C2862 C2865 1.526 . S
C2863 H2847 0.959 . S
C2863 H2848 0.959 . S
C2863 H2849 0.961 . S
C2863 C2862 1.502 . S
C2864 H2850 0.960 . S
C2864 H2851 0.961 . S
C2864 H2852 0.959 . S
C2864 C2862 1.561 . S
C2865 C2862 1.526 . S
C2865 C2866 1.396 . S
C2865 C2870 1.390 . S
C2866 C2860 1.465 . S
C2866 C2865 1.396 . S
C2866 C2867 1.399 . S
C2867 H2853 0.929 . S
C2867 C2866 1.399 . S
C2867 C2868 1.385 . S
C2868 H2854 0.931 . S
C2868 C2867 1.385 . S
C2868 C2869 1.389 . S
C2869 C2868 1.389 . S
C2869 C2870 1.387 . S
C2870 H2855 0.930 . S
C2870 C2865 1.390 . S
C2870 C2869 1.387 . S
H2871 C2883 0.930 . S
H2872 C2885 0.930 . S
H2873 C2886 0.930 . S
H2874 C2890 0.959 . S
H2875 C2890 0.959 . S
H2876 C2890 0.961 . S
H2877 C2891 0.960 . S
H2878 C2891 0.961 . S
H2879 C2891 0.959 . S
H2880 C2894 0.929 . S
H2881 C2895 0.931 . S
H2882 C2897 0.930 . S
C2883 H2871 0.930 . S
C2883 C2884 1.399 . S
C2883 C2888 1.399 . S
C2884 C2883 1.399 . S
C2884 C2885 1.376 . S
C2885 H2872 0.930 . S
C2885 C2884 1.376 . S
C2885 C2886 1.388 . S
C2886 H2873 0.930 . S
C2886 C2885 1.388 . S
C2886 C2887 1.390 . S
C2887 C2886 1.390 . S
C2887 C2888 1.394 . S
C2887 C2893 1.465 . S
C2888 C2883 1.399 . S
C2888 C2887 1.394 . S
C2888 C2889 1.516 . S
C2889 C2888 1.516 . S
C2889 C2890 1.502 . S
C2889 C2891 1.561 . S
C2889 C2892 1.526 . S
C2890 H2874 0.959 . S
C2890 H2875 0.959 . S
C2890 H2876 0.961 . S
C2890 C2889 1.502 . S
C2891 H2877 0.960 . S
C2891 H2878 0.961 . S
C2891 H2879 0.959 . S
C2891 C2889 1.561 . S
C2892 C2889 1.526 . S
C2892 C2893 1.396 . S
C2892 C2897 1.390 . S
C2893 C2887 1.465 . S
C2893 C2892 1.396 . S
C2893 C2894 1.399 . S
C2894 H2880 0.929 . S
C2894 C2893 1.399 . S
C2894 C2895 1.385 . S
C2895 H2881 0.931 . S
C2895 C2894 1.385 . S
C2895 C2896 1.389 . S
C2896 C2895 1.389 . S
C2896 C2897 1.387 . S
C2897 H2882 0.930 . S
C2897 C2892 1.390 . S
C2897 C2896 1.387 . S
H2898 C2910 0.930 . S
H2899 C2912 0.930 . S
H2900 C2913 0.930 . S
H2901 C2917 0.959 . S
H2902 C2917 0.959 . S
H2903 C2917 0.961 . S
H2904 C2918 0.960 . S
H2905 C2918 0.961 . S
H2906 C2918 0.959 . S
H2907 C2921 0.929 . S
H2908 C2922 0.931 . S
H2909 C2924 0.930 . S
C2910 H2898 0.930 . S
C2910 C2911 1.399 . S
C2910 C2915 1.399 . S
C2911 C2910 1.399 . S
C2911 C2912 1.376 . S
C2912 H2899 0.930 . S
C2912 C2911 1.376 . S
C2912 C2913 1.388 . S
C2913 H2900 0.930 . S
C2913 C2912 1.388 . S
C2913 C2914 1.390 . S
C2914 C2913 1.390 . S
C2914 C2915 1.394 . S
C2914 C2920 1.465 . S
C2915 C2910 1.399 . S
C2915 C2914 1.394 . S
C2915 C2916 1.516 . S
C2916 C2915 1.516 . S
C2916 C2917 1.502 . S
C2916 C2918 1.561 . S
C2916 C2919 1.526 . S
C2917 H2901 0.959 . S
C2917 H2902 0.959 . S
C2917 H2903 0.961 . S
C2917 C2916 1.502 . S
C2918 H2904 0.960 . S
C2918 H2905 0.961 . S
C2918 H2906 0.959 . S
C2918 C2916 1.561 . S
C2919 C2916 1.526 . S
C2919 C2920 1.396 . S
C2919 C2924 1.390 . S
C2920 C2914 1.465 . S
C2920 C2919 1.396 . S
C2920 C2921 1.399 . S
C2921 H2907 0.929 . S
C2921 C2920 1.399 . S
C2921 C2922 1.385 . S
C2922 H2908 0.931 . S
C2922 C2921 1.385 . S
C2922 C2923 1.389 . S
C2923 C2922 1.389 . S
C2923 C2924 1.387 . S
C2924 H2909 0.930 . S
C2924 C2919 1.390 . S
C2924 C2923 1.387 . S
H2925 C2937 0.930 . S
H2926 C2939 0.930 . S
H2927 C2940 0.930 . S
H2928 C2944 0.959 . S
H2929 C2944 0.959 . S
H2930 C2944 0.961 . S
H2931 C2945 0.960 . S
H2932 C2945 0.961 . S
H2933 C2945 0.959 1_455 S
H2934 C2948 0.929 . S
H2935 C2949 0.931 . S
H2936 C2951 0.930 . S
C2937 H2925 0.930 . S
C2937 C2938 1.399 . S
C2937 C2942 1.399 . S
C2938 C2937 1.399 . S
C2938 C2939 1.376 1_655 S
C2939 H2926 0.930 . S
C2939 C2938 1.376 1_455 S
C2939 C2940 1.388 . S
C2940 H2927 0.930 . S
C2940 C2939 1.388 . S
C2940 C2941 1.395 1_455 S
C2941 C2940 1.395 1_655 S
C2941 C2942 1.412 . S
C2941 C2947 1.433 1_655 S
C2942 C2937 1.399 . S
C2942 C2941 1.412 . S
C2942 C2943 1.516 . S
C2943 C2942 1.516 . S
C2943 C2944 1.502 . S
C2943 C2945 1.561 . S
C2943 C2946 1.526 . S
C2944 H2928 0.959 . S
C2944 H2929 0.959 . S
C2944 H2930 0.961 . S
C2944 C2943 1.502 . S
C2945 H2931 0.960 . S
C2945 H2932 0.961 . S
C2945 H2933 0.959 1_655 S
C2945 C2943 1.561 . S
C2946 C2943 1.526 . S
C2946 C2947 1.393 1_655 S
C2946 C2951 1.390 . S
C2947 C2941 1.433 1_455 S
C2947 C2946 1.393 1_455 S
C2947 C2948 1.415 . S
C2948 H2934 0.929 . S
C2948 C2947 1.415 . S
C2948 C2949 1.385 . S
C2949 H2935 0.931 . S
C2949 C2948 1.385 . S
C2949 C2950 1.389 1_455 S
C2950 C2949 1.389 1_655 S
C2950 C2951 1.387 . S
C2951 H2936 0.930 . S
C2951 C2946 1.390 . S
C2951 C2950 1.387 . S
H2952 C2964 0.930 . S
H2953 C2966 0.930 . S
H2954 C2967 0.930 . S
H2955 C2971 0.959 . S
H2956 C2971 0.959 . S
H2957 C2971 0.961 . S
H2958 C2972 0.960 . S
H2959 C2972 0.961 . S
H2960 C2972 0.959 . S
H2961 C2975 0.929 . S
H2962 C2976 0.931 . S
H2963 C2978 0.930 . S
C2964 H2952 0.930 . S
C2964 C2965 1.399 . S
C2964 C2969 1.399 . S
C2965 C2964 1.399 . S
C2965 C2966 1.376 . S
C2966 H2953 0.930 . S
C2966 C2965 1.376 . S
C2966 C2967 1.388 . S
C2967 H2954 0.930 . S
C2967 C2966 1.388 . S
C2967 C2968 1.390 . S
C2968 C2967 1.390 . S
C2968 C2969 1.394 . S
C2968 C2974 1.465 . S
C2969 C2964 1.399 . S
C2969 C2968 1.394 . S
C2969 C2970 1.516 . S
C2970 C2969 1.516 . S
C2970 C2971 1.502 . S
C2970 C2972 1.561 . S
C2970 C2973 1.526 . S
C2971 H2955 0.959 . S
C2971 H2956 0.959 . S
C2971 H2957 0.961 . S
C2971 C2970 1.502 . S
C2972 H2958 0.960 . S
C2972 H2959 0.961 . S
C2972 H2960 0.959 . S
C2972 C2970 1.561 . S
C2973 C2970 1.526 . S
C2973 C2974 1.396 . S
C2973 C2978 1.390 . S
C2974 C2968 1.465 . S
C2974 C2973 1.396 . S
C2974 C2975 1.399 . S
C2975 H2961 0.929 . S
C2975 C2974 1.399 . S
C2975 C2976 1.385 . S
C2976 H2962 0.931 . S
C2976 C2975 1.385 . S
C2976 C2977 1.389 . S
C2977 C2976 1.389 . S
C2977 C2978 1.387 . S
C2978 H2963 0.930 . S
C2978 C2973 1.390 . S
C2978 C2977 1.387 . S
H2979 C2991 0.930 . S
H2980 C2993 0.930 . S
H2981 C2994 0.930 . S
H2982 C2998 0.959 . S
H2983 C2998 0.959 . S
H2984 C2998 0.961 . S
H2985 C2999 0.960 . S
H2986 C2999 0.961 . S
H2987 C2999 0.959 . S
H2988 C3002 0.929 . S
H2989 C3003 0.931 . S
H2990 C3005 0.930 . S
C2991 H2979 0.930 . S
C2991 C2992 1.399 1_565 S
C2991 C2996 1.408 . S
C2992 C2991 1.399 1_545 S
C2992 C2993 1.376 . S
C2993 H2980 0.930 . S
C2993 C2992 1.376 . S
C2993 C2994 1.388 . S
C2994 H2981 0.930 . S
C2994 C2993 1.388 . S
C2994 C2995 1.390 . S
C2995 C2994 1.390 . S
C2995 C2996 1.379 1_545 S
C2995 C3001 1.465 . S
C2996 C2991 1.408 . S
C2996 C2995 1.379 1_565 S
C2996 C2997 1.520 . S
C2997 C2996 1.520 . S
C2997 C2998 1.502 . S
C2997 C2999 1.561 . S
C2997 C3000 1.526 . S
C2998 H2982 0.959 . S
C2998 H2983 0.959 . S
C2998 H2984 0.961 . S
C2998 C2997 1.502 . S
C2999 H2985 0.960 . S
C2999 H2986 0.961 . S
C2999 H2987 0.959 . S
C2999 C2997 1.561 . S
C3000 C2997 1.526 . S
C3000 C3001 1.396 1_565 S
C3000 C3005 1.390 . S
C3001 C2995 1.465 . S
C3001 C3000 1.396 1_545 S
C3001 C3002 1.399 . S
C3002 H2988 0.929 . S
C3002 C3001 1.399 . S
C3002 C3003 1.385 . S
C3003 H2989 0.931 . S
C3003 C3002 1.385 . S
C3003 C3004 1.389 . S
C3004 C3003 1.389 . S
C3004 C3005 1.387 1_545 S
C3005 H2990 0.930 . S
C3005 C3000 1.390 . S
C3005 C3004 1.387 1_565 S
C1075 C10 1.558 1_655 S
C1087 C670 1.557 . S
C1102 C23 1.603 . S
C1114 C716 1.576 . S
C1141 C748 1.554 . S
C1129 C29 1.556 . S
C1156 C30 1.565 . S
C1168 C801 1.575 . S
C1183 C5 1.569 . S
C1195 C847 1.570 . S
C1210 C18 1.603 . S
C1222 C886 1.595 . S
C1237 C49 1.555 . S
C1249 C840 1.551 . S
C1276 C893 1.602 . S
C1264 C62 1.601 . S
C1303 C794 1.547 . S
C1291 C70 1.537 . S
C1318 C75 1.585 . S
C1330 C755 1.546 . S
C1357 C649 1.554 . S
C1345 C44 1.542 1_455 S
C1372 C57 1.602 . S
C1384 C695 1.594 . S
C1399 C88 1.651 . S
C1411 C925 1.648 . S
C1426 C101 1.649 . S
C1438 C992 1.617 . S
C1465 C1038 1.611 . S
C1453 C107 1.637 . S
C1480 C108 1.602 . S
C1492 C249 1.609 . S
C1507 C83 1.636 . S
C1519 C295 1.631 . S
C1534 C96 1.627 . S
C1546 C341 1.601 . S
C1561 C127 1.607 . S
C1573 C288 1.576 . S
C1588 C140 1.623 . S
C1600 C334 1.622 . S
C1627 C242 1.593 . S
C1615 C146 1.620 . S
C1654 C1017 1.651 . S
C1642 C147 1.648 . S
C1681 C946 1.635 . S
C1669 C122 1.630 . S
C1708 C971 1.652 . S
C1696 C135 1.660 . S
C1723 C160 1.610 . S
C1735 C373 1.590 . S
C1750 C173 1.621 . S
C1762 C426 1.625 . S
C1777 C185 1.628 . S
C1789 C472 1.610 . S
C1804 C186 1.649 . S
C1816 C518 1.629 . S
C1843 C571 1.608 . S
C1831 C159 1.642 . S
C1870 C617 1.647 . S
C1858 C172 1.646 . S
C1897 C564 1.625 . S
C1885 C205 1.653 . S
C1924 C610 1.616 . S
C1912 C218 1.647 . S
C1939 C224 1.632 . S
C1951 C525 1.619 . S
C1978 C479 1.610 . S
C1966 C225 1.605 . S
C1993 C200 1.636 . S
C2005 C394 1.624 . S
C2032 C433 1.618 . S
C2020 C213 1.626 . S
C2059 C256 1.531 . S
C2047 C4 1.530 . S
C2074 C17 1.495 . S
C2086 C302 1.500 . S
C2113 C348 1.519 . S
C2101 C31 1.528 . S
C2140 C380 1.507 . S
C2128 C36 1.526 . S
C2167 C419 1.511 . S
C2155 C3 1.535 . S
C2194 C465 1.491 . S
C2182 C16 1.497 . S
C2209 C43 1.538 . S
C2221 C486 1.546 . S
C2236 C56 1.491 . S
C2248 C387 1.472 . S
C2263 C68 1.531 . S
C2275 C440 1.502 . S
C2290 C69 1.535 . S
C2302 C281 1.539 . S
C2329 C327 1.521 . S
C2317 C42 1.527 . S
C2344 C55 1.499 . S
C2356 C235 1.505 . S
C2383 C511 1.516 . S
C2371 C82 1.525 . S
C2398 C95 1.549 . S
C2410 C578 1.533 . S
C2425 C109 1.567 . S
C2437 C624 1.569 . S
C2464 C663 1.477 . S
C2452 C114 1.468 . S
C2479 C81 1.536 . S
C2491 C709 1.522 . S
C2506 C94 1.477 . S
C2518 C741 1.482 . S
C2533 C121 1.475 . S
C2545 C762 1.471 . S
C2560 C134 1.468 . S
C2572 C656 1.456 . S
C2599 C702 1.538 . S
C2587 C148 1.532 . S
C2614 C153 1.530 . S
C2626 C557 1.525 . S
C2641 C120 1.569 . S
C2653 C603 1.553 . S
C2680 C532 1.528 . S
C2668 C133 1.558 . S
C2707 C808 1.462 . S
C2695 C166 1.470 . S
C2722 C179 1.451 . S
C2734 C854 1.454 . S
C2749 C187 1.529 . S
C2761 C879 1.509 . S
C2788 C932 1.525 . S
C2776 C192 1.526 . S
C2815 C985 1.554 . S
C2803 C161 1.570 . S
C2830 C174 1.560 . S
C2842 C1031 1.548 . S
C2857 C199 1.526 . S
C2869 C1024 1.506 . S
C2884 C212 1.552 . S
C2896 C939 1.531 . S
C2923 C978 1.566 . S
C2911 C226 1.565 . S
C2950 C833 1.454 . S
C2938 C231 1.467 . S
C2977 C900 1.516 . S
C2965 C198 1.535 . S
C2992 C211 1.466 . S
C3004 C787 1.467 . S
