# Generated by pormake.
# Topology cml, (3,6)-cn, num edge types: 1
# Building blocks:
#     Node 0, Type 0, BuildingBlock: KAKCAD_clean_linker_0, # of connection points: 3
#     Node 1, Type 0, BuildingBlock: KAKCAD_clean_linker_0, # of connection points: 3
#     Node 2, Type 0, BuildingBlock: KAKCAD_clean_linker_0, # of connection points: 3
#     Node 3, Type 0, BuildingBlock: KAKCAD_clean_linker_0, # of connection points: 3
#     Node 4, Type 0, BuildingBlock: KAKCAD_clean_linker_0, # of connection points: 3
#     Node 5, Type 0, BuildingBlock: KAKCAD_clean_linker_0, # of connection points: 3
#     Node 6, Type 0, BuildingBlock: KAKCAD_clean_linker_0, # of connection points: 3
#     Node 7, Type 0, BuildingBlock: KAKCAD_clean_linker_0, # of connection points: 3
#     Node 8, Type 1, BuildingBlock: OJICUG_clean_sbu_0, # of connection points: 6
#     Node 9, Type 1, BuildingBlock: OJICUG_clean_sbu_0, # of connection points: 6
#     Node 10, Type 1, BuildingBlock: OJICUG_clean_sbu_0, # of connection points: 6
#     Node 11, Type 1, BuildingBlock: OJICUG_clean_sbu_0, # of connection points: 6
#     Edge 12, Type (0, 1), BuildingBlock: KIFKEQ_clean_linker_1, # of connection points: 2
#     Edge 13, Type (0, 1), BuildingBlock: KIFKEQ_clean_linker_1, # of connection points: 2
#     Edge 14, Type (0, 1), BuildingBlock: KIFKEQ_clean_linker_1, # of connection points: 2
#     Edge 15, Type (0, 1), BuildingBlock: KIFKEQ_clean_linker_1, # of connection points: 2
#     Edge 16, Type (0, 1), BuildingBlock: KIFKEQ_clean_linker_1, # of connection points: 2
#     Edge 17, Type (0, 1), BuildingBlock: KIFKEQ_clean_linker_1, # of connection points: 2
#     Edge 18, Type (0, 1), BuildingBlock: KIFKEQ_clean_linker_1, # of connection points: 2
#     Edge 19, Type (0, 1), BuildingBlock: KIFKEQ_clean_linker_1, # of connection points: 2
#     Edge 20, Type (0, 1), BuildingBlock: KIFKEQ_clean_linker_1, # of connection points: 2
#     Edge 21, Type (0, 1), BuildingBlock: KIFKEQ_clean_linker_1, # of connection points: 2
#     Edge 22, Type (0, 1), BuildingBlock: KIFKEQ_clean_linker_1, # of connection points: 2
#     Edge 23, Type (0, 1), BuildingBlock: KIFKEQ_clean_linker_1, # of connection points: 2
#     Edge 24, Type (0, 1), BuildingBlock: KIFKEQ_clean_linker_1, # of connection points: 2
#     Edge 25, Type (0, 1), BuildingBlock: KIFKEQ_clean_linker_1, # of connection points: 2
#     Edge 26, Type (0, 1), BuildingBlock: KIFKEQ_clean_linker_1, # of connection points: 2
#     Edge 27, Type (0, 1), BuildingBlock: KIFKEQ_clean_linker_1, # of connection points: 2
#     Edge 28, Type (0, 1), BuildingBlock: KIFKEQ_clean_linker_1, # of connection points: 2
#     Edge 29, Type (0, 1), BuildingBlock: KIFKEQ_clean_linker_1, # of connection points: 2
#     Edge 30, Type (0, 1), BuildingBlock: KIFKEQ_clean_linker_1, # of connection points: 2
#     Edge 31, Type (0, 1), BuildingBlock: KIFKEQ_clean_linker_1, # of connection points: 2
#     Edge 32, Type (0, 1), BuildingBlock: KIFKEQ_clean_linker_1, # of connection points: 2
#     Edge 33, Type (0, 1), BuildingBlock: KIFKEQ_clean_linker_1, # of connection points: 2
#     Edge 34, Type (0, 1), BuildingBlock: KIFKEQ_clean_linker_1, # of connection points: 2
#     Edge 35, Type (0, 1), BuildingBlock: KIFKEQ_clean_linker_1, # of connection points: 2
# Relax obj value: 0.072
# Max RMSD: 0.084
# Mean RMSD: 0.080
data_MOF--net-cml--node1-OJICUG_clean_sbu_0--node2-KAKCAD_clean_linker_0--edge1-KIFKEQ_clean_linker_1
_symmetry_space_group_name_H-M    P1
_symmetry_Int_Tables_number       1
_symmetry_cell_setting            triclinic
loop_
_symmetry_equiv_pos_as_xyz
'x, y, z'
_cell_length_a     48.365911
_cell_length_b     48.782829
_cell_length_c     46.053101
_cell_angle_alpha  89.843182
_cell_angle_beta   90.079441
_cell_angle_gamma 90.125492
loop_
_atom_site_label
_atom_site_type_symbol
_atom_site_fract_x
_atom_site_fract_y
_atom_site_fract_z
_atom_type_partial_charge
C0 C 0.29614 0.48471 0.95443 0.0
C1 C 0.3251 0.48341 0.95214 0.0
C2 C 0.28155 0.46423 0.96935 0.0
C3 C 0.29574 0.44235 0.98251 0.0
C4 C 0.32468 0.44125 0.98033 0.0
C5 C 0.33917 0.46151 0.96534 0.0
C6 C 0.2807 0.42028 -0.00187 0.0
C7 C 0.25764 0.40748 0.98549 0.0
C8 C 0.24519 0.38457 -0.00117 0.0
C9 C 0.2558 0.37502 0.0255 0.0
C10 C 0.27913 0.38734 0.03807 0.0
C11 C 0.29106 0.41026 0.02455 0.0
C12 C 0.29283 0.37481 0.06366 0.0
C13 C 0.27763 0.36644 0.08813 0.0
C14 C 0.32159 0.3709 0.06342 0.0
C15 C 0.33498 0.35933 0.08726 0.0
C16 C 0.31998 0.35138 0.11199 0.0
C17 C 0.22307 0.36903 0.98349 0.0
C18 C 0.20281 0.38264 0.96694 0.0
C19 C 0.22294 0.34021 0.98414 0.0
C20 C 0.20328 0.32539 0.96853 0.0
C21 C 0.18342 0.33891 0.95141 0.0
C22 C 0.18327 0.36775 0.951 0.0
C23 C 0.29113 0.35498 0.1122 0.0
H24 H 0.28478 0.50132 0.94435 0.0
H25 H 0.25925 0.46559 0.97077 0.0
H26 H 0.33617 0.42445 0.9899 0.0
H27 H 0.3615 0.46013 0.96426 0.0
H28 H 0.25053 0.41433 0.96437 0.0
H29 H 0.30892 0.42002 0.03437 0.0
H30 H 0.24668 0.35723 0.0359 0.0
H31 H 0.25543 0.36921 0.08884 0.0
H32 H 0.3338 0.37674 0.04468 0.0
H33 H 0.35727 0.35724 0.08656 0.0
H34 H 0.20214 0.40481 0.96614 0.0
H35 H 0.23847 0.32894 0.99617 0.0
H36 H 0.27904 0.34898 0.13095 0.0
H37 H 0.1684 0.37887 0.93793 0.0
H38 H 0.20372 0.30323 0.9699 0.0
C39 C 0.69903 0.50741 0.45344 0.0
C40 C 0.67022 0.50917 0.44979 0.0
C41 C 0.71342 0.52788 0.46849 0.0
C42 C 0.69916 0.55025 0.48044 0.0
C43 C 0.67035 0.55182 0.47692 0.0
C44 C 0.65607 0.53154 0.46178 0.0
C45 C 0.71402 0.5724 0.49603 0.0
C46 C 0.73794 0.58427 0.48416 0.0
C47 C 0.75012 0.60738 0.49713 0.0
C48 C 0.73859 0.61816 0.52269 0.0
C49 C 0.71482 0.60632 0.53493 0.0
C50 C 0.70289 0.58331 0.52162 0.0
C51 C 0.70121 0.61879 0.56052 0.0
C52 C 0.71646 0.62619 0.58529 0.0
C53 C 0.67246 0.6228 0.56039 0.0
C54 C 0.6591 0.63331 0.58472 0.0
C55 C 0.67414 0.64005 0.60984 0.0
C56 C 0.77322 0.6217 0.48237 0.0
C57 C 0.79594 0.607 0.4716 0.0
C58 C 0.77188 0.65011 0.4776 0.0
C59 C 0.7926 0.66351 0.46196 0.0
C60 C 0.81524 0.64883 0.45102 0.0
C61 C 0.8169 0.62049 0.45625 0.0
C62 C 0.70302 0.63656 0.60983 0.0
H63 H 0.71047 0.49043 0.44431 0.0
H64 H 0.73562 0.52614 0.47096 0.0
H65 H 0.65883 0.56899 0.48552 0.0
H66 H 0.63383 0.53329 0.45966 0.0
H67 H 0.74607 0.57658 0.46383 0.0
H68 H 0.6846 0.57402 0.53106 0.0
H69 H 0.7476 0.63628 0.53252 0.0
H70 H 0.73865 0.62328 0.58595 0.0
H71 H 0.66022 0.61762 0.54146 0.0
H72 H 0.63682 0.63538 0.58412 0.0
H73 H 0.79745 0.58507 0.47503 0.0
H74 H 0.75443 0.66189 0.48535 0.0
H75 H 0.71516 0.64171 0.62884 0.0
H76 H 0.83412 0.6087 0.448 0.0
H77 H 0.79099 0.68543 0.45853 0.0
C78 C 0.68767 0.47397 0.94289 0.0
C79 C 0.67916 0.4965 0.95959 0.0
C80 C 0.7021 0.45233 0.95571 0.0
C81 C 0.70831 0.45268 0.98552 0.0
C82 C 0.70059 0.47559 0.00206 0.0
C83 C 0.68621 0.49729 0.98921 0.0
C84 C 0.72127 0.42846 -0.00048 0.0
C85 C 0.74287 0.41444 0.98571 0.0
C86 C 0.75352 0.39004 -0.00251 0.0
C87 C 0.74254 0.37997 0.02371 0.0
C88 C 0.72119 0.39392 0.03802 0.0
C89 C 0.71076 0.4182 0.0258 0.0
C90 C 0.70867 0.3825 0.0649 0.0
C91 C 0.7022 0.35444 0.06698 0.0
C92 C 0.70194 0.39982 0.08815 0.0
C93 C 0.68835 0.38949 0.11258 0.0
C94 C 0.68113 0.36159 0.11433 0.0
C95 C 0.77524 0.37445 0.98184 0.0
C96 C 0.77442 0.37202 0.95139 0.0
C97 C 0.79643 0.36111 0.99726 0.0
C98 C 0.81583 0.34511 0.98269 0.0
C99 C 0.81465 0.34231 0.95237 0.0
C100 C 0.79403 0.35623 0.9368 0.0
C101 C 0.68853 0.34411 0.09142 0.0
H102 H 0.68222 0.47249 0.92013 0.0
H103 H 0.7074 0.43479 0.94247 0.0
H104 H 0.70543 0.47659 0.025 0.0
H105 H 0.68035 0.51456 0.00257 0.0
H106 H 0.75139 0.4226 0.96572 0.0
H107 H 0.69347 0.42842 0.03606 0.0
H108 H 0.75026 0.36095 0.03279 0.0
H109 H 0.70691 0.34061 0.04933 0.0
H110 H 0.70689 0.42147 0.08729 0.0
H111 H 0.68268 0.40359 0.12968 0.0
H112 H 0.75815 0.38166 0.93885 0.0
H113 H 0.79801 0.36298 0.02063 0.0
H114 H 0.68347 0.32248 0.09222 0.0
H115 H 0.79254 0.35421 0.91343 0.0
H116 H 0.8318 0.33489 0.99516 0.0
C117 C 0.2964 0.63087 0.60608 0.0
C118 C 0.32548 0.63115 0.60601 0.0
C119 C 0.28174 0.62264 0.58125 0.0
C120 C 0.29605 0.61462 0.55611 0.0
C121 C 0.32502 0.61654 0.55569 0.0
C122 C 0.33954 0.62464 0.58032 0.0
C123 C 0.28147 0.60294 0.53062 0.0
C124 C 0.25862 0.61614 0.51799 0.0
C125 C 0.24751 0.60657 0.49162 0.0
C126 C 0.25885 0.58319 0.47846 0.0
C127 C 0.2814 0.56967 0.49109 0.0
C128 C 0.29223 0.5794 0.51734 0.0
C129 C 0.29561 0.54719 0.47557 0.0
C130 C 0.28074 0.52533 0.46323 0.0
C131 C 0.3245 0.5479 0.47267 0.0
C132 C 0.33829 0.52728 0.45774 0.0
C133 C 0.32356 0.50539 0.44539 0.0
C134 C 0.22605 0.62251 0.47617 0.0
C135 C 0.20155 0.63031 0.4902 0.0
C136 C 0.23034 0.63043 0.44717 0.0
C137 C 0.21065 0.64611 0.43251 0.0
C138 C 0.1861 0.65383 0.44644 0.0
C139 C 0.18158 0.64562 0.47533 0.0
C140 C 0.29465 0.50444 0.44844 0.0
H141 H 0.28508 0.63583 0.62565 0.0
H142 H 0.25939 0.62145 0.58207 0.0
H143 H 0.33658 0.61122 0.53637 0.0
H144 H 0.36192 0.62529 0.57945 0.0
H145 H 0.25066 0.63477 0.52763 0.0
H146 H 0.30967 0.56894 0.52717 0.0
H147 H 0.25081 0.57621 0.45776 0.0
H148 H 0.25845 0.52431 0.46524 0.0
H149 H 0.33647 0.56468 0.48163 0.0
H150 H 0.36061 0.52838 0.45603 0.0
H151 H 0.19782 0.62441 0.51255 0.0
H152 H 0.2492 0.62489 0.43598 0.0
H153 H 0.28282 0.4878 0.43904 0.0
H154 H 0.16285 0.65152 0.48655 0.0
H155 H 0.21455 0.65211 0.41022 0.0
C156 C 0.79448 0.98747 0.9532 0.0
C157 C 0.82343 0.98594 0.95094 0.0
C158 C 0.7797 0.96705 0.96801 0.0
C159 C 0.79369 0.94502 0.98113 0.0
C160 C 0.82261 0.94366 0.97894 0.0
C161 C 0.83729 0.96385 0.96402 0.0
C162 C 0.77847 0.92317 0.9969 0.0
C163 C 0.75541 0.91032 0.98431 0.0
C164 C 0.74274 0.88766 -0.00207 0.0
C165 C 0.75316 0.87844 0.02484 0.0
C166 C 0.7765 0.89081 0.03736 0.0
C167 C 0.78864 0.91346 0.02352 0.0
C168 C 0.78998 0.87865 0.06331 0.0
C169 C 0.77459 0.8708 0.08784 0.0
C170 C 0.81872 0.87465 0.06337 0.0
C171 C 0.83192 0.86349 0.08754 0.0
C172 C 0.81674 0.85601 0.11232 0.0
C173 C 0.72053 0.87206 0.98274 0.0
C174 C 0.70058 0.88554 0.96566 0.0
C175 C 0.71998 0.84326 0.9841 0.0
C176 C 0.70022 0.82835 0.96871 0.0
C177 C 0.68068 0.84173 0.95106 0.0
C178 C 0.68095 0.87055 0.94991 0.0
C179 C 0.7879 0.85974 0.11225 0.0
H180 H 0.78327 0.00422 0.9432 0.0
H181 H 0.7574 0.9686 0.96945 0.0
H182 H 0.83394 0.92675 0.9885 0.0
H183 H 0.8596 0.96228 0.96294 0.0
H184 H 0.74846 0.91695 0.96305 0.0
H185 H 0.80651 0.92326 0.03329 0.0
H186 H 0.74386 0.86089 0.03551 0.0
H187 H 0.75239 0.87366 0.08834 0.0
H188 H 0.83108 0.88011 0.04462 0.0
H189 H 0.8542 0.86129 0.08704 0.0
H190 H 0.70019 0.9077 0.9643 0.0
H191 H 0.73525 0.83204 0.99654 0.0
H192 H 0.77566 0.8541 0.13102 0.0
H193 H 0.66635 0.88158 0.93643 0.0
H194 H 0.70034 0.80623 0.97068 0.0
C195 C 0.19551 0.01035 0.45028 0.0
C196 C 0.16647 0.00953 0.45075 0.0
C197 C 0.20977 0.03198 0.46356 0.0
C198 C 0.1952 0.05323 0.47731 0.0
C199 C 0.16613 0.05262 0.47699 0.0
C200 C 0.15198 0.03099 0.46401 0.0
C201 C 0.20989 0.07617 0.49195 0.0
C202 C 0.2333 0.08841 0.47934 0.0
C203 C 0.24552 0.11168 0.49197 0.0
C204 C 0.23442 0.12249 0.51771 0.0
C205 C 0.21117 0.11036 0.53063 0.0
C206 C 0.19935 0.08703 0.51788 0.0
C207 C 0.19793 0.12276 0.55644 0.0
C208 C 0.21349 0.12989 0.58109 0.0
C209 C 0.1692 0.12681 0.55668 0.0
C210 C 0.15613 0.13713 0.58127 0.0
C211 C 0.17146 0.14356 0.60628 0.0
C212 C 0.26853 0.12589 0.47701 0.0
C213 C 0.29163 0.11121 0.46714 0.0
C214 C 0.26701 0.1542 0.47169 0.0
C215 C 0.28809 0.16758 0.45656 0.0
C216 C 0.31124 0.15298 0.44678 0.0
C217 C 0.31295 0.12471 0.45237 0.0
C218 C 0.20032 0.14002 0.60591 0.0
H219 H 0.20715 0.99399 0.44022 0.0
H220 H 0.23216 0.0318 0.46352 0.0
H221 H 0.1542 0.06902 0.48659 0.0
H222 H 0.12957 0.03117 0.46414 0.0
H223 H 0.24117 0.08076 0.45888 0.0
H224 H 0.18165 0.07743 0.52817 0.0
H225 H 0.24343 0.14074 0.52724 0.0
H226 H 0.23567 0.12692 0.58143 0.0
H227 H 0.15675 0.12176 0.53785 0.0
H228 H 0.13385 0.13927 0.58097 0.0
H229 H 0.29325 0.08936 0.47102 0.0
H230 H 0.24928 0.16591 0.4788 0.0
H231 H 0.21265 0.14492 0.62486 0.0
H232 H 0.3306 0.11301 0.44499 0.0
H233 H 0.28642 0.18945 0.45277 0.0
C234 C 0.18393 0.96728 0.93826 0.0
C235 C 0.17678 0.9912 0.95342 0.0
C236 C 0.19875 0.94641 0.95202 0.0
C237 C 0.20671 0.94898 0.98125 0.0
C238 C 0.20033 0.97323 0.99616 0.0
C239 C 0.18558 0.99414 0.98238 0.0
C240 C 0.22025 0.92578 0.99651 0.0
C241 C 0.24086 0.91043 0.98271 0.0
C242 C 0.25225 0.88725 0.99622 0.0
C243 C 0.24301 0.87942 0.02394 0.0
C244 C 0.22223 0.89446 0.03798 0.0
C245 C 0.2112 0.91776 0.02421 0.0
C246 C 0.21006 0.88483 0.06578 0.0
C247 C 0.2022 0.85725 0.06937 0.0
C248 C 0.20365 0.90369 0.08772 0.0
C249 C 0.18825 0.89556 0.11187 0.0
C250 C 0.17883 0.86838 0.11459 0.0
C251 C 0.2727 0.87045 0.98051 0.0
C252 C 0.26691 0.86142 0.95221 0.0
C253 C 0.298 0.86344 0.99349 0.0
C254 C 0.31734 0.84783 0.97823 0.0
C255 C 0.3114 0.8386 0.95002 0.0
C256 C 0.286 0.84546 0.93718 0.0
C257 C 0.18672 0.8491 0.09356 0.0
H258 H 0.17716 0.96418 0.91609 0.0
H259 H 0.20302 0.9278 0.94007 0.0
H260 H 0.20655 0.97594 0.01857 0.0
H261 H 0.18081 0.01253 0.9945 0.0
H262 H 0.24804 0.91648 0.96133 0.0
H263 H 0.19441 0.92882 0.03439 0.0
H264 H 0.25143 0.86122 0.03418 0.0
H265 H 0.20666 0.84228 0.0527 0.0
H266 H 0.20984 0.92498 0.08577 0.0
H267 H 0.18304 0.91077 0.12805 0.0
H268 H 0.24744 0.86646 0.94184 0.0
H269 H 0.30291 0.87028 0.01525 0.0
H270 H 0.17967 0.82805 0.09497 0.0
H271 H 0.28103 0.83865 0.91542 0.0
H272 H 0.33674 0.84261 0.98862 0.0
C273 C 0.79093 0.13433 0.61022 0.0
C274 C 0.81978 0.13804 0.61014 0.0
C275 C 0.7775 0.1232 0.58599 0.0
C276 C 0.79278 0.11523 0.56152 0.0
C277 C 0.82149 0.1195 0.56126 0.0
C278 C 0.83483 0.13082 0.58525 0.0
C279 C 0.77921 0.10182 0.53642 0.0
C280 C 0.75585 0.11348 0.52327 0.0
C281 C 0.74435 0.1019 0.49798 0.0
C282 C 0.7563 0.07802 0.48637 0.0
C283 C 0.77987 0.06636 0.4992 0.0
C284 C 0.7909 0.07818 0.52441 0.0
C285 C 0.79463 0.04343 0.48498 0.0
C286 C 0.78033 0.02045 0.47428 0.0
C287 C 0.82346 0.04485 0.48158 0.0
C288 C 0.8377 0.02392 0.46762 0.0
C289 C 0.8235 0.00101 0.45673 0.0
C290 C 0.7215 0.11619 0.48246 0.0
C291 C 0.70059 0.12966 0.49807 0.0
C292 C 0.72141 0.11801 0.45193 0.0
C293 C 0.70144 0.13361 0.43748 0.0
C294 C 0.68138 0.14798 0.45325 0.0
C295 C 0.68087 0.14553 0.48363 0.0
C296 C 0.7947 -0.00071 0.46043 0.0
H297 H 0.77882 0.13983 0.62909 0.0
H298 H 0.75532 0.12011 0.58669 0.0
H299 H 0.83372 0.11385 0.54251 0.0
H300 H 0.8571 0.13308 0.58463 0.0
H301 H 0.74764 0.13243 0.53189 0.0
H302 H 0.80896 0.06911 0.53456 0.0
H303 H 0.74791 0.06905 0.46674 0.0
H304 H 0.75812 0.01881 0.47672 0.0
H305 H 0.83501 0.06245 0.48928 0.0
H306 H 0.85993 0.02566 0.46538 0.0
H307 H 0.69969 0.12829 0.52153 0.0
H308 H 0.73741 0.10833 0.43918 0.0
H309 H 0.78326 0.98187 0.45212 0.0
H310 H 0.66534 0.15612 0.49625 0.0
H311 H 0.70239 0.13535 0.41404 0.0
Sc312 Sc -0.00255 0.78764 0.30533 0.0
Sc313 Sc 0.99471 0.85978 0.31094 0.0
Sc314 Sc -0.00172 0.81977 0.37414 0.0
O315 O -0.00321 0.82232 0.33012 0.0
C316 C 0.95923 0.76893 0.35811 0.0
C317 C 0.95328 0.82481 0.27166 0.0
C318 C 0.95395 0.8672 0.36493 0.0
C319 C 0.03663 0.82809 0.26927 0.0
C320 C 0.04122 0.77375 0.35548 0.0
C321 C 0.03697 0.8718 0.36237 0.0
O322 O 0.96639 0.76743 0.33158 0.0
O323 O 0.96194 0.84718 0.28247 0.0
O324 O 0.96402 0.84762 0.37985 0.0
O325 O 0.02884 0.80402 0.27632 0.0
O326 O 0.03251 0.79192 0.37291 0.0
O327 O 0.02735 0.87679 0.33723 0.0
O328 O 0.03024 0.76924 0.3308 0.0
O329 O 0.02573 0.84957 0.27972 0.0
O330 O 0.02791 0.85245 0.37823 0.0
O331 O 0.96439 0.80177 0.2773 0.0
O332 O 0.96937 0.78638 0.3756 0.0
O333 O 0.9634 0.87406 0.34022 0.0
Sc334 Sc -0.00329 0.20494 0.80739 0.0
Sc335 Sc -0.00212 0.1325 0.80991 0.0
Sc336 Sc -0.00172 0.17016 0.8747 0.0
O337 O -0.00238 0.16924 0.83063 0.0
C338 C 0.03915 0.21911 0.85858 0.0
C339 C 0.03868 0.16833 0.77049 0.0
C340 C 0.03944 0.12051 0.86208 0.0
C341 C 0.95537 0.16693 0.77116 0.0
C342 C 0.95686 0.21937 0.86008 0.0
C343 C 0.95639 0.12095 0.86259 0.0
O344 O 0.02828 0.22391 0.83391 0.0
O345 O 0.02922 0.14565 0.7799 0.0
O346 O 0.02935 0.13901 0.8782 0.0
O347 O 0.96485 0.19028 0.7784 0.0
O348 O 0.96762 0.20172 0.87694 0.0
O349 O 0.96649 0.1155 0.83779 0.0
O350 O 0.9644 0.2225 0.83383 0.0
O351 O 0.96523 0.14458 0.78088 0.0
O352 O 0.96541 0.14036 0.87843 0.0
O353 O 0.02909 0.19144 0.77836 0.0
O354 O 0.03107 0.19989 0.87526 0.0
O355 O 0.03055 0.11589 0.83658 0.0
Sc356 Sc 0.50067 0.28681 0.30714 0.0
Sc357 Sc 0.49862 0.35909 0.30877 0.0
Sc358 Sc 0.49889 0.32209 0.37421 0.0
O359 O 0.49942 0.32258 0.33004 0.0
C360 C 0.45956 0.27148 0.35905 0.0
C361 C 0.45798 0.32262 0.27007 0.0
C362 C 0.45616 0.37014 0.36036 0.0
C363 C 0.54145 0.3251 0.27041 0.0
C364 C 0.54156 0.27405 0.36009 0.0
C365 C 0.53938 0.37251 0.36131 0.0
O366 O 0.46896 0.26787 0.33355 0.0
O367 O 0.46707 0.34539 0.27945 0.0
O368 O 0.46583 0.35161 0.37695 0.0
O369 O 0.53267 0.30156 0.27808 0.0
O370 O 0.53136 0.29231 0.37651 0.0
O371 O 0.53007 0.37685 0.3359 0.0
O372 O 0.53295 0.26978 0.33435 0.0
O373 O 0.53099 0.34725 0.27971 0.0
O374 O 0.53 0.35368 0.37773 0.0
O375 O 0.46822 0.29968 0.27767 0.0
O376 O 0.46827 0.29023 0.37585 0.0
O377 O 0.46609 0.37518 0.3354 0.0
Sc378 Sc 0.49659 0.7035 0.80733 0.0
Sc379 Sc 0.49967 0.63124 0.81264 0.0
Sc380 Sc 0.49641 0.67077 0.87599 0.0
O381 O 0.49758 0.66857 0.83196 0.0
C382 C 0.53664 0.72053 0.85942 0.0
C383 C 0.5403 0.6667 0.77282 0.0
C384 C 0.54011 0.62266 0.86665 0.0
C385 C 0.45699 0.66326 0.77168 0.0
C386 C 0.45403 0.71787 0.85793 0.0
C387 C 0.45705 0.61949 0.86412 0.0
O388 O 0.52759 0.72359 0.83365 0.0
O389 O 0.53173 0.64418 0.78343 0.0
O390 O 0.52924 0.64158 0.8817 0.0
O391 O 0.46516 0.68723 0.77852 0.0
O392 O 0.4635 0.70013 0.87552 0.0
O393 O 0.4677 0.61407 0.8396 0.0
O394 O 0.46391 0.72172 0.83267 0.0
O395 O 0.46783 0.64163 0.78204 0.0
O396 O 0.46527 0.63929 0.87983 0.0
O397 O 0.52948 0.6897 0.77909 0.0
O398 O 0.52739 0.70243 0.87683 0.0
O399 O 0.53172 0.61662 0.8413 0.0
H400 H 0.19226 0.29098 0.92205 0.0
H401 H 0.12859 0.35032 0.94131 0.0
H402 H 0.15827 0.26252 0.89717 0.0
H403 H 0.09492 0.32217 0.91528 0.0
H404 H 0.04987 0.27225 0.84298 0.0
H405 H 0.0857 0.30254 0.86278 0.0
H406 H 0.11523 0.2365 0.91704 0.0
H407 H 0.07939 0.20638 0.8977 0.0
C408 C 0.17106 0.298 0.92101 0.0
C409 C 0.16312 0.32279 0.93413 0.0
C410 C 0.15169 0.28177 0.90656 0.0
C411 C 0.12404 0.29015 0.90446 0.0
C412 C 0.11621 0.3154 0.91643 0.0
C413 C 0.13552 0.33151 0.93128 0.0
C414 C 0.06418 0.26417 0.85895 0.0
C415 C 0.06179 0.23699 0.86888 0.0
C416 C 0.08452 0.28152 0.87035 0.0
C417 C 0.10314 0.27178 0.89138 0.0
C418 C 0.10122 0.24442 0.90069 0.0
C419 C 0.08063 0.22726 0.88973 0.0
H420 H 0.87111 0.6452 0.4583 0.0
H421 H 0.80852 0.68508 0.40639 0.0
H422 H 0.90692 0.67186 0.43345 0.0
H423 H 0.84432 0.71179 0.38161 0.0
H424 H 0.92109 0.73823 0.32804 0.0
H425 H 0.88686 0.70633 0.34831 0.0
H426 H 0.91739 0.72306 0.4346 0.0
H427 H 0.95124 0.75483 0.41466 0.0
C428 C 0.86508 0.65938 0.44131 0.0
C429 C 0.83707 0.66327 0.4344 0.0
C430 C 0.88551 0.67471 0.42722 0.0
C431 C 0.87833 0.69393 0.40572 0.0
C432 C 0.85042 0.69699 0.39798 0.0
C433 C 0.82996 0.68192 0.41232 0.0
C434 C 0.92053 0.73498 0.3513 0.0
C435 C 0.93877 0.74917 0.36974 0.0
C436 C 0.90093 0.71681 0.36287 0.0
C437 C 0.89963 0.71218 0.39298 0.0
C438 C 0.91816 0.726 0.41129 0.0
C439 C 0.93738 0.74439 0.39984 0.0
H440 H 0.82842 0.29013 0.96696 0.0
H441 H 0.84487 0.35336 0.90352 0.0
H442 H 0.86131 0.2601 0.94302 0.0
H443 H 0.87862 0.32359 0.87987 0.0
H444 H 0.92062 0.25299 0.83079 0.0
H445 H 0.88498 0.28239 0.85176 0.0
H446 H 0.9098 0.2567 0.93782 0.0
H447 H 0.9444 0.22691 0.91707 0.0
C448 C 0.83932 0.29766 0.948 0.0
C449 C 0.83435 0.32413 0.93725 0.0
C450 C 0.85822 0.2805 0.93429 0.0
C451 C 0.87289 0.28953 0.90969 0.0
C452 C 0.8675 0.31588 0.89858 0.0
C453 C 0.8483 0.33298 0.91218 0.0
C454 C 0.91834 0.2536 0.85417 0.0
C455 C 0.93522 0.23742 0.87221 0.0
C456 C 0.89803 0.27054 0.8662 0.0
C457 C 0.89436 0.27175 0.89648 0.0
C458 C 0.91154 0.25581 0.9144 0.0
C459 C 0.93155 0.23878 0.90245 0.0
H460 H 0.13077 0.64443 0.44039 0.0
H461 H 0.19542 0.70169 0.41762 0.0
H462 H 0.09686 0.67324 0.41508 0.0
H463 H 0.16151 0.73063 0.39268 0.0
H464 H 0.0826 0.78777 0.39267 0.0
H465 H 0.11872 0.75816 0.41239 0.0
H466 H 0.08804 0.69079 0.36095 0.0
H467 H 0.05203 0.72059 0.34069 0.0
C468 C 0.13765 0.66317 0.42997 0.0
C469 C 0.16561 0.67094 0.43094 0.0
C470 C 0.11837 0.67948 0.41533 0.0
C471 C 0.12668 0.70404 0.40193 0.0
C472 C 0.15464 0.71177 0.40288 0.0
C473 C 0.17398 0.69523 0.41704 0.0
C474 C 0.08374 0.76672 0.38532 0.0
C475 C 0.06449 0.75644 0.3652 0.0
C476 C 0.10445 0.74985 0.39652 0.0
C477 C 0.106 0.72224 0.38824 0.0
C478 C 0.08711 0.71201 0.36775 0.0
C479 C 0.06669 0.72907 0.35605 0.0
H480 H 0.68896 0.79277 0.92339 0.0
H481 H 0.62614 0.8538 0.93968 0.0
H482 H 0.65476 0.76414 0.89911 0.0
H483 H 0.59229 0.82543 0.91411 0.0
H484 H 0.5484 0.77295 0.84176 0.0
H485 H 0.58398 0.80371 0.86144 0.0
H486 H 0.6105 0.73991 0.92024 0.0
H487 H 0.57488 0.70941 0.90111 0.0
C488 C 0.66791 0.80014 0.92183 0.0
C489 C 0.66027 0.82547 0.93399 0.0
C490 C 0.64842 0.7838 0.9077 0.0
C491 C 0.62096 0.79258 0.90491 0.0
C492 C 0.61344 0.81834 0.91584 0.0
C493 C 0.63287 0.83457 0.93041 0.0
C494 C 0.56196 0.76549 0.85877 0.0
C495 C 0.55884 0.73883 0.86998 0.0
C496 C 0.58215 0.78311 0.87008 0.0
C497 C 0.59991 0.77409 0.89227 0.0
C498 C 0.59717 0.74726 0.90299 0.0
C499 C 0.5767 0.72989 0.89214 0.0
H500 H 0.36655 0.1507 0.45786 0.0
H501 H 0.30643 0.18808 0.40089 0.0
H502 H 0.40327 0.1776 0.43477 0.0
H503 H 0.34317 0.2149 0.37772 0.0
H504 H 0.42372 0.23907 0.32805 0.0
H505 H 0.38832 0.20799 0.34745 0.0
H506 H 0.41216 0.22985 0.43473 0.0
H507 H 0.44716 0.26095 0.41562 0.0
C508 C 0.3613 0.16437 0.44013 0.0
C509 C 0.3337 0.16748 0.43124 0.0
C510 C 0.38222 0.17983 0.42706 0.0
C511 C 0.37597 0.19834 0.40457 0.0
C512 C 0.34853 0.20066 0.3949 0.0
C513 C 0.32754 0.1855 0.40828 0.0
C514 C 0.42141 0.23717 0.35137 0.0
C515 C 0.43815 0.25254 0.3703 0.0
C516 C 0.40115 0.21947 0.36241 0.0
C517 C 0.39769 0.21647 0.39254 0.0
C518 C 0.41463 0.23158 0.41141 0.0
C519 C 0.4345 0.24955 0.40043 0.0
H520 H 0.36611 0.84889 0.9407 0.0
H521 H 0.30162 0.78973 0.92364 0.0
H522 H 0.39939 0.81982 0.91512 0.0
H523 H 0.33493 0.76056 0.89838 0.0
H524 H 0.41464 0.70477 0.8977 0.0
H525 H 0.37893 0.73458 0.91756 0.0
H526 H 0.40631 0.80036 0.86164 0.0
H527 H 0.44193 0.77035 0.84127 0.0
C528 C 0.35912 0.82969 0.93144 0.0
C529 C 0.33141 0.82144 0.93413 0.0
C530 C 0.37803 0.81323 0.91665 0.0
C531 C 0.3696 0.78806 0.9048 0.0
C532 C 0.34187 0.77988 0.90739 0.0
C533 C 0.32288 0.79655 0.92172 0.0
C534 C 0.41288 0.72551 0.88943 0.0
C535 C 0.43109 0.73529 0.868 0.0
C536 C 0.39239 0.74248 0.9007 0.0
C537 C 0.39002 0.76971 0.89114 0.0
C538 C 0.40789 0.77944 0.8694 0.0
C539 C 0.42808 0.76226 0.85767 0.0
H540 H 0.67017 0.20089 0.46683 0.0
H541 H 0.64928 0.13731 0.4056 0.0
H542 H 0.63836 0.23206 0.44263 0.0
H543 H 0.61645 0.16817 0.38181 0.0
H544 H 0.57589 0.23835 0.33133 0.0
H545 H 0.61104 0.20841 0.35254 0.0
H546 H 0.59055 0.23871 0.43796 0.0
H547 H 0.55655 0.26911 0.41686 0.0
C548 C 0.65847 0.19353 0.44834 0.0
C549 C 0.66192 0.16665 0.43825 0.0
C550 C 0.64018 0.21135 0.43447 0.0
C551 C 0.62455 0.20259 0.41041 0.0
C552 C 0.62835 0.17573 0.40005 0.0
C553 C 0.64699 0.15799 0.41375 0.0
C554 C 0.57908 0.2387 0.35461 0.0
C555 C 0.56349 0.25626 0.37234 0.0
C556 C 0.5991 0.22142 0.3668 0.0
C557 C 0.60375 0.22118 0.39699 0.0
C558 C 0.58806 0.23873 0.41459 0.0
C559 C 0.56836 0.25613 0.40244 0.0
H560 H 0.31927 0.53921 0.95473 0.0
H561 H 0.36681 0.47543 0.9135 0.0
H562 H 0.34823 0.57395 0.93115 0.0
H563 H 0.3961 0.50987 0.89073 0.0
H564 H 0.43158 0.57714 0.83578 0.0
H565 H 0.39643 0.54608 0.8545 0.0
H566 H 0.39635 0.58982 0.93592 0.0
H567 H 0.43118 0.62133 0.91708 0.0
C568 C 0.3357 0.53265 0.94039 0.0
C569 C 0.34094 0.50463 0.93611 0.0
C570 C 0.35242 0.5525 0.92713 0.0
C571 C 0.37453 0.54466 0.90918 0.0
C572 C 0.37909 0.51663 0.90419 0.0
C573 C 0.3625 0.49687 0.91748 0.0
C574 C 0.424 0.58029 0.85761 0.0
C575 C 0.4345 0.60159 0.87501 0.0
C576 C 0.40387 0.56243 0.86837 0.0
C577 C 0.39376 0.56535 0.89677 0.0
C578 C 0.40352 0.58717 0.91385 0.0
C579 C 0.42366 0.6051 0.90308 0.0
H580 H 0.67517 0.45339 0.45417 0.0
H581 H 0.62994 0.5169 0.40924 0.0
H582 H 0.64649 0.41855 0.43054 0.0
H583 H 0.60088 0.48235 0.38638 0.0
H584 H 0.56611 0.4139 0.33242 0.0
H585 H 0.60099 0.44514 0.35134 0.0
H586 H 0.59801 0.40366 0.43426 0.0
H587 H 0.56346 0.37201 0.41527 0.0
C588 C 0.65932 0.45986 0.43901 0.0
C589 C 0.65462 0.48785 0.43372 0.0
C590 C 0.64275 0.43997 0.42571 0.0
C591 C 0.62132 0.4477 0.40672 0.0
C592 C 0.61735 0.47567 0.40068 0.0
C593 C 0.6338 0.4955 0.41402 0.0
C594 C 0.57297 0.41128 0.35464 0.0
C595 C 0.56171 0.39057 0.37239 0.0
C596 C 0.59294 0.42926 0.3655 0.0
C597 C 0.60214 0.42699 0.39435 0.0
C598 C 0.59156 0.40578 0.41185 0.0
C599 C 0.57158 0.38777 0.40099 0.0
H600 H 0.6342 0.52145 0.98363 0.0
H601 H 0.68386 0.52019 0.90571 0.0
H602 H 0.60288 0.55405 0.9609 0.0
H603 H 0.65229 0.55278 0.88284 0.0
H604 H 0.56366 0.62898 0.92036 0.0
H605 H 0.59965 0.60109 0.9426 0.0
H606 H 0.60431 0.55186 0.86495 0.0
H607 H 0.56862 0.57995 0.84242 0.0
C608 C 0.63875 0.52852 0.96184 0.0
C609 C 0.66152 0.51816 0.94647 0.0
C610 C 0.62075 0.5472 0.94878 0.0
C611 C 0.62505 0.55592 0.92003 0.0
C612 C 0.6482 0.54612 0.90488 0.0
C613 C 0.66627 0.52747 0.91798 0.0
C614 C 0.57244 0.6123 0.90788 0.0
C615 C 0.56304 0.6066 0.87961 0.0
C616 C 0.59301 0.59628 0.92074 0.0
C617 C 0.60471 0.5742 0.90561 0.0
C618 C 0.59589 0.56892 0.87708 0.0
C619 C 0.57527 0.58492 0.86421 0.0
H620 H 0.31806 0.44969 0.45051 0.0
H621 H 0.36345 0.51255 0.40459 0.0
H622 H 0.34672 0.41449 0.42759 0.0
H623 H 0.39234 0.47771 0.38231 0.0
H624 H 0.42783 0.40942 0.33012 0.0
H625 H 0.39192 0.43979 0.34798 0.0
H626 H 0.39571 0.40026 0.43192 0.0
H627 H 0.43141 0.36943 0.41399 0.0
C628 C 0.3339 0.45592 0.43523 0.0
C629 C 0.33872 0.48381 0.42947 0.0
C630 C 0.35043 0.43583 0.42234 0.0
C631 C 0.37185 0.44333 0.40325 0.0
C632 C 0.37585 0.4712 0.39668 0.0
C633 C 0.35949 0.49119 0.40965 0.0
C634 C 0.42093 0.40699 0.35233 0.0
C635 C 0.43283 0.38718 0.37072 0.0
C636 C 0.40034 0.42446 0.36257 0.0
C637 C 0.39116 0.42258 0.39142 0.0
C638 C 0.40219 0.40206 0.4095 0.0
C639 C 0.42281 0.38454 0.39925 0.0
H640 H 0.81834 0.04179 0.95419 0.0
H641 H 0.86487 0.97782 0.91203 0.0
H642 H 0.84759 0.07641 0.93076 0.0
H643 H 0.8944 0.01213 0.88934 0.0
H644 H 0.92966 0.07939 0.83424 0.0
H645 H 0.89437 0.04868 0.85326 0.0
H646 H 0.89621 0.09165 0.93511 0.0
H647 H 0.93126 0.12282 0.91599 0.0
C648 C 0.83461 0.03517 0.93968 0.0
C649 C 0.83947 0.00712 0.93507 0.0
C650 C 0.85149 0.05494 0.9265 0.0
C651 C 0.87336 0.047 0.90828 0.0
C652 C 0.87757 0.01896 0.90301 0.0
C653 C 0.86084 -0.00072 0.91625 0.0
C654 C 0.92248 0.08247 0.85623 0.0
C655 C 0.9336 0.10343 0.87367 0.0
C656 C 0.90226 0.06479 0.86716 0.0
C657 C 0.89266 0.06758 0.89577 0.0
C658 C 0.90301 0.08911 0.91289 0.0
C659 C 0.92326 0.10684 0.90196 0.0
H660 H 0.17348 0.98634 0.39715 0.0
H661 H 0.12433 0.98078 0.47515 0.0
H662 H 0.14498 0.9505 0.37473 0.0
H663 H 0.09574 0.94553 0.45279 0.0
H664 H 0.06314 0.86737 0.41485 0.0
H665 H 0.0977 0.89797 0.43542 0.0
H666 H 0.09601 0.94714 0.35733 0.0
H667 H 0.06159 0.91631 0.33639 0.0
C668 C 0.1568 0.97722 0.40957 0.0
C669 C 0.15096 0.9864 0.43779 0.0
C670 C 0.14039 0.95693 0.39669 0.0
C671 C 0.11811 0.94527 0.41199 0.0
C672 C 0.11291 0.95391 0.44054 0.0
C673 C 0.12912 0.97426 0.45326 0.0
C674 C 0.0702 0.88458 0.4019 0.0
C675 C 0.05927 0.88954 0.37406 0.0
C676 C 0.09 0.90214 0.41376 0.0
C677 C 0.0994 0.92506 0.39809 0.0
C678 C 0.0893 0.92951 0.36984 0.0
C679 C 0.06942 0.91195 0.35795 0.0
H680 H 0.13367 0.01864 0.97793 0.0
H681 H 0.17896 0.01087 0.89757 0.0
H682 H 0.10251 0.05116 0.95493 0.0
H683 H 0.14754 0.04349 0.87442 0.0
H684 H 0.06643 0.12682 0.9138 0.0
H685 H 0.1016 0.09737 0.9349 0.0
H686 H 0.09873 0.04554 0.85906 0.0
H687 H 0.06374 0.07532 0.83753 0.0
C688 C 0.13728 0.02423 0.95548 0.0
C689 C 0.15886 0.01221 0.93962 0.0
C690 C 0.11937 0.04285 0.94227 0.0
C691 C 0.12258 0.04993 0.91286 0.0
C692 C 0.14434 0.03818 0.89703 0.0
C693 C 0.16233 0.01953 0.91028 0.0
C694 C 0.07332 0.10922 0.90147 0.0
C695 C 0.06201 0.10332 0.87403 0.0
C696 C 0.09345 0.09229 0.91367 0.0
C697 C 0.10276 0.069 0.89878 0.0
C698 C 0.09211 0.06348 0.87098 0.0
C699 C 0.07194 0.08046 0.85871 0.0
H700 H 0.81984 0.94525 0.46363 0.0
H701 H 0.86226 0.00818 0.41478 0.0
H702 H 0.84816 0.91018 0.43995 0.0
H703 H 0.89079 0.97353 0.39176 0.0
H704 H 0.92291 0.90579 0.33694 0.0
H705 H 0.88796 0.93567 0.35747 0.0
H706 H 0.89766 0.89601 0.44081 0.0
H707 H 0.9325 0.8656 0.42016 0.0
C708 C 0.835 0.95152 0.44765 0.0
C709 C 0.839 0.97941 0.44115 0.0
C710 C 0.85134 0.93152 0.4343 0.0
C711 C 0.8717 0.93909 0.41401 0.0
C712 C 0.87508 0.96696 0.40703 0.0
C713 C 0.85894 0.98685 0.42043 0.0
C714 C 0.91752 0.90321 0.35961 0.0
C715 C 0.93086 0.88352 0.37701 0.0
C716 C 0.89748 0.92041 0.37137 0.0
C717 C 0.89031 0.91843 0.40084 0.0
C718 C 0.90265 0.89792 0.41798 0.0
C719 C 0.92272 0.88061 0.40617 0.0
H720 H 0.31204 0.36535 0.1688 0.0
H721 H 0.36208 0.31411 0.11356 0.0
H722 H 0.34174 0.35415 0.21004 0.0
H723 H 0.39229 0.30366 0.1545 0.0
H724 H 0.42607 0.36662 0.25568 0.0
H725 H 0.38896 0.36891 0.22039 0.0
H726 H 0.39836 0.28252 0.20271 0.0
H727 H 0.43614 0.28018 0.23804 0.0
C728 C 0.32902 0.35125 0.1656 0.0
C729 C 0.33498 0.34093 0.13786 0.0
C730 C 0.34619 0.34504 0.18914 0.0
C731 C 0.36962 0.32837 0.18542 0.0
C732 C 0.37439 0.3165 0.15813 0.0
C733 C 0.35725 0.32273 0.1346 0.0
C734 C 0.42026 0.348 0.24444 0.0
C735 C 0.43436 0.32325 0.24952 0.0
C736 C 0.39868 0.34928 0.2244 0.0
C737 C 0.39062 0.32588 0.20882 0.0
C738 C 0.40424 0.30093 0.21429 0.0
C739 C 0.42583 0.2996 0.23454 0.0
H740 H 0.68258 0.62342 0.66592 0.0
H741 H 0.63171 0.67683 0.61347 0.0
H742 H 0.65382 0.63329 0.70811 0.0
H743 H 0.60243 0.68596 0.65533 0.0
H744 H 0.56205 0.70895 0.74035 0.0
H745 H 0.59839 0.70623 0.70367 0.0
H746 H 0.60695 0.61955 0.72074 0.0
H747 H 0.57123 0.62224 0.75753 0.0
C748 C 0.66558 0.63765 0.66352 0.0
C749 C 0.65923 0.64911 0.63629 0.0
C750 C 0.64892 0.64309 0.68761 0.0
C751 C 0.62562 0.66014 0.685 0.0
C752 C 0.62027 0.67285 0.65816 0.0
C753 C 0.63688 0.66738 0.63408 0.0
C754 C 0.57189 0.68937 0.73648 0.0
C755 C 0.56349 0.66577 0.75177 0.0
C756 C 0.59264 0.68781 0.71539 0.0
C757 C 0.60556 0.66268 0.70926 0.0
C758 C 0.59774 0.63932 0.72518 0.0
C759 C 0.577 0.64083 0.74613 0.0
H760 H 0.68722 0.37385 0.17197 0.0
H761 H 0.63711 0.32628 0.11283 0.0
H762 H 0.6562 0.36168 0.21172 0.0
H763 H 0.60619 0.31405 0.1526 0.0
H764 H 0.56371 0.2848 0.23587 0.0
H765 H 0.60074 0.28989 0.20001 0.0
H766 H 0.60854 0.37552 0.22223 0.0
H767 H 0.57212 0.37052 0.25796 0.0
C768 C 0.6697 0.36064 0.1675 0.0
C769 C 0.66446 0.35131 0.13917 0.0
C770 C 0.65197 0.35364 0.19026 0.0
C771 C 0.62859 0.33713 0.18523 0.0
C772 C 0.62416 0.32659 0.15724 0.0
C773 C 0.6419 0.33362 0.13444 0.0
C774 C 0.57353 0.30463 0.23325 0.0
C775 C 0.56478 0.32728 0.24966 0.0
C776 C 0.59465 0.30755 0.21266 0.0
C777 C 0.6076 0.33309 0.20835 0.0
C778 C 0.59929 0.35548 0.22529 0.0
C779 C 0.57815 0.35264 0.24562 0.0
H780 H 0.36761 0.6006 0.62712 0.0
H781 H 0.31973 0.67311 0.64537 0.0
H782 H 0.39658 0.60961 0.66913 0.0
H783 H 0.34876 0.68203 0.68824 0.0
H784 H 0.43344 0.70244 0.7363 0.0
H785 H 0.39846 0.6953 0.69856 0.0
H786 H 0.39342 0.60969 0.72209 0.0
H787 H 0.42838 0.61655 0.75921 0.0
C788 C 0.36325 0.61847 0.64026 0.0
C789 C 0.34159 0.63629 0.63286 0.0
C790 C 0.37968 0.62349 0.66451 0.0
C791 C 0.37491 0.64649 0.68207 0.0
C792 C 0.35299 0.66423 0.67498 0.0
C793 C 0.33629 0.65904 0.65066 0.0
C794 C 0.42468 0.68216 0.73356 0.0
C795 C 0.43413 0.65998 0.75045 0.0
C796 C 0.40452 0.67813 0.71208 0.0
C797 C 0.39346 0.65186 0.70714 0.0
C798 C 0.40195 0.63006 0.72498 0.0
C799 C 0.42203 0.63403 0.74629 0.0
H800 H 0.85852 0.81848 0.11455 0.0
H801 H 0.80862 0.87058 0.169 0.0
H802 H 0.88817 0.8078 0.15582 0.0
H803 H 0.83773 0.85911 0.21064 0.0
H804 H 0.92151 0.86932 0.25834 0.0
H805 H 0.8847 0.8726 0.22274 0.0
H806 H 0.89345 0.78645 0.20346 0.0
H807 H 0.93093 0.78316 0.23894 0.0
C808 C 0.85362 0.82727 0.13549 0.0
C809 C 0.83152 0.84573 0.13843 0.0
C810 C 0.87043 0.82091 0.15923 0.0
C811 C 0.86552 0.83286 0.18646 0.0
C812 C 0.84232 0.84992 0.18982 0.0
C813 C 0.82547 0.85627 0.16605 0.0
C814 C 0.91557 0.85096 0.2467 0.0
C815 C 0.92949 0.82602 0.25132 0.0
C816 C 0.89418 0.8528 0.22646 0.0
C817 C 0.88609 0.82979 0.21025 0.0
C818 C 0.89939 0.80462 0.21543 0.0
C819 C 0.92081 0.80273 0.23581 0.0
H820 H 0.17989 0.12559 0.66186 0.0
H821 H 0.12964 0.18086 0.61095 0.0
H822 H 0.15128 0.1348 0.70438 0.0
H823 H 0.10059 0.18946 0.65316 0.0
H824 H 0.06122 0.21105 0.73935 0.0
H825 H 0.09735 0.20866 0.70239 0.0
H826 H 0.10383 0.12131 0.71622 0.0
H827 H 0.06825 0.12362 0.75322 0.0
C828 C 0.16307 0.14011 0.6599 0.0
C829 C 0.15682 0.15229 0.63301 0.0
C830 C 0.14652 0.14517 0.68416 0.0
C831 C 0.12346 0.1626 0.68205 0.0
C832 C 0.11825 0.17604 0.65558 0.0
C833 C 0.13473 0.17091 0.63132 0.0
C834 C 0.07053 0.19137 0.73469 0.0
C835 C 0.06161 0.1675 0.74913 0.0
C836 C 0.09118 0.19002 0.71346 0.0
C837 C 0.10346 0.1648 0.70638 0.0
C838 C 0.09509 0.14112 0.72142 0.0
C839 C 0.07444 0.14243 0.74248 0.0
H840 H 0.1344 0.89773 0.13257 0.0
H841 H 0.17778 0.82187 0.14864 0.0
H842 H 0.1013 0.88623 0.17024 0.0
H843 H 0.14442 0.81031 0.18685 0.0
H844 H 0.0594 0.79014 0.23197 0.0
H845 H 0.09484 0.79846 0.19492 0.0
H846 H 0.10103 0.88281 0.22251 0.0
H847 H 0.06567 0.87483 0.2587 0.0
C848 C 0.1371 0.87874 0.14447 0.0
C849 C 0.15899 0.86093 0.13793 0.0
C850 C 0.11807 0.8721 0.16606 0.0
C851 C 0.12041 0.8475 0.18182 0.0
C852 C 0.14199 0.82936 0.17499 0.0
C853 C 0.16111 0.83601 0.15321 0.0
C854 C 0.06847 0.8104 0.23016 0.0
C855 C 0.05935 0.8319 0.24802 0.0
C856 C 0.08883 0.81512 0.20904 0.0
C857 C 0.10044 0.84141 0.20549 0.0
C858 C 0.09203 0.8625 0.22415 0.0
C859 C 0.07175 0.85786 0.24502 0.0
H860 H 0.81208 0.12155 0.66629 0.0
H861 H 0.86156 0.17571 0.61315 0.0
H862 H 0.84141 0.13182 0.70809 0.0
H863 H 0.89131 0.1854 0.65467 0.0
H864 H 0.93212 0.2089 0.73967 0.0
H865 H 0.89526 0.20567 0.70352 0.0
H866 H 0.88926 0.11851 0.7191 0.0
H867 H 0.92565 0.12166 0.75533 0.0
C868 C 0.82887 0.13608 0.66369 0.0
C869 C 0.83472 0.14761 0.63639 0.0
C870 C 0.84583 0.14174 0.68754 0.0
C871 C 0.86888 0.15914 0.68458 0.0
C872 C 0.87366 0.17201 0.65771 0.0
C873 C 0.85678 0.16626 0.63386 0.0
C874 C 0.92278 0.18908 0.73557 0.0
C875 C 0.93206 0.1655 0.75026 0.0
C876 C 0.90171 0.18725 0.71481 0.0
C877 C 0.88934 0.16185 0.70847 0.0
C878 C 0.89808 0.13846 0.72376 0.0
C879 C 0.91918 0.14024 0.74435 0.0
loop_
_geom_bond_atom_site_label_1
_geom_bond_atom_site_label_2
_geom_bond_distance
_geom_bond_site_symmetry_2
_ccdc_geom_bond_type
C0 C1 1.386 . S
C0 C2 1.397 . S
C0 H24 0.931 . S
C1 C0 1.386 . S
C1 C5 1.397 . S
C2 C0 1.397 . S
C2 C3 1.384 . S
C2 H25 0.930 . S
C3 C2 1.384 . S
C3 C4 1.377 . S
C3 C6 1.481 . S
C4 C3 1.377 . S
C4 C5 1.389 . S
C4 H26 0.929 . S
C5 C1 1.397 . S
C5 C4 1.389 . S
C5 H27 0.931 . S
C6 C3 1.481 . S
C6 C7 1.387 . S
C6 C11 1.390 1_556 S
C7 C6 1.387 . S
C7 C8 1.399 . S
C7 H28 0.930 . S
C8 C7 1.399 . S
C8 C9 1.380 1_556 S
C8 C17 1.510 . S
C9 C8 1.380 1_554 S
C9 C10 1.392 . S
C9 H30 0.931 . S
C10 C9 1.392 . S
C10 C11 1.361 . S
C10 C12 1.500 . S
C11 C6 1.390 1_554 S
C11 C10 1.361 . S
C11 H29 0.931 . S
C12 C10 1.500 . S
C12 C13 1.371 . S
C12 C14 1.365 . S
C13 C12 1.371 . S
C13 C23 1.386 . S
C13 H31 0.931 . S
C14 C12 1.365 . S
C14 C15 1.409 . S
C14 H32 0.929 . S
C15 C14 1.409 . S
C15 C16 1.380 . S
C15 H33 0.930 . S
C16 C15 1.380 . S
C16 C23 1.357 . S
C17 C8 1.510 . S
C17 C18 1.341 . S
C17 C19 1.371 . S
C18 C17 1.341 . S
C18 C22 1.394 . S
C18 H34 0.930 . S
C19 C17 1.371 . S
C19 C20 1.392 . S
C19 H35 0.931 1_556 S
C20 C19 1.392 . S
C20 C21 1.331 . S
C20 H38 0.932 . S
C21 C20 1.331 . S
C21 C22 1.336 . S
C22 C18 1.394 . S
C22 C21 1.336 . S
C22 H37 0.929 . S
C23 C13 1.386 . S
C23 C16 1.357 . S
C23 H36 0.928 . S
H24 C0 0.931 . S
H25 C2 0.930 . S
H26 C4 0.929 . S
H27 C5 0.931 . S
H28 C7 0.930 . S
H29 C11 0.931 . S
H30 C9 0.931 . S
H31 C13 0.931 . S
H32 C14 0.929 . S
H33 C15 0.930 . S
H34 C18 0.930 . S
H35 C19 0.931 1_554 S
H36 C23 0.928 . S
H37 C22 0.929 . S
H38 C20 0.932 . S
C39 C40 1.386 . S
C39 C41 1.397 . S
C39 H63 0.931 . S
C40 C39 1.386 . S
C40 C44 1.397 . S
C41 C39 1.397 . S
C41 C42 1.384 . S
C41 H64 0.930 . S
C42 C41 1.384 . S
C42 C43 1.377 . S
C42 C45 1.481 . S
C43 C42 1.377 . S
C43 C44 1.389 . S
C43 H65 0.929 . S
C44 C40 1.397 . S
C44 C43 1.389 . S
C44 H66 0.931 . S
C45 C42 1.481 . S
C45 C46 1.387 . S
C45 C50 1.390 . S
C46 C45 1.387 . S
C46 C47 1.401 . S
C46 H67 0.930 . S
C47 C46 1.401 . S
C47 C48 1.376 . S
C47 C56 1.511 . S
C48 C47 1.376 . S
C48 C49 1.392 . S
C48 H69 0.931 . S
C49 C48 1.392 . S
C49 C50 1.361 . S
C49 C51 1.500 . S
C50 C45 1.390 . S
C50 C49 1.361 . S
C50 H68 0.931 . S
C51 C49 1.500 . S
C51 C52 1.371 . S
C51 C53 1.365 . S
C52 C51 1.371 . S
C52 C62 1.386 . S
C52 H70 0.931 . S
C53 C51 1.365 . S
C53 C54 1.409 . S
C53 H71 0.929 . S
C54 C53 1.409 . S
C54 C55 1.380 . S
C54 H72 0.930 . S
C55 C54 1.380 . S
C55 C62 1.357 . S
C56 C47 1.511 . S
C56 C57 1.341 . S
C56 C58 1.371 . S
C57 C56 1.341 . S
C57 C61 1.394 . S
C57 H73 0.930 . S
C58 C56 1.371 . S
C58 C59 1.392 . S
C58 H74 0.931 . S
C59 C58 1.392 . S
C59 C60 1.331 . S
C59 H77 0.932 . S
C60 C59 1.331 . S
C60 C61 1.336 . S
C61 C57 1.394 . S
C61 C60 1.336 . S
C61 H76 0.929 . S
C62 C52 1.386 . S
C62 C55 1.357 . S
C62 H75 0.928 . S
H63 C39 0.931 . S
H64 C41 0.930 . S
H65 C43 0.929 . S
H66 C44 0.931 . S
H67 C46 0.930 . S
H68 C50 0.931 . S
H69 C48 0.931 . S
H70 C52 0.931 . S
H71 C53 0.929 . S
H72 C54 0.930 . S
H73 C57 0.930 . S
H74 C58 0.931 . S
H75 C62 0.928 . S
H76 C61 0.929 . S
H77 C59 0.932 . S
C78 C79 1.386 . S
C78 C80 1.397 . S
C78 H102 0.931 . S
C79 C78 1.386 . S
C79 C83 1.397 . S
C80 C78 1.397 . S
C80 C81 1.384 . S
C80 H103 0.930 . S
C81 C80 1.384 . S
C81 C82 1.377 . S
C81 C84 1.481 . S
C82 C81 1.377 . S
C82 C83 1.389 . S
C82 H104 0.929 1_556 S
C83 C79 1.397 . S
C83 C82 1.389 . S
C83 H105 0.931 . S
C84 C81 1.481 . S
C84 C85 1.387 . S
C84 C89 1.390 1_556 S
C85 C84 1.387 . S
C85 C86 1.416 . S
C85 H106 0.930 . S
C86 C85 1.416 . S
C86 C87 1.351 1_556 S
C86 C95 1.522 . S
C87 C86 1.351 1_554 S
C87 C88 1.392 . S
C87 H108 0.931 . S
C88 C87 1.392 . S
C88 C89 1.361 . S
C88 C90 1.500 . S
C89 C84 1.390 1_554 S
C89 C88 1.361 . S
C89 H107 0.931 . S
C90 C88 1.500 . S
C90 C91 1.371 . S
C90 C92 1.365 . S
C91 C90 1.371 . S
C91 C101 1.386 . S
C91 H109 0.931 . S
C92 C90 1.365 . S
C92 C93 1.409 . S
C92 H110 0.929 . S
C93 C92 1.409 . S
C93 C94 1.380 . S
C93 H111 0.930 . S
C94 C93 1.380 . S
C94 C101 1.357 . S
C95 C86 1.522 . S
C95 C96 1.341 . S
C95 C97 1.371 1_556 S
C96 C95 1.341 . S
C96 C100 1.394 . S
C96 H112 0.930 . S
C97 C95 1.371 1_554 S
C97 C98 1.392 1_554 S
C97 H113 0.931 . S
C98 C97 1.392 1_556 S
C98 C99 1.331 . S
C98 H116 0.932 1_556 S
C99 C98 1.331 . S
C99 C100 1.336 . S
C100 C96 1.394 . S
C100 C99 1.336 . S
C100 H115 0.929 . S
C101 C91 1.386 . S
C101 C94 1.357 . S
C101 H114 0.928 . S
H102 C78 0.931 . S
H103 C80 0.930 . S
H104 C82 0.929 1_554 S
H105 C83 0.931 . S
H106 C85 0.930 . S
H107 C89 0.931 . S
H108 C87 0.931 . S
H109 C91 0.931 . S
H110 C92 0.929 . S
H111 C93 0.930 . S
H112 C96 0.930 . S
H113 C97 0.931 . S
H114 C101 0.928 . S
H115 C100 0.929 . S
H116 C98 0.932 1_554 S
C117 C118 1.386 . S
C117 C119 1.397 . S
C117 H141 0.931 . S
C118 C117 1.386 . S
C118 C122 1.397 . S
C119 C117 1.397 . S
C119 C120 1.384 . S
C119 H142 0.930 . S
C120 C119 1.384 . S
C120 C121 1.377 . S
C120 C123 1.481 . S
C121 C120 1.377 . S
C121 C122 1.389 . S
C121 H143 0.929 . S
C122 C118 1.397 . S
C122 C121 1.389 . S
C122 H144 0.931 . S
C123 C120 1.481 . S
C123 C124 1.387 . S
C123 C128 1.390 . S
C124 C123 1.387 . S
C124 C125 1.401 . S
C124 H145 0.930 . S
C125 C124 1.401 . S
C125 C126 1.376 . S
C125 C134 1.511 . S
C126 C125 1.376 . S
C126 C127 1.392 . S
C126 H147 0.931 . S
C127 C126 1.392 . S
C127 C128 1.361 . S
C127 C129 1.500 . S
C128 C123 1.390 . S
C128 C127 1.361 . S
C128 H146 0.931 . S
C129 C127 1.500 . S
C129 C130 1.371 . S
C129 C131 1.365 . S
C130 C129 1.371 . S
C130 C140 1.386 . S
C130 H148 0.931 . S
C131 C129 1.365 . S
C131 C132 1.409 . S
C131 H149 0.929 . S
C132 C131 1.409 . S
C132 C133 1.380 . S
C132 H150 0.930 . S
C133 C132 1.380 . S
C133 C140 1.357 . S
C134 C125 1.511 . S
C134 C135 1.341 . S
C134 C136 1.371 . S
C135 C134 1.341 . S
C135 C139 1.394 . S
C135 H151 0.930 . S
C136 C134 1.371 . S
C136 C137 1.392 . S
C136 H152 0.931 . S
C137 C136 1.392 . S
C137 C138 1.331 . S
C137 H155 0.932 . S
C138 C137 1.331 . S
C138 C139 1.336 . S
C139 C135 1.394 . S
C139 C138 1.336 . S
C139 H154 0.929 . S
C140 C130 1.386 . S
C140 C133 1.357 . S
C140 H153 0.928 . S
H141 C117 0.931 . S
H142 C119 0.930 . S
H143 C121 0.929 . S
H144 C122 0.931 . S
H145 C124 0.930 . S
H146 C128 0.931 . S
H147 C126 0.931 . S
H148 C130 0.931 . S
H149 C131 0.929 . S
H150 C132 0.930 . S
H151 C135 0.930 . S
H152 C136 0.931 . S
H153 C140 0.928 . S
H154 C139 0.929 . S
H155 C137 0.932 . S
C156 C157 1.386 . S
C156 C158 1.397 . S
C156 H180 0.931 1_565 S
C157 C156 1.386 . S
C157 C161 1.397 . S
C158 C156 1.397 . S
C158 C159 1.384 . S
C158 H181 0.930 . S
C159 C158 1.384 . S
C159 C160 1.377 . S
C159 C162 1.481 . S
C160 C159 1.377 . S
C160 C161 1.389 . S
C160 H182 0.929 . S
C161 C157 1.397 . S
C161 C160 1.389 . S
C161 H183 0.931 . S
C162 C159 1.481 . S
C162 C163 1.387 . S
C162 C167 1.390 1_556 S
C163 C162 1.387 . S
C163 C164 1.399 . S
C163 H184 0.930 . S
C164 C163 1.399 . S
C164 C165 1.380 1_556 S
C164 C173 1.509 . S
C165 C164 1.380 1_554 S
C165 C166 1.392 . S
C165 H186 0.931 . S
C166 C165 1.392 . S
C166 C167 1.361 . S
C166 C168 1.500 . S
C167 C162 1.390 1_554 S
C167 C166 1.361 . S
C167 H185 0.931 . S
C168 C166 1.500 . S
C168 C169 1.371 . S
C168 C170 1.365 . S
C169 C168 1.371 . S
C169 C179 1.386 . S
C169 H187 0.931 . S
C170 C168 1.365 . S
C170 C171 1.409 . S
C170 H188 0.929 . S
C171 C170 1.409 . S
C171 C172 1.380 . S
C171 H189 0.930 . S
C172 C171 1.380 . S
C172 C179 1.357 . S
C173 C164 1.509 . S
C173 C174 1.341 . S
C173 C175 1.371 . S
C174 C173 1.341 . S
C174 C178 1.394 . S
C174 H190 0.930 . S
C175 C173 1.371 . S
C175 C176 1.392 . S
C175 H191 0.931 1_556 S
C176 C175 1.392 . S
C176 C177 1.331 . S
C176 H194 0.932 . S
C177 C176 1.331 . S
C177 C178 1.336 . S
C178 C174 1.394 . S
C178 C177 1.336 . S
C178 H193 0.929 . S
C179 C169 1.386 . S
C179 C172 1.357 . S
C179 H192 0.928 . S
H180 C156 0.931 1_545 S
H181 C158 0.930 . S
H182 C160 0.929 . S
H183 C161 0.931 . S
H184 C163 0.930 . S
H185 C167 0.931 . S
H186 C165 0.931 . S
H187 C169 0.931 . S
H188 C170 0.929 . S
H189 C171 0.930 . S
H190 C174 0.930 . S
H191 C175 0.931 1_554 S
H192 C179 0.928 . S
H193 C178 0.929 . S
H194 C176 0.932 . S
C195 C196 1.386 . S
C195 C197 1.397 . S
C195 H219 0.931 1_545 S
C196 C195 1.386 . S
C196 C200 1.397 . S
C197 C195 1.397 . S
C197 C198 1.384 . S
C197 H220 0.930 . S
C198 C197 1.384 . S
C198 C199 1.377 . S
C198 C201 1.481 . S
C199 C198 1.377 . S
C199 C200 1.389 . S
C199 H221 0.929 . S
C200 C196 1.397 . S
C200 C199 1.389 . S
C200 H222 0.931 . S
C201 C198 1.481 . S
C201 C202 1.387 . S
C201 C206 1.390 . S
C202 C201 1.387 . S
C202 C203 1.401 . S
C202 H223 0.930 . S
C203 C202 1.401 . S
C203 C204 1.376 . S
C203 C212 1.511 . S
C204 C203 1.376 . S
C204 C205 1.392 . S
C204 H225 0.931 . S
C205 C204 1.392 . S
C205 C206 1.361 . S
C205 C207 1.500 . S
C206 C201 1.390 . S
C206 C205 1.361 . S
C206 H224 0.931 . S
C207 C205 1.500 . S
C207 C208 1.371 . S
C207 C209 1.365 . S
C208 C207 1.371 . S
C208 C218 1.386 . S
C208 H226 0.931 . S
C209 C207 1.365 . S
C209 C210 1.409 . S
C209 H227 0.929 . S
C210 C209 1.409 . S
C210 C211 1.380 . S
C210 H228 0.930 . S
C211 C210 1.380 . S
C211 C218 1.357 . S
C212 C203 1.511 . S
C212 C213 1.341 . S
C212 C214 1.371 . S
C213 C212 1.341 . S
C213 C217 1.394 . S
C213 H229 0.930 . S
C214 C212 1.371 . S
C214 C215 1.392 . S
C214 H230 0.931 . S
C215 C214 1.392 . S
C215 C216 1.331 . S
C215 H233 0.932 . S
C216 C215 1.331 . S
C216 C217 1.336 . S
C217 C213 1.394 . S
C217 C216 1.336 . S
C217 H232 0.929 . S
C218 C208 1.386 . S
C218 C211 1.357 . S
C218 H231 0.928 . S
H219 C195 0.931 1_565 S
H220 C197 0.930 . S
H221 C199 0.929 . S
H222 C200 0.931 . S
H223 C202 0.930 . S
H224 C206 0.931 . S
H225 C204 0.931 . S
H226 C208 0.931 . S
H227 C209 0.929 . S
H228 C210 0.930 . S
H229 C213 0.930 . S
H230 C214 0.931 . S
H231 C218 0.928 . S
H232 C217 0.929 . S
H233 C215 0.932 . S
C234 C235 1.386 . S
C234 C236 1.397 . S
C234 H258 0.931 . S
C235 C234 1.386 . S
C235 C239 1.397 . S
C236 C234 1.397 . S
C236 C237 1.384 . S
C236 H259 0.930 . S
C237 C236 1.384 . S
C237 C238 1.377 . S
C237 C240 1.481 . S
C238 C237 1.377 . S
C238 C239 1.389 . S
C238 H260 0.929 1_556 S
C239 C235 1.397 . S
C239 C238 1.389 . S
C239 H261 0.931 1_565 S
C240 C237 1.481 . S
C240 C241 1.387 . S
C240 C245 1.390 1_556 S
C241 C240 1.387 . S
C241 C242 1.416 . S
C241 H262 0.930 . S
C242 C241 1.416 . S
C242 C243 1.351 1_556 S
C242 C251 1.522 . S
C243 C242 1.351 1_554 S
C243 C244 1.392 . S
C243 H264 0.931 . S
C244 C243 1.392 . S
C244 C245 1.361 . S
C244 C246 1.500 . S
C245 C240 1.390 1_554 S
C245 C244 1.361 . S
C245 H263 0.931 . S
C246 C244 1.500 . S
C246 C247 1.371 . S
C246 C248 1.365 . S
C247 C246 1.371 . S
C247 C257 1.386 . S
C247 H265 0.931 . S
C248 C246 1.365 . S
C248 C249 1.409 . S
C248 H266 0.929 . S
C249 C248 1.409 . S
C249 C250 1.380 . S
C249 H267 0.930 . S
C250 C249 1.380 . S
C250 C257 1.357 . S
C251 C242 1.522 . S
C251 C252 1.341 . S
C251 C253 1.371 1_556 S
C252 C251 1.341 . S
C252 C256 1.394 . S
C252 H268 0.930 . S
C253 C251 1.371 1_554 S
C253 C254 1.392 1_554 S
C253 H269 0.931 . S
C254 C253 1.392 1_556 S
C254 C255 1.331 . S
C254 H272 0.932 1_556 S
C255 C254 1.331 . S
C255 C256 1.336 . S
C256 C252 1.394 . S
C256 C255 1.336 . S
C256 H271 0.929 . S
C257 C247 1.386 . S
C257 C250 1.357 . S
C257 H270 0.928 . S
H258 C234 0.931 . S
H259 C236 0.930 . S
H260 C238 0.929 1_554 S
H261 C239 0.931 1_545 S
H262 C241 0.930 . S
H263 C245 0.931 . S
H264 C243 0.931 . S
H265 C247 0.931 . S
H266 C248 0.929 . S
H267 C249 0.930 . S
H268 C252 0.930 . S
H269 C253 0.931 . S
H270 C257 0.928 . S
H271 C256 0.929 . S
H272 C254 0.932 1_554 S
C273 C274 1.386 . S
C273 C275 1.397 . S
C273 H297 0.931 . S
C274 C273 1.386 . S
C274 C278 1.397 . S
C275 C273 1.397 . S
C275 C276 1.384 . S
C275 H298 0.930 . S
C276 C275 1.384 . S
C276 C277 1.377 . S
C276 C279 1.481 . S
C277 C276 1.377 . S
C277 C278 1.389 . S
C277 H299 0.929 . S
C278 C274 1.397 . S
C278 C277 1.389 . S
C278 H300 0.931 . S
C279 C276 1.481 . S
C279 C280 1.387 . S
C279 C284 1.390 . S
C280 C279 1.387 . S
C280 C281 1.401 . S
C280 H301 0.930 . S
C281 C280 1.401 . S
C281 C282 1.376 . S
C281 C290 1.511 . S
C282 C281 1.376 . S
C282 C283 1.392 . S
C282 H303 0.931 . S
C283 C282 1.392 . S
C283 C284 1.361 . S
C283 C285 1.500 . S
C284 C279 1.390 . S
C284 C283 1.361 . S
C284 H302 0.931 . S
C285 C283 1.500 . S
C285 C286 1.371 . S
C285 C287 1.365 . S
C286 C285 1.371 . S
C286 C296 1.386 . S
C286 H304 0.931 . S
C287 C285 1.365 . S
C287 C288 1.409 . S
C287 H305 0.929 . S
C288 C287 1.409 . S
C288 C289 1.380 . S
C288 H306 0.930 . S
C289 C288 1.380 . S
C289 C296 1.357 . S
C290 C281 1.511 . S
C290 C291 1.341 . S
C290 C292 1.371 . S
C291 C290 1.341 . S
C291 C295 1.394 . S
C291 H307 0.930 . S
C292 C290 1.371 . S
C292 C293 1.392 . S
C292 H308 0.931 . S
C293 C292 1.392 . S
C293 C294 1.331 . S
C293 H311 0.932 . S
C294 C293 1.331 . S
C294 C295 1.336 . S
C295 C291 1.394 . S
C295 C294 1.336 . S
C295 H310 0.929 . S
C296 C286 1.386 . S
C296 C289 1.357 . S
C296 H309 0.911 1_545 S
H297 C273 0.931 . S
H298 C275 0.930 . S
H299 C277 0.929 . S
H300 C278 0.931 . S
H301 C280 0.930 . S
H302 C284 0.931 . S
H303 C282 0.931 . S
H304 C286 0.931 . S
H305 C287 0.929 . S
H306 C288 0.930 . S
H307 C291 0.930 . S
H308 C292 0.931 . S
H309 C296 0.911 1_565 S
H310 C295 0.929 . S
H311 C293 0.932 . S
Sc312 O315 2.025 . S
Sc312 O322 2.105 1_455 S
Sc312 O325 2.105 . S
Sc312 O328 2.105 . S
Sc312 O331 2.105 1_455 S
Sc313 O315 2.025 . S
Sc313 O323 2.105 1_455 S
Sc313 O327 2.105 . S
Sc313 O329 2.105 . S
Sc313 O333 2.105 1_455 S
Sc314 O315 2.025 . S
Sc314 O324 2.105 1_455 S
Sc314 O326 2.105 . S
Sc314 O330 2.105 . S
Sc314 O332 2.105 1_455 S
O315 Sc312 2.025 . S
O315 Sc313 2.025 . S
O315 Sc314 2.025 . S
C316 O322 1.268 . S
C316 O332 1.268 . S
C317 O323 1.268 . S
C317 O331 1.268 . S
C318 O324 1.268 . S
C318 O333 1.268 . S
C319 O325 1.268 . S
C319 O329 1.268 . S
C320 O326 1.268 . S
C320 O328 1.268 . S
C321 O327 1.268 . S
C321 O330 1.268 . S
O322 Sc312 2.105 1_655 S
O322 C316 1.268 . S
O323 Sc313 2.105 1_655 S
O323 C317 1.268 . S
O324 Sc314 2.105 1_655 S
O324 C318 1.268 . S
O325 Sc312 2.105 . S
O325 C319 1.268 . S
O326 Sc314 2.105 . S
O326 C320 1.268 . S
O327 Sc313 2.105 . S
O327 C321 1.268 . S
O328 Sc312 2.105 . S
O328 C320 1.268 . S
O329 Sc313 2.105 . S
O329 C319 1.268 . S
O330 Sc314 2.105 . S
O330 C321 1.268 . S
O331 Sc312 2.105 1_655 S
O331 C317 1.268 . S
O332 Sc314 2.105 1_655 S
O332 C316 1.268 . S
O333 Sc313 2.105 1_655 S
O333 C318 1.268 . S
Sc334 O337 2.025 . S
Sc334 O344 2.105 . S
Sc334 O347 2.105 1_455 S
Sc334 O350 2.105 1_455 S
Sc334 O353 2.105 . S
Sc335 O337 2.025 . S
Sc335 O345 2.105 . S
Sc335 O349 2.105 1_455 S
Sc335 O351 2.105 1_455 S
Sc335 O355 2.105 . S
Sc336 O337 2.025 . S
Sc336 O346 2.105 . S
Sc336 O348 2.105 1_455 S
Sc336 O352 2.105 1_455 S
Sc336 O354 2.105 . S
O337 Sc334 2.025 . S
O337 Sc335 2.025 . S
O337 Sc336 2.025 . S
C338 O344 1.268 . S
C338 O354 1.268 . S
C339 O345 1.268 . S
C339 O353 1.268 . S
C340 O346 1.268 . S
C340 O355 1.268 . S
C341 O347 1.268 . S
C341 O351 1.268 . S
C342 O348 1.268 . S
C342 O350 1.268 . S
C343 O349 1.268 . S
C343 O352 1.268 . S
O344 Sc334 2.105 . S
O344 C338 1.268 . S
O345 Sc335 2.105 . S
O345 C339 1.268 . S
O346 Sc336 2.105 . S
O346 C340 1.268 . S
O347 Sc334 2.105 1_655 S
O347 C341 1.268 . S
O348 Sc336 2.105 1_655 S
O348 C342 1.268 . S
O349 Sc335 2.105 1_655 S
O349 C343 1.268 . S
O350 Sc334 2.105 1_655 S
O350 C342 1.268 . S
O351 Sc335 2.105 1_655 S
O351 C341 1.268 . S
O352 Sc336 2.105 1_655 S
O352 C343 1.268 . S
O353 Sc334 2.105 . S
O353 C339 1.268 . S
O354 Sc336 2.105 . S
O354 C338 1.268 . S
O355 Sc335 2.105 . S
O355 C340 1.268 . S
Sc356 O359 2.025 . S
Sc356 O366 2.105 . S
Sc356 O369 2.105 . S
Sc356 O372 2.105 . S
Sc356 O375 2.105 . S
Sc357 O359 2.025 . S
Sc357 O367 2.105 . S
Sc357 O371 2.105 . S
Sc357 O373 2.105 . S
Sc357 O377 2.105 . S
Sc358 O359 2.025 . S
Sc358 O368 2.105 . S
Sc358 O370 2.105 . S
Sc358 O374 2.105 . S
Sc358 O376 2.105 . S
O359 Sc356 2.025 . S
O359 Sc357 2.025 . S
O359 Sc358 2.025 . S
C360 O366 1.268 . S
C360 O376 1.268 . S
C361 O367 1.268 . S
C361 O375 1.268 . S
C362 O368 1.268 . S
C362 O377 1.268 . S
C363 O369 1.268 . S
C363 O373 1.268 . S
C364 O370 1.268 . S
C364 O372 1.268 . S
C365 O371 1.268 . S
C365 O374 1.268 . S
O366 Sc356 2.105 . S
O366 C360 1.268 . S
O367 Sc357 2.105 . S
O367 C361 1.268 . S
O368 Sc358 2.105 . S
O368 C362 1.268 . S
O369 Sc356 2.105 . S
O369 C363 1.268 . S
O370 Sc358 2.105 . S
O370 C364 1.268 . S
O371 Sc357 2.105 . S
O371 C365 1.268 . S
O372 Sc356 2.105 . S
O372 C364 1.268 . S
O373 Sc357 2.105 . S
O373 C363 1.268 . S
O374 Sc358 2.105 . S
O374 C365 1.268 . S
O375 Sc356 2.105 . S
O375 C361 1.268 . S
O376 Sc358 2.105 . S
O376 C360 1.268 . S
O377 Sc357 2.105 . S
O377 C362 1.268 . S
Sc378 O381 2.025 . S
Sc378 O388 2.105 . S
Sc378 O391 2.105 . S
Sc378 O394 2.105 . S
Sc378 O397 2.105 . S
Sc379 O381 2.025 . S
Sc379 O389 2.105 . S
Sc379 O393 2.105 . S
Sc379 O395 2.105 . S
Sc379 O399 2.105 . S
Sc380 O381 2.025 . S
Sc380 O390 2.105 . S
Sc380 O392 2.105 . S
Sc380 O396 2.105 . S
Sc380 O398 2.105 . S
O381 Sc378 2.025 . S
O381 Sc379 2.025 . S
O381 Sc380 2.025 . S
C382 O388 1.268 . S
C382 O398 1.268 . S
C383 O389 1.268 . S
C383 O397 1.268 . S
C384 O390 1.268 . S
C384 O399 1.268 . S
C385 O391 1.268 . S
C385 O395 1.268 . S
C386 O392 1.268 . S
C386 O394 1.268 . S
C387 O393 1.268 . S
C387 O396 1.268 . S
O388 Sc378 2.105 . S
O388 C382 1.268 . S
O389 Sc379 2.105 . S
O389 C383 1.268 . S
O390 Sc380 2.105 . S
O390 C384 1.268 . S
O391 Sc378 2.105 . S
O391 C385 1.268 . S
O392 Sc380 2.105 . S
O392 C386 1.268 . S
O393 Sc379 2.105 . S
O393 C387 1.268 . S
O394 Sc378 2.105 . S
O394 C386 1.268 . S
O395 Sc379 2.105 . S
O395 C385 1.268 . S
O396 Sc380 2.105 . S
O396 C387 1.268 . S
O397 Sc378 2.105 . S
O397 C383 1.268 . S
O398 Sc380 2.105 . S
O398 C382 1.268 . S
O399 Sc379 2.105 . S
O399 C384 1.268 . S
H400 C408 0.950 . S
H401 C413 0.950 . S
H402 C410 0.950 . S
H403 C412 0.950 . S
H404 C414 0.950 . S
H405 C416 0.950 . S
H406 C418 0.950 . S
H407 C419 0.950 . S
C408 H400 0.950 . S
C408 C409 1.386 . S
C408 C410 1.391 . S
C409 C408 1.386 . S
C409 C413 1.393 . S
C410 H402 0.950 . S
C410 C408 1.391 . S
C410 C411 1.400 . S
C411 C410 1.400 . S
C411 C412 1.398 . S
C411 C417 1.491 . S
C412 H403 0.950 . S
C412 C411 1.398 . S
C412 C413 1.391 . S
C413 H401 0.950 . S
C413 C409 1.393 . S
C413 C412 1.391 . S
C414 H404 0.950 . S
C414 C415 1.386 . S
C414 C416 1.391 . S
C415 C414 1.386 . S
C415 C419 1.393 . S
C416 H405 0.950 . S
C416 C414 1.391 . S
C416 C417 1.400 . S
C417 C411 1.491 . S
C417 C416 1.400 . S
C417 C418 1.398 . S
C418 H406 0.950 . S
C418 C417 1.398 . S
C418 C419 1.391 . S
C419 H407 0.950 . S
C419 C415 1.393 . S
C419 C418 1.391 . S
H420 C428 0.950 . S
H421 C433 0.950 . S
H422 C430 0.950 . S
H423 C432 0.950 . S
H424 C434 0.950 . S
H425 C436 0.950 . S
H426 C438 0.950 . S
H427 C439 0.950 . S
C428 H420 0.950 . S
C428 C429 1.386 . S
C428 C430 1.391 . S
C429 C428 1.386 . S
C429 C433 1.393 . S
C430 H422 0.950 . S
C430 C428 1.391 . S
C430 C431 1.400 . S
C431 C430 1.400 . S
C431 C432 1.398 . S
C431 C437 1.491 . S
C432 H423 0.950 . S
C432 C431 1.398 . S
C432 C433 1.391 . S
C433 H421 0.950 . S
C433 C429 1.393 . S
C433 C432 1.391 . S
C434 H424 0.950 . S
C434 C435 1.386 . S
C434 C436 1.391 . S
C435 C434 1.386 . S
C435 C439 1.393 . S
C436 H425 0.950 . S
C436 C434 1.391 . S
C436 C437 1.400 . S
C437 C431 1.491 . S
C437 C436 1.400 . S
C437 C438 1.398 . S
C438 H426 0.950 . S
C438 C437 1.398 . S
C438 C439 1.391 . S
C439 H427 0.950 . S
C439 C435 1.393 . S
C439 C438 1.391 . S
H440 C448 0.950 . S
H441 C453 0.950 . S
H442 C450 0.950 . S
H443 C452 0.950 . S
H444 C454 0.950 . S
H445 C456 0.950 . S
H446 C458 0.950 . S
H447 C459 0.950 . S
C448 H440 0.950 . S
C448 C449 1.386 . S
C448 C450 1.391 . S
C449 C448 1.386 . S
C449 C453 1.393 . S
C450 H442 0.950 . S
C450 C448 1.391 . S
C450 C451 1.400 . S
C451 C450 1.400 . S
C451 C452 1.398 . S
C451 C457 1.491 . S
C452 H443 0.950 . S
C452 C451 1.398 . S
C452 C453 1.391 . S
C453 H441 0.950 . S
C453 C449 1.393 . S
C453 C452 1.391 . S
C454 H444 0.950 . S
C454 C455 1.386 . S
C454 C456 1.391 . S
C455 C454 1.386 . S
C455 C459 1.393 . S
C456 H445 0.950 . S
C456 C454 1.391 . S
C456 C457 1.400 . S
C457 C451 1.491 . S
C457 C456 1.400 . S
C457 C458 1.398 . S
C458 H446 0.950 . S
C458 C457 1.398 . S
C458 C459 1.391 . S
C459 H447 0.950 . S
C459 C455 1.393 . S
C459 C458 1.391 . S
H460 C468 0.950 . S
H461 C473 0.950 . S
H462 C470 0.950 . S
H463 C472 0.950 . S
H464 C474 0.950 . S
H465 C476 0.950 . S
H466 C478 0.950 . S
H467 C479 0.950 . S
C468 H460 0.950 . S
C468 C469 1.386 . S
C468 C470 1.391 . S
C469 C468 1.386 . S
C469 C473 1.393 . S
C470 H462 0.950 . S
C470 C468 1.391 . S
C470 C471 1.400 . S
C471 C470 1.400 . S
C471 C472 1.398 . S
C471 C477 1.491 . S
C472 H463 0.950 . S
C472 C471 1.398 . S
C472 C473 1.391 . S
C473 H461 0.950 . S
C473 C469 1.393 . S
C473 C472 1.391 . S
C474 H464 0.950 . S
C474 C475 1.386 . S
C474 C476 1.391 . S
C475 C474 1.386 . S
C475 C479 1.393 . S
C476 H465 0.950 . S
C476 C474 1.391 . S
C476 C477 1.400 . S
C477 C471 1.491 . S
C477 C476 1.400 . S
C477 C478 1.398 . S
C478 H466 0.950 . S
C478 C477 1.398 . S
C478 C479 1.391 . S
C479 H467 0.950 . S
C479 C475 1.393 . S
C479 C478 1.391 . S
H480 C488 0.950 . S
H481 C493 0.950 . S
H482 C490 0.950 . S
H483 C492 0.950 . S
H484 C494 0.950 . S
H485 C496 0.950 . S
H486 C498 0.950 . S
H487 C499 0.950 . S
C488 H480 0.950 . S
C488 C489 1.386 . S
C488 C490 1.391 . S
C489 C488 1.386 . S
C489 C493 1.393 . S
C490 H482 0.950 . S
C490 C488 1.391 . S
C490 C491 1.400 . S
C491 C490 1.400 . S
C491 C492 1.398 . S
C491 C497 1.491 . S
C492 H483 0.950 . S
C492 C491 1.398 . S
C492 C493 1.391 . S
C493 H481 0.950 . S
C493 C489 1.393 . S
C493 C492 1.391 . S
C494 H484 0.950 . S
C494 C495 1.386 . S
C494 C496 1.391 . S
C495 C494 1.386 . S
C495 C499 1.393 . S
C496 H485 0.950 . S
C496 C494 1.391 . S
C496 C497 1.400 . S
C497 C491 1.491 . S
C497 C496 1.400 . S
C497 C498 1.398 . S
C498 H486 0.950 . S
C498 C497 1.398 . S
C498 C499 1.391 . S
C499 H487 0.950 . S
C499 C495 1.393 . S
C499 C498 1.391 . S
H500 C508 0.950 . S
H501 C513 0.950 . S
H502 C510 0.950 . S
H503 C512 0.950 . S
H504 C514 0.950 . S
H505 C516 0.950 . S
H506 C518 0.950 . S
H507 C519 0.950 . S
C508 H500 0.950 . S
C508 C509 1.386 . S
C508 C510 1.391 . S
C509 C508 1.386 . S
C509 C513 1.393 . S
C510 H502 0.950 . S
C510 C508 1.391 . S
C510 C511 1.400 . S
C511 C510 1.400 . S
C511 C512 1.398 . S
C511 C517 1.491 . S
C512 H503 0.950 . S
C512 C511 1.398 . S
C512 C513 1.391 . S
C513 H501 0.950 . S
C513 C509 1.393 . S
C513 C512 1.391 . S
C514 H504 0.950 . S
C514 C515 1.386 . S
C514 C516 1.391 . S
C515 C514 1.386 . S
C515 C519 1.393 . S
C516 H505 0.950 . S
C516 C514 1.391 . S
C516 C517 1.400 . S
C517 C511 1.491 . S
C517 C516 1.400 . S
C517 C518 1.398 . S
C518 H506 0.950 . S
C518 C517 1.398 . S
C518 C519 1.391 . S
C519 H507 0.950 . S
C519 C515 1.393 . S
C519 C518 1.391 . S
H520 C528 0.950 . S
H521 C533 0.950 . S
H522 C530 0.950 . S
H523 C532 0.950 . S
H524 C534 0.950 . S
H525 C536 0.950 . S
H526 C538 0.950 . S
H527 C539 0.950 . S
C528 H520 0.950 . S
C528 C529 1.386 . S
C528 C530 1.391 . S
C529 C528 1.386 . S
C529 C533 1.393 . S
C530 H522 0.950 . S
C530 C528 1.391 . S
C530 C531 1.400 . S
C531 C530 1.400 . S
C531 C532 1.398 . S
C531 C537 1.491 . S
C532 H523 0.950 . S
C532 C531 1.398 . S
C532 C533 1.391 . S
C533 H521 0.950 . S
C533 C529 1.393 . S
C533 C532 1.391 . S
C534 H524 0.950 . S
C534 C535 1.386 . S
C534 C536 1.391 . S
C535 C534 1.386 . S
C535 C539 1.393 . S
C536 H525 0.950 . S
C536 C534 1.391 . S
C536 C537 1.400 . S
C537 C531 1.491 . S
C537 C536 1.400 . S
C537 C538 1.398 . S
C538 H526 0.950 . S
C538 C537 1.398 . S
C538 C539 1.391 . S
C539 H527 0.950 . S
C539 C535 1.393 . S
C539 C538 1.391 . S
H540 C548 0.950 . S
H541 C553 0.950 . S
H542 C550 0.950 . S
H543 C552 0.950 . S
H544 C554 0.950 . S
H545 C556 0.950 . S
H546 C558 0.950 . S
H547 C559 0.950 . S
C548 H540 0.950 . S
C548 C549 1.386 . S
C548 C550 1.391 . S
C549 C548 1.386 . S
C549 C553 1.393 . S
C550 H542 0.950 . S
C550 C548 1.391 . S
C550 C551 1.400 . S
C551 C550 1.400 . S
C551 C552 1.398 . S
C551 C557 1.491 . S
C552 H543 0.950 . S
C552 C551 1.398 . S
C552 C553 1.391 . S
C553 H541 0.950 . S
C553 C549 1.393 . S
C553 C552 1.391 . S
C554 H544 0.950 . S
C554 C555 1.386 . S
C554 C556 1.391 . S
C555 C554 1.386 . S
C555 C559 1.393 . S
C556 H545 0.950 . S
C556 C554 1.391 . S
C556 C557 1.400 . S
C557 C551 1.491 . S
C557 C556 1.400 . S
C557 C558 1.398 . S
C558 H546 0.950 . S
C558 C557 1.398 . S
C558 C559 1.391 . S
C559 H547 0.950 . S
C559 C555 1.393 . S
C559 C558 1.391 . S
H560 C568 0.950 . S
H561 C573 0.950 . S
H562 C570 0.950 . S
H563 C572 0.950 . S
H564 C574 0.950 . S
H565 C576 0.950 . S
H566 C578 0.950 . S
H567 C579 0.950 . S
C568 H560 0.950 . S
C568 C569 1.386 . S
C568 C570 1.391 . S
C569 C568 1.386 . S
C569 C573 1.393 . S
C570 H562 0.950 . S
C570 C568 1.391 . S
C570 C571 1.400 . S
C571 C570 1.400 . S
C571 C572 1.398 . S
C571 C577 1.491 . S
C572 H563 0.950 . S
C572 C571 1.398 . S
C572 C573 1.391 . S
C573 H561 0.950 . S
C573 C569 1.393 . S
C573 C572 1.391 . S
C574 H564 0.950 . S
C574 C575 1.386 . S
C574 C576 1.391 . S
C575 C574 1.386 . S
C575 C579 1.393 . S
C576 H565 0.950 . S
C576 C574 1.391 . S
C576 C577 1.400 . S
C577 C571 1.491 . S
C577 C576 1.400 . S
C577 C578 1.398 . S
C578 H566 0.950 . S
C578 C577 1.398 . S
C578 C579 1.391 . S
C579 H567 0.950 . S
C579 C575 1.393 . S
C579 C578 1.391 . S
H580 C588 0.950 . S
H581 C593 0.950 . S
H582 C590 0.950 . S
H583 C592 0.950 . S
H584 C594 0.950 . S
H585 C596 0.950 . S
H586 C598 0.950 . S
H587 C599 0.950 . S
C588 H580 0.950 . S
C588 C589 1.386 . S
C588 C590 1.391 . S
C589 C588 1.386 . S
C589 C593 1.393 . S
C590 H582 0.950 . S
C590 C588 1.391 . S
C590 C591 1.400 . S
C591 C590 1.400 . S
C591 C592 1.398 . S
C591 C597 1.491 . S
C592 H583 0.950 . S
C592 C591 1.398 . S
C592 C593 1.391 . S
C593 H581 0.950 . S
C593 C589 1.393 . S
C593 C592 1.391 . S
C594 H584 0.950 . S
C594 C595 1.386 . S
C594 C596 1.391 . S
C595 C594 1.386 . S
C595 C599 1.393 . S
C596 H585 0.950 . S
C596 C594 1.391 . S
C596 C597 1.400 . S
C597 C591 1.491 . S
C597 C596 1.400 . S
C597 C598 1.398 . S
C598 H586 0.950 . S
C598 C597 1.398 . S
C598 C599 1.391 . S
C599 H587 0.950 . S
C599 C595 1.393 . S
C599 C598 1.391 . S
H600 C608 0.950 . S
H601 C613 0.950 . S
H602 C610 0.950 . S
H603 C612 0.950 . S
H604 C614 0.950 . S
H605 C616 0.950 . S
H606 C618 0.950 . S
H607 C619 0.950 . S
C608 H600 0.950 . S
C608 C609 1.386 . S
C608 C610 1.391 . S
C609 C608 1.386 . S
C609 C613 1.393 . S
C610 H602 0.950 . S
C610 C608 1.391 . S
C610 C611 1.400 . S
C611 C610 1.400 . S
C611 C612 1.398 . S
C611 C617 1.491 . S
C612 H603 0.950 . S
C612 C611 1.398 . S
C612 C613 1.391 . S
C613 H601 0.950 . S
C613 C609 1.393 . S
C613 C612 1.391 . S
C614 H604 0.950 . S
C614 C615 1.386 . S
C614 C616 1.391 . S
C615 C614 1.386 . S
C615 C619 1.393 . S
C616 H605 0.950 . S
C616 C614 1.391 . S
C616 C617 1.400 . S
C617 C611 1.491 . S
C617 C616 1.400 . S
C617 C618 1.398 . S
C618 H606 0.950 . S
C618 C617 1.398 . S
C618 C619 1.391 . S
C619 H607 0.950 . S
C619 C615 1.393 . S
C619 C618 1.391 . S
H620 C628 0.950 . S
H621 C633 0.950 . S
H622 C630 0.950 . S
H623 C632 0.950 . S
H624 C634 0.950 . S
H625 C636 0.950 . S
H626 C638 0.950 . S
H627 C639 0.950 . S
C628 H620 0.950 . S
C628 C629 1.386 . S
C628 C630 1.391 . S
C629 C628 1.386 . S
C629 C633 1.393 . S
C630 H622 0.950 . S
C630 C628 1.391 . S
C630 C631 1.400 . S
C631 C630 1.400 . S
C631 C632 1.398 . S
C631 C637 1.491 . S
C632 H623 0.950 . S
C632 C631 1.398 . S
C632 C633 1.391 . S
C633 H621 0.950 . S
C633 C629 1.393 . S
C633 C632 1.391 . S
C634 H624 0.950 . S
C634 C635 1.386 . S
C634 C636 1.391 . S
C635 C634 1.386 . S
C635 C639 1.393 . S
C636 H625 0.950 . S
C636 C634 1.391 . S
C636 C637 1.400 . S
C637 C631 1.491 . S
C637 C636 1.400 . S
C637 C638 1.398 . S
C638 H626 0.950 . S
C638 C637 1.398 . S
C638 C639 1.391 . S
C639 H627 0.950 . S
C639 C635 1.393 . S
C639 C638 1.391 . S
H640 C648 0.950 . S
H641 C653 0.950 . S
H642 C650 0.950 . S
H643 C652 0.950 . S
H644 C654 0.950 . S
H645 C656 0.950 . S
H646 C658 0.950 . S
H647 C659 0.950 . S
C648 H640 0.950 . S
C648 C649 1.386 . S
C648 C650 1.391 . S
C649 C648 1.386 . S
C649 C653 1.393 . S
C650 H642 0.950 . S
C650 C648 1.391 . S
C650 C651 1.400 . S
C651 C650 1.400 . S
C651 C652 1.398 . S
C651 C657 1.491 . S
C652 H643 0.950 . S
C652 C651 1.398 . S
C652 C653 1.391 . S
C653 H641 0.950 . S
C653 C649 1.393 . S
C653 C652 1.391 . S
C654 H644 0.950 . S
C654 C655 1.386 . S
C654 C656 1.391 . S
C655 C654 1.386 . S
C655 C659 1.393 . S
C656 H645 0.950 . S
C656 C654 1.391 . S
C656 C657 1.400 . S
C657 C651 1.491 . S
C657 C656 1.400 . S
C657 C658 1.398 . S
C658 H646 0.950 . S
C658 C657 1.398 . S
C658 C659 1.391 . S
C659 H647 0.950 . S
C659 C655 1.393 . S
C659 C658 1.391 . S
H660 C668 0.975 . S
H661 C673 0.950 . S
H662 C670 0.950 . S
H663 C672 0.950 . S
H664 C674 0.950 . S
H665 C676 0.950 . S
H666 C678 0.950 . S
H667 C679 0.950 . S
C668 H660 0.975 . S
C668 C669 1.386 . S
C668 C670 1.391 . S
C669 C668 1.386 . S
C669 C673 1.393 . S
C670 H662 0.950 . S
C670 C668 1.391 . S
C670 C671 1.400 . S
C671 C670 1.400 . S
C671 C672 1.398 . S
C671 C677 1.491 . S
C672 H663 0.950 . S
C672 C671 1.398 . S
C672 C673 1.391 . S
C673 H661 0.950 . S
C673 C669 1.393 . S
C673 C672 1.391 . S
C674 H664 0.950 . S
C674 C675 1.386 . S
C674 C676 1.391 . S
C675 C674 1.386 . S
C675 C679 1.393 . S
C676 H665 0.950 . S
C676 C674 1.391 . S
C676 C677 1.400 . S
C677 C671 1.491 . S
C677 C676 1.400 . S
C677 C678 1.398 . S
C678 H666 0.950 . S
C678 C677 1.398 . S
C678 C679 1.391 . S
C679 H667 0.950 . S
C679 C675 1.393 . S
C679 C678 1.391 . S
H680 C688 0.950 1_565 S
H681 C693 0.950 . S
H682 C690 0.950 . S
H683 C692 0.950 . S
H684 C694 0.950 . S
H685 C696 0.950 . S
H686 C698 0.950 . S
H687 C699 0.950 . S
C688 H680 0.950 1_545 S
C688 C689 1.386 . S
C688 C690 1.391 . S
C689 C688 1.386 . S
C689 C693 1.393 . S
C690 H682 0.950 . S
C690 C688 1.391 . S
C690 C691 1.400 . S
C691 C690 1.400 . S
C691 C692 1.398 . S
C691 C697 1.491 . S
C692 H683 0.950 . S
C692 C691 1.398 . S
C692 C693 1.391 . S
C693 H681 0.950 . S
C693 C689 1.393 . S
C693 C692 1.391 . S
C694 H684 0.950 . S
C694 C695 1.386 . S
C694 C696 1.391 . S
C695 C694 1.386 . S
C695 C699 1.393 . S
C696 H685 0.950 . S
C696 C694 1.391 . S
C696 C697 1.400 . S
C697 C691 1.491 . S
C697 C696 1.400 . S
C697 C698 1.398 . S
C698 H686 0.950 . S
C698 C697 1.398 . S
C698 C699 1.391 . S
C699 H687 0.950 . S
C699 C695 1.393 . S
C699 C698 1.391 . S
H700 C708 0.950 . S
H701 C713 0.950 . S
H702 C710 0.950 . S
H703 C712 0.950 . S
H704 C714 0.950 . S
H705 C716 0.950 . S
H706 C718 0.950 . S
H707 C719 0.950 . S
C708 H700 0.950 . S
C708 C709 1.386 . S
C708 C710 1.391 . S
C709 C708 1.386 . S
C709 C713 1.393 . S
C710 H702 0.950 . S
C710 C708 1.391 . S
C710 C711 1.400 . S
C711 C710 1.400 . S
C711 C712 1.398 . S
C711 C717 1.491 . S
C712 H703 0.950 . S
C712 C711 1.398 . S
C712 C713 1.391 . S
C713 H701 0.950 . S
C713 C709 1.393 . S
C713 C712 1.391 . S
C714 H704 0.950 . S
C714 C715 1.386 . S
C714 C716 1.391 . S
C715 C714 1.386 . S
C715 C719 1.393 . S
C716 H705 0.950 . S
C716 C714 1.391 . S
C716 C717 1.400 . S
C717 C711 1.491 . S
C717 C716 1.400 . S
C717 C718 1.398 . S
C718 H706 0.950 . S
C718 C717 1.398 . S
C718 C719 1.391 . S
C719 H707 0.950 . S
C719 C715 1.393 . S
C719 C718 1.391 . S
H720 C728 0.950 . S
H721 C733 0.950 . S
H722 C730 0.950 . S
H723 C732 0.950 . S
H724 C734 0.950 . S
H725 C736 0.950 . S
H726 C738 0.950 . S
H727 C739 0.950 . S
C728 H720 0.950 . S
C728 C729 1.386 . S
C728 C730 1.391 . S
C729 C728 1.386 . S
C729 C733 1.393 . S
C730 H722 0.950 . S
C730 C728 1.391 . S
C730 C731 1.400 . S
C731 C730 1.400 . S
C731 C732 1.398 . S
C731 C737 1.491 . S
C732 H723 0.950 . S
C732 C731 1.398 . S
C732 C733 1.391 . S
C733 H721 0.950 . S
C733 C729 1.393 . S
C733 C732 1.391 . S
C734 H724 0.950 . S
C734 C735 1.386 . S
C734 C736 1.391 . S
C735 C734 1.386 . S
C735 C739 1.393 . S
C736 H725 0.950 . S
C736 C734 1.391 . S
C736 C737 1.400 . S
C737 C731 1.491 . S
C737 C736 1.400 . S
C737 C738 1.398 . S
C738 H726 0.950 . S
C738 C737 1.398 . S
C738 C739 1.391 . S
C739 H727 0.950 . S
C739 C735 1.393 . S
C739 C738 1.391 . S
H740 C748 0.950 . S
H741 C753 0.950 . S
H742 C750 0.950 . S
H743 C752 0.950 . S
H744 C754 0.950 . S
H745 C756 0.950 . S
H746 C758 0.950 . S
H747 C759 0.950 . S
C748 H740 0.950 . S
C748 C749 1.386 . S
C748 C750 1.391 . S
C749 C748 1.386 . S
C749 C753 1.393 . S
C750 H742 0.950 . S
C750 C748 1.391 . S
C750 C751 1.400 . S
C751 C750 1.400 . S
C751 C752 1.398 . S
C751 C757 1.491 . S
C752 H743 0.950 . S
C752 C751 1.398 . S
C752 C753 1.391 . S
C753 H741 0.950 . S
C753 C749 1.393 . S
C753 C752 1.391 . S
C754 H744 0.950 . S
C754 C755 1.386 . S
C754 C756 1.391 . S
C755 C754 1.386 . S
C755 C759 1.393 . S
C756 H745 0.950 . S
C756 C754 1.391 . S
C756 C757 1.400 . S
C757 C751 1.491 . S
C757 C756 1.400 . S
C757 C758 1.398 . S
C758 H746 0.950 . S
C758 C757 1.398 . S
C758 C759 1.391 . S
C759 H747 0.950 . S
C759 C755 1.393 . S
C759 C758 1.391 . S
H760 C768 0.950 . S
H761 C773 0.950 . S
H762 C770 0.950 . S
H763 C772 0.950 . S
H764 C774 0.950 . S
H765 C776 0.950 . S
H766 C778 0.950 . S
H767 C779 0.950 . S
C768 H760 0.950 . S
C768 C769 1.386 . S
C768 C770 1.391 . S
C769 C768 1.386 . S
C769 C773 1.393 . S
C770 H762 0.950 . S
C770 C768 1.391 . S
C770 C771 1.400 . S
C771 C770 1.400 . S
C771 C772 1.398 . S
C771 C777 1.491 . S
C772 H763 0.950 . S
C772 C771 1.398 . S
C772 C773 1.391 . S
C773 H761 0.950 . S
C773 C769 1.393 . S
C773 C772 1.391 . S
C774 H764 0.950 . S
C774 C775 1.386 . S
C774 C776 1.391 . S
C775 C774 1.386 . S
C775 C779 1.393 . S
C776 H765 0.950 . S
C776 C774 1.391 . S
C776 C777 1.400 . S
C777 C771 1.491 . S
C777 C776 1.400 . S
C777 C778 1.398 . S
C778 H766 0.950 . S
C778 C777 1.398 . S
C778 C779 1.391 . S
C779 H767 0.950 . S
C779 C775 1.393 . S
C779 C778 1.391 . S
H780 C788 0.950 . S
H781 C793 0.950 . S
H782 C790 0.950 . S
H783 C792 0.950 . S
H784 C794 0.950 . S
H785 C796 0.950 . S
H786 C798 0.950 . S
H787 C799 0.950 . S
C788 H780 0.950 . S
C788 C789 1.386 . S
C788 C790 1.391 . S
C789 C788 1.386 . S
C789 C793 1.393 . S
C790 H782 0.950 . S
C790 C788 1.391 . S
C790 C791 1.400 . S
C791 C790 1.400 . S
C791 C792 1.398 . S
C791 C797 1.491 . S
C792 H783 0.950 . S
C792 C791 1.398 . S
C792 C793 1.391 . S
C793 H781 0.950 . S
C793 C789 1.393 . S
C793 C792 1.391 . S
C794 H784 0.950 . S
C794 C795 1.386 . S
C794 C796 1.391 . S
C795 C794 1.386 . S
C795 C799 1.393 . S
C796 H785 0.950 . S
C796 C794 1.391 . S
C796 C797 1.400 . S
C797 C791 1.491 . S
C797 C796 1.400 . S
C797 C798 1.398 . S
C798 H786 0.950 . S
C798 C797 1.398 . S
C798 C799 1.391 . S
C799 H787 0.950 . S
C799 C795 1.393 . S
C799 C798 1.391 . S
H800 C808 0.950 . S
H801 C813 0.950 . S
H802 C810 0.950 . S
H803 C812 0.950 . S
H804 C814 0.950 . S
H805 C816 0.950 . S
H806 C818 0.950 . S
H807 C819 0.950 . S
C808 H800 0.950 . S
C808 C809 1.386 . S
C808 C810 1.391 . S
C809 C808 1.386 . S
C809 C813 1.393 . S
C810 H802 0.950 . S
C810 C808 1.391 . S
C810 C811 1.400 . S
C811 C810 1.400 . S
C811 C812 1.398 . S
C811 C817 1.491 . S
C812 H803 0.950 . S
C812 C811 1.398 . S
C812 C813 1.391 . S
C813 H801 0.950 . S
C813 C809 1.393 . S
C813 C812 1.391 . S
C814 H804 0.950 . S
C814 C815 1.386 . S
C814 C816 1.391 . S
C815 C814 1.386 . S
C815 C819 1.393 . S
C816 H805 0.950 . S
C816 C814 1.391 . S
C816 C817 1.400 . S
C817 C811 1.491 . S
C817 C816 1.400 . S
C817 C818 1.398 . S
C818 H806 0.950 . S
C818 C817 1.398 . S
C818 C819 1.391 . S
C819 H807 0.950 . S
C819 C815 1.393 . S
C819 C818 1.391 . S
H820 C828 0.950 . S
H821 C833 0.950 . S
H822 C830 0.950 . S
H823 C832 0.950 . S
H824 C834 0.950 . S
H825 C836 0.950 . S
H826 C838 0.950 . S
H827 C839 0.950 . S
C828 H820 0.950 . S
C828 C829 1.386 . S
C828 C830 1.391 . S
C829 C828 1.386 . S
C829 C833 1.393 . S
C830 H822 0.950 . S
C830 C828 1.391 . S
C830 C831 1.400 . S
C831 C830 1.400 . S
C831 C832 1.398 . S
C831 C837 1.491 . S
C832 H823 0.950 . S
C832 C831 1.398 . S
C832 C833 1.391 . S
C833 H821 0.950 . S
C833 C829 1.393 . S
C833 C832 1.391 . S
C834 H824 0.950 . S
C834 C835 1.386 . S
C834 C836 1.391 . S
C835 C834 1.386 . S
C835 C839 1.393 . S
C836 H825 0.950 . S
C836 C834 1.391 . S
C836 C837 1.400 . S
C837 C831 1.491 . S
C837 C836 1.400 . S
C837 C838 1.398 . S
C838 H826 0.950 . S
C838 C837 1.398 . S
C838 C839 1.391 . S
C839 H827 0.950 . S
C839 C835 1.393 . S
C839 C838 1.391 . S
H840 C848 0.950 . S
H841 C853 0.950 . S
H842 C850 0.950 . S
H843 C852 0.950 . S
H844 C854 0.950 . S
H845 C856 0.950 . S
H846 C858 0.950 . S
H847 C859 0.950 . S
C848 H840 0.950 . S
C848 C849 1.386 . S
C848 C850 1.391 . S
C849 C848 1.386 . S
C849 C853 1.393 . S
C850 H842 0.950 . S
C850 C848 1.391 . S
C850 C851 1.400 . S
C851 C850 1.400 . S
C851 C852 1.398 . S
C851 C857 1.491 . S
C852 H843 0.950 . S
C852 C851 1.398 . S
C852 C853 1.391 . S
C853 H841 0.950 . S
C853 C849 1.393 . S
C853 C852 1.391 . S
C854 H844 0.950 . S
C854 C855 1.386 . S
C854 C856 1.391 . S
C855 C854 1.386 . S
C855 C859 1.393 . S
C856 H845 0.950 . S
C856 C854 1.391 . S
C856 C857 1.400 . S
C857 C851 1.491 . S
C857 C856 1.400 . S
C857 C858 1.398 . S
C858 H846 0.950 . S
C858 C857 1.398 . S
C858 C859 1.391 . S
C859 H847 0.950 . S
C859 C855 1.393 . S
C859 C858 1.391 . S
H860 C868 0.950 . S
H861 C873 0.950 . S
H862 C870 0.950 . S
H863 C872 0.950 . S
H864 C874 0.950 . S
H865 C876 0.950 . S
H866 C878 0.950 . S
H867 C879 0.950 . S
C868 H860 0.950 . S
C868 C869 1.386 . S
C868 C870 1.391 . S
C869 C868 1.386 . S
C869 C873 1.393 . S
C870 H862 0.950 . S
C870 C868 1.391 . S
C870 C871 1.400 . S
C871 C870 1.400 . S
C871 C872 1.398 . S
C871 C877 1.491 . S
C872 H863 0.950 . S
C872 C871 1.398 . S
C872 C873 1.391 . S
C873 H861 0.950 . S
C873 C869 1.393 . S
C873 C872 1.391 . S
C874 H864 0.950 . S
C874 C875 1.386 . S
C874 C876 1.391 . S
C875 C874 1.386 . S
C875 C879 1.393 . S
C876 H865 0.950 . S
C876 C874 1.391 . S
C876 C877 1.400 . S
C877 C871 1.491 . S
C877 C876 1.400 . S
C877 C878 1.398 . S
C878 H866 0.950 . S
C878 C877 1.398 . S
C878 C879 1.391 . S
C879 H867 0.950 . S
C879 C875 1.393 . S
C879 C878 1.391 . S
C409 C21 1.554 . S
C415 C338 1.526 . S
C435 C316 1.514 . S
C429 C60 1.550 . S
C455 C342 1.513 . S
C449 C99 1.540 . S
C475 C320 1.520 . S
C469 C138 1.549 . S
C495 C382 1.527 . S
C489 C177 1.555 . S
C515 C360 1.514 . S
C509 C216 1.550 . S
C529 C255 1.547 . S
C535 C386 1.525 . S
C555 C364 1.506 . S
C549 C294 1.541 . S
C569 C1 1.552 . S
C575 C387 1.567 . S
C595 C365 1.568 . S
C589 C40 1.546 . S
C609 C79 1.556 . S
C615 C384 1.567 . S
C629 C133 1.552 . S
C635 C362 1.551 . S
C655 C343 1.566 . S
C649 C157 1.555 1_545 S
C669 C196 1.561 1_565 S
C675 C321 1.557 . S
C695 C340 1.567 . S
C689 C235 1.556 1_545 S
C715 C318 1.552 . S
C709 C289 1.550 1_565 S
C735 C361 1.532 . S
C729 C16 1.517 . S
C755 C383 1.529 . S
C749 C55 1.529 . S
C769 C94 1.518 . S
C775 C363 1.540 . S
C795 C385 1.540 . S
C789 C118 1.519 . S
C815 C317 1.540 . S
C809 C172 1.514 . S
C829 C211 1.526 . S
C835 C339 1.534 . S
C849 C250 1.523 . S
C855 C319 1.530 . S
C869 C274 1.519 . S
C875 C341 1.541 . S
