# Generated by pormake.
# Topology llk, (3,12)-cn, num edge types: 1
# Building blocks:
#     Node 0, Type 0, BuildingBlock: QEWDON_clean_linker_0, # of connection points: 3
#     Node 1, Type 0, BuildingBlock: QEWDON_clean_linker_0, # of connection points: 3
#     Node 2, Type 0, BuildingBlock: QEWDON_clean_linker_0, # of connection points: 3
#     Node 3, Type 0, BuildingBlock: QEWDON_clean_linker_0, # of connection points: 3
#     Node 4, Type 0, BuildingBlock: QEWDON_clean_linker_0, # of connection points: 3
#     Node 5, Type 0, BuildingBlock: QEWDON_clean_linker_0, # of connection points: 3
#     Node 6, Type 0, BuildingBlock: QEWDON_clean_linker_0, # of connection points: 3
#     Node 7, Type 0, BuildingBlock: QEWDON_clean_linker_0, # of connection points: 3
#     Node 8, Type 0, BuildingBlock: QEWDON_clean_linker_0, # of connection points: 3
#     Node 9, Type 0, BuildingBlock: QEWDON_clean_linker_0, # of connection points: 3
#     Node 10, Type 0, BuildingBlock: QEWDON_clean_linker_0, # of connection points: 3
#     Node 11, Type 0, BuildingBlock: QEWDON_clean_linker_0, # of connection points: 3
#     Node 12, Type 0, BuildingBlock: QEWDON_clean_linker_0, # of connection points: 3
#     Node 13, Type 0, BuildingBlock: QEWDON_clean_linker_0, # of connection points: 3
#     Node 14, Type 0, BuildingBlock: QEWDON_clean_linker_0, # of connection points: 3
#     Node 15, Type 0, BuildingBlock: QEWDON_clean_linker_0, # of connection points: 3
#     Node 16, Type 0, BuildingBlock: QEWDON_clean_linker_0, # of connection points: 3
#     Node 17, Type 0, BuildingBlock: QEWDON_clean_linker_0, # of connection points: 3
#     Node 18, Type 0, BuildingBlock: QEWDON_clean_linker_0, # of connection points: 3
#     Node 19, Type 0, BuildingBlock: QEWDON_clean_linker_0, # of connection points: 3
#     Node 20, Type 0, BuildingBlock: QEWDON_clean_linker_0, # of connection points: 3
#     Node 21, Type 0, BuildingBlock: QEWDON_clean_linker_0, # of connection points: 3
#     Node 22, Type 0, BuildingBlock: QEWDON_clean_linker_0, # of connection points: 3
#     Node 23, Type 0, BuildingBlock: QEWDON_clean_linker_0, # of connection points: 3
#     Node 24, Type 1, BuildingBlock: EZIPEK_clean_sbu_0, # of connection points: 12
#     Node 25, Type 1, BuildingBlock: EZIPEK_clean_sbu_0, # of connection points: 12
#     Node 26, Type 1, BuildingBlock: EZIPEK_clean_sbu_0, # of connection points: 12
#     Node 27, Type 1, BuildingBlock: EZIPEK_clean_sbu_0, # of connection points: 12
#     Node 28, Type 1, BuildingBlock: EZIPEK_clean_sbu_0, # of connection points: 12
#     Node 29, Type 1, BuildingBlock: EZIPEK_clean_sbu_0, # of connection points: 12
#     Edge 30, Type (0, 1), BuildingBlock: KIFKEQ_clean_linker_1, # of connection points: 2
#     Edge 31, Type (0, 1), BuildingBlock: KIFKEQ_clean_linker_1, # of connection points: 2
#     Edge 32, Type (0, 1), BuildingBlock: KIFKEQ_clean_linker_1, # of connection points: 2
#     Edge 33, Type (0, 1), BuildingBlock: KIFKEQ_clean_linker_1, # of connection points: 2
#     Edge 34, Type (0, 1), BuildingBlock: KIFKEQ_clean_linker_1, # of connection points: 2
#     Edge 35, Type (0, 1), BuildingBlock: KIFKEQ_clean_linker_1, # of connection points: 2
#     Edge 36, Type (0, 1), BuildingBlock: KIFKEQ_clean_linker_1, # of connection points: 2
#     Edge 37, Type (0, 1), BuildingBlock: KIFKEQ_clean_linker_1, # of connection points: 2
#     Edge 38, Type (0, 1), BuildingBlock: KIFKEQ_clean_linker_1, # of connection points: 2
#     Edge 39, Type (0, 1), BuildingBlock: KIFKEQ_clean_linker_1, # of connection points: 2
#     Edge 40, Type (0, 1), BuildingBlock: KIFKEQ_clean_linker_1, # of connection points: 2
#     Edge 41, Type (0, 1), BuildingBlock: KIFKEQ_clean_linker_1, # of connection points: 2
#     Edge 42, Type (0, 1), BuildingBlock: KIFKEQ_clean_linker_1, # of connection points: 2
#     Edge 43, Type (0, 1), BuildingBlock: KIFKEQ_clean_linker_1, # of connection points: 2
#     Edge 44, Type (0, 1), BuildingBlock: KIFKEQ_clean_linker_1, # of connection points: 2
#     Edge 45, Type (0, 1), BuildingBlock: KIFKEQ_clean_linker_1, # of connection points: 2
#     Edge 46, Type (0, 1), BuildingBlock: KIFKEQ_clean_linker_1, # of connection points: 2
#     Edge 47, Type (0, 1), BuildingBlock: KIFKEQ_clean_linker_1, # of connection points: 2
#     Edge 48, Type (0, 1), BuildingBlock: KIFKEQ_clean_linker_1, # of connection points: 2
#     Edge 49, Type (0, 1), BuildingBlock: KIFKEQ_clean_linker_1, # of connection points: 2
#     Edge 50, Type (0, 1), BuildingBlock: KIFKEQ_clean_linker_1, # of connection points: 2
#     Edge 51, Type (0, 1), BuildingBlock: KIFKEQ_clean_linker_1, # of connection points: 2
#     Edge 52, Type (0, 1), BuildingBlock: KIFKEQ_clean_linker_1, # of connection points: 2
#     Edge 53, Type (0, 1), BuildingBlock: KIFKEQ_clean_linker_1, # of connection points: 2
#     Edge 54, Type (0, 1), BuildingBlock: KIFKEQ_clean_linker_1, # of connection points: 2
#     Edge 55, Type (0, 1), BuildingBlock: KIFKEQ_clean_linker_1, # of connection points: 2
#     Edge 56, Type (0, 1), BuildingBlock: KIFKEQ_clean_linker_1, # of connection points: 2
#     Edge 57, Type (0, 1), BuildingBlock: KIFKEQ_clean_linker_1, # of connection points: 2
#     Edge 58, Type (0, 1), BuildingBlock: KIFKEQ_clean_linker_1, # of connection points: 2
#     Edge 59, Type (0, 1), BuildingBlock: KIFKEQ_clean_linker_1, # of connection points: 2
#     Edge 60, Type (0, 1), BuildingBlock: KIFKEQ_clean_linker_1, # of connection points: 2
#     Edge 61, Type (0, 1), BuildingBlock: KIFKEQ_clean_linker_1, # of connection points: 2
#     Edge 62, Type (0, 1), BuildingBlock: KIFKEQ_clean_linker_1, # of connection points: 2
#     Edge 63, Type (0, 1), BuildingBlock: KIFKEQ_clean_linker_1, # of connection points: 2
#     Edge 64, Type (0, 1), BuildingBlock: KIFKEQ_clean_linker_1, # of connection points: 2
#     Edge 65, Type (0, 1), BuildingBlock: KIFKEQ_clean_linker_1, # of connection points: 2
#     Edge 66, Type (0, 1), BuildingBlock: KIFKEQ_clean_linker_1, # of connection points: 2
#     Edge 67, Type (0, 1), BuildingBlock: KIFKEQ_clean_linker_1, # of connection points: 2
#     Edge 68, Type (0, 1), BuildingBlock: KIFKEQ_clean_linker_1, # of connection points: 2
#     Edge 69, Type (0, 1), BuildingBlock: KIFKEQ_clean_linker_1, # of connection points: 2
#     Edge 70, Type (0, 1), BuildingBlock: KIFKEQ_clean_linker_1, # of connection points: 2
#     Edge 71, Type (0, 1), BuildingBlock: KIFKEQ_clean_linker_1, # of connection points: 2
#     Edge 72, Type (0, 1), BuildingBlock: KIFKEQ_clean_linker_1, # of connection points: 2
#     Edge 73, Type (0, 1), BuildingBlock: KIFKEQ_clean_linker_1, # of connection points: 2
#     Edge 74, Type (0, 1), BuildingBlock: KIFKEQ_clean_linker_1, # of connection points: 2
#     Edge 75, Type (0, 1), BuildingBlock: KIFKEQ_clean_linker_1, # of connection points: 2
#     Edge 76, Type (0, 1), BuildingBlock: KIFKEQ_clean_linker_1, # of connection points: 2
#     Edge 77, Type (0, 1), BuildingBlock: KIFKEQ_clean_linker_1, # of connection points: 2
#     Edge 78, Type (0, 1), BuildingBlock: KIFKEQ_clean_linker_1, # of connection points: 2
#     Edge 79, Type (0, 1), BuildingBlock: KIFKEQ_clean_linker_1, # of connection points: 2
#     Edge 80, Type (0, 1), BuildingBlock: KIFKEQ_clean_linker_1, # of connection points: 2
#     Edge 81, Type (0, 1), BuildingBlock: KIFKEQ_clean_linker_1, # of connection points: 2
#     Edge 82, Type (0, 1), BuildingBlock: KIFKEQ_clean_linker_1, # of connection points: 2
#     Edge 83, Type (0, 1), BuildingBlock: KIFKEQ_clean_linker_1, # of connection points: 2
#     Edge 84, Type (0, 1), BuildingBlock: KIFKEQ_clean_linker_1, # of connection points: 2
#     Edge 85, Type (0, 1), BuildingBlock: KIFKEQ_clean_linker_1, # of connection points: 2
#     Edge 86, Type (0, 1), BuildingBlock: KIFKEQ_clean_linker_1, # of connection points: 2
#     Edge 87, Type (0, 1), BuildingBlock: KIFKEQ_clean_linker_1, # of connection points: 2
#     Edge 88, Type (0, 1), BuildingBlock: KIFKEQ_clean_linker_1, # of connection points: 2
#     Edge 89, Type (0, 1), BuildingBlock: KIFKEQ_clean_linker_1, # of connection points: 2
#     Edge 90, Type (0, 1), BuildingBlock: KIFKEQ_clean_linker_1, # of connection points: 2
#     Edge 91, Type (0, 1), BuildingBlock: KIFKEQ_clean_linker_1, # of connection points: 2
#     Edge 92, Type (0, 1), BuildingBlock: KIFKEQ_clean_linker_1, # of connection points: 2
#     Edge 93, Type (0, 1), BuildingBlock: KIFKEQ_clean_linker_1, # of connection points: 2
#     Edge 94, Type (0, 1), BuildingBlock: KIFKEQ_clean_linker_1, # of connection points: 2
#     Edge 95, Type (0, 1), BuildingBlock: KIFKEQ_clean_linker_1, # of connection points: 2
#     Edge 96, Type (0, 1), BuildingBlock: KIFKEQ_clean_linker_1, # of connection points: 2
#     Edge 97, Type (0, 1), BuildingBlock: KIFKEQ_clean_linker_1, # of connection points: 2
#     Edge 98, Type (0, 1), BuildingBlock: KIFKEQ_clean_linker_1, # of connection points: 2
#     Edge 99, Type (0, 1), BuildingBlock: KIFKEQ_clean_linker_1, # of connection points: 2
#     Edge 100, Type (0, 1), BuildingBlock: KIFKEQ_clean_linker_1, # of connection points: 2
#     Edge 101, Type (0, 1), BuildingBlock: KIFKEQ_clean_linker_1, # of connection points: 2
# Relax obj value: 0.088
# Max RMSD: 0.249
# Mean RMSD: 0.190
data_MOF--net-llk--node1-EZIPEK_clean_sbu_0--node2-QEWDON_clean_linker_0--edge1-KIFKEQ_clean_linker_1
_symmetry_space_group_name_H-M    P1
_symmetry_Int_Tables_number       1
_symmetry_cell_setting            triclinic
loop_
_symmetry_equiv_pos_as_xyz
'x, y, z'
_cell_length_a     49.845797
_cell_length_b     49.473439
_cell_length_c     49.095261
_cell_angle_alpha  89.961322
_cell_angle_beta   89.963882
_cell_angle_gamma 89.962218
loop_
_atom_site_label
_atom_site_type_symbol
_atom_site_fract_x
_atom_site_fract_y
_atom_site_fract_z
_atom_type_partial_charge
H0 H 1.00116 0.29877 0.28083 0.0
C1 C 1.00705 0.28015 0.29079 0.0
C2 C 0.01159 0.2805 0.31897 0.0
C3 C 1.00878 0.25583 0.27591 0.0
H4 H 0.02081 0.25661 0.35435 0.0
C5 C 0.01775 0.25636 0.33249 0.0
C6 C 0.01949 0.23187 0.31831 0.0
C7 C 0.01532 0.23178 0.29001 0.0
C8 C 1.00263 0.25537 0.24606 0.0
H9 H 0.01738 0.21289 0.27908 0.0
C10 C 1.0077 0.27808 0.2293 0.0
C11 C 1.00048 0.27806 0.20154 0.0
C12 C 0.99065 0.23242 0.23423 0.0
H13 H 0.98557 0.21487 0.24633 0.0
C14 C 0.98435 0.23195 0.20659 0.0
H15 H 0.01685 0.29598 0.23786 0.0
C16 C 0.98919 0.25452 0.19034 0.0
H17 H 0.98401 0.25351 0.16894 0.0
H18 H 0.97531 0.2141 0.19777 0.0
H19 H 0.75215 0.02073 0.30647 0.0
C20 C 0.74211 0.01787 0.28717 0.0
C21 C 0.71462 0.01175 0.28741 0.0
C22 C 0.75625 0.02068 0.26237 0.0
H23 H 0.67932 0.00615 0.26286 0.0
C24 C 0.70078 0.0098 0.26271 0.0
C25 C 0.71396 0.0133 0.23781 0.0
C26 C 0.74181 0.01763 0.23766 0.0
C27 C 0.78549 0.02826 0.26231 0.0
H28 H 0.75184 0.01933 0.21819 0.0
C29 C 0.80254 0.02216 0.28464 0.0
C30 C 0.82944 0.03109 0.28518 0.0
C31 C 0.7964 0.04291 0.24028 0.0
H32 H 0.78421 0.04913 0.22319 0.0
C33 C 0.82327 0.0506 0.24016 0.0
H34 H 0.79492 0.01096 0.30189 0.0
C35 C 0.83967 0.04478 0.26233 0.0
H36 H 0.86042 0.05122 0.26161 0.0
H37 H 0.83133 0.06161 0.22295 0.0
H38 H 1.00739 0.73804 0.30577 0.0
C39 C 0.01033 0.72768 0.2866 0.0
C40 C 0.01703 0.70015 0.28719 0.0
C41 C 1.00712 0.74149 0.2616 0.0
H42 H 0.0233 0.66436 0.26316 0.0
C43 C 0.01914 0.68589 0.26271 0.0
C44 C 0.01512 0.69871 0.23767 0.0
C45 C 0.01018 0.72666 0.23711 0.0
C46 C 0.99937 0.77083 0.26114 0.0
H47 H 1.00806 0.73646 0.21753 0.0
C48 C 1.00604 0.78839 0.28289 0.0
C49 C 0.99728 0.81552 0.28314 0.0
C50 C 0.98424 0.78137 0.23932 0.0
H51 H 0.97768 0.76872 0.22266 0.0
C52 C 0.97659 0.80846 0.23888 0.0
H53 H 0.0176 0.78097 0.29994 0.0
C54 C 0.98302 0.82542 0.26053 0.0
H55 H 0.97665 0.84633 0.25957 0.0
H56 H 0.96519 0.81625 0.22184 0.0
H57 H 0.2922 0.99549 0.30652 0.0
C58 C 0.30126 0.9995 0.28688 0.0
C59 C 0.32814 0.00777 0.2859 0.0
C60 C 0.28632 0.99568 0.26287 0.0
H61 H 0.36138 0.01742 0.25971 0.0
C62 C 0.3403 0.01215 0.26051 0.0
C63 C 0.32605 0.00826 0.23613 0.0
C64 C 0.29898 1.00016 0.23748 0.0
C65 C 0.25817 0.98538 0.26465 0.0
H66 H 0.28783 0.99749 0.21876 0.0
C67 C 0.24131 0.99264 0.28667 0.0
C68 C 0.21614 0.98024 0.29023 0.0
C69 C 0.24863 0.96655 0.24549 0.0
H70 H 0.26103 0.96006 0.22861 0.0
C71 C 0.2233 0.9549 0.24851 0.0
H72 H 0.24798 0.0073 0.30157 0.0
C73 C 0.20727 0.9614 0.27087 0.0
H74 H 0.18791 0.9517 0.27308 0.0
H75 H 0.2163 0.94027 0.23374 0.0
H76 H 1.00109 0.71166 0.74045 0.0
C77 C 1.00711 0.73043 0.73089 0.0
C78 C 0.01503 0.72994 0.70355 0.0
C79 C 1.00657 0.7549 0.74555 0.0
H80 H 0.02638 0.75344 0.66869 0.0
C81 C 0.0215 0.75404 0.69021 0.0
C82 C 0.0201 0.77886 0.70392 0.0
C83 C 0.01323 0.77908 0.73174 0.0
C84 C 0.99828 0.75522 0.77486 0.0
H85 H 0.0132 0.79816 0.74251 0.0
C86 C 1.00356 0.73294 0.79212 0.0
C87 C 0.99473 0.73274 0.81941 0.0
C88 C 0.98435 0.77755 0.78566 0.0
H89 H 0.97915 0.79473 0.77307 0.0
C90 C 0.97631 0.77782 0.81286 0.0
H91 H 0.01421 0.71555 0.78429 0.0
C92 C 0.98143 0.75567 0.82963 0.0
H93 H 0.97494 0.75656 0.85066 0.0
H94 H 0.96577 0.7952 0.82092 0.0
H95 H 0.29046 0.01646 0.71616 0.0
C96 C 0.30054 0.01369 0.73546 0.0
C97 C 0.32802 0.00753 0.7352 0.0
C98 C 0.28644 0.01662 0.76026 0.0
H99 H 0.36337 1.00189 0.75966 0.0
C100 C 0.34193 1.00566 0.75987 0.0
C101 C 0.32882 0.00937 0.7848 0.0
C102 C 0.30095 0.01375 0.78496 0.0
C103 C 0.25714 0.02401 0.76031 0.0
H104 H 0.29095 0.01559 0.80443 0.0
C105 C 0.24012 0.01769 0.73803 0.0
C106 C 0.21311 0.02632 0.73749 0.0
C107 C 0.24611 0.03862 0.78228 0.0
H108 H 0.25825 0.04501 0.79934 0.0
C109 C 0.21914 0.04602 0.78243 0.0
H110 H 0.24783 0.00652 0.72082 0.0
C111 C 0.20276 0.03995 0.76032 0.0
H112 H 0.18193 0.04614 0.7611 0.0
H113 H 0.21098 0.05699 0.79962 0.0
H114 H 1.00617 0.27325 0.71586 0.0
C115 C 1.00828 0.28378 0.73507 0.0
C116 C 0.01552 0.31117 0.73482 0.0
C117 C 1.00297 0.27027 0.75981 0.0
H118 H 0.0216 0.34671 0.7593 0.0
C119 C 0.01689 0.3253 0.75945 0.0
C120 C 0.01118 0.31257 0.78425 0.0
C121 C 1.00494 0.28489 0.78446 0.0
C122 C 0.99342 0.24165 0.75949 0.0
H123 H 1.00081 0.27508 0.80374 0.0
C124 C 1.00265 0.22326 0.73958 0.0
C125 C 0.99156 0.19714 0.73734 0.0
C126 C 0.97363 0.23301 0.77799 0.0
H127 H 0.96553 0.2466 0.79318 0.0
C128 C 0.96315 0.20693 0.77645 0.0
H129 H 0.01848 0.22931 0.72575 0.0
C130 C 0.97178 0.18921 0.75619 0.0
H131 H 0.96233 0.16956 0.75489 0.0
H132 H 0.94771 0.20066 0.79062 0.0
H133 H 0.72646 0.01551 0.73905 0.0
C134 C 0.74553 0.0112 0.72948 0.0
C135 C 0.74579 1.00431 0.70177 0.0
C136 C 0.76952 0.0128 0.74459 0.0
H137 H 0.77064 0.996 0.66695 0.0
C138 C 0.77042 0.99993 0.68867 0.0
C139 C 0.79474 1.00179 0.70291 0.0
C140 C 0.7941 0.00774 0.73096 0.0
C141 C 0.76888 0.02069 0.77416 0.0
H142 H 0.81284 0.00814 0.74204 0.0
C143 C 0.74618 0.01543 0.79083 0.0
C144 C 0.7451 0.02451 0.81808 0.0
C145 C 0.79069 0.03466 0.78575 0.0
H146 H 0.80811 0.04006 0.77379 0.0
C147 C 0.79019 0.04261 0.81296 0.0
H148 H 0.72912 1.0047 0.78263 0.0
C149 C 0.76768 0.03762 0.829 0.0
H150 H 0.76799 0.04417 0.85004 0.0
H151 H 0.80723 0.05312 0.82158 0.0
H152 H 0.29382 0.30205 0.0172 0.0
C153 C 0.30329 0.28261 0.01395 0.0
C154 C 0.33053 0.28179 0.00679 0.0
C155 C 0.28848 0.25869 0.01769 0.0
H156 H 0.36446 0.25604 0.99903 0.0
C157 C 0.34315 0.25664 0.00339 0.0
C158 C 0.32905 0.23232 0.00703 0.0
C159 C 0.30163 0.23353 0.01407 0.0
C160 C 0.25991 0.26024 0.02713 0.0
H161 H 0.29057 0.21486 0.01655 0.0
C162 C 0.2427 0.28161 0.01892 0.0
C163 C 0.21649 0.28412 0.02969 0.0
C164 C 0.25013 0.24113 0.04588 0.0
H165 H 0.26275 0.22488 0.05324 0.0
C166 C 0.22421 0.24326 0.0563 0.0
H167 H 0.2496 0.29616 0.004 0.0
C168 C 0.20761 0.26459 0.04851 0.0
H169 H 0.18796 0.26604 0.0578 0.0
H170 H 0.21711 0.22857 0.07097 0.0
H171 H 0.29266 0.71016 1.00071 0.0
C172 C 0.30232 0.72952 0.00334 0.0
C173 C 0.32999 0.72985 0.00861 0.0
C174 C 0.28749 0.75377 1.00118 0.0
H175 H 0.3649 0.75493 0.01344 0.0
C176 C 0.34337 0.75468 0.01033 0.0
C177 C 0.32954 0.77919 0.0074 0.0
C178 C 0.30151 0.77863 0.00397 0.0
C179 C 0.25794 0.75308 0.99457 0.0
H180 H 0.291 0.79771 0.00278 0.0
C181 C 0.24174 0.73011 1.00035 0.0
C182 C 0.21458 0.72901 0.99213 0.0
C183 C 0.24583 0.77511 0.98105 0.0
H184 H 0.25721 0.7927 0.97502 0.0
C185 C 0.21873 0.77465 0.97423 0.0
H186 H 0.25015 0.71281 0.01071 0.0
C187 C 0.20323 0.75191 0.97968 0.0
H188 H 0.18226 0.75224 0.97391 0.0
H189 H 0.20977 0.79189 0.96414 0.0
H190 H 0.72661 0.27701 0.02044 0.0
C191 C 0.74585 0.28668 0.01765 0.0
C192 C 0.74621 0.31454 0.01231 0.0
C193 C 0.76986 0.27167 0.01972 0.0
H194 H 0.77119 0.34962 0.00715 0.0
C195 C 0.77089 0.32793 0.01036 0.0
C196 C 0.79519 0.31392 0.01318 0.0
C197 C 0.79457 0.28569 0.01677 0.0
C198 C 0.76901 0.24195 0.02651 0.0
H199 H 0.81346 0.27502 0.01795 0.0
C200 C 0.74605 0.22582 0.02095 0.0
C201 C 0.74456 0.19865 0.02968 0.0
C202 C 0.79075 0.22965 0.04011 0.0
H203 H 0.80838 0.24098 0.04589 0.0
C204 C 0.78993 0.20245 0.0474 0.0
H205 H 0.72899 0.23433 0.01042 0.0
C206 C 0.76711 0.18708 0.04233 0.0
H207 H 0.76707 0.16608 0.04855 0.0
H208 H 0.80693 0.19335 0.05762 0.0
H209 H 0.72642 0.73429 1.00041 0.0
C210 C 0.74568 0.72466 0.00359 0.0
C211 C 0.74646 0.69665 0.00786 0.0
C212 C 0.7695 0.73986 1.00153 0.0
H213 H 0.77204 0.66206 0.01374 0.0
C214 C 0.77138 0.68369 0.01019 0.0
C215 C 0.7955 0.69807 0.00765 0.0
C216 C 0.79445 0.72629 0.00404 0.0
C217 C 0.76805 0.76922 0.99411 0.0
H218 H 0.81307 0.73742 0.0023 0.0
C219 C 0.7464 0.78572 0.00276 0.0
C220 C 0.74374 0.81264 0.99345 0.0
C221 C 0.78739 0.78046 0.97657 0.0
H222 H 0.80386 0.76846 0.9688 0.0
C223 C 0.78518 0.80714 0.96774 0.0
H224 H 0.73166 0.77769 0.01679 0.0
C225 C 0.76351 0.82302 0.97585 0.0
H226 H 0.76198 0.8433 0.96769 0.0
H227 H 0.80005 0.81538 0.95397 0.0
H228 H 0.50731 0.80029 0.78123 0.0
C229 C 0.51211 0.78125 0.79094 0.0
C230 C 0.5202 0.78142 0.8183 0.0
C231 C 0.5099 0.7568 0.77636 0.0
H232 H 0.52998 0.75689 0.85307 0.0
C233 C 0.52521 0.75683 0.83153 0.0
C234 C 0.52276 0.73216 0.81776 0.0
C235 C 0.51558 0.73231 0.79007 0.0
C236 C 0.50088 0.75682 0.74725 0.0
H237 H 0.5146 0.71325 0.77931 0.0
C238 C 0.50639 0.77891 0.7298 0.0
C239 C 0.49669 0.77948 0.70283 0.0
C240 C 0.48586 0.73503 0.73687 0.0
H241 H 0.48037 0.71805 0.7496 0.0
C242 C 0.47706 0.73504 0.70993 0.0
H243 H 0.51787 0.79591 0.73723 0.0
C244 C 0.4824 0.75701 0.69302 0.0
H245 H 0.47525 0.75637 0.67221 0.0
H246 H 0.46571 0.71804 0.70221 0.0
H247 H 0.2517 0.51938 0.8058 0.0
C248 C 0.24166 0.51735 0.78638 0.0
C249 C 0.21395 0.51237 0.78624 0.0
C250 C 0.25613 0.51999 0.76178 0.0
H251 H 0.17875 0.50839 0.76121 0.0
C252 C 0.20032 0.5113 0.76135 0.0
C253 C 0.21393 0.51457 0.73664 0.0
C254 C 0.24192 0.51796 0.73687 0.0
C255 C 0.28564 0.526 0.76221 0.0
H256 H 0.25231 0.51963 0.71759 0.0
C257 C 0.30213 0.5176 0.78414 0.0
C258 C 0.32956 0.5244 0.78496 0.0
C259 C 0.29749 0.54115 0.74104 0.0
H260 H 0.28569 0.54896 0.72432 0.0
C261 C 0.3248 0.54723 0.74144 0.0
H262 H 0.29393 0.50556 0.80055 0.0
C263 C 0.34075 0.53897 0.7632 0.0
H264 H 0.36173 0.54467 0.76338 0.0
H265 H 0.33355 0.5589 0.72503 0.0
H266 H 0.50849 0.23768 0.80615 0.0
C267 C 0.51065 0.22717 0.78695 0.0
C268 C 0.51641 0.19942 0.78739 0.0
C269 C 0.50752 0.24109 0.76203 0.0
H270 H 0.52132 0.16355 0.76316 0.0
C271 C 0.51772 0.18517 0.76283 0.0
C272 C 0.51384 0.19823 0.73787 0.0
C273 C 0.50965 0.22629 0.73747 0.0
C274 C 0.50119 0.2707 0.76175 0.0
H275 H 0.50753 0.2363 0.71798 0.0
C276 C 0.50997 0.28787 0.78295 0.0
C277 C 0.50303 0.31544 0.78328 0.0
C278 C 0.48559 0.28199 0.74066 0.0
H279 H 0.47759 0.26961 0.72445 0.0
C280 C 0.47939 0.3095 0.74051 0.0
H281 H 0.52241 0.28006 0.79922 0.0
C282 C 0.488 0.32615 0.76165 0.0
H283 H 0.48223 0.34726 0.76149 0.0
H284 H 0.46738 0.31785 0.72418 0.0
H285 H 0.79276 0.49391 0.8056 0.0
C286 C 0.8019 0.49864 0.78618 0.0
C287 C 0.8289 0.50656 0.78573 0.0
C288 C 0.78691 0.49658 0.76194 0.0
H289 H 0.86262 0.51632 0.76021 0.0
C290 C 0.84141 0.51153 0.76064 0.0
C291 C 0.82724 0.50904 0.73607 0.0
C292 C 0.7999 0.50206 0.73692 0.0
C293 C 0.75811 0.48792 0.7628 0.0
H294 H 0.78885 0.50116 0.71797 0.0
C295 C 0.74175 0.49342 0.78573 0.0
C296 C 0.7152 0.48374 0.78725 0.0
C297 C 0.74696 0.47314 0.74107 0.0
H298 H 0.75881 0.46767 0.72345 0.0
C299 C 0.72037 0.46449 0.74198 0.0
H300 H 0.74971 0.50481 0.80269 0.0
C301 C 0.7046 0.46968 0.76483 0.0
H302 H 0.68406 0.46257 0.76492 0.0
H303 H 0.71205 0.45331 0.72503 0.0
H304 H 0.50527 0.21128 0.24331 0.0
C305 C 0.50754 0.23033 0.23267 0.0
C306 C 0.51463 0.22997 0.20504 0.0
C307 C 0.50273 0.25493 0.24632 0.0
H308 H 0.521 0.25416 0.16918 0.0
C309 C 0.51629 0.2544 0.19075 0.0
C310 C 0.51099 0.2791 0.20361 0.0
C311 C 0.5049 0.27936 0.23156 0.0
C312 C 0.49365 0.25467 0.27533 0.0
H313 H 0.50113 0.29853 0.2415 0.0
C314 C 0.50284 0.2346 0.29355 0.0
C315 C 0.49204 0.23224 0.31999 0.0
C316 C 0.47436 0.27332 0.28453 0.0
H317 H 0.46633 0.28867 0.2711 0.0
C318 C 0.46427 0.27173 0.31099 0.0
H319 H 0.51836 0.22069 0.28711 0.0
C320 C 0.47277 0.25124 0.32851 0.0
H321 H 0.46361 0.24989 0.34846 0.0
H322 H 0.44921 0.28602 0.31771 0.0
H323 H 0.79179 0.51468 0.21587 0.0
C324 C 0.80139 0.51105 0.23532 0.0
C325 C 0.82842 0.50315 0.23579 0.0
C326 C 0.78697 0.51501 0.25966 0.0
H327 H 0.86238 0.49441 0.26133 0.0
C328 C 0.84118 0.49928 0.26094 0.0
C329 C 0.82741 0.50316 0.28558 0.0
C330 C 0.80023 0.51091 0.28479 0.0
C331 C 0.75868 0.52499 0.25862 0.0
H332 H 0.78945 0.51362 0.30375 0.0
C333 C 0.741 0.51678 0.23767 0.0
C334 C 0.71501 0.52795 0.2354 0.0
C335 C 0.74962 0.54406 0.27778 0.0
H336 H 0.76269 0.55132 0.29377 0.0
C337 C 0.72383 0.55482 0.27597 0.0
H338 H 0.7474 0.50157 0.22322 0.0
C339 C 0.70674 0.54706 0.25491 0.0
H340 H 0.68722 0.5566 0.25361 0.0
H341 H 0.71724 0.56972 0.29066 0.0
H342 H 0.49751 0.7726 0.21731 0.0
C343 C 0.50052 0.78347 0.2362 0.0
C344 C 0.50131 0.81178 0.23541 0.0
C345 C 0.50248 0.76946 0.2612 0.0
H346 H 0.50462 0.84817 0.25908 0.0
C347 C 0.50367 0.82627 0.25973 0.0
C348 C 0.50531 0.813 0.28483 0.0
C349 C 0.50544 0.78462 0.28544 0.0
C350 C 0.50026 0.73928 0.26209 0.0
H351 H 0.50738 0.77454 0.30491 0.0
C352 C 0.50868 0.72319 0.23988 0.0
C353 C 0.50526 0.69495 0.24021 0.0
C354 C 0.48873 0.7263 0.28482 0.0
H355 H 0.48111 0.73772 0.30195 0.0
C356 C 0.48608 0.69825 0.28554 0.0
H357 H 0.51807 0.73244 0.22231 0.0
C358 C 0.4942 0.68264 0.26342 0.0
H359 H 0.49109 0.66099 0.26415 0.0
H360 H 0.47712 0.68861 0.30313 0.0
H361 H 0.22657 0.51409 0.23968 0.0
C362 C 0.24577 0.51192 0.22964 0.0
C363 C 0.24608 0.5072 0.20149 0.0
C364 C 0.26984 0.51401 0.24459 0.0
H365 H 0.27099 0.50296 0.16594 0.0
C366 C 0.27072 0.50585 0.18783 0.0
C367 C 0.29502 0.50873 0.2019 0.0
C368 C 0.2945 0.5119 0.23037 0.0
C369 C 0.26903 0.51941 0.27468 0.0
H370 H 0.31337 0.51326 0.24115 0.0
C371 C 0.24696 0.5111 0.29084 0.0
C372 C 0.24561 0.51749 0.31875 0.0
C373 C 0.28989 0.53389 0.28741 0.0
H374 H 0.30677 0.54157 0.27591 0.0
C375 C 0.28899 0.53949 0.31524 0.0
H376 H 0.23079 0.49945 0.28202 0.0
C377 C 0.26704 0.53142 0.33083 0.0
H378 H 0.26648 0.53676 0.35221 0.0
H379 H 0.30517 0.55066 0.32467 0.0
H380 H 0.79254 0.80162 0.51845 0.0
C381 C 0.80221 0.78224 0.51585 0.0
C382 C 0.82985 0.78186 0.51041 0.0
C383 C 0.78742 0.758 0.51825 0.0
H384 H 0.86476 0.75673 0.50551 0.0
C385 C 0.84324 0.75702 0.50874 0.0
C386 C 0.82944 0.73254 0.51188 0.0
C387 C 0.80143 0.73313 0.5155 0.0
C388 C 0.75792 0.75874 0.52511 0.0
H389 H 0.79094 0.71406 0.51688 0.0
C390 C 0.74165 0.78165 0.51927 0.0
C391 C 0.71456 0.78282 0.52773 0.0
C392 C 0.74595 0.73683 0.53893 0.0
H393 H 0.7574 0.71928 0.545 0.0
C394 C 0.71889 0.73734 0.54599 0.0
H395 H 0.74996 0.79886 0.50868 0.0
C396 C 0.70332 0.76003 0.54048 0.0
H397 H 0.68241 0.75976 0.54645 0.0
H398 H 0.71004 0.72018 0.55632 0.0
H399 H 0.79261 0.21009 0.50093 0.0
C400 C 0.8023 0.22943 0.50364 0.0
C401 C 0.82994 0.2297 0.50898 0.0
C402 C 0.78752 0.25371 0.50148 0.0
H403 H 0.86489 0.25467 0.51402 0.0
C404 C 0.84337 0.25449 0.5108 0.0
C405 C 0.82962 0.27904 0.50782 0.0
C406 C 0.80159 0.27854 0.50428 0.0
C407 C 0.75797 0.25303 0.49484 0.0
H408 H 0.79111 0.29764 0.50304 0.0
C409 C 0.74176 0.23006 0.50062 0.0
C410 C 0.71463 0.22891 0.49232 0.0
C411 C 0.74588 0.27503 0.48128 0.0
H412 H 0.75727 0.29263 0.47528 0.0
C413 C 0.7188 0.27453 0.47437 0.0
H414 H 0.75014 0.21278 0.51105 0.0
C415 C 0.7033 0.25178 0.47979 0.0
H416 H 0.68236 0.25208 0.47394 0.0
H417 H 0.70986 0.29176 0.46422 0.0
H418 H 0.22682 0.77816 0.51938 0.0
C419 C 0.24605 0.78759 0.51564 0.0
C420 C 0.24673 0.81529 0.50965 0.0
C421 C 0.2698 0.7722 0.51694 0.0
H422 H 0.27211 0.84967 0.50231 0.0
C423 C 0.27156 0.82804 0.50576 0.0
C424 C 0.2957 0.81348 0.50741 0.0
C425 C 0.29464 0.7855 0.51271 0.0
C426 C 0.26847 0.74255 0.52334 0.0
H427 H 0.31322 0.77417 0.51307 0.0
C428 C 0.24583 0.72675 0.51608 0.0
C429 C 0.24427 0.69917 0.52312 0.0
C430 C 0.28954 0.72989 0.5376 0.0
H431 H 0.30687 0.74119 0.54438 0.0
C432 C 0.28831 0.70245 0.54403 0.0
H433 H 0.22948 0.73559 0.50463 0.0
C434 C 0.26591 0.68718 0.5369 0.0
H435 H 0.26522 0.66608 0.54275 0.0
H436 H 0.30466 0.69305 0.55504 0.0
H437 H 0.22647 0.23435 0.49892 0.0
C438 C 0.24549 0.22459 0.50285 0.0
C439 C 0.24575 0.19639 0.50574 0.0
C440 C 0.26949 0.23972 0.50355 0.0
H441 H 0.27061 0.16116 0.51084 0.0
C442 C 0.27035 0.18296 0.50857 0.0
C443 C 0.29466 0.19719 0.50855 0.0
C444 C 0.29404 0.22559 0.50711 0.0
C445 C 0.26896 0.26979 0.49872 0.0
H446 H 0.31288 0.23637 0.50802 0.0
C447 C 0.24566 0.28551 0.50397 0.0
C448 C 0.2446 0.31318 0.49698 0.0
C449 C 0.29141 0.2829 0.48724 0.0
H450 H 0.30938 0.27194 0.48176 0.0
C451 C 0.29091 0.31051 0.4817 0.0
H452 H 0.22805 0.27632 0.51286 0.0
C453 C 0.26777 0.32553 0.48643 0.0
H454 H 0.26797 0.34689 0.48157 0.0
H455 H 0.30843 0.32023 0.47309 0.0
C456 C 0.02172 0.9368 0.57402 0.0
C457 C 0.02193 0.94359 0.44169 0.0
C458 C 0.01941 0.06771 0.58048 0.0
C459 C 0.02415 0.07431 0.44834 0.0
C460 C 0.95676 0.07122 0.51263 0.0
C461 C 0.95712 0.93976 0.50658 0.0
C462 C 0.08701 0.07078 0.51506 0.0
C463 C 0.08734 0.94042 0.5091 0.0
C464 C 0.08853 0.00722 0.44703 0.0
C465 C 0.9586 0.00946 0.44294 0.0
C466 C 0.0844 1.00415 0.57957 0.0
C467 C 0.95409 1.00194 0.57509 0.0
Eu468 Eu 0.02212 0.95435 0.50856 0.0
O469 O 0.99873 0.98277 0.48517 0.0
O470 O 0.04484 0.98028 0.5351 0.0
Eu471 Eu 0.97071 1.0055 0.50945 0.0
Eu472 Eu 0.07237 1.00545 0.51287 0.0
O473 O 0.99712 0.98026 0.53323 0.0
O474 O 0.04636 0.98281 0.48648 0.0
Eu475 Eu 0.0198 1.00295 0.56266 0.0
Eu476 Eu 0.02318 0.00826 0.45985 0.0
O477 O 0.99701 0.02835 0.53561 0.0
O478 O 0.99848 0.03093 0.48756 0.0
O479 O 0.04629 0.03078 0.48902 0.0
O480 O 0.04461 0.02827 0.53735 0.0
Eu481 Eu 0.02181 0.05677 0.51376 0.0
O482 O 0.02239 0.92988 0.54772 0.0
O483 O 0.02225 0.93376 0.46708 0.0
O484 O 0.02012 0.07737 0.55506 0.0
O485 O 0.02311 0.08128 0.47462 0.0
O486 O 0.94832 0.04562 0.5109 0.0
O487 O 0.94857 0.96538 0.50721 0.0
O488 O 0.09474 0.04498 0.51417 0.0
O489 O 0.09497 0.96609 0.51164 0.0
O490 O 0.06327 0.00878 0.43816 0.0
O491 O 0.98445 0.01047 0.43584 0.0
O492 O 0.05855 1.00346 0.58672 0.0
O493 O 0.97934 1.00168 0.58429 0.0
O494 O 0.06158 0.07941 0.51533 0.0
O495 O 0.98233 0.07913 0.51376 0.0
O496 O 0.06197 0.93178 0.50759 0.0
O497 O 0.98272 0.93184 0.50702 0.0
O498 O 0.02225 0.96976 0.43504 0.0
O499 O 0.02438 0.04902 0.43889 0.0
O500 O 0.02047 0.96206 0.58352 0.0
O501 O 0.01926 0.0416 0.58741 0.0
O502 O 0.94698 1.00326 0.54887 0.0
O503 O 0.9494 0.00724 0.46844 0.0
O504 O 0.09364 1.0045 0.55397 0.0
O505 O 0.09608 1.00559 0.47313 0.0
C506 C 0.5172 0.94129 0.07887 0.0
C507 C 0.52066 0.07228 0.07676 0.0
C508 C 0.52255 0.93912 0.94716 0.0
C509 C 0.52259 0.07013 0.94487 0.0
C510 C 0.58799 1.00548 0.94784 0.0
C511 C 0.5842 0.00617 0.07989 0.0
C512 C 0.45729 1.00476 0.94418 0.0
C513 C 0.45402 0.00829 0.07681 0.0
C514 C 0.45598 0.07211 0.00895 0.0
C515 C 0.58665 0.07082 0.01321 0.0
C516 C 0.45558 0.9399 0.01158 0.0
C517 C 0.586 0.93986 0.01504 0.0
Eu518 Eu 0.51941 0.00665 0.06336 0.0
O519 O 0.54411 0.03007 0.03633 0.0
O520 O 0.4962 0.98228 0.0358 0.0
Eu521 Eu 0.57158 1.0054 0.01354 0.0
Eu522 Eu 0.46953 0.00595 0.01079 0.0
O523 O 0.54404 0.98184 0.03746 0.0
O524 O 0.49631 0.03037 0.03497 0.0
Eu525 Eu 0.52082 0.95459 0.01288 0.0
Eu526 Eu 0.5212 0.05691 0.01097 0.0
O527 O 0.54541 0.9811 0.98877 0.0
O528 O 0.54549 0.02912 0.98801 0.0
O529 O 0.49771 0.02923 0.98688 0.0
O530 O 0.49748 0.98152 0.98776 0.0
Eu531 Eu 0.52228 1.00476 0.96044 0.0
O532 O 0.51714 0.96716 0.08662 0.0
O533 O 0.51996 0.04676 0.0856 0.0
O534 O 0.52265 0.96462 0.93825 0.0
O535 O 0.52283 0.04426 0.9371 0.0
O536 O 0.59512 0.00573 0.97406 0.0
O537 O 0.59313 0.00599 0.05424 0.0
O538 O 0.44825 1.00532 0.96983 0.0
O539 O 0.44614 0.00702 0.05078 0.0
O540 O 0.4817 0.07979 0.00942 0.0
O541 O 0.56125 0.07949 0.01143 0.0
O542 O 0.48126 0.93214 0.01206 0.0
O543 O 0.5605 0.93152 0.01382 0.0
O544 O 0.48313 1.00447 0.93682 0.0
O545 O 0.56274 1.00474 0.9386 0.0
O546 O 0.47947 0.00852 0.08527 0.0
O547 O 0.55838 0.00624 0.08729 0.0
O548 O 0.52101 0.07998 0.0507 0.0
O549 O 0.522 0.07887 0.97056 0.0
O550 O 0.51884 0.93254 0.05322 0.0
O551 O 0.52192 0.93146 0.97322 0.0
O552 O 0.59402 0.9656 0.01537 0.0
O553 O 0.59422 0.04497 0.01436 0.0
O554 O 0.44706 0.96559 0.01113 0.0
O555 O 0.4474 0.04645 0.00944 0.0
C556 C 0.02064 0.43688 0.07337 0.0
C557 C 0.01935 0.44336 0.9416 0.0
C558 C 0.02166 0.56824 0.07979 0.0
C559 C 0.01831 0.57466 0.94803 0.0
C560 C 0.95497 0.57125 0.01442 0.0
C561 C 0.95507 0.44031 0.00846 0.0
C562 C 0.08546 0.5719 0.01117 0.0
C563 C 0.08576 0.43999 0.00742 0.0
C564 C 0.08507 0.508 0.94377 0.0
C565 C 0.95522 0.50945 0.94541 0.0
C566 C 0.08708 0.5028 0.07542 0.0
C567 C 0.95685 0.50211 0.07759 0.0
Eu568 Eu 0.0205 0.45462 0.00808 0.0
O569 O 0.99651 0.48299 0.98549 0.0
O570 O 0.04495 0.48056 0.03316 0.0
Eu571 Eu 0.96996 0.50576 0.01135 0.0
Eu572 Eu 0.07162 0.5059 0.00985 0.0
O573 O 0.99734 0.48073 0.034 0.0
O574 O 0.0443 0.48294 0.98501 0.0
Eu575 Eu 0.02174 0.50319 0.06223 0.0
Eu576 Eu 0.02025 0.50837 0.95924 0.0
O577 O 0.99717 0.52851 0.03655 0.0
O578 O 0.9966 0.53088 0.98805 0.0
O579 O 0.0442 0.53119 0.98743 0.0
O580 O 0.04492 0.52875 0.03563 0.0
Eu581 Eu 0.02035 0.55699 0.01327 0.0
O582 O 0.02019 0.4302 0.04703 0.0
O583 O 0.01968 0.4339 0.96705 0.0
O584 O 0.02119 0.57771 0.05434 0.0
O585 O 0.01827 0.58136 0.97436 0.0
O586 O 0.94732 0.54541 0.01331 0.0
O587 O 0.94742 0.46614 0.00976 0.0
O588 O 0.094 0.54623 0.01063 0.0
O589 O 0.0941 0.46566 0.00908 0.0
O590 O 0.05943 0.50886 0.93599 0.0
O591 O 0.98069 0.50995 0.93713 0.0
O592 O 0.06178 0.50213 0.08441 0.0
O593 O 0.98251 0.50168 0.08536 0.0
O594 O 0.0598 0.57969 0.01215 0.0
O595 O 0.98046 0.57977 0.01476 0.0
O596 O 0.06016 0.432 0.00638 0.0
O597 O 0.98057 0.43178 0.0077 0.0
O598 O 0.0195 0.46949 0.9346 0.0
O599 O 0.01958 0.54946 0.93826 0.0
O600 O 0.02164 0.46208 0.08314 0.0
O601 O 0.02189 0.54211 0.08679 0.0
O602 O 0.94816 0.50371 0.0519 0.0
O603 O 0.94702 0.50773 0.97129 0.0
O604 O 0.09454 0.50438 0.04938 0.0
O605 O 0.09368 0.5069 0.96948 0.0
C606 C 0.52024 0.43705 0.07365 0.0
C607 C 0.52096 0.56782 0.08039 0.0
C608 C 0.52284 0.44405 0.94142 0.0
C609 C 0.52427 0.5747 0.94812 0.0
C610 C 0.58805 0.50648 0.94588 0.0
C611 C 0.58537 0.5034 0.07851 0.0
C612 C 0.45841 0.50909 0.94306 0.0
C613 C 0.45496 0.50323 0.07515 0.0
C614 C 0.45724 0.57164 0.01265 0.0
C615 C 0.58748 0.57117 0.01524 0.0
C616 C 0.45753 0.44012 0.00565 0.0
C617 C 0.5877 0.44072 0.00909 0.0
Eu618 Eu 0.52058 0.50311 0.06226 0.0
O619 O 0.54522 0.5285 0.03683 0.0
O620 O 0.49758 0.4805 0.03303 0.0
Eu621 Eu 0.57283 0.50594 0.01198 0.0
Eu622 Eu 0.47111 0.50589 0.00947 0.0
O623 O 0.54551 0.48059 0.03445 0.0
O624 O 0.49767 0.52863 0.03542 0.0
Eu625 Eu 0.52247 0.45468 0.00825 0.0
Eu626 Eu 0.52233 0.55715 0.01356 0.0
O627 O 0.54639 0.48329 0.98608 0.0
O628 O 0.54659 0.53132 0.98835 0.0
O629 O 0.49866 0.53142 0.9875 0.0
O630 O 0.49889 0.48307 0.98506 0.0
Eu631 Eu 0.523 0.50867 0.95964 0.0
O632 O 0.51969 0.4623 0.08319 0.0
O633 O 0.52025 0.54166 0.08705 0.0
O634 O 0.52226 0.47021 0.93478 0.0
O635 O 0.52423 0.54941 0.93867 0.0
O636 O 0.59619 0.50635 0.97186 0.0
O637 O 0.59428 0.50534 0.05289 0.0
O638 O 0.44942 0.5072 0.96866 0.0
O639 O 0.44776 0.50427 0.04897 0.0
O640 O 0.48282 0.57952 0.01401 0.0
O641 O 0.56206 0.57982 0.01538 0.0
O642 O 0.48314 0.43223 0.00571 0.0
O643 O 0.5623 0.4321 0.00797 0.0
O644 O 0.48419 0.51027 0.9358 0.0
O645 O 0.56261 0.50755 0.93759 0.0
O646 O 0.48025 0.50268 0.08425 0.0
O647 O 0.55964 0.50181 0.086 0.0
O648 O 0.52189 0.57761 0.05501 0.0
O649 O 0.52358 0.5817 0.97442 0.0
O650 O 0.52134 0.43019 0.04735 0.0
O651 O 0.52349 0.43422 0.96678 0.0
O652 O 0.59538 0.46647 0.01089 0.0
O653 O 0.59522 0.54541 0.01386 0.0
O654 O 0.44895 0.4657 0.00714 0.0
O655 O 0.4488 0.54605 0.01071 0.0
C656 C 0.0207 0.44155 0.57841 0.0
C657 C 0.02046 0.43901 0.44666 0.0
C658 C 0.01881 0.5725 0.57576 0.0
C659 C 0.02194 0.57015 0.44398 0.0
C660 C 0.95564 0.57186 0.50871 0.0
C661 C 0.95581 0.43974 0.51207 0.0
C662 C 0.08624 0.57134 0.51176 0.0
C663 C 0.08634 0.44054 0.51218 0.0
C664 C 0.08727 0.50496 0.44655 0.0
C665 C 0.95649 0.50416 0.44404 0.0
C666 C 0.08483 0.50712 0.57846 0.0
C667 C 0.95467 0.50823 0.57666 0.0
Eu668 Eu 0.02099 0.45482 0.51236 0.0
O669 O 0.99734 0.48156 0.48736 0.0
O670 O 0.04435 0.48226 0.53655 0.0
Eu671 Eu 0.96948 0.50582 0.51051 0.0
Eu672 Eu 0.07137 0.50593 0.51226 0.0
O673 O 0.99636 0.48231 0.53558 0.0
O674 O 0.0451 0.48141 0.48786 0.0
Eu675 Eu 0.01994 0.50686 0.56271 0.0
Eu676 Eu 0.02163 0.50476 0.45958 0.0
O677 O 0.99656 0.5302 0.53431 0.0
O678 O 0.99721 0.52926 0.4862 0.0
O679 O 0.04498 0.52939 0.48685 0.0
O680 O 0.04418 0.53055 0.53545 0.0
Eu681 Eu 0.02084 0.55703 0.51009 0.0
O682 O 0.02101 0.43283 0.55271 0.0
O683 O 0.02053 0.43157 0.47279 0.0
O684 O 0.01857 0.58024 0.54972 0.0
O685 O 0.02141 0.57889 0.46967 0.0
O686 O 0.94709 0.5462 0.50935 0.0
O687 O 0.94719 0.46538 0.51118 0.0
O688 O 0.09391 0.54551 0.5125 0.0
O689 O 0.094 0.46637 0.51223 0.0
O690 O 0.06197 0.50393 0.43745 0.0
O691 O 0.98223 0.50408 0.43631 0.0
O692 O 0.05911 0.50747 0.58613 0.0
O693 O 0.98019 0.50811 0.58493 0.0
O694 O 0.06076 0.57991 0.51065 0.0
O695 O 0.98132 0.57957 0.50867 0.0
O696 O 0.06087 0.43196 0.51244 0.0
O697 O 0.98153 0.43211 0.5127 0.0
O698 O 0.02099 0.46446 0.43757 0.0
O699 O 0.02216 0.54428 0.43619 0.0
O700 O 0.02011 0.4674 0.5862 0.0
O701 O 0.01995 0.54706 0.58475 0.0
O702 O 0.94655 0.50725 0.5507 0.0
O703 O 0.94778 0.50489 0.46979 0.0
O704 O 0.09349 0.50637 0.55271 0.0
O705 O 0.0945 0.50603 0.47269 0.0
C706 C 0.51919 0.93722 0.57365 0.0
C707 C 0.51954 0.94332 0.44192 0.0
C708 C 0.52107 0.06851 0.57966 0.0
C709 C 0.5199 0.07454 0.44787 0.0
C710 C 0.45486 0.07142 0.51413 0.0
C711 C 0.45464 0.94057 0.50766 0.0
C712 C 0.58546 0.07179 0.51155 0.0
C713 C 0.58513 0.93979 0.50891 0.0
C714 C 0.58503 0.0079 0.44409 0.0
C715 C 0.45521 0.01014 0.44511 0.0
C716 C 0.58656 1.00263 0.57571 0.0
C717 C 0.45618 1.00307 0.57725 0.0
Eu718 Eu 0.52001 0.95481 0.50838 0.0
O719 O 0.49621 0.98305 0.48546 0.0
O720 O 0.54449 0.98073 0.5334 0.0
Eu721 Eu 0.46967 0.00596 0.5111 0.0
Eu722 Eu 0.57137 0.00582 0.51008 0.0
O723 O 0.49678 0.98098 0.53411 0.0
O724 O 0.54402 0.98289 0.48524 0.0
Eu725 Eu 0.52123 1.00346 0.56229 0.0
Eu726 Eu 0.52012 0.00832 0.45931 0.0
O727 O 0.49695 0.02869 0.53627 0.0
O728 O 0.49645 0.03109 0.4879 0.0
O729 O 0.54406 0.03108 0.48753 0.0
O730 O 0.54466 0.02888 0.53573 0.0
Eu731 Eu 0.52029 0.05715 0.51314 0.0
O732 O 0.51859 0.93049 0.54734 0.0
O733 O 0.52017 0.93392 0.4674 0.0
O734 O 0.52075 0.07794 0.55419 0.0
O735 O 0.52035 0.08152 0.47412 0.0
O736 O 0.44722 0.04559 0.5132 0.0
O737 O 0.44692 0.96639 0.50902 0.0
O738 O 0.59391 0.04609 0.51088 0.0
O739 O 0.59369 0.96545 0.5089 0.0
O740 O 0.55942 0.00865 0.43618 0.0
O741 O 0.48072 0.01027 0.43692 0.0
O742 O 0.56121 1.00228 0.58464 0.0
O743 O 0.48181 1.00259 0.58518 0.0
O744 O 0.55984 0.07966 0.51264 0.0
O745 O 0.48035 0.07997 0.51423 0.0
O746 O 0.55946 0.93205 0.50874 0.0
O747 O 0.48014 0.93207 0.50727 0.0
O748 O 0.51922 0.96941 0.43485 0.0
O749 O 0.51959 0.04927 0.43826 0.0
O750 O 0.52073 0.96242 0.58336 0.0
O751 O 0.52132 0.04241 0.58672 0.0
O752 O 0.44764 1.00428 0.55149 0.0
O753 O 0.44692 0.00844 0.47096 0.0
O754 O 0.59412 1.00401 0.54969 0.0
O755 O 0.59354 0.00691 0.46984 0.0
H756 H 0.19834 0.20732 0.53198 0.0
H757 H 0.23593 0.14982 0.47786 0.0
H758 H 0.15828 0.17867 0.53413 0.0
H759 H 0.19618 0.12136 0.48007 0.0
H760 H 0.14067 0.06155 0.52044 0.0
H761 H 0.17703 0.09372 0.51723 0.0
H762 H 0.12016 0.15864 0.50613 0.0
H763 H 0.08314 0.12619 0.50947 0.0
C764 C 0.19788 0.18878 0.52026 0.0
C765 C 0.22043 0.18058 0.50512 0.0
C766 C 0.17498 0.17242 0.52149 0.0
C767 C 0.17429 0.14759 0.50762 0.0
C768 C 0.19637 0.14009 0.49149 0.0
C769 C 0.21914 0.15637 0.49025 0.0
C770 C 0.13567 0.08263 0.51732 0.0
C771 C 0.10884 0.09116 0.51494 0.0
C772 C 0.15664 0.10108 0.51536 0.0
C773 C 0.15148 0.12863 0.51098 0.0
C774 C 0.1247 0.13749 0.5095 0.0
C775 C 0.10354 0.11889 0.51139 0.0
H776 H 0.82806 0.1847 0.47642 0.0
H777 H 0.86659 0.2171 0.54804 0.0
H778 H 0.85684 0.14469 0.47889 0.0
H779 H 0.89514 0.17719 0.55065 0.0
H780 H 0.96499 0.12486 0.52251 0.0
H781 H 0.9323 0.16101 0.52305 0.0
H782 H 0.86913 0.10385 0.50575 0.0
H783 H 0.90215 0.06723 0.50468 0.0
C784 C 0.84233 0.18303 0.49296 0.0
C785 C 0.84532 0.20415 0.51186 0.0
C786 C 0.85878 0.16012 0.49439 0.0
C787 C 0.87848 0.15794 0.51477 0.0
C788 C 0.88055 0.17853 0.53437 0.0
C789 C 0.8642 0.20137 0.5329 0.0
C790 C 0.94417 0.11979 0.5188 0.0
C791 C 0.93629 0.09301 0.51348 0.0
C792 C 0.92535 0.1406 0.51936 0.0
C793 C 0.89808 0.1353 0.51465 0.0
C794 C 0.89004 0.10857 0.50933 0.0
C795 C 0.90896 0.08759 0.50885 0.0
H796 H 0.86683 0.7939 0.47143 0.0
H797 H 0.82786 0.82725 0.54245 0.0
H798 H 0.89562 0.83359 0.46866 0.0
H799 H 0.85682 0.86707 0.53975 0.0
H800 H 0.90242 0.94402 0.51337 0.0
H801 H 0.86935 0.90751 0.51224 0.0
H802 H 0.93266 0.84992 0.49661 0.0
H803 H 0.96545 0.88601 0.49725 0.0
C804 C 0.86438 0.80979 0.4864 0.0
C805 C 0.84531 0.80733 0.50733 0.0
C806 C 0.88087 0.8325 0.48483 0.0
C807 C 0.87872 0.85331 0.50419 0.0
C808 C 0.85883 0.85146 0.52443 0.0
C809 C 0.84226 0.82866 0.52599 0.0
C810 C 0.90925 0.92359 0.50951 0.0
C811 C 0.93666 0.91803 0.50541 0.0
C812 C 0.89031 0.90268 0.50902 0.0
C813 C 0.89838 0.87586 0.5042 0.0
C814 C 0.92571 0.87041 0.49994 0.0
C815 C 0.94458 0.89117 0.50054 0.0
H816 H 0.23337 0.8526 0.4711 0.0
H817 H 0.20306 0.81375 0.54368 0.0
H818 H 0.19328 0.88075 0.46912 0.0
H819 H 0.16283 0.84197 0.54166 0.0
H820 H 0.08443 0.88522 0.51607 0.0
H821 H 0.1216 0.85277 0.51441 0.0
H822 H 0.17672 0.91795 0.49731 0.0
H823 H 0.14006 0.95001 0.49851 0.0
C824 C 0.21814 0.8501 0.48664 0.0
C825 C 0.22151 0.83117 0.5077 0.0
C826 C 0.19516 0.86616 0.48548 0.0
C827 C 0.175 0.86371 0.50536 0.0
C828 C 0.17789 0.84413 0.52591 0.0
C829 C 0.20095 0.82803 0.52708 0.0
C830 C 0.10447 0.89253 0.51178 0.0
C831 C 0.10924 0.92023 0.50755 0.0
C832 C 0.12574 0.87399 0.51098 0.0
C833 C 0.15205 0.88282 0.50562 0.0
C834 C 0.15665 0.91044 0.5011 0.0
C835 C 0.13557 0.92888 0.50206 0.0
H836 H 0.48345 0.18451 0.20696 0.0
H837 H 0.55479 0.21739 0.16956 0.0
H838 H 0.48684 0.1446 0.17785 0.0
H839 H 0.55818 0.17756 0.14052 0.0
H840 H 0.52994 0.12605 0.06847 0.0
H841 H 0.53067 0.16196 0.10205 0.0
H842 H 0.51422 0.10409 0.1658 0.0
H843 H 0.51307 0.06785 0.13204 0.0
C844 C 0.50019 0.18291 0.19296 0.0
C845 C 0.5187 0.20416 0.19029 0.0
C846 C 0.50211 0.16009 0.17629 0.0
C847 C 0.52257 0.15815 0.15667 0.0
C848 C 0.54189 0.17876 0.15507 0.0
C849 C 0.53997 0.20152 0.1717 0.0
C850 C 0.52646 0.12083 0.0896 0.0
C851 C 0.52138 0.094 0.09749 0.0
C852 C 0.52714 0.14145 0.10891 0.0
C853 C 0.5227 0.13581 0.13658 0.0
C854 C 0.51761 0.10902 0.14458 0.0
C855 C 0.51706 0.08828 0.12523 0.0
H856 H 0.82835 0.53683 0.19147 0.0
H857 H 0.86407 0.46339 0.22241 0.0
H858 H 0.8577 0.53479 0.15168 0.0
H859 H 0.89348 0.46145 0.18274 0.0
H860 H 0.96489 0.49056 0.13141 0.0
H861 H 0.93181 0.48902 0.16766 0.0
H862 H 0.86922 0.50836 0.11006 0.0
H863 H 0.90245 0.5103 0.07352 0.0
C864 C 0.84209 0.51997 0.18951 0.0
C865 C 0.84407 0.50039 0.21019 0.0
C866 C 0.85891 0.51882 0.16674 0.0
C867 C 0.87808 0.49811 0.16425 0.0
C868 C 0.87925 0.47793 0.18436 0.0
C869 C 0.86242 0.47904 0.20706 0.0
C870 C 0.94411 0.49449 0.12633 0.0
C871 C 0.9364 0.50064 0.09948 0.0
C872 C 0.92509 0.49336 0.14714 0.0
C873 C 0.89789 0.49843 0.14169 0.0
C874 C 0.89008 0.50451 0.11488 0.0
C875 C 0.90912 0.50549 0.09395 0.0
H876 H 0.46885 0.85422 0.22327 0.0
H877 H 0.5309 0.80354 0.18924 0.0
H878 H 0.47156 0.88396 0.18378 0.0
H879 H 0.53387 0.83354 0.14961 0.0
H880 H 0.51625 0.886 0.07337 0.0
H881 H 0.51003 0.85233 0.10918 0.0
H882 H 0.50617 0.91602 0.16918 0.0
H883 H 0.51198 0.94962 0.13368 0.0
C884 C 0.48288 0.84933 0.20714 0.0
C885 C 0.49991 0.82683 0.20939 0.0
C886 C 0.48453 0.8664 0.18462 0.0
C887 C 0.5033 0.86137 0.16388 0.0
C888 C 0.51919 0.8379 0.16528 0.0
C889 C 0.51748 0.82072 0.18788 0.0
C890 C 0.51412 0.89286 0.0942 0.0
C891 C 0.51453 0.92061 0.10056 0.0
C892 C 0.51062 0.87352 0.11469 0.0
C893 C 0.50733 0.88155 0.14192 0.0
C894 C 0.50811 0.90922 0.1483 0.0
C895 C 0.51166 0.9285 0.12791 0.0
H896 H 0.23428 0.46912 0.16336 0.0
H897 H 0.20071 0.53843 0.20458 0.0
H898 H 0.19434 0.4661 0.13494 0.0
H899 H 0.16065 0.53549 0.17599 0.0
H900 H 0.08378 0.50847 0.13113 0.0
H901 H 0.12076 0.50748 0.16392 0.0
H902 H 0.17683 0.49417 0.09816 0.0
H903 H 0.14033 0.49465 0.0657 0.0
C904 C 0.21832 0.48369 0.16635 0.0
C905 C 0.22074 0.50419 0.18596 0.0
C906 C 0.19545 0.48196 0.1501 0.0
C907 C 0.17448 0.50074 0.15303 0.0
C908 C 0.17638 0.5206 0.17341 0.0
C909 C 0.19932 0.52231 0.18974 0.0
C910 C 0.10399 0.50515 0.12373 0.0
C911 C 0.10903 0.5017 0.09574 0.0
C912 C 0.12515 0.50474 0.14249 0.0
C913 C 0.15167 0.50062 0.13363 0.0
C914 C 0.15659 0.49696 0.10571 0.0
C915 C 0.13559 0.49749 0.08704 0.0
H916 H 0.48545 0.82443 0.81885 0.0
H917 H 0.56036 0.79617 0.85277 0.0
H918 H 0.48739 0.86429 0.84824 0.0
H919 H 0.56217 0.8358 0.88217 0.0
H920 H 0.53403 0.88583 0.95541 0.0
H921 H 0.53476 0.84969 0.92199 0.0
H922 H 0.51391 0.90653 0.85864 0.0
H923 H 0.51286 0.94299 0.89224 0.0
C924 C 0.50255 0.82698 0.8322 0.0
C925 C 0.52261 0.80705 0.83375 0.0
C926 C 0.50365 0.84977 0.84902 0.0
C927 C 0.52477 0.85293 0.8677 0.0
C928 C 0.54539 0.8336 0.86833 0.0
C929 C 0.54435 0.81094 0.85152 0.0
C930 C 0.52956 0.89074 0.9344 0.0
C931 C 0.52334 0.91734 0.92654 0.0
C932 C 0.53021 0.87002 0.9152 0.0
C933 C 0.52455 0.87534 0.88769 0.0
C934 C 0.51825 0.90187 0.87974 0.0
C935 C 0.5178 0.92273 0.89897 0.0
H936 H 0.17661 0.47402 0.79792 0.0
H937 H 0.21645 0.54355 0.83233 0.0
H938 H 0.14706 0.47184 0.83741 0.0
H939 H 0.1868 0.54133 0.87205 0.0
H940 H 0.13968 0.51388 0.94875 0.0
H941 H 0.17316 0.51311 0.91236 0.0
H942 H 0.11027 0.50147 0.85307 0.0
H943 H 0.07694 0.50189 0.8891 0.0
C944 C 0.17913 0.48874 0.81404 0.0
C945 C 0.19859 0.50916 0.81191 0.0
C946 C 0.1622 0.48752 0.83661 0.0
C947 C 0.16437 0.50666 0.8576 0.0
C948 C 0.18475 0.52625 0.85621 0.0
C949 C 0.20173 0.5275 0.83352 0.0
C950 C 0.13299 0.51108 0.92796 0.0
C951 C 0.10557 0.50791 0.9219 0.0
C952 C 0.15218 0.51078 0.90714 0.0
C953 C 0.14434 0.50704 0.87993 0.0
C954 C 0.11697 0.50395 0.87391 0.0
C955 C 0.09782 0.50442 0.8946 0.0
H956 H 0.55621 0.16396 0.79979 0.0
H957 H 0.48504 0.20114 0.83319 0.0
H958 H 0.55922 0.13445 0.83944 0.0
H959 H 0.48799 0.17147 0.87301 0.0
H960 H 0.51488 0.12487 0.94984 0.0
H961 H 0.51551 0.15874 0.91366 0.0
H962 H 0.53135 0.09614 0.85452 0.0
H963 H 0.53112 0.06237 0.89043 0.0
C964 C 0.54134 0.16594 0.81577 0.0
C965 C 0.52021 0.18457 0.8133 0.0
C966 C 0.54302 0.14902 0.8384 0.0
C967 C 0.5236 0.15037 0.85909 0.0
C968 C 0.5033 0.17006 0.85741 0.0
C969 C 0.50162 0.18705 0.83467 0.0
C970 C 0.51864 0.11831 0.92914 0.0
C971 C 0.523 0.09084 0.92309 0.0
C972 C 0.51885 0.13773 0.90844 0.0
C973 C 0.52365 0.1301 0.88132 0.0
C974 C 0.52804 0.10269 0.8753 0.0
C975 C 0.52768 0.0833 0.89591 0.0
H976 H 0.8299 0.47168 0.82916 0.0
H977 H 0.86297 0.5471 0.80022 0.0
H978 H 0.85822 0.47436 0.8697 0.0
H979 H 0.89118 0.54981 0.84066 0.0
H980 H 0.96283 0.52332 0.89226 0.0
H981 H 0.9302 0.52408 0.85581 0.0
H982 H 0.86802 0.50024 0.91222 0.0
H983 H 0.90105 0.49898 0.94913 0.0
C984 C 0.84288 0.48904 0.83169 0.0
C985 C 0.84445 0.50904 0.81138 0.0
C986 C 0.85905 0.4906 0.85491 0.0
C987 C 0.87709 0.51216 0.85824 0.0
C988 C 0.87783 0.53268 0.83843 0.0
C989 C 0.86173 0.53112 0.81526 0.0
C990 C 0.94224 0.51823 0.89709 0.0
C991 C 0.93464 0.51094 0.92369 0.0
C992 C 0.92344 0.51893 0.87614 0.0
C993 C 0.8965 0.51236 0.88114 0.0
C994 C 0.8887 0.50527 0.90775 0.0
C995 C 0.90758 0.5047 0.92888 0.0
H996 H 0.73724 0.64885 0.98212 0.0
H997 H 0.69892 0.70793 0.03397 0.0
H998 H 0.69759 0.6204 0.98473 0.0
H999 H 0.65882 0.67925 0.03642 0.0
H1000 H 0.58406 0.62651 0.00884 0.0
H1001 H 0.62136 0.6588 0.00709 0.0
H1002 H 0.67727 0.59386 0.02234 0.0
H1003 H 0.64063 0.56185 0.02402 0.0
C1004 C 0.72037 0.6557 0.99421 0.0
C1005 C 0.72141 0.6804 0.00827 0.0
C1006 C 0.69762 0.63943 0.99565 0.0
C1007 C 0.67528 0.64743 0.01111 0.0
C1008 C 0.67577 0.67263 0.02432 0.0
C1009 C 0.69868 0.68898 0.02293 0.0
C1010 C 0.60431 0.6192 0.01203 0.0
C1011 C 0.60932 0.59149 0.01616 0.0
C1012 C 0.62561 0.63769 0.01108 0.0
C1013 C 0.65222 0.62874 0.01413 0.0
C1014 C 0.65703 0.60126 0.01928 0.0
C1015 C 0.63592 0.58291 0.02029 0.0
H1016 H 0.367 0.7176 0.04744 0.0
H1017 H 0.32794 0.68458 0.97639 0.0
H1018 H 0.39572 0.67782 0.05004 0.0
H1019 H 0.35687 0.64466 0.9789 0.0
H1020 H 0.46548 0.62547 0.02158 0.0
H1021 H 0.43271 0.66156 0.02201 0.0
H1022 H 0.36948 0.60405 0.0062 0.0
H1023 H 0.40256 0.56748 0.00531 0.0
C1024 C 0.36453 0.70177 0.03241 0.0
C1025 C 0.34545 0.70434 0.01153 0.0
C1026 C 0.38097 0.67899 0.03388 0.0
C1027 C 0.3788 0.65825 0.01446 0.0
C1028 C 0.3589 0.66022 0.99426 0.0
C1029 C 0.34237 0.68307 0.99281 0.0
C1030 C 0.44464 0.6203 0.0182 0.0
C1031 C 0.43675 0.59342 0.01338 0.0
C1032 C 0.42577 0.64108 0.01868 0.0
C1033 C 0.39846 0.63566 0.01435 0.0
C1034 C 0.39042 0.60885 0.00948 0.0
C1035 C 0.40937 0.58791 0.00911 0.0
H1036 H 0.32975 0.3262 0.04014 0.0
H1037 H 0.36718 0.29456 0.96746 0.0
H1038 H 0.35854 0.36603 0.03779 0.0
H1039 H 0.39598 0.33433 0.96514 0.0
H1040 H 0.46605 0.38683 0.99409 0.0
H1041 H 0.4335 0.35054 0.99259 0.0
H1042 H 0.37003 0.40711 0.01108 0.0
H1043 H 0.40286 0.4438 0.01306 0.0
C1044 C 0.34378 0.32797 0.02338 0.0
C1045 C 0.34634 0.30712 0.0041 0.0
C1046 C 0.36027 0.35081 0.02204 0.0
C1047 C 0.37969 0.35322 1.00142 0.0
C1048 C 0.38154 0.33283 0.98157 0.0
C1049 C 0.36507 0.31005 0.9829 0.0
C1050 C 0.44519 0.39172 0.99783 0.0
C1051 C 0.43716 0.41834 0.00382 0.0
C1052 C 0.42645 0.37085 0.99671 0.0
C1053 C 0.39916 0.37595 1.00158 0.0
C1054 C 0.39097 0.40254 0.00739 0.0
C1055 C 0.40977 0.42357 0.00839 0.0
H1056 H 0.70122 0.31189 0.04446 0.0
H1057 H 0.73396 0.35231 0.97388 0.0
H1058 H 0.6612 0.34041 0.04185 0.0
H1059 H 0.6941 0.38073 0.97129 0.0
H1060 H 0.64098 0.44992 1.00084 0.0
H1061 H 0.67727 0.41742 1.00009 0.0
H1062 H 0.62087 0.35258 0.01376 0.0
H1063 H 0.58406 0.38542 0.01493 0.0
C1064 C 0.69966 0.32654 0.02813 0.0
C1065 C 0.72086 0.33009 0.00955 0.0
C1066 C 0.67674 0.34284 0.02663 0.0
C1067 C 0.67464 0.36299 0.00654 0.0
C1068 C 0.69537 0.36572 0.98732 0.0
C1069 C 0.7182 0.34948 0.98881 0.0
C1070 C 0.63611 0.42878 0.00371 0.0
C1071 C 0.6095 0.42035 0.00805 0.0
C1072 C 0.657 0.41008 0.00302 0.0
C1073 C 0.65193 0.38242 0.00667 0.0
C1074 C 0.62537 0.37382 0.01099 0.0
C1075 C 0.60431 0.39261 0.01153 0.0
H1076 H 0.97219 0.69969 0.68852 0.0
H1077 H 0.0585 0.7036 0.68363 0.0
H1078 H 0.97239 0.65969 0.65884 0.0
H1079 H 0.05881 0.66316 0.65461 0.0
H1080 H 0.0423 0.5732 0.62594 0.0
H1081 H 0.04109 0.60998 0.65946 0.0
H1082 H 0.99062 0.65666 0.60571 0.0
H1083 H 0.99233 0.62036 0.57192 0.0
C1084 C 0.99116 0.6916 0.68145 0.0
C1085 C 0.01534 0.70441 0.68821 0.0
C1086 C 0.99128 0.66892 0.66451 0.0
C1087 C 0.01562 0.65851 0.65463 0.0
C1088 C 0.03986 0.67079 0.66222 0.0
C1089 C 0.03969 0.69381 0.67867 0.0
C1090 C 0.03087 0.59129 0.62139 0.0
C1091 C 0.0175 0.59407 0.59636 0.0
C1092 C 0.03026 0.61225 0.64047 0.0
C1093 C 0.01568 0.63592 0.63506 0.0
C1094 C 1.00184 0.63845 0.61032 0.0
C1095 C 1.00297 0.61782 0.59099 0.0
H1096 H 0.36333 0.96761 0.72235 0.0
H1097 H 0.32659 0.03979 0.68981 0.0
H1098 H 0.39245 0.96487 0.68254 0.0
H1099 H 0.35585 0.0371 0.64985 0.0
H1100 H 0.40179 0.011 0.57248 0.0
H1101 H 0.36825 0.00994 0.60878 0.0
H1102 H 0.43047 0.99268 0.66745 0.0
H1103 H 0.46384 0.99331 0.63147 0.0
C1104 C 0.36138 0.98278 0.70655 0.0
C1105 C 0.34294 1.00408 0.70929 0.0
C1106 C 0.37807 0.98125 0.68381 0.0
C1107 C 0.3767 1.00099 0.66328 0.0
C1108 C 0.35727 0.02152 0.66529 0.0
C1109 C 0.34051 0.02306 0.68812 0.0
C1110 C 0.40831 0.00683 0.5931 0.0
C1111 C 0.43557 1.00222 0.599 0.0
C1112 C 0.38909 0.00637 0.61388 0.0
C1113 C 0.39671 1.00107 0.64091 0.0
C1114 C 0.4239 0.99638 0.64675 0.0
C1115 C 0.44309 0.99697 0.62609 0.0
H1116 H 0.98454 0.30973 0.68888 0.0
H1117 H 0.05566 0.34655 0.72267 0.0
H1118 H 0.98752 0.33968 0.6494 0.0
H1119 H 0.05858 0.37652 0.68332 0.0
H1120 H 0.0292 0.4491 0.6329 0.0
H1121 H 0.03023 0.415 0.66856 0.0
H1122 H 0.0151 0.35269 0.60895 0.0
H1123 H 0.01372 0.38682 0.5731 0.0
C1124 C 1.00116 0.32376 0.68754 0.0
C1125 C 0.01972 0.32602 0.70895 0.0
C1126 C 1.00283 0.34095 0.66499 0.0
C1127 C 0.02305 0.36069 0.66352 0.0
C1128 C 0.04246 0.36187 0.6842 0.0
C1129 C 0.04083 0.34469 0.70666 0.0
C1130 C 0.02605 0.42816 0.6273 0.0
C1131 C 0.02133 0.42076 0.60009 0.0
C1132 C 0.0269 0.40859 0.64774 0.0
C1133 C 0.02292 0.38116 0.64149 0.0
C1134 C 0.01812 0.37369 0.61435 0.0
C1135 C 0.01744 0.39327 0.59383 0.0
H1136 H 0.70241 0.03853 0.70268 0.0
H1137 H 0.73182 0.96516 0.66545 0.0
H1138 H 0.66221 0.03638 0.67423 0.0
H1139 H 0.69181 0.9631 0.63704 0.0
H1140 H 0.6393 0.99161 0.5663 0.0
H1141 H 0.67587 0.99075 0.59873 0.0
H1142 H 0.62067 0.00937 0.66392 0.0
H1143 H 0.58363 0.01064 0.63115 0.0
C1144 C 0.70009 0.02173 0.68874 0.0
C1145 C 0.72041 1.00216 0.68608 0.0
C1146 C 0.67707 0.02049 0.67249 0.0
C1147 C 0.67399 0.99971 0.65324 0.0
C1148 C 0.69385 0.97963 0.65134 0.0
C1149 C 0.71677 0.98084 0.66757 0.0
C1150 C 0.63478 0.99554 0.58751 0.0
C1151 C 0.60845 1.0013 0.59607 0.0
C1152 C 0.6558 0.99479 0.60617 0.0
C1153 C 0.65114 0.99984 0.6339 0.0
C1154 C 0.62485 1.00553 0.64262 0.0
C1155 C 0.60365 0.0061 0.62389 0.0
H1156 H 0.98386 0.28876 0.3659 0.0
H1157 H 0.03483 0.32933 0.30771 0.0
H1158 H 0.98485 0.32848 0.39515 0.0
H1159 H 0.03616 0.36922 0.33725 0.0
H1160 H 0.01396 0.44323 0.39113 0.0
H1161 H 0.00964 0.40636 0.35829 0.0
H1162 H 0.01991 0.34833 0.42322 0.0
H1163 H 0.02384 0.38471 0.45592 0.0
C1164 C 0.99519 0.30628 0.35936 0.0
C1165 C 0.00958 0.30589 0.33478 0.0
C1166 C 0.99584 0.32898 0.37611 0.0
C1167 C 0.011 0.35179 0.36874 0.0
C1168 C 0.02426 0.35197 0.34344 0.0
C1169 C 0.02352 0.32919 0.32656 0.0
C1170 C 0.01539 0.4226 0.39839 0.0
C1171 C 0.01909 0.417 0.42625 0.0
C1172 C 0.01295 0.40151 0.37954 0.0
C1173 C 0.01409 0.37446 0.38823 0.0
C1174 C 0.01832 0.36895 0.41596 0.0
C1175 C 0.02075 0.3899 0.43472 0.0
H1176 H 0.7161 0.04414 0.33268 0.0
H1177 H 0.67887 0.97225 0.30023 0.0
H1178 H 0.68632 0.04207 0.3723 0.0
H1179 H 0.64914 0.97025 0.3396 0.0
H1180 H 0.57752 1.00021 0.38953 0.0
H1181 H 0.61125 0.99962 0.35382 0.0
H1182 H 0.67324 0.01432 0.41339 0.0
H1183 H 0.63939 0.01522 0.44941 0.0
C1184 C 0.70197 0.0276 0.33431 0.0
C1185 C 0.69956 0.00854 0.31325 0.0
C1186 C 0.6849 0.02644 0.35693 0.0
C1187 C 0.66516 0.00624 0.35878 0.0
C1188 C 0.66379 0.98638 0.33842 0.0
C1189 C 0.68082 0.9875 0.31593 0.0
C1190 C 0.59829 1.00339 0.39514 0.0
C1191 C 0.60569 0.00776 0.4224 0.0
C1192 C 0.61766 1.00281 0.37465 0.0
C1193 C 0.64489 0.00671 0.38087 0.0
C1194 C 0.65237 0.01134 0.40804 0.0
C1195 C 0.63297 0.01173 0.42864 0.0
H1196 H 0.98459 0.70101 0.33223 0.0
H1197 H 0.0574 0.66565 0.30048 0.0
H1198 H 0.98717 0.67113 0.3719 0.0
H1199 H 0.05997 0.63586 0.33997 0.0
H1200 H 0.03156 0.56276 0.38966 0.0
H1201 H 0.03211 0.5968 0.35395 0.0
H1202 H 0.01425 0.65878 0.41315 0.0
H1203 H 0.01333 0.62469 0.44908 0.0
C1204 C 1.00144 0.6873 0.33406 0.0
C1205 C 0.02063 0.68538 0.31318 0.0
C1206 C 1.0029 0.67018 0.3567 0.0
C1207 C 0.02354 0.65089 0.35876 0.0
C1208 C 0.04352 0.65012 0.33861 0.0
C1209 C 0.0421 0.6672 0.31609 0.0
C1210 C 0.02772 0.58361 0.39517 0.0
C1211 C 0.02241 0.59093 0.42229 0.0
C1212 C 0.02827 0.60315 0.3747 0.0
C1213 C 0.02341 0.63046 0.38082 0.0
C1214 C 0.01796 0.63786 0.40786 0.0
C1215 C 0.01758 0.61831 0.42843 0.0
H1216 H 0.36309 0.04811 0.29937 0.0
H1217 H 0.3292 0.97363 0.32982 0.0
H1218 H 0.3917 0.05098 0.33957 0.0
H1219 H 0.35782 0.9765 0.37001 0.0
H1220 H 0.40091 1.00062 0.44877 0.0
H1221 H 0.36792 1.00245 0.41191 0.0
H1222 H 0.43042 0.02539 0.35548 0.0
H1223 H 0.46307 0.0241 0.39197 0.0
C1224 C 0.36172 0.03239 0.31469 0.0
C1225 C 0.34403 0.01056 0.31133 0.0
C1226 C 0.37808 0.03404 0.33771 0.0
C1227 C 0.37715 0.01387 0.35788 0.0
C1228 C 0.35878 0.99252 0.35499 0.0
C1229 C 0.34241 0.99087 0.33195 0.0
C1230 C 0.40754 0.00627 0.42854 0.0
C1231 C 0.43469 0.01206 0.42336 0.0
C1232 C 0.38867 0.00717 0.40742 0.0
C1233 C 0.39656 0.01411 0.3808 0.0
C1234 C 0.4236 0.02035 0.37581 0.0
C1235 C 0.44239 0.01932 0.39677 0.0
H1236 H 0.05626 0.22263 0.35853 0.0
H1237 H 0.99273 0.18384 0.3134 0.0
H1238 H 0.05913 0.18352 0.38865 0.0
H1239 H 0.99553 0.14466 0.3436 0.0
H1240 H 0.02167 0.07023 0.3926 0.0
H1241 H 0.02335 0.10667 0.3592 0.0
H1242 H 0.03021 0.16501 0.42422 0.0
H1243 H 0.029 0.12873 0.45762 0.0
C1244 C 0.04305 0.20562 0.35493 0.0
C1245 C 0.02409 0.20642 0.33376 0.0
C1246 C 0.04462 0.18327 0.37224 0.0
C1247 C 0.02728 0.16115 0.3688 0.0
C1248 C 0.00928 0.16131 0.34673 0.0
C1249 C 1.00771 0.18373 0.32937 0.0
C1250 C 0.02364 0.09081 0.39984 0.0
C1251 C 0.02518 0.09646 0.42791 0.0
C1252 C 0.02448 0.1117 0.38064 0.0
C1253 C 0.02702 0.13873 0.38901 0.0
C1254 C 0.02867 0.14437 0.41704 0.0
C1255 C 0.02774 0.12353 0.43624 0.0
H1256 H 0.86511 0.06701 0.30686 0.0
H1257 H 0.83275 0.98698 0.31973 0.0
H1258 H 0.89525 0.06075 0.3452 0.0
H1259 H 0.86269 0.98111 0.35891 0.0
H1260 H 0.90471 0.997 0.44399 0.0
H1261 H 0.87229 1.00132 0.4067 0.0
H1262 H 0.93511 0.03067 0.35391 0.0
H1263 H 0.96736 0.02645 0.39076 0.0
C1264 C 0.8645 0.04797 0.31772 0.0
C1265 C 0.84674 0.02732 0.30976 0.0
C1266 C 0.88174 0.04446 0.33983 0.0
C1267 C 0.88155 0.02034 0.3549 0.0
C1268 C 0.8632 0.99997 0.3477 0.0
C1269 C 0.84604 1.00337 0.32529 0.0
C1270 C 0.9116 1.00436 0.42442 0.0
C1271 C 0.93868 0.01145 0.42048 0.0
C1272 C 0.89305 0.00665 0.40304 0.0
C1273 C 0.90113 0.01647 0.37743 0.0
C1274 C 0.9282 0.02333 0.37349 0.0
C1275 C 0.94673 0.02075 0.39465 0.0
H1276 H 0.04183 0.81842 0.31655 0.0
H1277 H 0.96281 0.85267 0.30498 0.0
H1278 H 0.04869 0.84821 0.35576 0.0
H1279 H 0.9702 0.88283 0.34328 0.0
H1280 H 1.00677 0.95401 0.38936 0.0
H1281 H 1.00199 0.92226 0.35192 0.0
H1282 H 0.02797 0.8571 0.4041 0.0
H1283 H 0.03276 0.88898 0.44202 0.0
C1284 C 0.02588 0.83212 0.32236 0.0
C1285 C 1.00187 0.83329 0.30727 0.0
C1286 C 0.02987 0.8492 0.34479 0.0
C1287 C 0.01008 0.86798 0.35237 0.0
C1288 C 0.986 0.86888 0.3376 0.0
C1289 C 0.98187 0.85166 0.3155 0.0
C1290 C 0.01168 0.93298 0.39296 0.0
C1291 C 0.02012 0.92408 0.4188 0.0
C1292 C 1.00877 0.91476 0.37148 0.0
C1293 C 0.01448 0.88721 0.37514 0.0
C1294 C 0.02354 0.87827 0.40072 0.0
C1295 C 0.02612 0.8965 0.42243 0.0
H1296 H 0.19929 0.02934 0.30949 0.0
H1297 H 0.19576 0.94378 0.32615 0.0
H1298 H 0.17027 0.03805 0.34902 0.0
H1299 H 0.16726 0.95246 0.3658 0.0
H1300 H 0.1375 0.98222 0.44962 0.0
H1301 H 0.17041 0.97721 0.41284 0.0
H1302 H 0.12029 0.02518 0.35989 0.0
H1303 H 0.08723 0.02986 0.39637 0.0
C1304 C 0.1925 0.01247 0.32177 0.0
C1305 C 0.19958 0.98589 0.31472 0.0
C1306 C 0.17589 0.01742 0.34428 0.0
C1307 C 0.1666 0.99592 0.36049 0.0
C1308 C 0.1743 0.96942 0.35381 0.0
C1309 C 0.19042 0.96444 0.33103 0.0
C1310 C 0.13369 0.99198 0.43024 0.0
C1311 C 0.10972 0.00634 0.42585 0.0
C1312 C 0.15244 0.98899 0.40918 0.0
C1313 C 0.14786 1.00079 0.38352 0.0
C1314 C 0.12442 0.01602 0.3795 0.0
C1315 C 0.10544 0.01855 0.40034 0.0
H1316 H 0.99004 0.82506 0.70694 0.0
H1317 H 0.05818 0.79029 0.66532 0.0
H1318 H 0.99194 0.86428 0.67685 0.0
H1319 H 0.06002 0.82947 0.63518 0.0
H1320 H 0.02988 0.88276 0.56482 0.0
H1321 H 0.03166 0.84643 0.59815 0.0
H1322 H 0.01837 0.90393 0.66291 0.0
H1323 H 0.01615 0.9404 0.62958 0.0
C1324 C 1.00581 0.82606 0.69178 0.0
C1325 C 0.02382 0.80443 0.68839 0.0
C1326 C 1.00685 0.84852 0.67447 0.0
C1327 C 0.0259 0.84983 0.65337 0.0
C1328 C 0.04472 0.8288 0.65085 0.0
C1329 C 0.04372 0.8064 0.66817 0.0
C1330 C 0.02729 0.88777 0.58613 0.0
C1331 C 0.02279 0.91461 0.5944 0.0
C1332 C 0.02857 0.86691 0.60529 0.0
C1333 C 0.0253 0.87229 0.63322 0.0
C1334 C 0.02078 0.89908 0.64154 0.0
C1335 C 0.01962 0.92001 0.62238 0.0
H1336 H 0.17641 0.0615 0.71609 0.0
H1337 H 0.21077 0.98234 0.70269 0.0
H1338 H 0.14633 0.05472 0.6778 0.0
H1339 H 0.18099 0.97609 0.66346 0.0
H1340 H 0.13867 0.9934 0.57806 0.0
H1341 H 0.17101 0.99763 0.61549 0.0
H1342 H 0.10721 0.0227 0.6693 0.0
H1343 H 0.07504 0.01844 0.63238 0.0
C1344 C 0.17749 0.04253 0.70514 0.0
C1345 C 0.1958 0.02228 0.71295 0.0
C1346 C 0.1603 0.03876 0.68304 0.0
C1347 C 0.16113 0.01478 0.6678 0.0
C1348 C 0.17999 0.99482 0.67482 0.0
C1349 C 0.19707 0.99846 0.69726 0.0
C1350 C 0.13155 0.99971 0.59791 0.0
C1351 C 0.10422 1.0056 0.60214 0.0
C1352 C 0.15005 1.00198 0.61934 0.0
C1353 C 0.14164 0.01063 0.64526 0.0
C1354 C 0.11433 0.01623 0.64949 0.0
C1355 C 0.09586 0.01362 0.6283 0.0
H1356 H 0.99647 0.14178 0.73845 0.0
H1357 H 1.00439 0.21039 0.68448 0.0
H1358 H 1.00438 0.11147 0.70053 0.0
H1359 H 0.01463 0.18012 0.64697 0.0
H1360 H 0.99818 0.11861 0.5795 0.0
H1361 H 0.99372 0.15007 0.61734 0.0
H1362 H 0.03497 0.09347 0.66991 0.0
H1363 H 0.03808 0.06156 0.63234 0.0
C1364 C 1.00013 0.15048 0.71856 0.0
C1365 C 0.99945 0.17865 0.71465 0.0
C1366 C 1.00514 0.13302 0.69676 0.0
C1367 C 0.01008 0.14319 0.67045 0.0
C1368 C 0.01041 0.17141 0.66675 0.0
C1369 C 1.00499 0.18887 0.68848 0.0
C1370 C 1.00641 0.113 0.59913 0.0
C1371 C 0.01829 0.08755 0.603 0.0
C1372 C 1.00401 0.13112 0.62087 0.0
C1373 C 0.01388 0.12443 0.64691 0.0
C1374 C 0.02653 0.0992 0.65043 0.0
C1375 C 0.02847 0.0809 0.62882 0.0
H1376 H 0.80742 0.96435 0.66389 0.0
H1377 H 0.84053 0.03243 0.70736 0.0
H1378 H 0.84693 0.96311 0.63468 0.0
H1379 H 0.88028 0.03109 0.67811 0.0
H1380 H 0.95719 0.00689 0.63095 0.0
H1381 H 0.92046 1.00481 0.66396 0.0
H1382 H 0.86416 0.99215 0.59842 0.0
H1383 H 0.90056 0.99389 0.56559 0.0
C1384 C 0.82321 0.97899 0.66732 0.0
C1385 C 0.8206 0.99871 0.68779 0.0
C1386 C 0.84586 0.9783 0.65052 0.0
C1387 C 0.86663 0.99726 0.65374 0.0
C1388 C 0.86472 0.01611 0.67512 0.0
C1389 C 0.84195 0.01684 0.69194 0.0
C1390 C 0.93699 1.00355 0.62357 0.0
C1391 C 0.93196 1.00056 0.59549 0.0
C1392 C 0.91592 1.00251 0.64252 0.0
C1393 C 0.88935 0.99817 0.6339 0.0
C1394 C 0.88439 0.99509 0.60587 0.0
C1395 C 0.90534 0.99632 0.58697 0.0
H1396 H 0.32417 0.97486 0.19144 0.0
H1397 H 0.36061 0.04839 0.22089 0.0
H1398 H 0.35296 0.97641 0.15104 0.0
H1399 H 0.38928 0.04991 0.18071 0.0
H1400 H 0.46092 0.0206 0.13058 0.0
H1401 H 0.42748 0.02232 0.16638 0.0
H1402 H 0.36573 1.00137 0.1085 0.0
H1403 H 0.39952 0.99931 0.07225 0.0
C1404 C 0.33788 0.99167 0.18901 0.0
C1405 C 0.34033 0.01131 0.20959 0.0
C1406 C 0.35441 0.99253 0.16587 0.0
C1407 C 0.37375 0.01304 0.16285 0.0
C1408 C 0.37505 0.03349 0.18268 0.0
C1409 C 0.35857 0.03264 0.2057 0.0
C1410 C 0.44026 0.01633 0.12528 0.0
C1411 C 0.43303 0.00975 0.09839 0.0
C1412 C 0.42098 0.01757 0.14588 0.0
C1413 C 0.39385 0.01219 0.14032 0.0
C1414 C 0.38649 1.00554 0.11348 0.0
C1415 C 0.40584 1.00449 0.09269 0.0
H1416 H 0.04234 0.31454 0.20097 0.0
H1417 H 0.96582 0.2977 0.16327 0.0
H1418 H 0.04775 0.35399 0.1713 0.0
H1419 H 0.97161 0.33649 0.13343 0.0
H1420 H 1.00715 0.38444 0.06297 0.0
H1421 H 1.00301 0.34732 0.09504 0.0
H1422 H 0.02605 0.40018 0.16088 0.0
H1423 H 0.03036 0.43777 0.12863 0.0
C1424 C 0.0266 0.31931 0.18657 0.0
C1425 C 1.0038 0.30267 0.1843 0.0
C1426 C 0.02973 0.34189 0.16957 0.0
C1427 C 0.01024 0.34813 0.14986 0.0
C1428 C 0.98722 0.33188 0.14806 0.0
C1429 C 0.98398 0.30955 0.16511 0.0
C1430 C 0.01153 0.3883 0.08422 0.0
C1431 C 0.01906 0.41422 0.09316 0.0
C1432 C 1.00896 0.36698 0.10264 0.0
C1433 C 0.01403 0.37088 0.13049 0.0
C1434 C 0.02212 0.39659 0.1395 0.0
C1435 C 0.02443 0.41811 0.12104 0.0
H1436 H 0.66923 0.04299 0.22852 0.0
H1437 H 0.72201 0.9854 0.18992 0.0
H1438 H 0.63933 0.04138 0.18946 0.0
H1439 H 0.69168 0.98346 0.15052 0.0
H1440 H 0.63929 0.00696 0.07526 0.0
H1441 H 0.67232 0.00942 0.11191 0.0
H1442 H 0.60834 0.00839 0.17125 0.0
H1443 H 0.57541 0.00641 0.13495 0.0
C1444 C 0.67442 0.02995 0.21158 0.0
C1445 C 0.69774 0.01401 0.21243 0.0
C1446 C 0.65722 0.02894 0.18923 0.0
C1447 C 0.6628 0.01189 0.16708 0.0
C1448 C 0.68681 0.99682 0.16728 0.0
C1449 C 0.70417 0.99791 0.18977 0.0
C1450 C 0.63223 0.00723 0.09612 0.0
C1451 C 0.60456 0.00668 0.10204 0.0
C1452 C 0.65122 0.0085 0.11713 0.0
C1453 C 0.64299 0.00937 0.14451 0.0
C1454 C 0.61539 0.0083 0.15037 0.0
C1455 C 0.59645 0.007 0.12947 0.0
H1456 H 0.98705 0.65261 0.2295 0.0
H1457 H 0.04187 0.70715 0.18935 0.0
H1458 H 0.98889 0.62222 0.19065 0.0
H1459 H 0.044 0.67637 0.15017 0.0
H1460 H 0.01951 0.62363 0.07565 0.0
H1461 H 0.01747 0.65654 0.11253 0.0
H1462 H 0.02207 0.5918 0.17139 0.0
H1463 H 0.02364 0.55886 0.13477 0.0
C1464 C 0.99954 0.65805 0.21228 0.0
C1465 C 0.01462 0.68203 0.21257 0.0
C1466 C 1.00069 0.64059 0.19007 0.0
C1467 C 0.01699 0.6466 0.16753 0.0
C1468 C 0.03124 0.67118 0.16724 0.0
C1469 C 0.03003 0.6888 0.1896 0.0
C1470 C 0.02015 0.61635 0.09645 0.0
C1471 C 0.02153 0.58846 0.10215 0.0
C1472 C 0.01912 0.63529 0.11758 0.0
C1473 C 0.01937 0.6268 0.14488 0.0
C1474 C 0.02131 0.599 0.15056 0.0
C1475 C 0.02236 0.58008 0.1295 0.0
H1476 H 0.37433 0.03804 0.79351 0.0
H1477 H 0.31999 0.98288 0.83345 0.0
H1478 H 0.40385 0.03691 0.83286 0.0
H1479 H 0.34992 0.98149 0.87319 0.0
H1480 H 0.40212 0.00676 0.94825 0.0
H1481 H 0.36946 0.00843 0.91116 0.0
H1482 H 0.43395 1.00381 0.85259 0.0
H1483 H 0.46647 1.00257 0.88925 0.0
C1484 C 0.36874 0.0256 0.81077 0.0
C1485 C 0.34506 0.0102 0.81021 0.0
C1486 C 0.38571 0.02488 0.83331 0.0
C1487 C 0.37955 0.0087 0.856 0.0
C1488 C 0.35525 0.99417 0.85604 0.0
C1489 C 0.33811 0.99494 0.83333 0.0
C1490 C 0.40936 0.00606 0.92746 0.0
C1491 C 0.43707 1.00476 0.92187 0.0
C1492 C 0.39058 0.00689 0.9062 0.0
C1493 C 0.39907 0.00655 0.87889 0.0
C1494 C 0.4267 1.00468 0.87337 0.0
C1495 C 0.44541 1.00382 0.89451 0.0
H1496 H 0.98371 0.3592 0.7917 0.0
H1497 H 0.03639 0.30349 0.83314 0.0
H1498 H 0.98542 0.3897 0.8305 0.0
H1499 H 0.03854 0.33439 0.87219 0.0
H1500 H 0.01566 0.38812 0.94598 0.0
H1501 H 0.01264 0.35512 0.90929 0.0
H1502 H 0.01856 0.41948 0.8501 0.0
H1503 H 0.02105 0.45252 0.88657 0.0
C1504 C 0.99565 0.35351 0.80923 0.0
C1505 C 0.01019 0.32918 0.80934 0.0
C1506 C 0.99676 0.37104 0.83139 0.0
C1507 C 0.01253 0.36475 0.85423 0.0
C1508 C 0.02617 0.3398 0.8549 0.0
C1509 C 0.02496 0.32211 0.83262 0.0
C1510 C 0.01636 0.3953 0.92514 0.0
C1511 C 0.01842 0.42311 0.91931 0.0
C1512 C 0.01475 0.3763 0.90411 0.0
C1513 C 0.01514 0.38465 0.87677 0.0
C1514 C 0.01767 0.41238 0.87095 0.0
C1515 C 0.01924 0.43136 0.89193 0.0
H1516 H 0.72377 0.0608 0.85409 0.0
H1517 H 0.70983 0.98133 0.82043 0.0
H1518 H 0.6854 0.05519 0.8841 0.0
H1519 H 0.67062 0.97618 0.85018 0.0
H1520 H 0.58666 0.99386 0.89286 0.0
H1521 H 0.62359 0.99768 0.85996 0.0
H1522 H 0.67624 0.02445 0.92423 0.0
H1523 H 0.63984 0.02065 0.95691 0.0
C1524 C 0.71265 0.04203 0.85313 0.0
C1525 C 0.72036 0.02132 0.83508 0.0
C1526 C 0.69051 0.03891 0.87028 0.0
C1527 C 0.67515 0.01514 0.86971 0.0
C1528 C 0.68205 0.99477 0.851 0.0
C1529 C 0.7045 0.99777 0.83393 0.0
C1530 C 0.60614 1.0005 0.89995 0.0
C1531 C 0.61019 0.00697 0.92758 0.0
C1532 C 0.6273 1.00254 0.88114 0.0
C1533 C 0.65277 0.01152 0.88949 0.0
C1534 C 0.65679 0.01776 0.91709 0.0
C1535 C 0.63587 0.0154 0.93588 0.0
H1536 H 0.95966 0.71164 0.85664 0.0
H1537 H 0.03837 0.69846 0.82204 0.0
H1538 H 0.96616 0.67314 0.88675 0.0
H1539 H 0.04441 0.65924 0.85181 0.0
H1540 H 0.02904 0.57439 0.89298 0.0
H1541 H 0.0239 0.61197 0.86081 0.0
H1542 H 0.997 0.66342 0.92635 0.0
H1543 H 1.00205 0.6263 0.95834 0.0
C1544 C 0.97844 0.70068 0.85553 0.0
C1545 C 0.99862 0.70848 0.83707 0.0
C1546 C 0.98208 0.6785 0.87272 0.0
C1547 C 1.00585 0.66329 0.87174 0.0
C1548 C 0.0258 0.67051 0.85285 0.0
C1549 C 0.02228 0.69296 0.83578 0.0
C1550 C 0.02207 0.59373 0.90051 0.0
C1551 C 0.01597 0.59727 0.92827 0.0
C1552 C 0.01928 0.61526 0.88212 0.0
C1553 C 0.00993 0.64056 0.89108 0.0
C1554 C 1.00398 0.64407 0.9188 0.0
C1555 C 1.00707 0.62277 0.93717 0.0
H1556 H 0.22995 0.33746 0.02004 0.0
H1557 H 0.16186 0.28356 0.02255 0.0
H1558 H 0.19991 0.37541 0.01127 0.0
H1559 H 0.13188 0.32144 0.01594 0.0
H1560 H 0.08194 0.38966 0.985 0.0
H1561 H 0.11451 0.35313 0.9865 0.0
H1562 H 0.16868 0.40411 0.03217 0.0
H1563 H 0.13643 0.44114 0.02933 0.0
C1564 C 0.20862 0.3336 0.01857 0.0
C1565 C 0.19847 0.30729 0.02226 0.0
C1566 C 0.19127 0.35552 0.01396 0.0
C1567 C 0.16323 0.35181 0.01305 0.0
C1568 C 0.15324 0.32536 0.01609 0.0
C1569 C 0.17054 0.3035 0.02037 0.0
C1570 C 0.10088 0.39313 0.99523 0.0
C1571 C 0.10647 0.4183 0.00719 0.0
C1572 C 0.1196 0.37204 0.99628 0.0
C1573 C 0.14432 0.37526 0.00982 0.0
C1574 C 0.15013 0.40075 0.02125 0.0
C1575 C 0.13153 0.42204 0.01976 0.0
H1576 H 0.17847 0.70812 0.956 0.0
H1577 H 0.21341 0.69248 0.03501 0.0
H1578 H 0.1488 0.66962 0.96173 0.0
H1579 H 0.18393 0.65306 0.04025 0.0
H1580 H 0.13996 0.56913 0.02118 0.0
H1581 H 0.17295 0.60584 0.01749 0.0
H1582 H 0.10988 0.66091 0.9941 0.0
H1583 H 0.07714 0.62478 0.99782 0.0
C1584 C 0.1798 0.69658 0.9747 0.0
C1585 C 0.19805 0.70392 0.99529 0.0
C1586 C 0.16283 0.67436 0.97788 0.0
C1587 C 0.16378 0.65849 1.00157 0.0
C1588 C 0.18279 0.66491 0.02174 0.0
C1589 C 0.19969 0.68747 0.01869 0.0
C1590 C 0.13315 0.58909 0.01531 0.0
C1591 C 0.10583 0.59389 0.00975 0.0
C1592 C 0.15203 0.61012 0.01336 0.0
C1593 C 0.14402 0.63621 0.00535 0.0
C1594 C 0.11673 0.64097 1.00005 0.0
C1595 C 0.09792 0.6202 0.00235 0.0
H1596 H 0.32583 0.18745 0.04023 0.0
H1597 H 0.36601 0.21766 0.9685 0.0
H1598 H 0.35467 0.14733 0.0396 0.0
H1599 H 0.39476 0.17786 0.96796 0.0
H1600 H 0.4643 0.12576 0.99829 0.0
H1601 H 0.43161 0.16208 0.99652 0.0
H1602 H 0.36817 0.10547 0.01454 0.0
H1603 H 0.40113 0.06875 0.01661 0.0
C1604 C 0.34042 0.18532 0.02403 0.0
C1605 C 0.34379 0.20603 0.00463 0.0
C1606 C 0.35702 0.16232 0.0237 0.0
C1607 C 0.37739 0.15953 0.004 0.0
C1608 C 0.37976 0.1796 0.98383 0.0
C1609 C 0.3632 0.20245 0.98412 0.0
C1610 C 0.44342 0.12086 1.00191 0.0
C1611 C 0.4355 0.09414 0.00762 0.0
C1612 C 0.42457 0.14178 1.00066 0.0
C1613 C 0.39715 0.13676 0.00519 0.0
C1614 C 0.38912 0.1101 0.01106 0.0
C1615 C 0.40804 0.08901 0.0121 0.0
H1616 H 0.80557 0.35936 0.0423 0.0
H1617 H 0.84286 0.3037 0.98618 0.0
H1618 H 0.8453 0.38775 0.04121 0.0
H1619 H 0.88305 0.33251 0.98491 0.0
H1620 H 0.95873 0.38442 0.01037 0.0
H1621 H 0.92168 0.35178 0.01206 0.0
H1622 H 0.86478 0.4174 0.00716 0.0
H1623 H 0.90113 0.44967 0.00577 0.0
C1624 C 0.8223 0.35322 0.02963 0.0
C1625 C 0.82082 0.32952 0.01392 0.0
C1626 C 0.84511 0.36953 0.02898 0.0
C1627 C 0.86722 0.36274 0.01256 0.0
C1628 C 0.86637 0.33834 0.99778 0.0
C1629 C 0.84337 0.32186 0.99848 0.0
C1630 C 0.9383 0.39185 0.00957 0.0
C1631 C 0.93309 0.41982 0.00822 0.0
C1632 C 0.91708 0.37311 0.01045 0.0
C1633 C 0.89022 0.38197 0.01015 0.0
C1634 C 0.88516 0.40984 0.00808 0.0
C1635 C 0.90618 0.42842 0.00716 0.0
H1636 H 0.74267 0.86716 0.00359 0.0
H1637 H 0.69091 0.79724 1.00032 0.0
H1638 H 0.70408 0.89603 0.01023 0.0
H1639 H 0.65218 0.82605 0.00924 0.0
H1640 H 0.58627 0.88961 0.99139 0.0
H1641 H 0.6237 0.85781 0.98886 0.0
H1642 H 0.67122 0.91113 0.03924 0.0
H1643 H 0.63441 0.94332 0.04032 0.0
C1644 C 0.72305 0.85783 0.00453 0.0
C1645 C 0.72007 0.82977 1.001 0.0
C1646 C 0.70077 0.87446 0.00884 0.0
C1647 C 0.6747 0.86358 0.01032 0.0
C1648 C 0.67177 0.83536 0.00779 0.0
C1649 C 0.69413 0.8187 0.00311 0.0
C1650 C 0.6047 0.89435 1.00205 0.0
C1651 C 0.6075 0.91911 0.01576 0.0
C1652 C 0.6262 0.87605 1.00075 0.0
C1653 C 0.65087 0.88187 0.01354 0.0
C1654 C 0.653 0.90614 0.02837 0.0
C1655 C 0.63177 0.9246 0.02919 0.0
H1656 H 0.84289 0.7086 0.03499 0.0
H1657 H 0.80651 0.65281 0.97848 0.0
H1658 H 0.88304 0.67967 0.037 0.0
H1659 H 0.84615 0.6243 0.98037 0.0
H1660 H 0.90096 0.56224 0.01739 0.0
H1661 H 0.86477 0.5948 0.0155 0.0
H1662 H 0.92207 0.65995 0.01005 0.0
H1663 H 0.9589 0.62707 0.01218 0.0
C1664 C 0.84361 0.69041 0.02275 0.0
C1665 C 0.8213 0.68272 0.00701 0.0
C1666 C 0.86657 0.67385 0.02389 0.0
C1667 C 0.8676 0.64936 0.00927 0.0
C1668 C 0.84579 0.64259 0.99248 0.0
C1669 C 0.82304 0.65899 0.99136 0.0
C1670 C 0.90611 0.58345 0.01582 0.0
C1671 C 0.93306 0.59185 0.01469 0.0
C1672 C 0.8852 0.60219 0.01461 0.0
C1673 C 0.89044 0.63 0.0122 0.0
C1674 C 0.91733 0.63866 0.01192 0.0
C1675 C 0.93844 0.61978 0.01306 0.0
H1676 H 0.37447 0.78937 0.97785 0.0
H1677 H 0.3198 0.82734 0.03428 0.0
H1678 H 0.40282 0.82928 0.97851 0.0
H1679 H 0.34858 0.86769 0.03516 0.0
H1680 H 0.40011 0.94367 0.00966 0.0
H1681 H 0.36763 0.90646 0.00795 0.0
H1682 H 0.43265 0.84893 0.01197 0.0
H1683 H 0.46478 0.88545 0.01331 0.0
C1684 C 0.36854 0.80629 0.9905 0.0
C1685 C 0.34512 0.80494 0.00641 0.0
C1686 C 0.38483 0.82921 0.9909 0.0
C1687 C 0.37831 0.85156 0.0073 0.0
C1688 C 0.3542 0.85084 0.0223 0.0
C1689 C 0.33773 0.82774 0.02183 0.0
C1690 C 0.40746 0.92307 0.01019 0.0
C1691 C 0.43522 0.91775 0.01136 0.0
C1692 C 0.3888 0.90175 0.00933 0.0
C1693 C 0.39751 0.87466 0.00946 0.0
C1694 C 0.42518 0.86948 0.01121 0.0
C1695 C 0.44369 0.89061 0.01213 0.0
H1696 H 0.72288 0.16406 0.06697 0.0
H1697 H 0.70863 0.19679 0.98665 0.0
H1698 H 0.68391 0.13501 0.06223 0.0
H1699 H 0.66888 0.16783 0.98224 0.0
H1700 H 0.58494 0.12535 1.00071 0.0
H1701 H 0.62178 0.1582 0.00396 0.0
H1702 H 0.67464 0.09501 0.03215 0.0
H1703 H 0.63842 0.0625 0.02902 0.0
C1704 C 0.71153 0.16501 0.04819 0.0
C1705 C 0.71936 0.18244 0.02696 0.0
C1706 C 0.68905 0.14841 0.04556 0.0
C1707 C 0.67349 0.14886 0.02173 0.0
C1708 C 0.68046 0.16709 1.00088 0.0
C1709 C 0.70323 0.18367 0.00343 0.0
C1710 C 0.60443 0.11851 0.0076 0.0
C1711 C 0.60859 0.09122 0.01465 0.0
C1712 C 0.62554 0.13729 0.00929 0.0
C1713 C 0.65106 0.12922 0.01849 0.0
C1714 C 0.65515 0.10196 0.02532 0.0
C1715 C 0.63431 0.08325 0.02335 0.0
H1716 H 0.49134 0.68681 0.81568 0.0
H1717 H 0.56156 0.71965 0.85509 0.0
H1718 H 0.49302 0.6476 0.84592 0.0
H1719 H 0.56312 0.6806 0.88539 0.0
H1720 H 0.53325 0.62864 0.95696 0.0
H1721 H 0.53476 0.66484 0.92339 0.0
H1722 H 0.51947 0.60723 0.85922 0.0
H1723 H 0.5176 0.57093 0.89278 0.0
C1724 C 0.50747 0.68538 0.83038 0.0
C1725 C 0.52616 0.70647 0.83316 0.0
C1726 C 0.50838 0.66296 0.84777 0.0
C1727 C 0.52797 0.66121 0.86832 0.0
C1728 C 0.54743 0.68165 0.87017 0.0
C1729 C 0.54657 0.70397 0.85276 0.0
C1730 C 0.53017 0.62361 0.93573 0.0
C1731 C 0.52528 0.5968 0.92766 0.0
C1732 C 0.53127 0.64437 0.91643 0.0
C1733 C 0.52738 0.63888 0.88861 0.0
C1734 C 0.5224 0.61213 0.88051 0.0
C1735 C 0.52147 0.59131 0.89979 0.0
H1736 H 0.31798 0.53238 0.83882 0.0
H1737 H 0.37946 0.50164 0.78524 0.0
H1738 H 0.34817 0.52713 0.87766 0.0
H1739 H 0.40939 0.49554 0.82399 0.0
H1740 H 0.46696 0.52268 0.88982 0.0
H1741 H 0.43488 0.52377 0.85283 0.0
H1742 H 0.37224 0.49769 0.90776 0.0
H1743 H 0.40443 0.49734 0.94527 0.0
C1744 C 0.33776 0.52392 0.83547 0.0
C1745 C 0.34646 0.51766 0.80897 0.0
C1746 C 0.35509 0.52088 0.85773 0.0
C1747 C 0.38144 0.51129 0.854 0.0
C1748 C 0.38954 0.5037 0.82761 0.0
C1749 C 0.37234 0.50701 0.80538 0.0
C1750 C 0.44638 0.51708 0.89414 0.0
C1751 C 0.43838 0.50986 0.92064 0.0
C1752 C 0.42794 0.51752 0.87276 0.0
C1753 C 0.40092 0.51053 0.87711 0.0
C1754 C 0.39281 0.50341 0.90365 0.0
C1755 C 0.41131 0.50314 0.92517 0.0
H1756 H 0.49628 0.30434 0.83727 0.0
H1757 H 0.52537 0.36583 0.78234 0.0
H1758 H 0.50307 0.33473 0.87574 0.0
H1759 H 0.53313 0.396 0.8208 0.0
H1760 H 0.50939 0.45393 0.88845 0.0
H1761 H 0.50723 0.42216 0.85101 0.0
H1762 H 0.5336 0.35799 0.9045 0.0
H1763 H 0.53485 0.38981 0.94244 0.0
C1764 C 0.50469 0.32419 0.83353 0.0
C1765 C 0.51012 0.33282 0.80682 0.0
C1766 C 0.50866 0.34162 0.85559 0.0
C1767 C 0.51841 0.368 0.85144 0.0
C1768 C 0.52496 0.37611 0.82475 0.0
C1769 C 0.52067 0.3588 0.8027 0.0
C1770 C 0.51488 0.43309 0.8923 0.0
C1771 C 0.52229 0.42447 0.91854 0.0
C1772 C 0.51382 0.41483 0.87068 0.0
C1773 C 0.52041 0.38745 0.87456 0.0
C1774 C 0.52806 0.37884 0.90078 0.0
C1775 C 0.52888 0.39711 0.92254 0.0
H1776 H 0.71228 0.52806 0.82139 0.0
H1777 H 0.68117 0.44721 0.81064 0.0
H1778 H 0.68377 0.53368 0.86168 0.0
H1779 H 0.65234 0.45329 0.85013 0.0
H1780 H 0.5798 0.48972 0.89388 0.0
H1781 H 0.61227 0.48477 0.85748 0.0
H1782 H 0.67523 0.51246 0.91089 0.0
H1783 H 0.6424 0.51744 0.94802 0.0
C1784 C 0.69962 0.51141 0.82768 0.0
C1785 C 0.69877 0.48731 0.81243 0.0
C1786 C 0.68332 0.51467 0.85076 0.0
C1787 C 0.6657 0.49401 0.85885 0.0
C1788 C 0.66544 0.46971 0.8441 0.0
C1789 C 0.68183 0.46634 0.82132 0.0
C1790 C 0.6005 0.49495 0.89805 0.0
C1791 C 0.60845 0.50406 0.92396 0.0
C1792 C 0.61915 0.4919 0.87714 0.0
C1793 C 0.64627 0.49808 0.8814 0.0
C1794 C 0.65438 0.50762 0.9071 0.0
C1795 C 0.63564 0.51033 0.92833 0.0
H1796 H 0.53584 0.32766 0.21369 0.0
H1797 H 0.48469 0.2869 0.15595 0.0
H1798 H 0.53824 0.3669 0.18315 0.0
H1799 H 0.48671 0.32585 0.1258 0.0
H1800 H 0.52309 0.38262 0.06401 0.0
H1801 H 0.52046 0.34603 0.09684 0.0
H1802 H 0.51216 0.40386 0.16217 0.0
H1803 H 0.5153 0.44076 0.12934 0.0
C1804 C 0.52483 0.32729 0.19468 0.0
C1805 C 0.51043 0.30414 0.18697 0.0
C1806 C 0.52618 0.34969 0.17721 0.0
C1807 C 0.51304 0.3493 0.15181 0.0
C1808 C 0.49767 0.32655 0.14483 0.0
C1809 C 0.49641 0.30427 0.16215 0.0
C1810 C 0.52073 0.38768 0.08534 0.0
C1811 C 0.51925 0.41475 0.0939 0.0
C1812 C 0.51907 0.36662 0.10419 0.0
C1813 C 0.51581 0.372 0.13212 0.0
C1814 C 0.51482 0.39903 0.14083 0.0
C1815 C 0.51649 0.42018 0.12193 0.0
H1816 H 0.6602 0.52214 0.2363 0.0
H1817 H 0.72828 0.51717 0.18199 0.0
H1818 H 0.63015 0.51495 0.19825 0.0
H1819 H 0.69823 0.50781 0.14411 0.0
H1820 H 0.63578 0.52537 0.07755 0.0
H1821 H 0.6675 0.52899 0.11509 0.0
H1822 H 0.61281 0.48465 0.16691 0.0
H1823 H 0.58068 0.48227 0.12973 0.0
C1824 C 0.66885 0.51932 0.21627 0.0
C1825 C 0.69679 0.5206 0.21235 0.0
C1826 C 0.65153 0.51471 0.19437 0.0
C1827 C 0.66158 0.5108 0.16786 0.0
C1828 C 0.6896 0.51118 0.16406 0.0
C1829 C 0.70694 0.51613 0.18596 0.0
C1830 C 0.63064 0.51624 0.09693 0.0
C1831 C 0.6056 0.50372 0.10069 0.0
C1832 C 0.64892 0.51818 0.1185 0.0
C1833 C 0.64282 0.50728 0.1443 0.0
C1834 C 0.61808 0.49392 0.14766 0.0
C1835 C 0.59965 0.49238 0.12624 0.0
H1836 H 0.49264 0.70544 0.18709 0.0
H1837 H 0.53208 0.64678 0.23846 0.0
H1838 H 0.49838 0.67565 0.14793 0.0
H1839 H 0.53838 0.61719 0.19927 0.0
H1840 H 0.51153 0.55749 0.13426 0.0
H1841 H 0.51038 0.58926 0.17177 0.0
H1842 H 0.52901 0.65459 0.11644 0.0
H1843 H 0.5295 0.62274 0.0785 0.0
C1844 C 0.50306 0.68641 0.18988 0.0
C1845 C 0.51172 0.67833 0.21588 0.0
C1846 C 0.50638 0.66932 0.16742 0.0
C1847 C 0.51857 0.64384 0.17046 0.0
C1848 C 0.52833 0.63637 0.19629 0.0
C1849 C 0.52483 0.65336 0.21874 0.0
C1850 C 0.51551 0.57859 0.12996 0.0
C1851 C 0.52062 0.58747 0.10324 0.0
C1852 C 0.51503 0.59684 0.15161 0.0
C1853 C 0.51981 0.62451 0.14723 0.0
C1854 C 0.525 0.63346 0.12053 0.0
C1855 C 0.52536 0.61516 0.09877 0.0
H1856 H 0.34235 0.48158 0.21201 0.0
H1857 H 0.30547 0.53798 0.15632 0.0
H1858 H 0.38245 0.48012 0.18291 0.0
H1859 H 0.34518 0.53671 0.12759 0.0
H1860 H 0.40108 0.5012 0.06517 0.0
H1861 H 0.36449 0.50287 0.09753 0.0
H1862 H 0.42104 0.50696 0.16396 0.0
H1863 H 0.45821 0.50495 0.13134 0.0
C1864 C 0.34296 0.49391 0.19379 0.0
C1865 C 0.32058 0.50951 0.18619 0.0
C1866 C 0.36589 0.4931 0.17714 0.0
C1867 C 0.36681 0.50792 0.15265 0.0
C1868 C 0.34488 0.52448 0.1459 0.0
C1869 C 0.32212 0.52524 0.1624 0.0
C1870 C 0.40595 0.50244 0.08662 0.0
C1871 C 0.43278 0.50316 0.0955 0.0
C1872 C 0.38483 0.50354 0.10524 0.0
C1873 C 0.38978 0.50544 0.13334 0.0
C1874 C 0.41655 0.50546 0.14244 0.0
C1875 C 0.43784 0.5044 0.1237 0.0
H1876 H 0.82398 0.47725 0.69045 0.0
H1877 H 0.86357 0.54813 0.72223 0.0
H1878 H 0.85272 0.47883 0.65008 0.0
H1879 H 0.89221 0.54972 0.682 0.0
H1880 H 0.96233 0.51865 0.63073 0.0
H1881 H 0.92909 0.52097 0.66666 0.0
H1882 H 0.86633 0.50439 0.60846 0.0
H1883 H 0.89987 0.5017 0.57208 0.0
C1884 C 0.83839 0.49352 0.68854 0.0
C1885 C 0.84172 0.51236 0.70972 0.0
C1886 C 0.85488 0.49441 0.66542 0.0
C1887 C 0.87505 0.51415 0.66302 0.0
C1888 C 0.87729 0.53388 0.6835 0.0
C1889 C 0.86085 0.533 0.70654 0.0
C1890 C 0.94149 0.51547 0.62539 0.0
C1891 C 0.93389 0.50991 0.59837 0.0
C1892 C 0.92235 0.51707 0.64607 0.0
C1893 C 0.895 0.51309 0.64044 0.0
C1894 C 0.88726 0.50746 0.61347 0.0
C1895 C 0.90649 0.50603 0.59262 0.0
H1896 H 0.46091 0.80163 0.66698 0.0
H1897 H 0.54105 0.81267 0.69872 0.0
H1898 H 0.46731 0.84 0.63671 0.0
H1899 H 0.547 0.85183 0.66883 0.0
H1900 H 0.53156 0.93731 0.62833 0.0
H1901 H 0.52688 0.89978 0.66065 0.0
H1902 H 0.49738 0.84878 0.596 0.0
H1903 H 0.50199 0.88583 0.56385 0.0
C1904 C 0.47998 0.81208 0.66742 0.0
C1905 C 0.50059 0.8037 0.68511 0.0
C1906 C 0.48356 0.8342 0.65016 0.0
C1907 C 0.50771 0.84879 0.6503 0.0
C1908 C 0.5281 0.84103 0.66844 0.0
C1909 C 0.52464 0.81862 0.68558 0.0
C1910 C 0.52412 0.91807 0.62103 0.0
C1911 C 0.51715 0.91464 0.59347 0.0
C1912 C 0.5216 0.89658 0.6395 0.0
C1913 C 0.51164 0.87143 0.63084 0.0
C1914 C 0.50485 0.86801 0.60331 0.0
C1915 C 0.50768 0.88927 0.58485 0.0
H1916 H 0.17014 0.54541 0.72653 0.0
H1917 H 0.22201 0.48629 0.68904 0.0
H1918 H 0.14059 0.54407 0.68715 0.0
H1919 H 0.19204 0.48462 0.64935 0.0
H1920 H 0.13995 0.50765 0.57359 0.0
H1921 H 0.1731 0.51053 0.61017 0.0
H1922 H 0.10923 0.51088 0.66962 0.0
H1923 H 0.07625 0.50843 0.63348 0.0
C1924 C 0.17522 0.53214 0.70975 0.0
C1925 C 0.19814 0.51565 0.711 0.0
C1926 C 0.15824 0.53129 0.68723 0.0
C1927 C 0.16365 0.51384 0.66533 0.0
C1928 C 0.18733 0.49829 0.6659 0.0
C1929 C 0.20447 0.49922 0.68856 0.0
C1930 C 0.13296 0.50831 0.59447 0.0
C1931 C 0.10531 0.50797 0.60047 0.0
C1932 C 0.15201 0.50984 0.61542 0.0
C1933 C 0.14383 0.51122 0.6428 0.0
C1934 C 0.11624 0.51041 0.64874 0.0
C1935 C 0.09728 0.50884 0.62792 0.0
H1936 H 0.4851 0.1526 0.72919 0.0
H1937 H 0.54084 0.20676 0.6898 0.0
H1938 H 0.48688 0.12246 0.69011 0.0
H1939 H 0.54289 0.17625 0.65043 0.0
H1940 H 0.51894 0.1239 0.57552 0.0
H1941 H 0.51644 0.15677 0.61243 0.0
H1942 H 0.52033 0.09193 0.67124 0.0
H1943 H 0.52238 0.05906 0.63461 0.0
C1944 C 0.49775 0.15803 0.71208 0.0
C1945 C 0.51312 0.1818 0.71264 0.0
C1946 C 0.49886 0.14072 0.68975 0.0
C1947 C 0.51541 0.1467 0.66739 0.0
C1948 C 0.52992 0.17111 0.66736 0.0
C1949 C 0.52875 0.18857 0.68982 0.0
C1950 C 0.51932 0.1166 0.59631 0.0
C1951 C 0.52067 0.08871 0.60201 0.0
C1952 C 0.51801 0.13551 0.61746 0.0
C1953 C 0.51794 0.12696 0.64474 0.0
C1954 C 0.51982 0.09916 0.65042 0.0
C1955 C 0.52114 0.08028 0.62935 0.0
H1956 H 0.82585 0.53678 0.33009 0.0
H1957 H 0.86316 0.46381 0.30015 0.0
H1958 H 0.85548 0.53595 0.36982 0.0
H1959 H 0.89277 0.46309 0.33962 0.0
H1960 H 0.96416 0.49307 0.38996 0.0
H1961 H 0.9308 0.49134 0.35393 0.0
H1962 H 0.86858 0.51081 0.41191 0.0
H1963 H 0.90208 0.51284 0.4482 0.0
C1964 C 0.83996 0.52026 0.33226 0.0
C1965 C 0.84235 0.50054 0.31176 0.0
C1966 C 0.857 0.51983 0.35499 0.0
C1967 C 0.8768 0.4997 0.35766 0.0
C1968 C 0.87817 0.47923 0.33787 0.0
C1969 C 0.86114 0.47961 0.31528 0.0
C1970 C 0.94341 0.49704 0.39516 0.0
C1971 C 0.93592 0.50312 0.42209 0.0
C1972 C 0.9242 0.49581 0.37446 0.0
C1973 C 0.89696 0.50076 0.38005 0.0
C1974 C 0.88941 0.50702 0.40691 0.0
C1975 C 0.90863 0.50804 0.42773 0.0
H1976 H 0.47346 0.85556 0.29786 0.0
H1977 H 0.53904 0.80745 0.32879 0.0
H1978 H 0.47743 0.88594 0.33658 0.0
H1979 H 0.54305 0.83808 0.36788 0.0
H1980 H 0.52257 0.88798 0.44598 0.0
H1981 H 0.51882 0.85488 0.40936 0.0
H1982 H 0.51092 0.91959 0.35085 0.0
H1983 H 0.5143 0.95268 0.38721 0.0
C1984 C 0.48873 0.85148 0.31302 0.0
C1985 C 0.5062 0.82937 0.31012 0.0
C1986 C 0.49105 0.86893 0.33514 0.0
C1987 C 0.51086 0.86468 0.355 0.0
C1988 C 0.52758 0.84184 0.35286 0.0
C1989 C 0.52527 0.8243 0.33057 0.0
C1990 C 0.52009 0.89521 0.42531 0.0
C1991 C 0.51855 0.92309 0.41964 0.0
C1992 C 0.51809 0.87619 0.40433 0.0
C1993 C 0.51433 0.88462 0.37729 0.0
C1994 C 0.51333 0.91245 0.37157 0.0
C1995 C 0.51544 0.93145 0.39245 0.0
H1996 H 0.24356 0.49359 0.36881 0.0
H1997 H 0.19307 0.52709 0.30592 0.0
H1998 H 0.20452 0.48778 0.39813 0.0
H1999 H 0.15394 0.52218 0.33556 0.0
H2000 H 0.08529 0.49381 0.39146 0.0
H2001 H 0.12274 0.4933 0.35918 0.0
H2002 H 0.17674 0.51683 0.42376 0.0
H2003 H 0.13995 0.51661 0.4558 0.0
C2004 C 0.22404 0.49962 0.36125 0.0
C2005 C 0.22139 0.51099 0.33519 0.0
C2006 C 0.20164 0.49647 0.37809 0.0
C2007 C 0.17604 0.50498 0.36948 0.0
C2008 C 0.17324 0.51523 0.34287 0.0
C2009 C 0.19567 0.5181 0.32587 0.0
C2010 C 0.10519 0.49882 0.39872 0.0
C2011 C 0.10952 0.50506 0.42633 0.0
C2012 C 0.12666 0.49859 0.38019 0.0
C2013 C 0.15292 0.50471 0.38885 0.0
C2014 C 0.15703 0.51128 0.41639 0.0
C2015 C 0.13574 0.51134 0.43482 0.0
H2016 H 0.49796 0.23232 0.37566 0.0
H2017 H 0.50332 0.17976 0.30557 0.0
H2018 H 0.50601 0.19404 0.40543 0.0
H2019 H 0.5136 0.14186 0.33522 0.0
H2020 H 0.49747 0.07437 0.3971 0.0
H2021 H 0.49288 0.11235 0.36586 0.0
H2022 H 0.53706 0.16297 0.4219 0.0
H2023 H 0.54037 0.12529 0.4536 0.0
C2024 C 0.50108 0.21266 0.36653 0.0
C2025 C 0.49972 0.20926 0.33812 0.0
C2026 C 0.50616 0.19066 0.38365 0.0
C2027 C 0.51044 0.16465 0.37286 0.0
C2028 C 0.50995 0.16142 0.34439 0.0
C2029 C 0.5045 0.18336 0.32728 0.0
C2030 C 0.50636 0.09358 0.40259 0.0
C2031 C 0.51909 0.09691 0.42787 0.0
C2032 C 0.50387 0.1154 0.38462 0.0
C2033 C 0.51446 0.14096 0.3913 0.0
C2034 C 0.52804 0.14388 0.41625 0.0
C2035 C 0.53011 0.12221 0.4344 0.0
H2036 H 0.71297 0.81893 0.48451 0.0
H2037 H 0.67876 0.80407 0.56403 0.0
H2038 H 0.68341 0.85831 0.47918 0.0
H2039 H 0.64901 0.84252 0.55824 0.0
H2040 H 0.57698 0.88695 0.52251 0.0
H2041 H 0.6098 0.85085 0.52609 0.0
H2042 H 0.67258 0.90578 0.50171 0.0
H2043 H 0.63952 0.94248 0.49816 0.0
C2044 C 0.69939 0.8241 0.50092 0.0
C2045 C 0.69798 0.80788 0.52449 0.0
C2046 C 0.68245 0.84664 0.49783 0.0
C2047 C 0.66363 0.85326 0.51813 0.0
C2048 C 0.6629 0.83763 0.54199 0.0
C2049 C 0.67991 0.81543 0.5452 0.0
C2050 C 0.59771 0.89151 0.51772 0.0
C2051 C 0.60552 0.91778 0.5101 0.0
C2052 C 0.61657 0.87075 0.51994 0.0
C2053 C 0.6438 0.87549 0.51434 0.0
C2054 C 0.6517 0.90153 0.50607 0.0
C2055 C 0.63278 0.92254 0.5042 0.0
H2056 H 0.67863 0.20789 0.45613 0.0
H2057 H 0.71335 0.19246 0.53527 0.0
H2058 H 0.64899 0.16937 0.46184 0.0
H2059 H 0.68389 0.15303 0.54053 0.0
H2060 H 0.63993 0.06906 0.52184 0.0
H2061 H 0.67295 0.10576 0.51805 0.0
H2062 H 0.60999 0.16065 0.49393 0.0
H2063 H 0.57725 0.12455 0.49774 0.0
C2064 C 0.67992 0.19639 0.47486 0.0
C2065 C 0.6981 0.20381 0.49549 0.0
C2066 C 0.66297 0.17415 0.47803 0.0
C2067 C 0.66386 0.15834 0.50176 0.0
C2068 C 0.6828 0.16483 0.52197 0.0
C2069 C 0.69968 0.18741 0.51892 0.0
C2070 C 0.63316 0.08898 0.51579 0.0
C2071 C 0.60587 0.09375 0.51008 0.0
C2072 C 0.65205 0.11001 0.51379 0.0
C2073 C 0.64408 0.13605 0.50555 0.0
C2074 C 0.61682 0.14076 0.50006 0.0
C2075 C 0.598 0.12 0.50242 0.0
H2076 H 0.81976 0.68434 0.48515 0.0
H2077 H 0.87436 0.72248 0.54142 0.0
H2078 H 0.84863 0.64401 0.48431 0.0
H2079 H 0.90279 0.68259 0.54081 0.0
H2080 H 0.96484 0.62628 0.50637 0.0
H2081 H 0.93267 0.66284 0.50741 0.0
H2082 H 0.86767 0.60537 0.5116 0.0
H2083 H 0.90018 0.56814 0.51019 0.0
C2084 C 0.8377 0.68398 0.49757 0.0
C2085 C 0.84504 0.7068 0.51294 0.0
C2086 C 0.85422 0.6609 0.49713 0.0
C2087 C 0.87833 0.66024 0.51209 0.0
C2088 C 0.88481 0.68262 0.52844 0.0
C2089 C 0.86846 0.70552 0.52882 0.0
C2090 C 0.94375 0.62115 0.50749 0.0
C2091 C 0.93528 0.59402 0.50841 0.0
C2092 C 0.92522 0.64229 0.50824 0.0
C2093 C 0.89755 0.63713 0.50998 0.0
C2094 C 0.88885 0.61006 0.51021 0.0
C2095 C 0.90752 0.58872 0.50952 0.0
H2096 H 0.34141 0.80862 0.53846 0.0
H2097 H 0.30885 0.85183 0.46957 0.0
H2098 H 0.38135 0.83744 0.53721 0.0
H2099 H 0.34854 0.88046 0.46829 0.0
H2100 H 0.40113 0.94924 0.49915 0.0
H2101 H 0.36513 0.91638 0.49753 0.0
H2102 H 0.42197 0.85192 0.51124 0.0
H2103 H 0.45842 0.8851 0.51326 0.0
C2104 C 0.343 0.82388 0.52271 0.0
C2105 C 0.32173 0.82814 0.50436 0.0
C2106 C 0.36589 0.84044 0.52201 0.0
C2107 C 0.36799 0.86161 0.50294 0.0
C2108 C 0.34734 0.86481 0.48369 0.0
C2109 C 0.32458 0.84834 0.48438 0.0
C2110 C 0.40616 0.9281 0.50185 0.0
C2111 C 0.43285 0.91995 0.50634 0.0
C2112 C 0.38541 0.90916 0.50067 0.0
C2113 C 0.3906 0.88142 0.50401 0.0
C2114 C 0.41724 0.87314 0.50867 0.0
C2115 C 0.43816 0.89216 0.50968 0.0
H2116 H 0.20663 0.31272 0.53817 0.0
H2117 H 0.2247 0.34955 0.46048 0.0
H2118 H 0.16668 0.34154 0.5422 0.0
H2119 H 0.18547 0.37838 0.46482 0.0
H2120 H 0.13887 0.44931 0.49957 0.0
H2121 H 0.17506 0.41676 0.49657 0.0
H2122 H 0.12067 0.3526 0.51883 0.0
H2123 H 0.08383 0.38551 0.52197 0.0
C2124 C 0.20201 0.32672 0.52187 0.0
C2125 C 0.21925 0.32916 0.49925 0.0
C2126 C 0.17913 0.3432 0.52419 0.0
C2127 C 0.17317 0.36249 0.50401 0.0
C2128 C 0.18983 0.36412 0.48099 0.0
C2129 C 0.21243 0.34765 0.47859 0.0
C2130 C 0.13441 0.42833 0.50399 0.0
C2131 C 0.10826 0.42012 0.51097 0.0
C2132 C 0.15524 0.40961 0.50208 0.0
C2133 C 0.15071 0.38208 0.50725 0.0
C2134 C 0.12476 0.37372 0.51479 0.0
C2135 C 0.10366 0.39254 0.51643 0.0
H2136 H 0.30695 0.15339 0.47766 0.0
H2137 H 0.34077 0.2062 0.53859 0.0
H2138 H 0.34682 0.12521 0.47934 0.0
H2139 H 0.38118 0.17766 0.54027 0.0
H2140 H 0.45844 0.12735 0.51425 0.0
H2141 H 0.42132 0.15999 0.51274 0.0
H2142 H 0.36453 0.09419 0.51401 0.0
H2143 H 0.40091 0.06192 0.5153 0.0
C2144 C 0.32292 0.15896 0.49152 0.0
C2145 C 0.3204 0.18176 0.50841 0.0
C2146 C 0.34583 0.14279 0.49246 0.0
C2147 C 0.36701 0.14888 0.5103 0.0
C2148 C 0.3652 0.17243 0.52631 0.0
C2149 C 0.34208 0.18874 0.52537 0.0
C2150 C 0.43802 0.11988 0.5143 0.0
C2151 C 0.43285 0.09187 0.5146 0.0
C2152 C 0.41677 0.1386 0.51354 0.0
C2153 C 0.38997 0.12968 0.51287 0.0
C2154 C 0.38492 0.10178 0.51391 0.0
C2155 C 0.40595 0.08321 0.51477 0.0
H2156 H 0.81978 0.32731 0.53448 0.0
H2157 H 0.87488 0.28902 0.47869 0.0
H2158 H 0.84868 0.36757 0.53552 0.0
H2159 H 0.90336 0.32883 0.47954 0.0
H2160 H 0.96509 0.3853 0.51432 0.0
H2161 H 0.93299 0.34871 0.51304 0.0
H2162 H 0.86794 0.40616 0.50835 0.0
H2163 H 0.90037 0.4434 0.51 0.0
C2164 C 0.83784 0.32761 0.52221 0.0
C2165 C 0.84529 0.30475 0.50692 0.0
C2166 C 0.85438 0.35066 0.52277 0.0
C2167 C 0.87864 0.35127 0.50801 0.0
C2168 C 0.88526 0.32885 0.49176 0.0
C2169 C 0.86888 0.30598 0.49124 0.0
C2170 C 0.944 0.39041 0.51303 0.0
C2171 C 0.9355 0.41754 0.51205 0.0
C2172 C 0.92551 0.36925 0.51215 0.0
C2173 C 0.89783 0.37439 0.51021 0.0
C2174 C 0.8891 0.40147 0.50989 0.0
C2175 C 0.90774 0.42281 0.51071 0.0
H2176 H 0.24189 0.64919 0.49986 0.0
H2177 H 0.19166 0.7121 0.53307 0.0
H2178 H 0.20287 0.62002 0.49484 0.0
H2179 H 0.15246 0.68258 0.52889 0.0
H2180 H 0.08377 0.62613 0.50061 0.0
H2181 H 0.12097 0.65852 0.50025 0.0
H2182 H 0.17534 0.59494 0.52469 0.0
H2183 H 0.13884 0.56286 0.52439 0.0
C2184 C 0.22242 0.65679 0.50603 0.0
C2185 C 0.2199 0.68283 0.51709 0.0
C2186 C 0.20002 0.64002 0.50332 0.0
C2187 C 0.17446 0.64866 0.51197 0.0
C2188 C 0.17173 0.67523 0.52189 0.0
C2189 C 0.1942 0.69216 0.52433 0.0
C2190 C 0.10369 0.61913 0.50589 0.0
C2191 C 0.10822 0.59176 0.51229 0.0
C2192 C 0.12503 0.63772 0.50575 0.0
C2193 C 0.15135 0.62936 0.51207 0.0
C2194 C 0.15561 0.6021 0.51894 0.0
C2195 C 0.13447 0.58362 0.51895 0.0
loop_
_geom_bond_atom_site_label_1
_geom_bond_atom_site_label_2
_geom_bond_distance
_geom_bond_site_symmetry_2
_ccdc_geom_bond_type
H0 C1 0.949 . S
C1 H0 0.949 . S
C1 C2 1.395 . S
C1 C3 1.391 . S
C2 C1 1.395 . S
C2 C5 1.390 . S
C3 C1 1.391 . S
C3 C7 1.387 . S
C3 C8 1.491 1_455 S
H4 C5 0.950 . S
C5 C2 1.390 . S
C5 H4 0.950 . S
C5 C6 1.378 . S
C6 C5 1.378 . S
C6 C7 1.409 . S
C7 C3 1.387 . S
C7 C6 1.409 . S
C7 H9 0.951 . S
C8 C3 1.491 1_655 S
C8 C10 1.382 1_655 S
C8 C12 1.404 . S
H9 C7 0.951 . S
C10 C8 1.382 1_455 S
C10 C11 1.390 . S
C10 H15 0.949 . S
C11 C10 1.390 . S
C11 C16 1.399 1_455 S
C12 C8 1.404 . S
C12 H13 0.950 . S
C12 C14 1.375 . S
H13 C12 0.950 . S
C14 C12 1.375 . S
C14 C16 1.382 . S
C14 H18 0.950 . S
H15 C10 0.949 . S
C16 C11 1.399 1_655 S
C16 C14 1.382 . S
C16 H17 0.952 . S
H17 C16 0.952 . S
H18 C14 0.950 . S
H19 C20 0.949 . S
C20 H19 0.949 . S
C20 C21 1.395 . S
C20 C22 1.391 . S
C21 C20 1.395 . S
C21 C24 1.390 1_545 S
C22 C20 1.391 . S
C22 C26 1.387 . S
C22 C27 1.491 . S
H23 C24 0.950 . S
C24 C21 1.390 1_565 S
C24 H23 0.950 . S
C24 C25 1.377 1_565 S
C25 C24 1.377 1_545 S
C25 C26 1.413 . S
C26 C22 1.387 . S
C26 C25 1.413 . S
C26 H28 0.951 . S
C27 C22 1.491 . S
C27 C29 1.382 . S
C27 C31 1.404 . S
H28 C26 0.951 . S
C29 C27 1.382 . S
C29 C30 1.390 . S
C29 H34 0.949 1_545 S
C30 C29 1.390 . S
C30 C35 1.399 . S
C31 C27 1.404 . S
C31 H32 0.950 . S
C31 C33 1.375 . S
H32 C31 0.950 . S
C33 C31 1.375 . S
C33 C35 1.382 . S
C33 H37 0.950 . S
H34 C29 0.949 1_565 S
C35 C30 1.399 . S
C35 C33 1.382 . S
C35 H36 0.952 . S
H36 C35 0.952 . S
H37 C33 0.950 . S
H38 C39 0.949 . S
C39 H38 0.949 . S
C39 C40 1.395 . S
C39 C41 1.391 . S
C40 C39 1.395 . S
C40 C43 1.390 . S
C41 C39 1.391 . S
C41 C45 1.387 . S
C41 C46 1.488 1_455 S
H42 C43 0.950 . S
C43 C40 1.390 . S
C43 H42 0.950 . S
C43 C44 1.378 . S
C44 C43 1.378 . S
C44 C45 1.409 . S
C45 C41 1.387 . S
C45 C44 1.409 . S
C45 H47 0.951 . S
C46 C41 1.488 1_655 S
C46 C48 1.374 1_655 S
C46 C50 1.416 . S
H47 C45 0.951 . S
C48 C46 1.374 1_455 S
C48 C49 1.390 . S
C48 H53 0.949 . S
C49 C48 1.390 . S
C49 C54 1.399 1_455 S
C50 C46 1.416 . S
C50 H51 0.950 . S
C50 C52 1.375 . S
H51 C50 0.950 . S
C52 C50 1.375 . S
C52 C54 1.382 . S
C52 H56 0.950 . S
H53 C48 0.949 . S
C54 C49 1.399 1_655 S
C54 C52 1.382 . S
C54 H55 0.952 . S
H55 C54 0.952 . S
H56 C52 0.950 . S
H57 C58 0.949 . S
C58 H57 0.949 . S
C58 C59 1.394 . S
C58 C60 1.391 . S
C59 C58 1.394 . S
C59 C62 1.391 1_565 S
C60 C58 1.391 . S
C60 C64 1.387 . S
C60 C65 1.491 . S
H61 C62 0.950 . S
C62 C59 1.391 1_545 S
C62 H61 0.950 . S
C62 C63 1.377 1_545 S
C63 C62 1.377 1_565 S
C63 C64 1.411 . S
C64 C60 1.387 . S
C64 C63 1.411 . S
C64 H66 0.951 . S
C65 C60 1.491 . S
C65 C67 1.382 . S
C65 C69 1.404 . S
H66 C64 0.951 . S
C67 C65 1.382 . S
C67 C68 1.390 . S
C67 H72 0.949 1_565 S
C68 C67 1.390 . S
C68 C73 1.399 . S
C69 C65 1.404 . S
C69 H70 0.950 . S
C69 C71 1.375 . S
H70 C69 0.950 . S
C71 C69 1.375 . S
C71 C73 1.382 . S
C71 H75 0.950 . S
H72 C67 0.949 1_545 S
C73 C68 1.399 . S
C73 C71 1.382 . S
C73 H74 0.952 . S
H74 C73 0.952 . S
H75 C71 0.950 . S
H76 C77 0.949 . S
C77 H76 0.949 . S
C77 C78 1.395 . S
C77 C79 1.391 . S
C78 C77 1.395 . S
C78 C81 1.390 . S
C79 C77 1.391 . S
C79 C83 1.387 . S
C79 C84 1.482 1_455 S
H80 C81 0.950 . S
C81 C78 1.390 . S
C81 H80 0.950 . S
C81 C82 1.378 . S
C82 C81 1.378 . S
C82 C83 1.409 . S
C83 C79 1.387 . S
C83 C82 1.409 . S
C83 H85 0.951 . S
C84 C79 1.482 1_655 S
C84 C86 1.364 1_655 S
C84 C88 1.432 . S
H85 C83 0.951 . S
C86 C84 1.364 1_455 S
C86 C87 1.390 . S
C86 H91 0.949 . S
C87 C86 1.390 . S
C87 C92 1.399 1_455 S
C88 C84 1.432 . S
C88 H89 0.950 . S
C88 C90 1.375 . S
H89 C88 0.950 . S
C90 C88 1.375 . S
C90 C92 1.382 . S
C90 H94 0.950 . S
H91 C86 0.949 . S
C92 C87 1.399 1_655 S
C92 C90 1.382 . S
C92 H93 0.952 . S
H93 C92 0.952 . S
H94 C90 0.950 . S
H95 C96 0.949 . S
C96 H95 0.949 . S
C96 C97 1.395 . S
C96 C98 1.391 . S
C97 C96 1.395 . S
C97 C100 1.389 1_545 S
C98 C96 1.391 . S
C98 C102 1.387 . S
C98 C103 1.491 . S
H99 C100 0.954 . S
C100 C97 1.389 1_565 S
C100 H99 0.954 . S
C100 C101 1.376 1_565 S
C101 C100 1.376 1_545 S
C101 C102 1.409 . S
C102 C98 1.387 . S
C102 C101 1.409 . S
C102 H104 0.951 . S
C103 C98 1.491 . S
C103 C105 1.382 . S
C103 C107 1.404 . S
H104 C102 0.951 . S
C105 C103 1.382 . S
C105 C106 1.390 . S
C105 H110 0.949 1_545 S
C106 C105 1.390 . S
C106 C111 1.399 . S
C107 C103 1.404 . S
C107 H108 0.950 . S
C107 C109 1.375 . S
H108 C107 0.950 . S
C109 C107 1.375 . S
C109 C111 1.382 . S
C109 H113 0.950 . S
H110 C105 0.949 1_565 S
C111 C106 1.399 . S
C111 C109 1.382 . S
C111 H112 0.952 . S
H112 C111 0.952 . S
H113 C109 0.950 . S
H114 C115 0.949 . S
C115 H114 0.949 . S
C115 C116 1.395 . S
C115 C117 1.391 . S
C116 C115 1.395 . S
C116 C119 1.390 . S
C117 C115 1.391 . S
C117 C121 1.387 . S
C117 C122 1.491 . S
H118 C119 0.950 . S
C119 C116 1.390 . S
C119 H118 0.950 . S
C119 C120 1.378 . S
C120 C119 1.378 . S
C120 C121 1.409 . S
C121 C117 1.387 . S
C121 C120 1.409 . S
C121 H123 0.951 . S
C122 C117 1.491 . S
C122 C124 1.382 . S
C122 C126 1.404 1_455 S
H123 C121 0.951 . S
C124 C122 1.382 . S
C124 C125 1.390 . S
C124 H129 0.949 . S
C125 C124 1.390 . S
C125 C130 1.399 1_455 S
C126 C122 1.404 1_655 S
C126 H127 0.950 . S
C126 C128 1.375 . S
H127 C126 0.950 . S
C128 C126 1.375 . S
C128 C130 1.382 . S
C128 H132 0.950 . S
H129 C124 0.949 . S
C130 C125 1.399 1_655 S
C130 C128 1.382 . S
C130 H131 0.952 . S
H131 C130 0.952 . S
H132 C128 0.950 . S
H133 C134 0.949 . S
C134 H133 0.949 . S
C134 C135 1.395 . S
C134 C136 1.391 . S
C135 C134 1.395 . S
C135 C138 1.389 1_545 S
C136 C134 1.391 . S
C136 C140 1.387 . S
C136 C141 1.491 . S
H137 C138 0.955 . S
C138 C135 1.389 1_565 S
C138 H137 0.955 . S
C138 C139 1.376 1_565 S
C139 C138 1.376 1_545 S
C139 C140 1.409 . S
C140 C136 1.387 . S
C140 C139 1.409 . S
C140 H142 0.951 . S
C141 C136 1.491 . S
C141 C143 1.382 . S
C141 C145 1.404 . S
H142 C140 0.951 . S
C143 C141 1.382 . S
C143 C144 1.390 . S
C143 H148 0.949 1_545 S
C144 C143 1.390 . S
C144 C149 1.399 . S
C145 C141 1.404 . S
C145 H146 0.950 . S
C145 C147 1.375 . S
H146 C145 0.950 . S
C147 C145 1.375 . S
C147 C149 1.382 . S
C147 H151 0.950 . S
H148 C143 0.949 1_565 S
C149 C144 1.399 . S
C149 C147 1.382 . S
C149 H150 0.952 . S
H150 C149 0.952 . S
H151 C147 0.950 . S
H152 C153 0.949 . S
C153 H152 0.949 . S
C153 C154 1.395 . S
C153 C155 1.391 . S
C154 C153 1.395 . S
C154 C157 1.390 . S
C155 C153 1.391 . S
C155 C159 1.387 . S
C155 C160 1.491 . S
H156 C157 0.950 . S
C157 C154 1.390 . S
C157 H156 0.950 . S
C157 C158 1.378 . S
C158 C157 1.378 . S
C158 C159 1.409 . S
C159 C155 1.387 . S
C159 C158 1.409 . S
C159 H161 0.951 . S
C160 C155 1.491 . S
C160 C162 1.382 . S
C160 C164 1.404 . S
H161 C159 0.951 . S
C162 C160 1.382 . S
C162 C163 1.390 . S
C162 H167 0.949 1_554 S
C163 C162 1.390 . S
C163 C168 1.399 . S
C164 C160 1.404 . S
C164 H165 0.950 . S
C164 C166 1.375 . S
H165 C164 0.950 . S
C166 C164 1.375 . S
C166 C168 1.382 . S
C166 H170 0.950 . S
H167 C162 0.949 1_556 S
C168 C163 1.399 . S
C168 C166 1.382 . S
C168 H169 0.952 . S
H169 C168 0.952 . S
H170 C166 0.950 . S
H171 C172 0.949 . S
C172 H171 0.949 . S
C172 C173 1.395 . S
C172 C174 1.393 . S
C173 C172 1.395 . S
C173 C176 1.390 . S
C174 C172 1.393 . S
C174 C178 1.389 . S
C174 C179 1.487 1_554 S
H175 C176 0.950 . S
C176 C173 1.390 . S
C176 H175 0.950 . S
C176 C177 1.378 . S
C177 C176 1.378 . S
C177 C178 1.409 . S
C178 C174 1.389 . S
C178 C177 1.409 . S
C178 H180 0.951 . S
C179 C174 1.487 1_556 S
C179 C181 1.382 1_556 S
C179 C183 1.404 . S
H180 C178 0.951 . S
C181 C179 1.382 1_554 S
C181 C182 1.386 1_554 S
C181 H186 0.949 . S
C182 C181 1.386 1_556 S
C182 C187 1.411 . S
C183 C179 1.404 . S
C183 H184 0.950 . S
C183 C185 1.375 . S
H184 C183 0.950 . S
C185 C183 1.375 . S
C185 C187 1.382 . S
C185 H189 0.950 . S
H186 C181 0.949 . S
C187 C182 1.411 . S
C187 C185 1.382 . S
C187 H188 0.952 . S
H188 C187 0.952 . S
H189 C185 0.950 . S
H190 C191 0.949 . S
C191 H190 0.949 . S
C191 C192 1.395 . S
C191 C193 1.391 . S
C192 C191 1.395 . S
C192 C195 1.390 . S
C193 C191 1.391 . S
C193 C197 1.387 . S
C193 C198 1.491 . S
H194 C195 0.950 . S
C195 C192 1.390 . S
C195 H194 0.950 . S
C195 C196 1.378 . S
C196 C195 1.378 . S
C196 C197 1.409 . S
C197 C193 1.387 . S
C197 C196 1.409 . S
C197 H199 0.951 . S
C198 C193 1.491 . S
C198 C200 1.382 . S
C198 C202 1.404 . S
H199 C197 0.951 . S
C200 C198 1.382 . S
C200 C201 1.390 . S
C200 H205 0.949 1_554 S
C201 C200 1.390 . S
C201 C206 1.399 . S
C202 C198 1.404 . S
C202 H203 0.950 . S
C202 C204 1.375 . S
H203 C202 0.950 . S
C204 C202 1.375 . S
C204 C206 1.382 . S
C204 H208 0.950 . S
H205 C200 0.949 1_556 S
C206 C201 1.399 . S
C206 C204 1.382 . S
C206 H207 0.952 . S
H207 C206 0.952 . S
H208 C204 0.950 . S
H209 C210 0.949 . S
C210 H209 0.949 . S
C210 C211 1.395 . S
C210 C212 1.392 . S
C211 C210 1.395 . S
C211 C214 1.390 . S
C212 C210 1.392 . S
C212 C216 1.388 . S
C212 C217 1.490 1_554 S
H213 C214 0.950 . S
C214 C211 1.390 . S
C214 H213 0.950 . S
C214 C215 1.378 . S
C215 C214 1.378 . S
C215 C216 1.409 . S
C216 C212 1.388 . S
C216 C215 1.409 . S
C216 H218 0.952 . S
C217 C212 1.490 1_556 S
C217 C219 1.382 1_556 S
C217 C221 1.404 . S
H218 C216 0.952 . S
C219 C217 1.382 1_554 S
C219 C220 1.390 . S
C219 H224 0.949 . S
C220 C219 1.390 . S
C220 C225 1.399 1_554 S
C221 C217 1.404 . S
C221 H222 0.950 . S
C221 C223 1.375 . S
H222 C221 0.950 . S
C223 C221 1.375 . S
C223 C225 1.382 . S
C223 H227 0.950 . S
H224 C219 0.949 . S
C225 C220 1.399 1_556 S
C225 C223 1.382 . S
C225 H226 0.952 . S
H226 C225 0.952 . S
H227 C223 0.950 . S
H228 C229 0.949 . S
C229 H228 0.949 . S
C229 C230 1.395 . S
C229 C231 1.391 . S
C230 C229 1.395 . S
C230 C233 1.390 . S
C231 C229 1.391 . S
C231 C235 1.387 . S
C231 C236 1.491 . S
H232 C233 0.950 . S
C233 C230 1.390 . S
C233 H232 0.950 . S
C233 C234 1.378 . S
C234 C233 1.378 . S
C234 C235 1.409 . S
C235 C231 1.387 . S
C235 C234 1.409 . S
C235 H237 0.951 . S
C236 C231 1.491 . S
C236 C238 1.382 . S
C236 C240 1.404 . S
H237 C235 0.951 . S
C238 C236 1.382 . S
C238 C239 1.390 . S
C238 H243 0.949 . S
C239 C238 1.390 . S
C239 C244 1.399 . S
C240 C236 1.404 . S
C240 H241 0.950 . S
C240 C242 1.375 . S
H241 C240 0.950 . S
C242 C240 1.375 . S
C242 C244 1.382 . S
C242 H246 0.950 . S
H243 C238 0.949 . S
C244 C239 1.399 . S
C244 C242 1.382 . S
C244 H245 0.952 . S
H245 C244 0.952 . S
H246 C242 0.950 . S
H247 C248 0.949 . S
C248 H247 0.949 . S
C248 C249 1.395 . S
C248 C250 1.391 . S
C249 C248 1.395 . S
C249 C252 1.390 . S
C250 C248 1.391 . S
C250 C254 1.387 . S
C250 C255 1.491 . S
H251 C252 0.950 . S
C252 C249 1.390 . S
C252 H251 0.950 . S
C252 C253 1.378 . S
C253 C252 1.378 . S
C253 C254 1.409 . S
C254 C250 1.387 . S
C254 C253 1.409 . S
C254 H256 0.951 . S
C255 C250 1.491 . S
C255 C257 1.382 . S
C255 C259 1.404 . S
H256 C254 0.951 . S
C257 C255 1.382 . S
C257 C258 1.390 . S
C257 H262 0.949 . S
C258 C257 1.390 . S
C258 C263 1.399 . S
C259 C255 1.404 . S
C259 H260 0.950 . S
C259 C261 1.375 . S
H260 C259 0.950 . S
C261 C259 1.375 . S
C261 C263 1.382 . S
C261 H265 0.950 . S
H262 C257 0.949 . S
C263 C258 1.399 . S
C263 C261 1.382 . S
C263 H264 0.952 . S
H264 C263 0.952 . S
H265 C261 0.950 . S
H266 C267 0.949 . S
C267 H266 0.949 . S
C267 C268 1.395 . S
C267 C269 1.391 . S
C268 C267 1.395 . S
C268 C271 1.390 . S
C269 C267 1.391 . S
C269 C273 1.387 . S
C269 C274 1.491 . S
H270 C271 0.950 . S
C271 C268 1.390 . S
C271 H270 0.950 . S
C271 C272 1.378 . S
C272 C271 1.378 . S
C272 C273 1.409 . S
C273 C269 1.387 . S
C273 C272 1.409 . S
C273 H275 0.951 . S
C274 C269 1.491 . S
C274 C276 1.382 . S
C274 C278 1.404 . S
H275 C273 0.951 . S
C276 C274 1.382 . S
C276 C277 1.390 . S
C276 H281 0.949 . S
C277 C276 1.390 . S
C277 C282 1.399 . S
C278 C274 1.404 . S
C278 H279 0.950 . S
C278 C280 1.375 . S
H279 C278 0.950 . S
C280 C278 1.375 . S
C280 C282 1.382 . S
C280 H284 0.950 . S
H281 C276 0.949 . S
C282 C277 1.399 . S
C282 C280 1.382 . S
C282 H283 0.952 . S
H283 C282 0.952 . S
H284 C280 0.950 . S
H285 C286 0.949 . S
C286 H285 0.949 . S
C286 C287 1.395 . S
C286 C288 1.391 . S
C287 C286 1.395 . S
C287 C290 1.390 . S
C288 C286 1.391 . S
C288 C292 1.387 . S
C288 C293 1.491 . S
H289 C290 0.950 . S
C290 C287 1.390 . S
C290 H289 0.950 . S
C290 C291 1.378 . S
C291 C290 1.378 . S
C291 C292 1.409 . S
C292 C288 1.387 . S
C292 C291 1.409 . S
C292 H294 0.951 . S
C293 C288 1.491 . S
C293 C295 1.382 . S
C293 C297 1.404 . S
H294 C292 0.951 . S
C295 C293 1.382 . S
C295 C296 1.390 . S
C295 H300 0.949 . S
C296 C295 1.390 . S
C296 C301 1.399 . S
C297 C293 1.404 . S
C297 H298 0.950 . S
C297 C299 1.375 . S
H298 C297 0.950 . S
C299 C297 1.375 . S
C299 C301 1.382 . S
C299 H303 0.950 . S
H300 C295 0.949 . S
C301 C296 1.399 . S
C301 C299 1.382 . S
C301 H302 0.952 . S
H302 C301 0.952 . S
H303 C299 0.950 . S
H304 C305 0.949 . S
C305 H304 0.949 . S
C305 C306 1.395 . S
C305 C307 1.391 . S
C306 C305 1.395 . S
C306 C309 1.390 . S
C307 C305 1.391 . S
C307 C311 1.387 . S
C307 C312 1.491 . S
H308 C309 0.950 . S
C309 C306 1.390 . S
C309 H308 0.950 . S
C309 C310 1.378 . S
C310 C309 1.378 . S
C310 C311 1.409 . S
C311 C307 1.387 . S
C311 C310 1.409 . S
C311 H313 0.951 . S
C312 C307 1.491 . S
C312 C314 1.382 . S
C312 C316 1.404 . S
H313 C311 0.951 . S
C314 C312 1.382 . S
C314 C315 1.390 . S
C314 H319 0.949 . S
C315 C314 1.390 . S
C315 C320 1.399 . S
C316 C312 1.404 . S
C316 H317 0.950 . S
C316 C318 1.375 . S
H317 C316 0.950 . S
C318 C316 1.375 . S
C318 C320 1.382 . S
C318 H322 0.950 . S
H319 C314 0.949 . S
C320 C315 1.399 . S
C320 C318 1.382 . S
C320 H321 0.952 . S
H321 C320 0.952 . S
H322 C318 0.950 . S
H323 C324 0.949 . S
C324 H323 0.949 . S
C324 C325 1.395 . S
C324 C326 1.391 . S
C325 C324 1.395 . S
C325 C328 1.390 . S
C326 C324 1.391 . S
C326 C330 1.387 . S
C326 C331 1.491 . S
H327 C328 0.950 . S
C328 C325 1.390 . S
C328 H327 0.950 . S
C328 C329 1.378 . S
C329 C328 1.378 . S
C329 C330 1.409 . S
C330 C326 1.387 . S
C330 C329 1.409 . S
C330 H332 0.951 . S
C331 C326 1.491 . S
C331 C333 1.382 . S
C331 C335 1.404 . S
H332 C330 0.951 . S
C333 C331 1.382 . S
C333 C334 1.390 . S
C333 H338 0.949 . S
C334 C333 1.390 . S
C334 C339 1.399 . S
C335 C331 1.404 . S
C335 H336 0.950 . S
C335 C337 1.375 . S
H336 C335 0.950 . S
C337 C335 1.375 . S
C337 C339 1.382 . S
C337 H341 0.950 . S
H338 C333 0.949 . S
C339 C334 1.399 . S
C339 C337 1.382 . S
C339 H340 0.952 . S
H340 C339 0.952 . S
H341 C337 0.950 . S
H342 C343 0.949 . S
C343 H342 0.949 . S
C343 C344 1.395 . S
C343 C345 1.391 . S
C344 C343 1.395 . S
C344 C347 1.390 . S
C345 C343 1.391 . S
C345 C349 1.387 . S
C345 C350 1.491 . S
H346 C347 0.950 . S
C347 C344 1.390 . S
C347 H346 0.950 . S
C347 C348 1.378 . S
C348 C347 1.378 . S
C348 C349 1.409 . S
C349 C345 1.387 . S
C349 C348 1.409 . S
C349 H351 0.951 . S
C350 C345 1.491 . S
C350 C352 1.382 . S
C350 C354 1.404 . S
H351 C349 0.951 . S
C352 C350 1.382 . S
C352 C353 1.390 . S
C352 H357 0.949 . S
C353 C352 1.390 . S
C353 C358 1.399 . S
C354 C350 1.404 . S
C354 H355 0.950 . S
C354 C356 1.375 . S
H355 C354 0.950 . S
C356 C354 1.375 . S
C356 C358 1.382 . S
C356 H360 0.950 . S
H357 C352 0.949 . S
C358 C353 1.399 . S
C358 C356 1.382 . S
C358 H359 0.952 . S
H359 C358 0.952 . S
H360 C356 0.950 . S
H361 C362 0.949 . S
C362 H361 0.949 . S
C362 C363 1.395 . S
C362 C364 1.391 . S
C363 C362 1.395 . S
C363 C366 1.390 . S
C364 C362 1.391 . S
C364 C368 1.387 . S
C364 C369 1.491 . S
H365 C366 0.950 . S
C366 C363 1.390 . S
C366 H365 0.950 . S
C366 C367 1.378 . S
C367 C366 1.378 . S
C367 C368 1.409 . S
C368 C364 1.387 . S
C368 C367 1.409 . S
C368 H370 0.951 . S
C369 C364 1.491 . S
C369 C371 1.382 . S
C369 C373 1.404 . S
H370 C368 0.951 . S
C371 C369 1.382 . S
C371 C372 1.390 . S
C371 H376 0.949 . S
C372 C371 1.390 . S
C372 C377 1.399 . S
C373 C369 1.404 . S
C373 H374 0.950 . S
C373 C375 1.375 . S
H374 C373 0.950 . S
C375 C373 1.375 . S
C375 C377 1.382 . S
C375 H379 0.950 . S
H376 C371 0.949 . S
C377 C372 1.399 . S
C377 C375 1.382 . S
C377 H378 0.952 . S
H378 C377 0.952 . S
H379 C375 0.950 . S
H380 C381 0.949 . S
C381 H380 0.949 . S
C381 C382 1.395 . S
C381 C383 1.391 . S
C382 C381 1.395 . S
C382 C385 1.390 . S
C383 C381 1.391 . S
C383 C387 1.387 . S
C383 C388 1.491 . S
H384 C385 0.950 . S
C385 C382 1.390 . S
C385 H384 0.950 . S
C385 C386 1.378 . S
C386 C385 1.378 . S
C386 C387 1.409 . S
C387 C383 1.387 . S
C387 C386 1.409 . S
C387 H389 0.951 . S
C388 C383 1.491 . S
C388 C390 1.382 . S
C388 C392 1.404 . S
H389 C387 0.951 . S
C390 C388 1.382 . S
C390 C391 1.390 . S
C390 H395 0.949 . S
C391 C390 1.390 . S
C391 C396 1.399 . S
C392 C388 1.404 . S
C392 H393 0.950 . S
C392 C394 1.375 . S
H393 C392 0.950 . S
C394 C392 1.375 . S
C394 C396 1.382 . S
C394 H398 0.950 . S
H395 C390 0.949 . S
C396 C391 1.399 . S
C396 C394 1.382 . S
C396 H397 0.952 . S
H397 C396 0.952 . S
H398 C394 0.950 . S
H399 C400 0.949 . S
C400 H399 0.949 . S
C400 C401 1.395 . S
C400 C402 1.391 . S
C401 C400 1.395 . S
C401 C404 1.390 . S
C402 C400 1.391 . S
C402 C406 1.387 . S
C402 C407 1.491 . S
H403 C404 0.950 . S
C404 C401 1.390 . S
C404 H403 0.950 . S
C404 C405 1.378 . S
C405 C404 1.378 . S
C405 C406 1.409 . S
C406 C402 1.387 . S
C406 C405 1.409 . S
C406 H408 0.951 . S
C407 C402 1.491 . S
C407 C409 1.382 . S
C407 C411 1.404 . S
H408 C406 0.951 . S
C409 C407 1.382 . S
C409 C410 1.390 . S
C409 H414 0.949 . S
C410 C409 1.390 . S
C410 C415 1.399 . S
C411 C407 1.404 . S
C411 H412 0.950 . S
C411 C413 1.375 . S
H412 C411 0.950 . S
C413 C411 1.375 . S
C413 C415 1.382 . S
C413 H417 0.950 . S
H414 C409 0.949 . S
C415 C410 1.399 . S
C415 C413 1.382 . S
C415 H416 0.952 . S
H416 C415 0.952 . S
H417 C413 0.950 . S
H418 C419 0.949 . S
C419 H418 0.949 . S
C419 C420 1.395 . S
C419 C421 1.391 . S
C420 C419 1.395 . S
C420 C423 1.390 . S
C421 C419 1.391 . S
C421 C425 1.387 . S
C421 C426 1.491 . S
H422 C423 0.950 . S
C423 C420 1.390 . S
C423 H422 0.950 . S
C423 C424 1.378 . S
C424 C423 1.378 . S
C424 C425 1.409 . S
C425 C421 1.387 . S
C425 C424 1.409 . S
C425 H427 0.951 . S
C426 C421 1.491 . S
C426 C428 1.382 . S
C426 C430 1.404 . S
H427 C425 0.951 . S
C428 C426 1.382 . S
C428 C429 1.390 . S
C428 H433 0.949 . S
C429 C428 1.390 . S
C429 C434 1.399 . S
C430 C426 1.404 . S
C430 H431 0.950 . S
C430 C432 1.375 . S
H431 C430 0.950 . S
C432 C430 1.375 . S
C432 C434 1.382 . S
C432 H436 0.950 . S
H433 C428 0.949 . S
C434 C429 1.399 . S
C434 C432 1.382 . S
C434 H435 0.952 . S
H435 C434 0.952 . S
H436 C432 0.950 . S
H437 C438 0.949 . S
C438 H437 0.949 . S
C438 C439 1.395 . S
C438 C440 1.391 . S
C439 C438 1.395 . S
C439 C442 1.390 . S
C440 C438 1.391 . S
C440 C444 1.387 . S
C440 C445 1.491 . S
H441 C442 0.950 . S
C442 C439 1.390 . S
C442 H441 0.950 . S
C442 C443 1.378 . S
C443 C442 1.378 . S
C443 C444 1.409 . S
C444 C440 1.387 . S
C444 C443 1.409 . S
C444 H446 0.951 . S
C445 C440 1.491 . S
C445 C447 1.382 . S
C445 C449 1.404 . S
H446 C444 0.951 . S
C447 C445 1.382 . S
C447 C448 1.390 . S
C447 H452 0.949 . S
C448 C447 1.390 . S
C448 C453 1.399 . S
C449 C445 1.404 . S
C449 H450 0.950 . S
C449 C451 1.375 . S
H450 C449 0.950 . S
C451 C449 1.375 . S
C451 C453 1.382 . S
C451 H455 0.950 . S
H452 C447 0.949 . S
C453 C448 1.399 . S
C453 C451 1.382 . S
C453 H454 0.952 . S
H454 C453 0.952 . S
H455 C451 0.950 . S
C456 O482 1.283 . S
C456 O500 1.283 . S
C457 O483 1.283 . S
C457 O498 1.283 . S
C458 O484 1.283 . S
C458 O501 1.283 . S
C459 O485 1.283 . S
C459 O499 1.283 . S
C460 O486 1.283 . S
C460 O495 1.283 . S
C461 O487 1.283 . S
C461 O497 1.283 . S
C462 O488 1.283 . S
C462 O494 1.283 . S
C463 O489 1.283 . S
C463 O496 1.283 . S
C464 O490 1.283 . S
C464 O505 1.283 . S
C465 O491 1.283 . S
C465 O503 1.283 . S
C466 O492 1.283 . S
C466 O504 1.283 . S
C467 O493 1.283 . S
C467 O502 1.283 . S
Eu468 O469 2.370 1_455 S
Eu468 O470 2.370 . S
Eu468 O473 2.370 1_455 S
Eu468 O474 2.370 . S
Eu468 O482 2.363 . S
Eu468 O483 2.363 . S
Eu468 O496 2.363 . S
Eu468 O497 2.363 1_455 S
O469 Eu468 2.370 1_655 S
O469 Eu471 2.359 1_565 S
O469 Eu476 2.360 1_665 S
O470 Eu468 2.370 . S
O470 Eu472 2.359 1_565 S
O470 Eu475 2.357 1_565 S
Eu471 O469 2.359 1_545 S
Eu471 O473 2.359 1_545 S
Eu471 O477 2.382 . S
Eu471 O478 2.382 . S
Eu471 O486 2.382 . S
Eu471 O487 2.344 1_545 S
Eu471 O502 2.363 . S
Eu471 O503 2.363 . S
Eu472 O470 2.359 1_545 S
Eu472 O474 2.359 1_545 S
Eu472 O479 2.382 . S
Eu472 O480 2.382 . S
Eu472 O488 2.382 . S
Eu472 O489 2.344 1_545 S
Eu472 O504 2.363 . S
Eu472 O505 2.363 . S
O473 Eu468 2.370 1_655 S
O473 Eu471 2.359 1_565 S
O473 Eu475 2.357 1_665 S
O474 Eu468 2.370 . S
O474 Eu472 2.359 1_565 S
O474 Eu476 2.360 1_565 S
Eu475 O470 2.357 1_545 S
Eu475 O473 2.357 1_445 S
Eu475 O477 2.383 1_455 S
Eu475 O480 2.383 . S
Eu475 O492 2.363 . S
Eu475 O493 2.363 1_455 S
Eu475 O500 2.341 1_545 S
Eu475 O501 2.385 . S
Eu476 O469 2.360 1_445 S
Eu476 O474 2.360 1_545 S
Eu476 O478 2.380 1_455 S
Eu476 O479 2.380 . S
Eu476 O490 2.363 . S
Eu476 O491 2.363 1_455 S
Eu476 O498 2.346 1_545 S
Eu476 O499 2.380 . S
O477 Eu471 2.382 . S
O477 Eu475 2.383 1_655 S
O477 Eu481 2.370 1_655 S
O478 Eu471 2.382 . S
O478 Eu476 2.380 1_655 S
O478 Eu481 2.370 1_655 S
O479 Eu472 2.382 . S
O479 Eu476 2.380 . S
O479 Eu481 2.370 . S
O480 Eu472 2.382 . S
O480 Eu475 2.383 . S
O480 Eu481 2.370 . S
Eu481 O477 2.370 1_455 S
Eu481 O478 2.370 1_455 S
Eu481 O479 2.370 . S
Eu481 O480 2.370 . S
Eu481 O484 2.363 . S
Eu481 O485 2.363 . S
Eu481 O494 2.363 . S
Eu481 O495 2.363 1_455 S
O482 C456 1.283 . S
O482 Eu468 2.363 . S
O483 C457 1.283 . S
O483 Eu468 2.363 . S
O484 C458 1.283 . S
O484 Eu481 2.363 . S
O485 C459 1.283 . S
O485 Eu481 2.363 . S
O486 C460 1.283 . S
O486 Eu471 2.382 . S
O487 C461 1.283 . S
O487 Eu471 2.344 1_565 S
O488 C462 1.283 . S
O488 Eu472 2.382 . S
O489 C463 1.283 . S
O489 Eu472 2.344 1_565 S
O490 C464 1.283 . S
O490 Eu476 2.363 . S
O491 C465 1.283 . S
O491 Eu476 2.363 1_655 S
O492 C466 1.283 . S
O492 Eu475 2.363 . S
O493 C467 1.283 . S
O493 Eu475 2.363 1_655 S
O494 C462 1.283 . S
O494 Eu481 2.363 . S
O495 C460 1.283 . S
O495 Eu481 2.363 1_655 S
O496 C463 1.283 . S
O496 Eu468 2.363 . S
O497 C461 1.283 . S
O497 Eu468 2.363 1_655 S
O498 C457 1.283 . S
O498 Eu476 2.346 1_565 S
O499 C459 1.283 . S
O499 Eu476 2.380 . S
O500 C456 1.283 . S
O500 Eu475 2.341 1_565 S
O501 C458 1.283 . S
O501 Eu475 2.385 . S
O502 C467 1.283 . S
O502 Eu471 2.363 . S
O503 C465 1.283 . S
O503 Eu471 2.363 . S
O504 C466 1.283 . S
O504 Eu472 2.363 . S
O505 C464 1.283 . S
O505 Eu472 2.363 . S
C506 O532 1.283 . S
C506 O550 1.283 . S
C507 O533 1.283 . S
C507 O548 1.283 . S
C508 O534 1.283 . S
C508 O551 1.283 . S
C509 O535 1.283 . S
C509 O549 1.283 . S
C510 O536 1.283 . S
C510 O545 1.283 . S
C511 O537 1.283 . S
C511 O547 1.283 . S
C512 O538 1.283 . S
C512 O544 1.283 . S
C513 O539 1.283 . S
C513 O546 1.283 . S
C514 O540 1.283 . S
C514 O555 1.283 . S
C515 O541 1.283 . S
C515 O553 1.283 . S
C516 O542 1.283 . S
C516 O554 1.283 . S
C517 O543 1.283 . S
C517 O552 1.283 . S
Eu518 O519 2.379 . S
Eu518 O520 2.361 1_545 S
Eu518 O523 2.361 1_545 S
Eu518 O524 2.379 . S
Eu518 O532 2.348 1_545 S
Eu518 O533 2.378 . S
Eu518 O546 2.363 . S
Eu518 O547 2.363 . S
O519 Eu518 2.379 . S
O519 Eu521 2.381 . S
O519 Eu526 2.370 . S
O520 Eu518 2.361 1_565 S
O520 Eu522 2.359 1_565 S
O520 Eu525 2.370 . S
Eu521 O519 2.381 . S
Eu521 O523 2.359 1_545 S
Eu521 O527 2.359 1_544 S
Eu521 O528 2.381 1_554 S
Eu521 O536 2.363 1_554 S
Eu521 O537 2.363 . S
Eu521 O552 2.344 1_545 S
Eu521 O553 2.382 . S
Eu522 O520 2.359 1_545 S
Eu522 O524 2.381 . S
Eu522 O529 2.381 1_554 S
Eu522 O530 2.359 1_544 S
Eu522 O538 2.363 1_554 S
Eu522 O539 2.363 . S
Eu522 O554 2.344 1_545 S
Eu522 O555 2.382 . S
O523 Eu518 2.361 1_565 S
O523 Eu521 2.359 1_565 S
O523 Eu525 2.370 . S
O524 Eu518 2.379 . S
O524 Eu522 2.381 . S
O524 Eu526 2.370 . S
Eu525 O520 2.370 . S
Eu525 O523 2.370 . S
Eu525 O527 2.370 1_554 S
Eu525 O530 2.370 1_554 S
Eu525 O542 2.363 . S
Eu525 O543 2.363 . S
Eu525 O550 2.363 . S
Eu525 O551 2.363 1_554 S
Eu526 O519 2.370 . S
Eu526 O524 2.370 . S
Eu526 O528 2.370 1_554 S
Eu526 O529 2.370 1_554 S
Eu526 O540 2.363 . S
Eu526 O541 2.363 . S
Eu526 O548 2.363 . S
Eu526 O549 2.363 1_554 S
O527 Eu521 2.359 1_566 S
O527 Eu525 2.370 1_556 S
O527 Eu531 2.357 1_565 S
O528 Eu521 2.381 1_556 S
O528 Eu526 2.370 1_556 S
O528 Eu531 2.383 . S
O529 Eu522 2.381 1_556 S
O529 Eu526 2.370 1_556 S
O529 Eu531 2.383 . S
O530 Eu522 2.359 1_566 S
O530 Eu525 2.370 1_556 S
O530 Eu531 2.357 1_565 S
Eu531 O527 2.357 1_545 S
Eu531 O528 2.383 . S
Eu531 O529 2.383 . S
Eu531 O530 2.357 1_545 S
Eu531 O534 2.340 1_545 S
Eu531 O535 2.385 . S
Eu531 O544 2.363 . S
Eu531 O545 2.363 . S
O532 C506 1.283 . S
O532 Eu518 2.348 1_565 S
O533 C507 1.283 . S
O533 Eu518 2.378 . S
O534 C508 1.283 . S
O534 Eu531 2.340 1_565 S
O535 C509 1.283 . S
O535 Eu531 2.385 . S
O536 C510 1.283 . S
O536 Eu521 2.363 1_556 S
O537 C511 1.283 . S
O537 Eu521 2.363 . S
O538 C512 1.283 . S
O538 Eu522 2.363 1_556 S
O539 C513 1.283 . S
O539 Eu522 2.363 . S
O540 C514 1.283 . S
O540 Eu526 2.363 . S
O541 C515 1.283 . S
O541 Eu526 2.363 . S
O542 C516 1.283 . S
O542 Eu525 2.363 . S
O543 C517 1.283 . S
O543 Eu525 2.363 . S
O544 C512 1.283 . S
O544 Eu531 2.363 . S
O545 C510 1.283 . S
O545 Eu531 2.363 . S
O546 C513 1.283 . S
O546 Eu518 2.363 . S
O547 C511 1.283 . S
O547 Eu518 2.363 . S
O548 C507 1.283 . S
O548 Eu526 2.363 . S
O549 C509 1.283 . S
O549 Eu526 2.363 1_556 S
O550 C506 1.283 . S
O550 Eu525 2.363 . S
O551 C508 1.283 . S
O551 Eu525 2.363 1_556 S
O552 C517 1.283 . S
O552 Eu521 2.344 1_565 S
O553 C515 1.283 . S
O553 Eu521 2.382 . S
O554 C516 1.283 . S
O554 Eu522 2.344 1_565 S
O555 C514 1.283 . S
O555 Eu522 2.382 . S
C556 O582 1.283 . S
C556 O600 1.283 . S
C557 O583 1.283 . S
C557 O598 1.283 . S
C558 O584 1.283 . S
C558 O601 1.283 . S
C559 O585 1.283 . S
C559 O599 1.283 . S
C560 O586 1.283 . S
C560 O595 1.283 . S
C561 O587 1.283 . S
C561 O597 1.283 . S
C562 O588 1.283 . S
C562 O594 1.283 . S
C563 O589 1.283 . S
C563 O596 1.283 . S
C564 O590 1.283 . S
C564 O605 1.283 . S
C565 O591 1.283 . S
C565 O603 1.283 . S
C566 O592 1.283 . S
C566 O604 1.283 . S
C567 O593 1.283 . S
C567 O602 1.283 . S
Eu568 O569 2.370 1_454 S
Eu568 O570 2.370 . S
Eu568 O573 2.370 1_455 S
Eu568 O574 2.370 1_554 S
Eu568 O582 2.363 . S
Eu568 O583 2.363 1_554 S
Eu568 O596 2.363 . S
Eu568 O597 2.363 1_455 S
O569 Eu568 2.370 1_656 S
O569 Eu571 2.370 1_556 S
O569 Eu576 2.370 1_655 S
O570 Eu568 2.370 . S
O570 Eu572 2.370 . S
O570 Eu575 2.370 . S
Eu571 O569 2.370 1_554 S
Eu571 O573 2.370 . S
Eu571 O577 2.370 . S
Eu571 O578 2.370 1_554 S
Eu571 O586 2.363 . S
Eu571 O587 2.363 . S
Eu571 O602 2.363 . S
Eu571 O603 2.363 1_554 S
Eu572 O570 2.370 . S
Eu572 O574 2.370 1_554 S
Eu572 O579 2.370 1_554 S
Eu572 O580 2.370 . S
Eu572 O588 2.363 . S
Eu572 O589 2.363 . S
Eu572 O604 2.363 . S
Eu572 O605 2.363 1_554 S
O573 Eu568 2.370 1_655 S
O573 Eu571 2.370 . S
O573 Eu575 2.370 1_655 S
O574 Eu568 2.370 1_556 S
O574 Eu572 2.370 1_556 S
O574 Eu576 2.370 . S
Eu575 O570 2.370 . S
Eu575 O573 2.370 1_455 S
Eu575 O577 2.370 1_455 S
Eu575 O580 2.370 . S
Eu575 O592 2.363 . S
Eu575 O593 2.363 1_455 S
Eu575 O600 2.363 . S
Eu575 O601 2.363 . S
Eu576 O569 2.370 1_455 S
Eu576 O574 2.370 . S
Eu576 O578 2.370 1_455 S
Eu576 O579 2.370 . S
Eu576 O590 2.363 . S
Eu576 O591 2.363 1_455 S
Eu576 O598 2.363 . S
Eu576 O599 2.363 . S
O577 Eu571 2.370 . S
O577 Eu575 2.370 1_655 S
O577 Eu581 2.370 1_655 S
O578 Eu571 2.370 1_556 S
O578 Eu576 2.370 1_655 S
O578 Eu581 2.370 1_656 S
O579 Eu572 2.370 1_556 S
O579 Eu576 2.370 . S
O579 Eu581 2.370 1_556 S
O580 Eu572 2.370 . S
O580 Eu575 2.370 . S
O580 Eu581 2.370 . S
Eu581 O577 2.370 1_455 S
Eu581 O578 2.370 1_454 S
Eu581 O579 2.370 1_554 S
Eu581 O580 2.370 . S
Eu581 O584 2.363 . S
Eu581 O585 2.363 1_554 S
Eu581 O594 2.363 . S
Eu581 O595 2.363 1_455 S
O582 C556 1.283 . S
O582 Eu568 2.363 . S
O583 C557 1.283 . S
O583 Eu568 2.363 1_556 S
O584 C558 1.283 . S
O584 Eu581 2.363 . S
O585 C559 1.283 . S
O585 Eu581 2.363 1_556 S
O586 C560 1.283 . S
O586 Eu571 2.363 . S
O587 C561 1.283 . S
O587 Eu571 2.363 . S
O588 C562 1.283 . S
O588 Eu572 2.363 . S
O589 C563 1.283 . S
O589 Eu572 2.363 . S
O590 C564 1.283 . S
O590 Eu576 2.363 . S
O591 C565 1.283 . S
O591 Eu576 2.363 1_655 S
O592 C566 1.283 . S
O592 Eu575 2.363 . S
O593 C567 1.283 . S
O593 Eu575 2.363 1_655 S
O594 C562 1.283 . S
O594 Eu581 2.363 . S
O595 C560 1.283 . S
O595 Eu581 2.363 1_655 S
O596 C563 1.283 . S
O596 Eu568 2.363 . S
O597 C561 1.283 . S
O597 Eu568 2.363 1_655 S
O598 C557 1.283 . S
O598 Eu576 2.363 . S
O599 C559 1.283 . S
O599 Eu576 2.363 . S
O600 C556 1.283 . S
O600 Eu575 2.363 . S
O601 C558 1.283 . S
O601 Eu575 2.363 . S
O602 C567 1.283 . S
O602 Eu571 2.363 . S
O603 C565 1.283 . S
O603 Eu571 2.363 1_556 S
O604 C566 1.283 . S
O604 Eu572 2.363 . S
O605 C564 1.283 . S
O605 Eu572 2.363 1_556 S
C606 O632 1.283 . S
C606 O650 1.283 . S
C607 O633 1.283 . S
C607 O648 1.283 . S
C608 O634 1.283 . S
C608 O651 1.283 . S
C609 O635 1.283 . S
C609 O649 1.283 . S
C610 O636 1.283 . S
C610 O645 1.283 . S
C611 O637 1.283 . S
C611 O647 1.283 . S
C612 O638 1.283 . S
C612 O644 1.283 . S
C613 O639 1.283 . S
C613 O646 1.283 . S
C614 O640 1.283 . S
C614 O655 1.283 . S
C615 O641 1.283 . S
C615 O653 1.283 . S
C616 O642 1.283 . S
C616 O654 1.283 . S
C617 O643 1.283 . S
C617 O652 1.283 . S
Eu618 O619 2.370 . S
Eu618 O620 2.370 . S
Eu618 O623 2.370 . S
Eu618 O624 2.370 . S
Eu618 O632 2.363 . S
Eu618 O633 2.363 . S
Eu618 O646 2.363 . S
Eu618 O647 2.363 . S
O619 Eu618 2.370 . S
O619 Eu621 2.370 . S
O619 Eu626 2.370 . S
O620 Eu618 2.370 . S
O620 Eu622 2.370 . S
O620 Eu625 2.370 . S
Eu621 O619 2.370 . S
Eu621 O623 2.370 . S
Eu621 O627 2.370 1_554 S
Eu621 O628 2.370 1_554 S
Eu621 O636 2.363 1_554 S
Eu621 O637 2.363 . S
Eu621 O652 2.363 . S
Eu621 O653 2.363 . S
Eu622 O620 2.370 . S
Eu622 O624 2.370 . S
Eu622 O629 2.370 1_554 S
Eu622 O630 2.370 1_554 S
Eu622 O638 2.363 1_554 S
Eu622 O639 2.363 . S
Eu622 O654 2.363 . S
Eu622 O655 2.363 . S
O623 Eu618 2.370 . S
O623 Eu621 2.370 . S
O623 Eu625 2.370 . S
O624 Eu618 2.370 . S
O624 Eu622 2.370 . S
O624 Eu626 2.370 . S
Eu625 O620 2.370 . S
Eu625 O623 2.370 . S
Eu625 O627 2.370 1_554 S
Eu625 O630 2.370 1_554 S
Eu625 O642 2.363 . S
Eu625 O643 2.363 . S
Eu625 O650 2.363 . S
Eu625 O651 2.363 1_554 S
Eu626 O619 2.370 . S
Eu626 O624 2.370 . S
Eu626 O628 2.370 1_554 S
Eu626 O629 2.370 1_554 S
Eu626 O640 2.363 . S
Eu626 O641 2.363 . S
Eu626 O648 2.363 . S
Eu626 O649 2.363 1_554 S
O627 Eu621 2.370 1_556 S
O627 Eu625 2.370 1_556 S
O627 Eu631 2.370 . S
O628 Eu621 2.370 1_556 S
O628 Eu626 2.370 1_556 S
O628 Eu631 2.370 . S
O629 Eu622 2.370 1_556 S
O629 Eu626 2.370 1_556 S
O629 Eu631 2.370 . S
O630 Eu622 2.370 1_556 S
O630 Eu625 2.370 1_556 S
O630 Eu631 2.370 . S
Eu631 O627 2.370 . S
Eu631 O628 2.370 . S
Eu631 O629 2.370 . S
Eu631 O630 2.370 . S
Eu631 O634 2.363 . S
Eu631 O635 2.363 . S
Eu631 O644 2.363 . S
Eu631 O645 2.363 . S
O632 C606 1.283 . S
O632 Eu618 2.363 . S
O633 C607 1.283 . S
O633 Eu618 2.363 . S
O634 C608 1.283 . S
O634 Eu631 2.363 . S
O635 C609 1.283 . S
O635 Eu631 2.363 . S
O636 C610 1.283 . S
O636 Eu621 2.363 1_556 S
O637 C611 1.283 . S
O637 Eu621 2.363 . S
O638 C612 1.283 . S
O638 Eu622 2.363 1_556 S
O639 C613 1.283 . S
O639 Eu622 2.363 . S
O640 C614 1.283 . S
O640 Eu626 2.363 . S
O641 C615 1.283 . S
O641 Eu626 2.363 . S
O642 C616 1.283 . S
O642 Eu625 2.363 . S
O643 C617 1.283 . S
O643 Eu625 2.363 . S
O644 C612 1.283 . S
O644 Eu631 2.363 . S
O645 C610 1.283 . S
O645 Eu631 2.363 . S
O646 C613 1.283 . S
O646 Eu618 2.363 . S
O647 C611 1.283 . S
O647 Eu618 2.363 . S
O648 C607 1.283 . S
O648 Eu626 2.363 . S
O649 C609 1.283 . S
O649 Eu626 2.363 1_556 S
O650 C606 1.283 . S
O650 Eu625 2.363 . S
O651 C608 1.283 . S
O651 Eu625 2.363 1_556 S
O652 C617 1.283 . S
O652 Eu621 2.363 . S
O653 C615 1.283 . S
O653 Eu621 2.363 . S
O654 C616 1.283 . S
O654 Eu622 2.363 . S
O655 C614 1.283 . S
O655 Eu622 2.363 . S
C656 O682 1.283 . S
C656 O700 1.283 . S
C657 O683 1.283 . S
C657 O698 1.283 . S
C658 O684 1.283 . S
C658 O701 1.283 . S
C659 O685 1.283 . S
C659 O699 1.283 . S
C660 O686 1.283 . S
C660 O695 1.283 . S
C661 O687 1.283 . S
C661 O697 1.283 . S
C662 O688 1.283 . S
C662 O694 1.283 . S
C663 O689 1.283 . S
C663 O696 1.283 . S
C664 O690 1.283 . S
C664 O705 1.283 . S
C665 O691 1.283 . S
C665 O703 1.283 . S
C666 O692 1.283 . S
C666 O704 1.283 . S
C667 O693 1.283 . S
C667 O702 1.283 . S
Eu668 O669 2.370 1_455 S
Eu668 O670 2.370 . S
Eu668 O673 2.370 1_455 S
Eu668 O674 2.370 . S
Eu668 O682 2.363 . S
Eu668 O683 2.363 . S
Eu668 O696 2.363 . S
Eu668 O697 2.363 1_455 S
O669 Eu668 2.370 1_655 S
O669 Eu671 2.370 . S
O669 Eu676 2.370 1_655 S
O670 Eu668 2.370 . S
O670 Eu672 2.370 . S
O670 Eu675 2.370 . S
Eu671 O669 2.370 . S
Eu671 O673 2.370 . S
Eu671 O677 2.370 . S
Eu671 O678 2.370 . S
Eu671 O686 2.363 . S
Eu671 O687 2.363 . S
Eu671 O702 2.363 . S
Eu671 O703 2.363 . S
Eu672 O670 2.370 . S
Eu672 O674 2.370 . S
Eu672 O679 2.370 . S
Eu672 O680 2.370 . S
Eu672 O688 2.363 . S
Eu672 O689 2.363 . S
Eu672 O704 2.363 . S
Eu672 O705 2.363 . S
O673 Eu668 2.370 1_655 S
O673 Eu671 2.370 . S
O673 Eu675 2.370 1_655 S
O674 Eu668 2.370 . S
O674 Eu672 2.370 . S
O674 Eu676 2.370 . S
Eu675 O670 2.370 . S
Eu675 O673 2.370 1_455 S
Eu675 O677 2.370 1_455 S
Eu675 O680 2.370 . S
Eu675 O692 2.363 . S
Eu675 O693 2.363 1_455 S
Eu675 O700 2.363 . S
Eu675 O701 2.363 . S
Eu676 O669 2.370 1_455 S
Eu676 O674 2.370 . S
Eu676 O678 2.370 1_455 S
Eu676 O679 2.370 . S
Eu676 O690 2.363 . S
Eu676 O691 2.363 1_455 S
Eu676 O698 2.363 . S
Eu676 O699 2.363 . S
O677 Eu671 2.370 . S
O677 Eu675 2.370 1_655 S
O677 Eu681 2.370 1_655 S
O678 Eu671 2.370 . S
O678 Eu676 2.370 1_655 S
O678 Eu681 2.370 1_655 S
O679 Eu672 2.370 . S
O679 Eu676 2.370 . S
O679 Eu681 2.370 . S
O680 Eu672 2.370 . S
O680 Eu675 2.370 . S
O680 Eu681 2.370 . S
Eu681 O677 2.370 1_455 S
Eu681 O678 2.370 1_455 S
Eu681 O679 2.370 . S
Eu681 O680 2.370 . S
Eu681 O684 2.363 . S
Eu681 O685 2.363 . S
Eu681 O694 2.363 . S
Eu681 O695 2.363 1_455 S
O682 C656 1.283 . S
O682 Eu668 2.363 . S
O683 C657 1.283 . S
O683 Eu668 2.363 . S
O684 C658 1.283 . S
O684 Eu681 2.363 . S
O685 C659 1.283 . S
O685 Eu681 2.363 . S
O686 C660 1.283 . S
O686 Eu671 2.363 . S
O687 C661 1.283 . S
O687 Eu671 2.363 . S
O688 C662 1.283 . S
O688 Eu672 2.363 . S
O689 C663 1.283 . S
O689 Eu672 2.363 . S
O690 C664 1.283 . S
O690 Eu676 2.363 . S
O691 C665 1.283 . S
O691 Eu676 2.363 1_655 S
O692 C666 1.283 . S
O692 Eu675 2.363 . S
O693 C667 1.283 . S
O693 Eu675 2.363 1_655 S
O694 C662 1.283 . S
O694 Eu681 2.363 . S
O695 C660 1.283 . S
O695 Eu681 2.363 1_655 S
O696 C663 1.283 . S
O696 Eu668 2.363 . S
O697 C661 1.283 . S
O697 Eu668 2.363 1_655 S
O698 C657 1.283 . S
O698 Eu676 2.363 . S
O699 C659 1.283 . S
O699 Eu676 2.363 . S
O700 C656 1.283 . S
O700 Eu675 2.363 . S
O701 C658 1.283 . S
O701 Eu675 2.363 . S
O702 C667 1.283 . S
O702 Eu671 2.363 . S
O703 C665 1.283 . S
O703 Eu671 2.363 . S
O704 C666 1.283 . S
O704 Eu672 2.363 . S
O705 C664 1.283 . S
O705 Eu672 2.363 . S
C706 O732 1.283 . S
C706 O750 1.283 . S
C707 O733 1.283 . S
C707 O748 1.283 . S
C708 O734 1.283 . S
C708 O751 1.283 . S
C709 O735 1.283 . S
C709 O749 1.283 . S
C710 O736 1.283 . S
C710 O745 1.283 . S
C711 O737 1.283 . S
C711 O747 1.283 . S
C712 O738 1.283 . S
C712 O744 1.283 . S
C713 O739 1.283 . S
C713 O746 1.283 . S
C714 O740 1.283 . S
C714 O755 1.283 . S
C715 O741 1.283 . S
C715 O753 1.283 . S
C716 O742 1.283 . S
C716 O754 1.283 . S
C717 O743 1.283 . S
C717 O752 1.283 . S
Eu718 O719 2.370 . S
Eu718 O720 2.370 . S
Eu718 O723 2.370 . S
Eu718 O724 2.370 . S
Eu718 O732 2.363 . S
Eu718 O733 2.363 . S
Eu718 O746 2.363 . S
Eu718 O747 2.363 . S
O719 Eu718 2.370 . S
O719 Eu721 2.358 1_565 S
O719 Eu726 2.360 1_565 S
O720 Eu718 2.370 . S
O720 Eu722 2.358 1_565 S
O720 Eu725 2.357 1_565 S
Eu721 O719 2.358 1_545 S
Eu721 O723 2.358 1_545 S
Eu721 O727 2.382 . S
Eu721 O728 2.382 . S
Eu721 O736 2.383 . S
Eu721 O737 2.343 1_545 S
Eu721 O752 2.363 . S
Eu721 O753 2.363 . S
Eu722 O720 2.358 1_545 S
Eu722 O724 2.358 1_545 S
Eu722 O729 2.382 . S
Eu722 O730 2.382 . S
Eu722 O738 2.383 . S
Eu722 O739 2.343 1_545 S
Eu722 O754 2.363 . S
Eu722 O755 2.363 . S
O723 Eu718 2.370 . S
O723 Eu721 2.358 1_565 S
O723 Eu725 2.357 1_565 S
O724 Eu718 2.370 . S
O724 Eu722 2.358 1_565 S
O724 Eu726 2.360 1_565 S
Eu725 O720 2.357 1_545 S
Eu725 O723 2.357 1_545 S
Eu725 O727 2.384 . S
Eu725 O730 2.384 . S
Eu725 O742 2.363 . S
Eu725 O743 2.363 . S
Eu725 O750 2.340 1_545 S
Eu725 O751 2.386 . S
Eu726 O719 2.360 1_545 S
Eu726 O724 2.360 1_545 S
Eu726 O728 2.380 . S
Eu726 O729 2.380 . S
Eu726 O740 2.363 . S
Eu726 O741 2.363 . S
Eu726 O748 2.346 1_545 S
Eu726 O749 2.380 . S
O727 Eu721 2.382 . S
O727 Eu725 2.384 . S
O727 Eu731 2.370 . S
O728 Eu721 2.382 . S
O728 Eu726 2.380 . S
O728 Eu731 2.370 . S
O729 Eu722 2.382 . S
O729 Eu726 2.380 . S
O729 Eu731 2.370 . S
O730 Eu722 2.382 . S
O730 Eu725 2.384 . S
O730 Eu731 2.370 . S
Eu731 O727 2.370 . S
Eu731 O728 2.370 . S
Eu731 O729 2.370 . S
Eu731 O730 2.370 . S
Eu731 O734 2.363 . S
Eu731 O735 2.363 . S
Eu731 O744 2.363 . S
Eu731 O745 2.363 . S
O732 C706 1.283 . S
O732 Eu718 2.363 . S
O733 C707 1.283 . S
O733 Eu718 2.363 . S
O734 C708 1.283 . S
O734 Eu731 2.363 . S
O735 C709 1.283 . S
O735 Eu731 2.363 . S
O736 C710 1.283 . S
O736 Eu721 2.383 . S
O737 C711 1.283 . S
O737 Eu721 2.343 1_565 S
O738 C712 1.283 . S
O738 Eu722 2.383 . S
O739 C713 1.283 . S
O739 Eu722 2.343 1_565 S
O740 C714 1.283 . S
O740 Eu726 2.363 . S
O741 C715 1.283 . S
O741 Eu726 2.363 . S
O742 C716 1.283 . S
O742 Eu725 2.363 . S
O743 C717 1.283 . S
O743 Eu725 2.363 . S
O744 C712 1.283 . S
O744 Eu731 2.363 . S
O745 C710 1.283 . S
O745 Eu731 2.363 . S
O746 C713 1.283 . S
O746 Eu718 2.363 . S
O747 C711 1.283 . S
O747 Eu718 2.363 . S
O748 C707 1.283 . S
O748 Eu726 2.346 1_565 S
O749 C709 1.283 . S
O749 Eu726 2.380 . S
O750 C706 1.283 . S
O750 Eu725 2.340 1_565 S
O751 C708 1.283 . S
O751 Eu725 2.386 . S
O752 C717 1.283 . S
O752 Eu721 2.363 . S
O753 C715 1.283 . S
O753 Eu721 2.363 . S
O754 C716 1.283 . S
O754 Eu722 2.363 . S
O755 C714 1.283 . S
O755 Eu722 2.363 . S
H756 C764 0.950 . S
H757 C769 0.950 . S
H758 C766 0.950 . S
H759 C768 0.950 . S
H760 C770 0.950 . S
H761 C772 0.950 . S
H762 C774 0.950 . S
H763 C775 0.950 . S
C764 H756 0.950 . S
C764 C765 1.386 . S
C764 C766 1.391 . S
C765 C764 1.386 . S
C765 C769 1.393 . S
C766 H758 0.950 . S
C766 C764 1.391 . S
C766 C767 1.400 . S
C767 C766 1.400 . S
C767 C768 1.398 . S
C767 C773 1.491 . S
C768 H759 0.950 . S
C768 C767 1.398 . S
C768 C769 1.391 . S
C769 H757 0.950 . S
C769 C765 1.393 . S
C769 C768 1.391 . S
C770 H760 0.950 . S
C770 C771 1.386 . S
C770 C772 1.391 . S
C771 C770 1.386 . S
C771 C775 1.393 . S
C772 H761 0.950 . S
C772 C770 1.391 . S
C772 C773 1.400 . S
C773 C767 1.491 . S
C773 C772 1.400 . S
C773 C774 1.398 . S
C774 H762 0.950 . S
C774 C773 1.398 . S
C774 C775 1.391 . S
C775 H763 0.950 . S
C775 C771 1.393 . S
C775 C774 1.391 . S
H776 C784 0.950 . S
H777 C789 0.950 . S
H778 C786 0.950 . S
H779 C788 0.950 . S
H780 C790 0.950 . S
H781 C792 0.950 . S
H782 C794 0.950 . S
H783 C795 0.950 . S
C784 H776 0.950 . S
C784 C785 1.386 . S
C784 C786 1.391 . S
C785 C784 1.386 . S
C785 C789 1.393 . S
C786 H778 0.950 . S
C786 C784 1.391 . S
C786 C787 1.400 . S
C787 C786 1.400 . S
C787 C788 1.398 . S
C787 C793 1.491 . S
C788 H779 0.950 . S
C788 C787 1.398 . S
C788 C789 1.391 . S
C789 H777 0.950 . S
C789 C785 1.393 . S
C789 C788 1.391 . S
C790 H780 0.950 . S
C790 C791 1.386 . S
C790 C792 1.391 . S
C791 C790 1.386 . S
C791 C795 1.393 . S
C792 H781 0.950 . S
C792 C790 1.391 . S
C792 C793 1.400 . S
C793 C787 1.491 . S
C793 C792 1.400 . S
C793 C794 1.398 . S
C794 H782 0.950 . S
C794 C793 1.398 . S
C794 C795 1.391 . S
C795 H783 0.950 . S
C795 C791 1.393 . S
C795 C794 1.391 . S
H796 C804 0.950 . S
H797 C809 0.950 . S
H798 C806 0.950 . S
H799 C808 0.950 . S
H800 C810 0.950 . S
H801 C812 0.950 . S
H802 C814 0.950 . S
H803 C815 0.950 . S
C804 H796 0.950 . S
C804 C805 1.386 . S
C804 C806 1.391 . S
C805 C804 1.386 . S
C805 C809 1.393 . S
C806 H798 0.950 . S
C806 C804 1.391 . S
C806 C807 1.400 . S
C807 C806 1.400 . S
C807 C808 1.398 . S
C807 C813 1.491 . S
C808 H799 0.950 . S
C808 C807 1.398 . S
C808 C809 1.391 . S
C809 H797 0.950 . S
C809 C805 1.393 . S
C809 C808 1.391 . S
C810 H800 0.950 . S
C810 C811 1.386 . S
C810 C812 1.391 . S
C811 C810 1.386 . S
C811 C815 1.393 . S
C812 H801 0.950 . S
C812 C810 1.391 . S
C812 C813 1.400 . S
C813 C807 1.491 . S
C813 C812 1.400 . S
C813 C814 1.398 . S
C814 H802 0.950 . S
C814 C813 1.398 . S
C814 C815 1.391 . S
C815 H803 0.950 . S
C815 C811 1.393 . S
C815 C814 1.391 . S
H816 C824 0.950 . S
H817 C829 0.950 . S
H818 C826 0.950 . S
H819 C828 0.950 . S
H820 C830 0.950 . S
H821 C832 0.950 . S
H822 C834 0.950 . S
H823 C835 0.950 . S
C824 H816 0.950 . S
C824 C825 1.386 . S
C824 C826 1.391 . S
C825 C824 1.386 . S
C825 C829 1.393 . S
C826 H818 0.950 . S
C826 C824 1.391 . S
C826 C827 1.400 . S
C827 C826 1.400 . S
C827 C828 1.398 . S
C827 C833 1.491 . S
C828 H819 0.950 . S
C828 C827 1.398 . S
C828 C829 1.391 . S
C829 H817 0.950 . S
C829 C825 1.393 . S
C829 C828 1.391 . S
C830 H820 0.950 . S
C830 C831 1.386 . S
C830 C832 1.391 . S
C831 C830 1.386 . S
C831 C835 1.393 . S
C832 H821 0.950 . S
C832 C830 1.391 . S
C832 C833 1.400 . S
C833 C827 1.491 . S
C833 C832 1.400 . S
C833 C834 1.398 . S
C834 H822 0.950 . S
C834 C833 1.398 . S
C834 C835 1.391 . S
C835 H823 0.950 . S
C835 C831 1.393 . S
C835 C834 1.391 . S
H836 C844 0.950 . S
H837 C849 0.950 . S
H838 C846 0.950 . S
H839 C848 0.950 . S
H840 C850 0.950 . S
H841 C852 0.950 . S
H842 C854 0.950 . S
H843 C855 0.950 . S
C844 H836 0.950 . S
C844 C845 1.386 . S
C844 C846 1.391 . S
C845 C844 1.386 . S
C845 C849 1.393 . S
C846 H838 0.950 . S
C846 C844 1.391 . S
C846 C847 1.400 . S
C847 C846 1.400 . S
C847 C848 1.398 . S
C847 C853 1.491 . S
C848 H839 0.950 . S
C848 C847 1.398 . S
C848 C849 1.391 . S
C849 H837 0.950 . S
C849 C845 1.393 . S
C849 C848 1.391 . S
C850 H840 0.950 . S
C850 C851 1.386 . S
C850 C852 1.391 . S
C851 C850 1.386 . S
C851 C855 1.393 . S
C852 H841 0.950 . S
C852 C850 1.391 . S
C852 C853 1.400 . S
C853 C847 1.491 . S
C853 C852 1.400 . S
C853 C854 1.398 . S
C854 H842 0.950 . S
C854 C853 1.398 . S
C854 C855 1.391 . S
C855 H843 0.950 . S
C855 C851 1.393 . S
C855 C854 1.391 . S
H856 C864 0.950 . S
H857 C869 0.950 . S
H858 C866 0.950 . S
H859 C868 0.950 . S
H860 C870 0.950 . S
H861 C872 0.950 . S
H862 C874 0.950 . S
H863 C875 0.950 . S
C864 H856 0.950 . S
C864 C865 1.386 . S
C864 C866 1.391 . S
C865 C864 1.386 . S
C865 C869 1.393 . S
C866 H858 0.950 . S
C866 C864 1.391 . S
C866 C867 1.400 . S
C867 C866 1.400 . S
C867 C868 1.398 . S
C867 C873 1.491 . S
C868 H859 0.950 . S
C868 C867 1.398 . S
C868 C869 1.391 . S
C869 H857 0.950 . S
C869 C865 1.393 . S
C869 C868 1.391 . S
C870 H860 0.950 . S
C870 C871 1.386 . S
C870 C872 1.391 . S
C871 C870 1.386 . S
C871 C875 1.393 . S
C872 H861 0.950 . S
C872 C870 1.391 . S
C872 C873 1.400 . S
C873 C867 1.491 . S
C873 C872 1.400 . S
C873 C874 1.398 . S
C874 H862 0.950 . S
C874 C873 1.398 . S
C874 C875 1.391 . S
C875 H863 0.950 . S
C875 C871 1.393 . S
C875 C874 1.391 . S
H876 C884 0.950 . S
H877 C889 0.950 . S
H878 C886 0.950 . S
H879 C888 0.950 . S
H880 C890 0.950 . S
H881 C892 0.950 . S
H882 C894 0.950 . S
H883 C895 0.950 . S
C884 H876 0.950 . S
C884 C885 1.386 . S
C884 C886 1.391 . S
C885 C884 1.386 . S
C885 C889 1.393 . S
C886 H878 0.950 . S
C886 C884 1.391 . S
C886 C887 1.400 . S
C887 C886 1.400 . S
C887 C888 1.398 . S
C887 C893 1.491 . S
C888 H879 0.950 . S
C888 C887 1.398 . S
C888 C889 1.391 . S
C889 H877 0.950 . S
C889 C885 1.393 . S
C889 C888 1.391 . S
C890 H880 0.950 . S
C890 C891 1.386 . S
C890 C892 1.391 . S
C891 C890 1.386 . S
C891 C895 1.393 . S
C892 H881 0.950 . S
C892 C890 1.391 . S
C892 C893 1.400 . S
C893 C887 1.491 . S
C893 C892 1.400 . S
C893 C894 1.398 . S
C894 H882 0.950 . S
C894 C893 1.398 . S
C894 C895 1.391 . S
C895 H883 0.950 . S
C895 C891 1.393 . S
C895 C894 1.391 . S
H896 C904 0.950 . S
H897 C909 0.950 . S
H898 C906 0.950 . S
H899 C908 0.950 . S
H900 C910 0.950 . S
H901 C912 0.950 . S
H902 C914 0.950 . S
H903 C915 0.950 . S
C904 H896 0.950 . S
C904 C905 1.386 . S
C904 C906 1.391 . S
C905 C904 1.386 . S
C905 C909 1.393 . S
C906 H898 0.950 . S
C906 C904 1.391 . S
C906 C907 1.400 . S
C907 C906 1.400 . S
C907 C908 1.398 . S
C907 C913 1.491 . S
C908 H899 0.950 . S
C908 C907 1.398 . S
C908 C909 1.391 . S
C909 H897 0.950 . S
C909 C905 1.393 . S
C909 C908 1.391 . S
C910 H900 0.950 . S
C910 C911 1.386 . S
C910 C912 1.391 . S
C911 C910 1.386 . S
C911 C915 1.393 . S
C912 H901 0.950 . S
C912 C910 1.391 . S
C912 C913 1.400 . S
C913 C907 1.491 . S
C913 C912 1.400 . S
C913 C914 1.398 . S
C914 H902 0.950 . S
C914 C913 1.398 . S
C914 C915 1.391 . S
C915 H903 0.950 . S
C915 C911 1.393 . S
C915 C914 1.391 . S
H916 C924 0.950 . S
H917 C929 0.950 . S
H918 C926 0.950 . S
H919 C928 0.950 . S
H920 C930 0.950 . S
H921 C932 0.950 . S
H922 C934 0.950 . S
H923 C935 0.950 . S
C924 H916 0.950 . S
C924 C925 1.386 . S
C924 C926 1.391 . S
C925 C924 1.386 . S
C925 C929 1.393 . S
C926 H918 0.950 . S
C926 C924 1.391 . S
C926 C927 1.400 . S
C927 C926 1.400 . S
C927 C928 1.398 . S
C927 C933 1.491 . S
C928 H919 0.950 . S
C928 C927 1.398 . S
C928 C929 1.391 . S
C929 H917 0.950 . S
C929 C925 1.393 . S
C929 C928 1.391 . S
C930 H920 0.950 . S
C930 C931 1.386 . S
C930 C932 1.391 . S
C931 C930 1.386 . S
C931 C935 1.393 . S
C932 H921 0.950 . S
C932 C930 1.391 . S
C932 C933 1.400 . S
C933 C927 1.491 . S
C933 C932 1.400 . S
C933 C934 1.398 . S
C934 H922 0.950 . S
C934 C933 1.398 . S
C934 C935 1.391 . S
C935 H923 0.950 . S
C935 C931 1.393 . S
C935 C934 1.391 . S
H936 C944 0.950 . S
H937 C949 0.950 . S
H938 C946 0.950 . S
H939 C948 0.950 . S
H940 C950 0.950 . S
H941 C952 0.950 . S
H942 C954 0.950 . S
H943 C955 0.950 . S
C944 H936 0.950 . S
C944 C945 1.386 . S
C944 C946 1.391 . S
C945 C944 1.386 . S
C945 C949 1.393 . S
C946 H938 0.950 . S
C946 C944 1.391 . S
C946 C947 1.400 . S
C947 C946 1.400 . S
C947 C948 1.398 . S
C947 C953 1.491 . S
C948 H939 0.950 . S
C948 C947 1.398 . S
C948 C949 1.391 . S
C949 H937 0.950 . S
C949 C945 1.393 . S
C949 C948 1.391 . S
C950 H940 0.950 . S
C950 C951 1.386 . S
C950 C952 1.391 . S
C951 C950 1.386 . S
C951 C955 1.393 . S
C952 H941 0.950 . S
C952 C950 1.391 . S
C952 C953 1.400 . S
C953 C947 1.491 . S
C953 C952 1.400 . S
C953 C954 1.398 . S
C954 H942 0.950 . S
C954 C953 1.398 . S
C954 C955 1.391 . S
C955 H943 0.950 . S
C955 C951 1.393 . S
C955 C954 1.391 . S
H956 C964 0.950 . S
H957 C969 0.950 . S
H958 C966 0.950 . S
H959 C968 0.950 . S
H960 C970 0.950 . S
H961 C972 0.950 . S
H962 C974 0.950 . S
H963 C975 0.950 . S
C964 H956 0.950 . S
C964 C965 1.386 . S
C964 C966 1.391 . S
C965 C964 1.386 . S
C965 C969 1.393 . S
C966 H958 0.950 . S
C966 C964 1.391 . S
C966 C967 1.400 . S
C967 C966 1.400 . S
C967 C968 1.398 . S
C967 C973 1.491 . S
C968 H959 0.950 . S
C968 C967 1.398 . S
C968 C969 1.391 . S
C969 H957 0.950 . S
C969 C965 1.393 . S
C969 C968 1.391 . S
C970 H960 0.950 . S
C970 C971 1.386 . S
C970 C972 1.391 . S
C971 C970 1.386 . S
C971 C975 1.393 . S
C972 H961 0.950 . S
C972 C970 1.391 . S
C972 C973 1.400 . S
C973 C967 1.491 . S
C973 C972 1.400 . S
C973 C974 1.398 . S
C974 H962 0.950 . S
C974 C973 1.398 . S
C974 C975 1.391 . S
C975 H963 0.950 . S
C975 C971 1.393 . S
C975 C974 1.391 . S
H976 C984 0.950 . S
H977 C989 0.950 . S
H978 C986 0.950 . S
H979 C988 0.950 . S
H980 C990 0.950 . S
H981 C992 0.950 . S
H982 C994 0.950 . S
H983 C995 0.950 . S
C984 H976 0.950 . S
C984 C985 1.386 . S
C984 C986 1.391 . S
C985 C984 1.386 . S
C985 C989 1.393 . S
C986 H978 0.950 . S
C986 C984 1.391 . S
C986 C987 1.400 . S
C987 C986 1.400 . S
C987 C988 1.398 . S
C987 C993 1.491 . S
C988 H979 0.950 . S
C988 C987 1.398 . S
C988 C989 1.391 . S
C989 H977 0.950 . S
C989 C985 1.393 . S
C989 C988 1.391 . S
C990 H980 0.950 . S
C990 C991 1.386 . S
C990 C992 1.391 . S
C991 C990 1.386 . S
C991 C995 1.393 . S
C992 H981 0.950 . S
C992 C990 1.391 . S
C992 C993 1.400 . S
C993 C987 1.491 . S
C993 C992 1.400 . S
C993 C994 1.398 . S
C994 H982 0.950 . S
C994 C993 1.398 . S
C994 C995 1.391 . S
C995 H983 0.950 . S
C995 C991 1.393 . S
C995 C994 1.391 . S
H996 C1004 0.950 1_556 S
H997 C1009 0.950 . S
H998 C1006 0.950 1_556 S
H999 C1008 0.950 . S
H1000 C1010 0.950 . S
H1001 C1012 0.950 . S
H1002 C1014 0.949 1_556 S
H1003 C1015 0.946 1_556 S
C1004 H996 0.950 1_554 S
C1004 C1005 1.386 . S
C1004 C1006 1.391 . S
C1005 C1004 1.386 . S
C1005 C1009 1.393 . S
C1006 H998 0.950 1_554 S
C1006 C1004 1.391 . S
C1006 C1007 1.400 . S
C1007 C1006 1.400 . S
C1007 C1008 1.398 . S
C1007 C1013 1.491 . S
C1008 H999 0.950 . S
C1008 C1007 1.398 . S
C1008 C1009 1.391 . S
C1009 H997 0.950 . S
C1009 C1005 1.393 . S
C1009 C1008 1.391 . S
C1010 H1000 0.950 . S
C1010 C1011 1.386 . S
C1010 C1012 1.391 . S
C1011 C1010 1.386 . S
C1011 C1015 1.397 . S
C1012 H1001 0.950 . S
C1012 C1010 1.391 . S
C1012 C1013 1.400 . S
C1013 C1007 1.491 . S
C1013 C1012 1.400 . S
C1013 C1014 1.399 . S
C1014 H1002 0.949 1_554 S
C1014 C1013 1.399 . S
C1014 C1015 1.391 . S
C1015 H1003 0.946 1_554 S
C1015 C1011 1.397 . S
C1015 C1014 1.391 . S
H1016 C1024 0.950 . S
H1017 C1029 0.950 . S
H1018 C1026 0.950 . S
H1019 C1028 0.950 . S
H1020 C1030 0.950 . S
H1021 C1032 0.950 . S
H1022 C1034 0.950 . S
H1023 C1035 0.950 . S
C1024 H1016 0.950 . S
C1024 C1025 1.386 . S
C1024 C1026 1.391 . S
C1025 C1024 1.386 . S
C1025 C1029 1.393 1_554 S
C1026 H1018 0.950 . S
C1026 C1024 1.391 . S
C1026 C1027 1.400 . S
C1027 C1026 1.400 . S
C1027 C1028 1.398 1_554 S
C1027 C1033 1.491 . S
C1028 H1019 0.950 . S
C1028 C1027 1.398 1_556 S
C1028 C1029 1.391 . S
C1029 H1017 0.950 . S
C1029 C1025 1.393 1_556 S
C1029 C1028 1.391 . S
C1030 H1020 0.950 . S
C1030 C1031 1.386 1_556 S
C1030 C1032 1.391 . S
C1031 C1030 1.386 1_554 S
C1031 C1035 1.393 . S
C1032 H1021 0.950 . S
C1032 C1030 1.391 . S
C1032 C1033 1.400 1_556 S
C1033 C1027 1.491 . S
C1033 C1032 1.400 1_554 S
C1033 C1034 1.398 . S
C1034 H1022 0.950 . S
C1034 C1033 1.398 . S
C1034 C1035 1.391 . S
C1035 H1023 0.950 . S
C1035 C1031 1.393 . S
C1035 C1034 1.391 . S
H1036 C1044 0.950 . S
H1037 C1049 0.950 . S
H1038 C1046 0.950 . S
H1039 C1048 0.950 . S
H1040 C1050 0.950 . S
H1041 C1052 0.950 . S
H1042 C1054 0.950 . S
H1043 C1055 0.950 . S
C1044 H1036 0.950 . S
C1044 C1045 1.386 . S
C1044 C1046 1.391 . S
C1045 C1044 1.386 . S
C1045 C1049 1.393 1_554 S
C1046 H1038 0.950 . S
C1046 C1044 1.391 . S
C1046 C1047 1.400 . S
C1047 C1046 1.400 . S
C1047 C1048 1.398 1_554 S
C1047 C1053 1.491 . S
C1048 H1039 0.950 . S
C1048 C1047 1.398 1_556 S
C1048 C1049 1.391 . S
C1049 H1037 0.950 . S
C1049 C1045 1.393 1_556 S
C1049 C1048 1.391 . S
C1050 H1040 0.950 . S
C1050 C1051 1.386 1_556 S
C1050 C1052 1.391 . S
C1051 C1050 1.386 1_554 S
C1051 C1055 1.393 . S
C1052 H1041 0.950 . S
C1052 C1050 1.391 . S
C1052 C1053 1.400 1_556 S
C1053 C1047 1.491 . S
C1053 C1052 1.400 1_554 S
C1053 C1054 1.398 . S
C1054 H1042 0.950 . S
C1054 C1053 1.398 . S
C1054 C1055 1.391 . S
C1055 H1043 0.950 . S
C1055 C1051 1.393 . S
C1055 C1054 1.391 . S
H1056 C1064 0.950 . S
H1057 C1069 0.950 . S
H1058 C1066 0.950 . S
H1059 C1068 0.950 . S
H1060 C1070 0.950 . S
H1061 C1072 0.950 . S
H1062 C1074 0.950 . S
H1063 C1075 0.950 . S
C1064 H1056 0.950 . S
C1064 C1065 1.386 . S
C1064 C1066 1.391 . S
C1065 C1064 1.386 . S
C1065 C1069 1.393 1_554 S
C1066 H1058 0.950 . S
C1066 C1064 1.391 . S
C1066 C1067 1.400 . S
C1067 C1066 1.400 . S
C1067 C1068 1.398 1_554 S
C1067 C1073 1.491 . S
C1068 H1059 0.950 . S
C1068 C1067 1.398 1_556 S
C1068 C1069 1.391 . S
C1069 H1057 0.950 . S
C1069 C1065 1.393 1_556 S
C1069 C1068 1.391 . S
C1070 H1060 0.950 . S
C1070 C1071 1.386 1_556 S
C1070 C1072 1.391 . S
C1071 C1070 1.386 1_554 S
C1071 C1075 1.393 . S
C1072 H1061 0.950 . S
C1072 C1070 1.391 . S
C1072 C1073 1.400 1_556 S
C1073 C1067 1.491 . S
C1073 C1072 1.400 1_554 S
C1073 C1074 1.398 . S
C1074 H1062 0.950 . S
C1074 C1073 1.398 . S
C1074 C1075 1.391 . S
C1075 H1063 0.950 . S
C1075 C1071 1.393 . S
C1075 C1074 1.391 . S
H1076 C1084 0.950 . S
H1077 C1089 0.950 . S
H1078 C1086 0.950 . S
H1079 C1088 0.950 . S
H1080 C1090 0.950 . S
H1081 C1092 0.950 . S
H1082 C1094 0.950 . S
H1083 C1095 0.950 . S
C1084 H1076 0.950 . S
C1084 C1085 1.386 1_655 S
C1084 C1086 1.391 . S
C1085 C1084 1.386 1_455 S
C1085 C1089 1.393 . S
C1086 H1078 0.950 . S
C1086 C1084 1.391 . S
C1086 C1087 1.400 1_655 S
C1087 C1086 1.400 1_455 S
C1087 C1088 1.398 . S
C1087 C1093 1.491 . S
C1088 H1079 0.950 . S
C1088 C1087 1.398 . S
C1088 C1089 1.391 . S
C1089 H1077 0.950 . S
C1089 C1085 1.393 . S
C1089 C1088 1.391 . S
C1090 H1080 0.950 . S
C1090 C1091 1.386 . S
C1090 C1092 1.391 . S
C1091 C1090 1.386 . S
C1091 C1095 1.393 1_455 S
C1092 H1081 0.950 . S
C1092 C1090 1.391 . S
C1092 C1093 1.400 . S
C1093 C1087 1.491 . S
C1093 C1092 1.400 . S
C1093 C1094 1.398 1_455 S
C1094 H1082 0.950 . S
C1094 C1093 1.398 1_655 S
C1094 C1095 1.391 . S
C1095 H1083 0.950 . S
C1095 C1091 1.393 1_655 S
C1095 C1094 1.391 . S
H1096 C1104 0.950 . S
H1097 C1109 0.950 . S
H1098 C1106 0.950 . S
H1099 C1108 0.950 . S
H1100 C1110 0.950 . S
H1101 C1112 0.950 . S
H1102 C1114 0.950 . S
H1103 C1115 0.950 . S
C1104 H1096 0.950 . S
C1104 C1105 1.386 1_565 S
C1104 C1106 1.391 . S
C1105 C1104 1.386 1_545 S
C1105 C1109 1.393 . S
C1106 H1098 0.950 . S
C1106 C1104 1.391 . S
C1106 C1107 1.398 1_565 S
C1107 C1106 1.398 1_545 S
C1107 C1108 1.400 . S
C1107 C1113 1.491 . S
C1108 H1099 0.950 . S
C1108 C1107 1.400 . S
C1108 C1109 1.391 . S
C1109 H1097 0.950 . S
C1109 C1105 1.393 . S
C1109 C1108 1.391 . S
C1110 H1100 0.950 . S
C1110 C1111 1.386 . S
C1110 C1112 1.391 . S
C1111 C1110 1.386 . S
C1111 C1115 1.393 1_545 S
C1112 H1101 0.950 . S
C1112 C1110 1.391 . S
C1112 C1113 1.400 . S
C1113 C1107 1.491 . S
C1113 C1112 1.400 . S
C1113 C1114 1.398 1_545 S
C1114 H1102 0.950 . S
C1114 C1113 1.398 1_565 S
C1114 C1115 1.391 . S
C1115 H1103 0.950 . S
C1115 C1111 1.393 1_565 S
C1115 C1114 1.391 . S
H1116 C1124 0.950 . S
H1117 C1129 0.950 . S
H1118 C1126 0.950 . S
H1119 C1128 0.950 . S
H1120 C1130 0.950 . S
H1121 C1132 0.950 . S
H1122 C1134 0.950 . S
H1123 C1135 0.950 . S
C1124 H1116 0.950 . S
C1124 C1125 1.386 1_655 S
C1124 C1126 1.391 . S
C1125 C1124 1.386 1_455 S
C1125 C1129 1.393 . S
C1126 H1118 0.950 . S
C1126 C1124 1.391 . S
C1126 C1127 1.400 1_655 S
C1127 C1126 1.400 1_455 S
C1127 C1128 1.398 . S
C1127 C1133 1.491 . S
C1128 H1119 0.950 . S
C1128 C1127 1.398 . S
C1128 C1129 1.391 . S
C1129 H1117 0.950 . S
C1129 C1125 1.393 . S
C1129 C1128 1.391 . S
C1130 H1120 0.950 . S
C1130 C1131 1.386 . S
C1130 C1132 1.391 . S
C1131 C1130 1.386 . S
C1131 C1135 1.393 1_455 S
C1132 H1121 0.950 . S
C1132 C1130 1.391 . S
C1132 C1133 1.400 . S
C1133 C1127 1.491 . S
C1133 C1132 1.400 . S
C1133 C1134 1.398 1_455 S
C1134 H1122 0.950 . S
C1134 C1133 1.398 1_655 S
C1134 C1135 1.391 . S
C1135 H1123 0.950 . S
C1135 C1131 1.393 1_655 S
C1135 C1134 1.391 . S
H1136 C1144 0.950 . S
H1137 C1149 0.950 . S
H1138 C1146 0.950 . S
H1139 C1148 0.950 . S
H1140 C1150 0.950 . S
H1141 C1152 0.950 . S
H1142 C1154 0.950 . S
H1143 C1155 0.950 . S
C1144 H1136 0.950 . S
C1144 C1145 1.386 . S
C1144 C1146 1.391 . S
C1145 C1144 1.386 . S
C1145 C1149 1.393 1_545 S
C1146 H1138 0.950 . S
C1146 C1144 1.391 . S
C1146 C1147 1.400 . S
C1147 C1146 1.400 . S
C1147 C1148 1.398 1_545 S
C1147 C1153 1.491 . S
C1148 H1139 0.950 . S
C1148 C1147 1.398 1_565 S
C1148 C1149 1.391 . S
C1149 H1137 0.950 . S
C1149 C1145 1.393 1_565 S
C1149 C1148 1.391 . S
C1150 H1140 0.950 . S
C1150 C1151 1.386 . S
C1150 C1152 1.391 . S
C1151 C1150 1.386 . S
C1151 C1155 1.393 1_565 S
C1152 H1141 0.950 . S
C1152 C1150 1.391 . S
C1152 C1153 1.394 1_565 S
C1153 C1147 1.491 . S
C1153 C1152 1.394 1_545 S
C1153 C1154 1.404 . S
C1154 H1142 0.950 . S
C1154 C1153 1.404 . S
C1154 C1155 1.391 . S
C1155 H1143 0.950 . S
C1155 C1151 1.393 1_545 S
C1155 C1154 1.391 . S
H1156 C1164 0.950 . S
H1157 C1169 0.950 . S
H1158 C1166 0.950 . S
H1159 C1168 0.950 . S
H1160 C1170 0.950 . S
H1161 C1172 0.950 . S
H1162 C1174 0.950 . S
H1163 C1175 0.950 . S
C1164 H1156 0.950 . S
C1164 C1165 1.386 1_655 S
C1164 C1166 1.391 . S
C1165 C1164 1.386 1_455 S
C1165 C1169 1.393 . S
C1166 H1158 0.950 . S
C1166 C1164 1.391 . S
C1166 C1167 1.400 1_655 S
C1167 C1166 1.400 1_455 S
C1167 C1168 1.398 . S
C1167 C1173 1.491 . S
C1168 H1159 0.950 . S
C1168 C1167 1.398 . S
C1168 C1169 1.391 . S
C1169 H1157 0.950 . S
C1169 C1165 1.393 . S
C1169 C1168 1.391 . S
C1170 H1160 0.950 . S
C1170 C1171 1.386 . S
C1170 C1172 1.391 . S
C1171 C1170 1.386 . S
C1171 C1175 1.393 1_455 S
C1172 H1161 0.950 . S
C1172 C1170 1.391 . S
C1172 C1173 1.400 . S
C1173 C1167 1.491 . S
C1173 C1172 1.400 . S
C1173 C1174 1.398 1_455 S
C1174 H1162 0.950 . S
C1174 C1173 1.398 1_655 S
C1174 C1175 1.391 . S
C1175 H1163 0.950 . S
C1175 C1171 1.393 1_655 S
C1175 C1174 1.391 . S
H1176 C1184 0.950 . S
H1177 C1189 0.950 . S
H1178 C1186 0.950 . S
H1179 C1188 0.950 . S
H1180 C1190 0.950 . S
H1181 C1192 0.950 . S
H1182 C1194 0.950 . S
H1183 C1195 0.950 . S
C1184 H1176 0.950 . S
C1184 C1185 1.394 . S
C1184 C1186 1.391 . S
C1185 C1184 1.394 . S
C1185 C1189 1.385 1_545 S
C1186 H1178 0.950 . S
C1186 C1184 1.391 . S
C1186 C1187 1.410 . S
C1187 C1186 1.410 . S
C1187 C1188 1.389 1_545 S
C1187 C1193 1.491 . S
C1188 H1179 0.950 . S
C1188 C1187 1.389 1_565 S
C1188 C1189 1.391 . S
C1189 H1177 0.950 . S
C1189 C1185 1.385 1_565 S
C1189 C1188 1.391 . S
C1190 H1180 0.950 . S
C1190 C1191 1.383 1_565 S
C1190 C1192 1.391 . S
C1191 C1190 1.383 1_545 S
C1191 C1195 1.395 . S
C1192 H1181 0.950 . S
C1192 C1190 1.391 . S
C1192 C1193 1.399 1_565 S
C1193 C1187 1.491 . S
C1193 C1192 1.399 1_545 S
C1193 C1194 1.399 . S
C1194 H1182 0.950 . S
C1194 C1193 1.399 . S
C1194 C1195 1.391 . S
C1195 H1183 0.950 . S
C1195 C1191 1.395 . S
C1195 C1194 1.391 . S
H1196 C1204 0.950 . S
H1197 C1209 0.950 . S
H1198 C1206 0.971 . S
H1199 C1208 0.950 . S
H1200 C1210 0.950 . S
H1201 C1212 0.950 . S
H1202 C1214 0.933 1_655 S
H1203 C1215 0.936 1_655 S
C1204 H1196 0.950 . S
C1204 C1205 1.386 1_655 S
C1204 C1206 1.392 . S
C1205 C1204 1.386 1_455 S
C1205 C1209 1.393 . S
C1206 H1198 0.971 . S
C1206 C1204 1.392 . S
C1206 C1207 1.381 1_655 S
C1207 C1206 1.381 1_455 S
C1207 C1208 1.398 . S
C1207 C1213 1.491 . S
C1208 H1199 0.950 . S
C1208 C1207 1.398 . S
C1208 C1209 1.391 . S
C1209 H1197 0.950 . S
C1209 C1205 1.393 . S
C1209 C1208 1.391 . S
C1210 H1200 0.950 . S
C1210 C1211 1.386 . S
C1210 C1212 1.391 . S
C1211 C1210 1.386 . S
C1211 C1215 1.408 . S
C1212 H1201 0.950 . S
C1212 C1210 1.391 . S
C1212 C1213 1.400 . S
C1213 C1207 1.491 . S
C1213 C1212 1.400 . S
C1213 C1214 1.417 . S
C1214 H1202 0.933 1_455 S
C1214 C1213 1.417 . S
C1214 C1215 1.391 . S
C1215 H1203 0.936 1_455 S
C1215 C1211 1.408 . S
C1215 C1214 1.391 . S
H1216 C1224 0.950 . S
H1217 C1229 0.950 . S
H1218 C1226 0.950 . S
H1219 C1228 0.950 . S
H1220 C1230 0.950 . S
H1221 C1232 0.950 . S
H1222 C1234 0.950 . S
H1223 C1235 0.950 . S
C1224 H1216 0.950 . S
C1224 C1225 1.391 . S
C1224 C1226 1.391 . S
C1225 C1224 1.391 . S
C1225 C1229 1.390 1_545 S
C1226 H1218 0.950 . S
C1226 C1224 1.391 . S
C1226 C1227 1.404 . S
C1227 C1226 1.404 . S
C1227 C1228 1.397 1_545 S
C1227 C1233 1.490 1_545 S
C1228 H1219 0.950 . S
C1228 C1227 1.397 1_565 S
C1228 C1229 1.391 . S
C1229 H1217 0.950 . S
C1229 C1225 1.390 1_565 S
C1229 C1228 1.391 . S
C1230 H1220 0.950 . S
C1230 C1231 1.388 . S
C1230 C1232 1.391 . S
C1231 C1230 1.388 . S
C1231 C1235 1.391 1_565 S
C1232 H1221 0.950 . S
C1232 C1230 1.391 . S
C1232 C1233 1.401 . S
C1233 C1227 1.490 1_565 S
C1233 C1232 1.401 . S
C1233 C1234 1.398 1_565 S
C1234 H1222 0.950 . S
C1234 C1233 1.398 1_545 S
C1234 C1235 1.391 . S
C1235 H1223 0.950 . S
C1235 C1231 1.391 1_545 S
C1235 C1234 1.391 . S
H1236 C1244 0.950 . S
H1237 C1249 0.950 . S
H1238 C1246 0.950 . S
H1239 C1248 0.950 . S
H1240 C1250 0.950 . S
H1241 C1252 0.950 . S
H1242 C1254 0.950 . S
H1243 C1255 0.950 . S
C1244 H1236 0.950 . S
C1244 C1245 1.386 . S
C1244 C1246 1.391 . S
C1245 C1244 1.386 . S
C1245 C1249 1.393 1_455 S
C1246 H1238 0.950 . S
C1246 C1244 1.391 . S
C1246 C1247 1.400 . S
C1247 C1246 1.400 . S
C1247 C1248 1.398 1_455 S
C1247 C1253 1.491 . S
C1248 H1239 0.950 . S
C1248 C1247 1.398 1_655 S
C1248 C1249 1.391 . S
C1249 H1237 0.950 . S
C1249 C1245 1.393 1_655 S
C1249 C1248 1.391 . S
C1250 H1240 0.950 . S
C1250 C1251 1.386 1_655 S
C1250 C1252 1.391 . S
C1251 C1250 1.386 1_455 S
C1251 C1255 1.393 . S
C1252 H1241 0.950 . S
C1252 C1250 1.391 . S
C1252 C1253 1.400 1_655 S
C1253 C1247 1.491 . S
C1253 C1252 1.400 1_455 S
C1253 C1254 1.398 . S
C1254 H1242 0.950 . S
C1254 C1253 1.398 . S
C1254 C1255 1.391 . S
C1255 H1243 0.950 . S
C1255 C1251 1.393 . S
C1255 C1254 1.391 . S
H1256 C1264 0.950 . S
H1257 C1269 0.950 . S
H1258 C1266 0.950 . S
H1259 C1268 0.950 . S
H1260 C1270 0.950 . S
H1261 C1272 0.950 . S
H1262 C1274 0.950 . S
H1263 C1275 0.950 . S
C1264 H1256 0.950 . S
C1264 C1265 1.396 . S
C1264 C1266 1.391 . S
C1265 C1264 1.396 . S
C1265 C1269 1.383 1_545 S
C1266 H1258 0.950 . S
C1266 C1264 1.391 . S
C1266 C1267 1.413 . S
C1267 C1266 1.413 . S
C1267 C1268 1.386 1_545 S
C1267 C1273 1.491 . S
C1268 H1259 0.950 . S
C1268 C1267 1.386 1_565 S
C1268 C1269 1.391 . S
C1269 H1257 0.950 . S
C1269 C1265 1.383 1_565 S
C1269 C1268 1.391 . S
C1270 H1260 0.950 . S
C1270 C1271 1.377 1_565 S
C1270 C1272 1.391 . S
C1271 C1270 1.377 1_545 S
C1271 C1275 1.401 . S
C1272 H1261 0.950 . S
C1272 C1270 1.391 . S
C1272 C1273 1.395 1_565 S
C1273 C1267 1.491 . S
C1273 C1272 1.395 1_545 S
C1273 C1274 1.404 . S
C1274 H1262 0.950 . S
C1274 C1273 1.404 . S
C1274 C1275 1.391 . S
C1275 H1263 0.950 . S
C1275 C1271 1.401 . S
C1275 C1274 1.391 . S
H1276 C1284 0.950 . S
H1277 C1289 0.950 . S
H1278 C1286 0.950 . S
H1279 C1288 0.950 . S
H1280 C1290 0.950 . S
H1281 C1292 0.950 . S
H1282 C1294 0.950 . S
H1283 C1295 0.950 . S
C1284 H1276 0.950 . S
C1284 C1285 1.386 . S
C1284 C1286 1.391 . S
C1285 C1284 1.386 . S
C1285 C1289 1.393 1_455 S
C1286 H1278 0.950 . S
C1286 C1284 1.391 . S
C1286 C1287 1.400 . S
C1287 C1286 1.400 . S
C1287 C1288 1.398 1_455 S
C1287 C1293 1.491 . S
C1288 H1279 0.950 . S
C1288 C1287 1.398 1_655 S
C1288 C1289 1.391 . S
C1289 H1277 0.950 . S
C1289 C1285 1.393 1_655 S
C1289 C1288 1.391 . S
C1290 H1280 0.950 . S
C1290 C1291 1.386 1_655 S
C1290 C1292 1.391 . S
C1291 C1290 1.386 1_455 S
C1291 C1295 1.393 . S
C1292 H1281 0.950 . S
C1292 C1290 1.391 . S
C1292 C1293 1.400 1_655 S
C1293 C1287 1.491 . S
C1293 C1292 1.400 1_455 S
C1293 C1294 1.398 . S
C1294 H1282 0.950 . S
C1294 C1293 1.398 . S
C1294 C1295 1.391 . S
C1295 H1283 0.950 . S
C1295 C1291 1.393 . S
C1295 C1294 1.391 . S
H1296 C1304 0.950 . S
H1297 C1309 0.950 . S
H1298 C1306 0.950 . S
H1299 C1308 0.950 . S
H1300 C1310 0.950 . S
H1301 C1312 0.950 . S
H1302 C1314 0.950 . S
H1303 C1315 0.950 . S
C1304 H1296 0.950 . S
C1304 C1305 1.388 1_545 S
C1304 C1306 1.391 . S
C1305 C1304 1.388 1_565 S
C1305 C1309 1.391 . S
C1306 H1298 0.950 . S
C1306 C1304 1.391 . S
C1306 C1307 1.404 . S
C1307 C1306 1.404 . S
C1307 C1308 1.394 1_545 S
C1307 C1313 1.491 . S
C1308 H1299 0.950 . S
C1308 C1307 1.394 1_565 S
C1308 C1309 1.391 . S
C1309 H1297 0.950 . S
C1309 C1305 1.391 . S
C1309 C1308 1.391 . S
C1310 H1300 0.950 . S
C1310 C1311 1.360 1_565 S
C1310 C1312 1.391 . S
C1311 C1310 1.360 1_545 S
C1311 C1315 1.419 . S
C1312 H1301 0.950 . S
C1312 C1310 1.391 . S
C1312 C1313 1.386 1_565 S
C1313 C1307 1.491 . S
C1313 C1312 1.386 1_545 S
C1313 C1314 1.413 . S
C1314 H1302 0.950 . S
C1314 C1313 1.413 . S
C1314 C1315 1.391 . S
C1315 H1303 0.950 . S
C1315 C1311 1.419 . S
C1315 C1314 1.391 . S
H1316 C1324 0.950 . S
H1317 C1329 0.950 . S
H1318 C1326 0.950 . S
H1319 C1328 0.950 . S
H1320 C1330 0.950 . S
H1321 C1332 0.950 . S
H1322 C1334 0.950 . S
H1323 C1335 0.950 . S
C1324 H1316 0.950 . S
C1324 C1325 1.386 1_655 S
C1324 C1326 1.391 . S
C1325 C1324 1.386 1_455 S
C1325 C1329 1.393 . S
C1326 H1318 0.950 . S
C1326 C1324 1.391 . S
C1326 C1327 1.400 1_655 S
C1327 C1326 1.400 1_455 S
C1327 C1328 1.398 . S
C1327 C1333 1.491 . S
C1328 H1319 0.950 . S
C1328 C1327 1.398 . S
C1328 C1329 1.391 . S
C1329 H1317 0.950 . S
C1329 C1325 1.393 . S
C1329 C1328 1.391 . S
C1330 H1320 0.950 . S
C1330 C1331 1.386 . S
C1330 C1332 1.391 . S
C1331 C1330 1.386 . S
C1331 C1335 1.393 1_455 S
C1332 H1321 0.950 . S
C1332 C1330 1.391 . S
C1332 C1333 1.400 . S
C1333 C1327 1.491 . S
C1333 C1332 1.400 . S
C1333 C1334 1.398 1_455 S
C1334 H1322 0.950 . S
C1334 C1333 1.398 1_655 S
C1334 C1335 1.391 . S
C1335 H1323 0.950 . S
C1335 C1331 1.393 1_655 S
C1335 C1334 1.391 . S
H1336 C1344 0.950 . S
H1337 C1349 0.950 . S
H1338 C1346 0.950 . S
H1339 C1348 0.950 . S
H1340 C1350 0.950 . S
H1341 C1352 0.950 . S
H1342 C1354 0.950 . S
H1343 C1355 0.950 . S
C1344 H1336 0.950 . S
C1344 C1345 1.386 . S
C1344 C1346 1.391 . S
C1345 C1344 1.386 . S
C1345 C1349 1.393 1_545 S
C1346 H1338 0.950 . S
C1346 C1344 1.391 . S
C1346 C1347 1.436 . S
C1347 C1346 1.436 . S
C1347 C1348 1.363 1_545 S
C1347 C1353 1.491 . S
C1348 H1339 0.950 . S
C1348 C1347 1.363 1_565 S
C1348 C1349 1.391 . S
C1349 H1337 0.950 . S
C1349 C1345 1.393 1_565 S
C1349 C1348 1.391 . S
C1350 H1340 0.950 . S
C1350 C1351 1.371 1_565 S
C1350 C1352 1.391 . S
C1351 C1350 1.371 1_545 S
C1351 C1355 1.407 . S
C1352 H1341 0.950 . S
C1352 C1350 1.391 . S
C1352 C1353 1.377 1_565 S
C1353 C1347 1.491 . S
C1353 C1352 1.377 1_545 S
C1353 C1354 1.422 . S
C1354 H1342 0.950 . S
C1354 C1353 1.422 . S
C1354 C1355 1.391 . S
C1355 H1343 0.950 . S
C1355 C1351 1.407 . S
C1355 C1354 1.391 . S
H1356 C1364 0.950 . S
H1357 C1369 0.950 . S
H1358 C1366 0.950 . S
H1359 C1368 0.950 . S
H1360 C1370 0.950 1_655 S
H1361 C1372 0.950 1_655 S
H1362 C1374 0.950 . S
H1363 C1375 0.950 . S
C1364 H1356 0.950 . S
C1364 C1365 1.386 . S
C1364 C1366 1.391 . S
C1365 C1364 1.386 . S
C1365 C1369 1.393 1_455 S
C1366 H1358 0.950 . S
C1366 C1364 1.391 . S
C1366 C1367 1.400 . S
C1367 C1366 1.400 . S
C1367 C1368 1.398 1_455 S
C1367 C1373 1.491 . S
C1368 H1359 0.950 . S
C1368 C1367 1.398 1_655 S
C1368 C1369 1.391 . S
C1369 H1357 0.950 . S
C1369 C1365 1.393 1_655 S
C1369 C1368 1.391 . S
C1370 H1360 0.950 1_455 S
C1370 C1371 1.386 . S
C1370 C1372 1.391 . S
C1371 C1370 1.386 . S
C1371 C1375 1.393 . S
C1372 H1361 0.950 1_455 S
C1372 C1370 1.391 . S
C1372 C1373 1.400 . S
C1373 C1367 1.491 . S
C1373 C1372 1.400 . S
C1373 C1374 1.398 . S
C1374 H1362 0.950 . S
C1374 C1373 1.398 . S
C1374 C1375 1.391 . S
C1375 H1363 0.950 . S
C1375 C1371 1.393 . S
C1375 C1374 1.391 . S
H1376 C1384 0.950 . S
H1377 C1389 0.950 . S
H1378 C1386 0.950 . S
H1379 C1388 0.950 . S
H1380 C1390 0.950 . S
H1381 C1392 0.950 . S
H1382 C1394 0.950 . S
H1383 C1395 0.950 . S
C1384 H1376 0.950 . S
C1384 C1385 1.386 1_565 S
C1384 C1386 1.391 . S
C1385 C1384 1.386 1_545 S
C1385 C1389 1.393 . S
C1386 H1378 0.950 . S
C1386 C1384 1.391 . S
C1386 C1387 1.400 1_565 S
C1387 C1386 1.400 1_545 S
C1387 C1388 1.398 . S
C1387 C1393 1.491 . S
C1388 H1379 0.950 . S
C1388 C1387 1.398 . S
C1388 C1389 1.391 . S
C1389 H1377 0.950 . S
C1389 C1385 1.393 . S
C1389 C1388 1.391 . S
C1390 H1380 0.950 . S
C1390 C1391 1.382 1_545 S
C1390 C1392 1.391 . S
C1391 C1390 1.382 1_565 S
C1391 C1395 1.396 . S
C1392 H1381 0.950 . S
C1392 C1390 1.391 . S
C1392 C1393 1.403 . S
C1393 C1387 1.491 . S
C1393 C1392 1.403 . S
C1393 C1394 1.395 1_545 S
C1394 H1382 0.950 . S
C1394 C1393 1.395 1_565 S
C1394 C1395 1.391 . S
C1395 H1383 0.950 . S
C1395 C1391 1.396 . S
C1395 C1394 1.391 . S
H1396 C1404 0.950 . S
H1397 C1409 0.950 . S
H1398 C1406 0.950 . S
H1399 C1408 0.950 . S
H1400 C1410 0.950 . S
H1401 C1412 0.950 . S
H1402 C1414 0.950 . S
H1403 C1415 0.950 . S
C1404 H1396 0.950 . S
C1404 C1405 1.372 1_565 S
C1404 C1406 1.391 . S
C1405 C1404 1.372 1_545 S
C1405 C1409 1.406 . S
C1406 H1398 0.950 . S
C1406 C1404 1.391 . S
C1406 C1407 1.390 1_565 S
C1407 C1406 1.390 1_545 S
C1407 C1408 1.409 . S
C1407 C1413 1.491 . S
C1408 H1399 0.950 . S
C1408 C1407 1.409 . S
C1408 C1409 1.391 . S
C1409 H1397 0.950 . S
C1409 C1405 1.406 . S
C1409 C1408 1.391 . S
C1410 H1400 0.950 . S
C1410 C1411 1.389 1_545 S
C1410 C1412 1.391 . S
C1411 C1410 1.389 1_565 S
C1411 C1415 1.389 . S
C1412 H1401 0.950 . S
C1412 C1410 1.391 . S
C1412 C1413 1.398 . S
C1413 C1407 1.491 . S
C1413 C1412 1.398 . S
C1413 C1414 1.401 1_545 S
C1414 H1402 0.950 . S
C1414 C1413 1.401 1_565 S
C1414 C1415 1.391 . S
C1415 H1403 0.950 . S
C1415 C1411 1.389 . S
C1415 C1414 1.391 . S
H1416 C1424 0.950 . S
H1417 C1429 0.950 . S
H1418 C1426 0.950 . S
H1419 C1428 0.950 . S
H1420 C1430 0.950 . S
H1421 C1432 0.950 . S
H1422 C1434 0.950 . S
H1423 C1435 0.950 . S
C1424 H1416 0.950 . S
C1424 C1425 1.386 . S
C1424 C1426 1.391 . S
C1425 C1424 1.386 . S
C1425 C1429 1.393 1_455 S
C1426 H1418 0.950 . S
C1426 C1424 1.391 . S
C1426 C1427 1.400 . S
C1427 C1426 1.400 . S
C1427 C1428 1.398 1_455 S
C1427 C1433 1.491 . S
C1428 H1419 0.950 . S
C1428 C1427 1.398 1_655 S
C1428 C1429 1.391 . S
C1429 H1417 0.950 . S
C1429 C1425 1.393 1_655 S
C1429 C1428 1.391 . S
C1430 H1420 0.950 . S
C1430 C1431 1.386 1_655 S
C1430 C1432 1.391 . S
C1431 C1430 1.386 1_455 S
C1431 C1435 1.393 . S
C1432 H1421 0.950 . S
C1432 C1430 1.391 . S
C1432 C1433 1.400 1_655 S
C1433 C1427 1.491 . S
C1433 C1432 1.400 1_455 S
C1433 C1434 1.398 . S
C1434 H1422 0.950 . S
C1434 C1433 1.398 . S
C1434 C1435 1.391 . S
C1435 H1423 0.950 . S
C1435 C1431 1.393 . S
C1435 C1434 1.391 . S
H1436 C1444 0.950 . S
H1437 C1449 0.950 . S
H1438 C1446 0.950 . S
H1439 C1448 0.950 . S
H1440 C1450 0.950 . S
H1441 C1452 0.950 . S
H1442 C1454 0.950 . S
H1443 C1455 0.950 . S
C1444 H1436 0.950 . S
C1444 C1445 1.385 . S
C1444 C1446 1.391 . S
C1445 C1444 1.385 . S
C1445 C1449 1.394 1_545 S
C1446 H1438 0.950 . S
C1446 C1444 1.391 . S
C1446 C1447 1.404 . S
C1447 C1446 1.404 . S
C1447 C1448 1.394 1_545 S
C1447 C1453 1.491 . S
C1448 H1439 0.950 . S
C1448 C1447 1.394 1_565 S
C1448 C1449 1.391 . S
C1449 H1437 0.950 . S
C1449 C1445 1.394 1_565 S
C1449 C1448 1.391 . S
C1450 H1440 0.950 . S
C1450 C1451 1.377 1_565 S
C1450 C1452 1.391 . S
C1451 C1450 1.377 1_545 S
C1451 C1455 1.402 . S
C1452 H1441 0.950 . S
C1452 C1450 1.391 . S
C1452 C1453 1.396 1_565 S
C1453 C1447 1.491 . S
C1453 C1452 1.396 1_545 S
C1453 C1454 1.402 . S
C1454 H1442 0.950 . S
C1454 C1453 1.402 . S
C1454 C1455 1.391 . S
C1455 H1443 0.950 . S
C1455 C1451 1.402 . S
C1455 C1454 1.391 . S
H1456 C1464 0.950 . S
H1457 C1469 0.950 . S
H1458 C1466 0.950 . S
H1459 C1468 0.950 . S
H1460 C1470 0.950 . S
H1461 C1472 0.950 . S
H1462 C1474 0.950 . S
H1463 C1475 0.950 . S
C1464 H1456 0.950 . S
C1464 C1465 1.386 1_655 S
C1464 C1466 1.391 . S
C1465 C1464 1.386 1_455 S
C1465 C1469 1.393 . S
C1466 H1458 0.950 . S
C1466 C1464 1.391 . S
C1466 C1467 1.400 1_655 S
C1467 C1466 1.400 1_455 S
C1467 C1468 1.398 . S
C1467 C1473 1.491 . S
C1468 H1459 0.950 . S
C1468 C1467 1.398 . S
C1468 C1469 1.391 . S
C1469 H1457 0.950 . S
C1469 C1465 1.393 . S
C1469 C1468 1.391 . S
C1470 H1460 0.950 . S
C1470 C1471 1.386 . S
C1470 C1472 1.391 . S
C1471 C1470 1.386 . S
C1471 C1475 1.393 1_455 S
C1472 H1461 0.950 . S
C1472 C1470 1.391 . S
C1472 C1473 1.400 . S
C1473 C1467 1.491 . S
C1473 C1472 1.400 . S
C1473 C1474 1.398 1_455 S
C1474 H1462 0.950 . S
C1474 C1473 1.398 1_655 S
C1474 C1475 1.391 . S
C1475 H1463 0.950 . S
C1475 C1471 1.393 1_655 S
C1475 C1474 1.391 . S
H1476 C1484 0.950 . S
H1477 C1489 0.950 . S
H1478 C1486 0.950 . S
H1479 C1488 0.950 . S
H1480 C1490 0.950 . S
H1481 C1492 0.950 . S
H1482 C1494 0.950 . S
H1483 C1495 0.950 . S
C1484 H1476 0.950 . S
C1484 C1485 1.386 . S
C1484 C1486 1.391 . S
C1485 C1484 1.386 . S
C1485 C1489 1.393 1_545 S
C1486 H1478 0.950 . S
C1486 C1484 1.391 . S
C1486 C1487 1.436 . S
C1487 C1486 1.436 . S
C1487 C1488 1.363 1_545 S
C1487 C1493 1.491 . S
C1488 H1479 0.950 . S
C1488 C1487 1.363 1_565 S
C1488 C1489 1.391 . S
C1489 H1477 0.950 . S
C1489 C1485 1.393 1_565 S
C1489 C1488 1.391 . S
C1490 H1480 0.950 . S
C1490 C1491 1.367 1_565 S
C1490 C1492 1.391 . S
C1491 C1490 1.367 1_545 S
C1491 C1495 1.411 . S
C1492 H1481 0.950 . S
C1492 C1490 1.391 . S
C1492 C1493 1.374 1_565 S
C1493 C1487 1.491 . S
C1493 C1492 1.374 1_545 S
C1493 C1494 1.424 . S
C1494 H1482 0.950 . S
C1494 C1493 1.424 . S
C1494 C1495 1.391 . S
C1495 H1483 0.950 . S
C1495 C1491 1.411 . S
C1495 C1494 1.391 . S
H1496 C1504 0.950 . S
H1497 C1509 0.950 . S
H1498 C1506 0.950 . S
H1499 C1508 0.950 . S
H1500 C1510 0.950 . S
H1501 C1512 0.950 . S
H1502 C1514 0.950 . S
H1503 C1515 0.950 . S
C1504 H1496 0.950 . S
C1504 C1505 1.386 1_655 S
C1504 C1506 1.391 . S
C1505 C1504 1.386 1_455 S
C1505 C1509 1.393 . S
C1506 H1498 0.950 . S
C1506 C1504 1.391 . S
C1506 C1507 1.400 1_655 S
C1507 C1506 1.400 1_455 S
C1507 C1508 1.398 . S
C1507 C1513 1.491 . S
C1508 H1499 0.950 . S
C1508 C1507 1.398 . S
C1508 C1509 1.391 . S
C1509 H1497 0.950 . S
C1509 C1505 1.393 . S
C1509 C1508 1.391 . S
C1510 H1500 0.950 . S
C1510 C1511 1.386 . S
C1510 C1512 1.391 . S
C1511 C1510 1.386 . S
C1511 C1515 1.393 1_455 S
C1512 H1501 0.950 . S
C1512 C1510 1.391 . S
C1512 C1513 1.400 . S
C1513 C1507 1.491 . S
C1513 C1512 1.400 . S
C1513 C1514 1.398 1_455 S
C1514 H1502 0.950 . S
C1514 C1513 1.398 1_655 S
C1514 C1515 1.391 . S
C1515 H1503 0.950 . S
C1515 C1511 1.393 1_655 S
C1515 C1514 1.391 . S
H1516 C1524 0.950 . S
H1517 C1529 0.950 . S
H1518 C1526 0.950 . S
H1519 C1528 0.950 . S
H1520 C1530 0.950 . S
H1521 C1532 0.950 . S
H1522 C1534 0.950 . S
H1523 C1535 0.950 . S
C1524 H1516 0.950 . S
C1524 C1525 1.418 . S
C1524 C1526 1.391 . S
C1525 C1524 1.418 . S
C1525 C1529 1.360 1_545 S
C1526 H1518 0.950 . S
C1526 C1524 1.391 . S
C1526 C1527 1.430 . S
C1527 C1526 1.430 . S
C1527 C1528 1.369 1_545 S
C1527 C1533 1.491 . S
C1528 H1519 0.950 . S
C1528 C1527 1.369 1_565 S
C1528 C1529 1.391 . S
C1529 H1517 0.950 . S
C1529 C1525 1.360 1_565 S
C1529 C1528 1.391 . S
C1530 H1520 0.950 . S
C1530 C1531 1.359 1_565 S
C1530 C1532 1.391 . S
C1531 C1530 1.359 1_545 S
C1531 C1535 1.420 . S
C1532 H1521 0.950 . S
C1532 C1530 1.391 . S
C1532 C1533 1.371 1_565 S
C1533 C1527 1.491 . S
C1533 C1532 1.371 1_545 S
C1533 C1534 1.428 . S
C1534 H1522 0.950 . S
C1534 C1533 1.428 . S
C1534 C1535 1.391 . S
C1535 H1523 0.950 . S
C1535 C1531 1.420 . S
C1535 C1534 1.391 . S
H1536 C1544 0.950 . S
H1537 C1549 0.950 . S
H1538 C1546 0.950 . S
H1539 C1548 0.950 . S
H1540 C1550 0.950 . S
H1541 C1552 0.950 . S
H1542 C1554 0.950 . S
H1543 C1555 0.950 . S
C1544 H1536 0.950 . S
C1544 C1545 1.386 1_655 S
C1544 C1546 1.391 . S
C1545 C1544 1.386 1_455 S
C1545 C1549 1.393 . S
C1546 H1538 0.950 . S
C1546 C1544 1.391 . S
C1546 C1547 1.400 1_655 S
C1547 C1546 1.400 1_455 S
C1547 C1548 1.398 . S
C1547 C1553 1.491 . S
C1548 H1539 0.950 . S
C1548 C1547 1.398 . S
C1548 C1549 1.391 . S
C1549 H1537 0.950 . S
C1549 C1545 1.393 . S
C1549 C1548 1.391 . S
C1550 H1540 0.950 . S
C1550 C1551 1.386 . S
C1550 C1552 1.391 . S
C1551 C1550 1.386 . S
C1551 C1555 1.393 1_455 S
C1552 H1541 0.950 . S
C1552 C1550 1.391 . S
C1552 C1553 1.400 . S
C1553 C1547 1.491 . S
C1553 C1552 1.400 . S
C1553 C1554 1.398 1_455 S
C1554 H1542 0.950 . S
C1554 C1553 1.398 1_655 S
C1554 C1555 1.391 . S
C1555 H1543 0.950 . S
C1555 C1551 1.393 1_655 S
C1555 C1554 1.391 . S
H1556 C1564 0.950 . S
H1557 C1569 0.950 . S
H1558 C1566 0.950 . S
H1559 C1568 0.950 . S
H1560 C1570 0.950 . S
H1561 C1572 0.950 . S
H1562 C1574 0.950 . S
H1563 C1575 0.950 . S
C1564 H1556 0.950 . S
C1564 C1565 1.386 . S
C1564 C1566 1.391 . S
C1565 C1564 1.386 . S
C1565 C1569 1.393 1_554 S
C1566 H1558 0.950 . S
C1566 C1564 1.391 . S
C1566 C1567 1.400 . S
C1567 C1566 1.400 . S
C1567 C1568 1.398 1_554 S
C1567 C1573 1.491 . S
C1568 H1559 0.950 . S
C1568 C1567 1.398 1_556 S
C1568 C1569 1.391 . S
C1569 H1557 0.950 . S
C1569 C1565 1.393 1_556 S
C1569 C1568 1.391 . S
C1570 H1560 0.950 . S
C1570 C1571 1.386 1_556 S
C1570 C1572 1.391 . S
C1571 C1570 1.386 1_554 S
C1571 C1575 1.393 . S
C1572 H1561 0.950 . S
C1572 C1570 1.391 . S
C1572 C1573 1.400 1_556 S
C1573 C1567 1.491 . S
C1573 C1572 1.400 1_554 S
C1573 C1574 1.398 . S
C1574 H1562 0.950 . S
C1574 C1573 1.398 . S
C1574 C1575 1.391 . S
C1575 H1563 0.950 . S
C1575 C1571 1.393 . S
C1575 C1574 1.391 . S
H1576 C1584 0.950 . S
H1577 C1589 0.950 . S
H1578 C1586 0.950 . S
H1579 C1588 0.950 . S
H1580 C1590 0.950 . S
H1581 C1592 0.950 . S
H1582 C1594 0.950 . S
H1583 C1595 0.950 . S
C1584 H1576 0.950 . S
C1584 C1585 1.386 1_556 S
C1584 C1586 1.391 . S
C1585 C1584 1.386 1_554 S
C1585 C1589 1.393 . S
C1586 H1578 0.950 . S
C1586 C1584 1.391 . S
C1586 C1587 1.400 1_556 S
C1587 C1586 1.400 1_554 S
C1587 C1588 1.398 . S
C1587 C1593 1.491 . S
C1588 H1579 0.950 . S
C1588 C1587 1.398 . S
C1588 C1589 1.391 . S
C1589 H1577 0.950 . S
C1589 C1585 1.393 . S
C1589 C1588 1.391 . S
C1590 H1580 0.950 . S
C1590 C1591 1.386 . S
C1590 C1592 1.391 . S
C1591 C1590 1.386 . S
C1591 C1595 1.393 1_554 S
C1592 H1581 0.950 . S
C1592 C1590 1.391 . S
C1592 C1593 1.400 . S
C1593 C1587 1.491 . S
C1593 C1592 1.400 . S
C1593 C1594 1.398 1_554 S
C1594 H1582 0.950 . S
C1594 C1593 1.398 1_556 S
C1594 C1595 1.391 . S
C1595 H1583 0.950 . S
C1595 C1591 1.393 1_556 S
C1595 C1594 1.391 . S
H1596 C1604 0.950 . S
H1597 C1609 0.950 . S
H1598 C1606 0.950 . S
H1599 C1608 0.950 . S
H1600 C1610 0.950 1_556 S
H1601 C1612 0.944 1_556 S
H1602 C1614 0.950 . S
H1603 C1615 0.950 . S
C1604 H1596 0.950 . S
C1604 C1605 1.386 . S
C1604 C1606 1.391 . S
C1605 C1604 1.386 . S
C1605 C1609 1.393 1_554 S
C1606 H1598 0.950 . S
C1606 C1604 1.391 . S
C1606 C1607 1.400 . S
C1607 C1606 1.400 . S
C1607 C1608 1.398 1_554 S
C1607 C1613 1.491 . S
C1608 H1599 0.950 . S
C1608 C1607 1.398 1_556 S
C1608 C1609 1.391 . S
C1609 H1597 0.950 . S
C1609 C1605 1.393 1_556 S
C1609 C1608 1.391 . S
C1610 H1600 0.950 1_554 S
C1610 C1611 1.386 . S
C1610 C1612 1.392 . S
C1611 C1610 1.386 . S
C1611 C1615 1.393 . S
C1612 H1601 0.944 1_554 S
C1612 C1610 1.392 . S
C1612 C1613 1.406 . S
C1613 C1607 1.491 . S
C1613 C1612 1.406 . S
C1613 C1614 1.398 . S
C1614 H1602 0.950 . S
C1614 C1613 1.398 . S
C1614 C1615 1.391 . S
C1615 H1603 0.950 . S
C1615 C1611 1.393 . S
C1615 C1614 1.391 . S
H1616 C1624 0.950 . S
H1617 C1629 0.950 . S
H1618 C1626 0.950 . S
H1619 C1628 0.950 . S
H1620 C1630 0.950 . S
H1621 C1632 0.950 . S
H1622 C1634 0.950 . S
H1623 C1635 0.952 . S
C1624 H1616 0.950 . S
C1624 C1625 1.386 . S
C1624 C1626 1.391 . S
C1625 C1624 1.386 . S
C1625 C1629 1.393 . S
C1626 H1618 0.950 . S
C1626 C1624 1.391 . S
C1626 C1627 1.400 . S
C1627 C1626 1.400 . S
C1627 C1628 1.398 . S
C1627 C1633 1.491 . S
C1628 H1619 0.950 . S
C1628 C1627 1.398 . S
C1628 C1629 1.391 . S
C1629 H1617 0.950 . S
C1629 C1625 1.393 . S
C1629 C1628 1.391 . S
C1630 H1620 0.950 . S
C1630 C1631 1.386 . S
C1630 C1632 1.391 . S
C1631 C1630 1.386 . S
C1631 C1635 1.393 . S
C1632 H1621 0.950 . S
C1632 C1630 1.391 . S
C1632 C1633 1.400 . S
C1633 C1627 1.491 . S
C1633 C1632 1.400 . S
C1633 C1634 1.398 . S
C1634 H1622 0.950 . S
C1634 C1633 1.398 . S
C1634 C1635 1.391 . S
C1635 H1623 0.952 . S
C1635 C1631 1.393 . S
C1635 C1634 1.391 . S
H1636 C1644 0.950 . S
H1637 C1649 0.950 . S
H1638 C1646 0.950 . S
H1639 C1648 0.950 . S
H1640 C1650 0.950 1_556 S
H1641 C1652 0.950 1_556 S
H1642 C1654 0.950 . S
H1643 C1655 0.950 . S
C1644 H1636 0.950 . S
C1644 C1645 1.386 . S
C1644 C1646 1.391 . S
C1645 C1644 1.386 . S
C1645 C1649 1.393 1_554 S
C1646 H1638 0.950 . S
C1646 C1644 1.391 . S
C1646 C1647 1.400 . S
C1647 C1646 1.400 . S
C1647 C1648 1.398 1_554 S
C1647 C1653 1.491 . S
C1648 H1639 0.950 . S
C1648 C1647 1.398 1_556 S
C1648 C1649 1.391 . S
C1649 H1637 0.950 . S
C1649 C1645 1.393 1_556 S
C1649 C1648 1.391 . S
C1650 H1640 0.950 1_554 S
C1650 C1651 1.386 . S
C1650 C1652 1.391 . S
C1651 C1650 1.386 . S
C1651 C1655 1.393 . S
C1652 H1641 0.950 1_554 S
C1652 C1650 1.391 . S
C1652 C1653 1.400 . S
C1653 C1647 1.491 . S
C1653 C1652 1.400 . S
C1653 C1654 1.398 . S
C1654 H1642 0.950 . S
C1654 C1653 1.398 . S
C1654 C1655 1.391 . S
C1655 H1643 0.950 . S
C1655 C1651 1.393 . S
C1655 C1654 1.391 . S
H1656 C1664 0.950 . S
H1657 C1669 0.950 . S
H1658 C1666 0.950 . S
H1659 C1668 0.950 . S
H1660 C1670 0.950 . S
H1661 C1672 0.950 . S
H1662 C1674 0.950 . S
H1663 C1675 0.950 . S
C1664 H1656 0.950 . S
C1664 C1665 1.386 . S
C1664 C1666 1.391 . S
C1665 C1664 1.386 . S
C1665 C1669 1.393 1_554 S
C1666 H1658 0.950 . S
C1666 C1664 1.391 . S
C1666 C1667 1.400 . S
C1667 C1666 1.400 . S
C1667 C1668 1.398 1_554 S
C1667 C1673 1.491 . S
C1668 H1659 0.950 . S
C1668 C1667 1.398 1_556 S
C1668 C1669 1.391 . S
C1669 H1657 0.950 . S
C1669 C1665 1.393 1_556 S
C1669 C1668 1.391 . S
C1670 H1660 0.950 . S
C1670 C1671 1.386 1_556 S
C1670 C1672 1.391 . S
C1671 C1670 1.386 1_554 S
C1671 C1675 1.393 . S
C1672 H1661 0.950 . S
C1672 C1670 1.391 . S
C1672 C1673 1.400 1_556 S
C1673 C1667 1.491 . S
C1673 C1672 1.400 1_554 S
C1673 C1674 1.398 . S
C1674 H1662 0.950 . S
C1674 C1673 1.398 . S
C1674 C1675 1.391 . S
C1675 H1663 0.950 . S
C1675 C1671 1.393 . S
C1675 C1674 1.391 . S
H1676 C1684 0.963 . S
H1677 C1689 0.950 . S
H1678 C1686 0.948 1_556 S
H1679 C1688 0.950 . S
H1680 C1690 0.950 . S
H1681 C1692 0.950 . S
H1682 C1694 0.950 1_556 S
H1683 C1695 0.950 1_556 S
C1684 H1676 0.963 . S
C1684 C1685 1.375 1_556 S
C1684 C1686 1.390 1_556 S
C1685 C1684 1.375 1_554 S
C1685 C1689 1.393 . S
C1686 H1678 0.948 1_554 S
C1686 C1684 1.390 1_554 S
C1686 C1687 1.402 . S
C1687 C1686 1.402 . S
C1687 C1688 1.398 . S
C1687 C1693 1.491 . S
C1688 H1679 0.950 . S
C1688 C1687 1.398 . S
C1688 C1689 1.391 . S
C1689 H1677 0.950 . S
C1689 C1685 1.393 . S
C1689 C1688 1.391 . S
C1690 H1680 0.950 . S
C1690 C1691 1.386 . S
C1690 C1692 1.391 . S
C1691 C1690 1.386 . S
C1691 C1695 1.393 . S
C1692 H1681 0.950 . S
C1692 C1690 1.391 . S
C1692 C1693 1.400 . S
C1693 C1687 1.491 . S
C1693 C1692 1.400 . S
C1693 C1694 1.398 . S
C1694 H1682 0.950 1_554 S
C1694 C1693 1.398 . S
C1694 C1695 1.391 . S
C1695 H1683 0.950 1_554 S
C1695 C1691 1.393 . S
C1695 C1694 1.391 . S
H1696 C1704 0.950 . S
H1697 C1709 0.950 . S
H1698 C1706 0.950 . S
H1699 C1708 0.950 . S
H1700 C1710 0.950 . S
H1701 C1712 0.950 . S
H1702 C1714 0.950 . S
H1703 C1715 0.950 . S
C1704 H1696 0.950 . S
C1704 C1705 1.386 . S
C1704 C1706 1.391 . S
C1705 C1704 1.386 . S
C1705 C1709 1.393 1_554 S
C1706 H1698 0.950 . S
C1706 C1704 1.391 . S
C1706 C1707 1.400 . S
C1707 C1706 1.400 . S
C1707 C1708 1.398 1_554 S
C1707 C1713 1.491 . S
C1708 H1699 0.950 . S
C1708 C1707 1.398 1_556 S
C1708 C1709 1.391 . S
C1709 H1697 0.950 . S
C1709 C1705 1.393 1_556 S
C1709 C1708 1.391 . S
C1710 H1700 0.950 . S
C1710 C1711 1.386 1_556 S
C1710 C1712 1.391 . S
C1711 C1710 1.386 1_554 S
C1711 C1715 1.393 . S
C1712 H1701 0.950 . S
C1712 C1710 1.391 . S
C1712 C1713 1.400 1_556 S
C1713 C1707 1.491 . S
C1713 C1712 1.400 1_554 S
C1713 C1714 1.398 . S
C1714 H1702 0.950 . S
C1714 C1713 1.398 . S
C1714 C1715 1.391 . S
C1715 H1703 0.950 . S
C1715 C1711 1.393 . S
C1715 C1714 1.391 . S
H1716 C1724 0.950 . S
H1717 C1729 0.950 . S
H1718 C1726 0.950 . S
H1719 C1728 0.950 . S
H1720 C1730 0.950 . S
H1721 C1732 0.950 . S
H1722 C1734 0.950 . S
H1723 C1735 0.950 . S
C1724 H1716 0.950 . S
C1724 C1725 1.386 . S
C1724 C1726 1.391 . S
C1725 C1724 1.386 . S
C1725 C1729 1.393 . S
C1726 H1718 0.950 . S
C1726 C1724 1.391 . S
C1726 C1727 1.400 . S
C1727 C1726 1.400 . S
C1727 C1728 1.398 . S
C1727 C1733 1.491 . S
C1728 H1719 0.950 . S
C1728 C1727 1.398 . S
C1728 C1729 1.391 . S
C1729 H1717 0.950 . S
C1729 C1725 1.393 . S
C1729 C1728 1.391 . S
C1730 H1720 0.950 . S
C1730 C1731 1.386 . S
C1730 C1732 1.391 . S
C1731 C1730 1.386 . S
C1731 C1735 1.393 . S
C1732 H1721 0.950 . S
C1732 C1730 1.391 . S
C1732 C1733 1.400 . S
C1733 C1727 1.491 . S
C1733 C1732 1.400 . S
C1733 C1734 1.398 . S
C1734 H1722 0.950 . S
C1734 C1733 1.398 . S
C1734 C1735 1.391 . S
C1735 H1723 0.950 . S
C1735 C1731 1.393 . S
C1735 C1734 1.391 . S
H1736 C1744 0.950 . S
H1737 C1749 0.950 . S
H1738 C1746 0.950 . S
H1739 C1748 0.950 . S
H1740 C1750 0.950 . S
H1741 C1752 0.950 . S
H1742 C1754 0.950 . S
H1743 C1755 0.950 . S
C1744 H1736 0.950 . S
C1744 C1745 1.386 . S
C1744 C1746 1.391 . S
C1745 C1744 1.386 . S
C1745 C1749 1.393 . S
C1746 H1738 0.950 . S
C1746 C1744 1.391 . S
C1746 C1747 1.400 . S
C1747 C1746 1.400 . S
C1747 C1748 1.398 . S
C1747 C1753 1.491 . S
C1748 H1739 0.950 . S
C1748 C1747 1.398 . S
C1748 C1749 1.391 . S
C1749 H1737 0.950 . S
C1749 C1745 1.393 . S
C1749 C1748 1.391 . S
C1750 H1740 0.950 . S
C1750 C1751 1.386 . S
C1750 C1752 1.391 . S
C1751 C1750 1.386 . S
C1751 C1755 1.393 . S
C1752 H1741 0.950 . S
C1752 C1750 1.391 . S
C1752 C1753 1.400 . S
C1753 C1747 1.491 . S
C1753 C1752 1.400 . S
C1753 C1754 1.398 . S
C1754 H1742 0.950 . S
C1754 C1753 1.398 . S
C1754 C1755 1.391 . S
C1755 H1743 0.950 . S
C1755 C1751 1.393 . S
C1755 C1754 1.391 . S
H1756 C1764 0.950 . S
H1757 C1769 0.950 . S
H1758 C1766 0.950 . S
H1759 C1768 0.950 . S
H1760 C1770 0.950 . S
H1761 C1772 0.950 . S
H1762 C1774 0.950 . S
H1763 C1775 0.950 . S
C1764 H1756 0.950 . S
C1764 C1765 1.386 . S
C1764 C1766 1.391 . S
C1765 C1764 1.386 . S
C1765 C1769 1.393 . S
C1766 H1758 0.950 . S
C1766 C1764 1.391 . S
C1766 C1767 1.400 . S
C1767 C1766 1.400 . S
C1767 C1768 1.398 . S
C1767 C1773 1.491 . S
C1768 H1759 0.950 . S
C1768 C1767 1.398 . S
C1768 C1769 1.391 . S
C1769 H1757 0.950 . S
C1769 C1765 1.393 . S
C1769 C1768 1.391 . S
C1770 H1760 0.950 . S
C1770 C1771 1.386 . S
C1770 C1772 1.391 . S
C1771 C1770 1.386 . S
C1771 C1775 1.393 . S
C1772 H1761 0.950 . S
C1772 C1770 1.391 . S
C1772 C1773 1.400 . S
C1773 C1767 1.491 . S
C1773 C1772 1.400 . S
C1773 C1774 1.398 . S
C1774 H1762 0.950 . S
C1774 C1773 1.398 . S
C1774 C1775 1.391 . S
C1775 H1763 0.950 . S
C1775 C1771 1.393 . S
C1775 C1774 1.391 . S
H1776 C1784 0.950 . S
H1777 C1789 0.950 . S
H1778 C1786 0.950 . S
H1779 C1788 0.950 . S
H1780 C1790 0.950 . S
H1781 C1792 0.950 . S
H1782 C1794 0.950 . S
H1783 C1795 0.950 . S
C1784 H1776 0.950 . S
C1784 C1785 1.386 . S
C1784 C1786 1.391 . S
C1785 C1784 1.386 . S
C1785 C1789 1.393 . S
C1786 H1778 0.950 . S
C1786 C1784 1.391 . S
C1786 C1787 1.400 . S
C1787 C1786 1.400 . S
C1787 C1788 1.398 . S
C1787 C1793 1.491 . S
C1788 H1779 0.950 . S
C1788 C1787 1.398 . S
C1788 C1789 1.391 . S
C1789 H1777 0.950 . S
C1789 C1785 1.393 . S
C1789 C1788 1.391 . S
C1790 H1780 0.950 . S
C1790 C1791 1.386 . S
C1790 C1792 1.391 . S
C1791 C1790 1.386 . S
C1791 C1795 1.393 . S
C1792 H1781 0.950 . S
C1792 C1790 1.391 . S
C1792 C1793 1.400 . S
C1793 C1787 1.491 . S
C1793 C1792 1.400 . S
C1793 C1794 1.398 . S
C1794 H1782 0.950 . S
C1794 C1793 1.398 . S
C1794 C1795 1.391 . S
C1795 H1783 0.950 . S
C1795 C1791 1.393 . S
C1795 C1794 1.391 . S
H1796 C1804 0.950 . S
H1797 C1809 0.950 . S
H1798 C1806 0.950 . S
H1799 C1808 0.950 . S
H1800 C1810 0.950 . S
H1801 C1812 0.950 . S
H1802 C1814 0.950 . S
H1803 C1815 0.950 . S
C1804 H1796 0.950 . S
C1804 C1805 1.386 . S
C1804 C1806 1.391 . S
C1805 C1804 1.386 . S
C1805 C1809 1.393 . S
C1806 H1798 0.950 . S
C1806 C1804 1.391 . S
C1806 C1807 1.400 . S
C1807 C1806 1.400 . S
C1807 C1808 1.398 . S
C1807 C1813 1.491 . S
C1808 H1799 0.950 . S
C1808 C1807 1.398 . S
C1808 C1809 1.391 . S
C1809 H1797 0.950 . S
C1809 C1805 1.393 . S
C1809 C1808 1.391 . S
C1810 H1800 0.950 . S
C1810 C1811 1.386 . S
C1810 C1812 1.391 . S
C1811 C1810 1.386 . S
C1811 C1815 1.393 . S
C1812 H1801 0.950 . S
C1812 C1810 1.391 . S
C1812 C1813 1.400 . S
C1813 C1807 1.491 . S
C1813 C1812 1.400 . S
C1813 C1814 1.398 . S
C1814 H1802 0.950 . S
C1814 C1813 1.398 . S
C1814 C1815 1.391 . S
C1815 H1803 0.950 . S
C1815 C1811 1.393 . S
C1815 C1814 1.391 . S
H1816 C1824 0.950 . S
H1817 C1829 0.950 . S
H1818 C1826 0.950 . S
H1819 C1828 0.950 . S
H1820 C1830 0.950 . S
H1821 C1832 0.950 . S
H1822 C1834 0.950 . S
H1823 C1835 0.950 . S
C1824 H1816 0.950 . S
C1824 C1825 1.386 . S
C1824 C1826 1.391 . S
C1825 C1824 1.386 . S
C1825 C1829 1.393 . S
C1826 H1818 0.950 . S
C1826 C1824 1.391 . S
C1826 C1827 1.400 . S
C1827 C1826 1.400 . S
C1827 C1828 1.398 . S
C1827 C1833 1.491 . S
C1828 H1819 0.950 . S
C1828 C1827 1.398 . S
C1828 C1829 1.391 . S
C1829 H1817 0.950 . S
C1829 C1825 1.393 . S
C1829 C1828 1.391 . S
C1830 H1820 0.950 . S
C1830 C1831 1.386 . S
C1830 C1832 1.391 . S
C1831 C1830 1.386 . S
C1831 C1835 1.393 . S
C1832 H1821 0.950 . S
C1832 C1830 1.391 . S
C1832 C1833 1.400 . S
C1833 C1827 1.491 . S
C1833 C1832 1.400 . S
C1833 C1834 1.398 . S
C1834 H1822 0.950 . S
C1834 C1833 1.398 . S
C1834 C1835 1.391 . S
C1835 H1823 0.950 . S
C1835 C1831 1.393 . S
C1835 C1834 1.391 . S
H1836 C1844 0.950 . S
H1837 C1849 0.950 . S
H1838 C1846 0.950 . S
H1839 C1848 0.950 . S
H1840 C1850 0.950 . S
H1841 C1852 0.950 . S
H1842 C1854 0.950 . S
H1843 C1855 0.950 . S
C1844 H1836 0.950 . S
C1844 C1845 1.386 . S
C1844 C1846 1.391 . S
C1845 C1844 1.386 . S
C1845 C1849 1.393 . S
C1846 H1838 0.950 . S
C1846 C1844 1.391 . S
C1846 C1847 1.400 . S
C1847 C1846 1.400 . S
C1847 C1848 1.398 . S
C1847 C1853 1.491 . S
C1848 H1839 0.950 . S
C1848 C1847 1.398 . S
C1848 C1849 1.391 . S
C1849 H1837 0.950 . S
C1849 C1845 1.393 . S
C1849 C1848 1.391 . S
C1850 H1840 0.950 . S
C1850 C1851 1.386 . S
C1850 C1852 1.391 . S
C1851 C1850 1.386 . S
C1851 C1855 1.393 . S
C1852 H1841 0.950 . S
C1852 C1850 1.391 . S
C1852 C1853 1.400 . S
C1853 C1847 1.491 . S
C1853 C1852 1.400 . S
C1853 C1854 1.398 . S
C1854 H1842 0.950 . S
C1854 C1853 1.398 . S
C1854 C1855 1.391 . S
C1855 H1843 0.950 . S
C1855 C1851 1.393 . S
C1855 C1854 1.391 . S
H1856 C1864 0.950 . S
H1857 C1869 0.950 . S
H1858 C1866 0.950 . S
H1859 C1868 0.950 . S
H1860 C1870 0.950 . S
H1861 C1872 0.950 . S
H1862 C1874 0.950 . S
H1863 C1875 0.950 . S
C1864 H1856 0.950 . S
C1864 C1865 1.386 . S
C1864 C1866 1.391 . S
C1865 C1864 1.386 . S
C1865 C1869 1.393 . S
C1866 H1858 0.950 . S
C1866 C1864 1.391 . S
C1866 C1867 1.400 . S
C1867 C1866 1.400 . S
C1867 C1868 1.398 . S
C1867 C1873 1.491 . S
C1868 H1859 0.950 . S
C1868 C1867 1.398 . S
C1868 C1869 1.391 . S
C1869 H1857 0.950 . S
C1869 C1865 1.393 . S
C1869 C1868 1.391 . S
C1870 H1860 0.950 . S
C1870 C1871 1.386 . S
C1870 C1872 1.391 . S
C1871 C1870 1.386 . S
C1871 C1875 1.393 . S
C1872 H1861 0.950 . S
C1872 C1870 1.391 . S
C1872 C1873 1.400 . S
C1873 C1867 1.491 . S
C1873 C1872 1.400 . S
C1873 C1874 1.398 . S
C1874 H1862 0.950 . S
C1874 C1873 1.398 . S
C1874 C1875 1.391 . S
C1875 H1863 0.950 . S
C1875 C1871 1.393 . S
C1875 C1874 1.391 . S
H1876 C1884 0.950 . S
H1877 C1889 0.950 . S
H1878 C1886 0.950 . S
H1879 C1888 0.950 . S
H1880 C1890 0.950 . S
H1881 C1892 0.950 . S
H1882 C1894 0.950 . S
H1883 C1895 0.950 . S
C1884 H1876 0.950 . S
C1884 C1885 1.386 . S
C1884 C1886 1.391 . S
C1885 C1884 1.386 . S
C1885 C1889 1.393 . S
C1886 H1878 0.950 . S
C1886 C1884 1.391 . S
C1886 C1887 1.400 . S
C1887 C1886 1.400 . S
C1887 C1888 1.398 . S
C1887 C1893 1.491 . S
C1888 H1879 0.950 . S
C1888 C1887 1.398 . S
C1888 C1889 1.391 . S
C1889 H1877 0.950 . S
C1889 C1885 1.393 . S
C1889 C1888 1.391 . S
C1890 H1880 0.950 . S
C1890 C1891 1.386 . S
C1890 C1892 1.391 . S
C1891 C1890 1.386 . S
C1891 C1895 1.393 . S
C1892 H1881 0.950 . S
C1892 C1890 1.391 . S
C1892 C1893 1.400 . S
C1893 C1887 1.491 . S
C1893 C1892 1.400 . S
C1893 C1894 1.398 . S
C1894 H1882 0.950 . S
C1894 C1893 1.398 . S
C1894 C1895 1.391 . S
C1895 H1883 0.950 . S
C1895 C1891 1.393 . S
C1895 C1894 1.391 . S
H1896 C1904 0.950 . S
H1897 C1909 0.950 . S
H1898 C1906 0.950 . S
H1899 C1908 0.950 . S
H1900 C1910 0.950 . S
H1901 C1912 0.950 . S
H1902 C1914 0.950 . S
H1903 C1915 0.950 . S
C1904 H1896 0.950 . S
C1904 C1905 1.386 . S
C1904 C1906 1.391 . S
C1905 C1904 1.386 . S
C1905 C1909 1.393 . S
C1906 H1898 0.950 . S
C1906 C1904 1.391 . S
C1906 C1907 1.400 . S
C1907 C1906 1.400 . S
C1907 C1908 1.398 . S
C1907 C1913 1.491 . S
C1908 H1899 0.950 . S
C1908 C1907 1.398 . S
C1908 C1909 1.391 . S
C1909 H1897 0.950 . S
C1909 C1905 1.393 . S
C1909 C1908 1.391 . S
C1910 H1900 0.950 . S
C1910 C1911 1.386 . S
C1910 C1912 1.391 . S
C1911 C1910 1.386 . S
C1911 C1915 1.393 . S
C1912 H1901 0.950 . S
C1912 C1910 1.391 . S
C1912 C1913 1.400 . S
C1913 C1907 1.491 . S
C1913 C1912 1.400 . S
C1913 C1914 1.398 . S
C1914 H1902 0.950 . S
C1914 C1913 1.398 . S
C1914 C1915 1.391 . S
C1915 H1903 0.950 . S
C1915 C1911 1.393 . S
C1915 C1914 1.391 . S
H1916 C1924 0.950 . S
H1917 C1929 0.950 . S
H1918 C1926 0.950 . S
H1919 C1928 0.950 . S
H1920 C1930 0.950 . S
H1921 C1932 0.950 . S
H1922 C1934 0.950 . S
H1923 C1935 0.950 . S
C1924 H1916 0.950 . S
C1924 C1925 1.386 . S
C1924 C1926 1.391 . S
C1925 C1924 1.386 . S
C1925 C1929 1.393 . S
C1926 H1918 0.950 . S
C1926 C1924 1.391 . S
C1926 C1927 1.400 . S
C1927 C1926 1.400 . S
C1927 C1928 1.398 . S
C1927 C1933 1.491 . S
C1928 H1919 0.950 . S
C1928 C1927 1.398 . S
C1928 C1929 1.391 . S
C1929 H1917 0.950 . S
C1929 C1925 1.393 . S
C1929 C1928 1.391 . S
C1930 H1920 0.950 . S
C1930 C1931 1.386 . S
C1930 C1932 1.391 . S
C1931 C1930 1.386 . S
C1931 C1935 1.393 . S
C1932 H1921 0.950 . S
C1932 C1930 1.391 . S
C1932 C1933 1.400 . S
C1933 C1927 1.491 . S
C1933 C1932 1.400 . S
C1933 C1934 1.398 . S
C1934 H1922 0.950 . S
C1934 C1933 1.398 . S
C1934 C1935 1.391 . S
C1935 H1923 0.950 . S
C1935 C1931 1.393 . S
C1935 C1934 1.391 . S
H1936 C1944 0.950 . S
H1937 C1949 0.950 . S
H1938 C1946 0.950 . S
H1939 C1948 0.950 . S
H1940 C1950 0.950 . S
H1941 C1952 0.950 . S
H1942 C1954 0.950 . S
H1943 C1955 0.950 . S
C1944 H1936 0.950 . S
C1944 C1945 1.386 . S
C1944 C1946 1.391 . S
C1945 C1944 1.386 . S
C1945 C1949 1.393 . S
C1946 H1938 0.950 . S
C1946 C1944 1.391 . S
C1946 C1947 1.400 . S
C1947 C1946 1.400 . S
C1947 C1948 1.398 . S
C1947 C1953 1.491 . S
C1948 H1939 0.950 . S
C1948 C1947 1.398 . S
C1948 C1949 1.391 . S
C1949 H1937 0.950 . S
C1949 C1945 1.393 . S
C1949 C1948 1.391 . S
C1950 H1940 0.950 . S
C1950 C1951 1.386 . S
C1950 C1952 1.391 . S
C1951 C1950 1.386 . S
C1951 C1955 1.393 . S
C1952 H1941 0.950 . S
C1952 C1950 1.391 . S
C1952 C1953 1.400 . S
C1953 C1947 1.491 . S
C1953 C1952 1.400 . S
C1953 C1954 1.398 . S
C1954 H1942 0.950 . S
C1954 C1953 1.398 . S
C1954 C1955 1.391 . S
C1955 H1943 0.950 . S
C1955 C1951 1.393 . S
C1955 C1954 1.391 . S
H1956 C1964 0.950 . S
H1957 C1969 0.950 . S
H1958 C1966 0.950 . S
H1959 C1968 0.950 . S
H1960 C1970 0.950 . S
H1961 C1972 0.950 . S
H1962 C1974 0.950 . S
H1963 C1975 0.950 . S
C1964 H1956 0.950 . S
C1964 C1965 1.386 . S
C1964 C1966 1.391 . S
C1965 C1964 1.386 . S
C1965 C1969 1.393 . S
C1966 H1958 0.950 . S
C1966 C1964 1.391 . S
C1966 C1967 1.400 . S
C1967 C1966 1.400 . S
C1967 C1968 1.398 . S
C1967 C1973 1.491 . S
C1968 H1959 0.950 . S
C1968 C1967 1.398 . S
C1968 C1969 1.391 . S
C1969 H1957 0.950 . S
C1969 C1965 1.393 . S
C1969 C1968 1.391 . S
C1970 H1960 0.950 . S
C1970 C1971 1.386 . S
C1970 C1972 1.391 . S
C1971 C1970 1.386 . S
C1971 C1975 1.393 . S
C1972 H1961 0.950 . S
C1972 C1970 1.391 . S
C1972 C1973 1.400 . S
C1973 C1967 1.491 . S
C1973 C1972 1.400 . S
C1973 C1974 1.398 . S
C1974 H1962 0.950 . S
C1974 C1973 1.398 . S
C1974 C1975 1.391 . S
C1975 H1963 0.950 . S
C1975 C1971 1.393 . S
C1975 C1974 1.391 . S
H1976 C1984 0.950 . S
H1977 C1989 0.950 . S
H1978 C1986 0.950 . S
H1979 C1988 0.950 . S
H1980 C1990 0.950 . S
H1981 C1992 0.950 . S
H1982 C1994 0.950 . S
H1983 C1995 0.950 . S
C1984 H1976 0.950 . S
C1984 C1985 1.386 . S
C1984 C1986 1.391 . S
C1985 C1984 1.386 . S
C1985 C1989 1.393 . S
C1986 H1978 0.950 . S
C1986 C1984 1.391 . S
C1986 C1987 1.400 . S
C1987 C1986 1.400 . S
C1987 C1988 1.398 . S
C1987 C1993 1.491 . S
C1988 H1979 0.950 . S
C1988 C1987 1.398 . S
C1988 C1989 1.391 . S
C1989 H1977 0.950 . S
C1989 C1985 1.393 . S
C1989 C1988 1.391 . S
C1990 H1980 0.950 . S
C1990 C1991 1.386 . S
C1990 C1992 1.391 . S
C1991 C1990 1.386 . S
C1991 C1995 1.393 . S
C1992 H1981 0.950 . S
C1992 C1990 1.391 . S
C1992 C1993 1.400 . S
C1993 C1987 1.491 . S
C1993 C1992 1.400 . S
C1993 C1994 1.398 . S
C1994 H1982 0.950 . S
C1994 C1993 1.398 . S
C1994 C1995 1.391 . S
C1995 H1983 0.950 . S
C1995 C1991 1.393 . S
C1995 C1994 1.391 . S
H1996 C2004 0.950 . S
H1997 C2009 0.950 . S
H1998 C2006 0.950 . S
H1999 C2008 0.950 . S
H2000 C2010 0.950 . S
H2001 C2012 0.950 . S
H2002 C2014 0.950 . S
H2003 C2015 0.950 . S
C2004 H1996 0.950 . S
C2004 C2005 1.386 . S
C2004 C2006 1.391 . S
C2005 C2004 1.386 . S
C2005 C2009 1.393 . S
C2006 H1998 0.950 . S
C2006 C2004 1.391 . S
C2006 C2007 1.400 . S
C2007 C2006 1.400 . S
C2007 C2008 1.398 . S
C2007 C2013 1.491 . S
C2008 H1999 0.950 . S
C2008 C2007 1.398 . S
C2008 C2009 1.391 . S
C2009 H1997 0.950 . S
C2009 C2005 1.393 . S
C2009 C2008 1.391 . S
C2010 H2000 0.950 . S
C2010 C2011 1.386 . S
C2010 C2012 1.391 . S
C2011 C2010 1.386 . S
C2011 C2015 1.393 . S
C2012 H2001 0.950 . S
C2012 C2010 1.391 . S
C2012 C2013 1.400 . S
C2013 C2007 1.491 . S
C2013 C2012 1.400 . S
C2013 C2014 1.398 . S
C2014 H2002 0.950 . S
C2014 C2013 1.398 . S
C2014 C2015 1.391 . S
C2015 H2003 0.950 . S
C2015 C2011 1.393 . S
C2015 C2014 1.391 . S
H2016 C2024 0.950 . S
H2017 C2029 0.950 . S
H2018 C2026 0.950 . S
H2019 C2028 0.950 . S
H2020 C2030 0.950 . S
H2021 C2032 0.950 . S
H2022 C2034 0.950 . S
H2023 C2035 0.950 . S
C2024 H2016 0.950 . S
C2024 C2025 1.386 . S
C2024 C2026 1.391 . S
C2025 C2024 1.386 . S
C2025 C2029 1.393 . S
C2026 H2018 0.950 . S
C2026 C2024 1.391 . S
C2026 C2027 1.400 . S
C2027 C2026 1.400 . S
C2027 C2028 1.398 . S
C2027 C2033 1.491 . S
C2028 H2019 0.950 . S
C2028 C2027 1.398 . S
C2028 C2029 1.391 . S
C2029 H2017 0.950 . S
C2029 C2025 1.393 . S
C2029 C2028 1.391 . S
C2030 H2020 0.950 . S
C2030 C2031 1.386 . S
C2030 C2032 1.391 . S
C2031 C2030 1.386 . S
C2031 C2035 1.393 . S
C2032 H2021 0.950 . S
C2032 C2030 1.391 . S
C2032 C2033 1.400 . S
C2033 C2027 1.491 . S
C2033 C2032 1.400 . S
C2033 C2034 1.398 . S
C2034 H2022 0.950 . S
C2034 C2033 1.398 . S
C2034 C2035 1.391 . S
C2035 H2023 0.950 . S
C2035 C2031 1.393 . S
C2035 C2034 1.391 . S
H2036 C2044 0.950 . S
H2037 C2049 0.950 . S
H2038 C2046 0.950 . S
H2039 C2048 0.950 . S
H2040 C2050 0.950 . S
H2041 C2052 0.950 . S
H2042 C2054 0.950 . S
H2043 C2055 0.950 . S
C2044 H2036 0.950 . S
C2044 C2045 1.386 . S
C2044 C2046 1.391 . S
C2045 C2044 1.386 . S
C2045 C2049 1.393 . S
C2046 H2038 0.950 . S
C2046 C2044 1.391 . S
C2046 C2047 1.400 . S
C2047 C2046 1.400 . S
C2047 C2048 1.398 . S
C2047 C2053 1.491 . S
C2048 H2039 0.950 . S
C2048 C2047 1.398 . S
C2048 C2049 1.391 . S
C2049 H2037 0.950 . S
C2049 C2045 1.393 . S
C2049 C2048 1.391 . S
C2050 H2040 0.950 . S
C2050 C2051 1.386 . S
C2050 C2052 1.391 . S
C2051 C2050 1.386 . S
C2051 C2055 1.393 . S
C2052 H2041 0.950 . S
C2052 C2050 1.391 . S
C2052 C2053 1.400 . S
C2053 C2047 1.491 . S
C2053 C2052 1.400 . S
C2053 C2054 1.398 . S
C2054 H2042 0.950 . S
C2054 C2053 1.398 . S
C2054 C2055 1.391 . S
C2055 H2043 0.950 . S
C2055 C2051 1.393 . S
C2055 C2054 1.391 . S
H2056 C2064 0.950 . S
H2057 C2069 0.950 . S
H2058 C2066 0.950 . S
H2059 C2068 0.950 . S
H2060 C2070 0.950 . S
H2061 C2072 0.950 . S
H2062 C2074 0.950 . S
H2063 C2075 0.950 . S
C2064 H2056 0.950 . S
C2064 C2065 1.386 . S
C2064 C2066 1.391 . S
C2065 C2064 1.386 . S
C2065 C2069 1.393 . S
C2066 H2058 0.950 . S
C2066 C2064 1.391 . S
C2066 C2067 1.400 . S
C2067 C2066 1.400 . S
C2067 C2068 1.398 . S
C2067 C2073 1.491 . S
C2068 H2059 0.950 . S
C2068 C2067 1.398 . S
C2068 C2069 1.391 . S
C2069 H2057 0.950 . S
C2069 C2065 1.393 . S
C2069 C2068 1.391 . S
C2070 H2060 0.950 . S
C2070 C2071 1.386 . S
C2070 C2072 1.391 . S
C2071 C2070 1.386 . S
C2071 C2075 1.393 . S
C2072 H2061 0.950 . S
C2072 C2070 1.391 . S
C2072 C2073 1.400 . S
C2073 C2067 1.491 . S
C2073 C2072 1.400 . S
C2073 C2074 1.398 . S
C2074 H2062 0.950 . S
C2074 C2073 1.398 . S
C2074 C2075 1.391 . S
C2075 H2063 0.950 . S
C2075 C2071 1.393 . S
C2075 C2074 1.391 . S
H2076 C2084 0.950 . S
H2077 C2089 0.950 . S
H2078 C2086 0.950 . S
H2079 C2088 0.950 . S
H2080 C2090 0.950 . S
H2081 C2092 0.950 . S
H2082 C2094 0.950 . S
H2083 C2095 0.950 . S
C2084 H2076 0.950 . S
C2084 C2085 1.386 . S
C2084 C2086 1.391 . S
C2085 C2084 1.386 . S
C2085 C2089 1.393 . S
C2086 H2078 0.950 . S
C2086 C2084 1.391 . S
C2086 C2087 1.400 . S
C2087 C2086 1.400 . S
C2087 C2088 1.398 . S
C2087 C2093 1.491 . S
C2088 H2079 0.950 . S
C2088 C2087 1.398 . S
C2088 C2089 1.391 . S
C2089 H2077 0.950 . S
C2089 C2085 1.393 . S
C2089 C2088 1.391 . S
C2090 H2080 0.950 . S
C2090 C2091 1.386 . S
C2090 C2092 1.391 . S
C2091 C2090 1.386 . S
C2091 C2095 1.393 . S
C2092 H2081 0.950 . S
C2092 C2090 1.391 . S
C2092 C2093 1.400 . S
C2093 C2087 1.491 . S
C2093 C2092 1.400 . S
C2093 C2094 1.398 . S
C2094 H2082 0.950 . S
C2094 C2093 1.398 . S
C2094 C2095 1.391 . S
C2095 H2083 0.950 . S
C2095 C2091 1.393 . S
C2095 C2094 1.391 . S
H2096 C2104 0.950 . S
H2097 C2109 0.950 . S
H2098 C2106 0.950 . S
H2099 C2108 0.950 . S
H2100 C2110 0.950 . S
H2101 C2112 0.950 . S
H2102 C2114 0.950 . S
H2103 C2115 0.950 . S
C2104 H2096 0.950 . S
C2104 C2105 1.386 . S
C2104 C2106 1.391 . S
C2105 C2104 1.386 . S
C2105 C2109 1.393 . S
C2106 H2098 0.950 . S
C2106 C2104 1.391 . S
C2106 C2107 1.400 . S
C2107 C2106 1.400 . S
C2107 C2108 1.398 . S
C2107 C2113 1.491 . S
C2108 H2099 0.950 . S
C2108 C2107 1.398 . S
C2108 C2109 1.391 . S
C2109 H2097 0.950 . S
C2109 C2105 1.393 . S
C2109 C2108 1.391 . S
C2110 H2100 0.950 . S
C2110 C2111 1.386 . S
C2110 C2112 1.391 . S
C2111 C2110 1.386 . S
C2111 C2115 1.393 . S
C2112 H2101 0.950 . S
C2112 C2110 1.391 . S
C2112 C2113 1.400 . S
C2113 C2107 1.491 . S
C2113 C2112 1.400 . S
C2113 C2114 1.398 . S
C2114 H2102 0.950 . S
C2114 C2113 1.398 . S
C2114 C2115 1.391 . S
C2115 H2103 0.950 . S
C2115 C2111 1.393 . S
C2115 C2114 1.391 . S
H2116 C2124 0.950 . S
H2117 C2129 0.950 . S
H2118 C2126 0.950 . S
H2119 C2128 0.950 . S
H2120 C2130 0.950 . S
H2121 C2132 0.950 . S
H2122 C2134 0.950 . S
H2123 C2135 0.950 . S
C2124 H2116 0.950 . S
C2124 C2125 1.386 . S
C2124 C2126 1.391 . S
C2125 C2124 1.386 . S
C2125 C2129 1.393 . S
C2126 H2118 0.950 . S
C2126 C2124 1.391 . S
C2126 C2127 1.400 . S
C2127 C2126 1.400 . S
C2127 C2128 1.398 . S
C2127 C2133 1.491 . S
C2128 H2119 0.950 . S
C2128 C2127 1.398 . S
C2128 C2129 1.391 . S
C2129 H2117 0.950 . S
C2129 C2125 1.393 . S
C2129 C2128 1.391 . S
C2130 H2120 0.950 . S
C2130 C2131 1.386 . S
C2130 C2132 1.391 . S
C2131 C2130 1.386 . S
C2131 C2135 1.393 . S
C2132 H2121 0.950 . S
C2132 C2130 1.391 . S
C2132 C2133 1.400 . S
C2133 C2127 1.491 . S
C2133 C2132 1.400 . S
C2133 C2134 1.398 . S
C2134 H2122 0.950 . S
C2134 C2133 1.398 . S
C2134 C2135 1.391 . S
C2135 H2123 0.950 . S
C2135 C2131 1.393 . S
C2135 C2134 1.391 . S
H2136 C2144 0.950 . S
H2137 C2149 0.950 . S
H2138 C2146 0.950 . S
H2139 C2148 0.950 . S
H2140 C2150 0.950 . S
H2141 C2152 0.950 . S
H2142 C2154 0.950 . S
H2143 C2155 0.950 . S
C2144 H2136 0.950 . S
C2144 C2145 1.386 . S
C2144 C2146 1.391 . S
C2145 C2144 1.386 . S
C2145 C2149 1.393 . S
C2146 H2138 0.950 . S
C2146 C2144 1.391 . S
C2146 C2147 1.400 . S
C2147 C2146 1.400 . S
C2147 C2148 1.398 . S
C2147 C2153 1.491 . S
C2148 H2139 0.950 . S
C2148 C2147 1.398 . S
C2148 C2149 1.391 . S
C2149 H2137 0.950 . S
C2149 C2145 1.393 . S
C2149 C2148 1.391 . S
C2150 H2140 0.950 . S
C2150 C2151 1.386 . S
C2150 C2152 1.391 . S
C2151 C2150 1.386 . S
C2151 C2155 1.393 . S
C2152 H2141 0.950 . S
C2152 C2150 1.391 . S
C2152 C2153 1.400 . S
C2153 C2147 1.491 . S
C2153 C2152 1.400 . S
C2153 C2154 1.398 . S
C2154 H2142 0.950 . S
C2154 C2153 1.398 . S
C2154 C2155 1.391 . S
C2155 H2143 0.950 . S
C2155 C2151 1.393 . S
C2155 C2154 1.391 . S
H2156 C2164 0.950 . S
H2157 C2169 0.950 . S
H2158 C2166 0.950 . S
H2159 C2168 0.950 . S
H2160 C2170 0.950 . S
H2161 C2172 0.950 . S
H2162 C2174 0.950 . S
H2163 C2175 0.950 . S
C2164 H2156 0.950 . S
C2164 C2165 1.386 . S
C2164 C2166 1.391 . S
C2165 C2164 1.386 . S
C2165 C2169 1.393 . S
C2166 H2158 0.950 . S
C2166 C2164 1.391 . S
C2166 C2167 1.400 . S
C2167 C2166 1.400 . S
C2167 C2168 1.398 . S
C2167 C2173 1.491 . S
C2168 H2159 0.950 . S
C2168 C2167 1.398 . S
C2168 C2169 1.391 . S
C2169 H2157 0.950 . S
C2169 C2165 1.393 . S
C2169 C2168 1.391 . S
C2170 H2160 0.950 . S
C2170 C2171 1.386 . S
C2170 C2172 1.391 . S
C2171 C2170 1.386 . S
C2171 C2175 1.393 . S
C2172 H2161 0.950 . S
C2172 C2170 1.391 . S
C2172 C2173 1.400 . S
C2173 C2167 1.491 . S
C2173 C2172 1.400 . S
C2173 C2174 1.398 . S
C2174 H2162 0.950 . S
C2174 C2173 1.398 . S
C2174 C2175 1.391 . S
C2175 H2163 0.950 . S
C2175 C2171 1.393 . S
C2175 C2174 1.391 . S
H2176 C2184 0.950 . S
H2177 C2189 0.950 . S
H2178 C2186 0.950 . S
H2179 C2188 0.950 . S
H2180 C2190 0.950 . S
H2181 C2192 0.950 . S
H2182 C2194 0.950 . S
H2183 C2195 0.950 . S
C2184 H2176 0.950 . S
C2184 C2185 1.386 . S
C2184 C2186 1.391 . S
C2185 C2184 1.386 . S
C2185 C2189 1.393 . S
C2186 H2178 0.950 . S
C2186 C2184 1.391 . S
C2186 C2187 1.400 . S
C2187 C2186 1.400 . S
C2187 C2188 1.398 . S
C2187 C2193 1.491 . S
C2188 H2179 0.950 . S
C2188 C2187 1.398 . S
C2188 C2189 1.391 . S
C2189 H2177 0.950 . S
C2189 C2185 1.393 . S
C2189 C2188 1.391 . S
C2190 H2180 0.950 . S
C2190 C2191 1.386 . S
C2190 C2192 1.391 . S
C2191 C2190 1.386 . S
C2191 C2195 1.393 . S
C2192 H2181 0.950 . S
C2192 C2190 1.391 . S
C2192 C2193 1.400 . S
C2193 C2187 1.491 . S
C2193 C2192 1.400 . S
C2193 C2194 1.398 . S
C2194 H2182 0.950 . S
C2194 C2193 1.398 . S
C2194 C2195 1.391 . S
C2195 H2183 0.950 . S
C2195 C2191 1.393 . S
C2195 C2194 1.391 . S
C771 C462 1.657 . S
C765 C439 1.658 . S
C785 C401 1.789 . S
C791 C460 1.794 . S
C811 C461 1.792 . S
C805 C382 1.793 . S
C825 C420 1.659 . S
C831 C463 1.657 . S
C851 C507 1.614 . S
C845 C306 1.616 . S
C871 C567 1.710 . S
C865 C325 1.711 . S
C885 C344 1.591 . S
C891 C506 1.593 . S
C911 C566 1.847 . S
C905 C363 1.851 . S
C925 C230 1.739 . S
C931 C508 1.742 . S
C951 C564 1.691 . S
C945 C249 1.689 . S
C965 C268 1.748 . S
C971 C509 1.743 . S
C985 C287 1.546 . S
C991 C565 1.549 . S
C1011 C615 1.658 . S
C1005 C211 1.658 . S
C1025 C173 1.793 . S
C1031 C614 1.792 . S
C1045 C154 1.789 . S
C1051 C616 1.794 . S
C1071 C617 1.659 . S
C1065 C192 1.656 . S
C1085 C78 1.615 . S
C1091 C658 1.616 . S
C1105 C97 1.712 . S
C1111 C717 1.709 . S
C1125 C116 1.590 . S
C1131 C656 1.594 . S
C1145 C135 1.850 . S
C1151 C716 1.850 1_565 S
C1171 C657 1.741 . S
C1165 C2 1.739 . S
C1191 C714 1.692 . S
C1185 C21 1.685 . S
C1205 C40 1.746 . S
C1211 C659 1.746 . S
C1231 C715 1.547 1_565 S
C1225 C59 1.547 1_545 S
C1251 C459 1.668 . S
C1245 C6 1.638 . S
C1265 C30 1.355 . S
C1271 C465 1.390 . S
C1285 C49 1.245 . S
C1291 C457 1.275 . S
C1305 C68 1.181 . S
C1311 C464 1.218 . S
C1325 C82 1.628 . S
C1331 C456 1.642 . S
C1351 C466 1.279 . S
C1345 C106 1.249 . S
C1365 C125 1.211 . S
C1371 C458 1.256 . S
C1391 C467 1.895 1_565 S
C1385 C139 1.877 . S
C1411 C513 1.597 1_565 S
C1405 C63 1.574 1_545 S
C1425 C11 1.255 . S
C1431 C556 1.296 . S
C1451 C511 1.567 . S
C1445 C25 1.545 . S
C1471 C558 1.692 . S
C1465 C44 1.677 . S
C1485 C101 1.705 . S
C1491 C512 1.720 . S
C1511 C557 1.517 . S
C1505 C120 1.494 . S
C1531 C510 1.290 . S
C1525 C144 1.274 . S
C1551 C559 1.165 . S
C1545 C87 1.135 . S
C1571 C563 1.398 . S
C1565 C163 1.375 . S
C1585 C182 1.349 1_554 S
C1591 C562 1.397 . S
C1611 C514 1.797 . S
C1605 C158 1.775 . S
C1631 C561 1.745 . S
C1625 C196 1.720 . S
C1645 C220 1.243 . S
C1651 C517 1.288 . S
C1665 C215 1.711 . S
C1671 C560 1.744 . S
C1691 C516 1.798 . S
C1685 C177 1.776 . S
C1711 C515 1.282 . S
C1705 C201 1.244 . S
C1731 C609 1.666 . S
C1725 C234 1.651 . S
C1751 C612 1.394 . S
C1745 C258 1.362 . S
C1765 C277 1.253 . S
C1771 C608 1.271 . S
C1791 C610 1.218 . S
C1785 C296 1.189 . S
C1811 C606 1.644 . S
C1805 C310 1.615 . S
C1825 C334 1.239 . S
C1831 C611 1.285 . S
C1845 C353 1.234 . S
C1851 C607 1.255 . S
C1871 C613 1.896 . S
C1865 C367 1.875 . S
C1891 C667 1.597 . S
C1885 C291 1.570 . S
C1905 C239 1.250 . S
C1911 C706 1.288 . S
C1931 C666 1.566 . S
C1925 C253 1.545 . S
C1951 C708 1.692 . S
C1945 C272 1.675 . S
C1971 C665 1.720 . S
C1965 C329 1.704 . S
C1985 C348 1.495 . S
C1991 C707 1.517 . S
C2011 C664 1.297 . S
C2005 C372 1.252 . S
C2031 C709 1.171 . S
C2025 C315 1.129 . S
C2051 C713 1.402 . S
C2045 C391 1.369 . S
C2065 C410 1.358 . S
C2071 C712 1.397 . S
C2091 C660 1.798 . S
C2085 C386 1.766 . S
C2105 C424 1.724 . S
C2111 C711 1.744 . S
C2131 C663 1.288 . S
C2125 C448 1.264 . S
C2151 C710 1.743 . S
C2145 C443 1.722 . S
C2171 C661 1.797 . S
C2165 C405 1.770 . S
C2185 C429 1.240 . S
C2191 C662 1.285 . S
