# Generated by pormake.
# Topology dag, (6,3)-cn, num edge types: 1
# Building blocks:
#     Node 0, Type 0, BuildingBlock: IZENUY_clean_sbu_0, # of connection points: 6
#     Node 1, Type 0, BuildingBlock: IZENUY_clean_sbu_0, # of connection points: 6
#     Node 2, Type 0, BuildingBlock: IZENUY_clean_sbu_0, # of connection points: 6
#     Node 3, Type 0, BuildingBlock: IZENUY_clean_sbu_0, # of connection points: 6
#     Node 4, Type 1, BuildingBlock: ESEHIV_clean_linker_0, # of connection points: 3
#     Node 5, Type 1, BuildingBlock: ESEHIV_clean_linker_0, # of connection points: 3
#     Node 6, Type 1, BuildingBlock: ESEHIV_clean_linker_0, # of connection points: 3
#     Node 7, Type 1, BuildingBlock: ESEHIV_clean_linker_0, # of connection points: 3
#     Node 8, Type 1, BuildingBlock: ESEHIV_clean_linker_0, # of connection points: 3
#     Node 9, Type 1, BuildingBlock: ESEHIV_clean_linker_0, # of connection points: 3
#     Node 10, Type 1, BuildingBlock: ESEHIV_clean_linker_0, # of connection points: 3
#     Node 11, Type 1, BuildingBlock: ESEHIV_clean_linker_0, # of connection points: 3
#     Edge 12, Type (0, 1), BuildingBlock: XIVTED_clean_linker_0, # of connection points: 2
#     Edge 13, Type (0, 1), BuildingBlock: XIVTED_clean_linker_0, # of connection points: 2
#     Edge 14, Type (0, 1), BuildingBlock: XIVTED_clean_linker_0, # of connection points: 2
#     Edge 15, Type (0, 1), BuildingBlock: XIVTED_clean_linker_0, # of connection points: 2
#     Edge 16, Type (0, 1), BuildingBlock: XIVTED_clean_linker_0, # of connection points: 2
#     Edge 17, Type (0, 1), BuildingBlock: XIVTED_clean_linker_0, # of connection points: 2
#     Edge 18, Type (0, 1), BuildingBlock: XIVTED_clean_linker_0, # of connection points: 2
#     Edge 19, Type (0, 1), BuildingBlock: XIVTED_clean_linker_0, # of connection points: 2
#     Edge 20, Type (0, 1), BuildingBlock: XIVTED_clean_linker_0, # of connection points: 2
#     Edge 21, Type (0, 1), BuildingBlock: XIVTED_clean_linker_0, # of connection points: 2
#     Edge 22, Type (0, 1), BuildingBlock: XIVTED_clean_linker_0, # of connection points: 2
#     Edge 23, Type (0, 1), BuildingBlock: XIVTED_clean_linker_0, # of connection points: 2
#     Edge 24, Type (0, 1), BuildingBlock: XIVTED_clean_linker_0, # of connection points: 2
#     Edge 25, Type (0, 1), BuildingBlock: XIVTED_clean_linker_0, # of connection points: 2
#     Edge 26, Type (0, 1), BuildingBlock: XIVTED_clean_linker_0, # of connection points: 2
#     Edge 27, Type (0, 1), BuildingBlock: XIVTED_clean_linker_0, # of connection points: 2
#     Edge 28, Type (0, 1), BuildingBlock: XIVTED_clean_linker_0, # of connection points: 2
#     Edge 29, Type (0, 1), BuildingBlock: XIVTED_clean_linker_0, # of connection points: 2
#     Edge 30, Type (0, 1), BuildingBlock: XIVTED_clean_linker_0, # of connection points: 2
#     Edge 31, Type (0, 1), BuildingBlock: XIVTED_clean_linker_0, # of connection points: 2
#     Edge 32, Type (0, 1), BuildingBlock: XIVTED_clean_linker_0, # of connection points: 2
#     Edge 33, Type (0, 1), BuildingBlock: XIVTED_clean_linker_0, # of connection points: 2
#     Edge 34, Type (0, 1), BuildingBlock: XIVTED_clean_linker_0, # of connection points: 2
#     Edge 35, Type (0, 1), BuildingBlock: XIVTED_clean_linker_0, # of connection points: 2
# Relax obj value: 0.255
# Max RMSD: 0.192
# Mean RMSD: 0.159
data_MOF--net-dag--node1-IZENUY_clean_sbu_0--node2-ESEHIV_clean_linker_0--edge1-XIVTED_clean_linker_0
_symmetry_space_group_name_H-M    P1
_symmetry_Int_Tables_number       1
_symmetry_cell_setting            triclinic
loop_
_symmetry_equiv_pos_as_xyz
'x, y, z'
_cell_length_a     36.058767
_cell_length_b     37.772728
_cell_length_c     31.830415
_cell_angle_alpha  95.240274
_cell_angle_beta   90.178268
_cell_angle_gamma 89.951166
loop_
_atom_site_label
_atom_site_type_symbol
_atom_site_fract_x
_atom_site_fract_y
_atom_site_fract_z
_atom_type_partial_charge
Fe0 Fe 0.20444 0.84429 0.10102 0.0
Fe1 Fe 0.13247 0.86575 0.05936 0.0
O2 O 0.1619 0.83207 0.07533 0.0
Fe3 Fe 0.14894 0.78658 0.06591 0.0
O4 O 0.1516 0.78018 0.12177 0.0
O5 O 0.20533 0.8067 0.1332 0.0
O6 O 0.18052 0.8693 0.14443 0.0
C7 C 0.15735 0.89362 0.13944 0.0
C8 C 0.2257 0.78766 0.0466 0.0
O9 O 0.14487 0.89831 0.10319 0.0
C10 C 0.12641 0.81197 0.99204 0.0
O11 O 0.21164 0.88443 0.07352 0.0
O12 O 0.16792 0.88152 0.02538 0.0
O13 O 0.19679 0.77106 0.0563 0.0
O14 O 0.23058 0.81998 0.05936 0.0
C15 C 0.08177 0.82141 0.09127 0.0
O16 O 0.11428 0.83951 0.01294 0.0
O17 O 0.14513 0.7891 0.00927 0.0
C18 C 0.19915 0.89271 0.03853 0.0
O19 O 0.09544 0.85216 0.09224 0.0
O20 O 0.09881 0.79466 0.07368 0.0
C21 C 0.17945 0.78743 0.14499 0.0
Fe22 Fe 0.70381 0.64735 0.48102 0.0
Fe23 Fe 0.64953 0.70551 0.51689 0.0
O24 O 0.66356 0.66023 0.51045 0.0
Fe25 Fe 0.63748 0.62748 0.53319 0.0
O26 O 0.67677 0.61536 0.5646 0.0
O27 O 0.71558 0.60997 0.5116 0.0
O28 O 0.73266 0.67498 0.51726 0.0
C29 C 0.72751 0.70773 0.52725 0.0
C30 C 0.65649 0.594 0.45329 0.0
O31 O 0.69724 0.72269 0.5186 0.0
C32 C 0.58193 0.66785 0.50338 0.0
O33 O 0.69968 0.68212 0.44516 0.0
O34 O 0.64599 0.7076 0.46018 0.0
O35 O 0.64744 0.59225 0.49142 0.0
O36 O 0.67693 0.61889 0.443 0.0
C37 C 0.63589 0.68546 0.59581 0.0
O38 O 0.59944 0.69577 0.51663 0.0
O39 O 0.59674 0.63758 0.50314 0.0
C40 C 0.67175 0.69939 0.43441 0.0
O41 O 0.65185 0.70714 0.57409 0.0
O42 O 0.6227 0.65659 0.57899 0.0
C43 C 0.70704 0.60407 0.54884 0.0
Fe44 Fe 0.85314 0.20537 0.02804 0.0
Fe45 Fe 0.869 0.1257 0.03176 0.0
O46 O 0.84019 0.16006 0.01646 0.0
Fe47 Fe 0.79828 0.14878 0.98917 0.0
O48 O 0.79833 0.18745 0.95891 0.0
O49 O 0.85213 0.21321 0.97249 0.0
O50 O 0.90344 0.1973 0.0218 0.0
C51 C 0.92058 0.17101 0.00331 0.0
C52 C 0.77561 0.20426 0.04401 0.0
O53 O 0.90682 0.14025 0.00077 0.0
C54 C 0.80164 0.09831 0.0492 0.0
O55 O 0.85528 0.20113 0.08455 0.0
O56 O 0.88602 0.1506 0.07963 0.0
O57 O 0.77144 0.1719 0.03105 0.0
O58 O 0.80502 0.22094 0.03617 0.0
C59 C 0.84604 0.10056 0.94999 0.0
O60 O 0.83264 0.10886 0.06379 0.0
O61 O 0.79022 0.10773 0.01432 0.0
C62 C 0.87329 0.17747 0.10136 0.0
O63 O 0.85755 0.0945 0.98622 0.0
O64 O 0.82304 0.12512 0.94553 0.0
C65 C 0.82478 0.20656 0.94828 0.0
Fe66 Fe 0.36856 0.3625 0.54285 0.0
Fe67 Fe 0.30359 0.3449 0.5994 0.0
O68 O 0.34193 0.33093 0.56717 0.0
Fe69 Fe 0.35437 0.28522 0.55905 0.0
O70 O 0.39966 0.29391 0.58324 0.0
O71 O 0.41218 0.33784 0.54507 0.0
O72 O 0.38129 0.38519 0.59312 0.0
C73 C 0.35903 0.39704 0.62148 0.0
C74 C 0.36567 0.31017 0.47868 0.0
O75 O 0.32556 0.3866 0.62152 0.0
C76 C 0.2788 0.28221 0.5511 0.0
O77 O 0.33043 0.39327 0.53631 0.0
O78 O 0.28085 0.36665 0.55782 0.0
O79 O 0.3728 0.28803 0.5053 0.0
O80 O 0.35709 0.3417 0.49109 0.0
C81 C 0.33141 0.29255 0.64453 0.0
O82 O 0.27542 0.30555 0.58222 0.0
O83 O 0.31 0.27409 0.53504 0.0
C84 C 0.29572 0.38938 0.5368 0.0
O85 O 0.32269 0.32474 0.64408 0.0
O86 O 0.33798 0.2736 0.61055 0.0
C87 C 0.42238 0.316 0.57068 0.0
H88 H 0.02528 0.09666 0.29629 0.0
H89 H 0.11886 0.10386 0.3803 0.0
H90 H 0.03968 0.18981 0.3821 0.0
C91 C 0.04058 0.11056 0.32213 0.0
C92 C 0.02861 0.14441 0.33816 0.0
C93 C 0.07319 0.09565 0.33707 0.0
C94 C 0.0934 0.11503 0.36916 0.0
C95 C 0.0817 0.14903 0.38599 0.0
C96 C 0.04917 0.16365 0.36996 0.0
H97 H 0.48863 0.61364 0.78308 0.0
H98 H 0.38337 0.61694 0.84585 0.0
H99 H 0.45723 0.70704 0.86155 0.0
C100 C 0.46881 0.62736 0.80431 0.0
C101 C 0.47705 0.6618 0.82207 0.0
C102 C 0.43458 0.61138 0.81139 0.0
C103 C 0.40957 0.62935 0.83959 0.0
C104 C 0.41758 0.66371 0.8586 0.0
C105 C 0.45128 0.68001 0.84896 0.0
H106 H 0.8138 0.87585 0.12191 0.0
H107 H 0.80173 0.78462 0.19168 0.0
H108 H 0.70987 0.85682 0.18074 0.0
C109 C 0.79646 0.85888 0.13935 0.0
C110 C 0.75991 0.86904 0.14869 0.0
C111 C 0.81175 0.82859 0.1549 0.0
C112 C 0.78943 0.8073 0.17836 0.0
C113 C 0.75243 0.81717 0.18793 0.0
C114 C 0.73791 0.84827 0.17292 0.0
H115 H 0.69283 0.38748 0.62338 0.0
H116 H 0.69203 0.30199 0.70373 0.0
H117 H 0.78792 0.36994 0.69966 0.0
C118 C 0.7067 0.37174 0.64557 0.0
C119 C 0.74233 0.38159 0.65966 0.0
C120 C 0.68793 0.34347 0.66177 0.0
C121 C 0.70655 0.32338 0.69031 0.0
C122 C 0.74291 0.33239 0.70389 0.0
C123 C 0.7604 0.36197 0.68877 0.0
H124 H 0.51085 0.39045 0.28781 0.0
H125 H 0.61345 0.38358 0.21998 0.0
H126 H 0.53171 0.30049 0.19862 0.0
C127 C 0.52824 0.37697 0.26363 0.0
C128 C 0.51699 0.34402 0.24383 0.0
C129 C 0.56307 0.39128 0.25551 0.0
C130 C 0.58592 0.37333 0.22502 0.0
C131 C 0.57486 0.34058 0.20399 0.0
C132 C 0.54027 0.32607 0.21371 0.0
H133 H 0.18618 0.11519 0.96094 0.0
H134 H 0.19704 0.20488 0.88845 0.0
H135 H 0.28813 0.1313 0.89633 0.0
C136 C 0.20322 0.13154 0.94235 0.0
C137 C 0.23926 0.12061 0.93156 0.0
C138 C 0.18788 0.16179 0.92682 0.0
C139 C 0.20951 0.18224 0.90171 0.0
C140 C 0.24592 0.17154 0.89046 0.0
C141 C 0.26057 0.14046 0.90548 0.0
H142 H 0.30953 0.61602 0.47897 0.0
H143 H 0.30602 0.69765 0.39404 0.0
H144 H 0.21258 0.62736 0.40235 0.0
C145 C 0.2941 0.63063 0.45687 0.0
C146 C 0.25879 0.61881 0.44326 0.0
C147 C 0.31124 0.65883 0.43892 0.0
C148 C 0.29215 0.67647 0.40862 0.0
C149 C 0.2561 0.66595 0.39578 0.0
C150 C 0.23979 0.63662 0.41287 0.0
H151 H 0.97496 0.89847 0.79404 0.0
H152 H 0.95204 0.80086 0.7188 0.0
H153 H 0.88428 0.89343 0.70613 0.0
C154 C 0.95918 0.88414 0.76892 0.0
C155 C 0.92829 0.90033 0.75175 0.0
C156 C 0.96843 0.84861 0.75649 0.0
C157 C 0.94597 0.82874 0.7269 0.0
C158 C 0.91511 0.84463 0.7089 0.0
C159 C 0.90734 0.88071 0.72063 0.0
H160 H 0.089 0.92152 0.15141 0.0
H161 H 0.14544 0.07585 0.3189 0.0
H162 H 0.19776 0.92189 0.20818 0.0
H163 H 0.03302 0.03646 0.30858 0.0
H164 H 0.16663 0.02169 0.27803 0.0
H165 H 0.06875 0.96599 0.20691 0.0
C166 C 0.10854 0.93087 0.17586 0.0
C167 C 0.1451 0.91824 0.17524 0.0
C168 C 0.13743 0.02477 0.28536 0.0
C169 C 0.12232 0.96961 0.23844 0.0
C170 C 0.12523 0.05563 0.30885 0.0
C171 C 0.0872 0.0611 0.31685 0.0
C172 C 0.11138 -0.00046 0.26914 0.0
C173 C 0.06243 0.03398 0.30229 0.0
C174 C 0.09693 0.9561 0.20762 0.0
C175 C 0.16931 0.93104 0.20771 0.0
N176 N 0.07487 0.0047 0.2786 0.0
N177 N 0.15767 0.95664 0.23775 0.0
H178 H 0.65432 0.64837 0.66121 0.0
H179 H 0.48131 0.72451 0.78594 0.0
H180 H 0.59677 0.74268 0.63072 0.0
H181 H 0.54847 0.63805 0.82269 0.0
H182 H 0.53197 0.74207 0.7412 0.0
H183 H 0.62611 0.65431 0.73105 0.0
C184 C 0.6365 0.67097 0.66991 0.0
C185 C 0.62761 0.695 0.64049 0.0
C186 C 0.53613 0.71991 0.76002 0.0
C187 C 0.5938 0.70119 0.71949 0.0
C188 C 0.50729 0.71007 0.78582 0.0
C189 C 0.5106 0.67942 0.8073 0.0
C190 C 0.56817 0.69866 0.75554 0.0
C191 C 0.54469 0.66151 0.80596 0.0
C192 C 0.62024 0.67434 0.70969 0.0
C193 C 0.60428 0.72372 0.65285 0.0
N194 N 0.57186 0.67092 0.77977 0.0
N195 N 0.58737 0.72555 0.69117 0.0
H196 H 0.7494 0.05294 0.01269 0.0
H197 H 0.75246 0.92856 0.20197 0.0
H198 H 0.80981 0.07763 0.12903 0.0
H199 H 0.74276 0.88919 0.07108 0.0
H200 H 0.75077 0.98968 0.18149 0.0
H201 H 0.72504 -0.0005 0.04066 0.0
C202 C 0.75699 0.04753 0.04443 0.0
C203 C 0.78229 0.06937 0.06832 0.0
C204 C 0.74787 0.96764 0.15743 0.0
C205 C 0.75413 0.00862 0.10041 0.0
C206 C 0.74847 0.93294 0.16909 0.0
C207 C 0.74762 0.9042 0.13802 0.0
C208 C 0.74617 0.97332 0.11452 0.0
C209 C 0.74327 0.9109 0.09578 0.0
C210 C 0.74309 0.01702 0.06026 0.0
C211 C 0.79093 0.06114 0.10931 0.0
N212 N 0.74305 0.94489 0.08513 0.0
N213 N 0.77712 0.03118 0.12397 0.0
H214 H 0.4623 0.26465 0.60828 0.0
H215 H 0.63443 0.39378 0.65603 0.0
H216 H 0.47143 0.36971 0.56598 0.0
H217 H 0.64989 0.27993 0.64565 0.0
H218 H 0.57011 0.38508 0.63507 0.0
H219 H 0.5273 0.26927 0.63274 0.0
C220 C 0.47791 0.28855 0.60406 0.0
C221 C 0.4615 0.31677 0.58487 0.0
C222 C 0.58754 0.36194 0.63721 0.0
C223 C 0.53496 0.32234 0.61324 0.0
C224 C 0.62442 0.36686 0.64895 0.0
C225 C 0.648 0.33755 0.6515 0.0
C226 C 0.5736 0.32742 0.62839 0.0
C227 C 0.63276 0.30328 0.64377 0.0
C228 C 0.51488 0.29109 0.61789 0.0
C229 C 0.48292 0.34714 0.58022 0.0
N230 N 0.59642 0.2991 0.63234 0.0
N231 N 0.51832 0.34917 0.59452 0.0
H232 H 0.66778 0.58667 0.36689 0.0
H233 H 0.55739 0.40205 0.34079 0.0
H234 H 0.61802 0.53471 0.46819 0.0
H235 H 0.60238 0.44973 0.23381 0.0
H236 H 0.5807 0.45147 0.38705 0.0
H237 H 0.64578 0.53762 0.31673 0.0
C238 C 0.65243 0.56499 0.3786 0.0
C239 C 0.64483 0.56481 0.42186 0.0
C240 C 0.58547 0.45144 0.35348 0.0
C241 C 0.61962 0.50905 0.36494 0.0
C242 C 0.57181 0.42325 0.32691 0.0
C243 C 0.57733 0.42203 0.28323 0.0
C244 C 0.60515 0.47885 0.33656 0.0
C245 C 0.59743 0.44974 0.26734 0.0
C246 C 0.63985 0.53711 0.34999 0.0
C247 C 0.62467 0.53616 0.43526 0.0
N248 N 0.61057 0.47718 0.29403 0.0
N249 N 0.61286 0.50962 0.40699 0.0
H250 H 0.97027 0.22601 0.02159 0.0
H251 H 0.13316 0.11767 0.89785 0.0
H252 H 0.95741 0.12512 0.94764 0.0
H253 H 0.15174 0.21967 0.96681 0.0
H254 H 0.06699 0.12386 0.91114 0.0
H255 H 0.03504 0.22814 0.99781 0.0
C256 C 0.98091 0.20453 0.00011 0.0
C257 C 0.95858 0.17507 0.9871 0.0
C258 C 0.08527 0.14515 0.92326 0.0
C259 C 0.0322 0.17738 0.95984 0.0
C260 C 0.12303 0.14155 0.91563 0.0
C261 C 0.14767 0.16806 0.93164 0.0
C262 C 0.07188 0.17533 0.94762 0.0
C263 C 0.13336 0.19867 0.95412 0.0
C264 C 0.01783 0.20574 0.98662 0.0
C265 C 0.97371 0.14805 0.95914 0.0
N266 N 0.09626 0.20135 0.96196 0.0
N267 N 0.00948 0.14981 0.94672 0.0
H268 H 0.29726 0.40697 0.45639 0.0
H269 H 0.2484 0.60037 0.52342 0.0
H270 H 0.24501 0.434 0.57658 0.0
H271 H 0.24016 0.55955 0.3928 0.0
H272 H 0.24186 0.53972 0.54399 0.0
H273 H 0.27193 0.46125 0.43097 0.0
C274 C 0.27944 0.42393 0.4769 0.0
C275 C 0.27298 0.41624 0.51842 0.0
C276 C 0.24031 0.54413 0.51089 0.0
C277 C 0.24527 0.47883 0.49042 0.0
C278 C 0.24407 0.57867 0.49921 0.0
C279 C 0.24502 0.58472 0.45643 0.0
C280 C 0.23867 0.51553 0.47947 0.0
C281 C 0.23951 0.55586 0.42613 0.0
C282 C 0.26501 0.45485 0.46249 0.0
C283 C 0.25023 0.43908 0.54418 0.0
N284 N 0.23753 0.52232 0.43818 0.0
N285 N 0.23793 0.46997 0.53013 0.0
H286 H 0.14369 0.85312 0.93029 0.0
H287 H 0.96873 0.78683 0.79567 0.0
H288 H 0.08225 0.75941 0.9543 0.0
H289 H 0.03882 0.87386 0.76729 0.0
H290 H 0.01627 0.7684 0.84452 0.0
H291 H 0.11312 0.85318 0.86182 0.0
C292 C 0.12441 0.83196 0.9204 0.0
C293 C 0.11541 0.80619 0.94755 0.0
C294 C 0.02162 0.79104 0.82688 0.0
C295 C 0.079 0.80681 0.87015 0.0
C296 C 0.99458 0.80142 0.79884 0.0
C297 C 0.99972 0.83222 0.77801 0.0
C298 C 0.05381 0.81174 0.83411 0.0
C299 C 0.03357 0.85031 0.78335 0.0
C300 C 0.10677 0.83204 0.88144 0.0
C301 C 0.09002 0.77953 0.93383 0.0
N302 N 0.05905 0.84013 0.81131 0.0
N303 N 0.07204 0.78092 0.89631 0.0
H304 H 0.91398 0.07124 0.93926 0.0
H305 H 0.85677 0.92405 0.7652 0.0
H306 H 0.80746 0.0766 0.87817 0.0
H307 H 0.97075 0.95821 0.78058 0.0
H308 H 0.83699 0.97887 0.80526 0.0
H309 H 0.93481 0.02858 0.88207 0.0
C310 C 0.89507 0.06354 0.91353 0.0
C311 C 0.8589 0.07713 0.91346 0.0
C312 C 0.86626 0.9746 0.79912 0.0
C313 C 0.88234 0.02795 0.84827 0.0
C314 C 0.87769 0.94334 0.77603 0.0
C315 C 0.91567 0.93607 0.76987 0.0
C316 C 0.89297 -0.00157 0.81693 0.0
C317 C 0.94128 0.96207 0.78547 0.0
C318 C 0.90704 0.0394 0.88079 0.0
C319 C 0.83555 0.06658 0.87928 0.0
N320 N 0.92951 0.99175 0.80896 0.0
N321 N 0.84744 0.04196 0.84831 0.0
H322 H 0.40768 0.25477 0.44272 0.0
H323 H 0.51159 0.2765 0.26776 0.0
H324 H 0.34727 0.34775 0.41233 0.0
H325 H 0.44789 0.3722 0.25932 0.0
H326 H 0.46504 0.25538 0.31451 0.0
H327 H 0.43566 0.25064 0.3732 0.0
C328 C 0.39966 0.27388 0.42097 0.0
C329 C 0.37594 0.30225 0.43383 0.0
C330 C 0.46069 0.28083 0.30237 0.0
C331 C 0.40821 0.29808 0.35363 0.0
C332 C 0.48717 0.29264 0.27487 0.0
C333 C 0.48404 0.32656 0.26053 0.0
C334 C 0.43116 0.30344 0.31598 0.0
C335 C 0.4518 0.34625 0.27058 0.0
C336 C 0.41583 0.27162 0.38094 0.0
C337 C 0.36621 0.32595 0.40417 0.0
N338 N 0.42706 0.33475 0.29834 0.0
N339 N 0.38286 0.32369 0.36585 0.0
H340 H 0.18888 0.90997 0.95762 0.0
H341 H 0.26035 0.10317 0.00909 0.0
H342 H 0.25085 0.94053 0.07142 0.0
H343 H 0.24252 0.05903 0.88109 0.0
H344 H 0.26238 0.0429 0.03168 0.0
H345 H 0.21225 0.96272 0.9272 0.0
C346 C 0.20781 0.92751 0.97597 0.0
C347 C 0.21745 0.92117 0.01734 0.0
C348 C 0.25916 0.04627 0.99844 0.0
C349 C 0.24394 0.9817 0.98298 0.0
C350 C 0.25822 0.0806 0.98563 0.0
C351 C 0.25156 0.08571 0.94327 0.0
C352 C 0.25215 0.01711 0.9688 0.0
C353 C 0.24809 0.05588 0.91399 0.0
C354 C 0.2213 0.95752 0.95853 0.0
C355 C 0.24243 0.94455 0.03953 0.0
N356 N 0.24762 0.02276 0.92743 0.0
N357 N 0.25421 0.97419 0.02239 0.0
H358 H 0.54497 0.6262 0.4429 0.0
H359 H 0.34371 0.68103 0.51458 0.0
H360 H 0.52939 0.71424 0.53743 0.0
H361 H 0.3683 0.65232 0.38348 0.0
H362 H 0.41068 0.68733 0.52909 0.0
H363 H 0.47876 0.62839 0.4255 0.0
C364 C 0.52756 0.64602 0.45989 0.0
C365 C 0.5425 0.67012 0.49156 0.0
C366 C 0.40126 0.68012 0.4971 0.0
C367 C 0.46699 0.67228 0.47245 0.0
C368 C 0.36328 0.67651 0.48889 0.0
C369 C 0.3508 0.66643 0.44779 0.0
C370 C 0.42667 0.67247 0.46418 0.0
C371 C 0.37701 0.66049 0.41549 0.0
C372 C 0.48995 0.64736 0.44983 0.0
C373 C 0.51886 0.69537 0.5126 0.0
N374 N 0.41381 0.66306 0.42446 0.0
N375 N 0.48204 0.69549 0.50311 0.0
H376 H 0.42235 0.43623 0.61897 0.0
H377 H 0.39266 0.55522 0.83571 0.0
H378 H 0.32452 0.42446 0.69444 0.0
H379 H 0.45127 0.59067 0.72894 0.0
H380 H 0.37428 0.50127 0.79163 0.0
H381 H 0.44145 0.48642 0.66759 0.0
C382 C 0.40493 0.44404 0.6459 0.0
C383 C 0.37153 0.42628 0.65237 0.0
C384 C 0.39134 0.52094 0.77821 0.0
C385 C 0.39354 0.48377 0.70836 0.0
C386 C 0.40176 0.55178 0.80321 0.0
C387 C 0.42397 0.57759 0.78633 0.0
C388 C 0.40368 0.51571 0.73634 0.0
C389 C 0.43514 0.5713 0.74401 0.0
C390 C 0.41584 0.4728 0.67356 0.0
C391 C 0.35027 0.43763 0.68803 0.0
N392 N 0.42506 0.54102 0.72069 0.0
N393 N 0.36165 0.46574 0.71481 0.0
H394 H 0.04498 0.86823 0.14599 0.0
H395 H 0.84917 0.76828 0.1233 0.0
H396 H 0.03178 0.76671 0.07354 0.0
H397 H 0.86599 0.87553 0.1787 0.0
H398 H 0.91678 0.76232 0.11296 0.0
H399 H 0.98049 0.86615 0.16712 0.0
C400 C 0.02849 0.84536 0.1346 0.0
C401 C 0.04366 0.81787 0.10739 0.0
C402 C 0.90557 0.78701 0.12763 0.0
C403 C 0.96925 0.81537 0.13137 0.0
C404 C 0.86717 0.79034 0.1336 0.0
C405 C 0.85219 0.8226 0.15125 0.0
C406 C 0.92882 0.81604 0.13996 0.0
C407 C 0.87646 0.85043 0.16428 0.0
C408 C 0.99156 0.84416 0.14673 0.0
C409 C 0.02108 0.78858 0.09435 0.0
N410 N 0.91344 0.84654 0.15822 0.0
N411 N 0.98476 0.78826 0.10608 0.0
H412 H 0.75921 0.55764 0.51431 0.0
H413 H 0.75401 0.44181 0.71095 0.0
H414 H 0.70289 0.58908 0.63137 0.0
H415 H 0.76229 0.39827 0.58144 0.0
H416 H 0.75988 0.50185 0.68797 0.0
H417 H 0.78424 0.50591 0.54555 0.0
C418 C 0.75276 0.55416 0.54689 0.0
C419 C 0.72815 0.57722 0.56999 0.0
C420 C 0.76162 0.47907 0.66478 0.0
C421 C 0.75701 0.51834 0.60577 0.0
C422 C 0.75861 0.44493 0.67787 0.0
C423 C 0.75755 0.4154 0.64787 0.0
C424 C 0.7638 0.48337 0.62153 0.0
C425 C 0.76296 0.42058 0.60534 0.0
C426 C 0.76706 0.52461 0.5646 0.0
C427 C 0.72111 0.57152 0.61217 0.0
N428 N 0.76541 0.45405 0.59329 0.0
N429 N 0.73509 0.54233 0.62858 0.0
H430 H 0.86274 0.12853 0.1562 0.0
H431 H 0.95703 0.12211 0.33973 0.0
H432 H 0.90682 0.23355 0.14773 0.0
H433 H 0.02701 0.20081 0.29057 0.0
H434 H 0.90708 0.13813 0.29296 0.0
H435 H 0.89107 0.12719 0.22517 0.0
C436 C 0.87746 0.15187 0.16978 0.0
C437 C 0.88244 0.1812 0.14656 0.0
C438 C 0.93326 0.15201 0.29222 0.0
C439 C 0.91548 0.18008 0.22591 0.0
C440 C 0.9615 0.14323 0.31945 0.0
C441 C 0.99606 0.15997 0.31847 0.0
C442 C 0.94022 0.17677 0.26273 0.0
C443 C 0.00064 0.18728 0.29197 0.0
C444 C 0.89354 0.15128 0.20948 0.0
C445 C 0.90213 0.2106 0.16505 0.0
N446 N 0.97324 0.19439 0.26445 0.0
N447 N 0.91875 0.20897 0.20337 0.0
H448 H 0.21905 0.8138 0.21318 0.0
H449 H 0.21483 0.63671 0.32837 0.0
H450 H 0.15039 0.72467 0.16831 0.0
H451 H 0.25382 0.7373 0.38744 0.0
H452 H 0.18949 0.66759 0.27026 0.0
H453 H 0.23134 0.78562 0.27755 0.0
C454 C 0.20642 0.78828 0.21702 0.0
C455 C 0.18399 0.77135 0.18523 0.0
C456 C 0.2032 0.68289 0.29623 0.0
C457 C 0.19819 0.73869 0.2589 0.0
C458 C 0.21754 0.66533 0.32952 0.0
C459 C 0.23693 0.6844 0.36262 0.0
C460 C 0.20857 0.71968 0.29594 0.0
C461 C 0.23988 0.7214 0.36214 0.0
C462 C 0.2133 0.77226 0.2539 0.0
C463 C 0.16793 0.73854 0.19208 0.0
N464 N 0.22625 0.73773 0.32914 0.0
N465 N 0.17578 0.72296 0.22802 0.0
H466 H 0.72208 0.7752 0.56522 0.0
H467 H 0.9313 0.79116 0.64641 0.0
H468 H 0.80003 0.68893 0.54072 0.0
H469 H 0.8395 0.84925 0.70633 0.0
H470 H 0.88704 0.7578 0.59918 0.0
H471 H 0.76913 0.80849 0.60723 0.0
C472 C 0.74922 0.76337 0.56828 0.0
C473 C 0.75705 0.72913 0.54955 0.0
C474 C 0.87683 0.77798 0.62267 0.0
C475 C 0.81104 0.76716 0.59787 0.0
C476 C 0.90198 0.7969 0.64973 0.0
C477 C 0.88925 0.82347 0.68009 0.0
C478 C 0.83886 0.786 0.62581 0.0
C479 C 0.85088 0.82985 0.68271 0.0
C480 C 0.77599 0.78232 0.59252 0.0
C481 C 0.79276 0.71518 0.5548 0.0
N482 N 0.82718 0.81145 0.65582 0.0
N483 N 0.81851 0.73427 0.57856 0.0
H484 H 0.71337 0.17651 0.07742 0.0
H485 H 0.6223 0.36583 0.14637 0.0
H486 H 0.76654 0.27631 0.05904 0.0
H487 H 0.58821 0.26868 0.19686 0.0
H488 H 0.67003 0.3325 0.1052 0.0
H489 H 0.66202 0.20923 0.11276 0.0
C490 C 0.71421 0.2053 0.0807 0.0
C491 C 0.74436 0.22371 0.06536 0.0
C492 C 0.65192 0.3185 0.12513 0.0
C493 C 0.6856 0.26123 0.10549 0.0
C494 C 0.62471 0.33749 0.14869 0.0
C495 C 0.60126 0.32012 0.17536 0.0
C496 C 0.65559 0.28181 0.12797 0.0
C497 C 0.60525 0.2832 0.17641 0.0
C498 C 0.68493 0.22393 0.10093 0.0
C499 C 0.74399 0.26102 0.07059 0.0
N500 N 0.63199 0.26531 0.15318 0.0
N501 N 0.71502 0.27856 0.09015 0.0
H502 H 0.34356 0.22274 0.65776 0.0
H503 H 0.25254 0.24352 0.88693 0.0
H504 H 0.31149 0.32357 0.72244 0.0
H505 H 0.28611 0.14308 0.82274 0.0
H506 H 0.28078 0.27412 0.8306 0.0
H507 H 0.33003 0.19399 0.72159 0.0
C508 C 0.33406 0.23893 0.68549 0.0
C509 C 0.32811 0.27557 0.68446 0.0
C510 C 0.28237 0.24541 0.82909 0.0
C511 C 0.31233 0.24273 0.75764 0.0
C512 C 0.26614 0.22794 0.86116 0.0
C513 C 0.26675 0.19069 0.85941 0.0
C514 C 0.29908 0.22547 0.79481 0.0
C515 C 0.28521 0.17184 0.8256 0.0
C516 C 0.32631 0.22247 0.72196 0.0
C517 C 0.31608 0.29519 0.72155 0.0
N518 N 0.30028 0.1894 0.79444 0.0
N519 N 0.30819 0.27846 0.75645 0.0
H520 H 0.63961 0.76057 0.41067 0.0
H521 H 0.74827 0.74498 0.19103 0.0
H522 H 0.70573 0.67031 0.36375 0.0
H523 H 0.70723 0.84392 0.25239 0.0
H524 H 0.71913 0.71335 0.24588 0.0
H525 H 0.65032 0.78727 0.34421 0.0
C526 C 0.65576 0.74612 0.38609 0.0
C527 C 0.67241 0.71356 0.39283 0.0
C528 C 0.7161 0.74195 0.24698 0.0
C529 C 0.68464 0.74366 0.31724 0.0
C530 C 0.73285 0.76001 0.2158 0.0
C531 C 0.73063 0.79718 0.21738 0.0
C532 C 0.69705 0.76119 0.28005 0.0
C533 C 0.70957 0.81524 0.24972 0.0
C534 C 0.66199 0.76138 0.34834 0.0
C535 C 0.69301 0.69583 0.36003 0.0
N536 N 0.69395 0.7971 0.28005 0.0
N537 N 0.69881 0.71123 0.32381 0.0
H538 H 0.85416 0.27003 0.92781 0.0
H539 H 0.7435 0.26044 0.70851 0.0
H540 H 0.78663 0.18139 0.87866 0.0
H541 H 0.78481 0.35849 0.77202 0.0
H542 H 0.77028 0.22813 0.7643 0.0
H543 H 0.84031 0.29981 0.86399 0.0
C544 C 0.8369 0.25669 0.90336 0.0
C545 C 0.82102 0.22352 0.90865 0.0
C546 C 0.77372 0.2567 0.76585 0.0
C547 C 0.80531 0.25705 0.83607 0.0
C548 C 0.75827 0.27516 0.73414 0.0
C549 C 0.76155 0.31225 0.73581 0.0
C550 C 0.7926 0.27542 0.79955 0.0
C551 C 0.78177 0.32987 0.76929 0.0
C552 C 0.82888 0.27369 0.86715 0.0
C553 C 0.79889 0.20726 0.8761 0.0
N554 N 0.79631 0.31132 0.80005 0.0
N555 N 0.79156 0.22425 0.84133 0.0
H556 H 0.20936 0.30874 0.54026 0.0
H557 H 0.12179 0.12405 0.45081 0.0
H558 H 0.27368 0.21222 0.52288 0.0
H559 H 0.09486 0.22129 0.39555 0.0
H560 H 0.16693 0.15684 0.49654 0.0
H561 H 0.15628 0.27696 0.50562 0.0
C562 C 0.21203 0.28076 0.52975 0.0
C563 C 0.2458 0.26298 0.5341 0.0
C564 C 0.15072 0.1709 0.47465 0.0
C565 C 0.18558 0.22674 0.49564 0.0
C566 C 0.12514 0.15226 0.44828 0.0
C567 C 0.10495 0.16966 0.41837 0.0
C568 C 0.15559 0.20738 0.47193 0.0
C569 C 0.10959 0.20662 0.41801 0.0
C570 C 0.18196 0.26282 0.50994 0.0
C571 C 0.24813 0.22685 0.51976 0.0
N572 N 0.13459 0.22425 0.44426 0.0
N573 N 0.21833 0.20982 0.50129 0.0
H574 H 0.21829 0.72582 0.99589 0.0
H575 H 0.43065 0.70871 0.93018 0.0
H576 H 0.29876 0.80598 0.03814 0.0
H577 H 0.34148 0.66295 0.8521 0.0
H578 H 0.3846 0.73913 0.97697 0.0
H579 H 0.26551 0.69577 0.95067 0.0
C580 C 0.24597 0.73695 0.99592 0.0
C581 C 0.25461 0.76847 0.02079 0.0
C582 C 0.37529 0.72237 0.94954 0.0
C583 C 0.3087 0.73416 0.96921 0.0
C584 C 0.40151 0.70513 0.92267 0.0
C585 C 0.39008 0.68292 0.88714 0.0
C586 C 0.33739 0.71698 0.94119 0.0
C587 C 0.3518 0.67898 0.87955 0.0
C588 C 0.27281 0.71991 0.96992 0.0
C589 C 0.29089 0.78182 0.01933 0.0
N590 N 0.3269 0.69563 0.90647 0.0
N591 N 0.31671 0.76449 0.99406 0.0
loop_
_geom_bond_atom_site_label_1
_geom_bond_atom_site_label_2
_geom_bond_distance
_geom_bond_site_symmetry_2
_ccdc_geom_bond_type
Fe0 O2 1.918 . S
Fe0 O5 1.997 . S
Fe0 O6 2.002 . S
Fe0 O11 1.976 . S
Fe0 O14 1.996 . S
Fe1 O2 1.918 . S
Fe1 O9 1.997 . S
Fe1 O12 1.996 . S
Fe1 O16 1.976 . S
Fe1 O19 2.002 . S
O2 Fe0 1.918 . S
O2 Fe1 1.918 . S
O2 Fe3 1.918 . S
Fe3 O2 1.918 . S
Fe3 O4 2.002 . S
Fe3 O13 1.976 . S
Fe3 O17 1.997 1_554 S
Fe3 O20 1.997 . S
O4 Fe3 2.002 . S
O4 C21 1.295 . S
O5 Fe0 1.997 . S
O5 C21 1.235 . S
O6 Fe0 2.002 . S
O6 C7 1.295 . S
C7 O6 1.295 . S
C7 O9 1.235 . S
C8 O13 1.287 . S
C8 O14 1.255 . S
O9 Fe1 1.997 . S
O9 C7 1.235 . S
C10 O16 1.287 1_556 S
C10 O17 1.254 . S
O11 Fe0 1.976 . S
O11 C18 1.287 . S
O12 Fe1 1.996 . S
O12 C18 1.255 . S
O13 Fe3 1.976 . S
O13 C8 1.287 . S
O14 Fe0 1.996 . S
O14 C8 1.255 . S
C15 O19 1.295 . S
C15 O20 1.235 . S
O16 Fe1 1.976 . S
O16 C10 1.287 1_554 S
O17 Fe3 1.997 1_556 S
O17 C10 1.254 . S
C18 O11 1.287 . S
C18 O12 1.255 . S
O19 Fe1 2.002 . S
O19 C15 1.295 . S
O20 Fe3 1.997 . S
O20 C15 1.235 . S
C21 O4 1.295 . S
C21 O5 1.235 . S
Fe22 O24 1.918 . S
Fe22 O27 1.997 . S
Fe22 O28 2.002 . S
Fe22 O33 1.976 . S
Fe22 O36 1.996 . S
Fe23 O24 1.918 . S
Fe23 O31 1.997 . S
Fe23 O34 1.996 . S
Fe23 O38 1.976 . S
Fe23 O41 2.002 . S
O24 Fe22 1.918 . S
O24 Fe23 1.918 . S
O24 Fe25 1.918 . S
Fe25 O24 1.918 . S
Fe25 O26 2.002 . S
Fe25 O35 1.976 . S
Fe25 O39 1.996 . S
Fe25 O42 1.997 . S
O26 Fe25 2.002 . S
O26 C43 1.295 . S
O27 Fe22 1.997 . S
O27 C43 1.235 . S
O28 Fe22 2.002 . S
O28 C29 1.295 . S
C29 O28 1.295 . S
C29 O31 1.235 . S
C30 O35 1.287 . S
C30 O36 1.255 . S
O31 Fe23 1.997 . S
O31 C29 1.235 . S
C32 O38 1.287 . S
C32 O39 1.255 . S
O33 Fe22 1.976 . S
O33 C40 1.287 . S
O34 Fe23 1.996 . S
O34 C40 1.255 . S
O35 Fe25 1.976 . S
O35 C30 1.287 . S
O36 Fe22 1.996 . S
O36 C30 1.255 . S
C37 O41 1.295 . S
C37 O42 1.235 . S
O38 Fe23 1.976 . S
O38 C32 1.287 . S
O39 Fe25 1.996 . S
O39 C32 1.255 . S
C40 O33 1.287 . S
C40 O34 1.255 . S
O41 Fe23 2.002 . S
O41 C37 1.295 . S
O42 Fe25 1.997 . S
O42 C37 1.235 . S
C43 O26 1.295 . S
C43 O27 1.235 . S
Fe44 O46 1.918 . S
Fe44 O49 1.997 1_554 S
Fe44 O50 2.002 . S
Fe44 O55 1.976 . S
Fe44 O58 1.996 . S
Fe45 O46 1.918 . S
Fe45 O53 1.997 . S
Fe45 O56 1.996 . S
Fe45 O60 1.976 . S
Fe45 O63 2.002 1_554 S
O46 Fe44 1.918 . S
O46 Fe45 1.918 . S
O46 Fe47 1.918 1_554 S
Fe47 O46 1.918 1_556 S
Fe47 O48 2.002 . S
Fe47 O57 1.976 1_556 S
Fe47 O61 1.996 1_556 S
Fe47 O64 1.997 . S
O48 Fe47 2.002 . S
O48 C65 1.295 . S
O49 Fe44 1.997 1_556 S
O49 C65 1.235 . S
O50 Fe44 2.002 . S
O50 C51 1.295 1_554 S
C51 O50 1.295 1_556 S
C51 O53 1.235 1_556 S
C52 O57 1.287 . S
C52 O58 1.255 . S
O53 Fe45 1.997 . S
O53 C51 1.235 1_554 S
C54 O60 1.287 . S
C54 O61 1.255 . S
O55 Fe44 1.976 . S
O55 C62 1.287 . S
O56 Fe45 1.996 . S
O56 C62 1.255 . S
O57 Fe47 1.976 1_554 S
O57 C52 1.287 . S
O58 Fe44 1.996 . S
O58 C52 1.255 . S
C59 O63 1.295 . S
C59 O64 1.235 . S
O60 Fe45 1.976 . S
O60 C54 1.287 . S
O61 Fe47 1.996 1_554 S
O61 C54 1.255 . S
C62 O55 1.287 . S
C62 O56 1.255 . S
O63 Fe45 2.002 1_556 S
O63 C59 1.295 . S
O64 Fe47 1.997 . S
O64 C59 1.235 . S
C65 O48 1.295 . S
C65 O49 1.235 . S
Fe66 O68 1.918 . S
Fe66 O71 1.997 . S
Fe66 O72 2.002 . S
Fe66 O77 1.976 . S
Fe66 O80 1.996 . S
Fe67 O68 1.918 . S
Fe67 O75 1.997 . S
Fe67 O78 1.996 . S
Fe67 O82 1.976 . S
Fe67 O85 2.002 . S
O68 Fe66 1.918 . S
O68 Fe67 1.918 . S
O68 Fe69 1.918 . S
Fe69 O68 1.918 . S
Fe69 O70 2.002 . S
Fe69 O79 1.976 . S
Fe69 O83 1.996 . S
Fe69 O86 1.997 . S
O70 Fe69 2.002 . S
O70 C87 1.295 . S
O71 Fe66 1.997 . S
O71 C87 1.235 . S
O72 Fe66 2.002 . S
O72 C73 1.295 . S
C73 O72 1.295 . S
C73 O75 1.235 . S
C74 O79 1.287 . S
C74 O80 1.255 . S
O75 Fe67 1.997 . S
O75 C73 1.235 . S
C76 O82 1.287 . S
C76 O83 1.255 . S
O77 Fe66 1.976 . S
O77 C84 1.287 . S
O78 Fe67 1.996 . S
O78 C84 1.255 . S
O79 Fe69 1.976 . S
O79 C74 1.287 . S
O80 Fe66 1.996 . S
O80 C74 1.255 . S
C81 O85 1.295 . S
C81 O86 1.235 . S
O82 Fe67 1.976 . S
O82 C76 1.287 . S
O83 Fe69 1.996 . S
O83 C76 1.255 . S
C84 O77 1.287 . S
C84 O78 1.255 . S
O85 Fe67 2.002 . S
O85 C81 1.295 . S
O86 Fe69 1.997 . S
O86 C81 1.235 . S
C87 O70 1.295 . S
C87 O71 1.235 . S
H88 C91 0.931 . S
H89 C94 0.928 . S
H90 C96 0.930 . S
C91 H88 0.931 . S
C91 C92 1.413 . S
C91 C93 1.360 . S
C92 C91 1.413 . S
C92 C96 1.429 . S
C93 C91 1.360 . S
C93 C94 1.372 . S
C94 H89 0.928 . S
C94 C93 1.372 . S
C94 C95 1.404 . S
C95 C94 1.404 . S
C95 C96 1.391 . S
C96 H90 0.930 . S
C96 C92 1.429 . S
C96 C95 1.391 . S
H97 C100 0.931 . S
H98 C103 0.928 . S
H99 C105 0.930 . S
C100 H97 0.931 . S
C100 C101 1.413 . S
C100 C102 1.360 . S
C101 C100 1.413 . S
C101 C105 1.429 . S
C102 C100 1.360 . S
C102 C103 1.372 . S
C103 H98 0.928 . S
C103 C102 1.372 . S
C103 C104 1.404 . S
C104 C103 1.404 . S
C104 C105 1.391 . S
C105 H99 0.930 . S
C105 C101 1.429 . S
C105 C104 1.391 . S
H106 C109 0.931 . S
H107 C112 0.928 . S
H108 C114 0.930 . S
C109 H106 0.931 . S
C109 C110 1.413 . S
C109 C111 1.360 . S
C110 C109 1.413 . S
C110 C114 1.429 . S
C111 C109 1.360 . S
C111 C112 1.372 . S
C112 H107 0.928 . S
C112 C111 1.372 . S
C112 C113 1.404 . S
C113 C112 1.404 . S
C113 C114 1.391 . S
C114 H108 0.930 . S
C114 C110 1.429 . S
C114 C113 1.391 . S
H115 C118 0.931 . S
H116 C121 0.928 . S
H117 C123 0.930 . S
C118 H115 0.931 . S
C118 C119 1.413 . S
C118 C120 1.360 . S
C119 C118 1.413 . S
C119 C123 1.429 . S
C120 C118 1.360 . S
C120 C121 1.372 . S
C121 H116 0.928 . S
C121 C120 1.372 . S
C121 C122 1.404 . S
C122 C121 1.404 . S
C122 C123 1.391 . S
C123 H117 0.930 . S
C123 C119 1.429 . S
C123 C122 1.391 . S
H124 C127 0.931 . S
H125 C130 0.928 . S
H126 C132 0.930 . S
C127 H124 0.931 . S
C127 C128 1.413 . S
C127 C129 1.360 . S
C128 C127 1.413 . S
C128 C132 1.429 . S
C129 C127 1.360 . S
C129 C130 1.372 . S
C130 H125 0.928 . S
C130 C129 1.372 . S
C130 C131 1.404 . S
C131 C130 1.404 . S
C131 C132 1.391 . S
C132 H126 0.930 . S
C132 C128 1.429 . S
C132 C131 1.391 . S
H133 C136 0.931 . S
H134 C139 0.928 . S
H135 C141 0.930 . S
C136 H133 0.931 . S
C136 C137 1.413 . S
C136 C138 1.360 . S
C137 C136 1.413 . S
C137 C141 1.429 . S
C138 C136 1.360 . S
C138 C139 1.372 . S
C139 H134 0.928 . S
C139 C138 1.372 . S
C139 C140 1.404 . S
C140 C139 1.404 . S
C140 C141 1.391 . S
C141 H135 0.930 . S
C141 C137 1.429 . S
C141 C140 1.391 . S
H142 C145 0.931 . S
H143 C148 0.928 . S
H144 C150 0.930 . S
C145 H142 0.931 . S
C145 C146 1.413 . S
C145 C147 1.360 . S
C146 C145 1.413 . S
C146 C150 1.429 . S
C147 C145 1.360 . S
C147 C148 1.372 . S
C148 H143 0.928 . S
C148 C147 1.372 . S
C148 C149 1.404 . S
C149 C148 1.404 . S
C149 C150 1.391 . S
C150 H144 0.930 . S
C150 C146 1.429 . S
C150 C149 1.391 . S
H151 C154 0.931 . S
H152 C157 0.928 . S
H153 C159 0.930 . S
C154 H151 0.931 . S
C154 C155 1.413 . S
C154 C156 1.360 . S
C155 C154 1.413 . S
C155 C159 1.429 . S
C156 C154 1.360 . S
C156 C157 1.372 . S
C157 H152 0.928 . S
C157 C156 1.372 . S
C157 C158 1.404 . S
C158 C157 1.404 . S
C158 C159 1.391 . S
C159 H153 0.930 . S
C159 C155 1.429 . S
C159 C158 1.391 . S
H160 C166 0.930 . S
H161 C170 0.930 . S
H162 C175 0.929 . S
H163 C173 0.929 . S
H164 C168 0.929 . S
H165 C174 0.929 . S
C166 H160 0.930 . S
C166 C167 1.367 . S
C166 C174 1.378 . S
C167 C166 1.367 . S
C167 C175 1.433 . S
C168 H164 0.929 . S
C168 C170 1.378 . S
C168 C172 1.350 . S
C169 C172 1.463 1_565 S
C169 C174 1.350 . S
C169 N177 1.427 . S
C170 H161 0.930 . S
C170 C168 1.378 . S
C170 C171 1.367 . S
C171 C170 1.367 . S
C171 C173 1.433 . S
C172 C168 1.350 . S
C172 C169 1.463 1_545 S
C172 N176 1.427 . S
C173 H163 0.929 . S
C173 C171 1.433 . S
C173 N176 1.384 . S
C174 H165 0.929 . S
C174 C166 1.378 . S
C174 C169 1.350 . S
C175 H162 0.929 . S
C175 C167 1.433 . S
C175 N177 1.384 . S
N176 C172 1.427 . S
N176 C173 1.384 . S
N177 C169 1.427 . S
N177 C175 1.384 . S
H178 C184 0.930 . S
H179 C188 0.930 . S
H180 C193 0.929 . S
H181 C191 0.929 . S
H182 C186 0.929 . S
H183 C192 0.929 . S
C184 H178 0.930 . S
C184 C185 1.367 . S
C184 C192 1.378 . S
C185 C184 1.367 . S
C185 C193 1.433 . S
C186 H182 0.929 . S
C186 C188 1.378 . S
C186 C190 1.350 . S
C187 C190 1.463 . S
C187 C192 1.350 . S
C187 N195 1.427 . S
C188 H179 0.930 . S
C188 C186 1.378 . S
C188 C189 1.367 . S
C189 C188 1.367 . S
C189 C191 1.433 . S
C190 C186 1.350 . S
C190 C187 1.463 . S
C190 N194 1.427 . S
C191 H181 0.929 . S
C191 C189 1.433 . S
C191 N194 1.384 . S
C192 H183 0.929 . S
C192 C184 1.378 . S
C192 C187 1.350 . S
C193 H180 0.929 . S
C193 C185 1.433 . S
C193 N195 1.384 . S
N194 C190 1.427 . S
N194 C191 1.384 . S
N195 C187 1.427 . S
N195 C193 1.384 . S
H196 C202 0.930 . S
H197 C206 0.930 . S
H198 C211 0.929 . S
H199 C209 0.929 . S
H200 C204 0.929 . S
H201 C210 0.929 1_565 S
C202 H196 0.930 . S
C202 C203 1.367 . S
C202 C210 1.378 . S
C203 C202 1.367 . S
C203 C211 1.433 . S
C204 H200 0.929 . S
C204 C206 1.378 . S
C204 C208 1.350 . S
C205 C208 1.463 . S
C205 C210 1.350 1_565 S
C205 N213 1.427 1_565 S
C206 H197 0.930 . S
C206 C204 1.378 . S
C206 C207 1.367 . S
C207 C206 1.367 . S
C207 C209 1.433 . S
C208 C204 1.350 . S
C208 C205 1.463 . S
C208 N212 1.427 . S
C209 H199 0.929 . S
C209 C207 1.433 . S
C209 N212 1.384 . S
C210 H201 0.929 1_545 S
C210 C202 1.378 . S
C210 C205 1.350 1_545 S
C211 H198 0.929 . S
C211 C203 1.433 . S
C211 N213 1.384 . S
N212 C208 1.427 . S
N212 C209 1.384 . S
N213 C205 1.427 1_545 S
N213 C211 1.384 . S
H214 C220 0.930 . S
H215 C224 0.930 . S
H216 C229 0.929 . S
H217 C227 0.929 . S
H218 C222 0.929 . S
H219 C228 0.929 . S
C220 H214 0.930 . S
C220 C221 1.367 . S
C220 C228 1.378 . S
C221 C220 1.367 . S
C221 C229 1.433 . S
C222 H218 0.929 . S
C222 C224 1.378 . S
C222 C226 1.350 . S
C223 C226 1.463 . S
C223 C228 1.350 . S
C223 N231 1.427 . S
C224 H215 0.930 . S
C224 C222 1.378 . S
C224 C225 1.367 . S
C225 C224 1.367 . S
C225 C227 1.433 . S
C226 C222 1.350 . S
C226 C223 1.463 . S
C226 N230 1.427 . S
C227 H217 0.929 . S
C227 C225 1.433 . S
C227 N230 1.384 . S
C228 H219 0.929 . S
C228 C220 1.378 . S
C228 C223 1.350 . S
C229 H216 0.929 . S
C229 C221 1.433 . S
C229 N231 1.384 . S
N230 C226 1.427 . S
N230 C227 1.384 . S
N231 C223 1.427 . S
N231 C229 1.384 . S
H232 C238 0.930 . S
H233 C242 0.930 . S
H234 C247 0.929 . S
H235 C245 0.929 . S
H236 C240 0.929 . S
H237 C246 0.929 . S
C238 H232 0.930 . S
C238 C239 1.367 . S
C238 C246 1.378 . S
C239 C238 1.367 . S
C239 C247 1.433 . S
C240 H236 0.929 . S
C240 C242 1.378 . S
C240 C244 1.350 . S
C241 C244 1.463 . S
C241 C246 1.350 . S
C241 N249 1.427 . S
C242 H233 0.930 . S
C242 C240 1.378 . S
C242 C243 1.367 . S
C243 C242 1.367 . S
C243 C245 1.433 . S
C244 C240 1.350 . S
C244 C241 1.463 . S
C244 N248 1.427 . S
C245 H235 0.929 . S
C245 C243 1.433 . S
C245 N248 1.384 . S
C246 H237 0.929 . S
C246 C238 1.378 . S
C246 C241 1.350 . S
C247 H234 0.929 . S
C247 C239 1.433 . S
C247 N249 1.384 . S
N248 C244 1.427 . S
N248 C245 1.384 . S
N249 C241 1.427 . S
N249 C247 1.384 . S
H250 C256 0.937 . S
H251 C260 0.930 . S
H252 C265 0.929 . S
H253 C263 0.929 . S
H254 C258 0.929 . S
H255 C264 0.929 . S
C256 H250 0.937 . S
C256 C257 1.367 . S
C256 C264 1.378 1_655 S
C257 C256 1.367 . S
C257 C265 1.433 . S
C258 H254 0.929 . S
C258 C260 1.378 . S
C258 C262 1.350 . S
C259 C262 1.463 . S
C259 C264 1.350 . S
C259 N267 1.427 . S
C260 H251 0.930 . S
C260 C258 1.378 . S
C260 C261 1.367 . S
C261 C260 1.367 . S
C261 C263 1.433 . S
C262 C258 1.350 . S
C262 C259 1.463 . S
C262 N266 1.427 . S
C263 H253 0.929 . S
C263 C261 1.433 . S
C263 N266 1.384 . S
C264 H255 0.929 . S
C264 C256 1.378 1_455 S
C264 C259 1.350 . S
C265 H252 0.929 . S
C265 C257 1.433 . S
C265 N267 1.384 1_655 S
N266 C262 1.427 . S
N266 C263 1.384 . S
N267 C259 1.427 . S
N267 C265 1.384 1_455 S
H268 C274 0.930 . S
H269 C278 0.930 . S
H270 C283 0.929 . S
H271 C281 0.929 . S
H272 C276 0.929 . S
H273 C282 0.929 . S
C274 H268 0.930 . S
C274 C275 1.367 . S
C274 C282 1.378 . S
C275 C274 1.367 . S
C275 C283 1.433 . S
C276 H272 0.929 . S
C276 C278 1.378 . S
C276 C280 1.350 . S
C277 C280 1.463 . S
C277 C282 1.350 . S
C277 N285 1.427 . S
C278 H269 0.930 . S
C278 C276 1.378 . S
C278 C279 1.367 . S
C279 C278 1.367 . S
C279 C281 1.433 . S
C280 C276 1.350 . S
C280 C277 1.463 . S
C280 N284 1.427 . S
C281 H271 0.929 . S
C281 C279 1.433 . S
C281 N284 1.384 . S
C282 H273 0.929 . S
C282 C274 1.378 . S
C282 C277 1.350 . S
C283 H270 0.929 . S
C283 C275 1.433 . S
C283 N285 1.384 . S
N284 C280 1.427 . S
N284 C281 1.384 . S
N285 C277 1.427 . S
N285 C283 1.384 . S
H286 C292 0.930 . S
H287 C296 0.930 . S
H288 C301 0.929 . S
H289 C299 0.929 . S
H290 C294 0.929 . S
H291 C300 0.929 . S
C292 H286 0.930 . S
C292 C293 1.367 . S
C292 C300 1.378 . S
C293 C292 1.367 . S
C293 C301 1.433 . S
C294 H290 0.929 . S
C294 C296 1.378 . S
C294 C298 1.350 1_655 S
C295 C298 1.463 . S
C295 C300 1.350 . S
C295 N303 1.427 . S
C296 H287 0.930 . S
C296 C294 1.378 . S
C296 C297 1.367 . S
C297 C296 1.367 . S
C297 C299 1.433 1_655 S
C298 C294 1.350 1_455 S
C298 C295 1.463 . S
C298 N302 1.427 . S
C299 H289 0.929 . S
C299 C297 1.433 1_455 S
C299 N302 1.384 . S
C300 H291 0.929 . S
C300 C292 1.378 . S
C300 C295 1.350 . S
C301 H288 0.929 . S
C301 C293 1.433 . S
C301 N303 1.384 . S
N302 C298 1.427 . S
N302 C299 1.384 . S
N303 C295 1.427 . S
N303 C301 1.384 . S
H304 C310 0.930 . S
H305 C314 0.930 . S
H306 C319 0.929 . S
H307 C317 0.929 . S
H308 C312 0.929 . S
H309 C318 0.929 . S
C310 H304 0.930 . S
C310 C311 1.367 . S
C310 C318 1.378 . S
C311 C310 1.367 . S
C311 C319 1.433 . S
C312 H308 0.929 . S
C312 C314 1.378 . S
C312 C316 1.350 . S
C313 C316 1.463 1_545 S
C313 C318 1.350 . S
C313 N321 1.427 . S
C314 H305 0.930 . S
C314 C312 1.378 . S
C314 C315 1.367 . S
C315 C314 1.367 . S
C315 C317 1.433 . S
C316 C312 1.350 . S
C316 C313 1.463 1_565 S
C316 N320 1.427 . S
C317 H307 0.929 . S
C317 C315 1.433 . S
C317 N320 1.384 . S
C318 H309 0.929 . S
C318 C310 1.378 . S
C318 C313 1.350 . S
C319 H306 0.929 . S
C319 C311 1.433 . S
C319 N321 1.384 . S
N320 C316 1.427 . S
N320 C317 1.384 . S
N321 C313 1.427 . S
N321 C319 1.384 . S
H322 C328 0.930 . S
H323 C332 0.930 . S
H324 C337 0.929 . S
H325 C335 0.929 . S
H326 C330 0.929 . S
H327 C336 0.929 . S
C328 H322 0.930 . S
C328 C329 1.367 . S
C328 C336 1.378 . S
C329 C328 1.367 . S
C329 C337 1.433 . S
C330 H326 0.929 . S
C330 C332 1.378 . S
C330 C334 1.350 . S
C331 C334 1.463 . S
C331 C336 1.350 . S
C331 N339 1.427 . S
C332 H323 0.930 . S
C332 C330 1.378 . S
C332 C333 1.367 . S
C333 C332 1.367 . S
C333 C335 1.433 . S
C334 C330 1.350 . S
C334 C331 1.463 . S
C334 N338 1.427 . S
C335 H325 0.929 . S
C335 C333 1.433 . S
C335 N338 1.384 . S
C336 H327 0.929 . S
C336 C328 1.378 . S
C336 C331 1.350 . S
C337 H324 0.929 . S
C337 C329 1.433 . S
C337 N339 1.384 . S
N338 C334 1.427 . S
N338 C335 1.384 . S
N339 C331 1.427 . S
N339 C337 1.384 . S
H340 C346 0.930 . S
H341 C350 0.930 1_554 S
H342 C355 0.929 . S
H343 C353 0.929 . S
H344 C348 0.929 . S
H345 C354 0.929 . S
C346 H340 0.930 . S
C346 C347 1.367 1_556 S
C346 C354 1.378 . S
C347 C346 1.367 1_554 S
C347 C355 1.433 . S
C348 H344 0.929 . S
C348 C350 1.378 1_554 S
C348 C352 1.350 1_554 S
C349 C352 1.463 . S
C349 C354 1.350 1_545 S
C349 N357 1.427 1_546 S
C350 H341 0.930 1_556 S
C350 C348 1.378 1_556 S
C350 C351 1.367 . S
C351 C350 1.367 . S
C351 C353 1.433 . S
C352 C348 1.350 1_556 S
C352 C349 1.463 . S
C352 N356 1.427 . S
C353 H343 0.929 . S
C353 C351 1.433 . S
C353 N356 1.384 . S
C354 H345 0.929 . S
C354 C346 1.378 . S
C354 C349 1.350 1_565 S
C355 H342 0.929 . S
C355 C347 1.433 . S
C355 N357 1.384 . S
N356 C352 1.427 . S
N356 C353 1.384 . S
N357 C349 1.427 1_564 S
N357 C355 1.384 . S
H358 C364 0.930 . S
H359 C368 0.930 . S
H360 C373 0.929 . S
H361 C371 0.929 . S
H362 C366 0.929 . S
H363 C372 0.929 . S
C364 H358 0.930 . S
C364 C365 1.367 . S
C364 C372 1.378 . S
C365 C364 1.367 . S
C365 C373 1.433 . S
C366 H362 0.929 . S
C366 C368 1.378 . S
C366 C370 1.350 . S
C367 C370 1.463 . S
C367 C372 1.350 . S
C367 N375 1.427 . S
C368 H359 0.930 . S
C368 C366 1.378 . S
C368 C369 1.367 . S
C369 C368 1.367 . S
C369 C371 1.433 . S
C370 C366 1.350 . S
C370 C367 1.463 . S
C370 N374 1.427 . S
C371 H361 0.929 . S
C371 C369 1.433 . S
C371 N374 1.384 . S
C372 H363 0.929 . S
C372 C364 1.378 . S
C372 C367 1.350 . S
C373 H360 0.929 . S
C373 C365 1.433 . S
C373 N375 1.384 . S
N374 C370 1.427 . S
N374 C371 1.384 . S
N375 C367 1.427 . S
N375 C373 1.384 . S
H376 C382 0.930 . S
H377 C386 0.930 . S
H378 C391 0.929 . S
H379 C389 0.929 . S
H380 C384 0.929 . S
H381 C390 0.929 . S
C382 H376 0.930 . S
C382 C383 1.367 . S
C382 C390 1.378 . S
C383 C382 1.367 . S
C383 C391 1.433 . S
C384 H380 0.929 . S
C384 C386 1.378 . S
C384 C388 1.350 . S
C385 C388 1.463 . S
C385 C390 1.350 . S
C385 N393 1.427 . S
C386 H377 0.930 . S
C386 C384 1.378 . S
C386 C387 1.367 . S
C387 C386 1.367 . S
C387 C389 1.433 . S
C388 C384 1.350 . S
C388 C385 1.463 . S
C388 N392 1.427 . S
C389 H379 0.929 . S
C389 C387 1.433 . S
C389 N392 1.384 . S
C390 H381 0.929 . S
C390 C382 1.378 . S
C390 C385 1.350 . S
C391 H378 0.929 . S
C391 C383 1.433 . S
C391 N393 1.384 . S
N392 C388 1.427 . S
N392 C389 1.384 . S
N393 C385 1.427 . S
N393 C391 1.384 . S
H394 C400 0.930 . S
H395 C404 0.930 . S
H396 C409 0.929 . S
H397 C407 0.929 . S
H398 C402 0.929 . S
H399 C408 0.929 . S
C400 H394 0.930 . S
C400 C401 1.367 . S
C400 C408 1.378 1_455 S
C401 C400 1.367 . S
C401 C409 1.433 . S
C402 H398 0.929 . S
C402 C404 1.378 . S
C402 C406 1.350 . S
C403 C406 1.463 . S
C403 C408 1.350 . S
C403 N411 1.427 . S
C404 H395 0.930 . S
C404 C402 1.378 . S
C404 C405 1.367 . S
C405 C404 1.367 . S
C405 C407 1.433 . S
C406 C402 1.350 . S
C406 C403 1.463 . S
C406 N410 1.427 . S
C407 H397 0.929 . S
C407 C405 1.433 . S
C407 N410 1.384 . S
C408 H399 0.929 . S
C408 C400 1.378 1_655 S
C408 C403 1.350 . S
C409 H396 0.929 . S
C409 C401 1.433 . S
C409 N411 1.384 1_455 S
N410 C406 1.427 . S
N410 C407 1.384 . S
N411 C403 1.427 . S
N411 C409 1.384 1_655 S
H412 C418 0.930 . S
H413 C422 0.930 . S
H414 C427 0.929 . S
H415 C425 0.929 . S
H416 C420 0.929 . S
H417 C426 0.929 . S
C418 H412 0.930 . S
C418 C419 1.367 . S
C418 C426 1.378 . S
C419 C418 1.367 . S
C419 C427 1.433 . S
C420 H416 0.929 . S
C420 C422 1.378 . S
C420 C424 1.350 . S
C421 C424 1.463 . S
C421 C426 1.350 . S
C421 N429 1.427 . S
C422 H413 0.930 . S
C422 C420 1.378 . S
C422 C423 1.367 . S
C423 C422 1.367 . S
C423 C425 1.433 . S
C424 C420 1.350 . S
C424 C421 1.463 . S
C424 N428 1.427 . S
C425 H415 0.929 . S
C425 C423 1.433 . S
C425 N428 1.384 . S
C426 H417 0.929 . S
C426 C418 1.378 . S
C426 C421 1.350 . S
C427 H414 0.929 . S
C427 C419 1.433 . S
C427 N429 1.384 . S
N428 C424 1.427 . S
N428 C425 1.384 . S
N429 C421 1.427 . S
N429 C427 1.384 . S
H430 C436 0.930 . S
H431 C440 0.930 . S
H432 C445 0.929 . S
H433 C443 0.929 . S
H434 C438 0.929 . S
H435 C444 0.929 . S
C436 H430 0.930 . S
C436 C437 1.367 . S
C436 C444 1.378 . S
C437 C436 1.367 . S
C437 C445 1.433 . S
C438 H434 0.929 . S
C438 C440 1.378 . S
C438 C442 1.350 . S
C439 C442 1.463 . S
C439 C444 1.350 . S
C439 N447 1.427 . S
C440 H431 0.930 . S
C440 C438 1.378 . S
C440 C441 1.367 1_655 S
C441 C440 1.367 1_455 S
C441 C443 1.433 . S
C442 C438 1.350 . S
C442 C439 1.463 . S
C442 N446 1.427 . S
C443 H433 0.929 . S
C443 C441 1.433 . S
C443 N446 1.384 1_455 S
C444 H435 0.929 . S
C444 C436 1.378 . S
C444 C439 1.350 . S
C445 H432 0.929 . S
C445 C437 1.433 . S
C445 N447 1.384 . S
N446 C442 1.427 . S
N446 C443 1.384 1_655 S
N447 C439 1.427 . S
N447 C445 1.384 . S
H448 C454 0.930 . S
H449 C458 0.930 . S
H450 C463 0.929 . S
H451 C461 0.929 . S
H452 C456 0.929 . S
H453 C462 0.929 . S
C454 H448 0.930 . S
C454 C455 1.367 . S
C454 C462 1.378 . S
C455 C454 1.367 . S
C455 C463 1.433 . S
C456 H452 0.929 . S
C456 C458 1.378 . S
C456 C460 1.350 . S
C457 C460 1.463 . S
C457 C462 1.350 . S
C457 N465 1.427 . S
C458 H449 0.930 . S
C458 C456 1.378 . S
C458 C459 1.367 . S
C459 C458 1.367 . S
C459 C461 1.433 . S
C460 C456 1.350 . S
C460 C457 1.463 . S
C460 N464 1.427 . S
C461 H451 0.929 . S
C461 C459 1.433 . S
C461 N464 1.384 . S
C462 H453 0.929 . S
C462 C454 1.378 . S
C462 C457 1.350 . S
C463 H450 0.929 . S
C463 C455 1.433 . S
C463 N465 1.384 . S
N464 C460 1.427 . S
N464 C461 1.384 . S
N465 C457 1.427 . S
N465 C463 1.384 . S
H466 C472 0.930 . S
H467 C476 0.930 . S
H468 C481 0.929 . S
H469 C479 0.929 . S
H470 C474 0.929 . S
H471 C480 0.929 . S
C472 H466 0.930 . S
C472 C473 1.367 . S
C472 C480 1.378 . S
C473 C472 1.367 . S
C473 C481 1.433 . S
C474 H470 0.929 . S
C474 C476 1.378 . S
C474 C478 1.350 . S
C475 C478 1.463 . S
C475 C480 1.350 . S
C475 N483 1.427 . S
C476 H467 0.930 . S
C476 C474 1.378 . S
C476 C477 1.367 . S
C477 C476 1.367 . S
C477 C479 1.433 . S
C478 C474 1.350 . S
C478 C475 1.463 . S
C478 N482 1.427 . S
C479 H469 0.929 . S
C479 C477 1.433 . S
C479 N482 1.384 . S
C480 H471 0.929 . S
C480 C472 1.378 . S
C480 C475 1.350 . S
C481 H468 0.929 . S
C481 C473 1.433 . S
C481 N483 1.384 . S
N482 C478 1.427 . S
N482 C479 1.384 . S
N483 C475 1.427 . S
N483 C481 1.384 . S
H484 C490 0.930 . S
H485 C494 0.930 . S
H486 C499 0.929 . S
H487 C497 0.929 . S
H488 C492 0.929 . S
H489 C498 0.929 . S
C490 H484 0.930 . S
C490 C491 1.367 . S
C490 C498 1.378 . S
C491 C490 1.367 . S
C491 C499 1.433 . S
C492 H488 0.929 . S
C492 C494 1.378 . S
C492 C496 1.350 . S
C493 C496 1.463 . S
C493 C498 1.350 . S
C493 N501 1.427 . S
C494 H485 0.930 . S
C494 C492 1.378 . S
C494 C495 1.367 . S
C495 C494 1.367 . S
C495 C497 1.433 . S
C496 C492 1.350 . S
C496 C493 1.463 . S
C496 N500 1.427 . S
C497 H487 0.929 . S
C497 C495 1.433 . S
C497 N500 1.384 . S
C498 H489 0.929 . S
C498 C490 1.378 . S
C498 C493 1.350 . S
C499 H486 0.929 . S
C499 C491 1.433 . S
C499 N501 1.384 . S
N500 C496 1.427 . S
N500 C497 1.384 . S
N501 C493 1.427 . S
N501 C499 1.384 . S
H502 C508 0.930 . S
H503 C512 0.930 . S
H504 C517 0.929 . S
H505 C515 0.929 . S
H506 C510 0.929 . S
H507 C516 0.929 . S
C508 H502 0.930 . S
C508 C509 1.367 . S
C508 C516 1.378 . S
C509 C508 1.367 . S
C509 C517 1.433 . S
C510 H506 0.929 . S
C510 C512 1.378 . S
C510 C514 1.350 . S
C511 C514 1.463 . S
C511 C516 1.350 . S
C511 N519 1.427 . S
C512 H503 0.930 . S
C512 C510 1.378 . S
C512 C513 1.367 . S
C513 C512 1.367 . S
C513 C515 1.433 . S
C514 C510 1.350 . S
C514 C511 1.463 . S
C514 N518 1.427 . S
C515 H505 0.929 . S
C515 C513 1.433 . S
C515 N518 1.384 . S
C516 H507 0.929 . S
C516 C508 1.378 . S
C516 C511 1.350 . S
C517 H504 0.929 . S
C517 C509 1.433 . S
C517 N519 1.384 . S
N518 C514 1.427 . S
N518 C515 1.384 . S
N519 C511 1.427 . S
N519 C517 1.384 . S
H520 C526 0.930 . S
H521 C530 0.930 . S
H522 C535 0.929 . S
H523 C533 0.929 . S
H524 C528 0.929 . S
H525 C534 0.929 . S
C526 H520 0.930 . S
C526 C527 1.367 . S
C526 C534 1.378 . S
C527 C526 1.367 . S
C527 C535 1.433 . S
C528 H524 0.929 . S
C528 C530 1.378 . S
C528 C532 1.350 . S
C529 C532 1.463 . S
C529 C534 1.350 . S
C529 N537 1.427 . S
C530 H521 0.930 . S
C530 C528 1.378 . S
C530 C531 1.367 . S
C531 C530 1.367 . S
C531 C533 1.433 . S
C532 C528 1.350 . S
C532 C529 1.463 . S
C532 N536 1.427 . S
C533 H523 0.929 . S
C533 C531 1.433 . S
C533 N536 1.384 . S
C534 H525 0.929 . S
C534 C526 1.378 . S
C534 C529 1.350 . S
C535 H522 0.929 . S
C535 C527 1.433 . S
C535 N537 1.384 . S
N536 C532 1.427 . S
N536 C533 1.384 . S
N537 C529 1.427 . S
N537 C535 1.384 . S
H538 C544 0.930 . S
H539 C548 0.930 . S
H540 C553 0.929 . S
H541 C551 0.929 . S
H542 C546 0.929 . S
H543 C552 0.929 . S
C544 H538 0.930 . S
C544 C545 1.367 . S
C544 C552 1.378 . S
C545 C544 1.367 . S
C545 C553 1.433 . S
C546 H542 0.929 . S
C546 C548 1.378 . S
C546 C550 1.350 . S
C547 C550 1.463 . S
C547 C552 1.350 . S
C547 N555 1.427 . S
C548 H539 0.930 . S
C548 C546 1.378 . S
C548 C549 1.367 . S
C549 C548 1.367 . S
C549 C551 1.433 . S
C550 C546 1.350 . S
C550 C547 1.463 . S
C550 N554 1.427 . S
C551 H541 0.929 . S
C551 C549 1.433 . S
C551 N554 1.384 . S
C552 H543 0.929 . S
C552 C544 1.378 . S
C552 C547 1.350 . S
C553 H540 0.929 . S
C553 C545 1.433 . S
C553 N555 1.384 . S
N554 C550 1.427 . S
N554 C551 1.384 . S
N555 C547 1.427 . S
N555 C553 1.384 . S
H556 C562 0.930 . S
H557 C566 0.930 . S
H558 C571 0.929 . S
H559 C569 0.929 . S
H560 C564 0.929 . S
H561 C570 0.929 . S
C562 H556 0.930 . S
C562 C563 1.367 . S
C562 C570 1.378 . S
C563 C562 1.367 . S
C563 C571 1.433 . S
C564 H560 0.929 . S
C564 C566 1.378 . S
C564 C568 1.350 . S
C565 C568 1.463 . S
C565 C570 1.350 . S
C565 N573 1.427 . S
C566 H557 0.930 . S
C566 C564 1.378 . S
C566 C567 1.367 . S
C567 C566 1.367 . S
C567 C569 1.433 . S
C568 C564 1.350 . S
C568 C565 1.463 . S
C568 N572 1.427 . S
C569 H559 0.929 . S
C569 C567 1.433 . S
C569 N572 1.384 . S
C570 H561 0.929 . S
C570 C562 1.378 . S
C570 C565 1.350 . S
C571 H558 0.929 . S
C571 C563 1.433 . S
C571 N573 1.384 . S
N572 C568 1.427 . S
N572 C569 1.384 . S
N573 C565 1.427 . S
N573 C571 1.384 . S
H574 C580 0.930 . S
H575 C584 0.930 . S
H576 C589 0.929 . S
H577 C587 0.929 . S
H578 C582 0.929 . S
H579 C588 0.929 . S
C580 H574 0.930 . S
C580 C581 1.367 1_556 S
C580 C588 1.378 . S
C581 C580 1.367 1_554 S
C581 C589 1.433 . S
C582 H578 0.929 . S
C582 C584 1.378 . S
C582 C586 1.350 . S
C583 C586 1.463 . S
C583 C588 1.350 . S
C583 N591 1.427 1_556 S
C584 H575 0.930 . S
C584 C582 1.378 . S
C584 C585 1.367 . S
C585 C584 1.367 . S
C585 C587 1.433 . S
C586 C582 1.350 . S
C586 C583 1.463 . S
C586 N590 1.427 . S
C587 H577 0.929 . S
C587 C585 1.433 . S
C587 N590 1.384 . S
C588 H579 0.929 . S
C588 C580 1.378 . S
C588 C583 1.350 . S
C589 H576 0.929 . S
C589 C581 1.433 . S
C589 N591 1.384 . S
N590 C586 1.427 . S
N590 C587 1.384 . S
N591 C583 1.427 1_554 S
N591 C589 1.384 . S
C167 C7 1.385 . S
C171 C93 1.376 . S
C185 C37 1.241 . S
C189 C101 1.223 . S
C203 C54 1.348 . S
C207 C110 1.313 . S
C225 C120 1.378 . S
C221 C87 1.376 . S
C243 C129 1.335 . S
C239 C30 1.359 . S
C257 C51 1.388 . S
C261 C138 1.388 . S
C275 C84 1.387 . S
C279 C146 1.341 . S
C293 C10 1.220 . S
C297 C156 1.189 . S
C311 C59 1.401 . S
C315 C155 1.389 . S
C333 C128 1.181 . S
C329 C74 1.213 . S
C351 C137 1.352 . S
C347 C18 1.385 . S
C365 C32 1.366 . S
C369 C147 1.371 . S
C387 C102 1.390 . S
C383 C73 1.387 . S
C401 C15 1.366 . S
C405 C111 1.392 . S
C423 C119 1.369 . S
C419 C43 1.390 . S
C441 C92 1.203 . S
C437 C62 1.207 . S
C459 C149 1.385 . S
C455 C21 1.413 . S
C477 C158 1.283 . S
C473 C29 1.287 . S
C491 C52 1.259 . S
C495 C131 1.243 . S
C513 C140 1.373 . S
C509 C81 1.404 . S
C531 C113 1.366 . S
C527 C40 1.387 . S
C545 C65 1.398 . S
C549 C122 1.365 . S
C567 C95 1.253 . S
C563 C76 1.267 . S
C585 C104 1.281 . S
C581 C8 1.296 . S
