# Generated by pormake.
# Topology tsx, (6,3)-cn, num edge types: 1
# Building blocks:
#     Node 0, Type 0, BuildingBlock: VOLQOD_clean_sbu_1, # of connection points: 6
#     Node 1, Type 0, BuildingBlock: VOLQOD_clean_sbu_1, # of connection points: 6
#     Node 2, Type 1, BuildingBlock: MIDCAF_clean_linker_0, # of connection points: 3
#     Node 3, Type 1, BuildingBlock: MIDCAF_clean_linker_0, # of connection points: 3
#     Node 4, Type 1, BuildingBlock: MIDCAF_clean_linker_0, # of connection points: 3
#     Node 5, Type 1, BuildingBlock: MIDCAF_clean_linker_0, # of connection points: 3
#     Edge 6, Type (0, 1), BuildingBlock: MIFKUJ_clean_linker_0, # of connection points: 2
#     Edge 7, Type (0, 1), BuildingBlock: MIFKUJ_clean_linker_0, # of connection points: 2
#     Edge 8, Type (0, 1), BuildingBlock: MIFKUJ_clean_linker_0, # of connection points: 2
#     Edge 9, Type (0, 1), BuildingBlock: MIFKUJ_clean_linker_0, # of connection points: 2
#     Edge 10, Type (0, 1), BuildingBlock: MIFKUJ_clean_linker_0, # of connection points: 2
#     Edge 11, Type (0, 1), BuildingBlock: MIFKUJ_clean_linker_0, # of connection points: 2
#     Edge 12, Type (0, 1), BuildingBlock: MIFKUJ_clean_linker_0, # of connection points: 2
#     Edge 13, Type (0, 1), BuildingBlock: MIFKUJ_clean_linker_0, # of connection points: 2
#     Edge 14, Type (0, 1), BuildingBlock: MIFKUJ_clean_linker_0, # of connection points: 2
#     Edge 15, Type (0, 1), BuildingBlock: MIFKUJ_clean_linker_0, # of connection points: 2
#     Edge 16, Type (0, 1), BuildingBlock: MIFKUJ_clean_linker_0, # of connection points: 2
#     Edge 17, Type (0, 1), BuildingBlock: MIFKUJ_clean_linker_0, # of connection points: 2
# Relax obj value: 0.076
# Max RMSD: 0.108
# Mean RMSD: 0.083
data_MOF--net-tsx--node1-VOLQOD_clean_sbu_1--node2-MIDCAF_clean_linker_0--edge1-MIFKUJ_clean_linker_0
_symmetry_space_group_name_H-M    P1
_symmetry_Int_Tables_number       1
_symmetry_cell_setting            triclinic
loop_
_symmetry_equiv_pos_as_xyz
'x, y, z'
_cell_length_a     30.72168
_cell_length_b     31.8769
_cell_length_c     60.804825
_cell_angle_alpha  90.352046
_cell_angle_beta   89.962106
_cell_angle_gamma 89.887308
loop_
_atom_site_label
_atom_site_type_symbol
_atom_site_fract_x
_atom_site_fract_y
_atom_site_fract_z
_atom_type_partial_charge
O0 O 0.03591 0.00882 0.06101 0.0
Zn1 Zn 0.05221 0.00893 0.02894 0.0
O2 O 0.00048 0.00835 0.01037 0.0
Zn3 Zn 0.00164 0.95752 0.99234 0.0
Zn4 Zn 0.94807 0.00889 0.02866 0.0
Zn5 Zn 0.00026 0.05783 0.9915 0.0
O6 O 2e-05 0.97147 0.96017 0.0
O7 O 0.00323 0.04104 0.95955 0.0
O8 O 0.09156 0.95981 0.023 0.0
O9 O 0.05569 0.92367 0.99755 0.0
O10 O 0.95137 0.92015 -0.00078 0.0
O11 O 0.9129 0.95654 0.02376 0.0
O12 O 0.90899 0.05761 0.02152 0.0
O13 O 0.08792 0.0599 0.02305 0.0
O14 O 0.94539 0.09125 0.99553 0.0
O15 O 0.0509 0.09589 0.99802 0.0
C16 C -0.00032 0.01052 0.07119 0.0
C17 C 0.00185 0.00579 0.9496 0.0
C18 C 0.91854 0.92406 0.01181 0.0
C19 C 0.08846 0.92845 0.01008 0.0
C20 C 0.91219 0.0876 0.0079 0.0
C21 C 0.08354 0.09166 0.01069 0.0
O22 O 0.96365 0.01156 0.06084 0.0
O23 O 0.53562 0.5086 0.56028 0.0
Zn24 Zn 0.55235 0.50468 0.52831 0.0
O25 O 0.50097 0.50416 0.5094 0.0
Zn26 Zn 0.50192 0.45327 0.49149 0.0
Zn27 Zn 0.44843 0.50499 0.52752 0.0
Zn28 Zn 0.5013 0.5533 0.49027 0.0
O29 O 0.50356 0.46668 0.45929 0.0
O30 O 0.50301 0.53627 0.45829 0.0
O31 O 0.58907 0.45283 0.52438 0.0
O32 O 0.55402 0.41798 0.4982 0.0
O33 O 0.44982 0.41739 0.49733 0.0
O34 O 0.41093 0.45482 0.52125 0.0
O35 O 0.41232 0.55644 0.52191 0.0
O36 O 0.59026 0.55356 0.5212 0.0
O37 O 0.44795 0.58858 0.4951 0.0
O38 O 0.55344 0.58988 0.49622 0.0
C39 C 0.4992 0.50681 0.57023 0.0
C40 C 0.5039 0.50081 0.44853 0.0
C41 C 0.41614 0.42239 0.50923 0.0
C42 C 0.58556 0.42124 0.51163 0.0
C43 C 0.4159 0.58647 0.50833 0.0
C44 C 0.58649 0.585 0.50856 0.0
O45 O 0.46345 0.50418 0.55973 0.0
C46 C 0.88825 0.11288 0.4254 0.0
C47 C 0.89149 0.11577 0.44841 0.0
C48 C 0.92156 0.09025 0.45942 0.0
C49 C 0.94738 0.06181 0.44769 0.0
H50 H 0.02093 0.95772 0.45668 0.0
H51 H 0.06415 0.90692 0.47689 0.0
H52 H 0.11874 0.86087 0.41583 0.0
H53 H 0.07489 0.91099 0.39548 0.0
H54 H 0.03648 0.94429 0.35058 0.0
H55 H 0.03694 0.94508 0.31055 0.0
H56 H 0.95674 0.05655 0.31124 0.0
H57 H 0.95538 0.0554 0.3512 0.0
H58 H 0.91072 0.0831 0.39593 0.0
H59 H 0.86569 0.13262 0.41647 0.0
H60 H 0.9245 0.09168 0.47717 0.0
H61 H 0.96995 0.04229 0.45673 0.0
N62 N 0.99432 -0.00132 0.42323 0.0
N63 N 0.01896 0.9704 0.38981 0.0
N64 N 0.97111 0.02779 0.38997 0.0
C65 C 0.01859 0.96991 0.41215 0.0
C66 C 0.9953 -0.00072 0.37858 0.0
C67 C 0.97051 0.0277 0.4123 0.0
C68 C 0.04445 0.93856 0.42441 0.0
C69 C 0.04203 0.93673 0.4475 0.0
C70 C 0.06694 0.90772 0.45914 0.0
C71 C 0.09485 0.8799 0.44797 0.0
C72 C 0.09704 0.88148 0.42489 0.0
C73 C 0.07208 0.91043 0.41324 0.0
C74 C -0.00415 -0.00025 0.35419 0.0
C75 C 0.01889 0.969 0.34224 0.0
C76 C 0.01937 0.96954 0.31926 0.0
C77 C -0.00313 0.00087 0.3077 0.0
C78 C 0.97389 0.03163 0.31963 0.0
C79 C 0.97333 0.03107 0.34259 0.0
C80 C 0.94387 0.05855 0.42466 0.0
C81 C 0.91425 0.08467 0.41364 0.0
C82 C 0.89322 0.8975 0.59457 0.0
C83 C 0.9026 0.88446 0.57299 0.0
C84 C 0.94191 0.89657 0.5632 0.0
C85 C 0.9714 0.9215 0.5748 0.0
H86 H 0.04584 0.03244 0.56618 0.0
H87 H 0.09281 0.08125 0.54662 0.0
H88 H 0.17476 0.0925 0.60397 0.0
H89 H 0.12761 0.04394 0.6238 0.0
H90 H 0.07786 0.0267 0.67029 0.0
H91 H 0.07572 0.0292 0.71028 0.0
H92 H 0.96283 0.94862 0.70999 0.0
H93 H 0.9653 0.94533 0.67004 0.0
H94 H 0.91512 0.9312 0.62301 0.0
H95 H 0.86321 0.88812 0.6025 0.0
H96 H 0.94973 0.88683 0.54655 0.0
H97 H 0.00154 0.93034 0.56683 0.0
N98 N 0.02347 0.98334 0.59784 0.0
N99 N 0.05216 0.00783 0.63121 0.0
N100 N 0.99354 0.96082 0.63118 0.0
C101 C 0.0526 0.00742 0.60887 0.0
C102 C 0.02269 0.98459 0.6425 0.0
C103 C 0.99396 0.95991 0.60885 0.0
C104 C 0.08289 0.03453 0.5966 0.0
C105 C 0.07409 0.04494 0.5746 0.0
C106 C 0.1008 0.07295 0.5634 0.0
C107 C 0.13717 0.0905 0.57385 0.0
C108 C 0.14696 0.07906 0.59555 0.0
C109 C 0.11985 0.05153 0.60691 0.0
C110 C 0.02175 0.98581 0.66686 0.0
C111 C 0.05258 0.00943 0.6787 0.0
C112 C 0.05124 0.01108 0.70165 0.0
C113 C 0.01905 0.98919 0.7133 0.0
C114 C 0.98837 0.96542 0.7015 0.0
C115 C 0.9897 0.96373 0.67856 0.0
C116 C 0.96241 0.93406 0.59654 0.0
C117 C 0.92304 0.9218 0.60633 0.0
C118 C 0.41609 0.62977 0.92485 0.0
C119 C 0.39934 0.62253 0.94597 0.0
C120 C 0.40558 0.58322 0.95575 0.0
C121 C 0.42779 0.55147 0.94448 0.0
H122 H 0.51038 0.45048 0.95506 0.0
H123 H 0.54962 0.39592 0.97475 0.0
H124 H 0.57521 0.33157 0.91338 0.0
H125 H 0.53573 0.38578 0.89358 0.0
H126 H 0.49734 0.42713 0.84854 0.0
H127 H 0.50024 0.42945 0.8084 0.0
H128 H 0.48449 0.56398 0.81057 0.0
H129 H 0.48112 0.56188 0.85069 0.0
H130 H 0.44967 0.60406 0.89701 0.0
H131 H 0.41132 0.65979 0.91693 0.0
H132 H 0.39303 0.57702 0.97206 0.0
H133 H 0.43166 0.52132 0.95237 0.0
N134 N 0.48124 0.49024 0.92162 0.0
N135 N 0.50248 0.45948 0.88819 0.0
N136 N 0.46785 0.52512 0.88848 0.0
C137 C 0.50024 0.45802 0.9105 0.0
C138 C 0.48638 0.49294 0.87708 0.0
C139 C 0.46493 0.52382 0.91075 0.0
C140 C 0.52026 0.42281 0.92266 0.0
C141 C 0.52385 0.42447 0.94573 0.0
C142 C 0.54643 0.3933 0.95705 0.0
C143 C 0.56557 0.35965 0.94559 0.0
C144 C 0.56038 0.35695 0.92267 0.0
C145 C 0.53804 0.38824 0.91131 0.0
C146 C 0.48892 0.49432 0.8528 0.0
C147 C 0.4946 0.45724 0.84048 0.0
C148 C 0.49604 0.45848 0.81753 0.0
C149 C 0.49256 0.49688 0.80647 0.0
C150 C 0.4875 0.53401 0.81875 0.0
C151 C 0.48533 0.53273 0.84168 0.0
C152 C 0.44352 0.55822 0.92307 0.0
C153 C 0.43771 0.5978 0.91342 0.0
C154 C 0.39715 0.39862 0.09411 0.0
C155 C 0.40402 0.38857 0.07187 0.0
C156 C 0.44245 0.40157 0.06152 0.0
C157 C 0.47354 0.42439 0.07323 0.0
H158 H 0.55598 0.5258 0.06473 0.0
H159 H 0.60353 0.57367 0.045 0.0
H160 H 0.68331 0.58792 0.10295 0.0
H161 H 0.63563 0.54014 0.12296 0.0
H162 H 0.58964 0.51791 0.16932 0.0
H163 H 0.58743 0.52088 0.20935 0.0
H164 H 0.46861 0.44872 0.20906 0.0
H165 H 0.47028 0.44606 0.16907 0.0
H166 H 0.42244 0.42808 0.1231 0.0
H167 H 0.36792 0.38842 0.10249 0.0
H168 H 0.44837 0.39416 0.04436 0.0
H169 H 0.50291 0.43396 0.06479 0.0
N170 N 0.53045 0.48049 0.09689 0.0
N171 N 0.56092 0.50311 0.13021 0.0
N172 N 0.50025 0.45853 0.13025 0.0
C173 C 0.56088 0.50311 0.10786 0.0
C174 C 0.53068 0.48085 0.14153 0.0
C175 C 0.50014 0.45807 0.10792 0.0
C176 C 0.59185 0.52938 0.0955 0.0
C177 C 0.58389 0.53869 0.07327 0.0
C178 C 0.61096 0.56617 0.06195 0.0
C179 C 0.64686 0.58436 0.07251 0.0
C180 C 0.65592 0.57393 0.09444 0.0
C181 C 0.62848 0.54685 0.1059 0.0
C182 C 0.53009 0.48182 0.1659 0.0
C183 C 0.56302 0.50262 0.17774 0.0
C184 C 0.56192 0.50417 0.20071 0.0
C185 C 0.52779 0.48515 0.21233 0.0
C186 C 0.49502 0.46416 0.20053 0.0
C187 C 0.49619 0.46243 0.17759 0.0
C188 C 0.46702 0.43409 0.09559 0.0
C189 C 0.42851 0.42095 0.10593 0.0
H190 H 0.0728 0.17642 0.00847 0.0
H191 H 0.129 0.22996 0.01351 0.0
H192 H 0.22684 0.13277 0.01782 0.0
H193 H 0.17033 0.07946 0.0143 0.0
H194 H 0.23884 0.18205 0.04901 0.0
H195 H 0.2155 0.20435 0.97234 0.0
H196 H 0.17364 0.21765 0.93851 0.0
H197 H 0.13041 0.33596 0.96475 0.0
H198 H 0.17156 0.32312 -0.00111 0.0
H199 H 0.4196 0.31805 0.04779 0.0
H200 H 0.36561 0.2709 0.03134 0.0
H201 H 0.26251 0.35395 0.05238 0.0
H202 H 0.3164 0.4011 0.06911 0.0
H203 H 0.25566 0.31347 0.00654 0.0
H204 H 0.27758 0.28415 0.08467 0.0
H205 H 0.32422 0.26945 0.11672 0.0
H206 H 0.37578 0.16035 0.08404 0.0
H207 H 0.32992 0.17486 0.05163 0.0
C208 C 0.10643 0.16672 0.01026 0.0
C209 C 0.11742 0.12404 0.0112 0.0
C210 C 0.13858 0.19727 0.01296 0.0
C211 C 0.18234 0.18549 0.01586 0.0
C212 C 0.19334 0.1427 0.01576 0.0
C213 C 0.16112 0.11227 0.01373 0.0
C214 C 0.21615 0.21725 0.02099 0.0
C215 C 0.24283 0.21031 0.03937 0.0
C216 C 0.22108 0.25471 0.00878 0.0
C217 C 0.19632 0.26258 0.98826 0.0
C218 C 0.19681 0.23306 0.97097 0.0
C219 C 0.17325 0.24055 0.95172 0.0
C220 C 0.1493 0.27758 0.9495 0.0
C221 C 0.14894 0.30726 0.96651 0.0
C222 C 0.17242 0.29992 0.9858 0.0
C223 C 0.38548 0.32663 0.04849 0.0
C224 C 0.37194 0.3629 0.05981 0.0
C225 C 0.35481 0.29979 0.0391 0.0
C226 C 0.31032 0.30916 0.04071 0.0
C227 C 0.29682 0.34652 0.05091 0.0
C228 C 0.32746 0.37309 0.0606 0.0
C229 C 0.27785 0.27756 0.0342 0.0
C230 C 0.25151 0.28477 0.01581 0.0
C231 C 0.27366 0.23988 0.04605 0.0
C232 C 0.30071 0.23084 0.06566 0.0
C233 C 0.29915 0.25724 0.08425 0.0
C234 C 0.32538 0.24891 0.10249 0.0
C235 C 0.35304 0.21405 0.10239 0.0
C236 C 0.3544 0.18737 0.08408 0.0
C237 C 0.32829 0.19563 0.06578 0.0
H238 H 0.37333 0.20764 0.11653 0.0
H239 H 0.13108 0.28332 0.93459 0.0
H240 H 0.08358 0.84607 0.99833 0.0
H241 H 0.14404 0.79664 0.99356 0.0
H242 H 0.2349 0.89272 0.01317 0.0
H243 H 0.17443 0.94214 0.01864 0.0
H244 H 0.24614 0.84608 0.96863 0.0
H245 H 0.23217 0.82759 0.04679 0.0
H246 H 0.19165 0.81468 0.08109 0.0
H247 H 0.15059 0.69472 0.0563 0.0
H248 H 0.19031 0.70721 0.02168 0.0
H249 H 0.4211 0.7044 0.95328 0.0
H250 H 0.3755 0.75927 0.96988 0.0
H251 H 0.27275 0.66897 0.97957 0.0
H252 H 0.31891 0.61395 0.96384 0.0
H253 H 0.2744 0.71885 0.01306 0.0
H254 H 0.27614 0.73784 0.93459 0.0
H255 H 0.30959 0.74859 0.89818 0.0
H256 H 0.36553 0.86447 0.92071 0.0
H257 H 0.33285 0.8541 0.95737 0.0
C258 C 0.11638 0.8565 0.00189 0.0
C259 C 0.12441 0.89788 0.00881 0.0
C260 C 0.15076 0.82826 -0.00076 0.0
C261 C 0.19366 0.84122 0.00309 0.0
C262 C 0.20185 0.8823 0.01026 0.0
C263 C 0.16736 0.91034 0.01341 0.0
C264 C 0.22988 0.81239 0.99804 0.0
C265 C 0.2532 0.81871 0.97856 0.0
C266 C 0.23768 0.77623 0.01073 0.0
C267 C 0.21391 0.76852 0.03156 0.0
C268 C 0.21415 0.79863 0.04856 0.0
C269 C 0.19141 0.79135 0.06808 0.0
C270 C 0.16847 0.75395 0.07085 0.0
C271 C 0.16833 0.7237 0.05412 0.0
C272 C 0.191 0.73084 0.03456 0.0
C273 C 0.3889 0.69638 0.95916 0.0
C274 C 0.3733 0.65516 0.95724 0.0
C275 C 0.36286 0.72767 0.96858 0.0
C276 C 0.32039 0.71841 0.97563 0.0
C277 C 0.3054 0.67688 0.9743 0.0
C278 C 0.33171 0.6455 0.96528 0.0
C279 C 0.2906 0.75207 0.98336 0.0
C280 C 0.2682 0.74659 0.00329 0.0
C281 C 0.28286 0.78864 0.9708 0.0
C282 C 0.30253 0.79493 0.94878 0.0
C283 C 0.29586 0.76544 0.93182 0.0
C284 C 0.31463 0.77149 0.91114 0.0
C285 C 0.33979 0.80712 0.90715 0.0
C286 C 0.34613 0.83683 0.92383 0.0
C287 C 0.32749 0.8309 0.94457 0.0
H288 H 0.35428 0.81176 0.89112 0.0
H289 H 0.15089 0.74836 0.08598 0.0
H290 H 0.93596 0.84088 0.00809 0.0
H291 H 0.88575 0.78277 0.01363 0.0
H292 H 0.78022 0.87079 0.02333 0.0
H293 H 0.83128 0.92907 0.01929 0.0
H294 H 0.77434 0.8172 0.05259 0.0
H295 H 0.79251 0.80406 0.97531 0.0
H296 H 0.83153 0.79898 0.93994 0.0
H297 H 0.89218 0.68439 0.96065 0.0
H298 H 0.85398 0.68905 0.99628 0.0
H299 H 0.61712 0.65354 0.05149 0.0
H300 H 0.6604 0.71057 0.03587 0.0
H301 H 0.77843 0.64454 0.05249 0.0
H302 H 0.73523 0.58755 0.06848 0.0
H303 H 0.7718 0.68739 0.00712 0.0
H304 H 0.75502 0.70931 0.08663 0.0
H305 H 0.71011 0.7156 0.12013 0.0
H306 H 0.63873 0.81728 0.09127 0.0
H307 H 0.68283 0.8111 0.05745 0.0
C308 C 0.90193 0.84773 0.01119 0.0
C309 C 0.88736 0.8893 0.0133 0.0
C310 C 0.87313 0.8145 0.01416 0.0
C311 C 0.8289 0.82225 0.0185 0.0
C312 C 0.81416 0.86395 0.02001 0.0
C313 C 0.84325 0.8972 0.01768 0.0
C314 C 0.7989 0.78698 0.02318 0.0
C315 C 0.7733 0.78929 0.04231 0.0
C316 C 0.79763 0.75014 0.01 0.0
C317 C 0.82059 0.74709 0.98855 0.0
C318 C 0.81439 0.77792 0.97239 0.0
C319 C 0.83633 0.77509 0.95228 0.0
C320 C 0.86437 0.74143 0.94807 0.0
C321 C 0.87046 0.71046 0.96394 0.0
C322 C 0.84862 0.71314 0.98408 0.0
C323 C 0.65228 0.6509 0.05144 0.0
C324 C 0.67302 0.61639 0.0612 0.0
C325 C 0.67684 0.68338 0.04255 0.0
C326 C 0.72239 0.68148 0.04308 0.0
C327 C 0.74322 0.64621 0.05189 0.0
C328 C 0.71865 0.61399 0.06111 0.0
C329 C 0.74822 0.71807 0.03638 0.0
C330 C 0.77283 0.7158 0.01703 0.0
C331 C 0.74787 0.75536 0.049 0.0
C332 C 0.72186 0.75944 0.06945 0.0
C333 C 0.72949 0.73275 0.08737 0.0
C334 C 0.70424 0.73634 0.10642 0.0
C335 C 0.6715 0.76674 0.10781 0.0
C336 C 0.66405 0.79371 0.09016 0.0
C337 C 0.68917 0.79019 0.07106 0.0
H338 H 0.65198 0.76947 0.12257 0.0
H339 H 0.88134 0.73931 0.9325 0.0
H340 H 0.90995 0.15847 0.98292 0.0
H341 H 0.84802 0.20474 0.97655 0.0
H342 H 0.76946 0.13045 0.02034 0.0
H343 H 0.83156 0.08426 0.02714 0.0
H344 H 0.77344 0.18532 0.95784 0.0
H345 H 0.69051 0.19443 0.04328 0.0
H346 H 0.71066 0.1926 0.08254 0.0
H347 H 0.83829 0.2383 0.06689 0.0
H348 H 0.81872 0.24094 0.02759 0.0
H349 H 0.56736 0.2742 0.94113 0.0
H350 H 0.62153 0.22588 0.95627 0.0
H351 H 0.68276 0.32886 0.99062 0.0
H352 H 0.62852 0.37707 0.97578 0.0
H353 H 0.68611 0.25897 0.01494 0.0
H354 H 0.71849 0.29867 0.94029 0.0
H355 H 0.70267 0.30658 0.90077 0.0
H356 H 0.68562 0.17337 0.89443 0.0
H357 H 0.7007 0.16477 0.93402 0.0
C358 C 0.87967 0.15214 0.9914 0.0
C359 C 0.87568 0.11753 0.00547 0.0
C360 C 0.84427 0.17859 0.98769 0.0
C361 C 0.80417 0.17105 0.99797 0.0
C362 C 0.80026 0.13712 0.01243 0.0
C363 C 0.83577 0.11069 0.01624 0.0
C364 C 0.76602 0.19748 0.99255 0.0
C365 C 0.75432 0.20131 0.97036 0.0
C366 C 0.74124 0.21855 0.00886 0.0
C367 C 0.75327 0.2174 0.03247 0.0
C368 C 0.72283 0.20419 0.04823 0.0
C369 C 0.73415 0.203 0.07049 0.0
C370 C 0.77578 0.21517 0.07719 0.0
C371 C 0.80612 0.2287 0.06166 0.0
C372 C 0.79495 0.22998 0.03939 0.0
C373 C 0.59204 0.28634 0.95216 0.0
C374 C 0.59403 0.3294 0.95712 0.0
C375 C 0.62286 0.25877 0.96082 0.0
C376 C 0.65655 0.27396 0.97427 0.0
C377 C 0.65701 0.31649 0.9803 0.0
C378 C 0.62599 0.344 0.9718 0.0
C379 C 0.69365 0.24664 0.98027 0.0
C380 C 0.70507 0.24259 0.00251 0.0
C381 C 0.71892 0.22607 0.96398 0.0
C382 C 0.71027 0.23113 0.94014 0.0
C383 C 0.71108 0.27111 0.93049 0.0
C384 C 0.70228 0.27571 0.90808 0.0
C385 C 0.69304 0.24051 0.89511 0.0
C386 C 0.69271 0.20062 0.90451 0.0
C387 C 0.70139 0.19586 0.92693 0.0
H388 H 0.68623 0.24413 0.87776 0.0
H389 H 0.78449 0.21422 0.09443 0.0
H390 H 0.67306 0.572 0.51345 0.0
H391 H 0.72955 0.625 0.51835 0.0
H392 H 0.63348 0.7229 0.51077 0.0
H393 H 0.57721 0.66969 0.50455 0.0
H394 H 0.70682 0.74818 0.49399 0.0
H395 H 0.66528 0.68679 0.56232 0.0
H396 H 0.6507 0.62955 0.5884 0.0
H397 H 0.78432 0.59044 0.58444 0.0
H398 H 0.79956 0.64712 0.55808 0.0
H399 H 0.81585 0.89666 0.56631 0.0
H400 H 0.76432 0.84755 0.54918 0.0
H401 H 0.86925 0.76055 0.53661 0.0
H402 H 0.92097 0.80981 0.55333 0.0
H403 H 0.79281 0.73107 0.56244 0.0
H404 H 0.83215 0.80028 0.49486 0.0
H405 H 0.84229 0.86188 0.47109 0.0
H406 H 0.70655 0.8922 0.47719 0.0
H407 H 0.69573 0.8311 0.50129 0.0
C408 C 0.66421 0.60486 0.5125 0.0
C409 C 0.62087 0.61695 0.50894 0.0
C410 C 0.6964 0.63509 0.51537 0.0
C411 C 0.68549 0.67788 0.51559 0.0
C412 C 0.64257 0.69005 0.51081 0.0
C413 C 0.61048 0.65972 0.50732 0.0
C414 C 0.71814 0.70951 0.52241 0.0
C415 C 0.72534 0.74461 0.50905 0.0
C416 C 0.7424 0.70486 0.54207 0.0
C417 C 0.73345 0.67094 0.55807 0.0
C418 C 0.69148 0.66582 0.56691 0.0
C419 C 0.68311 0.63349 0.58175 0.0
C420 C 0.71653 0.60631 0.58803 0.0
C421 C 0.75845 0.61148 0.57953 0.0
C422 C 0.76698 0.64372 0.56466 0.0
C423 C 0.82785 0.86726 0.55961 0.0
C424 C 0.87216 0.85678 0.56111 0.0
C425 C 0.79858 0.83948 0.54976 0.0
C426 C 0.81325 0.80072 0.54162 0.0
C427 C 0.85759 0.79054 0.54272 0.0
C428 C 0.88697 0.81861 0.55219 0.0
C429 C 0.78172 0.76919 0.53391 0.0
C430 C 0.7745 0.73431 0.54728 0.0
C431 C 0.7568 0.77471 0.51463 0.0
C432 C 0.76323 0.81134 0.50007 0.0
C433 C 0.80454 0.82031 0.49132 0.0
C434 C 0.8104 0.85508 0.47774 0.0
C435 C 0.77511 0.881 0.47268 0.0
C436 C 0.73387 0.87212 0.48114 0.0
C437 C 0.72785 0.8374 0.49474 0.0
H438 H 0.77971 0.90791 0.46217 0.0
H439 H 0.70998 0.5813 0.59952 0.0
H440 H 0.5831 0.3456 0.49058 0.0
H441 H 0.6398 0.29232 0.48907 0.0
H442 H 0.72073 0.36746 0.53176 0.0
H443 H 0.66395 0.42155 0.53326 0.0
H444 H 0.76424 0.34053 0.49551 0.0
H445 H 0.67947 0.27766 0.55116 0.0
H446 H 0.61297 0.25305 0.5697 0.0
H447 H 0.58929 0.16607 0.51688 0.0
H448 H 0.6553 0.19057 0.49783 0.0
H449 H 0.91433 0.16963 0.48165 0.0
H450 H 0.86702 0.21969 0.50109 0.0
H451 H 0.75758 0.17766 0.46242 0.0
H452 H 0.80437 0.12732 0.44325 0.0
H453 H 0.73684 0.18867 0.50632 0.0
H454 H 0.81223 0.26377 0.44796 0.0
H455 H 0.87765 0.28948 0.4288 0.0
H456 H 0.9183 0.35404 0.48746 0.0
H457 H 0.85333 0.32821 0.50705 0.0
C458 C 0.61275 0.35078 0.49983 0.0
C459 C 0.61906 0.38792 0.51197 0.0
C460 C 0.64502 0.32009 0.49909 0.0
C461 C 0.68421 0.32572 0.51054 0.0
C462 C 0.69054 0.36246 0.52293 0.0
C463 C 0.65808 0.39325 0.52377 0.0
C464 C 0.71944 0.29441 0.50793 0.0
C465 C 0.75877 0.30741 0.49846 0.0
C466 C 0.71203 0.25123 0.51159 0.0
C467 C 0.67233 0.23612 0.52301 0.0
C468 C 0.65995 0.25347 0.54341 0.0
C469 C 0.62235 0.23951 0.55403 0.0
C470 C 0.5969 0.20805 0.54447 0.0
C471 C 0.60905 0.19043 0.52428 0.0
C472 C 0.64662 0.20429 0.51358 0.0
C473 C 0.88006 0.1708 0.47752 0.0
C474 C 0.86301 0.14492 0.46083 0.0
C475 C 0.85319 0.19943 0.48856 0.0
C476 C 0.80894 0.20243 0.48308 0.0
C477 C 0.79166 0.17573 0.4669 0.0
C478 C 0.81847 0.14734 0.45581 0.0
C479 C 0.78066 0.23478 0.49317 0.0
C480 C 0.74273 0.22191 0.50402 0.0
C481 C 0.78934 0.27808 0.49082 0.0
C482 C 0.82829 0.29361 0.47904 0.0
C483 C 0.83533 0.28314 0.45682 0.0
C484 C 0.87228 0.29779 0.44587 0.0
C485 C 0.9022 0.32325 0.45693 0.0
C486 C 0.89516 0.33422 0.47893 0.0
C487 C 0.85829 0.31959 0.48996 0.0
H488 H 0.93078 0.33458 0.44842 0.0
H489 H 0.56779 0.19729 0.55271 0.0
H490 H 0.32847 0.4298 0.51457 0.0
H491 H 0.27611 0.373 0.51984 0.0
H492 H 0.37993 0.28212 0.51349 0.0
H493 H 0.43159 0.33869 0.50668 0.0
H494 H 0.3127 0.2501 0.49653 0.0
H495 H 0.33964 0.3208 0.56514 0.0
H496 H 0.34377 0.38121 0.5906 0.0
H497 H 0.20689 0.40368 0.5824 0.0
H498 H 0.20208 0.3437 0.55665 0.0
H499 H 0.22534 0.09233 0.56877 0.0
H500 H 0.2688 0.14852 0.55222 0.0
H501 H 0.15136 0.21747 0.53791 0.0
H502 H 0.10777 0.16116 0.55407 0.0
H503 H 0.22036 0.26089 0.56332 0.0
H504 H 0.19678 0.18048 0.49681 0.0
H505 H 0.19805 0.1159 0.47429 0.0
H506 H 0.33649 0.10663 0.48272 0.0
H507 H 0.33596 0.17084 0.50558 0.0
C508 C 0.33982 0.39761 0.51399 0.0
C509 C 0.38395 0.38846 0.51041 0.0
C510 C 0.31002 0.36521 0.51713 0.0
C511 C 0.32426 0.32329 0.51769 0.0
C512 C 0.36812 0.31416 0.5132 0.0
C513 C 0.39765 0.34647 0.50937 0.0
C514 C 0.2942 0.28914 0.52413 0.0
C515 C 0.29278 0.25243 0.51123 0.0
C516 C 0.26785 0.29214 0.54323 0.0
C517 C 0.27061 0.32807 0.55879 0.0
C518 C 0.31049 0.3388 0.56866 0.0
C519 C 0.31294 0.37293 0.58315 0.0
C520 C 0.27564 0.39634 0.58806 0.0
C521 C 0.23577 0.38557 0.57855 0.0
C522 C 0.23315 0.3515 0.56401 0.0
C523 C 0.20893 0.11932 0.56186 0.0
C524 C 0.16337 0.12261 0.56262 0.0
C525 C 0.23364 0.15115 0.55237 0.0
C526 C 0.21307 0.18682 0.54383 0.0
C527 C 0.1676 0.18995 0.54434 0.0
C528 C 0.14285 0.15784 0.55348 0.0
C529 C 0.23928 0.22221 0.53581 0.0
C530 C 0.24002 0.25898 0.5485 0.0
C531 C 0.26587 0.21873 0.51695 0.0
C532 C 0.26626 0.18028 0.50307 0.0
C533 C 0.22744 0.16448 0.49403 0.0
C534 C 0.22804 0.12798 0.48116 0.0
C535 C 0.26731 0.10712 0.47712 0.0
C536 C 0.30609 0.12279 0.48588 0.0
C537 C 0.30566 0.15927 0.49877 0.0
H538 H 0.26771 0.07887 0.46716 0.0
H539 H 0.2776 0.42276 0.59928 0.0
H540 H 0.40589 0.64779 0.47764 0.0
H541 H 0.34834 0.70016 0.47552 0.0
H542 H 0.29139 0.6525 0.53524 0.0
H543 H 0.34847 0.599 0.53718 0.0
H544 H 0.2305 0.66491 0.50627 0.0
H545 H 0.3445 0.74769 0.53502 0.0
H546 H 0.41876 0.77617 0.53838 0.0
H547 H 0.40809 0.83084 0.47425 0.0
H548 H 0.33399 0.80218 0.47035 0.0
H549 H 0.14023 0.89438 0.48597 0.0
H550 H 0.18916 0.84614 0.50502 0.0
H551 H 0.16233 0.75059 0.45633 0.0
H552 H 0.11213 0.79795 0.43777 0.0
H553 H 0.26184 0.8144 0.49061 0.0
H554 H 0.1716 0.65462 0.47706 0.0
H555 H 0.09633 0.62792 0.47754 0.0
H556 H 0.05714 0.73086 0.51894 0.0
H557 H 0.13226 0.75786 0.519 0.0
C558 C 0.38135 0.64854 0.49043 0.0
C559 C 0.38181 0.61922 0.50759 0.0
C560 C 0.34857 0.67871 0.48927 0.0
C561 C 0.31596 0.6807 0.50542 0.0
C562 C 0.31635 0.65161 0.52265 0.0
C563 C 0.349 0.6211 0.52373 0.0
C564 C 0.28044 0.71196 0.50352 0.0
C565 C 0.23726 0.69768 0.50305 0.0
C566 C 0.28916 0.755 0.50009 0.0
C567 C 0.33369 0.77259 0.50236 0.0
C568 C 0.35807 0.76557 0.52158 0.0
C569 C 0.40014 0.78178 0.52358 0.0
C570 C 0.41815 0.80526 0.50653 0.0
C571 C 0.39409 0.81265 0.48745 0.0
C572 C 0.35201 0.79649 0.48535 0.0
C573 C 0.14402 0.86277 0.47962 0.0
C574 C 0.12243 0.84998 0.46032 0.0
C575 C 0.17219 0.83536 0.49044 0.0
C576 C 0.17912 0.79467 0.48222 0.0
C577 C 0.15693 0.7816 0.46321 0.0
C578 C 0.12869 0.80889 0.45243 0.0
C579 C 0.21217 0.76689 0.49227 0.0
C580 C 0.25492 0.78183 0.49427 0.0
C581 C 0.20285 0.72476 0.49771 0.0
C582 C 0.1576 0.70841 0.49791 0.0
C583 C 0.147 0.67144 0.48638 0.0
C584 C 0.10433 0.65628 0.48653 0.0
C585 C 0.07196 0.67773 0.49822 0.0
C586 C 0.08221 0.71435 0.50983 0.0
C587 C 0.12483 0.72963 0.50975 0.0
H588 H 0.03894 0.66594 0.49831 0.0
H589 H 0.45073 0.81776 0.50812 0.0
H590 H 0.06855 -0.00264 0.09884 0.0
H591 H 0.06776 -0.00417 0.139 0.0
H592 H 0.93 0.0221 0.13894 0.0
H593 H 0.93036 0.02376 0.09873 0.0
H594 H 0.97545 0.0702 0.16931 0.0
H595 H 0.96294 0.9253 0.14824 0.0
H596 H 0.98405 0.86046 0.12862 0.0
H597 H 0.1078 0.86107 0.1614 0.0
H598 H 0.08765 0.9263 0.181 0.0
H599 H 0.92901 0.01743 0.27992 0.0
H600 H 0.93025 0.01983 0.23977 0.0
H601 H 0.06672 0.98774 0.24001 0.0
H602 H 0.06588 0.9857 0.28021 0.0
H603 H 0.02231 0.94278 0.20946 0.0
H604 H 0.03546 0.08709 0.23061 0.0
H605 H 0.01529 0.1523 0.25014 0.0
H606 H 0.89176 0.15348 0.21716 0.0
H607 H 0.91094 0.08789 0.19766 0.0
C608 C 0.03806 0.00294 0.10733 0.0
C609 C -0.00053 0.01055 0.09555 0.0
C610 C 0.03767 0.00188 0.13028 0.0
C611 C -0.00125 0.00848 0.14189 0.0
C612 C 0.96035 0.01686 0.13025 0.0
C613 C 0.96062 0.01765 0.10728 0.0
C614 C -0.00187 0.00648 0.16621 0.0
C615 C 0.98512 0.04219 0.17811 0.0
C616 C 0.01181 0.97023 0.17762 0.0
C617 C 0.02396 0.93093 0.16591 0.0
C618 C 0.9948 0.91181 0.15112 0.0
C619 C 0.00657 0.87495 0.14003 0.0
C620 C 0.04729 0.85672 0.14371 0.0
C621 C 0.07629 0.87526 0.15854 0.0
C622 C 0.0647 0.91216 0.16966 0.0
C623 C 0.9594 0.01127 0.27145 0.0
C624 C -0.00259 0.00158 0.28328 0.0
C625 C 0.96002 0.01255 0.24851 0.0
C626 C -0.00131 0.0044 0.23694 0.0
C627 C 0.03653 0.9941 0.24864 0.0
C628 C 0.03595 0.99282 0.2716 0.0
C629 C -0.00043 0.00651 0.2126 0.0
C630 C 0.01265 0.97083 0.20068 0.0
C631 C 0.98609 0.04285 0.20118 0.0
C632 C 0.97447 0.08234 0.21284 0.0
C633 C 0.00384 0.10106 0.22766 0.0
C634 C 0.99262 0.13812 0.2387 0.0
C635 C 0.95222 0.15696 0.23494 0.0
C636 C 0.92301 0.13882 0.22008 0.0
C637 C 0.93406 0.10171 0.20902 0.0
H638 H 0.9436 0.18567 0.2435 0.0
H639 H 0.05634 0.82818 0.13511 0.0
H640 H 0.01465 0.07127 0.9214 0.0
H641 H 0.01712 0.06882 0.88128 0.0
H642 H 0.99277 0.9356 0.88254 0.0
H643 H 0.99118 0.93754 0.92267 0.0
H644 H 0.05609 0.95308 0.85447 0.0
H645 H 0.91246 0.00638 0.8688 0.0
H646 H 0.85803 0.05431 0.8851 0.0
H647 H 0.91649 0.1584 0.8518 0.0
H648 H 0.97165 0.11117 0.83552 0.0
H649 H 0.0034 0.92511 0.74196 0.0
H650 H -0.00014 0.92883 0.78207 0.0
H651 H 0.02845 0.06119 0.77992 0.0
H652 H 0.03058 0.05803 0.73974 0.0
H653 H 0.96328 0.04478 0.80834 0.0
H654 H 0.10669 0.99093 0.79388 0.0
H655 H 0.16073 0.94265 0.77755 0.0
H656 H 0.10199 0.83904 0.81114 0.0
H657 H 0.0472 0.88664 0.82745 0.0
C658 C 0.00969 0.04144 0.91316 0.0
C659 C 0.00265 0.0046 0.92526 0.0
C660 C 0.01094 0.04014 0.89021 0.0
C661 C 0.00461 0.00211 0.87891 0.0
C662 C -0.00229 0.96529 0.89093 0.0
C663 C -0.00328 0.96649 0.91388 0.0
C664 C 0.006 0.00049 0.85456 0.0
C665 C 0.03536 0.97272 0.84438 0.0
C666 C 0.97969 0.02685 0.84141 0.0
C667 C 0.94644 0.05529 0.85111 0.0
C668 C 0.91391 0.03954 0.86508 0.0
C669 C 0.88289 0.06658 0.8743 0.0
C670 C 0.88387 0.10939 0.86954 0.0
C671 C 0.91581 0.12524 0.8555 0.0
C672 C 0.94693 0.09835 0.84626 0.0
C673 C 0.00857 0.95509 0.75001 0.0
C674 C 0.01738 0.99127 0.73767 0.0
C675 C 0.00694 0.95708 0.77294 0.0
C676 C 0.01441 -0.00481 0.78397 0.0
C677 C 0.02277 0.03144 0.77172 0.0
C678 C 0.02436 0.02949 0.74878 0.0
C679 C 0.01325 -0.00272 0.8083 0.0
C680 C 0.98398 0.02515 0.81846 0.0
C681 C 0.03956 0.97095 0.82144 0.0
C682 C 0.07259 0.9423 0.81172 0.0
C683 C 0.10509 0.95781 0.79765 0.0
C684 C 0.13589 0.93057 0.78842 0.0
C685 C 0.13473 0.88779 0.79326 0.0
C686 C 0.10282 0.87218 0.80739 0.0
C687 C 0.07191 0.89927 0.81664 0.0
H688 H 0.15861 0.86676 0.7861 0.0
H689 H 0.85983 0.13027 0.87669 0.0
H690 H 0.437 0.47415 0.5971 0.0
H691 H 0.43648 0.47315 0.63722 0.0
H692 H 0.5581 0.54083 0.63835 0.0
H693 H 0.55985 0.53987 0.59814 0.0
H694 H 0.56193 0.48408 0.66735 0.0
H695 H 0.45487 0.58783 0.6504 0.0
H696 H 0.38969 0.61722 0.6325 0.0
H697 H 0.31 0.5238 0.66319 0.0
H698 H 0.37481 0.4935 0.68107 0.0
H699 H 0.54262 0.54697 0.78055 0.0
H700 H 0.54419 0.54916 0.74022 0.0
H701 H 0.44629 0.4525 0.73744 0.0
H702 H 0.44496 0.44983 0.77775 0.0
H703 H 0.43083 0.52578 0.70994 0.0
H704 H 0.54223 0.4234 0.72681 0.0
H705 H 0.6089 0.39865 0.74523 0.0
H706 H 0.68225 0.49734 0.71503 0.0
H707 H 0.61582 0.52306 0.69668 0.0
C708 C 0.46354 0.48894 0.60592 0.0
C709 C 0.49838 0.50724 0.59451 0.0
C710 C 0.46311 0.48858 0.62887 0.0
C711 C 0.49681 0.50768 0.6409 0.0
C712 C 0.53168 0.52594 0.62948 0.0
C713 C 0.53262 0.52546 0.60651 0.0
C714 C 0.49621 0.50774 0.66535 0.0
C715 C 0.53343 0.49386 0.67661 0.0
C716 C 0.45887 0.5199 0.67755 0.0
C717 C 0.41977 0.53817 0.66692 0.0
C718 C 0.42349 0.57338 0.65322 0.0
C719 C 0.3866 0.59023 0.64309 0.0
C720 C 0.34575 0.57233 0.64666 0.0
C721 C 0.34168 0.53761 0.66043 0.0
C722 C 0.37847 0.52061 0.67058 0.0
C723 C 0.52144 0.52627 0.77129 0.0
C724 C 0.49373 0.49816 0.78217 0.0
C725 C 0.52247 0.52745 0.74833 0.0
C726 C 0.49543 0.50091 0.73595 0.0
C727 C 0.46738 0.47317 0.74677 0.0
C728 C 0.46683 0.47151 0.76972 0.0
C729 C 0.49635 0.50213 0.71167 0.0
C730 C 0.45924 0.51624 0.70054 0.0
C731 C 0.53399 0.49098 0.69961 0.0
C732 C 0.57396 0.47542 0.71056 0.0
C733 C 0.57249 0.44006 0.72426 0.0
C734 C 0.61025 0.42581 0.73465 0.0
C735 C 0.64976 0.44648 0.73135 0.0
C736 C 0.65161 0.48139 0.7176 0.0
C737 C 0.61392 0.4958 0.70719 0.0
H738 H 0.67897 0.43539 0.73941 0.0
H739 H 0.31723 0.58541 0.6388 0.0
H740 H 0.51524 0.43158 0.42237 0.0
H741 H 0.5209 0.42891 0.38236 0.0
H742 H 0.50224 0.56295 0.3795 0.0
H743 H 0.49749 0.5661 0.41959 0.0
H744 H 0.46606 0.44733 0.35076 0.0
H745 H 0.55989 0.60235 0.33667 0.0
H746 H 0.61268 0.64759 0.35604 0.0
H747 H 0.65874 0.5417 0.39269 0.0
H748 H 0.60666 0.49576 0.37333 0.0
H749 H 0.4573 0.50186 0.23835 0.0
H750 H 0.45439 0.50419 0.27851 0.0
H751 H 0.59161 0.47566 0.28147 0.0
H752 H 0.59477 0.47349 0.24126 0.0
H753 H 0.57158 0.53568 0.31023 0.0
H754 H 0.51587 0.40015 0.29134 0.0
H755 H 0.46829 0.34962 0.27214 0.0
H756 H 0.35581 0.40643 0.30198 0.0
H757 H 0.4027 0.4577 0.32112 0.0
C758 C 0.51233 0.46055 0.41326 0.0
C759 C 0.50612 0.49911 0.42421 0.0
C760 C 0.51547 0.45892 0.39037 0.0
C761 C 0.51246 0.49576 0.37796 0.0
C762 C 0.50544 0.53421 0.38878 0.0
C763 C 0.50256 0.53593 0.4117 0.0
C764 C 0.51661 0.49379 0.35368 0.0
C765 C 0.4891 0.46669 0.34191 0.0
C766 C 0.54722 0.51848 0.34214 0.0
C767 C 0.57905 0.54574 0.3537 0.0
C768 C 0.5814 0.58871 0.3488 0.0
C769 C 0.61118 0.61448 0.35979 0.0
C770 C 0.63894 0.59756 0.37564 0.0
C771 C 0.6371 0.5548 0.38047 0.0
C772 C 0.60742 0.5289 0.36951 0.0
C773 C 0.48678 0.49583 0.24757 0.0
C774 C 0.52621 0.48725 0.23668 0.0
C775 C 0.48509 0.49722 0.2705 0.0
C776 C 0.52268 0.4896 0.28298 0.0
C777 C 0.56224 0.48168 0.27215 0.0
C778 C 0.56401 0.4805 0.2492 0.0
C779 C 0.52065 0.48962 0.30733 0.0
C780 C 0.54849 0.5164 0.3191 0.0
C781 C 0.49107 0.46389 0.31891 0.0
C782 C 0.46278 0.433 0.3075 0.0
C783 C 0.48097 0.40206 0.29368 0.0
C784 C 0.45413 0.37326 0.28283 0.0
C785 C 0.40905 0.37488 0.2858 0.0
C786 C 0.39073 0.40525 0.29967 0.0
C787 C 0.41742 0.43416 0.31054 0.0
H788 H 0.38832 0.35255 0.27738 0.0
H789 H 0.66195 0.61756 0.38414 0.0
loop_
_geom_bond_atom_site_label_1
_geom_bond_atom_site_label_2
_geom_bond_distance
_geom_bond_site_symmetry_2
_ccdc_geom_bond_type
O0 Zn1 1.953 . S
O0 C16 1.225 1_565 S
Zn1 O0 1.953 . S
Zn1 O2 1.949 1_565 S
Zn1 O8 1.919 . S
Zn1 O13 1.924 1_565 S
O2 Zn1 1.949 1_545 S
O2 Zn3 1.923 1_444 S
O2 Zn4 1.950 1_455 S
O2 Zn5 1.945 1_554 S
Zn3 O2 1.923 1_666 S
Zn3 O6 1.934 . S
Zn3 O9 1.941 1_655 S
Zn3 O10 1.960 1_556 S
Zn4 O2 1.950 1_655 S
Zn4 O11 1.938 1_545 S
Zn4 O12 1.906 . S
Zn4 O22 1.953 . S
Zn5 O2 1.945 1_556 S
Zn5 O7 1.932 . S
Zn5 O14 1.977 1_455 S
Zn5 O15 1.910 1_556 S
O6 Zn3 1.934 . S
O6 C17 1.224 1_665 S
O7 Zn5 1.932 . S
O7 C17 1.307 . S
O8 Zn1 1.919 . S
O8 C19 1.253 . S
O9 Zn3 1.941 1_455 S
O9 C19 1.283 1_556 S
O10 Zn3 1.960 1_554 S
O10 C18 1.324 . S
O11 Zn4 1.938 1_565 S
O11 C18 1.247 . S
O12 Zn4 1.906 . S
O12 C20 1.304 . S
O13 Zn1 1.924 1_545 S
O13 C21 1.311 . S
O14 Zn5 1.977 1_655 S
O14 C20 1.272 1_556 S
O15 Zn5 1.910 1_554 S
O15 C21 1.231 . S
C16 O0 1.225 1_545 S
C16 O22 1.298 1_455 S
C17 O6 1.224 1_445 S
C17 O7 1.307 . S
C18 O10 1.324 . S
C18 O11 1.247 . S
C19 O8 1.253 . S
C19 O9 1.283 1_554 S
C20 O12 1.304 . S
C20 O14 1.272 1_554 S
C21 O13 1.311 . S
C21 O15 1.231 . S
O22 Zn4 1.953 . S
O22 C16 1.298 1_655 S
O23 Zn24 1.953 . S
O23 C39 1.225 . S
Zn24 O23 1.953 . S
Zn24 O25 1.949 . S
Zn24 O31 1.919 . S
Zn24 O36 1.924 . S
O25 Zn24 1.949 . S
O25 Zn26 1.923 . S
O25 Zn27 1.950 . S
O25 Zn28 1.945 . S
Zn26 O25 1.923 . S
Zn26 O29 1.933 . S
Zn26 O32 1.941 . S
Zn26 O33 1.965 . S
Zn27 O25 1.950 . S
Zn27 O34 1.938 . S
Zn27 O35 1.906 . S
Zn27 O45 1.953 . S
Zn28 O25 1.945 . S
Zn28 O30 1.932 . S
Zn28 O37 1.977 . S
Zn28 O38 1.910 . S
O29 Zn26 1.933 . S
O29 C40 1.226 . S
O30 Zn28 1.932 . S
O30 C40 1.307 . S
O31 Zn24 1.919 . S
O31 C42 1.253 . S
O32 Zn26 1.941 . S
O32 C42 1.283 . S
O33 Zn26 1.965 . S
O33 C41 1.303 . S
O34 Zn27 1.938 . S
O34 C41 1.247 . S
O35 Zn27 1.906 . S
O35 C43 1.304 . S
O36 Zn24 1.924 . S
O36 C44 1.311 . S
O37 Zn28 1.977 . S
O37 C43 1.272 . S
O38 Zn28 1.910 . S
O38 C44 1.231 . S
C39 O23 1.225 . S
C39 O45 1.298 . S
C40 O29 1.226 . S
C40 O30 1.307 . S
C41 O33 1.303 . S
C41 O34 1.247 . S
C42 O31 1.253 . S
C42 O32 1.283 . S
C43 O35 1.304 . S
C43 O37 1.272 . S
C44 O36 1.311 . S
C44 O38 1.231 . S
O45 Zn27 1.953 . S
O45 C39 1.298 . S
C46 C47 1.384 . S
C46 H59 0.947 . S
C46 C81 1.382 . S
C47 C46 1.384 . S
C47 C48 1.378 . S
C48 C47 1.378 . S
C48 C49 1.378 . S
C48 H60 0.952 . S
C49 C48 1.378 . S
C49 H61 0.950 . S
C49 C80 1.383 . S
H50 C69 0.947 . S
H51 C70 0.946 . S
H52 C72 0.953 . S
H53 C73 0.945 . S
H54 C75 0.952 . S
H55 C76 0.949 . S
H56 C78 0.950 . S
H57 C79 0.948 . S
H58 C81 0.951 . S
H59 C46 0.947 . S
H60 C48 0.952 . S
H61 C49 0.950 . S
N62 C65 1.382 1_545 S
N62 C67 1.363 1_455 S
N63 C65 1.371 . S
N63 C66 1.372 1_565 S
N64 C66 1.361 1_655 S
N64 C67 1.377 . S
C65 N62 1.382 1_565 S
C65 N63 1.371 . S
C65 C68 1.480 . S
C66 N63 1.372 1_545 S
C66 N64 1.361 1_455 S
C66 C74 1.457 . S
C67 N62 1.363 1_655 S
C67 N64 1.377 . S
C67 C80 1.479 . S
C68 C65 1.480 . S
C68 C69 1.383 . S
C68 C73 1.385 . S
C69 H50 0.947 . S
C69 C68 1.383 . S
C69 C70 1.388 . S
C70 H51 0.946 . S
C70 C69 1.388 . S
C70 C71 1.384 . S
C71 C70 1.384 . S
C71 C72 1.377 . S
C72 H52 0.953 . S
C72 C71 1.377 . S
C72 C73 1.369 . S
C73 H53 0.945 . S
C73 C68 1.385 . S
C73 C72 1.369 . S
C74 C66 1.457 . S
C74 C75 1.372 1_545 S
C74 C79 1.364 1_455 S
C75 H54 0.952 . S
C75 C74 1.372 1_565 S
C75 C76 1.389 . S
C76 H55 0.949 . S
C76 C75 1.389 . S
C76 C77 1.387 1_565 S
C77 C76 1.387 1_545 S
C77 C78 1.372 1_455 S
C78 H56 0.950 . S
C78 C77 1.372 1_655 S
C78 C79 1.379 . S
C79 H57 0.948 . S
C79 C74 1.364 1_655 S
C79 C78 1.379 . S
C80 C49 1.383 . S
C80 C67 1.479 . S
C80 C81 1.398 . S
C81 C46 1.382 . S
C81 H58 0.951 . S
C81 C80 1.398 . S
C82 C83 1.384 . S
C82 H95 0.947 . S
C82 C117 1.382 . S
C83 C82 1.384 . S
C83 C84 1.378 . S
C84 C83 1.378 . S
C84 C85 1.378 . S
C84 H96 0.952 . S
C85 C84 1.378 . S
C85 H97 0.950 . S
C85 C116 1.383 . S
H86 C105 0.947 . S
H87 C106 0.946 . S
H88 C108 0.953 . S
H89 C109 0.945 . S
H90 C111 0.952 . S
H91 C112 0.949 . S
H92 C114 0.950 . S
H93 C115 0.948 . S
H94 C117 0.951 . S
H95 C82 0.947 . S
H96 C84 0.952 . S
H97 C85 0.950 . S
N98 C101 1.382 1_565 S
N98 C103 1.363 1_455 S
N99 C101 1.371 . S
N99 C102 1.372 1_545 S
N100 C102 1.361 1_655 S
N100 C103 1.377 . S
C101 N98 1.382 1_545 S
C101 N99 1.371 . S
C101 C104 1.480 . S
C102 N99 1.372 1_565 S
C102 N100 1.361 1_455 S
C102 C110 1.457 . S
C103 N98 1.363 1_655 S
C103 N100 1.377 . S
C103 C116 1.479 . S
C104 C101 1.480 . S
C104 C105 1.383 . S
C104 C109 1.385 . S
C105 H86 0.947 . S
C105 C104 1.383 . S
C105 C106 1.388 . S
C106 H87 0.946 . S
C106 C105 1.388 . S
C106 C107 1.384 . S
C107 C106 1.384 . S
C107 C108 1.377 . S
C108 H88 0.953 . S
C108 C107 1.377 . S
C108 C109 1.369 . S
C109 H89 0.945 . S
C109 C104 1.385 . S
C109 C108 1.369 . S
C110 C102 1.457 . S
C110 C111 1.372 1_565 S
C110 C115 1.364 1_455 S
C111 H90 0.952 . S
C111 C110 1.372 1_545 S
C111 C112 1.389 . S
C112 H91 0.949 . S
C112 C111 1.389 . S
C112 C113 1.397 . S
C113 C112 1.397 . S
C113 C114 1.361 1_445 S
C114 H92 0.950 . S
C114 C113 1.361 1_665 S
C114 C115 1.379 . S
C115 H93 0.948 . S
C115 C110 1.364 1_655 S
C115 C114 1.379 . S
C116 C85 1.383 . S
C116 C103 1.479 . S
C116 C117 1.398 . S
C117 C82 1.382 . S
C117 H94 0.951 . S
C117 C116 1.398 . S
C118 C119 1.384 . S
C118 H131 0.947 . S
C118 C153 1.382 . S
C119 C118 1.384 . S
C119 C120 1.378 . S
C120 C119 1.378 . S
C120 C121 1.378 . S
C120 H132 0.952 . S
C121 C120 1.378 . S
C121 H133 0.950 . S
C121 C152 1.383 . S
H122 C141 0.947 . S
H123 C142 0.946 . S
H124 C144 0.953 . S
H125 C145 0.945 . S
H126 C147 0.952 . S
H127 C148 0.949 . S
H128 C150 0.950 . S
H129 C151 0.948 . S
H130 C153 0.951 . S
H131 C118 0.947 . S
H132 C120 0.952 . S
H133 C121 0.950 . S
N134 C137 1.382 . S
N134 C139 1.363 . S
N135 C137 1.371 . S
N135 C138 1.372 . S
N136 C138 1.361 . S
N136 C139 1.377 . S
C137 N134 1.382 . S
C137 N135 1.371 . S
C137 C140 1.480 . S
C138 N135 1.372 . S
C138 N136 1.361 . S
C138 C146 1.457 . S
C139 N134 1.363 . S
C139 N136 1.377 . S
C139 C152 1.479 . S
C140 C137 1.480 . S
C140 C141 1.383 . S
C140 C145 1.385 . S
C141 H122 0.947 . S
C141 C140 1.383 . S
C141 C142 1.388 . S
C142 H123 0.946 . S
C142 C141 1.388 . S
C142 C143 1.384 . S
C143 C142 1.384 . S
C143 C144 1.377 . S
C144 H124 0.953 . S
C144 C143 1.377 . S
C144 C145 1.369 . S
C145 H125 0.945 . S
C145 C140 1.385 . S
C145 C144 1.369 . S
C146 C138 1.457 . S
C146 C147 1.372 . S
C146 C151 1.364 . S
C147 H126 0.952 . S
C147 C146 1.372 . S
C147 C148 1.389 . S
C148 H127 0.949 . S
C148 C147 1.389 . S
C148 C149 1.387 . S
C149 C148 1.387 . S
C149 C150 1.372 . S
C150 H128 0.950 . S
C150 C149 1.372 . S
C150 C151 1.379 . S
C151 H129 0.948 . S
C151 C146 1.364 . S
C151 C150 1.379 . S
C152 C121 1.383 . S
C152 C139 1.479 . S
C152 C153 1.398 . S
C153 C118 1.382 . S
C153 H130 0.951 . S
C153 C152 1.398 . S
C154 C155 1.384 . S
C154 H167 0.947 . S
C154 C189 1.382 . S
C155 C154 1.384 . S
C155 C156 1.378 . S
C156 C155 1.378 . S
C156 C157 1.378 . S
C156 H168 0.952 . S
C157 C156 1.378 . S
C157 H169 0.950 . S
C157 C188 1.383 . S
H158 C177 0.947 . S
H159 C178 0.946 . S
H160 C180 0.953 . S
H161 C181 0.945 . S
H162 C183 0.952 . S
H163 C184 0.949 . S
H164 C186 0.950 . S
H165 C187 0.948 . S
H166 C189 0.951 . S
H167 C154 0.947 . S
H168 C156 0.952 . S
H169 C157 0.950 . S
N170 C173 1.382 . S
N170 C175 1.363 . S
N171 C173 1.371 . S
N171 C174 1.372 . S
N172 C174 1.361 . S
N172 C175 1.377 . S
C173 N170 1.382 . S
C173 N171 1.371 . S
C173 C176 1.480 . S
C174 N171 1.372 . S
C174 N172 1.361 . S
C174 C182 1.457 . S
C175 N170 1.363 . S
C175 N172 1.377 . S
C175 C188 1.479 . S
C176 C173 1.480 . S
C176 C177 1.383 . S
C176 C181 1.385 . S
C177 H158 0.947 . S
C177 C176 1.383 . S
C177 C178 1.388 . S
C178 H159 0.946 . S
C178 C177 1.388 . S
C178 C179 1.384 . S
C179 C178 1.384 . S
C179 C180 1.377 . S
C180 H160 0.953 . S
C180 C179 1.377 . S
C180 C181 1.369 . S
C181 H161 0.945 . S
C181 C176 1.385 . S
C181 C180 1.369 . S
C182 C174 1.457 . S
C182 C183 1.372 . S
C182 C187 1.364 . S
C183 H162 0.952 . S
C183 C182 1.372 . S
C183 C184 1.389 . S
C184 H163 0.949 . S
C184 C183 1.389 . S
C184 C185 1.387 . S
C185 C184 1.387 . S
C185 C186 1.372 . S
C186 H164 0.950 . S
C186 C185 1.372 . S
C186 C187 1.379 . S
C187 H165 0.948 . S
C187 C182 1.364 . S
C187 C186 1.379 . S
C188 C157 1.383 . S
C188 C175 1.479 . S
C188 C189 1.398 . S
C189 C154 1.382 . S
C189 H166 0.951 . S
C189 C188 1.398 . S
H190 C208 0.951 . S
H191 C210 0.951 . S
H192 C212 0.950 . S
H193 C213 0.950 . S
H194 C215 0.950 . S
H195 C218 0.950 1_556 S
H196 C219 0.950 . S
H197 C221 0.950 . S
H198 C222 0.950 . S
H199 C223 0.951 . S
H200 C225 0.951 . S
H201 C227 0.950 . S
H202 C228 0.950 . S
H203 C230 0.950 . S
H204 C233 0.950 . S
H205 C234 0.950 . S
H206 C236 0.950 . S
H207 C237 0.950 . S
C208 H190 0.951 . S
C208 C209 1.366 . S
C208 C210 1.388 . S
C209 C208 1.366 . S
C209 C213 1.385 . S
C210 H191 0.951 . S
C210 C208 1.388 . S
C210 C211 1.366 . S
C211 C210 1.366 . S
C211 C212 1.414 . S
C211 C214 1.499 . S
C212 H192 0.950 . S
C212 C211 1.414 . S
C212 C213 1.374 . S
C213 H193 0.950 . S
C213 C209 1.385 . S
C213 C212 1.374 . S
C214 C211 1.499 . S
C214 C215 1.373 . S
C214 C216 1.389 . S
C215 H194 0.950 . S
C215 C214 1.373 . S
C215 C231 1.377 . S
C216 C214 1.389 . S
C216 C217 1.524 . S
C216 C230 1.377 . S
C217 C216 1.524 . S
C217 C218 1.397 . S
C217 C222 1.363 . S
C218 H195 0.950 1_554 S
C218 C217 1.397 . S
C218 C219 1.334 1_554 S
C219 H196 0.950 . S
C219 C218 1.334 1_556 S
C219 C220 1.287 . S
C220 C219 1.287 . S
C220 C221 1.524 1_556 S
C220 H239 0.913 . S
C221 H197 0.950 . S
C221 C220 1.524 1_554 S
C221 C222 1.415 . S
C222 H198 0.950 . S
C222 C217 1.363 . S
C222 C221 1.415 . S
C223 H199 0.951 . S
C223 C224 1.366 . S
C223 C225 1.388 . S
C224 C223 1.366 . S
C224 C228 1.385 . S
C225 H200 0.951 . S
C225 C223 1.388 . S
C225 C226 1.366 . S
C226 C225 1.366 . S
C226 C227 1.414 . S
C226 C229 1.499 . S
C227 H201 0.950 . S
C227 C226 1.414 . S
C227 C228 1.374 . S
C228 H202 0.950 . S
C228 C224 1.385 . S
C228 C227 1.374 . S
C229 C226 1.499 . S
C229 C230 1.373 . S
C229 C231 1.389 . S
C230 H203 0.950 . S
C230 C216 1.377 . S
C230 C229 1.373 . S
C231 C215 1.377 . S
C231 C229 1.389 . S
C231 C232 1.524 . S
C232 C231 1.524 . S
C232 C233 1.397 . S
C232 C237 1.363 . S
C233 H204 0.950 . S
C233 C232 1.397 . S
C233 C234 1.334 . S
C234 H205 0.950 . S
C234 C233 1.334 . S
C234 C235 1.287 . S
C235 C234 1.287 . S
C235 C236 1.524 . S
C235 H238 0.999 . S
C236 H206 0.950 . S
C236 C235 1.524 . S
C236 C237 1.415 . S
C237 H207 0.950 . S
C237 C232 1.363 . S
C237 C236 1.415 . S
H238 C235 0.999 . S
H239 C220 0.913 . S
H240 C258 0.938 1_554 S
H241 C260 0.951 . S
H242 C262 0.950 . S
H243 C263 0.950 . S
H244 C265 0.950 . S
H245 C268 0.950 . S
H246 C269 0.950 . S
H247 C271 0.950 . S
H248 C272 0.950 . S
H249 C273 0.951 . S
H250 C275 0.951 . S
H251 C277 0.950 . S
H252 C278 0.950 . S
H253 C280 0.950 . S
H254 C283 0.950 . S
H255 C284 0.950 . S
H256 C286 0.950 . S
H257 C287 0.950 . S
C258 H240 0.938 1_556 S
C258 C259 1.371 . S
C258 C260 1.398 . S
C259 C258 1.371 . S
C259 C263 1.385 . S
C260 H241 0.951 . S
C260 C258 1.398 . S
C260 C261 1.366 . S
C261 C260 1.366 . S
C261 C262 1.414 . S
C261 C264 1.499 . S
C262 H242 0.950 . S
C262 C261 1.414 . S
C262 C263 1.374 . S
C263 H243 0.950 . S
C263 C259 1.385 . S
C263 C262 1.374 . S
C264 C261 1.499 . S
C264 C265 1.373 . S
C264 C266 1.389 . S
C265 H244 0.950 . S
C265 C264 1.373 . S
C265 C281 1.377 . S
C266 C264 1.389 . S
C266 C267 1.524 1_556 S
C266 C280 1.377 . S
C267 C266 1.524 1_554 S
C267 C268 1.397 . S
C267 C272 1.363 . S
C268 H245 0.950 . S
C268 C267 1.397 . S
C268 C269 1.334 . S
C269 H246 0.950 . S
C269 C268 1.334 . S
C269 C270 1.287 . S
C270 C269 1.287 . S
C270 C271 1.524 . S
C270 H289 0.913 . S
C271 H247 0.950 . S
C271 C270 1.524 . S
C271 C272 1.415 . S
C272 H248 0.950 . S
C272 C267 1.363 . S
C272 C271 1.415 . S
C273 H249 0.951 . S
C273 C274 1.366 . S
C273 C275 1.388 . S
C274 C273 1.366 . S
C274 C278 1.385 . S
C275 H250 0.951 . S
C275 C273 1.388 . S
C275 C276 1.366 . S
C276 C275 1.366 . S
C276 C277 1.414 . S
C276 C279 1.499 . S
C277 H251 0.950 . S
C277 C276 1.414 . S
C277 C278 1.374 . S
C278 H252 0.950 . S
C278 C274 1.385 . S
C278 C277 1.374 . S
C279 C276 1.499 . S
C279 C280 1.373 . S
C279 C281 1.389 . S
C280 H253 0.950 . S
C280 C266 1.377 . S
C280 C279 1.373 . S
C281 C265 1.377 . S
C281 C279 1.389 . S
C281 C282 1.524 . S
C282 C281 1.524 . S
C282 C283 1.397 . S
C282 C287 1.363 . S
C283 H254 0.950 . S
C283 C282 1.397 . S
C283 C284 1.334 . S
C284 H255 0.950 . S
C284 C283 1.334 . S
C284 C285 1.287 . S
C285 C284 1.287 . S
C285 C286 1.524 . S
C285 H288 0.999 . S
C286 H256 0.950 . S
C286 C285 1.524 . S
C286 C287 1.415 . S
C287 H257 0.950 . S
C287 C282 1.363 . S
C287 C286 1.415 . S
H288 C285 0.999 . S
H289 C270 0.913 . S
H290 C308 0.951 . S
H291 C310 0.951 . S
H292 C312 0.950 . S
H293 C313 0.950 . S
H294 C315 0.950 . S
H295 C318 0.935 1_556 S
H296 C319 0.950 . S
H297 C321 0.950 . S
H298 C322 0.950 . S
H299 C323 0.951 . S
H300 C325 0.951 . S
H301 C327 0.950 . S
H302 C328 0.950 . S
H303 C330 0.950 . S
H304 C333 0.950 . S
H305 C334 0.950 . S
H306 C336 0.950 . S
H307 C337 0.950 . S
C308 H290 0.951 . S
C308 C309 1.366 . S
C308 C310 1.388 . S
C309 C308 1.366 . S
C309 C313 1.385 . S
C310 H291 0.951 . S
C310 C308 1.388 . S
C310 C311 1.366 . S
C311 C310 1.366 . S
C311 C312 1.414 . S
C311 C314 1.499 . S
C312 H292 0.950 . S
C312 C311 1.414 . S
C312 C313 1.374 . S
C313 H293 0.950 . S
C313 C309 1.385 . S
C313 C312 1.374 . S
C314 C311 1.499 . S
C314 C315 1.373 . S
C314 C316 1.389 . S
C315 H294 0.950 . S
C315 C314 1.373 . S
C315 C331 1.377 . S
C316 C314 1.389 . S
C316 C317 1.524 . S
C316 C330 1.377 . S
C317 C316 1.524 . S
C317 C318 1.397 . S
C317 C322 1.363 . S
C318 H295 0.935 1_554 S
C318 C317 1.397 . S
C318 C319 1.334 1_554 S
C319 H296 0.950 . S
C319 C318 1.334 1_556 S
C319 C320 1.287 . S
C320 C319 1.287 . S
C320 C321 1.524 1_556 S
C320 H339 0.913 . S
C321 H297 0.950 . S
C321 C320 1.524 1_554 S
C321 C322 1.415 . S
C322 H298 0.950 . S
C322 C317 1.363 . S
C322 C321 1.415 . S
C323 H299 0.951 . S
C323 C324 1.366 . S
C323 C325 1.388 . S
C324 C323 1.366 . S
C324 C328 1.385 . S
C325 H300 0.951 . S
C325 C323 1.388 . S
C325 C326 1.366 . S
C326 C325 1.366 . S
C326 C327 1.414 . S
C326 C329 1.499 . S
C327 H301 0.950 . S
C327 C326 1.414 . S
C327 C328 1.374 . S
C328 H302 0.950 . S
C328 C324 1.385 . S
C328 C327 1.374 . S
C329 C326 1.499 . S
C329 C330 1.373 . S
C329 C331 1.389 . S
C330 H303 0.950 . S
C330 C316 1.377 . S
C330 C329 1.373 . S
C331 C315 1.377 . S
C331 C329 1.389 . S
C331 C332 1.524 . S
C332 C331 1.524 . S
C332 C333 1.397 . S
C332 C337 1.363 . S
C333 H304 0.950 . S
C333 C332 1.397 . S
C333 C334 1.334 . S
C334 H305 0.950 . S
C334 C333 1.334 . S
C334 C335 1.287 . S
C335 C334 1.287 . S
C335 C336 1.524 . S
C335 H338 0.999 . S
C336 H306 0.950 . S
C336 C335 1.524 . S
C336 C337 1.415 . S
C337 H307 0.950 . S
C337 C332 1.363 . S
C337 C336 1.415 . S
H338 C335 0.999 . S
H339 C320 0.913 . S
H340 C358 0.947 1_554 S
H341 C360 0.951 . S
H342 C362 0.950 . S
H343 C363 0.950 . S
H344 C365 0.950 . S
H345 C368 0.950 . S
H346 C369 0.950 . S
H347 C371 0.950 . S
H348 C372 0.950 . S
H349 C373 0.951 . S
H350 C375 0.951 . S
H351 C377 0.950 . S
H352 C378 0.950 . S
H353 C380 0.950 . S
H354 C383 0.950 . S
H355 C384 0.950 . S
H356 C386 0.950 . S
H357 C387 0.950 . S
C358 H340 0.947 1_556 S
C358 C359 1.367 . S
C358 C360 1.391 . S
C359 C358 1.367 . S
C359 C363 1.385 . S
C360 H341 0.951 . S
C360 C358 1.391 . S
C360 C361 1.366 . S
C361 C360 1.366 . S
C361 C362 1.414 . S
C361 C364 1.499 . S
C362 H342 0.950 . S
C362 C361 1.414 . S
C362 C363 1.374 . S
C363 H343 0.950 . S
C363 C359 1.385 . S
C363 C362 1.374 . S
C364 C361 1.499 . S
C364 C365 1.373 . S
C364 C366 1.389 . S
C365 H344 0.950 . S
C365 C364 1.373 . S
C365 C381 1.377 . S
C366 C364 1.389 . S
C366 C367 1.524 1_556 S
C366 C380 1.377 . S
C367 C366 1.524 1_554 S
C367 C368 1.397 . S
C367 C372 1.363 . S
C368 H345 0.950 . S
C368 C367 1.397 . S
C368 C369 1.334 . S
C369 H346 0.950 . S
C369 C368 1.334 . S
C369 C370 1.287 . S
C370 C369 1.287 . S
C370 C371 1.524 . S
C370 H389 0.913 . S
C371 H347 0.950 . S
C371 C370 1.524 . S
C371 C372 1.415 . S
C372 H348 0.950 . S
C372 C367 1.363 . S
C372 C371 1.415 . S
C373 H349 0.951 . S
C373 C374 1.366 . S
C373 C375 1.388 . S
C374 C373 1.366 . S
C374 C378 1.385 . S
C375 H350 0.951 . S
C375 C373 1.388 . S
C375 C376 1.366 . S
C376 C375 1.366 . S
C376 C377 1.414 . S
C376 C379 1.499 . S
C377 H351 0.950 . S
C377 C376 1.414 . S
C377 C378 1.374 . S
C378 H352 0.950 . S
C378 C374 1.385 . S
C378 C377 1.374 . S
C379 C376 1.499 . S
C379 C380 1.373 . S
C379 C381 1.389 . S
C380 H353 0.950 . S
C380 C366 1.377 . S
C380 C379 1.373 . S
C381 C365 1.377 . S
C381 C379 1.389 . S
C381 C382 1.524 . S
C382 C381 1.524 . S
C382 C383 1.397 . S
C382 C387 1.363 . S
C383 H354 0.950 . S
C383 C382 1.397 . S
C383 C384 1.334 . S
C384 H355 0.950 . S
C384 C383 1.334 . S
C384 C385 1.287 . S
C385 C384 1.287 . S
C385 C386 1.524 . S
C385 H388 0.999 . S
C386 H356 0.950 . S
C386 C385 1.524 . S
C386 C387 1.415 . S
C387 H357 0.950 . S
C387 C382 1.363 . S
C387 C386 1.415 . S
H388 C385 0.999 . S
H389 C370 0.913 . S
H390 C408 0.951 . S
H391 C410 0.951 . S
H392 C412 0.950 . S
H393 C413 0.950 . S
H394 C415 0.950 . S
H395 C418 0.950 . S
H396 C419 0.950 . S
H397 C421 0.950 . S
H398 C422 0.950 . S
H399 C423 0.951 . S
H400 C425 0.951 . S
H401 C427 0.950 . S
H402 C428 0.950 . S
H403 C430 0.950 . S
H404 C433 0.950 . S
H405 C434 0.950 . S
H406 C436 0.950 . S
H407 C437 0.950 . S
C408 H390 0.951 . S
C408 C409 1.366 . S
C408 C410 1.388 . S
C409 C408 1.366 . S
C409 C413 1.385 . S
C410 H391 0.951 . S
C410 C408 1.388 . S
C410 C411 1.366 . S
C411 C410 1.366 . S
C411 C412 1.414 . S
C411 C414 1.499 . S
C412 H392 0.950 . S
C412 C411 1.414 . S
C412 C413 1.374 . S
C413 H393 0.950 . S
C413 C409 1.385 . S
C413 C412 1.374 . S
C414 C411 1.499 . S
C414 C415 1.373 . S
C414 C416 1.389 . S
C415 H394 0.950 . S
C415 C414 1.373 . S
C415 C431 1.377 . S
C416 C414 1.389 . S
C416 C417 1.524 . S
C416 C430 1.377 . S
C417 C416 1.524 . S
C417 C418 1.397 . S
C417 C422 1.363 . S
C418 H395 0.950 . S
C418 C417 1.397 . S
C418 C419 1.334 . S
C419 H396 0.950 . S
C419 C418 1.334 . S
C419 C420 1.287 . S
C420 C419 1.287 . S
C420 C421 1.524 . S
C420 H439 0.913 . S
C421 H397 0.950 . S
C421 C420 1.524 . S
C421 C422 1.415 . S
C422 H398 0.950 . S
C422 C417 1.363 . S
C422 C421 1.415 . S
C423 H399 0.951 . S
C423 C424 1.366 . S
C423 C425 1.388 . S
C424 C423 1.366 . S
C424 C428 1.385 . S
C425 H400 0.951 . S
C425 C423 1.388 . S
C425 C426 1.366 . S
C426 C425 1.366 . S
C426 C427 1.414 . S
C426 C429 1.499 . S
C427 H401 0.950 . S
C427 C426 1.414 . S
C427 C428 1.374 . S
C428 H402 0.950 . S
C428 C424 1.385 . S
C428 C427 1.374 . S
C429 C426 1.499 . S
C429 C430 1.373 . S
C429 C431 1.389 . S
C430 H403 0.950 . S
C430 C416 1.377 . S
C430 C429 1.373 . S
C431 C415 1.377 . S
C431 C429 1.389 . S
C431 C432 1.524 . S
C432 C431 1.524 . S
C432 C433 1.397 . S
C432 C437 1.363 . S
C433 H404 0.950 . S
C433 C432 1.397 . S
C433 C434 1.334 . S
C434 H405 0.950 . S
C434 C433 1.334 . S
C434 C435 1.287 . S
C435 C434 1.287 . S
C435 C436 1.524 . S
C435 H438 0.999 . S
C436 H406 0.950 . S
C436 C435 1.524 . S
C436 C437 1.415 . S
C437 H407 0.950 . S
C437 C432 1.363 . S
C437 C436 1.415 . S
H438 C435 0.999 . S
H439 C420 0.913 . S
H440 C458 0.951 . S
H441 C460 0.951 . S
H442 C462 0.950 . S
H443 C463 0.950 . S
H444 C465 0.950 . S
H445 C468 0.950 . S
H446 C469 0.950 . S
H447 C471 0.950 . S
H448 C472 0.950 . S
H449 C473 0.951 . S
H450 C475 0.951 . S
H451 C477 0.950 . S
H452 C478 0.950 . S
H453 C480 0.950 . S
H454 C483 0.950 . S
H455 C484 0.950 . S
H456 C486 0.950 . S
H457 C487 0.950 . S
C458 H440 0.951 . S
C458 C459 1.366 . S
C458 C460 1.388 . S
C459 C458 1.366 . S
C459 C463 1.385 . S
C460 H441 0.951 . S
C460 C458 1.388 . S
C460 C461 1.366 . S
C461 C460 1.366 . S
C461 C462 1.414 . S
C461 C464 1.499 . S
C462 H442 0.950 . S
C462 C461 1.414 . S
C462 C463 1.374 . S
C463 H443 0.950 . S
C463 C459 1.385 . S
C463 C462 1.374 . S
C464 C461 1.499 . S
C464 C465 1.373 . S
C464 C466 1.389 . S
C465 H444 0.950 . S
C465 C464 1.373 . S
C465 C481 1.377 . S
C466 C464 1.389 . S
C466 C467 1.524 . S
C466 C480 1.377 . S
C467 C466 1.524 . S
C467 C468 1.397 . S
C467 C472 1.363 . S
C468 H445 0.950 . S
C468 C467 1.397 . S
C468 C469 1.334 . S
C469 H446 0.950 . S
C469 C468 1.334 . S
C469 C470 1.287 . S
C470 C469 1.287 . S
C470 C471 1.524 . S
C470 H489 0.913 . S
C471 H447 0.950 . S
C471 C470 1.524 . S
C471 C472 1.415 . S
C472 H448 0.950 . S
C472 C467 1.363 . S
C472 C471 1.415 . S
C473 H449 0.951 . S
C473 C474 1.366 . S
C473 C475 1.388 . S
C474 C473 1.366 . S
C474 C478 1.385 . S
C475 H450 0.951 . S
C475 C473 1.388 . S
C475 C476 1.366 . S
C476 C475 1.366 . S
C476 C477 1.414 . S
C476 C479 1.499 . S
C477 H451 0.950 . S
C477 C476 1.414 . S
C477 C478 1.374 . S
C478 H452 0.950 . S
C478 C474 1.385 . S
C478 C477 1.374 . S
C479 C476 1.499 . S
C479 C480 1.373 . S
C479 C481 1.389 . S
C480 H453 0.950 . S
C480 C466 1.377 . S
C480 C479 1.373 . S
C481 C465 1.377 . S
C481 C479 1.389 . S
C481 C482 1.524 . S
C482 C481 1.524 . S
C482 C483 1.397 . S
C482 C487 1.363 . S
C483 H454 0.950 . S
C483 C482 1.397 . S
C483 C484 1.334 . S
C484 H455 0.950 . S
C484 C483 1.334 . S
C484 C485 1.287 . S
C485 C484 1.287 . S
C485 C486 1.524 . S
C485 H488 0.999 . S
C486 H456 0.950 . S
C486 C485 1.524 . S
C486 C487 1.415 . S
C487 H457 0.950 . S
C487 C482 1.363 . S
C487 C486 1.415 . S
H488 C485 0.999 . S
H489 C470 0.913 . S
H490 C508 0.951 . S
H491 C510 0.951 . S
H492 C512 0.950 . S
H493 C513 0.950 . S
H494 C515 0.950 . S
H495 C518 0.950 . S
H496 C519 0.950 . S
H497 C521 0.950 . S
H498 C522 0.950 . S
H499 C523 0.951 . S
H500 C525 0.951 . S
H501 C527 0.950 . S
H502 C528 0.950 . S
H503 C530 0.950 . S
H504 C533 0.950 . S
H505 C534 0.950 . S
H506 C536 0.950 . S
H507 C537 0.950 . S
C508 H490 0.951 . S
C508 C509 1.366 . S
C508 C510 1.388 . S
C509 C508 1.366 . S
C509 C513 1.385 . S
C510 H491 0.951 . S
C510 C508 1.388 . S
C510 C511 1.366 . S
C511 C510 1.366 . S
C511 C512 1.414 . S
C511 C514 1.499 . S
C512 H492 0.950 . S
C512 C511 1.414 . S
C512 C513 1.374 . S
C513 H493 0.950 . S
C513 C509 1.385 . S
C513 C512 1.374 . S
C514 C511 1.499 . S
C514 C515 1.373 . S
C514 C516 1.389 . S
C515 H494 0.950 . S
C515 C514 1.373 . S
C515 C531 1.377 . S
C516 C514 1.389 . S
C516 C517 1.524 . S
C516 C530 1.377 . S
C517 C516 1.524 . S
C517 C518 1.397 . S
C517 C522 1.363 . S
C518 H495 0.950 . S
C518 C517 1.397 . S
C518 C519 1.334 . S
C519 H496 0.950 . S
C519 C518 1.334 . S
C519 C520 1.287 . S
C520 C519 1.287 . S
C520 C521 1.524 . S
C520 H539 0.913 . S
C521 H497 0.950 . S
C521 C520 1.524 . S
C521 C522 1.415 . S
C522 H498 0.950 . S
C522 C517 1.363 . S
C522 C521 1.415 . S
C523 H499 0.951 . S
C523 C524 1.366 . S
C523 C525 1.388 . S
C524 C523 1.366 . S
C524 C528 1.385 . S
C525 H500 0.951 . S
C525 C523 1.388 . S
C525 C526 1.366 . S
C526 C525 1.366 . S
C526 C527 1.414 . S
C526 C529 1.499 . S
C527 H501 0.950 . S
C527 C526 1.414 . S
C527 C528 1.374 . S
C528 H502 0.950 . S
C528 C524 1.385 . S
C528 C527 1.374 . S
C529 C526 1.499 . S
C529 C530 1.373 . S
C529 C531 1.389 . S
C530 H503 0.950 . S
C530 C516 1.377 . S
C530 C529 1.373 . S
C531 C515 1.377 . S
C531 C529 1.389 . S
C531 C532 1.524 . S
C532 C531 1.524 . S
C532 C533 1.397 . S
C532 C537 1.363 . S
C533 H504 0.950 . S
C533 C532 1.397 . S
C533 C534 1.334 . S
C534 H505 0.950 . S
C534 C533 1.334 . S
C534 C535 1.287 . S
C535 C534 1.287 . S
C535 C536 1.524 . S
C535 H538 0.999 . S
C536 H506 0.950 . S
C536 C535 1.524 . S
C536 C537 1.415 . S
C537 H507 0.950 . S
C537 C532 1.363 . S
C537 C536 1.415 . S
H538 C535 0.999 . S
H539 C520 0.913 . S
H540 C558 0.951 . S
H541 C560 0.951 . S
H542 C562 0.950 . S
H543 C563 0.950 . S
H544 C565 0.950 . S
H545 C568 0.950 . S
H546 C569 0.950 . S
H547 C571 0.950 . S
H548 C572 0.950 . S
H549 C573 0.951 . S
H550 C575 0.951 . S
H551 C577 0.950 . S
H552 C578 0.950 . S
H553 C580 0.950 . S
H554 C583 0.950 . S
H555 C584 0.950 . S
H556 C586 0.950 . S
H557 C587 0.950 . S
C558 H540 0.951 . S
C558 C559 1.366 . S
C558 C560 1.388 . S
C559 C558 1.366 . S
C559 C563 1.385 . S
C560 H541 0.951 . S
C560 C558 1.388 . S
C560 C561 1.366 . S
C561 C560 1.366 . S
C561 C562 1.414 . S
C561 C564 1.499 . S
C562 H542 0.950 . S
C562 C561 1.414 . S
C562 C563 1.374 . S
C563 H543 0.950 . S
C563 C559 1.385 . S
C563 C562 1.374 . S
C564 C561 1.499 . S
C564 C565 1.373 . S
C564 C566 1.389 . S
C565 H544 0.950 . S
C565 C564 1.373 . S
C565 C581 1.377 . S
C566 C564 1.389 . S
C566 C567 1.524 . S
C566 C580 1.377 . S
C567 C566 1.524 . S
C567 C568 1.397 . S
C567 C572 1.363 . S
C568 H545 0.950 . S
C568 C567 1.397 . S
C568 C569 1.334 . S
C569 H546 0.950 . S
C569 C568 1.334 . S
C569 C570 1.287 . S
C570 C569 1.287 . S
C570 C571 1.524 . S
C570 H589 0.913 . S
C571 H547 0.950 . S
C571 C570 1.524 . S
C571 C572 1.415 . S
C572 H548 0.950 . S
C572 C567 1.363 . S
C572 C571 1.415 . S
C573 H549 0.951 . S
C573 C574 1.366 . S
C573 C575 1.388 . S
C574 C573 1.366 . S
C574 C578 1.385 . S
C575 H550 0.951 . S
C575 C573 1.388 . S
C575 C576 1.366 . S
C576 C575 1.366 . S
C576 C577 1.414 . S
C576 C579 1.499 . S
C577 H551 0.950 . S
C577 C576 1.414 . S
C577 C578 1.374 . S
C578 H552 0.950 . S
C578 C574 1.385 . S
C578 C577 1.374 . S
C579 C576 1.499 . S
C579 C580 1.373 . S
C579 C581 1.389 . S
C580 H553 0.950 . S
C580 C566 1.377 . S
C580 C579 1.373 . S
C581 C565 1.377 . S
C581 C579 1.389 . S
C581 C582 1.524 . S
C582 C581 1.524 . S
C582 C583 1.397 . S
C582 C587 1.363 . S
C583 H554 0.950 . S
C583 C582 1.397 . S
C583 C584 1.334 . S
C584 H555 0.950 . S
C584 C583 1.334 . S
C584 C585 1.287 . S
C585 C584 1.287 . S
C585 C586 1.524 . S
C585 H588 0.999 . S
C586 H556 0.950 . S
C586 C585 1.524 . S
C586 C587 1.415 . S
C587 H557 0.950 . S
C587 C582 1.363 . S
C587 C586 1.415 . S
H588 C585 0.999 . S
H589 C570 0.913 . S
H590 C608 0.951 . S
H591 C610 0.951 . S
H592 C612 0.950 . S
H593 C613 0.950 . S
H594 C615 0.950 . S
H595 C618 0.950 . S
H596 C619 0.950 . S
H597 C621 0.950 1_455 S
H598 C622 0.950 . S
H599 C623 0.951 . S
H600 C625 0.951 . S
H601 C627 0.950 . S
H602 C628 0.950 . S
H603 C630 0.951 . S
H604 C633 0.950 . S
H605 C634 0.950 . S
H606 C636 0.950 1_655 S
H607 C637 0.962 . S
C608 H590 0.951 . S
C608 C609 1.366 1_565 S
C608 C610 1.388 . S
C609 C608 1.366 1_545 S
C609 C613 1.385 1_455 S
C610 H591 0.951 . S
C610 C608 1.388 . S
C610 C611 1.366 1_565 S
C611 C610 1.366 1_545 S
C611 C612 1.414 1_455 S
C611 C614 1.499 . S
C612 H592 0.950 . S
C612 C611 1.414 1_655 S
C612 C613 1.374 . S
C613 H593 0.950 . S
C613 C609 1.385 1_655 S
C613 C612 1.374 . S
C614 C611 1.499 . S
C614 C615 1.373 . S
C614 C616 1.389 1_445 S
C615 H594 0.950 . S
C615 C614 1.373 . S
C615 C631 1.377 . S
C616 C614 1.389 1_665 S
C616 C617 1.524 . S
C616 C630 1.377 . S
C617 C616 1.524 . S
C617 C618 1.397 . S
C617 C622 1.363 1_655 S
C618 H595 0.950 . S
C618 C617 1.397 . S
C618 C619 1.334 . S
C619 H596 0.950 . S
C619 C618 1.334 . S
C619 C620 1.287 . S
C620 C619 1.287 . S
C620 C621 1.524 . S
C620 H639 0.913 . S
C621 H597 0.950 1_655 S
C621 C620 1.524 . S
C621 C622 1.415 1_655 S
C622 H598 0.950 . S
C622 C617 1.363 1_455 S
C622 C621 1.415 1_455 S
C623 H599 0.951 . S
C623 C624 1.360 1_655 S
C623 C625 1.388 . S
C624 C623 1.360 1_455 S
C624 C628 1.391 1_545 S
C625 H600 0.951 . S
C625 C623 1.388 . S
C625 C626 1.366 1_655 S
C626 C625 1.366 1_455 S
C626 C627 1.414 1_545 S
C626 C629 1.499 . S
C627 H601 0.950 . S
C627 C626 1.414 1_565 S
C627 C628 1.374 . S
C628 H602 0.950 . S
C628 C624 1.391 1_565 S
C628 C627 1.374 . S
C629 C626 1.499 . S
C629 C630 1.372 1_445 S
C629 C631 1.389 . S
C630 H603 0.951 . S
C630 C616 1.377 . S
C630 C629 1.372 1_665 S
C631 C615 1.377 . S
C631 C629 1.389 . S
C631 C632 1.524 . S
C632 C631 1.524 . S
C632 C633 1.397 . S
C632 C637 1.355 1_455 S
C633 H604 0.950 . S
C633 C632 1.397 . S
C633 C634 1.334 . S
C634 H605 0.950 . S
C634 C633 1.334 . S
C634 C635 1.287 . S
C635 C634 1.287 . S
C635 C636 1.524 . S
C635 H638 0.999 . S
C636 H606 0.950 1_455 S
C636 C635 1.524 . S
C636 C637 1.411 1_455 S
C637 H607 0.962 . S
C637 C632 1.355 1_655 S
C637 C636 1.411 1_655 S
H638 C635 0.999 . S
H639 C620 0.913 . S
H640 C658 0.951 . S
H641 C660 0.951 . S
H642 C662 0.950 . S
H643 C663 0.950 . S
H644 C665 0.950 . S
H645 C668 0.950 . S
H646 C669 0.950 . S
H647 C671 0.950 . S
H648 C672 0.931 1_455 S
H649 C673 0.951 . S
H650 C675 0.951 . S
H651 C677 0.950 . S
H652 C678 0.950 . S
H653 C680 0.950 1_655 S
H654 C683 0.950 . S
H655 C684 0.950 . S
H656 C686 0.950 . S
H657 C687 0.950 . S
C658 H640 0.951 . S
C658 C659 1.366 . S
C658 C660 1.388 . S
C659 C658 1.366 . S
C659 C663 1.385 1_445 S
C660 H641 0.951 . S
C660 C658 1.388 . S
C660 C661 1.366 . S
C661 C660 1.366 . S
C661 C662 1.414 1_445 S
C661 C664 1.499 . S
C662 H642 0.950 . S
C662 C661 1.414 1_665 S
C662 C663 1.374 . S
C663 H643 0.950 . S
C663 C659 1.385 1_665 S
C663 C662 1.374 . S
C664 C661 1.499 . S
C664 C665 1.373 1_545 S
C664 C666 1.390 1_455 S
C665 H644 0.950 . S
C665 C664 1.373 1_565 S
C665 C681 1.377 . S
C666 C664 1.390 1_655 S
C666 C667 1.524 . S
C666 C680 1.377 1_655 S
C667 C666 1.524 . S
C667 C668 1.397 . S
C667 C672 1.373 . S
C668 H645 0.950 . S
C668 C667 1.397 . S
C668 C669 1.334 . S
C669 H646 0.950 . S
C669 C668 1.334 . S
C669 C670 1.287 . S
C670 C669 1.287 . S
C670 C671 1.524 . S
C670 H689 0.913 . S
C671 H647 0.950 . S
C671 C670 1.524 . S
C671 C672 1.425 . S
C672 H648 0.931 1_655 S
C672 C667 1.373 . S
C672 C671 1.425 . S
C673 H649 0.951 . S
C673 C674 1.366 1_665 S
C673 C675 1.388 . S
C674 C673 1.366 1_445 S
C674 C678 1.385 . S
C675 H650 0.951 . S
C675 C673 1.388 . S
C675 C676 1.366 1_665 S
C676 C675 1.366 1_445 S
C676 C677 1.414 . S
C676 C679 1.499 . S
C677 H651 0.950 . S
C677 C676 1.414 . S
C677 C678 1.374 . S
C678 H652 0.950 . S
C678 C674 1.385 . S
C678 C677 1.374 . S
C679 C676 1.499 . S
C679 C680 1.373 . S
C679 C681 1.389 1_545 S
C680 H653 0.950 1_455 S
C680 C666 1.377 1_455 S
C680 C679 1.373 . S
C681 C665 1.377 . S
C681 C679 1.389 1_565 S
C681 C682 1.524 . S
C682 C681 1.524 . S
C682 C683 1.397 . S
C682 C687 1.363 . S
C683 H654 0.950 . S
C683 C682 1.397 . S
C683 C684 1.334 . S
C684 H655 0.950 . S
C684 C683 1.334 . S
C684 C685 1.287 . S
C685 C684 1.287 . S
C685 C686 1.524 . S
C685 H688 0.999 . S
C686 H656 0.950 . S
C686 C685 1.524 . S
C686 C687 1.415 . S
C687 H657 0.950 . S
C687 C682 1.363 . S
C687 C686 1.415 . S
H688 C685 0.999 . S
H689 C670 0.913 . S
H690 C708 0.951 . S
H691 C710 0.951 . S
H692 C712 0.950 . S
H693 C713 0.950 . S
H694 C715 0.950 . S
H695 C718 0.950 . S
H696 C719 0.950 . S
H697 C721 0.950 . S
H698 C722 0.950 . S
H699 C723 0.951 . S
H700 C725 0.951 . S
H701 C727 0.950 . S
H702 C728 0.950 . S
H703 C730 0.950 . S
H704 C733 0.950 . S
H705 C734 0.950 . S
H706 C736 0.950 . S
H707 C737 0.950 . S
C708 H690 0.951 . S
C708 C709 1.366 . S
C708 C710 1.388 . S
C709 C708 1.366 . S
C709 C713 1.385 . S
C710 H691 0.951 . S
C710 C708 1.388 . S
C710 C711 1.366 . S
C711 C710 1.366 . S
C711 C712 1.414 . S
C711 C714 1.499 . S
C712 H692 0.950 . S
C712 C711 1.414 . S
C712 C713 1.374 . S
C713 H693 0.950 . S
C713 C709 1.385 . S
C713 C712 1.374 . S
C714 C711 1.499 . S
C714 C715 1.373 . S
C714 C716 1.389 . S
C715 H694 0.950 . S
C715 C714 1.373 . S
C715 C731 1.377 . S
C716 C714 1.389 . S
C716 C717 1.524 . S
C716 C730 1.377 . S
C717 C716 1.524 . S
C717 C718 1.397 . S
C717 C722 1.363 . S
C718 H695 0.950 . S
C718 C717 1.397 . S
C718 C719 1.334 . S
C719 H696 0.950 . S
C719 C718 1.334 . S
C719 C720 1.287 . S
C720 C719 1.287 . S
C720 C721 1.524 . S
C720 H739 0.913 . S
C721 H697 0.950 . S
C721 C720 1.524 . S
C721 C722 1.415 . S
C722 H698 0.950 . S
C722 C717 1.363 . S
C722 C721 1.415 . S
C723 H699 0.951 . S
C723 C724 1.366 . S
C723 C725 1.388 . S
C724 C723 1.366 . S
C724 C728 1.385 . S
C725 H700 0.951 . S
C725 C723 1.388 . S
C725 C726 1.366 . S
C726 C725 1.366 . S
C726 C727 1.414 . S
C726 C729 1.499 . S
C727 H701 0.950 . S
C727 C726 1.414 . S
C727 C728 1.374 . S
C728 H702 0.950 . S
C728 C724 1.385 . S
C728 C727 1.374 . S
C729 C726 1.499 . S
C729 C730 1.373 . S
C729 C731 1.389 . S
C730 H703 0.950 . S
C730 C716 1.377 . S
C730 C729 1.373 . S
C731 C715 1.377 . S
C731 C729 1.389 . S
C731 C732 1.524 . S
C732 C731 1.524 . S
C732 C733 1.397 . S
C732 C737 1.363 . S
C733 H704 0.950 . S
C733 C732 1.397 . S
C733 C734 1.334 . S
C734 H705 0.950 . S
C734 C733 1.334 . S
C734 C735 1.287 . S
C735 C734 1.287 . S
C735 C736 1.524 . S
C735 H738 0.999 . S
C736 H706 0.950 . S
C736 C735 1.524 . S
C736 C737 1.415 . S
C737 H707 0.950 . S
C737 C732 1.363 . S
C737 C736 1.415 . S
H738 C735 0.999 . S
H739 C720 0.913 . S
H740 C758 0.951 . S
H741 C760 0.951 . S
H742 C762 0.950 . S
H743 C763 0.950 . S
H744 C765 0.950 . S
H745 C768 0.950 . S
H746 C769 0.950 . S
H747 C771 0.950 . S
H748 C772 0.950 . S
H749 C773 0.951 . S
H750 C775 0.951 . S
H751 C777 0.950 . S
H752 C778 0.950 . S
H753 C780 0.950 . S
H754 C783 0.950 . S
H755 C784 0.950 . S
H756 C786 0.950 . S
H757 C787 0.950 . S
C758 H740 0.951 . S
C758 C759 1.366 . S
C758 C760 1.388 . S
C759 C758 1.366 . S
C759 C763 1.385 . S
C760 H741 0.951 . S
C760 C758 1.388 . S
C760 C761 1.366 . S
C761 C760 1.366 . S
C761 C762 1.414 . S
C761 C764 1.499 . S
C762 H742 0.950 . S
C762 C761 1.414 . S
C762 C763 1.374 . S
C763 H743 0.950 . S
C763 C759 1.385 . S
C763 C762 1.374 . S
C764 C761 1.499 . S
C764 C765 1.373 . S
C764 C766 1.389 . S
C765 H744 0.950 . S
C765 C764 1.373 . S
C765 C781 1.377 . S
C766 C764 1.389 . S
C766 C767 1.524 . S
C766 C780 1.377 . S
C767 C766 1.524 . S
C767 C768 1.397 . S
C767 C772 1.363 . S
C768 H745 0.950 . S
C768 C767 1.397 . S
C768 C769 1.334 . S
C769 H746 0.950 . S
C769 C768 1.334 . S
C769 C770 1.287 . S
C770 C769 1.287 . S
C770 C771 1.524 . S
C770 H789 0.913 . S
C771 H747 0.950 . S
C771 C770 1.524 . S
C771 C772 1.415 . S
C772 H748 0.950 . S
C772 C767 1.363 . S
C772 C771 1.415 . S
C773 H749 0.951 . S
C773 C774 1.366 . S
C773 C775 1.388 . S
C774 C773 1.366 . S
C774 C778 1.385 . S
C775 H750 0.951 . S
C775 C773 1.388 . S
C775 C776 1.366 . S
C776 C775 1.366 . S
C776 C777 1.414 . S
C776 C779 1.499 . S
C777 H751 0.950 . S
C777 C776 1.414 . S
C777 C778 1.374 . S
C778 H752 0.950 . S
C778 C774 1.385 . S
C778 C777 1.374 . S
C779 C776 1.499 . S
C779 C780 1.373 . S
C779 C781 1.389 . S
C780 H753 0.950 . S
C780 C766 1.377 . S
C780 C779 1.373 . S
C781 C765 1.377 . S
C781 C779 1.389 . S
C781 C782 1.524 . S
C782 C781 1.524 . S
C782 C783 1.397 . S
C782 C787 1.363 . S
C783 H754 0.950 . S
C783 C782 1.397 . S
C783 C784 1.334 . S
C784 H755 0.950 . S
C784 C783 1.334 . S
C784 C785 1.287 . S
C785 C784 1.287 . S
C785 C786 1.524 . S
C785 H788 0.999 . S
C786 H756 0.950 . S
C786 C785 1.524 . S
C786 C787 1.415 . S
C787 H757 0.950 . S
C787 C782 1.363 . S
C787 C786 1.415 . S
H788 C785 0.999 . S
H789 C770 0.913 . S
C224 C155 1.413 . S
C209 C21 1.412 . S
C259 C19 1.401 1_556 S
C274 C119 1.404 . S
C309 C18 1.367 . S
C324 C179 1.362 . S
C359 C20 1.393 1_556 S
C374 C143 1.377 . S
C409 C44 1.412 . S
C424 C83 1.413 . S
C459 C42 1.401 . S
C474 C47 1.404 . S
C524 C107 1.361 . S
C509 C41 1.367 . S
C574 C71 1.376 . S
C559 C43 1.393 . S
C609 C16 1.489 . S
C624 C77 1.485 . S
C659 C17 1.448 . S
C674 C113 1.447 . S
C724 C149 1.484 . S
C709 C39 1.489 . S
C759 C40 1.448 . S
C774 C185 1.446 . S
