# Generated by pormake.
# Topology ctn, (3,4)-cn, num edge types: 1
# Building blocks:
#     Node 0, Type 0, BuildingBlock: QEWDON_clean_linker_0, # of connection points: 3
#     Node 1, Type 0, BuildingBlock: QEWDON_clean_linker_0, # of connection points: 3
#     Node 2, Type 0, BuildingBlock: QEWDON_clean_linker_0, # of connection points: 3
#     Node 3, Type 0, BuildingBlock: QEWDON_clean_linker_0, # of connection points: 3
#     Node 4, Type 0, BuildingBlock: QEWDON_clean_linker_0, # of connection points: 3
#     Node 5, Type 0, BuildingBlock: QEWDON_clean_linker_0, # of connection points: 3
#     Node 6, Type 0, BuildingBlock: QEWDON_clean_linker_0, # of connection points: 3
#     Node 7, Type 0, BuildingBlock: QEWDON_clean_linker_0, # of connection points: 3
#     Node 8, Type 0, BuildingBlock: QEWDON_clean_linker_0, # of connection points: 3
#     Node 9, Type 0, BuildingBlock: QEWDON_clean_linker_0, # of connection points: 3
#     Node 10, Type 0, BuildingBlock: QEWDON_clean_linker_0, # of connection points: 3
#     Node 11, Type 0, BuildingBlock: QEWDON_clean_linker_0, # of connection points: 3
#     Node 12, Type 0, BuildingBlock: QEWDON_clean_linker_0, # of connection points: 3
#     Node 13, Type 0, BuildingBlock: QEWDON_clean_linker_0, # of connection points: 3
#     Node 14, Type 0, BuildingBlock: QEWDON_clean_linker_0, # of connection points: 3
#     Node 15, Type 0, BuildingBlock: QEWDON_clean_linker_0, # of connection points: 3
#     Node 16, Type 1, BuildingBlock: QUQFOY_clean_sbu_1, # of connection points: 4
#     Node 17, Type 1, BuildingBlock: QUQFOY_clean_sbu_1, # of connection points: 4
#     Node 18, Type 1, BuildingBlock: QUQFOY_clean_sbu_1, # of connection points: 4
#     Node 19, Type 1, BuildingBlock: QUQFOY_clean_sbu_1, # of connection points: 4
#     Node 20, Type 1, BuildingBlock: QUQFOY_clean_sbu_1, # of connection points: 4
#     Node 21, Type 1, BuildingBlock: QUQFOY_clean_sbu_1, # of connection points: 4
#     Node 22, Type 1, BuildingBlock: QUQFOY_clean_sbu_1, # of connection points: 4
#     Node 23, Type 1, BuildingBlock: QUQFOY_clean_sbu_1, # of connection points: 4
#     Node 24, Type 1, BuildingBlock: QUQFOY_clean_sbu_1, # of connection points: 4
#     Node 25, Type 1, BuildingBlock: QUQFOY_clean_sbu_1, # of connection points: 4
#     Node 26, Type 1, BuildingBlock: QUQFOY_clean_sbu_1, # of connection points: 4
#     Node 27, Type 1, BuildingBlock: QUQFOY_clean_sbu_1, # of connection points: 4
#     Edge 28, Type (0, 1), BuildingBlock: AJUNOK_clean_linker_0, # of connection points: 2
#     Edge 29, Type (0, 1), BuildingBlock: AJUNOK_clean_linker_0, # of connection points: 2
#     Edge 30, Type (0, 1), BuildingBlock: AJUNOK_clean_linker_0, # of connection points: 2
#     Edge 31, Type (0, 1), BuildingBlock: AJUNOK_clean_linker_0, # of connection points: 2
#     Edge 32, Type (0, 1), BuildingBlock: AJUNOK_clean_linker_0, # of connection points: 2
#     Edge 33, Type (0, 1), BuildingBlock: AJUNOK_clean_linker_0, # of connection points: 2
#     Edge 34, Type (0, 1), BuildingBlock: AJUNOK_clean_linker_0, # of connection points: 2
#     Edge 35, Type (0, 1), BuildingBlock: AJUNOK_clean_linker_0, # of connection points: 2
#     Edge 36, Type (0, 1), BuildingBlock: AJUNOK_clean_linker_0, # of connection points: 2
#     Edge 37, Type (0, 1), BuildingBlock: AJUNOK_clean_linker_0, # of connection points: 2
#     Edge 38, Type (0, 1), BuildingBlock: AJUNOK_clean_linker_0, # of connection points: 2
#     Edge 39, Type (0, 1), BuildingBlock: AJUNOK_clean_linker_0, # of connection points: 2
#     Edge 40, Type (0, 1), BuildingBlock: AJUNOK_clean_linker_0, # of connection points: 2
#     Edge 41, Type (0, 1), BuildingBlock: AJUNOK_clean_linker_0, # of connection points: 2
#     Edge 42, Type (0, 1), BuildingBlock: AJUNOK_clean_linker_0, # of connection points: 2
#     Edge 43, Type (0, 1), BuildingBlock: AJUNOK_clean_linker_0, # of connection points: 2
#     Edge 44, Type (0, 1), BuildingBlock: AJUNOK_clean_linker_0, # of connection points: 2
#     Edge 45, Type (0, 1), BuildingBlock: AJUNOK_clean_linker_0, # of connection points: 2
#     Edge 46, Type (0, 1), BuildingBlock: AJUNOK_clean_linker_0, # of connection points: 2
#     Edge 47, Type (0, 1), BuildingBlock: AJUNOK_clean_linker_0, # of connection points: 2
#     Edge 48, Type (0, 1), BuildingBlock: AJUNOK_clean_linker_0, # of connection points: 2
#     Edge 49, Type (0, 1), BuildingBlock: AJUNOK_clean_linker_0, # of connection points: 2
#     Edge 50, Type (0, 1), BuildingBlock: AJUNOK_clean_linker_0, # of connection points: 2
#     Edge 51, Type (0, 1), BuildingBlock: AJUNOK_clean_linker_0, # of connection points: 2
#     Edge 52, Type (0, 1), BuildingBlock: AJUNOK_clean_linker_0, # of connection points: 2
#     Edge 53, Type (0, 1), BuildingBlock: AJUNOK_clean_linker_0, # of connection points: 2
#     Edge 54, Type (0, 1), BuildingBlock: AJUNOK_clean_linker_0, # of connection points: 2
#     Edge 55, Type (0, 1), BuildingBlock: AJUNOK_clean_linker_0, # of connection points: 2
#     Edge 56, Type (0, 1), BuildingBlock: AJUNOK_clean_linker_0, # of connection points: 2
#     Edge 57, Type (0, 1), BuildingBlock: AJUNOK_clean_linker_0, # of connection points: 2
#     Edge 58, Type (0, 1), BuildingBlock: AJUNOK_clean_linker_0, # of connection points: 2
#     Edge 59, Type (0, 1), BuildingBlock: AJUNOK_clean_linker_0, # of connection points: 2
#     Edge 60, Type (0, 1), BuildingBlock: AJUNOK_clean_linker_0, # of connection points: 2
#     Edge 61, Type (0, 1), BuildingBlock: AJUNOK_clean_linker_0, # of connection points: 2
#     Edge 62, Type (0, 1), BuildingBlock: AJUNOK_clean_linker_0, # of connection points: 2
#     Edge 63, Type (0, 1), BuildingBlock: AJUNOK_clean_linker_0, # of connection points: 2
#     Edge 64, Type (0, 1), BuildingBlock: AJUNOK_clean_linker_0, # of connection points: 2
#     Edge 65, Type (0, 1), BuildingBlock: AJUNOK_clean_linker_0, # of connection points: 2
#     Edge 66, Type (0, 1), BuildingBlock: AJUNOK_clean_linker_0, # of connection points: 2
#     Edge 67, Type (0, 1), BuildingBlock: AJUNOK_clean_linker_0, # of connection points: 2
#     Edge 68, Type (0, 1), BuildingBlock: AJUNOK_clean_linker_0, # of connection points: 2
#     Edge 69, Type (0, 1), BuildingBlock: AJUNOK_clean_linker_0, # of connection points: 2
#     Edge 70, Type (0, 1), BuildingBlock: AJUNOK_clean_linker_0, # of connection points: 2
#     Edge 71, Type (0, 1), BuildingBlock: AJUNOK_clean_linker_0, # of connection points: 2
#     Edge 72, Type (0, 1), BuildingBlock: AJUNOK_clean_linker_0, # of connection points: 2
#     Edge 73, Type (0, 1), BuildingBlock: AJUNOK_clean_linker_0, # of connection points: 2
#     Edge 74, Type (0, 1), BuildingBlock: AJUNOK_clean_linker_0, # of connection points: 2
#     Edge 75, Type (0, 1), BuildingBlock: AJUNOK_clean_linker_0, # of connection points: 2
# Relax obj value: 0.134
# Max RMSD: 0.252
# Mean RMSD: 0.167
data_MOF--net-ctn--node1-QUQFOY_clean_sbu_1--node2-QEWDON_clean_linker_0--edge1-AJUNOK_clean_linker_0
_symmetry_space_group_name_H-M    P1
_symmetry_Int_Tables_number       1
_symmetry_cell_setting            triclinic
loop_
_symmetry_equiv_pos_as_xyz
'x, y, z'
_cell_length_a     38.571088
_cell_length_b     40.394199
_cell_length_c     44.229003
_cell_angle_alpha  102.57594
_cell_angle_beta   92.339211
_cell_angle_gamma 102.4117
loop_
_atom_site_label
_atom_site_type_symbol
_atom_site_fract_x
_atom_site_fract_y
_atom_site_fract_z
_atom_type_partial_charge
H0 H 0.12874 0.02842 0.05587 0.0
C1 C 0.11264 0.0251 0.075 0.0
C2 C 0.11056 0.9955 0.08728 0.0
C3 C 0.09583 0.05146 0.08836 0.0
H4 H 0.09059 0.9703 0.12335 0.0
C5 C 0.09122 0.99255 0.11327 0.0
C6 C 0.07302 0.01833 0.1263 0.0
C7 C 0.07578 0.04776 0.11364 0.0
C8 C 0.1014 0.08416 0.07753 0.0
H9 H 0.06219 0.06797 0.12334 0.0
C10 C 0.09181 0.08403 0.04644 0.0
C11 C 0.09728 0.11555 0.03668 0.0
C12 C 0.11676 0.11587 0.09864 0.0
H13 H 0.12443 0.11645 0.12263 0.0
C14 C 0.12285 0.14701 0.08888 0.0
H15 H 0.07979 0.05963 0.03009 0.0
C16 C 0.1132 0.14693 0.05814 0.0
H17 H 0.11745 0.17155 0.05127 0.0
H18 H 0.13484 0.17134 0.10526 0.0
H19 H 0.38838 0.75313 0.2619 0.0
C20 C 0.36455 0.73243 0.25466 0.0
C21 C 0.36352 0.69951 0.26072 0.0
C22 C 0.33451 0.73933 0.24041 0.0
H23 H 0.33034 0.64902 0.2592 0.0
C24 C 0.33166 0.67386 0.25321 0.0
C25 C 0.30109 0.6805 0.23954 0.0
C26 C 0.30314 0.71298 0.23217 0.0
C27 C 0.33475 0.77506 0.23709 0.0
H28 H 0.27992 0.71841 0.22135 0.0
C29 C 0.32549 0.7814 0.20813 0.0
C30 C 0.3252 0.81545 0.20546 0.0
C31 C 0.34364 0.80303 0.26336 0.0
H32 H 0.35061 0.7987 0.28593 0.0
C33 C 0.34304 0.83674 0.26084 0.0
H34 H 0.31885 0.75998 0.18771 0.0
C35 C 0.33391 0.84299 0.23209 0.0
H36 H 0.33442 0.86948 0.23051 0.0
H37 H 0.34987 0.85813 0.28121 0.0
H38 H 0.97478 0.43884 0.06469 0.0
C39 C 0.9666 0.45918 0.05571 0.0
C40 C 0.97538 0.49362 0.07347 0.0
C41 C 0.94592 0.45042 0.02717 0.0
H42 H 0.96891 0.54591 0.07643 0.0
C43 C 0.96297 0.51953 0.06237 0.0
C44 C 0.94233 0.51123 0.03357 0.0
C45 C 0.93455 0.47657 0.01599 0.0
C46 C 0.93451 0.41357 0.00991 0.0
H47 H 0.91929 0.46971 0.9935 0.0
C48 C 0.95913 0.39223 0.00537 0.0
C49 C 0.94795 0.35697 0.98989 0.0
C50 C 0.89858 0.39931 0.99863 0.0
H51 H 0.87904 0.41513 0.00214 0.0
C52 C 0.88741 0.36431 0.98321 0.0
H53 H 0.98696 0.40305 0.01373 0.0
C54 C 0.91189 0.34321 0.97881 0.0
H55 H 0.90278 0.31628 0.96619 0.0
H56 H 0.85971 0.35352 0.97457 0.0
H57 H 0.79518 0.8027 0.27778 0.0
C58 C 0.80268 0.79271 0.25484 0.0
C59 C 0.81996 0.81609 0.23794 0.0
C60 C 0.79475 0.7565 0.24215 0.0
H61 H 0.84331 0.82063 0.19513 0.0
C62 C 0.82934 0.80289 0.20817 0.0
C63 C 0.82053 0.76712 0.19464 0.0
C64 C 0.80354 0.74396 0.21184 0.0
C65 C 0.77595 0.73185 0.25992 0.0
H66 H 0.79565 0.71635 0.20108 0.0
C67 C 0.74789 0.73974 0.27742 0.0
C68 C 0.72879 0.71584 0.29307 0.0
C69 C 0.78548 0.69998 0.25905 0.0
H70 H 0.80729 0.69333 0.24618 0.0
C71 C 0.76716 0.67646 0.27506 0.0
H72 H 0.74055 0.76436 0.27851 0.0
C73 C 0.7389 0.6842 0.29186 0.0
H74 H 0.7246 0.66516 0.30348 0.0
H75 H 0.77469 0.65199 0.27422 0.0
H76 H 0.13742 0.98587 0.49536 0.0
C77 C 0.11652 0.9905 0.48077 0.0
C78 C 0.12269 0.02046 0.46872 0.0
C79 C 0.08416 0.96553 0.47259 0.0
H80 H 0.10076 0.0487 0.43963 0.0
C81 C 0.09571 0.02605 0.44962 0.0
C82 C 0.06341 0.00127 0.44111 0.0
C83 C 0.05784 0.97075 0.45234 0.0
C84 C 0.0799 0.932 0.48181 0.0
H85 H 0.0334 0.95087 0.44493 0.0
C86 C 0.07514 0.9297 0.51275 0.0
C87 C 0.0722 0.89752 0.52109 0.0
C88 C 0.08172 0.90212 0.45937 0.0
H89 H 0.08549 0.90351 0.43549 0.0
C90 C 0.07931 0.87038 0.46766 0.0
H91 H 0.07362 0.95272 0.53013 0.0
C92 C 0.07467 0.86805 0.4983 0.0
H93 H 0.07224 0.84298 0.5041 0.0
H94 H 0.0809 0.84746 0.45025 0.0
H95 H 0.31289 0.70125 0.77614 0.0
C96 C 0.30507 0.71106 0.79903 0.0
C97 C 0.31178 0.69576 0.82372 0.0
C98 C 0.28788 0.73884 0.80365 0.0
H99 H 0.3065 0.69744 0.87245 0.0
C100 C 0.3009 0.70864 0.85315 0.0
C101 C 0.28384 0.73658 0.85812 0.0
C102 C 0.27733 0.75135 0.83312 0.0
C103 C 0.28289 0.75674 0.77851 0.0
H104 H 0.26576 0.77395 0.83689 0.0
C105 C 0.24893 0.76106 0.76994 0.0
C106 C 0.24437 0.78111 0.74828 0.0
C107 C 0.31247 0.77193 0.76478 0.0
H108 H 0.3389 0.76911 0.77123 0.0
C109 C 0.30837 0.79226 0.74367 0.0
H110 H 0.2261 0.74853 0.78012 0.0
C111 C 0.27474 0.79729 0.7358 0.0
H112 H 0.27274 0.81427 0.72029 0.0
H113 H 0.33145 0.80468 0.73378 0.0
H114 H 0.98788 0.64439 0.50113 0.0
C115 C 0.97262 0.61926 0.50331 0.0
C116 C 0.96251 0.61475 0.53251 0.0
C117 C 0.96269 0.59182 0.47677 0.0
H118 H 0.9327 0.57941 0.55725 0.0
C119 C 0.9422 0.58241 0.53504 0.0
C120 C 0.93199 0.55467 0.5087 0.0
C121 C 0.94266 0.55943 0.47961 0.0
C122 C 0.97021 0.59839 0.44584 0.0
H123 H 0.93411 0.53843 0.45902 0.0
C124 C 0.98885 0.57803 0.42557 0.0
C125 C 0.99609 0.58527 0.39642 0.0
C126 C 0.95863 0.62569 0.43664 0.0
H127 H 0.9441 0.64154 0.45185 0.0
C128 C 0.96535 0.63258 0.40766 0.0
H129 H 0.9979 0.55695 0.43254 0.0
C130 C 0.98396 0.61257 0.38766 0.0
H131 H 0.98938 0.61878 0.36544 0.0
H132 H 0.95627 0.65362 0.40073 0.0
H133 H 0.87093 0.87204 0.82014 0.0
C134 C 0.87062 0.8528 0.83383 0.0
C135 C 0.89019 0.82683 0.82575 0.0
C136 C 0.85137 0.85459 0.86025 0.0
H137 H 0.9053 0.78298 0.83906 0.0
C138 C 0.88932 0.80219 0.84413 0.0
C139 C 0.86898 0.80284 0.86972 0.0
C140 C 0.85 0.82896 0.87738 0.0
C141 C 0.83533 0.88465 0.87234 0.0
H142 H 0.83429 0.82967 0.89721 0.0
C143 C 0.81307 0.89674 0.85319 0.0
C144 C 0.7973 0.9245 0.86614 0.0
C145 C 0.84214 0.90109 0.90419 0.0
H146 H 0.85961 0.89278 0.91934 0.0
C147 C 0.82664 0.92839 0.91694 0.0
H148 H 0.80798 0.88459 0.82857 0.0
C149 C 0.80425 0.9399 0.89818 0.0
H150 H 0.79218 0.96093 0.90883 0.0
H151 H 0.83192 0.94063 0.94151 0.0
H152 H 0.36588 0.37012 0.31625 0.0
C153 C 0.36432 0.35133 0.33058 0.0
C154 C 0.38289 0.32449 0.32356 0.0
C155 C 0.34471 0.35465 0.35676 0.0
H156 H 0.39812 0.28233 0.33967 0.0
C157 C 0.38185 0.30138 0.34341 0.0
C158 C 0.36092 0.30328 0.36866 0.0
C159 C 0.3423 0.32988 0.37493 0.0
C160 C 0.32942 0.38552 0.36742 0.0
H161 H 0.32612 0.33171 0.39445 0.0
C162 C 0.30808 0.39717 0.34714 0.0
C163 C 0.29387 0.42641 0.35852 0.0
C164 C 0.33634 0.4035 0.39888 0.0
H165 H 0.35303 0.39543 0.41487 0.0
C166 C 0.32209 0.43216 0.41011 0.0
H167 H 0.30253 0.38365 0.32284 0.0
C168 C 0.3009 0.44349 0.39016 0.0
H169 H 0.28983 0.46569 0.3995 0.0
H170 H 0.32748 0.44565 0.43439 0.0
H171 H 0.4804 0.94908 0.56584 0.0
C172 C 0.4714 0.97073 0.56 0.0
C173 C 0.48283 0.00435 0.57934 0.0
C174 C 0.44774 0.96453 0.53345 0.0
H175 H 0.48081 0.05852 0.58498 0.0
C176 C 0.47189 0.03236 0.57058 0.0
C177 C 0.4493 0.02662 0.54326 0.0
C178 C 0.43701 0.99256 0.52515 0.0
C179 C 0.43296 0.92854 0.51514 0.0
H180 H 0.41882 0.9878 0.5045 0.0
C181 C 0.45542 0.90559 0.50637 0.0
C182 C 0.44107 0.87108 0.49008 0.0
C183 C 0.39603 0.9167 0.50706 0.0
H184 H 0.37815 0.9338 0.51381 0.0
C185 C 0.38175 0.88243 0.49075 0.0
H186 H 0.48398 0.91451 0.51223 0.0
C187 C 0.40408 0.85966 0.48232 0.0
H188 H 0.39255 0.83323 0.46938 0.0
H189 H 0.35328 0.87347 0.48467 0.0
H190 H 0.31006 0.30472 0.78129 0.0
C191 C 0.30953 0.29376 0.75655 0.0
C192 C 0.31975 0.31587 0.73649 0.0
C193 C 0.2998 0.2575 0.74493 0.0
H194 H 0.32854 0.31887 0.68935 0.0
C195 C 0.31975 0.30172 0.70469 0.0
C196 C 0.31065 0.26556 0.69283 0.0
C197 C 0.30075 0.24346 0.71307 0.0
C198 C 0.2893 0.23446 0.76633 0.0
H199 H 0.29324 0.21546 0.70401 0.0
C200 C 0.2608 0.2384 0.7845 0.0
C201 C 0.25088 0.21706 0.80543 0.0
C202 C 0.308 0.20891 0.76906 0.0
H203 H 0.33009 0.20553 0.75526 0.0
C204 C 0.29886 0.18817 0.79028 0.0
H205 H 0.24586 0.25758 0.78172 0.0
C206 C 0.27066 0.19231 0.80852 0.0
H207 H 0.26448 0.17625 0.82513 0.0
H208 H 0.31377 0.1689 0.7927 0.0
H209 H 0.90067 0.25879 0.75758 0.0
C210 C 0.87746 0.23733 0.75423 0.0
C211 C 0.87955 0.20698 0.7642 0.0
C212 C 0.84518 0.241 0.74109 0.0
H213 H 0.84889 0.15843 0.77105 0.0
C214 C 0.84861 0.18024 0.7606 0.0
C215 C 0.81658 0.18251 0.74566 0.0
C216 C 0.81523 0.21306 0.73573 0.0
C217 C 0.84165 0.27552 0.73691 0.0
H218 H 0.79043 0.21589 0.72532 0.0
C219 C 0.82913 0.27993 0.70807 0.0
C220 C 0.8253 0.31294 0.70488 0.0
C221 C 0.85005 0.30428 0.76254 0.0
H222 H 0.85944 0.30138 0.78504 0.0
C223 C 0.84587 0.33688 0.75953 0.0
H224 H 0.82282 0.2579 0.68815 0.0
C225 C 0.83364 0.34128 0.73089 0.0
H226 H 0.83156 0.36704 0.72886 0.0
H227 H 0.85239 0.35888 0.77941 0.0
H228 H 0.63356 0.53941 0.55389 0.0
C229 C 0.61779 0.53623 0.57324 0.0
C230 C 0.61552 0.50649 0.58538 0.0
C231 C 0.60159 0.56292 0.58695 0.0
H232 H 0.59292 0.48015 0.62008 0.0
C233 C 0.59477 0.50289 0.61049 0.0
C234 C 0.57736 0.52916 0.62393 0.0
C235 C 0.58181 0.55946 0.61239 0.0
C236 C 0.60816 0.59587 0.57653 0.0
H237 H 0.57051 0.58086 0.62358 0.0
C238 C 0.59613 0.5967 0.5463 0.0
C239 C 0.60305 0.62828 0.53663 0.0
C240 C 0.62712 0.62671 0.59699 0.0
H241 H 0.63664 0.62649 0.62033 0.0
C242 C 0.63433 0.65796 0.58738 0.0
H243 H 0.58116 0.57299 0.53054 0.0
C244 C 0.62236 0.65882 0.55743 0.0
H245 H 0.62744 0.68357 0.55075 0.0
H246 H 0.64898 0.68165 0.60327 0.0
H247 H 0.63469 0.50518 0.00852 0.0
C248 C 0.61359 0.5096 0.994 0.0
C249 C 0.61925 0.53984 0.98233 0.0
C250 C 0.58204 0.48371 0.98484 0.0
H251 H 0.59736 0.56711 0.9522 0.0
C252 C 0.59243 0.5447 0.96253 0.0
C253 C 0.56107 0.51884 0.95288 0.0
C254 C 0.55601 0.48825 0.96394 0.0
C255 C 0.57932 0.44952 0.99252 0.0
H256 H 0.53261 0.46739 0.95523 0.0
C257 C 0.57339 0.44492 0.0227 0.0
C258 C 0.57194 0.41215 0.0295 0.0
C259 C 0.5839 0.42139 0.96933 0.0
H260 H 0.58864 0.42458 0.94604 0.0
C261 C 0.58299 0.38912 0.97613 0.0
H262 H 0.5698 0.4666 0.04065 0.0
C263 C 0.57712 0.38449 0.00599 0.0
H264 H 0.57585 0.35899 0.01057 0.0
H265 H 0.58669 0.36757 0.95815 0.0
H266 H 0.80477 0.19749 0.27459 0.0
C267 C 0.79754 0.20796 0.29755 0.0
C268 C 0.80427 0.19302 0.32248 0.0
C269 C 0.78113 0.2363 0.30206 0.0
H270 H 0.79914 0.1954 0.37125 0.0
C271 C 0.7941 0.20678 0.35195 0.0
C272 C 0.77886 0.23594 0.35704 0.0
C273 C 0.77181 0.25003 0.33173 0.0
C274 C 0.77604 0.25371 0.2766 0.0
H275 H 0.76078 0.27298 0.33537 0.0
C276 C 0.74207 0.2579 0.2679 0.0
C277 C 0.73747 0.27761 0.24595 0.0
C278 C 0.80561 0.26869 0.26273 0.0
H279 H 0.83204 0.26596 0.26929 0.0
C280 C 0.80148 0.28869 0.24136 0.0
H281 H 0.71927 0.24555 0.27824 0.0
C282 C 0.76784 0.29361 0.23336 0.0
H283 H 0.76584 0.31038 0.21765 0.0
H284 H 0.82456 0.30098 0.23137 0.0
H285 H 0.48528 0.1477 0.99557 0.0
C286 C 0.47009 0.12255 0.99777 0.0
C287 C 0.45885 0.11838 0.02674 0.0
C288 C 0.46122 0.0948 0.97141 0.0
H289 H 0.42938 0.08286 0.05153 0.0
C290 C 0.43909 0.08585 0.02939 0.0
C291 C 0.42958 0.05793 0.00314 0.0
C292 C 0.44131 0.06236 0.97425 0.0
C293 C 0.46917 0.10125 0.94049 0.0
H294 H 0.43359 0.0411 0.95377 0.0
C295 C 0.48884 0.08146 0.92079 0.0
C296 C 0.49612 0.08848 0.89157 0.0
C297 C 0.45689 0.12789 0.93073 0.0
H298 H 0.44158 0.1433 0.9455 0.0
C299 C 0.46395 0.13474 0.9018 0.0
H300 H 0.49861 0.06101 0.92822 0.0
C301 C 0.48349 0.11527 0.88234 0.0
H302 H 0.48924 0.12151 0.86019 0.0
H303 H 0.45441 0.15535 0.89449 0.0
O304 O 0.29547 0.82956 0.99911 0.0
Cd305 Cd 0.30639 0.86866 0.03916 0.0
Cd306 Cd 0.25353 0.88909 0.01214 0.0
O307 O 0.24758 0.84212 0.97995 0.0
O308 O 0.33369 0.85085 0.06877 0.0
O309 O 0.28157 0.86369 0.07762 0.0
C310 C 0.30826 0.85248 0.08667 0.0
C311 C 0.20461 0.90876 0.03301 0.0
C312 C 0.26982 0.82278 0.97809 0.0
C313 C 0.32772 0.93528 0.01938 0.0
O314 O 0.2957 0.92833 0.00749 0.0
O315 O 0.33758 0.91569 0.03529 0.0
O316 O 0.21059 0.90723 0.00435 0.0
O317 O 0.22572 0.89757 0.04976 0.0
O318 O 0.18308 0.55338 0.25998 0.0
Cd319 Cd 0.15478 0.51617 0.28085 0.0
Cd320 Cd 0.09913 0.53689 0.23721 0.0
O321 O 0.14374 0.57504 0.23728 0.0
O322 O 0.1941 0.5178 0.31211 0.0
O323 O 0.17073 0.47035 0.27598 0.0
C324 C 0.1944 0.48624 0.29893 0.0
C325 C 0.06127 0.52229 0.1914 0.0
C326 C 0.17563 0.57529 0.24558 0.0
C327 C 0.08454 0.53263 0.30402 0.0
O328 O 0.07468 0.53578 0.27725 0.0
O329 O 0.11481 0.52631 0.30964 0.0
O330 O 0.06322 0.55074 0.21191 0.0
O331 O 0.0807 0.50157 0.19698 0.0
O332 O 0.83962 0.71821 0.97716 0.0
Cd333 Cd 0.81824 0.69184 0.0096 0.0
Cd334 Cd 0.83635 0.63883 0.97062 0.0
O335 O 0.85026 0.67394 0.94277 0.0
O336 O 0.8107 0.72901 0.04424 0.0
O337 O 0.84463 0.69282 0.05018 0.0
C338 C 0.82991 0.71779 0.06246 0.0
C339 C 0.87536 0.60887 0.98736 0.0
C340 C 0.84995 0.70608 0.95095 0.0
C341 C 0.75989 0.62861 0.98468 0.0
O342 O 0.7835 0.61506 0.97102 0.0
O343 O 0.76798 0.65996 0.00015 0.0
O344 O 0.85977 0.59923 0.95947 0.0
O345 O 0.87052 0.637 0.00539 0.0
O346 O 0.97623 0.00651 0.31443 0.0
Cd347 Cd 0.95027 0.00551 0.27216 0.0
Cd348 Cd 0.90669 0.03458 0.31583 0.0
O349 O 0.94864 0.03884 0.34769 0.0
O350 O 0.97987 0.98258 0.24168 0.0
O351 O 0.97314 0.03581 0.24389 0.0
C352 C 0.98648 0.01012 0.2309 0.0
C353 C 0.87931 0.08099 0.31589 0.0
C354 C 0.9729 0.02205 0.3421 0.0
C355 C 0.87729 0.96341 0.27625 0.0
O356 O 0.87545 0.98489 0.30139 0.0
O357 O 0.90254 0.96959 0.2593 0.0
O358 O 0.8741 0.0628 0.33659 0.0
O359 O 0.90088 0.07326 0.29526 0.0
O360 O 0.32696 0.21769 0.47576 0.0
Cd361 Cd 0.30735 0.18865 0.50696 0.0
Cd362 Cd 0.33682 0.1411 0.47174 0.0
O363 O 0.34825 0.17756 0.44491 0.0
O364 O 0.29271 0.22172 0.54144 0.0
O365 O 0.33375 0.19265 0.54813 0.0
C366 C 0.31448 0.21376 0.56005 0.0
C367 C 0.38029 0.11996 0.49445 0.0
C368 C 0.34194 0.20783 0.4514 0.0
C369 C 0.25936 0.1185 0.47863 0.0
O370 O 0.28635 0.10952 0.46683 0.0
O371 O 0.26208 0.14939 0.49431 0.0
O372 O 0.37049 0.10977 0.46501 0.0
O373 O 0.36678 0.14391 0.51072 0.0
O374 O 0.49149 0.52218 0.81864 0.0
Cd375 Cd 0.46545 0.5096 0.77494 0.0
Cd376 Cd 0.41163 0.53423 0.80946 0.0
O377 O 0.44829 0.53707 0.84617 0.0
O378 O 0.50278 0.49592 0.74781 0.0
O379 O 0.47539 0.53697 0.74173 0.0
C380 C 0.49813 0.51854 0.73251 0.0
C381 C 0.3842 0.58113 0.8114 0.0
C382 C 0.47929 0.53102 0.8447 0.0
C383 C 0.3942 0.46002 0.773 0.0
O384 O 0.38201 0.48486 0.78818 0.0
O385 O 0.42635 0.46474 0.76644 0.0
O386 O 0.37553 0.55914 0.82851 0.0
O387 O 0.40879 0.57658 0.79298 0.0
O388 O 0.78779 0.32921 0.49963 0.0
Cd389 Cd 0.79799 0.36712 0.54041 0.0
Cd390 Cd 0.75031 0.39055 0.50963 0.0
O391 O 0.74343 0.34389 0.47687 0.0
O392 O 0.82522 0.34699 0.56809 0.0
O393 O 0.77399 0.3606 0.57907 0.0
C394 C 0.80054 0.3484 0.58675 0.0
C395 C 0.70421 0.41333 0.53186 0.0
C396 C 0.7646 0.32367 0.47678 0.0
C397 C 0.8258 0.43365 0.52191 0.0
O398 O 0.79529 0.42791 0.50725 0.0
O399 O 0.83204 0.41346 0.53876 0.0
O400 O 0.71034 0.41324 0.50341 0.0
O401 O 0.72297 0.39865 0.54741 0.0
O402 O 0.69522 0.05661 0.76978 0.0
Cd403 Cd 0.66275 0.01923 0.78774 0.0
Cd404 Cd 0.61261 0.04159 0.73878 0.0
O405 O 0.66073 0.07528 0.73909 0.0
O406 O 0.69797 0.0181 0.82142 0.0
O407 O 0.67679 0.97254 0.78275 0.0
C408 C 0.69831 0.98674 0.80752 0.0
C409 C 0.57611 0.02848 0.6924 0.0
C410 C 0.69104 0.07651 0.75201 0.0
C411 C 0.59161 0.03858 0.80484 0.0
O412 O 0.58597 0.04404 0.77804 0.0
O413 O 0.61975 0.02949 0.81254 0.0
O414 O 0.58269 0.05896 0.71072 0.0
O415 O 0.59019 0.00499 0.70027 0.0
O416 O 0.01347 0.23021 0.93079 0.0
Cd417 Cd 0.02519 0.18827 0.90094 0.0
Cd418 Cd 0.06855 0.23939 0.88478 0.0
O419 O 0.06029 0.27034 0.92618 0.0
O420 O 0.01181 0.14858 0.9217 0.0
O421 O 0.06728 0.17186 0.91448 0.0
C422 C 0.0455 0.15054 0.92669 0.0
C423 C 0.12392 0.23375 0.86827 0.0
C424 C 0.0322 0.2612 0.93926 0.0
C425 C 0.00255 0.20198 0.84217 0.0
O426 O 0.02708 0.22953 0.85108 0.0
O427 O 0.99973 0.17754 0.85654 0.0
O428 O 0.11304 0.2619 0.86859 0.0
O429 O 0.10389 0.2095 0.87863 0.0
O430 O 0.50077 0.73747 0.43045 0.0
Cd431 Cd 0.51105 0.69333 0.4031 0.0
Cd432 Cd 0.55014 0.74003 0.37753 0.0
O433 O 0.541 0.77651 0.41514 0.0
O434 O 0.50401 0.6578 0.42875 0.0
O435 O 0.55632 0.68051 0.41423 0.0
C436 C 0.53811 0.66091 0.43027 0.0
C437 C 0.60565 0.73965 0.35902 0.0
C438 C 0.51673 0.76901 0.4328 0.0
C439 C 0.48293 0.69359 0.34058 0.0
O440 O 0.50814 0.72046 0.34381 0.0
O441 O 0.48022 0.67555 0.36101 0.0
O442 O 0.58857 0.76275 0.35502 0.0
O443 O 0.59223 0.71806 0.37541 0.0
O444 O 0.00308 0.79295 0.72677 0.0
Cd445 Cd 0.03923 0.77821 0.69652 0.0
Cd446 Cd 0.00599 0.81337 0.66156 0.0
O447 O 0.9817 0.82738 0.70205 0.0
O448 O 0.07481 0.76417 0.72211 0.0
O449 O 0.08928 0.80584 0.69643 0.0
C450 C 0.09903 0.78701 0.71388 0.0
C451 C 0.0297 0.85295 0.63204 0.0
C452 C 0.98294 0.81376 0.72532 0.0
C453 C 0.99928 0.73578 0.63678 0.0
O454 O 0.98912 0.76313 0.6344 0.0
O455 O 0.02043 0.73645 0.65975 0.0
O456 O 0.9958 0.84313 0.63324 0.0
O457 O 0.05043 0.84206 0.64942 0.0
O458 O 0.49647 0.28959 0.22432 0.0
Cd459 Cd 0.53278 0.27617 0.19367 0.0
Cd460 Cd 0.50139 0.3151 0.16148 0.0
O461 O 0.47632 0.3265 0.20191 0.0
O462 O 0.56797 0.26029 0.21804 0.0
O463 O 0.58295 0.30407 0.19481 0.0
C464 C 0.59238 0.28396 0.21107 0.0
C465 C 0.52578 0.35755 0.13493 0.0
C466 C 0.47671 0.31097 0.22399 0.0
C467 C 0.49361 0.23804 0.13243 0.0
O468 O 0.48443 0.2663 0.13175 0.0
O469 O 0.51388 0.23647 0.15516 0.0
O470 O 0.49181 0.34731 0.13541 0.0
O471 O 0.54617 0.34524 0.15136 0.0
C472 C 0.30331 0.76115 0.91472 0.0
C473 C 0.27653 0.75312 0.89001 0.0
C474 C 0.29974 0.78176 0.94376 0.0
C475 C 0.26933 0.79551 0.9493 0.0
H476 H 0.32818 0.75312 0.91116 0.0
H477 H 0.32199 0.78849 0.96143 0.0
S478 S 0.18885 0.777 0.89386 0.0
N479 N 0.21647 0.75639 0.87419 0.0
N480 N 0.20998 0.79585 0.92861 0.0
C481 C 0.24125 0.78563 0.92545 0.0
C482 C 0.24482 0.76435 0.89587 0.0
C483 C 0.00366 0.55214 0.34355 0.0
C484 C 0.01695 0.56546 0.37489 0.0
C485 C 0.02515 0.53942 0.32123 0.0
C486 C 0.06094 0.5396 0.32926 0.0
H487 H 0.97683 0.55293 0.336 0.0
H488 H 0.01396 0.53077 0.2972 0.0
S489 S 0.10736 0.5686 0.40895 0.0
N490 N 0.06705 0.57564 0.41347 0.0
N491 N 0.10768 0.55155 0.37148 0.0
C492 C 0.07381 0.55061 0.36095 0.0
C493 C 0.05177 0.56361 0.38377 0.0
C494 C 0.87252 0.78924 0.92215 0.0
C495 C 0.86826 0.77732 0.88957 0.0
C496 C 0.86803 0.76593 0.94167 0.0
C497 C 0.85934 0.72964 0.92951 0.0
H498 H 0.87865 0.81692 0.9327 0.0
H499 H 0.87064 0.77655 0.96657 0.0
S500 S 0.84704 0.68492 0.84575 0.0
N501 N 0.85611 0.72683 0.84592 0.0
N502 N 0.84828 0.68286 0.88266 0.0
C503 C 0.85666 0.71729 0.89697 0.0
C504 C 0.86099 0.74115 0.877 0.0
C505 C 0.02994 0.98166 0.38864 0.0
C506 C 0.03777 0.00584 0.41745 0.0
C507 C 0.00938 0.98751 0.36435 0.0
C508 C 0.99546 0.01753 0.36812 0.0
H509 H 0.04069 0.95855 0.38454 0.0
H510 H 0.00418 0.96817 0.34248 0.0
S511 S 0.00771 0.0883 0.43967 0.0
N512 N 0.02993 0.06061 0.4488 0.0
N513 N 0.9905 0.07138 0.40334 0.0
C514 C 0.00252 0.04157 0.39713 0.0
C515 C 0.02392 0.03581 0.42173 0.0
C516 C 0.29427 0.26415 0.63745 0.0
C517 C 0.31199 0.25142 0.65923 0.0
C518 C 0.29586 0.2522 0.60553 0.0
C519 C 0.31545 0.22721 0.59409 0.0
H520 H 0.2788 0.28335 0.64518 0.0
H521 H 0.28138 0.2626 0.58973 0.0
S522 S 0.36795 0.18686 0.64188 0.0
N523 N 0.35064 0.21344 0.66755 0.0
N524 N 0.35368 0.19069 0.60736 0.0
C525 C 0.33372 0.21458 0.61571 0.0
C526 C 0.3319 0.22668 0.64831 0.0
C527 C 0.56945 0.51422 0.67592 0.0
C528 C 0.55621 0.52609 0.65113 0.0
C529 C 0.55058 0.51213 0.70216 0.0
C530 C 0.51792 0.52229 0.70493 0.0
H531 H 0.59488 0.50692 0.6753 0.0
H532 H 0.5619 0.50279 0.72059 0.0
S533 S 0.47026 0.5529 0.64574 0.0
N534 N 0.50709 0.54608 0.63031 0.0
N535 N 0.4724 0.54335 0.68012 0.0
C536 C 0.50424 0.53408 0.68034 0.0
C537 C 0.52317 0.53568 0.65336 0.0
C538 C 0.83533 0.30934 0.64905 0.0
C539 C 0.81538 0.31875 0.67405 0.0
C540 C 0.82965 0.31839 0.62075 0.0
C541 C 0.80358 0.33694 0.61622 0.0
H542 H 0.85646 0.29607 0.65178 0.0
H543 H 0.84638 0.31129 0.60247 0.0
S544 S 0.742 0.36484 0.67376 0.0
N545 N 0.767 0.34554 0.69206 0.0
N546 N 0.75607 0.36246 0.63874 0.0
C547 C 0.78236 0.34518 0.64066 0.0
C548 C 0.78838 0.33617 0.66961 0.0
C549 C 0.53525 0.03912 0.61693 0.0
C550 C 0.50623 0.01001 0.60854 0.0
C551 C 0.55786 0.04477 0.64408 0.0
C552 C 0.55286 0.02109 0.6634 0.0
H553 H 0.54078 0.05757 0.60229 0.0
H554 H 0.57971 0.06766 0.64982 0.0
S555 S 0.47952 0.94263 0.6539 0.0
N556 N 0.47219 0.95884 0.62367 0.0
N557 N 0.51626 0.96858 0.67355 0.0
C558 C 0.52413 0.99201 0.65554 0.0
C559 C 0.50043 0.98668 0.62839 0.0
C560 C 0.93239 0.23477 0.80316 0.0
C561 C 0.91275 0.20498 0.78161 0.0
C562 C 0.96222 0.2335 0.82147 0.0
C563 C 0.97331 0.20223 0.81968 0.0
H564 H 0.92406 0.25918 0.80684 0.0
H565 H 0.97579 0.25705 0.83821 0.0
S566 S 0.93342 0.11736 0.76559 0.0
N567 N 0.90872 0.14369 0.75773 0.0
N568 N 0.96372 0.14109 0.79391 0.0
C569 C 0.95452 0.17229 0.79806 0.0
C570 C 0.92454 0.17372 0.77864 0.0
C571 C 0.49149 0.85541 0.46081 0.0
C572 C 0.46456 0.84703 0.48016 0.0
C573 C 0.51035 0.83075 0.44726 0.0
C574 C 0.50288 0.79694 0.45271 0.0
H575 H 0.49666 0.88049 0.45475 0.0
H576 H 0.52935 0.83764 0.43102 0.0
S577 S 0.4393 0.76488 0.50654 0.0
N578 N 0.43457 0.80474 0.50751 0.0
N579 N 0.47006 0.75836 0.48247 0.0
C580 C 0.47798 0.78942 0.47414 0.0
C581 C 0.45873 0.81445 0.48771 0.0
C582 C 0.21443 0.25377 0.83721 0.0
C583 C 0.21956 0.22049 0.82345 0.0
C584 C 0.18384 0.25781 0.85232 0.0
C585 C 0.15738 0.22874 0.85464 0.0
H586 H 0.23407 0.27696 0.83603 0.0
H587 H 0.18079 0.28395 0.86202 0.0
S588 S 0.1575 0.13593 0.82218 0.0
N589 N 0.19504 0.15792 0.81263 0.0
N590 N 0.13823 0.1655 0.84196 0.0
C591 C 0.1625 0.19529 0.84167 0.0
C592 C 0.19341 0.19117 0.82588 0.0
C593 C 0.55103 0.61961 0.49786 0.0
C594 C 0.588 0.63043 0.5059 0.0
C595 C 0.5353 0.62748 0.47195 0.0
C596 C 0.55598 0.64633 0.45302 0.0
H597 H 0.5339 0.60683 0.51276 0.0
H598 H 0.50651 0.62026 0.46774 0.0
S599 S 0.65478 0.67525 0.46143 0.0
N600 N 0.64538 0.65699 0.49098 0.0
N601 N 0.61608 0.67169 0.44216 0.0
C602 C 0.59333 0.65478 0.45946 0.0
C603 C 0.60926 0.64693 0.48597 0.0
C604 C 0.913 0.79239 0.77976 0.0
C605 C 0.91222 0.82515 0.79864 0.0
C606 C 0.93578 0.78924 0.75599 0.0
C607 C 0.95804 0.81872 0.74946 0.0
H608 H 0.89615 0.76879 0.78359 0.0
H609 H 0.93597 0.76342 0.74256 0.0
S610 S 0.96655 0.91047 0.79115 0.0
N611 N 0.93663 0.88787 0.80906 0.0
N612 N 0.97786 0.88168 0.76295 0.0
C613 C 0.95688 0.85171 0.76717 0.0
C614 C 0.9343 0.855 0.79205 0.0
C615 C 0.08646 0.87787 0.56909 0.0
C616 C 0.06478 0.89345 0.55292 0.0
C617 C 0.07633 0.86748 0.59635 0.0
C618 C 0.04378 0.87167 0.6081 0.0
H619 H 0.11069 0.8723 0.55982 0.0
H620 H 0.09303 0.85397 0.60702 0.0
S621 S 0.97938 0.91452 0.57616 0.0
N622 N 0.01101 0.91543 0.55208 0.0
N623 N 0.99162 0.89558 0.60305 0.0
C624 C 0.02299 0.88924 0.59321 0.0
C625 C 0.03358 0.90022 0.56569 0.0
C626 C 0.18331 0.78879 0.76163 0.0
C627 C 0.20806 0.78529 0.73919 0.0
C628 C 0.14827 0.79028 0.75341 0.0
C629 C 0.13693 0.78951 0.72267 0.0
H630 H 0.19086 0.79002 0.78577 0.0
H631 H 0.12983 0.79184 0.77123 0.0
S632 S 0.1901 0.77998 0.65479 0.0
N633 N 0.21763 0.77986 0.68433 0.0
N634 N 0.15247 0.78505 0.66961 0.0
C635 C 0.16137 0.78713 0.70013 0.0
C636 C 0.19677 0.78451 0.70822 0.0
C637 C 0.96296 0.67643 0.55789 0.0
C638 C 0.9711 0.64466 0.55989 0.0
C639 C 0.97126 0.70535 0.58316 0.0
C640 C 0.98829 0.70375 0.61142 0.0
H641 H 0.95002 0.67896 0.53657 0.0
H642 H 0.96482 0.72934 0.58021 0.0
S643 S 0.01466 0.62599 0.62853 0.0
N644 N 0.99657 0.61282 0.59223 0.0
N645 N 0.01224 0.6671 0.63995 0.0
C646 C 0.99609 0.67182 0.61384 0.0
C647 C 0.98744 0.64231 0.58805 0.0
C648 C 0.8238 0.87654 0.23084 0.0
C649 C 0.82842 0.85444 0.25064 0.0
C650 C 0.83755 0.91257 0.24003 0.0
C651 C 0.85513 0.92787 0.26973 0.0
H652 H 0.81097 0.86575 0.20746 0.0
H653 H 0.83575 0.92837 0.22338 0.0
S654 S 0.87204 0.88262 0.33132 0.0
N655 N 0.85086 0.85111 0.30189 0.0
N656 N 0.87474 0.91918 0.31968 0.0
C657 C 0.85758 0.90665 0.29063 0.0
C658 C 0.84456 0.86981 0.28101 0.0
C659 C 0.81037 0.13546 0.33197 0.0
C660 C 0.82292 0.16381 0.31852 0.0
C661 C 0.82874 0.10888 0.33078 0.0
C662 C 0.86027 0.10924 0.3158 0.0
H663 H 0.78618 0.13387 0.34372 0.0
H664 H 0.818 0.08781 0.34171 0.0
S665 S 0.90496 0.17779 0.27737 0.0
N666 N 0.86949 0.19098 0.29029 0.0
N667 N 0.90337 0.14037 0.28722 0.0
C668 C 0.87287 0.13705 0.30174 0.0
C669 C 0.85435 0.16444 0.30328 0.0
C670 C 0.41143 0.00783 0.02843 0.0
C671 C 0.4044 0.02548 0.0056 0.0
C672 C 0.3867 0.97848 0.0325 0.0
C673 C 0.35375 0.96603 0.01422 0.0
H674 H 0.43619 0.01689 0.04333 0.0
H675 H 0.39328 0.96582 0.05046 0.0
S676 S 0.32257 0.00367 0.95143 0.0
N677 N 0.36232 0.02883 0.96464 0.0
N678 N 0.31578 0.97381 0.97211 0.0
C679 C 0.34655 0.98352 0.99119 0.0
C680 C 0.37189 0.01317 0.98691 0.0
C681 C 0.23871 0.41908 0.32303 0.0
C682 C 0.27148 0.43988 0.3382 0.0
C683 C 0.21422 0.43375 0.30893 0.0
C684 C 0.22171 0.46969 0.30993 0.0
H685 H 0.23122 0.39177 0.32347 0.0
H686 H 0.18864 0.41726 0.29862 0.0
S687 S 0.30637 0.53383 0.3422 0.0
N688 N 0.31192 0.49698 0.34983 0.0
N689 N 0.2661 0.52461 0.32388 0.0
C690 C 0.25538 0.49011 0.32325 0.0
C691 C 0.28022 0.47518 0.33724 0.0
C692 C 0.1614 0.08054 0.48358 0.0
C693 C 0.15823 0.04452 0.47316 0.0
C694 C 0.19414 0.10416 0.48505 0.0
C695 C 0.22494 0.0927 0.4758 0.0
H696 H 0.13826 0.09053 0.49042 0.0
H697 H 0.19516 0.13168 0.4933 0.0
S698 S 0.23026 0.00066 0.44624 0.0
N699 N 0.18816 0.99827 0.45312 0.0
N700 N 0.24992 0.04254 0.45592 0.0
C701 C 0.22205 0.05659 0.46535 0.0
C702 C 0.18868 0.03254 0.4641 0.0
C703 C 0.75114 0.16332 0.75091 0.0
C704 C 0.78378 0.15453 0.74365 0.0
C705 C 0.72075 0.13768 0.75233 0.0
C706 C 0.72215 0.10249 0.74729 0.0
H707 H 0.74928 0.1903 0.75672 0.0
H708 H 0.69643 0.1456 0.75874 0.0
S709 S 0.79917 0.06493 0.72382 0.0
N710 N 0.81405 0.10728 0.72776 0.0
N711 N 0.75739 0.05951 0.73249 0.0
C712 C 0.754 0.09308 0.73907 0.0
C713 C 0.7847 0.11899 0.73674 0.0
C714 C 0.43914 0.05797 0.50212 0.0
C715 C 0.43737 0.05549 0.53328 0.0
C716 C 0.42246 0.08061 0.49029 0.0
C717 C 0.40346 0.10184 0.50918 0.0
H718 H 0.45234 0.04119 0.4864 0.0
H719 H 0.42329 0.0804 0.4658 0.0
S720 S 0.39334 0.10723 0.59313 0.0
N721 N 0.41703 0.07764 0.58334 0.0
N722 N 0.38607 0.12078 0.56131 0.0
C723 C 0.40346 0.10132 0.54093 0.0
C724 C 0.42033 0.07801 0.55294 0.0
C725 C 0.67336 0.49398 0.56839 0.0
C726 C 0.63756 0.48119 0.57327 0.0
C727 C 0.69467 0.4715 0.55554 0.0
C728 C 0.68128 0.4353 0.54744 0.0
H729 H 0.68506 0.52173 0.57439 0.0
H730 H 0.72184 0.48258 0.55164 0.0
S731 S 0.58999 0.38799 0.55566 0.0
N732 N 0.58985 0.4295 0.56895 0.0
N733 N 0.63059 0.38721 0.54538 0.0
C734 C 0.646 0.42183 0.55275 0.0
C735 C 0.62401 0.4448 0.56564 0.0
C736 C 0.74238 0.26674 0.39467 0.0
C737 C 0.7733 0.25393 0.38907 0.0
C738 C 0.73882 0.28781 0.42362 0.0
C739 C 0.76592 0.29667 0.44823 0.0
H740 H 0.72114 0.26124 0.37624 0.0
H741 H 0.71512 0.29809 0.42638 0.0
S742 S 0.85183 0.26877 0.44592 0.0
N743 N 0.83133 0.25131 0.41079 0.0
N744 N 0.82417 0.28945 0.46534 0.0
C745 C 0.79624 0.28255 0.44337 0.0
C746 C 0.80005 0.26158 0.41379 0.0
C747 C 0.55315 0.06958 0.88088 0.0
C748 C 0.518 0.06927 0.87072 0.0
C749 C 0.57649 0.05759 0.85973 0.0
C750 C 0.5654 0.04509 0.82776 0.0
H751 H 0.56326 0.08101 0.90495 0.0
H752 H 0.60388 0.06002 0.86819 0.0
S753 S 0.47399 0.03299 0.7907 0.0
N754 N 0.47186 0.05109 0.82763 0.0
N755 N 0.51544 0.02873 0.78789 0.0
C756 C 0.52949 0.04224 0.81787 0.0
C757 C 0.50586 0.05429 0.83935 0.0
C758 C 0.36076 0.29063 0.42175 0.0
C759 C 0.35903 0.27832 0.38925 0.0
C760 C 0.35619 0.26768 0.44163 0.0
C761 C 0.35025 0.23145 0.42996 0.0
H762 H 0.36529 0.3183 0.43196 0.0
H763 H 0.35697 0.27845 0.4664 0.0
S764 S 0.34382 0.18565 0.3468 0.0
N765 N 0.35093 0.22732 0.34632 0.0
N766 N 0.34355 0.18426 0.38383 0.0
C767 C 0.34966 0.21876 0.39763 0.0
C768 C 0.35379 0.24215 0.37727 0.0
C769 C 0.5374 0.49896 0.89745 0.0
C770 C 0.53754 0.52118 0.92666 0.0
C771 C 0.51899 0.503 0.8711 0.0
C772 C 0.49954 0.52905 0.87308 0.0
H773 H 0.55244 0.47888 0.89482 0.0
H774 H 0.51969 0.48525 0.84902 0.0
S775 S 0.49141 0.59369 0.94452 0.0
N776 N 0.5172 0.5703 0.95633 0.0
N777 N 0.4812 0.57713 0.9068 0.0
C778 C 0.49894 0.55108 0.90232 0.0
C779 C 0.5184 0.5474 0.92911 0.0
C780 C 0.81427 0.77175 0.13962 0.0
C781 C 0.82587 0.75489 0.16141 0.0
C782 C 0.81726 0.76038 0.10791 0.0
C783 C 0.83192 0.73156 0.09653 0.0
H784 H 0.80181 0.79344 0.14703 0.0
H785 H 0.80709 0.7739 0.09215 0.0
S786 S 0.86865 0.67982 0.1443 0.0
N787 N 0.8545 0.70922 0.16985 0.0
N788 N 0.85984 0.68734 0.10988 0.0
C789 C 0.84472 0.71504 0.11816 0.0
C790 C 0.84161 0.72671 0.15065 0.0
C791 C 0.05253 0.04482 0.1775 0.0
C792 C 0.05137 0.01524 0.15325 0.0
C793 C 0.03114 0.04316 0.20231 0.0
C794 C 0.00833 0.01169 0.20427 0.0
H795 H 0.07022 0.06956 0.17741 0.0
H796 H 0.03294 0.06656 0.22035 0.0
S797 S 0.99354 0.92716 0.14644 0.0
N798 N 0.02362 0.95392 0.13224 0.0
N799 N 0.98489 0.95049 0.17962 0.0
C800 C 0.00696 0.98189 0.18043 0.0
C801 C 0.02814 0.98371 0.15481 0.0
C802 C 0.33879 0.81281 0.15042 0.0
C803 C 0.3181 0.82283 0.17469 0.0
C804 C 0.33506 0.82226 0.12202 0.0
C805 C 0.31017 0.84174 0.11661 0.0
H806 H 0.3588 0.79845 0.15376 0.0
H807 H 0.35209 0.8144 0.10424 0.0
S808 S 0.24795 0.87242 0.17225 0.0
N809 N 0.27084 0.85194 0.19126 0.0
N810 N 0.26343 0.86947 0.13772 0.0
C811 C 0.28851 0.851 0.14042 0.0
C812 C 0.29262 0.84165 0.1695 0.0
C813 C 0.02732 0.48805 0.10631 0.0
C814 C 0.99694 0.50177 0.1039 0.0
C815 C 0.04753 0.49413 0.13483 0.0
C816 C 0.03841 0.51457 0.16196 0.0
H817 H 0.03572 0.47263 0.08589 0.0
H818 H 0.07087 0.48334 0.13549 0.0
S819 S 0.96004 0.55443 0.1688 0.0
N820 N 0.95752 0.53485 0.13163 0.0
N821 N 0.99624 0.54737 0.18505 0.0
C822 C 0.00802 0.52828 0.16 0.0
C823 C 0.98714 0.52167 0.13103 0.0
C824 C 0.38925 0.67791 0.30362 0.0
C825 C 0.39446 0.69298 0.27779 0.0
C826 C 0.41821 0.67523 0.32239 0.0
C827 C 0.45345 0.68788 0.31621 0.0
H828 H 0.36267 0.66978 0.31042 0.0
H829 H 0.41289 0.66543 0.34307 0.0
S830 S 0.48136 0.72402 0.24842 0.0
N831 N 0.43739 0.71623 0.24461 0.0
N832 N 0.49192 0.71206 0.28035 0.0
C833 C 0.45898 0.70076 0.28926 0.0
C834 C 0.42948 0.7032 0.27 0.0
C835 C 0.00398 0.34552 0.96783 0.0
C836 C 0.97402 0.33484 0.98342 0.0
C837 C 0.02517 0.32235 0.95607 0.0
C838 C 0.01697 0.28774 0.95947 0.0
H839 H 0.00967 0.37114 0.96285 0.0
H840 H 0.04634 0.33088 0.94221 0.0
S841 S 0.94604 0.24976 0.00452 0.0
N842 N 0.94072 0.28958 0.00613 0.0
N843 N 0.98038 0.24589 0.984 0.0
C844 C 0.98918 0.27796 0.97768 0.0
C845 C 0.96766 0.30153 0.9896 0.0
C846 C 0.69358 0.71622 0.33969 0.0
C847 C 0.6979 0.72354 0.31015 0.0
C848 C 0.664 0.72209 0.35571 0.0
C849 C 0.638 0.73608 0.34304 0.0
H850 H 0.71318 0.70578 0.3505 0.0
H851 H 0.66146 0.71558 0.37815 0.0
S852 S 0.63539 0.75769 0.26574 0.0
N853 N 0.6723 0.74362 0.2682 0.0
N854 N 0.61771 0.75605 0.29889 0.0
C855 C 0.64207 0.7438 0.3137 0.0
C856 C 0.67176 0.7372 0.29713 0.0
C857 C 0.10823 0.13549 0.98755 0.0
C858 C 0.08493 0.11681 0.00482 0.0
C859 C 0.09564 0.14356 0.96051 0.0
C860 C 0.05913 0.13366 0.9499 0.0
H861 H 0.13615 0.14545 0.99588 0.0
H862 H 0.11441 0.15969 0.94909 0.0
S863 S 0.98801 0.0801 0.98459 0.0
N864 N 0.02443 0.08538 0.00774 0.0
N865 N 1.00057 0.10046 0.95689 0.0
C866 C 0.03605 0.11249 0.96559 0.0
C867 C 0.049 0.10411 0.99308 0.0
C868 C 0.42703 0.35078 0.28975 0.0
C869 C 0.4047 0.32113 0.29639 0.0
C870 C 0.44976 0.34763 0.2657 0.0
C871 C 0.45139 0.31472 0.24795 0.0
H872 H 0.42775 0.37653 0.30377 0.0
H873 H 0.46696 0.37094 0.26165 0.0
S874 S 0.39537 0.2295 0.25285 0.0
N875 N 0.38292 0.25813 0.28039 0.0
N876 N 0.42695 0.25231 0.23662 0.0
C877 C 0.42853 0.28508 0.25361 0.0
C878 C 0.40486 0.28825 0.27745 0.0
C879 C 0.58495 0.38951 0.07609 0.0
C880 C 0.56325 0.40547 0.06035 0.0
C881 C 0.57389 0.3766 0.10197 0.0
C882 C 0.54039 0.37863 0.11276 0.0
H883 H 0.61 0.3856 0.06745 0.0
H884 H 0.59072 0.36292 0.11225 0.0
S885 S 0.47541 0.42152 0.08173 0.0
N886 N 0.5083 0.42545 0.05905 0.0
N887 N 0.48724 0.40102 0.10752 0.0
C888 C 0.51951 0.3966 0.09846 0.0
C889 C 0.531 0.41008 0.07231 0.0
C890 C 0.67634 0.28536 0.25908 0.0
C891 C 0.70116 0.28168 0.23671 0.0
C892 C 0.64136 0.28694 0.25075 0.0
C893 C 0.63016 0.28612 0.21996 0.0
H894 H 0.68381 0.28671 0.28326 0.0
H895 H 0.62287 0.28868 0.26851 0.0
S896 S 0.68343 0.27599 0.1522 0.0
N897 N 0.71084 0.27587 0.18183 0.0
N898 N 0.64582 0.28132 0.16693 0.0
C899 C 0.65462 0.28348 0.19748 0.0
C900 C 0.68995 0.28074 0.20567 0.0
C901 C 0.48255 0.14656 0.08198 0.0
C902 C 0.46598 0.14863 0.05381 0.0
C903 C 0.49074 0.17538 0.10745 0.0
C904 C 0.48234 0.20728 0.10579 0.0
H905 H 0.48995 0.12271 0.08412 0.0
H906 H 0.50416 0.17267 0.12846 0.0
S907 S 0.43605 0.22484 0.03759 0.0
N908 N 0.43945 0.18406 0.02605 0.0
N909 N 0.45477 0.23834 0.07369 0.0
C910 C 0.46471 0.20922 0.07788 0.0
C911 C 0.4566 0.1799 0.05196 0.0
C912 C 0.36809 0.36342 0.76704 0.0
C913 C 0.33522 0.35328 0.74892 0.0
C914 C 0.38659 0.39832 0.7751 0.0
C915 C 0.37246 0.42425 0.76587 0.0
H916 H 0.3803 0.34403 0.77382 0.0
H917 H 0.41242 0.40504 0.78832 0.0
S918 S 0.28648 0.41126 0.71956 0.0
N919 N 0.28876 0.37168 0.72255 0.0
N920 N 0.32315 0.43787 0.73888 0.0
C921 C 0.33893 0.41472 0.7489 0.0
C922 C 0.32041 0.37899 0.74005 0.0
C923 C 0.31699 0.63715 0.831 0.0
C924 C 0.3304 0.66654 0.81919 0.0
C925 C 0.33448 0.60974 0.8281 0.0
C926 C 0.36609 0.6104 0.81314 0.0
H927 H 0.29265 0.63523 0.84255 0.0
H928 H 0.32298 0.58778 0.83769 0.0
S929 S 0.41304 0.68199 0.77908 0.0
N930 N 0.37787 0.6952 0.79273 0.0
N931 N 0.41037 0.64332 0.7867 0.0
C932 C 0.37973 0.63954 0.80101 0.0
C933 C 0.36199 0.66764 0.80415 0.0
C934 C 0.8748 0.5103 0.49182 0.0
C935 C 0.90684 0.52224 0.5112 0.0
C936 C 0.84894 0.48167 0.4955 0.0
C937 C 0.85416 0.46363 0.5186 0.0
H938 H 0.8692 0.52382 0.4742 0.0
H939 H 0.82455 0.47379 0.48013 0.0
S940 S 0.93467 0.48378 0.57441 0.0
N941 N 0.94321 0.5134 0.55356 0.0
N942 N 0.89469 0.45943 0.56062 0.0
C943 C 0.88656 0.47492 0.53775 0.0
C944 C 0.91283 0.50426 0.53405 0.0
C945 C 0.77942 0.97488 0.85118 0.0
C946 C 0.77386 0.93856 0.84711 0.0
C947 C 0.75505 0.9898 0.83778 0.0
C948 C 0.72418 0.96911 0.81934 0.0
H949 H 0.80245 0.99207 0.86562 0.0
H950 H 0.76039 0.01797 0.84227 0.0
S951 S 0.69812 0.87251 0.79969 0.0
N952 N 0.7358 0.88202 0.82226 0.0
N953 N 0.69026 0.91021 0.7962 0.0
C954 C 0.71904 0.93265 0.81368 0.0
C955 C 0.74384 0.91735 0.82772 0.0
C956 C 0.68426 0.5489 0.97644 0.0
C957 C 0.65516 0.56315 0.98581 0.0
C958 C 0.71778 0.57034 0.97571 0.0
C959 C 0.72361 0.6069 0.98457 0.0
H960 H 0.68085 0.52094 0.96872 0.0
H961 H 0.7393 0.55804 0.96824 0.0
S962 S 0.65594 0.65694 0.01172 0.0
N963 N 0.63409 0.61573 0.00457 0.0
N964 N 0.69723 0.65633 0.00353 0.0
C965 C 0.69473 0.62146 0.99445 0.0
C966 C 0.66049 0.59953 0.99495 0.0
C967 C 0.26593 0.61862 0.22605 0.0
C968 C 0.26664 0.65437 0.23612 0.0
C969 C 0.23583 0.5931 0.22823 0.0
C970 C 0.20499 0.60234 0.23968 0.0
H971 H 0.28933 0.61028 0.21753 0.0
H972 H 0.23695 0.56592 0.22152 0.0
S973 S 0.19191 0.69171 0.26769 0.0
N974 N 0.23313 0.69741 0.25756 0.0
N975 N 0.17591 0.64913 0.25983 0.0
C976 C 0.20437 0.63773 0.24807 0.0
C977 C 0.23534 0.66384 0.24665 0.0
C978 C 0.89139 0.52742 0.00791 0.0
C979 C 0.92651 0.53758 0.02239 0.0
C980 C 0.87563 0.5507 0.99624 0.0
C981 C 0.89378 0.58545 0.99942 0.0
H982 H 0.87562 0.50123 0.0057 0.0
H983 H 0.84862 0.54157 0.9852 0.0
S984 S 0.98593 0.62595 0.03484 0.0
N985 N 0.97937 0.58513 0.03808 0.0
N986 N 0.94832 0.62948 0.01794 0.0
C987 C 0.92846 0.59651 0.01429 0.0
C988 C 0.94513 0.57246 0.0254 0.0
C989 C 0.15493 0.9592 0.09242 0.0
C990 C 0.13034 0.96885 0.07359 0.0
C991 C 0.17762 0.93811 0.07924 0.0
C992 C 0.17656 0.92593 0.04675 0.0
H993 H 0.15787 0.96942 0.11738 0.0
H994 H 0.19725 0.93272 0.09457 0.0
S995 S 0.11283 0.93938 0.9878 0.0
N996 N 0.1033 0.9613 0.02127 0.0
N997 N 0.14584 0.92195 0.99644 0.0
C998 C 0.15045 0.93362 0.0279 0.0
C999 C 0.12741 0.95501 0.04132 0.0
loop_
_geom_bond_atom_site_label_1
_geom_bond_atom_site_label_2
_geom_bond_distance
_geom_bond_site_symmetry_2
_ccdc_geom_bond_type
H0 C1 0.949 . S
C1 H0 0.949 . S
C1 C2 1.395 . S
C1 C3 1.391 . S
C2 C1 1.395 . S
C2 C5 1.390 . S
C3 C1 1.391 . S
C3 C7 1.387 . S
C3 C8 1.491 . S
H4 C5 0.950 . S
C5 C2 1.390 . S
C5 H4 0.950 . S
C5 C6 1.378 . S
C6 C5 1.378 . S
C6 C7 1.409 . S
C7 C3 1.387 . S
C7 C6 1.409 . S
C7 H9 0.951 . S
C8 C3 1.491 . S
C8 C10 1.382 . S
C8 C12 1.404 . S
H9 C7 0.951 . S
C10 C8 1.382 . S
C10 C11 1.390 . S
C10 H15 0.949 . S
C11 C10 1.390 . S
C11 C16 1.399 . S
C12 C8 1.404 . S
C12 H13 0.950 . S
C12 C14 1.375 . S
H13 C12 0.950 . S
C14 C12 1.375 . S
C14 C16 1.382 . S
C14 H18 0.950 . S
H15 C10 0.949 . S
C16 C11 1.399 . S
C16 C14 1.382 . S
C16 H17 0.952 . S
H17 C16 0.952 . S
H18 C14 0.950 . S
H19 C20 0.949 . S
C20 H19 0.949 . S
C20 C21 1.395 . S
C20 C22 1.391 . S
C21 C20 1.395 . S
C21 C24 1.390 . S
C22 C20 1.391 . S
C22 C26 1.387 . S
C22 C27 1.491 . S
H23 C24 0.950 . S
C24 C21 1.390 . S
C24 H23 0.950 . S
C24 C25 1.378 . S
C25 C24 1.378 . S
C25 C26 1.409 . S
C26 C22 1.387 . S
C26 C25 1.409 . S
C26 H28 0.951 . S
C27 C22 1.491 . S
C27 C29 1.382 . S
C27 C31 1.404 . S
H28 C26 0.951 . S
C29 C27 1.382 . S
C29 C30 1.390 . S
C29 H34 0.949 . S
C30 C29 1.390 . S
C30 C35 1.399 . S
C31 C27 1.404 . S
C31 H32 0.950 . S
C31 C33 1.375 . S
H32 C31 0.950 . S
C33 C31 1.375 . S
C33 C35 1.382 . S
C33 H37 0.950 . S
H34 C29 0.949 . S
C35 C30 1.399 . S
C35 C33 1.382 . S
C35 H36 0.952 . S
H36 C35 0.952 . S
H37 C33 0.950 . S
H38 C39 0.949 . S
C39 H38 0.949 . S
C39 C40 1.395 . S
C39 C41 1.391 . S
C40 C39 1.395 . S
C40 C43 1.390 . S
C41 C39 1.391 . S
C41 C45 1.387 . S
C41 C46 1.491 . S
H42 C43 0.950 . S
C43 C40 1.390 . S
C43 H42 0.950 . S
C43 C44 1.378 . S
C44 C43 1.378 . S
C44 C45 1.409 . S
C45 C41 1.387 . S
C45 C44 1.409 . S
C45 H47 0.951 . S
C46 C41 1.491 . S
C46 C48 1.382 . S
C46 C50 1.404 1_554 S
H47 C45 0.951 . S
C48 C46 1.382 . S
C48 C49 1.390 1_554 S
C48 H53 0.949 . S
C49 C48 1.390 1_556 S
C49 C54 1.399 . S
C50 C46 1.404 1_556 S
C50 H51 0.950 . S
C50 C52 1.375 . S
H51 C50 0.950 . S
C52 C50 1.375 . S
C52 C54 1.382 . S
C52 H56 0.950 . S
H53 C48 0.949 . S
C54 C49 1.399 . S
C54 C52 1.382 . S
C54 H55 0.952 . S
H55 C54 0.952 . S
H56 C52 0.950 . S
H57 C58 0.949 . S
C58 H57 0.949 . S
C58 C59 1.395 . S
C58 C60 1.391 . S
C59 C58 1.395 . S
C59 C62 1.390 . S
C60 C58 1.391 . S
C60 C64 1.387 . S
C60 C65 1.491 . S
H61 C62 0.950 . S
C62 C59 1.390 . S
C62 H61 0.950 . S
C62 C63 1.378 . S
C63 C62 1.378 . S
C63 C64 1.409 . S
C64 C60 1.387 . S
C64 C63 1.409 . S
C64 H66 0.951 . S
C65 C60 1.491 . S
C65 C67 1.382 . S
C65 C69 1.404 . S
H66 C64 0.951 . S
C67 C65 1.382 . S
C67 C68 1.390 . S
C67 H72 0.949 . S
C68 C67 1.390 . S
C68 C73 1.399 . S
C69 C65 1.404 . S
C69 H70 0.950 . S
C69 C71 1.375 . S
H70 C69 0.950 . S
C71 C69 1.375 . S
C71 C73 1.382 . S
C71 H75 0.950 . S
H72 C67 0.949 . S
C73 C68 1.399 . S
C73 C71 1.382 . S
C73 H74 0.952 . S
H74 C73 0.952 . S
H75 C71 0.950 . S
H76 C77 0.949 . S
C77 H76 0.949 . S
C77 C78 1.395 . S
C77 C79 1.391 . S
C78 C77 1.395 . S
C78 C81 1.390 . S
C79 C77 1.391 . S
C79 C83 1.387 . S
C79 C84 1.491 . S
H80 C81 0.950 1_545 S
C81 C78 1.390 . S
C81 H80 0.950 1_565 S
C81 C82 1.378 . S
C82 C81 1.378 . S
C82 C83 1.409 . S
C83 C79 1.387 . S
C83 C82 1.409 . S
C83 H85 0.951 . S
C84 C79 1.491 . S
C84 C86 1.382 . S
C84 C88 1.404 . S
H85 C83 0.951 . S
C86 C84 1.382 . S
C86 C87 1.390 . S
C86 H91 0.949 . S
C87 C86 1.390 . S
C87 C92 1.399 . S
C88 C84 1.404 . S
C88 H89 0.950 . S
C88 C90 1.375 . S
H89 C88 0.950 . S
C90 C88 1.375 . S
C90 C92 1.382 . S
C90 H94 0.950 . S
H91 C86 0.949 . S
C92 C87 1.399 . S
C92 C90 1.382 . S
C92 H93 0.952 . S
H93 C92 0.952 . S
H94 C90 0.950 . S
H95 C96 0.949 . S
C96 H95 0.949 . S
C96 C97 1.395 . S
C96 C98 1.391 . S
C97 C96 1.395 . S
C97 C100 1.390 . S
C98 C96 1.391 . S
C98 C102 1.387 . S
C98 C103 1.491 . S
H99 C100 0.950 . S
C100 C97 1.390 . S
C100 H99 0.950 . S
C100 C101 1.378 . S
C101 C100 1.378 . S
C101 C102 1.409 . S
C102 C98 1.387 . S
C102 C101 1.409 . S
C102 H104 0.951 . S
C103 C98 1.491 . S
C103 C105 1.382 . S
C103 C107 1.404 . S
H104 C102 0.951 . S
C105 C103 1.382 . S
C105 C106 1.390 . S
C105 H110 0.949 . S
C106 C105 1.390 . S
C106 C111 1.399 . S
C107 C103 1.404 . S
C107 H108 0.950 . S
C107 C109 1.375 . S
H108 C107 0.950 . S
C109 C107 1.375 . S
C109 C111 1.382 . S
C109 H113 0.950 . S
H110 C105 0.949 . S
C111 C106 1.399 . S
C111 C109 1.382 . S
C111 H112 0.952 . S
H112 C111 0.952 . S
H113 C109 0.950 . S
H114 C115 0.949 . S
C115 H114 0.949 . S
C115 C116 1.395 . S
C115 C117 1.391 . S
C116 C115 1.395 . S
C116 C119 1.390 . S
C117 C115 1.391 . S
C117 C121 1.387 . S
C117 C122 1.491 . S
H118 C119 0.950 . S
C119 C116 1.390 . S
C119 H118 0.950 . S
C119 C120 1.378 . S
C120 C119 1.378 . S
C120 C121 1.409 . S
C121 C117 1.387 . S
C121 C120 1.409 . S
C121 H123 0.951 . S
C122 C117 1.491 . S
C122 C124 1.382 . S
C122 C126 1.404 . S
H123 C121 0.951 . S
C124 C122 1.382 . S
C124 C125 1.390 . S
C124 H129 0.949 . S
C125 C124 1.390 . S
C125 C130 1.399 . S
C126 C122 1.404 . S
C126 H127 0.950 . S
C126 C128 1.375 . S
H127 C126 0.950 . S
C128 C126 1.375 . S
C128 C130 1.382 . S
C128 H132 0.950 . S
H129 C124 0.949 . S
C130 C125 1.399 . S
C130 C128 1.382 . S
C130 H131 0.952 . S
H131 C130 0.952 . S
H132 C128 0.950 . S
H133 C134 0.949 . S
C134 H133 0.949 . S
C134 C135 1.395 . S
C134 C136 1.391 . S
C135 C134 1.395 . S
C135 C138 1.390 . S
C136 C134 1.391 . S
C136 C140 1.387 . S
C136 C141 1.491 . S
H137 C138 0.950 . S
C138 C135 1.390 . S
C138 H137 0.950 . S
C138 C139 1.378 . S
C139 C138 1.378 . S
C139 C140 1.409 . S
C140 C136 1.387 . S
C140 C139 1.409 . S
C140 H142 0.951 . S
C141 C136 1.491 . S
C141 C143 1.382 . S
C141 C145 1.404 . S
H142 C140 0.951 . S
C143 C141 1.382 . S
C143 C144 1.390 . S
C143 H148 0.949 . S
C144 C143 1.390 . S
C144 C149 1.399 . S
C145 C141 1.404 . S
C145 H146 0.950 . S
C145 C147 1.375 . S
H146 C145 0.950 . S
C147 C145 1.375 . S
C147 C149 1.382 . S
C147 H151 0.950 . S
H148 C143 0.949 . S
C149 C144 1.399 . S
C149 C147 1.382 . S
C149 H150 0.952 . S
H150 C149 0.952 . S
H151 C147 0.950 . S
H152 C153 0.949 . S
C153 H152 0.949 . S
C153 C154 1.395 . S
C153 C155 1.391 . S
C154 C153 1.395 . S
C154 C157 1.390 . S
C155 C153 1.391 . S
C155 C159 1.387 . S
C155 C160 1.491 . S
H156 C157 0.950 . S
C157 C154 1.390 . S
C157 H156 0.950 . S
C157 C158 1.378 . S
C158 C157 1.378 . S
C158 C159 1.409 . S
C159 C155 1.387 . S
C159 C158 1.409 . S
C159 H161 0.951 . S
C160 C155 1.491 . S
C160 C162 1.382 . S
C160 C164 1.404 . S
H161 C159 0.951 . S
C162 C160 1.382 . S
C162 C163 1.390 . S
C162 H167 0.949 . S
C163 C162 1.390 . S
C163 C168 1.399 . S
C164 C160 1.404 . S
C164 H165 0.950 . S
C164 C166 1.375 . S
H165 C164 0.950 . S
C166 C164 1.375 . S
C166 C168 1.382 . S
C166 H170 0.950 . S
H167 C162 0.949 . S
C168 C163 1.399 . S
C168 C166 1.382 . S
C168 H169 0.952 . S
H169 C168 0.952 . S
H170 C166 0.950 . S
H171 C172 0.949 . S
C172 H171 0.949 . S
C172 C173 1.395 . S
C172 C174 1.391 . S
C173 C172 1.395 . S
C173 C176 1.390 . S
C174 C172 1.391 . S
C174 C178 1.387 . S
C174 C179 1.491 . S
H175 C176 0.950 . S
C176 C173 1.390 . S
C176 H175 0.950 . S
C176 C177 1.378 . S
C177 C176 1.378 . S
C177 C178 1.409 . S
C178 C174 1.387 . S
C178 C177 1.409 . S
C178 H180 0.951 . S
C179 C174 1.491 . S
C179 C181 1.382 . S
C179 C183 1.404 . S
H180 C178 0.951 . S
C181 C179 1.382 . S
C181 C182 1.390 . S
C181 H186 0.949 . S
C182 C181 1.390 . S
C182 C187 1.399 . S
C183 C179 1.404 . S
C183 H184 0.950 . S
C183 C185 1.375 . S
H184 C183 0.950 . S
C185 C183 1.375 . S
C185 C187 1.382 . S
C185 H189 0.950 . S
H186 C181 0.949 . S
C187 C182 1.399 . S
C187 C185 1.382 . S
C187 H188 0.952 . S
H188 C187 0.952 . S
H189 C185 0.950 . S
H190 C191 0.949 . S
C191 H190 0.949 . S
C191 C192 1.395 . S
C191 C193 1.391 . S
C192 C191 1.395 . S
C192 C195 1.390 . S
C193 C191 1.391 . S
C193 C197 1.387 . S
C193 C198 1.491 . S
H194 C195 0.950 . S
C195 C192 1.390 . S
C195 H194 0.950 . S
C195 C196 1.378 . S
C196 C195 1.378 . S
C196 C197 1.409 . S
C197 C193 1.387 . S
C197 C196 1.409 . S
C197 H199 0.951 . S
C198 C193 1.491 . S
C198 C200 1.382 . S
C198 C202 1.404 . S
H199 C197 0.951 . S
C200 C198 1.382 . S
C200 C201 1.390 . S
C200 H205 0.949 . S
C201 C200 1.390 . S
C201 C206 1.399 . S
C202 C198 1.404 . S
C202 H203 0.950 . S
C202 C204 1.375 . S
H203 C202 0.950 . S
C204 C202 1.375 . S
C204 C206 1.382 . S
C204 H208 0.950 . S
H205 C200 0.949 . S
C206 C201 1.399 . S
C206 C204 1.382 . S
C206 H207 0.952 . S
H207 C206 0.952 . S
H208 C204 0.950 . S
H209 C210 0.949 . S
C210 H209 0.949 . S
C210 C211 1.395 . S
C210 C212 1.391 . S
C211 C210 1.395 . S
C211 C214 1.390 . S
C212 C210 1.391 . S
C212 C216 1.387 . S
C212 C217 1.491 . S
H213 C214 0.950 . S
C214 C211 1.390 . S
C214 H213 0.950 . S
C214 C215 1.378 . S
C215 C214 1.378 . S
C215 C216 1.409 . S
C216 C212 1.387 . S
C216 C215 1.409 . S
C216 H218 0.951 . S
C217 C212 1.491 . S
C217 C219 1.382 . S
C217 C221 1.404 . S
H218 C216 0.951 . S
C219 C217 1.382 . S
C219 C220 1.390 . S
C219 H224 0.949 . S
C220 C219 1.390 . S
C220 C225 1.399 . S
C221 C217 1.404 . S
C221 H222 0.950 . S
C221 C223 1.375 . S
H222 C221 0.950 . S
C223 C221 1.375 . S
C223 C225 1.382 . S
C223 H227 0.950 . S
H224 C219 0.949 . S
C225 C220 1.399 . S
C225 C223 1.382 . S
C225 H226 0.952 . S
H226 C225 0.952 . S
H227 C223 0.950 . S
H228 C229 0.949 . S
C229 H228 0.949 . S
C229 C230 1.395 . S
C229 C231 1.391 . S
C230 C229 1.395 . S
C230 C233 1.390 . S
C231 C229 1.391 . S
C231 C235 1.387 . S
C231 C236 1.491 . S
H232 C233 0.950 . S
C233 C230 1.390 . S
C233 H232 0.950 . S
C233 C234 1.378 . S
C234 C233 1.378 . S
C234 C235 1.409 . S
C235 C231 1.387 . S
C235 C234 1.409 . S
C235 H237 0.951 . S
C236 C231 1.491 . S
C236 C238 1.382 . S
C236 C240 1.404 . S
H237 C235 0.951 . S
C238 C236 1.382 . S
C238 C239 1.390 . S
C238 H243 0.949 . S
C239 C238 1.390 . S
C239 C244 1.399 . S
C240 C236 1.404 . S
C240 H241 0.950 . S
C240 C242 1.375 . S
H241 C240 0.950 . S
C242 C240 1.375 . S
C242 C244 1.382 . S
C242 H246 0.950 . S
H243 C238 0.949 . S
C244 C239 1.399 . S
C244 C242 1.382 . S
C244 H245 0.952 . S
H245 C244 0.952 . S
H246 C242 0.950 . S
H247 C248 0.949 . S
C248 H247 0.949 . S
C248 C249 1.395 . S
C248 C250 1.391 . S
C249 C248 1.395 . S
C249 C252 1.390 . S
C250 C248 1.391 . S
C250 C254 1.387 . S
C250 C255 1.491 . S
H251 C252 0.950 . S
C252 C249 1.390 . S
C252 H251 0.950 . S
C252 C253 1.378 . S
C253 C252 1.378 . S
C253 C254 1.409 . S
C254 C250 1.387 . S
C254 C253 1.409 . S
C254 H256 0.951 . S
C255 C250 1.491 . S
C255 C257 1.382 . S
C255 C259 1.404 . S
H256 C254 0.951 . S
C257 C255 1.382 . S
C257 C258 1.390 . S
C257 H262 0.949 . S
C258 C257 1.390 . S
C258 C263 1.399 . S
C259 C255 1.404 . S
C259 H260 0.950 . S
C259 C261 1.375 . S
H260 C259 0.950 . S
C261 C259 1.375 . S
C261 C263 1.382 . S
C261 H265 0.950 . S
H262 C257 0.949 . S
C263 C258 1.399 . S
C263 C261 1.382 . S
C263 H264 0.952 . S
H264 C263 0.952 . S
H265 C261 0.950 . S
H266 C267 0.949 . S
C267 H266 0.949 . S
C267 C268 1.395 . S
C267 C269 1.391 . S
C268 C267 1.395 . S
C268 C271 1.390 . S
C269 C267 1.391 . S
C269 C273 1.387 . S
C269 C274 1.491 . S
H270 C271 0.950 . S
C271 C268 1.390 . S
C271 H270 0.950 . S
C271 C272 1.378 . S
C272 C271 1.378 . S
C272 C273 1.409 . S
C273 C269 1.387 . S
C273 C272 1.409 . S
C273 H275 0.951 . S
C274 C269 1.491 . S
C274 C276 1.382 . S
C274 C278 1.404 . S
H275 C273 0.951 . S
C276 C274 1.382 . S
C276 C277 1.390 . S
C276 H281 0.949 . S
C277 C276 1.390 . S
C277 C282 1.399 . S
C278 C274 1.404 . S
C278 H279 0.950 . S
C278 C280 1.375 . S
H279 C278 0.950 . S
C280 C278 1.375 . S
C280 C282 1.382 . S
C280 H284 0.950 . S
H281 C276 0.949 . S
C282 C277 1.399 . S
C282 C280 1.382 . S
C282 H283 0.952 . S
H283 C282 0.952 . S
H284 C280 0.950 . S
H285 C286 0.949 . S
C286 H285 0.949 . S
C286 C287 1.395 . S
C286 C288 1.391 . S
C287 C286 1.395 . S
C287 C290 1.390 . S
C288 C286 1.391 . S
C288 C292 1.387 . S
C288 C293 1.491 . S
H289 C290 0.950 1_554 S
C290 C287 1.390 . S
C290 H289 0.950 1_556 S
C290 C291 1.378 . S
C291 C290 1.378 . S
C291 C292 1.409 . S
C292 C288 1.387 . S
C292 C291 1.409 . S
C292 H294 0.951 . S
C293 C288 1.491 . S
C293 C295 1.382 . S
C293 C297 1.404 . S
H294 C292 0.951 . S
C295 C293 1.382 . S
C295 C296 1.390 . S
C295 H300 0.949 . S
C296 C295 1.390 . S
C296 C301 1.399 . S
C297 C293 1.404 . S
C297 H298 0.950 . S
C297 C299 1.375 . S
H298 C297 0.950 . S
C299 C297 1.375 . S
C299 C301 1.382 . S
C299 H303 0.950 . S
H300 C295 0.949 . S
C301 C296 1.399 . S
C301 C299 1.382 . S
C301 H302 0.952 . S
H302 C301 0.952 . S
H303 C299 0.950 . S
O304 Cd305 2.223 . S
O304 C312 1.315 . S
Cd305 O304 2.223 . S
Cd305 O308 2.297 . S
Cd305 O309 2.439 . S
Cd305 O315 2.240 . S
Cd306 O307 2.240 . S
Cd306 O314 2.223 . S
Cd306 O316 2.297 1_565 S
Cd306 O317 2.439 . S
O307 Cd306 2.240 . S
O307 C312 1.279 . S
O308 Cd305 2.297 . S
O308 C310 1.247 . S
O309 Cd305 2.439 . S
O309 C310 1.208 . S
C310 O308 1.247 . S
C310 O309 1.208 . S
C311 O316 1.247 . S
C311 O317 1.208 1_545 S
C312 O304 1.315 . S
C312 O307 1.279 . S
C313 O314 1.315 . S
C313 O315 1.279 . S
O314 Cd306 2.223 . S
O314 C313 1.315 . S
O315 Cd305 2.240 . S
O315 C313 1.279 . S
O316 Cd306 2.297 1_545 S
O316 C311 1.247 . S
O317 Cd306 2.439 . S
O317 C311 1.208 1_565 S
O318 Cd319 2.223 . S
O318 C326 1.315 . S
Cd319 O318 2.223 . S
Cd319 O322 2.297 . S
Cd319 O323 2.439 . S
Cd319 O329 2.240 . S
Cd320 O321 2.240 . S
Cd320 O328 2.223 . S
Cd320 O330 2.297 . S
Cd320 O331 2.439 . S
O321 Cd320 2.240 . S
O321 C326 1.279 . S
O322 Cd319 2.297 . S
O322 C324 1.247 . S
O323 Cd319 2.439 . S
O323 C324 1.208 . S
C324 O322 1.247 . S
C324 O323 1.208 . S
C325 O330 1.247 . S
C325 O331 1.208 . S
C326 O318 1.315 . S
C326 O321 1.279 . S
C327 O328 1.315 . S
C327 O329 1.279 . S
O328 Cd320 2.223 . S
O328 C327 1.315 . S
O329 Cd319 2.240 . S
O329 C327 1.279 . S
O330 Cd320 2.297 . S
O330 C325 1.247 . S
O331 Cd320 2.439 . S
O331 C325 1.208 . S
O332 Cd333 2.223 1_556 S
O332 C340 1.315 . S
Cd333 O332 2.223 1_554 S
Cd333 O336 2.297 . S
Cd333 O337 2.439 . S
Cd333 O343 2.240 1_554 S
Cd334 O335 2.240 . S
Cd334 O342 2.223 . S
Cd334 O344 2.297 . S
Cd334 O345 2.439 1_556 S
O335 Cd334 2.240 . S
O335 C340 1.279 . S
O336 Cd333 2.297 . S
O336 C338 1.247 . S
O337 Cd333 2.439 . S
O337 C338 1.208 . S
C338 O336 1.247 . S
C338 O337 1.208 . S
C339 O344 1.247 1_554 S
C339 O345 1.208 . S
C340 O332 1.315 . S
C340 O335 1.279 . S
C341 O342 1.315 . S
C341 O343 1.279 . S
O342 Cd334 2.223 . S
O342 C341 1.315 . S
O343 Cd333 2.240 1_556 S
O343 C341 1.279 . S
O344 Cd334 2.297 . S
O344 C339 1.247 1_556 S
O345 Cd334 2.439 1_554 S
O345 C339 1.208 . S
O346 Cd347 2.223 . S
O346 C354 1.315 . S
Cd347 O346 2.223 . S
Cd347 O350 2.297 . S
Cd347 O351 2.439 . S
Cd347 O357 2.240 1_455 S
Cd348 O349 2.240 1_655 S
Cd348 O356 2.223 . S
Cd348 O358 2.297 . S
Cd348 O359 2.439 . S
O349 Cd348 2.240 1_455 S
O349 C354 1.279 . S
O350 Cd347 2.297 . S
O350 C352 1.247 . S
O351 Cd347 2.439 . S
O351 C352 1.208 . S
C352 O350 1.247 . S
C352 O351 1.208 . S
C353 O358 1.247 . S
C353 O359 1.208 . S
C354 O346 1.315 . S
C354 O349 1.279 . S
C355 O356 1.315 . S
C355 O357 1.279 . S
O356 Cd348 2.223 . S
O356 C355 1.315 . S
O357 Cd347 2.240 1_655 S
O357 C355 1.279 . S
O358 Cd348 2.297 . S
O358 C353 1.247 . S
O359 Cd348 2.439 . S
O359 C353 1.208 . S
O360 Cd361 2.223 . S
O360 C368 1.315 . S
Cd361 O360 2.223 . S
Cd361 O364 2.297 . S
Cd361 O365 2.439 . S
Cd361 O371 2.240 . S
Cd362 O363 2.240 . S
Cd362 O370 2.223 . S
Cd362 O372 2.297 . S
Cd362 O373 2.439 . S
O363 Cd362 2.240 . S
O363 C368 1.279 . S
O364 Cd361 2.297 . S
O364 C366 1.247 . S
O365 Cd361 2.439 . S
O365 C366 1.208 . S
C366 O364 1.247 . S
C366 O365 1.208 . S
C367 O372 1.247 . S
C367 O373 1.208 . S
C368 O360 1.315 . S
C368 O363 1.279 . S
C369 O370 1.315 . S
C369 O371 1.279 . S
O370 Cd362 2.223 . S
O370 C369 1.315 . S
O371 Cd361 2.240 . S
O371 C369 1.279 . S
O372 Cd362 2.297 . S
O372 C367 1.247 . S
O373 Cd362 2.439 . S
O373 C367 1.208 . S
O374 Cd375 2.223 . S
O374 C382 1.315 . S
Cd375 O374 2.223 . S
Cd375 O378 2.297 . S
Cd375 O379 2.439 . S
Cd375 O385 2.240 . S
Cd376 O377 2.240 . S
Cd376 O384 2.223 . S
Cd376 O386 2.297 . S
Cd376 O387 2.439 . S
O377 Cd376 2.240 . S
O377 C382 1.279 . S
O378 Cd375 2.297 . S
O378 C380 1.247 . S
O379 Cd375 2.439 . S
O379 C380 1.208 . S
C380 O378 1.247 . S
C380 O379 1.208 . S
C381 O386 1.247 . S
C381 O387 1.208 . S
C382 O374 1.315 . S
C382 O377 1.279 . S
C383 O384 1.315 . S
C383 O385 1.279 . S
O384 Cd376 2.223 . S
O384 C383 1.315 . S
O385 Cd375 2.240 . S
O385 C383 1.279 . S
O386 Cd376 2.297 . S
O386 C381 1.247 . S
O387 Cd376 2.439 . S
O387 C381 1.208 . S
O388 Cd389 2.223 . S
O388 C396 1.315 . S
Cd389 O388 2.223 . S
Cd389 O392 2.297 . S
Cd389 O393 2.439 . S
Cd389 O399 2.240 . S
Cd390 O391 2.240 . S
Cd390 O398 2.223 . S
Cd390 O400 2.297 . S
Cd390 O401 2.439 . S
O391 Cd390 2.240 . S
O391 C396 1.279 . S
O392 Cd389 2.297 . S
O392 C394 1.247 . S
O393 Cd389 2.439 . S
O393 C394 1.208 . S
C394 O392 1.247 . S
C394 O393 1.208 . S
C395 O400 1.247 . S
C395 O401 1.208 . S
C396 O388 1.315 . S
C396 O391 1.279 . S
C397 O398 1.315 . S
C397 O399 1.279 . S
O398 Cd390 2.223 . S
O398 C397 1.315 . S
O399 Cd389 2.240 . S
O399 C397 1.279 . S
O400 Cd390 2.297 . S
O400 C395 1.247 . S
O401 Cd390 2.439 . S
O401 C395 1.208 . S
O402 Cd403 2.223 1_545 S
O402 C410 1.315 . S
Cd403 O402 2.223 1_565 S
Cd403 O406 2.297 . S
Cd403 O407 2.439 . S
Cd403 O413 2.240 1_565 S
Cd404 O405 2.240 . S
Cd404 O412 2.223 . S
Cd404 O414 2.297 1_545 S
Cd404 O415 2.439 1_545 S
O405 Cd404 2.240 . S
O405 C410 1.279 . S
O406 Cd403 2.297 . S
O406 C408 1.247 . S
O407 Cd403 2.439 . S
O407 C408 1.208 . S
C408 O406 1.247 . S
C408 O407 1.208 . S
C409 O414 1.247 . S
C409 O415 1.208 . S
C410 O402 1.315 . S
C410 O405 1.279 . S
C411 O412 1.315 . S
C411 O413 1.279 . S
O412 Cd404 2.223 . S
O412 C411 1.315 . S
O413 Cd403 2.240 1_545 S
O413 C411 1.279 . S
O414 Cd404 2.297 1_565 S
O414 C409 1.247 . S
O415 Cd404 2.439 1_565 S
O415 C409 1.208 . S
O416 Cd417 2.223 . S
O416 C424 1.315 . S
Cd417 O416 2.223 . S
Cd417 O420 2.297 . S
Cd417 O421 2.439 1_655 S
Cd417 O427 2.240 . S
Cd418 O419 2.240 . S
Cd418 O426 2.223 1_455 S
Cd418 O428 2.297 . S
Cd418 O429 2.439 . S
O419 Cd418 2.240 . S
O419 C424 1.279 1_455 S
O420 Cd417 2.297 . S
O420 C422 1.250 1_655 S
O421 Cd417 2.439 1_455 S
O421 C422 1.208 . S
C422 O420 1.250 1_455 S
C422 O421 1.208 . S
C423 O428 1.247 . S
C423 O429 1.208 . S
C424 O416 1.315 . S
C424 O419 1.279 1_655 S
C425 O426 1.315 . S
C425 O427 1.279 . S
O426 Cd418 2.223 1_655 S
O426 C425 1.315 . S
O427 Cd417 2.240 . S
O427 C425 1.279 . S
O428 Cd418 2.297 . S
O428 C423 1.247 . S
O429 Cd418 2.439 . S
O429 C423 1.208 . S
O430 Cd431 2.223 . S
O430 C438 1.315 . S
Cd431 O430 2.223 . S
Cd431 O434 2.297 . S
Cd431 O435 2.439 . S
Cd431 O441 2.240 . S
Cd432 O433 2.240 . S
Cd432 O440 2.223 . S
Cd432 O442 2.297 . S
Cd432 O443 2.439 . S
O433 Cd432 2.240 . S
O433 C438 1.279 . S
O434 Cd431 2.297 . S
O434 C436 1.247 . S
O435 Cd431 2.439 . S
O435 C436 1.208 . S
C436 O434 1.247 . S
C436 O435 1.208 . S
C437 O442 1.247 . S
C437 O443 1.208 . S
C438 O430 1.315 . S
C438 O433 1.279 . S
C439 O440 1.315 . S
C439 O441 1.279 . S
O440 Cd432 2.223 . S
O440 C439 1.315 . S
O441 Cd431 2.240 . S
O441 C439 1.279 . S
O442 Cd432 2.297 . S
O442 C437 1.247 . S
O443 Cd432 2.439 . S
O443 C437 1.208 . S
O444 Cd445 2.223 1_655 S
O444 C452 1.315 . S
Cd445 O444 2.223 1_455 S
Cd445 O448 2.297 . S
Cd445 O449 2.439 . S
Cd445 O455 2.240 . S
Cd446 O447 2.240 . S
Cd446 O454 2.223 1_455 S
Cd446 O456 2.297 . S
Cd446 O457 2.439 . S
O447 Cd446 2.240 . S
O447 C452 1.275 1_455 S
O448 Cd445 2.297 . S
O448 C450 1.247 . S
O449 Cd445 2.439 . S
O449 C450 1.208 . S
C450 O448 1.247 . S
C450 O449 1.208 . S
C451 O456 1.247 . S
C451 O457 1.208 . S
C452 O444 1.315 . S
C452 O447 1.275 1_655 S
C453 O454 1.315 . S
C453 O455 1.279 1_655 S
O454 Cd446 2.223 1_655 S
O454 C453 1.315 . S
O455 Cd445 2.240 . S
O455 C453 1.279 1_455 S
O456 Cd446 2.297 . S
O456 C451 1.247 . S
O457 Cd446 2.439 . S
O457 C451 1.208 . S
O458 Cd459 2.223 . S
O458 C466 1.315 . S
Cd459 O458 2.223 . S
Cd459 O462 2.297 . S
Cd459 O463 2.439 . S
Cd459 O469 2.240 . S
Cd460 O461 2.240 . S
Cd460 O468 2.223 . S
Cd460 O470 2.297 . S
Cd460 O471 2.439 . S
O461 Cd460 2.240 . S
O461 C466 1.279 . S
O462 Cd459 2.297 . S
O462 C464 1.247 . S
O463 Cd459 2.439 . S
O463 C464 1.208 . S
C464 O462 1.247 . S
C464 O463 1.208 . S
C465 O470 1.247 . S
C465 O471 1.208 . S
C466 O458 1.315 . S
C466 O461 1.279 . S
C467 O468 1.315 . S
C467 O469 1.279 . S
O468 Cd460 2.223 . S
O468 C467 1.315 . S
O469 Cd459 2.240 . S
O469 C467 1.279 . S
O470 Cd460 2.297 . S
O470 C465 1.247 . S
O471 Cd460 2.439 . S
O471 C465 1.208 . S
C472 C473 1.369 . S
C472 C474 1.419 . S
C472 H476 0.930 . S
C473 C472 1.369 . S
C473 C482 1.429 . S
C474 C472 1.419 . S
C474 C475 1.363 1_556 S
C474 H477 0.929 . S
C475 C474 1.363 1_554 S
C475 C481 1.428 1_554 S
H476 C472 0.930 . S
H477 C474 0.929 . S
S478 N479 1.613 . S
S478 N480 1.610 1_556 S
N479 S478 1.613 . S
N479 C482 1.350 . S
N480 S478 1.610 1_554 S
N480 C481 1.351 1_554 S
C481 C475 1.428 1_556 S
C481 N480 1.351 1_556 S
C481 C482 1.434 . S
C482 C473 1.429 . S
C482 N479 1.350 . S
C482 C481 1.434 . S
C483 C484 1.369 . S
C483 C485 1.419 1_655 S
C483 H487 0.930 . S
C484 C483 1.369 . S
C484 C493 1.429 1_655 S
C485 C483 1.419 1_455 S
C485 C486 1.363 . S
C485 H488 0.929 . S
C486 C485 1.363 . S
C486 C492 1.428 . S
H487 C483 0.930 . S
H488 C485 0.929 . S
S489 N490 1.613 . S
S489 N491 1.610 . S
N490 S489 1.613 . S
N490 C493 1.350 . S
N491 S489 1.610 . S
N491 C492 1.351 . S
C492 C486 1.428 . S
C492 N491 1.351 . S
C492 C493 1.434 . S
C493 C484 1.429 1_455 S
C493 N490 1.350 . S
C493 C492 1.434 . S
C494 C495 1.369 . S
C494 C496 1.419 . S
C494 H498 0.930 . S
C495 C494 1.369 . S
C495 C504 1.429 . S
C496 C494 1.419 . S
C496 C497 1.363 . S
C496 H499 0.929 . S
C497 C496 1.363 . S
C497 C503 1.428 . S
H498 C494 0.930 . S
H499 C496 0.929 . S
S500 N501 1.613 . S
S500 N502 1.610 . S
N501 S500 1.613 . S
N501 C504 1.350 . S
N502 S500 1.610 . S
N502 C503 1.351 . S
C503 C497 1.428 . S
C503 N502 1.351 . S
C503 C504 1.434 . S
C504 C495 1.429 . S
C504 N501 1.350 . S
C504 C503 1.434 . S
C505 C506 1.369 . S
C505 C507 1.419 1_565 S
C505 H509 0.930 . S
C506 C505 1.369 . S
C506 C515 1.429 1_565 S
C507 C505 1.419 1_545 S
C507 C508 1.363 . S
C507 H510 0.929 1_545 S
C508 C507 1.363 . S
C508 C514 1.428 . S
H509 C505 0.930 . S
H510 C507 0.929 1_565 S
S511 N512 1.613 . S
S511 N513 1.610 . S
N512 S511 1.613 . S
N512 C515 1.350 . S
N513 S511 1.610 . S
N513 C514 1.351 . S
C514 C508 1.428 . S
C514 N513 1.351 . S
C514 C515 1.434 . S
C515 C506 1.429 1_545 S
C515 N512 1.350 . S
C515 C514 1.434 . S
C516 C517 1.369 . S
C516 C518 1.419 . S
C516 H520 0.930 . S
C517 C516 1.369 . S
C517 C526 1.429 . S
C518 C516 1.419 . S
C518 C519 1.363 . S
C518 H521 0.929 . S
C519 C518 1.363 . S
C519 C525 1.428 . S
H520 C516 0.930 . S
H521 C518 0.929 . S
S522 N523 1.613 . S
S522 N524 1.610 . S
N523 S522 1.613 . S
N523 C526 1.350 . S
N524 S522 1.610 . S
N524 C525 1.351 . S
C525 C519 1.428 . S
C525 N524 1.351 . S
C525 C526 1.434 . S
C526 C517 1.429 . S
C526 N523 1.350 . S
C526 C525 1.434 . S
C527 C528 1.369 . S
C527 C529 1.419 . S
C527 H531 0.930 . S
C528 C527 1.369 . S
C528 C537 1.429 . S
C529 C527 1.419 . S
C529 C530 1.363 . S
C529 H532 0.929 . S
C530 C529 1.363 . S
C530 C536 1.428 . S
H531 C527 0.930 . S
H532 C529 0.929 . S
S533 N534 1.613 . S
S533 N535 1.610 . S
N534 S533 1.613 . S
N534 C537 1.350 . S
N535 S533 1.610 . S
N535 C536 1.351 . S
C536 C530 1.428 . S
C536 N535 1.351 . S
C536 C537 1.434 . S
C537 C528 1.429 . S
C537 N534 1.350 . S
C537 C536 1.434 . S
C538 C539 1.369 . S
C538 C540 1.419 . S
C538 H542 0.930 . S
C539 C538 1.369 . S
C539 C548 1.429 . S
C540 C538 1.419 . S
C540 C541 1.363 . S
C540 H543 0.929 . S
C541 C540 1.363 . S
C541 C547 1.428 . S
H542 C538 0.930 . S
H543 C540 0.929 . S
S544 N545 1.613 . S
S544 N546 1.610 . S
N545 S544 1.613 . S
N545 C548 1.350 . S
N546 S544 1.610 . S
N546 C547 1.351 . S
C547 C541 1.428 . S
C547 N546 1.351 . S
C547 C548 1.434 . S
C548 C539 1.429 . S
C548 N545 1.350 . S
C548 C547 1.434 . S
C549 C550 1.369 . S
C549 C551 1.419 . S
C549 H553 0.930 . S
C550 C549 1.369 . S
C550 C559 1.429 . S
C551 C549 1.419 . S
C551 C552 1.363 . S
C551 H554 0.929 . S
C552 C551 1.363 . S
C552 C558 1.428 . S
H553 C549 0.930 . S
H554 C551 0.929 . S
S555 N556 1.613 . S
S555 N557 1.610 . S
N556 S555 1.613 . S
N556 C559 1.350 . S
N557 S555 1.610 . S
N557 C558 1.351 . S
C558 C552 1.428 . S
C558 N557 1.351 . S
C558 C559 1.434 . S
C559 C550 1.429 . S
C559 N556 1.350 . S
C559 C558 1.434 . S
C560 C561 1.369 . S
C560 C562 1.419 . S
C560 H564 0.930 . S
C561 C560 1.369 . S
C561 C570 1.429 . S
C562 C560 1.419 . S
C562 C563 1.363 . S
C562 H565 0.929 . S
C563 C562 1.363 . S
C563 C569 1.428 . S
H564 C560 0.930 . S
H565 C562 0.929 . S
S566 N567 1.613 . S
S566 N568 1.610 . S
N567 S566 1.613 . S
N567 C570 1.350 . S
N568 S566 1.610 . S
N568 C569 1.351 . S
C569 C563 1.428 . S
C569 N568 1.351 . S
C569 C570 1.434 . S
C570 C561 1.429 . S
C570 N567 1.350 . S
C570 C569 1.434 . S
C571 C572 1.369 . S
C571 C573 1.419 . S
C571 H575 0.930 . S
C572 C571 1.369 . S
C572 C581 1.429 . S
C573 C571 1.419 . S
C573 C574 1.363 . S
C573 H576 0.929 . S
C574 C573 1.363 . S
C574 C580 1.428 . S
H575 C571 0.930 . S
H576 C573 0.929 . S
S577 N578 1.613 . S
S577 N579 1.610 . S
N578 S577 1.613 . S
N578 C581 1.350 . S
N579 S577 1.610 . S
N579 C580 1.351 . S
C580 C574 1.428 . S
C580 N579 1.351 . S
C580 C581 1.434 . S
C581 C572 1.429 . S
C581 N578 1.350 . S
C581 C580 1.434 . S
C582 C583 1.369 . S
C582 C584 1.419 . S
C582 H586 0.930 . S
C583 C582 1.369 . S
C583 C592 1.429 . S
C584 C582 1.419 . S
C584 C585 1.363 . S
C584 H587 0.929 . S
C585 C584 1.363 . S
C585 C591 1.428 . S
H586 C582 0.930 . S
H587 C584 0.929 . S
S588 N589 1.613 . S
S588 N590 1.610 . S
N589 S588 1.613 . S
N589 C592 1.350 . S
N590 S588 1.610 . S
N590 C591 1.351 . S
C591 C585 1.428 . S
C591 N590 1.351 . S
C591 C592 1.434 . S
C592 C583 1.429 . S
C592 N589 1.350 . S
C592 C591 1.434 . S
C593 C594 1.369 . S
C593 C595 1.419 . S
C593 H597 0.930 . S
C594 C593 1.369 . S
C594 C603 1.429 . S
C595 C593 1.419 . S
C595 C596 1.363 . S
C595 H598 0.929 . S
C596 C595 1.363 . S
C596 C602 1.428 . S
H597 C593 0.930 . S
H598 C595 0.929 . S
S599 N600 1.613 . S
S599 N601 1.610 . S
N600 S599 1.613 . S
N600 C603 1.350 . S
N601 S599 1.610 . S
N601 C602 1.351 . S
C602 C596 1.428 . S
C602 N601 1.351 . S
C602 C603 1.434 . S
C603 C594 1.429 . S
C603 N600 1.350 . S
C603 C602 1.434 . S
C604 C605 1.369 . S
C604 C606 1.419 . S
C604 H608 0.930 . S
C605 C604 1.369 . S
C605 C614 1.429 . S
C606 C604 1.419 . S
C606 C607 1.363 . S
C606 H609 0.929 . S
C607 C606 1.363 . S
C607 C613 1.428 . S
H608 C604 0.930 . S
H609 C606 0.929 . S
S610 N611 1.613 . S
S610 N612 1.610 . S
N611 S610 1.613 . S
N611 C614 1.350 . S
N612 S610 1.610 . S
N612 C613 1.351 . S
C613 C607 1.428 . S
C613 N612 1.351 . S
C613 C614 1.434 . S
C614 C605 1.429 . S
C614 N611 1.350 . S
C614 C613 1.434 . S
C615 C616 1.369 . S
C615 C617 1.419 . S
C615 H619 0.930 . S
C616 C615 1.369 . S
C616 C625 1.429 . S
C617 C615 1.419 . S
C617 C618 1.363 . S
C617 H620 0.929 . S
C618 C617 1.363 . S
C618 C624 1.428 . S
H619 C615 0.930 . S
H620 C617 0.929 . S
S621 N622 1.613 . S
S621 N623 1.610 . S
N622 S621 1.613 . S
N622 C625 1.350 . S
N623 S621 1.610 . S
N623 C624 1.351 . S
C624 C618 1.428 . S
C624 N623 1.351 . S
C624 C625 1.434 . S
C625 C616 1.429 . S
C625 N622 1.350 . S
C625 C624 1.434 . S
C626 C627 1.369 . S
C626 C628 1.419 . S
C626 H630 0.930 . S
C627 C626 1.369 . S
C627 C636 1.429 . S
C628 C626 1.419 . S
C628 C629 1.363 . S
C628 H631 0.929 . S
C629 C628 1.363 . S
C629 C635 1.428 . S
H630 C626 0.930 . S
H631 C628 0.929 . S
S632 N633 1.613 . S
S632 N634 1.610 . S
N633 S632 1.613 . S
N633 C636 1.350 . S
N634 S632 1.610 . S
N634 C635 1.351 . S
C635 C629 1.428 . S
C635 N634 1.351 . S
C635 C636 1.434 . S
C636 C627 1.429 . S
C636 N633 1.350 . S
C636 C635 1.434 . S
C637 C638 1.369 . S
C637 C639 1.419 . S
C637 H641 0.930 . S
C638 C637 1.369 . S
C638 C647 1.429 . S
C639 C637 1.419 . S
C639 C640 1.363 . S
C639 H642 0.929 . S
C640 C639 1.363 . S
C640 C646 1.428 . S
H641 C637 0.930 . S
H642 C639 0.929 . S
S643 N644 1.613 . S
S643 N645 1.610 . S
N644 S643 1.613 . S
N644 C647 1.350 1_455 S
N645 S643 1.610 . S
N645 C646 1.351 1_455 S
C646 C640 1.428 . S
C646 N645 1.351 1_655 S
C646 C647 1.434 . S
C647 C638 1.429 . S
C647 N644 1.350 1_655 S
C647 C646 1.434 . S
C648 C649 1.369 . S
C648 C650 1.419 . S
C648 H652 0.930 . S
C649 C648 1.369 . S
C649 C658 1.429 . S
C650 C648 1.419 . S
C650 C651 1.363 . S
C650 H653 0.929 . S
C651 C650 1.363 . S
C651 C657 1.428 . S
H652 C648 0.930 . S
H653 C650 0.929 . S
S654 N655 1.613 . S
S654 N656 1.610 . S
N655 S654 1.613 . S
N655 C658 1.350 . S
N656 S654 1.610 . S
N656 C657 1.351 . S
C657 C651 1.428 . S
C657 N656 1.351 . S
C657 C658 1.434 . S
C658 C649 1.429 . S
C658 N655 1.350 . S
C658 C657 1.434 . S
C659 C660 1.369 . S
C659 C661 1.419 . S
C659 H663 0.930 . S
C660 C659 1.369 . S
C660 C669 1.429 . S
C661 C659 1.419 . S
C661 C662 1.363 . S
C661 H664 0.929 . S
C662 C661 1.363 . S
C662 C668 1.428 . S
H663 C659 0.930 . S
H664 C661 0.929 . S
S665 N666 1.613 . S
S665 N667 1.610 . S
N666 S665 1.613 . S
N666 C669 1.350 . S
N667 S665 1.610 . S
N667 C668 1.351 . S
C668 C662 1.428 . S
C668 N667 1.351 . S
C668 C669 1.434 . S
C669 C660 1.429 . S
C669 N666 1.350 . S
C669 C668 1.434 . S
C670 C671 1.369 1_554 S
C670 C672 1.419 . S
C670 H674 0.930 . S
C671 C670 1.369 1_556 S
C671 C680 1.429 1_556 S
C672 C670 1.419 . S
C672 C673 1.363 . S
C672 H675 0.929 . S
C673 C672 1.363 . S
C673 C679 1.428 . S
H674 C670 0.930 . S
H675 C672 0.929 . S
S676 N677 1.613 1_564 S
S676 N678 1.610 . S
N677 S676 1.613 1_546 S
N677 C680 1.350 1_556 S
N678 S676 1.610 . S
N678 C679 1.351 1_565 S
C679 C673 1.428 . S
C679 N678 1.351 1_545 S
C679 C680 1.434 . S
C680 C671 1.429 1_554 S
C680 N677 1.350 1_554 S
C680 C679 1.434 . S
C681 C682 1.369 . S
C681 C683 1.419 . S
C681 H685 0.930 . S
C682 C681 1.369 . S
C682 C691 1.429 . S
C683 C681 1.419 . S
C683 C684 1.363 . S
C683 H686 0.929 . S
C684 C683 1.363 . S
C684 C690 1.428 . S
H685 C681 0.930 . S
H686 C683 0.929 . S
S687 N688 1.613 . S
S687 N689 1.610 . S
N688 S687 1.613 . S
N688 C691 1.350 . S
N689 S687 1.610 . S
N689 C690 1.351 . S
C690 C684 1.428 . S
C690 N689 1.351 . S
C690 C691 1.434 . S
C691 C682 1.429 . S
C691 N688 1.350 . S
C691 C690 1.434 . S
C692 C693 1.369 . S
C692 C694 1.419 . S
C692 H696 0.930 . S
C693 C692 1.369 . S
C693 C702 1.429 . S
C694 C692 1.419 . S
C694 C695 1.363 . S
C694 H697 0.929 . S
C695 C694 1.363 . S
C695 C701 1.428 . S
H696 C692 0.930 . S
H697 C694 0.929 . S
S698 N699 1.613 1_545 S
S698 N700 1.607 . S
N699 S698 1.613 1_565 S
N699 C702 1.350 1_565 S
N700 S698 1.607 . S
N700 C701 1.351 . S
C701 C695 1.428 . S
C701 N700 1.351 . S
C701 C702 1.434 . S
C702 C693 1.429 . S
C702 N699 1.350 1_545 S
C702 C701 1.434 . S
C703 C704 1.369 . S
C703 C705 1.419 . S
C703 H707 0.930 . S
C704 C703 1.369 . S
C704 C713 1.429 . S
C705 C703 1.419 . S
C705 C706 1.363 . S
C705 H708 0.929 . S
C706 C705 1.363 . S
C706 C712 1.428 . S
H707 C703 0.930 . S
H708 C705 0.929 . S
S709 N710 1.613 . S
S709 N711 1.610 . S
N710 S709 1.613 . S
N710 C713 1.350 . S
N711 S709 1.610 . S
N711 C712 1.351 . S
C712 C706 1.428 . S
C712 N711 1.351 . S
C712 C713 1.434 . S
C713 C704 1.429 . S
C713 N710 1.350 . S
C713 C712 1.434 . S
C714 C715 1.369 1_545 S
C714 C716 1.419 . S
C714 H718 0.930 1_545 S
C715 C714 1.369 1_565 S
C715 C724 1.429 1_565 S
C716 C714 1.419 . S
C716 C717 1.363 . S
C716 H719 0.929 . S
C717 C716 1.363 . S
C717 C723 1.428 . S
H718 C714 0.930 1_565 S
H719 C716 0.929 . S
S720 N721 1.613 . S
S720 N722 1.610 . S
N721 S720 1.613 . S
N721 C724 1.350 . S
N722 S720 1.610 . S
N722 C723 1.351 . S
C723 C717 1.428 . S
C723 N722 1.351 . S
C723 C724 1.434 . S
C724 C715 1.429 1_545 S
C724 N721 1.350 . S
C724 C723 1.434 . S
C725 C726 1.369 . S
C725 C727 1.419 . S
C725 H729 0.930 . S
C726 C725 1.369 . S
C726 C735 1.429 . S
C727 C725 1.419 . S
C727 C728 1.363 . S
C727 H730 0.929 . S
C728 C727 1.363 . S
C728 C734 1.428 . S
H729 C725 0.930 . S
H730 C727 0.929 . S
S731 N732 1.613 . S
S731 N733 1.610 . S
N732 S731 1.613 . S
N732 C735 1.350 . S
N733 S731 1.610 . S
N733 C734 1.351 . S
C734 C728 1.428 . S
C734 N733 1.351 . S
C734 C735 1.434 . S
C735 C726 1.429 . S
C735 N732 1.350 . S
C735 C734 1.434 . S
C736 C737 1.369 . S
C736 C738 1.419 . S
C736 H740 0.930 . S
C737 C736 1.369 . S
C737 C746 1.429 . S
C738 C736 1.419 . S
C738 C739 1.363 . S
C738 H741 0.929 . S
C739 C738 1.363 . S
C739 C745 1.428 . S
H740 C736 0.930 . S
H741 C738 0.929 . S
S742 N743 1.613 . S
S742 N744 1.610 . S
N743 S742 1.613 . S
N743 C746 1.350 . S
N744 S742 1.610 . S
N744 C745 1.351 . S
C745 C739 1.428 . S
C745 N744 1.351 . S
C745 C746 1.434 . S
C746 C737 1.429 . S
C746 N743 1.350 . S
C746 C745 1.434 . S
C747 C748 1.369 . S
C747 C749 1.419 . S
C747 H751 0.930 . S
C748 C747 1.369 . S
C748 C757 1.429 . S
C749 C747 1.419 . S
C749 C750 1.363 . S
C749 H752 0.929 . S
C750 C749 1.363 . S
C750 C756 1.428 . S
H751 C747 0.930 . S
H752 C749 0.929 . S
S753 N754 1.602 1_565 S
S753 N755 1.611 1_565 S
N754 S753 1.602 1_545 S
N754 C757 1.350 . S
N755 S753 1.611 1_545 S
N755 C756 1.351 . S
C756 C750 1.428 . S
C756 N755 1.351 . S
C756 C757 1.434 . S
C757 C748 1.429 . S
C757 N754 1.350 . S
C757 C756 1.434 . S
C758 C759 1.369 . S
C758 C760 1.419 . S
C758 H762 0.930 . S
C759 C758 1.369 . S
C759 C768 1.429 . S
C760 C758 1.419 . S
C760 C761 1.363 . S
C760 H763 0.929 . S
C761 C760 1.363 . S
C761 C767 1.428 . S
H762 C758 0.930 . S
H763 C760 0.929 . S
S764 N765 1.613 . S
S764 N766 1.610 . S
N765 S764 1.613 . S
N765 C768 1.350 . S
N766 S764 1.610 . S
N766 C767 1.351 . S
C767 C761 1.428 . S
C767 N766 1.351 . S
C767 C768 1.434 . S
C768 C759 1.429 . S
C768 N765 1.350 . S
C768 C767 1.434 . S
C769 C770 1.369 . S
C769 C771 1.419 . S
C769 H773 0.930 . S
C770 C769 1.369 . S
C770 C779 1.429 . S
C771 C769 1.419 . S
C771 C772 1.363 . S
C771 H774 0.929 . S
C772 C771 1.363 . S
C772 C778 1.428 . S
H773 C769 0.930 . S
H774 C771 0.929 . S
S775 N776 1.613 . S
S775 N777 1.610 . S
N776 S775 1.613 . S
N776 C779 1.350 . S
N777 S775 1.610 . S
N777 C778 1.351 . S
C778 C772 1.428 . S
C778 N777 1.351 . S
C778 C779 1.434 . S
C779 C770 1.429 . S
C779 N776 1.350 . S
C779 C778 1.434 . S
C780 C781 1.369 . S
C780 C782 1.419 . S
C780 H784 0.930 . S
C781 C780 1.369 . S
C781 C790 1.429 . S
C782 C780 1.419 . S
C782 C783 1.363 . S
C782 H785 0.929 . S
C783 C782 1.363 . S
C783 C789 1.428 . S
H784 C780 0.930 . S
H785 C782 0.929 . S
S786 N787 1.613 . S
S786 N788 1.610 . S
N787 S786 1.613 . S
N787 C790 1.350 . S
N788 S786 1.610 . S
N788 C789 1.351 . S
C789 C783 1.428 . S
C789 N788 1.351 . S
C789 C790 1.434 . S
C790 C781 1.429 . S
C790 N787 1.350 . S
C790 C789 1.434 . S
C791 C792 1.369 . S
C791 C793 1.419 . S
C791 H795 0.930 . S
C792 C791 1.369 . S
C792 C801 1.429 . S
C793 C791 1.419 . S
C793 C794 1.363 . S
C793 H796 0.929 . S
C794 C793 1.363 . S
C794 C800 1.428 . S
H795 C791 0.930 . S
H796 C793 0.929 . S
S797 N798 1.613 . S
S797 N799 1.610 . S
N798 S797 1.613 . S
N798 C801 1.350 . S
N799 S797 1.610 . S
N799 C800 1.351 . S
C800 C794 1.428 . S
C800 N799 1.351 . S
C800 C801 1.434 . S
C801 C792 1.429 . S
C801 N798 1.350 . S
C801 C800 1.434 . S
C802 C803 1.369 . S
C802 C804 1.419 . S
C802 H806 0.930 . S
C803 C802 1.369 . S
C803 C812 1.429 . S
C804 C802 1.419 . S
C804 C805 1.363 . S
C804 H807 0.929 . S
C805 C804 1.363 . S
C805 C811 1.428 . S
H806 C802 0.930 . S
H807 C804 0.929 . S
S808 N809 1.613 . S
S808 N810 1.610 . S
N809 S808 1.613 . S
N809 C812 1.350 . S
N810 S808 1.610 . S
N810 C811 1.351 . S
C811 C805 1.428 . S
C811 N810 1.351 . S
C811 C812 1.434 . S
C812 C803 1.429 . S
C812 N809 1.350 . S
C812 C811 1.434 . S
C813 C814 1.369 . S
C813 C815 1.419 1_655 S
C813 H817 0.930 . S
C814 C813 1.369 . S
C814 C823 1.429 . S
C815 C813 1.419 1_455 S
C815 C816 1.363 . S
C815 H818 0.929 . S
C816 C815 1.363 . S
C816 C822 1.428 1_455 S
H817 C813 0.930 . S
H818 C815 0.929 . S
S819 N820 1.613 . S
S819 N821 1.610 . S
N820 S819 1.613 . S
N820 C823 1.350 . S
N821 S819 1.610 . S
N821 C822 1.351 . S
C822 C816 1.428 1_655 S
C822 N821 1.351 . S
C822 C823 1.434 . S
C823 C814 1.429 . S
C823 N820 1.350 . S
C823 C822 1.434 . S
C824 C825 1.369 . S
C824 C826 1.419 . S
C824 H828 0.930 . S
C825 C824 1.369 . S
C825 C834 1.429 . S
C826 C824 1.419 . S
C826 C827 1.363 . S
C826 H829 0.929 . S
C827 C826 1.363 . S
C827 C833 1.428 . S
H828 C824 0.930 . S
H829 C826 0.929 . S
S830 N831 1.613 . S
S830 N832 1.610 . S
N831 S830 1.613 . S
N831 C834 1.350 . S
N832 S830 1.610 . S
N832 C833 1.351 . S
C833 C827 1.428 . S
C833 N832 1.351 . S
C833 C834 1.434 . S
C834 C825 1.429 . S
C834 N831 1.350 . S
C834 C833 1.434 . S
C835 C836 1.369 . S
C835 C837 1.419 . S
C835 H839 0.930 . S
C836 C835 1.369 . S
C836 C845 1.429 . S
C837 C835 1.419 . S
C837 C838 1.363 . S
C837 H840 0.929 . S
C838 C837 1.363 . S
C838 C844 1.428 . S
H839 C835 0.930 . S
H840 C837 0.929 . S
S841 N842 1.613 . S
S841 N843 1.610 . S
N842 S841 1.613 . S
N842 C845 1.350 . S
N843 S841 1.610 . S
N843 C844 1.351 . S
C844 C838 1.428 . S
C844 N843 1.351 . S
C844 C845 1.434 . S
C845 C836 1.429 . S
C845 N842 1.350 . S
C845 C844 1.434 . S
C846 C847 1.369 . S
C846 C848 1.419 . S
C846 H850 0.930 . S
C847 C846 1.369 . S
C847 C856 1.429 . S
C848 C846 1.419 . S
C848 C849 1.363 . S
C848 H851 0.929 . S
C849 C848 1.363 . S
C849 C855 1.428 . S
H850 C846 0.930 . S
H851 C848 0.929 . S
S852 N853 1.613 . S
S852 N854 1.610 . S
N853 S852 1.613 . S
N853 C856 1.350 . S
N854 S852 1.610 . S
N854 C855 1.351 . S
C855 C849 1.428 . S
C855 N854 1.351 . S
C855 C856 1.434 . S
C856 C847 1.429 . S
C856 N853 1.350 . S
C856 C855 1.434 . S
C857 C858 1.369 1_556 S
C857 C859 1.419 . S
C857 H861 0.930 . S
C858 C857 1.369 1_554 S
C858 C867 1.429 . S
C859 C857 1.419 . S
C859 C860 1.363 . S
C859 H862 0.929 . S
C860 C859 1.363 . S
C860 C866 1.428 . S
H861 C857 0.930 . S
H862 C859 0.929 . S
S863 N864 1.613 . S
S863 N865 1.610 1_554 S
N864 S863 1.613 . S
N864 C867 1.350 . S
N865 S863 1.610 1_556 S
N865 C866 1.351 . S
C866 C860 1.428 . S
C866 N865 1.351 . S
C866 C867 1.434 1_556 S
C867 C858 1.429 . S
C867 N864 1.350 . S
C867 C866 1.434 1_554 S
C868 C869 1.369 . S
C868 C870 1.419 . S
C868 H872 0.930 . S
C869 C868 1.369 . S
C869 C878 1.429 . S
C870 C868 1.419 . S
C870 C871 1.363 . S
C870 H873 0.929 . S
C871 C870 1.363 . S
C871 C877 1.428 . S
H872 C868 0.930 . S
H873 C870 0.929 . S
S874 N875 1.613 . S
S874 N876 1.610 . S
N875 S874 1.613 . S
N875 C878 1.350 . S
N876 S874 1.610 . S
N876 C877 1.351 . S
C877 C871 1.428 . S
C877 N876 1.351 . S
C877 C878 1.434 . S
C878 C869 1.429 . S
C878 N875 1.350 . S
C878 C877 1.434 . S
C879 C880 1.369 . S
C879 C881 1.419 . S
C879 H883 0.930 . S
C880 C879 1.369 . S
C880 C889 1.429 . S
C881 C879 1.419 . S
C881 C882 1.363 . S
C881 H884 0.929 . S
C882 C881 1.363 . S
C882 C888 1.428 . S
H883 C879 0.930 . S
H884 C881 0.929 . S
S885 N886 1.613 . S
S885 N887 1.610 . S
N886 S885 1.613 . S
N886 C889 1.350 . S
N887 S885 1.610 . S
N887 C888 1.351 . S
C888 C882 1.428 . S
C888 N887 1.351 . S
C888 C889 1.434 . S
C889 C880 1.429 . S
C889 N886 1.350 . S
C889 C888 1.434 . S
C890 C891 1.369 . S
C890 C892 1.419 . S
C890 H894 0.930 . S
C891 C890 1.369 . S
C891 C900 1.429 . S
C892 C890 1.419 . S
C892 C893 1.363 . S
C892 H895 0.929 . S
C893 C892 1.363 . S
C893 C899 1.428 . S
H894 C890 0.930 . S
H895 C892 0.929 . S
S896 N897 1.613 . S
S896 N898 1.610 . S
N897 S896 1.613 . S
N897 C900 1.350 . S
N898 S896 1.610 . S
N898 C899 1.351 . S
C899 C893 1.428 . S
C899 N898 1.351 . S
C899 C900 1.434 . S
C900 C891 1.429 . S
C900 N897 1.350 . S
C900 C899 1.434 . S
C901 C902 1.369 . S
C901 C903 1.419 . S
C901 H905 0.930 . S
C902 C901 1.369 . S
C902 C911 1.429 . S
C903 C901 1.419 . S
C903 C904 1.363 . S
C903 H906 0.929 . S
C904 C903 1.363 . S
C904 C910 1.428 . S
H905 C901 0.930 . S
H906 C903 0.929 . S
S907 N908 1.613 . S
S907 N909 1.610 . S
N908 S907 1.613 . S
N908 C911 1.350 . S
N909 S907 1.610 . S
N909 C910 1.351 . S
C910 C904 1.428 . S
C910 N909 1.351 . S
C910 C911 1.434 . S
C911 C902 1.429 . S
C911 N908 1.350 . S
C911 C910 1.434 . S
C912 C913 1.369 . S
C912 C914 1.419 . S
C912 H916 0.930 . S
C913 C912 1.369 . S
C913 C922 1.429 . S
C914 C912 1.419 . S
C914 C915 1.363 . S
C914 H917 0.929 . S
C915 C914 1.363 . S
C915 C921 1.428 . S
H916 C912 0.930 . S
H917 C914 0.929 . S
S918 N919 1.613 . S
S918 N920 1.610 . S
N919 S918 1.613 . S
N919 C922 1.350 . S
N920 S918 1.610 . S
N920 C921 1.351 . S
C921 C915 1.428 . S
C921 N920 1.351 . S
C921 C922 1.434 . S
C922 C913 1.429 . S
C922 N919 1.350 . S
C922 C921 1.434 . S
C923 C924 1.369 . S
C923 C925 1.419 . S
C923 H927 0.930 . S
C924 C923 1.369 . S
C924 C933 1.429 . S
C925 C923 1.419 . S
C925 C926 1.363 . S
C925 H928 0.929 . S
C926 C925 1.363 . S
C926 C932 1.428 . S
H927 C923 0.930 . S
H928 C925 0.929 . S
S929 N930 1.613 . S
S929 N931 1.610 . S
N930 S929 1.613 . S
N930 C933 1.350 . S
N931 S929 1.610 . S
N931 C932 1.351 . S
C932 C926 1.428 . S
C932 N931 1.351 . S
C932 C933 1.434 . S
C933 C924 1.429 . S
C933 N930 1.350 . S
C933 C932 1.434 . S
C934 C935 1.369 . S
C934 C936 1.419 . S
C934 H938 0.930 . S
C935 C934 1.369 . S
C935 C944 1.429 . S
C936 C934 1.419 . S
C936 C937 1.363 . S
C936 H939 0.929 . S
C937 C936 1.363 . S
C937 C943 1.428 . S
H938 C934 0.930 . S
H939 C936 0.929 . S
S940 N941 1.613 . S
S940 N942 1.610 . S
N941 S940 1.613 . S
N941 C944 1.350 . S
N942 S940 1.610 . S
N942 C943 1.351 . S
C943 C937 1.428 . S
C943 N942 1.351 . S
C943 C944 1.434 . S
C944 C935 1.429 . S
C944 N941 1.350 . S
C944 C943 1.434 . S
C945 C946 1.369 . S
C945 C947 1.419 . S
C945 H949 0.930 . S
C946 C945 1.369 . S
C946 C955 1.429 . S
C947 C945 1.419 . S
C947 C948 1.363 . S
C947 H950 0.929 . S
C948 C947 1.363 . S
C948 C954 1.428 . S
H949 C945 0.930 . S
H950 C947 0.929 . S
S951 N952 1.613 . S
S951 N953 1.610 . S
N952 S951 1.613 . S
N952 C955 1.350 . S
N953 S951 1.610 . S
N953 C954 1.351 . S
C954 C948 1.428 . S
C954 N953 1.351 . S
C954 C955 1.434 . S
C955 C946 1.429 . S
C955 N952 1.350 . S
C955 C954 1.434 . S
C956 C957 1.369 . S
C956 C958 1.419 . S
C956 H960 0.930 . S
C957 C956 1.369 . S
C957 C966 1.429 . S
C958 C956 1.419 . S
C958 C959 1.363 . S
C958 H961 0.929 . S
C959 C958 1.363 . S
C959 C965 1.428 . S
H960 C956 0.930 . S
H961 C958 0.929 . S
S962 N963 1.613 . S
S962 N964 1.610 . S
N963 S962 1.613 . S
N963 C966 1.350 . S
N964 S962 1.610 . S
N964 C965 1.351 . S
C965 C959 1.428 . S
C965 N964 1.351 . S
C965 C966 1.434 . S
C966 C957 1.429 . S
C966 N963 1.350 . S
C966 C965 1.434 . S
C967 C968 1.369 . S
C967 C969 1.419 . S
C967 H971 0.930 . S
C968 C967 1.369 . S
C968 C977 1.429 . S
C969 C967 1.419 . S
C969 C970 1.363 . S
C969 H972 0.929 . S
C970 C969 1.363 . S
C970 C976 1.428 . S
H971 C967 0.930 . S
H972 C969 0.929 . S
S973 N974 1.613 . S
S973 N975 1.610 . S
N974 S973 1.613 . S
N974 C977 1.350 . S
N975 S973 1.610 . S
N975 C976 1.351 . S
C976 C970 1.428 . S
C976 N975 1.351 . S
C976 C977 1.434 . S
C977 C968 1.429 . S
C977 N974 1.350 . S
C977 C976 1.434 . S
C978 C979 1.369 . S
C978 C980 1.419 . S
C978 H982 0.930 . S
C979 C978 1.369 . S
C979 C988 1.429 . S
C980 C978 1.419 . S
C980 C981 1.363 . S
C980 H983 0.929 1_554 S
C981 C980 1.363 . S
C981 C987 1.428 . S
H982 C978 0.930 . S
H983 C980 0.929 1_556 S
S984 N985 1.613 . S
S984 N986 1.610 . S
N985 S984 1.613 . S
N985 C988 1.350 . S
N986 S984 1.610 . S
N986 C987 1.351 . S
C987 C981 1.428 . S
C987 N986 1.351 . S
C987 C988 1.434 . S
C988 C979 1.429 . S
C988 N985 1.350 . S
C988 C987 1.434 . S
C989 C990 1.369 . S
C989 C991 1.419 . S
C989 H993 0.930 . S
C990 C989 1.369 . S
C990 C999 1.429 . S
C991 C989 1.419 . S
C991 C992 1.363 . S
C991 H994 0.929 . S
C992 C991 1.363 . S
C992 C998 1.428 . S
H993 C989 0.930 . S
H994 C991 0.929 . S
S995 N996 1.613 . S
S995 N997 1.610 . S
N996 S995 1.613 . S
N996 C999 1.350 . S
N997 S995 1.610 . S
N997 C998 1.351 . S
C998 C992 1.428 . S
C998 N997 1.351 . S
C998 C999 1.434 . S
C999 C990 1.429 . S
C999 N996 1.350 . S
C999 C998 1.434 . S
C475 C312 1.966 . S
C473 C101 1.969 . S
C486 C327 1.559 . S
C484 C125 1.560 . S
C495 C139 2.132 . S
C497 C340 2.104 . S
C508 C354 1.663 . S
C506 C82 1.686 . S
C519 C366 1.733 . S
C517 C196 1.911 . S
C530 C380 1.584 . S
C528 C234 1.649 . S
C539 C220 1.256 . S
C541 C394 1.305 . S
C552 C409 1.578 . S
C550 C173 1.611 . S
C561 C211 1.505 . S
C563 C425 1.425 . S
C574 C438 1.306 . S
C572 C182 1.130 . S
C583 C201 1.442 . S
C585 C423 1.569 . S
C596 C436 1.771 . S
C594 C239 1.790 . S
C605 C135 1.981 . S
C607 C452 1.963 . S
C616 C87 1.763 . S
C618 C451 1.791 . S
C627 C106 1.326 . S
C629 C450 1.468 . S
C638 C116 1.387 . S
C640 C453 1.414 . S
C649 C59 2.054 . S
C651 C355 2.049 1_565 S
C660 C268 1.959 . S
C662 C353 1.931 . S
C673 C313 1.303 1_545 S
C671 C291 1.409 . S
C684 C324 1.658 . S
C682 C163 1.565 . S
C693 C78 1.822 1_545 S
C695 C369 1.819 . S
C706 C410 1.630 . S
C704 C215 1.637 . S
C717 C367 2.010 . S
C715 C177 2.015 . S
C728 C395 1.649 . S
C726 C230 1.676 . S
C739 C396 1.965 . S
C737 C272 1.969 . S
C748 C296 1.552 . S
C750 C411 1.554 . S
C759 C158 2.131 . S
C761 C368 2.106 . S
C772 C382 1.662 . S
C770 C253 1.686 . S
C781 C63 1.912 . S
C783 C338 1.727 . S
C794 C352 1.581 . S
C792 C6 1.649 . S
C805 C310 1.305 . S
C803 C30 1.258 . S
C816 C325 1.574 . S
C814 C40 1.607 . S
C825 C21 1.510 . S
C827 C439 1.418 . S
C836 C49 1.130 . S
C838 C424 1.306 . S
C847 C68 1.446 . S
C849 C437 1.567 . S
C858 C11 1.785 . S
C860 C422 1.772 . S
C871 C466 1.961 . S
C869 C154 1.980 . S
C882 C465 1.792 . S
C880 C258 1.767 1_554 S
C893 C464 1.471 . S
C891 C277 1.320 . S
C902 C287 1.396 1_554 S
C904 C467 1.409 . S
C913 C192 2.055 . S
C915 C383 2.047 . S
C926 C381 1.931 . S
C924 C97 1.957 . S
C937 C397 1.312 . S
C935 C120 1.401 . S
C948 C408 1.658 . S
C946 C144 1.575 . S
C957 C249 1.816 . S
C959 C341 1.823 . S
C970 C326 1.631 . S
C968 C25 1.639 . S
C979 C44 2.011 . S
C981 C339 2.015 . S
C992 C311 1.642 . S
C990 C2 1.678 . S
