# Generated by pormake.
# Topology anh, (6,3)-cn, num edge types: 1
# Building blocks:
#     Node 0, Type 0, BuildingBlock: VOLQOD_clean_sbu_1, # of connection points: 6
#     Node 1, Type 0, BuildingBlock: VOLQOD_clean_sbu_1, # of connection points: 6
#     Node 2, Type 0, BuildingBlock: VOLQOD_clean_sbu_1, # of connection points: 6
#     Node 3, Type 1, BuildingBlock: PAMTOO_clean_linker_0, # of connection points: 3
#     Node 4, Type 1, BuildingBlock: PAMTOO_clean_linker_0, # of connection points: 3
#     Node 5, Type 1, BuildingBlock: PAMTOO_clean_linker_0, # of connection points: 3
#     Node 6, Type 1, BuildingBlock: PAMTOO_clean_linker_0, # of connection points: 3
#     Node 7, Type 1, BuildingBlock: PAMTOO_clean_linker_0, # of connection points: 3
#     Node 8, Type 1, BuildingBlock: PAMTOO_clean_linker_0, # of connection points: 3
#     Edge 9, Type (0, 1), BuildingBlock: FUNLAD_clean_linker_1, # of connection points: 2
#     Edge 10, Type (0, 1), BuildingBlock: FUNLAD_clean_linker_1, # of connection points: 2
#     Edge 11, Type (0, 1), BuildingBlock: FUNLAD_clean_linker_1, # of connection points: 2
#     Edge 12, Type (0, 1), BuildingBlock: FUNLAD_clean_linker_1, # of connection points: 2
#     Edge 13, Type (0, 1), BuildingBlock: FUNLAD_clean_linker_1, # of connection points: 2
#     Edge 14, Type (0, 1), BuildingBlock: FUNLAD_clean_linker_1, # of connection points: 2
#     Edge 15, Type (0, 1), BuildingBlock: FUNLAD_clean_linker_1, # of connection points: 2
#     Edge 16, Type (0, 1), BuildingBlock: FUNLAD_clean_linker_1, # of connection points: 2
#     Edge 17, Type (0, 1), BuildingBlock: FUNLAD_clean_linker_1, # of connection points: 2
#     Edge 18, Type (0, 1), BuildingBlock: FUNLAD_clean_linker_1, # of connection points: 2
#     Edge 19, Type (0, 1), BuildingBlock: FUNLAD_clean_linker_1, # of connection points: 2
#     Edge 20, Type (0, 1), BuildingBlock: FUNLAD_clean_linker_1, # of connection points: 2
#     Edge 21, Type (0, 1), BuildingBlock: FUNLAD_clean_linker_1, # of connection points: 2
#     Edge 22, Type (0, 1), BuildingBlock: FUNLAD_clean_linker_1, # of connection points: 2
#     Edge 23, Type (0, 1), BuildingBlock: FUNLAD_clean_linker_1, # of connection points: 2
#     Edge 24, Type (0, 1), BuildingBlock: FUNLAD_clean_linker_1, # of connection points: 2
#     Edge 25, Type (0, 1), BuildingBlock: FUNLAD_clean_linker_1, # of connection points: 2
#     Edge 26, Type (0, 1), BuildingBlock: FUNLAD_clean_linker_1, # of connection points: 2
# Relax obj value: 0.159
# Max RMSD: 0.218
# Mean RMSD: 0.138
data_MOF--net-anh--node1-VOLQOD_clean_sbu_1--node2-PAMTOO_clean_linker_0--edge1-FUNLAD_clean_linker_1
_symmetry_space_group_name_H-M    P1
_symmetry_Int_Tables_number       1
_symmetry_cell_setting            triclinic
loop_
_symmetry_equiv_pos_as_xyz
'x, y, z'
_cell_length_a     30.514226
_cell_length_b     30.452352
_cell_length_c     58.748134
_cell_angle_alpha  84.540992
_cell_angle_beta   92.662278
_cell_angle_gamma 120.19852
loop_
_atom_site_label
_atom_site_type_symbol
_atom_site_fract_x
_atom_site_fract_y
_atom_site_fract_z
_atom_type_partial_charge
O0 O 0.06835 0.54796 0.21561 0.0
Zn1 Zn 0.07368 0.56943 0.18167 0.0
O2 O 0.07641 0.51872 0.16445 0.0
Zn3 Zn 0.02325 0.49443 0.14142 0.0
Zn4 Zn 0.0672 0.46041 0.18499 0.0
Zn5 Zn 0.14192 0.54982 0.14946 0.0
O6 O 0.05171 0.50905 0.10946 0.0
O7 O 0.13473 0.55587 0.11524 0.0
O8 O 0.01516 0.58016 0.1713 0.0
O9 O 0.98345 0.52986 0.14273 0.0
O10 O 0.9719 0.4199 0.1478 0.0
O11 O 0.99744 0.39973 0.18117 0.0
O12 O 0.11919 0.44021 0.17894 0.0
O13 O 0.13883 0.63722 0.17802 0.0
O14 O 0.17344 0.50612 0.15598 0.0
O15 O 0.1896 0.6196 0.15972 0.0
C16 C 0.07177 0.51221 0.22722 0.0
C17 C 0.09694 0.53596 0.10187 0.0
C18 C 0.96509 0.3885 0.16504 0.0
C19 C 0.98307 0.56151 0.15529 0.0
C20 C 0.16001 0.4635 0.1673 0.0
C21 C 0.18216 0.65025 0.16996 0.0
O22 O 0.07399 0.47757 0.21766 0.0
O23 O 0.59053 0.04506 0.45502 0.0
Zn24 Zn 0.57585 0.04299 0.48839 0.0
O25 O 0.62578 0.03406 0.50735 0.0
Zn26 Zn 0.66661 0.0931 0.5242 0.0
Zn27 Zn 0.6705 0.02394 0.4884 0.0
Zn28 Zn 0.59055 0.97633 0.52963 0.0
O29 O 0.66453 0.07526 0.55805 0.0
O30 O 0.5964 0.99782 0.5616 0.0
O31 O 0.57528 0.10735 0.49493 0.0
O32 O 0.63923 0.14029 0.51957 0.0
O33 O 0.73815 0.13302 0.51291 0.0
O34 O 0.74076 0.08686 0.4865 0.0
O35 O 0.67565 0.96201 0.50096 0.0
O36 O 0.50589 0.98108 0.49329 0.0
O37 O 0.62202 0.93254 0.53037 0.0
O38 O 0.51745 0.93272 0.52091 0.0
C39 C 0.61559 0.02924 0.44502 0.0
C40 C 0.63119 0.03739 0.57036 0.0
C41 C 0.76182 0.12664 0.49747 0.0
C42 C 0.60392 0.14208 0.50796 0.0
C43 C 0.65399 0.93019 0.51817 0.0
C44 C 0.48915 0.93987 0.50626 0.0
O45 O 0.64455 0.01583 0.456 0.0
O46 O 0.56733 0.50573 0.78256 0.0
Zn47 Zn 0.54831 0.48309 0.81572 0.0
O48 O 0.60094 0.5317 0.83535 0.0
Zn49 Zn 0.57199 0.56169 0.85319 0.0
Zn50 Zn 0.65777 0.58571 0.81658 0.0
Zn51 Zn 0.62526 0.49585 0.85665 0.0
O52 O 0.5817 0.55251 0.88716 0.0
O53 O 0.61276 0.50015 0.88948 0.0
O54 O 0.48002 0.47682 0.82073 0.0
O55 O 0.49753 0.53016 0.84752 0.0
O56 O 0.60212 0.63599 0.8437 0.0
O57 O 0.66315 0.65432 0.81892 0.0
O58 O 0.72473 0.5907 0.82631 0.0
O59 O 0.54123 0.41309 0.82149 0.0
O60 O 0.69998 0.52629 0.85321 0.0
O61 O 0.59366 0.42252 0.85059 0.0
C62 C 0.60772 0.53963 0.77228 0.0
C63 C 0.59692 0.52543 0.89894 0.0
C64 C 0.63778 0.66767 0.83028 0.0
C65 C 0.46621 0.49799 0.83421 0.0
C66 C 0.73453 0.56332 0.84105 0.0
C67 C 0.56177 0.39519 0.83604 0.0
O68 O 0.64619 0.57145 0.78313 0.0
H69 H 0.65428 0.10263 0.27003 0.0
H70 H 0.49894 0.98662 0.2603 0.0
H71 H 0.59562 0.06438 0.20224 0.0
H72 H 0.48562 0.0418 0.19548 0.0
C73 C 0.46888 0.00936 0.20884 0.0
O74 O 0.50453 0.99563 0.21575 0.0
H75 H 0.45645 0.021 0.22354 0.0
C76 C 0.62348 0.07934 0.25892 0.0
C77 C 0.6314 0.08811 0.23517 0.0
C78 C 0.57596 0.0426 0.26828 0.0
C79 C 0.53597 0.01481 0.25347 0.0
C80 C 0.54328 0.0232 0.22976 0.0
C81 C 0.59084 0.05946 0.2206 0.0
H82 H 0.68251 0.6353 0.5941 0.0
H83 H 0.63099 0.47524 0.59443 0.0
H84 H 0.64887 0.56394 0.53069 0.0
H85 H 0.55692 0.46696 0.53419 0.0
C86 C 0.57015 0.44332 0.54455 0.0
O87 O 0.62076 0.47286 0.54992 0.0
H88 H 0.54703 0.42692 0.56047 0.0
C89 C 0.66921 0.60169 0.58488 0.0
C90 C 0.66658 0.60543 0.56082 0.0
C91 C 0.65643 0.55485 0.59714 0.0
C92 C 0.64126 0.51168 0.5852 0.0
C93 C 0.63785 0.51498 0.56131 0.0
C94 C 0.65147 0.56189 0.54919 0.0
H95 H 0.04346 0.60077 0.91861 0.0
H96 H 0.14496 0.54059 0.92306 0.0
H97 H 0.10235 0.58084 0.85753 0.0
H98 H 0.11325 0.48845 0.85855 0.0
C99 C 0.13768 0.49599 0.87401 0.0
O100 O 0.15619 0.54547 0.87929 0.0
H101 H 0.11466 0.46861 0.88844 0.0
C102 C 0.06638 0.58894 0.91035 0.0
C103 C 0.06859 0.59221 0.88631 0.0
C104 C 0.09383 0.57073 0.92401 0.0
C105 C 0.1243 0.55616 0.91327 0.0
C106 C 0.12728 0.56004 0.8894 0.0
C107 C 0.10004 0.57856 0.876 0.0
H108 H 0.00877 0.45923 0.40803 0.0
H109 H 0.13759 0.61073 0.40189 0.0
H110 H 0.08437 0.53401 0.46848 0.0
H111 H 0.10697 0.64375 0.46094 0.0
C112 C 0.13974 0.65838 0.44914 0.0
O113 O 0.14945 0.61967 0.44596 0.0
H114 H 0.1304 0.67236 0.43248 0.0
C115 C 0.03908 0.49132 0.4161 0.0
C116 C 0.04382 0.48989 0.44008 0.0
C117 C 0.07312 0.5343 0.40226 0.0
C118 C 0.11161 0.5769 0.41241 0.0
C119 C 0.11479 0.57712 0.43628 0.0
C120 C 0.0812 0.53361 0.45004 0.0
H121 H 0.64122 0.9775 0.74685 0.0
H122 H 0.58171 0.07776 0.75223 0.0
H123 H 0.63409 0.02588 0.81231 0.0
H124 H 0.54494 0.04441 0.82361 0.0
C125 C 0.54518 0.05973 0.80564 0.0
O126 O 0.59317 0.08065 0.79653 0.0
H127 H 0.51665 0.02792 0.79581 0.0
C128 C 0.63218 0.99977 0.75702 0.0
C129 C 0.64007 0.99821 0.78073 0.0
C130 C 0.61189 0.02898 0.74649 0.0
C131 C 0.59835 0.05582 0.76001 0.0
C132 C 0.60647 0.05474 0.78368 0.0
C133 C 0.62815 0.02671 0.79398 0.0
H134 H 0.66814 0.55498 0.07349 0.0
H135 H 0.51176 0.51207 0.08288 0.0
H136 H 0.60094 0.50639 0.14045 0.0
H137 H 0.48921 0.427 0.14652 0.0
C138 C 0.47581 0.44443 0.13248 0.0
O139 O 0.51289 0.49438 0.12722 0.0
H140 H 0.46665 0.42224 0.1172 0.0
C141 C 0.63545 0.54161 0.08436 0.0
C142 C 0.64003 0.53192 0.10797 0.0
C143 C 0.58882 0.53325 0.07493 0.0
C144 C 0.54769 0.51761 0.08965 0.0
C145 C 0.55218 0.50794 0.11317 0.0
C146 C 0.59795 0.51423 0.12223 0.0
H147 H 0.17815 0.40161 0.17449 0.0
C148 C 0.19171 0.43977 0.16629 0.0
H149 H 0.24908 0.50157 0.1462 0.0
H150 H 0.38017 0.39067 0.18187 0.0
H151 H 0.36665 0.40351 0.22058 0.0
H152 H 0.30842 0.4346 0.22803 0.0
H153 H 0.2628 0.45218 0.19703 0.0
C154 C 0.23613 0.46405 0.15501 0.0
C155 C 0.26668 0.43964 0.15159 0.0
C156 C 0.29357 0.43049 0.17001 0.0
C157 C 0.32864 0.41449 0.16564 0.0
C158 C 0.3543 0.40441 0.18427 0.0
C159 C 0.34669 0.41137 0.20653 0.0
C160 C 0.31379 0.42873 0.21073 0.0
C161 C 0.2876 0.43845 0.19275 0.0
H162 H 0.43476 0.47724 0.14821 0.0
C163 C 0.42958 0.44411 0.14025 0.0
H164 H 0.37681 0.37185 0.12936 0.0
H165 H 0.21591 0.44684 0.11304 0.0
H166 H 0.2292 0.43321 0.07452 0.0
H167 H 0.29239 0.40854 0.06684 0.0
H168 H 0.34239 0.39702 0.09763 0.0
C169 C 0.3826 0.40485 0.13759 0.0
C170 C 0.33809 0.40966 0.14288 0.0
C171 C 0.30868 0.41534 0.12472 0.0
C172 C 0.27284 0.43028 0.1291 0.0
C173 C 0.24426 0.4363 0.11061 0.0
C174 C 0.25137 0.42841 0.08844 0.0
C175 C 0.2869 0.41447 0.08412 0.0
C176 C 0.31538 0.40803 0.10196 0.0
H177 H 0.82766 0.16667 0.47412 0.0
C178 C 0.81195 0.16932 0.48983 0.0
H179 H 0.81817 0.21687 0.51515 0.0
H180 H 0.03745 0.35305 0.45764 0.0
H181 H 0.05702 0.28775 0.47254 0.0
H182 H 0.9938 0.21035 0.49499 0.0
H183 H 0.91049 0.19764 0.50259 0.0
C184 C 0.8345 0.21355 0.49981 0.0
C185 C 0.87452 0.26151 0.48773 0.0
C186 C 0.92318 0.26858 0.48369 0.0
C187 C 0.95982 0.31351 0.47096 0.0
C188 C 0.0081 0.31956 0.46711 0.0
C189 C 0.0199 0.28246 0.47563 0.0
C190 C 0.98429 0.23886 0.48826 0.0
C191 C 0.9365 0.23188 0.49237 0.0
H192 H 0.00192 0.44931 0.47227 0.0
C193 C 0.00868 0.44412 0.45498 0.0
H194 H 0.99433 0.38977 0.4315 0.0
H195 H 0.78514 0.26069 0.49302 0.0
H196 H 0.76578 0.32585 0.47831 0.0
H197 H 0.8287 0.40301 0.45566 0.0
H198 H 0.91153 0.4155 0.4478 0.0
C199 C 0.98525 0.39671 0.44795 0.0
C200 C 0.94798 0.35155 0.46257 0.0
C201 C 0.89954 0.34485 0.46693 0.0
C202 C 0.86297 0.30001 0.47971 0.0
C203 C 0.81466 0.29405 0.48358 0.0
C204 C 0.80284 0.33113 0.47513 0.0
C205 C 0.83829 0.37456 0.46241 0.0
C206 C 0.88595 0.3814 0.45818 0.0
H207 H 0.61566 0.72528 0.83239 0.0
C208 C 0.64556 0.71956 0.82649 0.0
H209 H 0.71521 0.75307 0.80894 0.0
H210 H 0.66824 0.90789 0.74828 0.0
H211 H 0.68809 0.86729 0.72011 0.0
H212 H 0.70638 0.79818 0.73188 0.0
H213 H 0.70572 0.76992 0.77184 0.0
C214 C 0.68542 0.7585 0.81513 0.0
C215 C 0.68537 0.80699 0.80836 0.0
C216 C 0.68612 0.82305 0.78485 0.0
C217 C 0.67419 0.86189 0.77803 0.0
C218 C 0.67568 0.87763 0.75443 0.0
C219 C 0.68728 0.85482 0.73805 0.0
C220 C 0.69764 0.81599 0.74468 0.0
C221 C 0.69708 0.8001 0.76775 0.0
H222 H 0.69069 0.9816 0.8037 0.0
C223 C 0.65965 0.96569 0.79158 0.0
H224 H 0.60753 0.90173 0.77465 0.0
H225 H 0.69744 0.79721 0.85455 0.0
H226 H 0.67588 0.83621 0.88307 0.0
H227 H 0.64307 0.8943 0.87142 0.0
H228 H 0.63351 0.91526 0.83144 0.0
C229 C 0.63895 0.91696 0.78665 0.0
C230 C 0.66015 0.88357 0.79464 0.0
C231 C 0.66253 0.86974 0.81825 0.0
C232 C 0.67759 0.83319 0.82505 0.0
C233 C 0.68344 0.82265 0.84862 0.0
C234 C 0.67156 0.84499 0.86511 0.0
C235 C 0.65335 0.8779 0.85854 0.0
C236 C 0.64856 0.89007 0.83543 0.0
H237 H 0.94898 0.61001 0.15858 0.0
C238 C 0.94407 0.57643 0.15119 0.0
H239 H 0.89809 0.51527 0.13122 0.0
H240 H 0.73375 0.58632 0.15543 0.0
H241 H 0.74892 0.57136 0.1956 0.0
H242 H 0.81497 0.54977 0.20731 0.0
H243 H 0.86718 0.54463 0.17909 0.0
C244 C 0.90261 0.5486 0.13872 0.0
C245 C 0.86391 0.56363 0.13248 0.0
C246 C 0.83229 0.56407 0.14933 0.0
C247 C 0.79196 0.57312 0.14255 0.0
C248 C 0.76305 0.57682 0.15966 0.0
C249 C 0.77164 0.56875 0.18276 0.0
C250 C 0.80898 0.55683 0.18935 0.0
C251 C 0.83899 0.55436 0.17292 0.0
H252 H 0.68531 0.50736 0.13024 0.0
C253 C 0.68777 0.53726 0.11776 0.0
H254 H 0.73574 0.60764 0.0995 0.0
H255 H 0.92156 0.57218 0.09613 0.0
H256 H 0.90488 0.58501 0.05603 0.0
H257 H 0.83088 0.59382 0.04417 0.0
H258 H 0.77364 0.59058 0.07227 0.0
C259 C 0.73335 0.57723 0.11161 0.0
C260 C 0.78102 0.57787 0.11899 0.0
C261 C 0.81393 0.57962 0.10222 0.0
C262 C 0.85576 0.57313 0.109 0.0
C263 C 0.88848 0.57568 0.09192 0.0
C264 C 0.8795 0.58324 0.06882 0.0
C265 C 0.83791 0.5883 0.06216 0.0
C266 C 0.80535 0.58645 0.07854 0.0
H267 H 0.42781 0.86004 0.51171 0.0
C268 C 0.43782 0.89667 0.5026 0.0
H269 H 0.41606 0.93577 0.47726 0.0
H270 H 0.2794 0.75006 0.42002 0.0
H271 H 0.34569 0.8078 0.39318 0.0
H272 H 0.41982 0.88607 0.40554 0.0
H273 H 0.42791 0.90733 0.44471 0.0
C274 C 0.4057 0.89962 0.48691 0.0
C275 C 0.35991 0.85269 0.47961 0.0
C276 C 0.35631 0.84024 0.45665 0.0
C277 C 0.31422 0.79435 0.44966 0.0
C278 C 0.311 0.78374 0.42646 0.0
C279 C 0.34876 0.81665 0.4108 0.0
C280 C 0.39046 0.86074 0.41775 0.0
C281 C 0.39446 0.87256 0.44035 0.0
H282 H 0.17757 0.73061 0.46623 0.0
C283 C 0.18458 0.703 0.45915 0.0
H284 H 0.2404 0.68651 0.44984 0.0
H285 H 0.35029 0.86862 0.52379 0.0
H286 H 0.28694 0.80841 0.55135 0.0
H287 H 0.21998 0.7241 0.5405 0.0
H288 H 0.21506 0.7002 0.5019 0.0
C289 C 0.23246 0.71224 0.45806 0.0
C290 C 0.27632 0.76022 0.46573 0.0
C291 C 0.28042 0.77223 0.4888 0.0
C292 C 0.32114 0.81938 0.4955 0.0
C293 C 0.32189 0.83217 0.51813 0.0
C294 C 0.2855 0.79814 0.53407 0.0
C295 C 0.24766 0.75079 0.52794 0.0
C296 C 0.245 0.73775 0.50562 0.0
H297 H 0.57102 0.32985 0.84811 0.0
C298 C 0.55186 0.34274 0.83545 0.0
H299 H 0.50661 0.32514 0.80566 0.0
H300 H 0.59491 0.18596 0.78019 0.0
H301 H 0.62536 0.25198 0.7489 0.0
H302 H 0.60965 0.32402 0.7483 0.0
H303 H 0.5636 0.33051 0.7791 0.0
C304 C 0.52428 0.31226 0.81908 0.0
C305 C 0.52429 0.26384 0.81723 0.0
C306 C 0.54974 0.25971 0.79866 0.0
C307 C 0.55811 0.21774 0.79884 0.0
C308 C 0.58617 0.21612 0.7807 0.0
C309 C 0.60422 0.25402 0.76266 0.0
C310 C 0.59544 0.2946 0.76234 0.0
C311 C 0.56886 0.29781 0.78014 0.0
H312 H 0.50453 0.10022 0.79151 0.0
C313 C 0.53059 0.10007 0.80473 0.0
H314 H 0.57781 0.1373 0.83209 0.0
H315 H 0.46605 0.25565 0.85315 0.0
H316 H 0.43318 0.18827 0.88404 0.0
H317 H 0.44876 0.1161 0.88473 0.0
H318 H 0.49699 0.11071 0.85448 0.0
C319 C 0.55208 0.13772 0.81876 0.0
C320 C 0.53995 0.17946 0.81737 0.0
C321 C 0.51205 0.18218 0.83526 0.0
C322 C 0.50373 0.22414 0.83507 0.0
C323 C 0.47467 0.22532 0.85285 0.0
C324 C 0.45527 0.18671 0.87057 0.0
C325 C 0.46399 0.14605 0.87094 0.0
C326 C 0.49188 0.14352 0.85351 0.0
H327 H 0.64841 0.86602 0.54069 0.0
C328 C 0.66474 0.88871 0.52467 0.0
H329 H 0.70556 0.89574 0.49502 0.0
H330 H 0.74937 0.75282 0.57625 0.0
H331 H 0.8135 0.83471 0.58882 0.0
H332 H 0.82396 0.91497 0.56943 0.0
H333 H 0.77027 0.91374 0.53726 0.0
C334 C 0.69063 0.87568 0.51162 0.0
C335 C 0.69376 0.82935 0.51918 0.0
C336 C 0.7259 0.83066 0.53758 0.0
C337 C 0.71983 0.78443 0.54871 0.0
C338 C 0.75207 0.78684 0.56728 0.0
C339 C 0.78913 0.83357 0.57462 0.0
C340 C 0.79501 0.87876 0.56371 0.0
C341 C 0.76386 0.87756 0.54538 0.0
H342 H 0.69235 0.65978 0.52988 0.0
C343 C 0.67913 0.65408 0.54737 0.0
H344 H 0.65654 0.68409 0.57249 0.0
H345 H 0.63217 0.81474 0.48209 0.0
H346 H 0.56818 0.73323 0.46905 0.0
H347 H 0.55443 0.65252 0.48932 0.0
H348 H 0.60459 0.65265 0.52247 0.0
C349 C 0.67079 0.68921 0.55528 0.0
C350 C 0.68165 0.737 0.54135 0.0
C351 C 0.65153 0.73582 0.52198 0.0
C352 C 0.65839 0.78226 0.51064 0.0
C353 C 0.6279 0.78041 0.49144 0.0
C354 C 0.59116 0.73397 0.48377 0.0
C355 C 0.58351 0.68854 0.49516 0.0
C356 C 0.61295 0.6892 0.51412 0.0
H357 H 0.79151 0.54601 0.85625 0.0
C358 C 0.78662 0.57318 0.84456 0.0
H359 H 0.82491 0.64279 0.82377 0.0
H360 H 0.0091 0.68283 0.89362 0.0
H361 H 0.98985 0.74735 0.90309 0.0
H362 H 0.91971 0.75454 0.88395 0.0
H363 H 0.86846 0.69732 0.85513 0.0
C364 C 0.8278 0.61363 0.8348 0.0
C365 C 0.87841 0.62004 0.84087 0.0
C366 C 0.90874 0.65462 0.85707 0.0
C367 C 0.94889 0.65023 0.86818 0.0
C368 C 0.97783 0.68429 0.88482 0.0
C369 C 0.96727 0.72153 0.89036 0.0
C370 C 0.92778 0.72559 0.87957 0.0
C371 C 0.89862 0.69251 0.86314 0.0
H372 H 0.0499 0.62372 0.8541 0.0
C373 C 0.03739 0.60823 0.87156 0.0
H374 H 0.97754 0.58257 0.89528 0.0
H375 H 0.83518 0.55701 0.8066 0.0
H376 H 0.85532 0.49369 0.79614 0.0
H377 H 0.92229 0.48289 0.81651 0.0
H378 H 0.96981 0.5354 0.84712 0.0
C379 C 0.99197 0.59949 0.87823 0.0
C380 C 0.95859 0.61144 0.86292 0.0
C381 C 0.93134 0.58006 0.84508 0.0
C382 C 0.89171 0.58509 0.83379 0.0
C383 C 0.86487 0.55365 0.816 0.0
C384 C 0.87619 0.51743 0.8098 0.0
C385 C 0.91397 0.51145 0.82124 0.0
C386 C 0.94117 0.54208 0.83875 0.0
H387 H 0.2636 0.70607 0.17192 0.0
C388 C 0.22591 0.70079 0.17374 0.0
H389 H 0.1832 0.73433 0.18163 0.0
H390 H 0.34693 0.89648 0.24376 0.0
H391 H 0.27426 0.84946 0.26897 0.0
H392 H 0.19717 0.77346 0.25683 0.0
H393 H 0.19238 0.74375 0.21958 0.0
C394 C 0.22082 0.73953 0.17975 0.0
C395 C 0.26577 0.78813 0.18617 0.0
C396 C 0.26835 0.80418 0.20834 0.0
C397 C 0.31318 0.8475 0.2155 0.0
C398 C 0.31427 0.8633 0.23756 0.0
C399 C 0.27274 0.83675 0.25221 0.0
C400 C 0.22937 0.79395 0.24538 0.0
C401 C 0.22708 0.77747 0.22383 0.0
H402 H 0.40428 0.97315 0.18457 0.0
C403 C 0.42312 0.96526 0.19921 0.0
H404 H 0.42049 0.91023 0.22455 0.0
H405 H 0.26874 0.77637 0.14068 0.0
H406 H 0.34205 0.82177 0.11566 0.0
H407 H 0.42362 0.88921 0.12974 0.0
H408 H 0.4318 0.91281 0.16856 0.0
C409 C 0.40339 0.91747 0.20906 0.0
C410 C 0.35576 0.87413 0.2007 0.0
C411 C 0.35286 0.85862 0.17836 0.0
C412 C 0.30705 0.81703 0.17078 0.0
C413 C 0.30362 0.80539 0.14776 0.0
C414 C 0.34526 0.83151 0.13315 0.0
C415 C 0.39107 0.86965 0.14103 0.0
C416 C 0.39509 0.88316 0.16335 0.0
H417 H 0.62441 0.21444 0.52145 0.0
C418 C 0.59734 0.186 0.51047 0.0
H419 H 0.53077 0.16365 0.49068 0.0
H420 H 0.47979 0.29096 0.55514 0.0
H421 H 0.40961 0.20493 0.56343 0.0
H422 H 0.40533 0.13244 0.54584 0.0
H423 H 0.47102 0.14559 0.5197 0.0
C424 C 0.55979 0.19221 0.50095 0.0
C425 C 0.55541 0.2364 0.50678 0.0
C426 C 0.51631 0.22817 0.52164 0.0
C427 C 0.51912 0.2699 0.53197 0.0
C428 C 0.47985 0.26053 0.54702 0.0
C429 C 0.4393 0.21138 0.55188 0.0
C430 C 0.43688 0.17057 0.54197 0.0
C431 C 0.47487 0.17861 0.52704 0.0
H432 H 0.55722 0.40426 0.5125 0.0
C433 C 0.5632 0.4012 0.53083 0.0
H434 H 0.57203 0.35835 0.55905 0.0
H435 H 0.62952 0.26607 0.47495 0.0
H436 H 0.69982 0.35206 0.46624 0.0
H437 H 0.70866 0.42377 0.48622 0.0
H438 H 0.64686 0.41044 0.51445 0.0
C439 C 0.56694 0.36163 0.54065 0.0
C440 C 0.56104 0.31971 0.52739 0.0
C441 C 0.59849 0.3284 0.51131 0.0
C442 C 0.59484 0.28676 0.50058 0.0
C443 C 0.63168 0.29632 0.48411 0.0
C444 C 0.67201 0.3454 0.4789 0.0
C445 C 0.67684 0.38581 0.49008 0.0
C446 C 0.64078 0.37763 0.50617 0.0
H447 H 0.38736 0.46191 0.82119 0.0
C448 C 0.4131 0.48661 0.83372 0.0
H449 H 0.42278 0.53376 0.85987 0.0
H450 H 0.25544 0.5877 0.83253 0.0
H451 H 0.33087 0.66662 0.82 0.0
H452 H 0.41374 0.67114 0.81868 0.0
H453 H 0.42169 0.5968 0.83004 0.0
C454 C 0.3968 0.50773 0.84781 0.0
C455 C 0.34561 0.50224 0.84579 0.0
C456 C 0.34139 0.54574 0.83858 0.0
C457 C 0.29349 0.54289 0.83896 0.0
C458 C 0.29071 0.58741 0.83231 0.0
C459 C 0.33376 0.63305 0.82509 0.0
C460 C 0.38042 0.63563 0.82438 0.0
C461 C 0.38445 0.59266 0.83103 0.0
H462 H 0.2003 0.4815 0.88514 0.0
C463 C 0.18155 0.48844 0.8702 0.0
H464 H 0.18427 0.50543 0.8345 0.0
H465 H 0.34034 0.41164 0.86096 0.0
H466 H 0.26412 0.33148 0.8713 0.0
H467 H 0.18025 0.32524 0.86944 0.0
H468 H 0.1723 0.39951 0.85761 0.0
C469 C 0.20119 0.49544 0.84931 0.0
C470 C 0.24986 0.49642 0.84643 0.0
C471 C 0.25356 0.45212 0.85233 0.0
C472 C 0.30167 0.45524 0.85247 0.0
C473 C 0.30465 0.41115 0.8598 0.0
C474 C 0.26117 0.36488 0.86588 0.0
C475 C 0.21396 0.3614 0.86491 0.0
C476 C 0.20997 0.40438 0.85823 0.0
H477 H 0.88916 0.33227 0.15318 0.0
C478 C 0.91605 0.34038 0.16717 0.0
H479 H 0.9269 0.31909 0.2013 0.0
H480 H 0.69547 0.22265 0.22577 0.0
H481 H 0.73173 0.30273 0.24318 0.0
H482 H 0.82147 0.36852 0.23683 0.0
H483 H 0.8753 0.35474 0.21289 0.0
C484 C 0.90148 0.30994 0.1867 0.0
C485 C 0.84764 0.26951 0.19053 0.0
C486 C 0.817 0.27778 0.20499 0.0
C487 C 0.76557 0.23948 0.20902 0.0
C488 C 0.73525 0.24967 0.22275 0.0
C489 C 0.75546 0.2957 0.2327 0.0
C490 C 0.80595 0.33276 0.2291 0.0
C491 C 0.83647 0.32424 0.21535 0.0
H492 H 0.7134 0.14128 0.23906 0.0
C493 C 0.68268 0.12768 0.22665 0.0
H494 H 0.66431 0.13876 0.19203 0.0
H495 H 0.89597 0.24168 0.16187 0.0
H496 H 0.85926 0.1619 0.14402 0.0
H497 H 0.77006 0.09529 0.15113 0.0
H498 H 0.71697 0.108 0.17617 0.0
C499 C 0.69313 0.1502 0.20522 0.0
C500 C 0.74528 0.19234 0.19912 0.0
C501 C 0.77546 0.18467 0.18413 0.0
C502 C 0.82682 0.22324 0.17989 0.0
C503 C 0.85655 0.21399 0.16539 0.0
C504 C 0.836 0.16829 0.15511 0.0
C505 C 0.78578 0.13076 0.15913 0.0
C506 C 0.75572 0.13856 0.17352 0.0
H507 H 0.14568 0.56907 0.07125 0.0
C508 C 0.10668 0.54486 0.07704 0.0
H509 H 0.03059 0.49856 0.06687 0.0
H510 H 0.14227 0.64962 0.97287 0.0
H511 H 0.147 0.71718 0.9935 0.0
H512 H 0.12026 0.701 0.03387 0.0
H513 H 0.08939 0.61738 0.05394 0.0
C514 C 0.06962 0.5243 0.06151 0.0
C515 C 0.08154 0.53322 0.03666 0.0
C516 C 0.09789 0.58192 0.02499 0.0
C517 C 0.11137 0.59071 0.00146 0.0
C518 C 0.12982 0.64032 0.9905 0.0
C519 C 0.13303 0.67956 0.00218 0.0
C520 C 0.11814 0.6705 0.02493 0.0
C521 C 0.10074 0.62235 0.03629 0.0
H522 H 0.05584 0.5677 0.95576 0.0
C523 C 0.08735 0.56534 0.94927 0.0
H524 H 0.14997 0.55561 0.9592 0.0
H525 H 0.05135 0.43547 0.05394 0.0
H526 H 0.0443 0.36722 0.03302 0.0
H527 H 0.0653 0.38177 0.99194 0.0
H528 H 0.09372 0.46471 0.97154 0.0
C529 C 0.1179 0.5582 0.96454 0.0
C530 C 0.1066 0.55025 0.98945 0.0
C531 C 0.08994 0.5015 0.00109 0.0
C532 C 0.07734 0.49297 0.02472 0.0
C533 C 0.06106 0.44397 0.03596 0.0
C534 C 0.05687 0.40445 0.02416 0.0
C535 C 0.06872 0.41265 0.00104 0.0
C536 C 0.08504 0.46049 0.98954 0.0
H537 H 0.63411 0.01331 0.41206 0.0
C538 C 0.61195 0.02665 0.42002 0.0
H539 H 0.56222 0.05606 0.41428 0.0
H540 H 0.64854 0.13969 0.31303 0.0
H541 H 0.68681 0.21845 0.3317 0.0
H542 H 0.67864 0.21723 0.37337 0.0
H543 H 0.632 0.13721 0.39662 0.0
C544 C 0.58342 0.04102 0.40685 0.0
C545 C 0.58435 0.04151 0.38156 0.0
C546 C 0.61139 0.0886 0.36824 0.0
C547 C 0.61646 0.08925 0.34427 0.0
C548 C 0.64391 0.13689 0.33135 0.0
C549 C 0.66598 0.18242 0.34184 0.0
C550 C 0.66135 0.18174 0.3653 0.0
C551 C 0.63447 0.13552 0.37844 0.0
H552 H 0.528 0.02071 0.29919 0.0
C553 C 0.56644 0.03469 0.29332 0.0
H554 H 0.64175 0.05727 0.30367 0.0
H555 H 0.5244 0.94537 0.4018 0.0
H556 H 0.48577 0.86638 0.38319 0.0
H557 H 0.49742 0.86714 0.34184 0.0
H558 H 0.54719 0.94684 0.3188 0.0
C559 C 0.6032 0.04425 0.30891 0.0
C560 C 0.59428 0.04282 0.33368 0.0
C561 C 0.56582 0.99573 0.3469 0.0
C562 C 0.56035 0.99516 0.37086 0.0
C563 C 0.53079 0.94782 0.38364 0.0
C564 C 0.50825 0.90225 0.37316 0.0
C565 C 0.5147 0.90269 0.34987 0.0
C566 C 0.54321 0.94875 0.33681 0.0
H567 H 0.57302 0.52069 0.73831 0.0
C568 C 0.60895 0.54144 0.74713 0.0
H569 H 0.68841 0.58673 0.74359 0.0
H570 H 0.5864 0.47356 0.64611 0.0
H571 H 0.55665 0.3934 0.66904 0.0
H572 H 0.5738 0.39156 0.71047 0.0
H573 H 0.61891 0.46996 0.72929 0.0
C574 C 0.65229 0.56566 0.73498 0.0
C575 C 0.65188 0.5668 0.70949 0.0
C576 C 0.62942 0.52079 0.69846 0.0
C577 C 0.62365 0.52204 0.67426 0.0
C578 C 0.59547 0.47521 0.66412 0.0
C579 C 0.57756 0.42876 0.67715 0.0
C580 C 0.58691 0.42771 0.70048 0.0
C581 C 0.61245 0.47303 0.71111 0.0
H582 H 0.67465 0.52762 0.63055 0.0
C583 C 0.65935 0.55063 0.62243 0.0
H584 H 0.625 0.59419 0.62718 0.0
H585 H 0.69801 0.66216 0.72501 0.0
H586 H 0.73466 0.74269 0.70186 0.0
H587 H 0.73264 0.74527 0.65975 0.0
H588 H 0.69313 0.66736 0.64055 0.0
C589 C 0.64119 0.57206 0.63539 0.0
C590 C 0.64517 0.56959 0.66087 0.0
C591 C 0.67007 0.61567 0.67187 0.0
C592 C 0.67269 0.61425 0.69617 0.0
C593 C 0.69584 0.66087 0.70664 0.0
C594 C 0.717 0.70748 0.69355 0.0
C595 C 0.71577 0.70893 0.66985 0.0
C596 C 0.69271 0.66377 0.65905 0.0
H597 H 0.66684 0.07238 0.60219 0.0
C598 C 0.63368 0.04038 0.59528 0.0
H599 H 0.56357 0.97341 0.60301 0.0
H600 H 0.62434 0.94091 0.70505 0.0
H601 H 0.6151 0.86676 0.68859 0.0
H602 H 0.60013 0.8574 0.64724 0.0
H603 H 0.59387 0.92199 0.62217 0.0
C604 C 0.59661 0.00611 0.60952 0.0
C605 C 0.60177 0.01018 0.63465 0.0
C606 C 0.60548 0.9721 0.64903 0.0
C607 C 0.6151 0.978 0.67277 0.0
C608 C 0.61801 0.939 0.68681 0.0
C609 C 0.61261 0.89606 0.6776 0.0
C610 C 0.60413 0.89076 0.65433 0.0
C611 C 0.60058 0.92818 0.64013 0.0
H612 H 0.56913 0.03108 0.71527 0.0
C613 C 0.60253 0.02968 0.72155 0.0
H614 H 0.66815 0.02839 0.71275 0.0
H615 H 0.58695 0.08528 0.61275 0.0
H616 H 0.59945 0.16127 0.6288 0.0
H617 H 0.62504 0.17602 0.66908 0.0
H618 H 0.63691 0.11429 0.69364 0.0
C619 C 0.63414 0.02873 0.70666 0.0
C620 C 0.62162 0.0223 0.68202 0.0
C621 C 0.61736 0.06017 0.66768 0.0
C622 C 0.60572 0.05323 0.64412 0.0
C623 C 0.5983 0.08989 0.63048 0.0
C624 C 0.60496 0.1335 0.63952 0.0
C625 C 0.61913 0.14168 0.66222 0.0
C626 C 0.62541 0.10566 0.6762 0.0
H627 H 0.60901 0.49841 0.93349 0.0
C628 C 0.5969 0.52304 0.92412 0.0
H629 H 0.57311 0.57671 0.9268 0.0
H630 H 0.5321 0.4484 0.0299 0.0
H631 H 0.46385 0.3777 0.01136 0.0
H632 H 0.45005 0.38483 0.96978 0.0
H633 H 0.50484 0.46256 0.94645 0.0
C634 C 0.58353 0.5504 0.93576 0.0
C635 C 0.5869 0.54846 0.96115 0.0
C636 C 0.55349 0.50335 0.97462 0.0
C637 C 0.56054 0.49978 0.99868 0.0
C638 C 0.52788 0.45358 0.01162 0.0
C639 C 0.48859 0.41264 0.00119 0.0
C640 C 0.48089 0.41661 0.97777 0.0
C641 C 0.51281 0.46134 0.96456 0.0
H642 H 0.54969 0.54493 0.04418 0.0
C643 C 0.58155 0.54011 0.0499 0.0
H644 H 0.64134 0.53061 0.03886 0.0
H645 H 0.65493 0.64178 0.9405 0.0
H646 H 0.72096 0.71374 0.95928 0.0
H647 H 0.73228 0.70795 0.00111 0.0
H648 H 0.67763 0.63007 0.02443 0.0
C649 C 0.61018 0.53709 0.03408 0.0
C650 C 0.60015 0.54182 0.00925 0.0
C651 C 0.63203 0.58768 0.99592 0.0
C652 C 0.62531 0.59109 0.97183 0.0
C653 C 0.65818 0.63717 0.95888 0.0
C654 C 0.69626 0.67877 0.96944 0.0
C655 C 0.70265 0.6755 0.99299 0.0
C656 C 0.67108 0.63058 0.00617 0.0
H657 H 0.08377 0.48354 0.26139 0.0
C658 C 0.07536 0.51131 0.25236 0.0
H659 H 0.0624 0.57234 0.25544 0.0
H660 H 0.04107 0.44919 0.35971 0.0
H661 H 0.97228 0.37452 0.34385 0.0
H662 H 0.94787 0.37766 0.30336 0.0
H663 H 0.99363 0.4549 0.27834 0.0
C664 C 0.06953 0.54356 0.2643 0.0
C665 C 0.07742 0.54407 0.28955 0.0
C666 C 0.04732 0.49991 0.30434 0.0
C667 C 0.05832 0.4995 0.32813 0.0
C668 C 0.03174 0.45297 0.34193 0.0
C669 C 0.99253 0.40954 0.33297 0.0
C670 C 0.97902 0.41122 0.31015 0.0
C671 C 0.00595 0.45573 0.29592 0.0
H672 H 0.02782 0.52102 0.37067 0.0
C673 C 0.06604 0.53467 0.37724 0.0
H674 H 0.142 0.5594 0.36938 0.0
H675 H 0.14414 0.63438 0.26602 0.0
H676 H 0.20993 0.71031 0.28232 0.0
H677 H 0.22258 0.71263 0.32401 0.0
H678 H 0.17077 0.63841 0.34967 0.0
C679 C 0.10399 0.54673 0.36276 0.0
C680 C 0.09575 0.54495 0.33753 0.0
C681 C 0.12514 0.58941 0.3228 0.0
C682 C 0.11655 0.5887 0.29878 0.0
C683 C 0.14807 0.633 0.28443 0.0
C684 C 0.18603 0.67696 0.29354 0.0
C685 C 0.19331 0.67819 0.31701 0.0
C686 C 0.1633 0.63514 0.33156 0.0
loop_
_geom_bond_atom_site_label_1
_geom_bond_atom_site_label_2
_geom_bond_distance
_geom_bond_site_symmetry_2
_ccdc_geom_bond_type
O0 Zn1 1.953 . S
O0 C16 1.225 . S
Zn1 O0 1.953 . S
Zn1 O2 1.949 . S
Zn1 O8 1.919 1_455 S
Zn1 O13 1.924 . S
O2 Zn1 1.949 . S
O2 Zn3 1.923 1_455 S
O2 Zn4 1.950 . S
O2 Zn5 1.945 . S
Zn3 O2 1.923 1_655 S
Zn3 O6 1.933 1_655 S
Zn3 O9 1.941 . S
Zn3 O10 1.965 . S
Zn4 O2 1.950 . S
Zn4 O11 1.938 1_455 S
Zn4 O12 1.906 . S
Zn4 O22 1.953 . S
Zn5 O2 1.945 . S
Zn5 O7 1.932 . S
Zn5 O14 1.977 . S
Zn5 O15 1.910 . S
O6 Zn3 1.933 1_455 S
O6 C17 1.226 . S
O7 Zn5 1.932 . S
O7 C17 1.307 . S
O8 Zn1 1.919 1_655 S
O8 C19 1.253 . S
O9 Zn3 1.941 . S
O9 C19 1.283 . S
O10 Zn3 1.965 . S
O10 C18 1.303 . S
O11 Zn4 1.938 1_655 S
O11 C18 1.247 . S
O12 Zn4 1.906 . S
O12 C20 1.304 . S
O13 Zn1 1.924 . S
O13 C21 1.311 . S
O14 Zn5 1.977 . S
O14 C20 1.272 . S
O15 Zn5 1.910 . S
O15 C21 1.231 . S
C16 O0 1.225 . S
C16 O22 1.298 . S
C17 O6 1.226 . S
C17 O7 1.307 . S
C18 O10 1.303 . S
C18 O11 1.247 . S
C19 O8 1.253 . S
C19 O9 1.283 . S
C20 O12 1.304 . S
C20 O14 1.272 . S
C21 O13 1.311 . S
C21 O15 1.231 . S
O22 Zn4 1.953 . S
O22 C16 1.298 . S
O23 Zn24 1.953 . S
O23 C39 1.225 . S
Zn24 O23 1.953 . S
Zn24 O25 1.949 . S
Zn24 O31 1.919 . S
Zn24 O36 1.924 1_545 S
O25 Zn24 1.949 . S
O25 Zn26 1.923 . S
O25 Zn27 1.950 . S
O25 Zn28 1.945 1_545 S
Zn26 O25 1.923 . S
Zn26 O29 1.933 . S
Zn26 O32 1.941 . S
Zn26 O33 1.965 . S
Zn27 O25 1.950 . S
Zn27 O34 1.938 . S
Zn27 O35 1.906 1_545 S
Zn27 O45 1.953 . S
Zn28 O25 1.945 1_565 S
Zn28 O30 1.932 . S
Zn28 O37 1.977 . S
Zn28 O38 1.910 . S
O29 Zn26 1.933 . S
O29 C40 1.226 . S
O30 Zn28 1.932 . S
O30 C40 1.307 1_565 S
O31 Zn24 1.919 . S
O31 C42 1.253 . S
O32 Zn26 1.941 . S
O32 C42 1.283 . S
O33 Zn26 1.965 . S
O33 C41 1.303 . S
O34 Zn27 1.938 . S
O34 C41 1.247 . S
O35 Zn27 1.906 1_565 S
O35 C43 1.304 . S
O36 Zn24 1.924 1_565 S
O36 C44 1.311 . S
O37 Zn28 1.977 . S
O37 C43 1.272 . S
O38 Zn28 1.910 . S
O38 C44 1.231 . S
C39 O23 1.225 . S
C39 O45 1.298 . S
C40 O29 1.226 . S
C40 O30 1.307 1_545 S
C41 O33 1.303 . S
C41 O34 1.247 . S
C42 O31 1.253 . S
C42 O32 1.283 . S
C43 O35 1.304 . S
C43 O37 1.272 . S
C44 O36 1.311 . S
C44 O38 1.231 . S
O45 Zn27 1.953 . S
O45 C39 1.298 . S
O46 Zn47 1.953 . S
O46 C62 1.225 . S
Zn47 O46 1.953 . S
Zn47 O48 1.949 . S
Zn47 O54 1.919 . S
Zn47 O59 1.924 . S
O48 Zn47 1.949 . S
O48 Zn49 1.923 . S
O48 Zn50 1.950 . S
O48 Zn51 1.945 . S
Zn49 O48 1.923 . S
Zn49 O52 1.933 . S
Zn49 O55 1.941 . S
Zn49 O56 1.965 . S
Zn50 O48 1.950 . S
Zn50 O57 1.938 . S
Zn50 O58 1.906 . S
Zn50 O68 1.953 . S
Zn51 O48 1.945 . S
Zn51 O53 1.932 . S
Zn51 O60 1.977 . S
Zn51 O61 1.910 . S
O52 Zn49 1.933 . S
O52 C63 1.226 . S
O53 Zn51 1.932 . S
O53 C63 1.307 . S
O54 Zn47 1.919 . S
O54 C65 1.253 . S
O55 Zn49 1.941 . S
O55 C65 1.283 . S
O56 Zn49 1.965 . S
O56 C64 1.303 . S
O57 Zn50 1.938 . S
O57 C64 1.247 . S
O58 Zn50 1.906 . S
O58 C66 1.304 . S
O59 Zn47 1.924 . S
O59 C67 1.311 . S
O60 Zn51 1.977 . S
O60 C66 1.272 . S
O61 Zn51 1.910 . S
O61 C67 1.231 . S
C62 O46 1.225 . S
C62 O68 1.298 . S
C63 O52 1.226 . S
C63 O53 1.307 . S
C64 O56 1.303 . S
C64 O57 1.247 . S
C65 O54 1.253 . S
C65 O55 1.283 . S
C66 O58 1.304 . S
C66 O60 1.272 . S
C67 O59 1.311 . S
C67 O61 1.231 . S
O68 Zn50 1.953 . S
O68 C62 1.298 . S
H69 C76 0.929 . S
H70 C79 0.930 1_565 S
H71 C81 0.929 . S
H72 C73 0.969 . S
C73 H72 0.969 . S
C73 O74 1.550 . S
C73 H75 0.973 . S
O74 C73 1.550 . S
O74 C80 1.412 1_565 S
H75 C73 0.973 . S
C76 H69 0.929 . S
C76 C77 1.400 . S
C76 C78 1.364 . S
C77 C76 1.400 . S
C77 C81 1.377 . S
C78 C76 1.364 . S
C78 C79 1.374 . S
C79 H70 0.930 1_545 S
C79 C78 1.374 . S
C79 C80 1.383 . S
C80 O74 1.412 1_545 S
C80 C79 1.383 . S
C80 C81 1.394 . S
C81 H71 0.929 . S
C81 C77 1.377 . S
C81 C80 1.394 . S
H82 C89 0.929 . S
H83 C92 0.930 . S
H84 C94 0.929 . S
H85 C86 0.969 . S
C86 H85 0.969 . S
C86 O87 1.550 . S
C86 H88 0.973 . S
O87 C86 1.550 . S
O87 C93 1.412 . S
H88 C86 0.973 . S
C89 H82 0.929 . S
C89 C90 1.400 . S
C89 C91 1.364 . S
C90 C89 1.400 . S
C90 C94 1.377 . S
C91 C89 1.364 . S
C91 C92 1.374 . S
C92 H83 0.930 . S
C92 C91 1.374 . S
C92 C93 1.383 . S
C93 O87 1.412 . S
C93 C92 1.383 . S
C93 C94 1.394 . S
C94 H84 0.929 . S
C94 C90 1.377 . S
C94 C93 1.394 . S
H95 C102 0.929 . S
H96 C105 0.930 . S
H97 C107 0.929 . S
H98 C99 0.969 . S
C99 H98 0.969 . S
C99 O100 1.550 . S
C99 H101 0.973 . S
O100 C99 1.550 . S
O100 C106 1.412 . S
H101 C99 0.973 . S
C102 H95 0.929 . S
C102 C103 1.400 . S
C102 C104 1.364 . S
C103 C102 1.400 . S
C103 C107 1.377 . S
C104 C102 1.364 . S
C104 C105 1.374 . S
C105 H96 0.930 . S
C105 C104 1.374 . S
C105 C106 1.383 . S
C106 O100 1.412 . S
C106 C105 1.383 . S
C106 C107 1.394 . S
C107 H97 0.929 . S
C107 C103 1.377 . S
C107 C106 1.394 . S
H108 C115 0.929 . S
H109 C118 0.930 . S
H110 C120 0.929 . S
H111 C112 0.969 . S
C112 H111 0.969 . S
C112 O113 1.550 . S
C112 H114 0.973 . S
O113 C112 1.550 . S
O113 C119 1.412 . S
H114 C112 0.973 . S
C115 H108 0.929 . S
C115 C116 1.400 . S
C115 C117 1.364 . S
C116 C115 1.400 . S
C116 C120 1.377 . S
C117 C115 1.364 . S
C117 C118 1.374 . S
C118 H109 0.930 . S
C118 C117 1.374 . S
C118 C119 1.383 . S
C119 O113 1.412 . S
C119 C118 1.383 . S
C119 C120 1.394 . S
C120 H110 0.929 . S
C120 C116 1.377 . S
C120 C119 1.394 . S
H121 C128 0.929 . S
H122 C131 0.930 . S
H123 C133 0.929 . S
H124 C125 0.969 . S
C125 H124 0.969 . S
C125 O126 1.550 . S
C125 H127 0.973 . S
O126 C125 1.550 . S
O126 C132 1.412 . S
H127 C125 0.973 . S
C128 H121 0.929 . S
C128 C129 1.400 . S
C128 C130 1.364 1_565 S
C129 C128 1.400 . S
C129 C133 1.377 1_565 S
C130 C128 1.364 1_545 S
C130 C131 1.374 . S
C131 H122 0.930 . S
C131 C130 1.374 . S
C131 C132 1.383 . S
C132 O126 1.412 . S
C132 C131 1.383 . S
C132 C133 1.394 . S
C133 H123 0.929 . S
C133 C129 1.377 1_545 S
C133 C132 1.394 . S
H134 C141 0.929 . S
H135 C144 0.930 . S
H136 C146 0.929 . S
H137 C138 0.969 . S
C138 H137 0.969 . S
C138 O139 1.550 . S
C138 H140 0.973 . S
O139 C138 1.550 . S
O139 C145 1.412 . S
H140 C138 0.973 . S
C141 H134 0.929 . S
C141 C142 1.400 . S
C141 C143 1.364 . S
C142 C141 1.400 . S
C142 C146 1.377 . S
C143 C141 1.364 . S
C143 C144 1.374 . S
C144 H135 0.930 . S
C144 C143 1.374 . S
C144 C145 1.383 . S
C145 O139 1.412 . S
C145 C144 1.383 . S
C145 C146 1.394 . S
C146 H136 0.929 . S
C146 C142 1.377 . S
C146 C145 1.394 . S
H147 C148 0.951 . S
C148 H147 0.951 . S
C148 C154 1.265 . S
H149 C154 0.950 . S
H150 C158 0.949 . S
H151 C159 0.950 . S
H152 C160 0.951 . S
H153 C161 0.951 . S
C154 C148 1.265 . S
C154 H149 0.950 . S
C154 C155 1.478 . S
C155 C154 1.478 . S
C155 C156 1.397 . S
C155 C172 1.394 . S
C156 C155 1.397 . S
C156 C157 1.438 . S
C156 C161 1.429 . S
C157 C156 1.438 . S
C157 C158 1.428 . S
C157 C170 1.394 . S
C158 H150 0.949 . S
C158 C157 1.428 . S
C158 C159 1.345 . S
C159 H151 0.950 . S
C159 C158 1.345 . S
C159 C160 1.424 . S
C160 H152 0.951 . S
C160 C159 1.424 . S
C160 C161 1.347 . S
C161 H153 0.951 . S
C161 C156 1.429 . S
C161 C160 1.347 . S
H162 C163 0.951 . S
C163 H162 0.951 . S
C163 C169 1.265 . S
H164 C169 0.950 . S
H165 C173 0.949 . S
H166 C174 0.950 . S
H167 C175 0.951 . S
H168 C176 0.951 . S
C169 C163 1.265 . S
C169 H164 0.950 . S
C169 C170 1.478 . S
C170 C157 1.394 . S
C170 C169 1.478 . S
C170 C171 1.397 . S
C171 C170 1.397 . S
C171 C172 1.438 . S
C171 C176 1.429 . S
C172 C155 1.394 . S
C172 C171 1.438 . S
C172 C173 1.428 . S
C173 H165 0.949 . S
C173 C172 1.428 . S
C173 C174 1.345 . S
C174 H166 0.950 . S
C174 C173 1.345 . S
C174 C175 1.424 . S
C175 H167 0.951 . S
C175 C174 1.424 . S
C175 C176 1.347 . S
C176 H168 0.951 . S
C176 C171 1.429 . S
C176 C175 1.347 . S
H177 C178 0.951 . S
C178 H177 0.951 . S
C178 C184 1.265 . S
H179 C184 0.950 . S
H180 C188 0.949 . S
H181 C189 0.950 . S
H182 C190 0.951 . S
H183 C191 0.951 . S
C184 C178 1.265 . S
C184 H179 0.950 . S
C184 C185 1.478 . S
C185 C184 1.478 . S
C185 C186 1.397 . S
C185 C202 1.394 . S
C186 C185 1.397 . S
C186 C187 1.438 . S
C186 C191 1.429 . S
C187 C186 1.438 . S
C187 C188 1.428 . S
C187 C200 1.394 . S
C188 H180 0.949 . S
C188 C187 1.428 . S
C188 C189 1.345 . S
C189 H181 0.950 . S
C189 C188 1.345 . S
C189 C190 1.424 . S
C190 H182 0.951 . S
C190 C189 1.424 . S
C190 C191 1.347 . S
C191 H183 0.951 . S
C191 C186 1.429 . S
C191 C190 1.347 . S
H192 C193 0.951 . S
C193 H192 0.951 . S
C193 C199 1.265 1_455 S
H194 C199 0.950 . S
H195 C203 0.949 . S
H196 C204 0.950 . S
H197 C205 0.951 . S
H198 C206 0.951 . S
C199 C193 1.265 1_655 S
C199 H194 0.950 . S
C199 C200 1.478 . S
C200 C187 1.394 . S
C200 C199 1.478 . S
C200 C201 1.397 . S
C201 C200 1.397 . S
C201 C202 1.438 . S
C201 C206 1.429 . S
C202 C185 1.394 . S
C202 C201 1.438 . S
C202 C203 1.428 . S
C203 H195 0.949 . S
C203 C202 1.428 . S
C203 C204 1.345 . S
C204 H196 0.950 . S
C204 C203 1.345 . S
C204 C205 1.424 . S
C205 H197 0.951 . S
C205 C204 1.424 . S
C205 C206 1.347 . S
C206 H198 0.951 . S
C206 C201 1.429 . S
C206 C205 1.347 . S
H207 C208 0.951 . S
C208 H207 0.951 . S
C208 C214 1.265 . S
H209 C214 0.950 . S
H210 C218 0.949 . S
H211 C219 0.950 . S
H212 C220 0.951 . S
H213 C221 0.951 . S
C214 C208 1.265 . S
C214 H209 0.950 . S
C214 C215 1.478 . S
C215 C214 1.478 . S
C215 C216 1.397 . S
C215 C232 1.394 . S
C216 C215 1.397 . S
C216 C217 1.438 . S
C216 C221 1.429 . S
C217 C216 1.438 . S
C217 C218 1.428 . S
C217 C230 1.394 . S
C218 H210 0.949 . S
C218 C217 1.428 . S
C218 C219 1.345 . S
C219 H211 0.950 . S
C219 C218 1.345 . S
C219 C220 1.424 . S
C220 H212 0.951 . S
C220 C219 1.424 . S
C220 C221 1.347 . S
C221 H213 0.951 . S
C221 C216 1.429 . S
C221 C220 1.347 . S
H222 C223 0.951 . S
C223 H222 0.951 . S
C223 C229 1.265 . S
H224 C229 0.950 . S
H225 C233 0.949 . S
H226 C234 0.950 . S
H227 C235 0.951 . S
H228 C236 0.951 . S
C229 C223 1.265 . S
C229 H224 0.950 . S
C229 C230 1.478 . S
C230 C217 1.394 . S
C230 C229 1.478 . S
C230 C231 1.397 . S
C231 C230 1.397 . S
C231 C232 1.438 . S
C231 C236 1.429 . S
C232 C215 1.394 . S
C232 C231 1.438 . S
C232 C233 1.428 . S
C233 H225 0.949 . S
C233 C232 1.428 . S
C233 C234 1.345 . S
C234 H226 0.950 . S
C234 C233 1.345 . S
C234 C235 1.424 . S
C235 H227 0.951 . S
C235 C234 1.424 . S
C235 C236 1.347 . S
C236 H228 0.951 . S
C236 C231 1.429 . S
C236 C235 1.347 . S
H237 C238 0.951 . S
C238 H237 0.951 . S
C238 C244 1.265 . S
H239 C244 0.950 . S
H240 C248 0.949 . S
H241 C249 0.950 . S
H242 C250 0.951 . S
H243 C251 0.951 . S
C244 C238 1.265 . S
C244 H239 0.950 . S
C244 C245 1.478 . S
C245 C244 1.478 . S
C245 C246 1.397 . S
C245 C262 1.394 . S
C246 C245 1.397 . S
C246 C247 1.438 . S
C246 C251 1.429 . S
C247 C246 1.438 . S
C247 C248 1.428 . S
C247 C260 1.394 . S
C248 H240 0.949 . S
C248 C247 1.428 . S
C248 C249 1.345 . S
C249 H241 0.950 . S
C249 C248 1.345 . S
C249 C250 1.424 . S
C250 H242 0.951 . S
C250 C249 1.424 . S
C250 C251 1.347 . S
C251 H243 0.951 . S
C251 C246 1.429 . S
C251 C250 1.347 . S
H252 C253 0.951 . S
C253 H252 0.951 . S
C253 C259 1.265 . S
H254 C259 0.950 . S
H255 C263 0.949 . S
H256 C264 0.950 . S
H257 C265 0.951 . S
H258 C266 0.951 . S
C259 C253 1.265 . S
C259 H254 0.950 . S
C259 C260 1.478 . S
C260 C247 1.394 . S
C260 C259 1.478 . S
C260 C261 1.397 . S
C261 C260 1.397 . S
C261 C262 1.438 . S
C261 C266 1.429 . S
C262 C245 1.394 . S
C262 C261 1.438 . S
C262 C263 1.428 . S
C263 H255 0.949 . S
C263 C262 1.428 . S
C263 C264 1.345 . S
C264 H256 0.950 . S
C264 C263 1.345 . S
C264 C265 1.424 . S
C265 H257 0.951 . S
C265 C264 1.424 . S
C265 C266 1.347 . S
C266 H258 0.951 . S
C266 C261 1.429 . S
C266 C265 1.347 . S
H267 C268 0.951 . S
C268 H267 0.951 . S
C268 C274 1.265 . S
H269 C274 0.950 . S
H270 C278 0.949 . S
H271 C279 0.950 . S
H272 C280 0.951 . S
H273 C281 0.951 . S
C274 C268 1.265 . S
C274 H269 0.950 . S
C274 C275 1.478 . S
C275 C274 1.478 . S
C275 C276 1.397 . S
C275 C292 1.394 . S
C276 C275 1.397 . S
C276 C277 1.438 . S
C276 C281 1.429 . S
C277 C276 1.438 . S
C277 C278 1.428 . S
C277 C290 1.394 . S
C278 H270 0.949 . S
C278 C277 1.428 . S
C278 C279 1.345 . S
C279 H271 0.950 . S
C279 C278 1.345 . S
C279 C280 1.424 . S
C280 H272 0.951 . S
C280 C279 1.424 . S
C280 C281 1.347 . S
C281 H273 0.951 . S
C281 C276 1.429 . S
C281 C280 1.347 . S
H282 C283 0.951 . S
C283 H282 0.951 . S
C283 C289 1.265 . S
H284 C289 0.950 . S
H285 C293 0.949 . S
H286 C294 0.950 . S
H287 C295 0.951 . S
H288 C296 0.951 . S
C289 C283 1.265 . S
C289 H284 0.950 . S
C289 C290 1.478 . S
C290 C277 1.394 . S
C290 C289 1.478 . S
C290 C291 1.397 . S
C291 C290 1.397 . S
C291 C292 1.438 . S
C291 C296 1.429 . S
C292 C275 1.394 . S
C292 C291 1.438 . S
C292 C293 1.428 . S
C293 H285 0.949 . S
C293 C292 1.428 . S
C293 C294 1.345 . S
C294 H286 0.950 . S
C294 C293 1.345 . S
C294 C295 1.424 . S
C295 H287 0.951 . S
C295 C294 1.424 . S
C295 C296 1.347 . S
C296 H288 0.951 . S
C296 C291 1.429 . S
C296 C295 1.347 . S
H297 C298 0.951 . S
C298 H297 0.951 . S
C298 C304 1.265 . S
H299 C304 0.950 . S
H300 C308 0.949 . S
H301 C309 0.950 . S
H302 C310 0.951 . S
H303 C311 0.951 . S
C304 C298 1.265 . S
C304 H299 0.950 . S
C304 C305 1.478 . S
C305 C304 1.478 . S
C305 C306 1.397 . S
C305 C322 1.394 . S
C306 C305 1.397 . S
C306 C307 1.438 . S
C306 C311 1.429 . S
C307 C306 1.438 . S
C307 C308 1.428 . S
C307 C320 1.394 . S
C308 H300 0.949 . S
C308 C307 1.428 . S
C308 C309 1.345 . S
C309 H301 0.950 . S
C309 C308 1.345 . S
C309 C310 1.424 . S
C310 H302 0.951 . S
C310 C309 1.424 . S
C310 C311 1.347 . S
C311 H303 0.951 . S
C311 C306 1.429 . S
C311 C310 1.347 . S
H312 C313 0.951 . S
C313 H312 0.951 . S
C313 C319 1.265 . S
H314 C319 0.950 . S
H315 C323 0.949 . S
H316 C324 0.950 . S
H317 C325 0.951 . S
H318 C326 0.951 . S
C319 C313 1.265 . S
C319 H314 0.950 . S
C319 C320 1.478 . S
C320 C307 1.394 . S
C320 C319 1.478 . S
C320 C321 1.397 . S
C321 C320 1.397 . S
C321 C322 1.438 . S
C321 C326 1.429 . S
C322 C305 1.394 . S
C322 C321 1.438 . S
C322 C323 1.428 . S
C323 H315 0.949 . S
C323 C322 1.428 . S
C323 C324 1.345 . S
C324 H316 0.950 . S
C324 C323 1.345 . S
C324 C325 1.424 . S
C325 H317 0.951 . S
C325 C324 1.424 . S
C325 C326 1.347 . S
C326 H318 0.951 . S
C326 C321 1.429 . S
C326 C325 1.347 . S
H327 C328 0.951 . S
C328 H327 0.951 . S
C328 C334 1.265 . S
H329 C334 0.950 . S
H330 C338 0.949 . S
H331 C339 0.950 . S
H332 C340 0.951 . S
H333 C341 0.951 . S
C334 C328 1.265 . S
C334 H329 0.950 . S
C334 C335 1.478 . S
C335 C334 1.478 . S
C335 C336 1.397 . S
C335 C352 1.394 . S
C336 C335 1.397 . S
C336 C337 1.438 . S
C336 C341 1.429 . S
C337 C336 1.438 . S
C337 C338 1.428 . S
C337 C350 1.394 . S
C338 H330 0.949 . S
C338 C337 1.428 . S
C338 C339 1.345 . S
C339 H331 0.950 . S
C339 C338 1.345 . S
C339 C340 1.424 . S
C340 H332 0.951 . S
C340 C339 1.424 . S
C340 C341 1.347 . S
C341 H333 0.951 . S
C341 C336 1.429 . S
C341 C340 1.347 . S
H342 C343 0.951 . S
C343 H342 0.951 . S
C343 C349 1.265 . S
H344 C349 0.950 . S
H345 C353 0.949 . S
H346 C354 0.950 . S
H347 C355 0.951 . S
H348 C356 0.951 . S
C349 C343 1.265 . S
C349 H344 0.950 . S
C349 C350 1.478 . S
C350 C337 1.394 . S
C350 C349 1.478 . S
C350 C351 1.397 . S
C351 C350 1.397 . S
C351 C352 1.438 . S
C351 C356 1.429 . S
C352 C335 1.394 . S
C352 C351 1.438 . S
C352 C353 1.428 . S
C353 H345 0.949 . S
C353 C352 1.428 . S
C353 C354 1.345 . S
C354 H346 0.950 . S
C354 C353 1.345 . S
C354 C355 1.424 . S
C355 H347 0.951 . S
C355 C354 1.424 . S
C355 C356 1.347 . S
C356 H348 0.951 . S
C356 C351 1.429 . S
C356 C355 1.347 . S
H357 C358 0.951 . S
C358 H357 0.951 . S
C358 C364 1.265 . S
H359 C364 0.950 . S
H360 C368 0.949 . S
H361 C369 0.950 . S
H362 C370 0.951 . S
H363 C371 0.951 . S
C364 C358 1.265 . S
C364 H359 0.950 . S
C364 C365 1.478 . S
C365 C364 1.478 . S
C365 C366 1.397 . S
C365 C382 1.394 . S
C366 C365 1.397 . S
C366 C367 1.438 . S
C366 C371 1.429 . S
C367 C366 1.438 . S
C367 C368 1.428 . S
C367 C380 1.394 . S
C368 H360 0.949 . S
C368 C367 1.428 . S
C368 C369 1.345 . S
C369 H361 0.950 . S
C369 C368 1.345 . S
C369 C370 1.424 . S
C370 H362 0.951 . S
C370 C369 1.424 . S
C370 C371 1.347 . S
C371 H363 0.951 . S
C371 C366 1.429 . S
C371 C370 1.347 . S
H372 C373 0.951 . S
C373 H372 0.951 . S
C373 C379 1.265 1_455 S
H374 C379 0.950 . S
H375 C383 0.949 . S
H376 C384 0.950 . S
H377 C385 0.951 . S
H378 C386 0.951 . S
C379 C373 1.265 1_655 S
C379 H374 0.950 . S
C379 C380 1.478 . S
C380 C367 1.394 . S
C380 C379 1.478 . S
C380 C381 1.397 . S
C381 C380 1.397 . S
C381 C382 1.438 . S
C381 C386 1.429 . S
C382 C365 1.394 . S
C382 C381 1.438 . S
C382 C383 1.428 . S
C383 H375 0.949 . S
C383 C382 1.428 . S
C383 C384 1.345 . S
C384 H376 0.950 . S
C384 C383 1.345 . S
C384 C385 1.424 . S
C385 H377 0.951 . S
C385 C384 1.424 . S
C385 C386 1.347 . S
C386 H378 0.951 . S
C386 C381 1.429 . S
C386 C385 1.347 . S
H387 C388 0.951 . S
C388 H387 0.951 . S
C388 C394 1.265 . S
H389 C394 0.950 . S
H390 C398 0.949 . S
H391 C399 0.950 . S
H392 C400 0.951 . S
H393 C401 0.951 . S
C394 C388 1.265 . S
C394 H389 0.950 . S
C394 C395 1.478 . S
C395 C394 1.478 . S
C395 C396 1.397 . S
C395 C412 1.394 . S
C396 C395 1.397 . S
C396 C397 1.438 . S
C396 C401 1.429 . S
C397 C396 1.438 . S
C397 C398 1.428 . S
C397 C410 1.394 . S
C398 H390 0.949 . S
C398 C397 1.428 . S
C398 C399 1.345 . S
C399 H391 0.950 . S
C399 C398 1.345 . S
C399 C400 1.424 . S
C400 H392 0.951 . S
C400 C399 1.424 . S
C400 C401 1.347 . S
C401 H393 0.951 . S
C401 C396 1.429 . S
C401 C400 1.347 . S
H402 C403 0.951 . S
C403 H402 0.951 . S
C403 C409 1.265 . S
H404 C409 0.950 . S
H405 C413 0.949 . S
H406 C414 0.950 . S
H407 C415 0.951 . S
H408 C416 0.951 . S
C409 C403 1.265 . S
C409 H404 0.950 . S
C409 C410 1.478 . S
C410 C397 1.394 . S
C410 C409 1.478 . S
C410 C411 1.397 . S
C411 C410 1.397 . S
C411 C412 1.438 . S
C411 C416 1.429 . S
C412 C395 1.394 . S
C412 C411 1.438 . S
C412 C413 1.428 . S
C413 H405 0.949 . S
C413 C412 1.428 . S
C413 C414 1.345 . S
C414 H406 0.950 . S
C414 C413 1.345 . S
C414 C415 1.424 . S
C415 H407 0.951 . S
C415 C414 1.424 . S
C415 C416 1.347 . S
C416 H408 0.951 . S
C416 C411 1.429 . S
C416 C415 1.347 . S
H417 C418 0.951 . S
C418 H417 0.951 . S
C418 C424 1.265 . S
H419 C424 0.950 . S
H420 C428 0.949 . S
H421 C429 0.950 . S
H422 C430 0.951 . S
H423 C431 0.951 . S
C424 C418 1.265 . S
C424 H419 0.950 . S
C424 C425 1.478 . S
C425 C424 1.478 . S
C425 C426 1.397 . S
C425 C442 1.394 . S
C426 C425 1.397 . S
C426 C427 1.438 . S
C426 C431 1.429 . S
C427 C426 1.438 . S
C427 C428 1.428 . S
C427 C440 1.394 . S
C428 H420 0.949 . S
C428 C427 1.428 . S
C428 C429 1.345 . S
C429 H421 0.950 . S
C429 C428 1.345 . S
C429 C430 1.424 . S
C430 H422 0.951 . S
C430 C429 1.424 . S
C430 C431 1.347 . S
C431 H423 0.951 . S
C431 C426 1.429 . S
C431 C430 1.347 . S
H432 C433 0.951 . S
C433 H432 0.951 . S
C433 C439 1.265 . S
H434 C439 0.950 . S
H435 C443 0.949 . S
H436 C444 0.950 . S
H437 C445 0.951 . S
H438 C446 0.951 . S
C439 C433 1.265 . S
C439 H434 0.950 . S
C439 C440 1.478 . S
C440 C427 1.394 . S
C440 C439 1.478 . S
C440 C441 1.397 . S
C441 C440 1.397 . S
C441 C442 1.438 . S
C441 C446 1.429 . S
C442 C425 1.394 . S
C442 C441 1.438 . S
C442 C443 1.428 . S
C443 H435 0.949 . S
C443 C442 1.428 . S
C443 C444 1.345 . S
C444 H436 0.950 . S
C444 C443 1.345 . S
C444 C445 1.424 . S
C445 H437 0.951 . S
C445 C444 1.424 . S
C445 C446 1.347 . S
C446 H438 0.951 . S
C446 C441 1.429 . S
C446 C445 1.347 . S
H447 C448 0.951 . S
C448 H447 0.951 . S
C448 C454 1.265 . S
H449 C454 0.950 . S
H450 C458 0.949 . S
H451 C459 0.950 . S
H452 C460 0.951 . S
H453 C461 0.951 . S
C454 C448 1.265 . S
C454 H449 0.950 . S
C454 C455 1.478 . S
C455 C454 1.478 . S
C455 C456 1.397 . S
C455 C472 1.394 . S
C456 C455 1.397 . S
C456 C457 1.438 . S
C456 C461 1.429 . S
C457 C456 1.438 . S
C457 C458 1.428 . S
C457 C470 1.394 . S
C458 H450 0.949 . S
C458 C457 1.428 . S
C458 C459 1.345 . S
C459 H451 0.950 . S
C459 C458 1.345 . S
C459 C460 1.424 . S
C460 H452 0.951 . S
C460 C459 1.424 . S
C460 C461 1.347 . S
C461 H453 0.951 . S
C461 C456 1.429 . S
C461 C460 1.347 . S
H462 C463 0.951 . S
C463 H462 0.951 . S
C463 C469 1.265 . S
H464 C469 0.950 . S
H465 C473 0.949 . S
H466 C474 0.950 . S
H467 C475 0.951 . S
H468 C476 0.951 . S
C469 C463 1.265 . S
C469 H464 0.950 . S
C469 C470 1.478 . S
C470 C457 1.394 . S
C470 C469 1.478 . S
C470 C471 1.397 . S
C471 C470 1.397 . S
C471 C472 1.438 . S
C471 C476 1.429 . S
C472 C455 1.394 . S
C472 C471 1.438 . S
C472 C473 1.428 . S
C473 H465 0.949 . S
C473 C472 1.428 . S
C473 C474 1.345 . S
C474 H466 0.950 . S
C474 C473 1.345 . S
C474 C475 1.424 . S
C475 H467 0.951 . S
C475 C474 1.424 . S
C475 C476 1.347 . S
C476 H468 0.951 . S
C476 C471 1.429 . S
C476 C475 1.347 . S
H477 C478 0.951 . S
C478 H477 0.951 . S
C478 C484 1.265 . S
H479 C484 0.950 . S
H480 C488 0.949 . S
H481 C489 0.950 . S
H482 C490 0.951 . S
H483 C491 0.951 . S
C484 C478 1.265 . S
C484 H479 0.950 . S
C484 C485 1.478 . S
C485 C484 1.478 . S
C485 C486 1.397 . S
C485 C502 1.394 . S
C486 C485 1.397 . S
C486 C487 1.438 . S
C486 C491 1.429 . S
C487 C486 1.438 . S
C487 C488 1.428 . S
C487 C500 1.394 . S
C488 H480 0.949 . S
C488 C487 1.428 . S
C488 C489 1.345 . S
C489 H481 0.950 . S
C489 C488 1.345 . S
C489 C490 1.424 . S
C490 H482 0.951 . S
C490 C489 1.424 . S
C490 C491 1.347 . S
C491 H483 0.951 . S
C491 C486 1.429 . S
C491 C490 1.347 . S
H492 C493 0.951 . S
C493 H492 0.951 . S
C493 C499 1.265 . S
H494 C499 0.950 . S
H495 C503 0.949 . S
H496 C504 0.950 . S
H497 C505 0.951 . S
H498 C506 0.951 . S
C499 C493 1.265 . S
C499 H494 0.950 . S
C499 C500 1.478 . S
C500 C487 1.394 . S
C500 C499 1.478 . S
C500 C501 1.397 . S
C501 C500 1.397 . S
C501 C502 1.438 . S
C501 C506 1.429 . S
C502 C485 1.394 . S
C502 C501 1.438 . S
C502 C503 1.428 . S
C503 H495 0.949 . S
C503 C502 1.428 . S
C503 C504 1.345 . S
C504 H496 0.950 . S
C504 C503 1.345 . S
C504 C505 1.424 . S
C505 H497 0.951 . S
C505 C504 1.424 . S
C505 C506 1.347 . S
C506 H498 0.951 . S
C506 C501 1.429 . S
C506 C505 1.347 . S
H507 C508 0.951 . S
C508 H507 0.951 . S
C508 C514 1.265 . S
H509 C514 0.950 . S
H510 C518 0.949 . S
H511 C519 0.950 . S
H512 C520 0.951 . S
H513 C521 0.951 . S
C514 C508 1.265 . S
C514 H509 0.950 . S
C514 C515 1.478 . S
C515 C514 1.478 . S
C515 C516 1.397 . S
C515 C532 1.394 . S
C516 C515 1.397 . S
C516 C517 1.438 . S
C516 C521 1.429 . S
C517 C516 1.438 . S
C517 C518 1.428 1_554 S
C517 C530 1.394 1_554 S
C518 H510 0.949 . S
C518 C517 1.428 1_556 S
C518 C519 1.345 . S
C519 H511 0.950 . S
C519 C518 1.345 . S
C519 C520 1.424 1_556 S
C520 H512 0.951 . S
C520 C519 1.424 1_554 S
C520 C521 1.347 . S
C521 H513 0.951 . S
C521 C516 1.429 . S
C521 C520 1.347 . S
H522 C523 0.951 . S
C523 H522 0.951 . S
C523 C529 1.265 . S
H524 C529 0.950 . S
H525 C533 0.949 . S
H526 C534 0.950 . S
H527 C535 0.951 . S
H528 C536 0.948 1_556 S
C529 C523 1.265 . S
C529 H524 0.950 . S
C529 C530 1.478 . S
C530 C517 1.394 1_556 S
C530 C529 1.478 . S
C530 C531 1.397 1_556 S
C531 C530 1.397 1_554 S
C531 C532 1.438 . S
C531 C536 1.430 . S
C532 C515 1.394 . S
C532 C531 1.438 . S
C532 C533 1.428 . S
C533 H525 0.949 . S
C533 C532 1.428 . S
C533 C534 1.345 . S
C534 H526 0.950 . S
C534 C533 1.345 . S
C534 C535 1.424 . S
C535 H527 0.951 . S
C535 C534 1.424 . S
C535 C536 1.349 . S
C536 H528 0.948 1_554 S
C536 C531 1.430 . S
C536 C535 1.349 . S
H537 C538 0.951 . S
C538 H537 0.951 . S
C538 C544 1.265 . S
H539 C544 0.950 . S
H540 C548 0.949 . S
H541 C549 0.950 . S
H542 C550 0.951 . S
H543 C551 0.951 . S
C544 C538 1.265 . S
C544 H539 0.950 . S
C544 C545 1.478 . S
C545 C544 1.478 . S
C545 C546 1.397 . S
C545 C562 1.381 1_545 S
C546 C545 1.397 . S
C546 C547 1.438 . S
C546 C551 1.429 . S
C547 C546 1.438 . S
C547 C548 1.428 . S
C547 C560 1.394 . S
C548 H540 0.949 . S
C548 C547 1.428 . S
C548 C549 1.345 . S
C549 H541 0.950 . S
C549 C548 1.345 . S
C549 C550 1.424 . S
C550 H542 0.951 . S
C550 C549 1.424 . S
C550 C551 1.347 . S
C551 H543 0.951 . S
C551 C546 1.429 . S
C551 C550 1.347 . S
H552 C553 0.951 . S
C553 H552 0.951 . S
C553 C559 1.265 . S
H554 C559 0.950 . S
H555 C563 0.949 . S
H556 C564 0.950 . S
H557 C565 0.951 . S
H558 C566 0.951 . S
C559 C553 1.265 . S
C559 H554 0.950 . S
C559 C560 1.478 . S
C560 C547 1.394 . S
C560 C559 1.478 . S
C560 C561 1.397 1_545 S
C561 C560 1.397 1_565 S
C561 C562 1.440 . S
C561 C566 1.429 . S
C562 C545 1.381 1_565 S
C562 C561 1.440 . S
C562 C563 1.439 . S
C563 H555 0.949 . S
C563 C562 1.439 . S
C563 C564 1.345 . S
C564 H556 0.950 . S
C564 C563 1.345 . S
C564 C565 1.424 . S
C565 H557 0.951 . S
C565 C564 1.424 . S
C565 C566 1.347 . S
C566 H558 0.951 . S
C566 C561 1.429 . S
C566 C565 1.347 . S
H567 C568 0.951 . S
C568 H567 0.951 . S
C568 C574 1.265 . S
H569 C574 0.950 . S
H570 C578 0.949 . S
H571 C579 0.950 . S
H572 C580 0.951 . S
H573 C581 0.951 . S
C574 C568 1.265 . S
C574 H569 0.950 . S
C574 C575 1.478 . S
C575 C574 1.478 . S
C575 C576 1.397 . S
C575 C592 1.394 . S
C576 C575 1.397 . S
C576 C577 1.438 . S
C576 C581 1.429 . S
C577 C576 1.438 . S
C577 C578 1.428 . S
C577 C590 1.394 . S
C578 H570 0.949 . S
C578 C577 1.428 . S
C578 C579 1.345 . S
C579 H571 0.950 . S
C579 C578 1.345 . S
C579 C580 1.424 . S
C580 H572 0.951 . S
C580 C579 1.424 . S
C580 C581 1.347 . S
C581 H573 0.951 . S
C581 C576 1.429 . S
C581 C580 1.347 . S
H582 C583 0.951 . S
C583 H582 0.951 . S
C583 C589 1.265 . S
H584 C589 0.950 . S
H585 C593 0.949 . S
H586 C594 0.950 . S
H587 C595 0.951 . S
H588 C596 0.951 . S
C589 C583 1.265 . S
C589 H584 0.950 . S
C589 C590 1.478 . S
C590 C577 1.394 . S
C590 C589 1.478 . S
C590 C591 1.397 . S
C591 C590 1.397 . S
C591 C592 1.438 . S
C591 C596 1.429 . S
C592 C575 1.394 . S
C592 C591 1.438 . S
C592 C593 1.428 . S
C593 H585 0.949 . S
C593 C592 1.428 . S
C593 C594 1.345 . S
C594 H586 0.950 . S
C594 C593 1.345 . S
C594 C595 1.424 . S
C595 H587 0.951 . S
C595 C594 1.424 . S
C595 C596 1.347 . S
C596 H588 0.951 . S
C596 C591 1.429 . S
C596 C595 1.347 . S
H597 C598 0.951 . S
C598 H597 0.951 . S
C598 C604 1.265 . S
H599 C604 0.950 . S
H600 C608 0.949 . S
H601 C609 0.950 . S
H602 C610 0.951 . S
H603 C611 0.951 . S
C604 C598 1.265 . S
C604 H599 0.950 . S
C604 C605 1.478 . S
C605 C604 1.478 . S
C605 C606 1.397 1_545 S
C605 C622 1.394 . S
C606 C605 1.397 1_565 S
C606 C607 1.438 . S
C606 C611 1.429 . S
C607 C606 1.438 . S
C607 C608 1.428 . S
C607 C620 1.394 1_565 S
C608 H600 0.949 . S
C608 C607 1.428 . S
C608 C609 1.345 . S
C609 H601 0.950 . S
C609 C608 1.345 . S
C609 C610 1.424 . S
C610 H602 0.951 . S
C610 C609 1.424 . S
C610 C611 1.347 . S
C611 H603 0.951 . S
C611 C606 1.429 . S
C611 C610 1.347 . S
H612 C613 0.951 . S
C613 H612 0.951 . S
C613 C619 1.265 . S
H614 C619 0.950 . S
H615 C623 0.949 . S
H616 C624 0.950 . S
H617 C625 0.951 . S
H618 C626 0.951 . S
C619 C613 1.265 . S
C619 H614 0.950 . S
C619 C620 1.478 . S
C620 C607 1.394 1_545 S
C620 C619 1.478 . S
C620 C621 1.397 . S
C621 C620 1.397 . S
C621 C622 1.438 . S
C621 C626 1.429 . S
C622 C605 1.394 . S
C622 C621 1.438 . S
C622 C623 1.428 . S
C623 H615 0.949 . S
C623 C622 1.428 . S
C623 C624 1.345 . S
C624 H616 0.950 . S
C624 C623 1.345 . S
C624 C625 1.424 . S
C625 H617 0.951 . S
C625 C624 1.424 . S
C625 C626 1.347 . S
C626 H618 0.951 . S
C626 C621 1.429 . S
C626 C625 1.347 . S
H627 C628 0.951 . S
C628 H627 0.951 . S
C628 C634 1.265 . S
H629 C634 0.950 . S
H630 C638 0.949 . S
H631 C639 0.950 1_554 S
H632 C640 0.951 . S
H633 C641 0.951 . S
C634 C628 1.265 . S
C634 H629 0.950 . S
C634 C635 1.478 . S
C635 C634 1.478 . S
C635 C636 1.397 . S
C635 C652 1.394 . S
C636 C635 1.397 . S
C636 C637 1.438 . S
C636 C641 1.429 . S
C637 C636 1.438 . S
C637 C638 1.428 1_556 S
C637 C650 1.394 1_556 S
C638 H630 0.949 . S
C638 C637 1.428 1_554 S
C638 C639 1.345 1_554 S
C639 H631 0.950 1_556 S
C639 C638 1.345 1_556 S
C639 C640 1.424 . S
C640 H632 0.951 . S
C640 C639 1.424 . S
C640 C641 1.347 . S
C641 H633 0.951 . S
C641 C636 1.429 . S
C641 C640 1.347 . S
H642 C643 0.951 . S
C643 H642 0.951 . S
C643 C649 1.265 . S
H644 C649 0.950 . S
H645 C653 0.949 . S
H646 C654 0.950 . S
H647 C655 0.951 1_554 S
H648 C656 0.951 . S
C649 C643 1.265 . S
C649 H644 0.950 . S
C649 C650 1.478 . S
C650 C637 1.394 1_554 S
C650 C649 1.478 . S
C650 C651 1.397 1_554 S
C651 C650 1.397 1_556 S
C651 C652 1.438 . S
C651 C656 1.429 1_556 S
C652 C635 1.394 . S
C652 C651 1.438 . S
C652 C653 1.428 . S
C653 H645 0.949 . S
C653 C652 1.428 . S
C653 C654 1.345 . S
C654 H646 0.950 . S
C654 C653 1.345 . S
C654 C655 1.424 . S
C655 H647 0.951 1_556 S
C655 C654 1.424 . S
C655 C656 1.347 1_556 S
C656 H648 0.951 . S
C656 C651 1.429 1_554 S
C656 C655 1.347 1_554 S
H657 C658 0.951 . S
C658 H657 0.951 . S
C658 C664 1.265 . S
H659 C664 0.950 1_655 S
H660 C668 0.951 . S
H661 C669 0.950 . S
H662 C670 0.951 . S
H663 C671 0.951 . S
C664 C658 1.265 . S
C664 H659 0.950 1_455 S
C664 C665 1.478 . S
C665 C664 1.478 . S
C665 C666 1.397 . S
C665 C682 1.394 . S
C666 C665 1.397 . S
C666 C667 1.438 . S
C666 C671 1.429 1_455 S
C667 C666 1.438 . S
C667 C668 1.430 . S
C667 C680 1.394 . S
C668 H660 0.951 . S
C668 C667 1.430 . S
C668 C669 1.341 1_455 S
C669 H661 0.950 . S
C669 C668 1.341 1_655 S
C669 C670 1.424 . S
C670 H662 0.951 . S
C670 C669 1.424 . S
C670 C671 1.347 . S
C671 H663 0.951 . S
C671 C666 1.429 1_655 S
C671 C670 1.347 . S
H672 C673 0.951 . S
C673 H672 0.951 . S
C673 C679 1.265 . S
H674 C679 0.950 . S
H675 C683 0.949 . S
H676 C684 0.950 . S
H677 C685 0.951 . S
H678 C686 0.951 . S
C679 C673 1.265 . S
C679 H674 0.950 . S
C679 C680 1.478 . S
C680 C667 1.394 . S
C680 C679 1.478 . S
C680 C681 1.397 . S
C681 C680 1.397 . S
C681 C682 1.438 . S
C681 C686 1.429 . S
C682 C665 1.394 . S
C682 C681 1.438 . S
C682 C683 1.428 . S
C683 H675 0.949 . S
C683 C682 1.428 . S
C683 C684 1.345 . S
C684 H676 0.950 . S
C684 C683 1.345 . S
C684 C685 1.424 . S
C685 H677 0.951 . S
C685 C684 1.424 . S
C685 C686 1.347 . S
C686 H678 0.951 . S
C686 C681 1.429 . S
C686 C685 1.347 . S
C148 C20 1.267 . S
C163 C138 1.278 . S
C178 C41 1.264 . S
C193 C116 1.255 . S
C208 C64 1.286 . S
C223 C129 1.277 . S
C238 C19 1.275 . S
C253 C142 1.289 . S
C283 C112 1.207 . S
C268 C44 1.292 . S
C313 C125 1.185 . S
C298 C67 1.283 . S
C328 C43 1.131 . S
C343 C90 1.230 . S
C358 C66 1.119 . S
C373 C103 1.214 . S
C388 C21 1.284 . S
C403 C73 1.210 . S
C433 C86 1.199 . S
C418 C42 1.233 . S
C463 C99 1.172 . S
C448 C65 1.264 . S
C478 C18 1.231 . S
C493 C77 1.211 . S
C523 C104 1.488 . S
C508 C17 1.494 . S
C538 C39 1.537 . S
C553 C78 1.533 . S
C568 C62 1.522 . S
C583 C91 1.530 . S
C613 C130 1.517 . S
C598 C40 1.516 . S
C643 C143 1.545 . S
C628 C63 1.543 . S
C658 C16 1.507 . S
C673 C117 1.502 . S
