# Generated by pormake.
# Topology nom, (4,4)-cn, num edge types: 1
# Building blocks:
#     Node 0, Type 0, BuildingBlock: KUFVIS_clean_linker_0, # of connection points: 4
#     Node 1, Type 0, BuildingBlock: KUFVIS_clean_linker_0, # of connection points: 4
#     Node 2, Type 0, BuildingBlock: KUFVIS_clean_linker_0, # of connection points: 4
#     Node 3, Type 0, BuildingBlock: KUFVIS_clean_linker_0, # of connection points: 4
#     Node 4, Type 0, BuildingBlock: KUFVIS_clean_linker_0, # of connection points: 4
#     Node 5, Type 0, BuildingBlock: KUFVIS_clean_linker_0, # of connection points: 4
#     Node 6, Type 1, BuildingBlock: KUFVIS_clean_sbu_0, # of connection points: 4
#     Node 7, Type 1, BuildingBlock: KUFVIS_clean_sbu_0, # of connection points: 4
#     Node 8, Type 1, BuildingBlock: KUFVIS_clean_sbu_0, # of connection points: 4
#     Node 9, Type 1, BuildingBlock: KUFVIS_clean_sbu_0, # of connection points: 4
#     Node 10, Type 1, BuildingBlock: KUFVIS_clean_sbu_0, # of connection points: 4
#     Node 11, Type 1, BuildingBlock: KUFVIS_clean_sbu_0, # of connection points: 4
#     Edge 12, Type (0, 1), BuildingBlock: EZIPEK_clean_linker_0, # of connection points: 2
#     Edge 13, Type (0, 1), BuildingBlock: EZIPEK_clean_linker_0, # of connection points: 2
#     Edge 14, Type (0, 1), BuildingBlock: EZIPEK_clean_linker_0, # of connection points: 2
#     Edge 15, Type (0, 1), BuildingBlock: EZIPEK_clean_linker_0, # of connection points: 2
#     Edge 16, Type (0, 1), BuildingBlock: EZIPEK_clean_linker_0, # of connection points: 2
#     Edge 17, Type (0, 1), BuildingBlock: EZIPEK_clean_linker_0, # of connection points: 2
#     Edge 18, Type (0, 1), BuildingBlock: EZIPEK_clean_linker_0, # of connection points: 2
#     Edge 19, Type (0, 1), BuildingBlock: EZIPEK_clean_linker_0, # of connection points: 2
#     Edge 20, Type (0, 1), BuildingBlock: EZIPEK_clean_linker_0, # of connection points: 2
#     Edge 21, Type (0, 1), BuildingBlock: EZIPEK_clean_linker_0, # of connection points: 2
#     Edge 22, Type (0, 1), BuildingBlock: EZIPEK_clean_linker_0, # of connection points: 2
#     Edge 23, Type (0, 1), BuildingBlock: EZIPEK_clean_linker_0, # of connection points: 2
#     Edge 24, Type (0, 1), BuildingBlock: EZIPEK_clean_linker_0, # of connection points: 2
#     Edge 25, Type (0, 1), BuildingBlock: EZIPEK_clean_linker_0, # of connection points: 2
#     Edge 26, Type (0, 1), BuildingBlock: EZIPEK_clean_linker_0, # of connection points: 2
#     Edge 27, Type (0, 1), BuildingBlock: EZIPEK_clean_linker_0, # of connection points: 2
#     Edge 28, Type (0, 1), BuildingBlock: EZIPEK_clean_linker_0, # of connection points: 2
#     Edge 29, Type (0, 1), BuildingBlock: EZIPEK_clean_linker_0, # of connection points: 2
#     Edge 30, Type (0, 1), BuildingBlock: EZIPEK_clean_linker_0, # of connection points: 2
#     Edge 31, Type (0, 1), BuildingBlock: EZIPEK_clean_linker_0, # of connection points: 2
#     Edge 32, Type (0, 1), BuildingBlock: EZIPEK_clean_linker_0, # of connection points: 2
#     Edge 33, Type (0, 1), BuildingBlock: EZIPEK_clean_linker_0, # of connection points: 2
#     Edge 34, Type (0, 1), BuildingBlock: EZIPEK_clean_linker_0, # of connection points: 2
#     Edge 35, Type (0, 1), BuildingBlock: EZIPEK_clean_linker_0, # of connection points: 2
# Relax obj value: 0.004
# Max RMSD: 0.054
# Mean RMSD: 0.039
data_MOF--net-nom--node1-KUFVIS_clean_sbu_0--node2-KUFVIS_clean_linker_0--edge1-EZIPEK_clean_linker_0
_symmetry_space_group_name_H-M    P1
_symmetry_Int_Tables_number       1
_symmetry_cell_setting            triclinic
loop_
_symmetry_equiv_pos_as_xyz
'x, y, z'
_cell_length_a     32.83517
_cell_length_b     33.089379
_cell_length_c     34.538234
_cell_angle_alpha  90.026128
_cell_angle_beta   90.577618
_cell_angle_gamma 120.06829
loop_
_atom_site_label
_atom_site_type_symbol
_atom_site_fract_x
_atom_site_fract_y
_atom_site_fract_z
_atom_type_partial_charge
H0 H 0.19299 0.62584 0.35415 0.0
H1 H 0.09053 0.58924 0.26498 0.0
H2 H 0.05578 0.60064 0.38289 0.0
H3 H 0.98351 0.56332 0.36892 0.0
H4 H 0.88025 0.50657 0.27882 0.0
H5 H 1.01985 0.53844 0.25402 0.0
C6 C 0.15683 0.61455 0.34597 0.0
C7 C 0.12505 0.61215 0.37395 0.0
C8 C 0.1453 0.61065 0.30684 0.0
C9 C 0.0981 0.59222 0.29565 0.0
C10 C 0.06294 0.58269 0.32361 0.0
C11 C 0.07867 0.59825 0.36207 0.0
C12 C 1.01129 0.55935 0.31222 0.0
C13 C 0.97577 0.55324 0.33889 0.0
C14 C 0.92841 0.53264 0.32689 0.0
C15 C 0.91658 0.52071 0.28823 0.0
C16 C 0.94949 0.52245 0.26224 0.0
C17 C 0.99622 0.54027 0.27448 0.0
H18 H 0.5774 0.20034 0.49576 0.0
H19 H 0.52123 0.08708 0.41447 0.0
H20 H 0.54396 0.06438 0.53456 0.0
H21 H 0.47655 0.99714 0.52668 0.0
H22 H 0.4214 0.88251 0.44727 0.0
H23 H 0.52222 1.01929 0.40733 0.0
C24 C 0.56379 0.16354 0.48967 0.0
C25 C 0.56149 0.13402 0.51946 0.0
C26 C 0.55242 0.14742 0.45166 0.0
C27 C 0.53256 0.09939 0.4438 0.0
C28 C 0.52688 0.0679 0.47402 0.0
C29 C 0.54428 0.08654 0.51137 0.0
C30 C 0.50115 1.01594 0.46728 0.0
C31 C 0.47586 0.98464 0.4976 0.0
C32 C 0.44857 0.93645 0.49043 0.0
C33 C 0.44393 0.91964 0.45272 0.0
C34 C 0.47105 0.94893 0.42272 0.0
C35 C 0.50042 0.99698 0.43035 0.0
H36 H 0.59949 0.44692 0.60285 0.0
H37 H 0.54893 0.48919 0.69778 0.0
H38 H 0.48325 0.47042 0.58488 0.0
H39 H 0.47146 0.52948 0.60146 0.0
H40 H 0.4204 0.56866 0.70016 0.0
H41 H 0.48817 0.48917 0.71773 0.0
C42 C 0.57591 0.45845 0.61333 0.0
C43 C 0.54349 0.46078 0.58788 0.0
C44 C 0.57378 0.46363 0.65302 0.0
C45 C 0.54653 0.48194 0.66713 0.0
C46 C 0.51519 0.48786 0.64222 0.0
C47 C 0.51149 0.4732 0.60313 0.0
C48 C 0.48574 0.50764 0.65734 0.0
C49 C 0.46705 0.52891 0.63249 0.0
C50 C 0.44247 0.55005 0.6479 0.0
C51 C 0.43824 0.55153 0.68798 0.0
C52 C 0.45491 0.52972 0.71259 0.0
C53 C 0.47736 0.50694 0.69748 0.0
H54 H 0.19643 0.58188 0.76216 0.0
H55 H 0.10507 0.52758 0.85914 0.0
H56 H 0.04871 0.5239 0.74391 0.0
H57 H 0.98457 0.46492 0.76543 0.0
H58 H 0.89257 0.43088 0.86153 0.0
H59 H 0.04007 0.52165 0.87993 0.0
C60 C 0.16127 0.56624 0.77399 0.0
C61 C 0.1229 0.55226 0.74905 0.0
C62 C 0.15489 0.55827 0.81368 0.0
C63 C 0.10905 0.53591 0.82867 0.0
C64 C 0.0693 0.52311 0.80416 0.0
C65 C 0.07733 0.53236 0.76403 0.0
C66 C 1.01986 0.49874 0.8199 0.0
C67 C 0.98035 0.47063 0.79557 0.0
C68 C 0.9345 0.44742 0.81045 0.0
C69 C 0.92774 0.45066 0.84977 0.0
C70 C 0.96587 0.47593 0.87468 0.0
C71 C 1.01155 0.50132 0.85982 0.0
H72 H 0.51396 0.87944 0.00845 0.0
H73 H 0.55647 0.98284 0.92073 0.0
H74 H 0.53803 1.01609 0.0382 0.0
H75 H 0.60714 0.08536 0.02345 0.0
H76 H 0.64395 0.18745 0.93452 0.0
H77 H 0.54803 0.0439 0.90757 0.0
C78 C 0.52413 0.91495 0.00045 0.0
C79 C 0.52523 0.94614 0.02853 0.0
C80 C 0.53188 0.92734 0.96153 0.0
C81 C 0.54768 0.97358 0.95075 0.0
C82 C 0.55233 1.00711 0.97853 0.0
C83 C 0.53838 0.99209 0.01706 0.0
C84 C 0.57332 0.05757 0.96746 0.0
C85 C 0.60178 0.09359 0.99417 0.0
C86 C 0.62607 0.14051 0.98236 0.0
C87 C 0.62303 0.15147 0.94389 0.0
C88 C 0.59627 0.11677 0.91674 0.0
C89 C 0.56956 0.07017 0.92889 0.0
H90 H 0.48835 0.62917 0.0958 0.0
H91 H 0.54512 0.59664 0.19361 0.0
H92 H 0.5995 0.59875 0.07958 0.0
H93 H 0.60936 0.54084 0.09803 0.0
H94 H 0.6667 0.5055 0.19538 0.0
H95 H 0.59841 0.58437 0.21439 0.0
C96 C 0.51157 0.61741 0.10719 0.0
C97 C 0.54173 0.61169 0.08227 0.0
C98 C 0.51691 0.61699 0.14704 0.0
C99 C 0.54437 0.59924 0.16253 0.0
C100 C 0.57188 0.58795 0.138 0.0
C101 C 0.57325 0.59884 0.09813 0.0
C102 C 0.60004 0.56665 0.15367 0.0
C103 C 0.61628 0.54349 0.12886 0.0
C104 C 0.64129 0.52252 0.14378 0.0
C105 C 0.64863 0.52278 0.18368 0.0
C106 C 0.63214 0.54434 0.20871 0.0
C107 C 0.6092 0.56711 0.19384 0.0
Mn108 Mn 0.64416 0.40693 0.39965 0.0
Mn109 Mn 0.70069 0.51284 0.44319 0.0
C110 C 0.60483 0.42824 0.44406 0.0
C111 C 0.62104 0.32765 0.39631 0.0
C112 C 0.65834 0.49831 0.36316 0.0
O113 O 0.71295 0.42803 0.38792 0.0
O114 O 0.74424 0.49981 0.41383 0.0
C115 C 0.7503 0.48303 0.49814 0.0
N116 N 0.72225 0.50184 0.49155 0.0
C117 C 0.7159 0.51137 0.55981 0.0
C118 C 0.74477 0.49222 0.56734 0.0
C119 C 0.76179 0.47769 0.53634 0.0
C120 C 0.70418 0.51418 0.5212 0.0
H121 H 0.76379 0.47208 0.47449 0.0
C122 C 0.74784 0.46854 0.39515 0.0
O123 O 0.6215 0.35036 0.36554 0.0
O124 O 0.63603 0.35123 0.4283 0.0
N125 N 0.66633 0.53365 0.47359 0.0
C126 C 0.64806 0.5604 0.46106 0.0
C127 C 0.63444 0.5829 0.48813 0.0
C128 C 0.64043 0.57839 0.52789 0.0
C129 C 0.6618 0.55302 0.54012 0.0
C130 C 0.67566 0.53225 0.51169 0.0
H131 H 0.64474 0.56528 0.43052 0.0
O132 O 0.58179 0.39501 0.4191 0.0
O133 O 0.65044 0.44719 0.44332 0.0
O134 O 0.64694 0.45528 0.36115 0.0
O135 O 0.6763 0.52364 0.39359 0.0
C136 C 0.67292 0.5504 0.5792 0.0
C137 C 0.69945 0.52901 0.58904 0.0
H138 H 0.75444 0.48891 0.59676 0.0
H139 H 0.78409 0.46284 0.54185 0.0
H140 H 0.61946 0.60379 0.47836 0.0
H141 H 0.6298 0.59575 0.54869 0.0
H142 H 0.66219 0.56567 0.60183 0.0
H143 H 0.70862 0.5279 0.61901 0.0
Mn144 Mn 0.29011 0.68172 0.56201 0.0
Mn145 Mn 0.24031 0.57269 0.52494 0.0
C146 C 0.22893 0.65606 0.51665 0.0
C147 C 0.34614 0.76117 0.56026 0.0
C148 C 0.2108 0.59403 0.60113 0.0
O149 O 0.33808 0.66242 0.5786 0.0
O150 O 0.29668 0.58856 0.55705 0.0
C151 C 0.32113 0.59909 0.47304 0.0
N152 N 0.27395 0.58052 0.47798 0.0
C153 C 0.25974 0.56981 0.40925 0.0
C154 C 0.3081 0.58871 0.40347 0.0
C155 C 0.33895 0.60357 0.43553 0.0
C156 C 0.2442 0.56755 0.44723 0.0
H157 H 0.34512 0.61065 0.49746 0.0
C158 C 0.33202 0.62141 0.57486 0.0
O159 O 0.32435 0.74182 0.59208 0.0
O160 O 0.33753 0.73415 0.53054 0.0
N161 N 0.18551 0.54909 0.49255 0.0
C162 C 0.14016 0.52146 0.504 0.0
C163 C 0.10458 0.49734 0.47613 0.0
C164 C 0.11595 0.50152 0.4367 0.0
C165 C 0.16312 0.52778 0.42572 0.0
C166 C 0.1972 0.54955 0.45501 0.0
H167 H 0.13136 0.5171 0.53433 0.0
O168 O 0.23957 0.6915 0.53892 0.0
O169 O 0.25577 0.63771 0.5202 0.0
O170 O 0.24379 0.63682 0.60211 0.0
O171 O 0.20395 0.56624 0.57263 0.0
C172 C 0.17785 0.53032 0.38719 0.0
C173 C 0.22623 0.55208 0.37889 0.0
H174 H 0.32188 0.59154 0.37461 0.0
H175 H 0.37636 0.61823 0.43135 0.0
H176 H 0.06845 0.47568 0.48501 0.0
H177 H 0.08835 0.48319 0.41524 0.0
H178 H 0.15226 0.51461 0.36386 0.0
H179 H 0.23724 0.55334 0.34927 0.0
Mn180 Mn 0.6558 0.28401 0.71682 0.0
Mn181 Mn 0.71039 0.22402 0.69366 0.0
C182 C 0.62657 0.23044 0.66661 0.0
C183 C 0.64409 0.34789 0.71157 0.0
C184 C 0.65109 0.20479 0.76581 0.0
O185 O 0.72092 0.32152 0.74257 0.0
O186 O 0.75679 0.28383 0.71851 0.0
C187 C 0.77758 0.28495 0.63448 0.0
N188 N 0.74103 0.24263 0.64488 0.0
C189 C 0.74341 0.20813 0.58423 0.0
C190 C 0.7812 0.2513 0.5729 0.0
C191 C 0.79813 0.28994 0.59804 0.0
C192 C 0.72418 0.20536 0.62078 0.0
H193 H 0.79106 0.31457 0.65394 0.0
C194 C 0.7572 0.31725 0.73756 0.0
O195 O 0.6326 0.32247 0.74249 0.0
O196 O 0.66592 0.33868 0.68491 0.0
N197 N 0.66897 0.16565 0.66854 0.0
C198 C 0.62873 0.12842 0.68176 0.0
C199 C 0.60531 0.08768 0.65903 0.0
C200 C 0.6232 0.08583 0.62273 0.0
C201 C 0.66402 0.125 0.60927 0.0
C202 C 0.68583 0.1646 0.63323 0.0
H203 H 0.61369 0.13039 0.7088 0.0
O204 O 0.59984 0.2434 0.6836 0.0
O205 O 0.66973 0.24961 0.67944 0.0
O206 O 0.63518 0.23156 0.75647 0.0
O207 O 0.68111 0.20134 0.74507 0.0
C208 C 0.68337 0.12665 0.57267 0.0
C209 C 0.7233 0.16807 0.5603 0.0
H210 H 0.7971 0.2553 0.5448 0.0
H211 H 0.82713 0.32341 0.58943 0.0
H212 H 0.57317 0.05803 0.66923 0.0
H213 H 0.60481 0.05452 0.60512 0.0
H214 H 0.66737 0.09652 0.55356 0.0
H215 H 0.73742 0.16916 0.53187 0.0
Mn216 Mn 0.43636 0.66887 0.89871 0.0
Mn217 Mn 0.37458 0.56298 0.93975 0.0
C218 C 0.47324 0.64362 0.94218 0.0
C219 C 0.46255 0.74852 0.89816 0.0
C220 C 0.41934 0.57677 0.86182 0.0
O221 O 0.36907 0.65196 0.88525 0.0
O222 O 0.33379 0.57886 0.90794 0.0
C223 C 0.32655 0.59633 0.99226 0.0
N224 N 0.35348 0.57611 0.98712 0.0
C225 C 0.36253 0.57179 0.05599 0.0
C226 C 0.335 0.59265 0.06196 0.0
C227 C 0.31702 0.60506 0.02992 0.0
C228 C 0.37199 0.56521 0.01776 0.0
H229 H 0.31253 0.60592 0.96786 0.0
C230 C 0.3328 0.61202 0.88988 0.0
O231 O 0.46195 0.72687 0.86658 0.0
O232 O 0.44639 0.72388 0.92915 0.0
N233 N 0.4057 0.53966 0.97199 0.0
C234 C 0.41984 0.50903 0.96117 0.0
C235 C 0.43316 0.48741 0.98957 0.0
C236 C 0.43075 0.4966 0.02892 0.0
C237 C 0.41243 0.52518 0.03947 0.0
C238 C 0.39861 0.54476 0.00977 0.0
H239 H 0.42048 0.50084 0.93098 0.0
O240 O 0.49738 0.67735 0.91846 0.0
O241 O 0.42784 0.62711 0.94145 0.0
O242 O 0.43142 0.62 0.85961 0.0
O243 O 0.39968 0.55122 0.89153 0.0
C244 C 0.40417 0.53214 0.07819 0.0
C245 C 0.37991 0.55617 0.08647 0.0
H246 H 0.32699 0.59878 0.09098 0.0
H247 H 0.29565 0.62109 0.03425 0.0
H248 H 0.44523 0.4637 0.98115 0.0
H249 H 0.44125 0.48003 0.05077 0.0
H250 H 0.41527 0.51815 0.10176 0.0
H251 H 0.37324 0.56086 0.11631 0.0
Mn252 Mn 0.79744 0.41621 0.06948 0.0
Mn253 Mn 0.85791 0.36196 0.09499 0.0
C254 C 0.8569 0.44824 0.11575 0.0
C255 C 0.73861 0.43553 0.0779 0.0
C256 C 0.87713 0.41801 0.02181 0.0
O257 O 0.75324 0.34971 0.05077 0.0
O258 O 0.79876 0.31853 0.06637 0.0
C259 C 0.78907 0.29433 0.15029 0.0
N260 N 0.83344 0.32941 0.14248 0.0
C261 C 0.86083 0.32421 0.20616 0.0
C262 C 0.81549 0.28792 0.21482 0.0
C263 C 0.7794 0.27313 0.18684 0.0
C264 C 0.86822 0.34445 0.16944 0.0
H265 H 0.76129 0.28246 0.1288 0.0
C266 C 0.76108 0.31558 0.05215 0.0
O267 O 0.7588 0.44064 0.04472 0.0
O268 O 0.74933 0.4152 0.10498 0.0
N269 N 0.91518 0.39909 0.12357 0.0
C270 C 0.95678 0.43513 0.11096 0.0
C271 C 0.99588 0.45549 0.13619 0.0
C272 C 0.99221 0.43778 0.17373 0.0
C273 C 0.94947 0.39974 0.18565 0.0
C274 C 0.91149 0.38133 0.15944 0.0
H275 H 0.96002 0.44857 0.08199 0.0
O276 O 0.84539 0.47459 0.09624 0.0
O277 O 0.83421 0.40412 0.10698 0.0
O278 O 0.84316 0.42608 0.02539 0.0
O279 O 0.88689 0.39582 0.04692 0.0
C280 C 0.94307 0.37937 0.22253 0.0
C281 C 0.89884 0.34148 0.23272 0.0
H282 H 0.80792 0.27135 0.24292 0.0
H283 H 0.74427 0.24525 0.19334 0.0
H284 H 1.02884 0.48463 0.12666 0.0
H285 H 1.02249 0.4535 0.19308 0.0
H286 H 0.97182 0.39281 0.24339 0.0
H287 H 0.89421 0.32645 0.2613 0.0
Mn288 Mn 0.40443 0.78511 0.23352 0.0
Mn289 Mn 0.5217 0.84263 0.25313 0.0
C290 C 0.43623 0.84381 0.28031 0.0
C291 C 0.32763 0.72422 0.2429 0.0
C292 C 0.47866 0.86228 0.18195 0.0
O293 O 0.42504 0.74172 0.20963 0.0
O294 O 0.50208 0.78316 0.22532 0.0
C295 C 0.52093 0.77307 0.30763 0.0
N296 N 0.53179 0.81778 0.3 0.0
C297 C 0.56786 0.84368 0.36294 0.0
C298 C 0.55734 0.79803 0.37131 0.0
C299 C 0.53347 0.76251 0.34362 0.0
C300 C 0.55377 0.85195 0.3268 0.0
H301 H 0.50286 0.74558 0.28644 0.0
C302 C 0.4664 0.74719 0.21058 0.0
O303 O 0.33993 0.74756 0.21088 0.0
O304 O 0.36023 0.73481 0.269 0.0
N305 N 0.54645 0.90017 0.28165 0.0
C306 C 0.55607 0.94285 0.26881 0.0
C307 C 0.57787 0.98177 0.29366 0.0
C308 C 0.59184 0.97691 0.33106 0.0
C309 C 0.58451 0.93332 0.34294 0.0
C310 C 0.56153 0.89557 0.31711 0.0
H311 H 0.54821 0.94723 0.23964 0.0
O312 O 0.3959 0.83168 0.26404 0.0
O313 O 0.45683 0.82116 0.26886 0.0
O314 O 0.43627 0.83217 0.18998 0.0
O315 O 0.51388 0.87063 0.20397 0.0
C316 C 0.59971 0.92601 0.3792 0.0
C317 C 0.59152 0.88124 0.38915 0.0
H318 H 0.56721 0.78981 0.39896 0.0
H319 H 0.525 0.72712 0.34991 0.0
H320 H 0.58474 1.0156 0.28371 0.0
H321 H 0.60911 1.00708 0.35007 0.0
H322 H 0.61758 0.95455 0.39971 0.0
H323 H 0.60299 0.87594 0.41724 0.0
C324 C 0.2006 0.68195 0.27011 0.0
C325 C 0.18505 0.63462 0.27934 0.0
C326 C 0.25934 0.64359 0.25515 0.0
C327 C 0.27728 0.69236 0.25178 0.0
N328 N 0.26659 0.75911 0.25823 0.0
N329 N 0.19738 0.56896 0.27934 0.0
C330 C 0.24806 0.71172 0.2591 0.0
C331 C 0.21366 0.61486 0.27096 0.0
N332 N 0.17024 0.6988 0.27258 0.0
N333 N 0.28593 0.62499 0.24283 0.0
H334 H 0.16321 0.54693 0.28901 0.0
H335 H 0.21767 0.55295 0.27781 0.0
H336 H 0.31921 0.64539 0.23094 0.0
H337 H 0.27404 0.58937 0.24165 0.0
H338 H 0.1777 0.7312 0.26193 0.0
H339 H 0.13578 0.67904 0.28211 0.0
H340 H 0.24922 0.77593 0.26853 0.0
H341 H 0.30093 0.78245 0.24988 0.0
C342 C 0.53378 0.20009 0.41276 0.0
C343 C 0.56514 0.18355 0.42124 0.0
C344 C 0.63223 0.25823 0.40112 0.0
C345 C 0.60146 0.2763 0.39632 0.0
N346 N 0.52261 0.26235 0.38708 0.0
N347 N 0.6408 0.19034 0.41316 0.0
C348 C 0.55195 0.24624 0.39821 0.0
C349 C 0.61329 0.21049 0.41139 0.0
N350 N 0.48721 0.17258 0.42118 0.0
N351 N 0.67964 0.2874 0.39756 0.0
H352 H 0.62715 0.15539 0.42072 0.0
H353 H 0.6756 0.20658 0.4042 0.0
H354 H 0.69407 0.32187 0.38826 0.0
H355 H 0.70477 0.27824 0.40485 0.0
H356 H 0.46285 0.18393 0.42029 0.0
H357 H 0.47319 0.13809 0.43029 0.0
H358 H 0.48621 0.24144 0.38491 0.0
H359 H 0.53504 0.29622 0.37705 0.0
C360 C 0.36663 0.54432 0.62875 0.0
C361 C 0.41597 0.56686 0.62371 0.0
C362 C 0.41193 0.62745 0.58515 0.0
C363 C 0.36368 0.60767 0.59482 0.0
N364 N 0.29979 0.55524 0.63553 0.0
N365 N 0.48717 0.63362 0.60119 0.0
C366 C 0.34243 0.56835 0.61944 0.0
C367 C 0.43921 0.60951 0.60289 0.0
N368 N 0.34278 0.4997 0.64252 0.0
N369 N 0.43129 0.66221 0.55835 0.0
H370 H 0.50794 0.62113 0.61328 0.0
H371 H 0.50631 0.66723 0.59004 0.0
H372 H 0.41255 0.67645 0.54536 0.0
H373 H 0.4648 0.67458 0.54715 0.0
H374 H 0.30616 0.48031 0.64367 0.0
H375 H 0.35934 0.48051 0.6488 0.0
H376 H 0.28455 0.52925 0.65641 0.0
H377 H 0.28268 0.57432 0.63155 0.0
C378 C 0.86937 0.43164 0.76274 0.0
C379 C 0.89276 0.41464 0.78674 0.0
C380 C 0.82496 0.33549 0.78185 0.0
C381 C 0.80276 0.35167 0.75566 0.0
N382 N 0.8074 0.41331 0.71526 0.0
N383 N 0.89776 0.34946 0.81217 0.0
C384 C 0.82594 0.39931 0.74439 0.0
C385 C 0.87208 0.36616 0.79393 0.0
N386 N 0.88785 0.47867 0.75852 0.0
N387 N 0.80021 0.29143 0.79671 0.0
H388 H 0.9326 0.37107 0.82118 0.0
H389 H 0.88622 0.314 0.81492 0.0
H390 H 0.76498 0.26837 0.78971 0.0
H391 H 0.81299 0.2794 0.81893 0.0
H392 H 0.86978 0.49338 0.7452 0.0
H393 H 0.92024 0.50321 0.77055 0.0
H394 H 0.82508 0.44646 0.70307 0.0
H395 H 0.77589 0.39063 0.701 0.0
C396 C 0.47068 0.86332 0.91993 0.0
C397 C 0.51841 0.88946 0.93246 0.0
C398 C 0.53262 0.82748 0.90998 0.0
C399 C 0.48403 0.79982 0.9006 0.0
N400 N 0.40977 0.79434 0.88638 0.0
N401 N 0.59737 0.90312 0.93069 0.0
C402 C 0.45411 0.81902 0.90194 0.0
C403 C 0.55036 0.87378 0.92421 0.0
N404 N 0.44074 0.87976 0.92742 0.0
N405 N 0.56098 0.80834 0.90737 0.0
H406 H 0.61069 0.93707 0.94124 0.0
H407 H 0.62334 0.89555 0.92285 0.0
H408 H 0.54932 0.77528 0.89548 0.0
H409 H 0.59538 0.82427 0.91795 0.0
H410 H 0.40443 0.86026 0.92346 0.0
H411 H 0.45221 0.91286 0.93912 0.0
H412 H 0.3869 0.80738 0.88362 0.0
H413 H 0.39728 0.76179 0.87315 0.0
C414 C 0.70773 0.52886 0.10395 0.0
C415 C 0.66152 0.5008 0.11821 0.0
C416 C 0.66283 0.42961 0.09988 0.0
C417 C 0.70973 0.4576 0.08675 0.0
N418 N 0.77432 0.53389 0.07 0.0
N419 N 0.59125 0.42596 0.12315 0.0
C420 C 0.73112 0.50721 0.08635 0.0
C421 C 0.63781 0.45153 0.1139 0.0
N422 N 0.73035 0.5762 0.10953 0.0
N423 N 0.64272 0.38206 0.09961 0.0
H424 H 0.57237 0.44133 0.13345 0.0
H425 H 0.5703 0.39029 0.11803 0.0
H426 H 0.65882 0.36497 0.08712 0.0
H427 H 0.61094 0.35942 0.11273 0.0
H428 H 0.76611 0.59843 0.10501 0.0
H429 H 0.71378 0.59345 0.12078 0.0
H430 H 0.78888 0.56929 0.06416 0.0
H431 H 0.79505 0.52059 0.05999 0.0
C432 C 0.38018 0.88486 0.53228 0.0
C433 C 0.42746 0.9013 0.52186 0.0
C434 C 0.42469 0.83274 0.55209 0.0
C435 C 0.37541 0.81251 0.55576 0.0
N436 N 0.30566 0.81914 0.55253 0.0
N437 N 0.49717 0.89477 0.52482 0.0
C438 C 0.35315 0.83903 0.5477 0.0
C439 C 0.45075 0.8768 0.53354 0.0
N440 N 0.36124 0.91295 0.52658 0.0
N441 N 0.44611 0.80935 0.56615 0.0
H442 H 0.5175 0.92801 0.5131 0.0
H443 H 0.51536 0.87674 0.52813 0.0
H444 H 0.42735 0.77712 0.57991 0.0
H445 H 0.48235 0.82299 0.56698 0.0
H446 H 0.32805 0.90502 0.53595 0.0
H447 H 0.38065 0.94641 0.51506 0.0
H448 H 0.28598 0.83402 0.54306 0.0
H449 H 0.2853 0.78647 0.56513 0.0
C450 C 0.6386 0.45816 0.68768 0.0
C451 C 0.5902 0.43805 0.67844 0.0
C452 C 0.57622 0.36151 0.7004 0.0
C453 C 0.62571 0.38021 0.70401 0.0
N454 N 0.7045 0.44607 0.70143 0.0
N455 N 0.51221 0.37052 0.67506 0.0
C456 C 0.65708 0.42863 0.69803 0.0
C457 C 0.55866 0.38993 0.68544 0.0
N458 N 0.6665 0.5056 0.687 0.0
N459 N 0.54571 0.31615 0.71027 0.0
H460 H 0.49708 0.39002 0.66575 0.0
H461 H 0.48886 0.33472 0.67344 0.0
H462 H 0.55602 0.29193 0.71702 0.0
H463 H 0.50977 0.30281 0.7139 0.0
H464 H 0.70138 0.52337 0.6965 0.0
H465 H 0.65324 0.52745 0.67962 0.0
H466 H 0.72956 0.47968 0.69318 0.0
H467 H 0.71893 0.42599 0.71104 0.0
C468 C 0.21813 0.60963 0.86244 0.0
C469 C 0.19716 0.56958 0.8379 0.0
C470 C 0.26829 0.56367 0.84288 0.0
C471 C 0.28767 0.60062 0.87039 0.0
N472 N 0.27881 0.65539 0.91039 0.0
N473 N 0.19789 0.50223 0.81215 0.0
C474 C 0.26197 0.62275 0.88137 0.0
C475 C 0.22087 0.54454 0.83066 0.0
N476 N 0.19712 0.63605 0.86647 0.0
N477 N 0.29613 0.54863 0.82661 0.0
H478 H 0.16274 0.48681 0.80323 0.0
H479 H 0.21214 0.48047 0.80928 0.0
H480 H 0.33199 0.56416 0.8329 0.0
H481 H 0.28511 0.52489 0.80365 0.0
H482 H 0.21317 0.66843 0.88035 0.0
H483 H 0.16468 0.62693 0.85372 0.0
H484 H 0.25935 0.66904 0.9226 0.0
H485 H 0.31119 0.66657 0.92412 0.0
C486 C 0.70859 0.20056 -0.00231 0.0
C487 C 0.6605 0.17929 0.00761 0.0
C488 C 0.67898 0.24513 0.05111 0.0
C489 C 0.72536 0.26943 0.0361 0.0
N490 N 0.78066 0.27357 0.98866 0.0
N491 N 0.59837 0.18245 0.04146 0.0
C492 C 0.73933 0.24787 0.00784 0.0
C493 C 0.64522 0.2017 0.03397 0.0
N494 N 0.72452 0.1756 0.97781 0.0
N495 N 0.66755 0.26268 0.08234 0.0
H496 H 0.57307 0.14998 0.03042 0.0
H497 H 0.58446 0.19982 0.05672 0.0
H498 H 0.69137 0.29406 0.0959 0.0
H499 H 0.63576 0.24423 0.09682 0.0
H500 H 0.76005 0.18811 0.97257 0.0
H501 H 0.70256 0.1406 0.97013 0.0
H502 H 0.79075 0.26069 0.96537 0.0
H503 H 0.80194 0.30944 0.99295 0.0
C504 C 0.53509 0.69666 0.16551 0.0
C505 C 0.50506 0.6479 0.16973 0.0
C506 C 0.4486 0.66298 0.2036 0.0
C507 C 0.47568 0.71117 0.19366 0.0
N508 N 0.53793 0.76992 0.15475 0.0
N509 N 0.43021 0.58369 0.18863 0.0
C510 C 0.51699 0.72684 0.17156 0.0
C511 C 0.46073 0.63066 0.18749 0.0
N512 N 0.58108 0.71429 0.15565 0.0
N513 N 0.41317 0.64834 0.22981 0.0
H514 H 0.43912 0.55946 0.17841 0.0
H515 H 0.39542 0.56925 0.19743 0.0
H516 H 0.4046 0.67098 0.24371 0.0
H517 H 0.3953 0.61442 0.24049 0.0
H518 H 0.60528 0.75 0.15537 0.0
H519 H 0.59601 0.69325 0.15159 0.0
H520 H 0.56583 0.78111 0.13558 0.0
H521 H 0.52382 0.79199 0.15614 0.0
C522 C 0.86719 0.47903 0.37422 0.0
C523 C 0.88877 0.5217 0.35334 0.0
C524 C 0.81575 0.52395 0.35528 0.0
C525 C 0.79492 0.48342 0.37871 0.0
N526 N 0.80356 0.42668 0.41624 0.0
N527 N 0.8877 0.59053 0.33291 0.0
C528 C 0.82146 0.46216 0.39 0.0
C529 C 0.8644 0.54626 0.34734 0.0
N530 N 0.8894 0.45361 0.37741 0.0
N531 N 0.78826 0.53927 0.33831 0.0
H532 H 0.92362 0.60754 0.32688 0.0
H533 H 0.87262 0.61167 0.3308 0.0
H534 H 0.75176 0.5213 0.34088 0.0
H535 H 0.80086 0.56603 0.31802 0.0
H536 H 0.87318 0.41968 0.38807 0.0
H537 H 0.92341 0.46562 0.36739 0.0
H538 H 0.82322 0.41312 0.4286 0.0
H539 H 0.76997 0.413 0.42775 0.0
C540 C 0.18989 0.66983 0.41669 0.0
C541 C 0.14426 0.62996 0.41394 0.0
C542 C 0.1489 0.61988 0.48396 0.0
C543 C 0.19861 0.64823 0.4822 0.0
N544 N 0.26699 0.7016 0.44548 0.0
N545 N 0.07768 0.5683 0.44799 0.0
C546 C 0.21932 0.67392 0.44822 0.0
C547 C 0.12221 0.60597 0.44865 0.0
N548 N 0.20477 0.7038 0.38917 0.0
N549 N 0.12767 0.60488 0.51891 0.0
H550 H 0.05957 0.55174 0.42274 0.0
H551 H 0.06028 0.54978 0.47257 0.0
H552 H 0.14684 0.61167 0.54462 0.0
H553 H 0.0914 0.58836 0.52258 0.0
H554 H 0.23666 0.73512 0.39131 0.0
H555 H 0.18261 0.70257 0.36672 0.0
H556 H 0.28349 0.71727 0.41964 0.0
H557 H 0.29017 0.70575 0.46794 0.0
C558 C 0.625 0.19447 0.56197 0.0
C559 C 0.57925 0.15469 0.55864 0.0
C560 C 0.56679 0.16129 0.62774 0.0
C561 C 0.61067 0.20363 0.6298 0.0
N562 N 0.67363 0.26769 0.59522 0.0
N563 N 0.50249 0.10665 0.58662 0.0
C564 C 0.6376 0.2224 0.59587 0.0
C565 C 0.54897 0.13955 0.5911 0.0
N566 N 0.65651 0.20549 0.53268 0.0
N567 N 0.5424 0.1414 0.66079 0.0
H568 H 0.48731 0.09109 0.56011 0.0
H569 H 0.47785 0.09811 0.60842 0.0
H570 H 0.55422 0.15611 0.68821 0.0
H571 H 0.51294 0.10804 0.66145 0.0
H572 H 0.69093 0.23331 0.53405 0.0
H573 H 0.64987 0.18387 0.50863 0.0
H574 H 0.69128 0.28427 0.57004 0.0
H575 H 0.68265 0.29046 0.61872 0.0
C576 C 0.40827 0.50239 0.77322 0.0
C577 C 0.45075 0.53384 0.75476 0.0
C578 C 0.47755 0.58338 0.81248 0.0
C579 C 0.43156 0.55699 0.82817 0.0
N580 N 0.35238 0.49054 0.82325 0.0
N581 N 0.52651 0.60402 0.75569 0.0
C582 C 0.39693 0.51555 0.809 0.0
C583 C 0.48596 0.5738 0.77437 0.0
N584 N 0.37868 0.46023 0.75614 0.0
N585 N 0.51342 0.61748 0.83413 0.0
H586 H 0.53503 0.59699 0.72844 0.0
H587 H 0.55057 0.63719 0.76615 0.0
H588 H 0.50891 0.62687 0.86178 0.0
H589 H 0.5486 0.63387 0.8261 0.0
H590 H 0.34928 0.43356 0.76963 0.0
H591 H 0.38606 0.4503 0.72962 0.0
H592 H 0.32428 0.46396 0.80788 0.0
H593 H 0.34208 0.49789 0.84944 0.0
C594 C 0.94339 0.49742 0.93741 0.0
C595 C 0.95664 0.46902 0.91676 0.0
C596 C 0.92125 0.40826 0.96595 0.0
C597 C 0.90779 0.43666 0.98715 0.0
N598 N 0.92031 0.51425 -0.0011 0.0
N599 N 0.97127 0.40476 0.91648 0.0
C600 C 0.92326 0.48317 0.97468 0.0
C601 C 0.95028 0.4271 0.93307 0.0
N602 N 0.9486 0.53718 0.92083 0.0
N603 N 0.9038 0.36233 0.9751 0.0
H604 H 0.99224 0.41749 0.89198 0.0
H605 H 0.97192 0.37654 0.9292 0.0
H606 H 0.88179 0.34582 -0.00174 0.0
H607 H 0.90775 0.33901 0.95745 0.0
H608 H 0.9342 0.55632 0.9323 0.0
H609 H 0.96533 0.54956 0.89437 0.0
H610 H 0.9349 0.54958 0.99261 0.0
H611 H 0.90789 0.50598 0.02708 0.0
C612 C 0.46962 0.8833 0.07409 0.0
C613 C 0.50987 0.92829 0.06896 0.0
C614 C 0.51812 0.93433 0.1395 0.0
C615 C 0.48723 0.88564 0.14327 0.0
N616 N 0.43996 0.81166 0.10972 0.0
N617 N 0.57845 0.99315 0.09969 0.0
C618 C 0.46448 0.85934 0.10933 0.0
C619 C 0.53603 0.9531 0.10248 0.0
N620 N 0.43574 0.86373 0.04586 0.0
N621 N 0.52681 0.96324 0.17027 0.0
H622 H 0.59524 1.00623 0.07344 0.0
H623 H 0.59908 1.01008 0.12407 0.0
H624 H 0.50595 0.95109 0.19482 0.0
H625 H 0.54767 0.99947 0.16834 0.0
H626 H 0.40451 0.83221 0.04973 0.0
H627 H 0.43642 0.88173 0.02084 0.0
H628 H 0.42601 0.79181 0.08453 0.0
H629 H 0.43843 0.79207 0.13384 0.0
C630 C 0.59926 0.49802 0.26894 0.0
C631 C 0.63499 0.53868 0.25106 0.0
C632 C 0.68315 0.56011 0.31045 0.0
C633 C 0.64807 0.51802 0.32794 0.0
N634 N 0.5668 0.45617 0.32835 0.0
N635 N 0.70455 0.61423 0.2566 0.0
C636 C 0.60418 0.49002 0.30855 0.0
C637 C 0.67479 0.57176 0.27257 0.0
N638 N 0.56138 0.466 0.24761 0.0
N639 N 0.72542 0.58762 0.32869 0.0
H640 H 0.69979 0.6231 0.2286 0.0
H641 H 0.73144 0.64201 0.27197 0.0
H642 H 0.73314 0.58221 0.35679 0.0
H643 H 0.75438 0.6148 0.31519 0.0
H644 H 0.53752 0.43274 0.25754 0.0
H645 H 0.55522 0.47149 0.21892 0.0
H646 H 0.53267 0.43803 0.31709 0.0
H647 H 0.56885 0.44936 0.35749 0.0
C648 C 0.45725 0.94182 0.34965 0.0
C649 C 0.46965 0.92717 0.38434 0.0
C650 C 0.4579 0.85668 0.35103 0.0
C651 C 0.45119 0.87397 0.3154 0.0
N652 N 0.45338 0.93752 0.27953 0.0
N653 N 0.49465 0.87713 0.41439 0.0
C654 C 0.45386 0.91811 0.3143 0.0
C655 C 0.47437 0.88676 0.38369 0.0
N656 N 0.44527 0.97583 0.3506 0.0
N657 N 0.44637 0.81101 0.35448 0.0
H658 H 0.51083 0.90048 0.43736 0.0
H659 H 0.49991 0.84861 0.41507 0.0
H660 H 0.43213 0.78683 0.33189 0.0
H661 H 0.44639 0.79588 0.38093 0.0
H662 H 0.43143 0.98426 0.3267 0.0
H663 H 0.44438 0.99231 0.37601 0.0
H664 H 0.46002 0.97167 0.27691 0.0
H665 H 0.45114 0.92118 0.25311 0.0
C666 C 0.54692 0.40452 0.54217 0.0
C667 C 0.54162 0.44413 0.547 0.0
C668 C 0.55811 0.45975 0.47775 0.0
C669 C 0.57971 0.43178 0.47826 0.0
N670 N 0.59268 0.37507 0.51206 0.0
N671 N 0.5356 0.50679 0.51598 0.0
C672 C 0.57307 0.40296 0.51064 0.0
C673 C 0.54394 0.47039 0.51357 0.0
N674 N 0.52767 0.36908 0.56837 0.0
N675 N 0.55252 0.47704 0.44354 0.0
H676 H 0.53015 0.51927 0.54181 0.0
H677 H 0.53779 0.52748 0.49254 0.0
H678 H 0.56512 0.4718 0.41761 0.0
H679 H 0.53292 0.49371 0.44052 0.0
H680 H 0.52791 0.3379 0.56492 0.0
H681 H 0.50707 0.36933 0.59111 0.0
H682 H 0.59247 0.35711 0.53692 0.0
H683 H 0.61236 0.37287 0.48962 0.0
C684 C 0.14291 0.59861 0.68787 0.0
C685 C 0.13196 0.55664 0.70683 0.0
C686 C 0.16608 0.53448 0.65377 0.0
C687 C 0.17811 0.57724 0.63476 0.0
N688 N 0.16416 0.64228 0.62831 0.0
N689 N 0.12025 0.47899 0.70377 0.0
C690 C 0.16204 0.60682 0.6501 0.0
C691 C 0.13899 0.52258 0.68815 0.0
N692 N 0.13699 0.63162 0.70671 0.0
N693 N 0.18315 0.50675 0.64105 0.0
H694 H 0.10083 0.46966 0.72922 0.0
H695 H 0.11988 0.45097 0.68967 0.0
H696 H 0.20315 0.51321 0.61629 0.0
H697 H 0.18066 0.47882 0.65684 0.0
H698 H 0.15028 0.66557 0.69667 0.0
H699 H 0.12095 0.62576 0.73366 0.0
H700 H 0.14849 0.66163 0.63636 0.0
H701 H 0.17752 0.64961 0.60042 0.0
C702 C 0.62599 0.11731 0.84937 0.0
C703 C 0.60154 0.13076 0.87523 0.0
C704 C 0.61778 0.19604 0.83313 0.0
C705 C 0.63535 0.1787 0.80365 0.0
N706 N 0.64693 0.11405 0.78359 0.0
N707 N 0.5631 0.17542 0.88575 0.0
C708 C 0.63649 0.13661 0.81146 0.0
C709 C 0.59296 0.16701 0.86456 0.0
N710 N 0.64225 0.08854 0.86143 0.0
N711 N 0.62902 0.24179 0.83394 0.0
H712 H 0.54442 0.15452 0.90911 0.0
H713 H 0.55359 0.19991 0.87743 0.0
H714 H 0.65455 0.26719 0.81628 0.0
H715 H 0.61899 0.2559 0.85641 0.0
H716 H 0.66534 0.08262 0.84515 0.0
H717 H 0.63664 0.0741 0.88899 0.0
H718 H 0.64166 0.08052 0.78756 0.0
H719 H 0.65733 0.12592 0.75578 0.0
C720 C 0.53327 0.59654 0.00893 0.0
C721 C 0.54293 0.62669 0.04121 0.0
C722 C 0.51256 0.67001 0.00657 0.0
C723 C 0.49842 0.63764 0.97549 0.0
N724 N 0.51435 0.58422 0.94019 0.0
N725 N 0.56758 0.70559 0.05989 0.0
C726 C 0.51565 0.60586 0.97413 0.0
C727 C 0.54187 0.66845 0.03584 0.0
N728 N 0.53847 0.55823 0.01173 0.0
N729 N 0.49703 0.70123 0.00902 0.0
H730 H 0.59063 0.70479 0.08049 0.0
H731 H 0.57004 0.73801 0.05619 0.0
H732 H 0.47433 0.7028 0.98866 0.0
H733 H 0.50334 0.72254 0.0332 0.0
H734 H 0.5303 0.53423 0.98934 0.0
H735 H 0.54871 0.5487 0.03705 0.0
H736 H 0.53107 0.56484 0.93632 0.0
H737 H 0.49788 0.58735 0.91545 0.0
C738 C 0.94921 0.52864 0.18912 0.0
C739 C 0.93232 0.50147 0.22322 0.0
C740 C 0.86448 0.44169 0.1873 0.0
C741 C 0.88408 0.46578 0.15229 0.0
N742 N 0.94954 0.52847 0.11902 0.0
N743 N 0.8812 0.42655 0.25216 0.0
C744 C 0.92793 0.50814 0.15291 0.0
C745 C 0.89257 0.45588 0.22122 0.0
N746 N 0.98322 0.57467 0.19133 0.0
N747 N 0.81832 0.40726 0.189 0.0
H748 H 0.90286 0.43487 0.27667 0.0
H749 H 0.85309 0.39239 0.25187 0.0
H750 H 0.79491 0.39775 0.16568 0.0
H751 H 0.80173 0.39185 0.21485 0.0
H752 H 0.99295 0.59709 0.16772 0.0
H753 H 0.99878 0.5917 0.21729 0.0
H754 H 0.9837 0.5568 0.11787 0.0
H755 H 0.93525 0.51398 0.09201 0.0
loop_
_geom_bond_atom_site_label_1
_geom_bond_atom_site_label_2
_geom_bond_distance
_geom_bond_site_symmetry_2
_ccdc_geom_bond_type
H0 C6 0.930 . S
H1 C9 0.931 . S
H2 C11 0.931 . S
H3 C13 0.930 . S
H4 C15 0.930 . S
H5 C17 0.931 . S
C6 H0 0.930 . S
C6 C7 1.380 . S
C6 C8 1.394 . S
C7 C6 1.380 . S
C7 C11 1.382 . S
C8 C6 1.394 . S
C8 C9 1.400 . S
C9 H1 0.931 . S
C9 C8 1.400 . S
C9 C10 1.375 . S
C10 C9 1.375 . S
C10 C11 1.415 . S
C10 C12 1.501 1_455 S
C11 H2 0.931 . S
C11 C7 1.382 . S
C11 C10 1.415 . S
C12 C10 1.501 1_655 S
C12 C13 1.384 . S
C12 C17 1.408 . S
C13 H3 0.930 . S
C13 C12 1.384 . S
C13 C14 1.389 . S
C14 C13 1.389 . S
C14 C15 1.405 . S
C15 H4 0.930 . S
C15 C14 1.405 . S
C15 C16 1.364 . S
C16 C15 1.364 . S
C16 C17 1.400 . S
C17 H5 0.931 . S
C17 C12 1.408 . S
C17 C16 1.400 . S
H18 C24 0.930 . S
H19 C27 0.931 . S
H20 C29 0.931 . S
H21 C31 0.930 . S
H22 C33 0.930 . S
H23 C35 0.931 . S
C24 H18 0.930 . S
C24 C25 1.380 . S
C24 C26 1.394 . S
C25 C24 1.380 . S
C25 C29 1.382 . S
C26 C24 1.394 . S
C26 C27 1.400 . S
C27 H19 0.931 . S
C27 C26 1.400 . S
C27 C28 1.375 . S
C28 C27 1.375 . S
C28 C29 1.415 . S
C28 C30 1.501 1_545 S
C29 H20 0.931 . S
C29 C25 1.382 . S
C29 C28 1.415 . S
C30 C28 1.501 1_565 S
C30 C31 1.384 . S
C30 C35 1.408 . S
C31 H21 0.930 . S
C31 C30 1.384 . S
C31 C32 1.389 . S
C32 C31 1.389 . S
C32 C33 1.405 . S
C33 H22 0.930 . S
C33 C32 1.405 . S
C33 C34 1.364 . S
C34 C33 1.364 . S
C34 C35 1.400 . S
C35 H23 0.931 . S
C35 C30 1.408 . S
C35 C34 1.400 . S
H36 C42 0.930 . S
H37 C45 0.931 . S
H38 C47 0.931 . S
H39 C49 0.930 . S
H40 C51 0.930 . S
H41 C53 0.931 . S
C42 H36 0.930 . S
C42 C43 1.380 . S
C42 C44 1.394 . S
C43 C42 1.380 . S
C43 C47 1.382 . S
C44 C42 1.394 . S
C44 C45 1.400 . S
C45 H37 0.931 . S
C45 C44 1.400 . S
C45 C46 1.375 . S
C46 C45 1.375 . S
C46 C47 1.415 . S
C46 C48 1.501 . S
C47 H38 0.931 . S
C47 C43 1.382 . S
C47 C46 1.415 . S
C48 C46 1.501 . S
C48 C49 1.384 . S
C48 C53 1.408 . S
C49 H39 0.930 . S
C49 C48 1.384 . S
C49 C50 1.389 . S
C50 C49 1.389 . S
C50 C51 1.405 . S
C51 H40 0.930 . S
C51 C50 1.405 . S
C51 C52 1.364 . S
C52 C51 1.364 . S
C52 C53 1.400 . S
C53 H41 0.931 . S
C53 C48 1.408 . S
C53 C52 1.400 . S
H54 C60 0.930 . S
H55 C63 0.931 . S
H56 C65 0.931 . S
H57 C67 0.930 . S
H58 C69 0.930 . S
H59 C71 0.931 . S
C60 H54 0.930 . S
C60 C61 1.380 . S
C60 C62 1.394 . S
C61 C60 1.380 . S
C61 C65 1.382 . S
C62 C60 1.394 . S
C62 C63 1.400 . S
C63 H55 0.931 . S
C63 C62 1.400 . S
C63 C64 1.375 . S
C64 C63 1.375 . S
C64 C65 1.415 . S
C64 C66 1.501 1_455 S
C65 H56 0.931 . S
C65 C61 1.382 . S
C65 C64 1.415 . S
C66 C64 1.501 1_655 S
C66 C67 1.384 . S
C66 C71 1.408 . S
C67 H57 0.930 . S
C67 C66 1.384 . S
C67 C68 1.389 . S
C68 C67 1.389 . S
C68 C69 1.405 . S
C69 H58 0.930 . S
C69 C68 1.405 . S
C69 C70 1.364 . S
C70 C69 1.364 . S
C70 C71 1.400 . S
C71 H59 0.931 . S
C71 C66 1.408 . S
C71 C70 1.400 . S
H72 C78 0.930 . S
H73 C81 0.931 . S
H74 C83 0.931 1_545 S
H75 C85 0.930 . S
H76 C87 0.930 . S
H77 C89 0.931 . S
C78 H72 0.930 . S
C78 C79 1.380 . S
C78 C80 1.394 1_554 S
C79 C78 1.380 . S
C79 C83 1.382 . S
C80 C78 1.394 1_556 S
C80 C81 1.400 . S
C81 H73 0.931 . S
C81 C80 1.400 . S
C81 C82 1.375 . S
C82 C81 1.375 . S
C82 C83 1.415 1_556 S
C82 C84 1.501 1_565 S
C83 H74 0.931 1_565 S
C83 C79 1.382 . S
C83 C82 1.415 1_554 S
C84 C82 1.501 1_545 S
C84 C85 1.384 1_556 S
C84 C89 1.408 . S
C85 H75 0.930 . S
C85 C84 1.384 1_554 S
C85 C86 1.389 . S
C86 C85 1.389 . S
C86 C87 1.405 1_554 S
C87 H76 0.930 . S
C87 C86 1.405 1_556 S
C87 C88 1.364 . S
C88 C87 1.364 . S
C88 C89 1.400 . S
C89 H77 0.931 . S
C89 C84 1.408 . S
C89 C88 1.400 . S
H90 C96 0.930 . S
H91 C99 0.931 . S
H92 C101 0.931 . S
H93 C103 0.930 . S
H94 C105 0.930 . S
H95 C107 0.931 . S
C96 H90 0.930 . S
C96 C97 1.380 . S
C96 C98 1.394 . S
C97 C96 1.380 . S
C97 C101 1.382 . S
C98 C96 1.394 . S
C98 C99 1.400 . S
C99 H91 0.931 . S
C99 C98 1.400 . S
C99 C100 1.375 . S
C100 C99 1.375 . S
C100 C101 1.415 . S
C100 C102 1.501 . S
C101 H92 0.931 . S
C101 C97 1.382 . S
C101 C100 1.415 . S
C102 C100 1.501 . S
C102 C103 1.384 . S
C102 C107 1.408 . S
C103 H93 0.930 . S
C103 C102 1.384 . S
C103 C104 1.389 . S
C104 C103 1.389 . S
C104 C105 1.405 . S
C105 H94 0.930 . S
C105 C104 1.405 . S
C105 C106 1.364 . S
C106 C105 1.364 . S
C106 C107 1.400 . S
C107 H95 0.931 . S
C107 C102 1.408 . S
C107 C106 1.400 . S
Mn108 O113 2.095 . S
Mn108 O123 2.162 . S
Mn108 O124 2.297 . S
Mn108 O132 2.385 . S
Mn108 O133 2.209 . S
Mn108 O134 2.094 . S
Mn109 O114 2.121 . S
Mn109 N116 2.257 . S
Mn109 N125 2.282 . S
Mn109 O133 2.215 . S
Mn109 O135 2.117 . S
C110 O132 1.234 . S
C110 O133 1.283 . S
C111 O123 1.281 . S
C111 O124 1.236 . S
C112 O134 1.240 . S
C112 O135 1.264 . S
O113 Mn108 2.095 . S
O113 C122 1.250 . S
O114 Mn109 2.121 . S
O114 C122 1.258 . S
C115 N116 1.326 . S
C115 C119 1.460 . S
C115 H121 0.929 . S
N116 Mn109 2.257 . S
N116 C115 1.326 . S
N116 C120 1.362 . S
C117 C118 1.258 . S
C117 C120 1.431 . S
C117 C137 1.449 . S
C118 C117 1.258 . S
C118 C119 1.477 . S
C118 H138 0.931 . S
C119 C115 1.460 . S
C119 C118 1.477 . S
C119 H139 0.930 . S
C120 N116 1.362 . S
C120 C117 1.431 . S
C120 C130 1.476 . S
H121 C115 0.929 . S
C122 O113 1.250 . S
C122 O114 1.258 . S
O123 Mn108 2.162 . S
O123 C111 1.281 . S
O124 Mn108 2.297 . S
O124 C111 1.236 . S
N125 Mn109 2.282 . S
N125 C126 1.328 . S
N125 C130 1.318 . S
C126 N125 1.328 . S
C126 C127 1.457 . S
C126 H131 0.929 . S
C127 C126 1.457 . S
C127 C128 1.291 . S
C127 H140 0.931 . S
C128 C127 1.291 . S
C128 C129 1.373 . S
C128 H141 0.929 . S
C129 C128 1.373 . S
C129 C130 1.396 . S
C129 C136 1.403 . S
C130 C120 1.476 . S
C130 N125 1.318 . S
C130 C129 1.396 . S
H131 C126 0.929 . S
O132 Mn108 2.385 . S
O132 C110 1.234 . S
O133 Mn108 2.209 . S
O133 Mn109 2.215 . S
O133 C110 1.283 . S
O134 Mn108 2.094 . S
O134 C112 1.240 . S
O135 Mn109 2.117 . S
O135 C112 1.264 . S
C136 C129 1.403 . S
C136 C137 1.399 . S
C136 H142 0.929 . S
C137 C117 1.449 . S
C137 C136 1.399 . S
C137 H143 0.930 . S
H138 C118 0.931 . S
H139 C119 0.930 . S
H140 C127 0.931 . S
H141 C128 0.929 . S
H142 C136 0.929 . S
H143 C137 0.930 . S
Mn144 O149 2.095 . S
Mn144 O159 2.162 . S
Mn144 O160 2.297 . S
Mn144 O168 2.385 . S
Mn144 O169 2.209 . S
Mn144 O170 2.094 . S
Mn145 O150 2.121 . S
Mn145 N152 2.257 . S
Mn145 N161 2.282 . S
Mn145 O169 2.215 . S
Mn145 O171 2.117 . S
C146 O168 1.234 . S
C146 O169 1.283 . S
C147 O159 1.281 . S
C147 O160 1.236 . S
C148 O170 1.240 . S
C148 O171 1.264 . S
O149 Mn144 2.095 . S
O149 C158 1.250 . S
O150 Mn145 2.121 . S
O150 C158 1.258 . S
C151 N152 1.326 . S
C151 C155 1.460 . S
C151 H157 0.929 . S
N152 Mn145 2.257 . S
N152 C151 1.326 . S
N152 C156 1.362 . S
C153 C154 1.258 . S
C153 C156 1.431 . S
C153 C173 1.449 . S
C154 C153 1.258 . S
C154 C155 1.477 . S
C154 H174 0.931 . S
C155 C151 1.460 . S
C155 C154 1.477 . S
C155 H175 0.930 . S
C156 N152 1.362 . S
C156 C153 1.431 . S
C156 C166 1.476 . S
H157 C151 0.929 . S
C158 O149 1.250 . S
C158 O150 1.258 . S
O159 Mn144 2.162 . S
O159 C147 1.281 . S
O160 Mn144 2.297 . S
O160 C147 1.236 . S
N161 Mn145 2.282 . S
N161 C162 1.328 . S
N161 C166 1.318 . S
C162 N161 1.328 . S
C162 C163 1.457 . S
C162 H167 0.929 . S
C163 C162 1.457 . S
C163 C164 1.291 . S
C163 H176 0.931 . S
C164 C163 1.291 . S
C164 C165 1.373 . S
C164 H177 0.929 . S
C165 C164 1.373 . S
C165 C166 1.396 . S
C165 C172 1.403 . S
C166 C156 1.476 . S
C166 N161 1.318 . S
C166 C165 1.396 . S
H167 C162 0.929 . S
O168 Mn144 2.385 . S
O168 C146 1.234 . S
O169 Mn144 2.209 . S
O169 Mn145 2.215 . S
O169 C146 1.283 . S
O170 Mn144 2.094 . S
O170 C148 1.240 . S
O171 Mn145 2.117 . S
O171 C148 1.264 . S
C172 C165 1.403 . S
C172 C173 1.399 . S
C172 H178 0.929 . S
C173 C153 1.449 . S
C173 C172 1.399 . S
C173 H179 0.930 . S
H174 C154 0.931 . S
H175 C155 0.930 . S
H176 C163 0.931 . S
H177 C164 0.929 . S
H178 C172 0.929 . S
H179 C173 0.930 . S
Mn180 O185 2.095 . S
Mn180 O195 2.162 . S
Mn180 O196 2.297 . S
Mn180 O204 2.385 . S
Mn180 O205 2.209 . S
Mn180 O206 2.094 . S
Mn181 O186 2.121 . S
Mn181 N188 2.257 . S
Mn181 N197 2.282 . S
Mn181 O205 2.215 . S
Mn181 O207 2.117 . S
C182 O204 1.234 . S
C182 O205 1.283 . S
C183 O195 1.281 . S
C183 O196 1.236 . S
C184 O206 1.240 . S
C184 O207 1.264 . S
O185 Mn180 2.095 . S
O185 C194 1.250 . S
O186 Mn181 2.121 . S
O186 C194 1.258 . S
C187 N188 1.326 . S
C187 C191 1.460 . S
C187 H193 0.929 . S
N188 Mn181 2.257 . S
N188 C187 1.326 . S
N188 C192 1.362 . S
C189 C190 1.258 . S
C189 C192 1.431 . S
C189 C209 1.449 . S
C190 C189 1.258 . S
C190 C191 1.477 . S
C190 H210 0.931 . S
C191 C187 1.460 . S
C191 C190 1.477 . S
C191 H211 0.930 . S
C192 N188 1.362 . S
C192 C189 1.431 . S
C192 C202 1.476 . S
H193 C187 0.929 . S
C194 O185 1.250 . S
C194 O186 1.258 . S
O195 Mn180 2.162 . S
O195 C183 1.281 . S
O196 Mn180 2.297 . S
O196 C183 1.236 . S
N197 Mn181 2.282 . S
N197 C198 1.328 . S
N197 C202 1.318 . S
C198 N197 1.328 . S
C198 C199 1.457 . S
C198 H203 0.929 . S
C199 C198 1.457 . S
C199 C200 1.291 . S
C199 H212 0.931 . S
C200 C199 1.291 . S
C200 C201 1.373 . S
C200 H213 0.929 . S
C201 C200 1.373 . S
C201 C202 1.396 . S
C201 C208 1.403 . S
C202 C192 1.476 . S
C202 N197 1.318 . S
C202 C201 1.396 . S
H203 C198 0.929 . S
O204 Mn180 2.385 . S
O204 C182 1.234 . S
O205 Mn180 2.209 . S
O205 Mn181 2.215 . S
O205 C182 1.283 . S
O206 Mn180 2.094 . S
O206 C184 1.240 . S
O207 Mn181 2.117 . S
O207 C184 1.264 . S
C208 C201 1.403 . S
C208 C209 1.399 . S
C208 H214 0.929 . S
C209 C189 1.449 . S
C209 C208 1.399 . S
C209 H215 0.930 . S
H210 C190 0.931 . S
H211 C191 0.930 . S
H212 C199 0.931 . S
H213 C200 0.929 . S
H214 C208 0.929 . S
H215 C209 0.930 . S
Mn216 O221 2.095 . S
Mn216 O231 2.162 . S
Mn216 O232 2.297 . S
Mn216 O240 2.385 . S
Mn216 O241 2.209 . S
Mn216 O242 2.094 . S
Mn217 O222 2.121 . S
Mn217 N224 2.257 . S
Mn217 N233 2.282 . S
Mn217 O241 2.215 . S
Mn217 O243 2.117 . S
C218 O240 1.234 . S
C218 O241 1.283 . S
C219 O231 1.281 . S
C219 O232 1.236 . S
C220 O242 1.240 . S
C220 O243 1.264 . S
O221 Mn216 2.095 . S
O221 C230 1.250 . S
O222 Mn217 2.121 . S
O222 C230 1.258 . S
C223 N224 1.326 . S
C223 C227 1.438 1_556 S
C223 H229 0.929 . S
N224 Mn217 2.257 . S
N224 C223 1.326 . S
N224 C228 1.362 . S
C225 C226 1.258 . S
C225 C228 1.431 1_554 S
C225 C245 1.449 . S
C226 C225 1.258 . S
C226 C227 1.489 . S
C226 H246 0.931 . S
C227 C223 1.438 1_554 S
C227 C226 1.489 . S
C227 H247 0.941 . S
C228 N224 1.362 . S
C228 C225 1.431 1_556 S
C228 C238 1.476 . S
H229 C223 0.929 . S
C230 O221 1.250 . S
C230 O222 1.258 . S
O231 Mn216 2.162 . S
O231 C219 1.281 . S
O232 Mn216 2.297 . S
O232 C219 1.236 . S
N233 Mn217 2.282 . S
N233 C234 1.328 . S
N233 C238 1.318 . S
C234 N233 1.328 . S
C234 C235 1.457 . S
C234 H239 0.929 . S
C235 C234 1.457 . S
C235 C236 1.291 . S
C235 H248 0.931 . S
C236 C235 1.291 . S
C236 C237 1.373 . S
C236 H249 0.929 . S
C237 C236 1.373 . S
C237 C238 1.396 . S
C237 C244 1.403 1_556 S
C238 C228 1.476 . S
C238 N233 1.318 . S
C238 C237 1.396 . S
H239 C234 0.929 . S
O240 Mn216 2.385 . S
O240 C218 1.234 . S
O241 Mn216 2.209 . S
O241 Mn217 2.215 . S
O241 C218 1.283 . S
O242 Mn216 2.094 . S
O242 C220 1.240 . S
O243 Mn217 2.117 . S
O243 C220 1.264 . S
C244 C237 1.403 1_554 S
C244 C245 1.399 . S
C244 H250 0.929 . S
C245 C225 1.449 . S
C245 C244 1.399 . S
C245 H251 0.930 . S
H246 C226 0.931 . S
H247 C227 0.941 . S
H248 C235 0.931 . S
H249 C236 0.929 . S
H250 C244 0.929 . S
H251 C245 0.930 . S
Mn252 O257 2.095 . S
Mn252 O267 2.162 . S
Mn252 O268 2.297 . S
Mn252 O276 2.385 . S
Mn252 O277 2.209 . S
Mn252 O278 2.094 . S
Mn253 O258 2.121 . S
Mn253 N260 2.257 . S
Mn253 N269 2.282 . S
Mn253 O277 2.215 . S
Mn253 O279 2.117 . S
C254 O276 1.234 . S
C254 O277 1.283 . S
C255 O267 1.281 . S
C255 O268 1.236 . S
C256 O278 1.240 . S
C256 O279 1.264 . S
O257 Mn252 2.095 . S
O257 C266 1.250 . S
O258 Mn253 2.121 . S
O258 C266 1.258 . S
C259 N260 1.326 . S
C259 C263 1.460 . S
C259 H265 0.929 . S
N260 Mn253 2.257 . S
N260 C259 1.326 . S
N260 C264 1.362 . S
C261 C262 1.258 . S
C261 C264 1.431 . S
C261 C281 1.449 . S
C262 C261 1.258 . S
C262 C263 1.477 . S
C262 H282 0.931 . S
C263 C259 1.460 . S
C263 C262 1.477 . S
C263 H283 0.930 . S
C264 N260 1.362 . S
C264 C261 1.431 . S
C264 C274 1.476 . S
H265 C259 0.929 . S
C266 O257 1.250 . S
C266 O258 1.258 . S
O267 Mn252 2.162 . S
O267 C255 1.281 . S
O268 Mn252 2.297 . S
O268 C255 1.236 . S
N269 Mn253 2.282 . S
N269 C270 1.328 . S
N269 C274 1.318 . S
C270 N269 1.328 . S
C270 C271 1.457 . S
C270 H275 0.929 . S
C271 C270 1.457 . S
C271 C272 1.291 . S
C271 H284 0.931 . S
C272 C271 1.291 . S
C272 C273 1.373 . S
C272 H285 0.929 . S
C273 C272 1.373 . S
C273 C274 1.396 . S
C273 C280 1.403 . S
C274 C264 1.476 . S
C274 N269 1.318 . S
C274 C273 1.396 . S
H275 C270 0.929 . S
O276 Mn252 2.385 . S
O276 C254 1.234 . S
O277 Mn252 2.209 . S
O277 Mn253 2.215 . S
O277 C254 1.283 . S
O278 Mn252 2.094 . S
O278 C256 1.240 . S
O279 Mn253 2.117 . S
O279 C256 1.264 . S
C280 C273 1.403 . S
C280 C281 1.399 . S
C280 H286 0.929 . S
C281 C261 1.449 . S
C281 C280 1.399 . S
C281 H287 0.930 . S
H282 C262 0.931 . S
H283 C263 0.930 . S
H284 C271 0.931 . S
H285 C272 0.929 . S
H286 C280 0.929 . S
H287 C281 0.930 . S
Mn288 O293 2.095 . S
Mn288 O303 2.162 . S
Mn288 O304 2.297 . S
Mn288 O312 2.385 . S
Mn288 O313 2.209 . S
Mn288 O314 2.094 . S
Mn289 O294 2.121 . S
Mn289 N296 2.257 . S
Mn289 N305 2.282 . S
Mn289 O313 2.215 . S
Mn289 O315 2.117 . S
C290 O312 1.234 . S
C290 O313 1.283 . S
C291 O303 1.281 . S
C291 O304 1.236 . S
C292 O314 1.240 . S
C292 O315 1.264 . S
O293 Mn288 2.095 . S
O293 C302 1.250 . S
O294 Mn289 2.121 . S
O294 C302 1.258 . S
C295 N296 1.326 . S
C295 C299 1.460 . S
C295 H301 0.929 . S
N296 Mn289 2.257 . S
N296 C295 1.326 . S
N296 C300 1.362 . S
C297 C298 1.258 . S
C297 C300 1.431 . S
C297 C317 1.449 . S
C298 C297 1.258 . S
C298 C299 1.477 . S
C298 H318 0.931 . S
C299 C295 1.460 . S
C299 C298 1.477 . S
C299 H319 0.930 . S
C300 N296 1.362 . S
C300 C297 1.431 . S
C300 C310 1.476 . S
H301 C295 0.929 . S
C302 O293 1.250 . S
C302 O294 1.258 . S
O303 Mn288 2.162 . S
O303 C291 1.281 . S
O304 Mn288 2.297 . S
O304 C291 1.236 . S
N305 Mn289 2.282 . S
N305 C306 1.328 . S
N305 C310 1.318 . S
C306 N305 1.328 . S
C306 C307 1.457 . S
C306 H311 0.929 . S
C307 C306 1.457 . S
C307 C308 1.291 . S
C307 H320 0.931 . S
C308 C307 1.291 . S
C308 C309 1.373 . S
C308 H321 0.929 . S
C309 C308 1.373 . S
C309 C310 1.396 . S
C309 C316 1.403 . S
C310 C300 1.476 . S
C310 N305 1.318 . S
C310 C309 1.396 . S
H311 C306 0.929 . S
O312 Mn288 2.385 . S
O312 C290 1.234 . S
O313 Mn288 2.209 . S
O313 Mn289 2.215 . S
O313 C290 1.283 . S
O314 Mn288 2.094 . S
O314 C292 1.240 . S
O315 Mn289 2.117 . S
O315 C292 1.264 . S
C316 C309 1.403 . S
C316 C317 1.399 . S
C316 H322 0.929 . S
C317 C297 1.449 . S
C317 C316 1.399 . S
C317 H323 0.930 . S
H318 C298 0.931 . S
H319 C299 0.930 . S
H320 C307 0.931 . S
H321 C308 0.929 . S
H322 C316 0.929 . S
H323 C317 0.930 . S
C324 C325 1.363 . S
C324 C330 1.379 . S
C324 N332 1.356 . S
C325 C324 1.363 . S
C325 C331 1.363 . S
C326 C327 1.363 . S
C326 C331 1.379 . S
C326 N333 1.356 . S
C327 C326 1.363 . S
C327 C330 1.363 . S
N328 C330 1.356 . S
N328 H340 0.984 . S
N328 H341 0.985 . S
N329 C331 1.356 . S
N329 H334 0.984 . S
N329 H335 0.985 . S
C330 C324 1.379 . S
C330 C327 1.363 . S
C330 N328 1.356 . S
C331 C325 1.363 . S
C331 C326 1.379 . S
C331 N329 1.356 . S
N332 C324 1.356 . S
N332 H338 0.984 . S
N332 H339 0.984 . S
N333 C326 1.356 . S
N333 H336 0.984 . S
N333 H337 0.985 . S
H334 N329 0.984 . S
H335 N329 0.985 . S
H336 N333 0.984 . S
H337 N333 0.985 . S
H338 N332 0.984 . S
H339 N332 0.984 . S
H340 N328 0.984 . S
H341 N328 0.985 . S
C342 C343 1.363 . S
C342 C348 1.379 . S
C342 N350 1.356 . S
C343 C342 1.363 . S
C343 C349 1.363 . S
C344 C345 1.363 . S
C344 C349 1.379 . S
C344 N351 1.356 . S
C345 C344 1.363 . S
C345 C348 1.363 . S
N346 C348 1.356 . S
N346 H358 0.984 . S
N346 H359 0.985 . S
N347 C349 1.356 . S
N347 H352 0.984 . S
N347 H353 0.985 . S
C348 C342 1.379 . S
C348 C345 1.363 . S
C348 N346 1.356 . S
C349 C343 1.363 . S
C349 C344 1.379 . S
C349 N347 1.356 . S
N350 C342 1.356 . S
N350 H356 0.984 . S
N350 H357 0.984 . S
N351 C344 1.356 . S
N351 H354 0.984 . S
N351 H355 0.985 . S
H352 N347 0.984 . S
H353 N347 0.985 . S
H354 N351 0.984 . S
H355 N351 0.985 . S
H356 N350 0.984 . S
H357 N350 0.984 . S
H358 N346 0.984 . S
H359 N346 0.985 . S
C360 C361 1.363 . S
C360 C366 1.379 . S
C360 N368 1.356 . S
C361 C360 1.363 . S
C361 C367 1.363 . S
C362 C363 1.363 . S
C362 C367 1.379 . S
C362 N369 1.356 . S
C363 C362 1.363 . S
C363 C366 1.363 . S
N364 C366 1.356 . S
N364 H376 0.984 . S
N364 H377 0.985 . S
N365 C367 1.356 . S
N365 H370 0.984 . S
N365 H371 0.985 . S
C366 C360 1.379 . S
C366 C363 1.363 . S
C366 N364 1.356 . S
C367 C361 1.363 . S
C367 C362 1.379 . S
C367 N365 1.356 . S
N368 C360 1.356 . S
N368 H374 0.984 . S
N368 H375 0.984 . S
N369 C362 1.356 . S
N369 H372 0.984 . S
N369 H373 0.985 . S
H370 N365 0.984 . S
H371 N365 0.985 . S
H372 N369 0.984 . S
H373 N369 0.985 . S
H374 N368 0.984 . S
H375 N368 0.984 . S
H376 N364 0.984 . S
H377 N364 0.985 . S
C378 C379 1.363 . S
C378 C384 1.379 . S
C378 N386 1.356 . S
C379 C378 1.363 . S
C379 C385 1.363 . S
C380 C381 1.363 . S
C380 C385 1.379 . S
C380 N387 1.356 . S
C381 C380 1.363 . S
C381 C384 1.363 . S
N382 C384 1.356 . S
N382 H394 0.984 . S
N382 H395 0.985 . S
N383 C385 1.356 . S
N383 H388 0.984 . S
N383 H389 0.985 . S
C384 C378 1.379 . S
C384 C381 1.363 . S
C384 N382 1.356 . S
C385 C379 1.363 . S
C385 C380 1.379 . S
C385 N383 1.356 . S
N386 C378 1.356 . S
N386 H392 0.984 . S
N386 H393 0.984 . S
N387 C380 1.356 . S
N387 H390 0.984 . S
N387 H391 0.985 . S
H388 N383 0.984 . S
H389 N383 0.985 . S
H390 N387 0.984 . S
H391 N387 0.985 . S
H392 N386 0.984 . S
H393 N386 0.984 . S
H394 N382 0.984 . S
H395 N382 0.985 . S
C396 C397 1.363 . S
C396 C402 1.379 . S
C396 N404 1.356 . S
C397 C396 1.363 . S
C397 C403 1.363 . S
C398 C399 1.363 . S
C398 C403 1.379 . S
C398 N405 1.356 . S
C399 C398 1.363 . S
C399 C402 1.363 . S
N400 C402 1.356 . S
N400 H412 0.984 . S
N400 H413 0.985 . S
N401 C403 1.356 1_554 S
N401 H406 0.984 . S
N401 H407 0.985 . S
C402 C396 1.379 . S
C402 C399 1.363 . S
C402 N400 1.356 . S
C403 C397 1.363 . S
C403 C398 1.379 . S
C403 N401 1.356 1_556 S
N404 C396 1.356 . S
N404 H410 0.984 . S
N404 H411 0.984 . S
N405 C398 1.356 . S
N405 H408 0.984 . S
N405 H409 0.985 1_556 S
H406 N401 0.984 . S
H407 N401 0.985 . S
H408 N405 0.984 . S
H409 N405 0.985 1_554 S
H410 N404 0.984 . S
H411 N404 0.984 . S
H412 N400 0.984 . S
H413 N400 0.985 . S
C414 C415 1.363 . S
C414 C420 1.379 . S
C414 N422 1.356 . S
C415 C414 1.363 . S
C415 C421 1.363 . S
C416 C417 1.363 . S
C416 C421 1.379 . S
C416 N423 1.356 . S
C417 C416 1.363 . S
C417 C420 1.363 . S
N418 C420 1.356 . S
N418 H430 0.984 . S
N418 H431 0.985 . S
N419 C421 1.356 . S
N419 H424 0.984 . S
N419 H425 0.985 . S
C420 C414 1.379 . S
C420 C417 1.363 . S
C420 N418 1.356 . S
C421 C415 1.363 . S
C421 C416 1.379 . S
C421 N419 1.356 . S
N422 C414 1.356 . S
N422 H428 0.984 . S
N422 H429 0.984 . S
N423 C416 1.356 . S
N423 H426 0.984 . S
N423 H427 0.985 . S
H424 N419 0.984 . S
H425 N419 0.985 . S
H426 N423 0.984 . S
H427 N423 0.985 . S
H428 N422 0.984 . S
H429 N422 0.984 . S
H430 N418 0.984 . S
H431 N418 0.985 . S
C432 C433 1.363 . S
C432 C438 1.379 . S
C432 N440 1.356 . S
C433 C432 1.363 . S
C433 C439 1.363 . S
C434 C435 1.363 . S
C434 C439 1.379 . S
C434 N441 1.356 . S
C435 C434 1.363 . S
C435 C438 1.363 . S
N436 C438 1.356 . S
N436 H448 0.984 . S
N436 H449 0.985 . S
N437 C439 1.356 . S
N437 H442 0.984 . S
N437 H443 0.985 . S
C438 C432 1.379 . S
C438 C435 1.363 . S
C438 N436 1.356 . S
C439 C433 1.363 . S
C439 C434 1.379 . S
C439 N437 1.356 . S
N440 C432 1.356 . S
N440 H446 0.984 . S
N440 H447 0.984 . S
N441 C434 1.356 . S
N441 H444 0.984 . S
N441 H445 0.985 . S
H442 N437 0.984 . S
H443 N437 0.985 . S
H444 N441 0.984 . S
H445 N441 0.985 . S
H446 N440 0.984 . S
H447 N440 0.984 . S
H448 N436 0.984 . S
H449 N436 0.985 . S
C450 C451 1.363 . S
C450 C456 1.379 . S
C450 N458 1.356 . S
C451 C450 1.363 . S
C451 C457 1.363 . S
C452 C453 1.363 . S
C452 C457 1.379 . S
C452 N459 1.356 . S
C453 C452 1.363 . S
C453 C456 1.363 . S
N454 C456 1.356 . S
N454 H466 0.984 . S
N454 H467 0.985 . S
N455 C457 1.356 . S
N455 H460 0.984 . S
N455 H461 0.985 . S
C456 C450 1.379 . S
C456 C453 1.363 . S
C456 N454 1.356 . S
C457 C451 1.363 . S
C457 C452 1.379 . S
C457 N455 1.356 . S
N458 C450 1.356 . S
N458 H464 0.984 . S
N458 H465 0.984 . S
N459 C452 1.356 . S
N459 H462 0.984 . S
N459 H463 0.985 . S
H460 N455 0.984 . S
H461 N455 0.985 . S
H462 N459 0.984 . S
H463 N459 0.985 . S
H464 N458 0.984 . S
H465 N458 0.984 . S
H466 N454 0.984 . S
H467 N454 0.985 . S
C468 C469 1.363 . S
C468 C474 1.379 . S
C468 N476 1.356 . S
C469 C468 1.363 . S
C469 C475 1.363 . S
C470 C471 1.363 . S
C470 C475 1.379 . S
C470 N477 1.356 . S
C471 C470 1.363 . S
C471 C474 1.363 . S
N472 C474 1.356 . S
N472 H484 0.984 . S
N472 H485 0.985 . S
N473 C475 1.356 . S
N473 H478 0.984 . S
N473 H479 0.985 . S
C474 C468 1.379 . S
C474 C471 1.363 . S
C474 N472 1.356 . S
C475 C469 1.363 . S
C475 C470 1.379 . S
C475 N473 1.356 . S
N476 C468 1.356 . S
N476 H482 0.984 . S
N476 H483 0.984 . S
N477 C470 1.356 . S
N477 H480 0.984 . S
N477 H481 0.985 . S
H478 N473 0.984 . S
H479 N473 0.985 . S
H480 N477 0.984 . S
H481 N477 0.985 . S
H482 N476 0.984 . S
H483 N476 0.984 . S
H484 N472 0.984 . S
H485 N472 0.985 . S
C486 C487 1.363 . S
C486 C492 1.379 . S
C486 N494 1.356 1_554 S
C487 C486 1.363 . S
C487 C493 1.363 . S
C488 C489 1.363 . S
C488 C493 1.379 . S
C488 N495 1.356 . S
C489 C488 1.363 . S
C489 C492 1.363 . S
N490 C492 1.356 . S
N490 H502 0.984 1_554 S
N490 H503 0.985 . S
N491 C493 1.356 . S
N491 H496 0.984 . S
N491 H497 0.985 . S
C492 C486 1.379 . S
C492 C489 1.363 . S
C492 N490 1.356 . S
C493 C487 1.363 . S
C493 C488 1.379 . S
C493 N491 1.356 . S
N494 C486 1.356 1_556 S
N494 H500 0.984 . S
N494 H501 0.984 . S
N495 C488 1.356 . S
N495 H498 0.984 . S
N495 H499 0.985 . S
H496 N491 0.984 . S
H497 N491 0.985 . S
H498 N495 0.984 . S
H499 N495 0.985 . S
H500 N494 0.984 . S
H501 N494 0.984 . S
H502 N490 0.984 1_556 S
H503 N490 0.985 . S
C504 C505 1.363 . S
C504 C510 1.379 . S
C504 N512 1.356 . S
C505 C504 1.363 . S
C505 C511 1.363 . S
C506 C507 1.363 . S
C506 C511 1.379 . S
C506 N513 1.356 . S
C507 C506 1.363 . S
C507 C510 1.363 . S
N508 C510 1.356 . S
N508 H520 0.984 . S
N508 H521 0.985 . S
N509 C511 1.356 . S
N509 H514 0.984 . S
N509 H515 0.985 . S
C510 C504 1.379 . S
C510 C507 1.363 . S
C510 N508 1.356 . S
C511 C505 1.363 . S
C511 C506 1.379 . S
C511 N509 1.356 . S
N512 C504 1.356 . S
N512 H518 0.984 . S
N512 H519 0.984 . S
N513 C506 1.356 . S
N513 H516 0.984 . S
N513 H517 0.985 . S
H514 N509 0.984 . S
H515 N509 0.985 . S
H516 N513 0.984 . S
H517 N513 0.985 . S
H518 N512 0.984 . S
H519 N512 0.984 . S
H520 N508 0.984 . S
H521 N508 0.985 . S
C522 C523 1.363 . S
C522 C528 1.379 . S
C522 N530 1.356 . S
C523 C522 1.363 . S
C523 C529 1.363 . S
C524 C525 1.363 . S
C524 C529 1.379 . S
C524 N531 1.356 . S
C525 C524 1.363 . S
C525 C528 1.363 . S
N526 C528 1.356 . S
N526 H538 0.984 . S
N526 H539 0.985 . S
N527 C529 1.356 . S
N527 H532 0.984 . S
N527 H533 0.985 . S
C528 C522 1.379 . S
C528 C525 1.363 . S
C528 N526 1.356 . S
C529 C523 1.363 . S
C529 C524 1.379 . S
C529 N527 1.356 . S
N530 C522 1.356 . S
N530 H536 0.984 . S
N530 H537 0.984 . S
N531 C524 1.356 . S
N531 H534 0.984 . S
N531 H535 0.985 . S
H532 N527 0.984 . S
H533 N527 0.985 . S
H534 N531 0.984 . S
H535 N531 0.985 . S
H536 N530 0.984 . S
H537 N530 0.984 . S
H538 N526 0.984 . S
H539 N526 0.985 . S
C540 C541 1.363 . S
C540 C546 1.379 . S
C540 N548 1.356 . S
C541 C540 1.363 . S
C541 C547 1.363 . S
C542 C543 1.363 . S
C542 C547 1.379 . S
C542 N549 1.356 . S
C543 C542 1.363 . S
C543 C546 1.363 . S
N544 C546 1.356 . S
N544 H556 0.984 . S
N544 H557 0.985 . S
N545 C547 1.356 . S
N545 H550 0.984 . S
N545 H551 0.985 . S
C546 C540 1.379 . S
C546 C543 1.363 . S
C546 N544 1.356 . S
C547 C541 1.363 . S
C547 C542 1.379 . S
C547 N545 1.356 . S
N548 C540 1.356 . S
N548 H554 0.984 . S
N548 H555 0.984 . S
N549 C542 1.356 . S
N549 H552 0.984 . S
N549 H553 0.985 . S
H550 N545 0.984 . S
H551 N545 0.985 . S
H552 N549 0.984 . S
H553 N549 0.985 . S
H554 N548 0.984 . S
H555 N548 0.984 . S
H556 N544 0.984 . S
H557 N544 0.985 . S
C558 C559 1.363 . S
C558 C564 1.379 . S
C558 N566 1.356 . S
C559 C558 1.363 . S
C559 C565 1.363 . S
C560 C561 1.363 . S
C560 C565 1.379 . S
C560 N567 1.356 . S
C561 C560 1.363 . S
C561 C564 1.363 . S
N562 C564 1.356 . S
N562 H574 0.984 . S
N562 H575 0.985 . S
N563 C565 1.356 . S
N563 H568 0.984 . S
N563 H569 0.985 . S
C564 C558 1.379 . S
C564 C561 1.363 . S
C564 N562 1.356 . S
C565 C559 1.363 . S
C565 C560 1.379 . S
C565 N563 1.356 . S
N566 C558 1.356 . S
N566 H572 0.984 . S
N566 H573 0.984 . S
N567 C560 1.356 . S
N567 H570 0.984 . S
N567 H571 0.985 . S
H568 N563 0.984 . S
H569 N563 0.985 . S
H570 N567 0.984 . S
H571 N567 0.985 . S
H572 N566 0.984 . S
H573 N566 0.984 . S
H574 N562 0.984 . S
H575 N562 0.985 . S
C576 C577 1.363 . S
C576 C582 1.379 . S
C576 N584 1.356 . S
C577 C576 1.363 . S
C577 C583 1.363 . S
C578 C579 1.363 . S
C578 C583 1.379 . S
C578 N585 1.356 . S
C579 C578 1.363 . S
C579 C582 1.363 . S
N580 C582 1.356 . S
N580 H592 0.984 . S
N580 H593 0.985 . S
N581 C583 1.356 . S
N581 H586 0.984 . S
N581 H587 0.985 . S
C582 C576 1.379 . S
C582 C579 1.363 . S
C582 N580 1.356 . S
C583 C577 1.363 . S
C583 C578 1.379 . S
C583 N581 1.356 . S
N584 C576 1.356 . S
N584 H590 0.984 . S
N584 H591 0.984 . S
N585 C578 1.356 . S
N585 H588 0.984 . S
N585 H589 0.985 . S
H586 N581 0.984 . S
H587 N581 0.985 . S
H588 N585 0.984 . S
H589 N585 0.985 . S
H590 N584 0.984 . S
H591 N584 0.984 . S
H592 N580 0.984 . S
H593 N580 0.985 . S
C594 C595 1.363 . S
C594 C600 1.379 . S
C594 N602 1.356 . S
C595 C594 1.363 . S
C595 C601 1.363 . S
C596 C597 1.363 . S
C596 C601 1.379 . S
C596 N603 1.356 . S
C597 C596 1.363 . S
C597 C600 1.363 . S
N598 C600 1.356 1_554 S
N598 H610 0.984 . S
N598 H611 0.985 . S
N599 C601 1.356 . S
N599 H604 0.984 . S
N599 H605 0.985 . S
C600 C594 1.379 . S
C600 C597 1.363 . S
C600 N598 1.356 1_556 S
C601 C595 1.363 . S
C601 C596 1.379 . S
C601 N599 1.356 . S
N602 C594 1.356 . S
N602 H608 0.984 . S
N602 H609 0.984 . S
N603 C596 1.356 . S
N603 H606 0.984 . S
N603 H607 0.985 . S
H604 N599 0.984 . S
H605 N599 0.985 . S
H606 N603 0.984 . S
H607 N603 0.985 . S
H608 N602 0.984 . S
H609 N602 0.984 . S
H610 N598 0.984 . S
H611 N598 0.985 . S
C612 C613 1.363 . S
C612 C618 1.379 . S
C612 N620 1.356 . S
C613 C612 1.363 . S
C613 C619 1.363 . S
C614 C615 1.363 . S
C614 C619 1.379 . S
C614 N621 1.356 . S
C615 C614 1.363 . S
C615 C618 1.363 . S
N616 C618 1.356 . S
N616 H628 0.984 . S
N616 H629 0.985 . S
N617 C619 1.356 . S
N617 H622 0.984 . S
N617 H623 0.985 . S
C618 C612 1.379 . S
C618 C615 1.363 . S
C618 N616 1.356 . S
C619 C613 1.363 . S
C619 C614 1.379 . S
C619 N617 1.356 . S
N620 C612 1.356 . S
N620 H626 0.984 . S
N620 H627 0.984 . S
N621 C614 1.356 . S
N621 H624 0.984 . S
N621 H625 0.985 . S
H622 N617 0.984 . S
H623 N617 0.985 . S
H624 N621 0.984 . S
H625 N621 0.985 . S
H626 N620 0.984 . S
H627 N620 0.984 . S
H628 N616 0.984 . S
H629 N616 0.985 . S
C630 C631 1.363 . S
C630 C636 1.379 . S
C630 N638 1.356 . S
C631 C630 1.363 . S
C631 C637 1.363 . S
C632 C633 1.363 . S
C632 C637 1.379 . S
C632 N639 1.356 . S
C633 C632 1.363 . S
C633 C636 1.363 . S
N634 C636 1.356 . S
N634 H646 0.984 . S
N634 H647 0.985 . S
N635 C637 1.356 . S
N635 H640 0.984 . S
N635 H641 0.985 . S
C636 C630 1.379 . S
C636 C633 1.363 . S
C636 N634 1.356 . S
C637 C631 1.363 . S
C637 C632 1.379 . S
C637 N635 1.356 . S
N638 C630 1.356 . S
N638 H644 0.984 . S
N638 H645 0.984 . S
N639 C632 1.356 . S
N639 H642 0.984 . S
N639 H643 0.985 . S
H640 N635 0.984 . S
H641 N635 0.985 . S
H642 N639 0.984 . S
H643 N639 0.985 . S
H644 N638 0.984 . S
H645 N638 0.984 . S
H646 N634 0.984 . S
H647 N634 0.985 . S
C648 C649 1.363 . S
C648 C654 1.379 . S
C648 N656 1.356 . S
C649 C648 1.363 . S
C649 C655 1.363 . S
C650 C651 1.363 . S
C650 C655 1.379 . S
C650 N657 1.356 . S
C651 C650 1.363 . S
C651 C654 1.363 . S
N652 C654 1.356 . S
N652 H664 0.984 . S
N652 H665 0.985 . S
N653 C655 1.356 . S
N653 H658 0.984 . S
N653 H659 0.985 . S
C654 C648 1.379 . S
C654 C651 1.363 . S
C654 N652 1.356 . S
C655 C649 1.363 . S
C655 C650 1.379 . S
C655 N653 1.356 . S
N656 C648 1.356 . S
N656 H662 0.984 . S
N656 H663 0.984 . S
N657 C650 1.356 . S
N657 H660 0.984 . S
N657 H661 0.985 . S
H658 N653 0.984 . S
H659 N653 0.985 . S
H660 N657 0.984 . S
H661 N657 0.985 . S
H662 N656 0.984 . S
H663 N656 0.984 . S
H664 N652 0.984 . S
H665 N652 0.985 . S
C666 C667 1.363 . S
C666 C672 1.379 . S
C666 N674 1.356 . S
C667 C666 1.363 . S
C667 C673 1.363 . S
C668 C669 1.363 . S
C668 C673 1.379 . S
C668 N675 1.356 . S
C669 C668 1.363 . S
C669 C672 1.363 . S
N670 C672 1.356 . S
N670 H682 0.984 . S
N670 H683 0.985 . S
N671 C673 1.356 . S
N671 H676 0.984 . S
N671 H677 0.985 . S
C672 C666 1.379 . S
C672 C669 1.363 . S
C672 N670 1.356 . S
C673 C667 1.363 . S
C673 C668 1.379 . S
C673 N671 1.356 . S
N674 C666 1.356 . S
N674 H680 0.984 . S
N674 H681 0.984 . S
N675 C668 1.356 . S
N675 H678 0.984 . S
N675 H679 0.985 . S
H676 N671 0.984 . S
H677 N671 0.985 . S
H678 N675 0.984 . S
H679 N675 0.985 . S
H680 N674 0.984 . S
H681 N674 0.984 . S
H682 N670 0.984 . S
H683 N670 0.985 . S
C684 C685 1.363 . S
C684 C690 1.379 . S
C684 N692 1.356 . S
C685 C684 1.363 . S
C685 C691 1.363 . S
C686 C687 1.363 . S
C686 C691 1.379 . S
C686 N693 1.356 . S
C687 C686 1.363 . S
C687 C690 1.363 . S
N688 C690 1.356 . S
N688 H700 0.984 . S
N688 H701 0.985 . S
N689 C691 1.356 . S
N689 H694 0.984 . S
N689 H695 0.985 . S
C690 C684 1.379 . S
C690 C687 1.363 . S
C690 N688 1.356 . S
C691 C685 1.363 . S
C691 C686 1.379 . S
C691 N689 1.356 . S
N692 C684 1.356 . S
N692 H698 0.984 . S
N692 H699 0.984 . S
N693 C686 1.356 . S
N693 H696 0.984 . S
N693 H697 0.985 . S
H694 N689 0.984 . S
H695 N689 0.985 . S
H696 N693 0.984 . S
H697 N693 0.985 . S
H698 N692 0.984 . S
H699 N692 0.984 . S
H700 N688 0.984 . S
H701 N688 0.985 . S
C702 C703 1.363 . S
C702 C708 1.379 . S
C702 N710 1.356 . S
C703 C702 1.363 . S
C703 C709 1.363 . S
C704 C705 1.363 . S
C704 C709 1.379 . S
C704 N711 1.356 . S
C705 C704 1.363 . S
C705 C708 1.363 . S
N706 C708 1.356 . S
N706 H718 0.984 . S
N706 H719 0.985 . S
N707 C709 1.356 . S
N707 H712 0.984 . S
N707 H713 0.985 . S
C708 C702 1.379 . S
C708 C705 1.363 . S
C708 N706 1.356 . S
C709 C703 1.363 . S
C709 C704 1.379 . S
C709 N707 1.356 . S
N710 C702 1.356 . S
N710 H716 0.984 . S
N710 H717 0.984 . S
N711 C704 1.356 . S
N711 H714 0.984 . S
N711 H715 0.985 . S
H712 N707 0.984 . S
H713 N707 0.985 . S
H714 N711 0.984 . S
H715 N711 0.985 . S
H716 N710 0.984 . S
H717 N710 0.984 . S
H718 N706 0.984 . S
H719 N706 0.985 . S
C720 C721 1.363 . S
C720 C726 1.379 1_554 S
C720 N728 1.356 . S
C721 C720 1.363 . S
C721 C727 1.363 . S
C722 C723 1.363 1_554 S
C722 C727 1.379 . S
C722 N729 1.356 . S
C723 C722 1.363 1_556 S
C723 C726 1.363 . S
N724 C726 1.356 . S
N724 H736 0.984 . S
N724 H737 0.985 . S
N725 C727 1.356 . S
N725 H730 0.984 . S
N725 H731 0.985 . S
C726 C720 1.379 1_556 S
C726 C723 1.363 . S
C726 N724 1.356 . S
C727 C721 1.363 . S
C727 C722 1.379 . S
C727 N725 1.356 . S
N728 C720 1.356 . S
N728 H734 1.004 . S
N728 H735 0.984 . S
N729 C722 1.356 . S
N729 H732 0.984 1_554 S
N729 H733 0.985 . S
H730 N725 0.984 . S
H731 N725 0.985 . S
H732 N729 0.984 1_556 S
H733 N729 0.985 . S
H734 N728 1.004 . S
H735 N728 0.984 . S
H736 N724 0.984 . S
H737 N724 0.985 . S
C738 C739 1.363 . S
C738 C744 1.379 . S
C738 N746 1.356 . S
C739 C738 1.363 . S
C739 C745 1.363 . S
C740 C741 1.363 . S
C740 C745 1.379 . S
C740 N747 1.356 . S
C741 C740 1.363 . S
C741 C744 1.363 . S
N742 C744 1.356 . S
N742 H754 0.984 . S
N742 H755 0.985 . S
N743 C745 1.356 . S
N743 H748 0.984 . S
N743 H749 0.985 . S
C744 C738 1.379 . S
C744 C741 1.363 . S
C744 N742 1.356 . S
C745 C739 1.363 . S
C745 C740 1.379 . S
C745 N743 1.356 . S
N746 C738 1.356 . S
N746 H752 0.984 . S
N746 H753 0.984 . S
N747 C740 1.356 . S
N747 H750 0.984 . S
N747 H751 0.985 . S
H748 N743 0.984 . S
H749 N743 0.985 . S
H750 N747 0.984 . S
H751 N747 0.985 . S
H752 N746 0.984 . S
H753 N746 0.984 . S
H754 N742 0.984 . S
H755 N742 0.985 . S
C327 C291 1.559 . S
C325 C8 1.516 . S
C343 C26 1.542 . S
C345 C111 1.588 . S
C361 C50 1.526 . S
C363 C158 1.543 . S
C379 C68 1.488 . S
C381 C194 1.494 . S
C399 C219 1.542 . S
C397 C80 1.495 . S
C415 C104 1.499 . S
C417 C255 1.555 . S
C433 C32 1.531 . S
C435 C147 1.586 . S
C451 C44 1.501 . S
C453 C183 1.543 . S
C469 C62 1.476 . S
C471 C230 1.479 . S
C489 C266 1.515 . S
C487 C86 1.501 . S
C507 C302 1.525 . S
C505 C98 1.521 . S
C525 C122 1.538 . S
C523 C14 1.526 . S
C541 C7 1.458 . S
C543 C146 1.501 . S
C559 C25 1.467 . S
C561 C182 1.510 . S
C579 C220 1.506 . S
C577 C52 1.463 . S
C595 C70 1.464 . S
C597 C256 1.509 1_556 S
C615 C292 1.482 . S
C613 C79 1.431 . S
C633 C112 1.471 . S
C631 C106 1.424 . S
C651 C290 1.492 . S
C649 C34 1.453 . S
C667 C43 1.452 . S
C669 C110 1.494 . S
C687 C148 1.495 . S
C685 C61 1.450 . S
C703 C88 1.460 . S
C705 C184 1.503 . S
C721 C97 1.493 . S
C723 C218 1.531 . S
C739 C16 1.486 . S
C741 C254 1.521 . S
