# Generated by pormake.
# Topology tsx, (6,3)-cn, num edge types: 1
# Building blocks:
#     Node 0, Type 0, BuildingBlock: VOLQOD_clean_sbu_1, # of connection points: 6
#     Node 1, Type 0, BuildingBlock: VOLQOD_clean_sbu_1, # of connection points: 6
#     Node 2, Type 1, BuildingBlock: INOVEN_clean_linker_0, # of connection points: 3
#     Node 3, Type 1, BuildingBlock: INOVEN_clean_linker_0, # of connection points: 3
#     Node 4, Type 1, BuildingBlock: INOVEN_clean_linker_0, # of connection points: 3
#     Node 5, Type 1, BuildingBlock: INOVEN_clean_linker_0, # of connection points: 3
#     Edge 6, Type (0, 1), BuildingBlock: XUDNAN_clean_linker_2, # of connection points: 2
#     Edge 7, Type (0, 1), BuildingBlock: XUDNAN_clean_linker_2, # of connection points: 2
#     Edge 8, Type (0, 1), BuildingBlock: XUDNAN_clean_linker_2, # of connection points: 2
#     Edge 9, Type (0, 1), BuildingBlock: XUDNAN_clean_linker_2, # of connection points: 2
#     Edge 10, Type (0, 1), BuildingBlock: XUDNAN_clean_linker_2, # of connection points: 2
#     Edge 11, Type (0, 1), BuildingBlock: XUDNAN_clean_linker_2, # of connection points: 2
#     Edge 12, Type (0, 1), BuildingBlock: XUDNAN_clean_linker_2, # of connection points: 2
#     Edge 13, Type (0, 1), BuildingBlock: XUDNAN_clean_linker_2, # of connection points: 2
#     Edge 14, Type (0, 1), BuildingBlock: XUDNAN_clean_linker_2, # of connection points: 2
#     Edge 15, Type (0, 1), BuildingBlock: XUDNAN_clean_linker_2, # of connection points: 2
#     Edge 16, Type (0, 1), BuildingBlock: XUDNAN_clean_linker_2, # of connection points: 2
#     Edge 17, Type (0, 1), BuildingBlock: XUDNAN_clean_linker_2, # of connection points: 2
# Relax obj value: 0.050
# Max RMSD: 0.106
# Mean RMSD: 0.096
data_MOF--net-tsx--node1-VOLQOD_clean_sbu_1--node2-INOVEN_clean_linker_0--edge1-XUDNAN_clean_linker_2
_symmetry_space_group_name_H-M    P1
_symmetry_Int_Tables_number       1
_symmetry_cell_setting            triclinic
loop_
_symmetry_equiv_pos_as_xyz
'x, y, z'
_cell_length_a     21.199467
_cell_length_b     21.867548
_cell_length_c     37.374289
_cell_angle_alpha  90.284653
_cell_angle_beta   98.046918
_cell_angle_gamma 89.833437
loop_
_atom_site_label
_atom_site_type_symbol
_atom_site_fract_x
_atom_site_fract_y
_atom_site_fract_z
_atom_type_partial_charge
O0 O 0.04906 0.9732 0.09297 0.0
Zn1 Zn 0.073 0.98516 0.04237 0.0
O2 O 0.99702 0.99303 0.00553 0.0
Zn3 Zn 0.99076 0.92525 0.97066 0.0
Zn4 Zn 0.92107 0.99561 0.0291 0.0
Zn5 Zn 0.00163 0.06822 0.97911 0.0
O6 O 0.98301 0.95436 0.91869 0.0
O7 O 0.99306 0.05461 0.92585 0.0
O8 O 0.12585 0.91322 0.02953 0.0
O9 O 0.07057 0.87519 0.97939 0.0
O10 O 0.91514 0.87132 0.97559 0.0
O11 O 0.86262 0.927 0.01162 0.0
O12 O 0.87366 0.0758 0.02185 0.0
O13 O 0.13039 0.05966 0.04246 0.0
O14 O 0.93302 0.12668 0.98782 0.0
O15 O 0.08423 0.10943 0.99404 0.0
C16 C 0.99469 0.97335 0.10394 0.0
C17 C 0.98564 0.00773 0.90549 0.0
C18 C 0.86702 0.87985 0.992 0.0
C19 C 0.11954 0.87498 0.0034 0.0
C20 C 0.88527 0.12387 0.00486 0.0
C21 C 0.12957 0.10326 0.01987 0.0
O22 O 0.94377 0.98214 0.08217 0.0
O23 O 0.56718 0.50275 0.57979 0.0
Zn24 Zn 0.57887 0.52101 0.5281 0.0
O25 O 0.49608 0.53924 0.49933 0.0
Zn26 Zn 0.47585 0.47488 0.4638 0.0
Zn27 Zn 0.42997 0.54362 0.53083 0.0
Zn28 Zn 0.4991 0.61613 0.4737 0.0
O29 O 0.45214 0.50748 0.41379 0.0
O30 O 0.48011 0.60504 0.41937 0.0
O31 O 0.62516 0.4506 0.50672 0.0
O32 O 0.55306 0.42431 0.46033 0.0
O33 O 0.40616 0.42096 0.4764 0.0
O34 O 0.37145 0.47047 0.52193 0.0
O35 O 0.37842 0.62226 0.52328 0.0
O36 O 0.63722 0.59422 0.52791 0.0
O37 O 0.43493 0.67573 0.48846 0.0
O38 O 0.58515 0.65397 0.48562 0.0
C39 C 0.52258 0.51628 0.59811 0.0
C40 C 0.45992 0.55934 0.39981 0.0
C41 C 0.36852 0.42535 0.50001 0.0
C42 C 0.60808 0.41848 0.47851 0.0
C43 C 0.38903 0.67141 0.50692 0.0
C44 C 0.63421 0.64193 0.50825 0.0
O45 O 0.46933 0.53776 0.58332 0.0
H46 H 0.04015 0.03402 0.46777 0.0
H47 H 0.08642 0.91591 0.38214 0.0
H48 H 0.94351 0.05414 0.35902 0.0
N49 N 0.95124 0.10001 0.42639 0.0
N50 N 0.91864 0.13193 0.40311 0.0
C51 C 0.03274 0.01989 0.43966 0.0
C52 C 0.06807 0.9708 0.42795 0.0
C53 C 0.98759 0.05049 0.41493 0.0
C54 C 0.97829 0.03131 0.37851 0.0
C55 C 0.01375 0.98322 0.36657 0.0
C56 C 0.05873 0.95315 0.39134 0.0
H57 H 0.01893 0.96083 0.54299 0.0
H58 H 0.93581 0.91873 0.6389 0.0
H59 H 0.07262 0.06347 0.64049 0.0
N60 N 0.08587 0.05487 0.56978 0.0
N61 N 0.10821 0.10421 0.58267 0.0
C62 C 0.01494 0.96863 0.57125 0.0
C63 C 0.97324 0.93317 0.58866 0.0
C64 C 0.04972 0.01624 0.58949 0.0
C65 C 0.0452 0.02697 0.62615 0.0
C66 C 0.00509 0.99109 0.64434 0.0
C67 C 0.96932 0.94422 0.62543 0.0
H68 H 0.56812 0.50717 0.96801 0.0
H69 H 0.62875 0.42483 0.87419 0.0
H70 H 0.47991 0.56122 0.86254 0.0
N71 N 0.48366 0.58053 0.93479 0.0
N72 N 0.43661 0.60807 0.91872 0.0
C73 C 0.5649 0.50324 0.9389 0.0
C74 C 0.60285 0.46091 0.9236 0.0
C75 C 0.52139 0.53981 0.91716 0.0
C76 C 0.51518 0.53406 0.87923 0.0
C77 C 0.55375 0.4923 0.86314 0.0
C78 C 0.5983 0.45691 0.88583 0.0
H79 H 0.49097 0.44154 0.04511 0.0
H80 H 0.3941 0.42926 0.13887 0.0
H81 H 0.53156 0.5713 0.13132 0.0
N82 N 0.5541 0.54134 0.06419 0.0
N83 N 0.5677 0.59628 0.06964 0.0
C84 C 0.48245 0.45804 0.07142 0.0
C85 C 0.43808 0.42879 0.09009 0.0
C86 C 0.51433 0.51029 0.08555 0.0
C87 C 0.50506 0.53186 0.11991 0.0
C88 C 0.46305 0.50178 0.13987 0.0
C89 C 0.42914 0.45062 0.12452 0.0
H90 H 0.21485 0.13323 0.08015 0.0
H91 H 0.16084 0.17634 0.96662 0.0
H92 H 0.24069 0.2582 0.97163 0.0
H93 H 0.23318 0.28452 0.11038 0.0
H94 H 0.30127 0.27102 0.14408 0.0
H95 H 0.24533 0.2104 0.13118 0.0
H96 H 0.33666 0.14103 0.11508 0.0
H97 H 0.39306 0.20139 0.12816 0.0
H98 H 0.38748 0.16794 0.08366 0.0
H99 H 0.31644 0.34102 0.98936 0.0
H100 H 0.3867 0.42073 0.01897 0.0
H101 H 0.3962 0.32456 0.12113 0.0
C102 C 0.22089 0.15911 0.05623 0.0
C103 C 0.18165 0.14843 0.02301 0.0
C104 C 0.19012 0.1839 0.99241 0.0
C105 C 0.23559 0.23032 0.99489 0.0
C106 C 0.27243 0.24071 0.02812 0.0
C107 C 0.26606 0.20614 0.05826 0.0
C108 C 0.30896 0.23006 0.09122 0.0
C109 C 0.26983 0.2502 0.12096 0.0
C110 C 0.35955 0.18225 0.10536 0.0
C111 C 0.33876 0.2844 0.07495 0.0
C112 C 0.31736 0.28909 0.03844 0.0
C113 C 0.33476 0.33726 0.01778 0.0
C114 C 0.3751 0.38218 0.03488 0.0
C115 C 0.39798 0.37863 0.07234 0.0
C116 C 0.37971 0.32866 0.09249 0.0
H117 H 0.13498 0.80736 0.94352 0.0
H118 H 0.22435 0.8479 0.05281 0.0
H119 H 0.31597 0.7826 0.04321 0.0
H120 H 0.18724 0.64971 0.9402 0.0
H121 H 0.19985 0.65457 0.89359 0.0
H122 H 0.1401 0.70163 0.91001 0.0
H123 H 0.1929 0.79834 0.88767 0.0
H124 H 0.25318 0.75172 0.87148 0.0
H125 H 0.27595 0.81305 0.90301 0.0
H126 H 0.39872 0.71476 0.02103 0.0
H127 H 0.46623 0.64898 0.98814 0.0
H128 H 0.32408 0.656 0.89279 0.0
C129 C 0.17331 0.80192 0.9657 0.0
C130 C 0.1723 0.83244 0.99904 0.0
C131 C 0.224 0.8248 0.02709 0.0
C132 C 0.27622 0.78786 0.02188 0.0
C133 C 0.27603 0.75928 0.98844 0.0
C134 C 0.22588 0.76585 0.96086 0.0
C135 C 0.23814 0.73204 0.92707 0.0
C136 C 0.18838 0.68148 0.91715 0.0
C137 C 0.24017 0.77646 0.89545 0.0
C138 C 0.30323 0.70545 0.93989 0.0
C139 C 0.32414 0.72143 0.97543 0.0
C140 C 0.38279 0.70191 0.99324 0.0
C141 C 0.42076 0.6646 0.97432 0.0
C142 C 0.39987 0.6476 0.93787 0.0
C143 C 0.34078 0.66875 0.92053 0.0
H144 H 0.7599 0.88373 0.02472 0.0
H145 H 0.864 0.76658 0.95917 0.0
H146 H 0.78963 0.68205 0.96637 0.0
H147 H 0.7399 0.77755 0.08842 0.0
H148 H 0.66121 0.80162 0.09555 0.0
H149 H 0.71481 0.85562 0.07991 0.0
H150 H 0.6315 0.88006 0.02414 0.0
H151 H 0.57711 0.82652 0.03985 0.0
H152 H 0.59851 0.8187 0.99505 0.0
H153 H 0.71234 0.6068 0.98759 0.0
H154 H 0.63883 0.54858 0.02051 0.0
H155 H 0.58782 0.71528 0.07257 0.0
C156 C 0.76631 0.84087 0.01103 0.0
C157 C 0.81779 0.83187 0.99132 0.0
C158 C 0.82471 0.7747 0.97425 0.0
C159 C 0.78265 0.72644 0.97815 0.0
C160 C 0.73376 0.73638 0.99891 0.0
C161 C 0.72513 0.79247 0.01475 0.0
C162 C 0.67311 0.79021 0.03853 0.0
C163 C 0.69883 0.80723 0.07792 0.0
C164 C 0.61671 0.83131 0.02348 0.0
C165 C 0.65548 0.72344 0.03486 0.0
C166 C 0.69002 0.6932 0.0114 0.0
C167 C 0.68429 0.63029 0.0055 0.0
C168 C 0.6425 0.5976 0.02428 0.0
C169 C 0.60757 0.62815 0.04875 0.0
C170 C 0.61383 0.69157 0.05371 0.0
H171 H 0.88783 0.22658 0.9639 0.0
H172 H 0.78259 0.14018 0.04154 0.0
H173 H 0.7053 0.22565 0.03487 0.0
H174 H 0.8589 0.3872 0.9891 0.0
H175 H 0.85088 0.41185 0.94273 0.0
H176 H 0.90252 0.34856 0.95755 0.0
H177 H 0.84193 0.28016 0.90728 0.0
H178 H 0.79017 0.34301 0.89239 0.0
H179 H 0.75684 0.27168 0.90471 0.0
H180 H 0.63397 0.31481 0.01496 0.0
H181 H 0.57201 0.39735 0.98158 0.0
H182 H 0.72466 0.42481 0.91717 0.0
C183 C 0.84936 0.22608 0.98015 0.0
C184 C 0.84143 0.17678 0.00338 0.0
C185 C 0.78973 0.17755 0.02364 0.0
C186 C 0.7458 0.22603 0.02017 0.0
C187 C 0.75452 0.27336 0.99649 0.0
C188 C 0.80514 0.27374 0.97689 0.0
C189 C 0.80079 0.32672 0.9508 0.0
C190 C 0.85659 0.37122 0.96065 0.0
C191 C 0.79719 0.304 0.91149 0.0
C192 C 0.73858 0.35497 0.95784 0.0
C193 C 0.71314 0.32429 0.98474 0.0
C194 C 0.65392 0.33977 0.99428 0.0
C195 C 0.61921 0.38689 0.97526 0.0
C196 C 0.64365 0.41751 0.94682 0.0
C197 C 0.70475 0.40212 0.93872 0.0
H198 H 0.73337 0.65161 0.56394 0.0
H199 H 0.65653 0.73048 0.46048 0.0
H200 H 0.74262 0.80672 0.46722 0.0
H201 H 0.77129 0.79033 0.60822 0.0
H202 H 0.84384 0.76405 0.6347 0.0
H203 H 0.78102 0.71066 0.62 0.0
H204 H 0.85958 0.64405 0.58927 0.0
H205 H 0.92279 0.69729 0.60398 0.0
H206 H 0.90386 0.6782 0.55673 0.0
H207 H 0.82964 0.87966 0.48716 0.0
H208 H 0.91076 0.94704 0.51994 0.0
H209 H 0.93368 0.82091 0.61035 0.0
C210 C 0.73541 0.68418 0.5424 0.0
C211 C 0.68834 0.68497 0.51164 0.0
C212 C 0.69197 0.72904 0.48433 0.0
C213 C 0.74091 0.77234 0.48779 0.0
C214 C 0.78595 0.77095 0.51866 0.0
C215 C 0.78381 0.72809 0.54552 0.0
C216 C 0.83523 0.73984 0.57723 0.0
C217 C 0.80608 0.75196 0.61208 0.0
C218 C 0.88321 0.68668 0.58207 0.0
C219 C 0.86523 0.79702 0.56438 0.0
C220 C 0.83661 0.81357 0.53031 0.0
C221 C 0.85331 0.86666 0.51358 0.0
C222 C 0.89986 0.90447 0.5324 0.0
C223 C 0.92923 0.88911 0.56767 0.0
C224 C 0.9122 0.83402 0.58348 0.0
H225 H 0.704 0.34401 0.51346 0.0
H226 H 0.61756 0.40729 0.40786 0.0
H227 H 0.69385 0.3461 0.37908 0.0
H228 H 0.86885 0.33533 0.49401 0.0
H229 H 0.88681 0.26523 0.51856 0.0
H230 H 0.82871 0.31766 0.53214 0.0
H231 H 0.74468 0.23117 0.52651 0.0
H232 H 0.80257 0.17849 0.51307 0.0
H233 H 0.72754 0.18948 0.48455 0.0
H234 H 0.77546 0.27917 0.36093 0.0
H235 H 0.85535 0.1997 0.35336 0.0
H236 H 0.88885 0.17205 0.46921 0.0
C237 C 0.70178 0.34511 0.48435 0.0
C238 C 0.655 0.38043 0.46283 0.0
C239 C 0.65272 0.38025 0.42479 0.0
C240 C 0.69614 0.34602 0.40818 0.0
C241 C 0.74129 0.31144 0.42988 0.0
C242 C 0.74431 0.3098 0.46704 0.0
C243 C 0.79525 0.26481 0.48327 0.0
C244 C 0.84804 0.29774 0.50849 0.0
C245 C 0.76573 0.21291 0.50301 0.0
C246 C 0.81969 0.24148 0.44932 0.0
C247 C 0.78815 0.27009 0.41904 0.0
C248 C 0.80068 0.25648 0.38436 0.0
C249 C 0.84598 0.21157 0.3803 0.0
C250 C 0.8779 0.18044 0.41046 0.0
C251 C 0.86528 0.19574 0.44567 0.0
H252 H 0.30069 0.40447 0.55601 0.0
H253 H 0.33642 0.33078 0.4526 0.0
H254 H 0.2694 0.24143 0.46125 0.0
H255 H 0.31086 0.2649 0.60215 0.0
H256 H 0.24867 0.28214 0.62897 0.0
H257 H 0.29432 0.34314 0.6132 0.0
H258 H 0.19054 0.39472 0.58252 0.0
H259 H 0.14443 0.33412 0.59849 0.0
H260 H 0.13566 0.35149 0.55095 0.0
H261 H 0.20312 0.15724 0.48274 0.0
H262 H 0.14211 0.08538 0.51557 0.0
H263 H 0.15238 0.21286 0.60527 0.0
C264 C 0.29351 0.37018 0.53484 0.0
C265 C 0.32359 0.37482 0.50355 0.0
C266 C 0.31378 0.32831 0.47679 0.0
C267 C 0.27574 0.2774 0.48142 0.0
C268 C 0.2479 0.27366 0.51295 0.0
C269 C 0.25612 0.31892 0.53913 0.0
C270 C 0.22375 0.30252 0.57137 0.0
C271 C 0.27231 0.29789 0.60595 0.0
C272 C 0.17042 0.34844 0.57609 0.0
C273 C 0.19691 0.24053 0.5595 0.0
C274 C 0.21082 0.22484 0.52558 0.0
C275 C 0.1917 0.16918 0.50923 0.0
C276 C 0.15731 0.1286 0.52808 0.0
C277 C 0.14304 0.14402 0.56297 0.0
C278 C 0.16304 0.20049 0.57867 0.0
H279 H 0.25939 0.67228 0.49262 0.0
H280 H 0.4231 0.78976 0.52052 0.0
H281 H 0.35282 0.88072 0.51412 0.0
H282 H 0.19073 0.76085 0.42268 0.0
H283 H 0.1091 0.74741 0.42884 0.0
H284 H 0.16915 0.69157 0.44391 0.0
H285 H 0.13796 0.69702 0.50851 0.0
H286 H 0.07762 0.75312 0.49353 0.0
H287 H 0.13779 0.76986 0.53131 0.0
H288 H 0.2674 0.95895 0.49755 0.0
H289 H 0.17642 0.01768 0.46578 0.0
H290 H 0.06979 0.84979 0.44434 0.0
C291 C 0.27981 0.71711 0.49872 0.0
C292 C 0.34617 0.72434 0.50789 0.0
C293 C 0.37208 0.78361 0.51401 0.0
C294 C 0.33252 0.83538 0.51063 0.0
C295 C 0.26723 0.82706 0.50064 0.0
C296 C 0.24106 0.76936 0.49451 0.0
C297 C 0.17146 0.77325 0.47847 0.0
C298 C 0.15947 0.74142 0.44128 0.0
C299 C 0.12869 0.74674 0.50452 0.0
C300 C 0.16332 0.84191 0.47516 0.0
C301 C 0.21847 0.87227 0.48917 0.0
C302 C 0.22364 0.93575 0.48704 0.0
C303 C 0.17181 0.9688 0.46915 0.0
C304 C 0.11634 0.93807 0.45314 0.0
C305 C 0.11157 0.87415 0.45694 0.0
H306 H 0.08845 0.98124 0.16335 0.0
H307 H 0.88755 0.94182 0.13188 0.0
H308 H 0.87429 0.92918 0.19566 0.0
H309 H 0.11339 0.87576 0.24163 0.0
H310 H 0.16607 0.92786 0.2687 0.0
H311 H 0.1622 0.92772 0.2202 0.0
H312 H 0.13581 0.04352 0.21882 0.0
H313 H 0.13974 0.04402 0.26723 0.0
H314 H 0.06885 0.07071 0.23933 0.0
H315 H 0.87912 0.9301 0.26205 0.0
H316 H 0.90238 0.94627 0.32805 0.0
H317 H 0.09983 0.98376 0.31819 0.0
C318 C 0.042 0.96888 0.16989 0.0
C319 C 0.9891 0.96248 0.14251 0.0
C320 C 0.92882 0.94724 0.15227 0.0
C321 C 0.92078 0.93956 0.18847 0.0
C322 C 0.97344 0.94704 0.2148 0.0
C323 C 0.03295 0.96128 0.20613 0.0
C324 C 0.08041 0.97097 0.24004 0.0
C325 C 0.13367 0.92269 0.2428 0.0
C326 C 0.10778 0.03618 0.24142 0.0
C327 C 0.03774 0.96158 0.26895 0.0
C328 C 0.97638 0.94715 0.25367 0.0
C329 C 0.92718 0.94038 0.27444 0.0
C330 C 0.94072 0.94967 0.3118 0.0
C331 C 0.0029 0.96539 0.328 0.0
C332 C 0.05227 0.97032 0.30641 0.0
H333 H 0.98946 0.9194 0.85276 0.0
H334 H 0.9743 0.11561 0.86869 0.0
H335 H 0.97412 0.1317 0.8036 0.0
H336 H 0.09566 0.92665 0.7874 0.0
H337 H 0.06042 0.86367 0.76048 0.0
H338 H 0.05563 0.86656 0.80818 0.0
H339 H 0.93264 0.85849 0.79495 0.0
H340 H 0.93706 0.85539 0.74717 0.0
H341 H 0.88861 0.91279 0.76497 0.0
H342 H 0.98026 0.1278 0.73775 0.0
H343 H 0.99064 0.10353 0.67432 0.0
H344 H 0.00267 0.9102 0.70031 0.0
C345 C 0.98532 0.96568 0.8425 0.0
C346 C 0.98184 0.0162 0.86594 0.0
C347 C 0.97714 0.07609 0.8514 0.0
C348 C 0.97688 0.0858 0.8144 0.0
C349 C 0.98124 0.03521 0.79217 0.0
C350 C 0.98514 0.97629 0.80553 0.0
C351 C 0.99137 0.93022 0.77575 0.0
C352 C 0.05453 0.8947 0.78342 0.0
C353 C 0.93399 0.88665 0.7704 0.0
C354 C 0.99103 0.97262 0.74375 0.0
C355 C 0.98496 0.03295 0.75389 0.0
C356 C 0.98489 0.08073 0.72941 0.0
C357 C 0.99128 0.06653 0.69352 0.0
C358 C -0.00221 0.00505 0.68244 0.0
C359 C -0.00276 0.95756 0.70795 0.0
H360 H 0.49995 0.59143 0.65396 0.0
H361 H 0.56392 0.40946 0.62943 0.0
H362 H 0.57308 0.38234 0.69414 0.0
H363 H 0.61004 0.60742 0.73694 0.0
H364 H 0.55521 0.65068 0.75993 0.0
H365 H 0.5501 0.65466 0.71149 0.0
H366 H 0.43167 0.62195 0.70514 0.0
H367 H 0.43662 0.61731 0.75358 0.0
H368 H 0.41073 0.55195 0.72585 0.0
H369 H 0.56868 0.37317 0.76018 0.0
H370 H 0.56845 0.38596 0.82533 0.0
H371 H 0.52211 0.57869 0.80912 0.0
C372 C 0.51578 0.54594 0.66239 0.0
C373 C 0.53083 0.50217 0.63695 0.0
C374 C 0.55234 0.44342 0.64871 0.0
C375 C 0.55727 0.42758 0.68527 0.0
C376 C 0.54182 0.47154 0.70976 0.0
C377 C 0.52289 0.52994 0.69903 0.0
C378 C 0.51344 0.56956 0.73134 0.0
C379 C 0.55998 0.62378 0.73515 0.0
C380 C 0.44398 0.59147 0.72881 0.0
C381 C 0.52954 0.52408 0.7618 0.0
C382 C 0.54455 0.46762 0.74855 0.0
C383 C 0.55857 0.41755 0.77103 0.0
C384 C 0.55898 0.42564 0.80822 0.0
C385 C 0.54737 0.48393 0.82301 0.0
C386 C 0.53142 0.53351 0.79911 0.0
H387 H 0.44682 0.46625 0.35025 0.0
H388 H 0.45439 0.66422 0.35914 0.0
H389 H 0.44856 0.67151 0.29272 0.0
H390 H 0.54754 0.45377 0.28402 0.0
H391 H 0.50561 0.3906 0.26046 0.0
H392 H 0.50334 0.40131 0.30802 0.0
H393 H 0.37989 0.4034 0.29652 0.0
H394 H 0.38177 0.39246 0.24886 0.0
H395 H 0.33971 0.45687 0.26446 0.0
H396 H 0.44848 0.65649 0.22559 0.0
H397 H 0.45561 0.62063 0.1635 0.0
H398 H 0.45255 0.43247 0.19972 0.0
C399 C 0.4459 0.5113 0.33827 0.0
C400 C 0.45049 0.56474 0.35992 0.0
C401 C 0.45058 0.62266 0.3431 0.0
C402 C 0.44719 0.62725 0.3054 0.0
C403 C 0.44388 0.57351 0.28497 0.0
C404 C 0.44316 0.51665 0.30086 0.0
C405 C 0.44378 0.46576 0.2733 0.0
C406 C 0.50363 0.42552 0.28197 0.0
C407 C 0.38264 0.42737 0.27063 0.0
C408 C 0.44576 0.5028 0.23942 0.0
C409 C 0.44524 0.56484 0.2466 0.0
C410 C 0.44869 0.608 0.21965 0.0
C411 C 0.45323 0.58716 0.18453 0.0
C412 C 0.45478 0.52369 0.17668 0.0
C413 C 0.45045 0.48124 0.20461 0.0
loop_
_geom_bond_atom_site_label_1
_geom_bond_atom_site_label_2
_geom_bond_distance
_geom_bond_site_symmetry_2
_ccdc_geom_bond_type
O0 Zn1 1.953 . S
O0 C16 1.225 1_565 S
Zn1 O0 1.953 . S
Zn1 O2 1.949 1_565 S
Zn1 O8 1.919 . S
Zn1 O13 1.924 1_565 S
O2 Zn1 1.949 1_545 S
O2 Zn3 1.923 1_444 S
O2 Zn4 1.950 1_455 S
O2 Zn5 1.945 1_554 S
Zn3 O2 1.923 1_666 S
Zn3 O6 1.933 . S
Zn3 O9 1.941 1_655 S
Zn3 O10 1.965 . S
Zn4 O2 1.950 1_655 S
Zn4 O11 1.938 1_545 S
Zn4 O12 1.906 . S
Zn4 O22 1.953 . S
Zn5 O2 1.945 1_556 S
Zn5 O7 1.932 . S
Zn5 O14 1.977 1_455 S
Zn5 O15 1.910 . S
O6 Zn3 1.933 . S
O6 C17 1.231 1_565 S
O7 Zn5 1.932 . S
O7 C17 1.305 1_455 S
O8 Zn1 1.919 . S
O8 C19 1.253 1_554 S
O9 Zn3 1.941 1_455 S
O9 C19 1.283 . S
O10 Zn3 1.965 . S
O10 C18 1.303 1_556 S
O11 Zn4 1.938 1_565 S
O11 C18 1.247 . S
O12 Zn4 1.906 . S
O12 C20 1.304 1_554 S
O13 Zn1 1.924 1_545 S
O13 C21 1.311 . S
O14 Zn5 1.977 1_655 S
O14 C20 1.272 . S
O15 Zn5 1.910 . S
O15 C21 1.231 1_556 S
C16 O0 1.225 1_545 S
C16 O22 1.298 1_455 S
C17 O6 1.231 1_545 S
C17 O7 1.305 1_655 S
C18 O10 1.303 1_554 S
C18 O11 1.247 . S
C19 O8 1.253 1_556 S
C19 O9 1.283 . S
C20 O12 1.304 1_556 S
C20 O14 1.272 . S
C21 O13 1.311 . S
C21 O15 1.231 1_554 S
O22 Zn4 1.953 . S
O22 C16 1.298 1_655 S
O23 Zn24 1.953 . S
O23 C39 1.225 . S
Zn24 O23 1.953 . S
Zn24 O25 1.949 . S
Zn24 O31 1.919 . S
Zn24 O36 1.924 . S
O25 Zn24 1.949 . S
O25 Zn26 1.923 . S
O25 Zn27 1.950 . S
O25 Zn28 1.945 . S
Zn26 O25 1.923 . S
Zn26 O29 1.933 . S
Zn26 O32 1.941 . S
Zn26 O33 1.965 . S
Zn27 O25 1.950 . S
Zn27 O34 1.938 . S
Zn27 O35 1.906 . S
Zn27 O45 1.953 . S
Zn28 O25 1.945 . S
Zn28 O30 1.932 . S
Zn28 O37 1.977 . S
Zn28 O38 1.910 . S
O29 Zn26 1.933 . S
O29 C40 1.226 . S
O30 Zn28 1.932 . S
O30 C40 1.307 . S
O31 Zn24 1.919 . S
O31 C42 1.253 . S
O32 Zn26 1.941 . S
O32 C42 1.283 . S
O33 Zn26 1.965 . S
O33 C41 1.303 . S
O34 Zn27 1.938 . S
O34 C41 1.247 . S
O35 Zn27 1.906 . S
O35 C43 1.304 . S
O36 Zn24 1.924 . S
O36 C44 1.311 . S
O37 Zn28 1.977 . S
O37 C43 1.272 . S
O38 Zn28 1.910 . S
O38 C44 1.231 . S
C39 O23 1.225 . S
C39 O45 1.298 . S
C40 O29 1.226 . S
C40 O30 1.307 . S
C41 O33 1.303 . S
C41 O34 1.247 . S
C42 O31 1.253 . S
C42 O32 1.283 . S
C43 O35 1.304 . S
C43 O37 1.272 . S
C44 O36 1.311 . S
C44 O38 1.231 . S
O45 Zn27 1.953 . S
O45 C39 1.298 . S
H46 C51 0.929 . S
H47 C56 0.931 . S
H48 C54 0.930 . S
N49 N50 1.234 . S
N49 C53 1.453 . S
N50 N49 1.234 . S
C51 H46 0.929 . S
C51 C52 1.373 . S
C51 C53 1.368 1_465 S
C52 C51 1.373 . S
C52 C56 1.397 . S
C53 N49 1.453 . S
C53 C51 1.368 1_645 S
C53 C54 1.373 . S
C54 H48 0.930 . S
C54 C53 1.373 . S
C54 C55 1.374 1_655 S
C55 C54 1.374 1_455 S
C55 C56 1.379 1_545 S
C56 H47 0.931 . S
C56 C52 1.397 . S
C56 C55 1.379 1_565 S
H57 C62 0.929 . S
H58 C67 0.931 . S
H59 C65 0.930 . S
N60 N61 1.234 . S
N60 C64 1.453 . S
N61 N60 1.234 . S
C62 H57 0.929 . S
C62 C63 1.373 . S
C62 C64 1.368 1_665 S
C63 C62 1.373 . S
C63 C67 1.397 . S
C64 N60 1.453 . S
C64 C62 1.368 1_445 S
C64 C65 1.373 . S
C65 H59 0.930 . S
C65 C64 1.373 . S
C65 C66 1.371 1_455 S
C66 C65 1.371 1_655 S
C66 C67 1.383 1_545 S
C67 H58 0.931 . S
C67 C63 1.397 . S
C67 C66 1.383 1_565 S
H68 C73 0.929 . S
H69 C78 0.931 . S
H70 C76 0.930 . S
N71 N72 1.234 . S
N71 C75 1.453 . S
N72 N71 1.234 . S
C73 H68 0.929 . S
C73 C74 1.373 . S
C73 C75 1.368 . S
C74 C73 1.373 . S
C74 C78 1.397 . S
C75 N71 1.453 . S
C75 C73 1.368 . S
C75 C76 1.373 . S
C76 H70 0.930 . S
C76 C75 1.373 . S
C76 C77 1.371 . S
C77 C76 1.371 . S
C77 C78 1.383 . S
C78 H69 0.931 . S
C78 C74 1.397 . S
C78 C77 1.383 . S
H79 C84 0.929 . S
H80 C89 0.931 . S
H81 C87 0.930 . S
N82 N83 1.234 . S
N82 C86 1.453 . S
N83 N82 1.234 . S
C84 H79 0.929 . S
C84 C85 1.373 . S
C84 C86 1.368 . S
C85 C84 1.373 . S
C85 C89 1.397 . S
C86 N82 1.453 . S
C86 C84 1.368 . S
C86 C87 1.373 . S
C87 H81 0.930 . S
C87 C86 1.373 . S
C87 C88 1.371 . S
C88 C87 1.371 . S
C88 C89 1.383 . S
C89 H80 0.931 . S
C89 C85 1.397 . S
C89 C88 1.383 . S
H90 C102 0.930 . S
H91 C104 0.930 . S
H92 C105 0.930 . S
H93 C109 0.959 . S
H94 C109 0.959 . S
H95 C109 0.961 . S
H96 C110 0.960 . S
H97 C110 0.961 . S
H98 C110 0.959 . S
H99 C113 0.929 . S
H100 C114 0.931 . S
H101 C116 0.930 . S
C102 H90 0.930 . S
C102 C103 1.399 . S
C102 C107 1.399 . S
C103 C102 1.399 . S
C103 C104 1.376 . S
C104 H91 0.930 . S
C104 C103 1.376 . S
C104 C105 1.388 . S
C105 H92 0.930 . S
C105 C104 1.388 . S
C105 C106 1.390 . S
C106 C105 1.390 . S
C106 C107 1.394 . S
C106 C112 1.465 . S
C107 C102 1.399 . S
C107 C106 1.394 . S
C107 C108 1.516 . S
C108 C107 1.516 . S
C108 C109 1.502 . S
C108 C110 1.561 1_554 S
C108 C111 1.526 . S
C109 H93 0.959 . S
C109 H94 0.959 . S
C109 H95 0.961 . S
C109 C108 1.502 . S
C110 H96 0.960 . S
C110 H97 0.961 . S
C110 H98 0.959 . S
C110 C108 1.561 1_556 S
C111 C108 1.526 . S
C111 C112 1.396 . S
C111 C116 1.390 . S
C112 C106 1.465 . S
C112 C111 1.396 . S
C112 C113 1.399 . S
C113 H99 0.929 . S
C113 C112 1.399 . S
C113 C114 1.385 . S
C114 H100 0.931 . S
C114 C113 1.385 . S
C114 C115 1.389 . S
C115 C114 1.389 . S
C115 C116 1.387 . S
C116 H101 0.930 . S
C116 C111 1.390 . S
C116 C115 1.387 . S
H117 C129 0.930 . S
H118 C131 0.930 . S
H119 C132 0.930 . S
H120 C136 0.959 . S
H121 C136 0.959 . S
H122 C136 0.961 . S
H123 C137 0.960 . S
H124 C137 0.961 . S
H125 C137 0.959 . S
H126 C140 0.929 . S
H127 C141 0.920 1_554 S
H128 C143 0.930 . S
C129 H117 0.930 . S
C129 C130 1.399 . S
C129 C134 1.399 . S
C130 C129 1.399 . S
C130 C131 1.376 1_556 S
C131 H118 0.930 . S
C131 C130 1.376 1_554 S
C131 C132 1.388 . S
C132 H119 0.930 . S
C132 C131 1.388 . S
C132 C133 1.390 1_554 S
C133 C132 1.390 1_556 S
C133 C134 1.394 . S
C133 C139 1.465 . S
C134 C129 1.399 . S
C134 C133 1.394 . S
C134 C135 1.516 . S
C135 C134 1.516 . S
C135 C136 1.502 . S
C135 C137 1.561 . S
C135 C138 1.526 . S
C136 H120 0.959 . S
C136 H121 0.959 . S
C136 H122 0.961 . S
C136 C135 1.502 . S
C137 H123 0.960 . S
C137 H124 0.961 . S
C137 H125 0.959 . S
C137 C135 1.561 . S
C138 C135 1.526 . S
C138 C139 1.396 . S
C138 C143 1.390 . S
C139 C133 1.465 . S
C139 C138 1.396 . S
C139 C140 1.399 1_556 S
C140 H126 0.929 . S
C140 C139 1.399 1_554 S
C140 C141 1.385 1_554 S
C141 H127 0.920 1_556 S
C141 C140 1.385 1_556 S
C141 C142 1.389 . S
C142 C141 1.389 . S
C142 C143 1.387 . S
C143 H128 0.930 . S
C143 C138 1.390 . S
C143 C142 1.387 . S
H144 C156 0.930 . S
H145 C158 0.930 . S
H146 C159 0.930 . S
H147 C163 0.959 . S
H148 C163 0.959 . S
H149 C163 0.961 . S
H150 C164 0.960 . S
H151 C164 0.961 . S
H152 C164 0.959 . S
H153 C167 0.929 1_556 S
H154 C168 0.931 . S
H155 C170 0.930 . S
C156 H144 0.930 . S
C156 C157 1.399 . S
C156 C161 1.399 . S
C157 C156 1.399 . S
C157 C158 1.376 1_554 S
C158 H145 0.930 . S
C158 C157 1.376 1_556 S
C158 C159 1.388 . S
C159 H146 0.930 . S
C159 C158 1.388 . S
C159 C160 1.390 1_556 S
C160 C159 1.390 1_554 S
C160 C161 1.394 . S
C160 C166 1.465 . S
C161 C156 1.399 . S
C161 C160 1.394 . S
C161 C162 1.516 . S
C162 C161 1.516 . S
C162 C163 1.502 . S
C162 C164 1.561 . S
C162 C165 1.526 . S
C163 H147 0.959 . S
C163 H148 0.959 . S
C163 H149 0.961 . S
C163 C162 1.502 . S
C164 H150 0.960 . S
C164 H151 0.961 . S
C164 H152 0.959 . S
C164 C162 1.561 . S
C165 C162 1.526 . S
C165 C166 1.396 . S
C165 C170 1.390 . S
C166 C160 1.465 . S
C166 C165 1.396 . S
C166 C167 1.399 . S
C167 H153 0.929 1_554 S
C167 C166 1.399 . S
C167 C168 1.385 . S
C168 H154 0.931 . S
C168 C167 1.385 . S
C168 C169 1.389 . S
C169 C168 1.389 . S
C169 C170 1.387 . S
C170 H155 0.930 . S
C170 C165 1.390 . S
C170 C169 1.387 . S
H171 C183 0.930 . S
H172 C185 0.930 . S
H173 C186 0.930 . S
H174 C190 0.959 . S
H175 C190 0.959 . S
H176 C190 0.961 . S
H177 C191 0.960 . S
H178 C191 0.961 . S
H179 C191 0.959 . S
H180 C194 0.929 1_554 S
H181 C195 0.931 . S
H182 C197 0.930 . S
C183 H171 0.930 . S
C183 C184 1.399 . S
C183 C188 1.399 . S
C184 C183 1.399 . S
C184 C185 1.376 1_556 S
C185 H172 0.930 . S
C185 C184 1.376 1_554 S
C185 C186 1.388 . S
C186 H173 0.930 . S
C186 C185 1.388 . S
C186 C187 1.390 1_554 S
C187 C186 1.390 1_556 S
C187 C188 1.394 . S
C187 C193 1.465 . S
C188 C183 1.399 . S
C188 C187 1.394 . S
C188 C189 1.516 . S
C189 C188 1.516 . S
C189 C190 1.502 . S
C189 C191 1.561 . S
C189 C192 1.526 . S
C190 H174 0.959 . S
C190 H175 0.959 . S
C190 H176 0.961 . S
C190 C189 1.502 . S
C191 H177 0.960 . S
C191 H178 0.961 . S
C191 H179 0.959 . S
C191 C189 1.561 . S
C192 C189 1.526 . S
C192 C193 1.396 . S
C192 C197 1.390 . S
C193 C187 1.465 . S
C193 C192 1.396 . S
C193 C194 1.399 . S
C194 H180 0.929 1_556 S
C194 C193 1.399 . S
C194 C195 1.385 . S
C195 H181 0.931 . S
C195 C194 1.385 . S
C195 C196 1.389 . S
C196 C195 1.389 . S
C196 C197 1.387 . S
C197 H182 0.930 . S
C197 C192 1.390 . S
C197 C196 1.387 . S
H198 C210 0.930 . S
H199 C212 0.930 . S
H200 C213 0.930 . S
H201 C217 0.959 . S
H202 C217 0.959 . S
H203 C217 0.961 . S
H204 C218 0.960 . S
H205 C218 0.961 . S
H206 C218 0.959 . S
H207 C221 0.929 . S
H208 C222 0.931 . S
H209 C224 0.930 . S
C210 H198 0.930 . S
C210 C211 1.399 . S
C210 C215 1.399 . S
C211 C210 1.399 . S
C211 C212 1.376 . S
C212 H199 0.930 . S
C212 C211 1.376 . S
C212 C213 1.388 . S
C213 H200 0.930 . S
C213 C212 1.388 . S
C213 C214 1.390 . S
C214 C213 1.390 . S
C214 C215 1.394 . S
C214 C220 1.465 . S
C215 C210 1.399 . S
C215 C214 1.394 . S
C215 C216 1.516 . S
C216 C215 1.516 . S
C216 C217 1.502 . S
C216 C218 1.561 . S
C216 C219 1.526 . S
C217 H201 0.959 . S
C217 H202 0.959 . S
C217 H203 0.961 . S
C217 C216 1.502 . S
C218 H204 0.960 . S
C218 H205 0.961 . S
C218 H206 0.959 . S
C218 C216 1.561 . S
C219 C216 1.526 . S
C219 C220 1.396 . S
C219 C224 1.390 . S
C220 C214 1.465 . S
C220 C219 1.396 . S
C220 C221 1.399 . S
C221 H207 0.929 . S
C221 C220 1.399 . S
C221 C222 1.385 . S
C222 H208 0.931 . S
C222 C221 1.385 . S
C222 C223 1.389 . S
C223 C222 1.389 . S
C223 C224 1.387 . S
C224 H209 0.930 . S
C224 C219 1.390 . S
C224 C223 1.387 . S
H225 C237 0.930 . S
H226 C239 0.930 . S
H227 C240 0.930 . S
H228 C244 0.959 . S
H229 C244 0.959 . S
H230 C244 0.961 . S
H231 C245 0.960 . S
H232 C245 0.961 . S
H233 C245 0.959 . S
H234 C248 0.929 . S
H235 C249 0.931 . S
H236 C251 0.930 . S
C237 H225 0.930 . S
C237 C238 1.399 . S
C237 C242 1.399 . S
C238 C237 1.399 . S
C238 C239 1.376 . S
C239 H226 0.930 . S
C239 C238 1.376 . S
C239 C240 1.388 . S
C240 H227 0.930 . S
C240 C239 1.388 . S
C240 C241 1.390 . S
C241 C240 1.390 . S
C241 C242 1.394 . S
C241 C247 1.465 . S
C242 C237 1.399 . S
C242 C241 1.394 . S
C242 C243 1.516 . S
C243 C242 1.516 . S
C243 C244 1.502 . S
C243 C245 1.561 . S
C243 C246 1.526 . S
C244 H228 0.959 . S
C244 H229 0.959 . S
C244 H230 0.961 . S
C244 C243 1.502 . S
C245 H231 0.960 . S
C245 H232 0.961 . S
C245 H233 0.959 . S
C245 C243 1.561 . S
C246 C243 1.526 . S
C246 C247 1.396 . S
C246 C251 1.390 . S
C247 C241 1.465 . S
C247 C246 1.396 . S
C247 C248 1.399 . S
C248 H234 0.929 . S
C248 C247 1.399 . S
C248 C249 1.385 . S
C249 H235 0.931 . S
C249 C248 1.385 . S
C249 C250 1.389 . S
C250 C249 1.389 . S
C250 C251 1.387 . S
C251 H236 0.930 . S
C251 C246 1.390 . S
C251 C250 1.387 . S
H252 C264 0.930 . S
H253 C266 0.930 . S
H254 C267 0.930 . S
H255 C271 0.959 . S
H256 C271 0.959 . S
H257 C271 0.961 . S
H258 C272 0.960 . S
H259 C272 0.961 . S
H260 C272 0.959 . S
H261 C275 0.929 . S
H262 C276 0.931 . S
H263 C278 0.930 . S
C264 H252 0.930 . S
C264 C265 1.399 . S
C264 C269 1.399 . S
C265 C264 1.399 . S
C265 C266 1.376 . S
C266 H253 0.930 . S
C266 C265 1.376 . S
C266 C267 1.388 . S
C267 H254 0.930 . S
C267 C266 1.388 . S
C267 C268 1.390 . S
C268 C267 1.390 . S
C268 C269 1.394 . S
C268 C274 1.465 . S
C269 C264 1.399 . S
C269 C268 1.394 . S
C269 C270 1.516 . S
C270 C269 1.516 . S
C270 C271 1.502 . S
C270 C272 1.561 . S
C270 C273 1.526 . S
C271 H255 0.959 . S
C271 H256 0.959 . S
C271 H257 0.961 . S
C271 C270 1.502 . S
C272 H258 0.960 . S
C272 H259 0.961 . S
C272 H260 0.959 . S
C272 C270 1.561 . S
C273 C270 1.526 . S
C273 C274 1.396 . S
C273 C278 1.390 . S
C274 C268 1.465 . S
C274 C273 1.396 . S
C274 C275 1.399 . S
C275 H261 0.929 . S
C275 C274 1.399 . S
C275 C276 1.385 . S
C276 H262 0.931 . S
C276 C275 1.385 . S
C276 C277 1.389 . S
C277 C276 1.389 . S
C277 C278 1.387 . S
C278 H263 0.930 . S
C278 C273 1.390 . S
C278 C277 1.387 . S
H279 C291 0.930 . S
H280 C293 0.930 . S
H281 C294 0.930 . S
H282 C298 0.959 . S
H283 C298 0.959 . S
H284 C298 0.961 . S
H285 C299 0.960 . S
H286 C299 0.961 . S
H287 C299 0.959 . S
H288 C302 0.929 . S
H289 C303 0.931 . S
H290 C305 0.930 . S
C291 H279 0.930 . S
C291 C292 1.399 . S
C291 C296 1.399 . S
C292 C291 1.399 . S
C292 C293 1.376 . S
C293 H280 0.930 . S
C293 C292 1.376 . S
C293 C294 1.388 . S
C294 H281 0.930 . S
C294 C293 1.388 . S
C294 C295 1.390 . S
C295 C294 1.390 . S
C295 C296 1.394 . S
C295 C301 1.465 . S
C296 C291 1.399 . S
C296 C295 1.394 . S
C296 C297 1.516 . S
C297 C296 1.516 . S
C297 C298 1.502 . S
C297 C299 1.561 . S
C297 C300 1.526 . S
C298 H282 0.959 . S
C298 H283 0.959 . S
C298 H284 0.961 . S
C298 C297 1.502 . S
C299 H285 0.960 . S
C299 H286 0.961 . S
C299 H287 0.959 . S
C299 C297 1.561 . S
C300 C297 1.526 . S
C300 C301 1.396 . S
C300 C305 1.390 . S
C301 C295 1.465 . S
C301 C300 1.396 . S
C301 C302 1.399 . S
C302 H288 0.929 . S
C302 C301 1.399 . S
C302 C303 1.385 . S
C303 H289 0.931 . S
C303 C302 1.385 . S
C303 C304 1.389 . S
C304 C303 1.389 . S
C304 C305 1.387 . S
C305 H290 0.930 . S
C305 C300 1.390 . S
C305 C304 1.387 . S
H306 C318 0.930 . S
H307 C320 0.930 . S
H308 C321 0.930 . S
H309 C325 0.959 . S
H310 C325 0.959 . S
H311 C325 0.961 . S
H312 C326 0.956 1_455 S
H313 C326 0.961 1_455 S
H314 C326 0.959 . S
H315 C329 0.929 . S
H316 C330 0.931 . S
H317 C332 0.930 . S
C318 H306 0.930 . S
C318 C319 1.399 . S
C318 C323 1.399 . S
C319 C318 1.399 . S
C319 C320 1.376 1_445 S
C320 H307 0.930 . S
C320 C319 1.376 1_665 S
C320 C321 1.388 . S
C321 H308 0.930 . S
C321 C320 1.388 . S
C321 C322 1.390 1_655 S
C322 C321 1.390 1_455 S
C322 C323 1.394 1_565 S
C322 C328 1.465 1_455 S
C323 C318 1.399 . S
C323 C322 1.394 1_545 S
C323 C324 1.516 . S
C324 C323 1.516 . S
C324 C325 1.502 . S
C324 C326 1.561 1_455 S
C324 C327 1.526 . S
C325 H309 0.959 . S
C325 H310 0.959 . S
C325 H311 0.961 . S
C325 C324 1.502 . S
C326 H312 0.956 1_655 S
C326 H313 0.961 1_655 S
C326 H314 0.959 . S
C326 C324 1.561 1_655 S
C327 C324 1.526 . S
C327 C328 1.396 1_445 S
C327 C332 1.390 . S
C328 C322 1.465 1_655 S
C328 C327 1.396 1_665 S
C328 C329 1.399 . S
C329 H315 0.929 . S
C329 C328 1.399 . S
C329 C330 1.385 . S
C330 H316 0.931 . S
C330 C329 1.385 . S
C330 C331 1.385 1_665 S
C331 C330 1.385 1_445 S
C331 C332 1.390 . S
C332 H317 0.930 . S
C332 C327 1.390 . S
C332 C331 1.390 . S
H333 C345 0.930 . S
H334 C347 0.930 . S
H335 C348 0.930 . S
H336 C352 0.959 . S
H337 C352 0.959 . S
H338 C352 0.961 . S
H339 C353 0.960 . S
H340 C353 0.961 . S
H341 C353 0.959 . S
H342 C356 0.929 . S
H343 C357 0.931 . S
H344 C359 0.930 . S
C345 H333 0.930 . S
C345 C346 1.399 1_465 S
C345 C350 1.399 . S
C346 C345 1.399 1_645 S
C346 C347 1.376 . S
C347 H334 0.930 . S
C347 C346 1.376 . S
C347 C348 1.388 . S
C348 H335 0.930 . S
C348 C347 1.388 . S
C348 C349 1.390 . S
C349 C348 1.390 . S
C349 C350 1.394 1_645 S
C349 C355 1.465 . S
C350 C345 1.399 . S
C350 C349 1.394 1_465 S
C350 C351 1.516 . S
C351 C350 1.516 . S
C351 C352 1.502 . S
C351 C353 1.561 1_455 S
C351 C354 1.526 . S
C352 H336 0.959 . S
C352 H337 0.959 . S
C352 H338 0.961 . S
C352 C351 1.502 . S
C353 H339 0.960 . S
C353 H340 0.961 . S
C353 H341 0.959 . S
C353 C351 1.561 1_655 S
C354 C351 1.526 . S
C354 C355 1.396 1_465 S
C354 C359 1.390 . S
C355 C349 1.465 . S
C355 C354 1.396 1_645 S
C355 C356 1.399 . S
C356 H342 0.929 . S
C356 C355 1.399 . S
C356 C357 1.385 . S
C357 H343 0.931 . S
C357 C356 1.385 . S
C357 C358 1.389 . S
C358 C357 1.389 . S
C358 C359 1.387 1_645 S
C359 H344 0.930 . S
C359 C354 1.390 . S
C359 C358 1.387 1_465 S
H360 C372 0.930 . S
H361 C374 0.930 . S
H362 C375 0.930 . S
H363 C379 0.959 . S
H364 C379 0.959 . S
H365 C379 0.961 . S
H366 C380 0.960 . S
H367 C380 0.961 . S
H368 C380 0.959 . S
H369 C383 0.929 . S
H370 C384 0.931 . S
H371 C386 0.930 . S
C372 H360 0.930 . S
C372 C373 1.399 . S
C372 C377 1.399 . S
C373 C372 1.399 . S
C373 C374 1.376 . S
C374 H361 0.930 . S
C374 C373 1.376 . S
C374 C375 1.388 . S
C375 H362 0.930 . S
C375 C374 1.388 . S
C375 C376 1.390 . S
C376 C375 1.390 . S
C376 C377 1.394 . S
C376 C382 1.465 . S
C377 C372 1.399 . S
C377 C376 1.394 . S
C377 C378 1.516 . S
C378 C377 1.516 . S
C378 C379 1.502 . S
C378 C380 1.561 . S
C378 C381 1.526 . S
C379 H363 0.959 . S
C379 H364 0.959 . S
C379 H365 0.961 . S
C379 C378 1.502 . S
C380 H366 0.960 . S
C380 H367 0.961 . S
C380 H368 0.959 . S
C380 C378 1.561 . S
C381 C378 1.526 . S
C381 C382 1.396 . S
C381 C386 1.390 . S
C382 C376 1.465 . S
C382 C381 1.396 . S
C382 C383 1.399 . S
C383 H369 0.929 . S
C383 C382 1.399 . S
C383 C384 1.385 . S
C384 H370 0.931 . S
C384 C383 1.385 . S
C384 C385 1.389 . S
C385 C384 1.389 . S
C385 C386 1.387 . S
C386 H371 0.930 . S
C386 C381 1.390 . S
C386 C385 1.387 . S
H387 C399 0.930 . S
H388 C401 0.930 . S
H389 C402 0.930 . S
H390 C406 0.959 . S
H391 C406 0.959 . S
H392 C406 0.961 . S
H393 C407 0.960 . S
H394 C407 0.961 . S
H395 C407 0.959 . S
H396 C410 0.929 . S
H397 C411 0.931 . S
H398 C413 0.930 . S
C399 H387 0.930 . S
C399 C400 1.399 . S
C399 C404 1.399 . S
C400 C399 1.399 . S
C400 C401 1.376 . S
C401 H388 0.930 . S
C401 C400 1.376 . S
C401 C402 1.388 . S
C402 H389 0.930 . S
C402 C401 1.388 . S
C402 C403 1.390 . S
C403 C402 1.390 . S
C403 C404 1.394 . S
C403 C409 1.465 . S
C404 C399 1.399 . S
C404 C403 1.394 . S
C404 C405 1.516 . S
C405 C404 1.516 . S
C405 C406 1.502 . S
C405 C407 1.561 . S
C405 C408 1.526 . S
C406 H390 0.959 . S
C406 H391 0.959 . S
C406 H392 0.961 . S
C406 C405 1.502 . S
C407 H393 0.960 . S
C407 H394 0.961 . S
C407 H395 0.959 . S
C407 C405 1.561 . S
C408 C405 1.526 . S
C408 C409 1.396 . S
C408 C413 1.390 . S
C409 C403 1.465 . S
C409 C408 1.396 . S
C409 C410 1.399 . S
C410 H396 0.929 . S
C410 C409 1.399 . S
C410 C411 1.385 . S
C411 H397 0.931 . S
C411 C410 1.385 . S
C411 C412 1.389 . S
C412 C411 1.389 . S
C412 C413 1.387 . S
C413 H398 0.930 . S
C413 C408 1.390 . S
C413 C412 1.387 . S
C115 C85 1.503 . S
C103 C21 1.521 . S
C130 C19 1.396 . S
C142 N72 1.416 . S
C157 C18 1.368 . S
C169 N83 1.398 . S
C184 C20 1.492 . S
C196 C74 1.511 . S
C211 C44 1.525 . S
C223 C63 1.495 . S
C238 C42 1.418 . S
C250 N50 1.354 . S
C277 N61 1.396 . S
C265 C41 1.372 . S
C304 C52 1.484 . S
C292 C43 1.493 . S
C319 C16 1.516 . S
C331 C55 1.509 . S
C346 C17 1.482 . S
C358 C66 1.483 . S
C385 C77 1.508 . S
C373 C39 1.516 . S
C400 C40 1.483 . S
C412 C88 1.483 . S
