# Generated by pormake.
# Topology pyr, (3,6)-cn, num edge types: 1
# Building blocks:
#     Node 0, Type 0, BuildingBlock: BETDIP_clean_linker_0, # of connection points: 3
#     Node 1, Type 0, BuildingBlock: BETDIP_clean_linker_0, # of connection points: 3
#     Node 2, Type 0, BuildingBlock: BETDIP_clean_linker_0, # of connection points: 3
#     Node 3, Type 0, BuildingBlock: BETDIP_clean_linker_0, # of connection points: 3
#     Node 4, Type 0, BuildingBlock: BETDIP_clean_linker_0, # of connection points: 3
#     Node 5, Type 0, BuildingBlock: BETDIP_clean_linker_0, # of connection points: 3
#     Node 6, Type 0, BuildingBlock: BETDIP_clean_linker_0, # of connection points: 3
#     Node 7, Type 0, BuildingBlock: BETDIP_clean_linker_0, # of connection points: 3
#     Node 8, Type 1, BuildingBlock: LEVNOQ01_clean_sbu_1, # of connection points: 6
#     Node 9, Type 1, BuildingBlock: LEVNOQ01_clean_sbu_1, # of connection points: 6
#     Node 10, Type 1, BuildingBlock: LEVNOQ01_clean_sbu_1, # of connection points: 6
#     Node 11, Type 1, BuildingBlock: LEVNOQ01_clean_sbu_1, # of connection points: 6
#     Edge 12, Type (0, 1), BuildingBlock: UVAHIK_clean_linker_0, # of connection points: 2
#     Edge 13, Type (0, 1), BuildingBlock: UVAHIK_clean_linker_0, # of connection points: 2
#     Edge 14, Type (0, 1), BuildingBlock: UVAHIK_clean_linker_0, # of connection points: 2
#     Edge 15, Type (0, 1), BuildingBlock: UVAHIK_clean_linker_0, # of connection points: 2
#     Edge 16, Type (0, 1), BuildingBlock: UVAHIK_clean_linker_0, # of connection points: 2
#     Edge 17, Type (0, 1), BuildingBlock: UVAHIK_clean_linker_0, # of connection points: 2
#     Edge 18, Type (0, 1), BuildingBlock: UVAHIK_clean_linker_0, # of connection points: 2
#     Edge 19, Type (0, 1), BuildingBlock: UVAHIK_clean_linker_0, # of connection points: 2
#     Edge 20, Type (0, 1), BuildingBlock: UVAHIK_clean_linker_0, # of connection points: 2
#     Edge 21, Type (0, 1), BuildingBlock: UVAHIK_clean_linker_0, # of connection points: 2
#     Edge 22, Type (0, 1), BuildingBlock: UVAHIK_clean_linker_0, # of connection points: 2
#     Edge 23, Type (0, 1), BuildingBlock: UVAHIK_clean_linker_0, # of connection points: 2
#     Edge 24, Type (0, 1), BuildingBlock: UVAHIK_clean_linker_0, # of connection points: 2
#     Edge 25, Type (0, 1), BuildingBlock: UVAHIK_clean_linker_0, # of connection points: 2
#     Edge 26, Type (0, 1), BuildingBlock: UVAHIK_clean_linker_0, # of connection points: 2
#     Edge 27, Type (0, 1), BuildingBlock: UVAHIK_clean_linker_0, # of connection points: 2
#     Edge 28, Type (0, 1), BuildingBlock: UVAHIK_clean_linker_0, # of connection points: 2
#     Edge 29, Type (0, 1), BuildingBlock: UVAHIK_clean_linker_0, # of connection points: 2
#     Edge 30, Type (0, 1), BuildingBlock: UVAHIK_clean_linker_0, # of connection points: 2
#     Edge 31, Type (0, 1), BuildingBlock: UVAHIK_clean_linker_0, # of connection points: 2
#     Edge 32, Type (0, 1), BuildingBlock: UVAHIK_clean_linker_0, # of connection points: 2
#     Edge 33, Type (0, 1), BuildingBlock: UVAHIK_clean_linker_0, # of connection points: 2
#     Edge 34, Type (0, 1), BuildingBlock: UVAHIK_clean_linker_0, # of connection points: 2
#     Edge 35, Type (0, 1), BuildingBlock: UVAHIK_clean_linker_0, # of connection points: 2
# Relax obj value: 0.081
# Max RMSD: 0.174
# Mean RMSD: 0.137
data_MOF--net-pry--node1-LEVNOQ01_clean_sbu_1--node2-BETDIP_clean_linker_0--edge1-UVAHIK_clean_linker_0
_symmetry_space_group_name_H-M    P1
_symmetry_Int_Tables_number       1
_symmetry_cell_setting            triclinic
loop_
_symmetry_equiv_pos_as_xyz
'x, y, z'
_cell_length_a     47.397948
_cell_length_b     45.094311
_cell_length_c     47.245233
_cell_angle_alpha  95.450628
_cell_angle_beta   87.271653
_cell_angle_gamma 100.25686
loop_
_atom_site_label
_atom_site_type_symbol
_atom_site_fract_x
_atom_site_fract_y
_atom_site_fract_z
_atom_type_partial_charge
H0 H 0.10514 0.14747 0.17184 0.0
H1 H 0.16842 0.14673 0.10396 0.0
H2 H 0.17396 0.0975 0.17663 0.0
H3 H 0.16066 0.19717 0.10563 0.0
C4 C 0.13737 0.19379 0.10708 0.0
C5 C 0.12445 0.14003 0.16291 0.0
C6 C 0.1379 0.12081 0.1775 0.0
C7 C 0.13589 0.15029 0.13697 0.0
C8 C 0.16043 0.13998 0.12463 0.0
C9 C 0.17414 0.12032 0.13849 0.0
C10 C 0.16283 0.11132 0.1651 0.0
N11 N 0.12232 0.17104 0.12384 0.0
H12 H 0.36555 0.92889 0.66276 0.0
H13 H 0.36531 0.85876 0.59434 0.0
H14 H 0.42331 0.8649 0.66246 0.0
H15 H 0.31576 0.85966 0.6024 0.0
C16 C 0.31638 0.88385 0.60217 0.0
C17 C 0.3745 0.90993 0.65256 0.0
C18 C 0.39619 0.89907 0.66574 0.0
C19 C 0.36269 0.89502 0.6273 0.0
C20 C 0.37391 0.87017 0.61412 0.0
C21 C 0.39581 0.85946 0.62671 0.0
C22 C 0.40672 0.87371 0.65257 0.0
N23 N 0.33871 0.90448 0.6162 0.0
H24 H 0.6605 0.45096 0.87318 0.0
H25 H 0.58993 0.37624 0.8628 0.0
H26 H 0.65536 0.37397 0.92144 0.0
H27 H 0.57055 0.4057 0.83845 0.0
C28 C 0.58838 0.42034 0.82885 0.0
C29 C 0.64889 0.42954 0.87949 0.0
C30 C 0.66063 0.41416 0.89919 0.0
C31 C 0.62322 0.4163 0.86627 0.0
C32 C 0.60915 0.38753 0.87333 0.0
C33 C 0.62039 0.37243 0.89359 0.0
C34 C 0.64596 0.38604 0.90656 0.0
N35 N 0.61397 0.43094 0.84392 0.0
H36 H 0.85372 0.5529 0.39049 0.0
H37 H 0.93208 0.61856 0.39379 0.0
H38 H 0.86417 0.62727 0.45518 0.0
H39 H 0.94477 0.59549 0.35459 0.0
C40 C 0.92652 0.58014 0.34558 0.0
C41 C 0.86713 0.57245 0.40101 0.0
C42 C 0.85609 0.58863 0.42447 0.0
C43 C 0.89445 0.583 0.38942 0.0
C44 C 0.91113 0.60947 0.40232 0.0
C45 C 0.90048 0.62507 0.42641 0.0
C46 C 0.87303 0.61446 0.43738 0.0
N47 N 0.90281 0.56843 0.36315 0.0
H48 H 0.83638 0.8787 0.92718 0.0
H49 H 0.89623 0.86919 0.85682 0.0
H50 H 0.83229 0.92447 0.85171 0.0
H51 H 0.92165 0.85327 0.88843 0.0
C52 C 0.90667 0.84217 0.90383 0.0
C53 C 0.84463 0.88444 0.90625 0.0
C54 C 0.83132 0.90338 0.89115 0.0
C55 C 0.86823 0.87215 0.89441 0.0
C56 C 0.87862 0.87895 0.86685 0.0
C57 C 0.86548 0.89756 0.85135 0.0
C58 C 0.84194 0.90964 0.86358 0.0
N59 N 0.87993 0.85196 0.91023 0.0
H60 H 0.64753 0.10105 0.36867 0.0
H61 H 0.64843 0.17007 0.43837 0.0
H62 H 0.59402 0.16841 0.36771 0.0
H63 H 0.67113 0.1394 0.46116 0.0
C64 C 0.68343 0.12871 0.44446 0.0
C65 C 0.63941 0.1205 0.37898 0.0
C66 C 0.61922 0.13295 0.36539 0.0
C67 C 0.65013 0.13357 0.40529 0.0
C68 C 0.63991 0.15919 0.41843 0.0
C69 C 0.61961 0.17193 0.405 0.0
C70 C 0.60956 0.15875 0.37835 0.0
N71 N 0.67263 0.12165 0.41659 0.0
H72 H 0.34045 0.60631 0.17009 0.0
H73 H 0.41123 0.67931 0.18478 0.0
H74 H 0.35744 0.67704 0.11349 0.0
H75 H 0.42841 0.62981 0.19924 0.0
C76 C 0.4102 0.62811 0.21424 0.0
C77 C 0.3536 0.62683 0.16343 0.0
C78 C 0.34679 0.63941 0.13915 0.0
C79 C 0.37727 0.64059 0.17934 0.0
C80 C 0.39378 0.66783 0.17161 0.0
C81 C 0.38665 0.68119 0.14788 0.0
C82 C 0.36363 0.66638 0.1313 0.0
N83 N 0.38239 0.6282 0.20461 0.0
H84 H 0.0587 0.37773 0.6352 0.0
H85 H 0.13084 0.45047 0.64073 0.0
H86 H 0.12783 0.37929 0.57292 0.0
H87 H 0.09425 0.47521 0.67032 0.0
C88 C 0.09055 0.45486 0.68153 0.0
C89 C 0.07888 0.389 0.62637 0.0
C90 C 0.09116 0.37605 0.60175 0.0
C91 C 0.09276 0.41602 0.64023 0.0
C92 C 0.11947 0.43011 0.62952 0.0
C93 C 0.13235 0.41699 0.60519 0.0
C94 C 0.11771 0.39026 0.59109 0.0
N95 N 0.08105 0.42627 0.66673 0.0
O96 O 0.01209 0.01484 0.59142 0.0
Mg97 Mg 0.04047 0.03915 0.56285 0.0
O98 O 0.98417 0.98708 0.55891 0.0
Mg99 Mg 0.00161 0.00275 0.51341 0.0
O100 O 0.01909 0.0506 0.53061 0.0
O101 O 0.04361 0.08493 0.56135 0.0
O102 O 0.021 0.0197 0.46789 0.0
O103 O 0.95848 0.02122 0.50985 0.0
Mg104 Mg 0.97615 0.97426 0.46456 0.0
O105 O 0.98215 0.95308 0.49982 0.0
O106 O 0.01158 0.9803 0.43654 0.0
O107 O 0.94925 0.00649 0.4651 0.0
O108 O 0.95245 0.9323 0.46467 0.0
C109 C 0.07007 0.99495 0.52811 0.0
C110 C 0.99104 0.99407 0.58493 0.0
C111 C 0.02827 0.07856 0.53903 0.0
C112 C 0.02502 0.00667 0.44301 0.0
C113 C 0.94404 0.02182 0.48788 0.0
C114 C 0.96538 0.93005 0.48756 0.0
O115 O 0.074 0.01854 0.54526 0.0
O116 O 0.04565 0.98489 0.51705 0.0
O117 O 0.46214 0.07616 0.04249 0.0
Mg118 Mg 0.50638 0.07942 0.04241 0.0
O119 O 0.45894 0.02772 0.02805 0.0
Mg120 Mg 0.50696 0.01912 0.01523 0.0
O121 O 0.52573 0.06893 0.00404 0.0
O122 O 0.52729 0.11616 0.02518 0.0
O123 O 0.55375 0.00898 1.0017 0.0
O124 O 0.49271 0.01202 0.96708 0.0
Mg125 Mg 0.50568 0.95104 0.9876 0.0
O126 O 0.48961 0.97031 0.02413 0.0
O127 O 0.55074 0.96014 0.98715 0.0
O128 O 0.48745 0.96316 0.95192 0.0
O129 O 0.48278 0.92046 0.01326 0.0
C130 C 0.52928 0.04625 0.08257 0.0
C131 C 0.44701 0.05055 0.03644 0.0
C132 C 0.53373 0.09814 0.00397 0.0
C133 C 0.56552 0.98619 0.99272 0.0
C134 C 0.48597 0.99018 0.94785 0.0
C135 C 0.47912 0.9433 0.03079 0.0
O136 O 0.52589 0.07266 0.07883 0.0
O137 O 0.52258 0.02453 0.0633 0.0
O138 O 0.47978 0.57386 0.5712 0.0
Mg139 Mg 0.47957 0.53125 0.58573 0.0
O140 O 0.4859 0.5592 0.52534 0.0
Mg141 Mg 0.49632 0.50961 0.52013 0.0
O142 O 0.51105 0.51201 0.56534 0.0
O143 O 0.51054 0.52334 0.61203 0.0
O144 O 0.50648 0.45963 0.5142 0.0
O145 O 0.54364 0.52926 0.50985 0.0
Mg146 Mg 0.51604 0.49165 0.45537 0.0
O147 O 0.48245 0.50879 0.47442 0.0
O148 O 0.51451 0.44809 0.46794 0.0
O149 O 0.55414 0.52335 0.46359 0.0
O150 O 0.48652 0.49906 0.42754 0.0
C151 C 0.43288 0.48697 0.55468 0.0
C152 C 0.48123 0.57918 0.54526 0.0
C153 C 0.52225 0.51139 0.5896 0.0
C154 C 0.51161 0.44083 0.49331 0.0
C155 C 0.56104 0.53376 0.48868 0.0
C156 C 0.47284 0.50958 0.44938 0.0
O157 O 0.44163 0.49969 0.57859 0.0
O158 O 0.44864 0.48954 0.53197 0.0
O159 O 0.03479 0.47455 0.07222 0.0
Mg160 Mg 0.02734 0.51924 0.08299 0.0
O161 O 0.01868 0.46736 0.0281 0.0
Mg162 Mg 0.00609 0.51407 0.01843 0.0
O163 O 0.99137 0.52354 0.06376 0.0
O164 O 0.99436 0.52896 0.11064 0.0
O165 O 0.99429 0.5616 0.00936 0.0
O166 O 0.95839 0.49005 0.01301 0.0
Mg167 Mg 0.98529 0.51244 0.95602 0.0
O168 O 0.02097 0.50268 0.9725 0.0
O169 O 0.98437 0.55885 0.96358 0.0
O170 O 0.94884 0.4818 0.9672 0.0
O171 O 0.01343 0.49875 0.92587 0.0
C172 C 0.06863 0.55427 0.04478 0.0
C173 C 0.02964 0.45793 0.04914 0.0
C174 C 0.97975 0.52933 0.08838 0.0
C175 C 0.98777 0.57375 0.98765 0.0
C176 C 0.9416 0.47862 0.993 0.0
C177 C 0.02944 0.49623 0.94655 0.0
O178 O 0.05978 0.5539 0.0705 0.0
O179 O 0.05378 0.53899 0.0247 0.0
C180 C 0.12722 0.08157 0.21303 0.0
C181 C 0.12628 0.11093 0.20581 0.0
C182 C 0.11702 0.07239 0.23966 0.0
C183 C 0.09848 0.10148 0.31344 0.0
H184 H 0.05951 0.01876 0.31743 0.0
C185 C 0.04171 0.05328 0.4169 0.0
C186 C 0.04239 0.02276 0.42029 0.0
C187 C 0.05343 0.06627 0.39205 0.0
C188 C 0.0707 0.04184 0.31687 0.0
H189 H 0.11371 0.15367 0.22146 0.0
H190 H 0.0951 0.13731 0.26757 0.0
H191 H 0.07555 0.03664 0.27157 0.0
H192 H 0.05779 0.98273 0.40146 0.0
H193 H 0.07918 0.0055 0.35906 0.0
H194 H 0.09331 0.10653 0.35899 0.0
C195 C 0.10421 0.12152 0.2527 0.0
C196 C 0.07992 0.05214 0.29042 0.0
C197 C 0.11455 0.13077 0.22603 0.0
C198 C 0.05667 0.0062 0.39933 0.0
C199 C 0.06867 0.01921 0.37485 0.0
C200 C 0.08917 0.09112 0.34004 0.0
C201 C 0.10532 0.09218 0.25992 0.0
C202 C 0.0943 0.08197 0.28827 0.0
C203 C 0.06625 0.04902 0.37026 0.0
C204 C 0.07554 0.06097 0.34214 0.0
H205 H 0.13571 0.06545 0.198 0.0
H206 H 0.11865 0.04976 0.24447 0.0
H207 H 0.10961 0.12456 0.3127 0.0
H208 H 0.03061 0.06652 0.43259 0.0
H209 H 0.05113 0.08928 0.38931 0.0
C210 C 0.40972 0.8944 0.71559 0.0
C211 C 0.40656 0.9129 0.69405 0.0
C212 C 0.41924 0.9071 0.74231 0.0
C213 C 0.42738 0.97772 0.79044 0.0
H214 H 0.47978 0.93833 0.82781 0.0
C215 C 0.45232 -0.00222 0.91118 0.0
C216 C 0.4801 0.99568 0.91872 0.0
C217 C 0.44479 0.99325 0.88251 0.0
C218 C 0.46544 0.9499 0.81758 0.0
H219 H 0.41088 0.95934 0.68375 0.0
H220 H 0.42792 0.98164 0.73046 0.0
H221 H 0.464 0.91876 0.78043 0.0
H222 H 0.52216 0.9888 0.90266 0.0
H223 H 0.50939 0.98166 0.85277 0.0
H224 H 0.429 0.00893 0.82787 0.0
C225 C 0.42262 0.95725 0.72675 0.0
C226 C 0.45606 0.93839 0.79051 0.0
C227 C 0.41295 0.94449 0.69997 0.0
C228 C 0.50071 0.991 0.89723 0.0
C229 C 0.49326 0.98648 0.86873 0.0
C230 C 0.43673 0.98923 0.81768 0.0
C231 C 0.426 0.93869 0.74822 0.0
C232 C 0.43672 0.95195 0.77665 0.0
C233 C 0.4649 0.98623 0.8611 0.0
C234 C 0.45582 0.97538 0.8316 0.0
H235 H 0.40439 0.86999 0.71192 0.0
H236 H 0.42097 0.8921 0.7585 0.0
H237 H 0.41233 0.98861 0.78047 0.0
H238 H 0.43595 0.00067 0.9275 0.0
H239 H 0.42273 0.99307 0.87736 0.0
C240 C 0.60574 0.44831 0.78626 0.0
C241 C 0.58755 0.42447 0.79837 0.0
C242 C 0.6051 0.45141 0.75715 0.0
C243 C 0.5584 0.42706 0.69536 0.0
H244 H 0.62518 0.46632 0.65401 0.0
C245 C 0.54099 0.4639 0.58961 0.0
C246 C 0.54605 0.49559 0.59323 0.0
C247 C 0.55517 0.44767 0.60644 0.0
C248 C 0.60652 0.45478 0.66514 0.0
H249 H 0.55504 0.3848 0.78988 0.0
H250 H 0.55471 0.38923 0.73894 0.0
H251 H 0.63012 0.4528 0.7022 0.0
H252 H 0.57287 0.53523 0.61301 0.0
H253 H 0.59819 0.50713 0.64168 0.0
H254 H 0.53469 0.42969 0.65872 0.0
C255 C 0.56882 0.40623 0.75181 0.0
C256 C 0.60919 0.44744 0.6929 0.0
C257 C 0.56901 0.40358 0.78098 0.0
C258 C 0.56877 0.51073 0.60992 0.0
C259 C 0.58322 0.49457 0.62639 0.0
C260 C 0.55585 0.43393 0.66756 0.0
C261 C 0.58667 0.43034 0.73948 0.0
C262 C 0.58493 0.43443 0.70872 0.0
C263 C 0.57467 0.46313 0.62667 0.0
C264 C 0.57965 0.44877 0.65248 0.0
H265 H 0.62015 0.46482 0.79933 0.0
H266 H 0.61866 0.47069 0.74869 0.0
H267 H 0.53909 0.41757 0.70683 0.0
H268 H 0.5234 0.45183 0.57692 0.0
H269 H 0.5485 0.42337 0.606 0.0
C270 C 0.90593 0.55366 0.30033 0.0
C271 C 0.92307 0.57857 0.31469 0.0
C272 C 0.90198 0.55308 0.27114 0.0
C273 C 0.93481 0.59016 0.20766 0.0
H274 H 0.86821 0.54176 0.1712 0.0
C275 C 0.94772 0.5664 0.09438 0.0
C276 C 0.95071 0.53593 0.09236 0.0
C277 C 0.9293 0.57711 0.11533 0.0
C278 C 0.8866 0.55595 0.18115 0.0
H279 H 0.94875 0.62274 0.31055 0.0
H280 H 0.94069 0.62272 0.26011 0.0
H281 H 0.86869 0.55012 0.22312 0.0
H282 H 0.93266 0.49162 0.10522 0.0
H283 H 0.90054 0.51002 0.14154 0.0
H284 H 0.95306 0.59544 0.16608 0.0
C285 C 0.9312 0.60295 0.27076 0.0
C286 C 0.88716 0.56034 0.21089 0.0
C287 C 0.93582 0.60308 0.2997 0.0
C288 C 0.93072 0.51532 0.10668 0.0
C289 C 0.91232 0.52596 0.12761 0.0
C290 C 0.93399 0.58633 0.17815 0.0
C291 C 0.91451 0.57779 0.25593 0.0
C292 C 0.91176 0.5766 0.22453 0.0
C293 C 0.91417 0.55727 0.13429 0.0
C294 C 0.91035 0.56831 0.16452 0.0
H295 H 0.89593 0.53446 0.31158 0.0
H296 H 0.88958 0.53299 0.2605 0.0
H297 H 0.95442 0.60225 0.21705 0.0
H298 H 0.9629 0.58264 0.08334 0.0
H299 H 0.93052 0.60133 0.11962 0.0
C300 C 0.20569 0.08036 0.12902 0.0
C301 C 0.2005 0.10962 0.12556 0.0
C302 C 0.23085 0.07077 0.11782 0.0
C303 C 0.30464 0.10183 0.09144 0.0
H304 H 0.30624 0.01888 0.06178 0.0
C305 C 0.40358 0.07243 0.03042 0.0
C306 C 0.41547 0.04861 0.03933 0.0
C307 C 0.3757 0.07605 0.03878 0.0
C308 C 0.30612 0.04206 0.07018 0.0
H309 H 0.21811 0.15148 0.10703 0.0
H310 H 0.26098 0.13444 0.08655 0.0
H311 H 0.261 0.03331 0.08059 0.0
H312 H 0.40681 0.00868 0.06255 0.0
H313 H 0.35746 0.01502 0.07739 0.0
H314 H 0.34947 0.11075 0.08073 0.0
C315 C 0.24598 0.11904 0.09859 0.0
C316 C 0.28021 0.05038 0.08105 0.0
C317 C 0.221 0.12872 0.11001 0.0
C318 C 0.39806 0.02707 0.05515 0.0
C319 C 0.36991 0.03081 0.06374 0.0
C320 C 0.33029 0.09361 0.08041 0.0
C321 C 0.25152 0.09006 0.10262 0.0
C322 C 0.27905 0.08053 0.09157 0.0
C323 C 0.35892 0.05612 0.05657 0.0
C324 C 0.33137 0.06375 0.0693 0.0
H325 H 0.19027 0.0647 0.1404 0.0
H326 H 0.23429 0.0484 0.12161 0.0
H327 H 0.30502 0.125 0.10011 0.0
H328 H 0.41646 0.08927 0.01807 0.0
H329 H 0.36769 0.09533 0.03228 0.0
C330 C 0.29272 0.92461 0.58593 0.0
C331 C 0.29163 0.89425 0.5909 0.0
C332 C 0.26897 0.9339 0.57529 0.0
C333 C 0.19935 0.90445 0.53996 0.0
H334 H 0.18293 0.98335 0.56798 0.0
C335 C 0.09171 0.94806 0.52719 0.0
C336 C 0.09454 0.97885 0.52294 0.0
C337 C 0.11619 0.93549 0.53099 0.0
C338 C 0.18739 0.96137 0.55967 0.0
H339 H 0.26514 0.84979 0.58875 0.0
H340 H 0.22329 0.86607 0.57125 0.0
H341 H 0.22449 0.96646 0.58476 0.0
H342 H 0.12478 0.01989 0.5166 0.0
H343 H 0.16726 -0.00211 0.52239 0.0
H344 H 0.16142 0.89929 0.51552 0.0
C345 C 0.24261 0.88266 0.57474 0.0
C346 C 0.21133 0.9517 0.56924 0.0
C347 C 0.26649 0.87335 0.58499 0.0
C348 C 0.12208 0.99609 0.51995 0.0
C349 C 0.14636 0.98359 0.52355 0.0
C350 C 0.17513 0.91407 0.53059 0.0
C351 C 0.24348 0.91309 0.56976 0.0
C352 C 0.2178 0.92319 0.55941 0.0
C353 C 0.14365 0.95362 0.53051 0.0
C354 C 0.16909 0.94277 0.54016 0.0
H355 H 0.31198 0.94115 0.59 0.0
H356 H 0.27071 0.95739 0.5712 0.0
H357 H 0.20379 0.88249 0.53166 0.0
H358 H 0.07066 0.93446 0.52995 0.0
H359 H 0.11348 0.91229 0.53631 0.0
C360 C 0.71007 0.40575 0.90529 0.0
C361 C 0.68981 0.42503 0.90963 0.0
C362 C 0.73692 0.41393 0.91711 0.0
C363 C 0.77448 0.45862 0.97635 0.0
H364 H 0.84132 0.44024 0.93233 0.0
C365 C 0.89366 0.48682 0.01097 0.0
C366 C 0.91138 0.46673 0.99905 0.0
C367 C 0.86439 0.48121 0.0053 0.0
C368 C 0.82278 0.44506 0.94506 0.0
H369 H 0.68176 0.46839 0.92878 0.0
H370 H 0.7294 0.48297 0.94984 0.0
H371 H 0.79599 0.43566 0.90912 0.0
H372 H 0.9124 0.42346 0.97543 0.0
H373 H 0.8611 0.4127 0.96696 0.0
H374 H 0.80167 0.468 0.0124 0.0
C375 C 0.72419 0.46139 0.93739 0.0
C376 C 0.7969 0.44272 0.93168 0.0
C377 C 0.69717 0.45323 0.92524 0.0
C378 C 0.89902 0.43915 0.98487 0.0
C379 C 0.86979 0.43329 0.97968 0.0
C380 C 0.8006 0.46105 0.98984 0.0
C381 C 0.74417 0.44161 0.93359 0.0
C382 C 0.77231 0.44872 0.94726 0.0
C383 C 0.85269 0.45531 0.98793 0.0
C384 C 0.82479 0.45348 0.97441 0.0
H385 H 0.70489 0.38396 0.89315 0.0
H386 H 0.75174 0.39808 0.91404 0.0
H387 H 0.75576 0.46328 0.98886 0.0
H388 H 0.90294 0.50845 0.02166 0.0
H389 H 0.8517 0.49851 0.01206 0.0
C390 C 0.8083 0.60327 0.4322 0.0
C391 C 0.82573 0.58143 0.43351 0.0
C392 C 0.78029 0.59845 0.44317 0.0
C393 C 0.72156 0.53955 0.4661 0.0
H394 H 0.69247 0.60974 0.5018 0.0
C395 C 0.60637 0.5328 0.51204 0.0
C396 C 0.59115 0.54648 0.49371 0.0
C397 C 0.6363 0.53912 0.51158 0.0
C398 C 0.70052 0.58997 0.49221 0.0
H399 H 0.82776 0.53707 0.44623 0.0
H400 H 0.77853 0.52862 0.46623 0.0
H401 H 0.74286 0.61466 0.48629 0.0
H402 H 0.59444 0.57914 0.46249 0.0
H403 H 0.64695 0.59152 0.46281 0.0
H404 H 0.67898 0.515 0.47221 0.0
C405 C 0.78643 0.5494 0.45645 0.0
C406 C 0.72918 0.59275 0.48302 0.0
C407 C 0.81451 0.55414 0.44507 0.0
C408 C 0.60591 0.5685 0.47682 0.0
C409 C 0.63577 0.57553 0.47704 0.0
C410 C 0.69302 0.53668 0.47581 0.0
C411 C 0.76922 0.57182 0.45611 0.0
C412 C 0.73979 0.5678 0.46899 0.0
C413 C 0.65113 0.55988 0.49346 0.0
C414 C 0.68219 0.56204 0.48822 0.0
H415 H 0.81654 0.62433 0.42296 0.0
H416 H 0.76737 0.61572 0.44161 0.0
H417 H 0.72891 0.51997 0.45519 0.0
H418 H 0.59528 0.51546 0.52499 0.0
H419 H 0.64787 0.52677 0.52427 0.0
C420 C 0.09365 0.21216 0.09142 0.0
C421 C 0.12304 0.21754 0.09731 0.0
C422 C 0.08069 0.23541 0.08275 0.0
C423 C 0.08581 0.31614 0.09357 0.0
H424 H 0.04957 0.31617 0.02163 0.0
C425 C 0.06568 0.42681 0.05828 0.0
C426 C 0.03917 0.42821 0.04694 0.0
C427 C 0.0738 0.3991 0.06125 0.0
C428 C 0.05923 0.31632 0.04197 0.0
H429 H 0.1619 0.25107 0.09845 0.0
H430 H 0.13911 0.29184 0.08461 0.0
H431 H 0.06687 0.27054 0.0334 0.0
H432 H 0.00096 0.40158 0.02817 0.0
H433 H 0.015 0.35238 0.0339 0.0
H434 H 0.07821 0.36133 0.10265 0.0
C435 C 0.1262 0.26963 0.08618 0.0
C436 C 0.06914 0.29026 0.04866 0.0
C437 C 0.13922 0.24633 0.09409 0.0
C438 C 0.02154 0.4011 0.03698 0.0
C439 C 0.02958 0.37301 0.04032 0.0
C440 C 0.07569 0.34184 0.08712 0.0
C441 C 0.09681 0.26451 0.08056 0.0
C442 C 0.08317 0.29029 0.07425 0.0
C443 C 0.05542 0.37177 0.05348 0.0
C444 C 0.06307 0.34272 0.06089 0.0
H445 H 0.08074 0.19006 0.09348 0.0
H446 H 0.05798 0.23094 0.07861 0.0
H447 H 0.09611 0.31659 0.11363 0.0
H448 H 0.07994 0.44734 0.0657 0.0
H449 H 0.09429 0.39916 0.07048 0.0
C450 C 0.60386 0.33346 0.92779 0.0
C451 C 0.60712 0.34132 0.89963 0.0
C452 C 0.59438 0.30347 0.93349 0.0
C453 C 0.59346 0.22614 0.90229 0.0
H454 H 0.54046 0.20573 0.96543 0.0
C455 C 0.53325 0.11346 0.95523 0.0
C456 C 0.54872 0.11218 0.97954 0.0
C457 C 0.54159 0.13718 0.93786 0.0
C458 C 0.55503 0.21115 0.94753 0.0
H459 H 0.60257 0.32416 0.85534 0.0
H460 H 0.58576 0.27154 0.86536 0.0
H461 H 0.5498 0.25752 0.95156 0.0
H462 H 0.58625 0.13232 0.00338 0.0
H463 H 0.60135 0.17313 0.97248 0.0
H464 H 0.59934 0.17969 0.89925 0.0
C465 C 0.59065 0.28864 0.88296 0.0
C466 C 0.56051 0.24072 0.93974 0.0
C467 C 0.59995 0.31874 0.87727 0.0
C468 C 0.5744 0.13258 0.98437 0.0
C469 C 0.58292 0.15597 0.96685 0.0
C470 C 0.5881 0.19649 0.9103 0.0
C471 C 0.58812 0.28069 0.91112 0.0
C472 C 0.58014 0.24865 0.91735 0.0
C473 C 0.56569 0.15932 0.94449 0.0
C474 C 0.56909 0.18903 0.93316 0.0
H475 H 0.6092 0.35047 0.94541 0.0
H476 H 0.59289 0.29798 0.9554 0.0
H477 H 0.60891 0.23174 0.88514 0.0
H478 H 0.513 0.09837 0.9516 0.0
H479 H 0.52787 0.13976 0.92089 0.0
C480 C 0.91952 0.65968 0.46812 0.0
C481 C 0.91636 0.65425 0.43861 0.0
C482 C 0.93064 0.68859 0.48019 0.0
C483 C 0.96864 0.76426 0.46317 0.0
H484 H 0.92394 0.79293 0.5277 0.0
C485 C 0.98796 0.88861 0.50151 0.0
C486 C 0.963 0.90034 0.49817 0.0
C487 C 0.9862 0.85768 0.50347 0.0
C488 C 0.93686 0.78507 0.50998 0.0
H489 H 0.92275 0.67431 0.39841 0.0
H490 H 0.94181 0.72501 0.41945 0.0
H491 H 0.91446 0.73957 0.51005 0.0
H492 H 0.91662 0.8907 0.49815 0.0
H493 H 0.91335 0.83664 0.50248 0.0
H494 H 0.98979 0.81011 0.462 0.0
C495 C 0.93638 0.70686 0.43327 0.0
C496 C 0.93157 0.75455 0.49992 0.0
C497 C 0.92548 0.67788 0.4212 0.0
C498 C 0.9361 0.88177 0.50032 0.0
C499 C 0.93429 0.85097 0.50298 0.0
C500 C 0.97398 0.79471 0.47328 0.0
C501 C 0.93855 0.71263 0.46296 0.0
C502 C 0.94689 0.744 0.47593 0.0
C503 C 0.95941 0.83843 0.50276 0.0
C504 C 0.95763 0.80552 0.4963 0.0
H505 H 0.91265 0.6417 0.48191 0.0
H506 H 0.93243 0.69227 0.50307 0.0
H507 H 0.98097 0.75675 0.44483 0.0
H508 H 0.00889 0.90279 0.49995 0.0
H509 H 0.00583 0.84851 0.50355 0.0
C510 C 0.42528 0.83258 0.59098 0.0
C511 C 0.40549 0.83171 0.61403 0.0
C512 C 0.43415 0.80597 0.57905 0.0
C513 C 0.43589 0.7274 0.5961 0.0
H514 H 0.45164 0.71271 0.51509 0.0
C515 C 0.44367 0.61028 0.54528 0.0
C516 C 0.4723 0.60731 0.53892 0.0
C517 C 0.43579 0.63877 0.54846 0.0
C518 C 0.44744 0.71675 0.53774 0.0
H519 H 0.37863 0.80292 0.64228 0.0
H520 H 0.39319 0.75631 0.62111 0.0
H521 H 0.43681 0.76045 0.53394 0.0
H522 H 0.51488 0.6312 0.52917 0.0
H523 H 0.50085 0.6816 0.53427 0.0
H524 H 0.44548 0.68331 0.59968 0.0
C525 C 0.40277 0.7774 0.61264 0.0
C526 C 0.43909 0.74405 0.54861 0.0
C527 C 0.39424 0.804 0.62472 0.0
C528 C 0.49257 0.63302 0.53351 0.0
C529 C 0.4846 0.66171 0.53653 0.0
C530 C 0.44378 0.70014 0.58521 0.0
C531 C 0.42311 0.77801 0.58985 0.0
C532 C 0.43294 0.74959 0.57796 0.0
C533 C 0.45641 0.66477 0.54524 0.0
C534 C 0.44943 0.69451 0.55599 0.0
H535 H 0.43405 0.85387 0.58241 0.0
H536 H 0.45 0.80741 0.56174 0.0
H537 H 0.43216 0.73105 0.61885 0.0
H538 H 0.42783 0.59074 0.54996 0.0
H539 H 0.414 0.64069 0.55535 0.0
C540 C 0.90446 0.91986 0.81793 0.0
C541 C 0.87636 0.90449 0.82228 0.0
C542 C 0.91445 0.92739 0.79071 0.0
C543 C 0.90273 0.90809 0.71376 0.0
H544 H 0.94609 0.98878 0.70787 0.0
C545 C 0.94711 0.96199 0.60694 0.0
C546 C 0.97548 0.9779 0.60872 0.0
C547 C 0.93251 0.9502 0.63129 0.0
C548 C 0.9341 0.9661 0.70912 0.0
H549 H 0.83687 0.88425 0.80166 0.0
H550 H 0.85453 0.89685 0.75379 0.0
H551 H 0.92594 0.97412 0.75384 0.0
H552 H 0.0114 0.99123 0.63681 0.0
H553 H 0.98633 0.971 0.67835 0.0
H554 H 0.91144 0.90019 0.66876 0.0
C555 C 0.86877 0.90328 0.77144 0.0
C556 C 0.92263 0.95767 0.73553 0.0
C557 C 0.85861 0.89623 0.79881 0.0
C558 C 0.98933 0.97996 0.6347 0.0
C559 C 0.97494 0.96833 0.65867 0.0
C560 C 0.91433 0.91657 0.68715 0.0
C561 C 0.89671 0.91931 0.76711 0.0
C562 C 0.90727 0.9284 0.73837 0.0
C563 C 0.94612 0.9542 0.65764 0.0
C564 C 0.93069 0.94552 0.6847 0.0
H565 H 0.91852 0.92653 0.83571 0.0
H566 H 0.93617 0.93948 0.78812 0.0
H567 H 0.89102 0.88533 0.71524 0.0
H568 H 0.93592 0.95969 0.58718 0.0
H569 H 0.91033 0.93912 0.62981 0.0
C570 C 0.59188 0.09156 0.33301 0.0
C571 C 0.60947 0.12007 0.33684 0.0
C572 C 0.58259 0.0797 0.30584 0.0
C573 C 0.57615 0.10365 0.23316 0.0
H574 H 0.56744 0.01775 0.20973 0.0
C575 C 0.56779 0.0623 0.1167 0.0
C576 C 0.54247 0.04236 0.10926 0.0
C577 C 0.57641 0.06689 0.14477 0.0
C578 C 0.56964 0.04174 0.21613 0.0
H579 H 0.63189 0.15824 0.31567 0.0
H580 H 0.61699 0.13726 0.26819 0.0
H581 H 0.58128 0.0365 0.25844 0.0
H582 H 0.50726 0.00994 0.12483 0.0
H583 H 0.52271 0.0177 0.17452 0.0
H584 H 0.56548 0.10899 0.1907 0.0
C585 C 0.60925 0.12433 0.28602 0.0
C586 C 0.57744 0.05255 0.24404 0.0
C587 C 0.61804 0.13634 0.31317 0.0
C588 C 0.52713 0.02505 0.13001 0.0
C589 C 0.53585 0.02966 0.15839 0.0
C590 C 0.56884 0.09294 0.20534 0.0
C591 C 0.59112 0.09596 0.28192 0.0
C592 C 0.58124 0.08377 0.25281 0.0
C593 C 0.55983 0.05173 0.16614 0.0
C594 C 0.56593 0.06198 0.19638 0.0
H595 H 0.58501 0.07869 0.3511 0.0
H596 H 0.56841 0.05802 0.30371 0.0
H597 H 0.57785 0.12766 0.23918 0.0
H598 H 0.57985 0.07603 0.10108 0.0
H599 H 0.5952 0.08368 0.15009 0.0
C600 C 0.3977 0.63195 0.266 0.0
C601 C 0.41329 0.6199 0.24312 0.0
C602 C 0.39994 0.62359 0.29339 0.0
C603 C 0.4458 0.58845 0.33668 0.0
H604 H 0.37777 0.57388 0.38604 0.0
C605 C 0.42804 0.51146 0.42623 0.0
C606 C 0.44994 0.52604 0.44422 0.0
C607 C 0.41568 0.52805 0.40826 0.0
C608 C 0.39689 0.57833 0.37253 0.0
H609 H 0.4431 0.58965 0.23031 0.0
H610 H 0.44613 0.57377 0.27798 0.0
H611 H 0.3743 0.59159 0.33899 0.0
H612 H 0.47341 0.56935 0.46069 0.0
H613 H 0.45232 0.59835 0.42868 0.0
H614 H 0.46812 0.57429 0.36986 0.0
C615 C 0.43293 0.59048 0.27512 0.0
C616 C 0.39502 0.58844 0.34568 0.0
C617 C 0.43116 0.5994 0.24784 0.0
C618 C 0.45625 0.55774 0.44722 0.0
C619 C 0.44436 0.57429 0.42879 0.0
C620 C 0.44768 0.57867 0.36349 0.0
C621 C 0.41739 0.60255 0.29826 0.0
C622 C 0.41941 0.59321 0.3273 0.0
C623 C 0.42555 0.55922 0.40791 0.0
C624 C 0.42327 0.57338 0.38152 0.0
H625 H 0.38402 0.64811 0.26273 0.0
H626 H 0.38817 0.63378 0.31077 0.0
H627 H 0.46505 0.59217 0.32326 0.0
H628 H 0.42318 0.48697 0.4234 0.0
H629 H 0.40134 0.51601 0.39216 0.0
C630 C 0.10394 0.43323 0.7244 0.0
C631 C 0.09407 0.45667 0.7124 0.0
C632 C 0.10639 0.43412 0.75378 0.0
C633 C 0.07191 0.44553 0.81604 0.0
H634 H 0.13864 0.47995 0.86044 0.0
C635 C 0.07846 0.50618 0.9273 0.0
C636 C 0.05643 0.48568 0.93928 0.0
C637 C 0.09486 0.49634 0.90414 0.0
C638 C 0.12008 0.46975 0.84822 0.0
H639 H 0.0795 0.49954 0.7211 0.0
H640 H 0.08269 0.50049 0.77307 0.0
H641 H 0.14222 0.47768 0.80808 0.0
H642 H 0.03786 0.43848 0.94079 0.0
H643 H 0.06677 0.4211 0.90065 0.0
H644 H 0.04924 0.43859 0.85555 0.0
C645 C 0.08914 0.48192 0.75953 0.0
C646 C 0.12207 0.46868 0.81848 0.0
C647 C 0.08723 0.48134 0.73003 0.0
C648 C 0.05485 0.45462 0.93183 0.0
C649 C 0.07119 0.44474 0.90865 0.0
C650 C 0.06998 0.44626 0.84556 0.0
C651 C 0.09865 0.45824 0.77146 0.0
C652 C 0.09777 0.45723 0.80242 0.0
C653 C 0.08911 0.46597 0.89292 0.0
C654 C 0.09384 0.45898 0.86202 0.0
H655 H 0.10971 0.41418 0.71107 0.0
H656 H 0.11358 0.41563 0.76276 0.0
H657 H 0.05297 0.43669 0.80384 0.0
H658 H 0.07987 0.53029 0.93271 0.0
H659 H 0.10869 0.5132 0.89257 0.0
C660 C 0.78308 0.91848 0.88699 0.0
C661 C 0.80617 0.91635 0.90389 0.0
C662 C 0.75965 0.93094 0.89864 0.0
C663 C 0.7209 0.9476 0.96646 0.0
H664 H 0.68606 -0.00215 0.92117 0.0
C665 C 0.61745 0.99414 0.00536 0.0
C666 C 0.59635 0.98978 0.98478 0.0
C667 C 0.64573 0.99057 0.99744 0.0
C668 C 0.69545 0.9838 0.93411 0.0
H669 H 0.82252 0.92596 0.94651 0.0
H670 H 0.78144 0.94749 0.9669 0.0
H671 H 0.72983 0.9801 0.90366 0.0
H672 H 0.58807 0.97908 0.94003 0.0
H673 H 0.63698 0.97332 0.92613 0.0
H674 H 0.686 0.95069 0.99658 0.0
C675 C 0.78146 0.93927 0.9446 0.0
C676 C 0.72055 0.97354 0.92402 0.0
C677 C 0.805 0.92686 0.9329 0.0
C678 C 0.60413 0.9831 0.95619 0.0
C679 C 0.63222 0.97981 0.94826 0.0
C680 C 0.69568 0.95783 0.97655 0.0
C681 C 0.75853 0.94162 0.92757 0.0
C682 C 0.73328 0.95473 0.93972 0.0
C683 C 0.65331 0.98277 0.9688 0.0
C684 C 0.68224 0.97549 0.96018 0.0
H685 H 0.78286 0.91009 0.86474 0.0
H686 H 0.74214 0.93175 0.88499 0.0
H687 H 0.73001 0.93303 0.97907 0.0
H688 H 0.61177 -0.00129 0.02763 0.0
H689 H 0.66146 0.99318 0.01378 0.0
C690 C 0.72895 0.10953 0.42986 0.0
C691 C 0.71053 0.11938 0.45149 0.0
C692 C 0.75442 0.10066 0.43654 0.0
C693 C 0.80616 0.10486 0.49432 0.0
H694 H 0.82975 0.03827 0.44656 0.0
C695 C 0.90381 0.04482 0.51298 0.0
C696 C 0.9203 0.03916 0.48818 0.0
C697 C 0.87858 0.05686 0.51139 0.0
C698 C 0.82351 0.05699 0.46004 0.0
H699 H 0.70445 0.12807 0.49701 0.0
H700 H 0.7487 0.11168 0.50886 0.0
H701 H 0.78453 0.05368 0.43827 0.0
H702 H 0.92476 0.04403 0.44284 0.0
H703 H 0.88132 0.06502 0.44022 0.0
H704 H 0.84541 0.10755 0.51629 0.0
C705 C 0.7437 0.11128 0.48669 0.0
C706 C 0.79763 0.06597 0.4552 0.0
C707 C 0.71827 0.12048 0.47994 0.0
C708 C 0.91222 0.04759 0.46226 0.0
C709 C 0.88729 0.05955 0.46071 0.0
C710 C 0.8321 0.09561 0.49936 0.0
C711 C 0.76203 0.10104 0.46504 0.0
C712 C 0.78883 0.09044 0.47183 0.0
C713 C 0.86967 0.06335 0.485 0.0
C714 C 0.84127 0.07199 0.48182 0.0
H715 H 0.72385 0.10885 0.40768 0.0
H716 H 0.76828 0.0937 0.41922 0.0
H717 H 0.80017 0.12388 0.5075 0.0
H718 H 0.90955 0.03852 0.53322 0.0
H719 H 0.86537 0.05967 0.53046 0.0
C720 C 0.32104 0.62263 0.09371 0.0
C721 C 0.3205 0.62624 0.12358 0.0
C722 C 0.29567 0.61265 0.07908 0.0
C723 C 0.21972 0.57617 0.08896 0.0
H724 H 0.20631 0.62064 0.02587 0.0
C725 C 0.11046 0.59384 0.05752 0.0
C726 C 0.09865 0.56842 0.03965 0.0
C727 C 0.14008 0.60167 0.06003 0.0
C728 C 0.21008 0.60779 0.04314 0.0
H729 H 0.29318 0.62221 0.16161 0.0
H730 H 0.24891 0.60521 0.13623 0.0
H731 H 0.25364 0.63032 0.04722 0.0
H732 H 0.10836 0.53289 0.00849 0.0
H733 H 0.16056 0.54649 0.01333 0.0
H734 H 0.17575 0.55472 0.08562 0.0
C735 C 0.26892 0.60934 0.124 0.0
C736 C 0.23706 0.61319 0.05533 0.0
C737 C 0.29427 0.61911 0.13858 0.0
C738 C 0.11699 0.55279 0.02216 0.0
C739 C 0.14674 0.56042 0.02499 0.0
C740 C 0.19289 0.57076 0.07674 0.0
C741 C 0.26927 0.60629 0.09408 0.0
C742 C 0.24194 0.59795 0.07883 0.0
C743 C 0.15825 0.58411 0.04483 0.0
C744 C 0.1878 0.58689 0.05413 0.0
H745 H 0.34108 0.62781 0.08169 0.0
H746 H 0.29667 0.61014 0.05605 0.0
H747 H 0.22287 0.56377 0.10677 0.0
H748 H 0.09672 0.60616 0.07126 0.0
H749 H 0.14866 0.61987 0.07559 0.0
C750 C 0.18342 0.43686 0.61713 0.0
C751 C 0.1624 0.42876 0.59648 0.0
C752 C 0.21231 0.44411 0.60904 0.0
C753 C 0.26262 0.43043 0.54955 0.0
H754 H 0.31486 0.49062 0.59454 0.0
C755 C 0.38674 0.4708 0.52899 0.0
C756 C 0.40267 0.47177 0.55353 0.0
C757 C 0.35674 0.46321 0.53052 0.0
C758 C 0.30046 0.47374 0.5818 0.0
H759 H 0.15503 0.42328 0.5512 0.0
H760 H 0.20568 0.43622 0.53701 0.0
H761 H 0.26341 0.48579 0.60425 0.0
H762 H 0.40019 0.4624 0.59789 0.0
H763 H 0.34817 0.44935 0.60042 0.0
H764 H 0.30016 0.41863 0.52711 0.0
C765 C 0.19978 0.43644 0.55945 0.0
C766 C 0.27105 0.47091 0.58739 0.0
C767 C 0.17082 0.42916 0.56756 0.0
C768 C 0.38844 0.46236 0.57876 0.0
C769 C 0.3587 0.45495 0.58027 0.0
C770 C 0.29218 0.43352 0.54375 0.0
C771 C 0.22087 0.44349 0.58011 0.0
C772 C 0.25181 0.44875 0.57181 0.0
C773 C 0.34258 0.45661 0.55656 0.0
C774 C 0.31128 0.45471 0.56034 0.0
H775 H 0.17774 0.43619 0.63956 0.0
H776 H 0.22802 0.44896 0.62551 0.0
H777 H 0.24836 0.41293 0.53735 0.0
H778 H 0.39719 0.47797 0.50928 0.0
H779 H 0.34459 0.46448 0.51195 0.0
C780 C 0.93943 0.80526 0.90696 0.0
C781 C 0.91482 0.81655 0.91728 0.0
C782 C 0.94723 0.78044 0.91823 0.0
C783 C 0.93893 0.7352 0.98019 0.0
H784 H 0.96149 0.67394 0.92485 0.0
C785 C 0.9629 0.61689 0.00615 0.0
C786 C 0.98454 0.60586 0.98911 0.0
C787 C 0.95483 0.64449 1.00115 0.0
C788 C 0.95566 0.69098 0.94069 0.0
H789 H 0.87943 0.8112 0.94825 0.0
H790 H 0.89326 0.76771 0.96824 0.0
H791 H 0.94589 0.71773 0.90869 0.0
H792 H 0.0161 0.61575 0.95517 0.0
H793 H 0.00306 0.66401 0.94727 0.0
H794 H 0.94896 0.70813 0.01223 0.0
C795 C 0.90646 0.77813 0.95129 0.0
C796 C 0.94661 0.7161 0.93137 0.0
C797 C 0.89846 0.8029 0.93973 0.0
C798 C -0.00063 0.6238 0.96863 0.0
C799 C 0.9916 0.65127 0.96386 0.0
C800 C 0.94816 0.70992 0.98959 0.0
C801 C 0.93073 0.76632 0.94034 0.0
C802 C 0.93858 0.73881 0.95092 0.0
C803 C 0.96836 0.66134 0.97907 0.0
C804 C 0.95716 0.68777 0.9699 0.0
H805 H 0.95252 0.81539 0.88977 0.0
H806 H 0.96627 0.77224 0.90957 0.0
H807 H 0.93288 0.75232 0.99579 0.0
H808 H 0.95085 0.60321 0.02179 0.0
H809 H 0.93689 0.65161 0.01331 0.0
C810 C 0.40827 0.71957 0.1146 0.0
C811 C 0.40026 0.71235 0.14242 0.0
C812 C 0.41606 0.74972 0.10868 0.0
C813 C 0.43562 0.82872 0.1411 0.0
H814 H 0.40577 0.84604 0.0707 0.0
C815 C 0.48131 0.93009 0.07953 0.0
C816 C 0.46478 0.93718 0.05817 0.0
C817 C 0.46912 0.90913 0.09852 0.0
C818 C 0.41369 0.84197 0.09085 0.0
H819 H 0.39538 0.73078 0.18609 0.0
H820 H 0.40866 0.7835 0.17573 0.0
H821 H 0.3958 0.79505 0.0848 0.0
H822 H 0.42203 0.93211 0.0423 0.0
H823 H 0.40014 0.897 0.07659 0.0
H824 H 0.45332 0.87594 0.14715 0.0
C825 C 0.4093 0.76594 0.15853 0.0
C826 C 0.40853 0.81241 0.09858 0.0
C827 C 0.40176 0.73573 0.16448 0.0
C828 C 0.43509 0.92701 0.0588 0.0
C829 C 0.42274 0.90646 0.07811 0.0
C830 C 0.44063 0.85849 0.13345 0.0
C831 C 0.41563 0.77329 0.13041 0.0
C832 C 0.42007 0.80524 0.12337 0.0
C833 C 0.44016 0.89522 0.09638 0.0
C834 C 0.43029 0.86536 0.10785 0.0
H835 H 0.40757 0.70191 0.09729 0.0
H836 H 0.42167 0.75457 0.08691 0.0
H837 H 0.44473 0.82398 0.16041 0.0
H838 H 0.50436 0.9375 0.07912 0.0
H839 H 0.48325 0.90128 0.11236 0.0
C840 C 0.07296 0.34213 0.55921 0.0
C841 C 0.07756 0.34634 0.58853 0.0
C842 C 0.06093 0.3137 0.54662 0.0
C843 C 0.0217 0.23832 0.56435 0.0
H844 H 0.053 0.21095 0.49118 0.0
C845 C 0.99705 0.1145 0.52955 0.0
C846 C 0.02269 0.10342 0.52387 0.0
C847 C 0.99646 0.14503 0.52706 0.0
C848 C 0.04384 0.21829 0.51152 0.0
H849 H 0.07404 0.32439 0.62768 0.0
H850 H 0.054 0.27453 0.6057 0.0
H851 H 0.06834 0.26282 0.51081 0.0
H852 H 0.0664 0.1134 0.50771 0.0
H853 H 0.06578 0.16631 0.5036 0.0
H854 H -0.0007 0.19323 0.56642 0.0
C855 C 0.05854 0.29325 0.59247 0.0
C856 C 0.05247 0.24816 0.52271 0.0
C857 C 0.07014 0.32174 0.60509 0.0
C858 C 0.04638 0.1217 0.51198 0.0
C859 C 0.04593 0.15213 0.50968 0.0
C860 C 0.01344 0.20838 0.5534 0.0
C861 C 0.0537 0.28887 0.56307 0.0
C862 C 0.0421 0.25828 0.54963 0.0
C863 C 0.02168 0.16463 0.51933 0.0
C864 C 0.02506 0.19772 0.52722 0.0
H865 H 0.07855 0.36088 0.54609 0.0
H866 H 0.05723 0.31125 0.52401 0.0
H867 H 0.01277 0.24551 0.58485 0.0
H868 H 0.97859 0.1006 0.53892 0.0
H869 H 0.97717 0.15382 0.53386 0.0
C870 C 0.6085 0.22384 0.40218 0.0
C871 C 0.60932 0.19943 0.41831 0.0
C872 C 0.59762 0.2492 0.41414 0.0
C873 C 0.57693 0.28879 0.48296 0.0
H874 H 0.53242 0.32508 0.43353 0.0
C875 C 0.54099 0.40568 0.50992 0.0
C876 C 0.5159 0.41008 0.49754 0.0
C877 C 0.55059 0.3779 0.50465 0.0
C878 C 0.54437 0.31502 0.44787 0.0
H879 H 0.59984 0.18262 0.45976 0.0
H880 H 0.58008 0.22661 0.48056 0.0
H881 H 0.55321 0.28159 0.41521 0.0
H882 H 0.48 0.3887 0.47198 0.0
H883 H 0.49564 0.3399 0.46415 0.0
H884 H 0.56735 0.3221 0.51584 0.0
C885 C 0.58836 0.22647 0.4588 0.0
C886 C 0.55683 0.2903 0.43714 0.0
C887 C 0.59958 0.2012 0.44688 0.0
C888 C 0.49925 0.38566 0.48203 0.0
C889 C 0.50855 0.3579 0.47711 0.0
C890 C 0.56428 0.31355 0.4938 0.0
C891 C 0.58691 0.25068 0.44247 0.0
C892 C 0.57345 0.27691 0.45442 0.0
C893 C 0.53512 0.35414 0.48702 0.0
C894 C 0.5478 0.32699 0.47636 0.0
H895 H 0.61634 0.22334 0.38026 0.0
H896 H 0.5976 0.26767 0.40108 0.0
H897 H 0.58979 0.27927 0.49686 0.0
H898 H 0.55449 0.42445 0.52142 0.0
H899 H 0.57116 0.37591 0.51259 0.0
loop_
_geom_bond_atom_site_label_1
_geom_bond_atom_site_label_2
_geom_bond_distance
_geom_bond_site_symmetry_2
_ccdc_geom_bond_type
H0 C5 0.930 . S
H1 C8 0.930 . S
H2 C10 0.930 . S
H3 C4 1.016 . S
C4 H3 1.016 . S
C4 N11 1.286 . S
C5 H0 0.930 . S
C5 C6 1.397 . S
C5 C7 1.361 . S
C6 C5 1.397 . S
C6 C10 1.390 . S
C7 C5 1.361 . S
C7 C8 1.393 . S
C7 N11 1.413 . S
C8 H1 0.930 . S
C8 C7 1.393 . S
C8 C9 1.399 . S
C9 C8 1.399 . S
C9 C10 1.381 . S
C10 H2 0.930 . S
C10 C6 1.390 . S
C10 C9 1.381 . S
N11 C4 1.286 . S
N11 C7 1.413 . S
H12 C17 0.930 . S
H13 C20 0.930 . S
H14 C22 0.930 . S
H15 C16 1.016 . S
C16 H15 1.016 . S
C16 N23 1.286 . S
C17 H12 0.930 . S
C17 C18 1.397 . S
C17 C19 1.361 . S
C18 C17 1.397 . S
C18 C22 1.390 . S
C19 C17 1.361 . S
C19 C20 1.393 . S
C19 N23 1.413 . S
C20 H13 0.930 . S
C20 C19 1.393 . S
C20 C21 1.399 . S
C21 C20 1.399 . S
C21 C22 1.381 . S
C22 H14 0.930 . S
C22 C18 1.390 . S
C22 C21 1.381 . S
N23 C16 1.286 . S
N23 C19 1.413 . S
H24 C29 0.930 . S
H25 C32 0.930 . S
H26 C34 0.930 . S
H27 C28 1.016 . S
C28 H27 1.016 . S
C28 N35 1.286 . S
C29 H24 0.930 . S
C29 C30 1.397 . S
C29 C31 1.361 . S
C30 C29 1.397 . S
C30 C34 1.390 . S
C31 C29 1.361 . S
C31 C32 1.393 . S
C31 N35 1.413 . S
C32 H25 0.930 . S
C32 C31 1.393 . S
C32 C33 1.399 . S
C33 C32 1.399 . S
C33 C34 1.381 . S
C34 H26 0.930 . S
C34 C30 1.390 . S
C34 C33 1.381 . S
N35 C28 1.286 . S
N35 C31 1.413 . S
H36 C41 0.930 . S
H37 C44 0.930 . S
H38 C46 0.930 . S
H39 C40 1.016 . S
C40 H39 1.016 . S
C40 N47 1.286 . S
C41 H36 0.930 . S
C41 C42 1.397 . S
C41 C43 1.361 . S
C42 C41 1.397 . S
C42 C46 1.390 . S
C43 C41 1.361 . S
C43 C44 1.393 . S
C43 N47 1.413 . S
C44 H37 0.930 . S
C44 C43 1.393 . S
C44 C45 1.399 . S
C45 C44 1.399 . S
C45 C46 1.381 . S
C46 H38 0.930 . S
C46 C42 1.390 . S
C46 C45 1.381 . S
N47 C40 1.286 . S
N47 C43 1.413 . S
H48 C53 0.930 . S
H49 C56 0.930 . S
H50 C58 0.930 . S
H51 C52 1.016 . S
C52 H51 1.016 . S
C52 N59 1.286 . S
C53 H48 0.930 . S
C53 C54 1.397 . S
C53 C55 1.361 . S
C54 C53 1.397 . S
C54 C58 1.390 . S
C55 C53 1.361 . S
C55 C56 1.393 . S
C55 N59 1.413 . S
C56 H49 0.930 . S
C56 C55 1.393 . S
C56 C57 1.399 . S
C57 C56 1.399 . S
C57 C58 1.381 . S
C58 H50 0.930 . S
C58 C54 1.390 . S
C58 C57 1.381 . S
N59 C52 1.286 . S
N59 C55 1.413 . S
H60 C65 0.930 . S
H61 C68 0.930 . S
H62 C70 0.930 . S
H63 C64 1.016 . S
C64 H63 1.016 . S
C64 N71 1.286 . S
C65 H60 0.930 . S
C65 C66 1.397 . S
C65 C67 1.361 . S
C66 C65 1.397 . S
C66 C70 1.390 . S
C67 C65 1.361 . S
C67 C68 1.393 . S
C67 N71 1.413 . S
C68 H61 0.930 . S
C68 C67 1.393 . S
C68 C69 1.399 . S
C69 C68 1.399 . S
C69 C70 1.381 . S
C70 H62 0.930 . S
C70 C66 1.390 . S
C70 C69 1.381 . S
N71 C64 1.286 . S
N71 C67 1.413 . S
H72 C77 0.930 . S
H73 C80 0.930 . S
H74 C82 0.930 . S
H75 C76 1.016 . S
C76 H75 1.016 . S
C76 N83 1.286 . S
C77 H72 0.930 . S
C77 C78 1.397 . S
C77 C79 1.361 . S
C78 C77 1.397 . S
C78 C82 1.390 . S
C79 C77 1.361 . S
C79 C80 1.393 . S
C79 N83 1.413 . S
C80 H73 0.930 . S
C80 C79 1.393 . S
C80 C81 1.399 . S
C81 C80 1.399 . S
C81 C82 1.381 . S
C82 H74 0.930 . S
C82 C78 1.390 . S
C82 C81 1.381 . S
N83 C76 1.286 . S
N83 C79 1.413 . S
H84 C89 0.930 . S
H85 C92 0.930 . S
H86 C94 0.930 . S
H87 C88 1.016 . S
C88 H87 1.016 . S
C88 N95 1.286 . S
C89 H84 0.930 . S
C89 C90 1.397 . S
C89 C91 1.361 . S
C90 C89 1.397 . S
C90 C94 1.390 . S
C91 C89 1.361 . S
C91 C92 1.393 . S
C91 N95 1.413 . S
C92 H85 0.930 . S
C92 C91 1.393 . S
C92 C93 1.399 . S
C93 C92 1.399 . S
C93 C94 1.381 . S
C94 H86 0.930 . S
C94 C90 1.390 . S
C94 C93 1.381 . S
N95 C88 1.286 . S
N95 C91 1.413 . S
O96 Mg97 1.990 . S
O96 C110 1.253 1_445 S
Mg97 O96 1.990 . S
Mg97 O100 2.180 . S
Mg97 O101 2.117 . S
Mg97 O115 2.030 . S
O98 Mg99 2.072 1_665 S
O98 C110 1.260 . S
Mg99 O98 2.072 1_445 S
Mg99 O100 2.099 . S
Mg99 O102 2.079 . S
Mg99 O103 2.072 1_455 S
Mg99 O105 2.099 1_445 S
Mg99 O116 2.079 1_545 S
O100 Mg97 2.180 . S
O100 Mg99 2.099 . S
O100 C111 1.279 . S
O101 Mg97 2.117 . S
O101 C111 1.250 . S
O102 Mg99 2.079 . S
O102 C112 1.264 . S
O103 Mg99 2.072 1_655 S
O103 C113 1.260 . S
Mg104 O105 2.180 . S
Mg104 O106 2.030 1_565 S
Mg104 O107 1.999 . S
Mg104 O108 2.117 . S
O105 Mg99 2.099 1_665 S
O105 Mg104 2.180 . S
O105 C114 1.279 . S
O106 Mg104 2.030 1_545 S
O106 C112 1.248 1_655 S
O107 Mg104 1.999 . S
O107 C113 1.244 1_565 S
O108 Mg104 2.117 . S
O108 C114 1.250 . S
C109 O115 1.248 1_565 S
C109 O116 1.264 . S
C110 O96 1.253 1_665 S
C110 O98 1.260 . S
C111 O100 1.279 . S
C111 O101 1.250 . S
C112 O102 1.264 . S
C112 O106 1.248 1_455 S
C113 O103 1.260 . S
C113 O107 1.244 1_545 S
C114 O105 1.279 . S
C114 O108 1.250 . S
O115 Mg97 2.030 . S
O115 C109 1.248 1_545 S
O116 Mg99 2.079 1_565 S
O116 C109 1.264 . S
O117 Mg118 1.990 . S
O117 C131 1.253 . S
Mg118 O117 1.990 . S
Mg118 O121 2.180 . S
Mg118 O122 2.117 . S
Mg118 O136 2.030 . S
O119 Mg120 2.072 . S
O119 C131 1.260 . S
Mg120 O119 2.072 . S
Mg120 O121 2.099 . S
Mg120 O123 2.079 . S
Mg120 O124 2.072 1_554 S
Mg120 O126 2.099 1_545 S
Mg120 O137 2.079 . S
O121 Mg118 2.180 . S
O121 Mg120 2.099 . S
O121 C132 1.279 1_554 S
O122 Mg118 2.117 . S
O122 C132 1.250 1_554 S
O123 Mg120 2.079 . S
O123 C133 1.264 1_544 S
O124 Mg120 2.072 1_556 S
O124 C134 1.260 1_545 S
Mg125 O126 2.180 1_556 S
Mg125 O127 2.030 . S
Mg125 O128 1.990 . S
Mg125 O129 2.117 1_556 S
O126 Mg120 2.099 1_565 S
O126 Mg125 2.180 1_554 S
O126 C135 1.279 . S
O127 Mg125 2.030 . S
O127 C133 1.248 . S
O128 Mg125 1.990 . S
O128 C134 1.253 . S
O129 Mg125 2.117 1_554 S
O129 C135 1.250 . S
C130 O136 1.248 . S
C130 O137 1.264 . S
C131 O117 1.253 . S
C131 O119 1.260 . S
C132 O121 1.279 1_556 S
C132 O122 1.250 1_556 S
C133 O123 1.264 1_566 S
C133 O127 1.248 . S
C134 O124 1.260 1_565 S
C134 O128 1.253 . S
C135 O126 1.279 . S
C135 O129 1.250 . S
O136 Mg118 2.030 . S
O136 C130 1.248 . S
O137 Mg120 2.079 . S
O137 C130 1.264 . S
O138 Mg139 1.990 . S
O138 C152 1.253 . S
Mg139 O138 1.990 . S
Mg139 O142 2.180 . S
Mg139 O143 2.117 . S
Mg139 O157 2.030 . S
O140 Mg141 2.072 . S
O140 C152 1.260 . S
Mg141 O140 2.072 . S
Mg141 O142 2.099 . S
Mg141 O144 2.079 . S
Mg141 O145 2.072 . S
Mg141 O147 2.099 . S
Mg141 O158 2.079 . S
O142 Mg139 2.180 . S
O142 Mg141 2.099 . S
O142 C153 1.279 . S
O143 Mg139 2.117 . S
O143 C153 1.250 . S
O144 Mg141 2.079 . S
O144 C154 1.264 . S
O145 Mg141 2.072 . S
O145 C155 1.260 . S
Mg146 O147 2.180 . S
Mg146 O148 2.030 . S
Mg146 O149 1.990 . S
Mg146 O150 2.117 . S
O147 Mg141 2.099 . S
O147 Mg146 2.180 . S
O147 C156 1.279 . S
O148 Mg146 2.030 . S
O148 C154 1.248 . S
O149 Mg146 1.990 . S
O149 C155 1.253 . S
O150 Mg146 2.117 . S
O150 C156 1.250 . S
C151 O157 1.248 . S
C151 O158 1.264 . S
C152 O138 1.253 . S
C152 O140 1.260 . S
C153 O142 1.279 . S
C153 O143 1.250 . S
C154 O144 1.264 . S
C154 O148 1.248 . S
C155 O145 1.260 . S
C155 O149 1.253 . S
C156 O147 1.279 . S
C156 O150 1.250 . S
O157 Mg139 2.030 . S
O157 C151 1.248 . S
O158 Mg141 2.079 . S
O158 C151 1.264 . S
O159 Mg160 1.990 . S
O159 C173 1.253 . S
Mg160 O159 1.990 . S
Mg160 O163 2.180 . S
Mg160 O164 2.117 1_455 S
Mg160 O178 2.030 . S
O161 Mg162 2.072 . S
O161 C173 1.260 . S
Mg162 O161 2.072 . S
Mg162 O163 2.099 . S
Mg162 O165 2.079 . S
Mg162 O166 2.072 1_455 S
Mg162 O168 2.099 1_554 S
Mg162 O179 2.079 . S
O163 Mg160 2.180 . S
O163 Mg162 2.099 . S
O163 C174 1.279 1_455 S
O164 Mg160 2.117 1_655 S
O164 C174 1.250 . S
O165 Mg162 2.079 . S
O165 C175 1.264 1_454 S
O166 Mg162 2.072 1_655 S
O166 C176 1.260 1_554 S
Mg167 O168 2.180 1_655 S
Mg167 O169 2.030 . S
Mg167 O170 1.990 . S
Mg167 O171 2.117 1_655 S
O168 Mg162 2.099 1_556 S
O168 Mg167 2.180 1_455 S
O168 C177 1.279 . S
O169 Mg167 2.030 . S
O169 C175 1.248 . S
O170 Mg167 1.990 . S
O170 C176 1.253 . S
O171 Mg167 2.117 1_455 S
O171 C177 1.250 . S
C172 O178 1.248 . S
C172 O179 1.264 . S
C173 O159 1.253 . S
C173 O161 1.260 . S
C174 O163 1.279 1_655 S
C174 O164 1.250 . S
C175 O165 1.264 1_656 S
C175 O169 1.248 . S
C176 O166 1.260 1_556 S
C176 O170 1.253 . S
C177 O168 1.279 . S
C177 O171 1.250 . S
O178 Mg160 2.030 . S
O178 C172 1.248 . S
O179 Mg162 2.079 . S
O179 C172 1.264 . S
C180 C181 1.349 . S
C180 C182 1.327 . S
C180 H205 0.950 . S
C181 C180 1.349 . S
C181 C197 1.349 . S
C182 C180 1.327 . S
C182 C201 1.429 . S
C182 H206 0.950 . S
C183 C200 1.574 . S
C183 C202 1.368 . S
C183 H207 0.949 . S
H184 C188 0.949 . S
C185 C186 1.349 . S
C185 C187 1.327 . S
C185 H208 0.950 . S
C186 C185 1.349 . S
C186 C198 1.349 . S
C187 C185 1.327 . S
C187 C203 1.429 . S
C187 H209 0.950 . S
C188 H184 0.949 . S
C188 C196 1.574 . S
C188 C204 1.368 . S
H189 C197 0.950 . S
H190 C195 0.950 . S
H191 C196 0.949 . S
H192 C198 0.950 . S
H193 C199 0.950 . S
H194 C200 0.949 . S
C195 H190 0.950 . S
C195 C197 1.327 . S
C195 C201 1.429 . S
C196 C188 1.574 . S
C196 H191 0.949 . S
C196 C202 1.368 . S
C197 C181 1.349 . S
C197 H189 0.950 . S
C197 C195 1.327 . S
C198 C186 1.349 . S
C198 H192 0.950 . S
C198 C199 1.327 . S
C199 H193 0.950 . S
C199 C198 1.327 . S
C199 C203 1.429 . S
C200 C183 1.574 . S
C200 H194 0.949 . S
C200 C204 1.368 . S
C201 C182 1.429 . S
C201 C195 1.429 . S
C201 C202 1.523 . S
C202 C183 1.368 . S
C202 C196 1.368 . S
C202 C201 1.523 . S
C203 C187 1.429 . S
C203 C199 1.429 . S
C203 C204 1.523 . S
C204 C188 1.368 . S
C204 C200 1.368 . S
C204 C203 1.523 . S
H205 C180 0.950 . S
H206 C182 0.950 . S
H207 C183 0.949 . S
H208 C185 0.950 . S
H209 C187 0.950 . S
C210 C211 1.349 . S
C210 C212 1.327 . S
C210 H235 0.950 . S
C211 C210 1.349 . S
C211 C227 1.349 . S
C212 C210 1.327 . S
C212 C231 1.429 . S
C212 H236 0.950 . S
C213 C230 1.574 . S
C213 C232 1.368 . S
C213 H237 0.949 . S
H214 C218 0.949 . S
C215 C216 1.349 1_545 S
C215 C217 1.327 . S
C215 H238 0.950 . S
C216 C215 1.349 1_565 S
C216 C228 1.349 . S
C217 C215 1.327 . S
C217 C233 1.429 1_545 S
C217 H239 0.950 . S
C218 H214 0.949 . S
C218 C226 1.574 . S
C218 C234 1.368 . S
H219 C227 0.950 . S
H220 C225 0.950 . S
H221 C226 0.949 . S
H222 C228 0.950 . S
H223 C229 0.950 . S
H224 C230 0.949 1_545 S
C225 H220 0.950 . S
C225 C227 1.327 . S
C225 C231 1.429 . S
C226 C218 1.574 . S
C226 H221 0.949 . S
C226 C232 1.368 . S
C227 C211 1.349 . S
C227 H219 0.950 . S
C227 C225 1.327 . S
C228 C216 1.349 . S
C228 H222 0.950 . S
C228 C229 1.327 . S
C229 H223 0.950 . S
C229 C228 1.327 . S
C229 C233 1.429 . S
C230 C213 1.574 . S
C230 H224 0.949 1_565 S
C230 C234 1.368 . S
C231 C212 1.429 . S
C231 C225 1.429 . S
C231 C232 1.523 . S
C232 C213 1.368 . S
C232 C226 1.368 . S
C232 C231 1.523 . S
C233 C217 1.429 1_565 S
C233 C229 1.429 . S
C233 C234 1.523 . S
C234 C218 1.368 . S
C234 C230 1.368 . S
C234 C233 1.523 . S
H235 C210 0.950 . S
H236 C212 0.950 . S
H237 C213 0.949 . S
H238 C215 0.950 . S
H239 C217 0.950 . S
C240 C241 1.349 . S
C240 C242 1.327 . S
C240 H265 0.950 . S
C241 C240 1.349 . S
C241 C257 1.349 . S
C242 C240 1.327 . S
C242 C261 1.429 . S
C242 H266 0.950 . S
C243 C260 1.574 . S
C243 C262 1.368 . S
C243 H267 0.949 . S
H244 C248 0.949 . S
C245 C246 1.349 . S
C245 C247 1.327 . S
C245 H268 0.950 . S
C246 C245 1.349 . S
C246 C258 1.349 . S
C247 C245 1.327 . S
C247 C263 1.429 . S
C247 H269 0.950 . S
C248 H244 0.949 . S
C248 C256 1.574 . S
C248 C264 1.368 . S
H249 C257 0.950 . S
H250 C255 0.950 . S
H251 C256 0.949 . S
H252 C258 0.950 . S
H253 C259 0.950 . S
H254 C260 0.949 . S
C255 H250 0.950 . S
C255 C257 1.327 . S
C255 C261 1.429 . S
C256 C248 1.574 . S
C256 H251 0.949 . S
C256 C262 1.368 . S
C257 C241 1.349 . S
C257 H249 0.950 . S
C257 C255 1.327 . S
C258 C246 1.349 . S
C258 H252 0.950 . S
C258 C259 1.327 . S
C259 H253 0.950 . S
C259 C258 1.327 . S
C259 C263 1.429 . S
C260 C243 1.574 . S
C260 H254 0.949 . S
C260 C264 1.368 . S
C261 C242 1.429 . S
C261 C255 1.429 . S
C261 C262 1.523 . S
C262 C243 1.368 . S
C262 C256 1.368 . S
C262 C261 1.523 . S
C263 C247 1.429 . S
C263 C259 1.429 . S
C263 C264 1.523 . S
C264 C248 1.368 . S
C264 C260 1.368 . S
C264 C263 1.523 . S
H265 C240 0.950 . S
H266 C242 0.950 . S
H267 C243 0.949 . S
H268 C245 0.950 . S
H269 C247 0.950 . S
C270 C271 1.349 . S
C270 C272 1.327 . S
C270 H295 0.950 . S
C271 C270 1.349 . S
C271 C287 1.349 . S
C272 C270 1.327 . S
C272 C291 1.429 . S
C272 H296 0.950 . S
C273 C290 1.574 . S
C273 C292 1.368 . S
C273 H297 0.949 . S
H274 C278 0.949 . S
C275 C276 1.349 . S
C275 C277 1.327 . S
C275 H298 0.950 . S
C276 C275 1.349 . S
C276 C288 1.349 . S
C277 C275 1.327 . S
C277 C293 1.429 . S
C277 H299 0.950 . S
C278 H274 0.949 . S
C278 C286 1.574 . S
C278 C294 1.368 . S
H279 C287 0.950 . S
H280 C285 0.950 . S
H281 C286 0.949 . S
H282 C288 0.950 . S
H283 C289 0.950 . S
H284 C290 0.949 . S
C285 H280 0.950 . S
C285 C287 1.327 . S
C285 C291 1.429 . S
C286 C278 1.574 . S
C286 H281 0.949 . S
C286 C292 1.368 . S
C287 C271 1.349 . S
C287 H279 0.950 . S
C287 C285 1.327 . S
C288 C276 1.349 . S
C288 H282 0.950 . S
C288 C289 1.327 . S
C289 H283 0.950 . S
C289 C288 1.327 . S
C289 C293 1.429 . S
C290 C273 1.574 . S
C290 H284 0.949 . S
C290 C294 1.368 . S
C291 C272 1.429 . S
C291 C285 1.429 . S
C291 C292 1.523 . S
C292 C273 1.368 . S
C292 C286 1.368 . S
C292 C291 1.523 . S
C293 C277 1.429 . S
C293 C289 1.429 . S
C293 C294 1.523 . S
C294 C278 1.368 . S
C294 C290 1.368 . S
C294 C293 1.523 . S
H295 C270 0.950 . S
H296 C272 0.950 . S
H297 C273 0.949 . S
H298 C275 0.950 . S
H299 C277 0.950 . S
C300 C301 1.349 . S
C300 C302 1.327 . S
C300 H325 0.950 . S
C301 C300 1.349 . S
C301 C317 1.349 . S
C302 C300 1.327 . S
C302 C321 1.429 . S
C302 H326 0.950 . S
C303 C320 1.574 . S
C303 C322 1.368 . S
C303 H327 0.949 . S
H304 C308 0.949 . S
C305 C306 1.349 . S
C305 C307 1.327 . S
C305 H328 0.950 . S
C306 C305 1.349 . S
C306 C318 1.349 . S
C307 C305 1.327 . S
C307 C323 1.429 . S
C307 H329 0.950 . S
C308 H304 0.949 . S
C308 C316 1.574 . S
C308 C324 1.368 . S
H309 C317 0.950 . S
H310 C315 0.950 . S
H311 C316 0.949 . S
H312 C318 0.950 . S
H313 C319 0.950 . S
H314 C320 0.949 . S
C315 H310 0.950 . S
C315 C317 1.327 . S
C315 C321 1.429 . S
C316 C308 1.574 . S
C316 H311 0.949 . S
C316 C322 1.368 . S
C317 C301 1.349 . S
C317 H309 0.950 . S
C317 C315 1.327 . S
C318 C306 1.349 . S
C318 H312 0.950 . S
C318 C319 1.327 . S
C319 H313 0.950 . S
C319 C318 1.327 . S
C319 C323 1.429 . S
C320 C303 1.574 . S
C320 H314 0.949 . S
C320 C324 1.368 . S
C321 C302 1.429 . S
C321 C315 1.429 . S
C321 C322 1.523 . S
C322 C303 1.368 . S
C322 C316 1.368 . S
C322 C321 1.523 . S
C323 C307 1.429 . S
C323 C319 1.429 . S
C323 C324 1.523 . S
C324 C308 1.368 . S
C324 C320 1.368 . S
C324 C323 1.523 . S
H325 C300 0.950 . S
H326 C302 0.950 . S
H327 C303 0.949 . S
H328 C305 0.950 . S
H329 C307 0.950 . S
C330 C331 1.349 . S
C330 C332 1.327 . S
C330 H355 0.950 . S
C331 C330 1.349 . S
C331 C347 1.349 . S
C332 C330 1.327 . S
C332 C351 1.429 . S
C332 H356 0.950 . S
C333 C350 1.574 . S
C333 C352 1.368 . S
C333 H357 0.949 . S
H334 C338 0.949 . S
C335 C336 1.349 . S
C335 C337 1.327 . S
C335 H358 0.950 . S
C336 C335 1.349 . S
C336 C348 1.349 . S
C337 C335 1.327 . S
C337 C353 1.429 . S
C337 H359 0.950 . S
C338 H334 0.949 . S
C338 C346 1.574 . S
C338 C354 1.368 . S
H339 C347 0.950 . S
H340 C345 0.950 . S
H341 C346 0.949 . S
H342 C348 0.950 1_545 S
H343 C349 0.950 1_545 S
H344 C350 0.949 . S
C345 H340 0.950 . S
C345 C347 1.327 . S
C345 C351 1.429 . S
C346 C338 1.574 . S
C346 H341 0.949 . S
C346 C352 1.368 . S
C347 C331 1.349 . S
C347 H339 0.950 . S
C347 C345 1.327 . S
C348 C336 1.349 . S
C348 H342 0.950 1_565 S
C348 C349 1.327 . S
C349 H343 0.950 1_565 S
C349 C348 1.327 . S
C349 C353 1.429 . S
C350 C333 1.574 . S
C350 H344 0.949 . S
C350 C354 1.368 . S
C351 C332 1.429 . S
C351 C345 1.429 . S
C351 C352 1.523 . S
C352 C333 1.368 . S
C352 C346 1.368 . S
C352 C351 1.523 . S
C353 C337 1.429 . S
C353 C349 1.429 . S
C353 C354 1.523 . S
C354 C338 1.368 . S
C354 C350 1.368 . S
C354 C353 1.523 . S
H355 C330 0.950 . S
H356 C332 0.950 . S
H357 C333 0.949 . S
H358 C335 0.950 . S
H359 C337 0.950 . S
C360 C361 1.349 . S
C360 C362 1.327 . S
C360 H385 0.950 . S
C361 C360 1.349 . S
C361 C377 1.349 . S
C362 C360 1.327 . S
C362 C381 1.429 . S
C362 H386 0.950 . S
C363 C380 1.574 . S
C363 C382 1.368 . S
C363 H387 0.949 . S
H364 C368 0.949 . S
C365 C366 1.349 . S
C365 C367 1.327 . S
C365 H388 0.950 1_556 S
C366 C365 1.349 . S
C366 C378 1.349 . S
C367 C365 1.327 . S
C367 C383 1.429 . S
C367 H389 0.950 . S
C368 H364 0.949 . S
C368 C376 1.574 . S
C368 C384 1.368 . S
H369 C377 0.950 . S
H370 C375 0.950 . S
H371 C376 0.949 . S
H372 C378 0.950 . S
H373 C379 0.950 . S
H374 C380 0.949 . S
C375 H370 0.950 . S
C375 C377 1.327 . S
C375 C381 1.429 . S
C376 C368 1.574 . S
C376 H371 0.949 . S
C376 C382 1.368 . S
C377 C361 1.349 . S
C377 H369 0.950 . S
C377 C375 1.327 . S
C378 C366 1.349 . S
C378 H372 0.950 . S
C378 C379 1.327 . S
C379 H373 0.950 . S
C379 C378 1.327 . S
C379 C383 1.429 . S
C380 C363 1.574 . S
C380 H374 0.949 . S
C380 C384 1.368 . S
C381 C362 1.429 . S
C381 C375 1.429 . S
C381 C382 1.523 . S
C382 C363 1.368 . S
C382 C376 1.368 . S
C382 C381 1.523 . S
C383 C367 1.429 . S
C383 C379 1.429 . S
C383 C384 1.523 . S
C384 C368 1.368 . S
C384 C380 1.368 . S
C384 C383 1.523 . S
H385 C360 0.950 . S
H386 C362 0.950 . S
H387 C363 0.949 . S
H388 C365 0.950 1_554 S
H389 C367 0.950 . S
C390 C391 1.349 . S
C390 C392 1.327 . S
C390 H415 0.950 . S
C391 C390 1.349 . S
C391 C407 1.349 . S
C392 C390 1.327 . S
C392 C411 1.429 . S
C392 H416 0.950 . S
C393 C410 1.574 . S
C393 C412 1.368 . S
C393 H417 0.949 . S
H394 C398 0.949 . S
C395 C396 1.349 . S
C395 C397 1.327 . S
C395 H418 0.950 . S
C396 C395 1.349 . S
C396 C408 1.349 . S
C397 C395 1.327 . S
C397 C413 1.429 . S
C397 H419 0.950 . S
C398 H394 0.949 . S
C398 C406 1.574 . S
C398 C414 1.368 . S
H399 C407 0.950 . S
H400 C405 0.950 . S
H401 C406 0.949 . S
H402 C408 0.950 . S
H403 C409 0.950 . S
H404 C410 0.949 . S
C405 H400 0.950 . S
C405 C407 1.327 . S
C405 C411 1.429 . S
C406 C398 1.574 . S
C406 H401 0.949 . S
C406 C412 1.368 . S
C407 C391 1.349 . S
C407 H399 0.950 . S
C407 C405 1.327 . S
C408 C396 1.349 . S
C408 H402 0.950 . S
C408 C409 1.327 . S
C409 H403 0.950 . S
C409 C408 1.327 . S
C409 C413 1.429 . S
C410 C393 1.574 . S
C410 H404 0.949 . S
C410 C414 1.368 . S
C411 C392 1.429 . S
C411 C405 1.429 . S
C411 C412 1.523 . S
C412 C393 1.368 . S
C412 C406 1.368 . S
C412 C411 1.523 . S
C413 C397 1.429 . S
C413 C409 1.429 . S
C413 C414 1.523 . S
C414 C398 1.368 . S
C414 C410 1.368 . S
C414 C413 1.523 . S
H415 C390 0.950 . S
H416 C392 0.950 . S
H417 C393 0.949 . S
H418 C395 0.950 . S
H419 C397 0.950 . S
C420 C421 1.349 . S
C420 C422 1.327 . S
C420 H445 0.950 . S
C421 C420 1.349 . S
C421 C437 1.349 . S
C422 C420 1.327 . S
C422 C441 1.429 . S
C422 H446 0.950 . S
C423 C440 1.574 . S
C423 C442 1.368 . S
C423 H447 0.949 . S
H424 C428 0.949 . S
C425 C426 1.349 . S
C425 C427 1.327 . S
C425 H448 0.950 . S
C426 C425 1.349 . S
C426 C438 1.349 . S
C427 C425 1.327 . S
C427 C443 1.429 . S
C427 H449 0.950 . S
C428 H424 0.949 . S
C428 C436 1.574 . S
C428 C444 1.368 . S
H429 C437 0.950 . S
H430 C435 0.950 . S
H431 C436 0.949 . S
H432 C438 0.948 . S
H433 C439 0.950 . S
H434 C440 0.949 . S
C435 H430 0.950 . S
C435 C437 1.327 . S
C435 C441 1.429 . S
C436 C428 1.574 . S
C436 H431 0.949 . S
C436 C442 1.368 . S
C437 C421 1.349 . S
C437 H429 0.950 . S
C437 C435 1.327 . S
C438 C426 1.349 . S
C438 H432 0.948 . S
C438 C439 1.327 . S
C439 H433 0.950 . S
C439 C438 1.327 . S
C439 C443 1.429 . S
C440 C423 1.574 . S
C440 H434 0.949 . S
C440 C444 1.368 . S
C441 C422 1.429 . S
C441 C435 1.429 . S
C441 C442 1.523 . S
C442 C423 1.368 . S
C442 C436 1.368 . S
C442 C441 1.523 . S
C443 C427 1.429 . S
C443 C439 1.429 . S
C443 C444 1.523 . S
C444 C428 1.368 . S
C444 C440 1.368 . S
C444 C443 1.523 . S
H445 C420 0.950 . S
H446 C422 0.950 . S
H447 C423 0.949 . S
H448 C425 0.950 . S
H449 C427 0.950 . S
C450 C451 1.349 . S
C450 C452 1.327 . S
C450 H475 0.950 . S
C451 C450 1.349 . S
C451 C467 1.349 . S
C452 C450 1.327 . S
C452 C471 1.429 . S
C452 H476 0.950 . S
C453 C470 1.574 . S
C453 C472 1.368 . S
C453 H477 0.949 . S
H454 C458 0.949 . S
C455 C456 1.349 . S
C455 C457 1.327 . S
C455 H478 0.950 . S
C456 C455 1.349 . S
C456 C468 1.349 . S
C457 C455 1.327 . S
C457 C473 1.429 . S
C457 H479 0.950 . S
C458 H454 0.949 . S
C458 C466 1.574 . S
C458 C474 1.368 . S
H459 C467 0.950 . S
H460 C465 0.950 . S
H461 C466 0.949 . S
H462 C468 0.950 1_554 S
H463 C469 0.950 . S
H464 C470 0.949 . S
C465 H460 0.950 . S
C465 C467 1.327 . S
C465 C471 1.429 . S
C466 C458 1.574 . S
C466 H461 0.949 . S
C466 C472 1.368 . S
C467 C451 1.349 . S
C467 H459 0.950 . S
C467 C465 1.327 . S
C468 C456 1.349 . S
C468 H462 0.950 1_556 S
C468 C469 1.327 . S
C469 H463 0.950 . S
C469 C468 1.327 . S
C469 C473 1.429 . S
C470 C453 1.574 . S
C470 H464 0.949 . S
C470 C474 1.368 . S
C471 C452 1.429 . S
C471 C465 1.429 . S
C471 C472 1.523 . S
C472 C453 1.368 . S
C472 C466 1.368 . S
C472 C471 1.523 . S
C473 C457 1.429 . S
C473 C469 1.429 . S
C473 C474 1.523 . S
C474 C458 1.368 . S
C474 C470 1.368 . S
C474 C473 1.523 . S
H475 C450 0.950 . S
H476 C452 0.950 . S
H477 C453 0.949 . S
H478 C455 0.950 . S
H479 C457 0.950 . S
C480 C481 1.349 . S
C480 C482 1.327 . S
C480 H505 0.950 . S
C481 C480 1.349 . S
C481 C497 1.349 . S
C482 C480 1.327 . S
C482 C501 1.429 . S
C482 H506 0.950 . S
C483 C500 1.574 . S
C483 C502 1.368 . S
C483 H507 0.949 . S
H484 C488 0.949 . S
C485 C486 1.349 . S
C485 C487 1.327 . S
C485 H508 0.950 . S
C486 C485 1.349 . S
C486 C498 1.349 . S
C487 C485 1.327 . S
C487 C503 1.429 . S
C487 H509 0.950 . S
C488 H484 0.949 . S
C488 C496 1.574 . S
C488 C504 1.368 . S
H489 C497 0.950 . S
H490 C495 0.950 . S
H491 C496 0.949 . S
H492 C498 0.950 . S
H493 C499 0.950 . S
H494 C500 0.949 . S
C495 H490 0.950 . S
C495 C497 1.327 . S
C495 C501 1.429 . S
C496 C488 1.574 . S
C496 H491 0.949 . S
C496 C502 1.368 . S
C497 C481 1.349 . S
C497 H489 0.950 . S
C497 C495 1.327 . S
C498 C486 1.349 . S
C498 H492 0.950 . S
C498 C499 1.327 . S
C499 H493 0.950 . S
C499 C498 1.327 . S
C499 C503 1.429 . S
C500 C483 1.574 . S
C500 H494 0.949 . S
C500 C504 1.368 . S
C501 C482 1.429 . S
C501 C495 1.429 . S
C501 C502 1.523 . S
C502 C483 1.368 . S
C502 C496 1.368 . S
C502 C501 1.523 . S
C503 C487 1.429 . S
C503 C499 1.429 . S
C503 C504 1.523 . S
C504 C488 1.368 . S
C504 C500 1.368 . S
C504 C503 1.523 . S
H505 C480 0.950 . S
H506 C482 0.950 . S
H507 C483 0.949 . S
H508 C485 0.950 . S
H509 C487 0.950 . S
C510 C511 1.349 . S
C510 C512 1.327 . S
C510 H535 0.950 . S
C511 C510 1.349 . S
C511 C527 1.349 . S
C512 C510 1.327 . S
C512 C531 1.429 . S
C512 H536 0.950 . S
C513 C530 1.574 . S
C513 C532 1.368 . S
C513 H537 0.949 . S
H514 C518 0.949 . S
C515 C516 1.349 . S
C515 C517 1.327 . S
C515 H538 0.950 . S
C516 C515 1.349 . S
C516 C528 1.349 . S
C517 C515 1.327 . S
C517 C533 1.429 . S
C517 H539 0.950 . S
C518 H514 0.949 . S
C518 C526 1.574 . S
C518 C534 1.368 . S
H519 C527 0.950 . S
H520 C525 0.950 . S
H521 C526 0.949 . S
H522 C528 0.950 . S
H523 C529 0.950 . S
H524 C530 0.949 . S
C525 H520 0.950 . S
C525 C527 1.327 . S
C525 C531 1.429 . S
C526 C518 1.574 . S
C526 H521 0.949 . S
C526 C532 1.368 . S
C527 C511 1.349 . S
C527 H519 0.950 . S
C527 C525 1.327 . S
C528 C516 1.349 . S
C528 H522 0.950 . S
C528 C529 1.327 . S
C529 H523 0.950 . S
C529 C528 1.327 . S
C529 C533 1.429 . S
C530 C513 1.574 . S
C530 H524 0.949 . S
C530 C534 1.368 . S
C531 C512 1.429 . S
C531 C525 1.429 . S
C531 C532 1.523 . S
C532 C513 1.368 . S
C532 C526 1.368 . S
C532 C531 1.523 . S
C533 C517 1.429 . S
C533 C529 1.429 . S
C533 C534 1.523 . S
C534 C518 1.368 . S
C534 C530 1.368 . S
C534 C533 1.523 . S
H535 C510 0.950 . S
H536 C512 0.950 . S
H537 C513 0.949 . S
H538 C515 0.950 . S
H539 C517 0.950 . S
C540 C541 1.349 . S
C540 C542 1.327 . S
C540 H565 0.950 . S
C541 C540 1.349 . S
C541 C557 1.349 . S
C542 C540 1.327 . S
C542 C561 1.429 . S
C542 H566 0.950 . S
C543 C560 1.574 . S
C543 C562 1.368 . S
C543 H567 0.949 . S
H544 C548 0.949 . S
C545 C546 1.349 . S
C545 C547 1.327 . S
C545 H568 0.950 . S
C546 C545 1.349 . S
C546 C558 1.349 . S
C547 C545 1.327 . S
C547 C563 1.429 . S
C547 H569 0.950 . S
C548 H544 0.949 . S
C548 C556 1.574 . S
C548 C564 1.368 . S
H549 C557 0.950 . S
H550 C555 0.950 . S
H551 C556 0.949 . S
H552 C558 0.950 1_545 S
H553 C559 0.950 1_545 S
H554 C560 0.949 . S
C555 H550 0.950 . S
C555 C557 1.327 . S
C555 C561 1.429 . S
C556 C548 1.574 . S
C556 H551 0.949 . S
C556 C562 1.368 . S
C557 C541 1.349 . S
C557 H549 0.950 . S
C557 C555 1.327 . S
C558 C546 1.349 . S
C558 H552 0.950 1_565 S
C558 C559 1.327 . S
C559 H553 0.950 1_565 S
C559 C558 1.327 . S
C559 C563 1.429 . S
C560 C543 1.574 . S
C560 H554 0.949 . S
C560 C564 1.368 . S
C561 C542 1.429 . S
C561 C555 1.429 . S
C561 C562 1.523 . S
C562 C543 1.368 . S
C562 C556 1.368 . S
C562 C561 1.523 . S
C563 C547 1.429 . S
C563 C559 1.429 . S
C563 C564 1.523 . S
C564 C548 1.368 . S
C564 C560 1.368 . S
C564 C563 1.523 . S
H565 C540 0.950 . S
H566 C542 0.950 . S
H567 C543 0.949 . S
H568 C545 0.950 . S
H569 C547 0.950 . S
C570 C571 1.349 . S
C570 C572 1.327 . S
C570 H595 0.950 . S
C571 C570 1.349 . S
C571 C587 1.349 . S
C572 C570 1.327 . S
C572 C591 1.429 . S
C572 H596 0.950 . S
C573 C590 1.574 . S
C573 C592 1.368 . S
C573 H597 0.949 . S
H574 C578 0.949 . S
C575 C576 1.349 . S
C575 C577 1.327 . S
C575 H598 0.950 . S
C576 C575 1.349 . S
C576 C588 1.349 . S
C577 C575 1.327 . S
C577 C593 1.429 . S
C577 H599 0.950 . S
C578 H574 0.949 . S
C578 C586 1.574 . S
C578 C594 1.368 . S
H579 C587 0.950 . S
H580 C585 0.950 . S
H581 C586 0.949 . S
H582 C588 0.950 . S
H583 C589 0.950 . S
H584 C590 0.949 . S
C585 H580 0.950 . S
C585 C587 1.327 . S
C585 C591 1.429 . S
C586 C578 1.574 . S
C586 H581 0.949 . S
C586 C592 1.368 . S
C587 C571 1.349 . S
C587 H579 0.950 . S
C587 C585 1.327 . S
C588 C576 1.349 . S
C588 H582 0.950 . S
C588 C589 1.327 . S
C589 H583 0.950 . S
C589 C588 1.327 . S
C589 C593 1.429 . S
C590 C573 1.574 . S
C590 H584 0.949 . S
C590 C594 1.368 . S
C591 C572 1.429 . S
C591 C585 1.429 . S
C591 C592 1.523 . S
C592 C573 1.368 . S
C592 C586 1.368 . S
C592 C591 1.523 . S
C593 C577 1.429 . S
C593 C589 1.429 . S
C593 C594 1.523 . S
C594 C578 1.368 . S
C594 C590 1.368 . S
C594 C593 1.523 . S
H595 C570 0.950 . S
H596 C572 0.950 . S
H597 C573 0.949 . S
H598 C575 0.950 . S
H599 C577 0.950 . S
C600 C601 1.349 . S
C600 C602 1.327 . S
C600 H625 0.950 . S
C601 C600 1.349 . S
C601 C617 1.349 . S
C602 C600 1.327 . S
C602 C621 1.429 . S
C602 H626 0.950 . S
C603 C620 1.574 . S
C603 C622 1.368 . S
C603 H627 0.949 . S
H604 C608 0.949 . S
C605 C606 1.349 . S
C605 C607 1.327 . S
C605 H628 0.950 . S
C606 C605 1.349 . S
C606 C618 1.349 . S
C607 C605 1.327 . S
C607 C623 1.429 . S
C607 H629 0.950 . S
C608 H604 0.949 . S
C608 C616 1.574 . S
C608 C624 1.368 . S
H609 C617 0.950 . S
H610 C615 0.950 . S
H611 C616 0.949 . S
H612 C618 0.950 . S
H613 C619 0.950 . S
H614 C620 0.949 . S
C615 H610 0.950 . S
C615 C617 1.327 . S
C615 C621 1.429 . S
C616 C608 1.574 . S
C616 H611 0.949 . S
C616 C622 1.368 . S
C617 C601 1.349 . S
C617 H609 0.950 . S
C617 C615 1.327 . S
C618 C606 1.349 . S
C618 H612 0.950 . S
C618 C619 1.327 . S
C619 H613 0.950 . S
C619 C618 1.327 . S
C619 C623 1.429 . S
C620 C603 1.574 . S
C620 H614 0.949 . S
C620 C624 1.368 . S
C621 C602 1.429 . S
C621 C615 1.429 . S
C621 C622 1.523 . S
C622 C603 1.368 . S
C622 C616 1.368 . S
C622 C621 1.523 . S
C623 C607 1.429 . S
C623 C619 1.429 . S
C623 C624 1.523 . S
C624 C608 1.368 . S
C624 C620 1.368 . S
C624 C623 1.523 . S
H625 C600 0.950 . S
H626 C602 0.950 . S
H627 C603 0.949 . S
H628 C605 0.950 . S
H629 C607 0.950 . S
C630 C631 1.349 . S
C630 C632 1.327 . S
C630 H655 0.950 . S
C631 C630 1.349 . S
C631 C647 1.349 . S
C632 C630 1.327 . S
C632 C651 1.429 . S
C632 H656 0.950 . S
C633 C650 1.574 . S
C633 C652 1.368 . S
C633 H657 0.949 . S
H634 C638 0.949 . S
C635 C636 1.349 . S
C635 C637 1.327 . S
C635 H658 0.950 . S
C636 C635 1.349 . S
C636 C648 1.349 . S
C637 C635 1.327 . S
C637 C653 1.429 . S
C637 H659 0.950 . S
C638 H634 0.949 . S
C638 C646 1.574 . S
C638 C654 1.368 . S
H639 C647 0.950 . S
H640 C645 0.950 . S
H641 C646 0.949 . S
H642 C648 0.950 . S
H643 C649 0.950 . S
H644 C650 0.949 . S
C645 H640 0.950 . S
C645 C647 1.327 . S
C645 C651 1.429 . S
C646 C638 1.574 . S
C646 H641 0.949 . S
C646 C652 1.368 . S
C647 C631 1.349 . S
C647 H639 0.950 . S
C647 C645 1.327 . S
C648 C636 1.349 . S
C648 H642 0.950 . S
C648 C649 1.327 . S
C649 H643 0.950 . S
C649 C648 1.327 . S
C649 C653 1.429 . S
C650 C633 1.574 . S
C650 H644 0.949 . S
C650 C654 1.368 . S
C651 C632 1.429 . S
C651 C645 1.429 . S
C651 C652 1.523 . S
C652 C633 1.368 . S
C652 C646 1.368 . S
C652 C651 1.523 . S
C653 C637 1.429 . S
C653 C649 1.429 . S
C653 C654 1.523 . S
C654 C638 1.368 . S
C654 C650 1.368 . S
C654 C653 1.523 . S
H655 C630 0.950 . S
H656 C632 0.950 . S
H657 C633 0.949 . S
H658 C635 0.950 . S
H659 C637 0.950 . S
C660 C661 1.349 . S
C660 C662 1.327 . S
C660 H685 0.950 . S
C661 C660 1.349 . S
C661 C677 1.349 . S
C662 C660 1.327 . S
C662 C681 1.429 . S
C662 H686 0.950 . S
C663 C680 1.574 . S
C663 C682 1.368 . S
C663 H687 0.949 . S
H664 C668 0.949 . S
C665 C666 1.349 . S
C665 C667 1.327 . S
C665 H688 0.950 1_556 S
C666 C665 1.349 . S
C666 C678 1.349 . S
C667 C665 1.327 . S
C667 C683 1.429 . S
C667 H689 0.950 1_556 S
C668 H664 0.949 . S
C668 C676 1.574 . S
C668 C684 1.368 . S
H669 C677 0.950 . S
H670 C675 0.950 . S
H671 C676 0.949 . S
H672 C678 0.950 . S
H673 C679 0.950 . S
H674 C680 0.949 . S
C675 H670 0.950 . S
C675 C677 1.327 . S
C675 C681 1.429 . S
C676 C668 1.574 . S
C676 H671 0.949 . S
C676 C682 1.368 . S
C677 C661 1.349 . S
C677 H669 0.950 . S
C677 C675 1.327 . S
C678 C666 1.349 . S
C678 H672 0.950 . S
C678 C679 1.327 . S
C679 H673 0.950 . S
C679 C678 1.327 . S
C679 C683 1.429 . S
C680 C663 1.574 . S
C680 H674 0.949 . S
C680 C684 1.368 . S
C681 C662 1.429 . S
C681 C675 1.429 . S
C681 C682 1.523 . S
C682 C663 1.368 . S
C682 C676 1.368 . S
C682 C681 1.523 . S
C683 C667 1.429 . S
C683 C679 1.429 . S
C683 C684 1.523 . S
C684 C668 1.368 . S
C684 C680 1.368 . S
C684 C683 1.523 . S
H685 C660 0.950 . S
H686 C662 0.950 . S
H687 C663 0.949 . S
H688 C665 0.950 1_554 S
H689 C667 0.950 1_554 S
C690 C691 1.349 . S
C690 C692 1.327 . S
C690 H715 0.950 . S
C691 C690 1.349 . S
C691 C707 1.349 . S
C692 C690 1.327 . S
C692 C711 1.429 . S
C692 H716 0.950 . S
C693 C710 1.574 . S
C693 C712 1.368 . S
C693 H717 0.949 . S
H694 C698 0.949 . S
C695 C696 1.349 . S
C695 C697 1.327 . S
C695 H718 0.950 . S
C696 C695 1.349 . S
C696 C708 1.349 . S
C697 C695 1.327 . S
C697 C713 1.429 . S
C697 H719 0.950 . S
C698 H694 0.949 . S
C698 C706 1.574 . S
C698 C714 1.368 . S
H699 C707 0.950 . S
H700 C705 0.950 . S
H701 C706 0.949 . S
H702 C708 0.950 . S
H703 C709 0.950 . S
H704 C710 0.949 . S
C705 H700 0.950 . S
C705 C707 1.327 . S
C705 C711 1.429 . S
C706 C698 1.574 . S
C706 H701 0.949 . S
C706 C712 1.368 . S
C707 C691 1.349 . S
C707 H699 0.950 . S
C707 C705 1.327 . S
C708 C696 1.349 . S
C708 H702 0.950 . S
C708 C709 1.327 . S
C709 H703 0.950 . S
C709 C708 1.327 . S
C709 C713 1.429 . S
C710 C693 1.574 . S
C710 H704 0.949 . S
C710 C714 1.368 . S
C711 C692 1.429 . S
C711 C705 1.429 . S
C711 C712 1.523 . S
C712 C693 1.368 . S
C712 C706 1.368 . S
C712 C711 1.523 . S
C713 C697 1.429 . S
C713 C709 1.429 . S
C713 C714 1.523 . S
C714 C698 1.368 . S
C714 C710 1.368 . S
C714 C713 1.523 . S
H715 C690 0.950 . S
H716 C692 0.950 . S
H717 C693 0.949 . S
H718 C695 0.950 . S
H719 C697 0.950 . S
C720 C721 1.349 . S
C720 C722 1.327 . S
C720 H745 0.950 . S
C721 C720 1.349 . S
C721 C737 1.349 . S
C722 C720 1.327 . S
C722 C741 1.429 . S
C722 H746 0.950 . S
C723 C740 1.574 . S
C723 C742 1.368 . S
C723 H747 0.949 . S
H724 C728 0.949 . S
C725 C726 1.349 . S
C725 C727 1.327 . S
C725 H748 0.950 . S
C726 C725 1.349 . S
C726 C738 1.349 . S
C727 C725 1.327 . S
C727 C743 1.429 . S
C727 H749 0.950 . S
C728 H724 0.949 . S
C728 C736 1.574 . S
C728 C744 1.368 . S
H729 C737 0.950 . S
H730 C735 0.950 . S
H731 C736 0.949 . S
H732 C738 0.912 1_556 S
H733 C739 0.950 . S
H734 C740 0.949 . S
C735 H730 0.950 . S
C735 C737 1.327 . S
C735 C741 1.429 . S
C736 C728 1.574 . S
C736 H731 0.949 . S
C736 C742 1.368 . S
C737 C721 1.349 . S
C737 H729 0.950 . S
C737 C735 1.327 . S
C738 C726 1.349 . S
C738 H732 0.912 1_554 S
C738 C739 1.327 . S
C739 H733 0.950 . S
C739 C738 1.327 . S
C739 C743 1.429 . S
C740 C723 1.574 . S
C740 H734 0.949 . S
C740 C744 1.368 . S
C741 C722 1.429 . S
C741 C735 1.429 . S
C741 C742 1.523 . S
C742 C723 1.368 . S
C742 C736 1.368 . S
C742 C741 1.523 . S
C743 C727 1.429 . S
C743 C739 1.429 . S
C743 C744 1.523 . S
C744 C728 1.368 . S
C744 C740 1.368 . S
C744 C743 1.523 . S
H745 C720 0.950 . S
H746 C722 0.950 . S
H747 C723 0.949 . S
H748 C725 0.950 . S
H749 C727 0.950 . S
C750 C751 1.349 . S
C750 C752 1.327 . S
C750 H775 0.950 . S
C751 C750 1.349 . S
C751 C767 1.349 . S
C752 C750 1.327 . S
C752 C771 1.429 . S
C752 H776 0.950 . S
C753 C770 1.574 . S
C753 C772 1.368 . S
C753 H777 0.949 . S
H754 C758 0.949 . S
C755 C756 1.349 . S
C755 C757 1.327 . S
C755 H778 0.950 . S
C756 C755 1.349 . S
C756 C768 1.349 . S
C757 C755 1.327 . S
C757 C773 1.429 . S
C757 H779 0.950 . S
C758 H754 0.949 . S
C758 C766 1.574 . S
C758 C774 1.368 . S
H759 C767 0.950 . S
H760 C765 0.950 . S
H761 C766 0.949 . S
H762 C768 0.950 . S
H763 C769 0.950 . S
H764 C770 0.949 . S
C765 H760 0.950 . S
C765 C767 1.327 . S
C765 C771 1.429 . S
C766 C758 1.574 . S
C766 H761 0.949 . S
C766 C772 1.368 . S
C767 C751 1.349 . S
C767 H759 0.950 . S
C767 C765 1.327 . S
C768 C756 1.349 . S
C768 H762 0.950 . S
C768 C769 1.327 . S
C769 H763 0.950 . S
C769 C768 1.327 . S
C769 C773 1.429 . S
C770 C753 1.574 . S
C770 H764 0.949 . S
C770 C774 1.368 . S
C771 C752 1.429 . S
C771 C765 1.429 . S
C771 C772 1.523 . S
C772 C753 1.368 . S
C772 C766 1.368 . S
C772 C771 1.523 . S
C773 C757 1.429 . S
C773 C769 1.429 . S
C773 C774 1.523 . S
C774 C758 1.368 . S
C774 C770 1.368 . S
C774 C773 1.523 . S
H775 C750 0.950 . S
H776 C752 0.950 . S
H777 C753 0.949 . S
H778 C755 0.950 . S
H779 C757 0.950 . S
C780 C781 1.349 . S
C780 C782 1.327 . S
C780 H805 0.950 . S
C781 C780 1.349 . S
C781 C797 1.349 . S
C782 C780 1.327 . S
C782 C801 1.429 . S
C782 H806 0.950 . S
C783 C800 1.574 . S
C783 C802 1.368 . S
C783 H807 0.949 . S
H784 C788 0.949 . S
C785 C786 1.349 1_554 S
C785 C787 1.313 1_554 S
C785 H808 0.950 . S
C786 C785 1.349 1_556 S
C786 C798 1.349 . S
C787 C785 1.313 1_556 S
C787 C803 1.467 . S
C787 H809 0.926 1_556 S
C788 H784 0.949 . S
C788 C796 1.574 . S
C788 C804 1.368 . S
H789 C797 0.950 . S
H790 C795 0.950 . S
H791 C796 0.949 . S
H792 C798 0.950 1_455 S
H793 C799 0.950 . S
H794 C800 0.949 1_554 S
C795 H790 0.950 . S
C795 C797 1.327 . S
C795 C801 1.429 . S
C796 C788 1.574 . S
C796 H791 0.949 . S
C796 C802 1.368 . S
C797 C781 1.349 . S
C797 H789 0.950 . S
C797 C795 1.327 . S
C798 C786 1.349 . S
C798 H792 0.950 1_655 S
C798 C799 1.327 . S
C799 H793 0.950 . S
C799 C798 1.327 . S
C799 C803 1.429 . S
C800 C783 1.574 . S
C800 H794 0.949 1_556 S
C800 C804 1.368 . S
C801 C782 1.429 . S
C801 C795 1.429 . S
C801 C802 1.523 . S
C802 C783 1.368 . S
C802 C796 1.368 . S
C802 C801 1.523 . S
C803 C787 1.467 . S
C803 C799 1.429 . S
C803 C804 1.523 . S
C804 C788 1.368 . S
C804 C800 1.368 . S
C804 C803 1.523 . S
H805 C780 0.950 . S
H806 C782 0.950 . S
H807 C783 0.949 . S
H808 C785 0.950 . S
H809 C787 0.926 1_554 S
C810 C811 1.349 . S
C810 C812 1.327 . S
C810 H835 0.950 . S
C811 C810 1.349 . S
C811 C827 1.349 . S
C812 C810 1.327 . S
C812 C831 1.429 . S
C812 H836 0.950 . S
C813 C830 1.574 . S
C813 C832 1.368 . S
C813 H837 0.949 . S
H814 C818 0.949 . S
C815 C816 1.349 . S
C815 C817 1.327 . S
C815 H838 0.950 . S
C816 C815 1.349 . S
C816 C828 1.349 . S
C817 C815 1.327 . S
C817 C833 1.429 . S
C817 H839 0.950 . S
C818 H814 0.949 . S
C818 C826 1.574 . S
C818 C834 1.368 . S
H819 C827 0.950 . S
H820 C825 0.950 . S
H821 C826 0.949 . S
H822 C828 0.950 . S
H823 C829 0.950 . S
H824 C830 0.949 . S
C825 H820 0.950 . S
C825 C827 1.327 . S
C825 C831 1.429 . S
C826 C818 1.574 . S
C826 H821 0.949 . S
C826 C832 1.368 . S
C827 C811 1.349 . S
C827 H819 0.950 . S
C827 C825 1.327 . S
C828 C816 1.349 . S
C828 H822 0.950 . S
C828 C829 1.327 . S
C829 H823 0.950 . S
C829 C828 1.327 . S
C829 C833 1.429 . S
C830 C813 1.574 . S
C830 H824 0.949 . S
C830 C834 1.368 . S
C831 C812 1.429 . S
C831 C825 1.429 . S
C831 C832 1.523 . S
C832 C813 1.368 . S
C832 C826 1.368 . S
C832 C831 1.523 . S
C833 C817 1.429 . S
C833 C829 1.429 . S
C833 C834 1.523 . S
C834 C818 1.368 . S
C834 C830 1.368 . S
C834 C833 1.523 . S
H835 C810 0.950 . S
H836 C812 0.950 . S
H837 C813 0.949 . S
H838 C815 0.950 . S
H839 C817 0.950 . S
C840 C841 1.349 . S
C840 C842 1.327 . S
C840 H865 0.950 . S
C841 C840 1.349 . S
C841 C857 1.349 . S
C842 C840 1.327 . S
C842 C861 1.429 . S
C842 H866 0.950 . S
C843 C860 1.574 . S
C843 C862 1.368 . S
C843 H867 0.949 . S
H844 C848 0.949 . S
C845 C846 1.349 . S
C845 C847 1.327 . S
C845 H868 0.950 . S
C846 C845 1.349 . S
C846 C858 1.349 . S
C847 C845 1.327 . S
C847 C863 1.429 . S
C847 H869 0.950 . S
C848 H844 0.949 . S
C848 C856 1.574 . S
C848 C864 1.368 . S
H849 C857 0.950 . S
H850 C855 0.950 . S
H851 C856 0.949 . S
H852 C858 0.950 . S
H853 C859 0.950 . S
H854 C860 0.949 . S
C855 H850 0.950 . S
C855 C857 1.327 . S
C855 C861 1.429 . S
C856 C848 1.574 . S
C856 H851 0.949 . S
C856 C862 1.368 . S
C857 C841 1.349 . S
C857 H849 0.950 . S
C857 C855 1.327 . S
C858 C846 1.349 . S
C858 H852 0.950 . S
C858 C859 1.327 . S
C859 H853 0.950 . S
C859 C858 1.327 . S
C859 C863 1.429 . S
C860 C843 1.574 . S
C860 H854 0.949 . S
C860 C864 1.368 . S
C861 C842 1.429 . S
C861 C855 1.429 . S
C861 C862 1.523 . S
C862 C843 1.368 . S
C862 C856 1.368 . S
C862 C861 1.523 . S
C863 C847 1.429 . S
C863 C859 1.429 . S
C863 C864 1.523 . S
C864 C848 1.368 . S
C864 C860 1.368 . S
C864 C863 1.523 . S
H865 C840 0.950 . S
H866 C842 0.950 . S
H867 C843 0.949 . S
H868 C845 0.950 . S
H869 C847 0.950 . S
C870 C871 1.349 . S
C870 C872 1.327 . S
C870 H895 0.950 . S
C871 C870 1.349 . S
C871 C887 1.349 . S
C872 C870 1.327 . S
C872 C891 1.429 . S
C872 H896 0.950 . S
C873 C890 1.574 . S
C873 C892 1.368 . S
C873 H897 0.949 . S
H874 C878 0.949 . S
C875 C876 1.349 . S
C875 C877 1.327 . S
C875 H898 0.950 . S
C876 C875 1.349 . S
C876 C888 1.349 . S
C877 C875 1.327 . S
C877 C893 1.429 . S
C877 H899 0.950 . S
C878 H874 0.949 . S
C878 C886 1.574 . S
C878 C894 1.368 . S
H879 C887 0.950 . S
H880 C885 0.950 . S
H881 C886 0.949 . S
H882 C888 0.950 . S
H883 C889 0.950 . S
H884 C890 0.949 . S
C885 H880 0.950 . S
C885 C887 1.327 . S
C885 C891 1.429 . S
C886 C878 1.574 . S
C886 H881 0.949 . S
C886 C892 1.368 . S
C887 C871 1.349 . S
C887 H879 0.950 . S
C887 C885 1.327 . S
C888 C876 1.349 . S
C888 H882 0.950 . S
C888 C889 1.327 . S
C889 H883 0.950 . S
C889 C888 1.327 . S
C889 C893 1.429 . S
C890 C873 1.574 . S
C890 H884 0.949 . S
C890 C894 1.368 . S
C891 C872 1.429 . S
C891 C885 1.429 . S
C891 C892 1.523 . S
C892 C873 1.368 . S
C892 C886 1.368 . S
C892 C891 1.523 . S
C893 C877 1.429 . S
C893 C889 1.429 . S
C893 C894 1.523 . S
C894 C878 1.368 . S
C894 C890 1.368 . S
C894 C893 1.523 . S
H895 C870 0.950 . S
H896 C872 0.950 . S
H897 C873 0.949 . S
H898 C875 0.950 . S
H899 C877 0.950 . S
C181 C6 1.792 . S
C186 C112 1.735 . S
C211 C18 1.795 . S
C216 C134 1.742 . S
C246 C153 1.243 . S
C241 C28 1.447 . S
C271 C40 1.193 . S
C276 C174 0.997 . S
C306 C131 2.064 . S
C301 C9 2.135 . S
C336 C109 1.660 . S
C331 C16 1.715 . S
C366 C176 1.237 . S
C361 C30 1.305 . S
C396 C155 1.014 . S
C391 C42 1.050 . S
C421 C4 1.712 . S
C426 C173 1.651 . S
C456 C132 1.403 . S
C451 C33 1.668 . S
C481 C45 1.389 . S
C486 C114 1.209 . S
C511 C21 1.747 . S
C516 C152 1.719 . S
C546 C110 1.779 . S
C541 C57 1.866 . S
C571 C66 1.621 . S
C576 C130 1.578 . S
C601 C76 1.556 . S
C606 C156 1.332 . S
C631 C88 1.024 . S
C636 C177 0.877 . S
C661 C54 2.044 . S
C666 C133 1.984 . S
C696 C113 1.785 . S
C691 C64 1.839 . S
C726 C172 1.041 . S
C721 C78 1.086 . S
C756 C151 1.161 . S
C751 C93 1.197 . S
C781 C52 1.471 . S
C786 C175 1.423 . S
C816 C135 1.351 . S
C811 C81 1.579 . S
C846 C111 1.028 . S
C841 C90 1.169 . S
C871 C69 1.720 . S
C876 C154 1.681 . S
