# Generated by pormake.
# Topology llk, (3,12)-cn, num edge types: 1
# Building blocks:
#     Node 0, Type 0, BuildingBlock: ESEHIV_clean_linker_0, # of connection points: 3
#     Node 1, Type 0, BuildingBlock: ESEHIV_clean_linker_0, # of connection points: 3
#     Node 2, Type 0, BuildingBlock: ESEHIV_clean_linker_0, # of connection points: 3
#     Node 3, Type 0, BuildingBlock: ESEHIV_clean_linker_0, # of connection points: 3
#     Node 4, Type 0, BuildingBlock: ESEHIV_clean_linker_0, # of connection points: 3
#     Node 5, Type 0, BuildingBlock: ESEHIV_clean_linker_0, # of connection points: 3
#     Node 6, Type 0, BuildingBlock: ESEHIV_clean_linker_0, # of connection points: 3
#     Node 7, Type 0, BuildingBlock: ESEHIV_clean_linker_0, # of connection points: 3
#     Node 8, Type 0, BuildingBlock: ESEHIV_clean_linker_0, # of connection points: 3
#     Node 9, Type 0, BuildingBlock: ESEHIV_clean_linker_0, # of connection points: 3
#     Node 10, Type 0, BuildingBlock: ESEHIV_clean_linker_0, # of connection points: 3
#     Node 11, Type 0, BuildingBlock: ESEHIV_clean_linker_0, # of connection points: 3
#     Node 12, Type 0, BuildingBlock: ESEHIV_clean_linker_0, # of connection points: 3
#     Node 13, Type 0, BuildingBlock: ESEHIV_clean_linker_0, # of connection points: 3
#     Node 14, Type 0, BuildingBlock: ESEHIV_clean_linker_0, # of connection points: 3
#     Node 15, Type 0, BuildingBlock: ESEHIV_clean_linker_0, # of connection points: 3
#     Node 16, Type 0, BuildingBlock: ESEHIV_clean_linker_0, # of connection points: 3
#     Node 17, Type 0, BuildingBlock: ESEHIV_clean_linker_0, # of connection points: 3
#     Node 18, Type 0, BuildingBlock: ESEHIV_clean_linker_0, # of connection points: 3
#     Node 19, Type 0, BuildingBlock: ESEHIV_clean_linker_0, # of connection points: 3
#     Node 20, Type 0, BuildingBlock: ESEHIV_clean_linker_0, # of connection points: 3
#     Node 21, Type 0, BuildingBlock: ESEHIV_clean_linker_0, # of connection points: 3
#     Node 22, Type 0, BuildingBlock: ESEHIV_clean_linker_0, # of connection points: 3
#     Node 23, Type 0, BuildingBlock: ESEHIV_clean_linker_0, # of connection points: 3
#     Node 24, Type 1, BuildingBlock: EZIPEK_clean_sbu_0, # of connection points: 12
#     Node 25, Type 1, BuildingBlock: EZIPEK_clean_sbu_0, # of connection points: 12
#     Node 26, Type 1, BuildingBlock: EZIPEK_clean_sbu_0, # of connection points: 12
#     Node 27, Type 1, BuildingBlock: EZIPEK_clean_sbu_0, # of connection points: 12
#     Node 28, Type 1, BuildingBlock: EZIPEK_clean_sbu_0, # of connection points: 12
#     Node 29, Type 1, BuildingBlock: EZIPEK_clean_sbu_0, # of connection points: 12
#     Edge 30, Type (0, 1), BuildingBlock: XUDNAN_clean_linker_2, # of connection points: 2
#     Edge 31, Type (0, 1), BuildingBlock: XUDNAN_clean_linker_2, # of connection points: 2
#     Edge 32, Type (0, 1), BuildingBlock: XUDNAN_clean_linker_2, # of connection points: 2
#     Edge 33, Type (0, 1), BuildingBlock: XUDNAN_clean_linker_2, # of connection points: 2
#     Edge 34, Type (0, 1), BuildingBlock: XUDNAN_clean_linker_2, # of connection points: 2
#     Edge 35, Type (0, 1), BuildingBlock: XUDNAN_clean_linker_2, # of connection points: 2
#     Edge 36, Type (0, 1), BuildingBlock: XUDNAN_clean_linker_2, # of connection points: 2
#     Edge 37, Type (0, 1), BuildingBlock: XUDNAN_clean_linker_2, # of connection points: 2
#     Edge 38, Type (0, 1), BuildingBlock: XUDNAN_clean_linker_2, # of connection points: 2
#     Edge 39, Type (0, 1), BuildingBlock: XUDNAN_clean_linker_2, # of connection points: 2
#     Edge 40, Type (0, 1), BuildingBlock: XUDNAN_clean_linker_2, # of connection points: 2
#     Edge 41, Type (0, 1), BuildingBlock: XUDNAN_clean_linker_2, # of connection points: 2
#     Edge 42, Type (0, 1), BuildingBlock: XUDNAN_clean_linker_2, # of connection points: 2
#     Edge 43, Type (0, 1), BuildingBlock: XUDNAN_clean_linker_2, # of connection points: 2
#     Edge 44, Type (0, 1), BuildingBlock: XUDNAN_clean_linker_2, # of connection points: 2
#     Edge 45, Type (0, 1), BuildingBlock: XUDNAN_clean_linker_2, # of connection points: 2
#     Edge 46, Type (0, 1), BuildingBlock: XUDNAN_clean_linker_2, # of connection points: 2
#     Edge 47, Type (0, 1), BuildingBlock: XUDNAN_clean_linker_2, # of connection points: 2
#     Edge 48, Type (0, 1), BuildingBlock: XUDNAN_clean_linker_2, # of connection points: 2
#     Edge 49, Type (0, 1), BuildingBlock: XUDNAN_clean_linker_2, # of connection points: 2
#     Edge 50, Type (0, 1), BuildingBlock: XUDNAN_clean_linker_2, # of connection points: 2
#     Edge 51, Type (0, 1), BuildingBlock: XUDNAN_clean_linker_2, # of connection points: 2
#     Edge 52, Type (0, 1), BuildingBlock: XUDNAN_clean_linker_2, # of connection points: 2
#     Edge 53, Type (0, 1), BuildingBlock: XUDNAN_clean_linker_2, # of connection points: 2
#     Edge 54, Type (0, 1), BuildingBlock: XUDNAN_clean_linker_2, # of connection points: 2
#     Edge 55, Type (0, 1), BuildingBlock: XUDNAN_clean_linker_2, # of connection points: 2
#     Edge 56, Type (0, 1), BuildingBlock: XUDNAN_clean_linker_2, # of connection points: 2
#     Edge 57, Type (0, 1), BuildingBlock: XUDNAN_clean_linker_2, # of connection points: 2
#     Edge 58, Type (0, 1), BuildingBlock: XUDNAN_clean_linker_2, # of connection points: 2
#     Edge 59, Type (0, 1), BuildingBlock: XUDNAN_clean_linker_2, # of connection points: 2
#     Edge 60, Type (0, 1), BuildingBlock: XUDNAN_clean_linker_2, # of connection points: 2
#     Edge 61, Type (0, 1), BuildingBlock: XUDNAN_clean_linker_2, # of connection points: 2
#     Edge 62, Type (0, 1), BuildingBlock: XUDNAN_clean_linker_2, # of connection points: 2
#     Edge 63, Type (0, 1), BuildingBlock: XUDNAN_clean_linker_2, # of connection points: 2
#     Edge 64, Type (0, 1), BuildingBlock: XUDNAN_clean_linker_2, # of connection points: 2
#     Edge 65, Type (0, 1), BuildingBlock: XUDNAN_clean_linker_2, # of connection points: 2
#     Edge 66, Type (0, 1), BuildingBlock: XUDNAN_clean_linker_2, # of connection points: 2
#     Edge 67, Type (0, 1), BuildingBlock: XUDNAN_clean_linker_2, # of connection points: 2
#     Edge 68, Type (0, 1), BuildingBlock: XUDNAN_clean_linker_2, # of connection points: 2
#     Edge 69, Type (0, 1), BuildingBlock: XUDNAN_clean_linker_2, # of connection points: 2
#     Edge 70, Type (0, 1), BuildingBlock: XUDNAN_clean_linker_2, # of connection points: 2
#     Edge 71, Type (0, 1), BuildingBlock: XUDNAN_clean_linker_2, # of connection points: 2
#     Edge 72, Type (0, 1), BuildingBlock: XUDNAN_clean_linker_2, # of connection points: 2
#     Edge 73, Type (0, 1), BuildingBlock: XUDNAN_clean_linker_2, # of connection points: 2
#     Edge 74, Type (0, 1), BuildingBlock: XUDNAN_clean_linker_2, # of connection points: 2
#     Edge 75, Type (0, 1), BuildingBlock: XUDNAN_clean_linker_2, # of connection points: 2
#     Edge 76, Type (0, 1), BuildingBlock: XUDNAN_clean_linker_2, # of connection points: 2
#     Edge 77, Type (0, 1), BuildingBlock: XUDNAN_clean_linker_2, # of connection points: 2
#     Edge 78, Type (0, 1), BuildingBlock: XUDNAN_clean_linker_2, # of connection points: 2
#     Edge 79, Type (0, 1), BuildingBlock: XUDNAN_clean_linker_2, # of connection points: 2
#     Edge 80, Type (0, 1), BuildingBlock: XUDNAN_clean_linker_2, # of connection points: 2
#     Edge 81, Type (0, 1), BuildingBlock: XUDNAN_clean_linker_2, # of connection points: 2
#     Edge 82, Type (0, 1), BuildingBlock: XUDNAN_clean_linker_2, # of connection points: 2
#     Edge 83, Type (0, 1), BuildingBlock: XUDNAN_clean_linker_2, # of connection points: 2
#     Edge 84, Type (0, 1), BuildingBlock: XUDNAN_clean_linker_2, # of connection points: 2
#     Edge 85, Type (0, 1), BuildingBlock: XUDNAN_clean_linker_2, # of connection points: 2
#     Edge 86, Type (0, 1), BuildingBlock: XUDNAN_clean_linker_2, # of connection points: 2
#     Edge 87, Type (0, 1), BuildingBlock: XUDNAN_clean_linker_2, # of connection points: 2
#     Edge 88, Type (0, 1), BuildingBlock: XUDNAN_clean_linker_2, # of connection points: 2
#     Edge 89, Type (0, 1), BuildingBlock: XUDNAN_clean_linker_2, # of connection points: 2
#     Edge 90, Type (0, 1), BuildingBlock: XUDNAN_clean_linker_2, # of connection points: 2
#     Edge 91, Type (0, 1), BuildingBlock: XUDNAN_clean_linker_2, # of connection points: 2
#     Edge 92, Type (0, 1), BuildingBlock: XUDNAN_clean_linker_2, # of connection points: 2
#     Edge 93, Type (0, 1), BuildingBlock: XUDNAN_clean_linker_2, # of connection points: 2
#     Edge 94, Type (0, 1), BuildingBlock: XUDNAN_clean_linker_2, # of connection points: 2
#     Edge 95, Type (0, 1), BuildingBlock: XUDNAN_clean_linker_2, # of connection points: 2
#     Edge 96, Type (0, 1), BuildingBlock: XUDNAN_clean_linker_2, # of connection points: 2
#     Edge 97, Type (0, 1), BuildingBlock: XUDNAN_clean_linker_2, # of connection points: 2
#     Edge 98, Type (0, 1), BuildingBlock: XUDNAN_clean_linker_2, # of connection points: 2
#     Edge 99, Type (0, 1), BuildingBlock: XUDNAN_clean_linker_2, # of connection points: 2
#     Edge 100, Type (0, 1), BuildingBlock: XUDNAN_clean_linker_2, # of connection points: 2
#     Edge 101, Type (0, 1), BuildingBlock: XUDNAN_clean_linker_2, # of connection points: 2
# Relax obj value: 0.107
# Max RMSD: 0.160
# Mean RMSD: 0.134
data_MOF--net-llk--node1-EZIPEK_clean_sbu_0--node2-ESEHIV_clean_linker_0--edge1-XUDNAN_clean_linker_2
_symmetry_space_group_name_H-M    P1
_symmetry_Int_Tables_number       1
_symmetry_cell_setting            triclinic
loop_
_symmetry_equiv_pos_as_xyz
'x, y, z'
_cell_length_a     43.941353
_cell_length_b     43.919947
_cell_length_c     43.925106
_cell_angle_alpha  90.014015
_cell_angle_beta   90.035665
_cell_angle_gamma 90.023045
loop_
_atom_site_label
_atom_site_type_symbol
_atom_site_fract_x
_atom_site_fract_y
_atom_site_fract_z
_atom_type_partial_charge
H0 H 0.96713 0.25394 0.32634 0.0
H1 H 0.96821 0.32958 0.26529 0.0
H2 H 0.01771 0.2477 0.24265 0.0
C3 C 0.97475 0.26402 0.30512 0.0
C4 C 0.99452 0.24768 0.28631 0.0
C5 C 0.96683 0.29403 0.29868 0.0
C6 C 0.97498 0.30648 0.27051 0.0
C7 C 0.99273 0.29003 0.2495 0.0
C8 C 1.00282 0.2603 0.25771 0.0
H9 H 0.69316 0.97091 0.25304 0.0
H10 H 0.76784 0.96366 0.31472 0.0
H11 H 0.77969 0.01062 0.22946 0.0
C12 C 0.71713 0.97412 0.2578 0.0
C13 C 0.73576 0.98845 0.23597 0.0
C14 C 0.72835 0.96574 0.28637 0.0
C15 C 0.75876 0.97143 0.29311 0.0
C16 C 0.77673 0.98974 0.27419 0.0
C17 C 0.76562 0.99745 0.24481 0.0
H18 H 0.05036 0.75518 0.32287 0.0
H19 H 0.05898 0.69053 0.25068 0.0
H20 H 0.99777 0.76678 0.24099 0.0
C21 C 0.04453 0.74785 0.30006 0.0
C22 C 0.02371 0.76506 0.28304 0.0
C23 C 0.05643 0.7205 0.28898 0.0
C24 C 0.04892 0.71126 0.25951 0.0
C25 C 0.02677 0.7267 0.24241 0.0
C26 C 0.01477 0.75441 0.25388 0.0
H27 H 0.25503 0.06419 0.32849 0.0
H28 H 0.33225 0.06067 0.26955 0.0
H29 H 0.25906 0.99635 0.2579 0.0
C30 C 0.26677 0.0538 0.30943 0.0
C31 C 0.25413 0.02816 0.2953 0.0
C32 C 0.296 0.06387 0.30212 0.0
C33 C 0.31009 0.05215 0.27599 0.0
C34 C 0.29675 0.02843 0.25902 0.0
C35 C 0.26872 0.016 0.26926 0.0
H36 H 0.05214 0.7716 0.70476 0.0
H37 H 0.05598 0.71343 0.78312 0.0
H38 H 0.98509 0.78055 0.77504 0.0
C39 C 0.0445 0.76564 0.72743 0.0
C40 C 0.01962 0.78149 0.73968 0.0
C41 C 0.05653 0.73987 0.74203 0.0
C42 C 0.04615 0.73275 0.77129 0.0
C43 C 0.0197 0.74619 0.78296 0.0
C44 C 1.00608 0.77058 0.76684 0.0
H45 H 0.25378 0.04542 0.70103 0.0
H46 H 0.30985 0.04979 0.78009 0.0
H47 H 0.22206 1.00636 0.78552 0.0
C48 C 0.25617 0.04191 0.72532 0.0
C49 C 0.2328 0.02732 0.74173 0.0
C50 C 0.28375 0.04987 0.73904 0.0
C51 C 0.28818 0.04384 0.7698 0.0
C52 C 0.26663 0.02766 0.78673 0.0
C53 C 0.23874 0.01909 0.77262 0.0
H54 H 0.96031 0.31382 0.76906 0.0
H55 H 0.95063 0.244 0.70163 0.0
H56 H 0.01859 0.23568 0.77211 0.0
C57 C 0.9658 0.29135 0.7605 0.0
C58 C 0.98837 0.27458 0.77557 0.0
C59 C 0.95353 0.28146 0.73275 0.0
C60 C 0.96155 0.25256 0.72204 0.0
C61 C 0.98609 0.23647 0.73473 0.0
C62 C 0.99939 0.24745 0.76206 0.0
H63 H 0.70948 0.95342 0.7796 0.0
H64 H 0.76845 0.95883 0.70201 0.0
H65 H 0.7723 0.02817 0.77053 0.0
C66 C 0.72846 0.96406 0.76792 0.0
C67 C 0.74002 0.9916 0.77913 0.0
C68 C 0.73621 0.95382 0.73876 0.0
C69 C 0.76175 0.96661 0.72444 0.0
C70 C 0.77607 0.99259 0.73628 0.0
C71 C 0.76385 1.00629 0.76291 0.0
H72 H 0.25839 0.32071 0.94867 0.0
H73 H 0.3282 0.25421 0.96366 0.0
H74 H 0.24404 0.24735 0.01239 0.0
C75 C 0.26614 0.30007 0.95973 0.0
C76 C 0.24758 0.28602 0.98163 0.0
C77 C 0.29596 0.29013 0.95455 0.0
C78 C 0.30508 0.26217 0.96691 0.0
C79 C 0.28624 0.24598 0.98688 0.0
C80 C 0.25765 0.2584 0.99507 0.0
H81 H 0.31742 0.76574 0.95148 0.0
H82 H 0.25566 0.69099 0.95727 0.0
H83 H 0.23938 0.77182 0.0106 0.0
C84 C 0.29661 0.75608 0.9606 0.0
C85 C 0.28004 0.77229 0.98252 0.0
C86 C 0.28938 0.72599 0.95345 0.0
C87 C 0.26174 0.714 0.96366 0.0
C88 C 0.243 0.73023 0.98392 0.0
C89 C 0.25245 0.75966 0.99361 0.0
H90 H 0.69161 0.25115 0.94114 0.0
H91 H 0.75733 0.32278 0.94691 0.0
H92 H 0.77143 0.23985 0.99712 0.0
C93 C 0.71324 0.25962 0.94953 0.0
C94 C 0.73026 0.24182 0.96987 0.0
C95 C 0.72188 0.28944 0.94258 0.0
C96 C 0.75024 0.29987 0.95259 0.0
C97 C 0.76837 0.28256 0.9724 0.0
C98 C 0.75838 0.2531 0.98093 0.0
H99 H 0.70003 0.78004 0.05085 0.0
H100 H 0.75657 0.70082 0.05224 0.0
H101 H 0.76738 0.76751 0.98099 0.0
C102 C 0.71904 0.76727 0.04161 0.0
C103 C 0.73312 0.77757 0.01498 0.0
C104 C 0.7257 0.73862 0.05367 0.0
C105 C 0.75066 0.72242 0.04205 0.0
C106 C 0.76666 0.73261 0.0162 0.0
C107 C 0.75702 0.76013 1.0021 0.0
H108 H 0.45456 0.7531 0.82659 0.0
H109 H 0.44922 0.81099 0.7483 0.0
H110 H 0.51541 0.73887 0.75128 0.0
C111 C 0.46116 0.75839 0.80343 0.0
C112 C 0.48375 0.74053 0.78939 0.0
C113 C 0.44975 0.78473 0.78944 0.0
C114 C 0.45906 0.7915 0.75986 0.0
C115 C 0.48407 0.77681 0.74682 0.0
C116 C 0.49621 0.75064 0.76128 0.0
H117 H 0.21373 0.55571 0.75018 0.0
H118 H 0.27403 0.55078 0.82692 0.0
H119 H 0.29173 0.49654 0.74756 0.0
C120 C 0.2347 0.54759 0.76041 0.0
C121 C 0.25202 0.52582 0.74489 0.0
C122 C 0.24108 0.55508 0.7907 0.0
C123 C 0.2687 0.54532 0.80345 0.0
C124 C 0.28794 0.52527 0.78766 0.0
C125 C 0.27869 0.51419 0.75879 0.0
H126 H 0.46656 0.21014 0.75008 0.0
H127 H 0.47014 0.27064 0.82671 0.0
H128 H 0.53327 0.28187 0.75306 0.0
C129 C 0.47582 0.23021 0.76109 0.0
C130 C 0.50082 0.24491 0.74784 0.0
C131 C 0.46606 0.23773 0.79048 0.0
C132 C 0.47726 0.26448 0.80393 0.0
C133 C 0.50047 0.28162 0.79014 0.0
C134 C 0.51351 0.27069 0.76265 0.0
H135 H 0.75448 0.45558 0.82719 0.0
H136 H 0.8105 0.45163 0.74729 0.0
H137 H 0.75091 0.52792 0.76182 0.0
C138 C 0.76107 0.46419 0.80506 0.0
C139 C 0.74696 0.49089 0.7944 0.0
C140 C 0.78579 0.45114 0.78944 0.0
C141 C 0.79319 0.46286 0.7608 0.0
C142 C 0.78313 0.4918 0.75198 0.0
C143 C 0.75919 0.50566 0.76845 0.0
H144 H 0.56546 0.26585 0.20272 0.0
H145 H 0.56055 0.19258 0.26635 0.0
H146 H 0.52528 0.28083 0.29102 0.0
C147 C 0.55967 0.25777 0.2253 0.0
C148 C 0.54554 0.27751 0.24606 0.0
C149 C 0.56435 0.22712 0.23212 0.0
C150 C 0.55662 0.21633 0.26103 0.0
C151 C 0.54252 0.23521 0.28265 0.0
C152 C 0.53682 0.26608 0.27498 0.0
H153 H 0.75955 0.55432 0.20551 0.0
H154 H 0.82863 0.56179 0.27364 0.0
H155 H 0.74883 0.50693 0.29057 0.0
C156 C 0.76768 0.54922 0.22823 0.0
C157 C 0.75024 0.53019 0.24696 0.0
C158 C 0.79633 0.55966 0.23718 0.0
C159 C 0.80671 0.55297 0.26648 0.0
C160 C 0.79051 0.53325 0.28572 0.0
C161 C 0.7616 0.52233 0.27617 0.0
H162 H 0.54871 0.82528 0.26037 0.0
H163 H 0.54566 0.74498 0.20569 0.0
H164 H 0.49017 0.75049 0.28606 0.0
C165 C 0.53999 0.80257 0.25683 0.0
C166 C 0.51919 0.78999 0.27777 0.0
C167 C 0.54843 0.78702 0.23025 0.0
C168 C 0.53882 0.75708 0.22613 0.0
C169 C 0.51771 0.74372 0.2458 0.0
C170 C 0.50745 0.76035 0.27153 0.0
H171 H 0.19078 0.47273 0.26667 0.0
H172 H 0.26323 0.46795 0.20225 0.0
H173 H 0.27988 0.50616 0.29109 0.0
C174 C 0.21475 0.47545 0.2616 0.0
C175 C 0.23432 0.48776 0.28377 0.0
C176 C 0.22494 0.46853 0.23231 0.0
C177 C 0.25517 0.47407 0.22478 0.0
C178 C 0.27478 0.48901 0.24493 0.0
C179 C 0.26464 0.4953 0.27503 0.0
H180 H 0.74207 0.81685 0.46 0.0
H181 H 0.82229 0.76192 0.46335 0.0
H182 H 0.74973 0.74657 0.52772 0.0
C183 C 0.75468 0.79811 0.46998 0.0
C184 C 0.74266 0.78302 0.49531 0.0
C185 C 0.78411 0.79215 0.45978 0.0
C186 C 0.7998 0.7671 0.47186 0.0
C187 C 0.78768 0.74979 0.49599 0.0
C188 C 0.75884 0.75821 0.50799 0.0
H189 H 0.81653 0.28762 0.46805 0.0
H190 H 0.76795 0.20333 0.4782 0.0
H191 H 0.74229 0.2808 0.53114 0.0
C192 C 0.79858 0.27418 0.4781 0.0
C193 C 0.7811 0.28745 0.50127 0.0
C194 C 0.7961 0.24307 0.47119 0.0
C195 C 0.77072 0.22731 0.48267 0.0
C196 C 0.74964 0.24109 0.50238 0.0
C197 C 0.75621 0.27078 0.51345 0.0
H198 H 0.19966 0.75921 0.57342 0.0
H199 H 0.27034 0.82639 0.57617 0.0
H200 H 0.27755 0.75021 0.51492 0.0
C201 C 0.22185 0.76711 0.56625 0.0
C202 C 0.23763 0.75043 0.54406 0.0
C203 C 0.23251 0.79529 0.57666 0.0
C204 C 0.26177 0.80468 0.56807 0.0
C205 C 0.27805 0.78904 0.5455 0.0
C206 C 0.26585 0.76176 0.53329 0.0
H207 H 0.20028 0.25406 0.48317 0.0
H208 H 0.27801 0.19603 0.48051 0.0
H209 H 0.28308 0.28152 0.52861 0.0
C210 C 0.22382 0.25005 0.48924 0.0
C211 C 0.23958 0.27157 0.50692 0.0
C212 C 0.2375 0.22281 0.48014 0.0
C213 C 0.2679 0.21749 0.48732 0.0
C214 C 0.28487 0.23834 0.50456 0.0
C215 C 0.27049 0.26552 0.5147 0.0
C216 C 0.99282 0.93144 0.5766 0.0
C217 C 1.00723 0.93243 0.42913 0.0
C218 C 0.01189 0.07737 0.58014 0.0
C219 C 0.01537 0.07864 0.43002 0.0
C220 C 0.94233 0.08693 0.49312 0.0
C221 C 0.92948 0.94024 0.48328 0.0
C222 C 0.08604 0.07211 0.49588 0.0
C223 C 0.07197 0.92761 0.52269 0.0
C224 C 0.08486 0.99541 0.4352 0.0
C225 C 0.93989 0.01175 0.42372 0.0
C226 C 0.07436 1.00132 0.58368 0.0
C227 C 0.92727 0.01229 0.57281 0.0
Eu228 Eu 1.00173 0.94783 0.50336 0.0
O229 O 0.97994 0.982 0.4762 0.0
O230 O 0.02867 0.97725 0.53135 0.0
Eu231 Eu 0.9486 0.01146 0.49947 0.0
Eu232 Eu 0.06462 1.00106 0.50827 0.0
O233 O 0.9742 0.98045 0.5284 0.0
O234 O 0.03442 0.97539 0.47893 0.0
Eu235 Eu 1.00194 1.00495 0.56098 0.0
Eu236 Eu 0.0113 1.00547 0.44782 0.0
O237 O 0.97964 0.03542 0.52936 0.0
O238 O 0.98463 0.03491 0.4762 0.0
O239 O 0.03792 0.0304 0.48 0.0
O240 O 0.03426 0.03032 0.53363 0.0
Eu241 Eu 0.01207 0.06339 0.50502 0.0
O242 O 0.99045 0.92263 0.54751 0.0
O243 O 1.00674 0.922 0.45788 0.0
O244 O 0.01487 0.08782 0.55152 0.0
O245 O 0.01377 0.08888 0.45884 0.0
O246 O 0.92956 0.05928 0.4913 0.0
O247 O 0.92106 0.96901 0.48862 0.0
O248 O 0.09363 0.04302 0.50026 0.0
O249 O 0.08427 0.95503 0.51844 0.0
O250 O 0.05681 1.00058 0.42501 0.0
O251 O 0.96954 1.00871 0.41816 0.0
O252 O 0.04465 0.99937 0.59001 0.0
O253 O 0.95541 1.00816 0.58368 0.0
O254 O 0.05836 0.08408 0.49883 0.0
O255 O 0.97092 0.09266 0.50112 0.0
O256 O 0.04293 0.91993 0.5177 0.0
O257 O 0.95679 0.92818 0.4887 0.0
O258 O 1.00784 0.96174 0.42148 0.0
O259 O 0.01597 0.04939 0.42209 0.0
O260 O 0.99839 0.9598 0.58603 0.0
O261 O 1.00618 0.04853 0.58766 0.0
O262 O 0.91995 0.01454 0.54319 0.0
O263 O 0.92745 0.01361 0.45157 0.0
O264 O 0.08632 1.00433 0.55575 0.0
O265 O 0.0928 0.99387 0.46468 0.0
C266 C 0.51893 0.93226 0.07622 0.0
C267 C 0.52604 0.07727 0.07907 0.0
C268 C 0.48153 0.93662 0.93369 0.0
C269 C 0.4883 0.08253 0.93637 0.0
C270 C 0.57279 1.0076 0.92488 0.0
C271 C 0.58548 1.00657 0.07147 0.0
C272 C 0.42432 1.00861 0.93885 0.0
C273 C 0.43672 1.00679 0.08532 0.0
C274 C 0.43595 0.08541 0.01543 0.0
C275 C 0.5831 0.07636 0.99756 0.0
C276 C 0.4267 0.9382 0.01212 0.0
C277 C 0.57439 0.9296 0.9949 0.0
Eu278 Eu 0.5097 1.0058 0.06322 0.0
O279 O 0.53439 0.03096 0.02948 0.0
O280 O 0.47854 0.98054 0.035 0.0
Eu281 Eu 0.56163 1.0038 0.99954 0.0
Eu282 Eu 0.44822 0.01092 0.01083 0.0
O283 O 0.53226 0.97844 0.02937 0.0
O284 O 0.48174 0.03624 0.03648 0.0
Eu285 Eu 0.50173 0.94929 1.00488 0.0
Eu286 Eu 0.50839 0.06518 1.00679 0.0
O287 O 0.52784 0.97823 0.9744 0.0
O288 O 0.53099 0.0341 0.97575 0.0
O289 O 0.47813 0.03601 0.98168 0.0
O290 O 0.47586 0.98354 0.98166 0.0
Eu291 Eu 0.49987 1.00858 0.94741 0.0
O292 O 0.51677 0.96076 0.08637 0.0
O293 O 0.52031 0.04902 0.08849 0.0
O294 O 0.48849 0.96431 0.92307 0.0
O295 O 0.4903 0.05426 0.92529 0.0
O296 O 0.58377 1.00352 0.95291 0.0
O297 O 0.59164 1.00644 0.0417 0.0
O298 O 0.41815 0.01094 0.96853 0.0
O299 O 0.42628 1.00981 0.05701 0.0
O300 O 0.46547 0.09294 0.01661 0.0
O301 O 0.55493 0.08803 0.99955 0.0
O302 O 0.455 0.92662 0.01168 0.0
O303 O 0.54486 0.92187 0.9941 0.0
O304 O 0.45215 1.00724 0.92653 0.0
O305 O 0.54315 0.01048 0.91788 0.0
O306 O 0.46632 1.00533 0.09296 0.0
O307 O 0.55765 1.00521 0.08389 0.0
O308 O 0.52226 0.08798 0.05089 0.0
O309 O 0.49539 0.09132 0.96456 0.0
O310 O 0.51308 0.92287 0.04789 0.0
O311 O 0.48584 0.92667 0.96199 0.0
O312 O 0.58504 0.95779 0.99876 0.0
O313 O 0.5897 0.04673 0.99751 0.0
O314 O 0.42003 0.96783 0.01127 0.0
O315 O 0.4251 0.05724 0.01186 0.0
C316 C 1.00165 0.43265 0.07537 0.0
C317 C 0.01412 0.43237 0.92851 0.0
C318 C 1.00105 0.58223 0.07323 0.0
C319 C 0.99971 0.57942 0.92633 0.0
C320 C 0.92912 0.5793 0.99246 0.0
C321 C 0.93316 0.43015 1.00153 0.0
C322 C 0.07553 0.58323 1.00627 0.0
C323 C 0.07949 0.43365 1.00346 0.0
C324 C 0.08023 0.52313 0.9328 0.0
C325 C 0.93577 0.48462 0.92752 0.0
C326 C 0.07338 0.49762 0.07814 0.0
C327 C 0.92793 0.51774 0.0708 0.0
Eu328 Eu 1.00583 0.45017 1.00172 0.0
O329 O 0.97987 0.4803 0.97416 0.0
O330 O 0.03039 0.48152 0.02958 0.0
Eu331 Eu 0.94605 0.50526 0.9989 0.0
Eu332 Eu 0.06254 0.50809 1.0043 0.0
O333 O 0.97591 0.47915 0.02806 0.0
O334 O 0.03419 0.48028 0.9751 0.0
Eu335 Eu 1.00147 0.50725 0.05928 0.0
Eu336 Eu 1.00701 0.50599 0.94295 0.0
O337 O 0.97567 0.53262 0.02642 0.0
O338 O 0.97699 0.53241 0.97175 0.0
O339 O 0.03157 0.53286 0.97557 0.0
O340 O 0.02974 0.53462 0.02967 0.0
Eu341 Eu 1.00276 0.56331 1.00005 0.0
O342 O 1.00494 0.42442 0.04631 0.0
O343 O 1.00777 0.4239 0.95702 0.0
O344 O 0.99951 0.58985 0.04389 0.0
O345 O 1.00425 0.58856 0.95496 0.0
O346 O 0.91976 0.55018 0.9916 0.0
O347 O 0.92212 0.45865 1.00327 0.0
O348 O 0.08622 0.55471 1.00914 0.0
O349 O 0.08917 0.46267 1.00195 0.0
O350 O 0.05231 0.51907 0.92119 0.0
O351 O 0.96447 0.48907 0.91822 0.0
O352 O 0.04433 0.50057 0.08622 0.0
O353 O 0.95591 0.51348 0.08179 0.0
O354 O 0.04638 0.59044 1.00181 0.0
O355 O 0.95789 0.58818 0.99647 0.0
O356 O 0.05039 0.42524 1.00439 0.0
O357 O 0.96255 0.42308 0.99962 0.0
O358 O 0.01741 0.46111 0.91894 0.0
O359 O 0.99757 0.55036 0.91723 0.0
O360 O 0.99886 0.46154 0.08508 0.0
O361 O 1.00319 0.55359 0.08378 0.0
O362 O 0.91942 0.51503 0.04177 0.0
O363 O 0.92426 0.49252 0.95446 0.0
O364 O 0.08485 0.50119 0.05022 0.0
O365 O 0.08872 0.51794 0.96148 0.0
C366 C 0.51518 0.43734 0.09575 0.0
C367 C 0.50036 0.58364 0.09639 0.0
C368 C 0.52447 0.43911 0.94732 0.0
C369 C 0.51579 0.58684 0.949 0.0
C370 C 0.59165 0.52108 0.95243 0.0
C371 C 0.58387 0.5125 0.10044 0.0
C372 C 0.44427 0.50449 0.94497 0.0
C373 C 0.43821 0.50375 0.09424 0.0
C374 C 0.43627 0.577 1.00494 0.0
C375 C 0.57903 0.58953 0.0429 0.0
C376 C 0.44942 0.43225 1.0066 0.0
C377 C 0.59351 0.44607 0.01166 0.0
Eu378 Eu 0.51144 0.51073 0.07898 0.0
O379 O 0.53682 0.53986 0.04962 0.0
O380 O 0.48797 0.48085 0.04784 0.0
Eu381 Eu 0.57199 0.51668 0.02532 0.0
Eu382 Eu 0.45655 0.50611 0.01991 0.0
O383 O 0.54315 0.48598 0.05062 0.0
O384 O 0.48292 0.53638 0.04819 0.0
Eu385 Eu 0.51972 0.45395 0.02175 0.0
Eu386 Eu 0.50912 0.56935 0.02258 0.0
O387 O 0.54428 0.4881 0.99696 0.0
O388 O 0.54088 0.54214 0.99655 0.0
O389 O 0.48672 0.53579 0.99495 0.0
O390 O 0.49187 0.48353 0.99457 0.0
Eu391 Eu 0.51726 0.51274 0.96459 0.0
O392 O 0.51188 0.46615 0.10465 0.0
O393 O 0.50724 0.55534 0.1052 0.0
O394 O 0.5207 0.46798 0.93843 0.0
O395 O 0.51552 0.55798 0.93946 0.0
O396 O 0.5989 0.52578 0.9817 0.0
O397 O 0.59535 0.51173 0.0721 0.0
O398 O 0.43383 0.50142 0.97341 0.0
O399 O 0.42894 0.50369 0.06499 0.0
O400 O 0.46356 0.58943 1.00986 0.0
O401 O 0.5503 0.59738 0.03665 0.0
O402 O 0.47866 0.42534 0.01057 0.0
O403 O 0.56655 0.43365 0.01789 0.0
O404 O 0.47318 0.50994 0.9371 0.0
O405 O 0.56389 0.51429 0.94197 0.0
O406 O 0.46693 0.50654 0.10332 0.0
O407 O 0.55429 0.5134 0.10711 0.0
O408 O 0.49761 0.59298 0.0675 0.0
O409 O 0.51528 0.59597 0.97812 0.0
O410 O 0.51888 0.42784 0.06699 0.0
O411 O 0.52566 0.42941 0.97618 0.0
O412 O 0.60051 0.47552 0.0139 0.0
O413 O 0.59147 0.56217 0.03864 0.0
O414 O 0.43668 0.45936 0.01167 0.0
O415 O 0.42864 0.54797 1.00955 0.0
C416 C 0.99847 0.44231 0.59973 0.0
C417 C 0.99774 0.43987 0.45398 0.0
C418 C 0.03147 0.58666 0.59648 0.0
C419 C 0.02699 0.58435 0.45141 0.0
C420 C 0.94118 0.5885 0.52601 0.0
C421 C 0.93817 0.44121 0.5294 0.0
C422 C 0.09084 0.58365 0.52313 0.0
C423 C 0.08765 0.43718 0.52498 0.0
C424 C 0.08748 0.51021 0.45149 0.0
C425 C 0.93858 0.51514 0.45291 0.0
C426 C 0.08828 0.50654 0.59857 0.0
C427 C 0.94028 0.52198 0.59894 0.0
Eu428 Eu 0.01313 0.45428 0.52662 0.0
O429 O 0.98752 0.48643 0.49994 0.0
O430 O 0.04054 0.48465 0.55397 0.0
Eu431 Eu 0.95769 0.51467 0.5259 0.0
Eu432 Eu 0.07056 0.51079 0.52522 0.0
O433 O 0.98807 0.48755 0.55246 0.0
O434 O 0.04027 0.48351 0.49764 0.0
Eu435 Eu 0.01439 0.5141 0.58381 0.0
Eu436 Eu 0.01333 0.512 0.46746 0.0
O437 O 0.9881 0.54217 0.55307 0.0
O438 O 0.98736 0.54145 0.49722 0.0
O439 O 0.04013 0.53804 0.49874 0.0
O440 O 0.04086 0.53924 0.55139 0.0
Eu441 Eu 0.01551 0.57135 0.52454 0.0
O442 O 1.00538 0.43136 0.57218 0.0
O443 O 1.00264 0.42973 0.48226 0.0
O444 O 0.02565 0.59616 0.56825 0.0
O445 O 0.0232 0.59484 0.47963 0.0
O446 O 0.93279 0.55937 0.52549 0.0
O447 O 0.93022 0.47053 0.52734 0.0
O448 O 0.09796 0.55419 0.5247 0.0
O449 O 0.09573 0.46637 0.52437 0.0
O450 O 0.05867 0.50697 0.44189 0.0
O451 O 0.96727 0.51606 0.44237 0.0
O452 O 0.05945 0.50496 0.60839 0.0
O453 O 0.96914 0.52246 0.60906 0.0
O454 O 0.06238 0.59478 0.5226 0.0
O455 O 0.9702 0.59828 0.52565 0.0
O456 O 0.05865 0.42728 0.52606 0.0
O457 O 0.96676 0.4306 0.53002 0.0
O458 O 1.00221 0.46811 0.44391 0.0
O459 O 0.02286 0.5557 0.44212 0.0
O460 O 1.00097 0.47124 0.6086 0.0
O461 O 0.02761 0.55838 0.60708 0.0
O462 O 0.93202 0.51771 0.57008 0.0
O463 O 0.93106 0.51374 0.48222 0.0
O464 O 0.09688 0.51061 0.56973 0.0
O465 O 0.09616 0.51312 0.48046 0.0
C466 C 0.50804 0.93354 0.59058 0.0
C467 C 0.50276 0.94186 0.44434 0.0
C468 C 0.52512 0.08178 0.59929 0.0
C469 C 0.52403 0.08996 0.45195 0.0
C470 C 0.4502 0.09397 0.52756 0.0
C471 C 0.43274 0.94674 0.51899 0.0
C472 C 0.59636 0.07861 0.52607 0.0
C473 C 0.57894 0.93061 0.51814 0.0
C474 C 0.58414 0.99678 0.44588 0.0
C475 C 0.443 0.03771 0.4507 0.0
C476 C 0.58762 0.98809 0.59123 0.0
C477 C 0.44439 0.02709 0.59581 0.0
Eu478 Eu 0.50746 0.95619 0.51849 0.0
O479 O 0.48308 0.98975 0.49212 0.0
O480 O 0.53813 0.98265 0.54544 0.0
Eu481 Eu 0.45728 0.0186 0.52222 0.0
Eu482 Eu 0.57234 1.00638 0.5198 0.0
O483 O 0.48413 0.98697 0.5488 0.0
O484 O 0.53748 0.98496 0.49292 0.0
Eu485 Eu 0.51581 1.00877 0.5799 0.0
Eu486 Eu 0.5136 0.01531 0.46315 0.0
O487 O 0.49218 0.03924 0.54974 0.0
O488 O 0.49142 0.04258 0.49705 0.0
O489 O 0.54486 0.03803 0.49416 0.0
O490 O 0.54603 0.03464 0.55042 0.0
Eu491 Eu 0.5217 0.06896 0.52484 0.0
O492 O 0.50741 0.92758 0.56088 0.0
O493 O 0.50422 0.93257 0.47317 0.0
O494 O 0.52232 0.09225 0.57092 0.0
O495 O 0.52392 0.09684 0.48156 0.0
O496 O 0.43731 0.06645 0.52561 0.0
O497 O 0.42636 0.97659 0.51856 0.0
O498 O 0.60304 0.04898 0.52255 0.0
O499 O 0.59194 0.9582 0.51866 0.0
O500 O 0.55581 1.0031 0.4372 0.0
O501 O 0.47076 0.03155 0.44014 0.0
O502 O 0.55982 0.9936 0.60228 0.0
O503 O 0.47248 0.02059 0.60555 0.0
O504 O 0.56843 0.09021 0.52776 0.0
O505 O 0.48005 0.0997 0.52756 0.0
O506 O 0.54898 0.92541 0.51746 0.0
O507 O 0.4606 0.93482 0.51998 0.0
O508 O 0.50452 0.97115 0.43542 0.0
O509 O 0.52176 0.06173 0.44041 0.0
O510 O 0.50956 0.96164 0.60268 0.0
O511 O 0.52563 0.0523 0.60732 0.0
O512 O 0.43426 0.02525 0.56728 0.0
O513 O 0.43302 0.03244 0.4789 0.0
O514 O 0.59698 0.99343 0.56287 0.0
O515 O 0.59527 0.9989 0.47411 0.0
H516 H 0.23796 0.16331 0.49675 0.0
H517 H 0.19354 0.2271 0.43589 0.0
H518 H 0.15389 0.18889 0.4251 0.0
H519 H 0.21293 0.09018 0.45258 0.0
H520 H 0.2086 0.07013 0.48812 0.0
H521 H 0.23831 0.09817 0.48381 0.0
H522 H 0.21832 0.12659 0.53127 0.0
H523 H 0.18828 0.09937 0.53574 0.0
H524 H 0.17928 0.13926 0.53219 0.0
H525 H 0.11331 0.15195 0.4327 0.0
H526 H 0.07626 0.11581 0.45379 0.0
H527 H 0.14718 0.07394 0.50825 0.0
C528 C 0.22091 0.1686 0.47976 0.0
C529 C 0.21873 0.19809 0.46714 0.0
C530 C 0.19544 0.20465 0.44592 0.0
C531 C 0.17303 0.18299 0.43945 0.0
C532 C 0.17471 0.15477 0.45388 0.0
C533 C 0.19854 0.14715 0.47298 0.0
C534 C 0.19266 0.11732 0.48928 0.0
C535 C 0.21441 0.09247 0.47776 0.0
C536 C 0.19473 0.1209 0.52416 0.0
C537 C 0.16043 0.11119 0.47902 0.0
C538 C 0.1509 0.13259 0.4579 0.0
C539 C 0.12077 0.13448 0.4484 0.0
C540 C 0.09981 0.11421 0.46094 0.0
C541 C 0.10904 0.09239 0.48281 0.0
C542 C 0.13983 0.09026 0.49129 0.0
H543 H 0.7983 0.18403 0.44631 0.0
H544 H 0.85672 0.26198 0.46659 0.0
H545 H 0.90061 0.22999 0.46221 0.0
H546 H 0.82958 0.14051 0.49774 0.0
H547 H 0.82848 0.10452 0.47801 0.0
H548 H 0.80153 0.13371 0.46852 0.0
H549 H 0.81827 0.13172 0.41229 0.0
H550 H 0.84568 0.10246 0.4212 0.0
H551 H 0.85781 0.13687 0.40256 0.0
H552 H 0.93625 0.19051 0.47297 0.0
H553 H 0.96261 0.14557 0.49157 0.0
H554 H 0.88303 0.08998 0.47142 0.0
C555 C 0.82009 0.19484 0.44966 0.0
C556 C 0.82277 0.22601 0.45804 0.0
C557 C 0.85256 0.23867 0.46014 0.0
C558 C 0.87834 0.22039 0.45783 0.0
C559 C 0.87441 0.18934 0.45369 0.0
C560 C 0.84613 0.17653 0.44903 0.0
C561 C 0.84769 0.14202 0.45119 0.0
C562 C 0.82552 0.12949 0.47531 0.0
C563 C 0.842 0.12742 0.41992 0.0
C564 C 0.88052 0.13794 0.46088 0.0
C565 C 0.89563 0.16554 0.46098 0.0
C566 C 0.92502 0.16859 0.47208 0.0
C567 C 0.93965 0.14275 0.48305 0.0
C568 C 0.92492 0.11394 0.48309 0.0
C569 C 0.89495 0.11156 0.47162 0.0
H570 H 0.77843 0.85337 0.46681 0.0
H571 H 0.82939 0.78537 0.41652 0.0
H572 H 0.86905 0.82348 0.40609 0.0
H573 H 0.80992 0.92447 0.41997 0.0
H574 H 0.80924 0.94626 0.45472 0.0
H575 H 0.77981 0.9186 0.44719 0.0
H576 H 0.79153 0.89324 0.49887 0.0
H577 H 0.8217 0.91951 0.50629 0.0
H578 H 0.82941 0.8792 0.50635 0.0
H579 H 0.90904 0.85989 0.41779 0.0
H580 H 0.94383 0.89501 0.4438 0.0
H581 H 0.86716 0.94111 0.4854 0.0
C582 C 0.79675 0.84687 0.45174 0.0
C583 C 0.80098 0.81616 0.44292 0.0
C584 C 0.8259 0.80859 0.42403 0.0
C585 C 0.84842 0.83024 0.41772 0.0
C586 C 0.84513 0.85949 0.42968 0.0
C587 C 0.81925 0.86827 0.44528 0.0
C588 C 0.82351 0.89889 0.46071 0.0
C589 C 0.8045 0.92351 0.44468 0.0
C590 C 0.81614 0.89755 0.49506 0.0
C591 C 0.85705 0.90375 0.45508 0.0
C592 C 0.86879 0.88141 0.43613 0.0
C593 C 0.89995 0.87812 0.43165 0.0
C594 C 0.91957 0.89783 0.44704 0.0
C595 C 0.90802 0.9205 0.46686 0.0
C596 C 0.87639 0.92411 0.47013 0.0
H597 H 0.22959 0.85507 0.56111 0.0
H598 H 0.18265 0.7866 0.61468 0.0
H599 H 0.13534 0.81656 0.61078 0.0
H600 H 0.18166 0.92376 0.58883 0.0
H601 H 0.18464 0.93996 0.55125 0.0
H602 H 0.21583 0.91829 0.56679 0.0
H603 H 0.21443 0.8842 0.51874 0.0
H604 H 0.18222 0.90423 0.50377 0.0
H605 H 0.18005 0.86367 0.50958 0.0
H606 H 0.09113 0.84618 0.58847 0.0
H607 H 0.056 0.87902 0.55893 0.0
H608 H 0.13352 0.92656 0.52039 0.0
C609 C 0.21013 0.8471 0.57388 0.0
C610 C 0.20982 0.81799 0.58753 0.0
C611 C 0.18333 0.80851 0.60339 0.0
C612 C 0.1563 0.82541 0.60135 0.0
C613 C 0.1566 0.85224 0.58441 0.0
C614 C 0.18323 0.86369 0.57209 0.0
C615 C 0.17723 0.89065 0.55163 0.0
C616 C 0.19062 0.9199 0.56546 0.0
C617 C 0.18918 0.88531 0.51904 0.0
C618 C 0.14299 0.8911 0.55243 0.0
C619 C 0.13132 0.86923 0.57178 0.0
C620 C 0.10006 0.86393 0.57391 0.0
C621 C 0.08033 0.88221 0.55658 0.0
C622 C 0.09212 0.90518 0.53726 0.0
C623 C 0.12382 0.90932 0.53511 0.0
H624 H 0.54392 0.22747 0.17357 0.0
H625 H 0.60153 0.17671 0.23581 0.0
H626 H 0.60372 0.13449 0.19884 0.0
H627 H 0.49946 0.17236 0.15203 0.0
H628 H 0.49572 0.18178 0.11226 0.0
H629 H 0.5046 0.21107 0.13931 0.0
H630 H 0.55337 0.22544 0.10949 0.0
H631 H 0.54424 0.19673 0.08157 0.0
H632 H 0.58078 0.19636 0.1002 0.0
H633 H 0.5896 0.09446 0.16183 0.0
H634 H 0.56527 0.06099 0.12392 0.0
H635 H 0.51938 0.13888 0.08415 0.0
C636 C 0.55844 0.20828 0.17885 0.0
C637 C 0.5725 0.20538 0.20764 0.0
C638 C 0.59028 0.17927 0.21402 0.0
C639 C 0.59188 0.15531 0.19305 0.0
C640 C 0.57626 0.15826 0.1656 0.0
C641 C 0.56061 0.18447 0.15804 0.0
C642 C 0.54289 0.18068 0.12873 0.0
C643 C 0.50866 0.18682 0.1334 0.0
C644 C 0.55612 0.201 0.1035 0.0
C645 C 0.54898 0.14748 0.12234 0.0
C646 C 0.5687 0.1351 0.14357 0.0
C647 C 0.57485 0.10405 0.14457 0.0
C648 C 0.56056 0.0852 0.12328 0.0
C649 C 0.54039 0.09753 0.10135 0.0
C650 C 0.535 0.12908 0.10053 0.0
H651 H 0.85561 0.54365 0.23163 0.0
H652 H 0.78518 0.59753 0.18806 0.0
H653 H 0.81446 0.59657 0.14016 0.0
H654 H 0.92209 0.57644 0.18524 0.0
H655 H 0.94035 0.53968 0.18542 0.0
H656 H 0.9182 0.55177 0.21779 0.0
H657 H 0.88598 0.50272 0.21339 0.0
H658 H 0.90677 0.49067 0.18041 0.0
H659 H 0.866 0.49476 0.17839 0.0
H660 H 0.84408 0.57801 0.09502 0.0
H661 H 0.87764 0.55231 0.05791 0.0
H662 H 0.92841 0.51165 0.13235 0.0
C663 C 0.84708 0.55697 0.21274 0.0
C664 C 0.81787 0.57028 0.21351 0.0
C665 C 0.80733 0.58674 0.18783 0.0
C666 C 0.82382 0.58637 0.16054 0.0
C667 C 0.85114 0.5703 0.1598 0.0
C668 C 0.86326 0.55691 0.18558 0.0
C669 C 0.89105 0.53806 0.1783 0.0
C670 C 0.91964 0.55233 0.19254 0.0
C671 C 0.88717 0.5046 0.18821 0.0
C672 C 0.89133 0.54106 0.14416 0.0
C673 C 0.86844 0.56 0.13383 0.0
C674 C 0.86262 0.56384 0.10287 0.0
C675 C 0.88142 0.5487 0.08201 0.0
C676 C 0.90554 0.52995 0.09236 0.0
C677 C 0.91029 0.52603 0.1238 0.0
H678 H 0.53131 0.78242 0.17085 0.0
H679 H 0.59251 0.83172 0.23081 0.0
H680 H 0.59893 0.87097 0.19138 0.0
H681 H 0.571 0.80914 0.09475 0.0
H682 H 0.53423 0.81003 0.07657 0.0
H683 H 0.54254 0.78133 0.10475 0.0
H684 H 0.49466 0.79804 0.13457 0.0
H685 H 0.4868 0.8276 0.10758 0.0
H686 H 0.4914 0.83697 0.14728 0.0
H687 H 0.58352 0.91073 0.15679 0.0
H688 H 0.55762 0.94583 0.122 0.0
H689 H 0.51083 0.86997 0.07955 0.0
C690 C 0.54769 0.80034 0.17504 0.0
C691 C 0.56116 0.80417 0.2041 0.0
C692 C 0.5816 0.82857 0.20892 0.0
C693 C 0.58556 0.85084 0.18654 0.0
C694 C 0.56971 0.84776 0.15919 0.0
C695 C 0.55218 0.82247 0.15273 0.0
C696 C 0.53416 0.82672 0.12352 0.0
C697 C 0.54621 0.80556 0.0984 0.0
C698 C 0.49975 0.82207 0.12859 0.0
C699 C 0.54157 0.85961 0.11658 0.0
C700 C 0.5625 0.87103 0.13722 0.0
C701 C 0.56859 0.90194 0.13936 0.0
C702 C 0.55346 0.92168 0.11967 0.0
C703 C 0.53291 0.91048 0.0975 0.0
C704 C 0.52715 0.87896 0.0957 0.0
H705 H 0.2239 0.48895 0.17383 0.0
H706 H 0.17555 0.43025 0.23699 0.0
H707 H 0.13312 0.42635 0.20039 0.0
H708 H 0.16687 0.53133 0.15222 0.0
H709 H 0.17602 0.53494 0.11238 0.0
H710 H 0.2057 0.52759 0.13947 0.0
H711 H 0.22196 0.47906 0.11025 0.0
H712 H 0.19293 0.48671 0.08224 0.0
H713 H 0.19399 0.45038 0.10127 0.0
H714 H 0.0927 0.43838 0.16343 0.0
H715 H 0.05843 0.45996 0.1247 0.0
H716 H 0.13433 0.50843 0.08409 0.0
C717 C 0.2052 0.47391 0.17943 0.0
C718 C 0.20298 0.45995 0.2083 0.0
C719 C 0.17752 0.44142 0.2151 0.0
C720 C 0.15348 0.43885 0.19438 0.0
C721 C 0.15576 0.45432 0.16679 0.0
C722 C 0.18134 0.47078 0.15888 0.0
C723 C 0.17685 0.48797 0.12939 0.0
C724 C 0.18163 0.52248 0.13366 0.0
C725 C 0.19766 0.47526 0.1043 0.0
C726 C 0.14395 0.48046 0.12319 0.0
C727 C 0.13235 0.46068 0.14479 0.0
C728 C 0.10164 0.45317 0.14589 0.0
C729 C 0.08233 0.46594 0.12413 0.0
C730 C 0.09389 0.48593 0.10162 0.0
C731 C 0.1251 0.49296 0.10093 0.0
H732 H 0.45951 0.84575 0.78462 0.0
H733 H 0.40985 0.77902 0.83801 0.0
H734 H 0.40306 0.81731 0.87843 0.0
H735 H 0.50247 0.87001 0.83539 0.0
H736 H 0.50356 0.91011 0.8267 0.0
H737 H 0.49472 0.88333 0.79731 0.0
H738 H 0.44363 0.91007 0.78594 0.0
H739 H 0.4527 0.93819 0.81448 0.0
H740 H 0.41727 0.9176 0.81647 0.0
H741 H 0.41621 0.85497 0.91754 0.0
H742 H 0.44249 0.89162 0.95058 0.0
H743 H 0.48298 0.93459 0.87141 0.0
C744 C 0.44535 0.83947 0.80372 0.0
C745 C 0.43548 0.80909 0.80812 0.0
C746 C 0.41804 0.80196 0.83424 0.0
C747 C 0.41383 0.82369 0.85722 0.0
C748 C 0.42647 0.85259 0.85327 0.0
C749 C 0.44102 0.86085 0.82665 0.0
C750 C 0.4574 0.89105 0.82986 0.0
C751 C 0.49152 0.8884 0.82187 0.0
C752 C 0.4418 0.91569 0.81055 0.0
C753 C 0.45267 0.89681 0.86337 0.0
C754 C 0.43399 0.8749 0.87624 0.0
C755 C 0.42997 0.8728 0.90757 0.0
C756 C 0.4455 0.8934 0.92617 0.0
C757 C 0.46505 0.9157 0.91341 0.0
C758 C 0.46795 0.91792 0.88162 0.0
H759 H 0.18115 0.53932 0.78699 0.0
H760 H 0.24434 0.59266 0.84128 0.0
H761 H 0.20548 0.5967 0.88162 0.0
H762 H 0.10842 0.57942 0.81503 0.0
H763 H 0.08825 0.54372 0.81324 0.0
H764 H 0.11782 0.55198 0.786 0.0
H765 H 0.14464 0.50171 0.80094 0.0
H766 H 0.11605 0.49369 0.82893 0.0
H767 H 0.1555 0.49554 0.84007 0.0
H768 H 0.16578 0.58404 0.9197 0.0
H769 H 0.12564 0.56089 0.9511 0.0
H770 H 0.08721 0.51774 0.87094 0.0
C771 C 0.18647 0.55352 0.8064 0.0
C772 C 0.21599 0.56572 0.8108 0.0
C773 C 0.22205 0.58289 0.83741 0.0
C774 C 0.20001 0.58549 0.86036 0.0
C775 C 0.17186 0.57146 0.85595 0.0
C776 C 0.16471 0.55655 0.82922 0.0
C777 C 0.13449 0.54009 0.83143 0.0
C778 C 0.11084 0.55468 0.81017 0.0
C779 C 0.13792 0.50575 0.82498 0.0
C780 C 0.12686 0.546 0.8644 0.0
C781 C 0.14842 0.5646 0.87799 0.0
C782 C 0.14832 0.57024 0.90914 0.0
C783 C 0.12567 0.55658 0.92682 0.0
C784 C 0.10345 0.5374 0.91334 0.0
C785 C 0.10371 0.5326 0.88166 0.0
H786 H 0.47406 0.17613 0.78713 0.0
H787 H 0.4263 0.24539 0.83907 0.0
H788 H 0.41902 0.20841 0.8806 0.0
H789 H 0.42813 0.1073 0.81971 0.0
H790 H 0.46227 0.08465 0.81785 0.0
H791 H 0.45491 0.11312 0.78919 0.0
H792 H 0.50757 0.13687 0.80067 0.0
H793 H 0.51467 0.10974 0.83024 0.0
H794 H 0.51596 0.14987 0.83873 0.0
H795 H 0.43096 0.17033 0.9208 0.0
H796 H 0.45391 0.13113 0.95382 0.0
H797 H 0.49131 0.0859 0.87446 0.0
C798 C 0.46025 0.18332 0.80616 0.0
C799 C 0.45124 0.21406 0.8098 0.0
C800 C 0.43409 0.22223 0.83588 0.0
C801 C 0.42958 0.20126 0.85953 0.0
C802 C 0.44135 0.17195 0.85622 0.0
C803 C 0.45527 0.16261 0.82962 0.0
C804 C 0.46976 0.13152 0.83306 0.0
C805 C 0.45274 0.10774 0.81382 0.0
C806 C 0.50399 0.1321 0.82524 0.0
C807 C 0.46459 0.12624 0.86658 0.0
C808 C 0.44756 0.14942 0.87944 0.0
C809 C 0.44346 0.15159 0.91082 0.0
C810 C 0.45703 0.12954 0.9294 0.0
C811 C 0.47454 0.1057 0.91654 0.0
C812 C 0.47776 0.10374 0.88475 0.0
H813 H 0.84767 0.45116 0.78053 0.0
H814 H 0.778 0.4112 0.83816 0.0
H815 H 0.8164 0.40343 0.87803 0.0
H816 H 0.91692 0.40634 0.81669 0.0
H817 H 0.93997 0.43994 0.81176 0.0
H818 H 0.9118 0.42996 0.78356 0.0
H819 H 0.88831 0.48332 0.78889 0.0
H820 H 0.91498 0.49367 0.81775 0.0
H821 H 0.87476 0.49594 0.82555 0.0
H822 H 0.85375 0.41895 0.91597 0.0
H823 H 0.88959 0.44839 0.94686 0.0
H824 H 0.93631 0.47835 0.86526 0.0
C825 C 0.84038 0.43902 0.80056 0.0
C826 C 0.80918 0.43308 0.80643 0.0
C827 C 0.80141 0.41715 0.83334 0.0
C828 C 0.82326 0.4123 0.85609 0.0
C829 C 0.85294 0.4225 0.85109 0.0
C830 C 0.86188 0.4344 0.82339 0.0
C831 C 0.89301 0.44931 0.82542 0.0
C832 C 0.91685 0.43024 0.80836 0.0
C833 C 0.89266 0.48249 0.81376 0.0
C834 C 0.89814 0.44785 0.85936 0.0
C835 C 0.87539 0.43121 0.87356 0.0
C836 C 0.87226 0.43097 0.90505 0.0
C837 C 0.89245 0.44834 0.92239 0.0
C838 C 0.91553 0.46598 0.9083 0.0
C839 C 0.91902 0.46486 0.87649 0.0
H840 H 0.66438 0.74238 0.04677 0.0
H841 H 0.73382 0.69639 0.09982 0.0
H842 H 0.6966 0.65679 0.11342 0.0
H843 H 0.59452 0.71394 0.09617 0.0
H844 H 0.57249 0.71156 0.06162 0.0
H845 H 0.60003 0.74165 0.06642 0.0
H846 H 0.62504 0.72553 0.01566 0.0
H847 H 0.59882 0.69473 0.01117 0.0
H848 H 0.63915 0.68717 0.01145 0.0
H849 H 0.66004 0.61543 0.10576 0.0
H850 H 0.6245 0.57842 0.08335 0.0
H851 H 0.57751 0.65139 0.03639 0.0
C852 C 0.6714 0.72528 0.06302 0.0
C853 C 0.70223 0.72238 0.07189 0.0
C854 C 0.71048 0.69889 0.09232 0.0
C855 C 0.68935 0.6764 0.1004 0.0
C856 C 0.65992 0.6783 0.08858 0.0
C857 C 0.65056 0.70283 0.07122 0.0
C858 C 0.61985 0.69702 0.05656 0.0
C859 C 0.59527 0.71723 0.07107 0.0
C860 C 0.62085 0.70134 0.02168 0.0
C861 C 0.61528 0.66406 0.06514 0.0
C862 C 0.63807 0.654 0.0845 0.0
C863 C 0.64151 0.62329 0.09156 0.0
C864 C 0.62154 0.60238 0.07826 0.0
C865 C 0.59849 0.61222 0.05796 0.0
C866 C 0.59472 0.64348 0.05217 0.0
H867 H 0.34833 0.72787 0.9714 0.0
H868 H 0.28558 0.67512 0.91613 0.0
H869 H 0.32136 0.63182 0.91765 0.0
H870 H 0.42191 0.6922 0.94284 0.0
H871 H 0.43775 0.69361 0.98064 0.0
H872 H 0.41207 0.72302 0.96794 0.0
H873 H 0.37768 0.71321 0.01424 0.0
H874 H 0.40217 0.68332 0.02733 0.0
H875 H 0.36244 0.67561 0.02058 0.0
H876 H 0.35588 0.59129 0.93734 0.0
H877 H 0.39126 0.55861 0.96621 0.0
H878 H 0.43113 0.63872 1.00816 0.0
C879 C 0.34272 0.70808 0.95785 0.0
C880 C 0.31397 0.70494 0.94376 0.0
C881 C 0.30735 0.67798 0.92733 0.0
C882 C 0.3276 0.6533 0.928 0.0
C883 C 0.35448 0.65633 0.94464 0.0
C884 C 0.36248 0.68342 0.95851 0.0
C885 C 0.38991 0.67979 0.97898 0.0
C886 C 0.41703 0.69823 0.96687 0.0
C887 C 0.38256 0.68848 0.01221 0.0
C888 C 0.39514 0.64604 0.97581 0.0
C889 C 0.37469 0.63288 0.95576 0.0
C890 C 0.37262 0.60143 0.9523 0.0
C891 C 0.39237 0.58306 0.96927 0.0
C892 C 0.41374 0.59627 0.98953 0.0
C893 C 0.41519 0.62811 0.9926 0.0
H894 H 0.29663 0.35132 0.96491 0.0
H895 H 0.34964 0.27917 0.92297 0.0
H896 H 0.39528 0.31171 0.92597 0.0
H897 H 0.34334 0.41797 0.93111 0.0
H898 H 0.33799 0.43912 0.96586 0.0
H899 H 0.30825 0.41441 0.95199 0.0
H900 H 0.30765 0.38662 1.00369 0.0
H901 H 0.33794 0.40998 0.01788 0.0
H902 H 0.34208 0.36915 0.01766 0.0
H903 H 0.43619 0.3451 0.94724 0.0
H904 H 0.4682 0.38127 0.97581 0.0
H905 H 0.38739 0.43139 1.00275 0.0
C906 C 0.31717 0.34275 0.95444 0.0
C907 C 0.31947 0.31228 0.94427 0.0
C908 C 0.34735 0.30216 0.93156 0.0
C909 C 0.3734 0.32057 0.933 0.0
C910 C 0.37084 0.34932 0.94621 0.0
C911 C 0.34312 0.36085 0.95557 0.0
C912 C 0.34676 0.39052 0.97268 0.0
C913 C 0.3333 0.41709 0.95431 0.0
C914 C 0.3328 0.38891 1.00486 0.0
C915 C 0.38097 0.39244 0.97394 0.0
C916 C 0.39453 0.36889 0.95807 0.0
C917 C 0.42585 0.36417 0.95891 0.0
C918 C 0.44377 0.38451 0.97574 0.0
C919 C 0.43023 0.40906 0.99177 0.0
C920 C 0.39844 0.41296 0.99068 0.0
H921 H 0.66282 0.29046 0.96049 0.0
H922 H 0.72845 0.34102 0.90669 0.0
H923 H 0.69837 0.38773 0.9145 0.0
H924 H 0.59263 0.33995 0.93944 0.0
H925 H 0.57839 0.33513 0.97759 0.0
H926 H 0.59879 0.30459 0.95925 0.0
H927 H 0.63562 0.30266 1.00492 0.0
H928 H 0.61689 0.33399 0.02311 0.0
H929 H 0.65705 0.33622 0.01506 0.0
H930 H 0.67147 0.42981 0.94179 0.0
H931 H 0.64119 0.46324 0.97521 0.0
H932 H 0.59403 0.38408 0.01108 0.0
C933 C 0.66999 0.31071 0.94845 0.0
C934 C 0.69849 0.31217 0.93367 0.0
C935 C 0.70703 0.3395 0.91878 0.0
C936 C 0.69006 0.36617 0.92307 0.0
C937 C 0.66414 0.36465 0.94127 0.0
C938 C 0.65335 0.3373 0.95256 0.0
C939 C 0.62768 0.34203 0.97496 0.0
C940 C 0.59758 0.32971 0.96203 0.0
C941 C 0.63479 0.3279 1.00633 0.0
C942 C 0.6275 0.37628 0.97648 0.0
C943 C 0.64829 0.38902 0.95663 0.0
C944 C 0.6543 0.42017 0.95654 0.0
C945 C 0.63752 0.43887 0.97619 0.0
C946 C 0.61532 0.4262 0.99588 0.0
C947 C 0.6107 0.39447 0.99619 0.0
H948 H 0.04905 0.67834 0.74648 0.0
H949 H 0.09727 0.74705 0.69426 0.0
H950 H 0.10448 0.70979 0.65299 0.0
H951 H 0.09365 0.60846 0.71335 0.0
H952 H 0.059 0.58656 0.71527 0.0
H953 H 0.06721 0.61464 0.7441 0.0
H954 H 0.01504 0.63958 0.7332 0.0
H955 H 1.0071 0.61289 0.70344 0.0
H956 H 1.00669 0.65312 0.69532 0.0
H957 H 0.09151 0.67245 0.61288 0.0
H958 H 0.06719 0.63446 0.57964 0.0
H959 H 0.02926 0.58906 0.65869 0.0
C960 C 0.06301 0.6853 0.72747 0.0
C961 C 0.07211 0.716 0.7236 0.0
C962 C 0.08948 0.7239 0.69761 0.0
C963 C 0.0939 0.70277 0.6741 0.0
C964 C 0.08178 0.6736 0.67745 0.0
C965 C 0.06775 0.66445 0.70406 0.0
C966 C 0.0525 0.6337 0.70048 0.0
C967 C 0.06909 0.6094 0.71942 0.0
C968 C 0.01834 0.63497 0.70856 0.0
C969 C 0.05729 0.62852 0.66687 0.0
C970 C 0.07486 0.65139 0.65413 0.0
C971 C 0.07866 0.65389 0.62276 0.0
C972 C 0.06428 0.6325 0.60404 0.0
C973 C 0.04618 0.60896 0.61672 0.0
C974 C 0.04325 0.60663 0.64852 0.0
H975 H 0.34151 0.02811 0.74116 0.0
H976 H 0.28386 0.09238 0.69328 0.0
H977 H 0.32466 0.10055 0.65553 0.0
H978 H 0.41784 0.06692 0.72167 0.0
H979 H 0.4358 0.0302 0.7181 0.0
H980 H 0.40576 0.03578 0.7455 0.0
H981 H 0.37632 0.99054 0.72174 0.0
H982 H 0.40568 0.98521 0.6939 0.0
H983 H 0.36697 0.99138 0.68176 0.0
H984 H 0.36501 0.09271 0.61801 0.0
H985 H 0.4037 0.07147 0.58376 0.0
H986 H 0.43669 0.01306 0.65624 0.0
C987 C 0.33806 0.04512 0.72366 0.0
C988 C 0.30971 0.05987 0.7202 0.0
C989 C 0.30549 0.08094 0.69626 0.0
C990 C 0.32861 0.08589 0.67493 0.0
C991 C 0.35582 0.06988 0.67823 0.0
C992 C 0.3609 0.0503 0.70231 0.0
C993 C 0.39015 0.03251 0.69828 0.0
C994 C 0.41379 0.04193 0.72231 0.0
C995 C 0.3844 0.99789 0.69894 0.0
C996 C 0.39938 0.04323 0.66696 0.0
C997 C 0.37967 0.06537 0.6562 0.0
C998 C 0.38107 0.07606 0.62646 0.0
C999 C 0.40287 0.06355 0.6071 0.0
C1000 C 0.42296 0.04058 0.61751 0.0
C1001 C 0.42179 0.0309 0.64801 0.0
H1002 H 0.96201 0.28412 0.67132 0.0
H1003 H 0.9174 0.33181 0.74552 0.0
H1004 H 0.91736 0.37866 0.71475 0.0
H1005 H 0.01191 0.33216 0.65589 0.0
H1006 H 0.01268 0.3303 0.6149 0.0
H1007 H 0.99958 0.29819 0.63632 0.0
H1008 H 0.94808 0.29816 0.60815 0.0
H1009 H 0.96101 0.32966 0.58521 0.0
H1010 H 0.92586 0.33257 0.60611 0.0
H1011 H 0.93708 0.42187 0.68395 0.0
H1012 H 0.96549 0.45692 0.65068 0.0
H1013 H 0.9964 0.38019 0.59651 0.0
C1014 C 0.95029 0.30363 0.68065 0.0
C1015 C 0.94048 0.3043 0.71132 0.0
C1016 C 0.92587 0.33084 0.7224 0.0
C1017 C 0.92556 0.35758 0.70498 0.0
C1018 C 0.93884 0.35694 0.67616 0.0
C1019 C 0.94973 0.33026 0.66351 0.0
C1020 C 0.96696 0.33616 0.63427 0.0
C1021 C 0.99969 0.32347 0.63548 0.0
C1022 C 0.94943 0.32339 0.6068 0.0
C1023 C 0.96679 0.37048 0.63415 0.0
C1024 C 0.94988 0.38209 0.65802 0.0
C1025 C 0.9495 0.4131 0.66459 0.0
C1026 C 0.96624 0.43275 0.64588 0.0
C1027 C 0.98337 0.42124 0.62104 0.0
C1028 C 0.98343 0.38971 0.61518 0.0
H1029 H 0.67471 0.9613 0.74272 0.0
H1030 H 0.74377 0.91407 0.69011 0.0
H1031 H 0.70751 0.90956 0.64758 0.0
H1032 H 0.60474 0.92083 0.70565 0.0
H1033 H 0.58393 0.95612 0.70838 0.0
H1034 H 0.6108 0.94577 0.73767 0.0
H1035 H 0.63786 0.9974 0.72984 0.0
H1036 H 0.61242 1.00756 0.69967 0.0
H1037 H 0.65285 1.00686 0.6928 0.0
H1038 H 0.67186 0.92572 0.60713 0.0
H1039 H 0.63545 0.95244 0.57399 0.0
H1040 H 0.58881 0.98779 0.65353 0.0
C1041 C 0.68192 0.94806 0.72327 0.0
C1042 C 0.71254 0.93861 0.71973 0.0
C1043 C 0.72071 0.92213 0.69324 0.0
C1044 C 0.70015 0.91931 0.66897 0.0
C1045 C 0.67126 0.93212 0.67205 0.0
C1046 C 0.6617 0.94509 0.69906 0.0
C1047 C 0.63165 0.96158 0.6953 0.0
C1048 C 0.60626 0.94508 0.71278 0.0
C1049 C 0.63389 0.99531 0.70495 0.0
C1050 C 0.62731 0.95847 0.66138 0.0
C1051 C 0.65001 0.94087 0.64846 0.0
C1052 C 0.65333 0.93852 0.61704 0.0
C1053 C 0.63284 0.95427 0.59843 0.0
C1054 C 0.60935 0.97227 0.61128 0.0
C1055 C 0.60631 0.97388 0.64314 0.0
H1056 H 0.98395 0.29167 0.35808 0.0
H1057 H 0.92661 0.34245 0.29557 0.0
H1058 H 0.92083 0.38267 0.33434 0.0
H1059 H 0.944 0.31886 0.43191 0.0
H1060 H 0.98032 0.31908 0.45102 0.0
H1061 H 0.97239 0.29085 0.42225 0.0
H1062 H 0.02114 0.30732 0.3937 0.0
H1063 H 0.02878 0.33628 0.42141 0.0
H1064 H 0.02528 0.34642 0.3818 0.0
H1065 H 0.93279 0.42178 0.37265 0.0
H1066 H 0.95703 0.45535 0.41033 0.0
H1067 H 1.00475 0.37816 0.4492 0.0
C1068 C 0.96858 0.31022 0.35298 0.0
C1069 C 0.95576 0.31385 0.32367 0.0
C1070 C 0.93693 0.33931 0.31774 0.0
C1071 C 0.93326 0.36209 0.33975 0.0
C1072 C 0.94792 0.35861 0.3677 0.0
C1073 C 0.96451 0.33285 0.37472 0.0
C1074 C 0.98178 0.33638 0.40433 0.0
C1075 C 0.96883 0.31503 0.42884 0.0
C1076 C 0.01625 0.33132 0.4 0.0
C1077 C 0.97463 0.36919 0.41145 0.0
C1078 C 0.95449 0.38137 0.39045 0.0
C1079 C 0.94777 0.41229 0.38975 0.0
C1080 C 0.96207 0.43123 0.41092 0.0
C1081 C 0.9829 0.41918 0.43241 0.0
C1082 C 0.98864 0.38772 0.43317 0.0
H1083 H 0.73081 0.98258 0.3461 0.0
H1084 H 0.67729 0.92925 0.28221 0.0
H1085 H 0.63648 0.92514 0.32052 0.0
H1086 H 0.70208 0.94144 0.41814 0.0
H1087 H 0.70365 0.97681 0.43888 0.0
H1088 H 0.73118 0.96904 0.40944 0.0
H1089 H 0.71647 0.0197 0.38321 0.0
H1090 H 0.68824 0.02727 0.4117 0.0
H1091 H 0.67745 0.02606 0.37211 0.0
H1092 H 0.59809 0.93751 0.35954 0.0
H1093 H 0.56618 0.96016 0.3996 0.0
H1094 H 0.64585 1.00271 0.43965 0.0
C1095 C 0.71137 0.96851 0.34055 0.0
C1096 C 0.70729 0.9563 0.31102 0.0
C1097 C 0.68078 0.93914 0.30453 0.0
C1098 C 0.65763 0.93641 0.32625 0.0
C1099 C 0.66178 0.95025 0.35452 0.0
C1100 C 0.68839 0.9652 0.36206 0.0
C1101 C 0.6859 0.98118 0.3925 0.0
C1102 C 0.70695 0.96621 0.41614 0.0
C1103 C 0.69238 0.01557 0.38966 0.0
C1104 C 0.65288 0.97508 0.39967 0.0
C1105 C 0.63955 0.95674 0.37775 0.0
C1106 C 0.60841 0.95109 0.37731 0.0
C1107 C 0.59046 0.96447 0.39987 0.0
C1108 C 0.60371 0.98326 0.4225 0.0
C1109 C 0.63535 0.98812 0.42276 0.0
H1110 H 0.04555 0.65979 0.29182 0.0
H1111 H 0.09641 0.73194 0.33622 0.0
H1112 H 0.10132 0.69989 0.382 0.0
H1113 H 1.00137 0.64326 0.34585 0.0
H1114 H 0.99976 0.60237 0.34258 0.0
H1115 H 1.009 0.62493 0.30989 0.0
H1116 H 0.05984 0.59628 0.30234 0.0
H1117 H 0.05025 0.57226 0.33423 0.0
H1118 H 0.08595 0.59248 0.33378 0.0
H1119 H 0.08674 0.66813 0.42615 0.0
H1120 H 0.06219 0.63413 0.46338 0.0
H1121 H 0.02213 0.582 0.38957 0.0
C1122 C 0.05954 0.66822 0.31027 0.0
C1123 C 0.07023 0.69855 0.31058 0.0
C1124 C 0.0876 0.70892 0.33569 0.0
C1125 C 0.09065 0.6908 0.36173 0.0
C1126 C 0.07705 0.66212 0.36176 0.0
C1127 C 0.06286 0.65037 0.33622 0.0
C1128 C 0.04613 0.62109 0.34329 0.0
C1129 C 0.01208 0.62309 0.33492 0.0
C1130 C 0.06147 0.59392 0.32748 0.0
C1131 C 0.05068 0.61981 0.37728 0.0
C1132 C 0.06905 0.64329 0.38747 0.0
C1133 C 0.0732 0.64906 0.41837 0.0
C1134 C 0.05867 0.62999 0.43933 0.0
C1135 C 0.04014 0.60558 0.42922 0.0
C1136 C 0.03641 0.60033 0.39784 0.0
H1137 H 0.29195 0.05677 0.36353 0.0
H1138 H 0.34315 0.10531 0.29435 0.0
H1139 H 0.3842 0.11389 0.33152 0.0
H1140 H 0.32412 0.10179 0.43281 0.0
H1141 H 0.32431 0.06739 0.4552 0.0
H1142 H 0.29444 0.07401 0.42779 0.0
H1143 H 0.30582 0.02299 0.40181 0.0
H1144 H 0.33583 0.01528 0.4282 0.0
H1145 H 0.34369 0.0153 0.38792 0.0
H1146 H 0.42453 0.10128 0.36803 0.0
H1147 H 0.45879 0.07538 0.40406 0.0
H1148 H 0.38091 0.0367 0.45066 0.0
C1149 C 0.31069 0.07104 0.35645 0.0
C1150 C 0.3144 0.07986 0.32569 0.0
C1151 C 0.33998 0.0977 0.31757 0.0
C1152 C 0.36333 0.10296 0.33867 0.0
C1153 C 0.36024 0.09105 0.36797 0.0
C1154 C 0.33399 0.0764 0.37722 0.0
C1155 C 0.3381 0.06093 0.40776 0.0
C1156 C 0.31914 0.07699 0.43236 0.0
C1157 C 0.33044 0.02663 0.40626 0.0
C1158 C 0.3717 0.06619 0.41257 0.0
C1159 C 0.38389 0.08432 0.38984 0.0
C1160 C 0.41518 0.08804 0.38655 0.0
C1161 C 0.43445 0.07276 0.40677 0.0
C1162 C 0.42235 0.0539 0.42994 0.0
C1163 C 0.39062 0.05132 0.43335 0.0
H1164 H 0.01932 0.23931 0.34262 0.0
H1165 H 0.99521 0.19039 0.26035 0.0
H1166 H 1.00247 0.14153 0.28781 0.0
H1167 H 0.07416 0.18259 0.37516 0.0
H1168 H 0.06075 0.18929 0.41334 0.0
H1169 H 0.06 0.21964 0.38571 0.0
H1170 H 1.00239 0.22696 0.39567 0.0
H1171 H 1.00274 0.19633 0.42287 0.0
H1172 H 0.97694 0.19509 0.39099 0.0
H1173 H 1.00531 0.09886 0.32599 0.0
H1174 H 1.00569 0.06498 0.37015 0.0
H1175 H 0.02473 0.14183 0.42959 0.0
C1176 C 0.01655 0.21826 0.33005 0.0
C1177 C 1.00686 0.21866 0.29915 0.0
C1178 C 1.00312 0.19069 0.2837 0.0
C1179 C 1.00693 0.16287 0.2993 0.0
C1180 C 0.01455 0.16347 0.33027 0.0
C1181 C 0.01966 0.19049 0.34541 0.0
C1182 C 0.02449 0.18523 0.37935 0.0
C1183 C 0.05677 0.19475 0.38895 0.0
C1184 C 1.0002 0.20189 0.39832 0.0
C1185 C 0.02054 0.15096 0.38124 0.0
C1186 C 0.01525 0.13893 0.35256 0.0
C1187 C 1.00988 0.10805 0.3484 0.0
C1188 C 1.01015 0.08894 0.37392 0.0
C1189 C 0.01554 0.10046 0.40376 0.0
C1190 C 0.02071 0.13211 0.4073 0.0
H1191 H 0.78353 0.0141 0.33066 0.0
H1192 H 0.83499 0.99069 0.24979 0.0
H1193 H 0.88299 0.99898 0.27863 0.0
H1194 H 0.83678 0.06871 0.36689 0.0
H1195 H 0.82836 0.05326 0.40401 0.0
H1196 H 0.7998 0.05264 0.37462 0.0
H1197 H 0.7948 0.99424 0.38317 0.0
H1198 H 0.82446 0.99512 0.4114 0.0
H1199 H 0.82793 0.97045 0.37883 0.0
H1200 H 0.92482 1.00372 0.31845 0.0
H1201 H 0.95701 1.00467 0.36409 0.0
H1202 H 0.87716 0.01994 0.42042 0.0
C1203 C 0.80492 0.01143 0.31868 0.0
C1204 C 0.80551 1.00172 0.28784 0.0
C1205 C 0.83393 0.99848 0.27315 0.0
C1206 C 0.86126 1.0029 0.28952 0.0
C1207 C 0.85964 0.01041 0.3205 0.0
C1208 C 0.83208 0.01472 0.33484 0.0
C1209 C 0.83595 0.01881 0.36896 0.0
C1210 C 0.82457 0.05026 0.37919 0.0
C1211 C 0.81983 0.99314 0.38661 0.0
C1212 C 0.8702 0.01629 0.37183 0.0
C1213 C 0.88343 0.01171 0.34358 0.0
C1214 C 0.91465 1.00758 0.34054 0.0
C1215 C 0.93277 1.00812 0.36685 0.0
C1216 C 0.9198 0.01246 0.39622 0.0
C1217 C 0.88797 0.01673 0.3985 0.0
H1218 H 1.00139 0.77229 0.34094 0.0
H1219 H 0.02122 0.82231 0.25822 0.0
H1220 H 0.01484 0.87077 0.28636 0.0
H1221 H 0.94683 0.82907 0.37535 0.0
H1222 H 0.96126 0.82211 0.41311 0.0
H1223 H 0.96114 0.79191 0.38529 0.0
H1224 H 0.01898 0.78437 0.39373 0.0
H1225 H 0.01947 0.81487 0.42108 0.0
H1226 H 0.0444 0.81617 0.38852 0.0
H1227 H 0.01441 0.91283 0.3248 0.0
H1228 H 0.01586 0.94643 0.36915 0.0
H1229 H 0.99803 0.86934 0.42863 0.0
C1230 C 1.00344 0.79348 0.32851 0.0
C1231 C 0.01175 0.79353 0.29725 0.0
C1232 C 0.01441 0.82168 0.2819 0.0
C1233 C 0.01107 0.8493 0.29784 0.0
C1234 C 1.0048 0.84833 0.32905 0.0
C1235 C 1.00045 0.82115 0.34414 0.0
C1236 C 0.99659 0.82623 0.37822 0.0
C1237 C 0.96455 0.81677 0.3886 0.0
C1238 C 0.02134 0.80941 0.39645 0.0
C1239 C 1.00068 0.86048 0.38018 0.0
C1240 C 1.00496 0.8727 0.35145 0.0
C1241 C 0.01055 0.90354 0.34728 0.0
C1242 C 0.01143 0.92248 0.37292 0.0
C1243 C 1.00689 0.91078 0.4028 0.0
C1244 C 1.00151 0.87917 0.40631 0.0
H1245 H 0.24643 0.01881 0.35634 0.0
H1246 H 0.20153 1.00483 0.26944 0.0
H1247 H 0.15488 0.98841 0.29677 0.0
H1248 H 0.20826 0.95796 0.40006 0.0
H1249 H 0.20586 0.98124 0.43378 0.0
H1250 H 0.23695 0.98638 0.40751 0.0
H1251 H 0.22335 0.04349 0.4026 0.0
H1252 H 0.19212 0.03857 0.42859 0.0
H1253 H 0.1854 0.05425 0.39128 0.0
H1254 H 0.11171 0.97955 0.33368 0.0
H1255 H 0.07514 0.97967 0.37593 0.0
H1256 H 0.14752 1.00321 0.43909 0.0
C1257 C 0.22692 0.01197 0.3429 0.0
C1258 C 0.22757 0.01339 0.3106 0.0
C1259 C 0.20168 1.00375 0.29407 0.0
C1260 C 0.17509 0.99452 0.30947 0.0
C1261 C 0.17488 0.99495 0.34135 0.0
C1262 C 0.20023 1.00335 0.35784 0.0
C1263 C 0.19346 1.00491 0.39173 0.0
C1264 C 0.21225 0.9812 0.4093 0.0
C1265 C 0.1989 0.03722 0.40426 0.0
C1266 C 0.15994 0.99684 0.39184 0.0
C1267 C 0.14985 0.99068 0.36258 0.0
C1268 C 0.11948 0.9841 0.35662 0.0
C1269 C 0.09883 0.98441 0.38092 0.0
C1270 C 0.10834 0.99159 0.41102 0.0
C1271 C 0.13953 0.99726 0.41653 0.0
H1272 H 0.04823 0.83255 0.71872 0.0
H1273 H 0.96207 0.78477 0.71565 0.0
H1274 H 0.94472 0.81897 0.67417 0.0
H1275 H 0.01758 0.90984 0.70175 0.0
H1276 H 0.05041 0.91977 0.67923 0.0
H1277 H 0.05422 0.89364 0.71062 0.0
H1278 H 0.07797 0.85388 0.67406 0.0
H1279 H 0.07361 0.87968 0.64253 0.0
H1280 H 0.05708 0.84216 0.64072 0.0
H1281 H 0.94016 0.85395 0.62759 0.0
H1282 H 0.9457 0.89155 0.58568 0.0
H1283 H 0.03356 0.91832 0.62147 0.0
C1284 C 0.02529 0.83003 0.71002 0.0
C1285 C 1.00625 0.80632 0.72075 0.0
C1286 C 0.9767 0.8032 0.7083 0.0
C1287 C 0.96684 0.82233 0.68448 0.0
C1288 C 0.98666 0.84475 0.67363 0.0
C1289 C 0.01503 0.84913 0.68655 0.0
C1290 C 0.03247 0.87411 0.67021 0.0
C1291 C 0.03904 0.90093 0.69174 0.0
C1292 C 0.06202 0.8617 0.65605 0.0
C1293 C 1.00972 0.88288 0.6458 0.0
C1294 C 0.98355 0.86548 0.64783 0.0
C1295 C 0.9603 0.86807 0.62624 0.0
C1296 C 0.96368 0.88929 0.60241 0.0
C1297 C 0.98985 0.90798 0.60066 0.0
C1298 C 0.01307 0.90465 0.62266 0.0
H1299 H 0.20462 0.06035 0.69624 0.0
H1300 H 0.19518 0.97648 0.74769 0.0
H1301 H 0.15228 0.96142 0.71421 0.0
H1302 H 0.12541 0.07247 0.67676 0.0
H1303 H 0.13431 0.08572 0.63896 0.0
H1304 H 0.1611 0.09138 0.6695 0.0
H1305 H 0.20265 0.06377 0.63804 0.0
H1306 H 0.17592 0.05784 0.60753 0.0
H1307 H 0.19549 0.02582 0.62412 0.0
H1308 H 0.11065 0.95512 0.67272 0.0
H1309 H 0.07669 0.95747 0.62763 0.0
H1310 H 0.11897 0.04213 0.60001 0.0
C1311 C 0.19377 0.03868 0.70068 0.0
C1312 C 0.20386 0.01954 0.7248 0.0
C1313 C 0.188 0.99185 0.72983 0.0
C1314 C 0.16369 0.98297 0.71065 0.0
C1315 C 0.15551 1.00184 0.68628 0.0
C1316 C 0.17026 0.02912 0.68131 0.0
C1317 C 0.15892 0.04452 0.6525 0.0
C1318 C 0.14405 0.07535 0.65988 0.0
C1319 C 0.18479 0.04819 0.62918 0.0
C1320 C 0.13549 0.02162 0.64167 0.0
C1321 C 0.13339 0.99736 0.66171 0.0
C1322 C 0.11242 0.97393 0.65691 0.0
C1323 C 0.09322 0.97542 0.63122 0.0
C1324 C 0.09552 0.99973 0.61012 0.0
C1325 C 0.1171 0.02299 0.61544 0.0
H1326 H 0.99464 0.23317 0.67295 0.0
H1327 H 1.00555 0.18036 0.75571 0.0
H1328 H 0.01896 0.13519 0.72453 0.0
H1329 H 0.95621 0.17736 0.63223 0.0
H1330 H 0.9729 0.1864 0.59585 0.0
H1331 H 0.96937 0.21547 0.62449 0.0
H1332 H 0.02722 0.22605 0.62149 0.0
H1333 H 0.03101 0.19708 0.59265 0.0
H1334 H 0.05374 0.19517 0.62677 0.0
H1335 H 0.02559 0.09481 0.68415 0.0
H1336 H 0.02475 0.06204 0.63892 0.0
H1337 H 1.00641 0.14066 0.5818 0.0
C1338 C 1.00009 0.21219 0.68468 0.0
C1339 C 0.99871 0.21028 0.71695 0.0
C1340 C 1.00661 0.18249 0.73117 0.0
C1341 C 0.01413 0.15672 0.71357 0.0
C1342 C 0.01384 0.15918 0.6818 0.0
C1343 C 1.00718 0.18631 0.66751 0.0
C1344 C 1.00588 0.18251 0.63312 0.0
C1345 C 0.97421 0.19093 0.62071 0.0
C1346 C 0.03096 0.20132 0.6176 0.0
C1347 C 0.01197 0.14866 0.63015 0.0
C1348 C 0.01698 0.1358 0.65852 0.0
C1349 C 0.02187 0.10473 0.6619 0.0
C1350 C 0.02114 0.08625 0.63589 0.0
C1351 C 0.01526 0.0986 0.60654 0.0
C1352 C 0.01119 0.13045 0.60371 0.0
H1353 H 0.83317 0.97086 0.72399 0.0
H1354 H 0.77102 0.04387 0.70151 0.0
H1355 H 0.80359 0.05802 0.65764 0.0
H1356 H 0.90475 0.01213 0.701 0.0
H1357 H 0.92176 0.97764 0.68669 0.0
H1358 H 0.8954 0.97599 0.71807 0.0
H1359 H 0.86271 0.93725 0.68797 0.0
H1360 H 0.88853 0.93931 0.65625 0.0
H1361 H 0.84868 0.94734 0.65074 0.0
H1362 H 0.83893 0.05851 0.6112 0.0
H1363 H 0.87845 0.05121 0.57159 0.0
H1364 H 0.91988 0.98031 0.62626 0.0
C1365 C 0.82724 0.99073 0.71065 0.0
C1366 C 0.79996 1.00686 0.71673 0.0
C1367 C 0.79226 0.03188 0.69794 0.0
C1368 C 0.81046 0.03978 0.6727 0.0
C1369 C 0.83662 0.02269 0.66667 0.0
C1370 C 0.84547 0.9992 0.68568 0.0
C1371 C 0.87404 0.98375 0.67369 0.0
C1372 C 0.90056 0.98762 0.6962 0.0
C1373 C 0.86812 0.94991 0.66675 0.0
C1374 C 0.87954 1.00167 0.64462 0.0
C1375 C 0.85752 0.02382 0.64076 0.0
C1376 C 0.8566 0.04166 0.61442 0.0
C1377 C 0.87901 0.03719 0.59186 0.0
C1378 C 0.90245 0.01541 0.59586 0.0
C1379 C 0.90256 0.99748 0.6227 0.0
H1380 H 0.35895 0.02125 0.25024 0.0
H1381 H 0.27196 1.00989 0.20457 0.0
H1382 H 0.29905 0.9984 0.15666 0.0
H1383 H 0.39367 0.06212 0.19147 0.0
H1384 H 0.43101 0.04592 0.19656 0.0
H1385 H 0.40529 0.04831 0.22834 0.0
H1386 H 0.4103 0.99025 0.23719 0.0
H1387 H 0.43623 0.98767 0.20551 0.0
H1388 H 0.40249 0.96433 0.20633 0.0
H1389 H 0.33501 0.99347 0.11291 0.0
H1390 H 0.37656 0.99484 0.07596 0.0
H1391 H 0.44127 0.01282 0.14873 0.0
C1392 C 0.34541 0.01624 0.23027 0.0
C1393 C 0.31304 0.01678 0.23135 0.0
C1394 C 0.29659 1.00932 0.20464 0.0
C1395 C 0.31185 1.00295 0.17722 0.0
C1396 C 0.34363 1.00402 0.17679 0.0
C1397 C 0.36026 0.01031 0.20265 0.0
C1398 C 0.39412 0.01235 0.19553 0.0
C1399 C 0.40675 0.04406 0.20344 0.0
C1400 C 0.41183 0.98715 0.21213 0.0
C1401 C 0.39392 1.00704 0.16137 0.0
C1402 C 0.36452 1.00187 0.15125 0.0
C1403 C 0.35808 0.99734 0.12064 0.0
C1404 C 0.38208 0.9984 0.09973 0.0
C1405 C 0.41253 1.00425 0.10916 0.0
C1406 C 0.41845 1.0082 0.14064 0.0
H1407 H 1.00841 0.35021 0.23897 0.0
H1408 H 0.99317 0.26453 0.19212 0.0
H1409 H 0.99616 0.29152 0.1427 0.0
H1410 H 0.96055 0.39386 0.1924 0.0
H1411 H 0.98368 0.42775 0.19322 0.0
H1412 H 0.98488 0.40142 0.2246 0.0
H1413 H 0.04336 0.39597 0.21859 0.0
H1414 H 0.04215 0.42292 0.1877 0.0
H1415 H 0.05895 0.38593 0.18199 0.0
H1416 H 0.9959 0.32873 0.09865 0.0
H1417 H 0.99493 0.37191 0.06322 0.0
H1418 H 1.00745 0.43454 0.1388 0.0
C1419 C 1.00595 0.33692 0.21836 0.0
C1420 C 1.0003 0.30502 0.21965 0.0
C1421 C 0.99782 0.28874 0.19193 0.0
C1422 C 0.99923 0.304 0.16372 0.0
C1423 C 1.00325 0.33561 0.16348 0.0
C1424 C 1.00688 0.35184 0.19011 0.0
C1425 C 1.00907 0.38587 0.18381 0.0
C1426 C 0.98299 0.40324 0.19943 0.0
C1427 C 0.04025 0.3984 0.1936 0.0
C1428 C 1.00561 0.38641 0.14941 0.0
C1429 C 1.00255 0.35712 0.13819 0.0
C1430 C 0.99855 0.35167 0.10724 0.0
C1431 C 0.99801 0.37659 0.08723 0.0
C1432 C 1.00125 0.40699 0.09794 0.0
C1433 C 1.00491 0.41179 0.12967 0.0
H1434 H 0.69644 0.95238 0.20382 0.0
H1435 H 0.74216 0.03982 0.19915 0.0
H1436 H 0.71101 0.05309 0.15385 0.0
H1437 H 0.68059 0.9385 0.1238 0.0
H1438 H 0.64307 0.92406 0.13203 0.0
H1439 H 0.67311 0.91991 0.15962 0.0
H1440 H 0.63858 0.94582 0.19905 0.0
H1441 H 0.60891 0.9537 0.17189 0.0
H1442 H 0.62588 0.98435 0.19287 0.0
H1443 H 0.67085 0.05752 0.11022 0.0
H1444 H 0.62654 0.05314 0.07522 0.0
H1445 H 0.60465 0.96535 0.11399 0.0
C1446 C 0.70039 0.97427 0.19318 0.0
C1447 C 0.72188 0.99508 0.20538 0.0
C1448 C 0.72623 0.02325 0.19024 0.0
C1449 C 0.7084 0.03107 0.16457 0.0
C1450 C 0.68617 0.01056 0.15443 0.0
C1451 C 0.68227 0.98271 0.16844 0.0
C1452 C 0.6546 0.96611 0.15628 0.0
C1453 C 0.66338 0.93533 0.14208 0.0
C1454 C 0.63061 0.96222 0.18152 0.0
C1455 C 0.64383 0.98839 0.13239 0.0
C1456 C 0.66229 0.01392 0.13141 0.0
C1457 C 0.6564 0.03758 0.11097 0.0
C1458 C 0.63122 0.03492 0.09119 0.0
C1459 C 0.61191 1.0091 0.09234 0.0
C1460 C 0.61849 0.98562 0.11316 0.0
H1461 H 0.01379 0.66627 0.23457 0.0
H1462 H 0.01501 0.75226 0.18598 0.0
H1463 H 1.00458 0.72459 0.13778 0.0
H1464 H 0.0555 0.62605 0.18017 0.0
H1465 H 0.03566 0.59051 0.18541 0.0
H1466 H 0.0383 0.61723 0.21637 0.0
H1467 H 0.97947 0.61816 0.22141 0.0
H1468 H 0.97714 0.59076 0.19099 0.0
H1469 H 0.95656 0.6262 0.1883 0.0
H1470 H 0.9992 0.68671 0.09449 0.0
H1471 H 0.99818 0.6431 0.05965 0.0
H1472 H 1.00352 0.58113 0.13662 0.0
C1473 C 0.01157 0.67946 0.21386 0.0
C1474 C 0.01548 0.71156 0.21406 0.0
C1475 C 0.0119 0.7278 0.18649 0.0
C1476 C 1.00616 0.71219 0.15901 0.0
C1477 C 1.00398 0.68039 0.15956 0.0
C1478 C 1.00642 0.66427 0.18637 0.0
C1479 C 1.00573 0.63015 0.18077 0.0
C1480 C 0.03557 0.61512 0.1913 0.0
C1481 C 0.97805 0.61548 0.19629 0.0
C1482 C 1.00274 0.62937 0.14642 0.0
C1483 C 1.00156 0.65861 0.13469 0.0
C1484 C 0.99984 0.66379 0.10352 0.0
C1485 C 0.99934 0.63863 0.08386 0.0
C1486 C 1.00073 0.6083 0.09517 0.0
C1487 C 1.00229 0.60381 0.12705 0.0
H1488 H 0.28565 0.06268 0.83444 0.0
H1489 H 0.27595 0.96909 0.8052 0.0
H1490 H 0.31334 0.95319 0.84426 0.0
H1491 H 0.36223 0.06137 0.84095 0.0
H1492 H 0.36569 0.0857 0.87383 0.0
H1493 H 0.33325 0.08925 0.84911 0.0
H1494 H 0.29639 0.08024 0.8943 0.0
H1495 H 0.32895 0.07812 0.91914 0.0
H1496 H 0.30169 0.04743 0.91841 0.0
H1497 H 0.35967 0.94927 0.87884 0.0
H1498 H 0.4049 0.95652 0.91187 0.0
H1499 H 0.38438 0.05266 0.91927 0.0
C1500 C 0.28999 0.03861 0.83759 0.0
C1501 C 0.27721 0.017 0.81723 0.0
C1502 C 0.28458 0.98588 0.82109 0.0
C1503 C 0.30625 0.97675 0.84294 0.0
C1504 C 0.32015 0.99897 0.86104 0.0
C1505 C 0.31169 0.02922 0.85914 0.0
C1506 C 0.33209 0.04911 0.87887 0.0
C1507 C 0.34932 0.07273 0.85952 0.0
C1508 C 0.31365 0.06462 0.9042 0.0
C1509 C 0.35372 0.02548 0.89178 0.0
C1510 C 0.34658 0.99669 0.8811 0.0
C1511 C 0.36491 0.9716 0.88786 0.0
C1512 C 0.39069 0.97593 0.90642 0.0
C1513 C 0.3979 1.00505 0.91817 0.0
C1514 C 0.37911 0.0301 0.9108 0.0
H1515 H 0.96091 0.29022 0.82892 0.0
H1516 H 0.04654 0.29593 0.78063 0.0
H1517 H 0.06422 0.33547 0.81683 0.0
H1518 H 0.95175 0.36638 0.84049 0.0
H1519 H 0.93528 0.36435 0.878 0.0
H1520 H 0.93116 0.33285 0.85214 0.0
H1521 H 0.95554 0.29613 0.89131 0.0
H1522 H 0.95891 0.3273 0.91781 0.0
H1523 H 0.99204 0.30534 0.90766 0.0
H1524 H 0.06808 0.3814 0.85213 0.0
H1525 H 0.06146 0.42361 0.88914 0.0
H1526 H 0.97457 0.38592 0.91643 0.0
C1527 C 0.98399 0.29868 0.827 0.0
C1528 C 1.00271 0.28946 0.80244 0.0
C1529 C 0.03226 0.30196 0.7998 0.0
C1530 C 0.04228 0.32474 0.82005 0.0
C1531 C 0.02261 0.33448 0.84308 0.0
C1532 C 0.99437 0.3212 0.84717 0.0
C1533 C 0.9767 0.33705 0.87229 0.0
C1534 C 0.94697 0.35097 0.85999 0.0
C1535 C 0.97044 0.31515 0.89885 0.0
C1536 C 0.9991 0.36168 0.88136 0.0
C1537 C 0.02533 0.3601 0.86404 0.0
C1538 C 0.04799 0.38231 0.86634 0.0
C1539 C 0.04397 0.40632 0.88721 0.0
C1540 C 0.01776 0.40767 0.90584 0.0
C1541 C 0.99514 0.38499 0.90288 0.0
H1542 H 0.72897 0.97191 0.83744 0.0
H1543 H 0.7051 0.04226 0.77275 0.0
H1544 H 0.65977 0.05517 0.80358 0.0
H1545 H 0.65736 0.94497 0.85014 0.0
H1546 H 0.66107 0.93791 0.89039 0.0
H1547 H 0.69425 0.93733 0.86642 0.0
H1548 H 0.72024 0.97841 0.89977 0.0
H1549 H 0.68752 0.97843 0.92449 0.0
H1550 H 0.70052 0.01352 0.90765 0.0
H1551 H 0.61184 0.05366 0.83672 0.0
H1552 H 0.57098 0.04488 0.87466 0.0
H1553 H 0.62744 0.97756 0.91955 0.0
C1554 C 0.71513 0.99117 0.83074 0.0
C1555 C 0.72115 1.00668 0.80307 0.0
C1556 C 0.70163 0.03081 0.79432 0.0
C1557 C 0.67549 0.03794 0.81149 0.0
C1558 C 0.66932 0.02108 0.83774 0.0
C1559 C 0.68916 0.99884 0.84788 0.0
C1560 C 0.67666 0.98308 0.87605 0.0
C1561 C 0.67207 0.9488 0.87039 0.0
C1562 C 0.69747 0.98871 0.90363 0.0
C1563 C 0.64635 0.99928 0.87971 0.0
C1564 C 0.64234 0.02093 0.85724 0.0
C1565 C 0.6151 0.0372 0.85476 0.0
C1566 C 0.59183 0.03183 0.87622 0.0
C1567 C 0.59596 0.01065 0.90018 0.0
C1568 C 0.62365 0.99415 0.9017 0.0
H1569 H 0.04095 0.73411 0.84032 0.0
H1570 H 0.96582 0.71618 0.77914 0.0
H1571 H 0.95045 0.67229 0.8109 0.0
H1572 H 0.06239 0.66102 0.85125 0.0
H1573 H 0.07198 0.66363 0.89107 0.0
H1574 H 0.07386 0.69698 0.86741 0.0
H1575 H 0.03692 0.72571 0.90322 0.0
H1576 H 0.03566 0.69274 0.92762 0.0
H1577 H 1.00085 0.7087 0.91288 0.0
H1578 H 0.95018 0.6242 0.84319 0.0
H1579 H 0.95872 0.58168 0.87936 0.0
H1580 H 0.03211 0.63246 0.92146 0.0
C1581 C 0.02023 0.722 0.83468 0.0
C1582 C 1.00409 0.72904 0.80766 0.0
C1583 C 0.97788 0.71183 0.80021 0.0
C1584 C 0.96929 0.68654 0.81791 0.0
C1585 C 0.98682 0.67906 0.84336 0.0
C1586 C 0.01116 0.69692 0.85233 0.0
C1587 C 0.02746 0.68293 0.87943 0.0
C1588 C 0.06089 0.67572 0.87181 0.0
C1589 C 0.02507 0.70376 0.90746 0.0
C1590 C 1.00914 0.65398 0.88372 0.0
C1591 C 0.98594 0.65198 0.86254 0.0
C1592 C 0.96777 0.62595 0.86035 0.0
C1593 C 0.97298 0.60176 0.88074 0.0
C1594 C 0.99587 0.60389 0.90332 0.0
C1595 C 0.01411 0.63041 0.90472 0.0
H1596 H 0.24073 0.34751 0.99171 0.0
H1597 H 0.19052 0.26239 0.99339 0.0
H1598 H 0.14294 0.29123 1.00274 0.0
H1599 H 0.19492 0.38866 0.04876 0.0
H1600 H 0.19761 0.42423 0.0285 0.0
H1601 H 0.228 0.3968 0.02591 0.0
H1602 H 0.22335 0.39716 0.96718 0.0
H1603 H 0.19284 0.4244 0.96951 0.0
H1604 H 0.18713 0.38887 0.94975 0.0
H1605 H 0.10067 0.32938 1.00714 0.0
H1606 H 0.06622 0.37295 1.00755 0.0
H1607 H 0.14335 0.43469 1.00067 0.0
C1608 C 0.21977 0.33478 0.99421 0.0
C1609 C 0.21939 0.30249 0.99148 0.0
C1610 C 0.19151 0.28693 0.99554 0.0
C1611 C 0.16437 0.3032 1.00071 0.0
C1612 C 0.1655 0.33502 1.00196 0.0
C1613 C 0.19254 0.35065 0.99908 0.0
C1614 C 0.18737 0.38494 0.99953 0.0
C1615 C 0.2029 0.39951 0.02733 0.0
C1616 C 0.19832 0.3997 0.96972 0.0
C1617 C 0.15296 0.38629 1.00232 0.0
C1618 C 0.14098 0.35717 1.00406 0.0
C1619 C 0.10985 0.35222 1.006 0.0
C1620 C 0.0904 0.37745 1.00611 0.0
C1621 C 0.10178 0.40776 1.00406 0.0
C1622 C 0.13371 0.41206 1.00232 0.0
H1623 H 0.23607 0.67005 1.0007 0.0
H1624 H 0.18574 0.75463 0.99221 0.0
H1625 H 0.13777 0.72643 1.00161 0.0
H1626 H 0.18512 0.62658 0.95806 0.0
H1627 H 0.18957 0.59211 0.97986 0.0
H1628 H 0.22025 0.61921 0.97794 0.0
H1629 H 0.22159 0.6229 0.03675 0.0
H1630 H 0.19119 0.59542 0.03902 0.0
H1631 H 0.18722 0.632 0.05721 0.0
H1632 H 0.09505 0.68806 1.00624 0.0
H1633 H 0.06094 0.64389 1.00676 0.0
H1634 H 0.13903 0.58321 1.00862 0.0
C1635 C 0.21503 0.68286 1.00107 0.0
C1636 C 0.21479 0.71474 0.9954 0.0
C1637 C 0.18669 0.73041 0.99675 0.0
C1638 C 0.1593 0.71448 1.00186 0.0
C1639 C 0.16036 0.68286 1.00567 0.0
C1640 C 0.18758 0.66726 1.00552 0.0
C1641 C 0.1825 0.63306 1.00752 0.0
C1642 C 0.19511 0.61679 0.97917 0.0
C1643 C 0.19645 0.62008 0.03688 0.0
C1644 C 0.14802 0.63166 1.00839 0.0
C1645 C 0.13577 0.66068 1.0076 0.0
C1646 C 0.10447 0.66532 1.00711 0.0
C1647 C 0.08523 0.63982 1.0073 0.0
C1648 C 0.09707 0.60966 1.00773 0.0
C1649 C 0.12906 0.60574 1.00853 0.0
H1650 H 0.29583 0.18909 0.96332 0.0
H1651 H 0.31214 0.24487 0.04289 0.0
H1652 H 0.35115 0.20827 0.06059 0.0
H1653 H 0.30815 0.11398 1.00338 0.0
H1654 H 0.32648 0.09688 0.97101 0.0
H1655 H 0.29705 0.12495 0.96541 0.0
H1656 H 0.33286 0.15813 0.93299 0.0
H1657 H 0.3626 0.13033 0.93729 0.0
H1658 H 0.36934 0.16934 0.94813 0.0
H1659 H 0.39526 0.17109 0.06397 0.0
H1660 H 0.43426 0.13067 0.05814 0.0
H1661 H 0.38666 0.09627 0.97887 0.0
C1662 C 0.30647 0.19263 0.98528 0.0
C1663 C 0.3003 0.21933 1.00228 0.0
C1664 C 0.31573 0.22405 0.03016 0.0
C1665 C 0.33825 0.20357 0.04013 0.0
C1666 C 0.34477 0.17815 0.02219 0.0
C1667 C 0.32863 0.17207 0.99583 0.0
C1668 C 0.34083 0.14372 0.98016 0.0
C1669 C 0.31668 0.11839 0.97996 0.0
C1670 C 0.35207 0.15083 0.94774 0.0
C1671 C 0.36715 0.13562 1.00104 0.0
C1672 C 0.3692 0.15588 0.02505 0.0
C1673 C 0.39334 0.15463 0.04574 0.0
C1674 C 0.41552 0.13178 0.04214 0.0
C1675 C 0.41318 0.11016 0.01838 0.0
C1676 C 0.38861 0.11216 0.99764 0.0
H1677 H 0.77421 0.34092 0.99394 0.0
H1678 H 0.82594 0.2583 0.97816 0.0
H1679 H 0.8736 0.28672 0.98862 0.0
H1680 H 0.82233 0.38773 0.95334 0.0
H1681 H 0.81848 0.42085 0.97728 0.0
H1682 H 0.78802 0.39353 0.97503 0.0
H1683 H 0.78896 0.38582 0.03333 0.0
H1684 H 0.81881 0.41383 0.03629 0.0
H1685 H 0.82426 0.3763 0.05197 0.0
H1686 H 0.91541 0.32541 0.99445 0.0
H1687 H 0.94866 0.36998 0.99677 0.0
H1688 H 0.86969 0.42904 1.00513 0.0
C1689 C 0.79552 0.32857 0.99318 0.0
C1690 C 0.79634 0.29728 0.98502 0.0
C1691 C 0.82468 0.28206 0.98463 0.0
C1692 C 0.85185 0.29814 0.99033 0.0
C1693 C 0.85021 0.32936 0.99647 0.0
C1694 C 0.82272 0.34436 0.99817 0.0
C1695 C 0.82714 0.37846 1.00218 0.0
C1696 C 0.81317 0.39619 0.97537 0.0
C1697 C 0.81402 0.38923 0.03277 0.0
C1698 C 0.86157 0.38053 1.00196 0.0
C1699 C 0.87434 0.35187 0.99899 0.0
C1700 C 0.90562 0.34785 0.99713 0.0
C1701 C 0.92435 0.37362 0.99841 0.0
C1702 C 0.912 0.40346 1.00127 0.0
C1703 C 0.88002 0.40675 1.00317 0.0
H1704 H 0.72495 0.83605 0.03488 0.0
H1705 H 0.70215 0.77432 0.96153 0.0
H1706 H 0.65988 0.80822 0.94617 0.0
H1707 H 0.65307 0.85164 0.05743 0.0
H1708 H 0.65816 0.89146 0.06603 0.0
H1709 H 0.69011 0.86595 0.06783 0.0
H1710 H 0.72003 0.89926 0.02949 0.0
H1711 H 0.68848 0.92545 0.02828 0.0
H1712 H 0.70287 0.90908 0.99352 0.0
H1713 H 0.61363 0.84322 0.94603 0.0
H1714 H 0.57333 0.88184 0.95465 0.0
H1715 H 0.62784 0.92253 0.02613 0.0
C1716 C 0.71217 0.83066 0.01448 0.0
C1717 C 0.71737 0.80292 0.99887 0.0
C1718 C 0.69926 0.79589 0.97315 0.0
C1719 C 0.67486 0.81482 0.96459 0.0
C1720 C 0.66915 0.84105 0.98165 0.0
C1721 C 0.68795 0.84951 1.00547 0.0
C1722 C 0.67583 0.87772 0.0214 0.0
C1723 C 0.66889 0.87128 0.05516 0.0
C1724 C 0.69813 0.90447 0.01795 0.0
C1725 C 0.6468 0.88324 1.00352 0.0
C1726 C 0.64317 0.86173 0.98082 0.0
C1727 C 0.61669 0.86063 0.9632 0.0
C1728 C 0.59377 0.88244 0.96844 0.0
C1729 C 0.5976 0.90533 0.9908 0.0
C1730 C 0.62453 0.90561 1.00849 0.0
H1731 H 0.77175 0.6694 0.01501 0.0
H1732 H 0.82059 0.75181 0.99041 0.0
H1733 H 0.86548 0.72061 0.97708 0.0
H1734 H 0.83339 0.63448 0.05296 0.0
H1735 H 0.82386 0.59636 0.04111 0.0
H1736 H 0.79441 0.62459 0.04475 0.0
H1737 H 0.7782 0.61482 0.98885 0.0
H1738 H 0.80776 0.58661 0.98512 0.0
H1739 H 0.80603 0.61811 0.95888 0.0
H1740 H 0.90661 0.68101 0.97102 0.0
H1741 H 0.9409 0.63689 0.97268 0.0
H1742 H 0.86659 0.57982 1.00416 0.0
C1743 C 0.79179 0.68114 1.00686 0.0
C1744 C 0.79242 0.71346 1.00411 0.0
C1745 C 0.81914 0.72729 0.99248 0.0
C1746 C 0.84489 0.70968 0.98502 0.0
C1747 C 0.84374 0.67815 0.98922 0.0
C1748 C 0.81782 0.66398 0.9998 0.0
C1749 C 0.82312 0.62999 1.00427 0.0
C1750 C 0.81842 0.62084 0.03776 0.0
C1751 C 0.80255 0.61128 0.98301 0.0
C1752 C 0.85633 0.62725 0.99509 0.0
C1753 C 0.86761 0.65531 0.98619 0.0
C1754 C 0.89791 0.65898 0.9778 0.0
C1755 C 0.91729 0.63363 0.97897 0.0
C1756 C 0.90664 0.60464 0.98865 0.0
C1757 C 0.87548 0.60143 0.99633 0.0
H1758 H 0.33927 0.77885 1.0 0.0
H1759 H 0.25475 0.82925 0.99266 0.0
H1760 H 0.28285 0.87705 1.00419 0.0
H1761 H 0.37707 0.82533 0.05867 0.0
H1762 H 0.41365 0.82186 0.04042 0.0
H1763 H 0.38605 0.79169 0.03694 0.0
H1764 H 0.38998 0.79512 0.97832 0.0
H1765 H 0.41705 0.82574 0.98129 0.0
H1766 H 0.38257 0.83091 0.95966 0.0
H1767 H 0.32163 0.91973 0.01111 0.0
H1768 H 0.36613 0.9535 0.01313 0.0
H1769 H 0.42606 0.87484 0.01201 0.0
C1770 C 0.32645 0.79987 1.00129 0.0
C1771 C 0.29469 0.80031 0.99526 0.0
C1772 C 0.27891 0.82827 0.99745 0.0
C1773 C 0.29479 0.85551 1.00379 0.0
C1774 C 0.3264 0.85432 1.00793 0.0
C1775 C 0.34197 0.82708 1.00691 0.0
C1776 C 0.37613 0.8319 1.00918 0.0
C1777 C 0.38898 0.8168 0.03803 0.0
C1778 C 0.39238 0.82023 0.98041 0.0
C1779 C 0.37762 0.86629 0.01133 0.0
C1780 C 0.34868 0.87875 0.01091 0.0
C1781 C 0.34429 0.91011 0.01169 0.0
C1782 C 0.36995 0.92916 0.01278 0.0
C1783 C 0.39998 0.91704 0.0128 0.0
C1784 C 0.40363 0.88502 0.01226 0.0
H1785 H 0.67306 0.23508 0.99286 0.0
H1786 H 0.75442 0.18399 0.97056 0.0
H1787 H 0.72607 0.1358 0.97889 0.0
H1788 H 0.64153 0.1807 0.05046 0.0
H1789 H 0.60304 0.18755 0.03805 0.0
H1790 H 0.63106 0.21742 0.0354 0.0
H1791 H 0.61932 0.22297 0.97791 0.0
H1792 H 0.59169 0.19281 0.98018 0.0
H1793 H 0.62264 0.19021 0.95339 0.0
H1794 H 0.68714 0.09385 0.98307 0.0
H1795 H 0.6423 0.06074 0.98593 0.0
H1796 H 0.58515 0.13938 1.00431 0.0
C1797 C 0.68513 0.2137 0.99051 0.0
C1798 C 0.716 0.21317 0.98109 0.0
C1799 C 0.73098 0.18487 0.9781 0.0
C1800 C 0.71495 0.15746 0.98261 0.0
C1801 C 0.6841 0.15885 0.99037 0.0
C1802 C 0.66947 0.18629 0.99478 0.0
C1803 C 0.63572 0.18175 1.00086 0.0
C1804 C 0.62735 0.19249 0.03311 0.0
C1805 C 0.61621 0.19789 0.97664 0.0
C1806 C 0.6333 0.14743 0.99812 0.0
C1807 C 0.66155 0.1347 0.99244 0.0
C1808 C 0.66504 0.10357 0.98793 0.0
C1809 C 0.63919 0.08493 0.98953 0.0
C1810 C 0.60985 0.09727 0.99543 0.0
C1811 C 0.60706 0.12909 0.99976 0.0
H1812 H 0.45111 0.69615 0.81859 0.0
H1813 H 0.54358 0.72618 0.80199 0.0
H1814 H 0.56222 0.68908 0.84027 0.0
H1815 H 0.45742 0.68959 0.89732 0.0
H1816 H 0.43363 0.65626 0.90079 0.0
H1817 H 0.428 0.68226 0.86964 0.0
H1818 H 0.435 0.63812 0.83101 0.0
H1819 H 0.43973 0.61235 0.86253 0.0
H1820 H 0.46848 0.6145 0.83332 0.0
H1821 H 0.56991 0.65227 0.88493 0.0
H1822 H 0.5664 0.61573 0.92795 0.0
H1823 H 0.46884 0.61006 0.91525 0.0
C1824 C 0.47539 0.69437 0.82242 0.0
C1825 C 0.49592 0.714 0.80704 0.0
C1826 C 0.52747 0.71111 0.81299 0.0
C1827 C 0.5382 0.69028 0.83496 0.0
C1828 C 0.51715 0.67225 0.85064 0.0
C1829 C 0.48641 0.67375 0.84419 0.0
C1830 C 0.46822 0.65305 0.86509 0.0
C1831 C 0.44549 0.67141 0.88435 0.0
C1832 C 0.45192 0.62801 0.84686 0.0
C1833 C 0.49341 0.63991 0.88471 0.0
C1834 C 0.52151 0.65128 0.87609 0.0
C1835 C 0.54804 0.64311 0.89161 0.0
C1836 C 0.54585 0.62256 0.91613 0.0
C1837 C 0.51738 0.6104 0.92494 0.0
C1838 C 0.49087 0.61921 0.909 0.0
H1839 H 0.33752 0.55743 0.80732 0.0
H1840 H 0.29744 0.46738 0.80825 0.0
H1841 H 0.33508 0.45113 0.84709 0.0
H1842 H 0.41754 0.53074 0.81827 0.0
H1843 H 0.4279 0.56237 0.84212 0.0
H1844 H 0.39993 0.56737 0.81248 0.0
H1845 H 0.36042 0.58712 0.85083 0.0
H1846 H 0.38775 0.58347 0.88112 0.0
H1847 H 0.35136 0.56471 0.88399 0.0
H1848 H 0.37197 0.44752 0.89162 0.0
H1849 H 0.40944 0.45461 0.93328 0.0
H1850 H 0.42836 0.54581 0.90087 0.0
C1851 C 0.3375 0.53396 0.81488 0.0
C1852 C 0.31497 0.51341 0.80435 0.0
C1853 C 0.31498 0.48317 0.81541 0.0
C1854 C 0.3361 0.47389 0.8377 0.0
C1855 C 0.3574 0.49501 0.84836 0.0
C1856 C 0.35875 0.52422 0.83672 0.0
C1857 C 0.38332 0.54276 0.85255 0.0
C1858 C 0.40866 0.55134 0.83001 0.0
C1859 C 0.3699 0.57119 0.86804 0.0
C1860 C 0.39466 0.51993 0.87586 0.0
C1861 C 0.3794 0.49251 0.87311 0.0
C1862 C 0.3844 0.4687 0.89358 0.0
C1863 C 0.40559 0.47295 0.91723 0.0
C1864 C 0.42195 0.50058 0.91997 0.0
C1865 C 0.41652 0.52426 0.89888 0.0
H1866 H 0.46774 0.32901 0.81381 0.0
H1867 H 0.55949 0.29347 0.80787 0.0
H1868 H 0.57642 0.33134 0.84629 0.0
H1869 H 0.48891 0.4101 0.82578 0.0
H1870 H 0.45776 0.41625 0.85175 0.0
H1871 H 0.45413 0.38871 0.82154 0.0
H1872 H 0.44054 0.34723 0.86129 0.0
H1873 H 0.44447 0.37466 0.89146 0.0
H1874 H 0.46634 0.33996 0.89238 0.0
H1875 H 0.58157 0.36936 0.89054 0.0
H1876 H 0.57552 0.40711 0.93223 0.0
H1877 H 0.48078 0.4189 0.90775 0.0
C1878 C 0.49162 0.32981 0.81992 0.0
C1879 C 0.5124 0.30846 0.80749 0.0
C1880 C 0.54331 0.30993 0.81652 0.0
C1881 C 0.55302 0.3312 0.8386 0.0
C1882 C 0.53163 0.35113 0.85123 0.0
C1883 C 0.50164 0.35095 0.84173 0.0
C1884 C 0.48278 0.37384 0.85954 0.0
C1885 C 0.47016 0.3987 0.83839 0.0
C1886 C 0.45703 0.35796 0.87721 0.0
C1887 C 0.50663 0.3866 0.88102 0.0
C1888 C 0.53468 0.37316 0.87602 0.0
C1889 C 0.55978 0.3802 0.89429 0.0
C1890 C 0.55615 0.40155 0.91799 0.0
C1891 C 0.52779 0.41597 0.92295 0.0
C1892 C 0.5028 0.40842 0.90415 0.0
H1893 H 0.69408 0.46403 0.81318 0.0
H1894 H 0.74621 0.54736 0.8212 0.0
H1895 H 0.71141 0.56509 0.86199 0.0
H1896 H 0.61823 0.49861 0.82771 0.0
H1897 H 0.60527 0.4657 0.84853 0.0
H1898 H 0.63268 0.46135 0.81835 0.0
H1899 H 0.6688 0.43397 0.85587 0.0
H1900 H 0.64212 0.43901 0.88653 0.0
H1901 H 0.68052 0.45308 0.89022 0.0
H1902 H 0.67458 0.57026 0.90687 0.0
H1903 H 0.63457 0.56592 0.94652 0.0
H1904 H 0.60462 0.4807 0.90686 0.0
C1905 C 0.69758 0.48643 0.82291 0.0
C1906 C 0.72262 0.50455 0.81375 0.0
C1907 C 0.72685 0.53343 0.82741 0.0
C1908 C 0.70735 0.5435 0.85081 0.0
C1909 C 0.68345 0.5246 0.86001 0.0
C1910 C 0.67809 0.49696 0.84594 0.0
C1911 C 0.65134 0.48054 0.86042 0.0
C1912 C 0.62534 0.47632 0.83738 0.0
C1913 C 0.66129 0.44984 0.87407 0.0
C1914 C 0.64268 0.50302 0.88516 0.0
C1915 C 0.66167 0.52815 0.88484 0.0
C1916 C 0.65926 0.55095 0.9069 0.0
C1917 C 0.63663 0.54825 0.92944 0.0
C1918 C 0.61632 0.52323 0.92947 0.0
C1919 C 0.6195 0.50038 0.907 0.0
H1920 H 0.5815 0.31697 0.21404 0.0
H1921 H 0.4901 0.30638 0.24952 0.0
H1922 H 0.4727 0.34874 0.21659 0.0
H1923 H 0.57957 0.40098 0.19929 0.0
H1924 H 0.60081 0.3965 0.16449 0.0
H1925 H 0.60698 0.37065 0.19575 0.0
H1926 H 0.59566 0.3253 0.15978 0.0
H1927 H 0.58855 0.35092 0.12864 0.0
H1928 H 0.55982 0.32384 0.13983 0.0
H1929 H 0.46418 0.38795 0.17454 0.0
H1930 H 0.46592 0.42208 0.12959 0.0
H1931 H 0.56187 0.40282 0.11836 0.0
C1932 C 0.55802 0.32428 0.21572 0.0
C1933 C 0.53719 0.30842 0.23457 0.0
C1934 C 0.50661 0.3185 0.2358 0.0
C1935 C 0.49648 0.34232 0.21684 0.0
C1936 C 0.51721 0.35582 0.19681 0.0
C1937 C 0.54748 0.34738 0.19647 0.0
C1938 C 0.56457 0.36283 0.17073 0.0
C1939 C 0.58945 0.384 0.18332 0.0
C1940 C 0.57792 0.33931 0.14844 0.0
C1941 C 0.5391 0.38081 0.15607 0.0
C1942 C 0.51203 0.37688 0.17171 0.0
C1943 C 0.48529 0.39119 0.16229 0.0
C1944 C 0.48641 0.41033 0.13666 0.0
C1945 C 0.51386 0.41449 0.12035 0.0
C1946 C 0.54047 0.39944 0.13012 0.0
H1947 H 0.74197 0.50387 0.19121 0.0
H1948 H 0.69282 0.53215 0.2719 0.0
H1949 H 0.64416 0.52631 0.2438 0.0
H1950 H 0.70055 0.5471 0.14127 0.0
H1951 H 0.70122 0.52056 0.10997 0.0
H1952 H 0.73132 0.52019 0.13774 0.0
H1953 H 0.72129 0.46314 0.14884 0.0
H1954 H 0.69151 0.46312 0.12059 0.0
H1955 H 0.68346 0.45084 0.1589 0.0
H1956 H 0.60199 0.52482 0.20472 0.0
H1957 H 0.56905 0.52487 0.15965 0.0
H1958 H 0.64621 0.50065 0.10276 0.0
C1959 C 0.72087 0.50784 0.20331 0.0
C1960 C 0.72116 0.51833 0.2339 0.0
C1961 C 0.69314 0.5236 0.24877 0.0
C1962 C 0.66544 0.52063 0.23282 0.0
C1963 C 0.66622 0.51228 0.20206 0.0
C1964 C 0.69324 0.50558 0.18758 0.0
C1965 C 0.6884 0.50025 0.1537 0.0
C1966 C 0.70644 0.52341 0.13456 0.0
C1967 C 0.69665 0.46738 0.145 0.0
C1968 C 0.65443 0.50569 0.15109 0.0
C1969 C 0.64208 0.51224 0.17934 0.0
C1970 C 0.61141 0.51925 0.18265 0.0
C1971 C 0.59285 0.51925 0.15667 0.0
C1972 C 0.6048 0.51252 0.12732 0.0
C1973 C 0.63619 0.50576 0.12468 0.0
H1974 H 0.54613 0.68921 0.23673 0.0
H1975 H 0.45974 0.73514 0.22584 0.0
H1976 H 0.44373 0.69607 0.18852 0.0
H1977 H 0.55794 0.67393 0.16258 0.0
H1978 H 0.575 0.63685 0.16674 0.0
H1979 H 0.57743 0.66397 0.19731 0.0
H1980 H 0.55245 0.62571 0.23453 0.0
H1981 H 0.55077 0.598 0.20429 0.0
H1982 H 0.51665 0.60825 0.22461 0.0
H1983 H 0.44232 0.65919 0.14401 0.0
H1984 H 0.4516 0.62161 0.10288 0.0
H1985 H 0.53764 0.59742 0.14448 0.0
C1986 C 0.52312 0.68988 0.22791 0.0
C1987 C 0.50381 0.71478 0.23486 0.0
C1988 C 0.47444 0.71578 0.22169 0.0
C1989 C 0.46538 0.69389 0.20007 0.0
C1990 C 0.48577 0.67078 0.19221 0.0
C1991 C 0.5137 0.66807 0.20647 0.0
C1992 C 0.53247 0.64274 0.19218 0.0
C1993 C 0.56247 0.65513 0.17893 0.0
C1994 C 0.53843 0.61715 0.21528 0.0
C1995 C 0.51118 0.63224 0.16709 0.0
C1996 C 0.48444 0.64885 0.16729 0.0
C1997 C 0.46276 0.64546 0.14425 0.0
C1998 C 0.4683 0.62427 0.12084 0.0
C1999 C 0.49506 0.60636 0.12083 0.0
C2000 C 0.51665 0.61035 0.14437 0.0
H2001 H 0.28548 0.52219 0.19371 0.0
H2002 H 0.33159 0.47261 0.26542 0.0
H2003 H 0.37886 0.4727 0.23458 0.0
H2004 H 0.31483 0.48073 0.13448 0.0
H2005 H 0.31855 0.51165 0.10777 0.0
H2006 H 0.29032 0.51351 0.13739 0.0
H2007 H 0.31251 0.56462 0.1566 0.0
H2008 H 0.34032 0.56346 0.12647 0.0
H2009 H 0.35249 0.56726 0.16548 0.0
H2010 H 0.41824 0.47172 0.1932 0.0
H2011 H 0.44971 0.47475 0.14723 0.0
H2012 H 0.37757 0.52323 0.10017 0.0
C2013 C 0.30597 0.51253 0.20347 0.0
C2014 C 0.30503 0.49778 0.23227 0.0
C2015 C 0.33197 0.48464 0.2439 0.0
C2016 C 0.35876 0.48425 0.22627 0.0
C2017 C 0.35819 0.49716 0.19713 0.0
C2018 C 0.33264 0.51157 0.18601 0.0
C2019 C 0.3371 0.52142 0.15304 0.0
C2020 C 0.31381 0.5059 0.13194 0.0
C2021 C 0.33552 0.55626 0.15024 0.0
C2022 C 0.36908 0.5098 0.14702 0.0
C2023 C 0.38074 0.49602 0.17289 0.0
C2024 C 0.40946 0.48285 0.17305 0.0
C2025 C 0.42712 0.48461 0.1466 0.0
C2026 C 0.41629 0.49934 0.11988 0.0
C2027 C 0.38651 0.51167 0.12002 0.0
H2028 H 0.84468 0.49768 0.75129 0.0
H2029 H 0.76406 0.521 0.69945 0.0
H2030 H 0.79702 0.5378 0.65665 0.0
H2031 H 0.89693 0.55693 0.72079 0.0
H2032 H 0.92865 0.53092 0.72033 0.0
H2033 H 0.89915 0.52676 0.74853 0.0
H2034 H 0.89073 0.4708 0.73141 0.0
H2035 H 0.92017 0.47505 0.70333 0.0
H2036 H 0.88266 0.46291 0.69195 0.0
H2037 H 0.83841 0.54518 0.61755 0.0
H2038 H 0.88365 0.54273 0.58493 0.0
H2039 H 0.93774 0.51122 0.66142 0.0
C2040 C 0.83392 0.50691 0.73115 0.0
C2041 C 0.80173 0.50796 0.72861 0.0
C2042 C 0.78857 0.5203 0.702 0.0
C2043 C 0.80717 0.52972 0.67758 0.0
C2044 C 0.83881 0.52673 0.68032 0.0
C2045 C 0.85205 0.51576 0.70658 0.0
C2046 C 0.88619 0.51158 0.70284 0.0
C2047 C 0.90377 0.53282 0.7244 0.0
C2048 C 0.89545 0.4781 0.70766 0.0
C2049 C 0.89019 0.5211 0.66992 0.0
C2050 C 0.86262 0.53021 0.65758 0.0
C2051 C 0.86007 0.5384 0.62713 0.0
C2052 C 0.88604 0.53675 0.60872 0.0
C2053 C 0.91447 0.52672 0.62049 0.0
C2054 C 0.91658 0.51938 0.65176 0.0
H2055 H 0.50467 0.83504 0.74492 0.0
H2056 H 0.49216 0.75506 0.68857 0.0
H2057 H 0.50086 0.7866 0.6425 0.0
H2058 H 0.46258 0.88311 0.70053 0.0
H2059 H 0.48541 0.91676 0.7061 0.0
H2060 H 0.48488 0.88747 0.73472 0.0
H2061 H 0.5435 0.88242 0.73184 0.0
H2062 H 0.54421 0.91234 0.70377 0.0
H2063 H 0.56147 0.87604 0.69549 0.0
H2064 H 0.50303 0.82789 0.60308 0.0
H2065 H 0.50272 0.87421 0.57237 0.0
H2066 H 0.51204 0.92917 0.65424 0.0
C2067 C 0.50506 0.82395 0.72289 0.0
C2068 C 0.49825 0.79243 0.72026 0.0
C2069 C 0.49805 0.77887 0.69112 0.0
C2070 C 0.50265 0.79676 0.66488 0.0
C2071 C 0.50748 0.82811 0.66827 0.0
C2072 C 0.50919 0.84153 0.6966 0.0
C2073 C 0.51158 0.87603 0.69408 0.0
C2074 C 0.4845 0.89175 0.70979 0.0
C2075 C 0.54202 0.88736 0.70707 0.0
C2076 C 0.51031 0.88014 0.65978 0.0
C2077 C 0.50814 0.85213 0.64546 0.0
C2078 C 0.50524 0.84984 0.61407 0.0
C2079 C 0.50497 0.87663 0.59679 0.0
C2080 C 0.50752 0.90587 0.61063 0.0
C2081 C 0.51018 0.90744 0.64276 0.0
H2082 H 0.23768 0.5532 0.69081 0.0
H2083 H 0.22904 0.46867 0.74064 0.0
H2084 H 0.18706 0.45289 0.70658 0.0
H2085 H 0.1627 0.56738 0.68214 0.0
H2086 H 0.16383 0.58258 0.64405 0.0
H2087 H 0.19695 0.58503 0.668 0.0
H2088 H 0.22942 0.55689 0.62767 0.0
H2089 H 0.19662 0.55523 0.60305 0.0
H2090 H 0.21658 0.52077 0.61295 0.0
H2091 H 0.13896 0.45175 0.67449 0.0
H2092 H 0.09536 0.46035 0.63958 0.0
H2093 H 0.1372 0.54387 0.608 0.0
C2094 C 0.22816 0.53059 0.6933 0.0
C2095 C 0.23718 0.51177 0.71788 0.0
C2096 C 0.22322 0.48294 0.72139 0.0
C2097 C 0.19899 0.47403 0.70241 0.0
C2098 C 0.18935 0.49397 0.6796 0.0
C2099 C 0.20421 0.52121 0.67426 0.0
C2100 C 0.18823 0.5394 0.64956 0.0
C2101 C 0.17729 0.57042 0.66168 0.0
C2102 C 0.20894 0.54329 0.62165 0.0
C2103 C 0.16154 0.51864 0.64253 0.0
C2104 C 0.16238 0.49268 0.66031 0.0
C2105 C 0.13856 0.47159 0.65989 0.0
C2106 C 0.11374 0.47678 0.64028 0.0
C2107 C 0.11312 0.50259 0.62104 0.0
C2108 C 0.13737 0.52371 0.62222 0.0
H2109 H 0.47729 0.23125 0.6916 0.0
H2110 H 0.55621 0.21739 0.74893 0.0
H2111 H 0.5724 0.17451 0.71614 0.0
H2112 H 0.45976 0.15638 0.68018 0.0
H2113 H 0.4483 0.15931 0.64087 0.0
H2114 H 0.44531 0.19189 0.66552 0.0
H2115 H 0.47867 0.2238 0.62886 0.0
H2116 H 0.48097 0.19151 0.60364 0.0
H2117 H 0.5153 0.20944 0.61725 0.0
H2118 H 0.57431 0.12687 0.68265 0.0
H2119 H 0.56739 0.08503 0.6452 0.0
H2120 H 0.48923 0.13188 0.60757 0.0
C2121 C 0.49886 0.22024 0.69622 0.0
C2122 C 0.51595 0.22824 0.72241 0.0
C2123 C 0.54333 0.21238 0.72849 0.0
C2124 C 0.55242 0.18763 0.71022 0.0
C2125 C 0.53415 0.17926 0.68556 0.0
C2126 C 0.50843 0.19574 0.67794 0.0
C2127 C 0.49193 0.18125 0.65118 0.0
C2128 C 0.45941 0.17165 0.65999 0.0
C2129 C 0.49172 0.20278 0.62359 0.0
C2130 C 0.5119 0.15366 0.6454 0.0
C2131 C 0.53596 0.15265 0.66567 0.0
C2132 C 0.55596 0.12788 0.66625 0.0
C2133 C 0.55171 0.10406 0.64513 0.0
C2134 C 0.52796 0.10535 0.62341 0.0
C2135 C 0.50785 0.13051 0.62369 0.0
H2136 H 0.84967 0.51477 0.2929 0.0
H2137 H 0.76663 0.53097 0.3437 0.0
H2138 H 0.79537 0.52465 0.39191 0.0
H2139 H 0.88519 0.45982 0.34706 0.0
H2140 H 0.92271 0.47508 0.34057 0.0
H2141 H 0.89474 0.47592 0.31054 0.0
H2142 H 0.90227 0.53421 0.30558 0.0
H2143 H 0.92984 0.53364 0.33589 0.0
H2144 H 0.89702 0.55809 0.33855 0.0
H2145 H 0.83412 0.52264 0.434 0.0
H2146 H 0.87857 0.5224 0.46753 0.0
H2147 H 0.93789 0.50938 0.38942 0.0
C2148 C 0.83735 0.51643 0.31419 0.0
C2149 C 0.80578 0.5235 0.31454 0.0
C2150 C 0.79059 0.52528 0.34283 0.0
C2151 C 0.80684 0.52192 0.37029 0.0
C2152 C 0.83821 0.51653 0.36903 0.0
C2153 C 0.85325 0.51338 0.34167 0.0
C2154 C 0.88737 0.50972 0.34645 0.0
C2155 C 0.89813 0.47826 0.33551 0.0
C2156 C 0.90516 0.53545 0.33068 0.0
C2157 C 0.88942 0.5123 0.38084 0.0
C2158 C 0.86071 0.51581 0.39332 0.0
C2159 C 0.8566 0.51953 0.42445 0.0
C2160 C 0.88228 0.51941 0.44335 0.0
C2161 C 0.91216 0.51575 0.43135 0.0
C2162 C 0.91559 0.51221 0.39948 0.0
H2163 H 0.51527 0.85348 0.28387 0.0
H2164 H 0.50218 0.7696 0.33491 0.0
H2165 H 0.49216 0.8 0.38103 0.0
H2166 H 0.55863 0.89033 0.34182 0.0
H2167 H 0.54378 0.92774 0.33384 0.0
H2168 H 0.54594 0.89976 0.30394 0.0
H2169 H 0.48829 0.90643 0.29356 0.0
H2170 H 0.48599 0.93432 0.32359 0.0
H2171 H 0.46155 0.90135 0.32426 0.0
H2172 H 0.48638 0.83909 0.42223 0.0
H2173 H 0.48757 0.88288 0.45645 0.0
H2174 H 0.51 0.94231 0.38052 0.0
C2175 C 0.51068 0.84109 0.30463 0.0
C2176 C 0.50993 0.80858 0.30527 0.0
C2177 C 0.50257 0.79418 0.3332 0.0
C2178 C 0.49705 0.81136 0.35973 0.0
C2179 C 0.49914 0.84308 0.35829 0.0
C2180 C 0.50595 0.85784 0.33149 0.0
C2181 C 0.509 0.89208 0.33659 0.0
C2182 C 0.54125 0.90311 0.32857 0.0
C2183 C 0.48476 0.90958 0.31842 0.0
C2184 C 0.50313 0.89432 0.37064 0.0
C2185 C 0.49707 0.86572 0.38244 0.0
C2186 C 0.49119 0.8615 0.41319 0.0
C2187 C 0.49206 0.88684 0.43254 0.0
C2188 C 0.4992 0.91651 0.42155 0.0
C2189 C 0.50437 0.92021 0.38987 0.0
H2190 H 0.19339 0.45263 0.31538 0.0
H2191 H 0.24326 0.5377 0.32168 0.0
H2192 H 0.21247 0.55183 0.36687 0.0
H2193 H 0.122 0.48535 0.32834 0.0
H2194 H 0.10679 0.45327 0.34891 0.0
H2195 H 0.13609 0.44753 0.32086 0.0
H2196 H 0.17002 0.42083 0.36105 0.0
H2197 H 0.14063 0.42607 0.38915 0.0
H2198 H 0.17853 0.44007 0.39631 0.0
H2199 H 0.17316 0.55763 0.41007 0.0
H2200 H 0.12982 0.55489 0.44606 0.0
H2201 H 0.10175 0.46915 0.40619 0.0
C2202 C 0.19822 0.47419 0.32634 0.0
C2203 C 0.22087 0.49411 0.31462 0.0
C2204 C 0.22647 0.5218 0.33021 0.0
C2205 C 0.20881 0.53014 0.35577 0.0
C2206 C 0.18547 0.51066 0.36539 0.0
C2207 C 0.18027 0.4832 0.35105 0.0
C2208 C 0.15229 0.46736 0.36376 0.0
C2209 C 0.12786 0.46314 0.33899 0.0
C2210 C 0.16089 0.43678 0.37844 0.0
C2211 C 0.14219 0.49024 0.38749 0.0
C2212 C 0.16191 0.51485 0.38849 0.0
C2213 C 0.15763 0.53851 0.40925 0.0
C2214 C 0.13291 0.53681 0.42955 0.0
C2215 C 0.11223 0.51205 0.42855 0.0
C2216 C 0.11687 0.4886 0.40706 0.0
H2217 H 0.51659 0.17918 0.293 0.0
H2218 H 0.55052 0.25907 0.34018 0.0
H2219 H 0.54655 0.23134 0.38918 0.0
H2220 H 0.4655 0.14979 0.35354 0.0
H2221 H 0.47568 0.11095 0.34499 0.0
H2222 H 0.47597 0.13922 0.31528 0.0
H2223 H 0.53206 0.12473 0.30362 0.0
H2224 H 0.53187 0.09729 0.33403 0.0
H2225 H 0.56006 0.12711 0.33354 0.0
H2226 H 0.54427 0.19277 0.43212 0.0
H2227 H 0.54155 0.1482 0.46588 0.0
H2228 H 0.51239 0.09211 0.38979 0.0
C2229 C 0.52276 0.19112 0.31367 0.0
C2230 C 0.53405 0.2214 0.31264 0.0
C2231 C 0.54151 0.23612 0.34033 0.0
C2232 C 0.53955 0.2204 0.36824 0.0
C2233 C 0.53001 0.19 0.36808 0.0
C2234 C 0.52143 0.17564 0.3415 0.0
C2235 C 0.51439 0.1422 0.34693 0.0
C2236 C 0.48088 0.13515 0.33977 0.0
C2237 C 0.53588 0.12163 0.32843 0.0
C2238 C 0.52077 0.13974 0.38075 0.0
C2239 C 0.52946 0.16764 0.39255 0.0
C2240 C 0.53717 0.17095 0.42311 0.0
C2241 C 0.53558 0.14532 0.44213 0.0
C2242 C 0.52659 0.1164 0.43069 0.0
C2243 C 0.51931 0.11373 0.3994 0.0
H2244 H 0.73699 0.8413 0.5142 0.0
H2245 H 0.68617 0.75728 0.50527 0.0
H2246 H 0.63818 0.78569 0.51485 0.0
H2247 H 0.68719 0.88041 0.57106 0.0
H2248 H 0.69237 0.91661 0.5524 0.0
H2249 H 0.72232 0.8886 0.55152 0.0
H2250 H 0.72281 0.89166 0.49262 0.0
H2251 H 0.69244 0.91909 0.49325 0.0
H2252 H 0.68821 0.88437 0.47178 0.0
H2253 H 0.59546 0.82502 0.51823 0.0
H2254 H 0.56221 0.87018 0.51729 0.0
H2255 H 0.64182 0.92878 0.52051 0.0
C2256 C 0.71583 0.82868 0.51548 0.0
C2257 C 0.71524 0.79699 0.50945 0.0
C2258 C 0.68715 0.78136 0.5105 0.0
C2259 C 0.65982 0.79743 0.51563 0.0
C2260 C 0.66112 0.82905 0.51966 0.0
C2261 C 0.68855 0.8444 0.51995 0.0
C2262 C 0.68397 0.87861 0.52126 0.0
C2263 C 0.69725 0.89183 0.55083 0.0
C2264 C 0.69766 0.89433 0.49306 0.0
C2265 C 0.64957 0.88035 0.5211 0.0
C2266 C 0.63676 0.85157 0.52051 0.0
C2267 C 0.60533 0.84758 0.51905 0.0
C2268 C 0.5866 0.87352 0.51837 0.0
C2269 C 0.59922 0.90332 0.51885 0.0
C2270 C 0.63124 0.90651 0.52028 0.0
H2271 H 0.71448 0.20349 0.4671 0.0
H2272 H 0.72507 0.2342 0.56035 0.0
H2273 H 0.68737 0.19544 0.57688 0.0
H2274 H 0.63387 0.18383 0.46997 0.0
H2275 H 0.63886 0.15082 0.44612 0.0
H2276 H 0.66378 0.18311 0.44189 0.0
H2277 H 0.71034 0.14784 0.45005 0.0
H2278 H 0.68555 0.11554 0.45489 0.0
H2279 H 0.71271 0.12513 0.48414 0.0
H2280 H 0.64965 0.1507 0.58305 0.0
H2281 H 0.61435 0.10688 0.57799 0.0
H2282 H 0.63211 0.10337 0.48116 0.0
C2283 C 0.70868 0.20241 0.49104 0.0
C2284 C 0.72296 0.22207 0.51243 0.0
C2285 C 0.71434 0.21984 0.54343 0.0
C2286 C 0.69315 0.19759 0.55304 0.0
C2287 C 0.68077 0.17764 0.53142 0.0
C2288 C 0.68813 0.18012 0.50099 0.0
C2289 C 0.67295 0.15528 0.48226 0.0
C2290 C 0.65106 0.16909 0.45868 0.0
C2291 C 0.69681 0.13474 0.46694 0.0
C2292 C 0.65579 0.13819 0.50684 0.0
C2293 C 0.66044 0.15149 0.53507 0.0
C2294 C 0.6462 0.14009 0.56108 0.0
C2295 C 0.6264 0.11502 0.55807 0.0
C2296 C 0.62132 0.10115 0.52939 0.0
C2297 C 0.63638 0.11287 0.50351 0.0
H2298 H 0.85047 0.74608 0.50316 0.0
H2299 H 0.76735 0.69425 0.51681 0.0
H2300 H 0.79818 0.64923 0.53045 0.0
H2301 H 0.88999 0.68805 0.46512 0.0
H2302 H 0.92674 0.69699 0.48105 0.0
H2303 H 0.89853 0.72642 0.47696 0.0
H2304 H 0.90262 0.73873 0.53446 0.0
H2305 H 0.93099 0.7094 0.53874 0.0
H2306 H 0.8972 0.70876 0.56197 0.0
H2307 H 0.83751 0.60881 0.53755 0.0
H2308 H 0.88176 0.57527 0.53808 0.0
H2309 H 0.94074 0.65187 0.51676 0.0
C2310 C 0.83854 0.72535 0.50904 0.0
C2311 C 0.80615 0.72387 0.50855 0.0
C2312 C 0.7919 0.69629 0.51726 0.0
C2313 C 0.80931 0.6705 0.52487 0.0
C2314 C 0.84104 0.67252 0.52378 0.0
C2315 C 0.85556 0.69928 0.51622 0.0
C2316 C 0.88991 0.69478 0.5146 0.0
C2317 C 0.90199 0.70199 0.48253 0.0
C2318 C 0.90614 0.71407 0.53889 0.0
C2319 C 0.89246 0.66102 0.52171 0.0
C2320 C 0.86392 0.64889 0.5273 0.0
C2321 C 0.85993 0.61814 0.5334 0.0
C2322 C 0.88551 0.59919 0.53352 0.0
C2323 C 0.91521 0.61064 0.52737 0.0
C2324 C 0.91861 0.64225 0.52174 0.0
H2325 H 0.33385 0.80246 0.57035 0.0
H2326 H 0.27796 0.81686 0.49048 0.0
H2327 H 0.31203 0.85866 0.47414 0.0
H2328 H 0.34867 0.87716 0.58689 0.0
H2329 H 0.38786 0.87269 0.59821 0.0
H2330 H 0.36184 0.84125 0.60177 0.0
H2331 H 0.3969 0.80733 0.56872 0.0
H2332 H 0.42351 0.83843 0.56578 0.0
H2333 H 0.40889 0.82063 0.5318 0.0
H2334 H 0.34693 0.9049 0.47174 0.0
H2335 H 0.38624 0.94508 0.47763 0.0
H2336 H 0.42237 0.89802 0.55641 0.0
C2337 C 0.32976 0.81343 0.54865 0.0
C2338 C 0.30372 0.80588 0.53121 0.0
C2339 C 0.2983 0.82161 0.50361 0.0
C2340 C 0.31732 0.84568 0.49441 0.0
C2341 C 0.34206 0.85346 0.51278 0.0
C2342 C 0.34896 0.8371 0.53879 0.0
C2343 C 0.37641 0.85064 0.55495 0.0
C2344 C 0.36818 0.86105 0.58737 0.0
C2345 C 0.40301 0.82791 0.55532 0.0
C2346 C 0.38328 0.87766 0.53453 0.0
C2347 C 0.36298 0.87915 0.51052 0.0
C2348 C 0.36335 0.90352 0.49006 0.0
C2349 C 0.38551 0.92642 0.49373 0.0
C2350 C 0.40731 0.92456 0.51736 0.0
C2351 C 0.40608 0.89984 0.53798 0.0
H2352 H 0.17931 0.27755 0.52488 0.0
H2353 H 0.26124 0.33044 0.50865 0.0
H2354 H 0.23131 0.37776 0.51444 0.0
H2355 H 0.13092 0.32307 0.48037 0.0
H2356 H 0.09806 0.31936 0.50463 0.0
H2357 H 0.12625 0.28964 0.50371 0.0
H2358 H 0.13328 0.29389 0.56206 0.0
H2359 H 0.10484 0.32344 0.56324 0.0
H2360 H 0.14221 0.33033 0.57875 0.0
H2361 H 0.19209 0.4188 0.51654 0.0
H2362 H 0.14759 0.45177 0.51754 0.0
H2363 H 0.08881 0.37302 0.53024 0.0
C2364 C 0.19117 0.29906 0.52278 0.0
C2365 C 0.2229 0.30006 0.51606 0.0
C2366 C 0.23726 0.32884 0.51411 0.0
C2367 C 0.22031 0.35588 0.5171 0.0
C2368 C 0.18894 0.3539 0.52217 0.0
C2369 C 0.17451 0.32624 0.52529 0.0
C2370 C 0.14022 0.33044 0.52888 0.0
C2371 C 0.12285 0.31469 0.50285 0.0
C2372 C 0.12951 0.31884 0.56009 0.0
C2373 C 0.13747 0.3649 0.52672 0.0
C2374 C 0.16601 0.37778 0.52308 0.0
C2375 C 0.16973 0.40895 0.51972 0.0
C2376 C 0.14391 0.42756 0.5203 0.0
C2377 C 0.11408 0.41536 0.52418 0.0
C2378 C 0.111 0.38333 0.52736 0.0
H2379 H 0.32842 0.21363 0.46769 0.0
H2380 H 0.31129 0.23848 0.56158 0.0
H2381 H 0.35601 0.20793 0.57753 0.0
H2382 H 0.3412 0.13847 0.48223 0.0
H2383 H 0.37001 0.13276 0.4536 0.0
H2384 H 0.34193 0.1621 0.44869 0.0
H2385 H 0.38441 0.20259 0.44279 0.0
H2386 H 0.41264 0.17313 0.44709 0.0
H2387 H 0.41334 0.20596 0.47173 0.0
H2388 H 0.39858 0.16822 0.58364 0.0
H2389 H 0.43457 0.12486 0.57906 0.0
H2390 H 0.41961 0.12252 0.48168 0.0
C2391 C 0.33471 0.21358 0.49153 0.0
C2392 C 0.31638 0.22874 0.51337 0.0
C2393 C 0.32523 0.22769 0.54435 0.0
C2394 C 0.35045 0.21005 0.55362 0.0
C2395 C 0.36662 0.1936 0.53163 0.0
C2396 C 0.35917 0.19552 0.50112 0.0
C2397 C 0.37735 0.17298 0.48226 0.0
C2398 C 0.35636 0.15025 0.46575 0.0
C2399 C 0.39818 0.18967 0.45964 0.0
C2400 C 0.39569 0.15739 0.50691 0.0
C2401 C 0.3897 0.16992 0.53522 0.0
C2402 C 0.4035 0.15853 0.56153 0.0
C2403 C 0.4238 0.13386 0.55878 0.0
C2404 C 0.42963 0.12047 0.53006 0.0
C2405 C 0.41547 0.13247 0.50387 0.0
H2406 H 0.7959 0.3418 0.47364 0.0
H2407 H 0.79979 0.29445 0.55999 0.0
H2408 H 0.83871 0.33092 0.57813 0.0
H2409 H 0.87199 0.35323 0.46567 0.0
H2410 H 0.87043 0.39069 0.449 0.0
H2411 H 0.83881 0.36504 0.4446 0.0
H2412 H 0.8022 0.40471 0.4682 0.0
H2413 H 0.83357 0.43093 0.47191 0.0
H2414 H 0.81103 0.42116 0.50477 0.0
H2415 H 0.88472 0.36601 0.58268 0.0
H2416 H 0.92748 0.4024 0.57665 0.0
H2417 H 0.89232 0.42911 0.48849 0.0
C2418 C 0.80375 0.34014 0.49696 0.0
C2419 C 0.79423 0.3155 0.51562 0.0
C2420 C 0.80595 0.31351 0.5456 0.0
C2421 C 0.82848 0.33392 0.55591 0.0
C2422 C 0.8388 0.35667 0.5362 0.0
C2423 C 0.82612 0.36048 0.50764 0.0
C2424 C 0.8426 0.3854 0.49008 0.0
C2425 C 0.85678 0.37283 0.46061 0.0
C2426 C 0.82107 0.41214 0.48335 0.0
C2427 C 0.86705 0.39445 0.51282 0.0
C2428 C 0.86464 0.37745 0.53922 0.0
C2429 C 0.88633 0.37987 0.56239 0.0
C2430 C 0.91068 0.40042 0.5587 0.0
C2431 C 0.91301 0.41873 0.53229 0.0
C2432 C 0.89078 0.41572 0.50915 0.0
H2433 H 0.17792 0.74398 0.52672 0.0
H2434 H 0.26236 0.69355 0.53488 0.0
H2435 H 0.23409 0.6455 0.52579 0.0
H2436 H 0.13461 0.69415 0.56939 0.0
H2437 H 0.10005 0.69818 0.54768 0.0
H2438 H 0.12719 0.72886 0.54878 0.0
H2439 H 0.13047 0.72876 0.48985 0.0
H2440 H 0.10295 0.69833 0.48849 0.0
H2441 H 0.13934 0.69386 0.47016 0.0
H2442 H 0.19566 0.60285 0.52266 0.0
H2443 H 0.15144 0.56884 0.52343 0.0
H2444 H 0.09094 0.64706 0.52023 0.0
C2445 C 0.19065 0.72288 0.52596 0.0
C2446 C 0.22249 0.72254 0.53163 0.0
C2447 C 0.23817 0.69447 0.53025 0.0
C2448 C 0.22219 0.66707 0.52534 0.0
C2449 C 0.19057 0.66817 0.52166 0.0
C2450 C 0.17501 0.69544 0.52158 0.0
C2451 C 0.14079 0.69039 0.51995 0.0
C2452 C 0.12473 0.70369 0.54812 0.0
C2453 C 0.12762 0.70362 0.49035 0.0
C2454 C 0.13936 0.65591 0.51987 0.0
C2455 C 0.16835 0.6436 0.52052 0.0
C2456 C 0.17294 0.61231 0.52179 0.0
C2457 C 0.14742 0.59313 0.52235 0.0
C2458 C 0.11731 0.60506 0.52188 0.0
C2459 C 0.11344 0.63703 0.52047 0.0
loop_
_geom_bond_atom_site_label_1
_geom_bond_atom_site_label_2
_geom_bond_distance
_geom_bond_site_symmetry_2
_ccdc_geom_bond_type
H0 C3 0.931 . S
H1 C6 0.928 . S
H2 C8 0.931 . S
C3 H0 0.931 . S
C3 C4 1.413 1_655 S
C3 C5 1.360 . S
C4 C3 1.413 1_455 S
C4 C8 1.429 . S
C5 C3 1.360 . S
C5 C6 1.372 . S
C6 H1 0.928 . S
C6 C5 1.372 . S
C6 C7 1.404 . S
C7 C6 1.404 . S
C7 C8 1.390 1_655 S
C8 H2 0.931 . S
C8 C4 1.429 . S
C8 C7 1.390 1_455 S
H9 C12 0.931 . S
H10 C15 0.928 . S
H11 C17 0.930 1_565 S
C12 H9 0.931 . S
C12 C13 1.413 . S
C12 C14 1.360 . S
C13 C12 1.413 . S
C13 C17 1.429 . S
C14 C12 1.360 . S
C14 C15 1.373 . S
C15 H10 0.928 . S
C15 C14 1.373 . S
C15 C16 1.405 . S
C16 C15 1.405 . S
C16 C17 1.390 . S
C17 H11 0.930 1_545 S
C17 C13 1.429 . S
C17 C16 1.390 . S
H18 C21 0.931 . S
H19 C24 0.928 . S
H20 C26 0.930 1_655 S
C21 H18 0.931 . S
C21 C22 1.413 . S
C21 C23 1.360 . S
C22 C21 1.413 . S
C22 C26 1.429 . S
C23 C21 1.360 . S
C23 C24 1.373 . S
C24 H19 0.928 . S
C24 C23 1.373 . S
C24 C25 1.405 . S
C25 C24 1.405 . S
C25 C26 1.390 . S
C26 H20 0.930 1_455 S
C26 C22 1.429 . S
C26 C25 1.390 . S
H27 C30 0.931 . S
H28 C33 0.928 . S
H29 C35 0.930 1_565 S
C30 H27 0.931 . S
C30 C31 1.413 . S
C30 C32 1.360 . S
C31 C30 1.413 . S
C31 C35 1.429 . S
C32 C30 1.360 . S
C32 C33 1.373 . S
C33 H28 0.928 . S
C33 C32 1.373 . S
C33 C34 1.405 . S
C34 C33 1.405 . S
C34 C35 1.390 . S
C35 H29 0.930 1_545 S
C35 C31 1.429 . S
C35 C34 1.390 . S
H36 C39 0.931 . S
H37 C42 0.928 . S
H38 C44 0.931 . S
C39 H36 0.931 . S
C39 C40 1.413 1_655 S
C39 C41 1.360 . S
C40 C39 1.413 1_455 S
C40 C44 1.429 . S
C41 C39 1.360 . S
C41 C42 1.372 . S
C42 H37 0.928 . S
C42 C41 1.372 . S
C42 C43 1.404 . S
C43 C42 1.404 . S
C43 C44 1.390 1_655 S
C44 H38 0.931 . S
C44 C40 1.429 . S
C44 C43 1.390 1_455 S
H45 C48 0.931 . S
H46 C51 0.928 . S
H47 C53 0.931 . S
C48 H45 0.931 . S
C48 C49 1.413 1_565 S
C48 C50 1.360 . S
C49 C48 1.413 1_545 S
C49 C53 1.429 . S
C50 C48 1.360 . S
C50 C51 1.372 . S
C51 H46 0.928 . S
C51 C50 1.372 . S
C51 C52 1.404 . S
C52 C51 1.404 . S
C52 C53 1.390 1_565 S
C53 H47 0.931 . S
C53 C49 1.429 . S
C53 C52 1.390 1_545 S
H54 C57 0.931 . S
H55 C60 0.928 . S
H56 C62 0.931 . S
C57 H54 0.931 . S
C57 C58 1.413 1_655 S
C57 C59 1.360 . S
C58 C57 1.413 1_455 S
C58 C62 1.429 . S
C59 C57 1.360 . S
C59 C60 1.372 . S
C60 H55 0.928 . S
C60 C59 1.372 . S
C60 C61 1.404 . S
C61 C60 1.404 . S
C61 C62 1.390 1_655 S
C62 H56 0.931 . S
C62 C58 1.429 . S
C62 C61 1.390 1_455 S
H63 C66 0.931 . S
H64 C69 0.928 . S
H65 C71 0.931 . S
C66 H63 0.931 . S
C66 C67 1.413 . S
C66 C68 1.360 . S
C67 C66 1.413 . S
C67 C71 1.429 1_565 S
C68 C66 1.360 . S
C68 C69 1.372 . S
C69 H64 0.928 . S
C69 C68 1.372 . S
C69 C70 1.404 . S
C70 C69 1.404 . S
C70 C71 1.390 1_565 S
C71 H65 0.931 . S
C71 C67 1.429 1_545 S
C71 C70 1.390 1_545 S
H72 C75 0.931 . S
H73 C78 0.928 . S
H74 C80 0.930 . S
C75 H72 0.931 . S
C75 C76 1.413 . S
C75 C77 1.360 . S
C76 C75 1.413 . S
C76 C80 1.429 1_556 S
C77 C75 1.360 . S
C77 C78 1.372 . S
C78 H73 0.928 . S
C78 C77 1.372 . S
C78 C79 1.404 . S
C79 C78 1.404 . S
C79 C80 1.390 1_556 S
C80 H74 0.930 . S
C80 C76 1.429 1_554 S
C80 C79 1.390 1_554 S
H81 C84 0.931 . S
H82 C87 0.928 . S
H83 C89 0.930 . S
C84 H81 0.931 . S
C84 C85 1.413 . S
C84 C86 1.360 . S
C85 C84 1.413 . S
C85 C89 1.429 1_556 S
C86 C84 1.360 . S
C86 C87 1.372 . S
C87 H82 0.928 . S
C87 C86 1.372 . S
C87 C88 1.404 . S
C88 C87 1.404 . S
C88 C89 1.390 1_556 S
C89 H83 0.930 . S
C89 C85 1.429 1_554 S
C89 C88 1.390 1_554 S
H90 C93 0.931 . S
H91 C96 0.928 . S
H92 C98 0.930 . S
C93 H90 0.931 . S
C93 C94 1.413 . S
C93 C95 1.360 . S
C94 C93 1.413 . S
C94 C98 1.429 1_556 S
C95 C93 1.360 . S
C95 C96 1.372 . S
C96 H91 0.928 . S
C96 C95 1.372 . S
C96 C97 1.404 . S
C97 C96 1.404 . S
C97 C98 1.390 1_556 S
C98 H92 0.930 . S
C98 C94 1.429 1_554 S
C98 C97 1.390 1_554 S
H99 C102 0.931 . S
H100 C105 0.928 . S
H101 C107 0.930 . S
C102 H99 0.931 . S
C102 C103 1.413 . S
C102 C104 1.360 . S
C103 C102 1.413 . S
C103 C107 1.429 1_554 S
C104 C102 1.360 . S
C104 C105 1.373 . S
C105 H100 0.928 . S
C105 C104 1.373 . S
C105 C106 1.405 . S
C106 C105 1.405 . S
C106 C107 1.390 1_554 S
C107 H101 0.930 . S
C107 C103 1.429 1_556 S
C107 C106 1.390 1_556 S
H108 C111 0.931 . S
H109 C114 0.928 . S
H110 C116 0.930 . S
C111 H108 0.931 . S
C111 C112 1.413 . S
C111 C113 1.360 . S
C112 C111 1.413 . S
C112 C116 1.429 . S
C113 C111 1.360 . S
C113 C114 1.372 . S
C114 H109 0.928 . S
C114 C113 1.372 . S
C114 C115 1.404 . S
C115 C114 1.404 . S
C115 C116 1.391 . S
C116 H110 0.930 . S
C116 C112 1.429 . S
C116 C115 1.391 . S
H117 C120 0.931 . S
H118 C123 0.928 . S
H119 C125 0.930 . S
C120 H117 0.931 . S
C120 C121 1.413 . S
C120 C122 1.360 . S
C121 C120 1.413 . S
C121 C125 1.429 . S
C122 C120 1.360 . S
C122 C123 1.372 . S
C123 H118 0.928 . S
C123 C122 1.372 . S
C123 C124 1.404 . S
C124 C123 1.404 . S
C124 C125 1.391 . S
C125 H119 0.930 . S
C125 C121 1.429 . S
C125 C124 1.391 . S
H126 C129 0.931 . S
H127 C132 0.928 . S
H128 C134 0.930 . S
C129 H126 0.931 . S
C129 C130 1.413 . S
C129 C131 1.360 . S
C130 C129 1.413 . S
C130 C134 1.429 . S
C131 C129 1.360 . S
C131 C132 1.372 . S
C132 H127 0.928 . S
C132 C131 1.372 . S
C132 C133 1.404 . S
C133 C132 1.404 . S
C133 C134 1.391 . S
C134 H128 0.930 . S
C134 C130 1.429 . S
C134 C133 1.391 . S
H135 C138 0.931 . S
H136 C141 0.928 . S
H137 C143 0.930 . S
C138 H135 0.931 . S
C138 C139 1.413 . S
C138 C140 1.360 . S
C139 C138 1.413 . S
C139 C143 1.429 . S
C140 C138 1.360 . S
C140 C141 1.372 . S
C141 H136 0.928 . S
C141 C140 1.372 . S
C141 C142 1.404 . S
C142 C141 1.404 . S
C142 C143 1.391 . S
C143 H137 0.930 . S
C143 C139 1.429 . S
C143 C142 1.391 . S
H144 C147 0.931 . S
H145 C150 0.928 . S
H146 C152 0.930 . S
C147 H144 0.931 . S
C147 C148 1.413 . S
C147 C149 1.360 . S
C148 C147 1.413 . S
C148 C152 1.429 . S
C149 C147 1.360 . S
C149 C150 1.372 . S
C150 H145 0.928 . S
C150 C149 1.372 . S
C150 C151 1.404 . S
C151 C150 1.404 . S
C151 C152 1.391 . S
C152 H146 0.930 . S
C152 C148 1.429 . S
C152 C151 1.391 . S
H153 C156 0.931 . S
H154 C159 0.928 . S
H155 C161 0.930 . S
C156 H153 0.931 . S
C156 C157 1.413 . S
C156 C158 1.360 . S
C157 C156 1.413 . S
C157 C161 1.429 . S
C158 C156 1.360 . S
C158 C159 1.372 . S
C159 H154 0.928 . S
C159 C158 1.372 . S
C159 C160 1.404 . S
C160 C159 1.404 . S
C160 C161 1.391 . S
C161 H155 0.930 . S
C161 C157 1.429 . S
C161 C160 1.391 . S
H162 C165 0.931 . S
H163 C168 0.928 . S
H164 C170 0.930 . S
C165 H162 0.931 . S
C165 C166 1.413 . S
C165 C167 1.360 . S
C166 C165 1.413 . S
C166 C170 1.429 . S
C167 C165 1.360 . S
C167 C168 1.372 . S
C168 H163 0.928 . S
C168 C167 1.372 . S
C168 C169 1.404 . S
C169 C168 1.404 . S
C169 C170 1.391 . S
C170 H164 0.930 . S
C170 C166 1.429 . S
C170 C169 1.391 . S
H171 C174 0.931 . S
H172 C177 0.928 . S
H173 C179 0.930 . S
C174 H171 0.931 . S
C174 C175 1.413 . S
C174 C176 1.360 . S
C175 C174 1.413 . S
C175 C179 1.429 . S
C176 C174 1.360 . S
C176 C177 1.372 . S
C177 H172 0.928 . S
C177 C176 1.372 . S
C177 C178 1.404 . S
C178 C177 1.404 . S
C178 C179 1.391 . S
C179 H173 0.930 . S
C179 C175 1.429 . S
C179 C178 1.391 . S
H180 C183 0.931 . S
H181 C186 0.928 . S
H182 C188 0.930 . S
C183 H180 0.931 . S
C183 C184 1.413 . S
C183 C185 1.360 . S
C184 C183 1.413 . S
C184 C188 1.429 . S
C185 C183 1.360 . S
C185 C186 1.372 . S
C186 H181 0.928 . S
C186 C185 1.372 . S
C186 C187 1.404 . S
C187 C186 1.404 . S
C187 C188 1.391 . S
C188 H182 0.930 . S
C188 C184 1.429 . S
C188 C187 1.391 . S
H189 C192 0.931 . S
H190 C195 0.928 . S
H191 C197 0.930 . S
C192 H189 0.931 . S
C192 C193 1.413 . S
C192 C194 1.360 . S
C193 C192 1.413 . S
C193 C197 1.429 . S
C194 C192 1.360 . S
C194 C195 1.372 . S
C195 H190 0.928 . S
C195 C194 1.372 . S
C195 C196 1.404 . S
C196 C195 1.404 . S
C196 C197 1.391 . S
C197 H191 0.930 . S
C197 C193 1.429 . S
C197 C196 1.391 . S
H198 C201 0.931 . S
H199 C204 0.928 . S
H200 C206 0.930 . S
C201 H198 0.931 . S
C201 C202 1.413 . S
C201 C203 1.360 . S
C202 C201 1.413 . S
C202 C206 1.429 . S
C203 C201 1.360 . S
C203 C204 1.372 . S
C204 H199 0.928 . S
C204 C203 1.372 . S
C204 C205 1.404 . S
C205 C204 1.404 . S
C205 C206 1.391 . S
C206 H200 0.930 . S
C206 C202 1.429 . S
C206 C205 1.391 . S
H207 C210 0.931 . S
H208 C213 0.928 . S
H209 C215 0.930 . S
C210 H207 0.931 . S
C210 C211 1.413 . S
C210 C212 1.360 . S
C211 C210 1.413 . S
C211 C215 1.429 . S
C212 C210 1.360 . S
C212 C213 1.372 . S
C213 H208 0.928 . S
C213 C212 1.372 . S
C213 C214 1.404 . S
C214 C213 1.404 . S
C214 C215 1.391 . S
C215 H209 0.930 . S
C215 C211 1.429 . S
C215 C214 1.391 . S
C216 O242 1.283 . S
C216 O260 1.283 . S
C217 O243 1.283 . S
C217 O258 1.283 . S
C218 O244 1.283 . S
C218 O261 1.283 . S
C219 O245 1.283 . S
C219 O259 1.283 . S
C220 O246 1.283 . S
C220 O255 1.283 . S
C221 O247 1.283 . S
C221 O257 1.283 . S
C222 O248 1.283 . S
C222 O254 1.283 . S
C223 O249 1.283 . S
C223 O256 1.283 . S
C224 O250 1.283 . S
C224 O265 1.283 . S
C225 O251 1.283 . S
C225 O263 1.283 . S
C226 O252 1.283 . S
C226 O264 1.283 . S
C227 O253 1.283 . S
C227 O262 1.283 . S
Eu228 O229 2.362 1_455 S
Eu228 O230 2.378 . S
Eu228 O233 2.362 1_455 S
Eu228 O234 2.378 . S
Eu228 O242 2.363 . S
Eu228 O243 2.363 . S
Eu228 O256 2.377 . S
Eu228 O257 2.349 1_455 S
O229 Eu228 2.362 1_655 S
O229 Eu231 2.366 1_565 S
O229 Eu236 2.357 1_665 S
O230 Eu228 2.378 . S
O230 Eu232 2.366 1_565 S
O230 Eu235 2.374 1_565 S
Eu231 O229 2.366 1_545 S
Eu231 O233 2.366 1_545 S
Eu231 O237 2.374 . S
Eu231 O238 2.374 . S
Eu231 O246 2.370 . S
Eu231 O247 2.356 1_545 S
Eu231 O262 2.363 . S
Eu231 O263 2.363 . S
Eu232 O230 2.366 1_545 S
Eu232 O234 2.366 1_545 S
Eu232 O239 2.374 . S
Eu232 O240 2.374 . S
Eu232 O248 2.370 . S
Eu232 O249 2.356 1_545 S
Eu232 O264 2.363 . S
Eu232 O265 2.363 . S
O233 Eu228 2.362 1_655 S
O233 Eu231 2.366 1_565 S
O233 Eu235 2.357 1_665 S
O234 Eu228 2.378 . S
O234 Eu232 2.366 1_565 S
O234 Eu236 2.374 1_565 S
Eu235 O230 2.374 1_545 S
Eu235 O233 2.357 1_445 S
Eu235 O237 2.366 1_455 S
Eu235 O240 2.383 . S
Eu235 O252 2.377 . S
Eu235 O253 2.349 1_455 S
Eu235 O260 2.356 1_545 S
Eu235 O261 2.370 . S
Eu236 O229 2.357 1_445 S
Eu236 O234 2.374 1_545 S
Eu236 O238 2.366 1_455 S
Eu236 O239 2.383 . S
Eu236 O250 2.377 . S
Eu236 O251 2.349 1_455 S
Eu236 O258 2.356 1_545 S
Eu236 O259 2.370 . S
O237 Eu231 2.374 . S
O237 Eu235 2.366 1_655 S
O237 Eu241 2.362 1_655 S
O238 Eu231 2.374 . S
O238 Eu236 2.366 1_655 S
O238 Eu241 2.362 1_655 S
O239 Eu232 2.374 . S
O239 Eu236 2.383 . S
O239 Eu241 2.378 . S
O240 Eu232 2.374 . S
O240 Eu235 2.383 . S
O240 Eu241 2.378 . S
Eu241 O237 2.362 1_455 S
Eu241 O238 2.362 1_455 S
Eu241 O239 2.378 . S
Eu241 O240 2.378 . S
Eu241 O244 2.363 . S
Eu241 O245 2.363 . S
Eu241 O254 2.377 . S
Eu241 O255 2.349 1_455 S
O242 C216 1.283 . S
O242 Eu228 2.363 . S
O243 C217 1.283 . S
O243 Eu228 2.363 . S
O244 C218 1.283 . S
O244 Eu241 2.363 . S
O245 C219 1.283 . S
O245 Eu241 2.363 . S
O246 C220 1.283 . S
O246 Eu231 2.370 . S
O247 C221 1.283 . S
O247 Eu231 2.356 1_565 S
O248 C222 1.283 . S
O248 Eu232 2.370 . S
O249 C223 1.283 . S
O249 Eu232 2.356 1_565 S
O250 C224 1.283 . S
O250 Eu236 2.377 . S
O251 C225 1.283 . S
O251 Eu236 2.349 1_655 S
O252 C226 1.283 . S
O252 Eu235 2.377 . S
O253 C227 1.283 . S
O253 Eu235 2.349 1_655 S
O254 C222 1.283 . S
O254 Eu241 2.377 . S
O255 C220 1.283 . S
O255 Eu241 2.349 1_655 S
O256 C223 1.283 . S
O256 Eu228 2.377 . S
O257 C221 1.283 . S
O257 Eu228 2.349 1_655 S
O258 C217 1.283 . S
O258 Eu236 2.356 1_565 S
O259 C219 1.283 . S
O259 Eu236 2.370 . S
O260 C216 1.283 . S
O260 Eu235 2.356 1_565 S
O261 C218 1.283 . S
O261 Eu235 2.370 . S
O262 C227 1.283 . S
O262 Eu231 2.363 . S
O263 C225 1.283 . S
O263 Eu231 2.363 . S
O264 C226 1.283 . S
O264 Eu232 2.363 . S
O265 C224 1.283 . S
O265 Eu232 2.363 . S
C266 O292 1.283 . S
C266 O310 1.283 . S
C267 O293 1.283 . S
C267 O308 1.283 . S
C268 O294 1.283 . S
C268 O311 1.283 . S
C269 O295 1.283 . S
C269 O309 1.283 . S
C270 O296 1.283 . S
C270 O305 1.283 . S
C271 O297 1.283 . S
C271 O307 1.283 . S
C272 O298 1.283 . S
C272 O304 1.283 . S
C273 O299 1.283 . S
C273 O306 1.283 . S
C274 O300 1.283 . S
C274 O315 1.283 . S
C275 O301 1.283 . S
C275 O313 1.283 . S
C276 O302 1.283 . S
C276 O314 1.283 . S
C277 O303 1.283 . S
C277 O312 1.283 . S
Eu278 O279 2.371 . S
Eu278 O280 2.369 1_545 S
Eu278 O283 2.369 1_545 S
Eu278 O284 2.371 . S
Eu278 O292 2.361 1_545 S
Eu278 O293 2.365 . S
Eu278 O306 2.363 . S
Eu278 O307 2.363 . S
O279 Eu278 2.371 . S
O279 Eu281 2.374 . S
O279 Eu286 2.373 . S
O280 Eu278 2.369 1_565 S
O280 Eu282 2.372 1_565 S
O280 Eu285 2.373 . S
Eu281 O279 2.374 . S
Eu281 O283 2.372 1_545 S
Eu281 O287 2.366 1_544 S
Eu281 O288 2.369 1_554 S
Eu281 O296 2.359 1_554 S
Eu281 O297 2.367 . S
Eu281 O312 2.361 1_545 S
Eu281 O313 2.365 . S
Eu282 O280 2.372 1_545 S
Eu282 O284 2.374 . S
Eu282 O289 2.369 1_554 S
Eu282 O290 2.366 1_544 S
Eu282 O298 2.359 1_554 S
Eu282 O299 2.367 . S
Eu282 O314 2.361 1_545 S
Eu282 O315 2.365 . S
O283 Eu278 2.369 1_565 S
O283 Eu281 2.372 1_565 S
O283 Eu285 2.373 . S
O284 Eu278 2.371 . S
O284 Eu282 2.374 . S
O284 Eu286 2.373 . S
Eu285 O280 2.373 . S
Eu285 O283 2.373 . S
Eu285 O287 2.367 1_554 S
Eu285 O290 2.367 1_554 S
Eu285 O302 2.363 . S
Eu285 O303 2.363 . S
Eu285 O310 2.367 . S
Eu285 O311 2.359 1_554 S
Eu286 O279 2.373 . S
Eu286 O284 2.373 . S
Eu286 O288 2.368 1_554 S
Eu286 O289 2.368 1_554 S
Eu286 O300 2.363 . S
Eu286 O301 2.363 . S
Eu286 O308 2.367 . S
Eu286 O309 2.359 1_554 S
O287 Eu281 2.366 1_566 S
O287 Eu285 2.367 1_556 S
O287 Eu291 2.369 1_565 S
O288 Eu281 2.369 1_556 S
O288 Eu286 2.368 1_556 S
O288 Eu291 2.371 . S
O289 Eu282 2.369 1_556 S
O289 Eu286 2.368 1_556 S
O289 Eu291 2.371 . S
O290 Eu282 2.366 1_566 S
O290 Eu285 2.367 1_556 S
O290 Eu291 2.369 1_565 S
Eu291 O287 2.369 1_545 S
Eu291 O288 2.371 . S
Eu291 O289 2.371 . S
Eu291 O290 2.369 1_545 S
Eu291 O294 2.361 1_545 S
Eu291 O295 2.365 . S
Eu291 O304 2.363 . S
Eu291 O305 2.363 . S
O292 C266 1.283 . S
O292 Eu278 2.361 1_565 S
O293 C267 1.283 . S
O293 Eu278 2.365 . S
O294 C268 1.283 . S
O294 Eu291 2.361 1_565 S
O295 C269 1.283 . S
O295 Eu291 2.365 . S
O296 C270 1.283 . S
O296 Eu281 2.359 1_556 S
O297 C271 1.283 . S
O297 Eu281 2.367 . S
O298 C272 1.283 . S
O298 Eu282 2.359 1_556 S
O299 C273 1.283 . S
O299 Eu282 2.367 . S
O300 C274 1.283 . S
O300 Eu286 2.363 . S
O301 C275 1.283 . S
O301 Eu286 2.363 . S
O302 C276 1.283 . S
O302 Eu285 2.363 . S
O303 C277 1.283 . S
O303 Eu285 2.363 . S
O304 C272 1.283 . S
O304 Eu291 2.363 . S
O305 C270 1.283 . S
O305 Eu291 2.363 . S
O306 C273 1.283 . S
O306 Eu278 2.363 . S
O307 C271 1.283 . S
O307 Eu278 2.363 . S
O308 C267 1.283 . S
O308 Eu286 2.367 . S
O309 C269 1.283 . S
O309 Eu286 2.359 1_556 S
O310 C266 1.283 . S
O310 Eu285 2.367 . S
O311 C268 1.283 . S
O311 Eu285 2.359 1_556 S
O312 C277 1.283 . S
O312 Eu281 2.361 1_565 S
O313 C275 1.283 . S
O313 Eu281 2.365 . S
O314 C276 1.283 . S
O314 Eu282 2.361 1_565 S
O315 C274 1.283 . S
O315 Eu282 2.365 . S
C316 O342 1.283 . S
C316 O360 1.283 . S
C317 O343 1.283 . S
C317 O358 1.283 . S
C318 O344 1.283 . S
C318 O361 1.283 . S
C319 O345 1.283 . S
C319 O359 1.283 . S
C320 O346 1.283 . S
C320 O355 1.283 . S
C321 O347 1.283 . S
C321 O357 1.283 . S
C322 O348 1.283 . S
C322 O354 1.283 . S
C323 O349 1.283 . S
C323 O356 1.283 . S
C324 O350 1.283 . S
C324 O365 1.283 . S
C325 O351 1.283 . S
C325 O363 1.283 . S
C326 O352 1.283 . S
C326 O364 1.283 . S
C327 O353 1.283 . S
C327 O362 1.283 . S
Eu328 O329 2.368 1_454 S
Eu328 O330 2.372 . S
Eu328 O333 2.368 1_455 S
Eu328 O334 2.372 1_554 S
Eu328 O342 2.363 . S
Eu328 O343 2.363 1_554 S
Eu328 O356 2.366 . S
Eu328 O357 2.360 1_455 S
O329 Eu328 2.368 1_656 S
O329 Eu331 2.370 1_556 S
O329 Eu336 2.368 1_655 S
O330 Eu328 2.372 . S
O330 Eu332 2.370 . S
O330 Eu335 2.372 . S
Eu331 O329 2.370 1_554 S
Eu331 O333 2.370 . S
Eu331 O337 2.370 . S
Eu331 O338 2.370 1_554 S
Eu331 O346 2.363 . S
Eu331 O347 2.363 . S
Eu331 O362 2.363 . S
Eu331 O363 2.363 1_554 S
Eu332 O330 2.370 . S
Eu332 O334 2.370 1_554 S
Eu332 O339 2.370 1_554 S
Eu332 O340 2.370 . S
Eu332 O348 2.363 . S
Eu332 O349 2.363 . S
Eu332 O364 2.363 . S
Eu332 O365 2.363 1_554 S
O333 Eu328 2.368 1_655 S
O333 Eu331 2.370 . S
O333 Eu335 2.368 1_655 S
O334 Eu328 2.372 1_556 S
O334 Eu332 2.370 1_556 S
O334 Eu336 2.372 . S
Eu335 O330 2.372 . S
Eu335 O333 2.368 1_455 S
Eu335 O337 2.368 1_455 S
Eu335 O340 2.372 . S
Eu335 O352 2.366 . S
Eu335 O353 2.360 1_455 S
Eu335 O360 2.363 . S
Eu335 O361 2.363 . S
Eu336 O329 2.368 1_455 S
Eu336 O334 2.372 . S
Eu336 O338 2.368 1_455 S
Eu336 O339 2.372 . S
Eu336 O350 2.366 . S
Eu336 O351 2.360 1_455 S
Eu336 O358 2.363 . S
Eu336 O359 2.363 . S
O337 Eu331 2.370 . S
O337 Eu335 2.368 1_655 S
O337 Eu341 2.368 1_655 S
O338 Eu331 2.370 1_556 S
O338 Eu336 2.368 1_655 S
O338 Eu341 2.368 1_656 S
O339 Eu332 2.370 1_556 S
O339 Eu336 2.372 . S
O339 Eu341 2.372 1_556 S
O340 Eu332 2.370 . S
O340 Eu335 2.372 . S
O340 Eu341 2.372 . S
Eu341 O337 2.368 1_455 S
Eu341 O338 2.368 1_454 S
Eu341 O339 2.372 1_554 S
Eu341 O340 2.372 . S
Eu341 O344 2.363 . S
Eu341 O345 2.363 1_554 S
Eu341 O354 2.366 . S
Eu341 O355 2.360 1_455 S
O342 C316 1.283 . S
O342 Eu328 2.363 . S
O343 C317 1.283 . S
O343 Eu328 2.363 1_556 S
O344 C318 1.283 . S
O344 Eu341 2.363 . S
O345 C319 1.283 . S
O345 Eu341 2.363 1_556 S
O346 C320 1.283 . S
O346 Eu331 2.363 . S
O347 C321 1.283 . S
O347 Eu331 2.363 . S
O348 C322 1.283 . S
O348 Eu332 2.363 . S
O349 C323 1.283 . S
O349 Eu332 2.363 . S
O350 C324 1.283 . S
O350 Eu336 2.366 . S
O351 C325 1.283 . S
O351 Eu336 2.360 1_655 S
O352 C326 1.283 . S
O352 Eu335 2.366 . S
O353 C327 1.283 . S
O353 Eu335 2.360 1_655 S
O354 C322 1.283 . S
O354 Eu341 2.366 . S
O355 C320 1.283 . S
O355 Eu341 2.360 1_655 S
O356 C323 1.283 . S
O356 Eu328 2.366 . S
O357 C321 1.283 . S
O357 Eu328 2.360 1_655 S
O358 C317 1.283 . S
O358 Eu336 2.363 . S
O359 C319 1.283 . S
O359 Eu336 2.363 . S
O360 C316 1.283 . S
O360 Eu335 2.363 . S
O361 C318 1.283 . S
O361 Eu335 2.363 . S
O362 C327 1.283 . S
O362 Eu331 2.363 . S
O363 C325 1.283 . S
O363 Eu331 2.363 1_556 S
O364 C326 1.283 . S
O364 Eu332 2.363 . S
O365 C324 1.283 . S
O365 Eu332 2.363 1_556 S
C366 O392 1.283 . S
C366 O410 1.283 . S
C367 O393 1.283 . S
C367 O408 1.283 . S
C368 O394 1.283 . S
C368 O411 1.283 . S
C369 O395 1.283 . S
C369 O409 1.283 . S
C370 O396 1.283 . S
C370 O405 1.283 . S
C371 O397 1.283 . S
C371 O407 1.283 . S
C372 O398 1.283 . S
C372 O404 1.283 . S
C373 O399 1.283 . S
C373 O406 1.283 . S
C374 O400 1.283 . S
C374 O415 1.283 . S
C375 O401 1.283 . S
C375 O413 1.283 . S
C376 O402 1.283 . S
C376 O414 1.283 . S
C377 O403 1.283 . S
C377 O412 1.283 . S
Eu378 O379 2.370 . S
Eu378 O380 2.370 . S
Eu378 O383 2.370 . S
Eu378 O384 2.370 . S
Eu378 O392 2.363 . S
Eu378 O393 2.363 . S
Eu378 O406 2.363 . S
Eu378 O407 2.363 . S
O379 Eu378 2.370 . S
O379 Eu381 2.373 . S
O379 Eu386 2.373 . S
O380 Eu378 2.370 . S
O380 Eu382 2.373 . S
O380 Eu385 2.373 . S
Eu381 O379 2.373 . S
Eu381 O383 2.373 . S
Eu381 O387 2.367 1_554 S
Eu381 O388 2.367 1_554 S
Eu381 O396 2.358 1_554 S
Eu381 O397 2.368 . S
Eu381 O412 2.363 . S
Eu381 O413 2.363 . S
Eu382 O380 2.373 . S
Eu382 O384 2.373 . S
Eu382 O389 2.367 1_554 S
Eu382 O390 2.367 1_554 S
Eu382 O398 2.358 1_554 S
Eu382 O399 2.368 . S
Eu382 O414 2.363 . S
Eu382 O415 2.363 . S
O383 Eu378 2.370 . S
O383 Eu381 2.373 . S
O383 Eu385 2.373 . S
O384 Eu378 2.370 . S
O384 Eu382 2.373 . S
O384 Eu386 2.373 . S
Eu385 O380 2.373 . S
Eu385 O383 2.373 . S
Eu385 O387 2.367 1_554 S
Eu385 O390 2.367 1_554 S
Eu385 O402 2.363 . S
Eu385 O403 2.363 . S
Eu385 O410 2.368 . S
Eu385 O411 2.358 1_554 S
Eu386 O379 2.373 . S
Eu386 O384 2.373 . S
Eu386 O388 2.367 1_554 S
Eu386 O389 2.367 1_554 S
Eu386 O400 2.363 . S
Eu386 O401 2.363 . S
Eu386 O408 2.368 . S
Eu386 O409 2.358 1_554 S
O387 Eu381 2.367 1_556 S
O387 Eu385 2.367 1_556 S
O387 Eu391 2.370 . S
O388 Eu381 2.367 1_556 S
O388 Eu386 2.367 1_556 S
O388 Eu391 2.370 . S
O389 Eu382 2.367 1_556 S
O389 Eu386 2.367 1_556 S
O389 Eu391 2.370 . S
O390 Eu382 2.367 1_556 S
O390 Eu385 2.367 1_556 S
O390 Eu391 2.370 . S
Eu391 O387 2.370 . S
Eu391 O388 2.370 . S
Eu391 O389 2.370 . S
Eu391 O390 2.370 . S
Eu391 O394 2.363 . S
Eu391 O395 2.363 . S
Eu391 O404 2.363 . S
Eu391 O405 2.363 . S
O392 C366 1.283 . S
O392 Eu378 2.363 . S
O393 C367 1.283 . S
O393 Eu378 2.363 . S
O394 C368 1.283 . S
O394 Eu391 2.363 . S
O395 C369 1.283 . S
O395 Eu391 2.363 . S
O396 C370 1.283 . S
O396 Eu381 2.358 1_556 S
O397 C371 1.283 . S
O397 Eu381 2.368 . S
O398 C372 1.283 . S
O398 Eu382 2.358 1_556 S
O399 C373 1.283 . S
O399 Eu382 2.368 . S
O400 C374 1.283 . S
O400 Eu386 2.363 . S
O401 C375 1.283 . S
O401 Eu386 2.363 . S
O402 C376 1.283 . S
O402 Eu385 2.363 . S
O403 C377 1.283 . S
O403 Eu385 2.363 . S
O404 C372 1.283 . S
O404 Eu391 2.363 . S
O405 C370 1.283 . S
O405 Eu391 2.363 . S
O406 C373 1.283 . S
O406 Eu378 2.363 . S
O407 C371 1.283 . S
O407 Eu378 2.363 . S
O408 C367 1.283 . S
O408 Eu386 2.368 . S
O409 C369 1.283 . S
O409 Eu386 2.358 1_556 S
O410 C366 1.283 . S
O410 Eu385 2.368 . S
O411 C368 1.283 . S
O411 Eu385 2.358 1_556 S
O412 C377 1.283 . S
O412 Eu381 2.363 . S
O413 C375 1.283 . S
O413 Eu381 2.363 . S
O414 C376 1.283 . S
O414 Eu382 2.363 . S
O415 C374 1.283 . S
O415 Eu382 2.363 . S
C416 O442 1.283 . S
C416 O460 1.283 . S
C417 O443 1.283 . S
C417 O458 1.283 . S
C418 O444 1.283 . S
C418 O461 1.283 . S
C419 O445 1.283 . S
C419 O459 1.283 . S
C420 O446 1.283 . S
C420 O455 1.283 . S
C421 O447 1.283 . S
C421 O457 1.283 . S
C422 O448 1.283 . S
C422 O454 1.283 . S
C423 O449 1.283 . S
C423 O456 1.283 . S
C424 O450 1.283 . S
C424 O465 1.283 . S
C425 O451 1.283 . S
C425 O463 1.283 . S
C426 O452 1.283 . S
C426 O464 1.283 . S
C427 O453 1.283 . S
C427 O462 1.283 . S
Eu428 O429 2.365 1_455 S
Eu428 O430 2.375 . S
Eu428 O433 2.365 1_455 S
Eu428 O434 2.375 . S
Eu428 O442 2.363 . S
Eu428 O443 2.363 . S
Eu428 O456 2.371 . S
Eu428 O457 2.354 1_455 S
O429 Eu428 2.365 1_655 S
O429 Eu431 2.370 . S
O429 Eu436 2.365 1_655 S
O430 Eu428 2.375 . S
O430 Eu432 2.370 . S
O430 Eu435 2.375 . S
Eu431 O429 2.370 . S
Eu431 O433 2.370 . S
Eu431 O437 2.370 . S
Eu431 O438 2.370 . S
Eu431 O446 2.363 . S
Eu431 O447 2.363 . S
Eu431 O462 2.363 . S
Eu431 O463 2.363 . S
Eu432 O430 2.370 . S
Eu432 O434 2.370 . S
Eu432 O439 2.370 . S
Eu432 O440 2.370 . S
Eu432 O448 2.363 . S
Eu432 O449 2.363 . S
Eu432 O464 2.363 . S
Eu432 O465 2.363 . S
O433 Eu428 2.365 1_655 S
O433 Eu431 2.370 . S
O433 Eu435 2.365 1_655 S
O434 Eu428 2.375 . S
O434 Eu432 2.370 . S
O434 Eu436 2.375 . S
Eu435 O430 2.375 . S
Eu435 O433 2.365 1_455 S
Eu435 O437 2.365 1_455 S
Eu435 O440 2.375 . S
Eu435 O452 2.371 . S
Eu435 O453 2.354 1_455 S
Eu435 O460 2.363 . S
Eu435 O461 2.363 . S
Eu436 O429 2.365 1_455 S
Eu436 O434 2.375 . S
Eu436 O438 2.365 1_455 S
Eu436 O439 2.375 . S
Eu436 O450 2.371 . S
Eu436 O451 2.354 1_455 S
Eu436 O458 2.363 . S
Eu436 O459 2.363 . S
O437 Eu431 2.370 . S
O437 Eu435 2.365 1_655 S
O437 Eu441 2.365 1_655 S
O438 Eu431 2.370 . S
O438 Eu436 2.365 1_655 S
O438 Eu441 2.365 1_655 S
O439 Eu432 2.370 . S
O439 Eu436 2.375 . S
O439 Eu441 2.375 . S
O440 Eu432 2.370 . S
O440 Eu435 2.375 . S
O440 Eu441 2.375 . S
Eu441 O437 2.365 1_455 S
Eu441 O438 2.365 1_455 S
Eu441 O439 2.375 . S
Eu441 O440 2.375 . S
Eu441 O444 2.363 . S
Eu441 O445 2.363 . S
Eu441 O454 2.371 . S
Eu441 O455 2.354 1_455 S
O442 C416 1.283 . S
O442 Eu428 2.363 . S
O443 C417 1.283 . S
O443 Eu428 2.363 . S
O444 C418 1.283 . S
O444 Eu441 2.363 . S
O445 C419 1.283 . S
O445 Eu441 2.363 . S
O446 C420 1.283 . S
O446 Eu431 2.363 . S
O447 C421 1.283 . S
O447 Eu431 2.363 . S
O448 C422 1.283 . S
O448 Eu432 2.363 . S
O449 C423 1.283 . S
O449 Eu432 2.363 . S
O450 C424 1.283 . S
O450 Eu436 2.371 . S
O451 C425 1.283 . S
O451 Eu436 2.354 1_655 S
O452 C426 1.283 . S
O452 Eu435 2.371 . S
O453 C427 1.283 . S
O453 Eu435 2.354 1_655 S
O454 C422 1.283 . S
O454 Eu441 2.371 . S
O455 C420 1.283 . S
O455 Eu441 2.354 1_655 S
O456 C423 1.283 . S
O456 Eu428 2.371 . S
O457 C421 1.283 . S
O457 Eu428 2.354 1_655 S
O458 C417 1.283 . S
O458 Eu436 2.363 . S
O459 C419 1.283 . S
O459 Eu436 2.363 . S
O460 C416 1.283 . S
O460 Eu435 2.363 . S
O461 C418 1.283 . S
O461 Eu435 2.363 . S
O462 C427 1.283 . S
O462 Eu431 2.363 . S
O463 C425 1.283 . S
O463 Eu431 2.363 . S
O464 C426 1.283 . S
O464 Eu432 2.363 . S
O465 C424 1.283 . S
O465 Eu432 2.363 . S
C466 O492 1.283 . S
C466 O510 1.283 . S
C467 O493 1.283 . S
C467 O508 1.283 . S
C468 O494 1.283 . S
C468 O511 1.283 . S
C469 O495 1.283 . S
C469 O509 1.283 . S
C470 O496 1.283 . S
C470 O505 1.283 . S
C471 O497 1.283 . S
C471 O507 1.283 . S
C472 O498 1.283 . S
C472 O504 1.283 . S
C473 O499 1.283 . S
C473 O506 1.283 . S
C474 O500 1.283 . S
C474 O515 1.283 . S
C475 O501 1.283 . S
C475 O513 1.283 . S
C476 O502 1.283 . S
C476 O514 1.283 . S
C477 O503 1.283 . S
C477 O512 1.283 . S
Eu478 O479 2.370 . S
Eu478 O480 2.370 . S
Eu478 O483 2.370 . S
Eu478 O484 2.370 . S
Eu478 O492 2.363 . S
Eu478 O493 2.363 . S
Eu478 O506 2.363 . S
Eu478 O507 2.363 . S
O479 Eu478 2.370 . S
O479 Eu481 2.365 1_565 S
O479 Eu486 2.365 1_565 S
O480 Eu478 2.370 . S
O480 Eu482 2.365 1_565 S
O480 Eu485 2.365 1_565 S
Eu481 O479 2.365 1_545 S
Eu481 O483 2.365 1_545 S
Eu481 O487 2.375 . S
Eu481 O488 2.375 . S
Eu481 O496 2.371 . S
Eu481 O497 2.355 1_545 S
Eu481 O512 2.363 . S
Eu481 O513 2.363 . S
Eu482 O480 2.365 1_545 S
Eu482 O484 2.365 1_545 S
Eu482 O489 2.375 . S
Eu482 O490 2.375 . S
Eu482 O498 2.371 . S
Eu482 O499 2.355 1_545 S
Eu482 O514 2.363 . S
Eu482 O515 2.363 . S
O483 Eu478 2.370 . S
O483 Eu481 2.365 1_565 S
O483 Eu485 2.365 1_565 S
O484 Eu478 2.370 . S
O484 Eu482 2.365 1_565 S
O484 Eu486 2.365 1_565 S
Eu485 O480 2.365 1_545 S
Eu485 O483 2.365 1_545 S
Eu485 O487 2.375 . S
Eu485 O490 2.375 . S
Eu485 O502 2.363 . S
Eu485 O503 2.363 . S
Eu485 O510 2.355 1_545 S
Eu485 O511 2.371 . S
Eu486 O479 2.365 1_545 S
Eu486 O484 2.365 1_545 S
Eu486 O488 2.375 . S
Eu486 O489 2.375 . S
Eu486 O500 2.363 . S
Eu486 O501 2.363 . S
Eu486 O508 2.355 1_545 S
Eu486 O509 2.371 . S
O487 Eu481 2.375 . S
O487 Eu485 2.375 . S
O487 Eu491 2.370 . S
O488 Eu481 2.375 . S
O488 Eu486 2.375 . S
O488 Eu491 2.370 . S
O489 Eu482 2.375 . S
O489 Eu486 2.375 . S
O489 Eu491 2.370 . S
O490 Eu482 2.375 . S
O490 Eu485 2.375 . S
O490 Eu491 2.370 . S
Eu491 O487 2.370 . S
Eu491 O488 2.370 . S
Eu491 O489 2.370 . S
Eu491 O490 2.370 . S
Eu491 O494 2.363 . S
Eu491 O495 2.363 . S
Eu491 O504 2.363 . S
Eu491 O505 2.363 . S
O492 C466 1.283 . S
O492 Eu478 2.363 . S
O493 C467 1.283 . S
O493 Eu478 2.363 . S
O494 C468 1.283 . S
O494 Eu491 2.363 . S
O495 C469 1.283 . S
O495 Eu491 2.363 . S
O496 C470 1.283 . S
O496 Eu481 2.371 . S
O497 C471 1.283 . S
O497 Eu481 2.355 1_565 S
O498 C472 1.283 . S
O498 Eu482 2.371 . S
O499 C473 1.283 . S
O499 Eu482 2.355 1_565 S
O500 C474 1.283 . S
O500 Eu486 2.363 . S
O501 C475 1.283 . S
O501 Eu486 2.363 . S
O502 C476 1.283 . S
O502 Eu485 2.363 . S
O503 C477 1.283 . S
O503 Eu485 2.363 . S
O504 C472 1.283 . S
O504 Eu491 2.363 . S
O505 C470 1.283 . S
O505 Eu491 2.363 . S
O506 C473 1.283 . S
O506 Eu478 2.363 . S
O507 C471 1.283 . S
O507 Eu478 2.363 . S
O508 C467 1.283 . S
O508 Eu486 2.355 1_565 S
O509 C469 1.283 . S
O509 Eu486 2.371 . S
O510 C466 1.283 . S
O510 Eu485 2.355 1_565 S
O511 C468 1.283 . S
O511 Eu485 2.371 . S
O512 C477 1.283 . S
O512 Eu481 2.363 . S
O513 C475 1.283 . S
O513 Eu481 2.363 . S
O514 C476 1.283 . S
O514 Eu482 2.363 . S
O515 C474 1.283 . S
O515 Eu482 2.363 . S
H516 C528 0.930 . S
H517 C530 0.930 . S
H518 C531 0.930 . S
H519 C535 0.959 . S
H520 C535 0.959 . S
H521 C535 0.961 . S
H522 C536 0.960 . S
H523 C536 0.961 . S
H524 C536 0.959 . S
H525 C539 0.929 . S
H526 C540 0.931 . S
H527 C542 0.930 . S
C528 H516 0.930 . S
C528 C529 1.399 . S
C528 C533 1.399 . S
C529 C528 1.399 . S
C529 C530 1.376 . S
C530 H517 0.930 . S
C530 C529 1.376 . S
C530 C531 1.388 . S
C531 H518 0.930 . S
C531 C530 1.388 . S
C531 C532 1.390 . S
C532 C531 1.390 . S
C532 C533 1.394 . S
C532 C538 1.465 . S
C533 C528 1.399 . S
C533 C532 1.394 . S
C533 C534 1.516 . S
C534 C533 1.516 . S
C534 C535 1.502 . S
C534 C536 1.561 . S
C534 C537 1.526 . S
C535 H519 0.959 . S
C535 H520 0.959 . S
C535 H521 0.961 . S
C535 C534 1.502 . S
C536 H522 0.960 . S
C536 H523 0.961 . S
C536 H524 0.959 . S
C536 C534 1.561 . S
C537 C534 1.526 . S
C537 C538 1.396 . S
C537 C542 1.390 . S
C538 C532 1.465 . S
C538 C537 1.396 . S
C538 C539 1.399 . S
C539 H525 0.929 . S
C539 C538 1.399 . S
C539 C540 1.385 . S
C540 H526 0.931 . S
C540 C539 1.385 . S
C540 C541 1.389 . S
C541 C540 1.389 . S
C541 C542 1.387 . S
C542 H527 0.930 . S
C542 C537 1.390 . S
C542 C541 1.387 . S
H543 C555 0.930 . S
H544 C557 0.930 . S
H545 C558 0.930 . S
H546 C562 0.959 . S
H547 C562 0.959 . S
H548 C562 0.961 . S
H549 C563 0.960 . S
H550 C563 0.961 . S
H551 C563 0.959 . S
H552 C566 0.929 . S
H553 C567 0.931 . S
H554 C569 0.930 . S
C555 H543 0.930 . S
C555 C556 1.399 . S
C555 C560 1.399 . S
C556 C555 1.399 . S
C556 C557 1.376 . S
C557 H544 0.930 . S
C557 C556 1.376 . S
C557 C558 1.388 . S
C558 H545 0.930 . S
C558 C557 1.388 . S
C558 C559 1.390 . S
C559 C558 1.390 . S
C559 C560 1.394 . S
C559 C565 1.465 . S
C560 C555 1.399 . S
C560 C559 1.394 . S
C560 C561 1.516 . S
C561 C560 1.516 . S
C561 C562 1.502 . S
C561 C563 1.561 . S
C561 C564 1.526 . S
C562 H546 0.959 . S
C562 H547 0.959 . S
C562 H548 0.961 . S
C562 C561 1.502 . S
C563 H549 0.960 . S
C563 H550 0.961 . S
C563 H551 0.959 . S
C563 C561 1.561 . S
C564 C561 1.526 . S
C564 C565 1.396 . S
C564 C569 1.390 . S
C565 C559 1.465 . S
C565 C564 1.396 . S
C565 C566 1.399 . S
C566 H552 0.929 . S
C566 C565 1.399 . S
C566 C567 1.385 . S
C567 H553 0.931 . S
C567 C566 1.385 . S
C567 C568 1.389 . S
C568 C567 1.389 . S
C568 C569 1.387 . S
C569 H554 0.930 . S
C569 C564 1.390 . S
C569 C568 1.387 . S
H570 C582 0.930 . S
H571 C584 0.930 . S
H572 C585 0.930 . S
H573 C589 0.959 . S
H574 C589 0.959 . S
H575 C589 0.961 . S
H576 C590 0.960 . S
H577 C590 0.961 . S
H578 C590 0.959 . S
H579 C593 0.929 . S
H580 C594 0.931 . S
H581 C596 0.930 . S
C582 H570 0.930 . S
C582 C583 1.399 . S
C582 C587 1.399 . S
C583 C582 1.399 . S
C583 C584 1.376 . S
C584 H571 0.930 . S
C584 C583 1.376 . S
C584 C585 1.388 . S
C585 H572 0.930 . S
C585 C584 1.388 . S
C585 C586 1.390 . S
C586 C585 1.390 . S
C586 C587 1.394 . S
C586 C592 1.465 . S
C587 C582 1.399 . S
C587 C586 1.394 . S
C587 C588 1.516 . S
C588 C587 1.516 . S
C588 C589 1.502 . S
C588 C590 1.561 . S
C588 C591 1.526 . S
C589 H573 0.959 . S
C589 H574 0.959 . S
C589 H575 0.961 . S
C589 C588 1.502 . S
C590 H576 0.960 . S
C590 H577 0.961 . S
C590 H578 0.959 . S
C590 C588 1.561 . S
C591 C588 1.526 . S
C591 C592 1.396 . S
C591 C596 1.390 . S
C592 C586 1.465 . S
C592 C591 1.396 . S
C592 C593 1.399 . S
C593 H579 0.929 . S
C593 C592 1.399 . S
C593 C594 1.385 . S
C594 H580 0.931 . S
C594 C593 1.385 . S
C594 C595 1.389 . S
C595 C594 1.389 . S
C595 C596 1.387 . S
C596 H581 0.930 . S
C596 C591 1.390 . S
C596 C595 1.387 . S
H597 C609 0.930 . S
H598 C611 0.930 . S
H599 C612 0.930 . S
H600 C616 0.959 . S
H601 C616 0.959 . S
H602 C616 0.961 . S
H603 C617 0.960 . S
H604 C617 0.961 . S
H605 C617 0.959 . S
H606 C620 0.929 . S
H607 C621 0.931 . S
H608 C623 0.930 . S
C609 H597 0.930 . S
C609 C610 1.399 . S
C609 C614 1.399 . S
C610 C609 1.399 . S
C610 C611 1.376 . S
C611 H598 0.930 . S
C611 C610 1.376 . S
C611 C612 1.388 . S
C612 H599 0.930 . S
C612 C611 1.388 . S
C612 C613 1.390 . S
C613 C612 1.390 . S
C613 C614 1.394 . S
C613 C619 1.465 . S
C614 C609 1.399 . S
C614 C613 1.394 . S
C614 C615 1.516 . S
C615 C614 1.516 . S
C615 C616 1.502 . S
C615 C617 1.561 . S
C615 C618 1.526 . S
C616 H600 0.959 . S
C616 H601 0.959 . S
C616 H602 0.961 . S
C616 C615 1.502 . S
C617 H603 0.960 . S
C617 H604 0.961 . S
C617 H605 0.959 . S
C617 C615 1.561 . S
C618 C615 1.526 . S
C618 C619 1.396 . S
C618 C623 1.390 . S
C619 C613 1.465 . S
C619 C618 1.396 . S
C619 C620 1.399 . S
C620 H606 0.929 . S
C620 C619 1.399 . S
C620 C621 1.385 . S
C621 H607 0.931 . S
C621 C620 1.385 . S
C621 C622 1.389 . S
C622 C621 1.389 . S
C622 C623 1.387 . S
C623 H608 0.930 . S
C623 C618 1.390 . S
C623 C622 1.387 . S
H624 C636 0.930 . S
H625 C638 0.930 . S
H626 C639 0.930 . S
H627 C643 0.959 . S
H628 C643 0.959 . S
H629 C643 0.961 . S
H630 C644 0.960 . S
H631 C644 0.961 . S
H632 C644 0.959 . S
H633 C647 0.929 . S
H634 C648 0.931 . S
H635 C650 0.930 . S
C636 H624 0.930 . S
C636 C637 1.399 . S
C636 C641 1.399 . S
C637 C636 1.399 . S
C637 C638 1.376 . S
C638 H625 0.930 . S
C638 C637 1.376 . S
C638 C639 1.388 . S
C639 H626 0.930 . S
C639 C638 1.388 . S
C639 C640 1.390 . S
C640 C639 1.390 . S
C640 C641 1.394 . S
C640 C646 1.465 . S
C641 C636 1.399 . S
C641 C640 1.394 . S
C641 C642 1.516 . S
C642 C641 1.516 . S
C642 C643 1.502 . S
C642 C644 1.561 . S
C642 C645 1.526 . S
C643 H627 0.959 . S
C643 H628 0.959 . S
C643 H629 0.961 . S
C643 C642 1.502 . S
C644 H630 0.960 . S
C644 H631 0.961 . S
C644 H632 0.959 . S
C644 C642 1.561 . S
C645 C642 1.526 . S
C645 C646 1.396 . S
C645 C650 1.390 . S
C646 C640 1.465 . S
C646 C645 1.396 . S
C646 C647 1.399 . S
C647 H633 0.929 . S
C647 C646 1.399 . S
C647 C648 1.385 . S
C648 H634 0.931 . S
C648 C647 1.385 . S
C648 C649 1.389 . S
C649 C648 1.389 . S
C649 C650 1.387 . S
C650 H635 0.930 . S
C650 C645 1.390 . S
C650 C649 1.387 . S
H651 C663 0.930 . S
H652 C665 0.930 . S
H653 C666 0.930 . S
H654 C670 0.959 . S
H655 C670 0.959 . S
H656 C670 0.961 . S
H657 C671 0.960 . S
H658 C671 0.961 . S
H659 C671 0.959 . S
H660 C674 0.929 . S
H661 C675 0.931 . S
H662 C677 0.930 . S
C663 H651 0.930 . S
C663 C664 1.399 . S
C663 C668 1.399 . S
C664 C663 1.399 . S
C664 C665 1.376 . S
C665 H652 0.930 . S
C665 C664 1.376 . S
C665 C666 1.388 . S
C666 H653 0.930 . S
C666 C665 1.388 . S
C666 C667 1.390 . S
C667 C666 1.390 . S
C667 C668 1.394 . S
C667 C673 1.465 . S
C668 C663 1.399 . S
C668 C667 1.394 . S
C668 C669 1.516 . S
C669 C668 1.516 . S
C669 C670 1.502 . S
C669 C671 1.561 . S
C669 C672 1.526 . S
C670 H654 0.959 . S
C670 H655 0.959 . S
C670 H656 0.961 . S
C670 C669 1.502 . S
C671 H657 0.960 . S
C671 H658 0.961 . S
C671 H659 0.959 . S
C671 C669 1.561 . S
C672 C669 1.526 . S
C672 C673 1.396 . S
C672 C677 1.390 . S
C673 C667 1.465 . S
C673 C672 1.396 . S
C673 C674 1.399 . S
C674 H660 0.929 . S
C674 C673 1.399 . S
C674 C675 1.385 . S
C675 H661 0.931 . S
C675 C674 1.385 . S
C675 C676 1.389 . S
C676 C675 1.389 . S
C676 C677 1.387 . S
C677 H662 0.930 . S
C677 C672 1.390 . S
C677 C676 1.387 . S
H678 C690 0.930 . S
H679 C692 0.930 . S
H680 C693 0.930 . S
H681 C697 0.959 . S
H682 C697 0.959 . S
H683 C697 0.961 . S
H684 C698 0.960 . S
H685 C698 0.961 . S
H686 C698 0.959 . S
H687 C701 0.929 . S
H688 C702 0.931 . S
H689 C704 0.930 . S
C690 H678 0.930 . S
C690 C691 1.399 . S
C690 C695 1.399 . S
C691 C690 1.399 . S
C691 C692 1.376 . S
C692 H679 0.930 . S
C692 C691 1.376 . S
C692 C693 1.388 . S
C693 H680 0.930 . S
C693 C692 1.388 . S
C693 C694 1.390 . S
C694 C693 1.390 . S
C694 C695 1.394 . S
C694 C700 1.465 . S
C695 C690 1.399 . S
C695 C694 1.394 . S
C695 C696 1.516 . S
C696 C695 1.516 . S
C696 C697 1.502 . S
C696 C698 1.561 . S
C696 C699 1.526 . S
C697 H681 0.959 . S
C697 H682 0.959 . S
C697 H683 0.961 . S
C697 C696 1.502 . S
C698 H684 0.960 . S
C698 H685 0.961 . S
C698 H686 0.959 . S
C698 C696 1.561 . S
C699 C696 1.526 . S
C699 C700 1.396 . S
C699 C704 1.390 . S
C700 C694 1.465 . S
C700 C699 1.396 . S
C700 C701 1.399 . S
C701 H687 0.929 . S
C701 C700 1.399 . S
C701 C702 1.385 . S
C702 H688 0.931 . S
C702 C701 1.385 . S
C702 C703 1.389 . S
C703 C702 1.389 . S
C703 C704 1.387 . S
C704 H689 0.930 . S
C704 C699 1.390 . S
C704 C703 1.387 . S
H705 C717 0.930 . S
H706 C719 0.930 . S
H707 C720 0.930 . S
H708 C724 0.959 . S
H709 C724 0.959 . S
H710 C724 0.961 . S
H711 C725 0.960 . S
H712 C725 0.961 . S
H713 C725 0.959 . S
H714 C728 0.929 . S
H715 C729 0.931 . S
H716 C731 0.930 . S
C717 H705 0.930 . S
C717 C718 1.399 . S
C717 C722 1.399 . S
C718 C717 1.399 . S
C718 C719 1.376 . S
C719 H706 0.930 . S
C719 C718 1.376 . S
C719 C720 1.388 . S
C720 H707 0.930 . S
C720 C719 1.388 . S
C720 C721 1.390 . S
C721 C720 1.390 . S
C721 C722 1.394 . S
C721 C727 1.465 . S
C722 C717 1.399 . S
C722 C721 1.394 . S
C722 C723 1.516 . S
C723 C722 1.516 . S
C723 C724 1.502 . S
C723 C725 1.561 . S
C723 C726 1.526 . S
C724 H708 0.959 . S
C724 H709 0.959 . S
C724 H710 0.961 . S
C724 C723 1.502 . S
C725 H711 0.960 . S
C725 H712 0.961 . S
C725 H713 0.959 . S
C725 C723 1.561 . S
C726 C723 1.526 . S
C726 C727 1.396 . S
C726 C731 1.390 . S
C727 C721 1.465 . S
C727 C726 1.396 . S
C727 C728 1.399 . S
C728 H714 0.929 . S
C728 C727 1.399 . S
C728 C729 1.385 . S
C729 H715 0.931 . S
C729 C728 1.385 . S
C729 C730 1.389 . S
C730 C729 1.389 . S
C730 C731 1.387 . S
C731 H716 0.930 . S
C731 C726 1.390 . S
C731 C730 1.387 . S
H732 C744 0.930 . S
H733 C746 0.930 . S
H734 C747 0.930 . S
H735 C751 0.959 . S
H736 C751 0.959 . S
H737 C751 0.961 . S
H738 C752 0.960 . S
H739 C752 0.961 . S
H740 C752 0.959 . S
H741 C755 0.929 . S
H742 C756 0.931 . S
H743 C758 0.930 . S
C744 H732 0.930 . S
C744 C745 1.399 . S
C744 C749 1.399 . S
C745 C744 1.399 . S
C745 C746 1.376 . S
C746 H733 0.930 . S
C746 C745 1.376 . S
C746 C747 1.388 . S
C747 H734 0.930 . S
C747 C746 1.388 . S
C747 C748 1.390 . S
C748 C747 1.390 . S
C748 C749 1.394 . S
C748 C754 1.465 . S
C749 C744 1.399 . S
C749 C748 1.394 . S
C749 C750 1.516 . S
C750 C749 1.516 . S
C750 C751 1.502 . S
C750 C752 1.561 . S
C750 C753 1.526 . S
C751 H735 0.959 . S
C751 H736 0.959 . S
C751 H737 0.961 . S
C751 C750 1.502 . S
C752 H738 0.960 . S
C752 H739 0.961 . S
C752 H740 0.959 . S
C752 C750 1.561 . S
C753 C750 1.526 . S
C753 C754 1.396 . S
C753 C758 1.390 . S
C754 C748 1.465 . S
C754 C753 1.396 . S
C754 C755 1.399 . S
C755 H741 0.929 . S
C755 C754 1.399 . S
C755 C756 1.385 . S
C756 H742 0.931 . S
C756 C755 1.385 . S
C756 C757 1.389 . S
C757 C756 1.389 . S
C757 C758 1.387 . S
C758 H743 0.930 . S
C758 C753 1.390 . S
C758 C757 1.387 . S
H759 C771 0.930 . S
H760 C773 0.930 . S
H761 C774 0.930 . S
H762 C778 0.959 . S
H763 C778 0.959 . S
H764 C778 0.961 . S
H765 C779 0.960 . S
H766 C779 0.961 . S
H767 C779 0.959 . S
H768 C782 0.929 . S
H769 C783 0.931 . S
H770 C785 0.930 . S
C771 H759 0.930 . S
C771 C772 1.399 . S
C771 C776 1.399 . S
C772 C771 1.399 . S
C772 C773 1.376 . S
C773 H760 0.930 . S
C773 C772 1.376 . S
C773 C774 1.388 . S
C774 H761 0.930 . S
C774 C773 1.388 . S
C774 C775 1.390 . S
C775 C774 1.390 . S
C775 C776 1.394 . S
C775 C781 1.465 . S
C776 C771 1.399 . S
C776 C775 1.394 . S
C776 C777 1.516 . S
C777 C776 1.516 . S
C777 C778 1.502 . S
C777 C779 1.561 . S
C777 C780 1.526 . S
C778 H762 0.959 . S
C778 H763 0.959 . S
C778 H764 0.961 . S
C778 C777 1.502 . S
C779 H765 0.960 . S
C779 H766 0.961 . S
C779 H767 0.959 . S
C779 C777 1.561 . S
C780 C777 1.526 . S
C780 C781 1.396 . S
C780 C785 1.390 . S
C781 C775 1.465 . S
C781 C780 1.396 . S
C781 C782 1.399 . S
C782 H768 0.929 . S
C782 C781 1.399 . S
C782 C783 1.385 . S
C783 H769 0.931 . S
C783 C782 1.385 . S
C783 C784 1.389 . S
C784 C783 1.389 . S
C784 C785 1.387 . S
C785 H770 0.930 . S
C785 C780 1.390 . S
C785 C784 1.387 . S
H786 C798 0.930 . S
H787 C800 0.930 . S
H788 C801 0.930 . S
H789 C805 0.959 . S
H790 C805 0.959 . S
H791 C805 0.961 . S
H792 C806 0.960 . S
H793 C806 0.961 . S
H794 C806 0.959 . S
H795 C809 0.929 . S
H796 C810 0.931 . S
H797 C812 0.930 . S
C798 H786 0.930 . S
C798 C799 1.399 . S
C798 C803 1.399 . S
C799 C798 1.399 . S
C799 C800 1.376 . S
C800 H787 0.930 . S
C800 C799 1.376 . S
C800 C801 1.388 . S
C801 H788 0.930 . S
C801 C800 1.388 . S
C801 C802 1.390 . S
C802 C801 1.390 . S
C802 C803 1.394 . S
C802 C808 1.465 . S
C803 C798 1.399 . S
C803 C802 1.394 . S
C803 C804 1.516 . S
C804 C803 1.516 . S
C804 C805 1.502 . S
C804 C806 1.561 . S
C804 C807 1.526 . S
C805 H789 0.959 . S
C805 H790 0.959 . S
C805 H791 0.961 . S
C805 C804 1.502 . S
C806 H792 0.960 . S
C806 H793 0.961 . S
C806 H794 0.959 . S
C806 C804 1.561 . S
C807 C804 1.526 . S
C807 C808 1.396 . S
C807 C812 1.390 . S
C808 C802 1.465 . S
C808 C807 1.396 . S
C808 C809 1.399 . S
C809 H795 0.929 . S
C809 C808 1.399 . S
C809 C810 1.385 . S
C810 H796 0.931 . S
C810 C809 1.385 . S
C810 C811 1.389 . S
C811 C810 1.389 . S
C811 C812 1.387 . S
C812 H797 0.930 . S
C812 C807 1.390 . S
C812 C811 1.387 . S
H813 C825 0.930 . S
H814 C827 0.930 . S
H815 C828 0.930 . S
H816 C832 0.959 . S
H817 C832 0.959 . S
H818 C832 0.961 . S
H819 C833 0.960 . S
H820 C833 0.961 . S
H821 C833 0.959 . S
H822 C836 0.929 . S
H823 C837 0.931 . S
H824 C839 0.930 . S
C825 H813 0.930 . S
C825 C826 1.399 . S
C825 C830 1.399 . S
C826 C825 1.399 . S
C826 C827 1.376 . S
C827 H814 0.930 . S
C827 C826 1.376 . S
C827 C828 1.388 . S
C828 H815 0.930 . S
C828 C827 1.388 . S
C828 C829 1.390 . S
C829 C828 1.390 . S
C829 C830 1.394 . S
C829 C835 1.465 . S
C830 C825 1.399 . S
C830 C829 1.394 . S
C830 C831 1.516 . S
C831 C830 1.516 . S
C831 C832 1.502 . S
C831 C833 1.561 . S
C831 C834 1.526 . S
C832 H816 0.959 . S
C832 H817 0.959 . S
C832 H818 0.961 . S
C832 C831 1.502 . S
C833 H819 0.960 . S
C833 H820 0.961 . S
C833 H821 0.959 . S
C833 C831 1.561 . S
C834 C831 1.526 . S
C834 C835 1.396 . S
C834 C839 1.390 . S
C835 C829 1.465 . S
C835 C834 1.396 . S
C835 C836 1.399 . S
C836 H822 0.929 . S
C836 C835 1.399 . S
C836 C837 1.385 . S
C837 H823 0.931 . S
C837 C836 1.385 . S
C837 C838 1.389 . S
C838 C837 1.389 . S
C838 C839 1.387 . S
C839 H824 0.930 . S
C839 C834 1.390 . S
C839 C838 1.387 . S
H840 C852 0.930 . S
H841 C854 0.930 . S
H842 C855 0.930 . S
H843 C859 0.959 . S
H844 C859 0.959 . S
H845 C859 0.961 . S
H846 C860 0.960 . S
H847 C860 0.961 . S
H848 C860 0.959 . S
H849 C863 0.929 . S
H850 C864 0.931 . S
H851 C866 0.930 . S
C852 H840 0.930 . S
C852 C853 1.399 1_556 S
C852 C857 1.399 . S
C853 C852 1.399 1_554 S
C853 C854 1.376 . S
C854 H841 0.930 . S
C854 C853 1.376 . S
C854 C855 1.388 . S
C855 H842 0.930 . S
C855 C854 1.388 . S
C855 C856 1.390 . S
C856 C855 1.390 . S
C856 C857 1.394 1_554 S
C856 C862 1.465 . S
C857 C852 1.399 . S
C857 C856 1.394 1_556 S
C857 C858 1.516 . S
C858 C857 1.516 . S
C858 C859 1.502 . S
C858 C860 1.561 . S
C858 C861 1.526 . S
C859 H843 0.959 . S
C859 H844 0.959 . S
C859 H845 0.961 . S
C859 C858 1.502 . S
C860 H846 0.960 . S
C860 H847 0.961 . S
C860 H848 0.959 . S
C860 C858 1.561 . S
C861 C858 1.526 . S
C861 C862 1.396 1_556 S
C861 C866 1.390 . S
C862 C856 1.465 . S
C862 C861 1.396 1_554 S
C862 C863 1.399 . S
C863 H849 0.929 . S
C863 C862 1.399 . S
C863 C864 1.385 . S
C864 H850 0.931 . S
C864 C863 1.385 . S
C864 C865 1.389 . S
C865 C864 1.389 . S
C865 C866 1.387 1_554 S
C866 H851 0.930 . S
C866 C861 1.390 . S
C866 C865 1.387 1_556 S
H867 C879 0.930 . S
H868 C881 0.930 . S
H869 C882 0.930 . S
H870 C886 0.959 . S
H871 C886 0.959 . S
H872 C886 0.961 . S
H873 C887 0.960 . S
H874 C887 0.961 . S
H875 C887 0.959 . S
H876 C890 0.929 . S
H877 C891 0.931 . S
H878 C893 0.930 . S
C879 H867 0.930 . S
C879 C880 1.399 1_554 S
C879 C884 1.399 . S
C880 C879 1.399 1_556 S
C880 C881 1.376 . S
C881 H868 0.930 . S
C881 C880 1.376 . S
C881 C882 1.388 . S
C882 H869 0.930 . S
C882 C881 1.388 . S
C882 C883 1.390 . S
C883 C882 1.390 . S
C883 C884 1.394 1_556 S
C883 C889 1.465 . S
C884 C879 1.399 . S
C884 C883 1.394 1_554 S
C884 C885 1.516 . S
C885 C884 1.516 . S
C885 C886 1.502 . S
C885 C887 1.561 . S
C885 C888 1.526 . S
C886 H870 0.959 . S
C886 H871 0.959 . S
C886 H872 0.961 . S
C886 C885 1.502 . S
C887 H873 0.960 . S
C887 H874 0.961 . S
C887 H875 0.959 . S
C887 C885 1.561 . S
C888 C885 1.526 . S
C888 C889 1.396 1_554 S
C888 C893 1.390 . S
C889 C883 1.465 . S
C889 C888 1.396 1_556 S
C889 C890 1.399 . S
C890 H876 0.929 . S
C890 C889 1.399 . S
C890 C891 1.385 . S
C891 H877 0.931 . S
C891 C890 1.385 . S
C891 C892 1.389 . S
C892 C891 1.389 . S
C892 C893 1.387 1_556 S
C893 H878 0.930 . S
C893 C888 1.390 . S
C893 C892 1.387 1_554 S
H894 C906 0.930 . S
H895 C908 0.930 . S
H896 C909 0.930 . S
H897 C913 0.959 . S
H898 C913 0.959 . S
H899 C913 0.961 . S
H900 C914 0.960 . S
H901 C914 0.961 . S
H902 C914 0.959 . S
H903 C917 0.929 . S
H904 C918 0.931 . S
H905 C920 0.930 . S
C906 H894 0.930 . S
C906 C907 1.399 1_554 S
C906 C911 1.399 . S
C907 C906 1.399 1_556 S
C907 C908 1.376 . S
C908 H895 0.930 . S
C908 C907 1.376 . S
C908 C909 1.388 . S
C909 H896 0.930 . S
C909 C908 1.388 . S
C909 C910 1.390 . S
C910 C909 1.390 . S
C910 C911 1.394 1_556 S
C910 C916 1.465 . S
C911 C906 1.399 . S
C911 C910 1.394 1_554 S
C911 C912 1.516 . S
C912 C911 1.516 . S
C912 C913 1.502 . S
C912 C914 1.561 . S
C912 C915 1.526 . S
C913 H897 0.959 . S
C913 H898 0.959 . S
C913 H899 0.961 . S
C913 C912 1.502 . S
C914 H900 0.960 . S
C914 H901 0.961 . S
C914 H902 0.959 . S
C914 C912 1.561 . S
C915 C912 1.526 . S
C915 C916 1.396 1_554 S
C915 C920 1.390 . S
C916 C910 1.465 . S
C916 C915 1.396 1_556 S
C916 C917 1.399 . S
C917 H903 0.929 . S
C917 C916 1.399 . S
C917 C918 1.385 . S
C918 H904 0.931 . S
C918 C917 1.385 . S
C918 C919 1.389 . S
C919 C918 1.389 . S
C919 C920 1.387 1_556 S
C920 H905 0.930 . S
C920 C915 1.390 . S
C920 C919 1.387 1_554 S
H921 C933 0.930 . S
H922 C935 0.930 . S
H923 C936 0.930 . S
H924 C940 0.959 . S
H925 C940 0.959 . S
H926 C940 0.961 . S
H927 C941 0.960 . S
H928 C941 0.961 . S
H929 C941 0.959 . S
H930 C944 0.929 . S
H931 C945 0.931 . S
H932 C947 0.930 . S
C933 H921 0.930 . S
C933 C934 1.399 1_554 S
C933 C938 1.399 . S
C934 C933 1.399 1_556 S
C934 C935 1.376 . S
C935 H922 0.930 . S
C935 C934 1.376 . S
C935 C936 1.388 . S
C936 H923 0.930 . S
C936 C935 1.388 . S
C936 C937 1.390 . S
C937 C936 1.390 . S
C937 C938 1.394 1_556 S
C937 C943 1.465 . S
C938 C933 1.399 . S
C938 C937 1.394 1_554 S
C938 C939 1.516 . S
C939 C938 1.516 . S
C939 C940 1.502 . S
C939 C941 1.561 . S
C939 C942 1.526 . S
C940 H924 0.959 . S
C940 H925 0.959 . S
C940 H926 0.961 . S
C940 C939 1.502 . S
C941 H927 0.960 . S
C941 H928 0.961 . S
C941 H929 0.959 . S
C941 C939 1.561 . S
C942 C939 1.526 . S
C942 C943 1.396 1_554 S
C942 C947 1.390 . S
C943 C937 1.465 . S
C943 C942 1.396 1_556 S
C943 C944 1.399 . S
C944 H930 0.929 . S
C944 C943 1.399 . S
C944 C945 1.385 . S
C945 H931 0.931 . S
C945 C944 1.385 . S
C945 C946 1.389 . S
C946 C945 1.389 . S
C946 C947 1.387 1_556 S
C947 H932 0.930 . S
C947 C942 1.390 . S
C947 C946 1.387 1_554 S
H948 C960 0.930 . S
H949 C962 0.930 . S
H950 C963 0.930 . S
H951 C967 0.959 . S
H952 C967 0.959 . S
H953 C967 0.961 . S
H954 C968 0.960 . S
H955 C968 0.961 . S
H956 C968 0.959 . S
H957 C971 0.929 . S
H958 C972 0.931 . S
H959 C974 0.930 . S
C960 H948 0.930 . S
C960 C961 1.399 1_655 S
C960 C965 1.399 . S
C961 C960 1.399 1_455 S
C961 C962 1.376 . S
C962 H949 0.930 . S
C962 C961 1.376 . S
C962 C963 1.388 . S
C963 H950 0.930 . S
C963 C962 1.388 . S
C963 C964 1.390 . S
C964 C963 1.390 . S
C964 C965 1.394 1_455 S
C964 C970 1.465 . S
C965 C960 1.399 . S
C965 C964 1.394 1_655 S
C965 C966 1.516 . S
C966 C965 1.516 . S
C966 C967 1.502 . S
C966 C968 1.561 . S
C966 C969 1.526 . S
C967 H951 0.959 . S
C967 H952 0.959 . S
C967 H953 0.961 . S
C967 C966 1.502 . S
C968 H954 0.960 . S
C968 H955 0.961 . S
C968 H956 0.959 . S
C968 C966 1.561 . S
C969 C966 1.526 . S
C969 C970 1.396 1_655 S
C969 C974 1.390 . S
C970 C964 1.465 . S
C970 C969 1.396 1_455 S
C970 C971 1.399 . S
C971 H957 0.929 . S
C971 C970 1.399 . S
C971 C972 1.385 . S
C972 H958 0.931 . S
C972 C971 1.385 . S
C972 C973 1.389 . S
C973 C972 1.389 . S
C973 C974 1.387 1_455 S
C974 H959 0.930 . S
C974 C969 1.390 . S
C974 C973 1.387 1_655 S
H975 C987 0.930 . S
H976 C989 0.930 . S
H977 C990 0.930 . S
H978 C994 0.959 . S
H979 C994 0.959 . S
H980 C994 0.961 . S
H981 C995 0.960 . S
H982 C995 0.961 . S
H983 C995 0.959 . S
H984 C998 0.929 . S
H985 C999 0.931 . S
H986 C1001 0.930 . S
C987 H975 0.930 . S
C987 C988 1.399 1_565 S
C987 C992 1.399 . S
C988 C987 1.399 1_545 S
C988 C989 1.376 . S
C989 H976 0.930 . S
C989 C988 1.376 . S
C989 C990 1.388 . S
C990 H977 0.930 . S
C990 C989 1.388 . S
C990 C991 1.390 . S
C991 C990 1.390 . S
C991 C992 1.394 1_545 S
C991 C997 1.465 . S
C992 C987 1.399 . S
C992 C991 1.394 1_565 S
C992 C993 1.516 . S
C993 C992 1.516 . S
C993 C994 1.502 . S
C993 C995 1.561 . S
C993 C996 1.526 . S
C994 H978 0.959 . S
C994 H979 0.959 . S
C994 H980 0.961 . S
C994 C993 1.502 . S
C995 H981 0.960 . S
C995 H982 0.961 . S
C995 H983 0.959 . S
C995 C993 1.561 . S
C996 C993 1.526 . S
C996 C997 1.396 1_565 S
C996 C1001 1.390 . S
C997 C991 1.465 . S
C997 C996 1.396 1_545 S
C997 C998 1.399 . S
C998 H984 0.929 . S
C998 C997 1.399 . S
C998 C999 1.385 . S
C999 H985 0.931 . S
C999 C998 1.385 . S
C999 C1000 1.389 . S
C1000 C999 1.389 . S
C1000 C1001 1.387 1_545 S
C1001 H986 0.930 . S
C1001 C996 1.390 . S
C1001 C1000 1.387 1_565 S
H1002 C1014 0.930 . S
H1003 C1016 0.930 . S
H1004 C1017 0.930 . S
H1005 C1021 0.959 . S
H1006 C1021 0.959 . S
H1007 C1021 0.961 . S
H1008 C1022 0.960 . S
H1009 C1022 0.961 . S
H1010 C1022 0.959 1_655 S
H1011 C1025 0.929 . S
H1012 C1026 0.931 . S
H1013 C1028 0.930 . S
C1014 H1002 0.930 . S
C1014 C1015 1.399 1_455 S
C1014 C1019 1.399 . S
C1015 C1014 1.399 1_655 S
C1015 C1016 1.376 . S
C1016 H1003 0.930 . S
C1016 C1015 1.376 . S
C1016 C1017 1.388 . S
C1017 H1004 0.930 . S
C1017 C1016 1.388 . S
C1017 C1018 1.390 . S
C1018 C1017 1.390 . S
C1018 C1019 1.394 1_655 S
C1018 C1024 1.465 . S
C1019 C1014 1.399 . S
C1019 C1018 1.394 1_455 S
C1019 C1020 1.516 . S
C1020 C1019 1.516 . S
C1020 C1021 1.502 . S
C1020 C1022 1.561 . S
C1020 C1023 1.526 . S
C1021 H1005 0.959 . S
C1021 H1006 0.959 . S
C1021 H1007 0.961 . S
C1021 C1020 1.502 . S
C1022 H1008 0.960 . S
C1022 H1009 0.961 . S
C1022 H1010 0.959 1_455 S
C1022 C1020 1.561 . S
C1023 C1020 1.526 . S
C1023 C1024 1.396 1_455 S
C1023 C1028 1.390 . S
C1024 C1018 1.465 . S
C1024 C1023 1.396 1_655 S
C1024 C1025 1.399 . S
C1025 H1011 0.929 . S
C1025 C1024 1.399 . S
C1025 C1026 1.385 . S
C1026 H1012 0.931 . S
C1026 C1025 1.385 . S
C1026 C1027 1.389 . S
C1027 C1026 1.389 . S
C1027 C1028 1.387 1_655 S
C1028 H1013 0.930 . S
C1028 C1023 1.390 . S
C1028 C1027 1.387 1_455 S
H1029 C1041 0.930 . S
H1030 C1043 0.930 . S
H1031 C1044 0.930 . S
H1032 C1048 0.959 . S
H1033 C1048 0.959 . S
H1034 C1048 0.961 . S
H1035 C1049 0.960 . S
H1036 C1049 0.961 . S
H1037 C1049 0.959 . S
H1038 C1052 0.929 . S
H1039 C1053 0.931 . S
H1040 C1055 0.930 . S
C1041 H1029 0.930 . S
C1041 C1042 1.387 1_545 S
C1041 C1046 1.399 . S
C1042 C1041 1.387 1_565 S
C1042 C1043 1.391 . S
C1043 H1030 0.930 . S
C1043 C1042 1.391 . S
C1043 C1044 1.388 . S
C1044 H1031 0.930 . S
C1044 C1043 1.388 . S
C1044 C1045 1.390 . S
C1045 C1044 1.390 . S
C1045 C1046 1.394 1_565 S
C1045 C1051 1.465 . S
C1046 C1041 1.399 . S
C1046 C1045 1.394 1_545 S
C1046 C1047 1.516 . S
C1047 C1046 1.516 . S
C1047 C1048 1.502 . S
C1047 C1049 1.561 . S
C1047 C1050 1.526 . S
C1048 H1032 0.959 . S
C1048 H1033 0.959 . S
C1048 H1034 0.961 . S
C1048 C1047 1.502 . S
C1049 H1035 0.960 . S
C1049 H1036 0.961 . S
C1049 H1037 0.959 . S
C1049 C1047 1.561 . S
C1050 C1047 1.526 . S
C1050 C1051 1.396 1_545 S
C1050 C1055 1.390 . S
C1051 C1045 1.465 . S
C1051 C1050 1.396 1_565 S
C1051 C1052 1.399 . S
C1052 H1038 0.929 . S
C1052 C1051 1.399 . S
C1052 C1053 1.385 . S
C1053 H1039 0.931 . S
C1053 C1052 1.385 . S
C1053 C1054 1.389 . S
C1054 C1053 1.389 . S
C1054 C1055 1.387 1_565 S
C1055 H1040 0.930 . S
C1055 C1050 1.390 . S
C1055 C1054 1.387 1_545 S
H1056 C1068 0.930 . S
H1057 C1070 0.930 . S
H1058 C1071 0.930 . S
H1059 C1075 0.953 1_655 S
H1060 C1075 0.961 . S
H1061 C1075 0.962 . S
H1062 C1076 0.960 . S
H1063 C1076 0.961 . S
H1064 C1076 0.959 . S
H1065 C1079 0.929 . S
H1066 C1080 0.931 . S
H1067 C1082 0.930 . S
C1068 H1056 0.930 . S
C1068 C1069 1.405 . S
C1068 C1073 1.399 . S
C1069 C1068 1.405 . S
C1069 C1070 1.370 1_455 S
C1070 H1057 0.930 . S
C1070 C1069 1.370 1_655 S
C1070 C1071 1.388 . S
C1071 H1058 0.930 . S
C1071 C1070 1.388 . S
C1071 C1072 1.390 . S
C1072 C1071 1.390 . S
C1072 C1073 1.394 1_655 S
C1072 C1078 1.465 . S
C1073 C1068 1.399 . S
C1073 C1072 1.394 1_455 S
C1073 C1074 1.516 . S
C1074 C1073 1.516 . S
C1074 C1075 1.505 . S
C1074 C1076 1.561 . S
C1074 C1077 1.526 . S
C1075 H1059 0.953 1_455 S
C1075 H1060 0.961 . S
C1075 H1061 0.962 . S
C1075 C1074 1.505 . S
C1076 H1062 0.960 . S
C1076 H1063 0.961 . S
C1076 H1064 0.959 . S
C1076 C1074 1.561 . S
C1077 C1074 1.526 . S
C1077 C1078 1.396 1_455 S
C1077 C1082 1.390 . S
C1078 C1072 1.465 . S
C1078 C1077 1.396 1_655 S
C1078 C1079 1.399 . S
C1079 H1065 0.929 . S
C1079 C1078 1.399 . S
C1079 C1080 1.385 . S
C1080 H1066 0.931 . S
C1080 C1079 1.385 . S
C1080 C1081 1.392 . S
C1081 C1080 1.392 . S
C1081 C1082 1.384 1_655 S
C1082 H1067 0.930 . S
C1082 C1077 1.390 . S
C1082 C1081 1.384 1_455 S
H1083 C1095 0.930 . S
H1084 C1097 0.930 . S
H1085 C1098 0.930 . S
H1086 C1102 0.959 . S
H1087 C1102 0.959 . S
H1088 C1102 0.961 . S
H1089 C1103 0.960 . S
H1090 C1103 0.961 . S
H1091 C1103 0.959 . S
H1092 C1106 0.929 . S
H1093 C1107 0.931 . S
H1094 C1109 0.930 . S
C1095 H1083 0.930 . S
C1095 C1096 1.399 1_545 S
C1095 C1100 1.399 . S
C1096 C1095 1.399 1_565 S
C1096 C1097 1.376 . S
C1097 H1084 0.930 . S
C1097 C1096 1.376 . S
C1097 C1098 1.388 . S
C1098 H1085 0.930 . S
C1098 C1097 1.388 . S
C1098 C1099 1.390 . S
C1099 C1098 1.390 . S
C1099 C1100 1.394 1_565 S
C1099 C1105 1.465 . S
C1100 C1095 1.399 . S
C1100 C1099 1.394 1_545 S
C1100 C1101 1.516 . S
C1101 C1100 1.516 . S
C1101 C1102 1.502 . S
C1101 C1103 1.561 . S
C1101 C1104 1.526 . S
C1102 H1086 0.959 . S
C1102 H1087 0.959 . S
C1102 H1088 0.961 . S
C1102 C1101 1.502 . S
C1103 H1089 0.960 . S
C1103 H1090 0.961 . S
C1103 H1091 0.959 . S
C1103 C1101 1.561 . S
C1104 C1101 1.526 . S
C1104 C1105 1.396 1_545 S
C1104 C1109 1.390 . S
C1105 C1099 1.465 . S
C1105 C1104 1.396 1_565 S
C1105 C1106 1.399 . S
C1106 H1092 0.929 . S
C1106 C1105 1.399 . S
C1106 C1107 1.385 . S
C1107 H1093 0.931 . S
C1107 C1106 1.385 . S
C1107 C1108 1.389 . S
C1108 C1107 1.389 . S
C1108 C1109 1.387 1_565 S
C1109 H1094 0.930 . S
C1109 C1104 1.390 . S
C1109 C1108 1.387 1_545 S
H1110 C1122 0.930 . S
H1111 C1124 0.930 . S
H1112 C1125 0.930 . S
H1113 C1129 0.959 . S
H1114 C1129 0.959 . S
H1115 C1129 0.961 . S
H1116 C1130 0.960 . S
H1117 C1130 0.961 . S
H1118 C1130 0.959 . S
H1119 C1133 0.929 . S
H1120 C1134 0.931 . S
H1121 C1136 0.930 . S
C1122 H1110 0.930 . S
C1122 C1123 1.399 1_655 S
C1122 C1127 1.399 . S
C1123 C1122 1.399 1_455 S
C1123 C1124 1.376 . S
C1124 H1111 0.930 . S
C1124 C1123 1.376 . S
C1124 C1125 1.388 . S
C1125 H1112 0.930 . S
C1125 C1124 1.388 . S
C1125 C1126 1.390 . S
C1126 C1125 1.390 . S
C1126 C1127 1.394 1_455 S
C1126 C1132 1.465 . S
C1127 C1122 1.399 . S
C1127 C1126 1.394 1_655 S
C1127 C1128 1.516 . S
C1128 C1127 1.516 . S
C1128 C1129 1.502 . S
C1128 C1130 1.561 1_655 S
C1128 C1131 1.526 . S
C1129 H1113 0.959 . S
C1129 H1114 0.959 . S
C1129 H1115 0.961 . S
C1129 C1128 1.502 . S
C1130 H1116 0.960 . S
C1130 H1117 0.961 . S
C1130 H1118 0.959 . S
C1130 C1128 1.561 1_455 S
C1131 C1128 1.526 . S
C1131 C1132 1.396 1_655 S
C1131 C1136 1.390 . S
C1132 C1126 1.465 . S
C1132 C1131 1.396 1_455 S
C1132 C1133 1.399 . S
C1133 H1119 0.929 . S
C1133 C1132 1.399 . S
C1133 C1134 1.385 . S
C1134 H1120 0.931 . S
C1134 C1133 1.385 . S
C1134 C1135 1.389 . S
C1135 C1134 1.389 . S
C1135 C1136 1.387 1_455 S
C1136 H1121 0.930 . S
C1136 C1131 1.390 . S
C1136 C1135 1.387 1_655 S
H1137 C1149 0.930 . S
H1138 C1151 0.930 . S
H1139 C1152 0.930 . S
H1140 C1156 0.959 . S
H1141 C1156 0.959 . S
H1142 C1156 0.961 . S
H1143 C1157 0.960 . S
H1144 C1157 0.961 . S
H1145 C1157 0.959 . S
H1146 C1160 0.929 . S
H1147 C1161 0.931 . S
H1148 C1163 0.930 . S
C1149 H1137 0.930 . S
C1149 C1150 1.399 1_565 S
C1149 C1154 1.399 . S
C1150 C1149 1.399 1_545 S
C1150 C1151 1.376 . S
C1151 H1138 0.930 . S
C1151 C1150 1.376 . S
C1151 C1152 1.388 . S
C1152 H1139 0.930 . S
C1152 C1151 1.388 . S
C1152 C1153 1.390 . S
C1153 C1152 1.390 . S
C1153 C1154 1.394 1_545 S
C1153 C1159 1.465 . S
C1154 C1149 1.399 . S
C1154 C1153 1.394 1_565 S
C1154 C1155 1.516 . S
C1155 C1154 1.516 . S
C1155 C1156 1.502 . S
C1155 C1157 1.561 . S
C1155 C1158 1.526 . S
C1156 H1140 0.959 . S
C1156 H1141 0.959 . S
C1156 H1142 0.961 . S
C1156 C1155 1.502 . S
C1157 H1143 0.960 . S
C1157 H1144 0.961 . S
C1157 H1145 0.959 . S
C1157 C1155 1.561 . S
C1158 C1155 1.526 . S
C1158 C1159 1.396 1_565 S
C1158 C1163 1.390 . S
C1159 C1153 1.465 . S
C1159 C1158 1.396 1_545 S
C1159 C1160 1.399 . S
C1160 H1146 0.929 . S
C1160 C1159 1.399 . S
C1160 C1161 1.385 . S
C1161 H1147 0.931 . S
C1161 C1160 1.385 . S
C1161 C1162 1.389 . S
C1162 C1161 1.389 . S
C1162 C1163 1.387 1_545 S
C1163 H1148 0.930 . S
C1163 C1158 1.390 . S
C1163 C1162 1.387 1_565 S
H1164 C1176 0.930 . S
H1165 C1178 0.930 . S
H1166 C1179 0.930 . S
H1167 C1183 0.959 . S
H1168 C1183 0.959 . S
H1169 C1183 0.961 . S
H1170 C1184 0.960 . S
H1171 C1184 0.961 . S
H1172 C1184 0.959 . S
H1173 C1187 0.929 . S
H1174 C1188 0.931 . S
H1175 C1190 0.930 . S
C1176 H1164 0.930 . S
C1176 C1177 1.399 1_455 S
C1176 C1181 1.399 . S
C1177 C1176 1.399 1_655 S
C1177 C1178 1.376 . S
C1178 H1165 0.930 . S
C1178 C1177 1.376 . S
C1178 C1179 1.388 . S
C1179 H1166 0.930 . S
C1179 C1178 1.388 . S
C1179 C1180 1.390 . S
C1180 C1179 1.390 . S
C1180 C1181 1.394 1_655 S
C1180 C1186 1.465 . S
C1181 C1176 1.399 . S
C1181 C1180 1.394 1_455 S
C1181 C1182 1.516 . S
C1182 C1181 1.516 . S
C1182 C1183 1.502 . S
C1182 C1184 1.561 1_455 S
C1182 C1185 1.526 . S
C1183 H1167 0.959 . S
C1183 H1168 0.959 . S
C1183 H1169 0.961 . S
C1183 C1182 1.502 . S
C1184 H1170 0.960 . S
C1184 H1171 0.961 . S
C1184 H1172 0.959 . S
C1184 C1182 1.561 1_655 S
C1185 C1182 1.526 . S
C1185 C1186 1.396 1_455 S
C1185 C1190 1.390 . S
C1186 C1180 1.465 . S
C1186 C1185 1.396 1_655 S
C1186 C1187 1.399 . S
C1187 H1173 0.929 . S
C1187 C1186 1.399 . S
C1187 C1188 1.385 . S
C1188 H1174 0.931 . S
C1188 C1187 1.385 . S
C1188 C1189 1.397 . S
C1189 C1188 1.397 . S
C1189 C1190 1.382 1_655 S
C1190 H1175 0.930 . S
C1190 C1185 1.390 . S
C1190 C1189 1.382 1_455 S
H1191 C1203 0.930 . S
H1192 C1205 0.930 . S
H1193 C1206 0.930 . S
H1194 C1210 0.959 . S
H1195 C1210 0.959 . S
H1196 C1210 0.961 . S
H1197 C1211 0.960 . S
H1198 C1211 0.961 . S
H1199 C1211 0.959 . S
H1200 C1214 0.929 . S
H1201 C1215 0.931 . S
H1202 C1217 0.930 . S
C1203 H1191 0.930 . S
C1203 C1204 1.399 1_545 S
C1203 C1208 1.399 . S
C1204 C1203 1.399 1_565 S
C1204 C1205 1.376 . S
C1205 H1192 0.930 . S
C1205 C1204 1.376 . S
C1205 C1206 1.388 . S
C1206 H1193 0.930 . S
C1206 C1205 1.388 . S
C1206 C1207 1.390 . S
C1207 C1206 1.390 . S
C1207 C1208 1.394 1_565 S
C1207 C1213 1.465 . S
C1208 C1203 1.399 . S
C1208 C1207 1.394 1_545 S
C1208 C1209 1.516 . S
C1209 C1208 1.516 . S
C1209 C1210 1.502 . S
C1209 C1211 1.561 . S
C1209 C1212 1.526 . S
C1210 H1194 0.959 . S
C1210 H1195 0.959 . S
C1210 H1196 0.961 . S
C1210 C1209 1.502 . S
C1211 H1197 0.960 . S
C1211 H1198 0.961 . S
C1211 H1199 0.959 . S
C1211 C1209 1.561 . S
C1212 C1209 1.526 . S
C1212 C1213 1.396 1_545 S
C1212 C1217 1.390 . S
C1213 C1207 1.465 . S
C1213 C1212 1.396 1_565 S
C1213 C1214 1.399 . S
C1214 H1200 0.929 . S
C1214 C1213 1.399 . S
C1214 C1215 1.385 . S
C1215 H1201 0.931 . S
C1215 C1214 1.385 . S
C1215 C1216 1.389 . S
C1216 C1215 1.389 . S
C1216 C1217 1.387 1_565 S
C1217 H1202 0.930 . S
C1217 C1212 1.390 . S
C1217 C1216 1.387 1_545 S
H1218 C1230 0.930 . S
H1219 C1232 0.930 . S
H1220 C1233 0.930 . S
H1221 C1237 0.959 . S
H1222 C1237 0.959 . S
H1223 C1237 0.961 . S
H1224 C1238 0.960 . S
H1225 C1238 0.961 . S
H1226 C1238 0.959 1_455 S
H1227 C1241 0.929 . S
H1228 C1242 0.931 . S
H1229 C1244 0.930 . S
C1230 H1218 0.930 . S
C1230 C1231 1.399 1_655 S
C1230 C1235 1.399 . S
C1231 C1230 1.399 1_455 S
C1231 C1232 1.376 . S
C1232 H1219 0.930 . S
C1232 C1231 1.376 . S
C1232 C1233 1.388 . S
C1233 H1220 0.930 . S
C1233 C1232 1.388 . S
C1233 C1234 1.390 . S
C1234 C1233 1.390 . S
C1234 C1235 1.394 1_455 S
C1234 C1240 1.465 . S
C1235 C1230 1.399 . S
C1235 C1234 1.394 1_655 S
C1235 C1236 1.516 . S
C1236 C1235 1.516 . S
C1236 C1237 1.502 . S
C1236 C1238 1.561 . S
C1236 C1239 1.526 . S
C1237 H1221 0.959 . S
C1237 H1222 0.959 . S
C1237 H1223 0.961 . S
C1237 C1236 1.502 . S
C1238 H1224 0.960 . S
C1238 H1225 0.961 . S
C1238 H1226 0.959 1_655 S
C1238 C1236 1.561 . S
C1239 C1236 1.526 . S
C1239 C1240 1.396 1_655 S
C1239 C1244 1.390 . S
C1240 C1234 1.465 . S
C1240 C1239 1.396 1_455 S
C1240 C1241 1.399 . S
C1241 H1227 0.929 . S
C1241 C1240 1.399 . S
C1241 C1242 1.385 . S
C1242 H1228 0.931 . S
C1242 C1241 1.385 . S
C1242 C1243 1.389 . S
C1243 C1242 1.389 . S
C1243 C1244 1.387 1_455 S
C1244 H1229 0.930 . S
C1244 C1239 1.390 . S
C1244 C1243 1.387 1_655 S
H1245 C1257 0.930 . S
H1246 C1259 0.930 . S
H1247 C1260 0.930 . S
H1248 C1264 0.959 . S
H1249 C1264 0.959 . S
H1250 C1264 0.961 . S
H1251 C1265 0.960 . S
H1252 C1265 0.961 . S
H1253 C1265 0.959 . S
H1254 C1268 0.929 . S
H1255 C1269 0.931 . S
H1256 C1271 0.930 . S
C1257 H1245 0.930 . S
C1257 C1258 1.399 1_565 S
C1257 C1262 1.399 . S
C1258 C1257 1.399 1_545 S
C1258 C1259 1.376 . S
C1259 H1246 0.930 . S
C1259 C1258 1.376 . S
C1259 C1260 1.388 . S
C1260 H1247 0.930 . S
C1260 C1259 1.388 . S
C1260 C1261 1.390 . S
C1261 C1260 1.390 . S
C1261 C1262 1.394 1_545 S
C1261 C1267 1.465 . S
C1262 C1257 1.399 . S
C1262 C1261 1.394 1_565 S
C1262 C1263 1.516 . S
C1263 C1262 1.516 . S
C1263 C1264 1.502 . S
C1263 C1265 1.561 . S
C1263 C1266 1.526 . S
C1264 H1248 0.959 . S
C1264 H1249 0.959 . S
C1264 H1250 0.961 . S
C1264 C1263 1.502 . S
C1265 H1251 0.960 . S
C1265 H1252 0.961 . S
C1265 H1253 0.959 . S
C1265 C1263 1.561 . S
C1266 C1263 1.526 . S
C1266 C1267 1.396 1_565 S
C1266 C1271 1.390 . S
C1267 C1261 1.465 . S
C1267 C1266 1.396 1_545 S
C1267 C1268 1.399 . S
C1268 H1254 0.929 . S
C1268 C1267 1.399 . S
C1268 C1269 1.385 . S
C1269 H1255 0.931 . S
C1269 C1268 1.385 . S
C1269 C1270 1.389 . S
C1270 C1269 1.389 . S
C1270 C1271 1.387 1_545 S
C1271 H1256 0.930 . S
C1271 C1266 1.390 . S
C1271 C1270 1.387 1_565 S
H1272 C1284 0.930 . S
H1273 C1286 0.930 . S
H1274 C1287 0.930 . S
H1275 C1291 0.959 . S
H1276 C1291 0.959 . S
H1277 C1291 0.961 . S
H1278 C1292 0.960 . S
H1279 C1292 0.961 . S
H1280 C1292 0.959 . S
H1281 C1295 0.929 . S
H1282 C1296 0.931 . S
H1283 C1298 0.930 . S
C1284 H1272 0.930 . S
C1284 C1285 1.399 1_455 S
C1284 C1289 1.401 . S
C1285 C1284 1.399 1_655 S
C1285 C1286 1.376 . S
C1286 H1273 0.930 . S
C1286 C1285 1.376 . S
C1286 C1287 1.388 . S
C1287 H1274 0.930 . S
C1287 C1286 1.388 . S
C1287 C1288 1.390 . S
C1288 C1287 1.390 . S
C1288 C1289 1.389 1_655 S
C1288 C1294 1.465 . S
C1289 C1284 1.401 . S
C1289 C1288 1.389 1_455 S
C1289 C1290 1.518 . S
C1290 C1289 1.518 . S
C1290 C1291 1.502 . S
C1290 C1292 1.561 1_455 S
C1290 C1293 1.528 . S
C1291 H1275 0.959 . S
C1291 H1276 0.959 . S
C1291 H1277 0.961 . S
C1291 C1290 1.502 . S
C1292 H1278 0.960 . S
C1292 H1279 0.961 . S
C1292 H1280 0.959 . S
C1292 C1290 1.561 1_655 S
C1293 C1290 1.528 . S
C1293 C1294 1.391 1_455 S
C1293 C1298 1.392 . S
C1294 C1288 1.465 . S
C1294 C1293 1.391 1_655 S
C1294 C1295 1.399 . S
C1295 H1281 0.929 . S
C1295 C1294 1.399 . S
C1295 C1296 1.385 . S
C1296 H1282 0.931 . S
C1296 C1295 1.385 . S
C1296 C1297 1.394 . S
C1297 C1296 1.394 . S
C1297 C1298 1.384 1_655 S
C1298 H1283 0.930 . S
C1298 C1293 1.392 . S
C1298 C1297 1.384 1_455 S
H1299 C1311 0.930 . S
H1300 C1313 0.930 . S
H1301 C1314 0.930 . S
H1302 C1318 0.959 . S
H1303 C1318 0.959 . S
H1304 C1318 0.961 . S
H1305 C1319 0.960 . S
H1306 C1319 0.961 . S
H1307 C1319 0.959 . S
H1308 C1322 0.929 . S
H1309 C1323 0.931 . S
H1310 C1325 0.930 . S
C1311 H1299 0.930 . S
C1311 C1312 1.399 1_545 S
C1311 C1316 1.399 . S
C1312 C1311 1.399 1_565 S
C1312 C1313 1.376 . S
C1313 H1300 0.930 . S
C1313 C1312 1.376 . S
C1313 C1314 1.388 . S
C1314 H1301 0.930 . S
C1314 C1313 1.388 . S
C1314 C1315 1.390 . S
C1315 C1314 1.390 . S
C1315 C1316 1.394 1_565 S
C1315 C1321 1.465 . S
C1316 C1311 1.399 . S
C1316 C1315 1.394 1_545 S
C1316 C1317 1.516 . S
C1317 C1316 1.516 . S
C1317 C1318 1.502 . S
C1317 C1319 1.561 . S
C1317 C1320 1.526 . S
C1318 H1302 0.959 . S
C1318 H1303 0.959 . S
C1318 H1304 0.961 . S
C1318 C1317 1.502 . S
C1319 H1305 0.960 . S
C1319 H1306 0.961 . S
C1319 H1307 0.959 . S
C1319 C1317 1.561 . S
C1320 C1317 1.526 . S
C1320 C1321 1.396 1_545 S
C1320 C1325 1.390 . S
C1321 C1315 1.465 . S
C1321 C1320 1.396 1_565 S
C1321 C1322 1.399 . S
C1322 H1308 0.929 . S
C1322 C1321 1.399 . S
C1322 C1323 1.385 . S
C1323 H1309 0.931 . S
C1323 C1322 1.385 . S
C1323 C1324 1.389 . S
C1324 C1323 1.389 . S
C1324 C1325 1.387 1_565 S
C1325 H1310 0.930 . S
C1325 C1320 1.390 . S
C1325 C1324 1.387 1_545 S
H1326 C1338 0.930 . S
H1327 C1340 0.930 . S
H1328 C1341 0.930 . S
H1329 C1345 0.959 . S
H1330 C1345 0.959 . S
H1331 C1345 0.961 . S
H1332 C1346 0.960 . S
H1333 C1346 0.961 . S
H1334 C1346 0.959 . S
H1335 C1349 0.929 . S
H1336 C1350 0.931 . S
H1337 C1352 0.930 . S
C1338 H1326 0.930 . S
C1338 C1339 1.399 1_455 S
C1338 C1343 1.399 . S
C1339 C1338 1.399 1_655 S
C1339 C1340 1.376 . S
C1340 H1327 0.930 . S
C1340 C1339 1.376 . S
C1340 C1341 1.388 . S
C1341 H1328 0.930 . S
C1341 C1340 1.388 . S
C1341 C1342 1.390 . S
C1342 C1341 1.390 . S
C1342 C1343 1.394 1_655 S
C1342 C1348 1.465 . S
C1343 C1338 1.399 . S
C1343 C1342 1.394 1_455 S
C1343 C1344 1.516 . S
C1344 C1343 1.516 . S
C1344 C1345 1.502 . S
C1344 C1346 1.561 . S
C1344 C1347 1.526 . S
C1345 H1329 0.959 . S
C1345 H1330 0.959 . S
C1345 H1331 0.961 . S
C1345 C1344 1.502 . S
C1346 H1332 0.960 . S
C1346 H1333 0.961 . S
C1346 H1334 0.959 . S
C1346 C1344 1.561 . S
C1347 C1344 1.526 . S
C1347 C1348 1.396 1_455 S
C1347 C1352 1.390 . S
C1348 C1342 1.465 . S
C1348 C1347 1.396 1_655 S
C1348 C1349 1.399 . S
C1349 H1335 0.929 . S
C1349 C1348 1.399 . S
C1349 C1350 1.385 . S
C1350 H1336 0.931 . S
C1350 C1349 1.385 . S
C1350 C1351 1.389 . S
C1351 C1350 1.389 . S
C1351 C1352 1.387 1_655 S
C1352 H1337 0.930 . S
C1352 C1347 1.390 . S
C1352 C1351 1.387 1_455 S
H1353 C1365 0.930 . S
H1354 C1367 0.930 . S
H1355 C1368 0.930 . S
H1356 C1372 0.959 . S
H1357 C1372 0.959 . S
H1358 C1372 0.961 . S
H1359 C1373 0.960 . S
H1360 C1373 0.961 . S
H1361 C1373 0.959 . S
H1362 C1376 0.929 . S
H1363 C1377 0.931 . S
H1364 C1379 0.930 . S
C1365 H1353 0.930 . S
C1365 C1366 1.399 1_565 S
C1365 C1370 1.399 . S
C1366 C1365 1.399 1_545 S
C1366 C1367 1.376 . S
C1367 H1354 0.930 . S
C1367 C1366 1.376 . S
C1367 C1368 1.388 . S
C1368 H1355 0.930 . S
C1368 C1367 1.388 . S
C1368 C1369 1.390 . S
C1369 C1368 1.390 . S
C1369 C1370 1.394 1_545 S
C1369 C1375 1.465 . S
C1370 C1365 1.399 . S
C1370 C1369 1.394 1_565 S
C1370 C1371 1.516 . S
C1371 C1370 1.516 . S
C1371 C1372 1.502 . S
C1371 C1373 1.561 . S
C1371 C1374 1.526 . S
C1372 H1356 0.959 . S
C1372 H1357 0.959 . S
C1372 H1358 0.961 . S
C1372 C1371 1.502 . S
C1373 H1359 0.960 . S
C1373 H1360 0.961 . S
C1373 H1361 0.959 . S
C1373 C1371 1.561 . S
C1374 C1371 1.526 . S
C1374 C1375 1.396 1_565 S
C1374 C1379 1.390 . S
C1375 C1369 1.465 . S
C1375 C1374 1.396 1_545 S
C1375 C1376 1.399 . S
C1376 H1362 0.929 . S
C1376 C1375 1.399 . S
C1376 C1377 1.385 . S
C1377 H1363 0.931 . S
C1377 C1376 1.385 . S
C1377 C1378 1.389 . S
C1378 C1377 1.389 . S
C1378 C1379 1.387 1_545 S
C1379 H1364 0.930 . S
C1379 C1374 1.390 . S
C1379 C1378 1.387 1_565 S
H1380 C1392 0.930 . S
H1381 C1394 0.930 . S
H1382 C1395 0.930 . S
H1383 C1399 0.959 . S
H1384 C1399 0.959 . S
H1385 C1399 0.961 . S
H1386 C1400 0.960 . S
H1387 C1400 0.961 . S
H1388 C1400 0.959 . S
H1389 C1403 0.929 . S
H1390 C1404 0.931 . S
H1391 C1406 0.930 . S
C1392 H1380 0.930 . S
C1392 C1393 1.399 1_565 S
C1392 C1397 1.399 . S
C1393 C1392 1.399 1_545 S
C1393 C1394 1.376 . S
C1394 H1381 0.930 . S
C1394 C1393 1.376 . S
C1394 C1395 1.388 . S
C1395 H1382 0.930 . S
C1395 C1394 1.388 . S
C1395 C1396 1.390 . S
C1396 C1395 1.390 . S
C1396 C1397 1.394 1_545 S
C1396 C1402 1.465 . S
C1397 C1392 1.399 . S
C1397 C1396 1.394 1_565 S
C1397 C1398 1.516 . S
C1398 C1397 1.516 . S
C1398 C1399 1.502 . S
C1398 C1400 1.561 . S
C1398 C1401 1.526 . S
C1399 H1383 0.959 . S
C1399 H1384 0.959 . S
C1399 H1385 0.961 . S
C1399 C1398 1.502 . S
C1400 H1386 0.960 . S
C1400 H1387 0.961 . S
C1400 H1388 0.959 . S
C1400 C1398 1.561 . S
C1401 C1398 1.526 . S
C1401 C1402 1.396 1_565 S
C1401 C1406 1.390 . S
C1402 C1396 1.465 . S
C1402 C1401 1.396 1_545 S
C1402 C1403 1.399 . S
C1403 H1389 0.929 . S
C1403 C1402 1.399 . S
C1403 C1404 1.385 . S
C1404 H1390 0.931 . S
C1404 C1403 1.385 . S
C1404 C1405 1.389 . S
C1405 C1404 1.389 . S
C1405 C1406 1.387 1_545 S
C1406 H1391 0.930 . S
C1406 C1401 1.390 . S
C1406 C1405 1.387 1_565 S
H1407 C1419 0.930 . S
H1408 C1421 0.930 . S
H1409 C1422 0.930 . S
H1410 C1426 0.959 1_655 S
H1411 C1426 0.959 . S
H1412 C1426 0.961 . S
H1413 C1427 0.960 . S
H1414 C1427 0.961 . S
H1415 C1427 0.959 . S
H1416 C1430 0.929 . S
H1417 C1431 0.931 . S
H1418 C1433 0.930 . S
C1419 H1407 0.930 . S
C1419 C1420 1.396 1_455 S
C1419 C1424 1.399 . S
C1420 C1419 1.396 1_655 S
C1420 C1421 1.380 . S
C1421 H1408 0.930 . S
C1421 C1420 1.380 . S
C1421 C1422 1.388 . S
C1422 H1409 0.930 . S
C1422 C1421 1.388 . S
C1422 C1423 1.390 . S
C1423 C1422 1.390 . S
C1423 C1424 1.394 1_655 S
C1423 C1429 1.465 . S
C1424 C1419 1.399 . S
C1424 C1423 1.394 1_455 S
C1424 C1425 1.516 . S
C1425 C1424 1.516 . S
C1425 C1426 1.502 . S
C1425 C1427 1.561 . S
C1425 C1428 1.526 . S
C1426 H1410 0.959 1_455 S
C1426 H1411 0.959 . S
C1426 H1412 0.961 . S
C1426 C1425 1.502 . S
C1427 H1413 0.960 . S
C1427 H1414 0.961 . S
C1427 H1415 0.959 . S
C1427 C1425 1.561 . S
C1428 C1425 1.526 . S
C1428 C1429 1.396 1_455 S
C1428 C1433 1.390 . S
C1429 C1423 1.465 . S
C1429 C1428 1.396 1_655 S
C1429 C1430 1.399 . S
C1430 H1416 0.929 . S
C1430 C1429 1.399 . S
C1430 C1431 1.385 . S
C1431 H1417 0.931 . S
C1431 C1430 1.385 . S
C1431 C1432 1.389 . S
C1432 C1431 1.389 . S
C1432 C1433 1.387 1_655 S
C1433 H1418 0.930 . S
C1433 C1428 1.390 . S
C1433 C1432 1.387 1_455 S
H1434 C1446 0.930 . S
H1435 C1448 0.930 . S
H1436 C1449 0.930 . S
H1437 C1453 0.959 . S
H1438 C1453 0.959 . S
H1439 C1453 0.961 . S
H1440 C1454 0.960 . S
H1441 C1454 0.961 . S
H1442 C1454 0.959 . S
H1443 C1457 0.929 . S
H1444 C1458 0.931 . S
H1445 C1460 0.930 . S
C1446 H1434 0.930 . S
C1446 C1447 1.399 1_565 S
C1446 C1451 1.399 . S
C1447 C1446 1.399 1_545 S
C1447 C1448 1.376 . S
C1448 H1435 0.930 . S
C1448 C1447 1.376 . S
C1448 C1449 1.388 . S
C1449 H1436 0.930 . S
C1449 C1448 1.388 . S
C1449 C1450 1.390 . S
C1450 C1449 1.390 . S
C1450 C1451 1.394 1_545 S
C1450 C1456 1.465 . S
C1451 C1446 1.399 . S
C1451 C1450 1.394 1_565 S
C1451 C1452 1.516 . S
C1452 C1451 1.516 . S
C1452 C1453 1.502 . S
C1452 C1454 1.561 . S
C1452 C1455 1.526 . S
C1453 H1437 0.959 . S
C1453 H1438 0.959 . S
C1453 H1439 0.961 . S
C1453 C1452 1.502 . S
C1454 H1440 0.960 . S
C1454 H1441 0.961 . S
C1454 H1442 0.959 . S
C1454 C1452 1.561 . S
C1455 C1452 1.526 . S
C1455 C1456 1.396 1_565 S
C1455 C1460 1.390 . S
C1456 C1450 1.465 . S
C1456 C1455 1.396 1_545 S
C1456 C1457 1.399 . S
C1457 H1443 0.929 . S
C1457 C1456 1.399 . S
C1457 C1458 1.385 . S
C1458 H1444 0.931 . S
C1458 C1457 1.385 . S
C1458 C1459 1.389 . S
C1459 C1458 1.389 . S
C1459 C1460 1.387 1_545 S
C1460 H1445 0.930 . S
C1460 C1455 1.390 . S
C1460 C1459 1.387 1_565 S
H1461 C1473 0.930 . S
H1462 C1475 0.930 . S
H1463 C1476 0.930 . S
H1464 C1480 0.959 . S
H1465 C1480 0.959 . S
H1466 C1480 0.961 . S
H1467 C1481 0.960 . S
H1468 C1481 0.961 . S
H1469 C1481 0.959 1_455 S
H1470 C1484 0.929 . S
H1471 C1485 0.931 . S
H1472 C1487 0.930 . S
C1473 H1461 0.930 . S
C1473 C1474 1.399 1_655 S
C1473 C1478 1.399 . S
C1474 C1473 1.399 1_455 S
C1474 C1475 1.376 . S
C1475 H1462 0.930 . S
C1475 C1474 1.376 . S
C1475 C1476 1.388 . S
C1476 H1463 0.930 . S
C1476 C1475 1.388 . S
C1476 C1477 1.390 . S
C1477 C1476 1.390 . S
C1477 C1478 1.394 1_455 S
C1477 C1483 1.465 . S
C1478 C1473 1.399 . S
C1478 C1477 1.394 1_655 S
C1478 C1479 1.516 . S
C1479 C1478 1.516 . S
C1479 C1480 1.502 . S
C1479 C1481 1.561 . S
C1479 C1482 1.526 . S
C1480 H1464 0.959 . S
C1480 H1465 0.959 . S
C1480 H1466 0.961 . S
C1480 C1479 1.502 . S
C1481 H1467 0.960 . S
C1481 H1468 0.961 . S
C1481 H1469 0.959 1_655 S
C1481 C1479 1.561 . S
C1482 C1479 1.526 . S
C1482 C1483 1.396 1_655 S
C1482 C1487 1.390 . S
C1483 C1477 1.465 . S
C1483 C1482 1.396 1_455 S
C1483 C1484 1.399 . S
C1484 H1470 0.929 . S
C1484 C1483 1.399 . S
C1484 C1485 1.385 . S
C1485 H1471 0.931 . S
C1485 C1484 1.385 . S
C1485 C1486 1.389 . S
C1486 C1485 1.389 . S
C1486 C1487 1.387 1_455 S
C1487 H1472 0.930 . S
C1487 C1482 1.390 . S
C1487 C1486 1.387 1_655 S
H1488 C1500 0.930 . S
H1489 C1502 0.930 . S
H1490 C1503 0.930 . S
H1491 C1507 0.959 . S
H1492 C1507 0.959 . S
H1493 C1507 0.961 . S
H1494 C1508 0.960 . S
H1495 C1508 0.961 . S
H1496 C1508 0.959 . S
H1497 C1511 0.929 . S
H1498 C1512 0.931 . S
H1499 C1514 0.930 . S
C1500 H1488 0.930 . S
C1500 C1501 1.399 1_545 S
C1500 C1505 1.399 . S
C1501 C1500 1.399 1_565 S
C1501 C1502 1.376 . S
C1502 H1489 0.930 . S
C1502 C1501 1.376 . S
C1502 C1503 1.388 . S
C1503 H1490 0.930 . S
C1503 C1502 1.388 . S
C1503 C1504 1.390 . S
C1504 C1503 1.390 . S
C1504 C1505 1.394 1_565 S
C1504 C1510 1.465 . S
C1505 C1500 1.399 . S
C1505 C1504 1.394 1_545 S
C1505 C1506 1.516 . S
C1506 C1505 1.516 . S
C1506 C1507 1.502 . S
C1506 C1508 1.561 . S
C1506 C1509 1.526 . S
C1507 H1491 0.959 . S
C1507 H1492 0.959 . S
C1507 H1493 0.961 . S
C1507 C1506 1.502 . S
C1508 H1494 0.960 . S
C1508 H1495 0.961 . S
C1508 H1496 0.959 . S
C1508 C1506 1.561 . S
C1509 C1506 1.526 . S
C1509 C1510 1.396 1_545 S
C1509 C1514 1.390 . S
C1510 C1504 1.465 . S
C1510 C1509 1.396 1_565 S
C1510 C1511 1.399 . S
C1511 H1497 0.929 . S
C1511 C1510 1.399 . S
C1511 C1512 1.385 . S
C1512 H1498 0.931 . S
C1512 C1511 1.385 . S
C1512 C1513 1.389 . S
C1513 C1512 1.389 . S
C1513 C1514 1.387 1_565 S
C1514 H1499 0.930 . S
C1514 C1509 1.390 . S
C1514 C1513 1.387 1_545 S
H1515 C1527 0.930 . S
H1516 C1529 0.930 . S
H1517 C1530 0.930 . S
H1518 C1534 0.959 . S
H1519 C1534 0.959 . S
H1520 C1534 0.961 . S
H1521 C1535 0.960 . S
H1522 C1535 0.961 . S
H1523 C1535 0.959 . S
H1524 C1538 0.929 . S
H1525 C1539 0.931 . S
H1526 C1541 0.930 . S
C1527 H1515 0.930 . S
C1527 C1528 1.399 1_655 S
C1527 C1532 1.399 . S
C1528 C1527 1.399 1_455 S
C1528 C1529 1.376 . S
C1529 H1516 0.930 . S
C1529 C1528 1.376 . S
C1529 C1530 1.388 . S
C1530 H1517 0.930 . S
C1530 C1529 1.388 . S
C1530 C1531 1.390 . S
C1531 C1530 1.390 . S
C1531 C1532 1.394 1_455 S
C1531 C1537 1.465 . S
C1532 C1527 1.399 . S
C1532 C1531 1.394 1_655 S
C1532 C1533 1.516 . S
C1533 C1532 1.516 . S
C1533 C1534 1.502 . S
C1533 C1535 1.561 . S
C1533 C1536 1.526 . S
C1534 H1518 0.959 . S
C1534 H1519 0.959 . S
C1534 H1520 0.961 . S
C1534 C1533 1.502 . S
C1535 H1521 0.960 . S
C1535 H1522 0.961 . S
C1535 H1523 0.959 . S
C1535 C1533 1.561 . S
C1536 C1533 1.526 . S
C1536 C1537 1.396 1_655 S
C1536 C1541 1.390 . S
C1537 C1531 1.465 . S
C1537 C1536 1.396 1_455 S
C1537 C1538 1.399 . S
C1538 H1524 0.929 . S
C1538 C1537 1.399 . S
C1538 C1539 1.385 . S
C1539 H1525 0.931 . S
C1539 C1538 1.385 . S
C1539 C1540 1.389 . S
C1540 C1539 1.389 . S
C1540 C1541 1.387 1_455 S
C1541 H1526 0.930 . S
C1541 C1536 1.390 . S
C1541 C1540 1.387 1_655 S
H1542 C1554 0.930 . S
H1543 C1556 0.930 . S
H1544 C1557 0.930 . S
H1545 C1561 0.959 . S
H1546 C1561 0.959 . S
H1547 C1561 0.961 . S
H1548 C1562 0.960 . S
H1549 C1562 0.961 . S
H1550 C1562 0.959 . S
H1551 C1565 0.929 . S
H1552 C1566 0.931 . S
H1553 C1568 0.930 . S
C1554 H1542 0.930 . S
C1554 C1555 1.399 1_565 S
C1554 C1559 1.399 . S
C1555 C1554 1.399 1_545 S
C1555 C1556 1.376 . S
C1556 H1543 0.930 . S
C1556 C1555 1.376 . S
C1556 C1557 1.388 . S
C1557 H1544 0.930 . S
C1557 C1556 1.388 . S
C1557 C1558 1.390 . S
C1558 C1557 1.390 . S
C1558 C1559 1.394 1_545 S
C1558 C1564 1.465 . S
C1559 C1554 1.399 . S
C1559 C1558 1.394 1_565 S
C1559 C1560 1.516 . S
C1560 C1559 1.516 . S
C1560 C1561 1.502 . S
C1560 C1562 1.561 . S
C1560 C1563 1.526 . S
C1561 H1545 0.959 . S
C1561 H1546 0.959 . S
C1561 H1547 0.961 . S
C1561 C1560 1.502 . S
C1562 H1548 0.960 . S
C1562 H1549 0.961 . S
C1562 H1550 0.959 . S
C1562 C1560 1.561 . S
C1563 C1560 1.526 . S
C1563 C1564 1.396 1_565 S
C1563 C1568 1.390 . S
C1564 C1558 1.465 . S
C1564 C1563 1.396 1_545 S
C1564 C1565 1.399 . S
C1565 H1551 0.929 . S
C1565 C1564 1.399 . S
C1565 C1566 1.385 . S
C1566 H1552 0.931 . S
C1566 C1565 1.385 . S
C1566 C1567 1.389 . S
C1567 C1566 1.389 . S
C1567 C1568 1.387 1_545 S
C1568 H1553 0.930 . S
C1568 C1563 1.390 . S
C1568 C1567 1.387 1_565 S
H1569 C1581 0.930 . S
H1570 C1583 0.930 . S
H1571 C1584 0.930 . S
H1572 C1588 0.959 . S
H1573 C1588 0.959 . S
H1574 C1588 0.961 . S
H1575 C1589 0.960 . S
H1576 C1589 0.961 . S
H1577 C1589 0.959 . S
H1578 C1592 0.929 . S
H1579 C1593 0.931 . S
H1580 C1595 0.930 . S
C1581 H1569 0.930 . S
C1581 C1582 1.399 1_455 S
C1581 C1586 1.399 . S
C1582 C1581 1.399 1_655 S
C1582 C1583 1.376 . S
C1583 H1570 0.930 . S
C1583 C1582 1.376 . S
C1583 C1584 1.388 . S
C1584 H1571 0.930 . S
C1584 C1583 1.388 . S
C1584 C1585 1.390 . S
C1585 C1584 1.390 . S
C1585 C1586 1.394 1_655 S
C1585 C1591 1.465 . S
C1586 C1581 1.399 . S
C1586 C1585 1.394 1_455 S
C1586 C1587 1.516 . S
C1587 C1586 1.516 . S
C1587 C1588 1.502 . S
C1587 C1589 1.561 . S
C1587 C1590 1.526 . S
C1588 H1572 0.959 . S
C1588 H1573 0.959 . S
C1588 H1574 0.961 . S
C1588 C1587 1.502 . S
C1589 H1575 0.960 . S
C1589 H1576 0.961 . S
C1589 H1577 0.959 . S
C1589 C1587 1.561 . S
C1590 C1587 1.526 . S
C1590 C1591 1.396 1_455 S
C1590 C1595 1.390 . S
C1591 C1585 1.465 . S
C1591 C1590 1.396 1_655 S
C1591 C1592 1.399 . S
C1592 H1578 0.929 . S
C1592 C1591 1.399 . S
C1592 C1593 1.385 . S
C1593 H1579 0.931 . S
C1593 C1592 1.385 . S
C1593 C1594 1.389 . S
C1594 C1593 1.389 . S
C1594 C1595 1.387 1_655 S
C1595 H1580 0.930 . S
C1595 C1590 1.390 . S
C1595 C1594 1.387 1_455 S
H1596 C1608 0.930 . S
H1597 C1610 0.930 . S
H1598 C1611 0.930 . S
H1599 C1615 0.959 . S
H1600 C1615 0.959 . S
H1601 C1615 0.961 . S
H1602 C1616 0.960 . S
H1603 C1616 0.961 . S
H1604 C1616 0.959 . S
H1605 C1619 0.929 . S
H1606 C1620 0.931 . S
H1607 C1622 0.930 . S
C1608 H1596 0.930 . S
C1608 C1609 1.399 1_554 S
C1608 C1613 1.399 . S
C1609 C1608 1.399 1_556 S
C1609 C1610 1.376 . S
C1610 H1597 0.930 . S
C1610 C1609 1.376 . S
C1610 C1611 1.388 . S
C1611 H1598 0.930 . S
C1611 C1610 1.388 . S
C1611 C1612 1.390 . S
C1612 C1611 1.390 . S
C1612 C1613 1.394 1_556 S
C1612 C1618 1.465 . S
C1613 C1608 1.399 . S
C1613 C1612 1.394 1_554 S
C1613 C1614 1.516 . S
C1614 C1613 1.516 . S
C1614 C1615 1.502 . S
C1614 C1616 1.561 . S
C1614 C1617 1.526 . S
C1615 H1599 0.959 . S
C1615 H1600 0.959 . S
C1615 H1601 0.961 . S
C1615 C1614 1.502 . S
C1616 H1602 0.960 . S
C1616 H1603 0.961 . S
C1616 H1604 0.959 . S
C1616 C1614 1.561 . S
C1617 C1614 1.526 . S
C1617 C1618 1.396 1_554 S
C1617 C1622 1.390 . S
C1618 C1612 1.465 . S
C1618 C1617 1.396 1_556 S
C1618 C1619 1.399 . S
C1619 H1605 0.929 . S
C1619 C1618 1.399 . S
C1619 C1620 1.385 . S
C1620 H1606 0.931 . S
C1620 C1619 1.385 . S
C1620 C1621 1.389 . S
C1621 C1620 1.389 . S
C1621 C1622 1.387 1_556 S
C1622 H1607 0.930 . S
C1622 C1617 1.390 . S
C1622 C1621 1.387 1_554 S
H1623 C1635 0.930 . S
H1624 C1637 0.930 . S
H1625 C1638 0.930 . S
H1626 C1642 0.959 . S
H1627 C1642 0.959 . S
H1628 C1642 0.961 . S
H1629 C1643 0.960 . S
H1630 C1643 0.961 . S
H1631 C1643 0.959 . S
H1632 C1646 0.929 . S
H1633 C1647 0.931 . S
H1634 C1649 0.930 . S
C1635 H1623 0.930 . S
C1635 C1636 1.399 1_554 S
C1635 C1640 1.399 . S
C1636 C1635 1.399 1_556 S
C1636 C1637 1.376 . S
C1637 H1624 0.930 . S
C1637 C1636 1.376 . S
C1637 C1638 1.388 . S
C1638 H1625 0.930 . S
C1638 C1637 1.388 . S
C1638 C1639 1.390 . S
C1639 C1638 1.390 . S
C1639 C1640 1.394 1_556 S
C1639 C1645 1.465 . S
C1640 C1635 1.399 . S
C1640 C1639 1.394 1_554 S
C1640 C1641 1.516 . S
C1641 C1640 1.516 . S
C1641 C1642 1.502 . S
C1641 C1643 1.561 . S
C1641 C1644 1.526 . S
C1642 H1626 0.959 . S
C1642 H1627 0.959 . S
C1642 H1628 0.961 . S
C1642 C1641 1.502 . S
C1643 H1629 0.960 . S
C1643 H1630 0.961 . S
C1643 H1631 0.959 . S
C1643 C1641 1.561 . S
C1644 C1641 1.526 . S
C1644 C1645 1.396 1_554 S
C1644 C1649 1.390 . S
C1645 C1639 1.465 . S
C1645 C1644 1.396 1_556 S
C1645 C1646 1.399 . S
C1646 H1632 0.929 . S
C1646 C1645 1.399 . S
C1646 C1647 1.385 . S
C1647 H1633 0.931 . S
C1647 C1646 1.385 . S
C1647 C1648 1.389 . S
C1648 C1647 1.389 . S
C1648 C1649 1.387 1_556 S
C1649 H1634 0.930 . S
C1649 C1644 1.390 . S
C1649 C1648 1.387 1_554 S
H1650 C1662 0.930 . S
H1651 C1664 0.930 . S
H1652 C1665 0.930 . S
H1653 C1669 0.959 . S
H1654 C1669 0.959 . S
H1655 C1669 0.961 . S
H1656 C1670 0.960 . S
H1657 C1670 0.961 . S
H1658 C1670 0.959 . S
H1659 C1673 0.929 . S
H1660 C1674 0.931 . S
H1661 C1676 0.930 . S
C1662 H1650 0.930 . S
C1662 C1663 1.399 1_556 S
C1662 C1667 1.399 . S
C1663 C1662 1.399 1_554 S
C1663 C1664 1.376 . S
C1664 H1651 0.930 . S
C1664 C1663 1.376 . S
C1664 C1665 1.388 . S
C1665 H1652 0.930 . S
C1665 C1664 1.388 . S
C1665 C1666 1.390 . S
C1666 C1665 1.390 . S
C1666 C1667 1.394 1_554 S
C1666 C1672 1.465 . S
C1667 C1662 1.399 . S
C1667 C1666 1.394 1_556 S
C1667 C1668 1.516 . S
C1668 C1667 1.516 . S
C1668 C1669 1.502 . S
C1668 C1670 1.561 . S
C1668 C1671 1.526 . S
C1669 H1653 0.959 . S
C1669 H1654 0.959 . S
C1669 H1655 0.961 . S
C1669 C1668 1.502 . S
C1670 H1656 0.960 . S
C1670 H1657 0.961 . S
C1670 H1658 0.959 . S
C1670 C1668 1.561 . S
C1671 C1668 1.526 . S
C1671 C1672 1.396 1_556 S
C1671 C1676 1.390 . S
C1672 C1666 1.465 . S
C1672 C1671 1.396 1_554 S
C1672 C1673 1.399 . S
C1673 H1659 0.929 . S
C1673 C1672 1.399 . S
C1673 C1674 1.385 . S
C1674 H1660 0.931 . S
C1674 C1673 1.385 . S
C1674 C1675 1.389 . S
C1675 C1674 1.389 . S
C1675 C1676 1.387 1_554 S
C1676 H1661 0.930 . S
C1676 C1671 1.390 . S
C1676 C1675 1.387 1_556 S
H1677 C1689 0.930 . S
H1678 C1691 0.930 . S
H1679 C1692 0.930 . S
H1680 C1696 0.959 . S
H1681 C1696 0.959 . S
H1682 C1696 0.961 . S
H1683 C1697 0.960 . S
H1684 C1697 0.961 . S
H1685 C1697 0.959 . S
H1686 C1700 0.929 . S
H1687 C1701 0.931 . S
H1688 C1703 0.930 . S
C1689 H1677 0.930 . S
C1689 C1690 1.399 1_554 S
C1689 C1694 1.399 . S
C1690 C1689 1.399 1_556 S
C1690 C1691 1.376 . S
C1691 H1678 0.930 . S
C1691 C1690 1.376 . S
C1691 C1692 1.388 . S
C1692 H1679 0.930 . S
C1692 C1691 1.388 . S
C1692 C1693 1.390 . S
C1693 C1692 1.390 . S
C1693 C1694 1.394 1_556 S
C1693 C1699 1.465 . S
C1694 C1689 1.399 . S
C1694 C1693 1.394 1_554 S
C1694 C1695 1.516 . S
C1695 C1694 1.516 . S
C1695 C1696 1.502 . S
C1695 C1697 1.561 . S
C1695 C1698 1.526 . S
C1696 H1680 0.959 . S
C1696 H1681 0.959 . S
C1696 H1682 0.961 . S
C1696 C1695 1.502 . S
C1697 H1683 0.960 . S
C1697 H1684 0.961 . S
C1697 H1685 0.959 . S
C1697 C1695 1.561 . S
C1698 C1695 1.526 . S
C1698 C1699 1.396 1_554 S
C1698 C1703 1.390 . S
C1699 C1693 1.465 . S
C1699 C1698 1.396 1_556 S
C1699 C1700 1.399 . S
C1700 H1686 0.929 . S
C1700 C1699 1.399 . S
C1700 C1701 1.385 . S
C1701 H1687 0.931 . S
C1701 C1700 1.385 . S
C1701 C1702 1.389 . S
C1702 C1701 1.389 . S
C1702 C1703 1.387 1_556 S
C1703 H1688 0.930 . S
C1703 C1698 1.390 . S
C1703 C1702 1.387 1_554 S
H1704 C1716 0.930 . S
H1705 C1718 0.930 . S
H1706 C1719 0.930 . S
H1707 C1723 0.959 . S
H1708 C1723 0.959 . S
H1709 C1723 0.961 . S
H1710 C1724 0.960 . S
H1711 C1724 0.961 . S
H1712 C1724 0.959 . S
H1713 C1727 0.929 . S
H1714 C1728 0.931 . S
H1715 C1730 0.930 . S
C1716 H1704 0.930 . S
C1716 C1717 1.399 1_554 S
C1716 C1721 1.399 . S
C1717 C1716 1.399 1_556 S
C1717 C1718 1.376 . S
C1718 H1705 0.930 . S
C1718 C1717 1.376 . S
C1718 C1719 1.388 . S
C1719 H1706 0.930 . S
C1719 C1718 1.388 . S
C1719 C1720 1.390 . S
C1720 C1719 1.390 . S
C1720 C1721 1.394 1_556 S
C1720 C1726 1.465 . S
C1721 C1716 1.399 . S
C1721 C1720 1.394 1_554 S
C1721 C1722 1.516 . S
C1722 C1721 1.516 . S
C1722 C1723 1.502 . S
C1722 C1724 1.561 . S
C1722 C1725 1.526 . S
C1723 H1707 0.959 . S
C1723 H1708 0.959 . S
C1723 H1709 0.961 . S
C1723 C1722 1.502 . S
C1724 H1710 0.960 . S
C1724 H1711 0.961 . S
C1724 H1712 0.959 . S
C1724 C1722 1.561 . S
C1725 C1722 1.526 . S
C1725 C1726 1.396 1_554 S
C1725 C1730 1.390 . S
C1726 C1720 1.465 . S
C1726 C1725 1.396 1_556 S
C1726 C1727 1.399 . S
C1727 H1713 0.929 . S
C1727 C1726 1.399 . S
C1727 C1728 1.385 . S
C1728 H1714 0.931 . S
C1728 C1727 1.385 . S
C1728 C1729 1.389 . S
C1729 C1728 1.389 . S
C1729 C1730 1.387 1_556 S
C1730 H1715 0.930 . S
C1730 C1725 1.390 . S
C1730 C1729 1.387 1_554 S
H1731 C1743 0.930 . S
H1732 C1745 0.930 . S
H1733 C1746 0.930 . S
H1734 C1750 0.959 . S
H1735 C1750 0.959 . S
H1736 C1750 0.961 . S
H1737 C1751 0.960 . S
H1738 C1751 0.961 . S
H1739 C1751 0.959 . S
H1740 C1754 0.929 . S
H1741 C1755 0.931 . S
H1742 C1757 0.930 . S
C1743 H1731 0.930 . S
C1743 C1744 1.399 1_556 S
C1743 C1748 1.399 . S
C1744 C1743 1.399 1_554 S
C1744 C1745 1.376 . S
C1745 H1732 0.930 . S
C1745 C1744 1.376 . S
C1745 C1746 1.388 . S
C1746 H1733 0.930 . S
C1746 C1745 1.388 . S
C1746 C1747 1.390 . S
C1747 C1746 1.390 . S
C1747 C1748 1.394 1_554 S
C1747 C1753 1.465 . S
C1748 C1743 1.399 . S
C1748 C1747 1.394 1_556 S
C1748 C1749 1.516 . S
C1749 C1748 1.516 . S
C1749 C1750 1.502 . S
C1749 C1751 1.561 . S
C1749 C1752 1.526 . S
C1750 H1734 0.959 . S
C1750 H1735 0.959 . S
C1750 H1736 0.961 . S
C1750 C1749 1.502 . S
C1751 H1737 0.960 . S
C1751 H1738 0.961 . S
C1751 H1739 0.959 . S
C1751 C1749 1.561 . S
C1752 C1749 1.526 . S
C1752 C1753 1.396 1_556 S
C1752 C1757 1.390 . S
C1753 C1747 1.465 . S
C1753 C1752 1.396 1_554 S
C1753 C1754 1.399 . S
C1754 H1740 0.929 . S
C1754 C1753 1.399 . S
C1754 C1755 1.385 . S
C1755 H1741 0.931 . S
C1755 C1754 1.385 . S
C1755 C1756 1.389 . S
C1756 C1755 1.389 . S
C1756 C1757 1.387 1_554 S
C1757 H1742 0.930 . S
C1757 C1752 1.390 . S
C1757 C1756 1.387 1_556 S
H1758 C1770 0.930 . S
H1759 C1772 0.930 . S
H1760 C1773 0.930 . S
H1761 C1777 0.959 . S
H1762 C1777 0.959 . S
H1763 C1777 0.961 . S
H1764 C1778 0.960 . S
H1765 C1778 0.961 . S
H1766 C1778 0.959 . S
H1767 C1781 0.929 . S
H1768 C1782 0.931 . S
H1769 C1784 0.930 . S
C1770 H1758 0.930 . S
C1770 C1771 1.399 1_554 S
C1770 C1775 1.399 . S
C1771 C1770 1.399 1_556 S
C1771 C1772 1.376 . S
C1772 H1759 0.930 . S
C1772 C1771 1.376 . S
C1772 C1773 1.388 . S
C1773 H1760 0.930 . S
C1773 C1772 1.388 . S
C1773 C1774 1.390 . S
C1774 C1773 1.390 . S
C1774 C1775 1.394 1_556 S
C1774 C1780 1.465 . S
C1775 C1770 1.399 . S
C1775 C1774 1.394 1_554 S
C1775 C1776 1.516 . S
C1776 C1775 1.516 . S
C1776 C1777 1.502 . S
C1776 C1778 1.561 . S
C1776 C1779 1.526 . S
C1777 H1761 0.959 . S
C1777 H1762 0.959 . S
C1777 H1763 0.961 . S
C1777 C1776 1.502 . S
C1778 H1764 0.960 . S
C1778 H1765 0.961 . S
C1778 H1766 0.959 . S
C1778 C1776 1.561 . S
C1779 C1776 1.526 . S
C1779 C1780 1.396 1_554 S
C1779 C1784 1.390 . S
C1780 C1774 1.465 . S
C1780 C1779 1.396 1_556 S
C1780 C1781 1.399 . S
C1781 H1767 0.929 . S
C1781 C1780 1.399 . S
C1781 C1782 1.385 . S
C1782 H1768 0.931 . S
C1782 C1781 1.385 . S
C1782 C1783 1.389 . S
C1783 C1782 1.389 . S
C1783 C1784 1.387 1_556 S
C1784 H1769 0.930 . S
C1784 C1779 1.390 . S
C1784 C1783 1.387 1_554 S
H1785 C1797 0.930 . S
H1786 C1799 0.930 . S
H1787 C1800 0.930 . S
H1788 C1804 0.959 1_556 S
H1789 C1804 0.959 . S
H1790 C1804 0.961 . S
H1791 C1805 0.960 . S
H1792 C1805 0.961 . S
H1793 C1805 0.959 . S
H1794 C1808 0.929 . S
H1795 C1809 0.931 . S
H1796 C1811 0.930 . S
C1797 H1785 0.930 . S
C1797 C1798 1.401 . S
C1797 C1802 1.399 . S
C1798 C1797 1.401 . S
C1798 C1799 1.374 1_554 S
C1799 H1786 0.930 . S
C1799 C1798 1.374 1_556 S
C1799 C1800 1.388 . S
C1800 H1787 0.930 . S
C1800 C1799 1.388 . S
C1800 C1801 1.390 . S
C1801 C1800 1.390 . S
C1801 C1802 1.394 1_556 S
C1801 C1807 1.465 . S
C1802 C1797 1.399 . S
C1802 C1801 1.394 1_554 S
C1802 C1803 1.516 . S
C1803 C1802 1.516 . S
C1803 C1804 1.502 . S
C1803 C1805 1.561 . S
C1803 C1806 1.526 . S
C1804 H1788 0.959 1_554 S
C1804 H1789 0.959 . S
C1804 H1790 0.961 . S
C1804 C1803 1.502 . S
C1805 H1791 0.960 . S
C1805 H1792 0.961 . S
C1805 H1793 0.959 . S
C1805 C1803 1.561 . S
C1806 C1803 1.526 . S
C1806 C1807 1.396 1_554 S
C1806 C1811 1.390 . S
C1807 C1801 1.465 . S
C1807 C1806 1.396 1_556 S
C1807 C1808 1.399 . S
C1808 H1794 0.929 . S
C1808 C1807 1.399 . S
C1808 C1809 1.385 . S
C1809 H1795 0.931 . S
C1809 C1808 1.385 . S
C1809 C1810 1.399 . S
C1810 C1809 1.399 . S
C1810 C1811 1.379 1_556 S
C1811 H1796 0.930 . S
C1811 C1806 1.390 . S
C1811 C1810 1.379 1_554 S
H1812 C1824 0.930 . S
H1813 C1826 0.930 . S
H1814 C1827 0.930 . S
H1815 C1831 0.959 . S
H1816 C1831 0.959 . S
H1817 C1831 0.961 . S
H1818 C1832 0.960 . S
H1819 C1832 0.961 . S
H1820 C1832 0.959 . S
H1821 C1835 0.929 . S
H1822 C1836 0.931 . S
H1823 C1838 0.930 . S
C1824 H1812 0.930 . S
C1824 C1825 1.399 . S
C1824 C1829 1.399 . S
C1825 C1824 1.399 . S
C1825 C1826 1.376 . S
C1826 H1813 0.930 . S
C1826 C1825 1.376 . S
C1826 C1827 1.388 . S
C1827 H1814 0.930 . S
C1827 C1826 1.388 . S
C1827 C1828 1.390 . S
C1828 C1827 1.390 . S
C1828 C1829 1.394 . S
C1828 C1834 1.465 . S
C1829 C1824 1.399 . S
C1829 C1828 1.394 . S
C1829 C1830 1.516 . S
C1830 C1829 1.516 . S
C1830 C1831 1.502 . S
C1830 C1832 1.561 . S
C1830 C1833 1.526 . S
C1831 H1815 0.959 . S
C1831 H1816 0.959 . S
C1831 H1817 0.961 . S
C1831 C1830 1.502 . S
C1832 H1818 0.960 . S
C1832 H1819 0.961 . S
C1832 H1820 0.959 . S
C1832 C1830 1.561 . S
C1833 C1830 1.526 . S
C1833 C1834 1.396 . S
C1833 C1838 1.390 . S
C1834 C1828 1.465 . S
C1834 C1833 1.396 . S
C1834 C1835 1.399 . S
C1835 H1821 0.929 . S
C1835 C1834 1.399 . S
C1835 C1836 1.385 . S
C1836 H1822 0.931 . S
C1836 C1835 1.385 . S
C1836 C1837 1.389 . S
C1837 C1836 1.389 . S
C1837 C1838 1.387 . S
C1838 H1823 0.930 . S
C1838 C1833 1.390 . S
C1838 C1837 1.387 . S
H1839 C1851 0.930 . S
H1840 C1853 0.930 . S
H1841 C1854 0.930 . S
H1842 C1858 0.959 . S
H1843 C1858 0.959 . S
H1844 C1858 0.961 . S
H1845 C1859 0.960 . S
H1846 C1859 0.961 . S
H1847 C1859 0.959 . S
H1848 C1862 0.929 . S
H1849 C1863 0.931 . S
H1850 C1865 0.930 . S
C1851 H1839 0.930 . S
C1851 C1852 1.399 . S
C1851 C1856 1.399 . S
C1852 C1851 1.399 . S
C1852 C1853 1.376 . S
C1853 H1840 0.930 . S
C1853 C1852 1.376 . S
C1853 C1854 1.388 . S
C1854 H1841 0.930 . S
C1854 C1853 1.388 . S
C1854 C1855 1.390 . S
C1855 C1854 1.390 . S
C1855 C1856 1.394 . S
C1855 C1861 1.465 . S
C1856 C1851 1.399 . S
C1856 C1855 1.394 . S
C1856 C1857 1.516 . S
C1857 C1856 1.516 . S
C1857 C1858 1.502 . S
C1857 C1859 1.561 . S
C1857 C1860 1.526 . S
C1858 H1842 0.959 . S
C1858 H1843 0.959 . S
C1858 H1844 0.961 . S
C1858 C1857 1.502 . S
C1859 H1845 0.960 . S
C1859 H1846 0.961 . S
C1859 H1847 0.959 . S
C1859 C1857 1.561 . S
C1860 C1857 1.526 . S
C1860 C1861 1.396 . S
C1860 C1865 1.390 . S
C1861 C1855 1.465 . S
C1861 C1860 1.396 . S
C1861 C1862 1.399 . S
C1862 H1848 0.929 . S
C1862 C1861 1.399 . S
C1862 C1863 1.385 . S
C1863 H1849 0.931 . S
C1863 C1862 1.385 . S
C1863 C1864 1.389 . S
C1864 C1863 1.389 . S
C1864 C1865 1.387 . S
C1865 H1850 0.930 . S
C1865 C1860 1.390 . S
C1865 C1864 1.387 . S
H1866 C1878 0.930 . S
H1867 C1880 0.930 . S
H1868 C1881 0.930 . S
H1869 C1885 0.959 . S
H1870 C1885 0.959 . S
H1871 C1885 0.961 . S
H1872 C1886 0.960 . S
H1873 C1886 0.961 . S
H1874 C1886 0.959 . S
H1875 C1889 0.929 . S
H1876 C1890 0.931 . S
H1877 C1892 0.930 . S
C1878 H1866 0.930 . S
C1878 C1879 1.399 . S
C1878 C1883 1.399 . S
C1879 C1878 1.399 . S
C1879 C1880 1.376 . S
C1880 H1867 0.930 . S
C1880 C1879 1.376 . S
C1880 C1881 1.388 . S
C1881 H1868 0.930 . S
C1881 C1880 1.388 . S
C1881 C1882 1.390 . S
C1882 C1881 1.390 . S
C1882 C1883 1.394 . S
C1882 C1888 1.465 . S
C1883 C1878 1.399 . S
C1883 C1882 1.394 . S
C1883 C1884 1.516 . S
C1884 C1883 1.516 . S
C1884 C1885 1.502 . S
C1884 C1886 1.561 . S
C1884 C1887 1.526 . S
C1885 H1869 0.959 . S
C1885 H1870 0.959 . S
C1885 H1871 0.961 . S
C1885 C1884 1.502 . S
C1886 H1872 0.960 . S
C1886 H1873 0.961 . S
C1886 H1874 0.959 . S
C1886 C1884 1.561 . S
C1887 C1884 1.526 . S
C1887 C1888 1.396 . S
C1887 C1892 1.390 . S
C1888 C1882 1.465 . S
C1888 C1887 1.396 . S
C1888 C1889 1.399 . S
C1889 H1875 0.929 . S
C1889 C1888 1.399 . S
C1889 C1890 1.385 . S
C1890 H1876 0.931 . S
C1890 C1889 1.385 . S
C1890 C1891 1.389 . S
C1891 C1890 1.389 . S
C1891 C1892 1.387 . S
C1892 H1877 0.930 . S
C1892 C1887 1.390 . S
C1892 C1891 1.387 . S
H1893 C1905 0.930 . S
H1894 C1907 0.930 . S
H1895 C1908 0.930 . S
H1896 C1912 0.959 . S
H1897 C1912 0.959 . S
H1898 C1912 0.961 . S
H1899 C1913 0.960 . S
H1900 C1913 0.961 . S
H1901 C1913 0.959 . S
H1902 C1916 0.929 . S
H1903 C1917 0.931 . S
H1904 C1919 0.930 . S
C1905 H1893 0.930 . S
C1905 C1906 1.399 . S
C1905 C1910 1.399 . S
C1906 C1905 1.399 . S
C1906 C1907 1.376 . S
C1907 H1894 0.930 . S
C1907 C1906 1.376 . S
C1907 C1908 1.388 . S
C1908 H1895 0.930 . S
C1908 C1907 1.388 . S
C1908 C1909 1.390 . S
C1909 C1908 1.390 . S
C1909 C1910 1.394 . S
C1909 C1915 1.465 . S
C1910 C1905 1.399 . S
C1910 C1909 1.394 . S
C1910 C1911 1.516 . S
C1911 C1910 1.516 . S
C1911 C1912 1.502 . S
C1911 C1913 1.561 . S
C1911 C1914 1.526 . S
C1912 H1896 0.959 . S
C1912 H1897 0.959 . S
C1912 H1898 0.961 . S
C1912 C1911 1.502 . S
C1913 H1899 0.960 . S
C1913 H1900 0.961 . S
C1913 H1901 0.959 . S
C1913 C1911 1.561 . S
C1914 C1911 1.526 . S
C1914 C1915 1.396 . S
C1914 C1919 1.390 . S
C1915 C1909 1.465 . S
C1915 C1914 1.396 . S
C1915 C1916 1.399 . S
C1916 H1902 0.929 . S
C1916 C1915 1.399 . S
C1916 C1917 1.385 . S
C1917 H1903 0.931 . S
C1917 C1916 1.385 . S
C1917 C1918 1.389 . S
C1918 C1917 1.389 . S
C1918 C1919 1.387 . S
C1919 H1904 0.930 . S
C1919 C1914 1.390 . S
C1919 C1918 1.387 . S
H1920 C1932 0.930 . S
H1921 C1934 0.930 . S
H1922 C1935 0.930 . S
H1923 C1939 0.959 . S
H1924 C1939 0.959 . S
H1925 C1939 0.961 . S
H1926 C1940 0.960 . S
H1927 C1940 0.961 . S
H1928 C1940 0.959 . S
H1929 C1943 0.929 . S
H1930 C1944 0.931 . S
H1931 C1946 0.930 . S
C1932 H1920 0.930 . S
C1932 C1933 1.399 . S
C1932 C1937 1.399 . S
C1933 C1932 1.399 . S
C1933 C1934 1.376 . S
C1934 H1921 0.930 . S
C1934 C1933 1.376 . S
C1934 C1935 1.388 . S
C1935 H1922 0.930 . S
C1935 C1934 1.388 . S
C1935 C1936 1.390 . S
C1936 C1935 1.390 . S
C1936 C1937 1.394 . S
C1936 C1942 1.465 . S
C1937 C1932 1.399 . S
C1937 C1936 1.394 . S
C1937 C1938 1.516 . S
C1938 C1937 1.516 . S
C1938 C1939 1.502 . S
C1938 C1940 1.561 . S
C1938 C1941 1.526 . S
C1939 H1923 0.959 . S
C1939 H1924 0.959 . S
C1939 H1925 0.961 . S
C1939 C1938 1.502 . S
C1940 H1926 0.960 . S
C1940 H1927 0.961 . S
C1940 H1928 0.959 . S
C1940 C1938 1.561 . S
C1941 C1938 1.526 . S
C1941 C1942 1.396 . S
C1941 C1946 1.390 . S
C1942 C1936 1.465 . S
C1942 C1941 1.396 . S
C1942 C1943 1.399 . S
C1943 H1929 0.929 . S
C1943 C1942 1.399 . S
C1943 C1944 1.385 . S
C1944 H1930 0.931 . S
C1944 C1943 1.385 . S
C1944 C1945 1.389 . S
C1945 C1944 1.389 . S
C1945 C1946 1.387 . S
C1946 H1931 0.930 . S
C1946 C1941 1.390 . S
C1946 C1945 1.387 . S
H1947 C1959 0.930 . S
H1948 C1961 0.930 . S
H1949 C1962 0.930 . S
H1950 C1966 0.959 . S
H1951 C1966 0.959 . S
H1952 C1966 0.961 . S
H1953 C1967 0.960 . S
H1954 C1967 0.961 . S
H1955 C1967 0.959 . S
H1956 C1970 0.929 . S
H1957 C1971 0.931 . S
H1958 C1973 0.930 . S
C1959 H1947 0.930 . S
C1959 C1960 1.399 . S
C1959 C1964 1.399 . S
C1960 C1959 1.399 . S
C1960 C1961 1.376 . S
C1961 H1948 0.930 . S
C1961 C1960 1.376 . S
C1961 C1962 1.388 . S
C1962 H1949 0.930 . S
C1962 C1961 1.388 . S
C1962 C1963 1.390 . S
C1963 C1962 1.390 . S
C1963 C1964 1.394 . S
C1963 C1969 1.465 . S
C1964 C1959 1.399 . S
C1964 C1963 1.394 . S
C1964 C1965 1.516 . S
C1965 C1964 1.516 . S
C1965 C1966 1.502 . S
C1965 C1967 1.561 . S
C1965 C1968 1.526 . S
C1966 H1950 0.959 . S
C1966 H1951 0.959 . S
C1966 H1952 0.961 . S
C1966 C1965 1.502 . S
C1967 H1953 0.960 . S
C1967 H1954 0.961 . S
C1967 H1955 0.959 . S
C1967 C1965 1.561 . S
C1968 C1965 1.526 . S
C1968 C1969 1.396 . S
C1968 C1973 1.390 . S
C1969 C1963 1.465 . S
C1969 C1968 1.396 . S
C1969 C1970 1.399 . S
C1970 H1956 0.929 . S
C1970 C1969 1.399 . S
C1970 C1971 1.385 . S
C1971 H1957 0.931 . S
C1971 C1970 1.385 . S
C1971 C1972 1.389 . S
C1972 C1971 1.389 . S
C1972 C1973 1.387 . S
C1973 H1958 0.930 . S
C1973 C1968 1.390 . S
C1973 C1972 1.387 . S
H1974 C1986 0.930 . S
H1975 C1988 0.930 . S
H1976 C1989 0.930 . S
H1977 C1993 0.959 . S
H1978 C1993 0.959 . S
H1979 C1993 0.961 . S
H1980 C1994 0.960 . S
H1981 C1994 0.961 . S
H1982 C1994 0.959 . S
H1983 C1997 0.929 . S
H1984 C1998 0.931 . S
H1985 C2000 0.930 . S
C1986 H1974 0.930 . S
C1986 C1987 1.399 . S
C1986 C1991 1.399 . S
C1987 C1986 1.399 . S
C1987 C1988 1.376 . S
C1988 H1975 0.930 . S
C1988 C1987 1.376 . S
C1988 C1989 1.388 . S
C1989 H1976 0.930 . S
C1989 C1988 1.388 . S
C1989 C1990 1.390 . S
C1990 C1989 1.390 . S
C1990 C1991 1.394 . S
C1990 C1996 1.465 . S
C1991 C1986 1.399 . S
C1991 C1990 1.394 . S
C1991 C1992 1.516 . S
C1992 C1991 1.516 . S
C1992 C1993 1.502 . S
C1992 C1994 1.561 . S
C1992 C1995 1.526 . S
C1993 H1977 0.959 . S
C1993 H1978 0.959 . S
C1993 H1979 0.961 . S
C1993 C1992 1.502 . S
C1994 H1980 0.960 . S
C1994 H1981 0.961 . S
C1994 H1982 0.959 . S
C1994 C1992 1.561 . S
C1995 C1992 1.526 . S
C1995 C1996 1.396 . S
C1995 C2000 1.390 . S
C1996 C1990 1.465 . S
C1996 C1995 1.396 . S
C1996 C1997 1.399 . S
C1997 H1983 0.929 . S
C1997 C1996 1.399 . S
C1997 C1998 1.385 . S
C1998 H1984 0.931 . S
C1998 C1997 1.385 . S
C1998 C1999 1.389 . S
C1999 C1998 1.389 . S
C1999 C2000 1.387 . S
C2000 H1985 0.930 . S
C2000 C1995 1.390 . S
C2000 C1999 1.387 . S
H2001 C2013 0.930 . S
H2002 C2015 0.930 . S
H2003 C2016 0.930 . S
H2004 C2020 0.959 . S
H2005 C2020 0.959 . S
H2006 C2020 0.961 . S
H2007 C2021 0.960 . S
H2008 C2021 0.961 . S
H2009 C2021 0.959 . S
H2010 C2024 0.929 . S
H2011 C2025 0.931 . S
H2012 C2027 0.930 . S
C2013 H2001 0.930 . S
C2013 C2014 1.399 . S
C2013 C2018 1.399 . S
C2014 C2013 1.399 . S
C2014 C2015 1.376 . S
C2015 H2002 0.930 . S
C2015 C2014 1.376 . S
C2015 C2016 1.388 . S
C2016 H2003 0.930 . S
C2016 C2015 1.388 . S
C2016 C2017 1.390 . S
C2017 C2016 1.390 . S
C2017 C2018 1.394 . S
C2017 C2023 1.465 . S
C2018 C2013 1.399 . S
C2018 C2017 1.394 . S
C2018 C2019 1.516 . S
C2019 C2018 1.516 . S
C2019 C2020 1.502 . S
C2019 C2021 1.561 . S
C2019 C2022 1.526 . S
C2020 H2004 0.959 . S
C2020 H2005 0.959 . S
C2020 H2006 0.961 . S
C2020 C2019 1.502 . S
C2021 H2007 0.960 . S
C2021 H2008 0.961 . S
C2021 H2009 0.959 . S
C2021 C2019 1.561 . S
C2022 C2019 1.526 . S
C2022 C2023 1.396 . S
C2022 C2027 1.390 . S
C2023 C2017 1.465 . S
C2023 C2022 1.396 . S
C2023 C2024 1.399 . S
C2024 H2010 0.929 . S
C2024 C2023 1.399 . S
C2024 C2025 1.385 . S
C2025 H2011 0.931 . S
C2025 C2024 1.385 . S
C2025 C2026 1.389 . S
C2026 C2025 1.389 . S
C2026 C2027 1.387 . S
C2027 H2012 0.930 . S
C2027 C2022 1.390 . S
C2027 C2026 1.387 . S
H2028 C2040 0.930 . S
H2029 C2042 0.930 . S
H2030 C2043 0.930 . S
H2031 C2047 0.959 . S
H2032 C2047 0.959 . S
H2033 C2047 0.961 . S
H2034 C2048 0.960 . S
H2035 C2048 0.961 . S
H2036 C2048 0.959 . S
H2037 C2051 0.929 . S
H2038 C2052 0.931 . S
H2039 C2054 0.930 . S
C2040 H2028 0.930 . S
C2040 C2041 1.399 . S
C2040 C2045 1.399 . S
C2041 C2040 1.399 . S
C2041 C2042 1.376 . S
C2042 H2029 0.930 . S
C2042 C2041 1.376 . S
C2042 C2043 1.388 . S
C2043 H2030 0.930 . S
C2043 C2042 1.388 . S
C2043 C2044 1.390 . S
C2044 C2043 1.390 . S
C2044 C2045 1.394 . S
C2044 C2050 1.465 . S
C2045 C2040 1.399 . S
C2045 C2044 1.394 . S
C2045 C2046 1.516 . S
C2046 C2045 1.516 . S
C2046 C2047 1.502 . S
C2046 C2048 1.561 . S
C2046 C2049 1.526 . S
C2047 H2031 0.959 . S
C2047 H2032 0.959 . S
C2047 H2033 0.961 . S
C2047 C2046 1.502 . S
C2048 H2034 0.960 . S
C2048 H2035 0.961 . S
C2048 H2036 0.959 . S
C2048 C2046 1.561 . S
C2049 C2046 1.526 . S
C2049 C2050 1.396 . S
C2049 C2054 1.390 . S
C2050 C2044 1.465 . S
C2050 C2049 1.396 . S
C2050 C2051 1.399 . S
C2051 H2037 0.929 . S
C2051 C2050 1.399 . S
C2051 C2052 1.385 . S
C2052 H2038 0.931 . S
C2052 C2051 1.385 . S
C2052 C2053 1.389 . S
C2053 C2052 1.389 . S
C2053 C2054 1.387 . S
C2054 H2039 0.930 . S
C2054 C2049 1.390 . S
C2054 C2053 1.387 . S
H2055 C2067 0.930 . S
H2056 C2069 0.930 . S
H2057 C2070 0.930 . S
H2058 C2074 0.959 . S
H2059 C2074 0.959 . S
H2060 C2074 0.961 . S
H2061 C2075 0.960 . S
H2062 C2075 0.961 . S
H2063 C2075 0.959 . S
H2064 C2078 0.929 . S
H2065 C2079 0.931 . S
H2066 C2081 0.930 . S
C2067 H2055 0.930 . S
C2067 C2068 1.399 . S
C2067 C2072 1.399 . S
C2068 C2067 1.399 . S
C2068 C2069 1.376 . S
C2069 H2056 0.930 . S
C2069 C2068 1.376 . S
C2069 C2070 1.388 . S
C2070 H2057 0.930 . S
C2070 C2069 1.388 . S
C2070 C2071 1.390 . S
C2071 C2070 1.390 . S
C2071 C2072 1.394 . S
C2071 C2077 1.465 . S
C2072 C2067 1.399 . S
C2072 C2071 1.394 . S
C2072 C2073 1.516 . S
C2073 C2072 1.516 . S
C2073 C2074 1.502 . S
C2073 C2075 1.561 . S
C2073 C2076 1.526 . S
C2074 H2058 0.959 . S
C2074 H2059 0.959 . S
C2074 H2060 0.961 . S
C2074 C2073 1.502 . S
C2075 H2061 0.960 . S
C2075 H2062 0.961 . S
C2075 H2063 0.959 . S
C2075 C2073 1.561 . S
C2076 C2073 1.526 . S
C2076 C2077 1.396 . S
C2076 C2081 1.390 . S
C2077 C2071 1.465 . S
C2077 C2076 1.396 . S
C2077 C2078 1.399 . S
C2078 H2064 0.929 . S
C2078 C2077 1.399 . S
C2078 C2079 1.385 . S
C2079 H2065 0.931 . S
C2079 C2078 1.385 . S
C2079 C2080 1.389 . S
C2080 C2079 1.389 . S
C2080 C2081 1.387 . S
C2081 H2066 0.930 . S
C2081 C2076 1.390 . S
C2081 C2080 1.387 . S
H2082 C2094 0.930 . S
H2083 C2096 0.930 . S
H2084 C2097 0.930 . S
H2085 C2101 0.959 . S
H2086 C2101 0.959 . S
H2087 C2101 0.961 . S
H2088 C2102 0.960 . S
H2089 C2102 0.961 . S
H2090 C2102 0.959 . S
H2091 C2105 0.929 . S
H2092 C2106 0.931 . S
H2093 C2108 0.930 . S
C2094 H2082 0.930 . S
C2094 C2095 1.399 . S
C2094 C2099 1.399 . S
C2095 C2094 1.399 . S
C2095 C2096 1.376 . S
C2096 H2083 0.930 . S
C2096 C2095 1.376 . S
C2096 C2097 1.388 . S
C2097 H2084 0.930 . S
C2097 C2096 1.388 . S
C2097 C2098 1.390 . S
C2098 C2097 1.390 . S
C2098 C2099 1.394 . S
C2098 C2104 1.465 . S
C2099 C2094 1.399 . S
C2099 C2098 1.394 . S
C2099 C2100 1.516 . S
C2100 C2099 1.516 . S
C2100 C2101 1.502 . S
C2100 C2102 1.561 . S
C2100 C2103 1.526 . S
C2101 H2085 0.959 . S
C2101 H2086 0.959 . S
C2101 H2087 0.961 . S
C2101 C2100 1.502 . S
C2102 H2088 0.960 . S
C2102 H2089 0.961 . S
C2102 H2090 0.959 . S
C2102 C2100 1.561 . S
C2103 C2100 1.526 . S
C2103 C2104 1.396 . S
C2103 C2108 1.390 . S
C2104 C2098 1.465 . S
C2104 C2103 1.396 . S
C2104 C2105 1.399 . S
C2105 H2091 0.929 . S
C2105 C2104 1.399 . S
C2105 C2106 1.385 . S
C2106 H2092 0.931 . S
C2106 C2105 1.385 . S
C2106 C2107 1.389 . S
C2107 C2106 1.389 . S
C2107 C2108 1.387 . S
C2108 H2093 0.930 . S
C2108 C2103 1.390 . S
C2108 C2107 1.387 . S
H2109 C2121 0.930 . S
H2110 C2123 0.930 . S
H2111 C2124 0.930 . S
H2112 C2128 0.959 . S
H2113 C2128 0.959 . S
H2114 C2128 0.961 . S
H2115 C2129 0.960 . S
H2116 C2129 0.961 . S
H2117 C2129 0.959 . S
H2118 C2132 0.929 . S
H2119 C2133 0.931 . S
H2120 C2135 0.930 . S
C2121 H2109 0.930 . S
C2121 C2122 1.399 . S
C2121 C2126 1.399 . S
C2122 C2121 1.399 . S
C2122 C2123 1.376 . S
C2123 H2110 0.930 . S
C2123 C2122 1.376 . S
C2123 C2124 1.388 . S
C2124 H2111 0.930 . S
C2124 C2123 1.388 . S
C2124 C2125 1.390 . S
C2125 C2124 1.390 . S
C2125 C2126 1.394 . S
C2125 C2131 1.465 . S
C2126 C2121 1.399 . S
C2126 C2125 1.394 . S
C2126 C2127 1.516 . S
C2127 C2126 1.516 . S
C2127 C2128 1.502 . S
C2127 C2129 1.561 . S
C2127 C2130 1.526 . S
C2128 H2112 0.959 . S
C2128 H2113 0.959 . S
C2128 H2114 0.961 . S
C2128 C2127 1.502 . S
C2129 H2115 0.960 . S
C2129 H2116 0.961 . S
C2129 H2117 0.959 . S
C2129 C2127 1.561 . S
C2130 C2127 1.526 . S
C2130 C2131 1.396 . S
C2130 C2135 1.390 . S
C2131 C2125 1.465 . S
C2131 C2130 1.396 . S
C2131 C2132 1.399 . S
C2132 H2118 0.929 . S
C2132 C2131 1.399 . S
C2132 C2133 1.385 . S
C2133 H2119 0.931 . S
C2133 C2132 1.385 . S
C2133 C2134 1.389 . S
C2134 C2133 1.389 . S
C2134 C2135 1.387 . S
C2135 H2120 0.930 . S
C2135 C2130 1.390 . S
C2135 C2134 1.387 . S
H2136 C2148 0.930 . S
H2137 C2150 0.930 . S
H2138 C2151 0.930 . S
H2139 C2155 0.959 . S
H2140 C2155 0.959 . S
H2141 C2155 0.961 . S
H2142 C2156 0.960 . S
H2143 C2156 0.961 . S
H2144 C2156 0.959 . S
H2145 C2159 0.929 . S
H2146 C2160 0.931 . S
H2147 C2162 0.930 . S
C2148 H2136 0.930 . S
C2148 C2149 1.399 . S
C2148 C2153 1.399 . S
C2149 C2148 1.399 . S
C2149 C2150 1.376 . S
C2150 H2137 0.930 . S
C2150 C2149 1.376 . S
C2150 C2151 1.388 . S
C2151 H2138 0.930 . S
C2151 C2150 1.388 . S
C2151 C2152 1.390 . S
C2152 C2151 1.390 . S
C2152 C2153 1.394 . S
C2152 C2158 1.465 . S
C2153 C2148 1.399 . S
C2153 C2152 1.394 . S
C2153 C2154 1.516 . S
C2154 C2153 1.516 . S
C2154 C2155 1.502 . S
C2154 C2156 1.561 . S
C2154 C2157 1.526 . S
C2155 H2139 0.959 . S
C2155 H2140 0.959 . S
C2155 H2141 0.961 . S
C2155 C2154 1.502 . S
C2156 H2142 0.960 . S
C2156 H2143 0.961 . S
C2156 H2144 0.959 . S
C2156 C2154 1.561 . S
C2157 C2154 1.526 . S
C2157 C2158 1.396 . S
C2157 C2162 1.390 . S
C2158 C2152 1.465 . S
C2158 C2157 1.396 . S
C2158 C2159 1.399 . S
C2159 H2145 0.929 . S
C2159 C2158 1.399 . S
C2159 C2160 1.385 . S
C2160 H2146 0.931 . S
C2160 C2159 1.385 . S
C2160 C2161 1.389 . S
C2161 C2160 1.389 . S
C2161 C2162 1.387 . S
C2162 H2147 0.930 . S
C2162 C2157 1.390 . S
C2162 C2161 1.387 . S
H2163 C2175 0.930 . S
H2164 C2177 0.930 . S
H2165 C2178 0.930 . S
H2166 C2182 0.959 . S
H2167 C2182 0.959 . S
H2168 C2182 0.961 . S
H2169 C2183 0.960 . S
H2170 C2183 0.961 . S
H2171 C2183 0.959 . S
H2172 C2186 0.929 . S
H2173 C2187 0.931 . S
H2174 C2189 0.930 . S
C2175 H2163 0.930 . S
C2175 C2176 1.399 . S
C2175 C2180 1.399 . S
C2176 C2175 1.399 . S
C2176 C2177 1.376 . S
C2177 H2164 0.930 . S
C2177 C2176 1.376 . S
C2177 C2178 1.388 . S
C2178 H2165 0.930 . S
C2178 C2177 1.388 . S
C2178 C2179 1.390 . S
C2179 C2178 1.390 . S
C2179 C2180 1.394 . S
C2179 C2185 1.465 . S
C2180 C2175 1.399 . S
C2180 C2179 1.394 . S
C2180 C2181 1.516 . S
C2181 C2180 1.516 . S
C2181 C2182 1.502 . S
C2181 C2183 1.561 . S
C2181 C2184 1.526 . S
C2182 H2166 0.959 . S
C2182 H2167 0.959 . S
C2182 H2168 0.961 . S
C2182 C2181 1.502 . S
C2183 H2169 0.960 . S
C2183 H2170 0.961 . S
C2183 H2171 0.959 . S
C2183 C2181 1.561 . S
C2184 C2181 1.526 . S
C2184 C2185 1.396 . S
C2184 C2189 1.390 . S
C2185 C2179 1.465 . S
C2185 C2184 1.396 . S
C2185 C2186 1.399 . S
C2186 H2172 0.929 . S
C2186 C2185 1.399 . S
C2186 C2187 1.385 . S
C2187 H2173 0.931 . S
C2187 C2186 1.385 . S
C2187 C2188 1.389 . S
C2188 C2187 1.389 . S
C2188 C2189 1.387 . S
C2189 H2174 0.930 . S
C2189 C2184 1.390 . S
C2189 C2188 1.387 . S
H2190 C2202 0.930 . S
H2191 C2204 0.930 . S
H2192 C2205 0.930 . S
H2193 C2209 0.959 . S
H2194 C2209 0.959 . S
H2195 C2209 0.961 . S
H2196 C2210 0.960 . S
H2197 C2210 0.961 . S
H2198 C2210 0.959 . S
H2199 C2213 0.929 . S
H2200 C2214 0.931 . S
H2201 C2216 0.930 . S
C2202 H2190 0.930 . S
C2202 C2203 1.399 . S
C2202 C2207 1.399 . S
C2203 C2202 1.399 . S
C2203 C2204 1.376 . S
C2204 H2191 0.930 . S
C2204 C2203 1.376 . S
C2204 C2205 1.388 . S
C2205 H2192 0.930 . S
C2205 C2204 1.388 . S
C2205 C2206 1.390 . S
C2206 C2205 1.390 . S
C2206 C2207 1.394 . S
C2206 C2212 1.465 . S
C2207 C2202 1.399 . S
C2207 C2206 1.394 . S
C2207 C2208 1.516 . S
C2208 C2207 1.516 . S
C2208 C2209 1.502 . S
C2208 C2210 1.561 . S
C2208 C2211 1.526 . S
C2209 H2193 0.959 . S
C2209 H2194 0.959 . S
C2209 H2195 0.961 . S
C2209 C2208 1.502 . S
C2210 H2196 0.960 . S
C2210 H2197 0.961 . S
C2210 H2198 0.959 . S
C2210 C2208 1.561 . S
C2211 C2208 1.526 . S
C2211 C2212 1.396 . S
C2211 C2216 1.390 . S
C2212 C2206 1.465 . S
C2212 C2211 1.396 . S
C2212 C2213 1.399 . S
C2213 H2199 0.929 . S
C2213 C2212 1.399 . S
C2213 C2214 1.385 . S
C2214 H2200 0.931 . S
C2214 C2213 1.385 . S
C2214 C2215 1.389 . S
C2215 C2214 1.389 . S
C2215 C2216 1.387 . S
C2216 H2201 0.930 . S
C2216 C2211 1.390 . S
C2216 C2215 1.387 . S
H2217 C2229 0.930 . S
H2218 C2231 0.930 . S
H2219 C2232 0.930 . S
H2220 C2236 0.959 . S
H2221 C2236 0.959 . S
H2222 C2236 0.961 . S
H2223 C2237 0.960 . S
H2224 C2237 0.961 . S
H2225 C2237 0.959 . S
H2226 C2240 0.929 . S
H2227 C2241 0.931 . S
H2228 C2243 0.930 . S
C2229 H2217 0.930 . S
C2229 C2230 1.399 . S
C2229 C2234 1.399 . S
C2230 C2229 1.399 . S
C2230 C2231 1.376 . S
C2231 H2218 0.930 . S
C2231 C2230 1.376 . S
C2231 C2232 1.388 . S
C2232 H2219 0.930 . S
C2232 C2231 1.388 . S
C2232 C2233 1.390 . S
C2233 C2232 1.390 . S
C2233 C2234 1.394 . S
C2233 C2239 1.465 . S
C2234 C2229 1.399 . S
C2234 C2233 1.394 . S
C2234 C2235 1.516 . S
C2235 C2234 1.516 . S
C2235 C2236 1.502 . S
C2235 C2237 1.561 . S
C2235 C2238 1.526 . S
C2236 H2220 0.959 . S
C2236 H2221 0.959 . S
C2236 H2222 0.961 . S
C2236 C2235 1.502 . S
C2237 H2223 0.960 . S
C2237 H2224 0.961 . S
C2237 H2225 0.959 . S
C2237 C2235 1.561 . S
C2238 C2235 1.526 . S
C2238 C2239 1.396 . S
C2238 C2243 1.390 . S
C2239 C2233 1.465 . S
C2239 C2238 1.396 . S
C2239 C2240 1.399 . S
C2240 H2226 0.929 . S
C2240 C2239 1.399 . S
C2240 C2241 1.385 . S
C2241 H2227 0.931 . S
C2241 C2240 1.385 . S
C2241 C2242 1.389 . S
C2242 C2241 1.389 . S
C2242 C2243 1.387 . S
C2243 H2228 0.930 . S
C2243 C2238 1.390 . S
C2243 C2242 1.387 . S
H2244 C2256 0.930 . S
H2245 C2258 0.930 . S
H2246 C2259 0.930 . S
H2247 C2263 0.959 . S
H2248 C2263 0.959 . S
H2249 C2263 0.961 . S
H2250 C2264 0.960 . S
H2251 C2264 0.961 . S
H2252 C2264 0.959 . S
H2253 C2267 0.929 . S
H2254 C2268 0.931 . S
H2255 C2270 0.930 . S
C2256 H2244 0.930 . S
C2256 C2257 1.399 . S
C2256 C2261 1.399 . S
C2257 C2256 1.399 . S
C2257 C2258 1.376 . S
C2258 H2245 0.930 . S
C2258 C2257 1.376 . S
C2258 C2259 1.388 . S
C2259 H2246 0.930 . S
C2259 C2258 1.388 . S
C2259 C2260 1.390 . S
C2260 C2259 1.390 . S
C2260 C2261 1.394 . S
C2260 C2266 1.465 . S
C2261 C2256 1.399 . S
C2261 C2260 1.394 . S
C2261 C2262 1.516 . S
C2262 C2261 1.516 . S
C2262 C2263 1.502 . S
C2262 C2264 1.561 . S
C2262 C2265 1.526 . S
C2263 H2247 0.959 . S
C2263 H2248 0.959 . S
C2263 H2249 0.961 . S
C2263 C2262 1.502 . S
C2264 H2250 0.960 . S
C2264 H2251 0.961 . S
C2264 H2252 0.959 . S
C2264 C2262 1.561 . S
C2265 C2262 1.526 . S
C2265 C2266 1.396 . S
C2265 C2270 1.390 . S
C2266 C2260 1.465 . S
C2266 C2265 1.396 . S
C2266 C2267 1.399 . S
C2267 H2253 0.929 . S
C2267 C2266 1.399 . S
C2267 C2268 1.385 . S
C2268 H2254 0.931 . S
C2268 C2267 1.385 . S
C2268 C2269 1.389 . S
C2269 C2268 1.389 . S
C2269 C2270 1.387 . S
C2270 H2255 0.930 . S
C2270 C2265 1.390 . S
C2270 C2269 1.387 . S
H2271 C2283 0.930 . S
H2272 C2285 0.930 . S
H2273 C2286 0.930 . S
H2274 C2290 0.959 . S
H2275 C2290 0.959 . S
H2276 C2290 0.961 . S
H2277 C2291 0.960 . S
H2278 C2291 0.961 . S
H2279 C2291 0.959 . S
H2280 C2294 0.929 . S
H2281 C2295 0.931 . S
H2282 C2297 0.930 . S
C2283 H2271 0.930 . S
C2283 C2284 1.399 . S
C2283 C2288 1.399 . S
C2284 C2283 1.399 . S
C2284 C2285 1.376 . S
C2285 H2272 0.930 . S
C2285 C2284 1.376 . S
C2285 C2286 1.388 . S
C2286 H2273 0.930 . S
C2286 C2285 1.388 . S
C2286 C2287 1.390 . S
C2287 C2286 1.390 . S
C2287 C2288 1.394 . S
C2287 C2293 1.465 . S
C2288 C2283 1.399 . S
C2288 C2287 1.394 . S
C2288 C2289 1.516 . S
C2289 C2288 1.516 . S
C2289 C2290 1.502 . S
C2289 C2291 1.561 . S
C2289 C2292 1.526 . S
C2290 H2274 0.959 . S
C2290 H2275 0.959 . S
C2290 H2276 0.961 . S
C2290 C2289 1.502 . S
C2291 H2277 0.960 . S
C2291 H2278 0.961 . S
C2291 H2279 0.959 . S
C2291 C2289 1.561 . S
C2292 C2289 1.526 . S
C2292 C2293 1.396 . S
C2292 C2297 1.390 . S
C2293 C2287 1.465 . S
C2293 C2292 1.396 . S
C2293 C2294 1.399 . S
C2294 H2280 0.929 . S
C2294 C2293 1.399 . S
C2294 C2295 1.385 . S
C2295 H2281 0.931 . S
C2295 C2294 1.385 . S
C2295 C2296 1.389 . S
C2296 C2295 1.389 . S
C2296 C2297 1.387 . S
C2297 H2282 0.930 . S
C2297 C2292 1.390 . S
C2297 C2296 1.387 . S
H2298 C2310 0.930 . S
H2299 C2312 0.930 . S
H2300 C2313 0.930 . S
H2301 C2317 0.959 . S
H2302 C2317 0.959 . S
H2303 C2317 0.961 . S
H2304 C2318 0.960 . S
H2305 C2318 0.961 . S
H2306 C2318 0.959 . S
H2307 C2321 0.929 . S
H2308 C2322 0.931 . S
H2309 C2324 0.930 . S
C2310 H2298 0.930 . S
C2310 C2311 1.399 . S
C2310 C2315 1.399 . S
C2311 C2310 1.399 . S
C2311 C2312 1.376 . S
C2312 H2299 0.930 . S
C2312 C2311 1.376 . S
C2312 C2313 1.388 . S
C2313 H2300 0.930 . S
C2313 C2312 1.388 . S
C2313 C2314 1.390 . S
C2314 C2313 1.390 . S
C2314 C2315 1.394 . S
C2314 C2320 1.465 . S
C2315 C2310 1.399 . S
C2315 C2314 1.394 . S
C2315 C2316 1.516 . S
C2316 C2315 1.516 . S
C2316 C2317 1.502 . S
C2316 C2318 1.561 . S
C2316 C2319 1.526 . S
C2317 H2301 0.959 . S
C2317 H2302 0.959 . S
C2317 H2303 0.961 . S
C2317 C2316 1.502 . S
C2318 H2304 0.960 . S
C2318 H2305 0.961 . S
C2318 H2306 0.959 . S
C2318 C2316 1.561 . S
C2319 C2316 1.526 . S
C2319 C2320 1.396 . S
C2319 C2324 1.390 . S
C2320 C2314 1.465 . S
C2320 C2319 1.396 . S
C2320 C2321 1.399 . S
C2321 H2307 0.929 . S
C2321 C2320 1.399 . S
C2321 C2322 1.385 . S
C2322 H2308 0.931 . S
C2322 C2321 1.385 . S
C2322 C2323 1.389 . S
C2323 C2322 1.389 . S
C2323 C2324 1.387 . S
C2324 H2309 0.930 . S
C2324 C2319 1.390 . S
C2324 C2323 1.387 . S
H2325 C2337 0.930 . S
H2326 C2339 0.930 . S
H2327 C2340 0.930 . S
H2328 C2344 0.959 . S
H2329 C2344 0.959 . S
H2330 C2344 0.961 . S
H2331 C2345 0.960 . S
H2332 C2345 0.961 . S
H2333 C2345 0.959 . S
H2334 C2348 0.929 . S
H2335 C2349 0.931 . S
H2336 C2351 0.930 . S
C2337 H2325 0.930 . S
C2337 C2338 1.399 . S
C2337 C2342 1.399 . S
C2338 C2337 1.399 . S
C2338 C2339 1.376 . S
C2339 H2326 0.930 . S
C2339 C2338 1.376 . S
C2339 C2340 1.388 . S
C2340 H2327 0.930 . S
C2340 C2339 1.388 . S
C2340 C2341 1.390 . S
C2341 C2340 1.390 . S
C2341 C2342 1.394 . S
C2341 C2347 1.465 . S
C2342 C2337 1.399 . S
C2342 C2341 1.394 . S
C2342 C2343 1.516 . S
C2343 C2342 1.516 . S
C2343 C2344 1.502 . S
C2343 C2345 1.561 . S
C2343 C2346 1.526 . S
C2344 H2328 0.959 . S
C2344 H2329 0.959 . S
C2344 H2330 0.961 . S
C2344 C2343 1.502 . S
C2345 H2331 0.960 . S
C2345 H2332 0.961 . S
C2345 H2333 0.959 . S
C2345 C2343 1.561 . S
C2346 C2343 1.526 . S
C2346 C2347 1.396 . S
C2346 C2351 1.390 . S
C2347 C2341 1.465 . S
C2347 C2346 1.396 . S
C2347 C2348 1.399 . S
C2348 H2334 0.929 . S
C2348 C2347 1.399 . S
C2348 C2349 1.385 . S
C2349 H2335 0.931 . S
C2349 C2348 1.385 . S
C2349 C2350 1.389 . S
C2350 C2349 1.389 . S
C2350 C2351 1.387 . S
C2351 H2336 0.930 . S
C2351 C2346 1.390 . S
C2351 C2350 1.387 . S
H2352 C2364 0.930 . S
H2353 C2366 0.930 . S
H2354 C2367 0.930 . S
H2355 C2371 0.959 . S
H2356 C2371 0.959 . S
H2357 C2371 0.961 . S
H2358 C2372 0.960 . S
H2359 C2372 0.961 . S
H2360 C2372 0.959 . S
H2361 C2375 0.929 . S
H2362 C2376 0.931 . S
H2363 C2378 0.930 . S
C2364 H2352 0.930 . S
C2364 C2365 1.399 . S
C2364 C2369 1.399 . S
C2365 C2364 1.399 . S
C2365 C2366 1.376 . S
C2366 H2353 0.930 . S
C2366 C2365 1.376 . S
C2366 C2367 1.388 . S
C2367 H2354 0.930 . S
C2367 C2366 1.388 . S
C2367 C2368 1.390 . S
C2368 C2367 1.390 . S
C2368 C2369 1.394 . S
C2368 C2374 1.465 . S
C2369 C2364 1.399 . S
C2369 C2368 1.394 . S
C2369 C2370 1.516 . S
C2370 C2369 1.516 . S
C2370 C2371 1.502 . S
C2370 C2372 1.561 . S
C2370 C2373 1.526 . S
C2371 H2355 0.959 . S
C2371 H2356 0.959 . S
C2371 H2357 0.961 . S
C2371 C2370 1.502 . S
C2372 H2358 0.960 . S
C2372 H2359 0.961 . S
C2372 H2360 0.959 . S
C2372 C2370 1.561 . S
C2373 C2370 1.526 . S
C2373 C2374 1.396 . S
C2373 C2378 1.390 . S
C2374 C2368 1.465 . S
C2374 C2373 1.396 . S
C2374 C2375 1.399 . S
C2375 H2361 0.929 . S
C2375 C2374 1.399 . S
C2375 C2376 1.385 . S
C2376 H2362 0.931 . S
C2376 C2375 1.385 . S
C2376 C2377 1.389 . S
C2377 C2376 1.389 . S
C2377 C2378 1.387 . S
C2378 H2363 0.930 . S
C2378 C2373 1.390 . S
C2378 C2377 1.387 . S
H2379 C2391 0.930 . S
H2380 C2393 0.930 . S
H2381 C2394 0.930 . S
H2382 C2398 0.959 . S
H2383 C2398 0.959 . S
H2384 C2398 0.961 . S
H2385 C2399 0.960 . S
H2386 C2399 0.961 . S
H2387 C2399 0.959 . S
H2388 C2402 0.929 . S
H2389 C2403 0.931 . S
H2390 C2405 0.930 . S
C2391 H2379 0.930 . S
C2391 C2392 1.399 . S
C2391 C2396 1.399 . S
C2392 C2391 1.399 . S
C2392 C2393 1.376 . S
C2393 H2380 0.930 . S
C2393 C2392 1.376 . S
C2393 C2394 1.388 . S
C2394 H2381 0.930 . S
C2394 C2393 1.388 . S
C2394 C2395 1.390 . S
C2395 C2394 1.390 . S
C2395 C2396 1.394 . S
C2395 C2401 1.465 . S
C2396 C2391 1.399 . S
C2396 C2395 1.394 . S
C2396 C2397 1.516 . S
C2397 C2396 1.516 . S
C2397 C2398 1.502 . S
C2397 C2399 1.561 . S
C2397 C2400 1.526 . S
C2398 H2382 0.959 . S
C2398 H2383 0.959 . S
C2398 H2384 0.961 . S
C2398 C2397 1.502 . S
C2399 H2385 0.960 . S
C2399 H2386 0.961 . S
C2399 H2387 0.959 . S
C2399 C2397 1.561 . S
C2400 C2397 1.526 . S
C2400 C2401 1.396 . S
C2400 C2405 1.390 . S
C2401 C2395 1.465 . S
C2401 C2400 1.396 . S
C2401 C2402 1.399 . S
C2402 H2388 0.929 . S
C2402 C2401 1.399 . S
C2402 C2403 1.385 . S
C2403 H2389 0.931 . S
C2403 C2402 1.385 . S
C2403 C2404 1.389 . S
C2404 C2403 1.389 . S
C2404 C2405 1.387 . S
C2405 H2390 0.930 . S
C2405 C2400 1.390 . S
C2405 C2404 1.387 . S
H2406 C2418 0.930 . S
H2407 C2420 0.930 . S
H2408 C2421 0.930 . S
H2409 C2425 0.959 . S
H2410 C2425 0.959 . S
H2411 C2425 0.961 . S
H2412 C2426 0.960 . S
H2413 C2426 0.961 . S
H2414 C2426 0.959 . S
H2415 C2429 0.929 . S
H2416 C2430 0.931 . S
H2417 C2432 0.930 . S
C2418 H2406 0.930 . S
C2418 C2419 1.399 . S
C2418 C2423 1.399 . S
C2419 C2418 1.399 . S
C2419 C2420 1.376 . S
C2420 H2407 0.930 . S
C2420 C2419 1.376 . S
C2420 C2421 1.388 . S
C2421 H2408 0.930 . S
C2421 C2420 1.388 . S
C2421 C2422 1.390 . S
C2422 C2421 1.390 . S
C2422 C2423 1.394 . S
C2422 C2428 1.465 . S
C2423 C2418 1.399 . S
C2423 C2422 1.394 . S
C2423 C2424 1.516 . S
C2424 C2423 1.516 . S
C2424 C2425 1.502 . S
C2424 C2426 1.561 . S
C2424 C2427 1.526 . S
C2425 H2409 0.959 . S
C2425 H2410 0.959 . S
C2425 H2411 0.961 . S
C2425 C2424 1.502 . S
C2426 H2412 0.960 . S
C2426 H2413 0.961 . S
C2426 H2414 0.959 . S
C2426 C2424 1.561 . S
C2427 C2424 1.526 . S
C2427 C2428 1.396 . S
C2427 C2432 1.390 . S
C2428 C2422 1.465 . S
C2428 C2427 1.396 . S
C2428 C2429 1.399 . S
C2429 H2415 0.929 . S
C2429 C2428 1.399 . S
C2429 C2430 1.385 . S
C2430 H2416 0.931 . S
C2430 C2429 1.385 . S
C2430 C2431 1.389 . S
C2431 C2430 1.389 . S
C2431 C2432 1.387 . S
C2432 H2417 0.930 . S
C2432 C2427 1.390 . S
C2432 C2431 1.387 . S
H2433 C2445 0.930 . S
H2434 C2447 0.930 . S
H2435 C2448 0.930 . S
H2436 C2452 0.959 . S
H2437 C2452 0.959 . S
H2438 C2452 0.961 . S
H2439 C2453 0.960 . S
H2440 C2453 0.961 . S
H2441 C2453 0.959 . S
H2442 C2456 0.929 . S
H2443 C2457 0.931 . S
H2444 C2459 0.930 . S
C2445 H2433 0.930 . S
C2445 C2446 1.399 . S
C2445 C2450 1.399 . S
C2446 C2445 1.399 . S
C2446 C2447 1.376 . S
C2447 H2434 0.930 . S
C2447 C2446 1.376 . S
C2447 C2448 1.388 . S
C2448 H2435 0.930 . S
C2448 C2447 1.388 . S
C2448 C2449 1.390 . S
C2449 C2448 1.390 . S
C2449 C2450 1.394 . S
C2449 C2455 1.465 . S
C2450 C2445 1.399 . S
C2450 C2449 1.394 . S
C2450 C2451 1.516 . S
C2451 C2450 1.516 . S
C2451 C2452 1.502 . S
C2451 C2453 1.561 . S
C2451 C2454 1.526 . S
C2452 H2436 0.959 . S
C2452 H2437 0.959 . S
C2452 H2438 0.961 . S
C2452 C2451 1.502 . S
C2453 H2439 0.960 . S
C2453 H2440 0.961 . S
C2453 H2441 0.959 . S
C2453 C2451 1.561 . S
C2454 C2451 1.526 . S
C2454 C2455 1.396 . S
C2454 C2459 1.390 . S
C2455 C2449 1.465 . S
C2455 C2454 1.396 . S
C2455 C2456 1.399 . S
C2456 H2442 0.929 . S
C2456 C2455 1.399 . S
C2456 C2457 1.385 . S
C2457 H2443 0.931 . S
C2457 C2456 1.385 . S
C2457 C2458 1.389 . S
C2458 C2457 1.389 . S
C2458 C2459 1.387 . S
C2459 H2444 0.930 . S
C2459 C2454 1.390 . S
C2459 C2458 1.387 . S
C541 C222 1.126 . S
C529 C212 1.129 . S
C556 C194 1.132 . S
C568 C220 1.129 . S
C595 C221 1.129 . S
C583 C185 1.125 . S
C610 C203 1.128 . S
C622 C223 1.125 . S
C649 C267 1.129 . S
C637 C149 1.130 . S
C676 C327 1.129 . S
C664 C158 1.131 . S
C691 C167 1.127 . S
C703 C266 1.125 . S
C730 C326 1.132 . S
C718 C176 1.128 . S
C745 C113 1.124 . S
C757 C268 1.125 . S
C784 C324 1.129 . S
C772 C122 1.126 . S
C799 C131 1.130 . S
C811 C269 1.129 . S
C826 C140 1.128 . S
C838 C325 1.126 . S
C865 C375 1.125 . S
C853 C104 1.122 . S
C880 C86 1.124 . S
C892 C374 1.127 1_556 S
C907 C77 1.128 . S
C919 C376 1.130 1_556 S
C946 C377 1.127 1_556 S
C934 C95 1.125 . S
C961 C41 1.127 1_455 S
C973 C418 1.126 . S
C988 C50 1.129 1_545 S
C1000 C477 1.128 . S
C1015 C59 1.123 . S
C1027 C416 1.124 1_655 S
C1042 C68 1.127 . S
C1054 C476 1.129 1_565 S
C1081 C417 1.129 1_655 S
C1069 C5 1.127 1_455 S
C1108 C474 1.129 1_565 S
C1096 C14 1.131 1_565 S
C1123 C23 1.130 . S
C1135 C419 1.129 . S
C1162 C475 1.128 . S
C1150 C32 1.126 . S
C1189 C219 1.546 1_655 S
C1177 C4 1.521 1_655 S
C1204 C16 1.457 1_565 S
C1216 C225 1.549 1_565 S
C1231 C22 1.511 . S
C1243 C217 1.550 . S
C1258 C31 1.469 . S
C1270 C224 1.556 . S
C1285 C40 1.522 1_655 S
C1297 C216 1.546 1_655 S
C1324 C226 1.555 1_565 S
C1312 C49 1.470 1_565 S
C1339 C61 1.511 . S
C1351 C218 1.539 1_655 S
C1378 C227 1.549 . S
C1366 C70 1.472 1_545 S
C1405 C273 1.545 . S
C1393 C34 1.505 . S
C1420 C7 1.520 . S
C1432 C316 1.543 1_655 S
C1459 C271 1.559 . S
C1447 C13 1.463 . S
C1486 C318 1.548 . S
C1474 C25 1.467 . S
C1501 C52 1.508 . S
C1513 C272 1.544 1_565 S
C1540 C317 1.550 . S
C1528 C58 1.520 . S
C1567 C270 1.554 . S
C1555 C67 1.524 1_545 S
C1594 C319 1.543 1_655 S
C1582 C43 1.489 . S
C1621 C323 1.558 1_556 S
C1609 C76 1.472 . S
C1636 C88 1.501 . S
C1648 C322 1.547 1_556 S
C1675 C274 1.549 . S
C1663 C79 1.437 1_554 S
C1702 C321 1.542 1_556 S
C1690 C97 1.513 . S
C1717 C103 1.514 1_556 S
C1729 C277 1.548 1_556 S
C1744 C106 1.507 . S
C1756 C320 1.541 . S
C1783 C276 1.551 1_556 S
C1771 C85 1.458 . S
C1810 C275 1.556 1_556 S
C1798 C94 1.454 1_554 S
C1837 C369 1.545 . S
C1825 C112 1.528 . S
C1864 C372 1.551 . S
C1852 C124 1.452 . S
C1879 C133 1.436 . S
C1891 C368 1.549 . S
C1918 C370 1.556 . S
C1906 C139 1.468 . S
C1945 C366 1.549 . S
C1933 C148 1.514 . S
C1960 C157 1.524 . S
C1972 C371 1.553 . S
C1987 C169 1.456 . S
C1999 C367 1.544 . S
C2026 C373 1.550 . S
C2014 C178 1.479 . S
C2053 C427 1.547 . S
C2041 C142 1.445 . S
C2068 C115 1.490 . S
C2080 C466 1.545 . S
C2107 C426 1.554 . S
C2095 C121 1.503 . S
C2134 C468 1.553 . S
C2122 C130 1.496 . S
C2161 C425 1.549 . S
C2149 C160 1.457 . S
C2176 C166 1.483 . S
C2188 C467 1.554 . S
C2215 C424 1.559 . S
C2203 C175 1.500 . S
C2242 C469 1.542 . S
C2230 C151 1.506 . S
C2269 C473 1.557 . S
C2257 C184 1.470 . S
C2284 C196 1.437 . S
C2296 C472 1.551 . S
C2323 C420 1.541 . S
C2311 C187 1.504 . S
C2338 C205 1.507 . S
C2350 C471 1.543 . S
C2377 C423 1.551 . S
C2365 C211 1.517 . S
C2404 C470 1.543 . S
C2392 C214 1.496 . S
C2431 C421 1.550 . S
C2419 C193 1.518 . S
C2446 C202 1.523 . S
C2458 C422 1.549 . S
