# Generated by pormake.
# Topology nom, (4,4)-cn, num edge types: 1
# Building blocks:
#     Node 0, Type 0, BuildingBlock: GIZVER_clean_linker_0, # of connection points: 4
#     Node 1, Type 0, BuildingBlock: GIZVER_clean_linker_0, # of connection points: 4
#     Node 2, Type 0, BuildingBlock: GIZVER_clean_linker_0, # of connection points: 4
#     Node 3, Type 0, BuildingBlock: GIZVER_clean_linker_0, # of connection points: 4
#     Node 4, Type 0, BuildingBlock: GIZVER_clean_linker_0, # of connection points: 4
#     Node 5, Type 0, BuildingBlock: GIZVER_clean_linker_0, # of connection points: 4
#     Node 6, Type 1, BuildingBlock: UXUYUI_clean_sbu_0, # of connection points: 4
#     Node 7, Type 1, BuildingBlock: UXUYUI_clean_sbu_0, # of connection points: 4
#     Node 8, Type 1, BuildingBlock: UXUYUI_clean_sbu_0, # of connection points: 4
#     Node 9, Type 1, BuildingBlock: UXUYUI_clean_sbu_0, # of connection points: 4
#     Node 10, Type 1, BuildingBlock: UXUYUI_clean_sbu_0, # of connection points: 4
#     Node 11, Type 1, BuildingBlock: UXUYUI_clean_sbu_0, # of connection points: 4
#     Edge 12, Type (0, 1), BuildingBlock: OJICUG_clean_linker_0, # of connection points: 2
#     Edge 13, Type (0, 1), BuildingBlock: OJICUG_clean_linker_0, # of connection points: 2
#     Edge 14, Type (0, 1), BuildingBlock: OJICUG_clean_linker_0, # of connection points: 2
#     Edge 15, Type (0, 1), BuildingBlock: OJICUG_clean_linker_0, # of connection points: 2
#     Edge 16, Type (0, 1), BuildingBlock: OJICUG_clean_linker_0, # of connection points: 2
#     Edge 17, Type (0, 1), BuildingBlock: OJICUG_clean_linker_0, # of connection points: 2
#     Edge 18, Type (0, 1), BuildingBlock: OJICUG_clean_linker_0, # of connection points: 2
#     Edge 19, Type (0, 1), BuildingBlock: OJICUG_clean_linker_0, # of connection points: 2
#     Edge 20, Type (0, 1), BuildingBlock: OJICUG_clean_linker_0, # of connection points: 2
#     Edge 21, Type (0, 1), BuildingBlock: OJICUG_clean_linker_0, # of connection points: 2
#     Edge 22, Type (0, 1), BuildingBlock: OJICUG_clean_linker_0, # of connection points: 2
#     Edge 23, Type (0, 1), BuildingBlock: OJICUG_clean_linker_0, # of connection points: 2
#     Edge 24, Type (0, 1), BuildingBlock: OJICUG_clean_linker_0, # of connection points: 2
#     Edge 25, Type (0, 1), BuildingBlock: OJICUG_clean_linker_0, # of connection points: 2
#     Edge 26, Type (0, 1), BuildingBlock: OJICUG_clean_linker_0, # of connection points: 2
#     Edge 27, Type (0, 1), BuildingBlock: OJICUG_clean_linker_0, # of connection points: 2
#     Edge 28, Type (0, 1), BuildingBlock: OJICUG_clean_linker_0, # of connection points: 2
#     Edge 29, Type (0, 1), BuildingBlock: OJICUG_clean_linker_0, # of connection points: 2
#     Edge 30, Type (0, 1), BuildingBlock: OJICUG_clean_linker_0, # of connection points: 2
#     Edge 31, Type (0, 1), BuildingBlock: OJICUG_clean_linker_0, # of connection points: 2
#     Edge 32, Type (0, 1), BuildingBlock: OJICUG_clean_linker_0, # of connection points: 2
#     Edge 33, Type (0, 1), BuildingBlock: OJICUG_clean_linker_0, # of connection points: 2
#     Edge 34, Type (0, 1), BuildingBlock: OJICUG_clean_linker_0, # of connection points: 2
#     Edge 35, Type (0, 1), BuildingBlock: OJICUG_clean_linker_0, # of connection points: 2
# Relax obj value: 0.036
# Max RMSD: 0.149
# Mean RMSD: 0.105
data_MOF--net-nom--node1-UXUYUI_clean_sbu_0--node2-GIZVER_clean_linker_0--edge1-OJICUG_clean_linker_0
_symmetry_space_group_name_H-M    P1
_symmetry_Int_Tables_number       1
_symmetry_cell_setting            triclinic
loop_
_symmetry_equiv_pos_as_xyz
'x, y, z'
_cell_length_a     44.706655
_cell_length_b     44.751989
_cell_length_c     45.017316
_cell_angle_alpha  89.954257
_cell_angle_beta   90.063234
_cell_angle_gamma 120.00072
loop_
_atom_site_label
_atom_site_type_symbol
_atom_site_fract_x
_atom_site_fract_y
_atom_site_fract_z
_atom_type_partial_charge
H0 H 0.97228 0.56876 0.36793 0.0
H1 H 1.0063 0.55395 0.28253 0.0
H2 H 0.90507 0.48096 0.31508 0.0
H3 H 0.02476 0.61386 0.34787 0.0
H4 H 0.02766 0.61432 0.30838 0.0
H5 H 0.04871 0.57962 0.37669 0.0
H6 H 0.14697 0.60112 0.34167 0.0
H7 H 0.07748 0.61701 0.28711 0.0
C8 C 0.96817 0.55304 0.34838 0.0
C9 C 0.93646 0.52245 0.34462 0.0
C10 C 0.99386 0.56415 0.32626 0.0
C11 C 0.98717 0.5446 0.30009 0.0
C12 C 0.95516 0.51434 0.29582 0.0
C13 C 0.93053 0.50314 0.31864 0.0
C14 C 0.02612 0.59916 0.3285 0.0
C15 C 0.05856 0.59672 0.3311 0.0
C16 C 0.06661 0.58684 0.35827 0.0
C17 C 0.09847 0.58821 0.36225 0.0
C18 C 0.12165 0.59831 0.33837 0.0
C19 C 0.11439 0.6088 0.31131 0.0
C20 C 0.08272 0.60789 0.30769 0.0
H21 H 0.43436 0.9703 0.53051 0.0
H22 H 0.46781 1.00047 0.44023 0.0
H23 H 0.44646 0.90127 0.47207 0.0
H24 H 0.4351 0.0202 0.51038 0.0
H25 H 0.43679 0.02517 0.471 0.0
H26 H 0.49331 0.042 0.53822 0.0
H27 H 0.57105 0.14078 0.50515 0.0
H28 H 0.48494 0.07444 0.44991 0.0
C29 C 0.44225 0.96517 0.50926 0.0
C30 C 0.44044 0.93326 0.50439 0.0
C31 C 0.45272 0.98984 0.4863 0.0
C32 C 0.46119 0.98221 0.45831 0.0
C33 C 0.45944 0.95042 0.45322 0.0
C34 C 0.44975 0.92656 0.4765 0.0
C35 C 0.45061 0.02224 0.49037 0.0
C36 C 0.48589 0.05402 0.49333 0.0
C37 C 0.50409 0.0606 0.5203 0.0
C38 C 0.53514 0.09178 0.52466 0.0
C39 C 0.54823 0.11585 0.5014 0.0
C40 C 0.53051 0.10992 0.4744 0.0
C41 C 0.49929 0.07883 0.47041 0.0
H42 H 0.43352 0.48432 0.61697 0.0
H43 H 0.476 0.49152 0.70433 0.0
H44 H 0.45527 0.57016 0.67346 0.0
H45 H 0.4365 0.43627 0.63618 0.0
H46 H 0.43889 0.43393 0.67561 0.0
H47 H 0.4954 0.47238 0.60814 0.0
H48 H 0.57062 0.44683 0.63997 0.0
H49 H 0.48478 0.42783 0.69508 0.0
C50 C 0.44427 0.49862 0.63735 0.0
C51 C 0.44417 0.52963 0.64211 0.0
C52 C 0.45648 0.4851 0.6595 0.0
C53 C 0.46832 0.50274 0.68662 0.0
C54 C 0.46839 0.53374 0.69156 0.0
C55 C 0.45717 0.54736 0.66894 0.0
C56 C 0.45269 0.44983 0.65587 0.0
C57 C 0.48724 0.45176 0.6526 0.0
C58 C 0.50562 0.46356 0.62579 0.0
C59 C 0.53589 0.462 0.62104 0.0
C60 C 0.54834 0.44985 0.64392 0.0
C61 C 0.53009 0.43743 0.67054 0.0
C62 C 0.49954 0.43847 0.67489 0.0
H63 H 0.97123 0.42475 0.78692 0.0
H64 H 1.0065 0.47409 0.87202 0.0
H65 H 0.90468 0.44551 0.8406 0.0
H66 H 0.02474 0.4335 0.80584 0.0
H67 H 0.02772 0.43491 0.84539 0.0
H68 H 0.04565 0.49372 0.77942 0.0
H69 H 0.14511 0.56928 0.81311 0.0
H70 H 0.07902 0.48041 0.86574 0.0
C71 C 0.9673 0.43626 0.80663 0.0
C72 C 0.93563 0.43514 0.81073 0.0
C73 C 0.9933 0.45099 0.82849 0.0
C74 C 0.98702 0.46401 0.85472 0.0
C75 C 0.95509 0.46231 0.85933 0.0
C76 C 0.93003 0.44861 0.83682 0.0
C77 C 0.02586 0.44887 0.82565 0.0
C78 C 0.05786 0.4841 0.82351 0.0
C79 C 0.06436 0.50356 0.79735 0.0
C80 C 0.09572 0.53455 0.79356 0.0
C81 C 0.1201 0.54645 0.81662 0.0
C82 C 0.11449 0.52709 0.84261 0.0
C83 C 0.08314 0.49598 0.84606 0.0
H84 H 0.63078 0.08181 0.0213 0.0
H85 H 0.57126 0.04015 0.94109 0.0
H86 H 0.60868 0.14588 0.96542 0.0
H87 H 0.61562 0.02504 0.00682 0.0
H88 H 0.61347 0.02023 0.96748 0.0
H89 H 0.55723 1.00479 0.03466 0.0
H90 H 0.47814 0.90634 0.00226 0.0
H91 H 0.56576 0.97016 0.94746 0.0
C92 C 0.61742 0.08448 0.00227 0.0
C93 C 0.62097 0.11679 -0.00412 0.0
C94 C 0.59903 0.05642 0.98273 0.0
C95 C 0.58395 0.06107 0.95691 0.0
C96 C 0.58675 0.09317 0.9508 0.0
C97 C 0.60481 0.12052 0.97069 0.0
C98 C 0.60004 0.02342 0.98697 0.0
C99 C 0.56446 0.99205 0.99 0.0
C100 C 0.54618 0.98615 0.01678 0.0
C101 C 0.51483 0.95534 0.02123 0.0
C102 C 0.50134 0.93092 -0.00171 0.0
C103 C 0.5196 0.93585 0.97177 0.0
C104 C 0.55108 0.96663 0.96759 0.0
H105 H 0.62236 0.56697 0.11998 0.0
H106 H 0.57403 0.55183 0.2057 0.0
H107 H 0.5999 0.47781 0.17192 0.0
H108 H 0.61696 0.61276 0.14124 0.0
H109 H 0.61296 0.6121 0.18067 0.0
H110 H 0.55902 0.57824 0.11108 0.0
H111 H 0.48278 0.60189 0.14328 0.0
H112 H 0.56656 0.61726 0.1999 0.0
C113 C 0.61073 0.55109 0.13945 0.0
C114 C 0.61126 0.52012 0.14275 0.0
C115 C 0.59665 0.56235 0.1619 0.0
C116 C 0.58345 0.54247 0.18786 0.0
C117 C 0.58415 0.51163 0.19151 0.0
C118 C 0.59739 0.50045 0.16855 0.0
C119 C 0.60003 0.59765 0.16007 0.0
C120 C 0.5655 0.59581 0.15653 0.0
C121 C 0.54816 0.58586 0.12908 0.0
C122 C 0.51807 0.58771 0.12427 0.0
C123 C 0.50488 0.59861 0.14745 0.0
C124 C 0.52223 0.60955 0.17467 0.0
C125 C 0.55247 0.60787 0.17922 0.0
Li126 Li 0.63273 0.40952 0.43255 0.0
Li127 Li 0.62807 0.36092 0.40718 0.0
Li128 Li 0.6812 0.41615 0.40412 0.0
Li129 Li 0.62721 0.40586 0.37705 0.0
C130 C 0.66084 0.3894 0.46987 0.0
N131 N 0.65895 0.39549 0.53083 0.0
C132 C 0.63426 0.36315 0.48646 0.0
C133 C 0.68653 0.41868 0.48431 0.0
C134 C 0.63375 0.36672 0.51725 0.0
C135 C 0.6851 0.42129 0.51514 0.0
C136 C 0.56213 0.34678 0.40389 0.0
C137 C 0.51223 0.31039 0.37382 0.0
N138 N 0.49896 0.28734 0.39653 0.0
C139 C 0.54789 0.32274 0.42698 0.0
C140 C 0.5441 0.34059 0.3771 0.0
C141 C 0.51598 0.29284 0.4228 0.0
C142 C 0.63675 0.4587 0.47554 0.0
N143 N 0.61802 0.42561 0.46569 0.0
C144 C 0.5738 0.41348 0.50125 0.0
C145 C 0.58705 0.40315 0.47798 0.0
C146 C 0.59247 0.44747 0.51195 0.0
C147 C 0.62448 0.47021 0.49889 0.0
H148 H 0.66105 0.47627 0.46516 0.0
H149 H 0.57255 0.37715 0.46969 0.0
C150 C 0.62659 0.30162 0.42975 0.0
N151 N 0.61113 0.31177 0.40926 0.0
C152 C 0.61457 0.26666 0.43469 0.0
C153 C 0.57182 0.25282 0.39633 0.0
C154 C 0.58501 0.28819 0.39187 0.0
C155 C 0.58633 0.24167 0.41833 0.0
H156 H 0.6479 0.32073 0.44278 0.0
H157 H 0.57378 0.29673 0.37498 0.0
C158 C 0.68626 0.47795 0.39698 0.0
N159 N 0.74165 0.54262 0.38473 0.0
C160 C 0.68897 0.49325 0.36927 0.0
C161 C 0.71171 0.49564 0.41847 0.0
C162 C 0.71715 0.52595 0.36351 0.0
C163 C 0.73952 0.52826 0.41184 0.0
C164 C 0.65905 0.35797 0.35869 0.0
C165 C 0.68489 0.35164 0.36895 0.0
C166 C 0.63585 0.33654 0.33701 0.0
C167 C 0.68704 0.32384 0.35733 0.0
C168 C 0.63887 0.30902 0.32594 0.0
N169 N 0.66418 0.30328 0.33625 0.0
C170 C 0.75024 0.43477 0.42105 0.0
C171 C 0.74486 0.45808 0.3754 0.0
C172 C 0.7861 0.45085 0.4175 0.0
N173 N 0.73048 0.43881 0.40019 0.0
C174 C 0.78056 0.47514 0.37127 0.0
C175 C 0.80165 0.47153 0.3924 0.0
H176 H 0.73811 0.4186 0.4402 0.0
H177 H 0.72852 0.45997 0.35868 0.0
C178 C 0.59466 0.43825 0.35047 0.0
N179 N 0.60973 0.41903 0.3444 0.0
C180 C 0.58367 0.45132 0.32737 0.0
C181 C 0.60263 0.42327 0.29233 0.0
C182 C 0.61371 0.41117 0.31609 0.0
C183 C 0.58787 0.44405 0.29786 0.0
H184 H 0.59209 0.4442 0.37328 0.0
H185 H 0.62632 0.39634 0.31194 0.0
O186 O 0.66118 0.38684 0.43959 0.0
O187 O 0.59323 0.37644 0.40756 0.0
O188 O 0.65902 0.44576 0.40292 0.0
O189 O 0.65604 0.38453 0.37037 0.0
H190 H 0.61401 0.34043 0.47566 0.0
H191 H 0.70717 0.43934 0.47185 0.0
H192 H 0.61323 0.34668 0.53034 0.0
H193 H 0.70471 0.44389 0.52658 0.0
H194 H 0.49807 0.30527 0.35319 0.0
H195 H 0.56164 0.32661 0.44766 0.0
H196 H 0.55455 0.3588 0.35898 0.0
H197 H 0.50486 0.27391 0.44039 0.0
H198 H 0.54939 0.39481 0.51105 0.0
H199 H 0.63965 0.49666 0.5064 0.0
H200 H 0.62645 0.25929 0.45202 0.0
H201 H 0.55032 0.23442 0.38296 0.0
H202 H 0.66974 0.47998 0.35225 0.0
H203 H 0.71039 0.48407 0.43985 0.0
H204 H 0.71961 0.53802 0.34214 0.0
H205 H 0.75951 0.54209 0.4282 0.0
H206 H 0.70284 0.36779 0.38594 0.0
H207 H 0.61535 0.34074 0.32919 0.0
H208 H 0.70682 0.31855 0.36514 0.0
H209 H 0.62098 0.29209 0.30928 0.0
H210 H 0.8015 0.4471 0.43408 0.0
H211 H 0.79146 0.49012 0.35123 0.0
H212 H 0.57247 0.46729 0.33248 0.0
H213 H 0.60691 0.41766 0.26984 0.0
Li214 Li 0.24381 0.63567 0.60711 0.0
Li215 Li 0.28709 0.62711 0.58191 0.0
Li216 Li 0.29011 0.68397 0.57789 0.0
Li217 Li 0.24573 0.6329 0.55268 0.0
C218 C 0.30757 0.65269 0.63874 0.0
N219 N 0.33423 0.63565 0.68711 0.0
C220 C 0.28711 0.62206 0.6543 0.0
C221 C 0.34165 0.67463 0.64776 0.0
C222 C 0.30103 0.6139 0.67869 0.0
C223 C 0.35464 0.66558 0.67228 0.0
C224 C 0.22915 0.56316 0.58362 0.0
C225 C 0.23213 0.51497 0.563 0.0
N226 N 0.21619 0.49607 0.58763 0.0
C227 C 0.21269 0.54321 0.60869 0.0
C228 C 0.23885 0.54889 0.56054 0.0
C229 C 0.2064 0.50937 0.6103 0.0
C230 C 0.17912 0.59988 0.63374 0.0
N231 N 0.21252 0.624 0.6393 0.0
C232 C 0.19966 0.62652 0.69036 0.0
C233 C 0.22294 0.63821 0.66669 0.0
C234 C 0.1653 0.60023 0.68566 0.0
C235 C 0.15495 0.58752 0.6567 0.0
H236 H 0.17155 0.58948 0.61156 0.0
H237 H 0.24957 0.65779 0.67037 0.0
C238 C 0.34493 0.61886 0.56924 0.0
N239 N 0.31538 0.60593 0.58548 0.0
C240 C 0.36704 0.60532 0.57244 0.0
C241 C 0.32757 0.56503 0.60857 0.0
C242 C 0.30655 0.57955 0.60494 0.0
C243 C 0.35843 0.57804 0.5924 0.0
H244 H 0.35166 0.64011 0.55415 0.0
H245 H 0.28347 0.57001 0.61815 0.0
C246 C 0.2312 0.68806 0.59141 0.0
N247 N 0.21393 0.73172 0.62037 0.0
C248 C 0.20361 0.69163 0.58127 0.0
C249 C 0.24999 0.70663 0.61632 0.0
C250 C 0.19529 0.71387 0.5962 0.0
C251 C 0.24085 0.72858 0.63064 0.0
C252 C 0.29726 0.65594 0.51619 0.0
C253 C 0.29692 0.68222 0.49969 0.0
C254 C 0.29739 0.6285 0.50153 0.0
C255 C 0.29616 0.68033 0.4687 0.0
C256 C 0.29663 0.62754 0.47051 0.0
N257 N 0.29599 0.65324 0.45487 0.0
C258 C 0.35172 0.74944 0.5847 0.0
C259 C 0.30593 0.75021 0.55886 0.0
C260 C 0.37327 0.78482 0.57967 0.0
N261 N 0.31884 0.7329 0.57407 0.0
C262 C 0.32649 0.78548 0.55335 0.0
C263 C 0.36087 0.80327 0.56342 0.0
H264 H 0.36151 0.73502 0.59638 0.0
H265 H 0.27992 0.73636 0.55014 0.0
C266 C 0.20029 0.58624 0.50827 0.0
N267 N 0.21644 0.61914 0.51874 0.0
C268 C 0.17744 0.57693 0.4843 0.0
C269 C 0.18813 0.63546 0.48259 0.0
C270 C 0.21074 0.64361 0.50651 0.0
C271 C 0.17098 0.60168 0.47124 0.0
H272 H 0.2047 0.56708 0.51869 0.0
H273 H 0.22377 0.66951 0.51545 0.0
O274 O 0.29448 0.66109 0.61467 0.0
O275 O 0.23569 0.59642 0.58176 0.0
O276 O 0.23949 0.66625 0.57703 0.0
O277 O 0.29712 0.6569 0.54655 0.0
H278 H 0.26089 0.60449 0.64739 0.0
H279 H 0.35794 0.69839 0.63598 0.0
H280 H 0.28546 0.5902 0.69085 0.0
H281 H 0.38097 0.68234 0.67951 0.0
H282 H 0.23969 0.5037 0.54537 0.0
H283 H 0.20508 0.55377 0.62684 0.0
H284 H 0.25182 0.56398 0.5411 0.0
H285 H 0.19381 0.4937 0.62962 0.0
H286 H 0.20894 0.63687 0.71233 0.0
H287 H 0.12865 0.56767 0.65196 0.0
H288 H 0.39069 0.61622 0.55965 0.0
H289 H 0.32031 0.54462 0.62475 0.0
H290 H 0.18878 0.67735 0.56205 0.0
H291 H 0.2714 0.70419 0.62453 0.0
H292 H 0.17401 0.71691 0.58858 0.0
H293 H 0.25516 0.74312 0.64993 0.0
H294 H 0.2968 0.70363 0.51069 0.0
H295 H 0.29811 0.60818 0.51396 0.0
H296 H 0.29561 0.70036 0.45565 0.0
H297 H 0.29658 0.60638 0.45886 0.0
H298 H 0.39953 0.79742 0.58794 0.0
H299 H 0.31596 0.79829 0.54013 0.0
H300 H 0.16458 0.55054 0.4764 0.0
H301 H 0.18449 0.65555 0.47287 0.0
Li302 Li 0.68268 0.28239 0.74237 0.0
Li303 Li 0.63026 0.23858 0.7653 0.0
Li304 Li 0.63659 0.23941 0.71208 0.0
Li305 Li 0.62908 0.28324 0.73606 0.0
C306 C 0.68276 0.22334 0.76126 0.0
N307 N 0.71994 0.20602 0.79967 0.0
C308 C 0.69582 0.24163 0.78776 0.0
C309 C 0.68857 0.19625 0.75433 0.0
C310 C 0.71456 0.23248 0.80687 0.0
C311 C 0.70745 0.18789 0.77403 0.0
C312 C 0.63979 0.29747 0.7959 0.0
C313 C 0.58905 0.28666 0.82342 0.0
N314 N 0.60892 0.31444 0.84089 0.0
C315 C 0.6597 0.32589 0.81415 0.0
C316 C 0.60417 0.27765 0.80057 0.0
C317 C 0.64362 0.33406 0.83677 0.0
C318 C 0.74305 0.34212 0.7601 0.0
N319 N 0.73163 0.31091 0.74708 0.0
C320 C 0.78949 0.32125 0.7436 0.0
C321 C 0.75402 0.30026 0.73862 0.0
C322 C 0.80207 0.35338 0.75772 0.0
C323 C 0.77818 0.36374 0.76579 0.0
H324 H 0.72469 0.34993 0.76659 0.0
H325 H 0.74436 0.27527 0.72836 0.0
C326 C 0.59158 0.17335 0.79165 0.0
N327 N 0.61191 0.20749 0.79794 0.0
C328 C 0.57948 0.14891 0.81453 0.0
C329 C 0.60866 0.19543 0.84984 0.0
C330 C 0.6208 0.2188 0.82634 0.0
C331 C 0.58799 0.16001 0.84402 0.0
H332 H 0.58547 0.1651 0.76878 0.0
H333 H 0.63801 0.24585 0.83078 0.0
C334 C 0.68753 0.29839 0.68286 0.0
N335 N 0.73588 0.3151 0.63834 0.0
C336 C 0.69664 0.327 0.66468 0.0
C337 C 0.703 0.27825 0.67836 0.0
C338 C 0.72113 0.33502 0.64229 0.0
C339 C 0.72738 0.28713 0.65575 0.0
C340 C 0.56939 0.22594 0.71581 0.0
C341 C 0.57568 0.24498 0.68961 0.0
C342 C 0.53591 0.19959 0.72228 0.0
C343 C 0.54828 0.23732 0.67033 0.0
C344 C 0.50919 0.19272 0.70242 0.0
N345 N 0.51587 0.21157 0.67707 0.0
C346 C 0.60706 0.17471 0.68485 0.0
C347 C 0.62742 0.22097 0.65045 0.0
C348 C 0.59395 0.15061 0.66177 0.0
N349 N 0.6233 0.2091 0.67882 0.0
C350 C 0.61549 0.19786 0.62673 0.0
C351 C 0.59827 0.16224 0.63232 0.0
H352 H 0.6036 0.16606 0.70769 0.0
H353 H 0.63915 0.24829 0.64617 0.0
C354 C 0.62944 0.34376 0.71901 0.0
N355 N 0.6096 0.31262 0.73216 0.0
C356 C 0.61625 0.36576 0.71391 0.0
C357 C 0.56279 0.32381 0.73704 0.0
C358 C 0.57689 0.30242 0.74134 0.0
C359 C 0.58232 0.35585 0.72275 0.0
H360 H 0.65534 0.3512 0.71192 0.0
H361 H 0.56148 0.27743 0.7516 0.0
O362 O 0.66412 0.23156 0.74217 0.0
O363 O 0.65527 0.28937 0.77357 0.0
O364 O 0.66374 0.29046 0.70499 0.0
O365 O 0.59574 0.23272 0.73508 0.0
H366 H 0.69161 0.26267 0.79356 0.0
H367 H 0.67856 0.18182 0.73391 0.0
H368 H 0.72482 0.24641 0.82744 0.0
H369 H 0.71215 0.16697 0.76894 0.0
H370 H 0.56152 0.27152 0.82727 0.0
H371 H 0.68732 0.34147 0.81091 0.0
H372 H 0.58833 0.25542 0.78686 0.0
H373 H 0.65873 0.35599 0.85106 0.0
H374 H 0.80678 0.31222 0.73665 0.0
H375 H 0.78629 0.38784 0.77728 0.0
H376 H 0.56394 0.12173 0.80928 0.0
H377 H 0.61647 0.20482 0.8723 0.0
H378 H 0.68488 0.34284 0.66781 0.0
H379 H 0.69613 0.25585 0.692 0.0
H380 H 0.72841 0.3571 0.62806 0.0
H381 H 0.73952 0.27175 0.65203 0.0
H382 H 0.60139 0.26547 0.68417 0.0
H383 H 0.53066 0.1846 0.74246 0.0
H384 H 0.55277 0.25185 0.64999 0.0
H385 H 0.48313 0.1724 0.70716 0.0
H386 H 0.58045 0.12329 0.66682 0.0
H387 H 0.61853 0.20768 0.60427 0.0
H388 H 0.63219 0.38975 0.70224 0.0
H389 H 0.53672 0.31511 0.74458 0.0
Li390 Li 0.41722 0.63164 0.93242 0.0
Li391 Li 0.42317 0.68364 0.9055 0.0
Li392 Li 0.36804 0.6244 0.90372 0.0
Li393 Li 0.41996 0.63431 0.87887 0.0
C394 C 0.39072 0.65854 0.96845 0.0
N395 N 0.39338 0.66354 0.02966 0.0
C396 C 0.41789 0.68722 0.98232 0.0
C397 C 0.36479 0.63251 0.98567 0.0
C398 C 0.4188 0.68925 0.01331 0.0
C399 C 0.36663 0.63548 0.0166 0.0
C400 C 0.48432 0.66624 0.8963 0.0
C401 C 0.53049 0.6865 0.86043 0.0
N402 N 0.53982 0.6641 0.87162 0.0
C403 C 0.49431 0.64332 0.90735 0.0
C404 C 0.50251 0.68795 0.87259 0.0
C405 C 0.52248 0.64269 0.89462 0.0
C406 C 0.41793 0.58504 0.97569 0.0
N407 N 0.43282 0.61853 0.96684 0.0
C408 C 0.47555 0.63578 0.00493 0.0
C409 C 0.46115 0.64376 0.98085 0.0
C410 C 0.46067 0.60144 0.01467 0.0
C411 C 0.43133 0.57591 -0.00014 0.0
H412 H 0.39608 0.56528 0.96372 0.0
H413 H 0.47288 0.67008 0.97297 0.0
C414 C 0.42099 0.74268 0.92312 0.0
N415 N 0.44054 0.73226 0.90814 0.0
C416 C 0.43345 0.77772 0.92839 0.0
C417 C 0.48529 0.79091 0.90142 0.0
C418 C 0.47196 0.75554 0.89697 0.0
C419 C 0.46629 0.80249 0.91786 0.0
H420 H 0.39613 0.72364 0.93188 0.0
H421 H 0.48705 0.74673 0.88513 0.0
C422 C 0.36148 0.56198 0.90362 0.0
N423 N 0.30414 0.49654 0.90234 0.0
C424 C 0.3543 0.54124 0.8784 0.0
C425 C 0.33945 0.54939 0.92816 0.0
C426 C 0.32521 0.50823 0.87821 0.0
C427 C 0.3106 0.51627 0.92708 0.0
C428 C 0.39173 0.66325 0.84163 0.0
C429 C 0.3722 0.63524 0.82286 0.0
C430 C 0.40968 0.69658 0.82983 0.0
C431 C 0.3711 0.64104 0.79248 0.0
C432 C 0.40789 0.70132 0.79933 0.0
N433 N 0.38881 0.67368 0.78145 0.0
C434 C 0.30084 0.61256 0.91927 0.0
C435 C 0.30209 0.57905 0.87912 0.0
C436 C 0.26508 0.59833 0.91597 0.0
N437 N 0.31857 0.60283 0.90085 0.0
C438 C 0.26648 0.56378 0.87539 0.0
C439 C 0.2475 0.5736 0.89372 0.0
H440 H 0.31456 0.63192 0.9361 0.0
H441 H 0.31661 0.57222 0.86428 0.0
C442 C 0.44159 0.59285 0.85104 0.0
N443 N 0.43811 0.62092 0.84608 0.0
C444 C 0.45322 0.57977 0.82855 0.0
C445 C 0.45915 0.62575 0.79652 0.0
C446 C 0.44786 0.6382 0.81982 0.0
C447 C 0.46128 0.59566 0.8005 0.0
H448 H 0.43492 0.58032 0.87251 0.0
H449 H 0.44665 0.66147 0.81673 0.0
O450 O 0.38974 0.6558 0.93816 0.0
O451 O 0.45624 0.66661 0.90799 0.0
O452 O 0.38967 0.59454 0.90415 0.0
O453 O 0.39305 0.65826 0.87145 0.0
H454 H 0.43834 0.70746 0.96933 0.0
H455 H 0.34346 0.61027 0.97529 0.0
H456 H 0.43978 0.71119 0.02436 0.0
H457 H 0.34679 0.61548 0.03022 0.0
H458 H 0.5446 0.70298 0.84193 0.0
H459 H 0.48023 0.62582 0.92527 0.0
H460 H 0.49456 0.70506 0.86308 0.0
H461 H 0.5304 0.62502 0.90292 0.0
H462 H 0.49791 0.65633 0.01597 0.0
H463 H 0.41929 0.5491 0.00653 0.0
H464 H 0.41798 0.78506 0.94166 0.0
H465 H 0.51047 0.80891 0.89247 0.0
H466 H 0.37063 0.55065 0.85898 0.0
H467 H 0.34438 0.56517 0.94772 0.0
H468 H 0.31928 0.49198 0.8588 0.0
H469 H 0.29328 0.50629 0.94588 0.0
H470 H 0.35862 0.60926 0.83152 0.0
H471 H 0.42484 0.71855 0.84408 0.0
H472 H 0.35628 0.61959 0.77765 0.0
H473 H 0.42168 0.72696 0.78988 0.0
H474 H 0.25139 0.60677 0.93041 0.0
H475 H 0.25413 0.54546 0.85749 0.0
H476 H 0.45534 0.55712 0.83299 0.0
H477 H 0.46495 0.63896 0.77535 0.0
Li478 Li 0.76757 0.42396 0.0786 0.0
Li479 Li 0.81181 0.41551 0.10336 0.0
Li480 Li 0.81382 0.42202 0.05164 0.0
Li481 Li 0.7697 0.36699 0.07377 0.0
C482 C 0.83937 0.48847 0.07183 0.0
N483 N 0.88432 0.55483 0.05264 0.0
C484 C 0.87498 0.50266 0.0755 0.0
C485 C 0.82659 0.50818 0.05872 0.0
C486 C 0.89729 0.5362 0.06553 0.0
C487 C 0.84974 0.54165 0.04911 0.0
C488 C 0.76028 0.38202 0.1391 0.0
C489 C 0.7616 0.34778 0.17989 0.0
N490 N 0.76317 0.37183 0.19928 0.0
C491 C 0.76174 0.40633 0.15939 0.0
C492 C 0.76011 0.35246 0.14934 0.0
C493 C 0.76326 0.40073 0.18975 0.0
C494 C 0.7091 0.43193 0.06607 0.0
N495 N 0.73862 0.44372 0.0822 0.0
C496 C 0.72816 0.48501 0.10664 0.0
C497 C 0.74849 0.46983 0.10207 0.0
C498 C 0.69715 0.47307 0.09075 0.0
C499 C 0.68782 0.44628 0.07006 0.0
H500 H 0.7019 0.41112 0.05038 0.0
H501 H 0.77208 0.47861 0.11463 0.0
C502 C 0.84873 0.40763 0.15301 0.0
N503 N 0.84018 0.42887 0.13829 0.0
C504 C 0.87166 0.42 0.17699 0.0
C505 C 0.87489 0.47521 0.17132 0.0
C506 C 0.85234 0.46192 0.1473 0.0
C507 C 0.88534 0.45439 0.18634 0.0
H508 H 0.83785 0.3811 0.1462 0.0
H509 H 0.8444 0.47804 0.13584 0.0
C510 C 0.76466 0.40082 0.01274 0.0
N511 N 0.77131 0.41269 0.95227 0.0
C512 C 0.76732 0.37756 0.99377 0.0
C513 C 0.76518 0.42999 0.00102 0.0
C514 C 0.77074 0.38407 0.96324 0.0
C515 C 0.76859 0.43555 0.97036 0.0
C516 C 0.84732 0.38473 0.0829 0.0
C517 C 0.88079 0.41291 0.08068 0.0
C518 C 0.84223 0.35339 0.09414 0.0
C519 C 0.90865 0.40943 0.09016 0.0
C520 C 0.87078 0.35094 0.10337 0.0
N521 N 0.90311 0.37878 0.10123 0.0
C522 C 0.85386 0.46861 0.00343 0.0
C523 C 0.85519 0.41665 0.00865 0.0
C524 C 0.87666 0.47853 0.97941 0.0
N525 N 0.84408 0.43836 0.01785 0.0
C526 C 0.87768 0.42535 0.98468 0.0
C527 C 0.88902 0.45681 0.96978 0.0
H528 H 0.84374 0.4849 0.01016 0.0
H529 H 0.84615 0.39219 0.0197 0.0
C530 C 0.71058 0.29869 0.07599 0.0
N531 N 0.74407 0.31844 0.06743 0.0
C532 C 0.69186 0.26372 0.06814 0.0
C533 C 0.74295 0.27001 0.044 0.0
C534 C 0.76049 0.30475 0.05205 0.0
C535 C 0.70786 0.24911 0.05132 0.0
H536 H 0.6981 0.31034 0.08805 0.0
H537 H 0.78704 0.32113 0.04528 0.0
O538 O 0.8171 0.45586 0.08182 0.0
O539 O 0.75985 0.38751 0.10928 0.0
O540 O 0.76252 0.39556 0.04274 0.0
O541 O 0.8197 0.38759 0.07369 0.0
H542 H 0.88529 0.48803 0.08607 0.0
H543 H 0.79914 0.49763 0.05562 0.0
H544 H 0.92491 0.54745 0.06813 0.0
H545 H 0.84023 0.55711 0.03875 0.0
H546 H 0.76166 0.32512 0.18816 0.0
H547 H 0.76208 0.42943 0.15174 0.0
H548 H 0.75923 0.33355 0.13384 0.0
H549 H 0.76461 0.4194 0.20573 0.0
H550 H 0.7361 0.50509 0.12323 0.0
H551 H 0.66421 0.43636 0.05727 0.0
H552 H 0.87871 0.40284 0.1879 0.0
H553 H 0.88354 0.50143 0.1783 0.0
H554 H 0.76717 0.35498 0.00257 0.0
H555 H 0.76339 0.44834 0.01549 0.0
H556 H 0.77305 0.36643 0.94827 0.0
H557 H 0.76923 0.45812 0.96097 0.0
H558 H 0.88518 0.43716 0.07165 0.0
H559 H 0.81648 0.33135 0.09614 0.0
H560 H 0.93468 0.43107 0.08867 0.0
H561 H 0.86721 0.32693 0.11231 0.0
H562 H 0.88441 0.5029 0.9685 0.0
H563 H 0.88536 0.40709 0.97747 0.0
H564 H 0.66478 0.24878 0.07397 0.0
H565 H 0.75656 0.25987 0.03145 0.0
Li566 Li 0.4151 0.80589 0.26148 0.0
Li567 Li 0.36284 0.75927 0.23529 0.0
Li568 Li 0.42216 0.76335 0.23351 0.0
Li569 Li 0.41199 0.80486 0.20793 0.0
C570 C 0.38892 0.75309 0.29836 0.0
N571 N 0.38512 0.75172 0.35964 0.0
C572 C 0.36046 0.75172 0.31254 0.0
C573 C 0.41532 0.7535 0.31532 0.0
C574 C 0.35905 0.7511 0.34355 0.0
C575 C 0.41296 0.75287 0.34628 0.0
C576 C 0.37938 0.83692 0.22438 0.0
C577 C 0.35837 0.86074 0.18715 0.0
N578 N 0.37974 0.89291 0.19801 0.0
C579 C 0.40122 0.87025 0.23511 0.0
C580 C 0.35781 0.83211 0.20016 0.0
C581 C 0.40097 0.8982 0.22151 0.0
C582 C 0.46192 0.85429 0.30401 0.0
N583 N 0.42835 0.83522 0.29542 0.0
C584 C 0.4109 0.86045 0.33347 0.0
C585 C 0.40299 0.83803 0.30948 0.0
C586 C 0.44531 0.88029 0.34304 0.0
C587 C 0.471 0.87693 0.32806 0.0
H588 H 0.48177 0.85243 0.29198 0.0
H589 H 0.3766 0.82306 0.30178 0.0
C590 C 0.30409 0.69853 0.25414 0.0
N591 N 0.31421 0.72827 0.23888 0.0
C592 C 0.26923 0.67647 0.26066 0.0
C593 C 0.25548 0.71506 0.23424 0.0
C594 C 0.29072 0.73662 0.22858 0.0
C595 C 0.24428 0.68481 0.2511 0.0
H596 H 0.32332 0.69261 0.26229 0.0
H597 H 0.29931 0.76042 0.2166 0.0
C598 C 0.48473 0.81972 0.23274 0.0
N599 N 0.55066 0.82894 0.23164 0.0
C600 C 0.50529 0.83306 0.20739 0.0
C601 C 0.49775 0.81109 0.25751 0.0
C602 C 0.53855 0.83755 0.20728 0.0
C603 C 0.53111 0.81592 0.25652 0.0
C604 C 0.38203 0.74693 0.17165 0.0
C605 C 0.40926 0.75332 0.15259 0.0
C606 C 0.34855 0.73294 0.16032 0.0
C607 C 0.40255 0.74578 0.12238 0.0
C608 C 0.3429 0.72572 0.12997 0.0
N609 N 0.36979 0.73225 0.11179 0.0
C610 C 0.43397 0.70815 0.24975 0.0
C611 C 0.468 0.74293 0.20979 0.0
C612 C 0.4484 0.68677 0.24692 0.0
N613 N 0.44388 0.73557 0.23121 0.0
C614 C 0.48353 0.72278 0.20657 0.0
C615 C 0.47356 0.69407 0.22507 0.0
H616 H 0.41433 0.70245 0.26633 0.0
H617 H 0.47488 0.76416 0.19477 0.0
C618 C 0.45315 0.86792 0.18013 0.0
N619 N 0.42555 0.83612 0.17483 0.0
C620 C 0.46649 0.89271 0.15769 0.0
C621 C 0.42173 0.85224 0.12494 0.0
C622 C 0.40902 0.82837 0.14817 0.0
C623 C 0.45131 0.88475 0.12934 0.0
H624 H 0.46512 0.8739 0.20185 0.0
H625 H 0.38613 0.80368 0.14472 0.0
O626 O 0.39109 0.75441 0.26804 0.0
O627 O 0.37988 0.8093 0.23693 0.0
O628 O 0.45194 0.81479 0.23318 0.0
O629 O 0.38789 0.7538 0.20132 0.0
H630 H 0.33993 0.75167 0.29975 0.0
H631 H 0.43738 0.75427 0.30471 0.0
H632 H 0.33729 0.75028 0.35482 0.0
H633 H 0.43325 0.75328 0.3597 0.0
H634 H 0.34201 0.85739 0.16825 0.0
H635 H 0.41853 0.87461 0.25347 0.0
H636 H 0.34154 0.80669 0.19094 0.0
H637 H 0.4178 0.92412 0.22955 0.0
H638 H 0.39022 0.86189 0.34464 0.0
H639 H 0.49787 0.89201 0.33457 0.0
H640 H 0.26225 0.65395 0.27423 0.0
H641 H 0.23735 0.72244 0.22598 0.0
H642 H 0.49555 0.83936 0.18781 0.0
H643 H 0.48214 0.80046 0.2772 0.0
H644 H 0.55466 0.8477 0.18778 0.0
H645 H 0.54143 0.80921 0.2755 0.0
H646 H 0.43533 0.76445 0.16094 0.0
H647 H 0.32718 0.72775 0.1748 0.0
H648 H 0.4234 0.75077 0.10734 0.0
H649 H 0.31715 0.71494 0.12087 0.0
H650 H 0.4398 0.66465 0.26143 0.0
H651 H 0.50219 0.72881 0.18895 0.0
H652 H 0.48876 0.91767 0.16243 0.0
H653 H 0.4091 0.84475 0.10351 0.0
C654 C 0.15606 0.66072 0.2825 0.0
C655 C 0.14269 0.62573 0.28934 0.0
H656 H 0.19883 0.70703 0.26573 0.0
C657 C 0.16066 0.6092 0.27987 0.0
H658 H 0.14295 0.67418 0.29 0.0
C659 C 0.19255 0.62784 0.26554 0.0
C660 C 0.20753 0.66363 0.26091 0.0
H661 H 0.15084 0.5822 0.28494 0.0
H662 H 0.20609 0.61442 0.25924 0.0
C663 C 0.18821 0.67954 0.26858 0.0
C664 C 0.5785 0.15828 0.44617 0.0
C665 C 0.54307 0.13882 0.45276 0.0
H666 H 0.61993 0.20591 0.42962 0.0
C667 C 0.5212 0.15109 0.44329 0.0
H668 H 0.5959 0.14927 0.45297 0.0
C669 C 0.53501 0.18368 0.43001 0.0
C670 C 0.5709 0.20451 0.42601 0.0
H671 H 0.49386 0.13682 0.44833 0.0
H672 H 0.51787 0.19357 0.42496 0.0
C673 C 0.59227 0.19078 0.43298 0.0
C674 C 0.39082 0.51744 0.61424 0.0
C675 C 0.42519 0.54087 0.62211 0.0
H676 H 0.34272 0.51087 0.59833 0.0
C677 C 0.43877 0.57607 0.61561 0.0
H678 H 0.37952 0.49021 0.61919 0.0
C679 C 0.41764 0.58794 0.60383 0.0
C680 C 0.38244 0.56484 0.5985 0.0
H681 H 0.46522 0.59468 0.62138 0.0
H682 H 0.42827 0.61545 0.60094 0.0
C683 C 0.36963 0.52933 0.60263 0.0
C684 C 0.88799 0.43129 0.77905 0.0
C685 C 0.90595 0.41559 0.79054 0.0
H686 H 0.84174 0.42421 0.75856 0.0
C687 C 0.89153 0.37978 0.78764 0.0
H688 H 0.89861 0.45889 0.78114 0.0
C689 C 0.85847 0.35967 0.77555 0.0
C690 C 0.83932 0.37505 0.76584 0.0
H691 H 0.90468 0.36706 0.79681 0.0
H692 H 0.84717 0.3319 0.77567 0.0
C693 C 0.85519 0.41129 0.76655 0.0
C694 C 0.47338 0.88706 0.94241 0.0
C695 C 0.50806 0.90602 0.95142 0.0
H696 H 0.4332 0.84011 0.92374 0.0
C697 C 0.52997 0.89267 0.94562 0.0
H698 H 0.45598 0.89685 0.9466 0.0
C699 C 0.51681 0.85977 0.93324 0.0
C700 C 0.48148 0.83963 0.92611 0.0
H701 H 0.55669 0.90651 0.95277 0.0
H702 H 0.53396 0.84936 0.93115 0.0
C703 C 0.46029 0.85437 0.92968 0.0
C704 C 0.6169 0.47554 0.11359 0.0
C705 C 0.63084 0.51019 0.12222 0.0
H706 H 0.62689 0.43663 0.09696 0.0
C707 C 0.66573 0.53358 0.1161 0.0
H708 H 0.59005 0.45697 0.11804 0.0
C709 C 0.68693 0.52193 0.10405 0.0
C710 C 0.67362 0.4867 0.09777 0.0
H711 H 0.67725 0.56037 0.1227 0.0
H712 H 0.71413 0.54025 0.10097 0.0
C713 C 0.63803 0.46392 0.10145 0.0
C714 C 0.39156 0.89516 0.53828 0.0
C715 C 0.42402 0.90446 0.52615 0.0
H716 H 0.34627 0.85602 0.56012 0.0
C717 C 0.43761 0.88246 0.53062 0.0
H718 H 0.38029 0.91144 0.53509 0.0
C719 C 0.41795 0.85049 0.54452 0.0
C720 C 0.38423 0.8398 0.55435 0.0
H721 H 0.46268 0.88907 0.52168 0.0
H722 H 0.42835 0.83325 0.54565 0.0
C723 C 0.37187 0.86315 0.55224 0.0
C724 C 0.51898 0.38263 0.69448 0.0
C725 C 0.5406 0.41831 0.69085 0.0
H726 H 0.51525 0.33477 0.70666 0.0
C727 C 0.57466 0.43394 0.70145 0.0
H728 H 0.49279 0.36994 0.68598 0.0
C729 C 0.58755 0.41393 0.71374 0.0
C730 C 0.56686 0.37774 0.71507 0.0
H731 H 0.59183 0.46145 0.69877 0.0
H732 H 0.6142 0.42677 0.72101 0.0
C733 C 0.532 0.3625 0.70631 0.0
C734 C 0.16486 0.5716 0.87188 0.0
C735 C 0.1441 0.53702 0.86304 0.0
H736 H 0.21391 0.61025 0.8889 0.0
C737 C 0.15551 0.51353 0.86895 0.0
H738 H 0.15665 0.59023 0.86756 0.0
C739 C 0.18837 0.52501 0.88093 0.0
C740 C 0.21028 0.56014 0.8875 0.0
H741 H 0.14022 0.48681 0.86213 0.0
H742 H 0.19738 0.50675 0.88358 0.0
C743 C 0.19759 0.58302 0.88415 0.0
C744 C 0.67281 0.17521 -0.00365 0.0
C745 C 0.64558 0.14841 0.01217 0.0
H746 H 0.71313 0.2277 -0.00403 0.0
C747 C 0.64023 0.15383 0.04193 0.0
H748 H 0.67735 0.17164 0.97331 0.0
C749 C 0.66098 0.18627 0.05516 0.0
C750 C 0.68751 0.21357 0.03886 0.0
H751 H 0.61921 0.13355 0.05446 0.0
H752 H 0.65591 0.19013 0.07794 0.0
C753 C 0.69345 0.20732 0.00945 0.0
C754 C 0.5348 0.66294 0.20226 0.0
C755 C 0.51155 0.62825 0.1954 0.0
H756 H 0.54089 0.71114 0.21723 0.0
C757 C 0.47657 0.61416 0.20309 0.0
H758 H 0.56181 0.67455 0.19626 0.0
C759 C 0.4646 0.63507 0.21515 0.0
C760 C 0.48734 0.67052 0.21935 0.0
H761 H 0.45811 0.58751 0.19789 0.0
H762 H 0.43716 0.62405 0.21898 0.0
C763 C 0.52277 0.68394 0.21396 0.0
C764 C 0.88814 0.47925 0.3761 0.0
C765 C 0.90672 0.51289 0.36458 0.0
H766 H 0.84025 0.4399 0.39442 0.0
C767 C 0.89236 0.53446 0.3664 0.0
H768 H 0.89856 0.46203 0.37456 0.0
C769 C 0.85878 0.52162 0.37719 0.0
C770 C 0.83923 0.48718 0.38674 0.0
H771 H 0.90596 0.56029 0.35723 0.0
H772 H 0.84743 0.53808 0.37668 0.0
C773 C 0.85479 0.46659 0.38735 0.0
C774 C 0.13045 0.56878 0.39565 0.0
C775 C 0.1106 0.58495 0.39216 0.0
H776 H 0.1654 0.56167 0.42324 0.0
C777 C 0.10729 0.60292 0.41633 0.0
H778 H 0.13326 0.55453 0.37746 0.0
C779 C 0.12556 0.60687 0.44261 0.0
C780 C 0.14752 0.59295 0.44527 0.0
H781 H 0.09243 0.61591 0.41432 0.0
H782 H 0.12348 0.62194 0.46046 0.0
C783 C 0.14875 0.57275 0.42193 0.0
C784 C 0.58795 0.1224 0.55666 0.0
C785 C 0.55177 0.10224 0.55438 0.0
H786 H 0.63107 0.15755 0.5833 0.0
C787 C 0.53165 0.09744 0.57987 0.0
H788 H 0.60423 0.12605 0.53762 0.0
C789 C 0.54718 0.115 0.6062 0.0
C790 C 0.58296 0.13783 0.60732 0.0
H791 H 0.50373 0.08235 0.57887 0.0
H792 H 0.53096 0.11277 0.62491 0.0
C793 C 0.60335 0.14037 0.58276 0.0
C794 C 0.4936 0.58474 0.72566 0.0
C795 C 0.47366 0.54888 0.72165 0.0
H796 H 0.50636 0.62771 0.75416 0.0
C797 C 0.45352 0.52823 0.74532 0.0
H798 H 0.50943 0.60117 0.70772 0.0
C799 C 0.45105 0.54337 0.77161 0.0
C800 C 0.46896 0.5795 0.77491 0.0
H801 H 0.43749 0.50056 0.74266 0.0
H802 H 0.43319 0.52676 0.78845 0.0
C803 C 0.49147 0.59989 0.75211 0.0
C804 C 0.95311 0.45687 0.9148 0.0
C805 C 0.94511 0.46915 0.88898 0.0
H806 H 0.94245 0.44432 0.96081 0.0
C807 C 0.92271 0.48262 0.8913 0.0
H808 H 0.97016 0.44623 0.91393 0.0
C809 C 0.90591 0.48047 0.91803 0.0
C810 C 0.91156 0.4653 0.94318 0.0
H811 H 0.91653 0.4929 0.87195 0.0
H812 H 0.88685 0.48866 0.91833 0.0
C813 C 0.93669 0.45518 0.94162 0.0
C814 C 0.51948 0.94556 0.07512 0.0
C815 C 0.49914 0.94502 0.05113 0.0
H816 H 0.52039 0.92641 0.11831 0.0
C817 C 0.46313 0.92864 0.05464 0.0
H818 H 0.54725 0.95754 0.07288 0.0
C819 C 0.44759 0.9109 0.08086 0.0
C820 C 0.46775 0.90887 0.10395 0.0
H821 H 0.4469 0.92801 0.03649 0.0
H822 H 0.4197 0.89758 0.0825 0.0
C823 C 0.50396 0.92757 0.1012 0.0
C824 C 0.56102 0.45746 0.22171 0.0
C825 C 0.57681 0.49365 0.22062 0.0
H826 H 0.55218 0.4133 0.24716 0.0
C827 C 0.59121 0.51266 0.24678 0.0
H828 H 0.54923 0.44207 0.20204 0.0
C829 C 0.59261 0.49612 0.27267 0.0
C830 C 0.57983 0.46034 0.27278 0.0
H831 H 0.60388 0.54057 0.24665 0.0
H832 H 0.60599 0.51166 0.29188 0.0
C833 C 0.56278 0.441 0.24746 0.0
C834 C 0.44224 0.94125 0.39971 0.0
C835 C 0.46217 0.93916 0.42287 0.0
H836 H 0.42141 0.92434 0.35611 0.0
C837 C 0.47993 0.92105 0.41813 0.0
H838 H 0.42801 0.95475 0.40283 0.0
C839 C 0.4759 0.90338 0.39151 0.0
C840 C 0.45388 0.90333 0.3692 0.0
H841 H 0.49553 0.91911 0.43563 0.0
H842 H 0.48842 0.88812 0.38915 0.0
C843 C 0.43806 0.92343 0.37315 0.0
C844 C 0.52968 0.45042 0.56644 0.0
C845 C 0.55123 0.46662 0.59097 0.0
H846 H 0.52597 0.4322 0.52194 0.0
C847 C 0.58716 0.48146 0.5875 0.0
H848 H 0.50189 0.43855 0.56835 0.0
C849 C 0.60092 0.47719 0.56105 0.0
C850 C 0.57899 0.45813 0.53751 0.0
H851 H 0.60445 0.49446 0.60593 0.0
H852 H 0.62844 0.48676 0.55984 0.0
C853 C 0.54344 0.44627 0.53997 0.0
C854 C 0.12495 0.58776 0.76195 0.0
C855 C 0.10627 0.55158 0.76412 0.0
H856 H 0.15775 0.63168 0.73518 0.0
C857 C 0.10308 0.53183 0.73884 0.0
H858 H 0.12755 0.60362 0.78105 0.0
C859 C 0.12061 0.54783 0.71271 0.0
C860 C 0.14161 0.58394 0.71127 0.0
H861 H 0.08927 0.50391 0.7399 0.0
H862 H 0.1196 0.53168 0.69439 0.0
C863 C 0.14243 0.60379 0.73578 0.0
C864 C 0.56202 0.12254 0.92066 0.0
C865 C 0.57647 0.10095 0.92175 0.0
H866 H 0.55446 0.15843 0.89481 0.0
C867 C 0.58804 0.09352 0.89523 0.0
H868 H 0.55251 0.12836 0.9407 0.0
C869 C 0.58879 0.11049 0.86888 0.0
C870 C 0.57817 0.1352 0.86881 0.0
H871 H 0.59954 0.0772 0.89541 0.0
H872 H 0.60052 0.10662 0.8493 0.0
C873 C 0.56317 0.13978 0.89449 0.0
C874 C 0.46749 0.56731 0.08984 0.0
C875 C 0.50346 0.58447 0.09408 0.0
H876 H 0.42572 0.5593 0.06135 0.0
C877 C 0.52519 0.60374 0.07054 0.0
H878 H 0.45017 0.55227 0.10763 0.0
C879 C 0.51123 0.60792 0.04414 0.0
C880 C 0.47528 0.59276 0.0407 0.0
H881 H 0.553 0.61754 0.07326 0.0
H882 H 0.52861 0.6241 0.02683 0.0
C883 C 0.45352 0.57132 0.06335 0.0
C884 C 0.92149 0.46178 0.26396 0.0
C885 C 0.94438 0.49755 0.26617 0.0
H886 H 0.88418 0.42022 0.2375 0.0
C887 C 0.95183 0.51783 0.24042 0.0
H888 H 0.9157 0.44527 0.28322 0.0
C889 C 0.93438 0.50326 0.21389 0.0
C890 C 0.90869 0.46821 0.21258 0.0
H891 H 0.96925 0.54544 0.24118 0.0
H892 H 0.93989 0.51993 0.19478 0.0
C893 C 0.90358 0.44732 0.23757 0.0
loop_
_geom_bond_atom_site_label_1
_geom_bond_atom_site_label_2
_geom_bond_distance
_geom_bond_site_symmetry_2
_ccdc_geom_bond_type
H0 C8 0.930 . S
H1 C11 0.930 . S
H2 C13 0.930 . S
H3 C14 0.970 . S
H4 C14 0.970 . S
H5 C16 0.930 . S
H6 C18 0.930 . S
H7 C20 0.930 . S
C8 H0 0.930 . S
C8 C9 1.382 . S
C8 C10 1.426 . S
C9 C8 1.382 . S
C9 C13 1.389 . S
C10 C8 1.426 . S
C10 C11 1.375 . S
C10 C14 1.532 1_655 S
C11 H1 0.930 . S
C11 C10 1.375 . S
C11 C12 1.416 . S
C12 C11 1.416 . S
C12 C13 1.371 . S
C13 H2 0.930 . S
C13 C9 1.389 . S
C13 C12 1.371 . S
C14 H3 0.970 . S
C14 H4 0.970 . S
C14 C10 1.532 1_455 S
C14 C15 1.499 . S
C15 C14 1.499 . S
C15 C16 1.370 . S
C15 C20 1.415 . S
C16 H5 0.930 . S
C16 C15 1.370 . S
C16 C17 1.407 . S
C17 C16 1.407 . S
C17 C18 1.365 . S
C18 H6 0.930 . S
C18 C17 1.365 . S
C18 C19 1.393 . S
C19 C18 1.393 . S
C19 C20 1.387 . S
C20 H7 0.930 . S
C20 C15 1.415 . S
C20 C19 1.387 . S
H21 C29 0.930 . S
H22 C32 0.930 . S
H23 C34 0.930 . S
H24 C35 0.970 . S
H25 C35 0.970 . S
H26 C37 0.930 . S
H27 C39 0.930 . S
H28 C41 0.930 . S
C29 H21 0.930 . S
C29 C30 1.382 . S
C29 C31 1.426 . S
C30 C29 1.382 . S
C30 C34 1.389 . S
C31 C29 1.426 . S
C31 C32 1.375 . S
C31 C35 1.532 1_565 S
C32 H22 0.930 . S
C32 C31 1.375 . S
C32 C33 1.416 . S
C33 C32 1.416 . S
C33 C34 1.371 . S
C34 H23 0.930 . S
C34 C30 1.389 . S
C34 C33 1.371 . S
C35 H24 0.970 . S
C35 H25 0.970 . S
C35 C31 1.532 1_545 S
C35 C36 1.499 . S
C36 C35 1.499 . S
C36 C37 1.370 . S
C36 C41 1.415 . S
C37 H26 0.930 . S
C37 C36 1.370 . S
C37 C38 1.407 . S
C38 C37 1.407 . S
C38 C39 1.365 . S
C39 H27 0.930 . S
C39 C38 1.365 . S
C39 C40 1.393 . S
C40 C39 1.393 . S
C40 C41 1.387 . S
C41 H28 0.930 . S
C41 C36 1.415 . S
C41 C40 1.387 . S
H42 C50 0.930 . S
H43 C53 0.930 . S
H44 C55 0.930 . S
H45 C56 0.970 . S
H46 C56 0.970 . S
H47 C58 0.930 . S
H48 C60 0.930 . S
H49 C62 0.930 . S
C50 H42 0.930 . S
C50 C51 1.382 . S
C50 C52 1.426 . S
C51 C50 1.382 . S
C51 C55 1.389 . S
C52 C50 1.426 . S
C52 C53 1.375 . S
C52 C56 1.532 . S
C53 H43 0.930 . S
C53 C52 1.375 . S
C53 C54 1.416 . S
C54 C53 1.416 . S
C54 C55 1.371 . S
C55 H44 0.930 . S
C55 C51 1.389 . S
C55 C54 1.371 . S
C56 H45 0.970 . S
C56 H46 0.970 . S
C56 C52 1.532 . S
C56 C57 1.499 . S
C57 C56 1.499 . S
C57 C58 1.370 . S
C57 C62 1.415 . S
C58 H47 0.930 . S
C58 C57 1.370 . S
C58 C59 1.407 . S
C59 C58 1.407 . S
C59 C60 1.365 . S
C60 H48 0.930 . S
C60 C59 1.365 . S
C60 C61 1.393 . S
C61 C60 1.393 . S
C61 C62 1.387 . S
C62 H49 0.930 . S
C62 C57 1.415 . S
C62 C61 1.387 . S
H63 C71 0.930 . S
H64 C74 0.930 . S
H65 C76 0.930 . S
H66 C77 0.970 . S
H67 C77 0.970 . S
H68 C79 0.930 . S
H69 C81 0.930 . S
H70 C83 0.930 . S
C71 H63 0.930 . S
C71 C72 1.382 . S
C71 C73 1.426 . S
C72 C71 1.382 . S
C72 C76 1.389 . S
C73 C71 1.426 . S
C73 C74 1.375 . S
C73 C77 1.532 1_655 S
C74 H64 0.930 . S
C74 C73 1.375 . S
C74 C75 1.416 . S
C75 C74 1.416 . S
C75 C76 1.371 . S
C76 H65 0.930 . S
C76 C72 1.389 . S
C76 C75 1.371 . S
C77 H66 0.970 . S
C77 H67 0.970 . S
C77 C73 1.532 1_455 S
C77 C78 1.499 . S
C78 C77 1.499 . S
C78 C79 1.370 . S
C78 C83 1.415 . S
C79 H68 0.930 . S
C79 C78 1.370 . S
C79 C80 1.407 . S
C80 C79 1.407 . S
C80 C81 1.365 . S
C81 H69 0.930 . S
C81 C80 1.365 . S
C81 C82 1.393 . S
C82 C81 1.393 . S
C82 C83 1.387 . S
C83 H70 0.930 . S
C83 C78 1.415 . S
C83 C82 1.387 . S
H84 C92 0.930 . S
H85 C95 0.930 . S
H86 C97 0.930 . S
H87 C98 0.970 1_554 S
H88 C98 0.970 . S
H89 C100 0.930 . S
H90 C102 0.930 . S
H91 C104 0.930 . S
C92 H84 0.930 . S
C92 C93 1.382 . S
C92 C94 1.426 1_554 S
C93 C92 1.382 . S
C93 C97 1.389 1_554 S
C94 C92 1.426 1_556 S
C94 C95 1.375 . S
C94 C98 1.532 . S
C95 H85 0.930 . S
C95 C94 1.375 . S
C95 C96 1.416 . S
C96 C95 1.416 . S
C96 C97 1.371 . S
C97 H86 0.930 . S
C97 C93 1.389 1_556 S
C97 C96 1.371 . S
C98 H87 0.970 1_556 S
C98 H88 0.970 . S
C98 C94 1.532 . S
C98 C99 1.499 1_546 S
C99 C98 1.499 1_564 S
C99 C100 1.370 . S
C99 C104 1.415 1_554 S
C100 H89 0.930 . S
C100 C99 1.370 . S
C100 C101 1.407 . S
C101 C100 1.407 . S
C101 C102 1.365 . S
C102 H90 0.930 . S
C102 C101 1.365 . S
C102 C103 1.393 1_554 S
C103 C102 1.393 1_556 S
C103 C104 1.387 . S
C104 H91 0.930 . S
C104 C99 1.415 1_556 S
C104 C103 1.387 . S
H105 C113 0.930 . S
H106 C116 0.930 . S
H107 C118 0.930 . S
H108 C119 0.970 . S
H109 C119 0.970 . S
H110 C121 0.930 . S
H111 C123 0.930 . S
H112 C125 0.930 . S
C113 H105 0.930 . S
C113 C114 1.382 . S
C113 C115 1.426 . S
C114 C113 1.382 . S
C114 C118 1.389 . S
C115 C113 1.426 . S
C115 C116 1.375 . S
C115 C119 1.532 . S
C116 H106 0.930 . S
C116 C115 1.375 . S
C116 C117 1.416 . S
C117 C116 1.416 . S
C117 C118 1.371 . S
C118 H107 0.930 . S
C118 C114 1.389 . S
C118 C117 1.371 . S
C119 H108 0.970 . S
C119 H109 0.970 . S
C119 C115 1.532 . S
C119 C120 1.499 . S
C120 C119 1.499 . S
C120 C121 1.370 . S
C120 C125 1.415 . S
C121 H110 0.930 . S
C121 C120 1.370 . S
C121 C122 1.407 . S
C122 C121 1.407 . S
C122 C123 1.365 . S
C123 H111 0.930 . S
C123 C122 1.365 . S
C123 C124 1.393 . S
C124 C123 1.393 . S
C124 C125 1.387 . S
C125 H112 0.930 . S
C125 C120 1.415 . S
C125 C124 1.387 . S
Li126 N143 1.990 . S
Li126 O186 1.956 . S
Li126 O187 1.970 . S
Li126 O188 1.961 . S
Li127 N151 1.990 . S
Li127 O186 1.970 . S
Li127 O187 1.956 . S
Li127 O189 1.961 . S
Li128 N173 1.990 . S
Li128 O186 1.961 . S
Li128 O188 1.956 . S
Li128 O189 1.970 . S
Li129 N179 1.990 . S
Li129 O187 1.961 . S
Li129 O188 1.970 . S
Li129 O189 1.956 . S
C130 C132 1.348 . S
C130 C133 1.356 . S
C130 O186 1.325 . S
N131 C134 1.314 . S
N131 C135 1.279 . S
C132 C130 1.348 . S
C132 C134 1.353 . S
C132 H190 0.929 . S
C133 C130 1.356 . S
C133 C135 1.358 . S
C133 H191 0.930 . S
C134 N131 1.314 . S
C134 C132 1.353 . S
C134 H192 0.930 . S
C135 N131 1.279 . S
C135 C133 1.358 . S
C135 H193 0.930 . S
C136 C139 1.348 . S
C136 C140 1.356 . S
C136 O187 1.325 . S
C137 N138 1.279 . S
C137 C140 1.358 . S
C137 H194 0.930 . S
N138 C137 1.279 . S
N138 C141 1.314 . S
C139 C136 1.348 . S
C139 C141 1.353 . S
C139 H195 0.929 . S
C140 C136 1.356 . S
C140 C137 1.358 . S
C140 H196 0.930 . S
C141 N138 1.314 . S
C141 C139 1.353 . S
C141 H197 0.930 . S
C142 N143 1.314 . S
C142 C147 1.353 . S
C142 H148 0.930 . S
N143 Li126 1.990 . S
N143 C142 1.314 . S
N143 C145 1.279 . S
C144 C145 1.358 . S
C144 C146 1.356 . S
C144 H198 0.930 . S
C145 N143 1.279 . S
C145 C144 1.358 . S
C145 H149 0.930 . S
C146 C144 1.356 . S
C146 C147 1.348 . S
C147 C142 1.353 . S
C147 C146 1.348 . S
C147 H199 0.929 . S
H148 C142 0.930 . S
H149 C145 0.930 . S
C150 N151 1.314 . S
C150 C152 1.353 . S
C150 H156 0.930 . S
N151 Li127 1.990 . S
N151 C150 1.314 . S
N151 C154 1.279 . S
C152 C150 1.353 . S
C152 C155 1.348 . S
C152 H200 0.929 . S
C153 C154 1.358 . S
C153 C155 1.356 . S
C153 H201 0.930 . S
C154 N151 1.279 . S
C154 C153 1.358 . S
C154 H157 0.930 . S
C155 C152 1.348 . S
C155 C153 1.356 . S
H156 C150 0.930 . S
H157 C154 0.930 . S
C158 C160 1.348 . S
C158 C161 1.356 . S
C158 O188 1.325 . S
N159 C162 1.314 . S
N159 C163 1.279 . S
C160 C158 1.348 . S
C160 C162 1.353 . S
C160 H202 0.929 . S
C161 C158 1.356 . S
C161 C163 1.358 . S
C161 H203 0.930 . S
C162 N159 1.314 . S
C162 C160 1.353 . S
C162 H204 0.930 . S
C163 N159 1.279 . S
C163 C161 1.358 . S
C163 H205 0.930 . S
C164 C165 1.348 . S
C164 C166 1.356 . S
C164 O189 1.325 . S
C165 C164 1.348 . S
C165 C167 1.353 . S
C165 H206 0.929 . S
C166 C164 1.356 . S
C166 C168 1.358 . S
C166 H207 0.930 . S
C167 C165 1.353 . S
C167 N169 1.314 . S
C167 H208 0.930 . S
C168 C166 1.358 . S
C168 N169 1.279 . S
C168 H209 0.930 . S
N169 C167 1.314 . S
N169 C168 1.279 . S
C170 C172 1.353 . S
C170 N173 1.314 . S
C170 H176 0.930 . S
C171 N173 1.279 . S
C171 C174 1.358 . S
C171 H177 0.930 . S
C172 C170 1.353 . S
C172 C175 1.348 . S
C172 H210 0.929 . S
N173 Li128 1.990 . S
N173 C170 1.314 . S
N173 C171 1.279 . S
C174 C171 1.358 . S
C174 C175 1.356 . S
C174 H211 0.930 . S
C175 C172 1.348 . S
C175 C174 1.356 . S
H176 C170 0.930 . S
H177 C171 0.930 . S
C178 N179 1.314 . S
C178 C180 1.353 . S
C178 H184 0.930 . S
N179 Li129 1.990 . S
N179 C178 1.314 . S
N179 C182 1.279 . S
C180 C178 1.353 . S
C180 C183 1.348 . S
C180 H212 0.929 . S
C181 C182 1.358 . S
C181 C183 1.356 . S
C181 H213 0.930 . S
C182 N179 1.279 . S
C182 C181 1.358 . S
C182 H185 0.930 . S
C183 C180 1.348 . S
C183 C181 1.356 . S
H184 C178 0.930 . S
H185 C182 0.930 . S
O186 Li126 1.956 . S
O186 Li127 1.970 . S
O186 Li128 1.961 . S
O186 C130 1.325 . S
O187 Li126 1.970 . S
O187 Li127 1.956 . S
O187 Li129 1.961 . S
O187 C136 1.325 . S
O188 Li126 1.961 . S
O188 Li128 1.956 . S
O188 Li129 1.970 . S
O188 C158 1.325 . S
O189 Li127 1.961 . S
O189 Li128 1.970 . S
O189 Li129 1.956 . S
O189 C164 1.325 . S
H190 C132 0.929 . S
H191 C133 0.930 . S
H192 C134 0.930 . S
H193 C135 0.930 . S
H194 C137 0.930 . S
H195 C139 0.929 . S
H196 C140 0.930 . S
H197 C141 0.930 . S
H198 C144 0.930 . S
H199 C147 0.929 . S
H200 C152 0.929 . S
H201 C153 0.930 . S
H202 C160 0.929 . S
H203 C161 0.930 . S
H204 C162 0.930 . S
H205 C163 0.930 . S
H206 C165 0.929 . S
H207 C166 0.930 . S
H208 C167 0.930 . S
H209 C168 0.930 . S
H210 C172 0.929 . S
H211 C174 0.930 . S
H212 C180 0.929 . S
H213 C181 0.930 . S
Li214 N231 1.990 . S
Li214 O274 1.956 . S
Li214 O275 1.970 . S
Li214 O276 1.961 . S
Li215 N239 1.990 . S
Li215 O274 1.970 . S
Li215 O275 1.956 . S
Li215 O277 1.961 . S
Li216 N261 1.990 . S
Li216 O274 1.961 . S
Li216 O276 1.956 . S
Li216 O277 1.970 . S
Li217 N267 1.990 . S
Li217 O275 1.961 . S
Li217 O276 1.970 . S
Li217 O277 1.956 . S
C218 C220 1.348 . S
C218 C221 1.356 . S
C218 O274 1.325 . S
N219 C222 1.314 . S
N219 C223 1.279 . S
C220 C218 1.348 . S
C220 C222 1.353 . S
C220 H278 0.929 . S
C221 C218 1.356 . S
C221 C223 1.358 . S
C221 H279 0.930 . S
C222 N219 1.314 . S
C222 C220 1.353 . S
C222 H280 0.930 . S
C223 N219 1.279 . S
C223 C221 1.358 . S
C223 H281 0.930 . S
C224 C227 1.348 . S
C224 C228 1.356 . S
C224 O275 1.325 . S
C225 N226 1.279 . S
C225 C228 1.358 . S
C225 H282 0.930 . S
N226 C225 1.279 . S
N226 C229 1.314 . S
C227 C224 1.348 . S
C227 C229 1.353 . S
C227 H283 0.929 . S
C228 C224 1.356 . S
C228 C225 1.358 . S
C228 H284 0.930 . S
C229 N226 1.314 . S
C229 C227 1.353 . S
C229 H285 0.930 . S
C230 N231 1.314 . S
C230 C235 1.353 . S
C230 H236 0.930 . S
N231 Li214 1.990 . S
N231 C230 1.314 . S
N231 C233 1.279 . S
C232 C233 1.358 . S
C232 C234 1.356 . S
C232 H286 0.930 . S
C233 N231 1.279 . S
C233 C232 1.358 . S
C233 H237 0.930 . S
C234 C232 1.356 . S
C234 C235 1.348 . S
C235 C230 1.353 . S
C235 C234 1.348 . S
C235 H287 0.929 . S
H236 C230 0.930 . S
H237 C233 0.930 . S
C238 N239 1.314 . S
C238 C240 1.353 . S
C238 H244 0.930 . S
N239 Li215 1.990 . S
N239 C238 1.314 . S
N239 C242 1.279 . S
C240 C238 1.353 . S
C240 C243 1.348 . S
C240 H288 0.929 . S
C241 C242 1.358 . S
C241 C243 1.356 . S
C241 H289 0.930 . S
C242 N239 1.279 . S
C242 C241 1.358 . S
C242 H245 0.930 . S
C243 C240 1.348 . S
C243 C241 1.356 . S
H244 C238 0.930 . S
H245 C242 0.930 . S
C246 C248 1.348 . S
C246 C249 1.356 . S
C246 O276 1.325 . S
N247 C250 1.314 . S
N247 C251 1.279 . S
C248 C246 1.348 . S
C248 C250 1.353 . S
C248 H290 0.929 . S
C249 C246 1.356 . S
C249 C251 1.358 . S
C249 H291 0.930 . S
C250 N247 1.314 . S
C250 C248 1.353 . S
C250 H292 0.930 . S
C251 N247 1.279 . S
C251 C249 1.358 . S
C251 H293 0.930 . S
C252 C253 1.348 . S
C252 C254 1.356 . S
C252 O277 1.325 . S
C253 C252 1.348 . S
C253 C255 1.353 . S
C253 H294 0.929 . S
C254 C252 1.356 . S
C254 C256 1.358 . S
C254 H295 0.930 . S
C255 C253 1.353 . S
C255 N257 1.314 . S
C255 H296 0.930 . S
C256 C254 1.358 . S
C256 N257 1.279 . S
C256 H297 0.930 . S
N257 C255 1.314 . S
N257 C256 1.279 . S
C258 C260 1.353 . S
C258 N261 1.314 . S
C258 H264 0.930 . S
C259 N261 1.279 . S
C259 C262 1.358 . S
C259 H265 0.930 . S
C260 C258 1.353 . S
C260 C263 1.348 . S
C260 H298 0.929 . S
N261 Li216 1.990 . S
N261 C258 1.314 . S
N261 C259 1.279 . S
C262 C259 1.358 . S
C262 C263 1.356 . S
C262 H299 0.930 . S
C263 C260 1.348 . S
C263 C262 1.356 . S
H264 C258 0.930 . S
H265 C259 0.930 . S
C266 N267 1.314 . S
C266 C268 1.353 . S
C266 H272 0.930 . S
N267 Li217 1.990 . S
N267 C266 1.314 . S
N267 C270 1.279 . S
C268 C266 1.353 . S
C268 C271 1.348 . S
C268 H300 0.929 . S
C269 C270 1.358 . S
C269 C271 1.356 . S
C269 H301 0.930 . S
C270 N267 1.279 . S
C270 C269 1.358 . S
C270 H273 0.930 . S
C271 C268 1.348 . S
C271 C269 1.356 . S
H272 C266 0.930 . S
H273 C270 0.930 . S
O274 Li214 1.956 . S
O274 Li215 1.970 . S
O274 Li216 1.961 . S
O274 C218 1.325 . S
O275 Li214 1.970 . S
O275 Li215 1.956 . S
O275 Li217 1.961 . S
O275 C224 1.325 . S
O276 Li214 1.961 . S
O276 Li216 1.956 . S
O276 Li217 1.970 . S
O276 C246 1.325 . S
O277 Li215 1.961 . S
O277 Li216 1.970 . S
O277 Li217 1.956 . S
O277 C252 1.325 . S
H278 C220 0.929 . S
H279 C221 0.930 . S
H280 C222 0.930 . S
H281 C223 0.930 . S
H282 C225 0.930 . S
H283 C227 0.929 . S
H284 C228 0.930 . S
H285 C229 0.930 . S
H286 C232 0.930 . S
H287 C235 0.929 . S
H288 C240 0.929 . S
H289 C241 0.930 . S
H290 C248 0.929 . S
H291 C249 0.930 . S
H292 C250 0.930 . S
H293 C251 0.930 . S
H294 C253 0.929 . S
H295 C254 0.930 . S
H296 C255 0.930 . S
H297 C256 0.930 . S
H298 C260 0.929 . S
H299 C262 0.930 . S
H300 C268 0.929 . S
H301 C269 0.930 . S
Li302 N319 1.990 . S
Li302 O362 1.956 . S
Li302 O363 1.970 . S
Li302 O364 1.961 . S
Li303 N327 1.990 . S
Li303 O362 1.970 . S
Li303 O363 1.956 . S
Li303 O365 1.961 . S
Li304 N349 1.990 . S
Li304 O362 1.961 . S
Li304 O364 1.956 . S
Li304 O365 1.970 . S
Li305 N355 1.990 . S
Li305 O363 1.961 . S
Li305 O364 1.970 . S
Li305 O365 1.956 . S
C306 C308 1.348 . S
C306 C309 1.356 . S
C306 O362 1.325 . S
N307 C310 1.314 . S
N307 C311 1.279 . S
C308 C306 1.348 . S
C308 C310 1.353 . S
C308 H366 0.929 . S
C309 C306 1.356 . S
C309 C311 1.358 . S
C309 H367 0.930 . S
C310 N307 1.314 . S
C310 C308 1.353 . S
C310 H368 0.930 . S
C311 N307 1.279 . S
C311 C309 1.358 . S
C311 H369 0.930 . S
C312 C315 1.348 . S
C312 C316 1.356 . S
C312 O363 1.325 . S
C313 N314 1.279 . S
C313 C316 1.358 . S
C313 H370 0.930 . S
N314 C313 1.279 . S
N314 C317 1.314 . S
C315 C312 1.348 . S
C315 C317 1.353 . S
C315 H371 0.929 . S
C316 C312 1.356 . S
C316 C313 1.358 . S
C316 H372 0.930 . S
C317 N314 1.314 . S
C317 C315 1.353 . S
C317 H373 0.930 . S
C318 N319 1.314 . S
C318 C323 1.353 . S
C318 H324 0.930 . S
N319 Li302 1.990 . S
N319 C318 1.314 . S
N319 C321 1.279 . S
C320 C321 1.358 . S
C320 C322 1.356 . S
C320 H374 0.930 . S
C321 N319 1.279 . S
C321 C320 1.358 . S
C321 H325 0.930 . S
C322 C320 1.356 . S
C322 C323 1.348 . S
C323 C318 1.353 . S
C323 C322 1.348 . S
C323 H375 0.929 . S
H324 C318 0.930 . S
H325 C321 0.930 . S
C326 N327 1.314 . S
C326 C328 1.353 . S
C326 H332 0.930 . S
N327 Li303 1.990 . S
N327 C326 1.314 . S
N327 C330 1.279 . S
C328 C326 1.353 . S
C328 C331 1.348 . S
C328 H376 0.929 . S
C329 C330 1.358 . S
C329 C331 1.356 . S
C329 H377 0.930 . S
C330 N327 1.279 . S
C330 C329 1.358 . S
C330 H333 0.930 . S
C331 C328 1.348 . S
C331 C329 1.356 . S
H332 C326 0.930 . S
H333 C330 0.930 . S
C334 C336 1.348 . S
C334 C337 1.356 . S
C334 O364 1.325 . S
N335 C338 1.314 . S
N335 C339 1.279 . S
C336 C334 1.348 . S
C336 C338 1.353 . S
C336 H378 0.929 . S
C337 C334 1.356 . S
C337 C339 1.358 . S
C337 H379 0.930 . S
C338 N335 1.314 . S
C338 C336 1.353 . S
C338 H380 0.930 . S
C339 N335 1.279 . S
C339 C337 1.358 . S
C339 H381 0.930 . S
C340 C341 1.348 . S
C340 C342 1.356 . S
C340 O365 1.325 . S
C341 C340 1.348 . S
C341 C343 1.353 . S
C341 H382 0.929 . S
C342 C340 1.356 . S
C342 C344 1.358 . S
C342 H383 0.930 . S
C343 C341 1.353 . S
C343 N345 1.314 . S
C343 H384 0.930 . S
C344 C342 1.358 . S
C344 N345 1.279 . S
C344 H385 0.930 . S
N345 C343 1.314 . S
N345 C344 1.279 . S
C346 C348 1.353 . S
C346 N349 1.314 . S
C346 H352 0.930 . S
C347 N349 1.279 . S
C347 C350 1.358 . S
C347 H353 0.930 . S
C348 C346 1.353 . S
C348 C351 1.348 . S
C348 H386 0.929 . S
N349 Li304 1.990 . S
N349 C346 1.314 . S
N349 C347 1.279 . S
C350 C347 1.358 . S
C350 C351 1.356 . S
C350 H387 0.930 . S
C351 C348 1.348 . S
C351 C350 1.356 . S
H352 C346 0.930 . S
H353 C347 0.930 . S
C354 N355 1.314 . S
C354 C356 1.353 . S
C354 H360 0.930 . S
N355 Li305 1.990 . S
N355 C354 1.314 . S
N355 C358 1.279 . S
C356 C354 1.353 . S
C356 C359 1.348 . S
C356 H388 0.929 . S
C357 C358 1.358 . S
C357 C359 1.356 . S
C357 H389 0.930 . S
C358 N355 1.279 . S
C358 C357 1.358 . S
C358 H361 0.930 . S
C359 C356 1.348 . S
C359 C357 1.356 . S
H360 C354 0.930 . S
H361 C358 0.930 . S
O362 Li302 1.956 . S
O362 Li303 1.970 . S
O362 Li304 1.961 . S
O362 C306 1.325 . S
O363 Li302 1.970 . S
O363 Li303 1.956 . S
O363 Li305 1.961 . S
O363 C312 1.325 . S
O364 Li302 1.961 . S
O364 Li304 1.956 . S
O364 Li305 1.970 . S
O364 C334 1.325 . S
O365 Li303 1.961 . S
O365 Li304 1.970 . S
O365 Li305 1.956 . S
O365 C340 1.325 . S
H366 C308 0.929 . S
H367 C309 0.930 . S
H368 C310 0.930 . S
H369 C311 0.930 . S
H370 C313 0.930 . S
H371 C315 0.929 . S
H372 C316 0.930 . S
H373 C317 0.930 . S
H374 C320 0.930 . S
H375 C323 0.929 . S
H376 C328 0.929 . S
H377 C329 0.930 . S
H378 C336 0.929 . S
H379 C337 0.930 . S
H380 C338 0.930 . S
H381 C339 0.930 . S
H382 C341 0.929 . S
H383 C342 0.930 . S
H384 C343 0.930 . S
H385 C344 0.930 . S
H386 C348 0.929 . S
H387 C350 0.930 . S
H388 C356 0.929 . S
H389 C357 0.930 . S
Li390 N407 1.990 . S
Li390 O450 1.956 . S
Li390 O451 1.970 . S
Li390 O452 1.961 . S
Li391 N415 1.990 . S
Li391 O450 1.970 . S
Li391 O451 1.956 . S
Li391 O453 1.961 . S
Li392 N437 1.990 . S
Li392 O450 1.961 . S
Li392 O452 1.956 . S
Li392 O453 1.970 . S
Li393 N443 1.990 . S
Li393 O451 1.961 . S
Li393 O452 1.970 . S
Li393 O453 1.956 . S
C394 C396 1.348 . S
C394 C397 1.356 . S
C394 O450 1.325 . S
N395 C398 1.314 . S
N395 C399 1.279 . S
C396 C394 1.348 . S
C396 C398 1.353 1_556 S
C396 H454 0.929 . S
C397 C394 1.356 . S
C397 C399 1.358 1_556 S
C397 H455 0.930 . S
C398 N395 1.314 . S
C398 C396 1.353 1_554 S
C398 H456 0.930 . S
C399 N395 1.279 . S
C399 C397 1.358 1_554 S
C399 H457 0.930 . S
C400 C403 1.348 . S
C400 C404 1.356 . S
C400 O451 1.325 . S
C401 N402 1.279 . S
C401 C404 1.358 . S
C401 H458 0.930 . S
N402 C401 1.279 . S
N402 C405 1.314 . S
C403 C400 1.348 . S
C403 C405 1.353 . S
C403 H459 0.929 . S
C404 C400 1.356 . S
C404 C401 1.358 . S
C404 H460 0.930 . S
C405 N402 1.314 . S
C405 C403 1.353 . S
C405 H461 0.930 . S
C406 N407 1.314 . S
C406 C411 1.358 . S
C406 H412 0.930 . S
N407 Li390 1.990 . S
N407 C406 1.314 . S
N407 C409 1.279 1_556 S
C408 C409 1.358 . S
C408 C410 1.356 . S
C408 H462 0.930 . S
C409 N407 1.279 1_554 S
C409 C408 1.358 . S
C409 H413 0.930 . S
C410 C408 1.356 . S
C410 C411 1.342 1_554 S
C411 C406 1.358 . S
C411 C410 1.342 1_556 S
C411 H463 0.931 . S
H412 C406 0.930 . S
H413 C409 0.930 . S
C414 N415 1.314 . S
C414 C416 1.353 . S
C414 H420 0.930 . S
N415 Li391 1.990 . S
N415 C414 1.314 . S
N415 C418 1.279 . S
C416 C414 1.353 . S
C416 C419 1.348 . S
C416 H464 0.929 . S
C417 C418 1.358 . S
C417 C419 1.356 . S
C417 H465 0.930 . S
C418 N415 1.279 . S
C418 C417 1.358 . S
C418 H421 0.930 . S
C419 C416 1.348 . S
C419 C417 1.356 . S
H420 C414 0.930 . S
H421 C418 0.930 . S
C422 C424 1.348 . S
C422 C425 1.356 . S
C422 O452 1.325 . S
N423 C426 1.314 . S
N423 C427 1.279 . S
C424 C422 1.348 . S
C424 C426 1.353 . S
C424 H466 0.929 . S
C425 C422 1.356 . S
C425 C427 1.358 . S
C425 H467 0.930 . S
C426 N423 1.314 . S
C426 C424 1.353 . S
C426 H468 0.930 . S
C427 N423 1.279 . S
C427 C425 1.358 . S
C427 H469 0.930 . S
C428 C429 1.348 . S
C428 C430 1.356 . S
C428 O453 1.325 . S
C429 C428 1.348 . S
C429 C431 1.353 . S
C429 H470 0.929 . S
C430 C428 1.356 . S
C430 C432 1.358 . S
C430 H471 0.930 . S
C431 C429 1.353 . S
C431 N433 1.314 . S
C431 H472 0.930 . S
C432 C430 1.358 . S
C432 N433 1.279 . S
C432 H473 0.930 . S
N433 C431 1.314 . S
N433 C432 1.279 . S
C434 C436 1.353 . S
C434 N437 1.314 . S
C434 H440 0.930 . S
C435 N437 1.279 . S
C435 C438 1.358 . S
C435 H441 0.930 . S
C436 C434 1.353 . S
C436 C439 1.348 . S
C436 H474 0.929 . S
N437 Li392 1.990 . S
N437 C434 1.314 . S
N437 C435 1.279 . S
C438 C435 1.358 . S
C438 C439 1.356 . S
C438 H475 0.930 . S
C439 C436 1.348 . S
C439 C438 1.356 . S
H440 C434 0.930 . S
H441 C435 0.930 . S
C442 N443 1.314 . S
C442 C444 1.353 . S
C442 H448 0.930 . S
N443 Li393 1.990 . S
N443 C442 1.314 . S
N443 C446 1.279 . S
C444 C442 1.353 . S
C444 C447 1.348 . S
C444 H476 0.929 . S
C445 C446 1.358 . S
C445 C447 1.356 . S
C445 H477 0.930 . S
C446 N443 1.279 . S
C446 C445 1.358 . S
C446 H449 0.930 . S
C447 C444 1.348 . S
C447 C445 1.356 . S
H448 C442 0.930 . S
H449 C446 0.930 . S
O450 Li390 1.956 . S
O450 Li391 1.970 . S
O450 Li392 1.961 . S
O450 C394 1.325 . S
O451 Li390 1.970 . S
O451 Li391 1.956 . S
O451 Li393 1.961 . S
O451 C400 1.325 . S
O452 Li390 1.961 . S
O452 Li392 1.956 . S
O452 Li393 1.970 . S
O452 C422 1.325 . S
O453 Li391 1.961 . S
O453 Li392 1.970 . S
O453 Li393 1.956 . S
O453 C428 1.325 . S
H454 C396 0.929 . S
H455 C397 0.930 . S
H456 C398 0.930 . S
H457 C399 0.930 . S
H458 C401 0.930 . S
H459 C403 0.929 . S
H460 C404 0.930 . S
H461 C405 0.930 . S
H462 C408 0.930 . S
H463 C411 0.931 . S
H464 C416 0.929 . S
H465 C417 0.930 . S
H466 C424 0.929 . S
H467 C425 0.930 . S
H468 C426 0.930 . S
H469 C427 0.930 . S
H470 C429 0.929 . S
H471 C430 0.930 . S
H472 C431 0.930 . S
H473 C432 0.930 . S
H474 C436 0.929 . S
H475 C438 0.930 . S
H476 C444 0.929 . S
H477 C445 0.930 . S
Li478 N495 1.990 . S
Li478 O538 1.956 . S
Li478 O539 1.970 . S
Li478 O540 1.961 . S
Li479 N503 1.990 . S
Li479 O538 1.970 . S
Li479 O539 1.956 . S
Li479 O541 1.961 . S
Li480 N525 1.990 . S
Li480 O538 1.961 . S
Li480 O540 1.956 . S
Li480 O541 1.970 . S
Li481 N531 1.990 . S
Li481 O539 1.961 . S
Li481 O540 1.970 . S
Li481 O541 1.956 . S
C482 C484 1.348 . S
C482 C485 1.356 . S
C482 O538 1.325 . S
N483 C486 1.314 . S
N483 C487 1.279 . S
C484 C482 1.348 . S
C484 C486 1.353 . S
C484 H542 0.929 . S
C485 C482 1.356 . S
C485 C487 1.358 . S
C485 H543 0.930 . S
C486 N483 1.314 . S
C486 C484 1.353 . S
C486 H544 0.930 . S
C487 N483 1.279 . S
C487 C485 1.358 . S
C487 H545 0.930 . S
C488 C491 1.348 . S
C488 C492 1.356 . S
C488 O539 1.325 . S
C489 N490 1.279 . S
C489 C492 1.358 . S
C489 H546 0.930 . S
N490 C489 1.279 . S
N490 C493 1.314 . S
C491 C488 1.348 . S
C491 C493 1.353 . S
C491 H547 0.929 . S
C492 C488 1.356 . S
C492 C489 1.358 . S
C492 H548 0.930 . S
C493 N490 1.314 . S
C493 C491 1.353 . S
C493 H549 0.930 . S
C494 N495 1.314 . S
C494 C499 1.353 . S
C494 H500 0.930 . S
N495 Li478 1.990 . S
N495 C494 1.314 . S
N495 C497 1.279 . S
C496 C497 1.358 . S
C496 C498 1.356 . S
C496 H550 0.930 . S
C497 N495 1.279 . S
C497 C496 1.358 . S
C497 H501 0.930 . S
C498 C496 1.356 . S
C498 C499 1.348 . S
C499 C494 1.353 . S
C499 C498 1.348 . S
C499 H551 0.929 . S
H500 C494 0.930 . S
H501 C497 0.930 . S
C502 N503 1.314 . S
C502 C504 1.353 . S
C502 H508 0.930 . S
N503 Li479 1.990 . S
N503 C502 1.314 . S
N503 C506 1.279 . S
C504 C502 1.353 . S
C504 C507 1.348 . S
C504 H552 0.929 . S
C505 C506 1.358 . S
C505 C507 1.356 . S
C505 H553 0.930 . S
C506 N503 1.279 . S
C506 C505 1.358 . S
C506 H509 0.930 . S
C507 C504 1.348 . S
C507 C505 1.356 . S
H508 C502 0.930 . S
H509 C506 0.930 . S
C510 C512 1.348 . S
C510 C513 1.356 . S
C510 O540 1.325 . S
N511 C514 1.314 . S
N511 C515 1.279 . S
C512 C510 1.348 . S
C512 C514 1.353 1_554 S
C512 H554 0.929 . S
C513 C510 1.356 . S
C513 C515 1.358 1_554 S
C513 H555 0.930 . S
C514 N511 1.314 . S
C514 C512 1.353 1_556 S
C514 H556 0.930 . S
C515 N511 1.279 . S
C515 C513 1.358 1_556 S
C515 H557 0.930 . S
C516 C517 1.348 . S
C516 C518 1.356 . S
C516 O541 1.325 . S
C517 C516 1.348 . S
C517 C519 1.353 . S
C517 H558 0.929 . S
C518 C516 1.356 . S
C518 C520 1.358 . S
C518 H559 0.930 . S
C519 C517 1.353 . S
C519 N521 1.314 . S
C519 H560 0.930 . S
C520 C518 1.358 . S
C520 N521 1.279 . S
C520 H561 0.930 . S
N521 C519 1.314 . S
N521 C520 1.279 . S
C522 C524 1.353 1_554 S
C522 N525 1.314 . S
C522 H528 0.930 . S
C523 N525 1.279 1_556 S
C523 C526 1.358 . S
C523 H529 0.930 . S
C524 C522 1.353 1_556 S
C524 C527 1.348 . S
C524 H562 0.929 . S
N525 Li480 1.990 . S
N525 C522 1.314 . S
N525 C523 1.279 1_554 S
C526 C523 1.358 . S
C526 C527 1.356 . S
C526 H563 0.930 . S
C527 C524 1.348 . S
C527 C526 1.356 . S
H528 C522 0.930 . S
H529 C523 0.930 . S
C530 N531 1.314 . S
C530 C532 1.353 . S
C530 H536 0.930 . S
N531 Li481 1.990 . S
N531 C530 1.314 . S
N531 C534 1.279 . S
C532 C530 1.353 . S
C532 C535 1.348 . S
C532 H564 0.929 . S
C533 C534 1.358 . S
C533 C535 1.356 . S
C533 H565 0.930 . S
C534 N531 1.279 . S
C534 C533 1.358 . S
C534 H537 0.930 . S
C535 C532 1.348 . S
C535 C533 1.356 . S
H536 C530 0.930 . S
H537 C534 0.930 . S
O538 Li478 1.956 . S
O538 Li479 1.970 . S
O538 Li480 1.961 . S
O538 C482 1.325 . S
O539 Li478 1.970 . S
O539 Li479 1.956 . S
O539 Li481 1.961 . S
O539 C488 1.325 . S
O540 Li478 1.961 . S
O540 Li480 1.956 . S
O540 Li481 1.970 . S
O540 C510 1.325 . S
O541 Li479 1.961 . S
O541 Li480 1.970 . S
O541 Li481 1.956 . S
O541 C516 1.325 . S
H542 C484 0.929 . S
H543 C485 0.930 . S
H544 C486 0.930 . S
H545 C487 0.930 . S
H546 C489 0.930 . S
H547 C491 0.929 . S
H548 C492 0.930 . S
H549 C493 0.930 . S
H550 C496 0.930 . S
H551 C499 0.929 . S
H552 C504 0.929 . S
H553 C505 0.930 . S
H554 C512 0.929 . S
H555 C513 0.930 . S
H556 C514 0.930 . S
H557 C515 0.930 . S
H558 C517 0.929 . S
H559 C518 0.930 . S
H560 C519 0.930 . S
H561 C520 0.930 . S
H562 C524 0.929 . S
H563 C526 0.930 . S
H564 C532 0.929 . S
H565 C533 0.930 . S
Li566 N583 1.990 . S
Li566 O626 1.956 . S
Li566 O627 1.970 . S
Li566 O628 1.961 . S
Li567 N591 1.990 . S
Li567 O626 1.970 . S
Li567 O627 1.956 . S
Li567 O629 1.961 . S
Li568 N613 1.990 . S
Li568 O626 1.961 . S
Li568 O628 1.956 . S
Li568 O629 1.970 . S
Li569 N619 1.990 . S
Li569 O627 1.961 . S
Li569 O628 1.970 . S
Li569 O629 1.956 . S
C570 C572 1.348 . S
C570 C573 1.356 . S
C570 O626 1.325 . S
N571 C574 1.314 . S
N571 C575 1.279 . S
C572 C570 1.348 . S
C572 C574 1.353 . S
C572 H630 0.929 . S
C573 C570 1.356 . S
C573 C575 1.358 . S
C573 H631 0.930 . S
C574 N571 1.314 . S
C574 C572 1.353 . S
C574 H632 0.930 . S
C575 N571 1.279 . S
C575 C573 1.358 . S
C575 H633 0.930 . S
C576 C579 1.348 . S
C576 C580 1.356 . S
C576 O627 1.325 . S
C577 N578 1.279 . S
C577 C580 1.358 . S
C577 H634 0.930 . S
N578 C577 1.279 . S
N578 C581 1.314 . S
C579 C576 1.348 . S
C579 C581 1.353 . S
C579 H635 0.929 . S
C580 C576 1.356 . S
C580 C577 1.358 . S
C580 H636 0.930 . S
C581 N578 1.314 . S
C581 C579 1.353 . S
C581 H637 0.930 . S
C582 N583 1.314 . S
C582 C587 1.353 . S
C582 H588 0.930 . S
N583 Li566 1.990 . S
N583 C582 1.314 . S
N583 C585 1.279 . S
C584 C585 1.358 . S
C584 C586 1.356 . S
C584 H638 0.930 . S
C585 N583 1.279 . S
C585 C584 1.358 . S
C585 H589 0.930 . S
C586 C584 1.356 . S
C586 C587 1.348 . S
C587 C582 1.353 . S
C587 C586 1.348 . S
C587 H639 0.929 . S
H588 C582 0.930 . S
H589 C585 0.930 . S
C590 N591 1.314 . S
C590 C592 1.353 . S
C590 H596 0.930 . S
N591 Li567 1.990 . S
N591 C590 1.314 . S
N591 C594 1.279 . S
C592 C590 1.353 . S
C592 C595 1.348 . S
C592 H640 0.929 . S
C593 C594 1.358 . S
C593 C595 1.356 . S
C593 H641 0.930 . S
C594 N591 1.279 . S
C594 C593 1.358 . S
C594 H597 0.930 . S
C595 C592 1.348 . S
C595 C593 1.356 . S
H596 C590 0.930 . S
H597 C594 0.930 . S
C598 C600 1.348 . S
C598 C601 1.356 . S
C598 O628 1.325 . S
N599 C602 1.314 . S
N599 C603 1.279 . S
C600 C598 1.348 . S
C600 C602 1.353 . S
C600 H642 0.929 . S
C601 C598 1.356 . S
C601 C603 1.358 . S
C601 H643 0.930 . S
C602 N599 1.314 . S
C602 C600 1.353 . S
C602 H644 0.930 . S
C603 N599 1.279 . S
C603 C601 1.358 . S
C603 H645 0.930 . S
C604 C605 1.348 . S
C604 C606 1.356 . S
C604 O629 1.325 . S
C605 C604 1.348 . S
C605 C607 1.353 . S
C605 H646 0.929 . S
C606 C604 1.356 . S
C606 C608 1.358 . S
C606 H647 0.930 . S
C607 C605 1.353 . S
C607 N609 1.314 . S
C607 H648 0.930 . S
C608 C606 1.358 . S
C608 N609 1.279 . S
C608 H649 0.930 . S
N609 C607 1.314 . S
N609 C608 1.279 . S
C610 C612 1.353 . S
C610 N613 1.314 . S
C610 H616 0.930 . S
C611 N613 1.279 . S
C611 C614 1.358 . S
C611 H617 0.930 . S
C612 C610 1.353 . S
C612 C615 1.348 . S
C612 H650 0.929 . S
N613 Li568 1.990 . S
N613 C610 1.314 . S
N613 C611 1.279 . S
C614 C611 1.358 . S
C614 C615 1.356 . S
C614 H651 0.930 . S
C615 C612 1.348 . S
C615 C614 1.356 . S
H616 C610 0.930 . S
H617 C611 0.930 . S
C618 N619 1.314 . S
C618 C620 1.353 . S
C618 H624 0.930 . S
N619 Li569 1.990 . S
N619 C618 1.314 . S
N619 C622 1.279 . S
C620 C618 1.353 . S
C620 C623 1.348 . S
C620 H652 0.929 . S
C621 C622 1.358 . S
C621 C623 1.356 . S
C621 H653 0.930 . S
C622 N619 1.279 . S
C622 C621 1.358 . S
C622 H625 0.930 . S
C623 C620 1.348 . S
C623 C621 1.356 . S
H624 C618 0.930 . S
H625 C622 0.930 . S
O626 Li566 1.956 . S
O626 Li567 1.970 . S
O626 Li568 1.961 . S
O626 C570 1.325 . S
O627 Li566 1.970 . S
O627 Li567 1.956 . S
O627 Li569 1.961 . S
O627 C576 1.325 . S
O628 Li566 1.961 . S
O628 Li568 1.956 . S
O628 Li569 1.970 . S
O628 C598 1.325 . S
O629 Li567 1.961 . S
O629 Li568 1.970 . S
O629 Li569 1.956 . S
O629 C604 1.325 . S
H630 C572 0.929 . S
H631 C573 0.930 . S
H632 C574 0.930 . S
H633 C575 0.930 . S
H634 C577 0.930 . S
H635 C579 0.929 . S
H636 C580 0.930 . S
H637 C581 0.930 . S
H638 C584 0.930 . S
H639 C587 0.929 . S
H640 C592 0.929 . S
H641 C593 0.930 . S
H642 C600 0.929 . S
H643 C601 0.930 . S
H644 C602 0.930 . S
H645 C603 0.930 . S
H646 C605 0.929 . S
H647 C606 0.930 . S
H648 C607 0.930 . S
H649 C608 0.930 . S
H650 C612 0.929 . S
H651 C614 0.930 . S
H652 C620 0.929 . S
H653 C621 0.930 . S
C654 C655 1.387 . S
C654 H658 0.950 . S
C654 C663 1.390 . S
C655 C654 1.387 . S
C655 C657 1.387 . S
H656 C663 0.950 . S
C657 C655 1.387 . S
C657 C659 1.390 . S
C657 H661 0.950 . S
H658 C654 0.950 . S
C659 C657 1.390 . S
C659 C660 1.387 . S
C659 H662 0.950 . S
C660 C659 1.387 . S
C660 C663 1.387 . S
H661 C657 0.950 . S
H662 C659 0.950 . S
C663 C654 1.390 . S
C663 H656 0.950 . S
C663 C660 1.387 . S
C664 C665 1.387 . S
C664 H668 0.950 . S
C664 C673 1.390 . S
C665 C664 1.387 . S
C665 C667 1.387 . S
H666 C673 0.950 . S
C667 C665 1.387 . S
C667 C669 1.390 . S
C667 H671 0.950 . S
H668 C664 0.950 . S
C669 C667 1.390 . S
C669 C670 1.387 . S
C669 H672 0.950 . S
C670 C669 1.387 . S
C670 C673 1.387 . S
H671 C667 0.950 . S
H672 C669 0.950 . S
C673 C664 1.390 . S
C673 H666 0.950 . S
C673 C670 1.387 . S
C674 C675 1.387 . S
C674 H678 0.950 . S
C674 C683 1.390 . S
C675 C674 1.387 . S
C675 C677 1.387 . S
H676 C683 0.950 . S
C677 C675 1.387 . S
C677 C679 1.390 . S
C677 H681 0.950 . S
H678 C674 0.950 . S
C679 C677 1.390 . S
C679 C680 1.387 . S
C679 H682 0.950 . S
C680 C679 1.387 . S
C680 C683 1.387 . S
H681 C677 0.950 . S
H682 C679 0.950 . S
C683 C674 1.390 . S
C683 H676 0.950 . S
C683 C680 1.387 . S
C684 C685 1.387 . S
C684 H688 0.950 . S
C684 C693 1.390 . S
C685 C684 1.387 . S
C685 C687 1.387 . S
H686 C693 0.950 . S
C687 C685 1.387 . S
C687 C689 1.390 . S
C687 H691 0.950 . S
H688 C684 0.950 . S
C689 C687 1.390 . S
C689 C690 1.387 . S
C689 H692 0.950 . S
C690 C689 1.387 . S
C690 C693 1.387 . S
H691 C687 0.950 . S
H692 C689 0.950 . S
C693 C684 1.390 . S
C693 H686 0.950 . S
C693 C690 1.387 . S
C694 C695 1.387 . S
C694 H698 0.950 . S
C694 C703 1.390 . S
C695 C694 1.387 . S
C695 C697 1.387 . S
H696 C703 0.950 . S
C697 C695 1.387 . S
C697 C699 1.390 . S
C697 H701 0.950 1_556 S
H698 C694 0.950 . S
C699 C697 1.390 . S
C699 C700 1.387 . S
C699 H702 0.950 . S
C700 C699 1.387 . S
C700 C703 1.387 . S
H701 C697 0.950 1_554 S
H702 C699 0.950 . S
C703 C694 1.390 . S
C703 H696 0.950 . S
C703 C700 1.387 . S
C704 C705 1.387 . S
C704 H708 0.950 . S
C704 C713 1.390 . S
C705 C704 1.387 . S
C705 C707 1.387 . S
H706 C713 0.950 . S
C707 C705 1.387 . S
C707 C709 1.390 . S
C707 H711 0.950 . S
H708 C704 0.950 . S
C709 C707 1.390 . S
C709 C710 1.387 . S
C709 H712 0.950 . S
C710 C709 1.387 . S
C710 C713 1.387 . S
H711 C707 0.950 . S
H712 C709 0.950 . S
C713 C704 1.390 . S
C713 H706 0.950 . S
C713 C710 1.387 . S
C714 C715 1.387 . S
C714 H718 0.950 . S
C714 C723 1.390 . S
C715 C714 1.387 . S
C715 C717 1.387 . S
H716 C723 0.950 . S
C717 C715 1.387 . S
C717 C719 1.390 . S
C717 H721 0.950 . S
H718 C714 0.950 . S
C719 C717 1.390 . S
C719 C720 1.387 . S
C719 H722 0.950 . S
C720 C719 1.387 . S
C720 C723 1.387 . S
H721 C717 0.950 . S
H722 C719 0.950 . S
C723 C714 1.390 . S
C723 H716 0.950 . S
C723 C720 1.387 . S
C724 C725 1.387 . S
C724 H728 0.950 . S
C724 C733 1.390 . S
C725 C724 1.387 . S
C725 C727 1.387 . S
H726 C733 0.950 . S
C727 C725 1.387 . S
C727 C729 1.390 . S
C727 H731 0.950 . S
H728 C724 0.950 . S
C729 C727 1.390 . S
C729 C730 1.387 . S
C729 H732 0.950 . S
C730 C729 1.387 . S
C730 C733 1.387 . S
H731 C727 0.950 . S
H732 C729 0.950 . S
C733 C724 1.390 . S
C733 H726 0.950 . S
C733 C730 1.387 . S
C734 C735 1.387 . S
C734 H738 0.950 . S
C734 C743 1.390 . S
C735 C734 1.387 . S
C735 C737 1.387 . S
H736 C743 0.950 . S
C737 C735 1.387 . S
C737 C739 1.390 . S
C737 H741 0.950 . S
H738 C734 0.950 . S
C739 C737 1.390 . S
C739 C740 1.387 . S
C739 H742 0.950 . S
C740 C739 1.387 . S
C740 C743 1.387 . S
H741 C737 0.950 . S
H742 C739 0.950 . S
C743 C734 1.390 . S
C743 H736 0.950 . S
C743 C740 1.387 . S
C744 C745 1.387 . S
C744 H748 0.950 1_554 S
C744 C753 1.390 . S
C745 C744 1.387 . S
C745 C747 1.387 . S
H746 C753 0.950 . S
C747 C745 1.387 . S
C747 C749 1.390 . S
C747 H751 0.950 . S
H748 C744 0.950 1_556 S
C749 C747 1.390 . S
C749 C750 1.387 . S
C749 H752 0.950 . S
C750 C749 1.387 . S
C750 C753 1.387 . S
H751 C747 0.950 . S
H752 C749 0.950 . S
C753 C744 1.390 . S
C753 H746 0.950 . S
C753 C750 1.387 . S
C754 C755 1.387 . S
C754 H758 0.950 . S
C754 C763 1.390 . S
C755 C754 1.387 . S
C755 C757 1.387 . S
H756 C763 0.950 . S
C757 C755 1.387 . S
C757 C759 1.390 . S
C757 H761 0.950 . S
H758 C754 0.950 . S
C759 C757 1.390 . S
C759 C760 1.387 . S
C759 H762 0.950 . S
C760 C759 1.387 . S
C760 C763 1.387 . S
H761 C757 0.950 . S
H762 C759 0.950 . S
C763 C754 1.390 . S
C763 H756 0.950 . S
C763 C760 1.387 . S
C764 C765 1.387 . S
C764 H768 0.950 . S
C764 C773 1.390 . S
C765 C764 1.387 . S
C765 C767 1.387 . S
H766 C773 0.950 . S
C767 C765 1.387 . S
C767 C769 1.390 . S
C767 H771 0.950 . S
H768 C764 0.950 . S
C769 C767 1.390 . S
C769 C770 1.387 . S
C769 H772 0.950 . S
C770 C769 1.387 . S
C770 C773 1.387 . S
H771 C767 0.950 . S
H772 C769 0.950 . S
C773 C764 1.390 . S
C773 H766 0.950 . S
C773 C770 1.387 . S
C774 C775 1.387 . S
C774 H778 0.950 . S
C774 C783 1.390 . S
C775 C774 1.387 . S
C775 C777 1.387 . S
H776 C783 0.950 . S
C777 C775 1.387 . S
C777 C779 1.390 . S
C777 H781 0.950 . S
H778 C774 0.950 . S
C779 C777 1.390 . S
C779 C780 1.387 . S
C779 H782 0.950 . S
C780 C779 1.387 . S
C780 C783 1.387 . S
H781 C777 0.950 . S
H782 C779 0.950 . S
C783 C774 1.390 . S
C783 H776 0.950 . S
C783 C780 1.387 . S
C784 C785 1.387 . S
C784 H788 0.950 . S
C784 C793 1.390 . S
C785 C784 1.387 . S
C785 C787 1.387 . S
H786 C793 0.950 . S
C787 C785 1.387 . S
C787 C789 1.390 . S
C787 H791 0.950 . S
H788 C784 0.950 . S
C789 C787 1.390 . S
C789 C790 1.387 . S
C789 H792 0.950 . S
C790 C789 1.387 . S
C790 C793 1.387 . S
H791 C787 0.950 . S
H792 C789 0.950 . S
C793 C784 1.390 . S
C793 H786 0.950 . S
C793 C790 1.387 . S
C794 C795 1.387 . S
C794 H798 0.950 . S
C794 C803 1.390 . S
C795 C794 1.387 . S
C795 C797 1.387 . S
H796 C803 0.950 . S
C797 C795 1.387 . S
C797 C799 1.390 . S
C797 H801 0.950 . S
H798 C794 0.950 . S
C799 C797 1.390 . S
C799 C800 1.387 . S
C799 H802 0.950 . S
C800 C799 1.387 . S
C800 C803 1.387 . S
H801 C797 0.950 . S
H802 C799 0.950 . S
C803 C794 1.390 . S
C803 H796 0.950 . S
C803 C800 1.387 . S
C804 C805 1.387 . S
C804 H808 0.950 . S
C804 C813 1.390 . S
C805 C804 1.387 . S
C805 C807 1.387 . S
H806 C813 0.950 . S
C807 C805 1.387 . S
C807 C809 1.390 . S
C807 H811 0.950 . S
H808 C804 0.950 . S
C809 C807 1.390 . S
C809 C810 1.387 . S
C809 H812 0.950 . S
C810 C809 1.387 . S
C810 C813 1.387 . S
H811 C807 0.950 . S
H812 C809 0.950 . S
C813 C804 1.390 . S
C813 H806 0.950 . S
C813 C810 1.387 . S
C814 C815 1.387 . S
C814 H818 0.950 . S
C814 C823 1.390 . S
C815 C814 1.387 . S
C815 C817 1.387 . S
H816 C823 0.950 . S
C817 C815 1.387 . S
C817 C819 1.390 . S
C817 H821 0.950 . S
H818 C814 0.950 . S
C819 C817 1.390 . S
C819 C820 1.387 . S
C819 H822 0.950 . S
C820 C819 1.387 . S
C820 C823 1.387 . S
H821 C817 0.950 . S
H822 C819 0.950 . S
C823 C814 1.390 . S
C823 H816 0.950 . S
C823 C820 1.387 . S
C824 C825 1.387 . S
C824 H828 0.950 . S
C824 C833 1.390 . S
C825 C824 1.387 . S
C825 C827 1.387 . S
H826 C833 0.950 . S
C827 C825 1.387 . S
C827 C829 1.390 . S
C827 H831 0.950 . S
H828 C824 0.950 . S
C829 C827 1.390 . S
C829 C830 1.387 . S
C829 H832 0.950 . S
C830 C829 1.387 . S
C830 C833 1.387 . S
H831 C827 0.950 . S
H832 C829 0.950 . S
C833 C824 1.390 . S
C833 H826 0.950 . S
C833 C830 1.387 . S
C834 C835 1.387 . S
C834 H838 0.950 . S
C834 C843 1.390 . S
C835 C834 1.387 . S
C835 C837 1.387 . S
H836 C843 0.950 . S
C837 C835 1.387 . S
C837 C839 1.390 . S
C837 H841 0.950 . S
H838 C834 0.950 . S
C839 C837 1.390 . S
C839 C840 1.387 . S
C839 H842 0.950 . S
C840 C839 1.387 . S
C840 C843 1.387 . S
H841 C837 0.950 . S
H842 C839 0.950 . S
C843 C834 1.390 . S
C843 H836 0.950 . S
C843 C840 1.387 . S
C844 C845 1.387 . S
C844 H848 0.950 . S
C844 C853 1.390 . S
C845 C844 1.387 . S
C845 C847 1.387 . S
H846 C853 0.950 . S
C847 C845 1.387 . S
C847 C849 1.390 . S
C847 H851 0.950 . S
H848 C844 0.950 . S
C849 C847 1.390 . S
C849 C850 1.387 . S
C849 H852 0.950 . S
C850 C849 1.387 . S
C850 C853 1.387 . S
H851 C847 0.950 . S
H852 C849 0.950 . S
C853 C844 1.390 . S
C853 H846 0.950 . S
C853 C850 1.387 . S
C854 C855 1.387 . S
C854 H858 0.950 . S
C854 C863 1.390 . S
C855 C854 1.387 . S
C855 C857 1.387 . S
H856 C863 0.950 . S
C857 C855 1.387 . S
C857 C859 1.390 . S
C857 H861 0.950 . S
H858 C854 0.950 . S
C859 C857 1.390 . S
C859 C860 1.387 . S
C859 H862 0.950 . S
C860 C859 1.387 . S
C860 C863 1.387 . S
H861 C857 0.950 . S
H862 C859 0.950 . S
C863 C854 1.390 . S
C863 H856 0.950 . S
C863 C860 1.387 . S
C864 C865 1.387 . S
C864 H868 0.950 . S
C864 C873 1.390 . S
C865 C864 1.387 . S
C865 C867 1.387 . S
H866 C873 0.950 . S
C867 C865 1.387 . S
C867 C869 1.390 . S
C867 H871 0.950 . S
H868 C864 0.950 . S
C869 C867 1.390 . S
C869 C870 1.387 . S
C869 H872 0.950 . S
C870 C869 1.387 . S
C870 C873 1.387 . S
H871 C867 0.950 . S
H872 C869 0.950 . S
C873 C864 1.390 . S
C873 H866 0.950 . S
C873 C870 1.387 . S
C874 C875 1.387 . S
C874 H878 0.950 . S
C874 C883 1.390 . S
C875 C874 1.387 . S
C875 C877 1.387 . S
H876 C883 0.950 . S
C877 C875 1.387 . S
C877 C879 1.390 . S
C877 H881 0.950 . S
H878 C874 0.950 . S
C879 C877 1.390 . S
C879 C880 1.387 . S
C879 H882 0.950 . S
C880 C879 1.387 . S
C880 C883 1.387 . S
H881 C877 0.950 . S
H882 C879 0.950 . S
C883 C874 1.390 . S
C883 H876 0.950 . S
C883 C880 1.387 . S
C884 C885 1.387 . S
C884 H888 0.950 . S
C884 C893 1.390 . S
C885 C884 1.387 . S
C885 C887 1.387 . S
H886 C893 0.950 . S
C887 C885 1.387 . S
C887 C889 1.390 . S
C887 H891 0.950 . S
H888 C884 0.950 . S
C889 C887 1.390 . S
C889 C890 1.387 . S
C889 H892 0.950 . S
C890 C889 1.387 . S
C890 C893 1.387 . S
H891 C887 0.950 . S
H892 C889 0.950 . S
C893 C884 1.390 . S
C893 H886 0.950 . S
C893 C890 1.387 . S
C660 C595 1.625 . S
C655 C19 1.541 . S
C665 C40 1.544 . S
C670 C155 1.628 . S
C675 C51 1.535 . S
C680 C243 1.637 . S
C685 C72 1.527 . S
C690 C322 1.631 . S
C700 C419 1.627 . S
C695 C103 1.544 . S
C705 C114 1.525 . S
C710 C498 1.630 . S
C715 C30 1.535 . S
C720 C263 1.637 . S
C725 C61 1.542 . S
C730 C359 1.626 . S
C735 C82 1.541 . S
C740 C439 1.626 . S
C750 C535 1.629 . S
C745 C93 1.525 . S
C760 C615 1.625 . S
C755 C124 1.543 . S
C770 C175 1.631 . S
C765 C9 1.525 . S
C775 C17 1.465 . S
C780 C271 1.564 . S
C785 C38 1.463 . S
C790 C351 1.561 . S
C800 C447 1.555 . S
C795 C54 1.456 . S
C805 C75 1.458 . S
C810 C527 1.561 . S
C820 C623 1.558 . S
C815 C101 1.457 . S
C830 C183 1.557 . S
C825 C117 1.456 . S
C840 C586 1.554 . S
C835 C33 1.452 . S
C845 C59 1.459 . S
C850 C146 1.559 . S
C860 C234 1.563 . S
C855 C80 1.466 . S
C865 C96 1.456 . S
C870 C331 1.556 . S
C875 C122 1.460 . S
C880 C410 1.559 . S
C885 C12 1.462 . S
C890 C507 1.562 . S
