# Generated by pormake.
# Topology tsx, (6,3)-cn, num edge types: 1
# Building blocks:
#     Node 0, Type 0, BuildingBlock: FUNLAD_clean_sbu_0, # of connection points: 6
#     Node 1, Type 0, BuildingBlock: FUNLAD_clean_sbu_0, # of connection points: 6
#     Node 2, Type 1, BuildingBlock: QEWDON_clean_linker_0, # of connection points: 3
#     Node 3, Type 1, BuildingBlock: QEWDON_clean_linker_0, # of connection points: 3
#     Node 4, Type 1, BuildingBlock: QEWDON_clean_linker_0, # of connection points: 3
#     Node 5, Type 1, BuildingBlock: QEWDON_clean_linker_0, # of connection points: 3
#     Edge 6, Type (0, 1), BuildingBlock: TEMPAE_clean_linker_10, # of connection points: 2
#     Edge 7, Type (0, 1), BuildingBlock: TEMPAE_clean_linker_10, # of connection points: 2
#     Edge 8, Type (0, 1), BuildingBlock: TEMPAE_clean_linker_10, # of connection points: 2
#     Edge 9, Type (0, 1), BuildingBlock: TEMPAE_clean_linker_10, # of connection points: 2
#     Edge 10, Type (0, 1), BuildingBlock: TEMPAE_clean_linker_10, # of connection points: 2
#     Edge 11, Type (0, 1), BuildingBlock: TEMPAE_clean_linker_10, # of connection points: 2
#     Edge 12, Type (0, 1), BuildingBlock: TEMPAE_clean_linker_10, # of connection points: 2
#     Edge 13, Type (0, 1), BuildingBlock: TEMPAE_clean_linker_10, # of connection points: 2
#     Edge 14, Type (0, 1), BuildingBlock: TEMPAE_clean_linker_10, # of connection points: 2
#     Edge 15, Type (0, 1), BuildingBlock: TEMPAE_clean_linker_10, # of connection points: 2
#     Edge 16, Type (0, 1), BuildingBlock: TEMPAE_clean_linker_10, # of connection points: 2
#     Edge 17, Type (0, 1), BuildingBlock: TEMPAE_clean_linker_10, # of connection points: 2
# Relax obj value: 0.120
# Max RMSD: 0.176
# Mean RMSD: 0.151
data_MOF--net-tsx--node1-FUNLAD_clean_sbu_0--node2-QEWDON_clean_linker_0--edge1-TEMPAE_clean_linker_10
_symmetry_space_group_name_H-M    P1
_symmetry_Int_Tables_number       1
_symmetry_cell_setting            triclinic
loop_
_symmetry_equiv_pos_as_xyz
'x, y, z'
_cell_length_a     19.08577
_cell_length_b     23.078795
_cell_length_c     36.092184
_cell_angle_alpha  90.917028
_cell_angle_beta   104.9186
_cell_angle_gamma 90.182515
loop_
_atom_site_label
_atom_site_type_symbol
_atom_site_fract_x
_atom_site_fract_y
_atom_site_fract_z
_atom_type_partial_charge
C0 C 1.05237 0.90447 0.0485 0.0
N1 N 0.17594 0.00187 0.14493 0.0
C2 C 0.11496 0.00888 0.1575 0.0
C3 C 0.11989 0.01806 0.19646 0.0
C4 C 0.18805 0.01861 0.22292 0.0
C5 C 0.25003 0.00986 0.20949 0.0
C6 C 0.24279 0.00221 0.17011 0.0
Zn7 Zn 0.16561 0.99384 0.08664 0.0
C8 C 0.27068 0.90989 0.0686 0.0
N9 N 0.14169 0.98027 0.96497 0.0
C10 C 0.07542 0.9876 0.94014 0.0
C11 C 0.20252 0.97589 0.952 0.0
C12 C 0.19824 0.9798 0.91284 0.0
C13 C 0.13091 0.98937 0.88682 0.0
C14 C 0.06887 0.99271 0.90083 0.0
Zn15 Zn 0.15194 0.98459 1.02326 0.0
O16 O 0.08434 0.92615 0.08131 0.0
C17 C 1.05018 0.07016 0.04406 0.0
O18 O 0.07244 0.91998 1.01915 0.0
H19 H 0.25488 0.97101 0.97215 0.0
H20 H 0.06219 0.00786 0.13727 0.0
H21 H 1.02763 0.99091 0.95087 0.0
O22 O 0.08355 0.05385 0.07716 0.0
O23 O 0.0681 0.04955 1.01489 0.0
H24 H 0.2907 -0.00296 0.15966 0.0
O25 O 0.22969 0.04947 1.02742 0.0
O26 O 0.24342 0.06299 0.08919 0.0
O27 O 0.23706 0.92076 1.03406 0.0
O28 O 0.25007 0.93357 0.09595 0.0
C29 C 0.25975 0.07646 0.0583 0.0
H30 H 0.07087 0.02404 0.2059 0.0
H31 H 0.30352 0.01008 0.22917 0.0
H32 H 0.24735 0.97718 0.90315 0.0
H33 H 1.01582 -0.0007 0.88157 0.0
C34 C 0.4154 0.41598 0.53064 0.0
N35 N 0.54916 0.49035 0.63404 0.0
C36 C 0.5526 0.43977 0.65334 0.0
C37 C 0.55693 0.4404 0.69273 0.0
C38 C 0.55648 0.49351 0.71233 0.0
C39 C 0.55317 0.54489 0.69174 0.0
C40 C 0.55021 0.54235 0.65264 0.0
Zn41 Zn 0.53821 0.49104 0.5754 0.0
C42 C 0.63339 0.40673 0.54968 0.0
N43 N 0.51165 0.5007 0.45299 0.0
C44 C 0.44456 0.50169 0.42804 0.0
C45 C 0.57251 0.50611 0.44013 0.0
C46 C 0.56728 0.51475 0.40124 0.0
C47 C 0.49888 0.51635 0.37507 0.0
C48 C 0.43697 0.50879 0.3887 0.0
Zn49 Zn 0.52268 0.49592 0.51161 0.0
O50 O 0.44999 0.42875 0.56506 0.0
C51 C 0.43324 0.58307 0.54041 0.0
O52 O 0.43608 0.43718 0.50293 0.0
H53 H 0.62546 0.50458 0.46011 0.0
H54 H 0.5514 0.39887 0.63812 0.0
H55 H 0.39674 0.49782 0.43868 0.0
O56 O 0.46296 0.55737 0.57115 0.0
O57 O 0.44787 0.56704 0.50928 0.0
H58 H 0.54819 0.58221 0.63707 0.0
O59 O 0.60695 0.55396 0.52066 0.0
O60 O 0.62571 0.55402 0.58324 0.0
O61 O 0.60144 0.42658 0.51683 0.0
O62 O 0.61471 0.42488 0.57917 0.0
C63 C 0.64298 0.57147 0.55341 0.0
H64 H 0.55924 0.39975 0.70758 0.0
H65 H 0.55374 0.58674 0.70584 0.0
H66 H 0.61624 0.51981 0.39165 0.0
H67 H 0.38329 0.50977 0.36924 0.0
H68 H 0.19761 0.13051 0.51992 0.0
C69 C 0.20647 0.08672 0.52994 0.0
C70 C 0.21159 0.04182 0.50406 0.0
C71 C 0.21011 0.07468 0.56859 0.0
H72 H 0.22684 0.95069 0.49695 0.0
C73 C 0.22231 0.98524 0.51698 0.0
C74 C 0.22958 0.9726 0.55546 0.0
C75 C 0.2242 0.0173 0.5815 0.0
C76 C 0.19528 0.12115 0.59474 0.0
H77 H 0.22914 0.00709 0.61123 0.0
C78 C 0.13214 0.15494 0.58381 0.0
C79 C 0.11308 0.19494 0.60931 0.0
C80 C 0.24189 0.13033 0.63136 0.0
H81 H 0.29101 0.10528 0.64064 0.0
C82 C 0.22538 0.17203 0.65634 0.0
H83 H 0.09673 0.14967 0.5557 0.0
C84 C 0.16118 0.2038 0.64561 0.0
H85 H 0.14839 0.23423 0.66602 0.0
H86 H 0.26173 0.17882 0.68453 0.0
H87 H 1.03283 0.06326 0.58153 0.0
C88 C 1.0171 0.01949 0.57218 0.0
C89 C 1.02693 0.97581 0.59967 0.0
C90 C 0.97984 0.00753 0.53358 0.0
H91 H 1.01319 0.8854 0.60887 0.0
C92 C 1.00635 0.91899 0.58757 0.0
C93 C 0.96854 0.90629 0.54964 0.0
C94 C 0.95543 0.95077 0.52266 0.0
C95 C 0.95595 0.05582 0.50659 0.0
H96 H 0.9236 0.94178 0.49361 0.0
C97 C 1.00649 0.095 0.49895 0.0
C98 C 0.98397 0.14783 0.48079 0.0
C99 C 0.88171 0.06623 0.49139 0.0
H100 H 0.84141 0.03647 0.49659 0.0
C101 C 0.85883 0.11679 0.47104 0.0
H102 H 0.06331 0.08544 0.50905 0.0
C103 C 0.90957 0.15829 0.46677 0.0
H104 H 0.89085 0.19867 0.45285 0.0
H105 H 0.80149 0.12505 0.46011 0.0
H106 H 0.64058 0.56243 1.02008 0.0
C107 C 0.66207 0.51973 1.02634 0.0
C108 C 0.64691 0.47736 0.997 0.0
C109 C 0.70905 0.50844 0.06252 0.0
H110 H 0.66836 0.39005 0.98167 0.0
C111 C 0.6766 0.42211 1.00471 0.0
C112 C 0.72413 0.41001 0.04033 0.0
C113 C 0.73977 0.4532 0.06925 0.0
C114 C 0.73287 0.55666 0.09098 0.0
H115 H 0.77764 0.44436 0.09654 0.0
C116 C 0.68208 0.5959 0.09855 0.0
C117 C 0.70429 0.64886 0.11794 0.0
C118 C 0.80699 0.56772 0.10722 0.0
H119 H 0.84769 0.53839 0.10195 0.0
C120 C 0.82944 0.6187 0.12856 0.0
H121 H 0.62527 0.58625 0.08747 0.0
C122 C 0.77853 0.65994 0.13295 0.0
H123 H 0.79699 0.70054 0.14777 0.0
H124 H 0.8867 0.62747 0.14022 0.0
H125 H 0.48838 0.6248 0.07785 0.0
C126 C 0.48173 0.58017 0.06821 0.0
C127 C 0.47813 0.53665 0.09455 0.0
C128 C 0.47991 0.56555 1.02975 0.0
H129 H 0.46643 0.4455 0.1024 0.0
C130 C 0.47019 0.47897 0.08217 0.0
C131 C 0.46493 0.46376 0.04399 0.0
C132 C 0.46959 0.50681 1.01771 0.0
C133 C 0.49448 0.61006 1.0029 0.0
H134 H 0.46746 0.49418 0.9884 0.0
C135 C 0.55188 0.65034 1.01515 0.0
C136 C 0.57574 0.68443 0.98879 0.0
C137 C 0.45675 0.60857 0.96389 0.0
H138 H 0.41197 0.57863 0.95338 0.0
C139 C 0.47713 0.64519 0.9379 0.0
H140 H 0.58101 0.65313 0.04482 0.0
C141 C 0.53683 0.68243 0.95012 0.0
H142 H 0.55409 0.70815 0.92918 0.0
H143 H 0.448 0.64328 0.9079 0.0
C144 C 0.32008 0.17061 0.08421 0.0
C145 C 0.30811 0.12605 0.05648 0.0
C146 C 0.35521 0.22226 0.07883 0.0
C147 C 0.37946 0.22906 0.04512 0.0
C148 C 0.37191 0.18261 1.01838 0.0
C149 C 0.33604 0.13181 1.02428 0.0
C150 C 0.36264 0.27081 0.10816 0.0
C151 C 0.39814 0.18767 0.98249 0.0
C152 C 0.37841 0.38567 1.01528 0.0
C153 C 0.44984 0.40247 1.03273 0.0
C154 C 0.35574 0.32811 1.01697 0.0
C155 C 0.40613 0.28663 0.03634 0.0
C156 C 0.48009 0.3024 0.05056 0.0
C157 C 0.50101 0.36047 0.04886 0.0
C158 C 0.27651 0.31302 1.0011 0.0
C159 C 0.53595 0.25932 0.07046 0.0
H160 H 0.29863 0.16644 0.1091 0.0
H161 H 0.32773 0.0972 1.00288 0.0
H162 H 0.4196 0.28649 0.11719 0.0
H163 H 0.32858 0.30785 0.0952 0.0
H164 H 0.34579 0.25727 0.13401 0.0
H165 H 0.39717 0.14526 0.96735 0.0
H166 H 0.36296 0.21814 0.96261 0.0
H167 H 0.45415 0.2055 0.98943 0.0
H168 H 0.33885 0.41854 1.00341 0.0
H169 H 0.55619 0.37393 0.06268 0.0
H170 H 0.25166 0.30459 1.02514 0.0
H171 H 0.27024 0.27296 0.98313 0.0
H172 H 0.24604 0.34841 0.98361 0.0
H173 H 0.52932 0.25157 0.09963 0.0
H174 H 0.5921 0.27529 0.07326 0.0
H175 H 0.5286 0.21713 0.05474 0.0
C176 C 0.34922 0.8316 0.05199 0.0
C177 C 0.33729 0.87441 0.07757 0.0
C178 C 0.41274 0.79817 0.06092 0.0
C179 C 0.46635 0.80892 0.09576 0.0
C180 C 0.45544 0.85344 0.12104 0.0
C181 C 0.39066 0.88495 0.11193 0.0
C182 C 0.42185 0.75067 1.03338 0.0
C183 C 0.512 0.86761 0.15784 0.0
C184 C 0.59141 0.68349 0.13399 0.0
C185 C 0.64996 0.69447 0.11841 0.0
C186 C 0.53292 0.72203 0.12856 0.0
C187 C 0.5325 0.77214 0.10636 0.0
C188 C 0.59425 0.78565 0.09312 0.0
C189 C 0.65239 0.74663 0.09937 0.0
C190 C 0.46998 0.70709 0.14483 0.0
C191 C 0.59787 0.84031 0.0713 0.0
H192 H 0.30828 0.8235 1.02538 0.0
H193 H 0.38235 0.91875 0.13154 0.0
H194 H 0.37656 0.7491 1.00693 0.0
H195 H 0.4734 0.75693 1.02512 0.0
H196 H 0.42461 0.70826 0.04765 0.0
H197 H 0.49743 0.90618 0.17301 0.0
H198 H 0.51883 0.83022 0.17735 0.0
H199 H 0.56524 0.87578 0.15175 0.0
H200 H 0.59037 0.64376 0.14938 0.0
H201 H 0.69815 0.75554 0.08771 0.0
H202 H 0.42695 0.68566 0.12207 0.0
H203 H 0.44594 0.74611 0.15476 0.0
H204 H 0.4869 0.67752 0.16943 0.0
H205 H 0.56018 0.83648 0.0423 0.0
H206 H 0.65331 0.84886 0.0682 0.0
H207 H 0.58054 0.8782 0.08596 0.0
C208 C 0.95597 0.84069 1.00723 0.0
C209 C 0.98688 0.86681 0.04319 0.0
C210 C 0.88933 0.81097 0.99975 0.0
C211 C 0.85197 0.80731 1.02883 0.0
C212 C 0.88359 0.83222 0.06552 0.0
C213 C 0.95072 0.86156 0.07231 0.0
C214 C 0.85837 0.78417 0.96044 0.0
C215 C 0.84563 0.82903 0.09732 0.0
C216 C 0.64865 0.77654 0.99402 0.0
C217 C 0.64539 0.71718 1.0009 0.0
C218 C 0.71514 0.80697 1.00431 0.0
C219 C 0.78019 0.77686 1.02066 0.0
C220 C 0.77702 0.71675 1.02722 0.0
C221 C 0.70971 0.68796 1.01778 0.0
C222 C 0.7159 0.87122 0.99731 0.0
C223 C 0.84498 0.68246 0.0433 0.0
H224 H 0.9833 0.84436 0.9845 0.0
H225 H 0.97371 0.88194 0.10007 0.0
H226 H 0.84749 0.73732 0.96293 0.0
H227 H 0.80587 0.80472 0.94664 0.0
H228 H 0.89531 0.78909 0.9414 0.0
H229 H 0.87731 0.85043 0.12424 0.0
H230 H 0.79187 0.85007 0.08827 0.0
H231 H 0.83599 0.78313 0.10334 0.0
H232 H 0.59903 0.7992 0.98087 0.0
H233 H 0.70792 0.64204 1.02257 0.0
H234 H 0.74614 0.88001 0.97552 0.0
H235 H 0.74438 0.89465 1.02407 0.0
H236 H 0.66035 0.889 0.98715 0.0
H237 H 0.83367 0.63537 0.04429 0.0
H238 H 0.87174 0.69842 0.07269 0.0
H239 H 0.88403 0.68858 1.0256 0.0
C240 C 0.96788 0.14627 1.00777 0.0
C241 C 0.99203 0.11326 0.04077 0.0
C242 C 0.91825 0.19143 1.00688 0.0
C243 C 0.89221 0.20318 0.03963 0.0
C244 C 0.91355 0.1679 0.07217 0.0
C245 C 0.96324 0.1235 0.07236 0.0
C246 C 0.89631 0.22825 0.97164 0.0
C247 C 0.88665 0.17876 0.10754 0.0
C248 C 0.84162 0.35777 0.0571 0.0
C249 C 0.76584 0.35555 0.04443 0.0
C250 C 0.88322 0.30832 0.05573 0.0
C251 C 0.84808 0.2554 0.04143 0.0
C252 C 0.77144 0.25242 1.02972 0.0
C253 C 0.73113 0.30269 1.03129 0.0
C254 C 0.9649 0.31308 0.06874 0.0
C255 C 0.73217 0.19654 1.01478 0.0
H256 H 0.98981 0.13832 0.98329 0.0
H257 H 0.98082 0.09751 0.0978 0.0
H258 H 0.83643 0.23199 0.96225 0.0
H259 H 0.91878 0.27268 0.97855 0.0
H260 H 0.91607 0.21036 0.94744 0.0
H261 H 0.90319 0.14411 0.129 0.0
H262 H 0.90867 0.2207 0.12118 0.0
H263 H 0.82667 0.18192 0.09973 0.0
H264 H 0.86862 0.39882 0.06657 0.0
H265 H 0.67245 0.30105 1.02152 0.0
H266 H 0.98869 0.30165 0.04462 0.0
H267 H 0.98634 0.28198 0.09199 0.0
H268 H 0.98364 0.35736 0.07941 0.0
H269 H 0.74652 0.18241 0.98815 0.0
H270 H 0.67232 0.201 1.00845 0.0
H271 H 0.74936 0.16175 0.03599 0.0
C272 C 0.73455 0.61354 0.52375 0.0
C273 C 0.70387 0.61179 0.55517 0.0
C274 C 0.78516 0.65618 0.52128 0.0
C275 C 0.80561 0.69825 0.55095 0.0
C276 C 0.77838 0.69471 0.58393 0.0
C277 C 0.72772 0.65116 0.58573 0.0
C278 C 0.81343 0.65812 0.48587 0.0
C279 C 0.79975 0.73876 0.61628 0.0
C280 C 0.9655 0.79888 0.55646 0.0
C281 C 0.93014 0.84991 0.54162 0.0
C282 C 0.92597 0.74832 0.55866 0.0
C283 C 0.84946 0.74909 0.54563 0.0
C284 C 0.814 0.79924 0.52812 0.0
C285 C 0.85486 0.84911 0.5263 0.0
C286 C 0.96576 0.6954 0.57697 0.0
C287 C 0.73246 0.80136 0.5133 0.0
H288 H 0.71728 0.58243 0.50031 0.0
H289 H 0.70429 0.6497 0.61006 0.0
H290 H 0.7908 0.69635 0.4687 0.0
H291 H 0.87332 0.66292 0.49389 0.0
H292 H 0.79843 0.61862 0.46748 0.0
H293 H 0.77929 0.72689 0.64133 0.0
H294 H 0.85963 0.74334 0.62573 0.0
H295 H 0.77756 0.78171 0.60608 0.0
H296 H 1.02379 0.79955 0.56834 0.0
H297 H 0.82719 0.88868 0.51537 0.0
H298 H 0.94627 0.65601 0.55926 0.0
H299 H 0.9548 0.68901 0.60537 0.0
H300 H 1.02532 0.6995 0.58112 0.0
H301 H 0.71274 0.76479 0.49292 0.0
H302 H 0.71376 0.84257 0.4986 0.0
H303 H 0.70705 0.79672 0.53752 0.0
C304 C 0.73521 0.36252 0.52629 0.0
C305 C 0.69801 0.36864 0.555 0.0
C306 C 0.80236 0.33377 0.53347 0.0
C307 C 0.83294 0.31035 0.57015 0.0
C308 C 0.79428 0.31457 0.5987 0.0
C309 C 0.72764 0.34364 0.59083 0.0
C310 C 0.84162 0.32989 0.50218 0.0
C311 C 0.82405 0.28938 0.63796 0.0
C312 C 0.97792 0.19424 0.5814 0.0
C313 C 1.04176 0.22527 0.59853 0.0
C314 C 0.90993 0.22125 0.57207 0.0
C315 C 0.90532 0.28145 0.57893 0.0
C316 C 0.96959 0.31339 0.59572 0.0
C317 C 1.0368 0.28478 0.60583 0.0
C318 C 0.84282 0.18508 0.55544 0.0
C319 C 0.96734 0.37782 0.60305 0.0
H320 H 0.71323 0.38204 0.49864 0.0
H321 H 0.69945 0.34794 0.61324 0.0
H322 H 0.89483 0.3524 0.51168 0.0
H323 H 0.85249 0.28392 0.49632 0.0
H324 H 0.81027 0.34947 0.47507 0.0
H325 H 0.78593 0.2941 0.65644 0.0
H326 H 0.83594 0.24269 0.63531 0.0
H327 H 0.87586 0.31135 0.65248 0.0
H328 H 0.98063 0.14841 0.57589 0.0
H329 H 0.08577 0.30925 0.61883 0.0
H330 H 0.81635 0.19961 0.52604 0.0
H331 H 0.80312 0.19094 0.57285 0.0
H332 H 0.85512 0.13819 0.55428 0.0
H333 H 0.94035 0.39993 0.5761 0.0
H334 H 1.02235 0.39691 0.61441 0.0
H335 H 0.93493 0.38675 0.62396 0.0
C336 C 0.3373 0.33787 0.5473 0.0
C337 C 0.34829 0.38035 0.52209 0.0
C338 C 0.27404 0.30335 0.53831 0.0
C339 C 0.2198 0.31261 0.50377 0.0
C340 C 0.22965 0.35701 0.47898 0.0
C341 C 0.29417 0.38965 0.48814 0.0
C342 C 0.26611 0.25606 0.56533 0.0
C343 C 0.17235 0.36974 0.44259 0.0
C344 C 0.09597 0.18424 0.46452 0.0
C345 C 1.03799 0.19423 0.4808 0.0
C346 C 0.15383 0.22404 0.47005 0.0
C347 C 0.1541 0.27446 0.49299 0.0
C348 C 0.09265 0.28701 0.50676 0.0
C349 C 1.03519 0.24674 0.50044 0.0
C350 C 0.21638 0.21017 0.45312 0.0
C351 C 0.08866 0.34208 0.5292 0.0
H352 H 0.37893 0.33066 0.57356 0.0
H353 H 0.30186 0.42317 0.46881 0.0
H354 H 0.21372 0.26027 0.57301 0.0
H355 H 0.26614 0.21335 0.55085 0.0
H356 H 0.31062 0.25684 0.59214 0.0
H357 H 0.18584 0.40871 0.42805 0.0
H358 H 0.16612 0.33223 0.42238 0.0
H359 H 0.11912 0.37648 0.449 0.0
H360 H 0.09711 0.14438 0.44848 0.0
H361 H 0.98958 0.25513 0.51238 0.0
H362 H 0.26046 0.19053 0.47552 0.0
H363 H 0.23898 0.24949 0.44318 0.0
H364 H 0.1996 0.17949 0.42841 0.0
H365 H 0.10511 0.37998 0.5148 0.0
H366 H 0.12688 0.33954 0.55804 0.0
H367 H 1.03329 0.34967 0.53266 0.0
C368 C 0.37486 0.67656 0.51463 0.0
C369 C 0.38717 0.63392 0.5427 0.0
C370 C 0.34137 0.72908 0.52015 0.0
C371 C 0.31914 0.7388 0.55436 0.0
C372 C 0.32758 0.69446 0.58167 0.0
C373 C 0.3617 0.64275 0.57559 0.0
C374 C 0.33306 0.77533 0.49024 0.0
C375 C 0.30397 0.7027 0.61824 0.0
C376 C 0.31907 0.89761 0.58311 0.0
C377 C 0.24675 0.91222 0.56694 0.0
C378 C 0.34265 0.84034 0.58117 0.0
C379 C 0.2924 0.79693 0.56269 0.0
C380 C 0.21799 0.81073 0.5494 0.0
C381 C 0.19605 0.86843 0.55157 0.0
C382 C 0.4224 0.82742 0.59593 0.0
C383 C 0.16251 0.76551 0.53033 0.0
H384 H 0.39451 0.6701 0.48925 0.0
H385 H 0.37043 0.60977 0.59734 0.0
H386 H 0.27618 0.79056 0.4817 0.0
H387 H 0.36775 0.81324 0.50245 0.0
H388 H 0.34852 0.75969 0.46418 0.0
H389 H 0.30616 0.66171 0.63422 0.0
H390 H 0.33992 0.73505 0.63709 0.0
H391 H 0.24795 0.71974 0.61198 0.0
H392 H 0.35832 0.93181 0.59424 0.0
H393 H 0.14021 0.88019 0.53862 0.0
H394 H 0.44573 0.81768 0.57137 0.0
H395 H 0.43039 0.78867 0.61429 0.0
H396 H 0.45303 0.86438 0.61272 0.0
H397 H 0.1746 0.7494 0.50353 0.0
H398 H 0.10644 0.78274 0.52313 0.0
H399 H 0.16516 0.72784 0.54934 0.0
C400 C 0.1659 0.0779 0.27744 0.0
C401 C 0.19407 0.02779 0.26438 0.0
C402 C 0.16962 0.08642 0.31657 0.0
C403 C 0.20044 0.04301 0.34303 0.0
C404 C 0.22904 0.99234 0.32987 0.0
C405 C 0.22636 0.98572 0.29076 0.0
C406 C 0.14044 0.14169 0.32962 0.0
C407 C 0.26081 0.94441 0.35696 0.0
C408 C 0.26369 0.07209 0.45071 0.0
C409 C 0.20455 0.05153 0.46297 0.0
C410 C 0.26186 0.07216 0.4115 0.0
C411 C 0.20034 0.04927 0.38423 0.0
C412 C 0.14013 0.02908 0.39667 0.0
C413 C 0.14302 0.0305 0.43592 0.0
C414 C 0.3264 0.09539 0.39939 0.0
C415 C 0.07406 0.00335 0.36877 0.0
H416 H 0.14141 0.11061 0.25698 0.0
H417 H 0.24766 0.94683 0.28054 0.0
H418 H 0.09588 0.13164 0.34312 0.0
H419 H 0.18373 0.16417 0.35169 0.0
H420 H 0.1197 0.17175 0.30559 0.0
H421 H 0.28063 0.90778 0.34217 0.0
H422 H 0.30659 0.96141 0.38017 0.0
H423 H 0.21925 0.92765 0.37071 0.0
H424 H 0.31193 0.08688 0.47188 0.0
H425 H 0.09812 0.01328 0.44574 0.0
H426 H 0.30852 0.12683 0.37594 0.0
H427 H 0.35378 0.05939 0.38812 0.0
H428 H 0.36643 0.11708 0.42352 0.0
H429 H 1.05172 0.03426 0.34556 0.0
H430 H 1.03071 0.99188 0.38289 0.0
H431 H 0.08954 0.96364 0.35513 0.0
C432 C 0.15668 0.95522 0.82542 0.0
C433 C 0.12521 -0.00396 0.84526 0.0
C434 C 0.147 0.9586 0.78558 0.0
C435 C 0.10574 0.00436 0.76517 0.0
C436 C 0.0776 0.0476 0.78547 0.0
C437 C 0.08691 0.04257 0.82521 0.0
C438 C 0.1782 0.91178 0.76502 0.0
C439 C 1.03554 0.09808 0.76496 0.0
C440 C 0.10746 0.02123 0.6601 0.0
C441 C 1.04552 0.98924 0.64158 0.0
C442 C 0.12785 0.02748 0.70042 0.0
C443 C 0.08403 0.00236 0.72238 0.0
C444 C 1.0195 0.97265 0.70345 0.0
C445 C 1.00102 0.96677 0.66347 0.0
C446 C 0.19629 0.06068 0.71923 0.0
C447 C 0.97086 0.94529 0.72548 0.0
H448 H 0.18647 0.9193 0.84085 0.0
H449 H 0.06378 0.07486 0.84063 0.0
H450 H 0.13344 0.8864 0.74582 0.0
H451 H 0.21038 0.93146 0.7468 0.0
H452 H 0.21338 0.88162 0.78523 0.0
H453 H 1.02371 0.13106 0.78524 0.0
H454 H 0.06642 0.11907 0.74658 0.0
H455 H 0.98343 0.08236 0.74593 0.0
H456 H 0.14102 0.03969 0.64327 0.0
H457 H 0.9518 0.94345 0.6492 0.0
H458 H 0.22481 0.04191 0.74712 0.0
H459 H 0.18196 0.10602 0.72471 0.0
H460 H 0.23428 0.06158 0.70055 0.0
H461 H 1.00132 0.91191 0.74487 0.0
H462 H 0.92193 0.92453 0.70632 0.0
H463 H 0.95308 0.97846 0.74363 0.0
C464 C 0.61311 0.46388 0.77993 0.0
C465 C 0.56035 0.49562 0.7541 0.0
C466 C 0.61905 0.46676 0.81956 0.0
C467 C 0.57007 0.50133 0.83379 0.0
C468 C 0.51603 0.53295 0.80778 0.0
C469 C 0.51227 0.53018 0.7683 0.0
C470 C 0.67831 0.43309 0.84629 0.0
C471 C 0.46196 0.56935 0.82165 0.0
C472 C 0.56181 0.45445 0.93292 0.0
C473 C 0.61213 0.49245 0.95652 0.0
C474 C 0.54293 0.45974 0.89284 0.0
C475 C 0.57594 0.5036 0.87591 0.0
C476 C 0.62174 0.54519 0.89983 0.0
C477 C 0.63896 0.53929 0.93986 0.0
C478 C 0.49185 0.41566 0.86858 0.0
C479 C 0.65799 0.59289 0.88326 0.0
H480 H 0.65086 0.43767 0.76917 0.0
H481 H 0.47102 0.55447 0.74838 0.0
H482 H 0.71291 0.46294 0.86786 0.0
H483 H 0.65414 0.40111 0.86211 0.0
H484 H 0.71324 0.40961 0.83082 0.0
H485 H 0.42265 0.59074 0.79774 0.0
H486 H 0.43152 0.54189 0.83721 0.0
H487 H 0.49063 0.60321 0.84221 0.0
H488 H 0.54018 0.41865 0.94576 0.0
H489 H 0.67808 0.56874 0.95791 0.0
H490 H 0.52318 0.38482 0.85535 0.0
H491 H 0.45203 0.43711 0.84498 0.0
H492 H 0.46199 0.39062 0.88575 0.0
H493 H 0.7022 0.57412 0.87214 0.0
H494 H 0.68167 0.6269 0.90508 0.0
H495 H 0.61912 0.61349 0.8589 0.0
C496 C 0.51978 0.57671 0.32177 0.0
C497 C 0.49256 0.52578 0.33375 0.0
C498 C 0.516 0.58549 0.2828 0.0
C499 C 0.48628 0.54152 0.25536 0.0
C500 C 0.4585 0.49006 0.26743 0.0
C501 C 0.46108 0.48319 0.30642 0.0
C502 C 0.54426 0.64158 0.27101 0.0
C503 C 0.42792 0.4415 0.23933 0.0
C504 C 0.42465 0.56812 0.14782 0.0
C505 C 0.48456 0.54866 0.13565 0.0
C506 C 0.42576 0.56894 0.18699 0.0
C507 C 0.48728 0.54781 0.21433 0.0
C508 C 0.54839 0.52907 0.20201 0.0
C509 C 0.54626 0.52984 0.16285 0.0
C510 C 0.36029 0.59076 0.19894 0.0
C511 C 0.61456 0.50519 0.22989 0.0
H512 H 0.54369 0.6098 0.34295 0.0
H513 H 0.44043 0.44371 0.31577 0.0
H514 H 0.59087 0.63284 0.25872 0.0
H515 H 0.5016 0.66219 0.24831 0.0
H516 H 0.56198 0.67271 0.29547 0.0
H517 H 0.40842 0.40438 0.25328 0.0
H518 H 0.38216 0.45751 0.21627 0.0
H519 H 0.47009 0.42575 0.2255 0.0
H520 H 0.37628 0.5812 0.1266 0.0
H521 H 0.59182 0.51343 0.15315 0.0
H522 H 0.37706 0.62213 0.22328 0.0
H523 H 0.33261 0.55404 0.20887 0.0
H524 H 0.32083 0.61208 0.17505 0.0
H525 H 0.63554 0.53664 0.25375 0.0
H526 H 0.65875 0.49499 0.21598 0.0
H527 H 0.59964 0.465 0.24263 0.0
loop_
_geom_bond_atom_site_label_1
_geom_bond_atom_site_label_2
_geom_bond_distance
_geom_bond_site_symmetry_2
_ccdc_geom_bond_type
C0 O16 1.251 . S
C0 O18 1.254 1_554 S
N1 C2 1.333 1_545 S
N1 C6 1.307 . S
N1 Zn7 2.020 . S
C2 N1 1.333 1_565 S
C2 C3 1.379 . S
C2 H20 0.952 1_455 S
C3 C2 1.379 . S
C3 C4 1.390 1_565 S
C3 H30 0.949 1_455 S
C4 C3 1.390 1_545 S
C4 C5 1.357 . S
C5 C4 1.357 . S
C5 C6 1.370 . S
C5 H31 0.950 . S
C6 N1 1.307 . S
C6 C5 1.370 . S
C6 H24 0.948 . S
Zn7 N1 2.020 . S
Zn7 O16 2.039 1_445 S
Zn7 O22 2.034 1_455 S
Zn7 O26 2.025 . S
Zn7 O28 2.024 1_545 S
C8 O27 1.246 1_554 S
C8 O28 1.249 . S
N9 C10 1.307 1_445 S
N9 C11 1.333 . S
N9 Zn15 2.020 . S
C10 N9 1.307 1_665 S
C10 C14 1.370 . S
C10 H21 0.948 . S
C11 N9 1.333 . S
C11 C12 1.379 . S
C11 H19 0.952 . S
C12 C11 1.379 . S
C12 C13 1.390 1_455 S
C12 H32 0.949 . S
C13 C12 1.390 1_655 S
C13 C14 1.357 1_545 S
C14 C10 1.370 . S
C14 C13 1.357 1_565 S
C14 H33 0.950 . S
Zn15 N9 2.020 . S
Zn15 O18 2.025 1_445 S
Zn15 O23 2.024 1_455 S
Zn15 O25 2.039 . S
Zn15 O27 2.034 1_545 S
O16 C0 1.251 . S
O16 Zn7 2.039 1_665 S
C17 O22 1.246 . S
C17 O23 1.249 1_554 S
O18 C0 1.254 1_556 S
O18 Zn15 2.025 1_665 S
H19 C11 0.952 . S
H20 C2 0.952 1_655 S
H21 C10 0.948 . S
O22 Zn7 2.034 1_655 S
O22 C17 1.246 . S
O23 Zn15 2.024 1_655 S
O23 C17 1.249 1_556 S
H24 C6 0.948 . S
O25 Zn15 2.039 . S
O25 C29 1.251 1_556 S
O26 Zn7 2.025 . S
O26 C29 1.254 . S
O27 C8 1.246 1_556 S
O27 Zn15 2.034 1_565 S
O28 Zn7 2.024 1_565 S
O28 C8 1.249 . S
C29 O25 1.251 1_554 S
C29 O26 1.254 . S
H30 C3 0.949 1_655 S
H31 C5 0.950 . S
H32 C12 0.949 . S
H33 C14 0.950 . S
C34 O50 1.251 . S
C34 O52 1.254 . S
N35 C36 1.333 . S
N35 C40 1.307 . S
N35 Zn41 2.020 . S
C36 N35 1.333 . S
C36 C37 1.379 . S
C36 H54 0.952 . S
C37 C36 1.379 . S
C37 C38 1.390 . S
C37 H64 0.949 . S
C38 C37 1.390 . S
C38 C39 1.357 . S
C39 C38 1.357 . S
C39 C40 1.370 . S
C39 H65 0.950 . S
C40 N35 1.307 . S
C40 C39 1.370 . S
C40 H58 0.948 . S
Zn41 N35 2.020 . S
Zn41 O50 2.039 . S
Zn41 O56 2.034 . S
Zn41 O60 2.025 . S
Zn41 O62 2.024 . S
C42 O61 1.246 . S
C42 O62 1.249 . S
N43 C44 1.307 . S
N43 C45 1.333 . S
N43 Zn49 2.020 . S
C44 N43 1.307 . S
C44 C48 1.370 . S
C44 H55 0.948 . S
C45 N43 1.333 . S
C45 C46 1.379 . S
C45 H53 0.952 . S
C46 C45 1.379 . S
C46 C47 1.390 . S
C46 H66 0.949 . S
C47 C46 1.390 . S
C47 C48 1.357 . S
C48 C44 1.370 . S
C48 C47 1.357 . S
C48 H67 0.950 . S
Zn49 N43 2.020 . S
Zn49 O52 2.025 . S
Zn49 O57 2.024 . S
Zn49 O59 2.039 . S
Zn49 O61 2.034 . S
O50 C34 1.251 . S
O50 Zn41 2.039 . S
C51 O56 1.246 . S
C51 O57 1.249 . S
O52 C34 1.254 . S
O52 Zn49 2.025 . S
H53 C45 0.952 . S
H54 C36 0.952 . S
H55 C44 0.948 . S
O56 Zn41 2.034 . S
O56 C51 1.246 . S
O57 Zn49 2.024 . S
O57 C51 1.249 . S
H58 C40 0.948 . S
O59 Zn49 2.039 . S
O59 C63 1.251 . S
O60 Zn41 2.025 . S
O60 C63 1.254 . S
O61 C42 1.246 . S
O61 Zn49 2.034 . S
O62 Zn41 2.024 . S
O62 C42 1.249 . S
C63 O59 1.251 . S
C63 O60 1.254 . S
H64 C37 0.949 . S
H65 C39 0.950 . S
H66 C46 0.949 . S
H67 C48 0.950 . S
H68 C69 0.949 . S
C69 H68 0.949 . S
C69 C70 1.395 . S
C69 C71 1.391 . S
C70 C69 1.395 . S
C70 C73 1.390 1_545 S
C71 C69 1.391 . S
C71 C75 1.387 1_545 S
C71 C76 1.491 . S
H72 C73 0.950 . S
C73 C70 1.390 1_565 S
C73 H72 0.950 . S
C73 C74 1.378 . S
C74 C73 1.378 . S
C74 C75 1.409 . S
C75 C71 1.387 1_565 S
C75 C74 1.409 . S
C75 H77 0.951 . S
C76 C71 1.491 . S
C76 C78 1.382 1_455 S
C76 C80 1.404 . S
H77 C75 0.951 . S
C78 C76 1.382 1_655 S
C78 C79 1.390 . S
C78 H83 0.949 . S
C79 C78 1.390 . S
C79 C84 1.399 1_655 S
C80 C76 1.404 . S
C80 H81 0.950 . S
C80 C82 1.375 . S
H81 C80 0.950 . S
C82 C80 1.375 . S
C82 C84 1.382 . S
C82 H86 0.950 . S
H83 C78 0.949 . S
C84 C79 1.399 1_455 S
C84 C82 1.382 . S
C84 H85 0.952 . S
H85 C84 0.952 . S
H86 C82 0.950 . S
H87 C88 0.944 1_455 S
C88 H87 0.944 1_655 S
C88 C89 1.400 . S
C88 C90 1.391 . S
C89 C88 1.400 . S
C89 C92 1.390 1_545 S
C90 C88 1.391 . S
C90 C94 1.387 1_545 S
C90 C95 1.491 1_655 S
H91 C92 0.950 . S
C92 C89 1.390 1_565 S
C92 H91 0.950 . S
C92 C93 1.378 . S
C93 C92 1.378 . S
C93 C94 1.409 . S
C94 C90 1.387 1_565 S
C94 C93 1.409 . S
C94 H96 0.951 . S
C95 C90 1.491 1_455 S
C95 C97 1.382 . S
C95 C99 1.404 1_455 S
H96 C94 0.951 . S
C97 C95 1.382 . S
C97 C98 1.390 . S
C97 H102 0.949 . S
C98 C97 1.390 . S
C98 C103 1.399 . S
C99 C95 1.404 1_655 S
C99 H100 0.950 . S
C99 C101 1.375 . S
H100 C99 0.950 . S
C101 C99 1.375 . S
C101 C103 1.382 1_655 S
C101 H105 0.950 . S
H102 C97 0.949 . S
C103 C98 1.399 . S
C103 C101 1.382 1_455 S
C103 H104 0.952 . S
H104 C103 0.952 . S
H105 C101 0.950 . S
H106 C107 0.949 . S
C107 H106 0.949 . S
C107 C108 1.395 . S
C107 C109 1.391 . S
C108 C107 1.395 . S
C108 C111 1.390 . S
C109 C107 1.391 . S
C109 C113 1.387 1_556 S
C109 C114 1.491 1_556 S
H110 C111 0.950 . S
C111 C108 1.390 . S
C111 H110 0.950 . S
C111 C112 1.378 . S
C112 C111 1.378 . S
C112 C113 1.409 1_556 S
C113 C109 1.387 1_554 S
C113 C112 1.409 1_554 S
C113 H115 0.951 . S
C114 C109 1.491 1_554 S
C114 C116 1.382 . S
C114 C118 1.404 . S
H115 C113 0.951 . S
C116 C114 1.382 . S
C116 C117 1.390 . S
C116 H121 0.949 1_554 S
C117 C116 1.390 . S
C117 C122 1.399 . S
C118 C114 1.404 . S
C118 H119 0.950 . S
C118 C120 1.375 . S
H119 C118 0.950 . S
C120 C118 1.375 . S
C120 C122 1.382 . S
C120 H124 0.950 . S
H121 C116 0.949 1_556 S
C122 C117 1.399 . S
C122 C120 1.382 . S
C122 H123 0.952 . S
H123 C122 0.952 . S
H124 C120 0.950 . S
H125 C126 0.949 . S
C126 H125 0.949 . S
C126 C127 1.395 . S
C126 C128 1.391 . S
C127 C126 1.395 . S
C127 C130 1.390 . S
C128 C126 1.391 . S
C128 C132 1.387 . S
C128 C133 1.491 . S
H129 C130 0.950 . S
C130 C127 1.390 . S
C130 H129 0.950 . S
C130 C131 1.378 . S
C131 C130 1.378 . S
C131 C132 1.409 . S
C132 C128 1.387 . S
C132 C131 1.409 . S
C132 H134 0.951 1_554 S
C133 C128 1.491 . S
C133 C135 1.382 . S
C133 C137 1.404 1_554 S
H134 C132 0.951 1_556 S
C135 C133 1.382 . S
C135 C136 1.390 1_554 S
C135 H140 0.949 . S
C136 C135 1.390 1_556 S
C136 C141 1.399 . S
C137 C133 1.404 1_556 S
C137 H138 0.950 . S
C137 C139 1.375 . S
H138 C137 0.950 . S
C139 C137 1.375 . S
C139 C141 1.382 . S
C139 H143 0.950 . S
H140 C135 0.949 . S
C141 C136 1.399 . S
C141 C139 1.382 . S
C141 H142 0.952 . S
H142 C141 0.952 . S
H143 C139 0.950 . S
C144 C145 1.391 . S
C144 C146 1.394 . S
C144 H160 0.931 . S
C145 C144 1.391 . S
C145 C149 1.376 . S
C146 C144 1.394 . S
C146 C147 1.369 . S
C146 C150 1.531 . S
C147 C146 1.369 . S
C147 C148 1.410 . S
C147 C155 1.503 . S
C148 C147 1.410 . S
C148 C149 1.392 . S
C148 C151 1.511 . S
C149 C145 1.376 . S
C149 C148 1.392 . S
C149 H161 0.929 . S
C150 C146 1.531 . S
C150 H162 0.960 . S
C150 H163 0.962 . S
C150 H164 0.960 . S
C151 C148 1.511 . S
C151 H165 0.961 . S
C151 H166 0.961 . S
C151 H167 0.961 . S
C152 C153 1.370 1_556 S
C152 C154 1.363 . S
C152 H168 0.931 . S
C153 C152 1.370 1_554 S
C153 C157 1.408 . S
C154 C152 1.363 . S
C154 C155 1.370 1_556 S
C154 C158 1.524 . S
C155 C147 1.503 . S
C155 C154 1.370 1_554 S
C155 C156 1.403 . S
C156 C155 1.403 . S
C156 C157 1.404 . S
C156 C159 1.539 . S
C157 C153 1.408 . S
C157 C156 1.404 . S
C157 H169 0.930 . S
C158 C154 1.524 . S
C158 H170 0.956 . S
C158 H171 0.961 . S
C158 H172 0.961 . S
C159 C156 1.539 . S
C159 H173 0.958 . S
C159 H174 0.961 . S
C159 H175 0.960 . S
H160 C144 0.931 . S
H161 C149 0.929 . S
H162 C150 0.960 . S
H163 C150 0.962 . S
H164 C150 0.960 . S
H165 C151 0.961 . S
H166 C151 0.961 . S
H167 C151 0.961 . S
H168 C152 0.931 . S
H169 C157 0.930 . S
H170 C158 0.956 . S
H171 C158 0.961 . S
H172 C158 0.961 . S
H173 C159 0.958 . S
H174 C159 0.961 . S
H175 C159 0.960 . S
C176 C177 1.389 1_556 S
C176 C178 1.395 . S
C176 H192 0.931 . S
C177 C176 1.389 1_554 S
C177 C181 1.376 . S
C178 C176 1.395 . S
C178 C179 1.369 1_556 S
C178 C182 1.531 . S
C179 C178 1.369 1_554 S
C179 C180 1.410 . S
C179 C187 1.503 . S
C180 C179 1.410 . S
C180 C181 1.392 . S
C180 C183 1.511 . S
C181 C177 1.376 . S
C181 C180 1.392 . S
C181 H193 0.929 . S
C182 C178 1.531 . S
C182 H194 0.960 . S
C182 H195 0.962 . S
C182 H196 0.960 . S
C183 C180 1.511 . S
C183 H197 0.961 . S
C183 H198 0.961 . S
C183 H199 0.961 . S
C184 C185 1.370 . S
C184 C186 1.363 . S
C184 H200 0.931 . S
C185 C184 1.370 . S
C185 C189 1.408 1_554 S
C186 C184 1.363 . S
C186 C187 1.370 . S
C186 C190 1.524 . S
C187 C179 1.503 . S
C187 C186 1.370 . S
C187 C188 1.403 1_554 S
C188 C187 1.403 1_556 S
C188 C189 1.404 . S
C188 C191 1.539 . S
C189 C185 1.408 1_556 S
C189 C188 1.404 . S
C189 H201 0.930 . S
C190 C186 1.524 . S
C190 H202 0.956 . S
C190 H203 0.961 . S
C190 H204 0.961 . S
C191 C188 1.539 . S
C191 H205 0.958 . S
C191 H206 0.961 . S
C191 H207 0.960 . S
H192 C176 0.931 . S
H193 C181 0.929 . S
H194 C182 0.960 . S
H195 C182 0.962 . S
H196 C182 0.960 . S
H197 C183 0.961 . S
H198 C183 0.961 . S
H199 C183 0.961 . S
H200 C184 0.931 . S
H201 C189 0.930 . S
H202 C190 0.956 . S
H203 C190 0.961 . S
H204 C190 0.961 . S
H205 C191 0.958 . S
H206 C191 0.961 . S
H207 C191 0.960 . S
C208 C209 1.391 . S
C208 C210 1.394 . S
C208 H224 0.931 . S
C209 C208 1.391 . S
C209 C213 1.376 . S
C210 C208 1.394 . S
C210 C211 1.369 . S
C210 C214 1.531 . S
C211 C210 1.369 . S
C211 C212 1.410 . S
C211 C219 1.503 . S
C212 C211 1.410 . S
C212 C213 1.392 . S
C212 C215 1.511 . S
C213 C209 1.376 . S
C213 C212 1.392 . S
C213 H225 0.929 . S
C214 C210 1.531 . S
C214 H226 0.960 . S
C214 H227 0.962 1_554 S
C214 H228 0.960 . S
C215 C212 1.511 . S
C215 H229 0.961 . S
C215 H230 0.961 . S
C215 H231 0.961 . S
C216 C217 1.370 1_556 S
C216 C218 1.363 . S
C216 H232 0.931 . S
C217 C216 1.370 1_554 S
C217 C221 1.408 . S
C218 C216 1.363 . S
C218 C219 1.370 1_556 S
C218 C222 1.524 . S
C219 C211 1.503 . S
C219 C218 1.370 1_554 S
C219 C220 1.403 . S
C220 C219 1.403 . S
C220 C221 1.404 . S
C220 C223 1.539 . S
C221 C217 1.408 . S
C221 C220 1.404 . S
C221 H233 0.930 . S
C222 C218 1.524 . S
C222 H234 0.956 . S
C222 H235 0.961 . S
C222 H236 0.961 . S
C223 C220 1.539 . S
C223 H237 0.958 . S
C223 H238 0.961 . S
C223 H239 0.960 . S
H224 C208 0.931 . S
H225 C213 0.929 . S
H226 C214 0.960 . S
H227 C214 0.962 1_556 S
H228 C214 0.960 . S
H229 C215 0.961 . S
H230 C215 0.961 . S
H231 C215 0.961 . S
H232 C216 0.931 . S
H233 C221 0.930 . S
H234 C222 0.956 . S
H235 C222 0.961 . S
H236 C222 0.961 . S
H237 C223 0.958 . S
H238 C223 0.961 . S
H239 C223 0.960 . S
C240 C241 1.391 1_556 S
C240 C242 1.394 . S
C240 H256 0.931 . S
C241 C240 1.391 1_554 S
C241 C245 1.376 . S
C242 C240 1.394 . S
C242 C243 1.369 1_556 S
C242 C246 1.531 . S
C243 C242 1.369 1_554 S
C243 C244 1.410 . S
C243 C251 1.503 . S
C244 C243 1.410 . S
C244 C245 1.392 . S
C244 C247 1.511 . S
C245 C241 1.376 . S
C245 C244 1.392 . S
C245 H257 0.929 . S
C246 C242 1.531 . S
C246 H258 0.960 . S
C246 H259 0.962 . S
C246 H260 0.960 . S
C247 C244 1.511 . S
C247 H261 0.961 . S
C247 H262 0.961 . S
C247 H263 0.961 . S
C248 C249 1.370 . S
C248 C250 1.363 . S
C248 H264 0.931 . S
C249 C248 1.370 . S
C249 C253 1.408 1_556 S
C250 C248 1.363 . S
C250 C251 1.370 1_556 S
C250 C254 1.524 . S
C251 C243 1.503 . S
C251 C250 1.370 1_554 S
C251 C252 1.403 . S
C252 C251 1.403 . S
C252 C253 1.404 . S
C252 C255 1.539 . S
C253 C249 1.408 1_554 S
C253 C252 1.404 . S
C253 H265 0.930 . S
C254 C250 1.524 . S
C254 H266 0.956 . S
C254 H267 0.961 . S
C254 H268 0.961 . S
C255 C252 1.539 . S
C255 H269 0.958 . S
C255 H270 0.961 . S
C255 H271 0.960 . S
H256 C240 0.931 . S
H257 C245 0.929 . S
H258 C246 0.960 . S
H259 C246 0.962 . S
H260 C246 0.960 . S
H261 C247 0.961 . S
H262 C247 0.961 . S
H263 C247 0.961 . S
H264 C248 0.931 . S
H265 C253 0.930 . S
H266 C254 0.956 . S
H267 C254 0.961 . S
H268 C254 0.961 . S
H269 C255 0.958 . S
H270 C255 0.961 . S
H271 C255 0.960 . S
C272 C273 1.391 . S
C272 C274 1.394 . S
C272 H288 0.931 . S
C273 C272 1.391 . S
C273 C277 1.376 . S
C274 C272 1.394 . S
C274 C275 1.369 . S
C274 C278 1.531 . S
C275 C274 1.369 . S
C275 C276 1.410 . S
C275 C283 1.503 . S
C276 C275 1.410 . S
C276 C277 1.392 . S
C276 C279 1.511 . S
C277 C273 1.376 . S
C277 C276 1.392 . S
C277 H289 0.929 . S
C278 C274 1.531 . S
C278 H290 0.960 . S
C278 H291 0.962 . S
C278 H292 0.960 . S
C279 C276 1.511 . S
C279 H293 0.961 . S
C279 H294 0.961 . S
C279 H295 0.961 . S
C280 C281 1.370 . S
C280 C282 1.363 . S
C280 H296 0.931 . S
C281 C280 1.370 . S
C281 C285 1.408 . S
C282 C280 1.363 . S
C282 C283 1.370 . S
C282 C286 1.524 . S
C283 C275 1.503 . S
C283 C282 1.370 . S
C283 C284 1.403 . S
C284 C283 1.403 . S
C284 C285 1.404 . S
C284 C287 1.539 . S
C285 C281 1.408 . S
C285 C284 1.404 . S
C285 H297 0.930 . S
C286 C282 1.524 . S
C286 H298 0.956 . S
C286 H299 0.961 . S
C286 H300 0.961 . S
C287 C284 1.539 . S
C287 H301 0.958 . S
C287 H302 0.961 . S
C287 H303 0.960 . S
H288 C272 0.931 . S
H289 C277 0.929 . S
H290 C278 0.960 . S
H291 C278 0.962 . S
H292 C278 0.960 . S
H293 C279 0.961 . S
H294 C279 0.961 . S
H295 C279 0.961 . S
H296 C280 0.931 . S
H297 C285 0.930 . S
H298 C286 0.956 . S
H299 C286 0.961 . S
H300 C286 0.961 . S
H301 C287 0.958 . S
H302 C287 0.961 . S
H303 C287 0.960 . S
C304 C305 1.391 . S
C304 C306 1.394 . S
C304 H320 0.931 . S
C305 C304 1.391 . S
C305 C309 1.376 . S
C306 C304 1.394 . S
C306 C307 1.369 . S
C306 C310 1.531 . S
C307 C306 1.369 . S
C307 C308 1.410 . S
C307 C315 1.503 . S
C308 C307 1.410 . S
C308 C309 1.392 . S
C308 C311 1.511 . S
C309 C305 1.376 . S
C309 C308 1.392 . S
C309 H321 0.929 . S
C310 C306 1.531 . S
C310 H322 0.960 . S
C310 H323 0.962 . S
C310 H324 0.960 . S
C311 C308 1.511 . S
C311 H325 0.961 . S
C311 H326 0.961 . S
C311 H327 0.961 . S
C312 C313 1.370 . S
C312 C314 1.363 . S
C312 H328 0.931 . S
C313 C312 1.370 . S
C313 C317 1.408 . S
C314 C312 1.363 . S
C314 C315 1.370 . S
C314 C318 1.524 . S
C315 C307 1.503 . S
C315 C314 1.370 . S
C315 C316 1.403 . S
C316 C315 1.403 . S
C316 C317 1.404 . S
C316 C319 1.539 . S
C317 C313 1.408 . S
C317 C316 1.404 . S
C317 H329 0.930 . S
C318 C314 1.524 . S
C318 H330 0.956 . S
C318 H331 0.961 . S
C318 H332 0.961 . S
C319 C316 1.539 . S
C319 H333 0.958 . S
C319 H334 0.961 . S
C319 H335 0.960 . S
H320 C304 0.931 . S
H321 C309 0.929 . S
H322 C310 0.960 . S
H323 C310 0.962 . S
H324 C310 0.960 . S
H325 C311 0.961 . S
H326 C311 0.961 . S
H327 C311 0.961 . S
H328 C312 0.931 . S
H329 C317 0.930 . S
H330 C318 0.956 . S
H331 C318 0.961 . S
H332 C318 0.961 . S
H333 C319 0.958 . S
H334 C319 0.961 . S
H335 C319 0.960 . S
C336 C337 1.391 . S
C336 C338 1.394 . S
C336 H352 0.931 . S
C337 C336 1.391 . S
C337 C341 1.376 . S
C338 C336 1.394 . S
C338 C339 1.369 . S
C338 C342 1.531 . S
C339 C338 1.369 . S
C339 C340 1.410 . S
C339 C347 1.503 . S
C340 C339 1.410 . S
C340 C341 1.392 . S
C340 C343 1.511 . S
C341 C337 1.376 . S
C341 C340 1.392 . S
C341 H353 0.929 . S
C342 C338 1.531 . S
C342 H354 0.960 . S
C342 H355 0.962 . S
C342 H356 0.960 . S
C343 C340 1.511 . S
C343 H357 0.961 . S
C343 H358 0.961 . S
C343 H359 0.961 . S
C344 C345 1.370 . S
C344 C346 1.363 . S
C344 H360 0.931 . S
C345 C344 1.370 . S
C345 C349 1.408 . S
C346 C344 1.363 . S
C346 C347 1.370 . S
C346 C350 1.524 . S
C347 C339 1.503 . S
C347 C346 1.370 . S
C347 C348 1.403 . S
C348 C347 1.403 . S
C348 C349 1.404 . S
C348 C351 1.539 . S
C349 C345 1.408 . S
C349 C348 1.404 . S
C349 H361 0.930 . S
C350 C346 1.524 . S
C350 H362 0.956 . S
C350 H363 0.961 . S
C350 H364 0.961 . S
C351 C348 1.539 . S
C351 H365 0.958 . S
C351 H366 0.961 . S
C351 H367 0.960 . S
H352 C336 0.931 . S
H353 C341 0.929 . S
H354 C342 0.960 . S
H355 C342 0.962 . S
H356 C342 0.960 . S
H357 C343 0.961 . S
H358 C343 0.961 . S
H359 C343 0.961 . S
H360 C344 0.931 . S
H361 C349 0.930 . S
H362 C350 0.956 . S
H363 C350 0.961 . S
H364 C350 0.961 . S
H365 C351 0.958 . S
H366 C351 0.961 . S
H367 C351 0.960 . S
C368 C369 1.391 . S
C368 C370 1.394 . S
C368 H384 0.931 . S
C369 C368 1.391 . S
C369 C373 1.376 . S
C370 C368 1.394 . S
C370 C371 1.369 . S
C370 C374 1.531 . S
C371 C370 1.369 . S
C371 C372 1.410 . S
C371 C379 1.503 . S
C372 C371 1.410 . S
C372 C373 1.392 . S
C372 C375 1.511 . S
C373 C369 1.376 . S
C373 C372 1.392 . S
C373 H385 0.929 . S
C374 C370 1.531 . S
C374 H386 0.960 . S
C374 H387 0.962 . S
C374 H388 0.960 . S
C375 C372 1.511 . S
C375 H389 0.961 . S
C375 H390 0.961 . S
C375 H391 0.961 . S
C376 C377 1.370 . S
C376 C378 1.363 . S
C376 H392 0.931 . S
C377 C376 1.370 . S
C377 C381 1.408 . S
C378 C376 1.363 . S
C378 C379 1.370 . S
C378 C382 1.524 . S
C379 C371 1.503 . S
C379 C378 1.370 . S
C379 C380 1.403 . S
C380 C379 1.403 . S
C380 C381 1.404 . S
C380 C383 1.539 . S
C381 C377 1.408 . S
C381 C380 1.404 . S
C381 H393 0.930 . S
C382 C378 1.524 . S
C382 H394 0.956 . S
C382 H395 0.961 . S
C382 H396 0.961 . S
C383 C380 1.539 . S
C383 H397 0.958 . S
C383 H398 0.961 . S
C383 H399 0.960 . S
H384 C368 0.931 . S
H385 C373 0.929 . S
H386 C374 0.960 . S
H387 C374 0.962 . S
H388 C374 0.960 . S
H389 C375 0.961 . S
H390 C375 0.961 . S
H391 C375 0.961 . S
H392 C376 0.931 . S
H393 C381 0.930 . S
H394 C382 0.956 . S
H395 C382 0.961 . S
H396 C382 0.961 . S
H397 C383 0.958 . S
H398 C383 0.961 . S
H399 C383 0.960 . S
C400 C401 1.391 . S
C400 C402 1.394 . S
C400 H416 0.931 . S
C401 C400 1.391 . S
C401 C405 1.376 1_545 S
C402 C400 1.394 . S
C402 C403 1.369 . S
C402 C406 1.531 . S
C403 C402 1.369 . S
C403 C404 1.410 . S
C403 C411 1.503 . S
C404 C403 1.410 . S
C404 C405 1.392 1_545 S
C404 C407 1.511 1_445 S
C405 C401 1.376 1_565 S
C405 C404 1.392 1_565 S
C405 H417 0.929 1_455 S
C406 C402 1.531 . S
C406 H418 0.960 . S
C406 H419 0.962 . S
C406 H420 0.960 . S
C407 C404 1.511 1_665 S
C407 H421 0.961 . S
C407 H422 0.961 . S
C407 H423 0.961 1_565 S
C408 C409 1.370 1_565 S
C408 C410 1.363 . S
C408 H424 0.931 . S
C409 C408 1.370 1_545 S
C409 C413 1.408 . S
C410 C408 1.363 . S
C410 C411 1.370 1_565 S
C410 C414 1.524 . S
C411 C403 1.503 . S
C411 C410 1.370 1_545 S
C411 C412 1.403 . S
C412 C411 1.403 . S
C412 C413 1.404 . S
C412 C415 1.539 . S
C413 C409 1.408 . S
C413 C412 1.404 . S
C413 H425 0.930 . S
C414 C410 1.524 . S
C414 H426 0.956 . S
C414 H427 0.961 . S
C414 H428 0.961 . S
C415 C412 1.539 . S
C415 H429 0.958 . S
C415 H430 0.961 1_455 S
C415 H431 0.960 . S
H416 C400 0.931 . S
H417 C405 0.929 1_655 S
H418 C406 0.960 . S
H419 C406 0.962 . S
H420 C406 0.960 . S
H421 C407 0.961 . S
H422 C407 0.961 . S
H423 C407 0.961 1_545 S
H424 C408 0.931 . S
H425 C413 0.930 . S
H426 C414 0.956 . S
H427 C414 0.961 . S
H428 C414 0.961 . S
H429 C415 0.958 . S
H430 C415 0.961 1_655 S
H431 C415 0.960 . S
C432 C433 1.391 1_465 S
C432 C434 1.394 . S
C432 H448 0.931 . S
C433 C432 1.391 1_645 S
C433 C437 1.376 . S
C434 C432 1.394 . S
C434 C435 1.369 1_465 S
C434 C438 1.531 . S
C435 C434 1.369 1_645 S
C435 C436 1.410 . S
C435 C443 1.503 . S
C436 C435 1.410 . S
C436 C437 1.392 . S
C436 C439 1.511 . S
C437 C433 1.376 . S
C437 C436 1.392 . S
C437 H449 0.929 . S
C438 C434 1.531 . S
C438 H450 0.960 . S
C438 H451 0.962 . S
C438 H452 0.960 . S
C439 C436 1.511 . S
C439 H453 0.961 . S
C439 H454 0.961 . S
C439 H455 0.961 . S
C440 C441 1.370 1_455 S
C440 C442 1.363 . S
C440 H456 0.931 . S
C441 C440 1.370 1_655 S
C441 C445 1.408 1_545 S
C442 C440 1.363 . S
C442 C443 1.370 1_455 S
C442 C446 1.524 . S
C443 C435 1.503 . S
C443 C442 1.370 1_655 S
C443 C444 1.403 1_545 S
C444 C443 1.403 1_565 S
C444 C445 1.404 . S
C444 C447 1.539 . S
C445 C441 1.408 1_565 S
C445 C444 1.404 . S
C445 H457 0.930 . S
C446 C442 1.524 . S
C446 H458 0.956 . S
C446 H459 0.961 . S
C446 H460 0.961 . S
C447 C444 1.539 . S
C447 H461 0.958 . S
C447 H462 0.961 . S
C447 H463 0.960 . S
H448 C432 0.931 . S
H449 C437 0.929 . S
H450 C438 0.960 . S
H451 C438 0.962 . S
H452 C438 0.960 . S
H453 C439 0.961 . S
H454 C439 0.961 . S
H455 C439 0.961 . S
H456 C440 0.931 . S
H457 C445 0.930 . S
H458 C446 0.956 . S
H459 C446 0.961 . S
H460 C446 0.961 . S
H461 C447 0.958 . S
H462 C447 0.961 . S
H463 C447 0.960 . S
C464 C465 1.391 . S
C464 C466 1.394 . S
C464 H480 0.931 . S
C465 C464 1.391 . S
C465 C469 1.376 . S
C466 C464 1.394 . S
C466 C467 1.369 . S
C466 C470 1.531 . S
C467 C466 1.369 . S
C467 C468 1.410 . S
C467 C475 1.503 . S
C468 C467 1.410 . S
C468 C469 1.392 . S
C468 C471 1.511 . S
C469 C465 1.376 . S
C469 C468 1.392 . S
C469 H481 0.929 . S
C470 C466 1.531 . S
C470 H482 0.960 . S
C470 H483 0.962 . S
C470 H484 0.960 . S
C471 C468 1.511 . S
C471 H485 0.961 . S
C471 H486 0.961 . S
C471 H487 0.961 . S
C472 C473 1.370 . S
C472 C474 1.363 . S
C472 H488 0.931 . S
C473 C472 1.370 . S
C473 C477 1.408 . S
C474 C472 1.363 . S
C474 C475 1.370 . S
C474 C478 1.524 . S
C475 C467 1.503 . S
C475 C474 1.370 . S
C475 C476 1.403 . S
C476 C475 1.403 . S
C476 C477 1.404 . S
C476 C479 1.539 . S
C477 C473 1.408 . S
C477 C476 1.404 . S
C477 H489 0.930 . S
C478 C474 1.524 . S
C478 H490 0.956 . S
C478 H491 0.961 . S
C478 H492 0.961 . S
C479 C476 1.539 . S
C479 H493 0.958 . S
C479 H494 0.961 . S
C479 H495 0.960 . S
H480 C464 0.931 . S
H481 C469 0.929 . S
H482 C470 0.960 . S
H483 C470 0.962 . S
H484 C470 0.960 . S
H485 C471 0.961 . S
H486 C471 0.961 . S
H487 C471 0.961 . S
H488 C472 0.931 . S
H489 C477 0.930 . S
H490 C478 0.956 . S
H491 C478 0.961 . S
H492 C478 0.961 . S
H493 C479 0.958 . S
H494 C479 0.961 . S
H495 C479 0.960 . S
C496 C497 1.391 . S
C496 C498 1.394 . S
C496 H512 0.931 . S
C497 C496 1.391 . S
C497 C501 1.376 . S
C498 C496 1.394 . S
C498 C499 1.369 . S
C498 C502 1.531 . S
C499 C498 1.369 . S
C499 C500 1.410 . S
C499 C507 1.503 . S
C500 C499 1.410 . S
C500 C501 1.392 . S
C500 C503 1.511 . S
C501 C497 1.376 . S
C501 C500 1.392 . S
C501 H513 0.929 . S
C502 C498 1.531 . S
C502 H514 0.960 . S
C502 H515 0.962 . S
C502 H516 0.960 . S
C503 C500 1.511 . S
C503 H517 0.961 . S
C503 H518 0.961 . S
C503 H519 0.961 . S
C504 C505 1.370 . S
C504 C506 1.363 . S
C504 H520 0.931 . S
C505 C504 1.370 . S
C505 C509 1.408 . S
C506 C504 1.363 . S
C506 C507 1.370 . S
C506 C510 1.524 . S
C507 C499 1.503 . S
C507 C506 1.370 . S
C507 C508 1.403 . S
C508 C507 1.403 . S
C508 C509 1.404 . S
C508 C511 1.539 . S
C509 C505 1.408 . S
C509 C508 1.404 . S
C509 H521 0.930 . S
C510 C506 1.524 . S
C510 H522 0.956 . S
C510 H523 0.961 . S
C510 H524 0.961 . S
C511 C508 1.539 . S
C511 H525 0.958 . S
C511 H526 0.961 . S
C511 H527 0.960 . S
H512 C496 0.931 . S
H513 C501 0.929 . S
H514 C502 0.960 . S
H515 C502 0.962 . S
H516 C502 0.960 . S
H517 C503 0.961 . S
H518 C503 0.961 . S
H519 C503 0.961 . S
H520 C504 0.931 . S
H521 C509 0.930 . S
H522 C510 0.956 . S
H523 C510 0.961 . S
H524 C510 0.961 . S
H525 C511 0.958 . S
H526 C511 0.961 . S
H527 C511 0.960 . S
C153 C131 1.521 . S
C145 C29 1.558 . S
C177 C8 1.409 . S
C185 C117 1.387 . S
C209 C0 1.420 . S
C217 C136 1.398 1_554 S
C241 C17 1.562 . S
C249 C112 1.544 . S
C273 C63 1.553 . S
C281 C93 1.538 . S
C305 C42 1.411 . S
C313 C79 1.389 . S
C345 C98 1.398 . S
C337 C34 1.418 . S
C377 C74 1.544 . S
C369 C51 1.562 . S
C401 C4 1.544 . S
C409 C70 1.549 . S
C433 C13 1.537 . S
C441 C89 1.524 . S
C473 C108 1.540 . S
C465 C38 1.553 . S
C497 C47 1.539 . S
C505 C127 1.537 . S
