# Generated by pormake.
# Topology pto, (3,4)-cn, num edge types: 1
# Building blocks:
#     Node 0, Type 0, BuildingBlock: CUQRIR_clean_linker_1, # of connection points: 3
#     Node 1, Type 0, BuildingBlock: CUQRIR_clean_linker_1, # of connection points: 3
#     Node 2, Type 0, BuildingBlock: CUQRIR_clean_linker_1, # of connection points: 3
#     Node 3, Type 0, BuildingBlock: CUQRIR_clean_linker_1, # of connection points: 3
#     Node 4, Type 0, BuildingBlock: CUQRIR_clean_linker_1, # of connection points: 3
#     Node 5, Type 0, BuildingBlock: CUQRIR_clean_linker_1, # of connection points: 3
#     Node 6, Type 0, BuildingBlock: CUQRIR_clean_linker_1, # of connection points: 3
#     Node 7, Type 0, BuildingBlock: CUQRIR_clean_linker_1, # of connection points: 3
#     Node 8, Type 1, BuildingBlock: NAWXER_clean_sbu_0, # of connection points: 4
#     Node 9, Type 1, BuildingBlock: NAWXER_clean_sbu_0, # of connection points: 4
#     Node 10, Type 1, BuildingBlock: NAWXER_clean_sbu_0, # of connection points: 4
#     Node 11, Type 1, BuildingBlock: NAWXER_clean_sbu_0, # of connection points: 4
#     Node 12, Type 1, BuildingBlock: NAWXER_clean_sbu_0, # of connection points: 4
#     Node 13, Type 1, BuildingBlock: NAWXER_clean_sbu_0, # of connection points: 4
#     Edge 14, Type (0, 1), BuildingBlock: TEMPAE_clean_linker_10, # of connection points: 2
#     Edge 15, Type (0, 1), BuildingBlock: TEMPAE_clean_linker_10, # of connection points: 2
#     Edge 16, Type (0, 1), BuildingBlock: TEMPAE_clean_linker_10, # of connection points: 2
#     Edge 17, Type (0, 1), BuildingBlock: TEMPAE_clean_linker_10, # of connection points: 2
#     Edge 18, Type (0, 1), BuildingBlock: TEMPAE_clean_linker_10, # of connection points: 2
#     Edge 19, Type (0, 1), BuildingBlock: TEMPAE_clean_linker_10, # of connection points: 2
#     Edge 20, Type (0, 1), BuildingBlock: TEMPAE_clean_linker_10, # of connection points: 2
#     Edge 21, Type (0, 1), BuildingBlock: TEMPAE_clean_linker_10, # of connection points: 2
#     Edge 22, Type (0, 1), BuildingBlock: TEMPAE_clean_linker_10, # of connection points: 2
#     Edge 23, Type (0, 1), BuildingBlock: TEMPAE_clean_linker_10, # of connection points: 2
#     Edge 24, Type (0, 1), BuildingBlock: TEMPAE_clean_linker_10, # of connection points: 2
#     Edge 25, Type (0, 1), BuildingBlock: TEMPAE_clean_linker_10, # of connection points: 2
#     Edge 26, Type (0, 1), BuildingBlock: TEMPAE_clean_linker_10, # of connection points: 2
#     Edge 27, Type (0, 1), BuildingBlock: TEMPAE_clean_linker_10, # of connection points: 2
#     Edge 28, Type (0, 1), BuildingBlock: TEMPAE_clean_linker_10, # of connection points: 2
#     Edge 29, Type (0, 1), BuildingBlock: TEMPAE_clean_linker_10, # of connection points: 2
#     Edge 30, Type (0, 1), BuildingBlock: TEMPAE_clean_linker_10, # of connection points: 2
#     Edge 31, Type (0, 1), BuildingBlock: TEMPAE_clean_linker_10, # of connection points: 2
#     Edge 32, Type (0, 1), BuildingBlock: TEMPAE_clean_linker_10, # of connection points: 2
#     Edge 33, Type (0, 1), BuildingBlock: TEMPAE_clean_linker_10, # of connection points: 2
#     Edge 34, Type (0, 1), BuildingBlock: TEMPAE_clean_linker_10, # of connection points: 2
#     Edge 35, Type (0, 1), BuildingBlock: TEMPAE_clean_linker_10, # of connection points: 2
#     Edge 36, Type (0, 1), BuildingBlock: TEMPAE_clean_linker_10, # of connection points: 2
#     Edge 37, Type (0, 1), BuildingBlock: TEMPAE_clean_linker_10, # of connection points: 2
# Relax obj value: 0.020
# Max RMSD: 0.156
# Mean RMSD: 0.074
data_MOF--net-pto--node1-NAWXER_clean_sbu_0--node2-CUQRIR_clean_linker_1--edge1-TEMPAE_clean_linker_10
_symmetry_space_group_name_H-M    P1
_symmetry_Int_Tables_number       1
_symmetry_cell_setting            triclinic
loop_
_symmetry_equiv_pos_as_xyz
'x, y, z'
_cell_length_a     40.187258
_cell_length_b     37.152442
_cell_length_c     34.822071
_cell_angle_alpha  78.749398
_cell_angle_beta   95.364189
_cell_angle_gamma 95.397957
loop_
_atom_site_label
_atom_site_type_symbol
_atom_site_fract_x
_atom_site_fract_y
_atom_site_fract_z
_atom_type_partial_charge
C0 C 0.27225 0.2801 0.25486 0.0
N1 N 0.29402 0.25974 0.24284 0.0
N2 N 0.27902 0.31627 0.24048 0.0
C3 C 0.24634 0.26483 0.28366 0.0
C4 C 0.30604 0.31731 0.2196 0.0
N5 N 0.31542 0.28282 0.22136 0.0
C6 C 0.32212 0.35176 0.19618 0.0
H7 H 0.23795 0.2865 0.29756 0.0
H8 H 0.2564 0.24295 0.30708 0.0
H9 H 0.22434 0.25231 0.26789 0.0
H10 H 0.344 0.36194 0.21408 0.0
H11 H 0.30431 0.3736 0.18848 0.0
H12 H 0.33114 0.34608 0.16895 0.0
C13 C 0.29571 0.72036 0.76177 0.0
N14 N 0.32228 0.73907 0.7775 0.0
N15 N 0.28757 0.68854 0.78633 0.0
C16 C 0.27652 0.73435 0.72328 0.0
C17 C 0.3101 0.68863 0.81785 0.0
N18 N 0.33112 0.71978 0.81267 0.0
C19 C 0.31129 0.65851 0.85356 0.0
H20 H 0.26234 0.75764 0.72663 0.0
H21 H 0.25879 0.71263 0.71346 0.0
H22 H 0.29407 0.74487 0.70017 0.0
H23 H 0.29976 0.63203 0.84653 0.0
H24 H 0.29699 0.66598 0.87623 0.0
H25 H 0.33753 0.65514 0.86586 0.0
C26 C 0.88893 0.78151 0.30301 0.0
N27 N 0.8715 0.7597 0.27992 0.0
N28 N 0.86921 0.80597 0.31144 0.0
C29 C 0.92463 0.77719 0.31965 0.0
C30 C 0.83897 0.79808 0.29303 0.0
N31 N 0.84015 0.76957 0.27412 0.0
C32 C 0.80906 0.82006 0.29119 0.0
H33 H 0.93017 0.74782 0.3257 0.0
H34 H 0.92973 0.78823 0.34718 0.0
H35 H 0.94176 0.79254 0.29783 0.0
H36 H 0.81685 0.84838 0.29605 0.0
H37 H 0.79259 0.80636 0.31449 0.0
H38 H 0.7944 0.82162 0.26236 0.0
C39 C 0.77806 0.20246 0.7758 0.0
N40 N 0.8031 0.21774 0.75294 0.0
N41 N 0.76765 0.22753 0.79469 0.0
C42 C 0.76398 0.16307 0.77993 0.0
C43 C 0.78739 0.25856 0.78242 0.0
N44 N 0.80884 0.2526 0.75699 0.0
C45 C 0.78476 0.29509 0.79394 0.0
H46 H 0.74312 0.16121 0.757 0.0
H47 H 0.75403 0.1532 0.80913 0.0
H48 H 0.78322 0.14493 0.77578 0.0
H49 H 0.80142 0.29669 0.82092 0.0
H50 H 0.75871 0.29814 0.8002 0.0
H51 H 0.79284 0.31813 0.77045 0.0
C52 C 0.79052 0.67431 0.80502 0.0
N53 N 0.80955 0.6937 0.7767 0.0
N54 N 0.76904 0.69598 0.81533 0.0
C55 C 0.79472 0.635 0.82479 0.0
C56 C 0.77576 0.72934 0.7926 0.0
N57 N 0.80073 0.72817 0.76931 0.0
C58 C 0.75641 0.76234 0.79155 0.0
H59 H 0.78128 0.61646 0.80606 0.0
H60 H 0.78433 0.62858 0.85398 0.0
H61 H 0.82159 0.62938 0.82842 0.0
H62 H 0.73106 0.7539 0.80194 0.0
H63 H 0.75391 0.77887 0.76138 0.0
H64 H 0.77007 0.77992 0.81116 0.0
C65 C 0.79284 0.28517 0.23101 0.0
N66 N 0.82352 0.28926 0.25006 0.0
N67 N 0.78593 0.31638 0.20541 0.0
C68 C 0.76882 0.25144 0.23899 0.0
C69 C 0.81328 0.33975 0.2096 0.0
N70 N 0.83604 0.32345 0.23711 0.0
C71 C 0.81868 0.3776 0.18497 0.0
H72 H 0.77567 0.23076 0.22261 0.0
H73 H 0.74261 0.25799 0.2294 0.0
H74 H 0.77045 0.23904 0.27073 0.0
H75 H 0.81343 0.39831 0.2022 0.0
H76 H 0.80182 0.38088 0.15762 0.0
H77 H 0.84509 0.38314 0.17725 0.0
C78 C 0.2666 0.27441 0.76381 0.0
N79 N 0.29095 0.25713 0.75209 0.0
N80 N 0.23931 0.27504 0.73808 0.0
C81 C 0.26993 0.29232 0.7994 0.0
C82 C 0.24798 0.25809 0.70982 0.0
N83 N 0.27967 0.24739 0.71815 0.0
C84 C 0.22504 0.2509 0.67508 0.0
H85 H 0.26387 0.27119 0.82553 0.0
H86 H 0.25244 0.31427 0.79626 0.0
H87 H 0.29596 0.30428 0.80451 0.0
H88 H 0.23075 0.27259 0.64928 0.0
H89 H 0.1984 0.25158 0.6807 0.0
H90 H 0.22899 0.22384 0.66796 0.0
C91 C 0.32881 0.77632 0.2973 0.0
N92 N 0.33273 0.75123 0.27482 0.0
N93 N 0.35883 0.78827 0.31329 0.0
C94 C 0.29568 0.7885 0.30456 0.0
C95 C 0.38117 0.76944 0.30016 0.0
N96 N 0.36531 0.7464 0.2773 0.0
C97 C 0.41857 0.77472 0.3084 0.0
H98 H 0.28785 0.81025 0.27958 0.0
H99 H 0.29746 0.79999 0.33184 0.0
H100 H 0.27614 0.76515 0.30657 0.0
H101 H 0.42684 0.75204 0.33207 0.0
H102 H 0.42611 0.8012 0.31815 0.0
H103 H 0.43153 0.77383 0.28185 0.0
C104 C 0.04088 0.494 0.2245 0.0
C105 C 0.12322 0.60214 0.21862 0.0
O106 O 0.05211 0.50205 0.25764 0.0
Zn107 Zn 0.08469 0.54162 0.28169 0.0
O108 O 0.05023 0.5144 0.19286 0.0
Zn109 Zn 0.08012 0.54986 0.21759 0.0
O110 O 0.11816 0.51638 0.24621 0.0
O111 O 0.11897 0.50984 0.31074 0.0
O112 O 0.10844 0.59061 0.18878 0.0
O113 O 0.1156 0.58634 0.25308 0.0
O114 O 0.05352 0.56613 0.30642 0.0
O115 O 0.04464 0.57605 0.24184 0.0
C116 C 0.13106 0.50321 0.28046 0.0
C117 C 0.03652 0.58024 0.27529 0.0
C118 C 0.97894 0.45453 0.69116 0.0
C119 C 0.08015 0.53129 0.72376 0.0
O120 O 0.98583 0.45425 0.72782 0.0
Zn121 Zn 0.02189 0.47762 0.76626 0.0
O122 O 0.99728 0.47437 0.66595 0.0
Zn123 Zn 0.02876 0.49515 0.70392 0.0
O124 O 0.05172 0.44672 0.73199 0.0
O125 O 0.04327 0.43386 0.79522 0.0
O126 O 0.06807 0.52895 0.68909 0.0
O127 O 0.06469 0.51386 0.75312 0.0
O128 O 0.99458 0.50647 0.79045 0.0
O129 O 0.99848 0.52852 0.7273 0.0
C130 C 0.05574 0.42605 0.76579 0.0
C131 C 0.98722 0.53041 0.76003 0.0
C132 C 0.31312 0.96522 0.58243 0.0
C133 C 0.29609 0.0503 0.45759 0.0
O134 O 0.28528 0.97045 0.56232 0.0
Zn135 Zn 0.30211 0.00837 0.52055 0.0
O136 O 0.33998 0.98346 0.57027 0.0
Zn137 Zn 0.35575 0.02423 0.52235 0.0
O138 O 0.37191 0.06608 0.54861 0.0
O139 O 0.31744 0.05249 0.54974 0.0
O140 O 0.32665 0.04973 0.47174 0.0
O141 O 0.27285 0.0315 0.47685 0.0
O142 O 0.33061 0.97837 0.49148 0.0
O143 O 0.38443 0.99652 0.49715 0.0
C144 C 0.34367 0.07225 0.55891 0.0
C145 C 0.36073 0.97586 0.48385 0.0
C146 C 0.62982 0.73229 0.10199 0.0
C147 C 0.52949 0.73375 0.00788 0.0
O148 O 0.61526 0.70029 0.10057 0.0
Zn149 Zn 0.57219 0.67626 0.07089 0.0
O150 O 0.6168 0.76049 0.08155 0.0
Zn151 Zn 0.57853 0.73532 0.0558 0.0
O152 O 0.54659 0.71453 0.10179 0.0
O153 O 0.54287 0.65383 0.11217 0.0
O154 O 0.54723 0.76198 0.01602 0.0
O155 O 0.53666 0.70167 0.02621 0.0
O156 O 0.59362 0.64609 0.04198 0.0
O157 O 0.60234 0.70604 0.02038 0.0
C158 C 0.53451 0.68352 0.12027 0.0
C159 C 0.60636 0.67284 0.01771 0.0
C160 C 0.83753 0.96006 0.57053 0.0
C161 C 0.84399 0.07696 0.47417 0.0
O162 O 0.81284 0.9755 0.55044 0.0
Zn163 Zn 0.83821 0.01912 0.5231 0.0
O164 O 0.8671 0.97609 0.56758 0.0
Zn165 Zn 0.89196 0.02494 0.53608 0.0
O166 O 0.90945 0.05257 0.57722 0.0
O167 O 0.85416 0.04781 0.56923 0.0
O168 O 0.87221 0.06747 0.49162 0.0
O169 O 0.81732 0.05705 0.48357 0.0
O170 O 0.86715 0.99553 0.48786 0.0
O171 O 0.92111 1.00287 0.50656 0.0
C172 C 0.88124 0.05912 0.58709 0.0
C173 C 0.8977 0.9908 0.48399 0.0
C174 C 0.57736 0.3114 0.03217 0.0
C175 C 0.49409 0.28411 0.92899 0.0
O176 O 0.56835 0.27702 0.03522 0.0
Zn177 Zn 0.53534 0.24143 0.00526 0.0
O178 O 0.56445 0.33454 0.00427 0.0
Zn179 Zn 0.53489 0.29906 0.98085 0.0
O180 O 0.49958 0.27909 0.02395 0.0
O181 O 0.50448 0.21982 0.04547 0.0
O182 O 0.5061 0.31573 0.93463 0.0
O183 O 0.50286 0.25515 0.95296 0.0
O184 O 0.56715 0.21221 0.98774 0.0
O185 O 0.57017 0.27046 0.95825 0.0
C186 C 0.49036 0.24886 0.04641 0.0
C187 C 0.58035 0.23811 0.96284 0.0
C188 C 0.22734 0.34736 0.23638 0.0
C189 C 0.26162 0.34619 0.24742 0.0
C190 C 0.20897 0.37414 0.24606 0.0
C191 C 0.22533 0.40028 0.2676 0.0
C192 C 0.26011 0.39924 0.27874 0.0
C193 C 0.27793 0.37219 0.26833 0.0
C194 C 0.17206 0.37453 0.23305 0.0
C195 C 0.27838 0.42649 0.30181 0.0
C196 C 0.18023 0.48732 0.2512 0.0
C197 C 0.15971 0.48044 0.28273 0.0
C198 C 0.20334 0.46257 0.24738 0.0
C199 C 0.20613 0.42999 0.27584 0.0
C200 C 0.18736 0.42419 0.3094 0.0
C201 C 0.16428 0.44963 0.31252 0.0
C202 C 0.22284 0.47004 0.21122 0.0
C203 C 0.19001 0.38997 0.34062 0.0
H204 H 0.21496 0.32692 0.22043 0.0
H205 H 0.3044 0.37066 0.27728 0.0
H206 H 0.15722 0.37212 0.25887 0.0
H207 H 0.16706 0.40109 0.21337 0.0
H208 H 0.16305 0.3518 0.21724 0.0
H209 H 0.30526 0.42143 0.30897 0.0
H210 H 0.27666 0.4549 0.28484 0.0
H211 H 0.26638 0.42502 0.32957 0.0
H212 H 0.17714 0.51146 0.22836 0.0
H213 H 0.14846 0.44424 0.33689 0.0
H214 H 0.21325 0.45035 0.1918 0.0
H215 H 0.24974 0.46591 0.21934 0.0
H216 H 0.22067 0.49845 0.19427 0.0
H217 H 0.17775 0.36591 0.32888 0.0
H218 H 0.17778 0.39207 0.36734 0.0
H219 H 0.21666 0.38461 0.34899 0.0
C220 C 0.22672 0.67491 0.78092 0.0
C221 C 0.25888 0.66336 0.78118 0.0
C222 C 0.19824 0.65307 0.77038 0.0
C223 C 0.20213 0.61881 0.75992 0.0
C224 C 0.2347 0.60676 0.76084 0.0
C225 C 0.26278 0.62935 0.77138 0.0
C226 C 0.16403 0.66689 0.76998 0.0
C227 C 0.23986 0.57031 0.7502 0.0
C228 C 0.12666 0.54942 0.77041 0.0
C229 C 0.11215 0.55301 0.73165 0.0
C230 C 0.15628 0.57001 0.77972 0.0
C231 C 0.17195 0.59507 0.74961 0.0
C232 C 0.1579 0.59848 0.71026 0.0
C233 C 0.12815 0.57728 0.70168 0.0
C234 C 0.17044 0.56539 0.82201 0.0
C235 C 0.17396 0.62504 0.6774 0.0
H236 H 0.22411 0.70159 0.78802 0.0
H237 H 0.28786 0.62103 0.77101 0.0
H238 H 0.15096 0.66884 0.74022 0.0
H239 H 0.14851 0.64715 0.79052 0.0
H240 H 0.1654 0.69433 0.77849 0.0
H241 H 0.26677 0.56489 0.75263 0.0
H242 H 0.22623 0.54763 0.7697 0.0
H243 H 0.22938 0.56978 0.71967 0.0
H244 H 0.11478 0.53049 0.79385 0.0
H245 H 0.11718 0.58016 0.67171 0.0
H246 H 0.17023 0.59166 0.83259 0.0
H247 H 0.1969 0.55845 0.82445 0.0
H248 H 0.15602 0.54351 0.84169 0.0
H249 H 0.17393 0.6536 0.68251 0.0
H250 H 0.16074 0.62343 0.64823 0.0
H251 H 0.2005 0.61936 0.67685 0.0
C252 C 0.87648 0.69338 0.28718 0.0
C253 C 0.88472 0.72937 0.26787 0.0
C254 C 0.89741 0.66507 0.28694 0.0
C255 C 0.92738 0.67333 0.26736 0.0
C256 C 0.93414 0.70907 0.24512 0.0
C257 C 0.91253 0.73653 0.24543 0.0
C258 C 0.88873 0.62713 0.31008 0.0
C259 C 0.96571 0.71928 0.2238 0.0
C260 C 1.00508 0.62175 0.30554 0.0
C261 C 1.00695 0.60099 0.2764 0.0
C262 C 0.97864 0.64456 0.30366 0.0
C263 C 0.95311 0.6459 0.27243 0.0
C264 C 0.95396 0.62332 0.24426 0.0
C265 C 0.98102 0.60154 0.24632 0.0
C266 C 0.97886 0.66854 0.33405 0.0
C267 C 0.92691 0.62314 0.21113 0.0
H268 H 0.85523 0.68813 0.30503 0.0
H269 H 0.91896 0.7646 0.23105 0.0
H270 H 0.89287 0.60571 0.29322 0.0
H271 H 0.90531 0.6225 0.33761 0.0
H272 H 0.86229 0.62359 0.31789 0.0
H273 H 0.96595 0.74736 0.20551 0.0
H274 H 0.98782 0.71819 0.24551 0.0
H275 H 0.96851 0.69934 0.20464 0.0
H276 H 0.02505 0.62145 0.32877 0.0
H277 H 0.98206 0.58511 0.22398 0.0
H278 H 0.95468 0.66404 0.34788 0.0
H279 H 0.98174 0.69796 0.31968 0.0
H280 H 0.99952 0.66307 0.35744 0.0
H281 H 0.90175 0.61961 0.22266 0.0
H282 H 0.92906 0.6009 0.19451 0.0
H283 H 0.9286 0.64993 0.19046 0.0
C284 C 0.86119 0.29137 0.7625 0.0
C285 C 0.83433 0.27855 0.73906 0.0
C286 C 0.8844 0.31963 0.74651 0.0
C287 C 0.88039 0.33562 0.70605 0.0
C288 C 0.85382 0.32175 0.68195 0.0
C289 C 0.83096 0.29336 0.69887 0.0
C290 C 0.91242 0.33335 0.77332 0.0
C291 C 0.84862 0.33797 0.63881 0.0
C292 C 0.91894 0.43357 0.69022 0.0
C293 C 0.95104 0.42903 0.68038 0.0
C294 C 0.89437 0.40395 0.69485 0.0
C295 C 0.90248 0.36877 0.69038 0.0
C296 C 0.93398 0.36488 0.67704 0.0
C297 C 0.95798 0.39521 0.67214 0.0
C298 C 0.86098 0.40954 0.70849 0.0
C299 C 0.94365 0.32794 0.67188 0.0
H300 H 0.86342 0.27975 0.79361 0.0
H301 H 0.8097 0.2837 0.68109 0.0
H302 H 0.93693 0.33336 0.76105 0.0
H303 H 0.90902 0.36214 0.77557 0.0
H304 H 0.91335 0.31632 0.80335 0.0
H305 H 0.82977 0.32097 0.62322 0.0
H306 H 0.83986 0.36596 0.63524 0.0
H307 H 0.87257 0.34078 0.62463 0.0
H308 H 0.91389 0.4596 0.69733 0.0
H309 H 0.98314 0.39151 0.66553 0.0
H310 H 0.86008 0.39694 0.74006 0.0
H311 H 0.84018 0.39582 0.69207 0.0
H312 H 0.85674 0.43918 0.70482 0.0
H313 H 0.94958 0.31084 0.70118 0.0
H314 H 0.966 0.33069 0.65471 0.0
H315 H 0.92262 0.31307 0.65699 0.0
C316 C 0.32424 0.21528 0.29073 0.0
C317 C 0.29897 0.22226 0.26053 0.0
C318 C 0.32275 0.18229 0.31825 0.0
C319 C 0.29563 0.15554 0.31469 0.0
C320 C 0.27212 0.16093 0.28158 0.0
C321 C 0.27385 0.19461 0.25504 0.0
C322 C 0.34829 0.17781 0.35318 0.0
C323 C 0.24359 0.13257 0.27595 0.0
C324 C 0.30667 0.06675 0.38739 0.0
C325 C 0.28921 0.07243 0.41841 0.0
C326 C 0.3067 0.09216 0.35189 0.0
C327 C 0.28987 0.12456 0.34808 0.0
C328 C 0.27062 0.12932 0.37865 0.0
C329 C 0.27023 0.10284 0.41346 0.0
C330 C 0.32654 0.08545 0.31957 0.0
C331 C 0.25262 0.16374 0.37589 0.0
H332 H 0.34323 0.23718 0.29497 0.0
H333 H 0.25422 0.20052 0.23169 0.0
H334 H 0.33593 0.17891 0.38009 0.0
H335 H 0.35885 0.15065 0.35762 0.0
H336 H 0.36923 0.19967 0.34983 0.0
H337 H 0.23195 0.13739 0.24534 0.0
H338 H 0.2523 0.10439 0.28319 0.0
H339 H 0.22403 0.13387 0.296 0.0
H340 H 0.32141 0.04309 0.39153 0.0
H341 H 0.25717 0.10728 0.43782 0.0
H342 H 0.35032 0.10324 0.31879 0.0
H343 H 0.31242 0.09262 0.29053 0.0
H344 H 0.33275 0.05633 0.32407 0.0
H345 H 0.27127 0.18782 0.37544 0.0
H346 H 0.23699 0.16208 0.40095 0.0
H347 H 0.23632 0.16882 0.34818 0.0
C348 C 0.39121 0.73717 0.82542 0.0
C349 C 0.35904 0.72967 0.83877 0.0
C350 C 0.41934 0.74281 0.85142 0.0
C351 C 0.41509 0.74102 0.89173 0.0
C352 C 0.3823 0.73553 0.90481 0.0
C353 C 0.35468 0.72989 0.87814 0.0
C354 C 0.45373 0.74849 0.83614 0.0
C355 C 0.37652 0.73371 0.94737 0.0
C356 C 0.48501 0.70461 0.96617 0.0
C357 C 0.50072 0.73675 0.97746 0.0
C358 C 0.45748 0.70585 0.93819 0.0
C359 C 0.44493 0.74012 0.92089 0.0
C360 C 0.46069 0.77281 0.93184 0.0
C361 C 0.4885 0.77078 0.95993 0.0
C362 C 0.44169 0.67029 0.9273 0.0
C363 C 0.44797 0.80984 0.91415 0.0
H364 H 0.39447 0.73692 0.79494 0.0
H365 H 0.32966 0.7248 0.88818 0.0
H366 H 0.4684 0.77201 0.84657 0.0
H367 H 0.46754 0.72363 0.8476 0.0
H368 H 0.45252 0.75362 0.80353 0.0
H369 H 0.34951 0.73349 0.95196 0.0
H370 H 0.38635 0.70832 0.96534 0.0
H371 H 0.39025 0.75746 0.95837 0.0
H372 H 0.49425 0.67814 0.97923 0.0
H373 H 0.5004 0.79575 0.96843 0.0
H374 H 0.44205 0.67159 0.89524 0.0
H375 H 0.41507 0.66617 0.93432 0.0
H376 H 0.45477 0.64598 0.943 0.0
H377 H 0.44806 0.81472 0.8817 0.0
H378 H 0.46328 0.83274 0.92515 0.0
H379 H 0.42164 0.81029 0.92109 0.0
C380 C 0.90489 0.85992 0.32623 0.0
C381 C 0.87825 0.83339 0.33535 0.0
C382 C 0.91379 0.88702 0.34918 0.0
C383 C 0.89558 0.88739 0.38199 0.0
C384 C 0.86908 0.86002 0.39171 0.0
C385 C 0.8607 0.8334 0.36814 0.0
C386 C 0.94198 0.91581 0.33772 0.0
C387 C 0.84908 0.85932 0.4265 0.0
C388 C 0.92507 0.94059 0.46343 0.0
C389 C 0.90405 0.96955 0.45422 0.0
C390 C 0.92417 0.91449 0.43888 0.0
C391 C 0.90202 0.91794 0.40438 0.0
C392 C 0.88294 0.94896 0.39351 0.0
C393 C 0.88402 0.9742 0.41872 0.0
C394 C 0.9449 0.8818 0.45142 0.0
C395 C 0.8594 0.95408 0.35675 0.0
H396 H 0.91832 0.85969 0.30072 0.0
H397 H 0.84041 0.81247 0.37522 0.0
H398 H 0.93185 0.9432 0.32833 0.0
H399 H 0.96031 0.91754 0.36331 0.0
H400 H 0.95534 0.90996 0.31336 0.0
H401 H 0.8307 0.83491 0.43144 0.0
H402 H 0.86611 0.85921 0.45349 0.0
H403 H 0.83526 0.8845 0.42178 0.0
H404 H 0.94027 0.93679 0.49111 0.0
H405 H 0.86783 0.99674 0.4116 0.0
H406 H 0.95736 0.87635 0.42625 0.0
H407 H 0.92826 0.85696 0.46199 0.0
H408 H 0.96429 0.88585 0.47543 0.0
H409 H 0.87226 0.95032 0.33115 0.0
H410 H 0.84946 0.98171 0.35016 0.0
H411 H 0.83791 0.93296 0.36041 0.0
C412 C 0.74783 0.23141 0.8585 0.0
C413 C 0.74126 0.22281 0.821 0.0
C414 C 0.72191 0.22981 0.88335 0.0
C415 C 0.68855 0.21945 0.87027 0.0
C416 C 0.68205 0.20937 0.83289 0.0
C417 C 0.70853 0.21119 0.8087 0.0
C418 C 0.73001 0.24073 0.92292 0.0
C419 C 0.64692 0.19834 0.81769 0.0
C420 C 0.62171 0.1982 0.94454 0.0
C421 C 0.60748 0.2321 0.93897 0.0
C422 C 0.64797 0.19341 0.92224 0.0
C423 C 0.6602 0.22318 0.89372 0.0
C424 C 0.64566 0.25726 0.88776 0.0
C425 C 0.61963 0.26127 0.91037 0.0
C426 C 0.66286 0.15667 0.92943 0.0
C427 C 0.65778 0.28974 0.85764 0.0
H428 H 0.77328 0.24002 0.868 0.0
H429 H 0.70354 0.2048 0.77955 0.0
H430 H 0.71871 0.26682 0.9231 0.0
H431 H 0.71907 0.21946 0.94628 0.0
H432 H 0.75746 0.24473 0.93022 0.0
H433 H 0.64653 0.18771 0.78995 0.0
H434 H 0.6347 0.17691 0.83989 0.0
H435 H 0.63171 0.22251 0.81218 0.0
H436 H 0.61254 0.17551 0.96652 0.0
H437 H 0.60886 0.2876 0.90558 0.0
H438 H 0.68986 0.16005 0.93923 0.0
H439 H 0.66112 0.14585 0.90172 0.0
H440 H 0.6501 0.13603 0.95198 0.0
H441 H 0.68467 0.29747 0.86479 0.0
H442 H 0.64346 0.31419 0.85618 0.0
H443 H 0.65556 0.28224 0.82814 0.0
C444 C 0.31973 0.80493 0.77396 0.0
C445 C 0.33359 0.77628 0.76183 0.0
C446 C 0.31958 0.83998 0.74999 0.0
C447 C 0.33339 0.84594 0.71311 0.0
C448 C 0.35057 0.81798 0.70289 0.0
C449 C 0.35055 0.7834 0.72763 0.0
C450 C 0.30176 0.86932 0.76239 0.0
C451 C 0.36578 0.82318 0.66396 0.0
C452 C 0.29179 0.90704 0.62514 0.0
C453 C 0.31566 0.93709 0.61875 0.0
C454 C 0.2967 0.87773 0.6568 0.0
C455 C 0.3259 0.87894 0.68292 0.0
C456 C 0.34901 0.91027 0.67797 0.0
C457 C 0.34375 0.93885 0.64573 0.0
C458 C 0.27152 0.84462 0.66109 0.0
C459 C 0.38 0.9129 0.70566 0.0
H460 H 0.30632 0.79891 0.80035 0.0
H461 H 0.36084 0.76078 0.71843 0.0
H462 H 0.31569 0.89667 0.755 0.0
H463 H 0.27659 0.87107 0.74638 0.0
H464 H 0.29848 0.86309 0.7944 0.0
H465 H 0.38167 0.8006 0.66268 0.0
H466 H 0.34544 0.82386 0.64002 0.0
H467 H 0.38121 0.84975 0.65827 0.0
H468 H 0.27009 0.90557 0.60436 0.0
H469 H 0.36211 0.96231 0.64118 0.0
H470 H 0.26278 0.83838 0.69113 0.0
H471 H 0.28356 0.82016 0.65678 0.0
H472 H 0.24936 0.84876 0.63956 0.0
H473 H 0.37351 0.90525 0.73663 0.0
H474 H 0.39294 0.941 0.70096 0.0
H475 H 0.39777 0.89326 0.70117 0.0
C476 C 0.78183 0.74411 0.26549 0.0
C477 C 0.81293 0.75505 0.25003 0.0
C478 C 0.7528 0.73825 0.241 0.0
C479 C 0.75495 0.74299 0.19991 0.0
C480 C 0.78681 0.75162 0.18445 0.0
C481 C 0.81545 0.75769 0.20974 0.0
C482 C 0.71955 0.72901 0.25893 0.0
C483 C 0.7904 0.7563 0.14099 0.0
C484 C 0.67972 0.70418 0.14127 0.0
C485 C 0.66213 0.73556 0.12639 0.0
C486 C 0.71029 0.70634 0.16427 0.0
C487 C 0.72362 0.74063 0.17324 0.0
C488 C 0.70613 0.77248 0.15815 0.0
C489 C 0.67577 0.76962 0.13471 0.0
C490 C 0.7282 0.67179 0.17927 0.0
C491 C 0.71923 0.80953 0.16733 0.0
H492 H 0.78004 0.74203 0.29672 0.0
H493 H 0.83946 0.76652 0.1978 0.0
H494 H 0.7032 0.75194 0.2483 0.0
H495 H 0.70653 0.70406 0.2497 0.0
H496 H 0.7224 0.72423 0.29154 0.0
H497 H 0.81708 0.75908 0.13415 0.0
H498 H 0.77744 0.73249 0.12937 0.0
H499 H 0.77836 0.78128 0.12532 0.0
H500 H 0.66967 0.67774 0.13475 0.0
H501 H 0.66248 0.79401 0.12339 0.0
H502 H 0.72954 0.66547 0.21182 0.0
H503 H 0.75434 0.67598 0.17051 0.0
H504 H 0.71549 0.64762 0.16801 0.0
H505 H 0.72086 0.80833 0.19954 0.0
H506 H 0.70305 0.83174 0.15291 0.0
H507 H 0.74492 0.81682 0.15761 0.0
C508 C 0.81287 0.20183 0.69003 0.0
C509 C 0.82157 0.19937 0.73015 0.0
C510 C 0.82813 0.18088 0.66817 0.0
C511 C 0.8522 0.15642 0.68726 0.0
C512 C 0.86201 0.1551 0.72764 0.0
C513 C 0.84654 0.17675 0.74862 0.0
C514 C 0.81711 0.18341 0.62514 0.0
C515 C 0.8873 0.12929 0.74918 0.0
C516 C 0.85104 0.07215 0.64106 0.0
C517 C 0.87835 0.08081 0.61778 0.0
C518 C 0.84351 0.0956 0.66548 0.0
C519 C 0.86345 0.12901 0.66616 0.0
C520 C 0.89213 0.13707 0.64422 0.0
C521 C 0.89944 0.11263 0.62042 0.0
C522 C 0.81307 0.0855 0.68891 0.0
C523 C 0.91384 0.17251 0.64401 0.0
H524 H 0.79324 0.21918 0.67618 0.0
H525 H 0.85294 0.17503 0.77983 0.0
H526 H 0.83921 0.18673 0.60756 0.0
H527 H 0.80242 0.15754 0.62066 0.0
H528 H 0.80132 0.20676 0.61378 0.0
H529 H 0.89537 0.13498 0.77895 0.0
H530 H 0.87611 0.1005 0.75227 0.0
H531 H 0.90972 0.13138 0.73232 0.0
H532 H 0.8348 0.04742 0.63918 0.0
H533 H 0.92036 0.11953 0.6021 0.0
H534 H 0.79358 0.10486 0.67703 0.0
H535 H 0.81967 0.08789 0.72001 0.0
H536 H 0.80213 0.05705 0.688 0.0
H537 H 0.89974 0.19593 0.62809 0.0
H538 H 0.93733 0.17265 0.62948 0.0
H539 H 0.92038 0.17718 0.6744 0.0
C540 C 0.37438 0.2878 0.20501 0.0
C541 C 0.34147 0.27216 0.20098 0.0
C542 C 0.39917 0.28027 0.18236 0.0
C543 C 0.3907 0.25685 0.15468 0.0
C544 C 0.35771 0.23984 0.15175 0.0
C545 C 0.33356 0.24753 0.17517 0.0
C546 C 0.4341 0.29853 0.18698 0.0
C547 C 0.34741 0.21506 0.12243 0.0
C548 C 0.44163 0.27696 0.06513 0.0
C549 C 0.46372 0.24886 0.07334 0.0
C550 C 0.41738 0.27924 0.09089 0.0
C551 C 0.41536 0.25313 0.1263 0.0
C552 C 0.43729 0.22435 0.13464 0.0
C553 C 0.46103 0.22235 0.10787 0.0
C554 C 0.39415 0.30997 0.08037 0.0
C555 C 0.43625 0.19629 0.17229 0.0
H556 H 0.38048 0.30641 0.22548 0.0
H557 H 0.30802 0.23557 0.17214 0.0
H558 H 0.45294 0.27786 0.19081 0.0
H559 H 0.43925 0.319 0.16001 0.0
H560 H 0.43753 0.31284 0.21243 0.0
H561 H 0.3218 0.20142 0.12621 0.0
H562 H 0.34795 0.23149 0.09221 0.0
H563 H 0.36532 0.19357 0.12517 0.0
H564 H 0.44332 0.29741 0.03837 0.0
H565 H 0.47813 0.20069 0.11454 0.0
H566 H 0.39832 0.32811 0.10246 0.0
H567 H 0.36766 0.29846 0.0808 0.0
H568 H 0.39793 0.32703 0.05091 0.0
H569 H 0.44242 0.21026 0.19775 0.0
H570 H 0.45416 0.17492 0.17387 0.0
H571 H 0.41063 0.18258 0.17516 0.0
C572 C 0.87021 0.69178 0.77491 0.0
C573 C 0.83753 0.68016 0.76257 0.0
C574 C 0.8973 0.67127 0.77208 0.0
C575 C 0.89127 0.63841 0.75669 0.0
C576 C 0.85855 0.62833 0.74141 0.0
C577 C 0.8321 0.64943 0.7445 0.0
C578 C 0.93183 0.68329 0.78818 0.0
C579 C 0.85095 0.59373 0.7245 0.0
C580 C 0.96123 0.58874 0.72871 0.0
C581 C 0.96484 0.55979 0.76114 0.0
C582 C 0.93836 0.61536 0.72748 0.0
C583 C 0.91831 0.61293 0.75929 0.0
C584 C 0.92253 0.58448 0.79266 0.0
C585 C 0.94584 0.55834 0.79326 0.0
C586 C 0.93489 0.64539 0.69157 0.0
C587 C 0.90155 0.58092 0.82718 0.0
H588 H 0.87413 0.71529 0.78942 0.0
H589 H 0.80663 0.64048 0.73541 0.0
H590 H 0.93852 0.66449 0.81618 0.0
H591 H 0.95083 0.68173 0.76753 0.0
H592 H 0.93323 0.71182 0.79389 0.0
H593 H 0.82494 0.5916 0.71074 0.0
H594 H 0.86865 0.5928 0.70218 0.0
H595 H 0.85422 0.56931 0.7482 0.0
H596 H 0.97599 0.59036 0.70383 0.0
H597 H 0.94844 0.53615 0.8184 0.0
H598 H 0.93674 0.67274 0.70024 0.0
H599 H 0.90983 0.6417 0.67592 0.0
H600 H 0.9543 0.64536 0.67085 0.0
H601 H 0.90388 0.6071 0.83836 0.0
H602 H 0.90894 0.5584 0.85163 0.0
H603 H 0.87473 0.57535 0.8177 0.0
C604 C 0.89657 0.3259 0.23126 0.0
C605 C 0.86946 0.3389 0.24543 0.0
C606 C 0.92753 0.34698 0.22831 0.0
C607 C 0.93116 0.3818 0.23979 0.0
C608 C 0.90438 0.3937 0.25667 0.0
C609 C 0.87386 0.37204 0.25928 0.0
C610 C 0.95553 0.33307 0.21064 0.0
C611 C 0.90719 0.43039 0.26972 0.0
C612 C 0.01481 0.43421 0.25842 0.0
C613 C 0.01592 0.46194 0.22465 0.0
C614 C 0.9884 0.4066 0.26275 0.0
C615 C 0.96217 0.4068 0.23272 0.0
C616 C 0.96409 0.43343 0.19753 0.0
C617 C 0.99111 0.46064 0.1938 0.0
C618 C 0.98764 0.37851 0.30046 0.0
C619 C 0.93661 0.43448 0.16478 0.0
H620 H 0.89275 0.30052 0.21993 0.0
H621 H 0.85257 0.38203 0.26978 0.0
H622 H 0.95886 0.34969 0.18092 0.0
H623 H 0.97955 0.33615 0.22861 0.0
H624 H 0.95032 0.30371 0.208 0.0
H625 H 0.88482 0.43453 0.28436 0.0
H626 H 0.92973 0.43271 0.29032 0.0
H627 H 0.91013 0.45294 0.2439 0.0
H628 H 0.03416 0.43477 0.28224 0.0
H629 H 0.99178 0.482 0.16772 0.0
H630 H 0.98182 0.35037 0.29415 0.0
H631 H 0.96753 0.38399 0.31785 0.0
H632 H 0.0118 0.37924 0.31872 0.0
H633 H 0.93126 0.4069 0.15684 0.0
H634 H 0.94315 0.45474 0.1381 0.0
H635 H 0.91322 0.44197 0.17482 0.0
C636 C 0.18361 0.27173 0.76261 0.0
C637 C 0.20888 0.29155 0.74041 0.0
C638 C 0.1558 0.28903 0.76984 0.0
C639 C 0.15374 0.32714 0.75498 0.0
C640 C 0.17923 0.34705 0.73206 0.0
C641 C 0.20647 0.3289 0.72498 0.0
C642 C 0.129 0.26678 0.79391 0.0
C643 C 0.17812 0.38772 0.71577 0.0
C644 C 0.07311 0.37487 0.73816 0.0
C645 C 0.07616 0.39447 0.76904 0.0
C646 C 0.09695 0.35068 0.73484 0.0
C647 C 0.12492 0.3465 0.76273 0.0
C648 C 0.12693 0.36433 0.7955 0.0
C649 C 0.10228 0.38801 0.79844 0.0
C650 C 0.09343 0.33173 0.69989 0.0
C651 C 0.15642 0.36067 0.82579 0.0
H652 H 0.18614 0.24291 0.77496 0.0
H653 H 0.22659 0.34402 0.70849 0.0
H654 H 0.12789 0.27749 0.82131 0.0
H655 H 0.10409 0.26951 0.77741 0.0
H656 H 0.13361 0.23713 0.80183 0.0
H657 H 0.20003 0.39915 0.69879 0.0
H658 H 0.1549 0.39282 0.69631 0.0
H659 H 0.17756 0.40293 0.74012 0.0
H660 H 0.05277 0.37983 0.71545 0.0
H661 H 0.10483 0.4035 0.82206 0.0
H662 H 0.09814 0.30223 0.7092 0.0
H663 H 0.11234 0.34458 0.67907 0.0
H664 H 0.06814 0.33374 0.68408 0.0
H665 H 0.16148 0.33134 0.8358 0.0
H666 H 0.15233 0.37253 0.85174 0.0
H667 H 0.17916 0.37522 0.81243 0.0
C668 C 0.28234 0.74994 0.22875 0.0
C669 C 0.30625 0.73108 0.25501 0.0
C670 C 0.25299 0.73123 0.21491 0.0
C671 C 0.24745 0.6927 0.22774 0.0
C672 C 0.27286 0.67323 0.2519 0.0
C673 C 0.302 0.69271 0.26523 0.0
C674 C 0.2269 0.75309 0.18886 0.0
C675 C 0.26819 0.63217 0.26615 0.0
C676 C 0.15942 0.65035 0.24626 0.0
C677 C 0.15175 0.63074 0.21557 0.0
C678 C 0.18982 0.67178 0.24943 0.0
C679 C 0.21345 0.67374 0.22124 0.0
C680 C 0.20509 0.65579 0.1888 0.0
C681 C 0.17423 0.63449 0.18629 0.0
C682 C 0.19734 0.69075 0.28427 0.0
C683 C 0.22944 0.65741 0.15797 0.0
H684 H 0.28601 0.77961 0.22046 0.0
H685 H 0.32054 0.67824 0.28558 0.0
H686 H 0.21691 0.73909 0.16434 0.0
H687 H 0.20557 0.75515 0.20618 0.0
H688 H 0.23708 0.7814 0.17649 0.0
H689 H 0.29174 0.62057 0.28046 0.0
H690 H 0.24882 0.626 0.28772 0.0
H691 H 0.25925 0.61805 0.24139 0.0
H692 H 0.14209 0.64773 0.2689 0.0
H693 H 0.16862 0.61911 0.16272 0.0
H694 H 0.20483 0.72037 0.27429 0.0
H695 H 0.21868 0.67845 0.30329 0.0
H696 H 0.17553 0.68835 0.30224 0.0
H697 H 0.24006 0.68607 0.14827 0.0
H698 H 0.2175 0.6467 0.13192 0.0
H699 H 0.25063 0.64063 0.17066 0.0
C700 C 0.82367 0.79221 0.75022 0.0
C701 C 0.81316 0.75811 0.73994 0.0
C702 C 0.82886 0.82392 0.72139 0.0
C703 C 0.8239 0.82137 0.68116 0.0
C704 C 0.81536 0.78643 0.67068 0.0
C705 C 0.80998 0.75516 0.70028 0.0
C706 C 0.83809 0.86044 0.73403 0.0
C707 C 0.81044 0.78233 0.62822 0.0
C708 C 0.80173 0.90939 0.61011 0.0
C709 C 0.83311 0.92358 0.597 0.0
C710 C 0.79823 0.87574 0.63687 0.0
C711 C 0.82667 0.85553 0.65037 0.0
C712 C 0.85815 0.86916 0.63615 0.0
C713 C 0.86102 0.90303 0.60995 0.0
C714 C 0.76426 0.86233 0.65159 0.0
C715 C 0.889 0.84834 0.64925 0.0
H716 H 0.8263 0.79424 0.78099 0.0
H717 H 0.80158 0.72878 0.69245 0.0
H718 H 0.86116 0.87392 0.72064 0.0
H719 H 0.81774 0.87904 0.72356 0.0
H720 H 0.84228 0.85749 0.76645 0.0
H721 H 0.80709 0.753 0.62503 0.0
H722 H 0.78795 0.79619 0.61403 0.0
H723 H 0.83221 0.79587 0.61213 0.0
H724 H 0.78006 0.92503 0.60028 0.0
H725 H 0.88535 0.91349 0.59966 0.0
H726 H 0.76531 0.861 0.6838 0.0
H727 H 0.75708 0.83407 0.64619 0.0
H728 H 0.74442 0.88049 0.6373 0.0
H729 H 0.89532 0.84722 0.68114 0.0
H730 H 0.91107 0.86125 0.63326 0.0
H731 H 0.88414 0.81953 0.64464 0.0
C732 C 0.73545 0.34938 0.18277 0.0
C733 C 0.75663 0.3227 0.17896 0.0
C734 C 0.70549 0.35397 0.15879 0.0
C735 C 0.69701 0.33151 0.13026 0.0
C736 C 0.71923 0.30556 0.12539 0.0
C737 C 0.74872 0.30132 0.15008 0.0
C738 C 0.68231 0.3816 0.16511 0.0
C739 C 0.71131 0.28136 0.09503 0.0
C740 C 0.60814 0.3021 0.09788 0.0
C741 C 0.60461 0.32265 0.05968 0.0
C742 C 0.63723 0.30686 0.12235 0.0
C743 C 0.66368 0.33231 0.10791 0.0
C744 C 0.65935 0.35493 0.07029 0.0
C745 C 0.62959 0.35002 0.04662 0.0
C746 C 0.64055 0.28272 0.16258 0.0
C747 C 0.68708 0.3822 0.05383 0.0
H748 H 0.74194 0.36574 0.20536 0.0
H749 H 0.76554 0.28096 0.14731 0.0
H750 H 0.67455 0.39927 0.13676 0.0
H751 H 0.65923 0.36688 0.17744 0.0
H752 H 0.69412 0.39944 0.18557 0.0
H753 H 0.73251 0.2649 0.09283 0.0
H754 H 0.68906 0.26216 0.10277 0.0
H755 H 0.70508 0.29836 0.06576 0.0
H756 H 0.58863 0.28113 0.10807 0.0
H757 H 0.62692 0.36575 0.01695 0.0
H758 H 0.6502 0.29938 0.18501 0.0
H759 H 0.65883 0.26207 0.16277 0.0
H760 H 0.61629 0.26787 0.17124 0.0
H761 H 0.69829 0.39846 0.07601 0.0
H762 H 0.67807 0.40139 0.02707 0.0
H763 H 0.70726 0.36709 0.04608 0.0
C764 C 0.30064 0.23873 0.65645 0.0
C765 C 0.297 0.22643 0.69658 0.0
C766 C 0.31388 0.21657 0.63411 0.0
C767 C 0.32362 0.1812 0.65241 0.0
C768 C 0.32198 0.16975 0.69354 0.0
C769 C 0.30866 0.19254 0.71512 0.0
C770 C 0.31535 0.23005 0.59048 0.0
C771 C 0.332 0.13234 0.71433 0.0
C772 C 0.30753 0.10619 0.59166 0.0
C773 C 0.33978 0.10119 0.58204 0.0
C774 C 0.30222 0.13208 0.61429 0.0
C775 C 0.32979 0.15403 0.62786 0.0
C776 C 0.36249 0.14962 0.61809 0.0
C777 C 0.36714 0.12317 0.59528 0.0
C778 C 0.26689 0.13569 0.62393 0.0
C779 C 0.39246 0.17267 0.63191 0.0
H780 H 0.29216 0.2653 0.64239 0.0
H781 H 0.30579 0.18312 0.74618 0.0
H782 H 0.33973 0.22487 0.58089 0.0
H783 H 0.29539 0.21471 0.57452 0.0
H784 H 0.31172 0.25991 0.58182 0.0
H785 H 0.33403 0.12981 0.74678 0.0
H786 H 0.31295 0.11086 0.70636 0.0
H787 H 0.35634 0.1267 0.70503 0.0
H788 H 0.28606 0.08956 0.58166 0.0
H789 H 0.39212 0.11956 0.58807 0.0
H790 H 0.25987 0.16424 0.61279 0.0
H791 H 0.26542 0.12997 0.65623 0.0
H792 H 0.24817 0.11655 0.61103 0.0
H793 H 0.38882 0.20233 0.62155 0.0
H794 H 0.41611 0.16648 0.62126 0.0
H795 H 0.39506 0.16777 0.66447 0.0
C796 C 0.37852 0.73176 0.21486 0.0
C797 C 0.38147 0.72439 0.25591 0.0
C798 C 0.4006 0.71767 0.19353 0.0
C799 C 0.42628 0.69602 0.21396 0.0
C800 C 0.42709 0.68564 0.25535 0.0
C801 C 0.40449 0.69985 0.27581 0.0
C802 C 0.39841 0.72885 0.14939 0.0
C803 C 0.45383 0.66256 0.27837 0.0
C804 C 0.4832 0.65534 0.15435 0.0
C805 C 0.50907 0.68349 0.14842 0.0
C806 C 0.45621 0.65847 0.17629 0.0
C807 C 0.45545 0.69024 0.19297 0.0
C808 C 0.4824 0.7178 0.18857 0.0
C809 C 0.50868 0.71418 0.16619 0.0
C810 C 0.42787 0.62864 0.18014 0.0
C811 C 0.48302 0.75182 0.20646 0.0
H812 H 0.36066 0.75077 0.19961 0.0
H813 H 0.40626 0.69385 0.30763 0.0
H814 H 0.41884 0.7503 0.14062 0.0
H815 H 0.40169 0.70507 0.13553 0.0
H816 H 0.37407 0.74014 0.13772 0.0
H817 H 0.44753 0.65159 0.30908 0.0
H818 H 0.45764 0.63919 0.26414 0.0
H819 H 0.47794 0.67971 0.2792 0.0
H820 H 0.48322 0.63173 0.14032 0.0
H821 H 0.52872 0.73591 0.1619 0.0
H822 H 0.40509 0.63936 0.16288 0.0
H823 H 0.42171 0.62028 0.21118 0.0
H824 H 0.43393 0.60394 0.1694 0.0
H825 H 0.46167 0.76812 0.19317 0.0
H826 H 0.50662 0.76971 0.20199 0.0
H827 H 0.48014 0.74394 0.23846 0.0
C828 C 0.83727 0.26976 0.32074 0.0
C829 C 0.83698 0.26314 0.28252 0.0
C830 C 0.84081 0.24097 0.3534 0.0
C831 C 0.84428 0.20484 0.34747 0.0
C832 C 0.84631 0.19874 0.30886 0.0
C833 C 0.84251 0.22798 0.27687 0.0
C834 C 0.83864 0.24876 0.39399 0.0
C835 C 0.85042 0.16088 0.30112 0.0
C836 C 0.87364 0.13095 0.43255 0.0
C837 C 0.84342 0.11049 0.44272 0.0
C838 C 0.87424 0.16195 0.40212 0.0
C839 C 0.8439 0.17305 0.38121 0.0
C840 C 0.81323 0.15295 0.39165 0.0
C841 C 0.81334 0.1219 0.42223 0.0
C842 C 0.90747 0.18245 0.3919 0.0
C843 C 0.78029 0.16399 0.37012 0.0
H844 H 0.83233 0.29689 0.32483 0.0
H845 H 0.84181 0.22303 0.24713 0.0
H846 H 0.8149 0.23533 0.40579 0.0
H847 H 0.85954 0.23705 0.41424 0.0
H848 H 0.83931 0.27872 0.39397 0.0
H849 H 0.85457 0.1614 0.26991 0.0
H850 H 0.87185 0.14861 0.31994 0.0
H851 H 0.82759 0.14257 0.30866 0.0
H852 H 0.8971 0.12253 0.44812 0.0
H853 H 0.7899 0.1064 0.42983 0.0
H854 H 0.90692 0.21197 0.39326 0.0
H855 H 0.91214 0.181 0.36136 0.0
H856 H 0.92873 0.17111 0.41189 0.0
H857 H 0.77686 0.19302 0.37138 0.0
H858 H 0.75855 0.14629 0.38254 0.0
H859 H 0.78038 0.16223 0.33869 0.0
C860 C 0.35221 0.26891 0.75235 0.0
C861 C 0.32387 0.25289 0.77151 0.0
C862 C 0.38356 0.27185 0.7735 0.0
C863 C 0.38609 0.2591 0.81468 0.0
C864 C 0.35787 0.24055 0.83346 0.0
C865 C 0.32719 0.23721 0.81142 0.0
C866 C 0.41335 0.29061 0.75222 0.0
C867 C 0.35936 0.22667 0.87731 0.0
C868 C 0.46667 0.24806 0.87984 0.0
C869 C 0.46928 0.28015 0.89584 0.0
C870 C 0.44105 0.24198 0.85108 0.0
C871 C 0.41694 0.26811 0.83903 0.0
C872 C 0.4203 0.30128 0.85392 0.0
C873 C 0.44677 0.30712 0.88183 0.0
C874 C 0.43893 0.20689 0.83494 0.0
C875 C 0.39477 0.32958 0.84221 0.0
H876 H 0.34941 0.28096 0.72139 0.0
H877 H 0.30513 0.22433 0.82577 0.0
H878 H 0.41853 0.31886 0.75843 0.0
H879 H 0.43608 0.27561 0.76261 0.0
H880 H 0.40886 0.29262 0.71993 0.0
H881 H 0.33563 0.21113 0.88691 0.0
H882 H 0.38017 0.20854 0.88667 0.0
H883 H 0.36435 0.25032 0.89275 0.0
H884 H 0.48442 0.2274 0.89027 0.0
H885 H 0.44876 0.33191 0.89423 0.0
H886 H 0.43387 0.21274 0.80253 0.0
H887 H 0.41785 0.18805 0.84723 0.0
H888 H 0.46233 0.19245 0.84242 0.0
H889 H 0.39157 0.33766 0.80979 0.0
H890 H 0.40196 0.35472 0.85483 0.0
H891 H 0.37008 0.31752 0.85243 0.0
C892 C 0.37524 0.85163 0.32241 0.0
C893 C 0.36549 0.81505 0.33831 0.0
C894 C 0.37984 0.87857 0.34612 0.0
C895 C 0.3744 0.86851 0.3866 0.0
C896 C 0.36594 0.83107 0.40295 0.0
C897 C 0.36153 0.80478 0.3785 0.0
C898 C 0.38875 0.91807 0.32743 0.0
C899 C 0.35978 0.81911 0.44583 0.0
C900 C 0.39732 0.93653 0.45635 0.0
C901 C 0.36609 0.94994 0.45785 0.0
C902 C 0.40076 0.91024 0.43291 0.0
C903 C 0.37239 0.89753 0.41033 0.0
C904 C 0.34115 0.9119 0.411 0.0
C905 C 0.33843 0.93772 0.43465 0.0
C906 C 0.43446 0.89551 0.43287 0.0
C907 C 0.31028 0.89955 0.38718 0.0
H908 H 0.37839 0.85916 0.29122 0.0
H909 H 0.35415 0.77627 0.39044 0.0
H910 H 0.36679 0.93436 0.32633 0.0
H911 H 0.40949 0.9304 0.34521 0.0
H912 H 0.39628 0.92063 0.29706 0.0
H913 H 0.3573 0.78866 0.45487 0.0
H914 H 0.38051 0.83042 0.46445 0.0
H915 H 0.33635 0.83007 0.45158 0.0
H916 H 0.41878 0.94586 0.47412 0.0
H917 H 0.31424 0.94831 0.435 0.0
H918 H 0.44176 0.89892 0.40235 0.0
H919 H 0.43292 0.86559 0.44529 0.0
H920 H 0.4544 0.90949 0.4503 0.0
H921 H 0.31505 0.90434 0.35565 0.0
H922 H 0.28807 0.91418 0.39017 0.0
H923 H 0.30415 0.86956 0.39673 0.0
C924 C 0.74952 0.70437 0.87738 0.0
C925 C 0.74587 0.68643 0.84535 0.0
C926 C 0.72642 0.69653 0.90621 0.0
C927 C 0.69878 0.67046 0.90246 0.0
C928 C 0.69556 0.6515 0.87058 0.0
C929 C 0.71936 0.65963 0.84241 0.0
C930 C 0.73098 0.71711 0.93993 0.0
C931 C 0.66629 0.62388 0.86531 0.0
C932 C 0.64985 0.64068 0.99327 0.0
C933 C 0.62619 0.66702 0.98626 0.0
C934 C 0.67293 0.64018 0.9654 0.0
C935 C 0.67169 0.6662 0.92969 0.0
C936 C 0.64619 0.69102 0.92153 0.0
C937 C 0.624 0.69135 0.95008 0.0
C938 C 0.69993 0.61352 0.97523 0.0
C939 C 0.64352 0.71873 0.88355 0.0
H940 H 0.77039 0.72479 0.87951 0.0
H941 H 0.71685 0.64589 0.81743 0.0
H942 H 0.71052 0.73569 0.93753 0.0
H943 H 0.72952 0.69753 0.9683 0.0
H944 H 0.75535 0.7339 0.94046 0.0
H945 H 0.66921 0.60895 0.84127 0.0
H946 H 0.66328 0.60353 0.8929 0.0
H947 H 0.64287 0.63826 0.85838 0.0
H948 H 0.65164 0.62205 0.0214 0.0
H949 H 0.60545 0.71153 0.94457 0.0
H950 H 0.72439 0.6288 0.98104 0.0
H951 H 0.70233 0.59983 0.95014 0.0
H952 H 0.69491 0.5921 1.00157 0.0
H953 H 0.66527 0.73953 0.88282 0.0
H954 H 0.62018 0.73326 0.88003 0.0
H955 H 0.64412 0.705 0.85807 0.0
loop_
_geom_bond_atom_site_label_1
_geom_bond_atom_site_label_2
_geom_bond_distance
_geom_bond_site_symmetry_2
_ccdc_geom_bond_type
C0 N1 1.317 . S
C0 N2 1.348 . S
C0 C3 1.485 . S
N1 C0 1.317 . S
N1 N5 1.370 . S
N2 C0 1.348 . S
N2 C4 1.346 . S
C3 C0 1.485 . S
C3 H7 0.960 . S
C3 H8 0.961 . S
C3 H9 0.960 . S
C4 N2 1.346 . S
C4 N5 1.307 . S
C4 C6 1.486 . S
N5 N1 1.370 . S
N5 C4 1.307 . S
C6 C4 1.486 . S
C6 H10 0.960 . S
C6 H11 0.960 . S
C6 H12 0.959 . S
H7 C3 0.960 . S
H8 C3 0.961 . S
H9 C3 0.960 . S
H10 C6 0.960 . S
H11 C6 0.960 . S
H12 C6 0.959 . S
C13 N14 1.317 . S
C13 N15 1.348 . S
C13 C16 1.485 . S
N14 C13 1.317 . S
N14 N18 1.370 . S
N15 C13 1.348 . S
N15 C17 1.346 . S
C16 C13 1.485 . S
C16 H20 0.960 . S
C16 H21 0.961 . S
C16 H22 0.960 . S
C17 N15 1.346 . S
C17 N18 1.307 . S
C17 C19 1.486 . S
N18 N14 1.370 . S
N18 C17 1.307 . S
C19 C17 1.486 . S
C19 H23 0.960 . S
C19 H24 0.960 . S
C19 H25 0.959 . S
H20 C16 0.960 . S
H21 C16 0.961 . S
H22 C16 0.960 . S
H23 C19 0.960 . S
H24 C19 0.960 . S
H25 C19 0.959 . S
C26 N27 1.317 . S
C26 N28 1.348 . S
C26 C29 1.485 . S
N27 C26 1.317 . S
N27 N31 1.370 . S
N28 C26 1.348 . S
N28 C30 1.346 . S
C29 C26 1.485 . S
C29 H33 0.960 . S
C29 H34 0.961 . S
C29 H35 0.960 . S
C30 N28 1.346 . S
C30 N31 1.307 . S
C30 C32 1.486 . S
N31 N27 1.370 . S
N31 C30 1.307 . S
C32 C30 1.486 . S
C32 H36 0.960 . S
C32 H37 0.960 . S
C32 H38 0.959 . S
H33 C29 0.960 . S
H34 C29 0.961 . S
H35 C29 0.960 . S
H36 C32 0.960 . S
H37 C32 0.960 . S
H38 C32 0.959 . S
C39 N40 1.317 . S
C39 N41 1.348 . S
C39 C42 1.485 . S
N40 C39 1.317 . S
N40 N44 1.370 . S
N41 C39 1.348 . S
N41 C43 1.346 . S
C42 C39 1.485 . S
C42 H46 0.960 . S
C42 H47 0.961 . S
C42 H48 0.960 . S
C43 N41 1.346 . S
C43 N44 1.307 . S
C43 C45 1.486 . S
N44 N40 1.370 . S
N44 C43 1.307 . S
C45 C43 1.486 . S
C45 H49 0.960 . S
C45 H50 0.960 . S
C45 H51 0.959 . S
H46 C42 0.960 . S
H47 C42 0.961 . S
H48 C42 0.960 . S
H49 C45 0.960 . S
H50 C45 0.960 . S
H51 C45 0.959 . S
C52 N53 1.317 . S
C52 N54 1.348 . S
C52 C55 1.485 . S
N53 C52 1.317 . S
N53 N57 1.370 . S
N54 C52 1.348 . S
N54 C56 1.346 . S
C55 C52 1.485 . S
C55 H59 0.960 . S
C55 H60 0.961 . S
C55 H61 0.960 . S
C56 N54 1.346 . S
C56 N57 1.307 . S
C56 C58 1.486 . S
N57 N53 1.370 . S
N57 C56 1.307 . S
C58 C56 1.486 . S
C58 H62 0.960 . S
C58 H63 0.960 . S
C58 H64 0.959 . S
H59 C55 0.960 . S
H60 C55 0.961 . S
H61 C55 0.960 . S
H62 C58 0.960 . S
H63 C58 0.960 . S
H64 C58 0.959 . S
C65 N66 1.317 . S
C65 N67 1.348 . S
C65 C68 1.485 . S
N66 C65 1.317 . S
N66 N70 1.370 . S
N67 C65 1.348 . S
N67 C69 1.346 . S
C68 C65 1.485 . S
C68 H72 0.960 . S
C68 H73 0.961 . S
C68 H74 0.960 . S
C69 N67 1.346 . S
C69 N70 1.307 . S
C69 C71 1.486 . S
N70 N66 1.370 . S
N70 C69 1.307 . S
C71 C69 1.486 . S
C71 H75 0.960 . S
C71 H76 0.960 . S
C71 H77 0.959 . S
H72 C68 0.960 . S
H73 C68 0.961 . S
H74 C68 0.960 . S
H75 C71 0.960 . S
H76 C71 0.960 . S
H77 C71 0.959 . S
C78 N79 1.317 . S
C78 N80 1.348 . S
C78 C81 1.485 . S
N79 C78 1.317 . S
N79 N83 1.370 . S
N80 C78 1.348 . S
N80 C82 1.346 . S
C81 C78 1.485 . S
C81 H85 0.960 . S
C81 H86 0.961 . S
C81 H87 0.960 . S
C82 N80 1.346 . S
C82 N83 1.307 . S
C82 C84 1.486 . S
N83 N79 1.370 . S
N83 C82 1.307 . S
C84 C82 1.486 . S
C84 H88 0.960 . S
C84 H89 0.960 . S
C84 H90 0.959 . S
H85 C81 0.960 . S
H86 C81 0.961 . S
H87 C81 0.960 . S
H88 C84 0.960 . S
H89 C84 0.960 . S
H90 C84 0.959 . S
C91 N92 1.317 . S
C91 N93 1.348 . S
C91 C94 1.485 . S
N92 C91 1.317 . S
N92 N96 1.370 . S
N93 C91 1.348 . S
N93 C95 1.346 . S
C94 C91 1.485 . S
C94 H98 0.960 . S
C94 H99 0.961 . S
C94 H100 0.960 . S
C95 N93 1.346 . S
C95 N96 1.307 . S
C95 C97 1.486 . S
N96 N92 1.370 . S
N96 C95 1.307 . S
C97 C95 1.486 . S
C97 H101 0.960 . S
C97 H102 0.960 . S
C97 H103 0.959 . S
H98 C94 0.960 . S
H99 C94 0.961 . S
H100 C94 0.960 . S
H101 C97 0.960 . S
H102 C97 0.960 . S
H103 C97 0.959 . S
C104 O106 1.247 . S
C104 O108 1.258 . S
C105 O112 1.247 . S
C105 O113 1.258 . S
O106 C104 1.247 . S
O106 Zn107 2.028 . S
Zn107 O106 2.028 . S
Zn107 O111 2.035 . S
Zn107 O113 2.035 . S
Zn107 O114 2.028 . S
O108 C104 1.258 . S
O108 Zn109 2.035 . S
Zn109 O108 2.035 . S
Zn109 O110 2.028 . S
Zn109 O112 2.028 . S
Zn109 O115 2.035 . S
O110 Zn109 2.028 . S
O110 C116 1.247 . S
O111 Zn107 2.035 . S
O111 C116 1.258 . S
O112 C105 1.247 . S
O112 Zn109 2.028 . S
O113 C105 1.258 . S
O113 Zn107 2.035 . S
O114 Zn107 2.028 . S
O114 C117 1.247 . S
O115 Zn109 2.035 . S
O115 C117 1.258 . S
C116 O110 1.247 . S
C116 O111 1.258 . S
C117 O114 1.247 . S
C117 O115 1.258 . S
C118 O120 1.247 . S
C118 O122 1.258 . S
C119 O126 1.247 . S
C119 O127 1.258 . S
O120 C118 1.247 . S
O120 Zn121 2.028 1_655 S
Zn121 O120 2.028 1_455 S
Zn121 O125 2.035 . S
Zn121 O127 2.035 . S
Zn121 O128 2.028 1_455 S
O122 C118 1.258 . S
O122 Zn123 2.035 1_655 S
Zn123 O122 2.035 1_455 S
Zn123 O124 2.028 . S
Zn123 O126 2.028 . S
Zn123 O129 2.035 1_455 S
O124 Zn123 2.028 . S
O124 C130 1.247 . S
O125 Zn121 2.035 . S
O125 C130 1.258 . S
O126 C119 1.247 . S
O126 Zn123 2.028 . S
O127 C119 1.258 . S
O127 Zn121 2.035 . S
O128 Zn121 2.028 1_655 S
O128 C131 1.247 . S
O129 Zn123 2.035 1_655 S
O129 C131 1.258 . S
C130 O124 1.247 . S
C130 O125 1.258 . S
C131 O128 1.247 . S
C131 O129 1.258 . S
C132 O134 1.247 . S
C132 O136 1.258 . S
C133 O140 1.247 . S
C133 O141 1.258 . S
O134 C132 1.247 . S
O134 Zn135 2.028 1_565 S
Zn135 O134 2.028 1_545 S
Zn135 O139 2.035 . S
Zn135 O141 2.035 . S
Zn135 O142 2.028 1_545 S
O136 C132 1.258 . S
O136 Zn137 2.035 1_565 S
Zn137 O136 2.035 1_545 S
Zn137 O138 2.028 . S
Zn137 O140 2.028 . S
Zn137 O143 2.035 1_545 S
O138 Zn137 2.028 . S
O138 C144 1.247 . S
O139 Zn135 2.035 . S
O139 C144 1.258 . S
O140 C133 1.247 . S
O140 Zn137 2.028 . S
O141 C133 1.258 . S
O141 Zn135 2.035 . S
O142 Zn135 2.028 1_565 S
O142 C145 1.247 . S
O143 Zn137 2.035 1_565 S
O143 C145 1.258 . S
C144 O138 1.247 . S
C144 O139 1.258 . S
C145 O142 1.247 . S
C145 O143 1.258 . S
C146 O148 1.247 . S
C146 O150 1.258 . S
C147 O154 1.247 . S
C147 O155 1.258 . S
O148 C146 1.247 . S
O148 Zn149 2.028 . S
Zn149 O148 2.028 . S
Zn149 O153 2.035 . S
Zn149 O155 2.035 . S
Zn149 O156 2.028 . S
O150 C146 1.258 . S
O150 Zn151 2.035 . S
Zn151 O150 2.035 . S
Zn151 O152 2.028 . S
Zn151 O154 2.028 . S
Zn151 O157 2.035 . S
O152 Zn151 2.028 . S
O152 C158 1.247 . S
O153 Zn149 2.035 . S
O153 C158 1.258 . S
O154 C147 1.247 . S
O154 Zn151 2.028 . S
O155 C147 1.258 . S
O155 Zn149 2.035 . S
O156 Zn149 2.028 . S
O156 C159 1.247 . S
O157 Zn151 2.035 . S
O157 C159 1.258 . S
C158 O152 1.247 . S
C158 O153 1.258 . S
C159 O156 1.247 . S
C159 O157 1.258 . S
C160 O162 1.247 . S
C160 O164 1.258 . S
C161 O168 1.247 . S
C161 O169 1.258 . S
O162 C160 1.247 . S
O162 Zn163 2.028 1_565 S
Zn163 O162 2.028 1_545 S
Zn163 O167 2.035 . S
Zn163 O169 2.035 . S
Zn163 O170 2.028 1_545 S
O164 C160 1.258 . S
O164 Zn165 2.035 1_565 S
Zn165 O164 2.035 1_545 S
Zn165 O166 2.028 . S
Zn165 O168 2.028 . S
Zn165 O171 2.050 . S
O166 Zn165 2.028 . S
O166 C172 1.247 . S
O167 Zn163 2.035 . S
O167 C172 1.258 . S
O168 C161 1.247 . S
O168 Zn165 2.028 . S
O169 C161 1.258 . S
O169 Zn163 2.035 . S
O170 Zn163 2.028 1_565 S
O170 C173 1.247 . S
O171 Zn165 2.050 . S
O171 C173 1.249 1_545 S
C172 O166 1.247 . S
C172 O167 1.258 . S
C173 O170 1.247 . S
C173 O171 1.249 1_565 S
C174 O176 1.247 . S
C174 O178 1.258 . S
C175 O182 1.247 . S
C175 O183 1.258 . S
O176 C174 1.247 . S
O176 Zn177 2.028 . S
Zn177 O176 2.028 . S
Zn177 O181 2.035 . S
Zn177 O183 2.035 1_554 S
Zn177 O184 2.028 1_554 S
O178 C174 1.258 . S
O178 Zn179 2.035 1_554 S
Zn179 O178 2.035 1_556 S
Zn179 O180 2.028 1_556 S
Zn179 O182 2.028 . S
Zn179 O185 2.035 . S
O180 Zn179 2.028 1_554 S
O180 C186 1.247 . S
O181 Zn177 2.035 . S
O181 C186 1.258 . S
O182 C175 1.247 . S
O182 Zn179 2.028 . S
O183 C175 1.258 . S
O183 Zn177 2.035 1_556 S
O184 Zn177 2.028 1_556 S
O184 C187 1.247 . S
O185 Zn179 2.035 . S
O185 C187 1.258 . S
C186 O180 1.247 . S
C186 O181 1.258 . S
C187 O184 1.247 . S
C187 O185 1.258 . S
C188 C189 1.391 . S
C188 C190 1.394 . S
C188 H204 0.931 . S
C189 C188 1.391 . S
C189 C193 1.376 . S
C190 C188 1.394 . S
C190 C191 1.369 . S
C190 C194 1.531 . S
C191 C190 1.369 . S
C191 C192 1.410 . S
C191 C199 1.503 . S
C192 C191 1.410 . S
C192 C193 1.392 . S
C192 C195 1.511 . S
C193 C189 1.376 . S
C193 C192 1.392 . S
C193 H205 0.929 . S
C194 C190 1.531 . S
C194 H206 0.960 . S
C194 H207 0.962 . S
C194 H208 0.960 . S
C195 C192 1.511 . S
C195 H209 0.961 . S
C195 H210 0.961 . S
C195 H211 0.961 . S
C196 C197 1.370 . S
C196 C198 1.363 . S
C196 H212 0.931 . S
C197 C196 1.370 . S
C197 C201 1.408 . S
C198 C196 1.363 . S
C198 C199 1.370 . S
C198 C202 1.524 . S
C199 C191 1.503 . S
C199 C198 1.370 . S
C199 C200 1.403 . S
C200 C199 1.403 . S
C200 C201 1.404 . S
C200 C203 1.539 . S
C201 C197 1.408 . S
C201 C200 1.404 . S
C201 H213 0.930 . S
C202 C198 1.524 . S
C202 H214 0.956 . S
C202 H215 0.961 . S
C202 H216 0.961 . S
C203 C200 1.539 . S
C203 H217 0.958 . S
C203 H218 0.961 . S
C203 H219 0.960 . S
H204 C188 0.931 . S
H205 C193 0.929 . S
H206 C194 0.960 . S
H207 C194 0.962 . S
H208 C194 0.960 . S
H209 C195 0.961 . S
H210 C195 0.961 . S
H211 C195 0.961 . S
H212 C196 0.931 . S
H213 C201 0.930 . S
H214 C202 0.956 . S
H215 C202 0.961 . S
H216 C202 0.961 . S
H217 C203 0.958 . S
H218 C203 0.961 . S
H219 C203 0.960 . S
C220 C221 1.391 . S
C220 C222 1.394 . S
C220 H236 0.931 . S
C221 C220 1.391 . S
C221 C225 1.376 . S
C222 C220 1.394 . S
C222 C223 1.369 . S
C222 C226 1.531 . S
C223 C222 1.369 . S
C223 C224 1.410 . S
C223 C231 1.503 . S
C224 C223 1.410 . S
C224 C225 1.392 . S
C224 C227 1.511 . S
C225 C221 1.376 . S
C225 C224 1.392 . S
C225 H237 0.929 . S
C226 C222 1.531 . S
C226 H238 0.960 . S
C226 H239 0.962 . S
C226 H240 0.960 . S
C227 C224 1.511 . S
C227 H241 0.961 . S
C227 H242 0.961 . S
C227 H243 0.961 . S
C228 C229 1.370 . S
C228 C230 1.363 . S
C228 H244 0.931 . S
C229 C228 1.370 . S
C229 C233 1.408 . S
C230 C228 1.363 . S
C230 C231 1.370 . S
C230 C234 1.524 . S
C231 C223 1.503 . S
C231 C230 1.370 . S
C231 C232 1.403 . S
C232 C231 1.403 . S
C232 C233 1.404 . S
C232 C235 1.539 . S
C233 C229 1.408 . S
C233 C232 1.404 . S
C233 H245 0.930 . S
C234 C230 1.524 . S
C234 H246 0.956 . S
C234 H247 0.961 . S
C234 H248 0.961 . S
C235 C232 1.539 . S
C235 H249 0.958 . S
C235 H250 0.961 . S
C235 H251 0.960 . S
H236 C220 0.931 . S
H237 C225 0.929 . S
H238 C226 0.960 . S
H239 C226 0.962 . S
H240 C226 0.960 . S
H241 C227 0.961 . S
H242 C227 0.961 . S
H243 C227 0.961 . S
H244 C228 0.931 . S
H245 C233 0.930 . S
H246 C234 0.956 . S
H247 C234 0.961 . S
H248 C234 0.961 . S
H249 C235 0.958 . S
H250 C235 0.961 . S
H251 C235 0.960 . S
C252 C253 1.391 . S
C252 C254 1.394 . S
C252 H268 0.931 . S
C253 C252 1.391 . S
C253 C257 1.376 . S
C254 C252 1.394 . S
C254 C255 1.369 . S
C254 C258 1.531 . S
C255 C254 1.369 . S
C255 C256 1.410 . S
C255 C263 1.503 . S
C256 C255 1.410 . S
C256 C257 1.392 . S
C256 C259 1.511 . S
C257 C253 1.376 . S
C257 C256 1.392 . S
C257 H269 0.929 . S
C258 C254 1.531 . S
C258 H270 0.960 . S
C258 H271 0.962 . S
C258 H272 0.960 . S
C259 C256 1.511 . S
C259 H273 0.961 . S
C259 H274 0.961 . S
C259 H275 0.961 . S
C260 C261 1.370 . S
C260 C262 1.363 . S
C260 H276 0.931 1_655 S
C261 C260 1.370 . S
C261 C265 1.408 . S
C262 C260 1.363 . S
C262 C263 1.370 . S
C262 C266 1.524 . S
C263 C255 1.503 . S
C263 C262 1.370 . S
C263 C264 1.403 . S
C264 C263 1.403 . S
C264 C265 1.404 . S
C264 C267 1.539 . S
C265 C261 1.408 . S
C265 C264 1.404 . S
C265 H277 0.930 . S
C266 C262 1.524 . S
C266 H278 0.956 . S
C266 H279 0.961 . S
C266 H280 0.959 1_655 S
C267 C264 1.539 . S
C267 H281 0.958 . S
C267 H282 0.961 . S
C267 H283 0.960 . S
H268 C252 0.931 . S
H269 C257 0.929 . S
H270 C258 0.960 . S
H271 C258 0.962 . S
H272 C258 0.960 . S
H273 C259 0.961 . S
H274 C259 0.961 . S
H275 C259 0.961 . S
H276 C260 0.931 1_455 S
H277 C265 0.930 . S
H278 C266 0.956 . S
H279 C266 0.961 . S
H280 C266 0.959 1_455 S
H281 C267 0.958 . S
H282 C267 0.961 . S
H283 C267 0.960 . S
C284 C285 1.391 . S
C284 C286 1.394 . S
C284 H300 0.931 . S
C285 C284 1.391 . S
C285 C289 1.376 . S
C286 C284 1.394 . S
C286 C287 1.369 . S
C286 C290 1.531 . S
C287 C286 1.369 . S
C287 C288 1.410 . S
C287 C295 1.503 . S
C288 C287 1.410 . S
C288 C289 1.392 . S
C288 C291 1.511 . S
C289 C285 1.376 . S
C289 C288 1.392 . S
C289 H301 0.929 . S
C290 C286 1.531 . S
C290 H302 0.960 . S
C290 H303 0.962 . S
C290 H304 0.960 . S
C291 C288 1.511 . S
C291 H305 0.961 . S
C291 H306 0.961 . S
C291 H307 0.961 . S
C292 C293 1.370 . S
C292 C294 1.363 . S
C292 H308 0.931 . S
C293 C292 1.370 . S
C293 C297 1.408 . S
C294 C292 1.363 . S
C294 C295 1.370 . S
C294 C298 1.524 . S
C295 C287 1.503 . S
C295 C294 1.370 . S
C295 C296 1.403 . S
C296 C295 1.403 . S
C296 C297 1.404 . S
C296 C299 1.539 . S
C297 C293 1.408 . S
C297 C296 1.404 . S
C297 H309 0.930 . S
C298 C294 1.524 . S
C298 H310 0.956 . S
C298 H311 0.961 . S
C298 H312 0.961 . S
C299 C296 1.539 . S
C299 H313 0.958 . S
C299 H314 0.961 . S
C299 H315 0.960 . S
H300 C284 0.931 . S
H301 C289 0.929 . S
H302 C290 0.960 . S
H303 C290 0.962 . S
H304 C290 0.960 . S
H305 C291 0.961 . S
H306 C291 0.961 . S
H307 C291 0.961 . S
H308 C292 0.931 . S
H309 C297 0.930 . S
H310 C298 0.956 . S
H311 C298 0.961 . S
H312 C298 0.961 . S
H313 C299 0.958 . S
H314 C299 0.961 . S
H315 C299 0.960 . S
C316 C317 1.391 . S
C316 C318 1.394 . S
C316 H332 0.931 . S
C317 C316 1.391 . S
C317 C321 1.376 . S
C318 C316 1.394 . S
C318 C319 1.369 . S
C318 C322 1.531 . S
C319 C318 1.369 . S
C319 C320 1.410 . S
C319 C327 1.503 . S
C320 C319 1.410 . S
C320 C321 1.392 . S
C320 C323 1.511 . S
C321 C317 1.376 . S
C321 C320 1.392 . S
C321 H333 0.929 . S
C322 C318 1.531 . S
C322 H334 0.960 . S
C322 H335 0.962 . S
C322 H336 0.960 . S
C323 C320 1.511 . S
C323 H337 0.961 . S
C323 H338 0.961 . S
C323 H339 0.961 . S
C324 C325 1.370 . S
C324 C326 1.363 . S
C324 H340 0.931 . S
C325 C324 1.370 . S
C325 C329 1.408 . S
C326 C324 1.363 . S
C326 C327 1.370 . S
C326 C330 1.524 . S
C327 C319 1.503 . S
C327 C326 1.370 . S
C327 C328 1.403 . S
C328 C327 1.403 . S
C328 C329 1.404 . S
C328 C331 1.539 . S
C329 C325 1.408 . S
C329 C328 1.404 . S
C329 H341 0.930 . S
C330 C326 1.524 . S
C330 H342 0.956 . S
C330 H343 0.961 . S
C330 H344 0.961 . S
C331 C328 1.539 . S
C331 H345 0.958 . S
C331 H346 0.961 . S
C331 H347 0.960 . S
H332 C316 0.931 . S
H333 C321 0.929 . S
H334 C322 0.960 . S
H335 C322 0.962 . S
H336 C322 0.960 . S
H337 C323 0.961 . S
H338 C323 0.961 . S
H339 C323 0.961 . S
H340 C324 0.931 . S
H341 C329 0.930 . S
H342 C330 0.956 . S
H343 C330 0.961 . S
H344 C330 0.961 . S
H345 C331 0.958 . S
H346 C331 0.961 . S
H347 C331 0.960 . S
C348 C349 1.391 . S
C348 C350 1.394 . S
C348 H364 0.931 . S
C349 C348 1.391 . S
C349 C353 1.376 . S
C350 C348 1.394 . S
C350 C351 1.369 . S
C350 C354 1.531 . S
C351 C350 1.369 . S
C351 C352 1.410 . S
C351 C359 1.503 . S
C352 C351 1.410 . S
C352 C353 1.392 . S
C352 C355 1.511 . S
C353 C349 1.376 . S
C353 C352 1.392 . S
C353 H365 0.929 . S
C354 C350 1.531 . S
C354 H366 0.960 . S
C354 H367 0.962 . S
C354 H368 0.960 . S
C355 C352 1.511 . S
C355 H369 0.961 . S
C355 H370 0.961 . S
C355 H371 0.961 . S
C356 C357 1.370 . S
C356 C358 1.363 . S
C356 H372 0.931 . S
C357 C356 1.370 . S
C357 C361 1.408 . S
C358 C356 1.363 . S
C358 C359 1.370 . S
C358 C362 1.524 . S
C359 C351 1.503 . S
C359 C358 1.370 . S
C359 C360 1.403 . S
C360 C359 1.403 . S
C360 C361 1.404 . S
C360 C363 1.539 . S
C361 C357 1.408 . S
C361 C360 1.404 . S
C361 H373 0.930 . S
C362 C358 1.524 . S
C362 H374 0.956 . S
C362 H375 0.961 . S
C362 H376 0.961 . S
C363 C360 1.539 . S
C363 H377 0.958 . S
C363 H378 0.961 . S
C363 H379 0.960 . S
H364 C348 0.931 . S
H365 C353 0.929 . S
H366 C354 0.960 . S
H367 C354 0.962 . S
H368 C354 0.960 . S
H369 C355 0.961 . S
H370 C355 0.961 . S
H371 C355 0.961 . S
H372 C356 0.931 . S
H373 C361 0.930 . S
H374 C362 0.956 . S
H375 C362 0.961 . S
H376 C362 0.961 . S
H377 C363 0.958 . S
H378 C363 0.961 . S
H379 C363 0.960 . S
C380 C381 1.391 . S
C380 C382 1.394 . S
C380 H396 0.931 . S
C381 C380 1.391 . S
C381 C385 1.376 . S
C382 C380 1.394 . S
C382 C383 1.369 . S
C382 C386 1.531 . S
C383 C382 1.369 . S
C383 C384 1.410 . S
C383 C391 1.503 . S
C384 C383 1.410 . S
C384 C385 1.392 . S
C384 C387 1.511 . S
C385 C381 1.376 . S
C385 C384 1.392 . S
C385 H397 0.929 . S
C386 C382 1.531 . S
C386 H398 0.960 . S
C386 H399 0.962 . S
C386 H400 0.960 . S
C387 C384 1.511 . S
C387 H401 0.961 . S
C387 H402 0.961 . S
C387 H403 0.961 . S
C388 C389 1.370 . S
C388 C390 1.363 . S
C388 H404 0.931 . S
C389 C388 1.370 . S
C389 C393 1.408 . S
C390 C388 1.363 . S
C390 C391 1.370 . S
C390 C394 1.524 . S
C391 C383 1.503 . S
C391 C390 1.370 . S
C391 C392 1.403 . S
C392 C391 1.403 . S
C392 C393 1.404 . S
C392 C395 1.539 . S
C393 C389 1.408 . S
C393 C392 1.404 . S
C393 H405 0.930 . S
C394 C390 1.524 . S
C394 H406 0.956 . S
C394 H407 0.961 . S
C394 H408 0.961 . S
C395 C392 1.539 . S
C395 H409 0.958 . S
C395 H410 0.961 . S
C395 H411 0.960 . S
H396 C380 0.931 . S
H397 C385 0.929 . S
H398 C386 0.960 . S
H399 C386 0.962 . S
H400 C386 0.960 . S
H401 C387 0.961 . S
H402 C387 0.961 . S
H403 C387 0.961 . S
H404 C388 0.931 . S
H405 C393 0.930 . S
H406 C394 0.956 . S
H407 C394 0.961 . S
H408 C394 0.961 . S
H409 C395 0.958 . S
H410 C395 0.961 . S
H411 C395 0.960 . S
C412 C413 1.391 . S
C412 C414 1.394 . S
C412 H428 0.931 . S
C413 C412 1.391 . S
C413 C417 1.376 . S
C414 C412 1.394 . S
C414 C415 1.369 . S
C414 C418 1.531 . S
C415 C414 1.369 . S
C415 C416 1.410 . S
C415 C423 1.503 . S
C416 C415 1.410 . S
C416 C417 1.392 . S
C416 C419 1.511 . S
C417 C413 1.376 . S
C417 C416 1.392 . S
C417 H429 0.929 . S
C418 C414 1.531 . S
C418 H430 0.960 . S
C418 H431 0.962 . S
C418 H432 0.960 . S
C419 C416 1.511 . S
C419 H433 0.961 . S
C419 H434 0.961 . S
C419 H435 0.961 . S
C420 C421 1.370 . S
C420 C422 1.363 . S
C420 H436 0.931 . S
C421 C420 1.370 . S
C421 C425 1.408 . S
C422 C420 1.363 . S
C422 C423 1.370 . S
C422 C426 1.524 . S
C423 C415 1.503 . S
C423 C422 1.370 . S
C423 C424 1.403 . S
C424 C423 1.403 . S
C424 C425 1.404 . S
C424 C427 1.539 . S
C425 C421 1.408 . S
C425 C424 1.404 . S
C425 H437 0.930 . S
C426 C422 1.524 . S
C426 H438 0.956 . S
C426 H439 0.961 . S
C426 H440 0.961 . S
C427 C424 1.539 . S
C427 H441 0.958 . S
C427 H442 0.961 . S
C427 H443 0.960 . S
H428 C412 0.931 . S
H429 C417 0.929 . S
H430 C418 0.960 . S
H431 C418 0.962 . S
H432 C418 0.960 . S
H433 C419 0.961 . S
H434 C419 0.961 . S
H435 C419 0.961 . S
H436 C420 0.931 . S
H437 C425 0.930 . S
H438 C426 0.956 . S
H439 C426 0.961 . S
H440 C426 0.961 . S
H441 C427 0.958 . S
H442 C427 0.961 . S
H443 C427 0.960 . S
C444 C445 1.391 . S
C444 C446 1.394 . S
C444 H460 0.931 . S
C445 C444 1.391 . S
C445 C449 1.376 . S
C446 C444 1.394 . S
C446 C447 1.369 . S
C446 C450 1.531 . S
C447 C446 1.369 . S
C447 C448 1.410 . S
C447 C455 1.503 . S
C448 C447 1.410 . S
C448 C449 1.392 . S
C448 C451 1.511 . S
C449 C445 1.376 . S
C449 C448 1.392 . S
C449 H461 0.929 . S
C450 C446 1.531 . S
C450 H462 0.960 . S
C450 H463 0.962 . S
C450 H464 0.960 . S
C451 C448 1.511 . S
C451 H465 0.961 . S
C451 H466 0.961 . S
C451 H467 0.961 . S
C452 C453 1.370 . S
C452 C454 1.363 . S
C452 H468 0.931 . S
C453 C452 1.370 . S
C453 C457 1.408 . S
C454 C452 1.363 . S
C454 C455 1.370 . S
C454 C458 1.524 . S
C455 C447 1.503 . S
C455 C454 1.370 . S
C455 C456 1.403 . S
C456 C455 1.403 . S
C456 C457 1.404 . S
C456 C459 1.539 . S
C457 C453 1.408 . S
C457 C456 1.404 . S
C457 H469 0.930 . S
C458 C454 1.524 . S
C458 H470 0.956 . S
C458 H471 0.961 . S
C458 H472 0.961 . S
C459 C456 1.539 . S
C459 H473 0.958 . S
C459 H474 0.961 . S
C459 H475 0.960 . S
H460 C444 0.931 . S
H461 C449 0.929 . S
H462 C450 0.960 . S
H463 C450 0.962 . S
H464 C450 0.960 . S
H465 C451 0.961 . S
H466 C451 0.961 . S
H467 C451 0.961 . S
H468 C452 0.931 . S
H469 C457 0.930 . S
H470 C458 0.956 . S
H471 C458 0.961 . S
H472 C458 0.961 . S
H473 C459 0.958 . S
H474 C459 0.961 . S
H475 C459 0.960 . S
C476 C477 1.391 . S
C476 C478 1.394 . S
C476 H492 0.931 . S
C477 C476 1.391 . S
C477 C481 1.376 . S
C478 C476 1.394 . S
C478 C479 1.369 . S
C478 C482 1.531 . S
C479 C478 1.369 . S
C479 C480 1.410 . S
C479 C487 1.503 . S
C480 C479 1.410 . S
C480 C481 1.392 . S
C480 C483 1.511 . S
C481 C477 1.376 . S
C481 C480 1.392 . S
C481 H493 0.929 . S
C482 C478 1.531 . S
C482 H494 0.960 . S
C482 H495 0.962 . S
C482 H496 0.960 . S
C483 C480 1.511 . S
C483 H497 0.961 . S
C483 H498 0.961 . S
C483 H499 0.961 . S
C484 C485 1.370 . S
C484 C486 1.363 . S
C484 H500 0.931 . S
C485 C484 1.370 . S
C485 C489 1.408 . S
C486 C484 1.363 . S
C486 C487 1.370 . S
C486 C490 1.524 . S
C487 C479 1.503 . S
C487 C486 1.370 . S
C487 C488 1.403 . S
C488 C487 1.403 . S
C488 C489 1.404 . S
C488 C491 1.539 . S
C489 C485 1.408 . S
C489 C488 1.404 . S
C489 H501 0.930 . S
C490 C486 1.524 . S
C490 H502 0.956 . S
C490 H503 0.961 . S
C490 H504 0.961 . S
C491 C488 1.539 . S
C491 H505 0.958 . S
C491 H506 0.961 . S
C491 H507 0.960 . S
H492 C476 0.931 . S
H493 C481 0.929 . S
H494 C482 0.960 . S
H495 C482 0.962 . S
H496 C482 0.960 . S
H497 C483 0.961 . S
H498 C483 0.961 . S
H499 C483 0.961 . S
H500 C484 0.931 . S
H501 C489 0.930 . S
H502 C490 0.956 . S
H503 C490 0.961 . S
H504 C490 0.961 . S
H505 C491 0.958 . S
H506 C491 0.961 . S
H507 C491 0.960 . S
C508 C509 1.391 . S
C508 C510 1.394 . S
C508 H524 0.931 . S
C509 C508 1.391 . S
C509 C513 1.376 . S
C510 C508 1.394 . S
C510 C511 1.369 . S
C510 C514 1.531 . S
C511 C510 1.369 . S
C511 C512 1.410 . S
C511 C519 1.503 . S
C512 C511 1.410 . S
C512 C513 1.392 . S
C512 C515 1.511 . S
C513 C509 1.376 . S
C513 C512 1.392 . S
C513 H525 0.929 . S
C514 C510 1.531 . S
C514 H526 0.960 . S
C514 H527 0.962 . S
C514 H528 0.960 . S
C515 C512 1.511 . S
C515 H529 0.961 . S
C515 H530 0.961 . S
C515 H531 0.961 . S
C516 C517 1.370 . S
C516 C518 1.363 . S
C516 H532 0.931 . S
C517 C516 1.370 . S
C517 C521 1.408 . S
C518 C516 1.363 . S
C518 C519 1.370 . S
C518 C522 1.524 . S
C519 C511 1.503 . S
C519 C518 1.370 . S
C519 C520 1.403 . S
C520 C519 1.403 . S
C520 C521 1.404 . S
C520 C523 1.539 . S
C521 C517 1.408 . S
C521 C520 1.404 . S
C521 H533 0.930 . S
C522 C518 1.524 . S
C522 H534 0.956 . S
C522 H535 0.961 . S
C522 H536 0.961 . S
C523 C520 1.539 . S
C523 H537 0.958 . S
C523 H538 0.961 . S
C523 H539 0.960 . S
H524 C508 0.931 . S
H525 C513 0.929 . S
H526 C514 0.960 . S
H527 C514 0.962 . S
H528 C514 0.960 . S
H529 C515 0.961 . S
H530 C515 0.961 . S
H531 C515 0.961 . S
H532 C516 0.931 . S
H533 C521 0.930 . S
H534 C522 0.956 . S
H535 C522 0.961 . S
H536 C522 0.961 . S
H537 C523 0.958 . S
H538 C523 0.961 . S
H539 C523 0.960 . S
C540 C541 1.391 . S
C540 C542 1.394 . S
C540 H556 0.931 . S
C541 C540 1.391 . S
C541 C545 1.376 . S
C542 C540 1.394 . S
C542 C543 1.369 . S
C542 C546 1.531 . S
C543 C542 1.369 . S
C543 C544 1.410 . S
C543 C551 1.503 . S
C544 C543 1.410 . S
C544 C545 1.392 . S
C544 C547 1.511 . S
C545 C541 1.376 . S
C545 C544 1.392 . S
C545 H557 0.929 . S
C546 C542 1.531 . S
C546 H558 0.960 . S
C546 H559 0.962 . S
C546 H560 0.960 . S
C547 C544 1.511 . S
C547 H561 0.961 . S
C547 H562 0.961 . S
C547 H563 0.961 . S
C548 C549 1.370 . S
C548 C550 1.363 . S
C548 H564 0.931 . S
C549 C548 1.370 . S
C549 C553 1.408 . S
C550 C548 1.363 . S
C550 C551 1.370 . S
C550 C554 1.524 . S
C551 C543 1.503 . S
C551 C550 1.370 . S
C551 C552 1.403 . S
C552 C551 1.403 . S
C552 C553 1.404 . S
C552 C555 1.539 . S
C553 C549 1.408 . S
C553 C552 1.404 . S
C553 H565 0.930 . S
C554 C550 1.524 . S
C554 H566 0.956 . S
C554 H567 0.961 . S
C554 H568 0.961 . S
C555 C552 1.539 . S
C555 H569 0.958 . S
C555 H570 0.961 . S
C555 H571 0.960 . S
H556 C540 0.931 . S
H557 C545 0.929 . S
H558 C546 0.960 . S
H559 C546 0.962 . S
H560 C546 0.960 . S
H561 C547 0.961 . S
H562 C547 0.961 . S
H563 C547 0.961 . S
H564 C548 0.931 . S
H565 C553 0.930 . S
H566 C554 0.956 . S
H567 C554 0.961 . S
H568 C554 0.961 . S
H569 C555 0.958 . S
H570 C555 0.961 . S
H571 C555 0.960 . S
C572 C573 1.391 . S
C572 C574 1.394 . S
C572 H588 0.931 . S
C573 C572 1.391 . S
C573 C577 1.376 . S
C574 C572 1.394 . S
C574 C575 1.369 . S
C574 C578 1.531 . S
C575 C574 1.369 . S
C575 C576 1.410 . S
C575 C583 1.503 . S
C576 C575 1.410 . S
C576 C577 1.392 . S
C576 C579 1.511 . S
C577 C573 1.376 . S
C577 C576 1.392 . S
C577 H589 0.929 . S
C578 C574 1.531 . S
C578 H590 0.960 . S
C578 H591 0.962 . S
C578 H592 0.960 . S
C579 C576 1.511 . S
C579 H593 0.961 . S
C579 H594 0.961 . S
C579 H595 0.961 . S
C580 C581 1.370 . S
C580 C582 1.363 . S
C580 H596 0.931 . S
C581 C580 1.370 . S
C581 C585 1.408 . S
C582 C580 1.363 . S
C582 C583 1.370 . S
C582 C586 1.524 . S
C583 C575 1.503 . S
C583 C582 1.370 . S
C583 C584 1.403 . S
C584 C583 1.403 . S
C584 C585 1.404 . S
C584 C587 1.539 . S
C585 C581 1.408 . S
C585 C584 1.404 . S
C585 H597 0.930 . S
C586 C582 1.524 . S
C586 H598 0.956 . S
C586 H599 0.961 . S
C586 H600 0.961 . S
C587 C584 1.539 . S
C587 H601 0.958 . S
C587 H602 0.961 . S
C587 H603 0.960 . S
H588 C572 0.931 . S
H589 C577 0.929 . S
H590 C578 0.960 . S
H591 C578 0.962 . S
H592 C578 0.960 . S
H593 C579 0.961 . S
H594 C579 0.961 . S
H595 C579 0.961 . S
H596 C580 0.931 . S
H597 C585 0.930 . S
H598 C586 0.956 . S
H599 C586 0.961 . S
H600 C586 0.961 . S
H601 C587 0.958 . S
H602 C587 0.961 . S
H603 C587 0.960 . S
C604 C605 1.391 . S
C604 C606 1.394 . S
C604 H620 0.931 . S
C605 C604 1.391 . S
C605 C609 1.376 . S
C606 C604 1.394 . S
C606 C607 1.369 . S
C606 C610 1.531 . S
C607 C606 1.369 . S
C607 C608 1.410 . S
C607 C615 1.503 . S
C608 C607 1.410 . S
C608 C609 1.392 . S
C608 C611 1.511 . S
C609 C605 1.376 . S
C609 C608 1.392 . S
C609 H621 0.929 . S
C610 C606 1.531 . S
C610 H622 0.960 . S
C610 H623 0.962 . S
C610 H624 0.960 . S
C611 C608 1.511 . S
C611 H625 0.961 . S
C611 H626 0.961 . S
C611 H627 0.961 . S
C612 C613 1.370 . S
C612 C614 1.363 . S
C612 H628 0.931 . S
C613 C612 1.370 . S
C613 C617 1.408 . S
C614 C612 1.363 . S
C614 C615 1.370 . S
C614 C618 1.524 . S
C615 C607 1.503 . S
C615 C614 1.370 . S
C615 C616 1.403 . S
C616 C615 1.403 . S
C616 C617 1.404 . S
C616 C619 1.539 . S
C617 C613 1.408 . S
C617 C616 1.404 . S
C617 H629 0.930 . S
C618 C614 1.524 . S
C618 H630 0.956 . S
C618 H631 0.961 . S
C618 H632 0.961 . S
C619 C616 1.539 . S
C619 H633 0.958 . S
C619 H634 0.961 . S
C619 H635 0.960 . S
H620 C604 0.931 . S
H621 C609 0.929 . S
H622 C610 0.960 . S
H623 C610 0.962 . S
H624 C610 0.960 . S
H625 C611 0.961 . S
H626 C611 0.961 . S
H627 C611 0.961 . S
H628 C612 0.931 . S
H629 C617 0.930 . S
H630 C618 0.956 . S
H631 C618 0.961 . S
H632 C618 0.961 . S
H633 C619 0.958 . S
H634 C619 0.961 . S
H635 C619 0.960 . S
C636 C637 1.391 . S
C636 C638 1.394 . S
C636 H652 0.931 . S
C637 C636 1.391 . S
C637 C641 1.376 . S
C638 C636 1.394 . S
C638 C639 1.369 . S
C638 C642 1.531 . S
C639 C638 1.369 . S
C639 C640 1.410 . S
C639 C647 1.503 . S
C640 C639 1.410 . S
C640 C641 1.392 . S
C640 C643 1.511 . S
C641 C637 1.376 . S
C641 C640 1.392 . S
C641 H653 0.929 . S
C642 C638 1.531 . S
C642 H654 0.960 . S
C642 H655 0.962 . S
C642 H656 0.960 . S
C643 C640 1.511 . S
C643 H657 0.961 . S
C643 H658 0.961 . S
C643 H659 0.961 . S
C644 C645 1.370 . S
C644 C646 1.363 . S
C644 H660 0.931 . S
C645 C644 1.370 . S
C645 C649 1.408 . S
C646 C644 1.363 . S
C646 C647 1.370 . S
C646 C650 1.524 . S
C647 C639 1.503 . S
C647 C646 1.370 . S
C647 C648 1.403 . S
C648 C647 1.403 . S
C648 C649 1.404 . S
C648 C651 1.539 . S
C649 C645 1.408 . S
C649 C648 1.404 . S
C649 H661 0.930 . S
C650 C646 1.524 . S
C650 H662 0.956 . S
C650 H663 0.961 . S
C650 H664 0.961 . S
C651 C648 1.539 . S
C651 H665 0.958 . S
C651 H666 0.961 . S
C651 H667 0.960 . S
H652 C636 0.931 . S
H653 C641 0.929 . S
H654 C642 0.960 . S
H655 C642 0.962 . S
H656 C642 0.960 . S
H657 C643 0.961 . S
H658 C643 0.961 . S
H659 C643 0.961 . S
H660 C644 0.931 . S
H661 C649 0.930 . S
H662 C650 0.956 . S
H663 C650 0.961 . S
H664 C650 0.961 . S
H665 C651 0.958 . S
H666 C651 0.961 . S
H667 C651 0.960 . S
C668 C669 1.391 . S
C668 C670 1.394 . S
C668 H684 0.931 . S
C669 C668 1.391 . S
C669 C673 1.376 . S
C670 C668 1.394 . S
C670 C671 1.369 . S
C670 C674 1.531 . S
C671 C670 1.369 . S
C671 C672 1.410 . S
C671 C679 1.503 . S
C672 C671 1.410 . S
C672 C673 1.392 . S
C672 C675 1.511 . S
C673 C669 1.376 . S
C673 C672 1.392 . S
C673 H685 0.929 . S
C674 C670 1.531 . S
C674 H686 0.960 . S
C674 H687 0.962 . S
C674 H688 0.960 . S
C675 C672 1.511 . S
C675 H689 0.961 . S
C675 H690 0.961 . S
C675 H691 0.961 . S
C676 C677 1.370 . S
C676 C678 1.363 . S
C676 H692 0.931 . S
C677 C676 1.370 . S
C677 C681 1.408 . S
C678 C676 1.363 . S
C678 C679 1.370 . S
C678 C682 1.524 . S
C679 C671 1.503 . S
C679 C678 1.370 . S
C679 C680 1.403 . S
C680 C679 1.403 . S
C680 C681 1.404 . S
C680 C683 1.539 . S
C681 C677 1.408 . S
C681 C680 1.404 . S
C681 H693 0.930 . S
C682 C678 1.524 . S
C682 H694 0.956 . S
C682 H695 0.961 . S
C682 H696 0.961 . S
C683 C680 1.539 . S
C683 H697 0.958 . S
C683 H698 0.961 . S
C683 H699 0.960 . S
H684 C668 0.931 . S
H685 C673 0.929 . S
H686 C674 0.960 . S
H687 C674 0.962 . S
H688 C674 0.960 . S
H689 C675 0.961 . S
H690 C675 0.961 . S
H691 C675 0.961 . S
H692 C676 0.931 . S
H693 C681 0.930 . S
H694 C682 0.956 . S
H695 C682 0.961 . S
H696 C682 0.961 . S
H697 C683 0.958 . S
H698 C683 0.961 . S
H699 C683 0.960 . S
C700 C701 1.391 . S
C700 C702 1.394 . S
C700 H716 0.931 . S
C701 C700 1.391 . S
C701 C705 1.376 . S
C702 C700 1.394 . S
C702 C703 1.369 . S
C702 C706 1.531 . S
C703 C702 1.369 . S
C703 C704 1.410 . S
C703 C711 1.503 . S
C704 C703 1.410 . S
C704 C705 1.392 . S
C704 C707 1.511 . S
C705 C701 1.376 . S
C705 C704 1.392 . S
C705 H717 0.929 . S
C706 C702 1.531 . S
C706 H718 0.960 . S
C706 H719 0.962 . S
C706 H720 0.960 . S
C707 C704 1.511 . S
C707 H721 0.961 . S
C707 H722 0.961 . S
C707 H723 0.961 . S
C708 C709 1.370 . S
C708 C710 1.363 . S
C708 H724 0.931 . S
C709 C708 1.370 . S
C709 C713 1.408 . S
C710 C708 1.363 . S
C710 C711 1.370 . S
C710 C714 1.524 . S
C711 C703 1.503 . S
C711 C710 1.370 . S
C711 C712 1.403 . S
C712 C711 1.403 . S
C712 C713 1.404 . S
C712 C715 1.539 . S
C713 C709 1.408 . S
C713 C712 1.404 . S
C713 H725 0.930 . S
C714 C710 1.524 . S
C714 H726 0.956 . S
C714 H727 0.961 . S
C714 H728 0.961 . S
C715 C712 1.539 . S
C715 H729 0.958 . S
C715 H730 0.961 . S
C715 H731 0.960 . S
H716 C700 0.931 . S
H717 C705 0.929 . S
H718 C706 0.960 . S
H719 C706 0.962 . S
H720 C706 0.960 . S
H721 C707 0.961 . S
H722 C707 0.961 . S
H723 C707 0.961 . S
H724 C708 0.931 . S
H725 C713 0.930 . S
H726 C714 0.956 . S
H727 C714 0.961 . S
H728 C714 0.961 . S
H729 C715 0.958 . S
H730 C715 0.961 . S
H731 C715 0.960 . S
C732 C733 1.391 . S
C732 C734 1.394 . S
C732 H748 0.931 . S
C733 C732 1.391 . S
C733 C737 1.376 . S
C734 C732 1.394 . S
C734 C735 1.369 . S
C734 C738 1.531 . S
C735 C734 1.369 . S
C735 C736 1.410 . S
C735 C743 1.503 . S
C736 C735 1.410 . S
C736 C737 1.392 . S
C736 C739 1.511 . S
C737 C733 1.376 . S
C737 C736 1.392 . S
C737 H749 0.929 . S
C738 C734 1.531 . S
C738 H750 0.960 . S
C738 H751 0.962 . S
C738 H752 0.960 . S
C739 C736 1.511 . S
C739 H753 0.961 . S
C739 H754 0.961 . S
C739 H755 0.961 . S
C740 C741 1.370 . S
C740 C742 1.363 . S
C740 H756 0.931 . S
C741 C740 1.370 . S
C741 C745 1.408 . S
C742 C740 1.363 . S
C742 C743 1.370 . S
C742 C746 1.524 . S
C743 C735 1.503 . S
C743 C742 1.370 . S
C743 C744 1.403 . S
C744 C743 1.403 . S
C744 C745 1.404 . S
C744 C747 1.539 . S
C745 C741 1.408 . S
C745 C744 1.404 . S
C745 H757 0.930 . S
C746 C742 1.524 . S
C746 H758 0.956 . S
C746 H759 0.961 . S
C746 H760 0.961 . S
C747 C744 1.539 . S
C747 H761 0.958 . S
C747 H762 0.961 . S
C747 H763 0.960 . S
H748 C732 0.931 . S
H749 C737 0.929 . S
H750 C738 0.960 . S
H751 C738 0.962 . S
H752 C738 0.960 . S
H753 C739 0.961 . S
H754 C739 0.961 . S
H755 C739 0.961 . S
H756 C740 0.931 . S
H757 C745 0.930 . S
H758 C746 0.956 . S
H759 C746 0.961 . S
H760 C746 0.961 . S
H761 C747 0.958 . S
H762 C747 0.961 . S
H763 C747 0.960 . S
C764 C765 1.391 . S
C764 C766 1.394 . S
C764 H780 0.931 . S
C765 C764 1.391 . S
C765 C769 1.376 . S
C766 C764 1.394 . S
C766 C767 1.369 . S
C766 C770 1.531 . S
C767 C766 1.369 . S
C767 C768 1.410 . S
C767 C775 1.503 . S
C768 C767 1.410 . S
C768 C769 1.392 . S
C768 C771 1.511 . S
C769 C765 1.376 . S
C769 C768 1.392 . S
C769 H781 0.929 . S
C770 C766 1.531 . S
C770 H782 0.960 . S
C770 H783 0.962 . S
C770 H784 0.960 . S
C771 C768 1.511 . S
C771 H785 0.961 . S
C771 H786 0.961 . S
C771 H787 0.961 . S
C772 C773 1.370 . S
C772 C774 1.363 . S
C772 H788 0.931 . S
C773 C772 1.370 . S
C773 C777 1.408 . S
C774 C772 1.363 . S
C774 C775 1.370 . S
C774 C778 1.524 . S
C775 C767 1.503 . S
C775 C774 1.370 . S
C775 C776 1.403 . S
C776 C775 1.403 . S
C776 C777 1.404 . S
C776 C779 1.539 . S
C777 C773 1.408 . S
C777 C776 1.404 . S
C777 H789 0.930 . S
C778 C774 1.524 . S
C778 H790 0.956 . S
C778 H791 0.961 . S
C778 H792 0.961 . S
C779 C776 1.539 . S
C779 H793 0.958 . S
C779 H794 0.961 . S
C779 H795 0.960 . S
H780 C764 0.931 . S
H781 C769 0.929 . S
H782 C770 0.960 . S
H783 C770 0.962 . S
H784 C770 0.960 . S
H785 C771 0.961 . S
H786 C771 0.961 . S
H787 C771 0.961 . S
H788 C772 0.931 . S
H789 C777 0.930 . S
H790 C778 0.956 . S
H791 C778 0.961 . S
H792 C778 0.961 . S
H793 C779 0.958 . S
H794 C779 0.961 . S
H795 C779 0.960 . S
C796 C797 1.391 . S
C796 C798 1.394 . S
C796 H812 0.931 . S
C797 C796 1.391 . S
C797 C801 1.376 . S
C798 C796 1.394 . S
C798 C799 1.369 . S
C798 C802 1.531 . S
C799 C798 1.369 . S
C799 C800 1.410 . S
C799 C807 1.503 . S
C800 C799 1.410 . S
C800 C801 1.392 . S
C800 C803 1.511 . S
C801 C797 1.376 . S
C801 C800 1.392 . S
C801 H813 0.929 . S
C802 C798 1.531 . S
C802 H814 0.960 . S
C802 H815 0.962 . S
C802 H816 0.960 . S
C803 C800 1.511 . S
C803 H817 0.961 . S
C803 H818 0.961 . S
C803 H819 0.961 . S
C804 C805 1.370 . S
C804 C806 1.363 . S
C804 H820 0.931 . S
C805 C804 1.370 . S
C805 C809 1.408 . S
C806 C804 1.363 . S
C806 C807 1.370 . S
C806 C810 1.524 . S
C807 C799 1.503 . S
C807 C806 1.370 . S
C807 C808 1.403 . S
C808 C807 1.403 . S
C808 C809 1.404 . S
C808 C811 1.539 . S
C809 C805 1.408 . S
C809 C808 1.404 . S
C809 H821 0.930 . S
C810 C806 1.524 . S
C810 H822 0.956 . S
C810 H823 0.961 . S
C810 H824 0.961 . S
C811 C808 1.539 . S
C811 H825 0.958 . S
C811 H826 0.961 . S
C811 H827 0.960 . S
H812 C796 0.931 . S
H813 C801 0.929 . S
H814 C802 0.960 . S
H815 C802 0.962 . S
H816 C802 0.960 . S
H817 C803 0.961 . S
H818 C803 0.961 . S
H819 C803 0.961 . S
H820 C804 0.931 . S
H821 C809 0.930 . S
H822 C810 0.956 . S
H823 C810 0.961 . S
H824 C810 0.961 . S
H825 C811 0.958 . S
H826 C811 0.961 . S
H827 C811 0.960 . S
C828 C829 1.391 . S
C828 C830 1.394 . S
C828 H844 0.931 . S
C829 C828 1.391 . S
C829 C833 1.376 . S
C830 C828 1.394 . S
C830 C831 1.369 . S
C830 C834 1.531 . S
C831 C830 1.369 . S
C831 C832 1.410 . S
C831 C839 1.503 . S
C832 C831 1.410 . S
C832 C833 1.392 . S
C832 C835 1.511 . S
C833 C829 1.376 . S
C833 C832 1.392 . S
C833 H845 0.929 . S
C834 C830 1.531 . S
C834 H846 0.960 . S
C834 H847 0.962 . S
C834 H848 0.960 . S
C835 C832 1.511 . S
C835 H849 0.961 . S
C835 H850 0.961 . S
C835 H851 0.961 . S
C836 C837 1.370 . S
C836 C838 1.363 . S
C836 H852 0.931 . S
C837 C836 1.370 . S
C837 C841 1.408 . S
C838 C836 1.363 . S
C838 C839 1.370 . S
C838 C842 1.524 . S
C839 C831 1.503 . S
C839 C838 1.370 . S
C839 C840 1.403 . S
C840 C839 1.403 . S
C840 C841 1.404 . S
C840 C843 1.539 . S
C841 C837 1.408 . S
C841 C840 1.404 . S
C841 H853 0.930 . S
C842 C838 1.524 . S
C842 H854 0.956 . S
C842 H855 0.961 . S
C842 H856 0.961 . S
C843 C840 1.539 . S
C843 H857 0.958 . S
C843 H858 0.961 . S
C843 H859 0.960 . S
H844 C828 0.931 . S
H845 C833 0.929 . S
H846 C834 0.960 . S
H847 C834 0.962 . S
H848 C834 0.960 . S
H849 C835 0.961 . S
H850 C835 0.961 . S
H851 C835 0.961 . S
H852 C836 0.931 . S
H853 C841 0.930 . S
H854 C842 0.956 . S
H855 C842 0.961 . S
H856 C842 0.961 . S
H857 C843 0.958 . S
H858 C843 0.961 . S
H859 C843 0.960 . S
C860 C861 1.391 . S
C860 C862 1.394 . S
C860 H876 0.931 . S
C861 C860 1.391 . S
C861 C865 1.376 . S
C862 C860 1.394 . S
C862 C863 1.369 . S
C862 C866 1.531 . S
C863 C862 1.369 . S
C863 C864 1.410 . S
C863 C871 1.503 . S
C864 C863 1.410 . S
C864 C865 1.392 . S
C864 C867 1.511 . S
C865 C861 1.376 . S
C865 C864 1.392 . S
C865 H877 0.929 . S
C866 C862 1.531 . S
C866 H878 0.960 . S
C866 H879 0.962 . S
C866 H880 0.960 . S
C867 C864 1.511 . S
C867 H881 0.961 . S
C867 H882 0.961 . S
C867 H883 0.961 . S
C868 C869 1.370 . S
C868 C870 1.363 . S
C868 H884 0.931 . S
C869 C868 1.370 . S
C869 C873 1.408 . S
C870 C868 1.363 . S
C870 C871 1.370 . S
C870 C874 1.524 . S
C871 C863 1.503 . S
C871 C870 1.370 . S
C871 C872 1.403 . S
C872 C871 1.403 . S
C872 C873 1.404 . S
C872 C875 1.539 . S
C873 C869 1.408 . S
C873 C872 1.404 . S
C873 H885 0.930 . S
C874 C870 1.524 . S
C874 H886 0.956 . S
C874 H887 0.961 . S
C874 H888 0.961 . S
C875 C872 1.539 . S
C875 H889 0.958 . S
C875 H890 0.961 . S
C875 H891 0.960 . S
H876 C860 0.931 . S
H877 C865 0.929 . S
H878 C866 0.960 . S
H879 C866 0.962 . S
H880 C866 0.960 . S
H881 C867 0.961 . S
H882 C867 0.961 . S
H883 C867 0.961 . S
H884 C868 0.931 . S
H885 C873 0.930 . S
H886 C874 0.956 . S
H887 C874 0.961 . S
H888 C874 0.961 . S
H889 C875 0.958 . S
H890 C875 0.961 . S
H891 C875 0.960 . S
C892 C893 1.391 . S
C892 C894 1.394 . S
C892 H908 0.931 . S
C893 C892 1.391 . S
C893 C897 1.376 . S
C894 C892 1.394 . S
C894 C895 1.369 . S
C894 C898 1.531 . S
C895 C894 1.369 . S
C895 C896 1.410 . S
C895 C903 1.503 . S
C896 C895 1.410 . S
C896 C897 1.392 . S
C896 C899 1.511 . S
C897 C893 1.376 . S
C897 C896 1.392 . S
C897 H909 0.929 . S
C898 C894 1.531 . S
C898 H910 0.960 . S
C898 H911 0.962 . S
C898 H912 0.960 . S
C899 C896 1.511 . S
C899 H913 0.961 . S
C899 H914 0.961 . S
C899 H915 0.961 . S
C900 C901 1.370 . S
C900 C902 1.363 . S
C900 H916 0.931 . S
C901 C900 1.370 . S
C901 C905 1.408 . S
C902 C900 1.363 . S
C902 C903 1.370 . S
C902 C906 1.524 . S
C903 C895 1.503 . S
C903 C902 1.370 . S
C903 C904 1.403 . S
C904 C903 1.403 . S
C904 C905 1.404 . S
C904 C907 1.539 . S
C905 C901 1.408 . S
C905 C904 1.404 . S
C905 H917 0.930 . S
C906 C902 1.524 . S
C906 H918 0.956 . S
C906 H919 0.961 . S
C906 H920 0.961 . S
C907 C904 1.539 . S
C907 H921 0.958 . S
C907 H922 0.961 . S
C907 H923 0.960 . S
H908 C892 0.931 . S
H909 C897 0.929 . S
H910 C898 0.960 . S
H911 C898 0.962 . S
H912 C898 0.960 . S
H913 C899 0.961 . S
H914 C899 0.961 . S
H915 C899 0.961 . S
H916 C900 0.931 . S
H917 C905 0.930 . S
H918 C906 0.956 . S
H919 C906 0.961 . S
H920 C906 0.961 . S
H921 C907 0.958 . S
H922 C907 0.961 . S
H923 C907 0.960 . S
C924 C925 1.391 . S
C924 C926 1.394 . S
C924 H940 0.931 . S
C925 C924 1.391 . S
C925 C929 1.376 . S
C926 C924 1.394 . S
C926 C927 1.369 . S
C926 C930 1.531 . S
C927 C926 1.369 . S
C927 C928 1.410 . S
C927 C935 1.503 . S
C928 C927 1.410 . S
C928 C929 1.392 . S
C928 C931 1.511 . S
C929 C925 1.376 . S
C929 C928 1.392 . S
C929 H941 0.929 . S
C930 C926 1.531 . S
C930 H942 0.960 . S
C930 H943 0.962 . S
C930 H944 0.960 . S
C931 C928 1.511 . S
C931 H945 0.961 . S
C931 H946 0.961 . S
C931 H947 0.961 . S
C932 C933 1.370 . S
C932 C934 1.363 . S
C932 H948 0.931 1_556 S
C933 C932 1.370 . S
C933 C937 1.408 . S
C934 C932 1.363 . S
C934 C935 1.370 . S
C934 C938 1.524 . S
C935 C927 1.503 . S
C935 C934 1.370 . S
C935 C936 1.403 . S
C936 C935 1.403 . S
C936 C937 1.404 . S
C936 C939 1.539 . S
C937 C933 1.408 . S
C937 C936 1.404 . S
C937 H949 0.930 . S
C938 C934 1.524 . S
C938 H950 0.956 . S
C938 H951 0.961 . S
C938 H952 0.961 1_556 S
C939 C936 1.539 . S
C939 H953 0.958 . S
C939 H954 0.961 . S
C939 H955 0.960 . S
H940 C924 0.931 . S
H941 C929 0.929 . S
H942 C930 0.960 . S
H943 C930 0.962 . S
H944 C930 0.960 . S
H945 C931 0.961 . S
H946 C931 0.961 . S
H947 C931 0.961 . S
H948 C932 0.931 1_554 S
H949 C937 0.930 . S
H950 C938 0.956 . S
H951 C938 0.961 . S
H952 C938 0.961 1_554 S
H953 C939 0.958 . S
H954 C939 0.961 . S
H955 C939 0.960 . S
C197 C116 1.423 . S
C189 N2 1.433 . S
C229 C119 1.467 . S
C221 N15 1.441 . S
C261 C117 1.684 1_655 S
C253 N27 1.688 . S
C293 C118 1.472 . S
C285 N44 1.473 . S
C325 C133 1.656 . S
C317 N1 1.670 . S
C357 C147 1.677 1_556 S
C349 N18 1.690 . S
C381 N28 1.692 . S
C389 C173 1.655 . S
C421 C187 1.503 . S
C413 N41 1.517 . S
C453 C132 1.622 . S
C445 N14 1.642 . S
C477 N31 1.782 . S
C485 C146 1.787 . S
C517 C172 1.742 . S
C509 N40 1.741 . S
C549 C186 1.583 . S
C541 N5 1.598 . S
C573 N53 1.655 . S
C581 C131 1.650 . S
C613 C104 1.652 1_655 S
C605 N70 1.622 . S
C637 N80 1.503 . S
C645 C130 1.503 . S
C669 N92 1.771 . S
C677 C105 1.770 . S
C709 C160 1.715 . S
C701 N57 1.749 . S
C741 C174 1.430 . S
C733 N67 1.440 . S
C773 C144 1.682 . S
C765 N83 1.689 . S
C797 N96 1.703 . S
C805 C158 1.703 . S
C837 C161 1.641 . S
C829 N66 1.660 . S
C869 C175 1.427 . S
C861 N79 1.415 . S
C901 C145 1.638 . S
C893 N93 1.674 . S
C925 N54 1.484 . S
C933 C159 1.472 1_556 S
