# Generated by pormake.
# Topology zzz, (3,6)-cn, num edge types: 1
# Building blocks:
#     Node 0, Type 0, BuildingBlock: INOVEN_clean_linker_0, # of connection points: 3
#     Node 1, Type 0, BuildingBlock: INOVEN_clean_linker_0, # of connection points: 3
#     Node 2, Type 0, BuildingBlock: INOVEN_clean_linker_0, # of connection points: 3
#     Node 3, Type 0, BuildingBlock: INOVEN_clean_linker_0, # of connection points: 3
#     Node 4, Type 0, BuildingBlock: INOVEN_clean_linker_0, # of connection points: 3
#     Node 5, Type 0, BuildingBlock: INOVEN_clean_linker_0, # of connection points: 3
#     Node 6, Type 0, BuildingBlock: INOVEN_clean_linker_0, # of connection points: 3
#     Node 7, Type 0, BuildingBlock: INOVEN_clean_linker_0, # of connection points: 3
#     Node 8, Type 1, BuildingBlock: VOLQOD_clean_sbu_1, # of connection points: 6
#     Node 9, Type 1, BuildingBlock: VOLQOD_clean_sbu_1, # of connection points: 6
#     Node 10, Type 1, BuildingBlock: VOLQOD_clean_sbu_1, # of connection points: 6
#     Node 11, Type 1, BuildingBlock: VOLQOD_clean_sbu_1, # of connection points: 6
#     Edge 12, Type (0, 1), BuildingBlock: EZIPEK_clean_linker_0, # of connection points: 2
#     Edge 13, Type (0, 1), BuildingBlock: EZIPEK_clean_linker_0, # of connection points: 2
#     Edge 14, Type (0, 1), BuildingBlock: EZIPEK_clean_linker_0, # of connection points: 2
#     Edge 15, Type (0, 1), BuildingBlock: EZIPEK_clean_linker_0, # of connection points: 2
#     Edge 16, Type (0, 1), BuildingBlock: EZIPEK_clean_linker_0, # of connection points: 2
#     Edge 17, Type (0, 1), BuildingBlock: EZIPEK_clean_linker_0, # of connection points: 2
#     Edge 18, Type (0, 1), BuildingBlock: EZIPEK_clean_linker_0, # of connection points: 2
#     Edge 19, Type (0, 1), BuildingBlock: EZIPEK_clean_linker_0, # of connection points: 2
#     Edge 20, Type (0, 1), BuildingBlock: EZIPEK_clean_linker_0, # of connection points: 2
#     Edge 21, Type (0, 1), BuildingBlock: EZIPEK_clean_linker_0, # of connection points: 2
#     Edge 22, Type (0, 1), BuildingBlock: EZIPEK_clean_linker_0, # of connection points: 2
#     Edge 23, Type (0, 1), BuildingBlock: EZIPEK_clean_linker_0, # of connection points: 2
#     Edge 24, Type (0, 1), BuildingBlock: EZIPEK_clean_linker_0, # of connection points: 2
#     Edge 25, Type (0, 1), BuildingBlock: EZIPEK_clean_linker_0, # of connection points: 2
#     Edge 26, Type (0, 1), BuildingBlock: EZIPEK_clean_linker_0, # of connection points: 2
#     Edge 27, Type (0, 1), BuildingBlock: EZIPEK_clean_linker_0, # of connection points: 2
#     Edge 28, Type (0, 1), BuildingBlock: EZIPEK_clean_linker_0, # of connection points: 2
#     Edge 29, Type (0, 1), BuildingBlock: EZIPEK_clean_linker_0, # of connection points: 2
#     Edge 30, Type (0, 1), BuildingBlock: EZIPEK_clean_linker_0, # of connection points: 2
#     Edge 31, Type (0, 1), BuildingBlock: EZIPEK_clean_linker_0, # of connection points: 2
#     Edge 32, Type (0, 1), BuildingBlock: EZIPEK_clean_linker_0, # of connection points: 2
#     Edge 33, Type (0, 1), BuildingBlock: EZIPEK_clean_linker_0, # of connection points: 2
#     Edge 34, Type (0, 1), BuildingBlock: EZIPEK_clean_linker_0, # of connection points: 2
#     Edge 35, Type (0, 1), BuildingBlock: EZIPEK_clean_linker_0, # of connection points: 2
# Relax obj value: 0.186
# Max RMSD: 0.232
# Mean RMSD: 0.110
data_MOF--net-zzz--node1-VOLQOD_clean_sbu_1--node2-INOVEN_clean_linker_0--edge1-EZIPEK_clean_linker_0
_symmetry_space_group_name_H-M    P1
_symmetry_Int_Tables_number       1
_symmetry_cell_setting            triclinic
loop_
_symmetry_equiv_pos_as_xyz
'x, y, z'
_cell_length_a     37.62859
_cell_length_b     37.287583
_cell_length_c     13.04785
_cell_angle_alpha  89.839409
_cell_angle_beta   89.738422
_cell_angle_gamma 90.910961
loop_
_atom_site_label
_atom_site_type_symbol
_atom_site_fract_x
_atom_site_fract_y
_atom_site_fract_z
_atom_type_partial_charge
H0 H 0.77342 0.53241 0.28737 0.0
H1 H 0.87917 0.49821 0.21409 0.0
H2 H 0.7964 0.48422 -0.00606 0.0
N3 N 0.74348 0.51142 0.11106 0.0
N4 N 0.73331 0.50451 0.02213 0.0
C5 C 0.79164 0.51918 0.23585 0.0
C6 C 0.82769 0.51599 0.26266 0.0
C7 C 0.77963 0.50665 0.13984 0.0
C8 C 0.80437 0.4918 0.07066 0.0
C9 C 0.84018 0.48901 0.09795 0.0
C10 C 0.85115 0.49956 0.19495 0.0
H11 H 1.00553 0.75418 0.28474 0.0
H12 H 0.03808 0.86509 0.27394 0.0
H13 H 0.04677 0.80049 0.00433 0.0
N14 N 0.02587 0.73791 0.09499 0.0
N15 N 0.03923 0.73183 0.00916 0.0
C16 C 0.01768 0.77654 0.24371 0.0
C17 C 0.02055 0.81029 0.29068 0.0
C18 C 0.02915 0.77222 0.14173 0.0
C19 C 0.04118 0.80258 0.0856 0.0
C20 C 0.04381 0.83623 0.13325 0.0
C21 C 0.03646 0.83893 0.23768 0.0
H22 H 0.75559 0.98251 0.2608 0.0
H23 H 0.64701 0.01122 0.21229 0.0
H24 H 0.72959 0.05998 0.0286 0.0
N25 N 0.78128 0.01751 0.0967 0.0
N26 N 0.78561 0.01995 0.002 0.0
C27 C 0.73617 0.99884 0.2222 0.0
C28 C 0.70026 0.99714 0.2524 0.0
C29 C 0.74664 0.02067 0.13908 0.0
C30 C 0.72129 0.04214 0.09024 0.0
C31 C 0.68494 0.03727 0.11153 0.0
C32 C 0.67495 0.01509 0.19391 0.0
H33 H 0.51573 0.7604 0.32746 0.0
H34 H 0.47195 0.6533 0.33394 0.0
H35 H 0.47226 0.71308 0.05301 0.0
N36 N 0.49839 0.77519 0.1345 0.0
N37 N 0.49426 0.77825 0.03999 0.0
C38 C 0.5017 0.73861 0.28962 0.0
C39 C 0.49551 0.70606 0.34164 0.0
C40 C 0.49179 0.74204 0.18619 0.0
C41 C 0.47725 0.71193 0.13464 0.0
C42 C 0.47041 0.67973 0.18804 0.0
C43 C 0.47675 0.67836 0.29316 0.0
H44 H 0.27031 0.50091 0.0656 0.0
H45 H 0.16726 0.5488 0.0556 0.0
H46 H 0.22645 0.55057 0.33514 0.0
N47 N 0.28664 0.52224 0.25559 0.0
N48 N 0.29315 0.53636 0.34035 0.0
C49 C 0.24968 0.51636 0.10205 0.0
C50 C 0.21787 0.52312 0.04958 0.0
C51 C 0.25403 0.52846 0.20365 0.0
C52 C 0.22506 0.54463 0.25403 0.0
C53 C 0.19343 0.55122 0.20075 0.0
C54 C 0.19181 0.54375 0.09633 0.0
H55 H 0.04653 0.26328 0.02087 0.0
H56 H 0.02946 0.15023 0.07454 0.0
H57 H 0.01682 0.22367 0.32178 0.0
N58 N 0.03611 0.28351 0.21705 0.0
N59 N 0.03687 0.28846 0.3117 0.0
C60 C 0.04059 0.24125 0.07278 0.0
C61 C 0.03933 0.20574 0.03597 0.0
C62 C 0.03379 0.24797 0.17751 0.0
C63 C 0.02367 0.21911 0.2422 0.0
C64 C 0.02186 0.18414 0.20416 0.0
C65 C 0.03102 0.17756 0.10306 0.0
H66 H 0.25886 0.02382 0.04595 0.0
H67 H 0.36992 1.00585 0.10269 0.0
H68 H 0.29521 0.99181 0.34657 0.0
N69 N 0.237 0.01102 0.24075 0.0
N70 N 0.23012 1.00057 0.32987 0.0
C71 C 0.2801 0.01721 0.09811 0.0
C72 C 0.31551 0.01581 0.06222 0.0
C73 C 0.2724 0.00904 0.20192 0.0
C74 C 0.30027 0.99868 0.26704 0.0
C75 C 0.33509 0.99757 0.23044 0.0
C76 C 0.34263 0.00696 0.12988 0.0
H77 H 0.48031 0.25863 0.09302 0.0
H78 H 0.51047 0.36876 0.14816 0.0
H79 H 0.53612 0.2889 0.36947 0.0
N80 N 0.50685 0.23249 0.26907 0.0
N81 N 0.51461 0.22511 0.35971 0.0
C82 C 0.49394 0.2786 0.13913 0.0
C83 C 0.49467 0.31489 0.10779 0.0
C84 C 0.50961 0.26863 0.23311 0.0
C85 C 0.52562 0.29542 0.29464 0.0
C86 C 0.52514 0.33141 0.26436 0.0
C87 C 0.51116 0.34063 0.16983 0.0
O88 O 0.09386 0.01809 0.63238 0.0
Zn89 Zn 0.05097 0.02016 0.72886 0.0
O90 O 0.00687 0.00674 0.65488 0.0
Zn91 Zn 0.97493 0.04715 0.65189 0.0
Zn92 Zn 0.01808 0.99245 0.51594 0.0
Zn93 Zn 0.98119 0.96742 0.71994 0.0
O94 O 0.93023 0.03872 0.73571 0.0
O95 O 0.93393 0.98135 0.77943 0.0
O96 O 0.04765 0.07131 0.78524 0.0
O97 O 0.99886 0.09054 0.70959 0.0
O98 O 0.96349 0.06223 0.50994 0.0
O99 O 1.00223 0.03081 0.41966 0.0
O100 O 1.00161 0.94174 0.48492 0.0
O101 O 0.0595 0.98457 0.84535 0.0
O102 O 0.97587 0.9241 0.63069 0.0
O103 O 0.01055 0.95051 0.83281 0.0
C104 C 0.09705 1.00536 0.54216 0.0
C105 C 0.9177 0.01103 0.78134 0.0
C106 C 0.9812 0.05703 0.42842 0.0
C107 C 0.02594 0.09637 0.76505 0.0
C108 C 0.9863 0.91774 0.53996 0.0
C109 C 0.04019 0.95795 0.87424 0.0
O110 O 0.07051 0.99305 0.493 0.0
O111 O 0.49806 0.08164 0.63741 0.0
Zn112 Zn 0.49971 0.04024 0.73988 0.0
O113 O 0.51384 0.9958 0.66973 0.0
Zn114 Zn 0.47468 0.96145 0.67268 0.0
Zn115 Zn 0.52591 0.00694 0.5285 0.0
Zn116 Zn 0.554 0.97298 0.73353 0.0
O117 O 0.48478 0.91804 0.75971 0.0
O118 O 0.54035 0.92754 0.81127 0.0
O119 O 0.45041 0.03405 0.80734 0.0
O120 O 0.43168 0.98391 0.73267 0.0
O121 O 0.45911 0.9471 0.53347 0.0
O122 O 0.48583 0.98991 0.44157 0.0
O123 O 0.57328 0.98692 0.48716 0.0
O124 O 0.53811 0.05512 0.84217 0.0
O125 O 0.59307 0.96218 0.63099 0.0
O126 O 0.57461 0.00877 0.82925 0.0
C127 C 0.51215 0.08583 0.54895 0.0
C128 C 0.51173 0.90881 0.81153 0.0
C129 C 0.46158 0.96609 0.45283 0.0
C130 C 0.42584 0.01082 0.78933 0.0
C131 C 0.59711 0.97038 0.53674 0.0
C132 C 0.56676 0.03929 0.8658 0.0
O133 O 0.52699 0.06014 0.50224 0.0
O134 O 0.41808 0.50813 0.66792 0.0
Zn135 Zn 0.45563 0.50095 0.77789 0.0
O136 O 0.50404 0.51188 0.72403 0.0
Zn137 Zn 0.53428 0.47119 0.74993 0.0
Zn138 Zn 0.50145 0.52297 0.57769 0.0
Zn139 Zn 0.52699 0.55215 0.79165 0.0
O140 O 0.58049 0.48335 0.82113 0.0
O141 O 0.57555 0.54163 0.85073 0.0
O142 O 0.4518 0.44874 0.82752 0.0
O143 O 0.50853 0.43341 0.83127 0.0
O144 O 0.54387 0.44722 0.61776 0.0
O145 O 0.52516 0.48411 0.49545 0.0
O146 O 0.51848 0.57379 0.54662 0.0
O147 O 0.44472 0.53494 0.8966 0.0
O148 O 0.53059 0.59545 0.70138 0.0
O149 O 0.49543 0.56669 0.90279 0.0
C150 C 0.42046 0.51661 0.57337 0.0
C151 C 0.59289 0.51266 0.85686 0.0
C152 C 0.53915 0.45479 0.52391 0.0
C153 C 0.47593 0.42638 0.84989 0.0
C154 C 0.52674 0.59981 0.60557 0.0
C155 C 0.46427 0.55961 0.93555 0.0
O156 O 0.4504 0.52265 0.53045 0.0
O157 O 0.96156 0.56028 0.54623 0.0
Zn158 Zn 0.01279 0.56003 0.59749 0.0
O159 O 0.02507 0.51249 0.65424 0.0
Zn160 Zn 0.03363 0.51653 0.80134 0.0
Zn161 Zn 0.98643 0.47891 0.62434 0.0
Zn162 Zn 0.06713 0.49278 0.59212 0.0
O163 O 0.08319 0.49985 0.84142 0.0
O164 O 0.10785 0.49001 0.6891 0.0
O165 O 0.01768 0.59869 0.70483 0.0
O166 O 0.03342 0.56851 0.84427 0.0
O167 O 0.99209 0.49355 0.8772 0.0
O168 O 0.96048 0.46726 0.75349 0.0
O169 O 1.00175 0.43403 0.55141 0.0
O170 O 0.04684 0.57341 0.48079 0.0
O171 O 0.05935 0.44435 0.5259 0.0
O172 O 0.08278 0.52646 0.48593 0.0
C173 C 0.94082 0.53438 0.52144 0.0
C174 C 0.11023 0.49295 0.78574 0.0
C175 C 0.96482 0.47583 0.84684 0.0
C176 C 0.02639 0.59778 0.79893 0.0
C177 C 0.0317 0.42462 0.51558 0.0
C178 C 0.07398 0.55656 0.44912 0.0
O179 O 0.94904 0.502 0.53927 0.0
C180 C 0.17771 0.97029 0.40031 0.0
C181 C 0.19576 1.00263 0.37485 0.0
C182 C 0.14932 0.03727 0.45976 0.0
C183 C 0.13229 1.00469 0.49089 0.0
N184 N 0.13256 0.94017 0.50418 0.0
N185 N 0.203 0.06635 0.39411 0.0
C186 C 0.14708 0.97112 0.46452 0.0
C187 C 0.18267 0.03604 0.40801 0.0
N188 N 0.18988 0.93881 0.36119 0.0
N189 N 0.13309 0.06927 0.47658 0.0
H190 H 0.22751 0.06617 0.35644 0.0
H191 H 0.19695 0.09104 0.42634 0.0
H192 H 0.10911 0.07134 0.51617 0.0
H193 H 0.1421 0.0935 0.44535 0.0
H194 H 0.17632 0.91436 0.36773 0.0
H195 H 0.21254 0.93774 0.31486 0.0
H196 H 0.14387 0.91506 0.49587 0.0
H197 H 0.11053 0.93987 0.55305 0.0
C198 C 0.53956 0.18132 0.47622 0.0
C199 C 0.51317 0.18993 0.40339 0.0
C200 C 0.48705 0.12949 0.42201 0.0
C201 C 0.51218 0.12175 0.49964 0.0
N202 N 0.5597 0.14133 0.61044 0.0
N203 N 0.45584 0.1758 0.33 0.0
C204 C 0.53762 0.14805 0.52986 0.0
C205 C 0.48531 0.16497 0.38158 0.0
N206 N 0.56717 0.20494 0.49174 0.0
N207 N 0.46477 0.10297 0.38702 0.0
H208 H 0.4519 0.20229 0.30804 0.0
H209 H 0.43334 0.15957 0.32009 0.0
H210 H 0.46437 0.07705 0.41729 0.0
H211 H 0.44865 0.10595 0.32296 0.0
H212 H 0.58949 0.1991 0.53515 0.0
H213 H 0.56896 0.22979 0.45486 0.0
H214 H 0.57613 0.16069 0.64379 0.0
H215 H 0.56 0.11677 0.64892 0.0
C216 C 0.34867 0.56003 0.41118 0.0
C217 C 0.32556 0.53045 0.39353 0.0
C218 C 0.36562 0.49109 0.48826 0.0
C219 C 0.38758 0.52126 0.51215 0.0
N220 N 0.39789 0.58532 0.50826 0.0
N221 N 0.30812 0.46937 0.4286 0.0
C222 C 0.37862 0.55601 0.47641 0.0
C223 C 0.33303 0.4963 0.43533 0.0
N224 N 0.34212 0.59186 0.36327 0.0
N225 N 0.37646 0.45739 0.51345 0.0
H226 H 0.28385 0.47266 0.39171 0.0
H227 H 0.31015 0.44489 0.4665 0.0
H228 H 0.39997 0.4526 0.55291 0.0
H229 H 0.36365 0.43407 0.48852 0.0
H230 H 0.35968 0.61371 0.3633 0.0
H231 H 0.32 0.59545 0.31655 0.0
H232 H 0.39075 0.61167 0.49346 0.0
H233 H 0.41978 0.58353 0.55668 0.0
C234 C 0.05363 0.35368 0.31503 0.0
C235 C 0.03761 0.32272 0.36042 0.0
C236 C 0.02365 0.35766 0.51426 0.0
C237 C 0.03449 0.38954 0.46253 0.0
N238 N 0.05472 0.41857 0.30642 0.0
N239 N 1.00512 0.29538 0.49986 0.0
C240 C 0.04809 0.38778 0.36078 0.0
C241 C 0.0221 0.32486 0.45929 0.0
N242 N 0.07617 0.35048 0.2334 0.0
N243 N 0.01636 0.35836 0.61703 0.0
H244 H 1.00433 0.27059 0.46289 0.0
H245 H 0.98964 0.29613 0.56619 0.0
H246 H 0.01824 0.38164 0.66094 0.0
H247 H 0.01188 0.33535 0.66091 0.0
H248 H 0.09077 0.37204 0.20318 0.0
H249 H 0.08409 0.3258 0.20488 0.0
H250 H 0.06121 0.41865 0.22868 0.0
H251 H 0.05043 0.44409 0.33609 0.0
C252 C 0.82171 0.03208 0.8508 0.0
C253 C 0.81885 0.01664 0.94986 0.0
C254 C 0.88176 1.00105 0.94252 0.0
C255 C 0.88374 0.01342 0.83945 0.0
N256 N 0.85293 0.03351 0.68819 0.0
N257 N 0.84348 0.97481 0.07216 0.0
C258 C 0.85298 0.02708 0.79141 0.0
C259 C 0.84806 0.99788 -0.00844 0.0
N260 N 0.79434 0.05192 0.81376 0.0
N261 N 0.91203 0.99322 -0.00502 0.0
H262 H 0.81863 0.96765 0.10175 0.0
H263 H 0.86376 0.95866 0.09936 0.0
H264 H 0.93741 0.99644 0.96354 0.0
H265 H 0.91202 0.98733 0.07314 0.0
H266 H 0.79623 0.06724 0.74701 0.0
H267 H 0.77059 0.05522 0.85404 0.0
H268 H 0.83013 0.04002 0.64763 0.0
H269 H 0.87477 0.02883 0.64093 0.0
C270 C 0.52572 0.81347 0.9091 0.0
C271 C 0.49997 0.81154 -0.0117 0.0
C272 C 0.48536 0.87464 0.96004 0.0
C273 C 0.50915 0.87581 0.87519 0.0
N274 N 0.54925 0.84557 0.76079 0.0
N275 N 0.45047 0.83746 0.07696 0.0
C276 C 0.52883 0.84505 0.84778 0.0
C277 C 0.47858 0.84144 0.01106 0.0
N278 N 0.54758 0.78503 0.8942 0.0
N279 N 0.46991 0.90547 -0.00668 0.0
H280 H 0.4442 0.81318 0.11311 0.0
H281 H 0.43147 0.85706 0.08832 0.0
H282 H 0.47444 0.93032 0.95828 0.0
H283 H 0.4551 0.90707 0.0607 0.0
H284 H 0.56943 0.78559 0.84499 0.0
H285 H 0.54524 0.76145 0.9372 0.0
H286 H 0.56126 0.82298 0.73042 0.0
H287 H 0.5523 0.86823 0.71436 0.0
C288 C 0.66929 0.48883 0.03423 0.0
C289 C 0.69758 0.50905 -0.01053 0.0
C290 C 0.6574 0.53148 0.85695 0.0
C291 C 0.62858 0.51298 0.90529 0.0
N292 N 0.60551 0.47949 0.05007 0.0
N293 N 0.71861 0.55291 0.8682 0.0
C294 C 0.63406 0.49329 -0.00284 0.0
C295 C 0.69151 0.53139 0.90375 0.0
N296 N 0.6764 0.4638 0.10765 0.0
N297 N 0.65259 0.54763 0.76389 0.0
H298 H 0.74395 0.55283 0.90052 0.0
H299 H 0.71545 0.57268 0.81265 0.0
H300 H 0.62808 0.54826 0.727 0.0
H301 H 0.67328 0.55817 0.71935 0.0
H302 H 0.65752 0.44553 0.13578 0.0
H303 H 0.70201 0.45913 0.1341 0.0
H304 H 0.60742 0.46801 0.12267 0.0
H305 H 0.57937 0.48232 0.02534 0.0
C306 C 1.00155 0.68501 0.93006 0.0
C307 C 0.03546 0.69779 0.96117 0.0
C308 C 0.06365 0.64589 0.88154 0.0
C309 C 0.02947 0.63185 0.85652 0.0
N310 N 0.96565 0.63477 0.86985 0.0
N311 N 0.09825 0.68998 0.97731 0.0
C312 C 0.9983 0.65048 0.88454 0.0
C313 C 0.06637 0.67806 0.93968 0.0
N314 N 0.97284 0.70675 0.93916 0.0
N315 N 0.09342 0.62914 0.84655 0.0
H316 H 0.1008 0.71382 0.0186 0.0
H317 H 0.12153 0.67533 0.97415 0.0
H318 H 0.09245 0.60542 0.80437 0.0
H319 H 0.11902 0.63982 0.85303 0.0
H320 H 0.94799 0.70062 0.90851 0.0
H321 H 0.97466 0.73252 0.96973 0.0
H322 H 0.94212 0.6452 0.89854 0.0
H323 H 0.96229 0.60967 0.83578 0.0
C324 C 0.97661 0.13633 0.24613 0.0
C325 C 0.00971 0.15357 0.26814 0.0
C326 C 0.02176 0.10913 0.40005 0.0
C327 C 0.99071 0.08956 0.37003 0.0
N328 N 0.93997 0.08219 0.26055 0.0
N329 N 0.06647 0.15348 0.35352 0.0
C330 C 0.9684 0.10253 0.29197 0.0
C331 C 0.03296 0.13932 0.34204 0.0
N332 N 0.95289 0.15274 0.18306 0.0
N333 N 0.04007 0.09955 0.48606 0.0
H334 H 0.07582 0.1759 0.31309 0.0
H335 H 0.08604 0.14126 0.39704 0.0
H336 H 0.03401 0.07683 0.52988 0.0
H337 H 0.05957 0.11588 0.5191 0.0
H338 H 0.92713 0.14319 0.17072 0.0
H339 H 0.95797 0.17772 0.14934 0.0
H340 H 0.92462 0.08833 0.1969 0.0
H341 H 0.93329 0.05756 0.29425 0.0
C342 C 0.38143 0.95373 0.28046 0.0
C343 C 0.36475 0.9872 0.29672 0.0
C344 C 0.4089 1.00357 0.42455 0.0
C345 C 0.42825 0.97237 0.39851 0.0
N346 N 0.43464 0.91825 0.30096 0.0
N347 N 0.36497 0.04626 0.37218 0.0
C348 C 0.4149 0.94737 0.32659 0.0
C349 C 0.37895 0.01268 0.36596 0.0
N350 N 0.36496 0.92816 0.22175 0.0
N351 N 0.41847 0.02398 0.50735 0.0
H352 H 0.34255 0.05408 0.33166 0.0
H353 H 0.37729 0.06733 0.41133 0.0
H354 H 0.44054 0.01887 0.55275 0.0
H355 H 0.40273 0.0443 0.53673 0.0
H356 H 0.37416 0.90217 0.21317 0.0
H357 H 0.34031 0.93212 0.18753 0.0
H358 H 0.42803 0.90056 0.24229 0.0
H359 H 0.45907 0.91293 0.33488 0.0
C360 C 0.50238 0.37097 0.40146 0.0
C361 C 0.53132 0.36069 0.33854 0.0
C362 C 0.56666 0.41239 0.398 0.0
C363 C 0.53675 0.42394 0.45441 0.0
N364 N 0.47469 0.41744 0.50127 0.0
N365 N 0.58967 0.37223 0.26802 0.0
C366 C 0.50423 0.40407 0.45388 0.0
C367 C 0.56321 0.38154 0.33445 0.0
N368 N 0.47306 0.34897 0.41142 0.0
N369 N 0.59828 0.43065 0.40658 0.0
H370 H 0.58848 0.34887 0.22421 0.0
H371 H 0.61192 0.3883 0.25252 0.0
H372 H 0.60102 0.45399 0.44998 0.0
H373 H 0.6221 0.42181 0.37554 0.0
H374 H 0.45339 0.35252 0.46664 0.0
H375 H 0.46927 0.32545 0.36976 0.0
H376 H 0.44919 0.40674 0.49214 0.0
H377 H 0.4748 0.44099 0.54415 0.0
C378 C 0.1298 0.53536 0.24037 0.0
C379 C 0.15952 0.55894 0.25509 0.0
C380 C 0.12473 0.59272 0.37993 0.0
C381 C 0.09553 0.56922 0.36193 0.0
N382 N 0.06582 0.52873 0.2477 0.0
N383 N 0.18172 0.61578 0.31857 0.0
C384 C 0.09648 0.54507 0.27975 0.0
C385 C 0.15586 0.58971 0.31811 0.0
N386 N 0.1339 0.50209 0.19864 0.0
N387 N 0.12335 0.61625 0.45963 0.0
H388 H 0.20446 0.61444 0.27277 0.0
H389 H 0.17906 0.63999 0.3573 0.0
H390 H 0.10023 0.61952 0.50293 0.0
H391 H 0.14527 0.63121 0.48454 0.0
H392 H 0.11319 0.48328 0.19365 0.0
H393 H 0.15869 0.49145 0.18214 0.0
H394 H 0.06477 0.51199 0.18383 0.0
H395 H 0.04122 0.53511 0.27975 0.0
C396 C 0.01908 0.89528 0.07994 0.0
C397 C 0.04694 0.87003 0.07279 0.0
C398 C 0.0775 0.90896 0.9477 0.0
C399 C 0.05025 0.93449 0.95998 0.0
N400 N 1.00289 0.95746 0.06335 0.0
N401 N 0.10671 0.85687 0.01846 0.0
C402 C 0.02413 0.92961 0.0366 0.0
C403 C 0.0776 0.87816 0.0127 0.0
N404 N 0.98672 0.88569 0.12057 0.0
N405 N 0.10194 0.91304 0.87077 0.0
H406 H 0.10758 0.83433 0.06588 0.0
H407 H 0.13086 0.86333 0.98311 0.0
H408 H 0.10322 0.93582 0.82428 0.0
H409 H 0.11971 0.89313 0.85026 0.0
H410 H 0.9649 0.90256 0.11973 0.0
H411 H 0.98027 0.85956 0.14326 0.0
H412 H 0.98486 0.95604 0.12421 0.0
H413 H 0.00626 0.98298 0.0311 0.0
C414 C 0.62471 0.06509 0.08805 0.0
C415 C 0.65662 0.05185 0.0434 0.0
C416 C 0.62882 0.05851 0.87646 0.0
C417 C 0.59519 0.05784 0.92369 0.0
N418 N 0.56028 0.0645 0.07701 0.0
N419 N 0.68527 0.03042 0.88687 0.0
C420 C 0.59272 0.0632 0.03041 0.0
C421 C 0.65838 0.04812 0.93469 0.0
N422 N 0.62503 0.07883 0.18482 0.0
N423 N 0.63177 0.06576 0.77442 0.0
H424 H 0.7045 0.0159 0.9251 0.0
H425 H 0.68544 0.02581 0.8081 0.0
H426 H 0.6096 0.07209 0.73034 0.0
H427 H 0.65641 0.06938 0.73864 0.0
H428 H 0.60291 0.09062 0.21832 0.0
H429 H 0.64852 0.08162 0.22656 0.0
H430 H 0.55708 0.06451 0.15641 0.0
H431 H 0.53668 0.06412 0.03531 0.0
C432 C 0.4325 0.64165 0.06866 0.0
C433 C 0.46261 0.64547 0.13338 0.0
C434 C 0.47592 0.58237 0.10577 0.0
C435 C 0.45244 0.58158 0.02238 0.0
N436 N 0.40687 0.60993 0.92369 0.0
N437 N 0.51791 0.62015 0.19366 0.0
C438 C 0.42962 0.6108 0.00478 0.0
C439 C 0.48545 0.61581 0.14828 0.0
N440 N 0.40683 0.6671 0.06871 0.0
N441 N 0.49142 0.55144 0.13741 0.0
H442 H 0.52846 0.64513 0.21389 0.0
H443 H 0.53629 0.59961 0.1988 0.0
H444 H 0.48504 0.52676 0.10385 0.0
H445 H 0.50737 0.5501 0.20243 0.0
H446 H 0.38301 0.66417 0.02895 0.0
H447 H 0.40799 0.68957 0.11611 0.0
H448 H 0.39271 0.63214 0.89928 0.0
H449 H 0.4034 0.58709 0.87858 0.0
C450 C 0.88508 0.4497 0.01353 0.0
C451 C 0.86832 0.48343 0.0204 0.0
C452 C 0.91322 0.51044 0.90698 0.0
C453 C 0.93218 0.47778 0.90912 0.0
N454 N 0.93778 0.4166 0.96428 0.0
N455 N 0.86794 0.547 0.98375 0.0
C456 C 0.91844 0.4473 0.96183 0.0
C457 C 0.8826 0.51402 0.96902 0.0
N458 N 0.86884 0.42019 0.05632 0.0
N459 N 0.92394 0.53786 0.84324 0.0
H460 H 0.84446 0.55091 0.02466 0.0
H461 H 0.88025 0.57097 0.96117 0.0
H462 H 0.94677 0.53715 0.79773 0.0
H463 H 0.90858 0.56025 0.82837 0.0
H464 H 0.87802 0.39417 0.04846 0.0
H465 H 0.84441 0.42152 0.09421 0.0
H466 H 0.93103 0.39418 0.00824 0.0
H467 H 0.96206 0.41429 0.92606 0.0
C468 C 0.00725 0.18775 0.8849 0.0
C469 C 0.04065 0.1958 0.92638 0.0
C470 C 0.06583 0.14788 0.82239 0.0
C471 C 0.03104 0.13286 0.81032 0.0
N472 N 0.9679 0.13783 0.85032 0.0
N473 N 0.10341 0.18655 0.92725 0.0
C474 C 1.00115 0.15303 0.84389 0.0
C475 C 0.0707 0.17732 0.89047 0.0
N476 N 0.98098 0.21192 0.89867 0.0
N477 N 0.09383 0.13449 0.76865 0.0
H478 H 0.10702 0.20875 0.97499 0.0
H479 H 0.12607 0.17153 0.91375 0.0
H480 H 0.09073 0.1144 0.71379 0.0
H481 H 0.1192 0.14608 0.77026 0.0
H482 H 0.95549 0.20887 0.86848 0.0
H483 H 0.95549 0.20887 0.86848 0.0
H484 H 0.94643 0.15075 0.88377 0.0
H485 H 0.96242 0.11082 0.83687 0.0
C486 C 0.33601 0.98552 0.90984 0.0
C487 C 0.32645 0.01847 0.95318 0.0
C488 C 0.37387 0.04771 0.85254 0.0
C489 C 0.38991 0.0137 0.83811 0.0
N490 N 0.38685 0.94948 0.87431 0.0
N491 N 0.33385 0.0823 0.95908 0.0
C492 C 0.37081 0.9821 0.86991 0.0
C493 C 0.34415 0.05019 0.92023 0.0
N494 N 0.31355 0.95668 0.91976 0.0
N495 N 0.38636 0.07722 0.80088 0.0
H496 H 0.31143 0.08425 0.00616 0.0
H497 H 0.3482 0.10613 0.94792 0.0
H498 H 0.40653 0.07589 0.74602 0.0
H499 H 0.37399 0.102 0.80404 0.0
H500 H 0.31844 0.93204 0.88523 0.0
H501 H 0.28856 0.95908 0.95408 0.0
H502 H 0.37428 0.92668 0.90458 0.0
H503 H 0.41392 0.94591 0.86228 0.0
C504 C 0.49302 0.33106 0.92201 0.0
C505 C 0.47534 0.32909 0.0175 0.0
C506 C 0.44586 0.38593 0.98378 0.0
C507 C 0.46718 0.39028 0.89411 0.0
N508 N 0.49784 0.36064 0.75644 0.0
N509 N 0.42463 0.34514 0.11756 0.0
C510 C 0.48613 0.36042 0.85566 0.0
C511 C 0.4475 0.35302 0.03896 0.0
N512 N 0.51821 0.30645 0.89861 0.0
N513 N 0.42674 0.41379 0.02172 0.0
H514 H 0.4267 0.32139 0.15964 0.0
H515 H 0.40217 0.36009 0.13392 0.0
H516 H 0.4245 0.43836 0.98471 0.0
H517 H 0.41446 0.41319 0.09339 0.0
H518 H 0.53525 0.30882 0.83573 0.0
H519 H 0.52264 0.28417 0.94516 0.0
H520 H 0.50975 0.33873 0.72178 0.0
H521 H 0.49215 0.38159 0.7061 0.0
C522 C 0.20169 0.52673 0.86809 0.0
C523 C 0.20671 0.50457 0.95412 0.0
C524 C 0.1562 0.46653 0.90155 0.0
C525 C 0.14614 0.49385 0.83228 0.0
N526 N 0.15994 0.54976 0.74459 0.0
N527 N 0.1944 0.44936 0.04297 0.0
C528 C 0.16961 0.52341 0.81159 0.0
C529 C 0.18631 0.47248 0.96554 0.0
N530 N 0.22692 0.55226 0.84565 0.0
N531 N 0.13676 0.4353 0.90618 0.0
H532 H 0.21725 0.45274 0.08709 0.0
H533 H 0.17856 0.42751 0.06484 0.0
H534 H 0.11467 0.43059 0.85971 0.0
H535 H 0.14369 0.41318 0.95007 0.0
H536 H 0.22663 0.56817 0.77998 0.0
H537 H 0.24997 0.55486 0.88956 0.0
H538 H 0.17413 0.57372 0.73483 0.0
H539 H 0.13642 0.54894 0.70279 0.0
C540 C 0.02357 0.82781 0.47239 0.0
C541 C 1.00205 0.81965 0.38711 0.0
C542 C 0.96197 0.86839 0.42941 0.0
C543 C 0.98667 0.88021 0.50392 0.0
N544 N 0.03473 0.86639 0.61896 0.0
N545 N 0.94467 0.82159 0.30899 0.0
C546 C 0.01513 0.8579 0.5342 0.0
C547 C 0.96868 0.83608 0.37572 0.0
N548 N 0.05365 0.80852 0.48722 0.0
N549 N 0.93339 0.88904 0.40669 0.0
H550 H 0.94989 0.798 0.26918 0.0
H551 H 0.91897 0.83094 0.29967 0.0
H552 H 0.92741 0.91212 0.44804 0.0
H553 H 0.91632 0.88405 0.34565 0.0
H554 H 0.07313 0.8148 0.54083 0.0
H555 H 0.05907 0.78597 0.44275 0.0
H556 H 0.05446 0.85021 0.64875 0.0
H557 H 0.0297 0.88876 0.66421 0.0
C558 C 0.66127 0.94871 0.32505 0.0
C559 C 0.68693 0.97626 0.34253 0.0
C560 C 0.66112 0.98811 0.51088 0.0
C561 C 0.63195 0.96515 0.4856 0.0
N562 N 0.60858 0.91617 0.38646 0.0
N563 N 0.71968 0.0116 0.4645 0.0
C564 C 0.63375 0.94259 0.39869 0.0
C565 C 0.68989 0.99204 0.4405 0.0
N566 N 0.66237 0.93039 0.23463 0.0
N567 N 0.65993 0.00838 0.59779 0.0
H568 H 0.74084 0.01503 0.41357 0.0
H569 H 0.72513 0.02141 0.53743 0.0
H570 H 0.6401 1.00543 0.65317 0.0
H571 H 0.67789 0.02909 0.61353 0.0
H572 H 0.64316 0.91191 0.21091 0.0
H573 H 0.68329 0.93413 0.18255 0.0
H574 H 0.60845 0.89775 0.3268 0.0
H575 H 0.58866 0.91138 0.44104 0.0
C576 C 0.49115 0.68994 0.52379 0.0
C577 C 0.51343 0.69621 0.43848 0.0
C578 C 0.55301 0.64867 0.4959 0.0
C579 C 0.52591 0.63673 0.56396 0.0
N580 N 0.47018 0.64718 0.65142 0.0
N581 N 0.56924 0.68767 0.35287 0.0
C582 C 0.49573 0.65834 0.58306 0.0
C583 C 0.54623 0.67821 0.42987 0.0
N584 N 0.46448 0.71338 0.543 0.0
N585 N 0.58472 0.63133 0.49399 0.0
H586 H 0.56522 0.71017 0.30697 0.0
H587 H 0.59171 0.67329 0.33324 0.0
H588 H 0.58991 0.60969 0.54234 0.0
H589 H 0.60663 0.63974 0.45084 0.0
H590 H 0.44818 0.71215 0.6076 0.0
H591 H 0.46109 0.73612 0.49725 0.0
H592 H 0.44581 0.65964 0.6603 0.0
H593 H 0.47247 0.62425 0.69658 0.0
C594 C 0.86848 0.56178 0.3335 0.0
C595 C 0.8441 0.53334 0.35359 0.0
C596 C 0.87566 0.52037 0.512 0.0
C597 C 0.90531 0.54091 0.47514 0.0
N598 N 0.92943 0.58241 0.34821 0.0
N599 N 0.82173 0.48754 0.46714 0.0
C600 C 0.90132 0.563 0.38694 0.0
C601 C 0.84631 0.51386 0.44609 0.0
N602 N 0.86096 0.58589 0.25811 0.0
N603 N 0.87583 0.50704 0.60958 0.0
H604 H 0.79939 0.48337 0.42131 0.0
H605 H 0.82423 0.46925 0.52706 0.0
H606 H 0.89666 0.51229 0.6601 0.0
H607 H 0.85398 0.49412 0.64334 0.0
H608 H 0.87633 0.60885 0.24368 0.0
H609 H 0.83716 0.5844 0.21729 0.0
H610 H 0.92881 0.59543 0.27754 0.0
H611 H 0.95435 0.58362 0.38222 0.0
loop_
_geom_bond_atom_site_label_1
_geom_bond_atom_site_label_2
_geom_bond_distance
_geom_bond_site_symmetry_2
_ccdc_geom_bond_type
H0 C5 0.929 . S
H1 C10 0.931 . S
H2 C8 0.930 . S
N3 N4 1.234 1_554 S
N3 C7 1.453 . S
N4 N3 1.234 1_556 S
C5 H0 0.929 . S
C5 C6 1.373 . S
C5 C7 1.368 . S
C6 C5 1.373 . S
C6 C10 1.397 . S
C7 N3 1.453 . S
C7 C5 1.368 . S
C7 C8 1.373 1_554 S
C8 H2 0.930 . S
C8 C7 1.373 1_556 S
C8 C9 1.371 . S
C9 C8 1.371 . S
C9 C10 1.383 1_556 S
C10 H1 0.931 . S
C10 C6 1.397 . S
C10 C9 1.383 1_554 S
H11 C16 0.929 . S
H12 C21 0.931 . S
H13 C19 0.930 1_556 S
N14 N15 1.234 1_455 S
N14 C18 1.453 . S
N15 N14 1.234 1_655 S
C16 H11 0.929 . S
C16 C17 1.373 . S
C16 C18 1.368 . S
C17 C16 1.373 . S
C17 C21 1.397 1_455 S
C18 N14 1.453 . S
C18 C16 1.368 . S
C18 C19 1.373 . S
C19 H13 0.930 1_554 S
C19 C18 1.373 . S
C19 C20 1.371 . S
C20 C19 1.371 . S
C20 C21 1.383 1_455 S
C21 H12 0.931 . S
C21 C17 1.397 1_655 S
C21 C20 1.383 1_655 S
H22 C27 0.929 . S
H23 C32 0.931 . S
H24 C30 0.938 . S
N25 N26 1.240 1_545 S
N25 C29 1.453 . S
N26 N25 1.240 1_565 S
C27 H22 0.929 . S
C27 C28 1.373 . S
C27 C29 1.368 . S
C28 C27 1.373 . S
C28 C32 1.397 1_545 S
C29 N25 1.453 . S
C29 C27 1.368 . S
C29 C30 1.365 1_554 S
C30 H24 0.938 . S
C30 C29 1.365 1_556 S
C30 C31 1.370 1_556 S
C31 C30 1.370 1_554 S
C31 C32 1.383 1_545 S
C32 H23 0.931 . S
C32 C28 1.397 1_565 S
C32 C31 1.383 1_565 S
H33 C38 0.929 . S
H34 C43 0.931 . S
H35 C41 0.930 . S
N36 N37 1.234 1_554 S
N36 C40 1.453 . S
N37 N36 1.234 1_556 S
C38 H33 0.929 . S
C38 C39 1.373 . S
C38 C40 1.368 . S
C39 C38 1.373 . S
C39 C43 1.397 . S
C40 N36 1.453 . S
C40 C38 1.368 . S
C40 C41 1.373 1_554 S
C41 H35 0.930 . S
C41 C40 1.373 1_556 S
C41 C42 1.371 . S
C42 C41 1.371 . S
C42 C43 1.383 1_556 S
C43 H34 0.931 . S
C43 C39 1.397 . S
C43 C42 1.383 1_554 S
H44 C49 0.929 . S
H45 C54 0.931 . S
H46 C52 0.930 . S
N47 N48 1.234 . S
N47 C51 1.453 . S
N48 N47 1.234 . S
C49 H44 0.929 . S
C49 C50 1.373 . S
C49 C51 1.368 . S
C50 C49 1.373 . S
C50 C54 1.397 . S
C51 N47 1.453 . S
C51 C49 1.368 . S
C51 C52 1.373 . S
C52 H46 0.930 . S
C52 C51 1.373 . S
C52 C53 1.371 . S
C53 C52 1.371 . S
C53 C54 1.383 . S
C54 H45 0.931 . S
C54 C50 1.397 . S
C54 C53 1.383 . S
H55 C60 0.929 . S
H56 C65 0.931 . S
H57 C63 0.930 . S
N58 N59 1.234 . S
N58 C62 1.453 . S
N59 N58 1.234 . S
C60 H55 0.929 . S
C60 C61 1.373 . S
C60 C62 1.368 . S
C61 C60 1.373 . S
C61 C65 1.397 . S
C62 N58 1.453 . S
C62 C60 1.368 . S
C62 C63 1.373 . S
C63 H57 0.930 . S
C63 C62 1.373 . S
C63 C64 1.371 . S
C64 C63 1.371 . S
C64 C65 1.383 . S
C65 H56 0.931 . S
C65 C61 1.397 . S
C65 C64 1.383 . S
H66 C71 0.929 . S
H67 C76 0.931 . S
H68 C74 0.930 . S
N69 N70 1.234 . S
N69 C73 1.453 . S
N70 N69 1.234 . S
C71 H66 0.929 . S
C71 C72 1.373 . S
C71 C73 1.368 . S
C72 C71 1.373 . S
C72 C76 1.397 . S
C73 N69 1.453 . S
C73 C71 1.368 . S
C73 C74 1.373 . S
C74 H68 0.930 . S
C74 C73 1.373 . S
C74 C75 1.371 . S
C75 C74 1.371 . S
C75 C76 1.383 . S
C76 H67 0.931 . S
C76 C72 1.397 . S
C76 C75 1.383 . S
H77 C82 0.929 . S
H78 C87 0.931 . S
H79 C85 0.930 . S
N80 N81 1.234 . S
N80 C84 1.453 . S
N81 N80 1.234 . S
C82 H77 0.929 . S
C82 C83 1.373 . S
C82 C84 1.368 . S
C83 C82 1.373 . S
C83 C87 1.397 . S
C84 N80 1.453 . S
C84 C82 1.368 . S
C84 C85 1.373 . S
C85 H79 0.930 . S
C85 C84 1.373 . S
C85 C86 1.371 . S
C86 C85 1.371 . S
C86 C87 1.383 . S
C87 H78 0.931 . S
C87 C83 1.397 . S
C87 C86 1.383 . S
O88 Zn89 1.955 . S
O88 C104 1.225 1_545 S
Zn89 O88 1.955 . S
Zn89 O90 1.948 1_545 S
Zn89 O96 1.939 . S
Zn89 O101 1.900 1_545 S
O90 Zn89 1.948 1_565 S
O90 Zn91 1.899 1_465 S
O90 Zn92 1.952 . S
O90 Zn93 1.967 1_455 S
Zn91 O90 1.899 1_645 S
Zn91 O94 1.933 . S
Zn91 O97 1.941 1_655 S
Zn91 O98 1.965 . S
Zn92 O90 1.952 . S
Zn92 O99 1.938 1_565 S
Zn92 O100 1.906 . S
Zn92 O110 1.953 . S
Zn93 O90 1.967 1_655 S
Zn93 O95 1.932 . S
Zn93 O102 1.977 . S
Zn93 O103 1.910 1_655 S
O94 Zn91 1.933 . S
O94 C105 1.226 . S
O95 Zn93 1.932 . S
O95 C105 1.307 1_565 S
O96 Zn89 1.939 . S
O96 C107 1.253 . S
O97 Zn91 1.941 1_455 S
O97 C107 1.283 . S
O98 Zn91 1.965 . S
O98 C106 1.303 1_655 S
O99 Zn92 1.938 1_545 S
O99 C106 1.247 . S
O100 Zn92 1.906 . S
O100 C108 1.304 1_455 S
O101 Zn89 1.900 1_565 S
O101 C109 1.311 . S
O102 Zn93 1.977 . S
O102 C108 1.272 . S
O103 Zn93 1.910 1_455 S
O103 C109 1.231 . S
C104 O88 1.225 1_565 S
C104 O110 1.298 . S
C105 O94 1.226 . S
C105 O95 1.307 1_545 S
C106 O98 1.303 1_455 S
C106 O99 1.247 . S
C107 O96 1.253 . S
C107 O97 1.283 . S
C108 O100 1.304 1_655 S
C108 O102 1.272 . S
C109 O101 1.311 . S
C109 O103 1.231 . S
O110 Zn92 1.953 . S
O110 C104 1.298 . S
O111 Zn112 1.953 . S
O111 C127 1.225 . S
Zn112 O111 1.953 . S
Zn112 O113 1.949 . S
Zn112 O119 1.919 . S
Zn112 O124 1.924 . S
O113 Zn112 1.949 . S
O113 Zn114 1.923 1_545 S
O113 Zn115 1.950 . S
O113 Zn116 1.945 1_545 S
Zn114 O113 1.923 1_565 S
Zn114 O117 1.933 . S
Zn114 O120 1.941 . S
Zn114 O121 1.965 . S
Zn115 O113 1.950 . S
Zn115 O122 1.938 . S
Zn115 O123 1.906 . S
Zn115 O133 1.953 . S
Zn116 O113 1.945 1_565 S
Zn116 O118 1.932 . S
Zn116 O125 1.977 . S
Zn116 O126 1.910 1_565 S
O117 Zn114 1.933 . S
O117 C128 1.226 . S
O118 Zn116 1.932 . S
O118 C128 1.307 . S
O119 Zn112 1.919 . S
O119 C130 1.253 . S
O120 Zn114 1.941 . S
O120 C130 1.283 1_565 S
O121 Zn114 1.965 . S
O121 C129 1.303 1_565 S
O122 Zn115 1.938 . S
O122 C129 1.247 . S
O123 Zn115 1.906 . S
O123 C131 1.304 1_545 S
O124 Zn112 1.924 . S
O124 C132 1.311 . S
O125 Zn116 1.977 . S
O125 C131 1.272 . S
O126 Zn116 1.910 1_545 S
O126 C132 1.231 . S
C127 O111 1.225 . S
C127 O133 1.298 . S
C128 O117 1.226 . S
C128 O118 1.307 . S
C129 O121 1.303 1_545 S
C129 O122 1.247 . S
C130 O119 1.253 . S
C130 O120 1.283 1_545 S
C131 O123 1.304 1_565 S
C131 O125 1.272 . S
C132 O124 1.311 . S
C132 O126 1.231 . S
O133 Zn115 1.953 . S
O133 C127 1.298 . S
O134 Zn135 1.953 . S
O134 C150 1.225 . S
Zn135 O134 1.953 . S
Zn135 O136 1.949 . S
Zn135 O142 1.919 . S
Zn135 O147 1.924 . S
O136 Zn135 1.949 . S
O136 Zn137 1.923 . S
O136 Zn138 1.950 . S
O136 Zn139 1.945 . S
Zn137 O136 1.923 . S
Zn137 O140 1.933 . S
Zn137 O143 1.941 . S
Zn137 O144 1.965 . S
Zn138 O136 1.950 . S
Zn138 O145 1.938 . S
Zn138 O146 1.906 . S
Zn138 O156 1.953 . S
Zn139 O136 1.945 . S
Zn139 O141 1.932 . S
Zn139 O148 1.977 . S
Zn139 O149 1.910 . S
O140 Zn137 1.933 . S
O140 C151 1.226 . S
O141 Zn139 1.932 . S
O141 C151 1.307 . S
O142 Zn135 1.919 . S
O142 C153 1.253 . S
O143 Zn137 1.941 . S
O143 C153 1.283 . S
O144 Zn137 1.965 . S
O144 C152 1.303 . S
O145 Zn138 1.938 . S
O145 C152 1.247 . S
O146 Zn138 1.906 . S
O146 C154 1.304 . S
O147 Zn135 1.924 . S
O147 C155 1.311 . S
O148 Zn139 1.977 . S
O148 C154 1.272 . S
O149 Zn139 1.910 . S
O149 C155 1.231 . S
C150 O134 1.225 . S
C150 O156 1.298 . S
C151 O140 1.226 . S
C151 O141 1.307 . S
C152 O144 1.303 . S
C152 O145 1.247 . S
C153 O142 1.253 . S
C153 O143 1.283 . S
C154 O146 1.304 . S
C154 O148 1.272 . S
C155 O147 1.311 . S
C155 O149 1.231 . S
O156 Zn138 1.953 . S
O156 C150 1.298 . S
O157 Zn158 1.953 1_655 S
O157 C173 1.225 . S
Zn158 O157 1.953 1_455 S
Zn158 O159 1.949 . S
Zn158 O165 1.919 . S
Zn158 O170 1.924 . S
O159 Zn158 1.949 . S
O159 Zn160 1.917 1_455 S
O159 Zn161 1.929 1_455 S
O159 Zn162 1.973 . S
Zn160 O159 1.917 1_655 S
Zn160 O163 1.933 1_655 S
Zn160 O166 1.941 . S
Zn160 O167 1.965 . S
Zn161 O159 1.929 1_655 S
Zn161 O168 1.938 . S
Zn161 O169 1.906 . S
Zn161 O179 1.953 . S
Zn162 O159 1.973 . S
Zn162 O164 1.932 . S
Zn162 O171 1.977 . S
Zn162 O172 1.910 . S
O163 Zn160 1.933 1_455 S
O163 C174 1.226 . S
O164 Zn162 1.932 . S
O164 C174 1.307 . S
O165 Zn158 1.919 . S
O165 C176 1.253 . S
O166 Zn160 1.941 . S
O166 C176 1.284 1_655 S
O167 Zn160 1.965 . S
O167 C175 1.303 . S
O168 Zn161 1.938 . S
O168 C175 1.247 . S
O169 Zn161 1.906 . S
O169 C177 1.304 1_655 S
O170 Zn158 1.924 . S
O170 C178 1.311 . S
O171 Zn162 1.977 . S
O171 C177 1.272 . S
O172 Zn162 1.910 . S
O172 C178 1.231 . S
C173 O157 1.225 . S
C173 O179 1.298 . S
C174 O163 1.226 . S
C174 O164 1.307 . S
C175 O167 1.303 . S
C175 O168 1.247 . S
C176 O165 1.253 . S
C176 O166 1.284 1_455 S
C177 O169 1.304 1_455 S
C177 O171 1.272 . S
C178 O170 1.311 . S
C178 O172 1.231 . S
O179 Zn161 1.953 . S
O179 C173 1.298 . S
C180 C181 1.363 1_565 S
C180 C186 1.379 . S
C180 N188 1.356 . S
C181 C180 1.363 1_545 S
C181 C187 1.363 . S
C182 C183 1.363 1_545 S
C182 C187 1.379 . S
C182 N189 1.356 . S
C183 C182 1.363 1_565 S
C183 C186 1.363 . S
N184 C186 1.356 . S
N184 H196 0.984 . S
N184 H197 0.985 . S
N185 C187 1.356 . S
N185 H190 0.984 . S
N185 H191 0.985 . S
C186 C180 1.379 . S
C186 C183 1.363 . S
C186 N184 1.356 . S
C187 C181 1.363 . S
C187 C182 1.379 . S
C187 N185 1.356 . S
N188 C180 1.356 . S
N188 H194 0.984 . S
N188 H195 0.984 . S
N189 C182 1.356 . S
N189 H192 0.984 . S
N189 H193 0.985 . S
H190 N185 0.984 . S
H191 N185 0.985 . S
H192 N189 0.984 . S
H193 N189 0.985 . S
H194 N188 0.984 . S
H195 N188 0.984 . S
H196 N184 0.984 . S
H197 N184 0.985 . S
C198 C199 1.363 . S
C198 C204 1.379 . S
C198 N206 1.356 . S
C199 C198 1.363 . S
C199 C205 1.363 . S
C200 C201 1.363 . S
C200 C205 1.379 . S
C200 N207 1.356 . S
C201 C200 1.363 . S
C201 C204 1.363 . S
N202 C204 1.356 . S
N202 H214 0.984 . S
N202 H215 0.985 . S
N203 C205 1.356 . S
N203 H208 0.984 . S
N203 H209 0.985 . S
C204 C198 1.379 . S
C204 C201 1.363 . S
C204 N202 1.356 . S
C205 C199 1.363 . S
C205 C200 1.379 . S
C205 N203 1.356 . S
N206 C198 1.356 . S
N206 H212 0.984 . S
N206 H213 0.984 . S
N207 C200 1.356 . S
N207 H210 0.984 . S
N207 H211 0.985 . S
H208 N203 0.984 . S
H209 N203 0.985 . S
H210 N207 0.984 . S
H211 N207 0.985 . S
H212 N206 0.984 . S
H213 N206 0.984 . S
H214 N202 0.984 . S
H215 N202 0.985 . S
C216 C217 1.363 . S
C216 C222 1.379 . S
C216 N224 1.356 . S
C217 C216 1.363 . S
C217 C223 1.363 . S
C218 C219 1.363 . S
C218 C223 1.379 . S
C218 N225 1.356 . S
C219 C218 1.363 . S
C219 C222 1.363 . S
N220 C222 1.356 . S
N220 H232 0.984 . S
N220 H233 0.985 . S
N221 C223 1.356 . S
N221 H226 0.984 . S
N221 H227 0.985 . S
C222 C216 1.379 . S
C222 C219 1.363 . S
C222 N220 1.356 . S
C223 C217 1.363 . S
C223 C218 1.379 . S
C223 N221 1.356 . S
N224 C216 1.356 . S
N224 H230 0.984 . S
N224 H231 0.984 . S
N225 C218 1.356 . S
N225 H228 0.984 . S
N225 H229 0.985 . S
H226 N221 0.984 . S
H227 N221 0.985 . S
H228 N225 0.984 . S
H229 N225 0.985 . S
H230 N224 0.984 . S
H231 N224 0.984 . S
H232 N220 0.984 . S
H233 N220 0.985 . S
C234 C235 1.363 . S
C234 C240 1.379 . S
C234 N242 1.356 . S
C235 C234 1.363 . S
C235 C241 1.363 . S
C236 C237 1.363 . S
C236 C241 1.379 . S
C236 N243 1.356 . S
C237 C236 1.363 . S
C237 C240 1.363 . S
N238 C240 1.356 . S
N238 H250 0.984 . S
N238 H251 0.985 . S
N239 C241 1.356 . S
N239 H244 0.984 . S
N239 H245 0.985 . S
C240 C234 1.379 . S
C240 C237 1.363 . S
C240 N238 1.356 . S
C241 C235 1.363 . S
C241 C236 1.379 . S
C241 N239 1.356 . S
N242 C234 1.356 . S
N242 H248 0.984 . S
N242 H249 0.984 . S
N243 C236 1.356 . S
N243 H246 0.984 . S
N243 H247 0.985 . S
H244 N239 0.984 . S
H245 N239 0.985 . S
H246 N243 0.984 . S
H247 N243 0.985 . S
H248 N242 0.984 . S
H249 N242 0.984 . S
H250 N238 0.984 . S
H251 N238 0.985 . S
C252 C253 1.360 1_545 S
C252 C258 1.379 . S
C252 N260 1.356 . S
C253 C252 1.360 1_565 S
C253 C259 1.366 . S
C254 C255 1.363 1_565 S
C254 C259 1.379 . S
C254 N261 1.356 . S
C255 C254 1.363 1_545 S
C255 C258 1.363 . S
N256 C258 1.356 . S
N256 H268 0.984 . S
N256 H269 0.985 . S
N257 C259 1.356 1_554 S
N257 H262 0.984 . S
N257 H263 0.985 . S
C258 C252 1.379 . S
C258 C255 1.363 . S
C258 N256 1.356 . S
C259 C253 1.366 . S
C259 C254 1.379 . S
C259 N257 1.356 1_556 S
N260 C252 1.356 . S
N260 H266 0.984 . S
N260 H267 0.984 . S
N261 C254 1.356 . S
N261 H264 0.984 . S
N261 H265 0.985 . S
H262 N257 0.984 . S
H263 N257 0.985 . S
H264 N261 0.984 . S
H265 N261 0.985 . S
H266 N260 0.984 . S
H267 N260 0.984 . S
H268 N256 0.984 . S
H269 N256 0.985 . S
C270 C271 1.363 . S
C270 C276 1.379 . S
C270 N278 1.356 . S
C271 C270 1.363 . S
C271 C277 1.363 . S
C272 C273 1.363 . S
C272 C277 1.379 . S
C272 N279 1.356 . S
C273 C272 1.363 . S
C273 C276 1.363 . S
N274 C276 1.356 . S
N274 H286 0.984 . S
N274 H287 0.985 . S
N275 C277 1.356 1_554 S
N275 H280 0.984 . S
N275 H281 0.985 . S
C276 C270 1.379 . S
C276 C273 1.363 . S
C276 N274 1.356 . S
C277 C271 1.363 . S
C277 C272 1.379 . S
C277 N275 1.356 1_556 S
N278 C270 1.356 . S
N278 H284 0.984 . S
N278 H285 0.984 . S
N279 C272 1.356 . S
N279 H282 0.984 . S
N279 H283 0.985 . S
H280 N275 0.984 . S
H281 N275 0.985 . S
H282 N279 0.984 . S
H283 N279 0.985 . S
H284 N278 0.984 . S
H285 N278 0.984 . S
H286 N274 0.984 . S
H287 N274 0.985 . S
C288 C289 1.363 . S
C288 C294 1.379 . S
C288 N296 1.356 . S
C289 C288 1.363 . S
C289 C295 1.363 . S
C290 C291 1.363 . S
C290 C295 1.379 . S
C290 N297 1.356 . S
C291 C290 1.363 . S
C291 C294 1.363 . S
N292 C294 1.356 . S
N292 H304 0.984 . S
N292 H305 0.985 . S
N293 C295 1.356 . S
N293 H298 0.984 . S
N293 H299 0.985 . S
C294 C288 1.379 . S
C294 C291 1.363 . S
C294 N292 1.356 . S
C295 C289 1.363 . S
C295 C290 1.379 . S
C295 N293 1.356 . S
N296 C288 1.356 . S
N296 H302 0.984 . S
N296 H303 0.984 . S
N297 C290 1.356 . S
N297 H300 0.984 . S
N297 H301 0.985 . S
H298 N293 0.984 . S
H299 N293 0.985 . S
H300 N297 0.984 . S
H301 N297 0.985 . S
H302 N296 0.984 . S
H303 N296 0.984 . S
H304 N292 0.984 . S
H305 N292 0.985 . S
C306 C307 1.363 . S
C306 C312 1.379 . S
C306 N314 1.356 . S
C307 C306 1.363 . S
C307 C313 1.363 1_655 S
C308 C309 1.363 . S
C308 C313 1.379 . S
C308 N315 1.356 . S
C309 C308 1.363 . S
C309 C312 1.363 1_455 S
N310 C312 1.356 . S
N310 H322 0.984 . S
N310 H323 0.985 . S
N311 C313 1.356 1_554 S
N311 H316 0.984 . S
N311 H317 0.985 . S
C312 C306 1.379 . S
C312 C309 1.363 1_655 S
C312 N310 1.356 . S
C313 C307 1.363 1_455 S
C313 C308 1.379 . S
C313 N311 1.356 1_556 S
N314 C306 1.356 . S
N314 H320 0.984 . S
N314 H321 0.984 1_556 S
N315 C308 1.356 . S
N315 H318 0.984 . S
N315 H319 0.985 . S
H316 N311 0.984 . S
H317 N311 0.985 . S
H318 N315 0.984 . S
H319 N315 0.985 . S
H320 N314 0.984 . S
H321 N314 0.984 1_554 S
H322 N310 0.984 . S
H323 N310 0.985 . S
C324 C325 1.363 . S
C324 C330 1.379 . S
C324 N332 1.356 . S
C325 C324 1.363 . S
C325 C331 1.363 . S
C326 C327 1.363 . S
C326 C331 1.379 . S
C326 N333 1.356 . S
C327 C326 1.363 . S
C327 C330 1.363 . S
N328 C330 1.356 1_655 S
N328 H340 0.984 . S
N328 H341 0.985 . S
N329 C331 1.356 . S
N329 H334 0.984 . S
N329 H335 0.985 . S
C330 C324 1.379 . S
C330 C327 1.363 . S
C330 N328 1.356 1_455 S
C331 C325 1.363 . S
C331 C326 1.379 . S
C331 N329 1.356 . S
N332 C324 1.356 . S
N332 H338 0.984 . S
N332 H339 0.984 . S
N333 C326 1.356 . S
N333 H336 0.984 . S
N333 H337 0.985 . S
H334 N329 0.984 . S
H335 N329 0.985 . S
H336 N333 0.984 . S
H337 N333 0.985 . S
H338 N332 0.984 . S
H339 N332 0.984 . S
H340 N328 0.984 . S
H341 N328 0.985 . S
C342 C343 1.363 1_565 S
C342 C348 1.379 . S
C342 N350 1.356 . S
C343 C342 1.363 1_545 S
C343 C349 1.363 . S
C344 C345 1.363 . S
C344 C349 1.379 . S
C344 N351 1.356 . S
C345 C344 1.363 . S
C345 C348 1.363 1_545 S
N346 C348 1.356 . S
N346 H358 0.984 . S
N346 H359 0.985 . S
N347 C349 1.356 . S
N347 H352 0.984 . S
N347 H353 0.985 . S
C348 C342 1.379 . S
C348 C345 1.363 1_565 S
C348 N346 1.356 . S
C349 C343 1.363 . S
C349 C344 1.379 . S
C349 N347 1.356 . S
N350 C342 1.356 . S
N350 H356 0.984 . S
N350 H357 0.984 . S
N351 C344 1.356 . S
N351 H354 0.984 . S
N351 H355 0.985 . S
H352 N347 0.984 . S
H353 N347 0.985 . S
H354 N351 0.984 . S
H355 N351 0.985 . S
H356 N350 0.984 . S
H357 N350 0.984 . S
H358 N346 0.984 . S
H359 N346 0.985 . S
C360 C361 1.363 . S
C360 C366 1.379 . S
C360 N368 1.356 . S
C361 C360 1.363 . S
C361 C367 1.363 . S
C362 C363 1.363 . S
C362 C367 1.379 . S
C362 N369 1.356 . S
C363 C362 1.363 . S
C363 C366 1.363 . S
N364 C366 1.356 . S
N364 H376 0.984 . S
N364 H377 0.985 . S
N365 C367 1.356 . S
N365 H370 0.984 . S
N365 H371 0.985 . S
C366 C360 1.379 . S
C366 C363 1.363 . S
C366 N364 1.356 . S
C367 C361 1.363 . S
C367 C362 1.379 . S
C367 N365 1.356 . S
N368 C360 1.356 . S
N368 H374 0.984 . S
N368 H375 0.984 . S
N369 C362 1.356 . S
N369 H372 0.984 . S
N369 H373 0.985 . S
H370 N365 0.984 . S
H371 N365 0.985 . S
H372 N369 0.984 . S
H373 N369 0.985 . S
H374 N368 0.984 . S
H375 N368 0.984 . S
H376 N364 0.984 . S
H377 N364 0.985 . S
C378 C379 1.363 . S
C378 C384 1.379 . S
C378 N386 1.356 . S
C379 C378 1.363 . S
C379 C385 1.363 . S
C380 C381 1.363 . S
C380 C385 1.379 . S
C380 N387 1.356 . S
C381 C380 1.363 . S
C381 C384 1.363 . S
N382 C384 1.356 . S
N382 H394 0.984 . S
N382 H395 0.985 . S
N383 C385 1.356 . S
N383 H388 0.984 . S
N383 H389 0.985 . S
C384 C378 1.379 . S
C384 C381 1.363 . S
C384 N382 1.356 . S
C385 C379 1.363 . S
C385 C380 1.379 . S
C385 N383 1.356 . S
N386 C378 1.356 . S
N386 H392 0.984 . S
N386 H393 0.984 . S
N387 C380 1.356 . S
N387 H390 0.984 . S
N387 H391 0.985 . S
H388 N383 0.984 . S
H389 N383 0.985 . S
H390 N387 0.984 . S
H391 N387 0.985 . S
H392 N386 0.984 . S
H393 N386 0.984 . S
H394 N382 0.984 . S
H395 N382 0.985 . S
C396 C397 1.363 . S
C396 C402 1.379 . S
C396 N404 1.356 1_455 S
C397 C396 1.363 . S
C397 C403 1.363 1_554 S
C398 C399 1.363 . S
C398 C403 1.379 . S
C398 N405 1.356 . S
C399 C398 1.363 . S
C399 C402 1.363 1_556 S
N400 C402 1.356 . S
N400 H412 0.984 . S
N400 H413 0.985 1_554 S
N401 C403 1.356 . S
N401 H406 0.984 . S
N401 H407 0.985 . S
C402 C396 1.379 . S
C402 C399 1.363 1_554 S
C402 N400 1.356 . S
C403 C397 1.363 1_556 S
C403 C398 1.379 . S
C403 N401 1.356 . S
N404 C396 1.356 1_655 S
N404 H410 0.984 . S
N404 H411 0.984 . S
N405 C398 1.356 . S
N405 H408 0.984 . S
N405 H409 0.985 . S
H406 N401 0.984 . S
H407 N401 0.985 . S
H408 N405 0.984 . S
H409 N405 0.985 . S
H410 N404 0.984 . S
H411 N404 0.984 . S
H412 N400 0.984 . S
H413 N400 0.985 1_556 S
C414 C415 1.363 1_554 S
C414 C420 1.379 1_554 S
C414 N422 1.356 . S
C415 C414 1.363 1_556 S
C415 C421 1.363 1_545 S
C416 C417 1.363 . S
C416 C421 1.379 1_545 S
C416 N423 1.356 . S
C417 C416 1.363 . S
C417 C420 1.363 . S
N418 C420 1.354 1_554 S
N418 H430 0.992 . S
N418 H431 0.980 1_554 S
N419 C421 1.356 . S
N419 H424 0.984 . S
N419 H425 0.985 . S
C420 C414 1.379 1_556 S
C420 C417 1.363 . S
C420 N418 1.354 1_556 S
C421 C415 1.363 1_565 S
C421 C416 1.379 1_565 S
C421 N419 1.356 . S
N422 C414 1.356 . S
N422 H428 0.984 . S
N422 H429 0.984 . S
N423 C416 1.356 . S
N423 H426 0.984 . S
N423 H427 0.985 1_545 S
H424 N419 0.984 . S
H425 N419 0.985 . S
H426 N423 0.984 . S
H427 N423 0.985 1_565 S
H428 N422 0.984 . S
H429 N422 0.984 . S
H430 N418 0.992 . S
H431 N418 0.980 1_556 S
C432 C433 1.363 . S
C432 C438 1.379 . S
C432 N440 1.356 . S
C433 C432 1.363 . S
C433 C439 1.363 . S
C434 C435 1.363 . S
C434 C439 1.379 . S
C434 N441 1.356 . S
C435 C434 1.363 . S
C435 C438 1.363 . S
N436 C438 1.356 . S
N436 H448 0.984 . S
N436 H449 0.985 . S
N437 C439 1.356 1_554 S
N437 H442 0.984 . S
N437 H443 0.985 . S
C438 C432 1.379 . S
C438 C435 1.363 . S
C438 N436 1.356 . S
C439 C433 1.363 . S
C439 C434 1.379 . S
C439 N437 1.356 1_556 S
N440 C432 1.356 . S
N440 H446 0.984 . S
N440 H447 0.984 . S
N441 C434 1.356 . S
N441 H444 0.984 . S
N441 H445 0.985 1_556 S
H442 N437 0.984 . S
H443 N437 0.985 . S
H444 N441 0.984 . S
H445 N441 0.985 1_554 S
H446 N440 0.984 . S
H447 N440 0.984 . S
H448 N436 0.984 . S
H449 N436 0.985 . S
C450 C451 1.363 . S
C450 C456 1.379 . S
C450 N458 1.356 1_556 S
C451 C450 1.363 . S
C451 C457 1.363 . S
C452 C453 1.363 . S
C452 C457 1.379 . S
C452 N459 1.356 . S
C453 C452 1.363 . S
C453 C456 1.363 . S
N454 C456 1.356 . S
N454 H466 0.984 . S
N454 H467 0.985 . S
N455 C457 1.356 . S
N455 H460 0.984 . S
N455 H461 0.985 . S
C456 C450 1.379 . S
C456 C453 1.363 . S
C456 N454 1.356 . S
C457 C451 1.363 . S
C457 C452 1.379 . S
C457 N455 1.356 . S
N458 C450 1.356 1_554 S
N458 H464 0.984 . S
N458 H465 0.984 . S
N459 C452 1.356 . S
N459 H462 0.984 . S
N459 H463 0.985 . S
H460 N455 0.984 . S
H461 N455 0.985 . S
H462 N459 0.984 . S
H463 N459 0.985 . S
H464 N458 0.984 . S
H465 N458 0.984 . S
H466 N454 0.984 . S
H467 N454 0.985 . S
C468 C469 1.363 . S
C468 C474 1.379 . S
C468 N476 1.356 . S
C469 C468 1.363 . S
C469 C475 1.363 . S
C470 C471 1.363 1_556 S
C470 C475 1.379 1_556 S
C470 N477 1.356 . S
C471 C470 1.363 1_554 S
C471 C474 1.363 . S
N472 C474 1.356 . S
N472 H484 0.991 . S
N472 H485 0.985 . S
N473 C475 1.356 . S
N473 H478 0.984 . S
N473 H479 0.985 1_554 S
C474 C468 1.379 . S
C474 C471 1.363 . S
C474 N472 1.356 . S
C475 C469 1.363 . S
C475 C470 1.379 1_554 S
C475 N473 1.356 . S
N476 C468 1.356 . S
N476 H482 0.984 . S
N476 H483 0.984 . S
N477 C470 1.356 . S
N477 H480 0.984 . S
N477 H481 0.985 . S
H478 N473 0.984 . S
H479 N473 0.985 1_556 S
H480 N477 0.984 . S
H481 N477 0.985 . S
H482 N476 0.984 . S
H483 N476 0.984 . S
H484 N472 0.991 . S
H485 N472 0.985 . S
C486 C487 1.363 1_565 S
C486 C492 1.379 . S
C486 N494 1.356 . S
C487 C486 1.363 1_545 S
C487 C493 1.363 . S
C488 C489 1.363 . S
C488 C493 1.379 1_556 S
C488 N495 1.356 . S
C489 C488 1.363 . S
C489 C492 1.363 1_546 S
N490 C492 1.356 . S
N490 H502 0.984 . S
N490 H503 0.985 . S
N491 C493 1.356 . S
N491 H496 0.984 . S
N491 H497 0.985 1_554 S
C492 C486 1.379 . S
C492 C489 1.363 1_564 S
C492 N490 1.356 . S
C493 C487 1.363 . S
C493 C488 1.379 1_554 S
C493 N491 1.356 . S
N494 C486 1.356 . S
N494 H500 0.984 . S
N494 H501 0.984 . S
N495 C488 1.356 . S
N495 H498 0.984 . S
N495 H499 0.985 . S
H496 N491 0.984 . S
H497 N491 0.985 1_556 S
H498 N495 0.984 . S
H499 N495 0.985 . S
H500 N494 0.984 . S
H501 N494 0.984 . S
H502 N490 0.984 . S
H503 N490 0.985 . S
C504 C505 1.363 1_556 S
C504 C510 1.379 . S
C504 N512 1.356 . S
C505 C504 1.363 1_554 S
C505 C511 1.363 . S
C506 C507 1.363 1_554 S
C506 C511 1.379 . S
C506 N513 1.356 . S
C507 C506 1.363 1_556 S
C507 C510 1.363 . S
N508 C510 1.356 . S
N508 H520 0.984 . S
N508 H521 0.985 . S
N509 C511 1.356 . S
N509 H514 0.984 . S
N509 H515 0.985 . S
C510 C504 1.379 . S
C510 C507 1.363 . S
C510 N508 1.356 . S
C511 C505 1.363 . S
C511 C506 1.379 . S
C511 N509 1.356 . S
N512 C504 1.356 . S
N512 H518 0.984 . S
N512 H519 0.984 1_556 S
N513 C506 1.356 . S
N513 H516 0.984 . S
N513 H517 0.985 . S
H514 N509 0.984 . S
H515 N509 0.985 . S
H516 N513 0.984 . S
H517 N513 0.985 . S
H518 N512 0.984 . S
H519 N512 0.984 1_554 S
H520 N508 0.984 . S
H521 N508 0.985 . S
C522 C523 1.363 . S
C522 C528 1.379 . S
C522 N530 1.356 . S
C523 C522 1.363 . S
C523 C529 1.363 . S
C524 C525 1.363 . S
C524 C529 1.379 1_556 S
C524 N531 1.356 . S
C525 C524 1.363 . S
C525 C528 1.363 1_556 S
N526 C528 1.356 . S
N526 H538 0.984 . S
N526 H539 0.985 1_554 S
N527 C529 1.356 . S
N527 H532 0.984 . S
N527 H533 0.985 1_554 S
C528 C522 1.379 . S
C528 C525 1.363 1_554 S
C528 N526 1.356 . S
C529 C523 1.363 . S
C529 C524 1.379 1_554 S
C529 N527 1.356 . S
N530 C522 1.356 . S
N530 H536 0.984 . S
N530 H537 0.984 . S
N531 C524 1.356 . S
N531 H534 0.984 . S
N531 H535 0.985 . S
H532 N527 0.984 . S
H533 N527 0.985 1_556 S
H534 N531 0.984 . S
H535 N531 0.985 . S
H536 N530 0.984 . S
H537 N530 0.984 . S
H538 N526 0.984 . S
H539 N526 0.985 1_556 S
C540 C541 1.364 . S
C540 C546 1.380 . S
C540 N548 1.354 1_655 S
C541 C540 1.364 . S
C541 C547 1.363 . S
C542 C543 1.363 . S
C542 C547 1.379 . S
C542 N549 1.356 . S
C543 C542 1.363 . S
C543 C546 1.363 . S
N544 C546 1.356 . S
N544 H556 0.976 1_655 S
N544 H557 0.985 . S
N545 C547 1.356 . S
N545 H550 0.984 . S
N545 H551 0.985 . S
C546 C540 1.380 . S
C546 C543 1.363 . S
C546 N544 1.356 . S
C547 C541 1.363 . S
C547 C542 1.379 . S
C547 N545 1.356 . S
N548 C540 1.354 1_455 S
N548 H554 0.984 . S
N548 H555 0.984 . S
N549 C542 1.356 . S
N549 H552 0.984 . S
N549 H553 0.985 . S
H550 N545 0.984 . S
H551 N545 0.985 . S
H552 N549 0.984 . S
H553 N549 0.985 . S
H554 N548 0.984 . S
H555 N548 0.984 . S
H556 N544 0.976 1_455 S
H557 N544 0.985 . S
C558 C559 1.363 . S
C558 C564 1.379 . S
C558 N566 1.356 . S
C559 C558 1.363 . S
C559 C565 1.363 1_565 S
C560 C561 1.363 1_545 S
C560 C565 1.379 . S
C560 N567 1.356 . S
C561 C560 1.363 1_565 S
C561 C564 1.363 . S
N562 C564 1.356 . S
N562 H574 0.984 . S
N562 H575 0.985 . S
N563 C565 1.356 . S
N563 H568 0.984 . S
N563 H569 0.985 . S
C564 C558 1.379 . S
C564 C561 1.363 . S
C564 N562 1.356 . S
C565 C559 1.363 1_545 S
C565 C560 1.379 . S
C565 N563 1.356 . S
N566 C558 1.356 . S
N566 H572 0.984 . S
N566 H573 0.984 . S
N567 C560 1.356 . S
N567 H570 0.984 . S
N567 H571 0.985 . S
H568 N563 0.984 . S
H569 N563 0.985 . S
H570 N567 0.984 . S
H571 N567 0.985 . S
H572 N566 0.984 . S
H573 N566 0.984 . S
H574 N562 0.984 . S
H575 N562 0.985 . S
C576 C577 1.363 . S
C576 C582 1.379 . S
C576 N584 1.356 . S
C577 C576 1.363 . S
C577 C583 1.363 . S
C578 C579 1.363 . S
C578 C583 1.379 . S
C578 N585 1.356 . S
C579 C578 1.363 . S
C579 C582 1.363 . S
N580 C582 1.356 . S
N580 H592 0.984 . S
N580 H593 0.985 . S
N581 C583 1.356 . S
N581 H586 0.984 . S
N581 H587 0.985 . S
C582 C576 1.379 . S
C582 C579 1.363 . S
C582 N580 1.356 . S
C583 C577 1.363 . S
C583 C578 1.379 . S
C583 N581 1.356 . S
N584 C576 1.356 . S
N584 H590 0.984 . S
N584 H591 0.984 . S
N585 C578 1.356 . S
N585 H588 0.984 . S
N585 H589 0.985 . S
H586 N581 0.984 . S
H587 N581 0.985 . S
H588 N585 0.984 . S
H589 N585 0.985 . S
H590 N584 0.984 . S
H591 N584 0.984 . S
H592 N580 0.984 . S
H593 N580 0.985 . S
C594 C595 1.363 . S
C594 C600 1.379 . S
C594 N602 1.356 . S
C595 C594 1.363 . S
C595 C601 1.363 . S
C596 C597 1.363 . S
C596 C601 1.379 . S
C596 N603 1.356 . S
C597 C596 1.363 . S
C597 C600 1.363 . S
N598 C600 1.356 . S
N598 H610 0.984 . S
N598 H611 0.985 . S
N599 C601 1.356 . S
N599 H604 0.984 . S
N599 H605 0.985 . S
C600 C594 1.379 . S
C600 C597 1.363 . S
C600 N598 1.356 . S
C601 C595 1.363 . S
C601 C596 1.379 . S
C601 N599 1.356 . S
N602 C594 1.356 . S
N602 H608 0.984 . S
N602 H609 0.984 . S
N603 C596 1.356 . S
N603 H606 0.984 . S
N603 H607 0.985 . S
H604 N599 0.984 . S
H605 N599 0.985 . S
H606 N603 0.984 . S
H607 N603 0.985 . S
H608 N602 0.984 . S
H609 N602 0.984 . S
H610 N598 0.984 . S
H611 N598 0.985 . S
C181 N70 1.569 . S
C183 C104 1.611 . S
C201 C127 1.638 . S
C199 N81 1.592 . S
C219 C150 1.635 . S
C217 N48 1.593 . S
C237 C177 1.519 . S
C235 N59 1.571 . S
C255 C105 1.562 . S
C253 N26 1.523 1_556 S
C271 N37 1.486 . S
C273 C128 1.527 . S
C289 N4 1.484 . S
C291 C151 1.519 . S
C307 N15 1.552 1_556 S
C309 C176 1.582 . S
C327 C106 0.760 . S
C325 C64 0.755 . S
C345 C129 0.724 . S
C343 C75 0.729 . S
C363 C152 0.750 . S
C361 C86 0.750 . S
C379 C53 0.897 . S
C381 C178 0.874 . S
C397 C20 1.002 . S
C399 C109 0.957 . S
C417 C132 0.946 . S
C415 C31 0.998 1_556 S
C435 C155 0.923 . S
C433 C42 0.972 . S
C451 C9 0.732 . S
C453 C175 0.732 . S
C469 C61 1.574 . S
C471 C107 1.544 1_554 S
C487 C72 1.531 . S
C489 C130 1.528 . S
C507 C153 1.541 . S
C505 C83 1.548 . S
C525 C174 1.457 . S
C523 C50 1.403 . S
C541 C17 1.655 1_655 S
C543 C108 1.562 . S
C561 C131 1.515 . S
C559 C28 1.614 1_565 S
C579 C154 1.502 . S
C577 C39 1.590 . S
C595 C6 1.649 . S
C597 C173 1.693 . S
