# Generated by pormake.
# Topology anh, (6,3)-cn, num edge types: 1
# Building blocks:
#     Node 0, Type 0, BuildingBlock: BETFAJ_clean_sbu_0, # of connection points: 6
#     Node 1, Type 0, BuildingBlock: BETFAJ_clean_sbu_0, # of connection points: 6
#     Node 2, Type 0, BuildingBlock: BETFAJ_clean_sbu_0, # of connection points: 6
#     Node 3, Type 1, BuildingBlock: VETTIZ_charged_linker_0, # of connection points: 3
#     Node 4, Type 1, BuildingBlock: VETTIZ_charged_linker_0, # of connection points: 3
#     Node 5, Type 1, BuildingBlock: VETTIZ_charged_linker_0, # of connection points: 3
#     Node 6, Type 1, BuildingBlock: VETTIZ_charged_linker_0, # of connection points: 3
#     Node 7, Type 1, BuildingBlock: VETTIZ_charged_linker_0, # of connection points: 3
#     Node 8, Type 1, BuildingBlock: VETTIZ_charged_linker_0, # of connection points: 3
#     Edge 9, Type (0, 1), BuildingBlock: XUDNAN_clean_linker_2, # of connection points: 2
#     Edge 10, Type (0, 1), BuildingBlock: XUDNAN_clean_linker_2, # of connection points: 2
#     Edge 11, Type (0, 1), BuildingBlock: XUDNAN_clean_linker_2, # of connection points: 2
#     Edge 12, Type (0, 1), BuildingBlock: XUDNAN_clean_linker_2, # of connection points: 2
#     Edge 13, Type (0, 1), BuildingBlock: XUDNAN_clean_linker_2, # of connection points: 2
#     Edge 14, Type (0, 1), BuildingBlock: XUDNAN_clean_linker_2, # of connection points: 2
#     Edge 15, Type (0, 1), BuildingBlock: XUDNAN_clean_linker_2, # of connection points: 2
#     Edge 16, Type (0, 1), BuildingBlock: XUDNAN_clean_linker_2, # of connection points: 2
#     Edge 17, Type (0, 1), BuildingBlock: XUDNAN_clean_linker_2, # of connection points: 2
#     Edge 18, Type (0, 1), BuildingBlock: XUDNAN_clean_linker_2, # of connection points: 2
#     Edge 19, Type (0, 1), BuildingBlock: XUDNAN_clean_linker_2, # of connection points: 2
#     Edge 20, Type (0, 1), BuildingBlock: XUDNAN_clean_linker_2, # of connection points: 2
#     Edge 21, Type (0, 1), BuildingBlock: XUDNAN_clean_linker_2, # of connection points: 2
#     Edge 22, Type (0, 1), BuildingBlock: XUDNAN_clean_linker_2, # of connection points: 2
#     Edge 23, Type (0, 1), BuildingBlock: XUDNAN_clean_linker_2, # of connection points: 2
#     Edge 24, Type (0, 1), BuildingBlock: XUDNAN_clean_linker_2, # of connection points: 2
#     Edge 25, Type (0, 1), BuildingBlock: XUDNAN_clean_linker_2, # of connection points: 2
#     Edge 26, Type (0, 1), BuildingBlock: XUDNAN_clean_linker_2, # of connection points: 2
# Relax obj value: 0.186
# Max RMSD: 0.211
# Mean RMSD: 0.159
data_MOF--net-anh--node1-BETFAJ_clean_sbu_0--node2-VETTIZ_charged_linker_0--edge1-XUDNAN_clean_linker_2
_symmetry_space_group_name_H-M    P1
_symmetry_Int_Tables_number       1
_symmetry_cell_setting            triclinic
loop_
_symmetry_equiv_pos_as_xyz
'x, y, z'
_cell_length_a     37.789196
_cell_length_b     43.475647
_cell_length_c     66.935985
_cell_angle_alpha  91.90769
_cell_angle_beta   89.989541
_cell_angle_gamma 128.86461
loop_
_atom_site_label
_atom_site_type_symbol
_atom_site_fract_x
_atom_site_fract_y
_atom_site_fract_z
_atom_type_partial_charge
Sm0 Sm 0.08346 0.50076 0.14795 0.0
Sm1 Sm 1.02287 0.52214 0.15041 0.0
C2 C 0.14819 0.49622 0.13944 0.0
C3 C 0.19648 0.51986 0.14566 0.0
C4 C 0.23018 0.53923 0.13127 0.0
C5 C 0.27603 0.56149 0.13688 0.0
C6 C 0.28893 0.56448 0.15699 0.0
C7 C 0.25528 0.54583 0.17146 0.0
C8 C 0.20949 0.52389 0.16588 0.0
C9 C 0.06502 0.50965 0.18641 0.0
C10 C 0.1298 0.59675 0.14837 0.0
C11 C 0.95843 0.5257 0.16137 0.0
C12 C 0.90953 0.49493 0.16469 0.0
C13 C 0.89367 0.46467 0.17813 0.0
C14 C 0.84709 0.43333 0.17932 0.0
C15 C 0.81603 0.43147 0.1668 0.0
C16 C 0.83184 0.46236 0.15391 0.0
C17 C 0.87811 0.49387 0.15294 0.0
C18 C 1.04274 0.51512 0.11185 0.0
C19 C 0.97637 0.42705 0.14891 0.0
O20 O 0.1379 0.51358 0.12799 0.0
O21 O 0.11811 0.47535 0.15312 0.0
O22 O 0.07407 0.53187 0.17234 0.0
O23 O 0.06771 0.48239 0.18074 0.0
O24 O 0.13545 0.56973 0.14564 0.0
O25 O 0.08927 0.58638 0.1519 0.0
O26 O 0.98663 0.52847 0.17413 0.0
O27 O 0.9709 0.52883 0.14283 0.0
O28 O 1.0332 0.49187 0.12553 0.0
O29 O 1.03974 0.54205 0.11801 0.0
O30 O 0.97301 0.45416 0.15546 0.0
O31 O 1.01535 0.438 0.14194 0.0
H32 H 0.221 0.53671 0.11562 0.0
H33 H 0.30123 0.57503 0.12537 0.0
H34 H 0.26439 0.54773 0.18705 0.0
H35 H 0.18436 0.50976 0.1774 0.0
H36 H 0.91718 0.46459 0.18733 0.0
H37 H 0.83551 0.40993 0.18945 0.0
H38 H 0.80829 0.46187 0.14438 0.0
H39 H 0.8895 0.51684 0.14253 0.0
Sm40 Sm 0.60723 0.02511 0.4758 0.0
Sm41 Sm 0.54356 0.04456 0.47414 0.0
C42 C 0.65133 0.99796 0.48472 0.0
C43 C 0.64318 0.96029 0.48632 0.0
C44 C 0.60059 0.92556 0.49143 0.0
C45 C 0.59415 0.89035 0.49324 0.0
C46 C 0.63014 0.88928 0.48984 0.0
C47 C 0.67256 0.92415 0.48453 0.0
C48 C 0.67896 0.95926 0.4828 0.0
C49 C 0.58373 0.02952 0.43777 0.0
C50 C 0.49511 0.95184 0.47604 0.0
C51 C 0.50152 0.07351 0.4653 0.0
C52 C 0.51132 0.112 0.46804 0.0
C53 C 0.55588 0.1476 0.46697 0.0
C54 C 0.56481 0.18387 0.47006 0.0
C55 C 0.52939 0.18528 0.47437 0.0
C56 C 0.48484 0.14953 0.4755 0.0
C57 C 0.47592 0.11324 0.47234 0.0
C58 C 0.56619 0.04006 0.51228 0.0
C59 C 0.65629 0.11828 0.47402 0.0
O60 O 0.63277 1.00613 0.4981 0.0
O61 O 0.6493 1.00768 0.46675 0.0
O62 O 0.55697 0.01331 0.45208 0.0
O63 O 0.62428 0.04267 0.44296 0.0
O64 O 0.53622 0.96451 0.48146 0.0
O65 O 0.48929 0.9768 0.46951 0.0
O66 O 0.52671 0.0717 0.45266 0.0
O67 O 0.49413 0.05468 0.48159 0.0
O68 O 0.59355 0.05622 0.49811 0.0
O69 O 0.526 0.02747 0.50682 0.0
O70 O 0.61466 0.10643 0.47095 0.0
O71 O 0.66316 0.09282 0.47802 0.0
H72 H 0.57244 0.92571 0.49411 0.0
H73 H 0.56097 0.86394 0.49716 0.0
H74 H 0.70117 0.92453 0.4821 0.0
H75 H 0.71208 0.98579 0.47887 0.0
H76 H 0.58387 0.14744 0.46383 0.0
H77 H 0.59959 0.21082 0.46937 0.0
H78 H 0.45677 0.14962 0.47862 0.0
H79 H 0.44134 0.0861 0.4733 0.0
Sm80 Sm 0.60893 0.56586 0.83458 0.0
Sm81 Sm 0.54554 0.47809 0.83756 0.0
C82 C 0.65061 0.63875 0.82294 0.0
C83 C 0.64251 0.66776 0.82153 0.0
C84 C 0.64861 0.68495 0.80317 0.0
C85 C 0.64092 0.71224 0.80119 0.0
C86 C 0.62722 0.72328 0.81761 0.0
C87 C 0.62112 0.70597 0.83604 0.0
C88 C 0.62857 0.67841 0.83797 0.0
C89 C 0.5897 0.54081 0.87294 0.0
C90 C 0.49442 0.51988 0.83629 0.0
C91 C 0.50269 0.40399 0.84744 0.0
C92 C 0.50654 0.37257 0.84385 0.0
C93 C 0.54836 0.38144 0.83948 0.0
C94 C 0.551 0.35097 0.83599 0.0
C95 C 0.51185 0.31109 0.83675 0.0
C96 C 0.47003 0.30254 0.84094 0.0
C97 C 0.46747 0.33296 0.84446 0.0
C98 C 0.56423 0.50241 0.79898 0.0
C99 C 0.6611 0.52546 0.83656 0.0
O100 O 0.62595 0.60741 0.81087 0.0
O101 O 0.65668 0.63091 0.84075 0.0
O102 O 0.56155 0.5263 0.85852 0.0
O103 O 0.62985 0.57149 0.86781 0.0
O104 O 0.53624 0.55149 0.83132 0.0
O105 O 0.48932 0.48774 0.84146 0.0
O106 O 0.53453 0.43469 0.85871 0.0
O107 O 0.49078 0.41354 0.83198 0.0
O108 O 0.59278 0.51741 0.81331 0.0
O109 O 0.52452 0.47184 0.80445 0.0
O110 O 0.61925 0.49264 0.8408 0.0
O111 O 0.66525 0.55728 0.83188 0.0
H112 H 0.65911 0.67704 0.79025 0.0
H113 H 0.64509 0.72423 0.78667 0.0
H114 H 0.61105 0.714 0.84906 0.0
H115 H 0.62344 0.66552 0.85232 0.0
H116 H 0.57895 0.41186 0.83883 0.0
H117 H 0.5838 0.35867 0.83298 0.0
H118 H 0.43905 0.27224 0.84128 0.0
H119 H 0.43483 0.32552 0.84762 0.0
C120 C 0.6614 0.1217 0.16631 0.0
C121 C 0.6953 0.15869 0.17641 0.0
C122 C 0.6931 0.1615 0.19732 0.0
C123 C 0.62608 0.09243 0.198 0.0
C124 C 0.62663 0.089 0.17742 0.0
C125 C 0.58602 0.04764 0.16968 0.0
H126 H 0.40126 0.85843 0.19453 0.0
C127 C 0.58731 0.05369 0.20554 0.0
C128 C 0.56305 0.02668 0.18909 0.0
H129 H 0.43738 0.90076 0.13478 0.0
H130 H 0.50334 0.96583 0.14814 0.0
H131 H 0.50291 0.90289 0.21274 0.0
H132 H 0.40977 0.92781 0.21084 0.0
H133 H 0.43868 0.94845 0.23391 0.0
H134 H 0.40514 0.89586 0.22881 0.0
H135 H 0.45232 0.87761 0.2271 0.0
H136 H 0.50566 0.92245 0.2366 0.0
C137 C 0.60336 0.02841 0.15812 0.0
C138 C 0.55521 0.0514 0.15677 0.0
C139 C 0.5662 0.03993 0.28092 0.0
C140 C 0.5335 1.00811 0.29262 0.0
C141 C 0.4997 0.97107 0.28308 0.0
C142 C 0.49801 0.9658 0.26227 0.0
C143 C 0.53023 0.99798 0.25067 0.0
C144 C 0.56366 0.03422 0.26002 0.0
C145 C 0.59453 0.06504 0.24521 0.0
C146 C 0.57382 0.04135 0.22543 0.0
C147 C 0.53639 1.00217 0.2288 0.0
C148 C 0.64306 0.07874 0.24912 0.0
C149 C 0.59038 0.09833 0.24741 0.0
C150 C 0.42373 0.88132 0.1842 0.0
C151 C 0.41433 0.87397 0.16358 0.0
C152 C 0.44387 0.90543 0.15079 0.0
C153 C 0.48199 0.94325 0.15856 0.0
C154 C 0.49017 0.95022 0.17942 0.0
C155 C 0.46067 0.91916 0.19169 0.0
C156 C 0.47086 0.93137 0.21338 0.0
C157 C 0.51165 0.97468 0.21245 0.0
C158 C 0.52405 0.98635 0.19257 0.0
C159 C 0.48332 0.9073 0.22314 0.0
C160 C 0.42908 0.92543 0.22237 0.0
H161 H 0.66038 0.13362 0.22391 0.0
H162 H 0.66174 0.11851 0.15021 0.0
H163 H 0.54972 0.07108 0.16453 0.0
H164 H 0.52118 0.0228 0.15388 0.0
H165 H 0.57097 0.06422 0.1422 0.0
H166 H 0.629 0.03005 0.16735 0.0
H167 H 0.61961 0.04383 0.14408 0.0
H168 H 0.57577 0.99687 0.15421 0.0
H169 H 0.59249 0.06881 0.28783 0.0
H170 H 0.47457 0.94596 0.29178 0.0
H171 H 0.4714 0.93677 0.25608 0.0
H172 H 0.64175 0.05357 0.25349 0.0
H173 H 0.66092 0.10175 0.26144 0.0
H174 H 0.66425 0.09 0.23575 0.0
H175 H 0.55628 0.08672 0.25275 0.0
H176 H 0.59339 0.1115 0.23301 0.0
H177 H 0.61612 0.12209 0.25829 0.0
H178 H 0.71863 0.18898 0.20559 0.0
C179 C 0.65917 0.12894 0.20804 0.0
C180 C 0.58623 0.62685 0.52804 0.0
C181 C 0.59362 0.6598 0.53773 0.0
C182 C 0.59735 0.66339 0.55881 0.0
C183 C 0.58675 0.60242 0.56007 0.0
C184 C 0.58309 0.59877 0.53944 0.0
C185 C 0.57668 0.56271 0.53148 0.0
H186 H 0.56193 0.40256 0.54964 0.0
C187 C 0.58232 0.56848 0.56743 0.0
C188 C 0.57635 0.54503 0.55075 0.0
H189 H 0.56074 0.44514 0.49235 0.0
H190 H 0.56545 0.49779 0.5089 0.0
H191 H 0.63958 0.4885 0.57095 0.0
H192 H 0.49338 0.41167 0.57011 0.0
H193 H 0.51137 0.43556 0.5939 0.0
H194 H 0.52467 0.40368 0.58619 0.0
H195 H 0.60478 0.44135 0.58228 0.0
H196 H 0.62162 0.48546 0.5956 0.0
C197 C 0.61812 0.57668 0.51861 0.0
C198 C 0.53026 0.53533 0.52006 0.0
C199 C 0.59242 0.5562 0.64214 0.0
C200 C 0.58686 0.52685 0.65345 0.0
C201 C 0.57684 0.493 0.64356 0.0
C202 C 0.57323 0.48874 0.62265 0.0
C203 C 0.57929 0.51848 0.61147 0.0
C204 C 0.58794 0.55118 0.62125 0.0
C205 C 0.59073 0.57862 0.60699 0.0
C206 C 0.58313 0.55735 0.58704 0.0
C207 C 0.5771 0.52245 0.58975 0.0
C208 C 0.63907 0.61906 0.60906 0.0
C209 C 0.55173 0.5803 0.61157 0.0
C210 C 0.56217 0.42293 0.54064 0.0
C211 C 0.56128 0.41973 0.51962 0.0
C212 C 0.56216 0.44726 0.50854 0.0
C213 C 0.56474 0.47777 0.51819 0.0
C214 C 0.56662 0.48106 0.53919 0.0
C215 C 0.5649 0.45367 0.55004 0.0
C216 C 0.56723 0.46172 0.57223 0.0
C217 C 0.57163 0.49894 0.5729 0.0
C218 C 0.57124 0.51015 0.55351 0.0
C219 C 0.61033 0.46949 0.5809 0.0
C220 C 0.5221 0.42637 0.58124 0.0
H221 H 0.59729 0.63964 0.58593 0.0
H222 H 0.58285 0.62286 0.51191 0.0
H223 H 0.50424 0.53522 0.52792 0.0
H224 H 0.5162 0.50411 0.51912 0.0
H225 H 0.53285 0.54543 0.50471 0.0
H226 H 0.64962 0.60523 0.52475 0.0
H227 H 0.61292 0.58117 0.50298 0.0
H228 H 0.62599 0.55614 0.51849 0.0
H229 H 0.59936 0.58219 0.64942 0.0
H230 H 0.57246 0.47008 0.65205 0.0
H231 H 0.56599 0.46249 0.61598 0.0
H232 H 0.665 0.61491 0.61124 0.0
H233 H 0.64184 0.63696 0.62213 0.0
H234 H 0.64941 0.63651 0.59556 0.0
H235 H 0.52135 0.55159 0.61697 0.0
H236 H 0.53922 0.58544 0.5982 0.0
H237 H 0.56236 0.60345 0.62333 0.0
H238 H 0.60396 0.68873 0.56673 0.0
C239 C 0.59385 0.63494 0.56998 0.0
C240 C 0.18504 0.51838 0.84032 0.0
C241 C 0.21404 0.51227 0.8512 0.0
C242 C 0.2032 0.50356 0.87139 0.0
C243 C 0.14063 0.50738 0.87015 0.0
C244 C 0.14763 0.515 0.85012 0.0
C245 C 0.11057 0.51852 0.84249 0.0
H246 H 0.91862 0.50755 0.87539 0.0
C247 C 0.10223 0.50688 0.87729 0.0
C248 C 0.08199 0.51252 0.8613 0.0
H249 H 0.96187 0.53015 0.81456 0.0
H250 H 1.02359 0.52665 0.82302 0.0
H251 H 0.92805 0.44309 0.88347 0.0
H252 H 1.01573 0.5691 0.89184 0.0
H253 H 1.02853 0.55386 0.9125 0.0
H254 H 0.97142 0.53716 0.9088 0.0
H255 H 0.92053 0.4681 0.90272 0.0
H256 H 0.95461 0.45291 0.90689 0.0
C257 C 0.07976 0.48613 0.8263 0.0
C258 C 0.13408 0.55964 0.83435 0.0
C259 C 0.07817 0.49553 0.9525 0.0
C260 C 0.04878 0.49597 0.96517 0.0
C261 C 1.01624 0.49785 0.95655 0.0
C262 C 1.01333 0.49968 0.93581 0.0
C263 C 1.04363 0.50012 0.92324 0.0
C264 C 0.07506 0.49784 0.93176 0.0
C265 C 0.1043 0.49842 0.91639 0.0
C266 C 0.08657 0.50292 0.89712 0.0
C267 C 0.05061 0.50338 0.90118 0.0
C268 C 0.0941 0.45773 0.9166 0.0
C269 C 0.15438 0.53513 0.92154 0.0
C270 C 0.94002 0.51103 0.86343 0.0
C271 C 0.93256 0.51836 0.84413 0.0
C272 C 0.96472 0.52414 0.82977 0.0
C273 C 1.00094 0.52207 0.83461 0.0
C274 C 1.00747 0.51486 0.85432 0.0
C275 C 0.97649 0.5101 0.86802 0.0
C276 C 0.98766 0.50629 0.88858 0.0
C277 C 1.02814 0.5071 0.88557 0.0
C278 C 1.0423 0.51205 0.86534 0.0
C279 C 0.94566 0.46575 0.896 0.0
C280 C 1.00123 0.54315 0.90124 0.0
H281 H 0.16478 0.49522 0.89603 0.0
H282 H 0.19098 0.52516 0.82469 0.0
H283 H 0.15656 0.58297 0.8461 0.0
H284 H 0.10851 0.56289 0.82947 0.0
H285 H 0.15515 0.56445 0.82137 0.0
H286 H 0.06299 0.45643 0.83227 0.0
H287 H 0.09989 0.48958 0.8132 0.0
H288 H 0.05289 0.48757 0.82118 0.0
H289 H 0.10371 0.4942 0.95861 0.0
H290 H 0.99253 0.49746 0.96588 0.0
H291 H 0.98726 0.50054 0.9305 0.0
H292 H 0.05939 0.43411 0.922 0.0
H293 H 0.11858 0.45906 0.92654 0.0
H294 H 0.09417 0.44666 0.90146 0.0
H295 H 0.15635 0.55959 0.9288 0.0
H296 H 0.17549 0.54838 0.90822 0.0
H297 H 0.1707 0.52779 0.932 0.0
H298 H 0.22321 0.49954 0.8808 0.0
C299 C 0.16819 0.50125 0.88055 0.0
C300 C 0.96664 0.42537 0.45815 0.0
C301 C 0.93273 0.38845 0.44807 0.0
C302 C 0.93406 0.38566 0.42713 0.0
C303 C 0.99934 0.45525 0.42627 0.0
C304 C 1.00031 0.45833 0.44691 0.0
C305 C 1.04111 0.49965 0.45453 0.0
H306 H 0.22221 0.68938 0.42913 0.0
C307 C 1.03637 0.49446 0.41862 0.0
C308 C 0.06188 0.52115 0.43502 0.0
H309 H 0.19125 0.64586 0.4888 0.0
H310 H 0.12467 0.58108 0.47569 0.0
H311 H 0.20797 0.61757 0.40907 0.0
H312 H 0.12155 0.64933 0.41543 0.0
H313 H 0.10797 0.62606 0.39162 0.0
H314 H 0.16512 0.67069 0.39723 0.0
H315 H 0.21464 0.65514 0.3949 0.0
H316 H 0.17846 0.60406 0.3861 0.0
C317 C 0.07352 0.49607 0.46617 0.0
C318 C 1.02432 0.51812 0.46731 0.0
C319 C 1.04258 0.51254 0.34345 0.0
C320 C 0.07006 0.54596 0.3318 0.0
C321 C 0.10495 0.5827 0.34129 0.0
C322 C 0.11221 0.58629 0.36201 0.0
C323 C 0.08418 0.55283 0.37356 0.0
C324 C 0.05005 0.51677 0.36427 0.0
C325 C 1.02296 0.48478 0.37904 0.0
C326 C 1.04656 0.50769 0.39874 0.0
C327 C 0.08241 0.54735 0.39535 0.0
C328 C 1.02867 0.4529 0.37439 0.0
C329 C 0.97327 0.46947 0.37759 0.0
C330 C 0.20101 0.66632 0.43957 0.0
C331 C 0.21225 0.67333 0.46007 0.0
C332 C 0.18378 0.64154 0.47287 0.0
C333 C 0.14519 0.60384 0.46525 0.0
C334 C 0.13512 0.59739 0.44452 0.0
C335 C 0.16324 0.62878 0.43223 0.0
C336 C 0.14956 0.61767 0.41064 0.0
C337 C 0.10917 0.57428 0.41162 0.0
C338 C 0.09971 0.56178 0.43147 0.0
C339 C 0.1896 0.62409 0.39942 0.0
C340 C 0.13557 0.64223 0.40316 0.0
H341 H 0.96492 0.41406 0.40038 0.0
H342 H 0.96701 0.42833 0.47429 0.0
H343 H 0.99735 0.51606 0.45902 0.0
H344 H 0.0518 0.54973 0.47111 0.0
H345 H 1.00989 0.50247 0.48146 0.0
H346 H 0.07857 0.47677 0.45761 0.0
H347 H 0.05936 0.48291 0.48087 0.0
H348 H 0.10762 0.52477 0.4687 0.0
H349 H 1.0153 0.48395 0.33658 0.0
H350 H 0.12701 0.60876 0.33262 0.0
H351 H 0.13947 0.61513 0.36818 0.0
H352 H 0.06101 0.46548 0.36669 0.0
H353 H 1.00045 0.42837 0.36456 0.0
H354 H 1.03092 0.44059 0.38811 0.0
H355 H 0.9725 0.4944 0.37576 0.0
H356 H 0.95382 0.4551 0.39115 0.0
H357 H 0.95472 0.44846 0.36453 0.0
H358 H 0.90861 0.35798 0.41898 0.0
C359 C 0.96678 0.41855 0.41629 0.0
C360 C 0.59496 0.94748 0.78326 0.0
C361 C 0.60305 0.9232 0.77357 0.0
C362 C 0.61029 0.9262 0.75281 0.0
C363 C 0.60035 0.97604 0.75167 0.0
C364 C 0.59389 0.97366 0.77205 0.0
C365 C 0.58573 1.0016 0.77989 0.0
H366 H 0.55488 0.13597 0.76098 0.0
C367 C 0.59571 1.00507 0.7443 0.0
C368 C 0.5872 0.02028 0.76076 0.0
H369 H 0.55732 0.0942 0.81833 0.0
H370 H 0.57156 0.05265 0.80219 0.0
H371 H 0.64307 0.14583 0.74346 0.0
H372 H 0.49809 0.05435 0.73769 0.0
H373 H 0.52056 0.05538 0.71456 0.0
H374 H 0.52731 0.09837 0.72376 0.0
H375 H 0.60633 0.15142 0.7301 0.0
H376 H 0.62908 0.12969 0.71815 0.0
C377 C 0.62526 0.03223 0.79468 0.0
C378 C 0.53809 0.9768 0.78916 0.0
C379 C 0.60746 0.02947 0.66993 0.0
C380 C 0.60061 0.05178 0.65836 0.0
C381 C 0.58956 0.07402 0.66793 0.0
C382 C 0.58575 0.07431 0.68877 0.0
C383 C 0.59254 0.05174 0.70018 0.0
C384 C 0.60277 0.02954 0.6907 0.0
C385 C 0.60621 1.00558 0.70506 0.0
C386 C 0.59719 0.01761 0.72477 0.0
C387 C 0.58962 0.04491 0.72185 0.0
C388 C 0.65519 0.01929 0.7045 0.0
C389 C 0.56839 0.96116 0.69928 0.0
C390 C 0.55907 0.11831 0.77012 0.0
C391 C 0.55472 0.11841 0.79101 0.0
C392 C 0.55973 0.09433 0.80221 0.0
C393 C 0.5683 0.07033 0.79281 0.0
C394 C 0.57203 0.07027 0.77193 0.0
C395 C 0.56776 0.09423 0.76097 0.0
C396 C 0.57295 0.09051 0.73893 0.0
C397 C 0.5814 0.06064 0.73849 0.0
C398 C 0.58056 0.04866 0.75786 0.0
C399 C 0.61482 0.13143 0.73211 0.0
C400 C 0.52766 0.07408 0.72801 0.0
H401 H 0.61449 0.95293 0.72611 0.0
H402 H 0.5898 0.94628 0.79922 0.0
H403 H 0.51317 0.94964 0.77969 0.0
H404 H 0.5239 0.99252 0.79024 0.0
H405 H 0.53892 0.96743 0.80428 0.0
H406 H 0.6576 0.03871 0.79015 0.0
H407 H 0.61814 0.02113 0.81005 0.0
H408 H 0.63272 0.06122 0.79504 0.0
H409 H 0.61517 0.01154 0.6629 0.0
H410 H 0.58421 0.09146 0.65926 0.0
H411 H 0.57743 0.09194 0.69517 0.0
H412 H 0.68036 0.05186 0.70303 0.0
H413 H 0.65914 1.00503 0.69158 0.0
H414 H 0.66559 0.0135 0.71836 0.0
H415 H 0.53795 0.95597 0.69265 0.0
H416 H 0.55537 0.94217 0.71229 0.0
H417 H 0.58041 0.95032 0.6881 0.0
H418 H 0.61596 0.90756 0.74489 0.0
C419 C 0.60904 0.9524 0.74186 0.0
C420 C 0.54534 0.38251 0.13901 0.0
C421 C 0.54321 0.35253 0.12876 0.0
C422 C 0.53047 0.34464 0.10825 0.0
C423 C 0.53275 0.40154 0.10785 0.0
C424 C 0.53993 0.40646 0.12833 0.0
C425 C 0.54439 0.44128 0.13676 0.0
H426 H 0.54241 0.59229 0.12018 0.0
C427 C 0.53615 0.43515 0.10084 0.0
C428 C 0.5424 0.45824 0.11776 0.0
H429 H 0.53842 0.54552 0.1769 0.0
H430 H 0.54875 0.50167 0.16012 0.0
H431 H 0.62431 0.59473 0.10222 0.0
H432 H 0.47874 0.51345 0.09628 0.0
H433 H 0.5012 0.51989 0.0723 0.0
H434 H 0.51412 0.5619 0.08632 0.0
H435 H 0.59463 0.601 0.0841 0.0
H436 H 0.61257 0.57179 0.07835 0.0
C437 C 0.59118 0.47034 0.14777 0.0
C438 C 0.50304 0.42546 0.15014 0.0
C439 C 0.54096 0.45725 0.02636 0.0
C440 C 0.54955 0.48855 0.01571 0.0
C441 C 0.55739 0.52095 0.02626 0.0
C442 C 0.55617 0.52202 0.04715 0.0
C443 C 0.54734 0.49049 0.05763 0.0
C444 C 0.54057 0.45907 0.04729 0.0
C445 C 0.53448 0.42949 0.06109 0.0
C446 C 0.53818 0.4482 0.08138 0.0
C447 C 0.54525 0.48368 0.07918 0.0
C448 C 0.57415 0.42826 0.05777 0.0
C449 C 0.48662 0.38931 0.05703 0.0
C450 C 0.54533 0.57365 0.12913 0.0
C451 C 0.53903 0.57209 0.1499 0.0
C452 C 0.54246 0.54687 0.16086 0.0
C453 C 0.54796 0.52115 0.15107 0.0
C454 C 0.55 0.52061 0.13011 0.0
C455 C 0.55036 0.54758 0.11957 0.0
C456 C 0.55181 0.54223 0.09734 0.0
C457 C 0.54899 0.50583 0.09626 0.0
C458 C 0.54807 0.4934 0.11545 0.0
C459 C 0.59796 0.57931 0.08997 0.0
C460 C 0.50949 0.53413 0.08738 0.0
H461 H 0.51777 0.3627 0.08199 0.0
H462 H 0.5548 0.38959 0.15474 0.0
H463 H 0.47331 0.39458 0.14556 0.0
H464 H 0.49039 0.4424 0.14893 0.0
H465 H 0.51132 0.42554 0.16607 0.0
H466 H 0.61815 0.47324 0.13906 0.0
H467 H 0.5907 0.45979 0.16274 0.0
H468 H 0.60231 0.5006 0.14967 0.0
H469 H 0.5354 0.43223 0.01857 0.0
H470 H 0.56372 0.5452 0.01829 0.0
H471 H 0.56185 0.54725 0.05431 0.0
H472 H 0.60682 0.45868 0.05654 0.0
H473 H 0.56852 0.41117 0.04374 0.0
H474 H 0.57967 0.41561 0.07019 0.0
H475 H 0.46185 0.39367 0.05232 0.0
H476 H 0.47207 0.37173 0.07054 0.0
H477 H 0.48725 0.37151 0.04497 0.0
H478 H 0.52706 0.32097 0.10005 0.0
C479 C 0.52541 0.36908 0.09774 0.0
H480 H 0.31837 0.533 0.17895 0.0
H481 H 0.36642 0.63605 0.14582 0.0
H482 H 0.44511 0.65952 0.14917 0.0
H483 H 0.42712 0.58079 0.21154 0.0
H484 H 0.41977 0.53565 0.2092 0.0
H485 H 0.37073 0.53377 0.20999 0.0
H486 H 0.34039 0.49243 0.17648 0.0
H487 H 0.38888 0.49408 0.17567 0.0
H488 H 0.37615 0.51154 0.155 0.0
H489 H 0.51342 0.66346 0.14909 0.0
H490 H 0.5625 0.645 0.14323 0.0
H491 H 0.46939 0.5383 0.17562 0.0
C492 C 0.34584 0.56152 0.17333 0.0
C493 C 0.33664 0.58302 0.16238 0.0
C494 C 0.373 0.61934 0.15439 0.0
C495 C 0.41779 0.63302 0.1564 0.0
C496 C 0.42559 0.61013 0.16651 0.0
C497 C 0.3905 0.57518 0.17498 0.0
C498 C 0.40572 0.55207 0.18154 0.0
C499 C 0.40586 0.5505 0.20443 0.0
C500 C 0.37607 0.51012 0.17155 0.0
C501 C 0.45365 0.57771 0.17391 0.0
C502 C 0.46519 0.61188 0.16603 0.0
C503 C 0.50524 0.63733 0.15566 0.0
C504 C 0.53283 0.62652 0.15231 0.0
C505 C 0.51975 0.59018 0.15897 0.0
C506 C 0.48103 0.56678 0.17084 0.0
H507 H 0.74292 0.15473 0.46022 0.0
H508 H 0.65852 0.17982 0.48688 0.0
H509 H 0.72286 0.25154 0.48661 0.0
H510 H 0.85138 0.2364 0.48433 0.0
H511 H 0.88365 0.24639 0.4622 0.0
H512 H 0.83247 0.19699 0.46617 0.0
H513 H 0.79947 0.19536 0.43187 0.0
H514 H 0.85069 0.24454 0.42773 0.0
H515 H 0.79635 0.23397 0.4265 0.0
H516 H 0.7975 0.32166 0.48323 0.0
H517 H 0.87079 0.38291 0.47245 0.0
H518 H 0.90482 0.31267 0.44564 0.0
C519 C 0.73824 0.17535 0.46624 0.0
C520 C 0.69571 0.16151 0.47384 0.0
C521 C 0.6907 0.18958 0.48106 0.0
C522 C 0.72723 0.23046 0.48107 0.0
C523 C 0.76871 0.2432 0.47349 0.0
C524 C 0.77413 0.21644 0.46588 0.0
C525 C 0.82083 0.23792 0.45693 0.0
C526 C 0.84872 0.22888 0.46808 0.0
C527 C 0.81656 0.22732 0.43443 0.0
C528 C 0.84079 0.28084 0.46065 0.0
C529 C 0.81057 0.28333 0.47059 0.0
C530 C 0.82137 0.31994 0.47546 0.0
C531 C 0.86333 0.3547 0.46947 0.0
C532 C 0.89386 0.35279 0.45838 0.0
C533 C 0.88248 0.31521 0.45429 0.0
H534 H 0.67516 0.78984 0.79533 0.0
H535 H 0.56013 0.7225 0.83444 0.0
H536 H 0.54486 0.76929 0.82952 0.0
H537 H 0.71138 0.88738 0.80971 0.0
H538 H 0.72595 0.90446 0.7846 0.0
H539 H 0.73004 0.86759 0.79256 0.0
H540 H 0.67691 0.82067 0.76293 0.0
H541 H 0.6727 0.85737 0.75487 0.0
H542 H 0.62188 0.80837 0.75984 0.0
H543 H 0.53965 0.82175 0.81873 0.0
H544 H 0.54375 0.87396 0.80227 0.0
H545 H 0.66118 0.90573 0.76979 0.0
C546 C 0.64669 0.78478 0.80288 0.0
C547 C 0.61896 0.75237 0.81534 0.0
C548 C 0.58241 0.74737 0.8251 0.0
C549 C 0.57331 0.77372 0.82231 0.0
C550 C 0.60104 0.80502 0.80975 0.0
C551 C 0.63698 0.8106 0.80019 0.0
C552 C 0.66039 0.84538 0.78672 0.0
C553 C 0.70987 0.87814 0.79383 0.0
C554 C 0.65779 0.83214 0.76479 0.0
C555 C 0.63151 0.8581 0.78989 0.0
C556 C 0.59773 0.83476 0.80338 0.0
C557 C 0.56621 0.84038 0.80826 0.0
C558 C 0.56895 0.87026 0.79892 0.0
C559 C 0.60276 0.89398 0.78473 0.0
C560 C 0.6347 0.88795 0.78044 0.0
H561 H 0.76379 0.38651 0.13464 0.0
H562 H 0.75861 0.40238 0.19833 0.0
H563 H 0.67473 0.3592 0.19578 0.0
H564 H 0.69838 0.4043 0.12119 0.0
H565 H 0.66887 0.36926 0.10025 0.0
H566 H 0.72355 0.38563 0.10807 0.0
H567 H 0.69041 0.31302 0.11241 0.0
H568 H 0.63501 0.29634 0.10455 0.0
H569 H 0.64231 0.28175 0.1281 0.0
H570 H 0.59795 0.33412 0.18522 0.0
H571 H 0.54015 0.33409 0.16827 0.0
H572 H 0.59557 0.33708 0.11102 0.0
C573 C 0.7445 0.37913 0.14811 0.0
C574 C 0.76704 0.39752 0.16661 0.0
C575 C 0.74159 0.38805 0.18405 0.0
C576 C 0.69394 0.36342 0.18269 0.0
C577 C 0.67253 0.34813 0.16386 0.0
C578 C 0.69717 0.35508 0.14686 0.0
C579 C 0.66851 0.34331 0.12802 0.0
C580 C 0.69114 0.37768 0.11359 0.0
C581 C 0.65845 0.3064 0.11767 0.0
C582 C 0.62594 0.33369 0.1369 0.0
C583 C 0.62775 0.33437 0.15759 0.0
C584 C 0.59568 0.33256 0.16905 0.0
C585 C 0.56312 0.33292 0.15927 0.0
C586 C 0.56374 0.33631 0.13827 0.0
C587 C 0.59344 0.33372 0.127 0.0
H588 H 0.4103 0.90911 0.45699 0.0
H589 H 0.48948 0.8964 0.49758 0.0
H590 H 0.4248 0.82526 0.49956 0.0
H591 H 0.30035 0.8387 0.47961 0.0
H592 H 0.26945 0.81954 0.45599 0.0
H593 H 0.32117 0.8699 0.45846 0.0
H594 H 0.35495 0.8569 0.42886 0.0
H595 H 0.3033 0.80658 0.42626 0.0
H596 H 0.35706 0.81667 0.42972 0.0
H597 H 0.35051 0.75421 0.49697 0.0
H598 H 0.27634 0.68955 0.48789 0.0
H599 H 0.24574 0.74768 0.44841 0.0
C600 C 0.41394 0.89146 0.46643 0.0
C601 C 0.45526 0.90875 0.47721 0.0
C602 C 0.4585 0.88417 0.48913 0.0
C603 C 0.42173 0.84359 0.49043 0.0
C604 C 0.38159 0.82749 0.47962 0.0
C605 C 0.37762 0.85064 0.46771 0.0
C606 C 0.33151 0.82563 0.45687 0.0
C607 C 0.304 0.83926 0.46311 0.0
C608 C 0.33705 0.8265 0.43408 0.0
C609 C 0.31027 0.78489 0.46447 0.0
C610 C 0.3395 0.78663 0.47775 0.0
C611 C 0.3274 0.75264 0.4866 0.0
C612 C 0.2849 0.71594 0.48147 0.0
C613 C 0.25479 0.7131 0.46742 0.0
C614 C 0.26782 0.74847 0.4591 0.0
H615 H 0.56203 0.30566 0.80898 0.0
H616 H 0.46733 0.24239 0.85683 0.0
H617 H 0.4687 0.18696 0.85053 0.0
H618 H 0.51703 0.22217 0.77595 0.0
H619 H 0.57155 0.23907 0.76729 0.0
H620 H 0.56409 0.27438 0.77575 0.0
H621 H 0.63086 0.30534 0.8014 0.0
H622 H 0.63869 0.27024 0.79295 0.0
H623 H 0.62967 0.27426 0.81903 0.0
H624 H 0.47862 0.13759 0.83858 0.0
H625 H 0.49708 0.09792 0.822 0.0
H626 H 0.58753 0.19391 0.78264 0.0
C627 C 0.54201 0.28039 0.81831 0.0
C628 C 0.51433 0.27841 0.83334 0.0
C629 C 0.4882 0.24444 0.84501 0.0
C630 C 0.48898 0.21286 0.84164 0.0
C631 C 0.51622 0.21563 0.82661 0.0
C632 C 0.54243 0.24856 0.81518 0.0
C633 C 0.56836 0.24378 0.79982 0.0
C634 C 0.55441 0.24491 0.77844 0.0
C635 C 0.61996 0.27528 0.80353 0.0
C636 C 0.55226 0.20286 0.80428 0.0
C637 C 0.52231 0.18724 0.81983 0.0
C638 C 0.50235 0.14965 0.8265 0.0
C639 C 0.5133 0.12742 0.81704 0.0
C640 C 0.54402 0.14275 0.80107 0.0
C641 C 0.56367 0.1811 0.79469 0.0
H642 H 0.58535 0.83584 0.51945 0.0
H643 H 0.66197 0.85953 0.4658 0.0
H644 H 0.65722 0.80113 0.47116 0.0
H645 H 0.63617 0.80657 0.54834 0.0
H646 H 0.58503 0.76804 0.56066 0.0
H647 H 0.59129 0.80983 0.55183 0.0
H648 H 0.51627 0.76285 0.53089 0.0
H649 H 0.50959 0.72083 0.53978 0.0
H650 H 0.5096 0.72712 0.5133 0.0
H651 H 0.64886 0.74304 0.48365 0.0
H652 H 0.63692 0.68923 0.50216 0.0
H653 H 0.56304 0.7017 0.54697 0.0
C654 C 0.60029 0.82827 0.50858 0.0
C655 C 0.6241 0.85233 0.49221 0.0
C656 C 0.644 0.84182 0.47858 0.0
C657 C 0.64123 0.80856 0.48142 0.0
C658 C 0.6182 0.7859 0.4979 0.0
C659 C 0.59782 0.79515 0.51118 0.0
C660 C 0.57686 0.76695 0.52817 0.0
C661 C 0.59866 0.78919 0.54844 0.0
C662 C 0.525 0.74301 0.52802 0.0
C663 C 0.58948 0.74094 0.52257 0.0
C664 C 0.61304 0.75218 0.50499 0.0
C665 C 0.62987 0.73359 0.49728 0.0
C666 C 0.62267 0.70286 0.50787 0.0
C667 C 0.59883 0.69094 0.52602 0.0
C668 C 0.5817 0.71017 0.53325 0.0
H669 H 0.68613 0.48164 0.85643 0.0
H670 H 0.73797 0.57393 0.81432 0.0
H671 H 0.8073 0.58032 0.81106 0.0
H672 H 0.79797 0.52854 0.88133 0.0
H673 H 0.78777 0.48279 0.88533 0.0
H674 H 0.74068 0.48358 0.88394 0.0
H675 H 0.70332 0.42949 0.85565 0.0
H676 H 0.75033 0.42859 0.85695 0.0
H677 H 0.73489 0.43726 0.83356 0.0
H678 H 0.87465 0.57599 0.81124 0.0
H679 H 0.93116 0.56586 0.81726 0.0
H680 H 0.84338 0.48018 0.86129 0.0
C681 C 0.71182 0.50317 0.8464 0.0
C682 C 0.70432 0.52708 0.83549 0.0
C683 C 0.74079 0.55491 0.82296 0.0
C684 C 0.78112 0.55878 0.82093 0.0
C685 C 0.78735 0.53523 0.83175 0.0
C686 C 0.75374 0.50819 0.84451 0.0
C687 C 0.77041 0.48782 0.85506 0.0
C688 C 0.77443 0.49616 0.87777 0.0
C689 C 0.73778 0.44312 0.85002 0.0
C690 C 0.81804 0.50724 0.84625 0.0
C691 C 0.82669 0.5342 0.83258 0.0
C692 C 0.86761 0.55498 0.82208 0.0
C693 C 0.90012 0.54874 0.82557 0.0
C694 C 0.8939 0.52214 0.83984 0.0
C695 C 0.85115 0.50118 0.85029 0.0
H696 H 0.21795 0.63707 0.16316 0.0
H697 H 0.13163 0.65394 0.13149 0.0
H698 H 0.19652 0.7252 0.1294 0.0
H699 H 0.27623 0.72741 0.19325 0.0
H700 H 0.33023 0.73728 0.19344 0.0
H701 H 0.27827 0.68712 0.19085 0.0
H702 H 0.30678 0.67685 0.15812 0.0
H703 H 0.35876 0.7271 0.16055 0.0
H704 H 0.32396 0.70992 0.13805 0.0
H705 H 0.27179 0.79539 0.13048 0.0
H706 H 0.34732 0.85952 0.13872 0.0
H707 H 0.38356 0.79903 0.17238 0.0
C708 C 0.21292 0.65575 0.15561 0.0
C709 C 0.16967 0.63971 0.14725 0.0
C710 C 0.16432 0.66541 0.13793 0.0
C711 C 0.20113 0.70597 0.13659 0.0
C712 C 0.24327 0.72094 0.14498 0.0
C713 C 0.24916 0.69672 0.15463 0.0
C714 C 0.29695 0.72093 0.16383 0.0
C715 C 0.29531 0.71801 0.1867 0.0
C716 C 0.32316 0.70792 0.15458 0.0
C717 C 0.31697 0.76244 0.15786 0.0
C718 C 0.2857 0.76165 0.14665 0.0
C719 C 0.29643 0.79627 0.1393 0.0
C720 C 0.33963 0.83263 0.14392 0.0
C721 C 0.37164 0.83454 0.15612 0.0
C722 C 0.35999 0.79867 0.16297 0.0
H723 H 0.49513 0.20593 0.50326 0.0
H724 H 0.5855 0.25202 0.45303 0.0
H725 H 0.60252 0.31657 0.45879 0.0
H726 H 0.44927 0.25682 0.4947 0.0
H727 H 0.4469 0.26588 0.52095 0.0
H728 H 0.4414 0.22316 0.51269 0.0
H729 H 0.50852 0.24528 0.5364 0.0
H730 H 0.51431 0.28811 0.5447 0.0
H731 H 0.56235 0.29401 0.53456 0.0
H732 H 0.61023 0.37626 0.47019 0.0
H733 H 0.60926 0.42724 0.48683 0.0
H734 H 0.51277 0.34189 0.52927 0.0
C735 C 0.51812 0.22946 0.49333 0.0
C736 C 0.53899 0.2239 0.47768 0.0
C737 C 0.56949 0.2557 0.46524 0.0
C738 C 0.57917 0.2924 0.46832 0.0
C739 C 0.55811 0.29688 0.48391 0.0
C740 C 0.52826 0.26632 0.49623 0.0
C741 C 0.51085 0.27911 0.51214 0.0
C742 C 0.45903 0.2548 0.50998 0.0
C743 C 0.52486 0.27647 0.53319 0.0
C744 C 0.53565 0.32168 0.50687 0.0
C745 C 0.56261 0.3313 0.4905 0.0
C746 C 0.58904 0.36901 0.48296 0.0
C747 C 0.58803 0.3977 0.49244 0.0
C748 C 0.5608 0.38861 0.50932 0.0
C749 C 0.53422 0.34994 0.51652 0.0
H750 H 0.40413 0.47228 0.85418 0.0
H751 H 0.49023 0.57334 0.81732 0.0
H752 H 0.43055 0.58055 0.81539 0.0
H753 H 0.29423 0.43262 0.82999 0.0
H754 H 0.26359 0.4186 0.85295 0.0
H755 H 0.31225 0.42012 0.85099 0.0
H756 H 0.34962 0.46787 0.88202 0.0
H757 H 0.301 0.46638 0.88409 0.0
H758 H 0.35713 0.51314 0.88239 0.0
H759 H 0.35576 0.5765 0.81702 0.0
H760 H 0.28393 0.565 0.82456 0.0
H761 H 0.24495 0.46854 0.86138 0.0
C762 C 0.41068 0.4959 0.84554 0.0
C763 C 0.45384 0.52198 0.83571 0.0
C764 C 0.45895 0.55246 0.82503 0.0
C765 C 0.42445 0.55686 0.82379 0.0
C766 C 0.38294 0.53101 0.8335 0.0
C767 C 0.3762 0.50121 0.8444 0.0
C768 C 0.32905 0.47831 0.85411 0.0
C769 C 0.29793 0.43482 0.84657 0.0
C770 C 0.33452 0.4816 0.87701 0.0
C771 C 0.3103 0.49942 0.84703 0.0
C772 C 0.34179 0.52964 0.83495 0.0
C773 C 0.33149 0.55278 0.82658 0.0
C774 C 0.2896 0.54574 0.83083 0.0
C775 C 0.2565 0.51577 0.84372 0.0
C776 C 0.26816 0.4922 0.85159 0.0
H777 H 0.89302 0.39208 0.16646 0.0
H778 H 0.96694 0.36368 0.13187 0.0
H779 H 0.90068 0.29266 0.13235 0.0
H780 H 0.84016 0.31145 0.19843 0.0
H781 H 0.78712 0.3032 0.19943 0.0
H782 H 0.83901 0.35178 0.19498 0.0
H783 H 0.8037 0.35329 0.16199 0.0
H784 H 0.75161 0.30513 0.167 0.0
H785 H 0.77933 0.31332 0.14358 0.0
H786 H 0.8256 0.22316 0.13742 0.0
H787 H 0.75283 0.16285 0.14926 0.0
H788 H 0.72855 0.23616 0.18119 0.0
C789 C 0.89524 0.37102 0.15881 0.0
C790 C 0.93561 0.38392 0.14905 0.0
C791 C 0.93676 0.35496 0.13946 0.0
C792 C 0.89903 0.31436 0.13957 0.0
C793 C 0.85993 0.30268 0.14936 0.0
C794 C 0.85789 0.33024 0.15889 0.0
C795 C 0.81273 0.30985 0.1692 0.0
C796 C 0.82022 0.31965 0.19185 0.0
C797 C 0.78519 0.32104 0.15989 0.0
C798 C 0.79023 0.26655 0.1645 0.0
C799 C 0.81754 0.26297 0.15268 0.0
C800 C 0.80399 0.22577 0.14663 0.0
C801 C 0.7623 0.19153 0.15328 0.0
C802 C 0.73463 0.19444 0.16613 0.0
C803 C 0.74874 0.2327 0.17138 0.0
H804 H 1.04297 0.5519 0.07943 0.0
H805 H 0.05251 0.46184 0.09634 0.0
H806 H 0.05802 0.44857 0.06066 0.0
H807 H 0.97254 0.49988 0.036 0.0
H808 H 0.99909 0.54342 0.02166 0.0
H809 H 0.99855 0.54723 0.04851 0.0
H810 H 0.08636 0.60012 0.04979 0.0
H811 H 0.08717 0.59655 0.02293 0.0
H812 H 0.12036 0.58902 0.0381 0.0
H813 H 0.06109 0.44455 0.02282 0.0
H814 H 0.0587 0.4484 0.98609 0.0
H815 H 1.04549 0.54017 0.9942 0.0
C816 C 1.04659 0.5296 0.07564 0.0
C817 C 1.04746 0.50794 0.09062 0.0
C818 C 0.0518 0.47876 0.08506 0.0
C819 C 0.05503 0.47109 0.06485 0.0
C820 C 0.05367 0.49277 0.05041 0.0
C821 C 0.04944 0.52136 0.05557 0.0
C822 C 1.04711 0.53952 0.03719 0.0
C823 C 1.00161 0.53205 0.03576 0.0
C824 C 0.08767 0.58393 0.037 0.0
C825 C 0.05034 0.5165 0.02085 0.0
C826 C 0.05452 0.48992 0.02875 0.0
C827 C 0.05793 0.46534 0.01649 0.0
C828 C 0.05674 0.46785 0.99565 0.0
C829 C 0.05178 0.49449 0.98725 0.0
C830 C 0.0488 0.51919 0.00013 0.0
H831 H 0.63498 0.05449 0.40415 0.0
H832 H 0.49885 0.99938 0.4246 0.0
H833 H 0.47254 0.99229 0.38972 0.0
H834 H 0.63319 0.10812 0.36332 0.0
H835 H 0.66465 0.09995 0.34692 0.0
H836 H 0.67361 0.10343 0.37361 0.0
H837 H 0.65518 0.03505 0.37209 0.0
H838 H 0.64615 0.03136 0.34543 0.0
H839 H 0.60202 0.99293 0.36081 0.0
H840 H 0.45981 0.98682 0.35268 0.0
H841 H 0.46145 0.98371 0.31581 0.0
H842 H 0.6059 0.04273 0.31916 0.0
C843 C 0.59979 0.0414 0.40128 0.0
C844 C 0.56889 0.02749 0.41703 0.0
C845 C 0.52304 0.01025 0.41273 0.0
C846 C 0.50783 1.00618 0.39298 0.0
C847 C 0.53897 0.0197 0.37774 0.0
C848 C 0.58404 0.03712 0.38163 0.0
C849 C 0.60999 0.04749 0.36243 0.0
C850 C 0.64759 0.09242 0.36152 0.0
C851 C 0.62946 0.02538 0.36006 0.0
C852 C 0.57227 0.03245 0.34711 0.0
C853 C 0.53166 0.01675 0.35629 0.0
C854 C 0.49147 0.99933 0.34532 0.0
C855 C 0.49269 0.99753 0.32442 0.0
C856 C 0.53379 0.01303 0.31467 0.0
C857 C 0.57418 0.03121 0.32621 0.0
H858 H 0.51177 0.46135 0.76543 0.0
H859 H 0.64365 0.56882 0.78536 0.0
H860 H 0.66297 0.58822 0.75025 0.0
H861 H 0.55241 0.44216 0.72228 0.0
H862 H 0.50244 0.42238 0.70704 0.0
H863 H 0.49818 0.41828 0.73376 0.0
H864 H 0.4624 0.45326 0.73502 0.0
H865 H 0.46658 0.45749 0.7083 0.0
H866 H 0.49217 0.50104 0.72441 0.0
H867 H 0.66701 0.59619 0.71286 0.0
H868 H 0.65809 0.58944 0.67591 0.0
H869 H 0.52591 0.47454 0.68054 0.0
C870 C 0.5446 0.48908 0.7624 0.0
C871 C 0.57601 0.51394 0.77807 0.0
C872 C 0.61892 0.54965 0.77354 0.0
C873 C 0.63017 0.56086 0.75367 0.0
C874 C 0.59837 0.5357 0.73854 0.0
C875 C 0.55668 0.50032 0.74266 0.0
C876 C 0.52944 0.47765 0.72366 0.0
C877 C 0.52009 0.43776 0.72157 0.0
C878 C 0.48502 0.47205 0.7228 0.0
C879 C 0.56225 0.50581 0.70818 0.0
C880 C 0.6016 0.53936 0.71705 0.0
C881 C 0.63646 0.56996 0.70575 0.0
C882 C 0.63109 0.56597 0.68484 0.0
C883 C 0.5915 0.53141 0.67551 0.0
C884 C 0.55671 0.50106 0.68736 0.0
H885 H 0.51691 0.02658 0.54534 0.0
H886 H 0.64668 0.06063 0.52671 0.0
H887 H 0.66925 0.06562 0.56217 0.0
H888 H 0.56122 0.09382 0.5879 0.0
H889 H 0.5126 0.06051 0.60297 0.0
H890 H 0.50596 0.05744 0.57617 0.0
H891 H 0.47015 0.98341 0.57569 0.0
H892 H 0.4766 0.98621 0.6025 0.0
H893 H 0.50085 0.96916 0.58713 0.0
H894 H 0.67671 0.06589 0.59993 0.0
H895 H 0.67067 0.06595 0.63682 0.0
H896 H 0.53802 0.03602 0.63035 0.0
C897 C 0.54996 0.03482 0.5487 0.0
C898 C 0.57992 0.04278 0.53332 0.0
C899 C 0.62313 0.05406 0.53831 0.0
C900 C 0.63619 0.05698 0.55838 0.0
C901 C 0.60583 0.04901 0.57323 0.0
C902 C 0.56378 0.03852 0.56861 0.0
C903 C 0.53817 0.03322 0.58729 0.0
C904 C 0.52897 0.06303 0.58866 0.0
C905 C 0.49382 0.99045 0.5882 0.0
C906 C 0.57232 0.04233 0.6032 0.0
C907 C 0.61094 0.05093 0.59483 0.0
C908 C 0.64673 0.05941 0.60663 0.0
C909 C 0.643 0.05928 0.62751 0.0
C910 C 0.60408 0.05131 0.63633 0.0
C911 C 0.56839 0.04273 0.62396 0.0
H912 H 0.63936 0.57649 0.90796 0.0
H913 H 0.51147 0.47055 0.88346 0.0
H914 H 0.48971 0.44365 0.91711 0.0
H915 H 0.65775 0.53029 0.94647 0.0
H916 H 0.67959 0.57023 0.96471 0.0
H917 H 0.68695 0.57992 0.93845 0.0
H918 H 0.64789 0.61191 0.94176 0.0
H919 H 0.6405 0.6024 0.96801 0.0
H920 H 0.59198 0.58413 0.95206 0.0
H921 H 0.48141 0.42841 0.95331 0.0
H922 H 0.48412 0.42861 0.99026 0.0
H923 H 0.61487 0.54609 0.99158 0.0
C924 C 0.60703 0.54748 0.9097 0.0
C925 C 0.57737 0.52526 0.89314 0.0
C926 C 0.53491 0.48779 0.89597 0.0
C927 C 0.52227 0.47225 0.915 0.0
C928 C 0.55222 0.49483 0.93107 0.0
C929 C 0.59347 0.53183 0.92869 0.0
C930 C 0.61789 0.55111 0.94864 0.0
C931 C 0.66323 0.5583 0.94962 0.0
C932 C 0.62496 0.58966 0.95286 0.0
C933 C 0.58377 0.51927 0.96257 0.0
C934 C 0.54646 0.4868 0.9521 0.0
C935 C 0.51043 0.45365 0.9617 0.0
C936 C 0.5123 0.45393 0.98262 0.0
C937 C 0.54959 0.48737 0.99364 0.0
C938 C 0.58586 0.52027 0.98345 0.0
H939 H 0.05582 0.47004 0.21958 0.0
H940 H 0.06441 0.56886 0.20038 0.0
H941 H 0.06031 0.58548 0.23548 0.0
H942 H 0.97824 0.44284 0.26106 0.0
H943 H 1.00626 0.43091 0.27696 0.0
H944 H 1.00587 0.42459 0.25019 0.0
H945 H 0.09385 0.46951 0.25113 0.0
H946 H 0.09452 0.47595 0.27786 0.0
H947 H 0.12639 0.51856 0.26261 0.0
H948 H 0.06091 0.59436 0.27251 0.0
H949 H 0.06656 0.59519 0.30929 0.0
H950 H 0.05802 0.49091 0.30477 0.0
C951 C 0.05621 0.49484 0.22278 0.0
C952 C 0.0602 0.51809 0.20731 0.0
C953 C 0.0611 0.55055 0.21203 0.0
C954 C 0.05873 0.56018 0.2319 0.0
C955 C 0.05534 0.53698 0.24685 0.0
C956 C 0.05397 0.50492 0.24257 0.0
C957 C 0.0527 0.48618 0.26154 0.0
C958 C 1.00811 0.4436 0.26249 0.0
C959 C 0.09435 0.48766 0.26339 0.0
C960 C 0.05462 0.51327 0.27716 0.0
C961 C 0.05575 0.54216 0.26833 0.0
C962 C 0.05968 0.57171 0.2796 0.0
C963 C 0.06311 0.57207 0.30046 0.0
C964 C 0.06271 0.54313 0.30984 0.0
C965 C 0.05772 0.51303 0.298 0.0
loop_
_geom_bond_atom_site_label_1
_geom_bond_atom_site_label_2
_geom_bond_distance
_geom_bond_site_symmetry_2
_ccdc_geom_bond_type
Sm0 C2 2.846 . S
Sm0 O20 2.543 . S
Sm0 O21 2.450 . S
Sm0 O22 2.681 . S
Sm0 O23 2.464 . S
Sm0 O24 2.396 . S
Sm0 O28 2.386 . S
Sm0 O31 2.408 1_455 S
Sm1 C11 2.846 . S
Sm1 O22 2.386 1_655 S
Sm1 O25 2.408 1_655 S
Sm1 O26 2.543 . S
Sm1 O27 2.450 . S
Sm1 O28 2.681 1_655 S
Sm1 O29 2.464 . S
Sm1 O30 2.396 . S
C2 Sm0 2.846 . S
C2 C3 1.506 . S
C2 O20 1.261 . S
C2 O21 1.242 . S
C3 C2 1.506 . S
C3 C4 1.358 . S
C3 C8 1.382 . S
C4 C3 1.358 . S
C4 C5 1.385 . S
C4 H32 0.930 . S
C5 C4 1.385 . S
C5 C6 1.395 . S
C5 H33 0.929 . S
C6 C5 1.395 . S
C6 C7 1.335 . S
C7 C6 1.335 . S
C7 C8 1.398 . S
C7 H34 0.930 . S
C8 C3 1.382 . S
C8 C7 1.398 . S
C8 H35 0.929 . S
C9 O22 1.271 . S
C9 O23 1.251 . S
C10 O24 1.252 . S
C10 O25 1.272 . S
C11 Sm1 2.846 . S
C11 C12 1.506 . S
C11 O26 1.261 . S
C11 O27 1.242 . S
C12 C11 1.506 . S
C12 C13 1.358 . S
C12 C17 1.382 . S
C13 C12 1.358 . S
C13 C14 1.385 . S
C13 H36 0.930 . S
C14 C13 1.385 . S
C14 C15 1.395 . S
C14 H37 0.929 . S
C15 C14 1.395 . S
C15 C16 1.335 . S
C16 C15 1.335 . S
C16 C17 1.398 . S
C16 H38 0.930 . S
C17 C12 1.382 . S
C17 C16 1.398 . S
C17 H39 0.929 . S
C18 O28 1.271 . S
C18 O29 1.251 1_455 S
C19 O30 1.252 . S
C19 O31 1.272 . S
O20 Sm0 2.543 . S
O20 C2 1.261 . S
O21 Sm0 2.450 . S
O21 C2 1.242 . S
O22 Sm0 2.681 . S
O22 Sm1 2.386 1_455 S
O22 C9 1.271 . S
O23 Sm0 2.464 . S
O23 C9 1.251 . S
O24 Sm0 2.396 . S
O24 C10 1.252 . S
O25 Sm1 2.408 1_455 S
O25 C10 1.272 . S
O26 Sm1 2.543 . S
O26 C11 1.261 . S
O27 Sm1 2.450 . S
O27 C11 1.242 . S
O28 Sm0 2.386 . S
O28 Sm1 2.681 1_455 S
O28 C18 1.271 . S
O29 Sm1 2.464 . S
O29 C18 1.251 1_655 S
O30 Sm1 2.396 . S
O30 C19 1.252 . S
O31 Sm0 2.408 1_655 S
O31 C19 1.272 . S
H32 C4 0.930 . S
H33 C5 0.929 . S
H34 C7 0.930 . S
H35 C8 0.929 . S
H36 C13 0.930 . S
H37 C14 0.929 . S
H38 C16 0.930 . S
H39 C17 0.929 . S
Sm40 C42 2.846 . S
Sm40 O60 2.543 . S
Sm40 O61 2.450 . S
Sm40 O62 2.681 1_565 S
Sm40 O63 2.464 . S
Sm40 O64 2.396 . S
Sm40 O68 2.386 . S
Sm40 O71 2.408 1_565 S
Sm41 C51 2.846 . S
Sm41 O62 2.386 . S
Sm41 O65 2.408 1_545 S
Sm41 O66 2.543 . S
Sm41 O67 2.450 . S
Sm41 O68 2.681 1_545 S
Sm41 O69 2.464 . S
Sm41 O70 2.396 . S
C42 Sm40 2.846 . S
C42 C43 1.506 . S
C42 O60 1.261 . S
C42 O61 1.242 . S
C43 C42 1.506 . S
C43 C44 1.358 . S
C43 C48 1.382 . S
C44 C43 1.358 . S
C44 C45 1.385 . S
C44 H72 0.930 . S
C45 C44 1.385 . S
C45 C46 1.395 . S
C45 H73 0.929 . S
C46 C45 1.395 . S
C46 C47 1.335 . S
C47 C46 1.335 . S
C47 C48 1.398 . S
C47 H74 0.930 . S
C48 C43 1.382 . S
C48 C47 1.398 . S
C48 H75 0.929 . S
C49 O62 1.271 . S
C49 O63 1.251 1_545 S
C50 O64 1.252 . S
C50 O65 1.272 . S
C51 Sm41 2.846 . S
C51 C52 1.506 . S
C51 O66 1.261 . S
C51 O67 1.242 . S
C52 C51 1.506 . S
C52 C53 1.358 . S
C52 C57 1.382 . S
C53 C52 1.358 . S
C53 C54 1.385 . S
C53 H76 0.930 . S
C54 C53 1.385 . S
C54 C55 1.395 . S
C54 H77 0.929 . S
C55 C54 1.395 . S
C55 C56 1.335 . S
C56 C55 1.335 . S
C56 C57 1.398 . S
C56 H78 0.930 . S
C57 C52 1.382 . S
C57 C56 1.398 . S
C57 H79 0.929 . S
C58 O68 1.271 1_545 S
C58 O69 1.251 . S
C59 O70 1.252 . S
C59 O71 1.272 . S
O60 Sm40 2.543 . S
O60 C42 1.261 . S
O61 Sm40 2.450 . S
O61 C42 1.242 . S
O62 Sm40 2.681 1_545 S
O62 Sm41 2.386 . S
O62 C49 1.271 . S
O63 Sm40 2.464 . S
O63 C49 1.251 1_565 S
O64 Sm40 2.396 . S
O64 C50 1.252 . S
O65 Sm41 2.408 1_565 S
O65 C50 1.272 . S
O66 Sm41 2.543 . S
O66 C51 1.261 . S
O67 Sm41 2.450 . S
O67 C51 1.242 . S
O68 Sm40 2.386 . S
O68 Sm41 2.681 1_565 S
O68 C58 1.271 1_565 S
O69 Sm41 2.464 . S
O69 C58 1.251 . S
O70 Sm41 2.396 . S
O70 C59 1.252 . S
O71 Sm40 2.408 1_545 S
O71 C59 1.272 . S
H72 C44 0.930 . S
H73 C45 0.929 . S
H74 C47 0.930 . S
H75 C48 0.929 . S
H76 C53 0.930 . S
H77 C54 0.929 . S
H78 C56 0.930 . S
H79 C57 0.929 . S
Sm80 C82 2.846 . S
Sm80 O100 2.543 . S
Sm80 O101 2.450 . S
Sm80 O102 2.681 . S
Sm80 O103 2.464 . S
Sm80 O104 2.396 . S
Sm80 O108 2.386 . S
Sm80 O111 2.408 . S
Sm81 C91 2.846 . S
Sm81 O102 2.386 . S
Sm81 O105 2.408 . S
Sm81 O106 2.543 . S
Sm81 O107 2.450 . S
Sm81 O108 2.681 . S
Sm81 O109 2.464 . S
Sm81 O110 2.396 . S
C82 Sm80 2.846 . S
C82 C83 1.506 . S
C82 O100 1.261 . S
C82 O101 1.242 . S
C83 C82 1.506 . S
C83 C84 1.358 . S
C83 C88 1.382 . S
C84 C83 1.358 . S
C84 C85 1.385 . S
C84 H112 0.930 . S
C85 C84 1.385 . S
C85 C86 1.395 . S
C85 H113 0.929 . S
C86 C85 1.395 . S
C86 C87 1.335 . S
C87 C86 1.335 . S
C87 C88 1.398 . S
C87 H114 0.930 . S
C88 C83 1.382 . S
C88 C87 1.398 . S
C88 H115 0.929 . S
C89 O102 1.271 . S
C89 O103 1.251 . S
C90 O104 1.252 . S
C90 O105 1.272 . S
C91 Sm81 2.846 . S
C91 C92 1.506 . S
C91 O106 1.261 . S
C91 O107 1.242 . S
C92 C91 1.506 . S
C92 C93 1.358 . S
C92 C97 1.382 . S
C93 C92 1.358 . S
C93 C94 1.385 . S
C93 H116 0.930 . S
C94 C93 1.385 . S
C94 C95 1.395 . S
C94 H117 0.929 . S
C95 C94 1.395 . S
C95 C96 1.335 . S
C96 C95 1.335 . S
C96 C97 1.398 . S
C96 H118 0.930 . S
C97 C92 1.382 . S
C97 C96 1.398 . S
C97 H119 0.929 . S
C98 O108 1.271 . S
C98 O109 1.251 . S
C99 O110 1.252 . S
C99 O111 1.272 . S
O100 Sm80 2.543 . S
O100 C82 1.261 . S
O101 Sm80 2.450 . S
O101 C82 1.242 . S
O102 Sm80 2.681 . S
O102 Sm81 2.386 . S
O102 C89 1.271 . S
O103 Sm80 2.464 . S
O103 C89 1.251 . S
O104 Sm80 2.396 . S
O104 C90 1.252 . S
O105 Sm81 2.408 . S
O105 C90 1.272 . S
O106 Sm81 2.543 . S
O106 C91 1.261 . S
O107 Sm81 2.450 . S
O107 C91 1.242 . S
O108 Sm80 2.386 . S
O108 Sm81 2.681 . S
O108 C98 1.271 . S
O109 Sm81 2.464 . S
O109 C98 1.251 . S
O110 Sm81 2.396 . S
O110 C99 1.252 . S
O111 Sm80 2.408 . S
O111 C99 1.272 . S
H112 C84 0.930 . S
H113 C85 0.929 . S
H114 C87 0.930 . S
H115 C88 0.929 . S
H116 C93 0.930 . S
H117 C94 0.929 . S
H118 C96 0.930 . S
H119 C97 0.929 . S
C120 C121 1.391 . S
C120 C124 1.391 . S
C120 H162 0.948 . S
C121 C120 1.391 . S
C121 C122 1.391 . S
C122 C121 1.391 . S
C122 H178 0.947 . S
C122 C179 1.392 . S
C123 C124 1.391 . S
C123 C127 1.397 . S
C123 C179 1.419 . S
C124 C120 1.391 . S
C124 C123 1.391 . S
C124 C125 1.399 . S
C125 C124 1.399 . S
C125 C128 1.396 . S
C125 C137 1.453 . S
C125 C138 1.684 . S
H126 C150 0.948 . S
C127 C123 1.397 . S
C127 C128 1.394 . S
C127 C146 1.723 . S
C128 C125 1.396 . S
C128 C127 1.394 . S
C128 C158 1.723 1_545 S
H129 C152 0.947 . S
H130 C153 0.948 . S
H131 C159 0.982 . S
H132 C160 0.979 . S
H133 C160 0.980 . S
H134 C160 0.983 . S
H135 C159 0.979 . S
H136 C159 0.977 . S
C137 C125 1.453 . S
C137 H166 0.982 . S
C137 H167 0.979 . S
C137 H168 0.977 1_545 S
C138 C125 1.684 . S
C138 H163 0.979 . S
C138 H164 0.980 . S
C138 H165 0.983 . S
C139 C140 1.391 . S
C139 C144 1.391 . S
C139 H169 0.948 . S
C140 C139 1.391 . S
C140 C141 1.391 1_545 S
C141 C140 1.391 1_565 S
C141 C142 1.392 . S
C141 H170 0.947 . S
C142 C141 1.392 . S
C142 C143 1.419 1_565 S
C142 H171 0.948 . S
C143 C142 1.419 1_545 S
C143 C144 1.391 . S
C143 C147 1.397 . S
C144 C139 1.391 . S
C144 C143 1.391 . S
C144 C145 1.399 . S
C145 C144 1.399 . S
C145 C146 1.396 . S
C145 C148 1.453 . S
C145 C149 1.684 . S
C146 C127 1.723 . S
C146 C145 1.396 . S
C146 C147 1.394 . S
C147 C143 1.397 . S
C147 C146 1.394 . S
C147 C157 1.723 1_545 S
C148 C145 1.453 . S
C148 H172 0.982 . S
C148 H173 0.979 . S
C148 H174 0.977 . S
C149 C145 1.684 . S
C149 H175 0.979 . S
C149 H176 0.980 . S
C149 H177 0.983 . S
C150 H126 0.948 . S
C150 C151 1.391 . S
C150 C155 1.391 . S
C151 C150 1.391 . S
C151 C152 1.391 . S
C152 H129 0.947 . S
C152 C151 1.391 . S
C152 C153 1.392 . S
C153 H130 0.948 . S
C153 C152 1.392 . S
C153 C154 1.419 . S
C154 C153 1.419 . S
C154 C155 1.391 . S
C154 C158 1.397 . S
C155 C150 1.391 . S
C155 C154 1.391 . S
C155 C156 1.399 . S
C156 C155 1.399 . S
C156 C157 1.396 . S
C156 C159 1.453 . S
C156 C160 1.684 . S
C157 C147 1.723 1_565 S
C157 C156 1.396 . S
C157 C158 1.394 . S
C158 C128 1.723 1_565 S
C158 C154 1.397 . S
C158 C157 1.394 . S
C159 H131 0.982 . S
C159 H135 0.979 . S
C159 H136 0.977 . S
C159 C156 1.453 . S
C160 H132 0.979 . S
C160 H133 0.980 . S
C160 H134 0.983 . S
C160 C156 1.684 . S
H161 C179 0.948 . S
H162 C120 0.948 . S
H163 C138 0.979 . S
H164 C138 0.980 . S
H165 C138 0.983 . S
H166 C137 0.982 . S
H167 C137 0.979 . S
H168 C137 0.977 1_565 S
H169 C139 0.948 . S
H170 C141 0.947 . S
H171 C142 0.948 . S
H172 C148 0.982 . S
H173 C148 0.979 . S
H174 C148 0.977 . S
H175 C149 0.979 . S
H176 C149 0.980 . S
H177 C149 0.983 . S
H178 C122 0.947 . S
C179 C122 1.392 . S
C179 C123 1.419 . S
C179 H161 0.948 . S
C180 C181 1.391 . S
C180 C184 1.391 . S
C180 H222 0.948 . S
C181 C180 1.391 . S
C181 C182 1.391 . S
C182 C181 1.391 . S
C182 H238 0.947 . S
C182 C239 1.392 . S
C183 C184 1.391 . S
C183 C187 1.397 . S
C183 C239 1.419 . S
C184 C180 1.391 . S
C184 C183 1.391 . S
C184 C185 1.399 . S
C185 C184 1.399 . S
C185 C188 1.396 . S
C185 C197 1.453 . S
C185 C198 1.684 . S
H186 C210 0.948 . S
C187 C183 1.397 . S
C187 C188 1.394 . S
C187 C206 1.723 . S
C188 C185 1.396 . S
C188 C187 1.394 . S
C188 C218 1.723 . S
H189 C212 0.947 . S
H190 C213 0.948 . S
H191 C219 0.982 . S
H192 C220 0.979 . S
H193 C220 0.980 . S
H194 C220 0.983 . S
H195 C219 0.979 . S
H196 C219 0.977 . S
C197 C185 1.453 . S
C197 H226 0.982 . S
C197 H227 0.979 . S
C197 H228 0.977 . S
C198 C185 1.684 . S
C198 H223 0.979 . S
C198 H224 0.980 . S
C198 H225 0.983 . S
C199 C200 1.391 . S
C199 C204 1.391 . S
C199 H229 0.948 . S
C200 C199 1.391 . S
C200 C201 1.391 . S
C201 C200 1.391 . S
C201 C202 1.392 . S
C201 H230 0.947 . S
C202 C201 1.392 . S
C202 C203 1.419 . S
C202 H231 0.948 . S
C203 C202 1.419 . S
C203 C204 1.391 . S
C203 C207 1.397 . S
C204 C199 1.391 . S
C204 C203 1.391 . S
C204 C205 1.399 . S
C205 C204 1.399 . S
C205 C206 1.396 . S
C205 C208 1.453 . S
C205 C209 1.684 . S
C206 C187 1.723 . S
C206 C205 1.396 . S
C206 C207 1.394 . S
C207 C203 1.397 . S
C207 C206 1.394 . S
C207 C217 1.723 . S
C208 C205 1.453 . S
C208 H232 0.982 . S
C208 H233 0.979 . S
C208 H234 0.977 . S
C209 C205 1.684 . S
C209 H235 0.979 . S
C209 H236 0.980 . S
C209 H237 0.983 . S
C210 H186 0.948 . S
C210 C211 1.391 . S
C210 C215 1.391 . S
C211 C210 1.391 . S
C211 C212 1.391 . S
C212 H189 0.947 . S
C212 C211 1.391 . S
C212 C213 1.392 . S
C213 H190 0.948 . S
C213 C212 1.392 . S
C213 C214 1.419 . S
C214 C213 1.419 . S
C214 C215 1.391 . S
C214 C218 1.397 . S
C215 C210 1.391 . S
C215 C214 1.391 . S
C215 C216 1.399 . S
C216 C215 1.399 . S
C216 C217 1.396 . S
C216 C219 1.453 . S
C216 C220 1.684 . S
C217 C207 1.723 . S
C217 C216 1.396 . S
C217 C218 1.394 . S
C218 C188 1.723 . S
C218 C214 1.397 . S
C218 C217 1.394 . S
C219 H191 0.982 . S
C219 H195 0.979 . S
C219 H196 0.977 . S
C219 C216 1.453 . S
C220 H192 0.979 . S
C220 H193 0.980 . S
C220 H194 0.983 . S
C220 C216 1.684 . S
H221 C239 0.948 . S
H222 C180 0.948 . S
H223 C198 0.979 . S
H224 C198 0.980 . S
H225 C198 0.983 . S
H226 C197 0.982 . S
H227 C197 0.979 . S
H228 C197 0.977 . S
H229 C199 0.948 . S
H230 C201 0.947 . S
H231 C202 0.948 . S
H232 C208 0.982 . S
H233 C208 0.979 . S
H234 C208 0.977 . S
H235 C209 0.979 . S
H236 C209 0.980 . S
H237 C209 0.983 . S
H238 C182 0.947 . S
C239 C182 1.392 . S
C239 C183 1.419 . S
C239 H221 0.948 . S
C240 C241 1.391 . S
C240 C244 1.391 . S
C240 H282 0.948 . S
C241 C240 1.391 . S
C241 C242 1.391 . S
C242 C241 1.391 . S
C242 H298 0.947 . S
C242 C299 1.392 . S
C243 C244 1.391 . S
C243 C247 1.397 . S
C243 C299 1.419 . S
C244 C240 1.391 . S
C244 C243 1.391 . S
C244 C245 1.399 . S
C245 C244 1.399 . S
C245 C248 1.396 . S
C245 C257 1.453 . S
C245 C258 1.684 . S
H246 C270 0.948 . S
C247 C243 1.397 . S
C247 C248 1.394 . S
C247 C266 1.723 . S
C248 C245 1.396 . S
C248 C247 1.394 . S
C248 C278 1.723 . S
H249 C272 0.947 . S
H250 C273 0.948 1_455 S
H251 C279 0.982 . S
H252 C280 0.979 . S
H253 C280 0.980 . S
H254 C280 0.983 . S
H255 C279 0.979 . S
H256 C279 0.977 . S
C257 C245 1.453 . S
C257 H286 0.982 . S
C257 H287 0.979 . S
C257 H288 0.977 . S
C258 C245 1.684 . S
C258 H283 0.979 . S
C258 H284 0.980 . S
C258 H285 0.983 . S
C259 C260 1.391 . S
C259 C264 1.391 . S
C259 H289 0.948 . S
C260 C259 1.391 . S
C260 C261 1.391 . S
C261 C260 1.391 . S
C261 C262 1.392 . S
C261 H290 0.947 1_455 S
C262 C261 1.392 . S
C262 C263 1.419 . S
C262 H291 0.948 1_455 S
C263 C262 1.419 . S
C263 C264 1.391 . S
C263 C267 1.397 . S
C264 C259 1.391 . S
C264 C263 1.391 . S
C264 C265 1.399 . S
C265 C264 1.399 . S
C265 C266 1.396 . S
C265 C268 1.453 . S
C265 C269 1.684 . S
C266 C247 1.723 . S
C266 C265 1.396 . S
C266 C267 1.394 . S
C267 C263 1.397 . S
C267 C266 1.394 . S
C267 C277 1.723 . S
C268 C265 1.453 . S
C268 H292 0.982 . S
C268 H293 0.979 . S
C268 H294 0.977 . S
C269 C265 1.684 . S
C269 H295 0.979 . S
C269 H296 0.980 . S
C269 H297 0.983 . S
C270 H246 0.948 . S
C270 C271 1.391 . S
C270 C275 1.391 . S
C271 C270 1.391 . S
C271 C272 1.391 . S
C272 H249 0.947 . S
C272 C271 1.391 . S
C272 C273 1.392 . S
C273 H250 0.948 1_655 S
C273 C272 1.392 . S
C273 C274 1.419 . S
C274 C273 1.419 . S
C274 C275 1.391 . S
C274 C278 1.397 1_655 S
C275 C270 1.391 . S
C275 C274 1.391 . S
C275 C276 1.399 . S
C276 C275 1.399 . S
C276 C277 1.396 1_655 S
C276 C279 1.453 . S
C276 C280 1.684 . S
C277 C267 1.723 . S
C277 C276 1.396 1_455 S
C277 C278 1.394 . S
C278 C248 1.723 . S
C278 C274 1.397 1_455 S
C278 C277 1.394 . S
C279 H251 0.982 . S
C279 H255 0.979 . S
C279 H256 0.977 . S
C279 C276 1.453 . S
C280 H252 0.979 . S
C280 H253 0.980 . S
C280 H254 0.983 . S
C280 C276 1.684 . S
H281 C299 0.948 . S
H282 C240 0.948 . S
H283 C258 0.979 . S
H284 C258 0.980 . S
H285 C258 0.983 . S
H286 C257 0.982 . S
H287 C257 0.979 . S
H288 C257 0.977 . S
H289 C259 0.948 . S
H290 C261 0.947 1_655 S
H291 C262 0.948 1_655 S
H292 C268 0.982 . S
H293 C268 0.979 . S
H294 C268 0.977 . S
H295 C269 0.979 . S
H296 C269 0.980 . S
H297 C269 0.983 . S
H298 C242 0.947 . S
C299 C242 1.392 . S
C299 C243 1.419 . S
C299 H281 0.948 . S
C300 C301 1.391 . S
C300 C304 1.391 . S
C300 H342 0.948 . S
C301 C300 1.391 . S
C301 C302 1.391 . S
C302 C301 1.391 . S
C302 H358 0.947 . S
C302 C359 1.392 . S
C303 C304 1.391 . S
C303 C307 1.397 . S
C303 C359 1.419 . S
C304 C300 1.391 . S
C304 C303 1.391 . S
C304 C305 1.399 . S
C305 C304 1.399 . S
C305 C308 1.396 . S
C305 C317 1.453 . S
C305 C318 1.684 . S
H306 C330 0.948 . S
C307 C303 1.397 . S
C307 C308 1.394 . S
C307 C326 1.723 . S
C308 C305 1.396 . S
C308 C307 1.394 . S
C308 C338 1.723 1_655 S
H309 C332 0.947 . S
H310 C333 0.948 . S
H311 C339 0.982 . S
H312 C340 0.979 . S
H313 C340 0.980 . S
H314 C340 0.983 . S
H315 C339 0.979 . S
H316 C339 0.977 . S
C317 C305 1.453 . S
C317 H346 0.982 1_655 S
C317 H347 0.979 . S
C317 H348 0.977 1_655 S
C318 C305 1.684 . S
C318 H343 0.979 . S
C318 H344 0.980 . S
C318 H345 0.983 . S
C319 C320 1.391 1_655 S
C319 C324 1.391 . S
C319 H349 0.948 . S
C320 C319 1.391 1_455 S
C320 C321 1.391 . S
C321 C320 1.391 . S
C321 C322 1.392 . S
C321 H350 0.947 . S
C322 C321 1.392 . S
C322 C323 1.419 . S
C322 H351 0.948 . S
C323 C322 1.419 . S
C323 C324 1.391 1_455 S
C323 C327 1.397 . S
C324 C319 1.391 . S
C324 C323 1.391 1_655 S
C324 C325 1.399 . S
C325 C324 1.399 . S
C325 C326 1.396 . S
C325 C328 1.453 . S
C325 C329 1.684 . S
C326 C307 1.723 . S
C326 C325 1.396 . S
C326 C327 1.394 1_655 S
C327 C323 1.397 . S
C327 C326 1.394 1_455 S
C327 C337 1.723 . S
C328 C325 1.453 . S
C328 H352 0.982 . S
C328 H353 0.979 . S
C328 H354 0.977 . S
C329 C325 1.684 . S
C329 H355 0.979 . S
C329 H356 0.980 . S
C329 H357 0.983 . S
C330 H306 0.948 . S
C330 C331 1.391 . S
C330 C335 1.391 . S
C331 C330 1.391 . S
C331 C332 1.391 . S
C332 H309 0.947 . S
C332 C331 1.391 . S
C332 C333 1.392 . S
C333 H310 0.948 . S
C333 C332 1.392 . S
C333 C334 1.419 . S
C334 C333 1.419 . S
C334 C335 1.391 . S
C334 C338 1.397 . S
C335 C330 1.391 . S
C335 C334 1.391 . S
C335 C336 1.399 . S
C336 C335 1.399 . S
C336 C337 1.396 . S
C336 C339 1.453 . S
C336 C340 1.684 . S
C337 C327 1.723 . S
C337 C336 1.396 . S
C337 C338 1.394 . S
C338 C308 1.723 1_455 S
C338 C334 1.397 . S
C338 C337 1.394 . S
C339 H311 0.982 . S
C339 H315 0.979 . S
C339 H316 0.977 . S
C339 C336 1.453 . S
C340 H312 0.979 . S
C340 H313 0.980 . S
C340 H314 0.983 . S
C340 C336 1.684 . S
H341 C359 0.948 . S
H342 C300 0.948 . S
H343 C318 0.979 . S
H344 C318 0.980 . S
H345 C318 0.983 . S
H346 C317 0.982 1_455 S
H347 C317 0.979 . S
H348 C317 0.977 1_455 S
H349 C319 0.948 . S
H350 C321 0.947 . S
H351 C322 0.948 . S
H352 C328 0.982 . S
H353 C328 0.979 . S
H354 C328 0.977 . S
H355 C329 0.979 . S
H356 C329 0.980 . S
H357 C329 0.983 . S
H358 C302 0.947 . S
C359 C302 1.392 . S
C359 C303 1.419 . S
C359 H341 0.948 . S
C360 C361 1.391 . S
C360 C364 1.391 . S
C360 H402 0.948 . S
C361 C360 1.391 . S
C361 C362 1.391 . S
C362 C361 1.391 . S
C362 H418 0.947 . S
C362 C419 1.392 . S
C363 C364 1.391 . S
C363 C367 1.397 . S
C363 C419 1.419 . S
C364 C360 1.391 . S
C364 C363 1.391 . S
C364 C365 1.399 . S
C365 C364 1.399 . S
C365 C368 1.396 . S
C365 C377 1.453 1_565 S
C365 C378 1.684 . S
H366 C390 0.948 . S
C367 C363 1.397 . S
C367 C368 1.394 . S
C367 C386 1.723 . S
C368 C365 1.396 . S
C368 C367 1.394 . S
C368 C398 1.723 1_565 S
H369 C392 0.947 . S
H370 C393 0.948 . S
H371 C399 0.982 . S
H372 C400 0.979 . S
H373 C400 0.980 . S
H374 C400 0.983 . S
H375 C399 0.979 . S
H376 C399 0.977 . S
C377 C365 1.453 1_545 S
C377 H406 0.982 . S
C377 H407 0.979 1_545 S
C377 H408 0.977 . S
C378 C365 1.684 . S
C378 H403 0.979 . S
C378 H404 0.980 . S
C378 H405 0.983 . S
C379 C380 1.391 . S
C379 C384 1.391 . S
C379 H409 0.948 . S
C380 C379 1.391 . S
C380 C381 1.391 1_565 S
C381 C380 1.391 1_545 S
C381 C382 1.392 . S
C381 H410 0.947 . S
C382 C381 1.392 . S
C382 C383 1.419 . S
C382 H411 0.948 . S
C383 C382 1.419 . S
C383 C384 1.391 1_545 S
C383 C387 1.397 . S
C384 C379 1.391 . S
C384 C383 1.391 1_565 S
C384 C385 1.399 . S
C385 C384 1.399 . S
C385 C386 1.396 . S
C385 C388 1.453 . S
C385 C389 1.684 . S
C386 C367 1.723 . S
C386 C385 1.396 . S
C386 C387 1.394 1_565 S
C387 C383 1.397 . S
C387 C386 1.394 1_545 S
C387 C397 1.723 . S
C388 C385 1.453 . S
C388 H412 0.982 . S
C388 H413 0.979 . S
C388 H414 0.977 . S
C389 C385 1.684 . S
C389 H415 0.979 . S
C389 H416 0.980 . S
C389 H417 0.983 . S
C390 H366 0.948 . S
C390 C391 1.391 . S
C390 C395 1.391 . S
C391 C390 1.391 . S
C391 C392 1.391 . S
C392 H369 0.947 . S
C392 C391 1.391 . S
C392 C393 1.392 . S
C393 H370 0.948 . S
C393 C392 1.392 . S
C393 C394 1.419 . S
C394 C393 1.419 . S
C394 C395 1.391 . S
C394 C398 1.397 . S
C395 C390 1.391 . S
C395 C394 1.391 . S
C395 C396 1.399 . S
C396 C395 1.399 . S
C396 C397 1.396 . S
C396 C399 1.453 . S
C396 C400 1.684 . S
C397 C387 1.723 . S
C397 C396 1.396 . S
C397 C398 1.394 . S
C398 C368 1.723 1_545 S
C398 C394 1.397 . S
C398 C397 1.394 . S
C399 H371 0.982 . S
C399 H375 0.979 . S
C399 H376 0.977 . S
C399 C396 1.453 . S
C400 H372 0.979 . S
C400 H373 0.980 . S
C400 H374 0.983 . S
C400 C396 1.684 . S
H401 C419 0.948 . S
H402 C360 0.948 . S
H403 C378 0.979 . S
H404 C378 0.980 . S
H405 C378 0.983 . S
H406 C377 0.982 . S
H407 C377 0.979 1_565 S
H408 C377 0.977 . S
H409 C379 0.948 . S
H410 C381 0.947 . S
H411 C382 0.948 . S
H412 C388 0.982 . S
H413 C388 0.979 . S
H414 C388 0.977 . S
H415 C389 0.979 . S
H416 C389 0.980 . S
H417 C389 0.983 . S
H418 C362 0.947 . S
C419 C362 1.392 . S
C419 C363 1.419 . S
C419 H401 0.948 . S
C420 C421 1.391 . S
C420 C424 1.391 . S
C420 H462 0.948 . S
C421 C420 1.391 . S
C421 C422 1.391 . S
C422 C421 1.391 . S
C422 H478 0.947 . S
C422 C479 1.392 . S
C423 C424 1.391 . S
C423 C427 1.397 . S
C423 C479 1.419 . S
C424 C420 1.391 . S
C424 C423 1.391 . S
C424 C425 1.399 . S
C425 C424 1.399 . S
C425 C428 1.396 . S
C425 C437 1.453 . S
C425 C438 1.684 . S
H426 C450 0.948 . S
C427 C423 1.397 . S
C427 C428 1.394 . S
C427 C446 1.723 . S
C428 C425 1.396 . S
C428 C427 1.394 . S
C428 C458 1.723 . S
H429 C452 0.947 . S
H430 C453 0.948 . S
H431 C459 0.982 . S
H432 C460 0.979 . S
H433 C460 0.980 . S
H434 C460 0.983 . S
H435 C459 0.979 . S
H436 C459 0.977 . S
C437 C425 1.453 . S
C437 H466 0.982 . S
C437 H467 0.979 . S
C437 H468 0.977 . S
C438 C425 1.684 . S
C438 H463 0.979 . S
C438 H464 0.980 . S
C438 H465 0.983 . S
C439 C440 1.391 . S
C439 C444 1.391 . S
C439 H469 0.948 . S
C440 C439 1.391 . S
C440 C441 1.391 . S
C441 C440 1.391 . S
C441 C442 1.392 . S
C441 H470 0.947 . S
C442 C441 1.392 . S
C442 C443 1.419 . S
C442 H471 0.948 . S
C443 C442 1.419 . S
C443 C444 1.391 . S
C443 C447 1.397 . S
C444 C439 1.391 . S
C444 C443 1.391 . S
C444 C445 1.399 . S
C445 C444 1.399 . S
C445 C446 1.396 . S
C445 C448 1.453 . S
C445 C449 1.684 . S
C446 C427 1.723 . S
C446 C445 1.396 . S
C446 C447 1.394 . S
C447 C443 1.397 . S
C447 C446 1.394 . S
C447 C457 1.723 . S
C448 C445 1.453 . S
C448 H472 0.982 . S
C448 H473 0.979 . S
C448 H474 0.977 . S
C449 C445 1.684 . S
C449 H475 0.979 . S
C449 H476 0.980 . S
C449 H477 0.983 . S
C450 H426 0.948 . S
C450 C451 1.391 . S
C450 C455 1.391 . S
C451 C450 1.391 . S
C451 C452 1.391 . S
C452 H429 0.947 . S
C452 C451 1.391 . S
C452 C453 1.392 . S
C453 H430 0.948 . S
C453 C452 1.392 . S
C453 C454 1.419 . S
C454 C453 1.419 . S
C454 C455 1.391 . S
C454 C458 1.397 . S
C455 C450 1.391 . S
C455 C454 1.391 . S
C455 C456 1.399 . S
C456 C455 1.399 . S
C456 C457 1.396 . S
C456 C459 1.453 . S
C456 C460 1.684 . S
C457 C447 1.723 . S
C457 C456 1.396 . S
C457 C458 1.394 . S
C458 C428 1.723 . S
C458 C454 1.397 . S
C458 C457 1.394 . S
C459 H431 0.982 . S
C459 H435 0.979 . S
C459 H436 0.977 . S
C459 C456 1.453 . S
C460 H432 0.979 . S
C460 H433 0.980 . S
C460 H434 0.983 . S
C460 C456 1.684 . S
H461 C479 0.948 . S
H462 C420 0.948 . S
H463 C438 0.979 . S
H464 C438 0.980 . S
H465 C438 0.983 . S
H466 C437 0.982 . S
H467 C437 0.979 . S
H468 C437 0.977 . S
H469 C439 0.948 . S
H470 C441 0.947 . S
H471 C442 0.948 . S
H472 C448 0.982 . S
H473 C448 0.979 . S
H474 C448 0.977 . S
H475 C449 0.979 . S
H476 C449 0.980 . S
H477 C449 0.983 . S
H478 C422 0.947 . S
C479 C422 1.392 . S
C479 C423 1.419 . S
C479 H461 0.948 . S
H480 C492 0.930 . S
H481 C494 0.930 . S
H482 C495 0.930 . S
H483 C499 0.959 . S
H484 C499 0.959 . S
H485 C499 0.961 . S
H486 C500 0.960 . S
H487 C500 0.961 . S
H488 C500 0.959 . S
H489 C503 0.929 . S
H490 C504 0.931 . S
H491 C506 0.930 . S
C492 H480 0.930 . S
C492 C493 1.399 . S
C492 C497 1.399 . S
C493 C492 1.399 . S
C493 C494 1.376 . S
C494 H481 0.930 . S
C494 C493 1.376 . S
C494 C495 1.388 . S
C495 H482 0.930 . S
C495 C494 1.388 . S
C495 C496 1.390 . S
C496 C495 1.390 . S
C496 C497 1.394 . S
C496 C502 1.465 . S
C497 C492 1.399 . S
C497 C496 1.394 . S
C497 C498 1.516 . S
C498 C497 1.516 . S
C498 C499 1.502 . S
C498 C500 1.561 . S
C498 C501 1.526 . S
C499 H483 0.959 . S
C499 H484 0.959 . S
C499 H485 0.961 . S
C499 C498 1.502 . S
C500 H486 0.960 . S
C500 H487 0.961 . S
C500 H488 0.959 . S
C500 C498 1.561 . S
C501 C498 1.526 . S
C501 C502 1.396 . S
C501 C506 1.390 . S
C502 C496 1.465 . S
C502 C501 1.396 . S
C502 C503 1.399 . S
C503 H489 0.929 . S
C503 C502 1.399 . S
C503 C504 1.385 . S
C504 H490 0.931 . S
C504 C503 1.385 . S
C504 C505 1.389 . S
C505 C504 1.389 . S
C505 C506 1.387 . S
C506 H491 0.930 . S
C506 C501 1.390 . S
C506 C505 1.387 . S
H507 C519 0.930 . S
H508 C521 0.930 . S
H509 C522 0.930 . S
H510 C526 0.959 . S
H511 C526 0.959 . S
H512 C526 0.961 . S
H513 C527 0.960 . S
H514 C527 0.961 . S
H515 C527 0.959 . S
H516 C530 0.929 . S
H517 C531 0.931 . S
H518 C533 0.930 . S
C519 H507 0.930 . S
C519 C520 1.399 . S
C519 C524 1.399 . S
C520 C519 1.399 . S
C520 C521 1.376 . S
C521 H508 0.930 . S
C521 C520 1.376 . S
C521 C522 1.388 . S
C522 H509 0.930 . S
C522 C521 1.388 . S
C522 C523 1.390 . S
C523 C522 1.390 . S
C523 C524 1.394 . S
C523 C529 1.465 . S
C524 C519 1.399 . S
C524 C523 1.394 . S
C524 C525 1.516 . S
C525 C524 1.516 . S
C525 C526 1.502 . S
C525 C527 1.561 . S
C525 C528 1.526 . S
C526 H510 0.959 . S
C526 H511 0.959 . S
C526 H512 0.961 . S
C526 C525 1.502 . S
C527 H513 0.960 . S
C527 H514 0.961 . S
C527 H515 0.959 . S
C527 C525 1.561 . S
C528 C525 1.526 . S
C528 C529 1.396 . S
C528 C533 1.390 . S
C529 C523 1.465 . S
C529 C528 1.396 . S
C529 C530 1.399 . S
C530 H516 0.929 . S
C530 C529 1.399 . S
C530 C531 1.385 . S
C531 H517 0.931 . S
C531 C530 1.385 . S
C531 C532 1.389 . S
C532 C531 1.389 . S
C532 C533 1.387 . S
C533 H518 0.930 . S
C533 C528 1.390 . S
C533 C532 1.387 . S
H534 C546 0.930 . S
H535 C548 0.930 . S
H536 C549 0.930 . S
H537 C553 0.959 . S
H538 C553 0.959 . S
H539 C553 0.961 . S
H540 C554 0.960 . S
H541 C554 0.961 . S
H542 C554 0.959 . S
H543 C557 0.929 . S
H544 C558 0.931 . S
H545 C560 0.930 . S
C546 H534 0.930 . S
C546 C547 1.399 . S
C546 C551 1.399 . S
C547 C546 1.399 . S
C547 C548 1.376 . S
C548 H535 0.930 . S
C548 C547 1.376 . S
C548 C549 1.388 . S
C549 H536 0.930 . S
C549 C548 1.388 . S
C549 C550 1.390 . S
C550 C549 1.390 . S
C550 C551 1.394 . S
C550 C556 1.465 . S
C551 C546 1.399 . S
C551 C550 1.394 . S
C551 C552 1.516 . S
C552 C551 1.516 . S
C552 C553 1.502 . S
C552 C554 1.561 . S
C552 C555 1.526 . S
C553 H537 0.959 . S
C553 H538 0.959 . S
C553 H539 0.961 . S
C553 C552 1.502 . S
C554 H540 0.960 . S
C554 H541 0.961 . S
C554 H542 0.959 . S
C554 C552 1.561 . S
C555 C552 1.526 . S
C555 C556 1.396 . S
C555 C560 1.390 . S
C556 C550 1.465 . S
C556 C555 1.396 . S
C556 C557 1.399 . S
C557 H543 0.929 . S
C557 C556 1.399 . S
C557 C558 1.385 . S
C558 H544 0.931 . S
C558 C557 1.385 . S
C558 C559 1.389 . S
C559 C558 1.389 . S
C559 C560 1.387 . S
C560 H545 0.930 . S
C560 C555 1.390 . S
C560 C559 1.387 . S
H561 C573 0.930 . S
H562 C575 0.930 . S
H563 C576 0.930 . S
H564 C580 0.959 . S
H565 C580 0.959 . S
H566 C580 0.961 . S
H567 C581 0.960 . S
H568 C581 0.961 . S
H569 C581 0.959 . S
H570 C584 0.929 . S
H571 C585 0.931 . S
H572 C587 0.930 . S
C573 H561 0.930 . S
C573 C574 1.399 . S
C573 C578 1.399 . S
C574 C573 1.399 . S
C574 C575 1.376 . S
C575 H562 0.930 . S
C575 C574 1.376 . S
C575 C576 1.388 . S
C576 H563 0.930 . S
C576 C575 1.388 . S
C576 C577 1.390 . S
C577 C576 1.390 . S
C577 C578 1.394 . S
C577 C583 1.465 . S
C578 C573 1.399 . S
C578 C577 1.394 . S
C578 C579 1.516 . S
C579 C578 1.516 . S
C579 C580 1.502 . S
C579 C581 1.561 . S
C579 C582 1.526 . S
C580 H564 0.959 . S
C580 H565 0.959 . S
C580 H566 0.961 . S
C580 C579 1.502 . S
C581 H567 0.960 . S
C581 H568 0.961 . S
C581 H569 0.959 . S
C581 C579 1.561 . S
C582 C579 1.526 . S
C582 C583 1.396 . S
C582 C587 1.390 . S
C583 C577 1.465 . S
C583 C582 1.396 . S
C583 C584 1.399 . S
C584 H570 0.929 . S
C584 C583 1.399 . S
C584 C585 1.385 . S
C585 H571 0.931 . S
C585 C584 1.385 . S
C585 C586 1.389 . S
C586 C585 1.389 . S
C586 C587 1.387 . S
C587 H572 0.930 . S
C587 C582 1.390 . S
C587 C586 1.387 . S
H588 C600 0.930 . S
H589 C602 0.930 . S
H590 C603 0.930 . S
H591 C607 0.959 . S
H592 C607 0.959 . S
H593 C607 0.961 . S
H594 C608 0.960 . S
H595 C608 0.961 . S
H596 C608 0.959 . S
H597 C611 0.929 . S
H598 C612 0.931 . S
H599 C614 0.930 . S
C600 H588 0.930 . S
C600 C601 1.399 . S
C600 C605 1.399 . S
C601 C600 1.399 . S
C601 C602 1.376 . S
C602 H589 0.930 . S
C602 C601 1.376 . S
C602 C603 1.388 . S
C603 H590 0.930 . S
C603 C602 1.388 . S
C603 C604 1.390 . S
C604 C603 1.390 . S
C604 C605 1.394 . S
C604 C610 1.465 . S
C605 C600 1.399 . S
C605 C604 1.394 . S
C605 C606 1.516 . S
C606 C605 1.516 . S
C606 C607 1.502 . S
C606 C608 1.561 . S
C606 C609 1.526 . S
C607 H591 0.959 . S
C607 H592 0.959 . S
C607 H593 0.961 . S
C607 C606 1.502 . S
C608 H594 0.960 . S
C608 H595 0.961 . S
C608 H596 0.959 . S
C608 C606 1.561 . S
C609 C606 1.526 . S
C609 C610 1.396 . S
C609 C614 1.390 . S
C610 C604 1.465 . S
C610 C609 1.396 . S
C610 C611 1.399 . S
C611 H597 0.929 . S
C611 C610 1.399 . S
C611 C612 1.385 . S
C612 H598 0.931 . S
C612 C611 1.385 . S
C612 C613 1.389 . S
C613 C612 1.389 . S
C613 C614 1.387 . S
C614 H599 0.930 . S
C614 C609 1.390 . S
C614 C613 1.387 . S
H615 C627 0.930 . S
H616 C629 0.930 . S
H617 C630 0.930 . S
H618 C634 0.959 . S
H619 C634 0.959 . S
H620 C634 0.961 . S
H621 C635 0.960 . S
H622 C635 0.961 . S
H623 C635 0.959 . S
H624 C638 0.929 . S
H625 C639 0.931 . S
H626 C641 0.930 . S
C627 H615 0.930 . S
C627 C628 1.399 . S
C627 C632 1.399 . S
C628 C627 1.399 . S
C628 C629 1.376 . S
C629 H616 0.930 . S
C629 C628 1.376 . S
C629 C630 1.388 . S
C630 H617 0.930 . S
C630 C629 1.388 . S
C630 C631 1.390 . S
C631 C630 1.390 . S
C631 C632 1.394 . S
C631 C637 1.465 . S
C632 C627 1.399 . S
C632 C631 1.394 . S
C632 C633 1.516 . S
C633 C632 1.516 . S
C633 C634 1.502 . S
C633 C635 1.561 . S
C633 C636 1.526 . S
C634 H618 0.959 . S
C634 H619 0.959 . S
C634 H620 0.961 . S
C634 C633 1.502 . S
C635 H621 0.960 . S
C635 H622 0.961 . S
C635 H623 0.959 . S
C635 C633 1.561 . S
C636 C633 1.526 . S
C636 C637 1.396 . S
C636 C641 1.390 . S
C637 C631 1.465 . S
C637 C636 1.396 . S
C637 C638 1.399 . S
C638 H624 0.929 . S
C638 C637 1.399 . S
C638 C639 1.385 . S
C639 H625 0.931 . S
C639 C638 1.385 . S
C639 C640 1.389 . S
C640 C639 1.389 . S
C640 C641 1.387 . S
C641 H626 0.930 . S
C641 C636 1.390 . S
C641 C640 1.387 . S
H642 C654 0.930 . S
H643 C656 0.930 . S
H644 C657 0.930 . S
H645 C661 0.959 . S
H646 C661 0.959 . S
H647 C661 0.961 . S
H648 C662 0.960 . S
H649 C662 0.961 . S
H650 C662 0.959 . S
H651 C665 0.929 . S
H652 C666 0.931 . S
H653 C668 0.930 . S
C654 H642 0.930 . S
C654 C655 1.399 . S
C654 C659 1.399 . S
C655 C654 1.399 . S
C655 C656 1.376 . S
C656 H643 0.930 . S
C656 C655 1.376 . S
C656 C657 1.388 . S
C657 H644 0.930 . S
C657 C656 1.388 . S
C657 C658 1.390 . S
C658 C657 1.390 . S
C658 C659 1.394 . S
C658 C664 1.465 . S
C659 C654 1.399 . S
C659 C658 1.394 . S
C659 C660 1.516 . S
C660 C659 1.516 . S
C660 C661 1.502 . S
C660 C662 1.561 . S
C660 C663 1.526 . S
C661 H645 0.959 . S
C661 H646 0.959 . S
C661 H647 0.961 . S
C661 C660 1.502 . S
C662 H648 0.960 . S
C662 H649 0.961 . S
C662 H650 0.959 . S
C662 C660 1.561 . S
C663 C660 1.526 . S
C663 C664 1.396 . S
C663 C668 1.390 . S
C664 C658 1.465 . S
C664 C663 1.396 . S
C664 C665 1.399 . S
C665 H651 0.929 . S
C665 C664 1.399 . S
C665 C666 1.385 . S
C666 H652 0.931 . S
C666 C665 1.385 . S
C666 C667 1.389 . S
C667 C666 1.389 . S
C667 C668 1.387 . S
C668 H653 0.930 . S
C668 C663 1.390 . S
C668 C667 1.387 . S
H669 C681 0.930 . S
H670 C683 0.930 . S
H671 C684 0.930 . S
H672 C688 0.959 . S
H673 C688 0.959 . S
H674 C688 0.961 . S
H675 C689 0.960 . S
H676 C689 0.961 . S
H677 C689 0.959 . S
H678 C692 0.929 . S
H679 C693 0.931 . S
H680 C695 0.930 . S
C681 H669 0.930 . S
C681 C682 1.399 . S
C681 C686 1.399 . S
C682 C681 1.399 . S
C682 C683 1.376 . S
C683 H670 0.930 . S
C683 C682 1.376 . S
C683 C684 1.388 . S
C684 H671 0.930 . S
C684 C683 1.388 . S
C684 C685 1.390 . S
C685 C684 1.390 . S
C685 C686 1.394 . S
C685 C691 1.465 . S
C686 C681 1.399 . S
C686 C685 1.394 . S
C686 C687 1.516 . S
C687 C686 1.516 . S
C687 C688 1.502 . S
C687 C689 1.561 . S
C687 C690 1.526 . S
C688 H672 0.959 . S
C688 H673 0.959 . S
C688 H674 0.961 . S
C688 C687 1.502 . S
C689 H675 0.960 . S
C689 H676 0.961 . S
C689 H677 0.959 . S
C689 C687 1.561 . S
C690 C687 1.526 . S
C690 C691 1.396 . S
C690 C695 1.390 . S
C691 C685 1.465 . S
C691 C690 1.396 . S
C691 C692 1.399 . S
C692 H678 0.929 . S
C692 C691 1.399 . S
C692 C693 1.385 . S
C693 H679 0.931 . S
C693 C692 1.385 . S
C693 C694 1.389 . S
C694 C693 1.389 . S
C694 C695 1.387 . S
C695 H680 0.930 . S
C695 C690 1.390 . S
C695 C694 1.387 . S
H696 C708 0.930 . S
H697 C710 0.930 . S
H698 C711 0.930 . S
H699 C715 0.959 . S
H700 C715 0.959 . S
H701 C715 0.961 . S
H702 C716 0.960 . S
H703 C716 0.961 . S
H704 C716 0.959 . S
H705 C719 0.929 . S
H706 C720 0.931 . S
H707 C722 0.930 . S
C708 H696 0.930 . S
C708 C709 1.399 . S
C708 C713 1.399 . S
C709 C708 1.399 . S
C709 C710 1.376 . S
C710 H697 0.930 . S
C710 C709 1.376 . S
C710 C711 1.388 . S
C711 H698 0.930 . S
C711 C710 1.388 . S
C711 C712 1.390 . S
C712 C711 1.390 . S
C712 C713 1.394 . S
C712 C718 1.465 . S
C713 C708 1.399 . S
C713 C712 1.394 . S
C713 C714 1.516 . S
C714 C713 1.516 . S
C714 C715 1.502 . S
C714 C716 1.561 . S
C714 C717 1.526 . S
C715 H699 0.959 . S
C715 H700 0.959 . S
C715 H701 0.961 . S
C715 C714 1.502 . S
C716 H702 0.960 . S
C716 H703 0.961 . S
C716 H704 0.959 . S
C716 C714 1.561 . S
C717 C714 1.526 . S
C717 C718 1.396 . S
C717 C722 1.390 . S
C718 C712 1.465 . S
C718 C717 1.396 . S
C718 C719 1.399 . S
C719 H705 0.929 . S
C719 C718 1.399 . S
C719 C720 1.385 . S
C720 H706 0.931 . S
C720 C719 1.385 . S
C720 C721 1.389 . S
C721 C720 1.389 . S
C721 C722 1.387 . S
C722 H707 0.930 . S
C722 C717 1.390 . S
C722 C721 1.387 . S
H723 C735 0.930 . S
H724 C737 0.930 . S
H725 C738 0.930 . S
H726 C742 0.959 . S
H727 C742 0.959 . S
H728 C742 0.961 . S
H729 C743 0.960 . S
H730 C743 0.961 . S
H731 C743 0.959 . S
H732 C746 0.929 . S
H733 C747 0.931 . S
H734 C749 0.930 . S
C735 H723 0.930 . S
C735 C736 1.399 . S
C735 C740 1.399 . S
C736 C735 1.399 . S
C736 C737 1.376 . S
C737 H724 0.930 . S
C737 C736 1.376 . S
C737 C738 1.388 . S
C738 H725 0.930 . S
C738 C737 1.388 . S
C738 C739 1.390 . S
C739 C738 1.390 . S
C739 C740 1.394 . S
C739 C745 1.465 . S
C740 C735 1.399 . S
C740 C739 1.394 . S
C740 C741 1.516 . S
C741 C740 1.516 . S
C741 C742 1.502 . S
C741 C743 1.561 . S
C741 C744 1.526 . S
C742 H726 0.959 . S
C742 H727 0.959 . S
C742 H728 0.961 . S
C742 C741 1.502 . S
C743 H729 0.960 . S
C743 H730 0.961 . S
C743 H731 0.959 . S
C743 C741 1.561 . S
C744 C741 1.526 . S
C744 C745 1.396 . S
C744 C749 1.390 . S
C745 C739 1.465 . S
C745 C744 1.396 . S
C745 C746 1.399 . S
C746 H732 0.929 . S
C746 C745 1.399 . S
C746 C747 1.385 . S
C747 H733 0.931 . S
C747 C746 1.385 . S
C747 C748 1.389 . S
C748 C747 1.389 . S
C748 C749 1.387 . S
C749 H734 0.930 . S
C749 C744 1.390 . S
C749 C748 1.387 . S
H750 C762 0.930 . S
H751 C764 0.930 . S
H752 C765 0.930 . S
H753 C769 0.959 . S
H754 C769 0.959 . S
H755 C769 0.961 . S
H756 C770 0.960 . S
H757 C770 0.961 . S
H758 C770 0.959 . S
H759 C773 0.929 . S
H760 C774 0.931 . S
H761 C776 0.930 . S
C762 H750 0.930 . S
C762 C763 1.399 . S
C762 C767 1.399 . S
C763 C762 1.399 . S
C763 C764 1.376 . S
C764 H751 0.930 . S
C764 C763 1.376 . S
C764 C765 1.388 . S
C765 H752 0.930 . S
C765 C764 1.388 . S
C765 C766 1.390 . S
C766 C765 1.390 . S
C766 C767 1.394 . S
C766 C772 1.465 . S
C767 C762 1.399 . S
C767 C766 1.394 . S
C767 C768 1.516 . S
C768 C767 1.516 . S
C768 C769 1.502 . S
C768 C770 1.561 . S
C768 C771 1.526 . S
C769 H753 0.959 . S
C769 H754 0.959 . S
C769 H755 0.961 . S
C769 C768 1.502 . S
C770 H756 0.960 . S
C770 H757 0.961 . S
C770 H758 0.959 . S
C770 C768 1.561 . S
C771 C768 1.526 . S
C771 C772 1.396 . S
C771 C776 1.390 . S
C772 C766 1.465 . S
C772 C771 1.396 . S
C772 C773 1.399 . S
C773 H759 0.929 . S
C773 C772 1.399 . S
C773 C774 1.385 . S
C774 H760 0.931 . S
C774 C773 1.385 . S
C774 C775 1.389 . S
C775 C774 1.389 . S
C775 C776 1.387 . S
C776 H761 0.930 . S
C776 C771 1.390 . S
C776 C775 1.387 . S
H777 C789 0.930 . S
H778 C791 0.930 . S
H779 C792 0.930 . S
H780 C796 0.959 . S
H781 C796 0.959 . S
H782 C796 0.961 . S
H783 C797 0.960 . S
H784 C797 0.961 . S
H785 C797 0.959 . S
H786 C800 0.929 . S
H787 C801 0.931 . S
H788 C803 0.930 . S
C789 H777 0.930 . S
C789 C790 1.399 . S
C789 C794 1.399 . S
C790 C789 1.399 . S
C790 C791 1.376 . S
C791 H778 0.930 . S
C791 C790 1.376 . S
C791 C792 1.388 . S
C792 H779 0.930 . S
C792 C791 1.388 . S
C792 C793 1.390 . S
C793 C792 1.390 . S
C793 C794 1.394 . S
C793 C799 1.465 . S
C794 C789 1.399 . S
C794 C793 1.394 . S
C794 C795 1.516 . S
C795 C794 1.516 . S
C795 C796 1.502 . S
C795 C797 1.561 . S
C795 C798 1.526 . S
C796 H780 0.959 . S
C796 H781 0.959 . S
C796 H782 0.961 . S
C796 C795 1.502 . S
C797 H783 0.960 . S
C797 H784 0.961 . S
C797 H785 0.959 . S
C797 C795 1.561 . S
C798 C795 1.526 . S
C798 C799 1.396 . S
C798 C803 1.390 . S
C799 C793 1.465 . S
C799 C798 1.396 . S
C799 C800 1.399 . S
C800 H786 0.929 . S
C800 C799 1.399 . S
C800 C801 1.385 . S
C801 H787 0.931 . S
C801 C800 1.385 . S
C801 C802 1.389 . S
C802 C801 1.389 . S
C802 C803 1.387 . S
C803 H788 0.930 . S
C803 C798 1.390 . S
C803 C802 1.387 . S
H804 C816 0.930 . S
H805 C818 0.930 . S
H806 C819 0.930 . S
H807 C823 0.959 . S
H808 C823 0.959 . S
H809 C823 0.961 . S
H810 C824 0.960 . S
H811 C824 0.961 . S
H812 C824 0.959 . S
H813 C827 0.929 . S
H814 C828 0.931 1_556 S
H815 C830 0.930 . S
C816 H804 0.930 . S
C816 C817 1.399 . S
C816 C821 1.399 . S
C817 C816 1.399 . S
C817 C818 1.376 1_455 S
C818 H805 0.930 . S
C818 C817 1.376 1_655 S
C818 C819 1.388 . S
C819 H806 0.930 . S
C819 C818 1.388 . S
C819 C820 1.390 1_655 S
C820 C819 1.390 1_455 S
C820 C821 1.394 . S
C820 C826 1.465 . S
C821 C816 1.399 . S
C821 C820 1.394 . S
C821 C822 1.516 . S
C822 C821 1.516 . S
C822 C823 1.502 . S
C822 C824 1.561 . S
C822 C825 1.526 . S
C823 H807 0.959 . S
C823 H808 0.959 . S
C823 H809 0.961 . S
C823 C822 1.502 . S
C824 H810 0.960 . S
C824 H811 0.961 . S
C824 H812 0.959 . S
C824 C822 1.561 . S
C825 C822 1.526 . S
C825 C826 1.396 . S
C825 C830 1.390 . S
C826 C820 1.465 . S
C826 C825 1.396 . S
C826 C827 1.399 1_455 S
C827 H813 0.929 . S
C827 C826 1.399 1_655 S
C827 C828 1.385 . S
C828 H814 0.931 1_554 S
C828 C827 1.385 . S
C828 C829 1.389 1_655 S
C829 C828 1.389 1_455 S
C829 C830 1.386 . S
C830 H815 0.930 . S
C830 C825 1.390 . S
C830 C829 1.386 . S
H831 C843 0.930 . S
H832 C845 0.930 . S
H833 C846 0.930 . S
H834 C850 0.946 1_545 S
H835 C850 0.959 . S
H836 C850 0.961 . S
H837 C851 0.960 . S
H838 C851 0.961 . S
H839 C851 0.959 . S
H840 C854 0.929 . S
H841 C855 0.931 . S
H842 C857 0.930 . S
C843 H831 0.930 . S
C843 C844 1.399 1_565 S
C843 C848 1.399 . S
C844 C843 1.399 1_545 S
C844 C845 1.376 . S
C845 H832 0.930 . S
C845 C844 1.376 . S
C845 C846 1.388 . S
C846 H833 0.930 . S
C846 C845 1.388 . S
C846 C847 1.390 . S
C847 C846 1.390 . S
C847 C848 1.394 1_545 S
C847 C853 1.465 . S
C848 C843 1.399 . S
C848 C847 1.394 1_565 S
C848 C849 1.516 . S
C849 C848 1.516 . S
C849 C850 1.502 . S
C849 C851 1.561 . S
C849 C852 1.509 1_565 S
C850 H834 0.946 1_565 S
C850 H835 0.959 . S
C850 H836 0.961 . S
C850 C849 1.502 . S
C851 H837 0.960 . S
C851 H838 0.961 . S
C851 H839 0.959 . S
C851 C849 1.561 . S
C852 C849 1.509 1_545 S
C852 C853 1.419 . S
C852 C857 1.386 1_545 S
C853 C847 1.465 . S
C853 C852 1.419 . S
C853 C854 1.399 . S
C854 H840 0.929 . S
C854 C853 1.399 . S
C854 C855 1.385 . S
C855 H841 0.931 . S
C855 C854 1.385 . S
C855 C856 1.389 . S
C856 C855 1.389 . S
C856 C857 1.387 1_545 S
C857 H842 0.930 . S
C857 C852 1.386 1_565 S
C857 C856 1.387 1_565 S
H858 C870 0.930 . S
H859 C872 0.930 . S
H860 C873 0.930 . S
H861 C877 0.959 . S
H862 C877 0.959 . S
H863 C877 0.961 . S
H864 C878 0.960 . S
H865 C878 0.961 . S
H866 C878 0.959 . S
H867 C881 0.929 . S
H868 C882 0.931 . S
H869 C884 0.930 . S
C870 H858 0.930 . S
C870 C871 1.399 . S
C870 C875 1.399 . S
C871 C870 1.399 . S
C871 C872 1.376 . S
C872 H859 0.930 . S
C872 C871 1.376 . S
C872 C873 1.388 . S
C873 H860 0.930 . S
C873 C872 1.388 . S
C873 C874 1.390 . S
C874 C873 1.390 . S
C874 C875 1.394 . S
C874 C880 1.465 . S
C875 C870 1.399 . S
C875 C874 1.394 . S
C875 C876 1.516 . S
C876 C875 1.516 . S
C876 C877 1.502 . S
C876 C878 1.561 . S
C876 C879 1.526 . S
C877 H861 0.959 . S
C877 H862 0.959 . S
C877 H863 0.961 . S
C877 C876 1.502 . S
C878 H864 0.960 . S
C878 H865 0.961 . S
C878 H866 0.959 . S
C878 C876 1.561 . S
C879 C876 1.526 . S
C879 C880 1.396 . S
C879 C884 1.390 . S
C880 C874 1.465 . S
C880 C879 1.396 . S
C880 C881 1.399 . S
C881 H867 0.929 . S
C881 C880 1.399 . S
C881 C882 1.385 . S
C882 H868 0.931 . S
C882 C881 1.385 . S
C882 C883 1.389 . S
C883 C882 1.389 . S
C883 C884 1.387 . S
C884 H869 0.930 . S
C884 C879 1.390 . S
C884 C883 1.387 . S
H885 C897 0.930 . S
H886 C899 0.930 . S
H887 C900 0.930 . S
H888 C904 0.959 . S
H889 C904 0.959 . S
H890 C904 0.961 . S
H891 C905 0.960 . S
H892 C905 0.961 . S
H893 C905 0.959 . S
H894 C908 0.929 . S
H895 C909 0.931 . S
H896 C911 0.930 . S
C897 H885 0.930 . S
C897 C898 1.399 1_565 S
C897 C902 1.399 . S
C898 C897 1.399 1_545 S
C898 C899 1.376 . S
C899 H886 0.930 . S
C899 C898 1.376 . S
C899 C900 1.388 . S
C900 H887 0.930 . S
C900 C899 1.388 . S
C900 C901 1.390 . S
C901 C900 1.390 . S
C901 C902 1.394 1_545 S
C901 C907 1.465 . S
C902 C897 1.399 . S
C902 C901 1.394 1_565 S
C902 C903 1.516 . S
C903 C902 1.516 . S
C903 C904 1.502 . S
C903 C905 1.561 . S
C903 C906 1.526 . S
C904 H888 0.959 . S
C904 H889 0.959 . S
C904 H890 0.961 . S
C904 C903 1.502 . S
C905 H891 0.960 . S
C905 H892 0.961 . S
C905 H893 0.959 . S
C905 C903 1.561 . S
C906 C903 1.526 . S
C906 C907 1.396 1_565 S
C906 C911 1.390 . S
C907 C901 1.465 . S
C907 C906 1.396 1_545 S
C907 C908 1.399 . S
C908 H894 0.929 . S
C908 C907 1.399 . S
C908 C909 1.385 . S
C909 H895 0.931 . S
C909 C908 1.385 . S
C909 C910 1.375 1_545 S
C910 C909 1.375 1_565 S
C910 C911 1.398 . S
C911 H896 0.930 . S
C911 C906 1.390 . S
C911 C910 1.398 . S
H912 C924 0.930 . S
H913 C926 0.930 . S
H914 C927 0.930 . S
H915 C931 0.959 . S
H916 C931 0.959 . S
H917 C931 0.961 . S
H918 C932 0.960 . S
H919 C932 0.961 . S
H920 C932 0.959 . S
H921 C935 0.929 . S
H922 C936 0.931 . S
H923 C938 0.930 . S
C924 H912 0.930 . S
C924 C925 1.399 . S
C924 C929 1.399 . S
C925 C924 1.399 . S
C925 C926 1.376 . S
C926 H913 0.930 . S
C926 C925 1.376 . S
C926 C927 1.388 . S
C927 H914 0.930 . S
C927 C926 1.388 . S
C927 C928 1.390 . S
C928 C927 1.390 . S
C928 C929 1.394 . S
C928 C934 1.465 . S
C929 C924 1.399 . S
C929 C928 1.394 . S
C929 C930 1.516 . S
C930 C929 1.516 . S
C930 C931 1.502 . S
C930 C932 1.561 . S
C930 C933 1.526 . S
C931 H915 0.959 . S
C931 H916 0.959 . S
C931 H917 0.961 . S
C931 C930 1.502 . S
C932 H918 0.960 . S
C932 H919 0.961 . S
C932 H920 0.959 . S
C932 C930 1.561 . S
C933 C930 1.526 . S
C933 C934 1.396 . S
C933 C938 1.390 . S
C934 C928 1.465 . S
C934 C933 1.396 . S
C934 C935 1.399 . S
C935 H921 0.929 . S
C935 C934 1.399 . S
C935 C936 1.385 . S
C936 H922 0.931 . S
C936 C935 1.385 . S
C936 C937 1.389 . S
C937 C936 1.389 . S
C937 C938 1.387 . S
C938 H923 0.930 . S
C938 C933 1.390 . S
C938 C937 1.387 . S
H939 C951 0.930 . S
H940 C953 0.930 . S
H941 C954 0.930 . S
H942 C958 0.959 . S
H943 C958 0.959 . S
H944 C958 0.961 . S
H945 C959 0.960 . S
H946 C959 0.961 . S
H947 C959 0.959 1_455 S
H948 C962 0.929 . S
H949 C963 0.931 . S
H950 C965 0.930 . S
C951 H939 0.930 . S
C951 C952 1.399 1_655 S
C951 C956 1.399 . S
C952 C951 1.399 1_455 S
C952 C953 1.376 . S
C953 H940 0.930 . S
C953 C952 1.376 . S
C953 C954 1.388 . S
C954 H941 0.930 . S
C954 C953 1.388 . S
C954 C955 1.390 . S
C955 C954 1.390 . S
C955 C956 1.394 1_455 S
C955 C961 1.465 . S
C956 C951 1.399 . S
C956 C955 1.394 1_655 S
C956 C957 1.516 . S
C957 C956 1.516 . S
C957 C958 1.502 . S
C957 C959 1.561 . S
C957 C960 1.526 . S
C958 H942 0.959 . S
C958 H943 0.959 . S
C958 H944 0.961 . S
C958 C957 1.502 . S
C959 H945 0.960 . S
C959 H946 0.961 . S
C959 H947 0.959 1_655 S
C959 C957 1.561 . S
C960 C957 1.526 . S
C960 C961 1.396 1_655 S
C960 C965 1.390 . S
C961 C955 1.465 . S
C961 C960 1.396 1_455 S
C961 C962 1.399 . S
C962 H948 0.929 . S
C962 C961 1.399 . S
C962 C963 1.385 . S
C963 H949 0.931 . S
C963 C962 1.385 . S
C963 C964 1.389 . S
C964 C963 1.389 . S
C964 C965 1.387 1_455 S
C965 H950 0.930 . S
C965 C960 1.390 . S
C965 C964 1.387 1_655 S
C493 C6 0.632 . S
C505 C451 0.542 . S
C520 C59 1.920 . S
C532 C301 1.814 . S
C547 C86 1.231 . S
C559 C361 1.228 . S
C574 C15 0.456 . S
C586 C421 0.515 . S
C613 C331 2.043 . S
C601 C50 2.040 . S
C640 C391 1.310 . S
C628 C95 1.295 . S
C655 C46 1.236 . S
C667 C181 1.221 . S
C682 C99 3.092 . S
C694 C271 3.085 . S
C709 C10 2.034 . S
C721 C151 2.058 . S
C748 C211 1.305 . S
C736 C55 1.319 . S
C775 C241 2.879 . S
C763 C90 3.011 . S
C790 C19 1.917 . S
C802 C121 1.751 . S
C829 C260 1.747 1_554 S
C817 C18 1.719 . S
C844 C49 1.366 . S
C856 C140 1.344 . S
C871 C98 1.469 . S
C883 C200 1.497 . S
C910 C380 1.449 . S
C898 C58 1.451 . S
C937 C440 1.060 1_556 S
C925 C89 1.091 . S
C952 C9 1.312 . S
C964 C320 1.306 . S
