# Generated by pormake.
# Topology anh, (6,3)-cn, num edge types: 1
# Building blocks:
#     Node 0, Type 0, BuildingBlock: CUWYAW_clean_sbu_0, # of connection points: 6
#     Node 1, Type 0, BuildingBlock: CUWYAW_clean_sbu_0, # of connection points: 6
#     Node 2, Type 0, BuildingBlock: CUWYAW_clean_sbu_0, # of connection points: 6
#     Node 3, Type 1, BuildingBlock: VETTIZ_charged_linker_0, # of connection points: 3
#     Node 4, Type 1, BuildingBlock: VETTIZ_charged_linker_0, # of connection points: 3
#     Node 5, Type 1, BuildingBlock: VETTIZ_charged_linker_0, # of connection points: 3
#     Node 6, Type 1, BuildingBlock: VETTIZ_charged_linker_0, # of connection points: 3
#     Node 7, Type 1, BuildingBlock: VETTIZ_charged_linker_0, # of connection points: 3
#     Node 8, Type 1, BuildingBlock: VETTIZ_charged_linker_0, # of connection points: 3
#     Edge 9, Type (0, 1), BuildingBlock: EZIPEK_clean_linker_0, # of connection points: 2
#     Edge 10, Type (0, 1), BuildingBlock: EZIPEK_clean_linker_0, # of connection points: 2
#     Edge 11, Type (0, 1), BuildingBlock: EZIPEK_clean_linker_0, # of connection points: 2
#     Edge 12, Type (0, 1), BuildingBlock: EZIPEK_clean_linker_0, # of connection points: 2
#     Edge 13, Type (0, 1), BuildingBlock: EZIPEK_clean_linker_0, # of connection points: 2
#     Edge 14, Type (0, 1), BuildingBlock: EZIPEK_clean_linker_0, # of connection points: 2
#     Edge 15, Type (0, 1), BuildingBlock: EZIPEK_clean_linker_0, # of connection points: 2
#     Edge 16, Type (0, 1), BuildingBlock: EZIPEK_clean_linker_0, # of connection points: 2
#     Edge 17, Type (0, 1), BuildingBlock: EZIPEK_clean_linker_0, # of connection points: 2
#     Edge 18, Type (0, 1), BuildingBlock: EZIPEK_clean_linker_0, # of connection points: 2
#     Edge 19, Type (0, 1), BuildingBlock: EZIPEK_clean_linker_0, # of connection points: 2
#     Edge 20, Type (0, 1), BuildingBlock: EZIPEK_clean_linker_0, # of connection points: 2
#     Edge 21, Type (0, 1), BuildingBlock: EZIPEK_clean_linker_0, # of connection points: 2
#     Edge 22, Type (0, 1), BuildingBlock: EZIPEK_clean_linker_0, # of connection points: 2
#     Edge 23, Type (0, 1), BuildingBlock: EZIPEK_clean_linker_0, # of connection points: 2
#     Edge 24, Type (0, 1), BuildingBlock: EZIPEK_clean_linker_0, # of connection points: 2
#     Edge 25, Type (0, 1), BuildingBlock: EZIPEK_clean_linker_0, # of connection points: 2
#     Edge 26, Type (0, 1), BuildingBlock: EZIPEK_clean_linker_0, # of connection points: 2
# Relax obj value: 0.312
# Max RMSD: 0.196
# Mean RMSD: 0.167
data_MOF--net-anh--node1-CUWYAW_clean_sbu_0--node2-VETTIZ_charged_linker_0--edge1-EZIPEK_clean_linker_0
_symmetry_space_group_name_H-M    P1
_symmetry_Int_Tables_number       1
_symmetry_cell_setting            triclinic
loop_
_symmetry_equiv_pos_as_xyz
'x, y, z'
_cell_length_a     27.65935
_cell_length_b     27.745069
_cell_length_c     52.881023
_cell_angle_alpha  89.358858
_cell_angle_beta   92.012476
_cell_angle_gamma 119.87891
loop_
_atom_site_label
_atom_site_type_symbol
_atom_site_fract_x
_atom_site_fract_y
_atom_site_fract_z
_atom_type_partial_charge
C0 C 1.08017 0.41447 0.16094 0.0
Eu1 Eu 0.14644 0.52129 0.16342 0.0
C2 C 1.02094 0.38346 0.15298 0.0
C3 C 0.98279 0.34659 0.17025 0.0
C4 C 0.9278 0.33559 0.16914 0.0
C5 C 0.91064 0.36092 0.15059 0.0
C6 C 0.94601 0.3901 0.13091 0.0
C7 C 1.00134 0.4018 0.13218 0.0
C8 C 0.18873 0.57699 0.20803 0.0
C9 C 1.06654 0.5787 0.15741 0.0
C10 C 0.23838 0.74794 0.16319 0.0
Eu11 Eu 0.20235 0.64296 0.15791 0.0
C12 C 0.25853 0.80778 0.16592 0.0
C13 C 0.24061 0.83495 0.14857 0.0
C14 C 0.25496 0.89027 0.15266 0.0
C15 C 0.28731 0.91882 0.17414 0.0
C16 C 0.30605 0.89216 0.19121 0.0
C17 C 0.29172 0.837 0.18716 0.0
C18 C 0.18476 0.58744 0.11331 0.0
C19 C 0.28127 0.58698 0.15814 0.0
O20 O 1.1158 0.44234 0.14347 0.0
O21 O 1.08983 0.44368 0.18165 0.0
O22 O 0.19274 0.53459 0.20107 0.0
O23 O 0.16341 0.58879 0.19091 0.0
O24 O 1.06883 0.53198 0.15873 0.0
O25 O 1.11306 0.62731 0.15805 0.0
O26 O 0.24975 0.71962 0.18003 0.0
O27 O 0.20998 0.71982 0.14304 0.0
O28 O 0.22934 0.63444 0.11874 0.0
O29 O 0.15155 0.57373 0.13108 0.0
O30 O 0.27894 0.63189 0.16469 0.0
O31 O 0.23421 0.53971 0.15331 0.0
H32 H 0.99705 0.33196 0.18636 0.0
H33 H 0.90062 0.3126 0.18437 0.0
H34 H 0.93264 0.40883 0.11626 0.0
H35 H 1.02987 0.43011 0.11848 0.0
H36 H 0.21457 0.81318 0.13213 0.0
H37 H 0.24068 0.91066 0.13925 0.0
H38 H 0.33149 0.91406 0.20778 0.0
H39 H 0.30578 0.817 0.20091 0.0
C40 C 0.65047 0.24483 0.48086 0.0
Eu41 Eu 0.66966 0.16553 0.49458 0.0
C42 C 0.69257 0.30413 0.47791 0.0
C43 C 0.68671 0.34547 0.49012 0.0
C44 C 0.73297 0.39877 0.49372 0.0
C45 C 0.78602 0.41036 0.48618 0.0
C46 C 0.79063 0.37048 0.47211 0.0
C47 C 0.74396 0.31856 0.46734 0.0
C48 C 0.68692 0.14198 0.54284 0.0
C49 C 0.80978 0.22697 0.49364 0.0
C50 C 0.74783 1.01963 0.50692 0.0
Eu51 Eu 0.72385 0.09696 0.49665 0.0
C52 C 0.71631 0.96052 0.50016 0.0
C53 C 0.67283 0.9416 0.48165 0.0
C54 C 0.63918 0.88484 0.47668 0.0
C55 C 0.6492 0.84662 0.48997 0.0
C56 C 0.69347 0.86554 0.50799 0.0
C57 C 0.72683 0.9223 0.51313 0.0
C58 C 0.70333 0.12179 0.44942 0.0
C59 C 0.58366 1.03218 0.49344 0.0
O60 O 0.6522 0.21029 0.46475 0.0
O61 O 0.64505 0.22657 0.5041 0.0
O62 O 0.64295 0.14363 0.53456 0.0
O63 O 0.72109 0.15417 0.52518 0.0
O64 O 0.7635 0.22935 0.48889 0.0
O65 O 0.80575 0.1792 0.50065 0.0
O66 O 0.72368 1.03588 0.52296 0.0
O67 O 0.76843 1.05351 0.48785 0.0
O68 O 0.74783 0.11941 0.45558 0.0
O69 O 0.67134 0.10766 0.4676 0.0
O70 O 0.63003 1.02919 0.49693 0.0
O71 O 0.58758 1.08184 0.49096 0.0
H72 H 0.64752 0.33553 0.49836 0.0
H73 H 0.72849 0.42928 0.50445 0.0
H74 H 0.83089 0.37852 0.4659 0.0
H75 H 0.7494 0.28833 0.45708 0.0
H76 H 0.66422 0.97066 0.4714 0.0
H77 H 0.60482 0.87068 0.46291 0.0
H78 H 0.70117 0.83618 0.51854 0.0
H79 H 0.75993 0.93623 0.52754 0.0
C80 C 0.89134 0.74327 0.83007 0.0
Eu81 Eu 0.78383 0.69307 0.83293 0.0
C82 C 0.92539 0.71821 0.82315 0.0
C83 C 0.94538 0.6965 0.8423 0.0
C84 C 0.9622 0.65848 0.83635 0.0
C85 C 0.96043 0.64232 0.81116 0.0
C86 C 0.9469 0.6687 0.7917 0.0
C87 C 0.92901 0.7062 0.79766 0.0
C88 C 0.72525 0.65448 0.87567 0.0
C89 C 0.72084 0.56052 0.82626 0.0
C90 C 0.55706 0.583 0.82188 0.0
Eu91 Eu 0.66549 0.64195 0.82278 0.0
C92 C 0.51244 0.52948 0.83055 0.0
C93 C 0.45776 0.51196 0.82194 0.0
C94 C 0.4132 0.46704 0.8333 0.0
C95 C 0.42296 0.43921 0.85338 0.0
C96 C 0.4779 0.45348 0.86051 0.0
C97 C 0.52267 0.4988 0.84915 0.0
C98 C 0.7257 0.67793 0.78047 0.0
C99 C 0.72925 0.77612 0.82717 0.0
O100 O 0.85884 0.74544 0.81205 0.0
O101 O 0.8658 0.72629 0.85146 0.0
O102 O 0.76861 0.65046 0.87068 0.0
O103 O 0.71514 0.68011 0.85818 0.0
O104 O 0.76911 0.60655 0.82339 0.0
O105 O 0.6758 0.56472 0.83014 0.0
O106 O 0.58731 0.58175 0.80379 0.0
O107 O 0.58655 0.61951 0.83956 0.0
O108 O 0.683 0.68368 0.78461 0.0
O109 O 0.73357 0.65223 0.79845 0.0
O110 O 0.68018 0.7305 0.82377 0.0
O111 O 0.7744 0.77148 0.83144 0.0
H112 H 0.944 0.70556 0.86205 0.0
H113 H 0.97378 0.63933 0.85157 0.0
H114 H 0.94666 0.65754 0.77211 0.0
H115 H 0.91461 0.72281 0.78241 0.0
H116 H 0.44935 0.53513 0.80751 0.0
H117 H 0.371 0.4566 0.82771 0.0
H118 H 0.48594 0.43264 0.87616 0.0
H119 H 0.56487 0.51187 0.85589 0.0
C120 C 0.68504 0.35232 0.19916 0.0
C121 C 0.73996 0.36246 0.20171 0.0
C122 C 0.7626 0.36228 0.22591 0.0
C123 C 0.67228 0.32805 0.2436 0.0
C124 C 0.65113 0.33309 0.22028 0.0
C125 C 0.58924 0.31126 0.22055 0.0
H126 H 0.38041 1.08065 0.24915 0.0
C127 C 0.62573 0.29854 0.26067 0.0
C128 C 0.57639 0.28857 0.24756 0.0
H129 H 0.38805 0.19542 0.19159 0.0
H130 H 0.46317 0.27266 0.21612 0.0
H131 H 0.50981 0.12254 0.26359 0.0
H132 H 0.38469 0.1337 0.29494 0.0
H133 H 0.4372 0.19787 0.30913 0.0
H134 H 0.43248 0.13206 0.3173 0.0
H135 H 0.4441 1.07625 0.27768 0.0
H136 H 0.50455 0.11611 0.29739 0.0
C137 C 0.5597 0.26563 0.19973 0.0
C138 C 0.57941 0.36097 0.21669 0.0
C139 C 0.65711 0.21173 0.34018 0.0
C140 C 0.62222 0.18329 0.36022 0.0
C141 C 0.56709 0.17385 0.35964 0.0
C142 C 0.54648 0.19053 0.33869 0.0
C143 C 0.58081 0.21504 0.31815 0.0
C144 C 0.63597 0.22886 0.31981 0.0
C145 C 0.66871 0.26638 0.2987 0.0
C146 C 0.62322 0.27199 0.28407 0.0
C147 C 0.57148 0.23837 0.29479 0.0
C148 C 0.69119 0.2347 0.28348 0.0
C149 C 0.71464 0.32261 0.31024 0.0
C150 C 0.3982 0.12257 0.24197 0.0
C151 C 0.38188 0.13223 0.21787 0.0
C152 C 0.40228 0.18724 0.20961 0.0
C153 C 0.44637 0.23117 0.2232 0.0
C154 C 0.46974 0.21885 0.24449 0.0
C155 C 0.44192 0.16707 0.25531 0.0
C156 C 0.46897 0.16493 0.28018 0.0
C157 C 0.52177 0.22224 0.28033 0.0
C158 C 0.52378 0.25111 0.25794 0.0
C159 C 0.48272 0.11732 0.27964 0.0
C160 C 0.42913 0.15718 0.30162 0.0
H161 H 0.74858 0.34583 0.26477 0.0
H162 H 0.66797 0.3548 0.18076 0.0
H163 H 0.60896 0.39679 0.22886 0.0
H164 H 0.53715 0.351 0.22192 0.0
H165 H 0.58568 0.37476 0.19666 0.0
H166 H 0.54632 0.22364 0.20752 0.0
H167 H 0.58679 0.27086 0.18377 0.0
H168 H 0.52357 0.26655 0.19064 0.0
H169 H 0.70043 0.22204 0.34085 0.0
H170 H 0.54063 0.15456 0.37556 0.0
H171 H 0.50617 0.18713 0.33944 0.0
H172 H 0.65705 0.1918 0.27886 0.0
H173 H 0.72416 0.23138 0.29467 0.0
H174 H 0.70867 0.25384 0.26528 0.0
H175 H 0.70562 0.32884 0.3299 0.0
H176 H 0.71762 0.35866 0.29964 0.0
H177 H 0.75606 0.32519 0.31089 0.0
H178 H 0.80557 0.37186 0.22833 0.0
C179 C 0.72931 0.34647 0.24698 0.0
C180 C 0.65239 0.65545 0.50622 0.0
C181 C 0.60456 0.65682 0.51382 0.0
C182 C 0.59418 0.65178 0.54013 0.0
C183 C 0.68196 0.65523 0.54986 0.0
C184 C 0.69021 0.65521 0.52435 0.0
C185 C 0.74441 0.65786 0.51896 0.0
H186 H 0.949 0.6176 0.56236 0.0
C187 C 0.73177 0.6605 0.5636 0.0
C188 C 0.76868 0.66239 0.5456 0.0
H189 H 0.89579 0.62527 0.48503 0.0
H190 H 0.84625 0.6687 0.49931 0.0
H191 H 0.95833 0.74001 0.57984 0.0
H192 H 0.83777 0.56612 0.58641 0.0
H193 H 0.84636 0.59955 0.61581 0.0
H194 H 0.90499 0.59953 0.60254 0.0
H195 H 0.96328 0.69873 0.60502 0.0
H196 H 0.92268 0.73307 0.60771 0.0
C197 C 0.78042 0.71062 0.50316 0.0
C198 C 0.72962 0.60236 0.50575 0.0
C199 C 0.74429 0.67105 0.65941 0.0
C200 C 0.78484 0.6752 0.67727 0.0
C201 C 0.83384 0.67752 0.66916 0.0
C202 C 0.84218 0.67539 0.64328 0.0
C203 C 0.80077 0.67035 0.62553 0.0
C204 C 0.75312 0.66885 0.63372 0.0
C205 C 0.71395 0.66408 0.61224 0.0
C206 C 0.74641 0.66405 0.58975 0.0
C207 C 0.79693 0.66722 0.59765 0.0
C208 C 0.7072 0.71622 0.61271 0.0
C209 C 0.65872 0.60816 0.6148 0.0
C210 C 0.92653 0.62785 0.54832 0.0
C211 C 0.92226 0.61192 0.52268 0.0
C212 C 0.89795 0.63332 0.50512 0.0
C213 C 0.86768 0.65764 0.51344 0.0
C214 C 0.8613 0.6602 0.53941 0.0
C215 C 0.8943 0.65046 0.55642 0.0
C216 C 0.88278 0.65736 0.58343 0.0
C217 C 0.83287 0.66596 0.5795 0.0
C218 C 0.81999 0.66633 0.55363 0.0
C219 C 0.93436 0.70971 0.59479 0.0
C220 C 0.86735 0.60304 0.598 0.0
H221 H 0.623 0.64996 0.57759 0.0
H222 H 0.66341 0.65847 0.48669 0.0
H223 H 0.76439 0.59385 0.50546 0.0
H224 H 0.71447 0.60145 0.48592 0.0
H225 H 0.69595 0.56653 0.5158 0.0
H226 H 0.76858 0.74303 0.50599 0.0
H227 H 0.77557 0.70076 0.4826 0.0
H228 H 0.82524 0.7312 0.50888 0.0
H229 H 0.7063 0.66913 0.6654 0.0
H230 H 0.86528 0.68059 0.68288 0.0
H231 H 0.87999 0.67682 0.63806 0.0
H232 H 0.74805 0.7542 0.61694 0.0
H233 H 0.67809 0.71266 0.62751 0.0
H234 H 0.69239 0.72432 0.59438 0.0
H235 H 0.66609 0.57636 0.62439 0.0
H236 H 0.63888 0.58918 0.59629 0.0
H237 H 0.62847 0.61335 0.62609 0.0
H238 H 0.55819 0.6515 0.5475 0.0
C239 C 0.63255 0.65138 0.55801 0.0
C240 C 0.17402 0.32743 0.88196 0.0
C241 C 0.21205 0.32396 0.89907 0.0
C242 C 0.19932 0.31413 0.92481 0.0
C243 C 1.12439 0.33399 0.91724 0.0
C244 C 1.13026 0.33267 0.8915 0.0
C245 C 1.09276 0.34834 0.87667 0.0
H246 H 0.96911 0.50142 0.87135 0.0
C247 C 1.08829 0.35792 0.92159 0.0
C248 C 1.06721 0.36382 0.89795 0.0
H249 H 0.99621 0.41636 0.81047 0.0
H250 H 1.0191 0.36407 0.84087 0.0
H251 H 0.91073 0.393 0.91005 0.0
H252 H 1.07997 0.52888 0.90441 0.0
H253 H 1.05601 0.52341 0.93548 0.0
H254 H 1.02143 0.53819 0.91019 0.0
H255 H 0.93163 0.46077 0.9225 0.0
H256 H 0.94112 0.41039 0.94075 0.0
C257 C 1.04838 0.29646 0.86165 0.0
C258 C 1.12997 0.399 0.85992 0.0
C259 C 1.11736 0.46084 0.0042 0.0
C260 C 1.09373 0.49061 0.01431 0.0
C261 C 1.05046 0.49299 0.00047 0.0
C262 C 1.03323 0.46834 0.9763 0.0
C263 C 1.05932 0.44083 0.96602 0.0
C264 C 1.09866 0.43524 0.98052 0.0
C265 C 1.11691 0.39875 0.9682 0.0
C266 C 1.08377 0.38527 0.94316 0.0
C267 C 1.05202 0.41216 0.94156 0.0
C268 C 1.09936 0.34637 0.98475 0.0
C269 C 0.18067 0.4341 0.96473 0.0
C270 C 0.97897 0.47055 0.86479 0.0
C271 C 0.98168 0.46297 0.83877 0.0
C272 C 0.9941 0.42257 0.8305 0.0
C273 C 1.00786 0.3929 0.84814 0.0
C274 C 1.01152 0.40573 0.87407 0.0
C275 C 0.99455 0.44192 0.88216 0.0
C276 C 1.00174 0.45076 0.91042 0.0
C277 C 1.02802 0.41551 0.91782 0.0
C278 C 1.03459 0.39029 0.89627 0.0
C279 C 0.94347 0.428 0.92167 0.0
C280 C 1.04175 0.51352 0.9156 0.0
H281 H 0.14892 0.31495 0.95396 0.0
H282 H 0.18281 0.33376 0.86202 0.0
H283 H 0.16764 0.42994 0.87092 0.0
H284 H 1.1095 0.422 0.85285 0.0
H285 H 0.14415 0.38593 0.84327 0.0
H286 H 1.04346 0.25722 0.86987 0.0
H287 H 1.05979 0.29782 0.84162 0.0
H288 H 1.00626 0.29189 0.8622 0.0
H289 H 0.1492 0.45665 0.01489 0.0
H290 H 1.03054 0.51437 0.00828 0.0
H291 H 1.00069 0.47194 0.96636 0.0
H292 H 1.06964 0.34193 -0.00054 0.0
H293 H 1.13604 0.34775 -0.00526 0.0
H294 H 1.07707 0.30752 0.97335 0.0
H295 H 0.19077 0.47169 0.95332 0.0
H296 H 0.19828 0.41165 0.95522 0.0
H297 H 0.20342 0.44799 0.98332 0.0
H298 H 0.22781 0.31026 0.93814 0.0
C299 C 0.15468 0.31842 0.93397 0.0
C300 C 1.06084 0.48138 0.47875 0.0
C301 C 1.01264 0.43615 0.46631 0.0
C302 C 1.00635 0.44062 0.44 0.0
C303 C 1.09457 0.52789 0.43831 0.0
C304 C 1.10055 0.52782 0.46434 0.0
C305 C 0.15178 0.58296 0.4733 0.0
H306 H 0.39198 0.82465 0.43529 0.0
C307 C 1.14327 0.57825 0.42796 0.0
C308 C 0.17776 0.61242 0.44824 0.0
H309 H 0.336 0.79129 0.51179 0.0
H310 H 0.25508 0.70196 0.49793 0.0
H311 H 0.36033 0.70102 0.41925 0.0
H312 H 0.27812 0.79731 0.41282 0.0
H313 H 0.25879 0.75747 0.38499 0.0
H314 H 0.33152 0.80662 0.39179 0.0
H315 H 0.38091 0.75792 0.39774 0.0
H316 H 0.32904 0.68791 0.38878 0.0
C317 C 0.19226 0.57114 0.4892 0.0
C318 C 1.13097 0.61591 0.48831 0.0
C319 C 0.16623 0.58687 0.3322 0.0
C320 C 0.20725 0.62556 0.31627 0.0
C321 C 0.25239 0.6738 0.32713 0.0
C322 C 0.25731 0.68284 0.3534 0.0
C323 C 0.21624 0.64362 0.36922 0.0
C324 C 0.17142 0.59692 0.35846 0.0
C325 C 1.13101 0.56059 0.37799 0.0
C326 C 0.15965 0.59239 0.40244 0.0
C327 C 0.20951 0.64088 0.39715 0.0
C328 C 1.12789 0.50328 0.37701 0.0
C329 C 1.07458 0.55872 0.37232 0.0
C330 C 0.36273 0.79856 0.4493 0.0
C331 C 0.37186 0.81596 0.47474 0.0
C332 C 0.33116 0.77963 0.49201 0.0
C333 C 0.28383 0.72789 0.48395 0.0
C334 C 0.27527 0.71216 0.45812 0.0
C335 C 0.3148 0.74849 0.44151 0.0
C336 C 0.29913 0.72988 0.41459 0.0
C337 C 0.24398 0.6765 0.41719 0.0
C338 C 0.22898 0.66395 0.4428 0.0
C339 C 0.34465 0.71887 0.40431 0.0
C340 C 0.2918 0.77502 0.40009 0.0
H341 H 1.03841 0.48367 0.40621 0.0
H342 H 1.06733 0.48059 0.49901 0.0
H343 H 1.09876 0.62033 0.47698 0.0
H344 H 0.16498 0.65819 0.49313 0.0
H345 H 1.11203 0.59417 0.50615 0.0
H346 H 0.20453 0.5452 0.47824 0.0
H347 H 0.17247 0.54857 0.50675 0.0
H348 H 0.2307 0.61017 0.49467 0.0
H349 H 1.13081 0.54962 0.32432 0.0
H350 H 0.28428 0.70426 0.3152 0.0
H351 H 0.29321 0.72011 0.36032 0.0
H352 H 0.17034 0.50865 0.37556 0.0
H353 H 1.10241 0.47875 0.36028 0.0
H354 H 1.11077 0.47812 0.39408 0.0
H355 H 1.07975 0.59433 0.3605 0.0
H356 H 1.05545 0.56234 0.38975 0.0
H357 H 1.04442 0.52004 0.36201 0.0
H358 H 0.97024 0.40825 0.42978 0.0
C359 C 1.04646 0.48503 0.42618 0.0
C360 C 0.72375 1.02764 0.81694 0.0
C361 C 0.72123 0.98047 0.80473 0.0
C362 C 0.71413 0.97662 0.77831 0.0
C363 C 0.71527 1.06488 0.77595 0.0
C364 C 0.7203 1.06951 0.80201 0.0
C365 C 0.72081 0.12279 0.81039 0.0
H366 H 0.72786 0.36805 0.77048 0.0
C367 C 0.71553 0.11478 0.76516 0.0
C368 C 0.71876 0.15009 0.78501 0.0
H369 H 0.71518 0.31365 0.84779 0.0
H370 H 0.71773 0.23047 0.83409 0.0
H371 H 0.81596 0.33115 0.75288 0.0
H372 H 0.63692 0.25307 0.74926 0.0
H373 H 0.65637 0.23774 0.72056 0.0
H374 H 0.6802 0.30918 0.72884 0.0
H375 H 0.77912 0.35401 0.7319 0.0
H376 H 0.79334 0.29991 0.72283 0.0
C377 C 0.77489 0.15995 0.82584 0.0
C378 C 0.66832 0.10592 0.82557 0.0
C379 C 0.711 0.12816 0.66915 0.0
C380 C 0.71335 0.16864 0.65231 0.0
C381 C 0.71885 0.21818 0.66216 0.0
C382 C 0.7213 0.22691 0.68847 0.0
C383 C 0.71813 0.18558 0.70523 0.0
C384 C 0.71347 0.13751 0.69532 0.0
C385 C 0.71153 0.09841 0.71558 0.0
C386 C 0.71531 0.13039 0.73946 0.0
C387 C 0.71882 0.18127 0.73342 0.0
C388 C 0.76351 1.09138 0.71293 0.0
C389 C 0.65432 1.04397 0.71266 0.0
C390 C 0.72592 0.33866 0.78463 0.0
C391 C 0.72193 0.34861 0.8103 0.0
C392 C 0.7188 0.30797 0.82786 0.0
C393 C 0.71982 0.25939 0.81989 0.0
C394 C 0.72272 0.24989 0.79392 0.0
C395 C 0.72545 0.28978 0.77698 0.0
C396 C 0.72509 0.27337 0.75004 0.0
C397 C 0.72152 0.21725 0.7531 0.0
C398 C 0.7209 0.2025 0.77894 0.0
C399 C 0.78097 0.31684 0.73857 0.0
C400 C 0.67229 0.26833 0.73623 0.0
H401 H 0.7063 1.01112 0.74407 0.0
H402 H 0.72883 1.03194 0.83732 0.0
H403 H 0.63035 1.07517 0.81471 0.0
H404 H 0.66279 0.14174 0.82967 0.0
H405 H 0.6705 1.08669 0.84382 0.0
H406 H 0.81186 0.16841 0.81488 0.0
H407 H 0.77623 0.13938 0.84379 0.0
H408 H 0.77866 0.20042 0.83057 0.0
H409 H 0.70696 1.0898 0.66205 0.0
H410 H 0.72081 0.24991 0.64942 0.0
H411 H 0.72526 0.26542 0.69474 0.0
H412 H 0.79877 0.12895 0.70461 0.0
H413 H 0.75396 1.05552 0.70049 0.0
H414 H 0.78081 1.08653 0.73134 0.0
H415 H 0.62134 1.05245 0.70495 0.0
H416 H 0.63826 1.02328 0.73093 0.0
H417 H 0.65654 1.01418 0.69956 0.0
H418 H 0.71178 0.94145 0.76841 0.0
C419 C 0.71114 1.01778 0.76408 0.0
C420 C 0.81366 0.58129 0.14281 0.0
C421 C 0.8626 0.58923 0.13054 0.0
C422 C 0.86865 0.60605 0.10513 0.0
C423 C 0.77899 0.60276 0.10355 0.0
C424 C 0.77254 0.58921 0.1289 0.0
C425 C 0.7186 0.58604 0.13786 0.0
H426 H 0.47757 0.59569 0.10059 0.0
C427 C 0.72938 0.60522 0.09342 0.0
C428 C 0.69287 0.59606 0.11331 0.0
H429 H 0.52445 0.58128 0.17761 0.0
H430 H 0.60853 0.58185 0.16306 0.0
H431 H 0.59571 0.68932 0.08564 0.0
H432 H 0.50881 0.51191 0.07657 0.0
H433 H 0.54604 0.53826 0.04887 0.0
H434 H 0.49358 0.5558 0.0567 0.0
H435 H 0.53856 0.653 0.06329 0.0
H436 H 0.60956 0.6764 0.05511 0.0
C437 C 0.7346 0.63273 0.1574 0.0
C438 C 0.68022 0.52815 0.1488 0.0
C439 C 0.71606 0.63091 -0.00175 0.0
C440 C 0.67455 0.63074 0.98211 0.0
C441 C 0.62538 0.62379 -0.00749 0.0
C442 C 0.61775 0.61732 0.01872 0.0
C443 C 0.65959 0.61737 0.0348 0.0
C444 C 0.70755 0.62389 0.02438 0.0
C445 C 0.74683 0.62141 0.04403 0.0
C446 C 0.71466 0.61221 0.06811 0.0
C447 C 0.66391 0.61036 0.06263 0.0
C448 C 0.80169 0.6785 0.04437 0.0
C449 C 0.7537 0.57078 0.03747 0.0
C450 C 0.50562 0.59263 0.1145 0.0
C451 C 0.49357 0.58839 0.14026 0.0
C452 C 0.53213 0.58456 0.15756 0.0
C453 C 0.58116 0.58534 0.14914 0.0
C454 C 0.59285 0.59087 0.12311 0.0
C455 C 0.55456 0.59432 0.10654 0.0
C456 C 0.57196 0.60137 0.07972 0.0
C457 C 0.62737 0.60284 0.08241 0.0
C458 C 0.64081 0.59605 0.10785 0.0
C459 C 0.57907 0.65762 0.07019 0.0
C460 C 0.52789 0.54957 0.06447 0.0
H461 H 0.83594 0.62428 0.07241 0.0
H462 H 0.80764 0.56913 0.16247 0.0
H463 H 0.67209 0.49528 0.13471 0.0
H464 H 0.63951 0.52323 0.15379 0.0
H465 H 0.69977 0.52109 0.1661 0.0
H466 H 0.76579 0.67351 0.14959 0.0
H467 H 0.75317 0.6251 0.1749 0.0
H468 H 0.69829 0.6364 0.16261 0.0
H469 H 0.75406 0.63576 0.99062 0.0
H470 H 0.59291 0.62336 0.98029 0.0
H471 H 0.57941 0.61247 0.0254 0.0
H472 H 0.79427 0.71249 0.03763 0.0
H473 H 0.83303 0.67793 0.032 0.0
H474 H 0.82028 0.69177 0.06369 0.0
H475 H 0.71388 0.53584 0.0296 0.0
H476 H 0.76419 0.55291 0.05408 0.0
H477 H 0.78584 0.58183 0.02308 0.0
H478 H 0.90532 0.61332 0.09521 0.0
C479 C 0.82779 0.61246 0.09178 0.0
C480 C 0.38255 0.63418 0.14283 0.0
C481 C 0.33771 0.58953 0.15567 0.0
C482 C 0.39558 0.54365 0.15924 0.0
C483 C 0.44164 0.59023 0.14817 0.0
N484 N 0.48213 0.68599 0.13571 0.0
N485 N 0.30964 0.50877 0.18194 0.0
C486 C 0.43595 0.63733 0.14199 0.0
C487 C 0.34665 0.5463 0.16554 0.0
N488 N 0.37374 0.67218 0.12992 0.0
N489 N 0.39721 0.49568 0.16287 0.0
H490 H 0.27525 0.51071 0.18807 0.0
H491 H 0.31653 0.47977 0.19167 0.0
H492 H 0.43159 0.49181 0.15851 0.0
H493 H 0.36269 0.45845 0.16812 0.0
H494 H 0.40289 0.70175 0.118 0.0
H495 H 0.33539 0.67064 0.12878 0.0
H496 H 0.48206 0.72333 0.13353 0.0
H497 H 0.52182 0.69036 0.13541 0.0
C498 C 0.8827 0.32948 0.50392 0.0
C499 C 0.86707 0.2793 0.49026 0.0
C500 C 0.95747 0.32993 0.46864 0.0
C501 C 0.96816 0.38201 0.47864 0.0
N502 N 0.94463 0.42999 0.50894 0.0
N503 N 0.89116 0.23325 0.45876 0.0
C504 C 0.93209 0.38117 0.49746 0.0
C505 C 0.9054 0.27989 0.4727 0.0
N506 N 0.84973 0.32754 0.523 0.0
N507 N 0.9986 0.32805 0.45585 0.0
H508 H 0.85498 0.19545 0.4614 0.0
H509 H 0.91319 0.23297 0.44325 0.0
H510 H 1.0376 0.36317 0.45339 0.0
H511 H 0.99664 0.29124 0.45025 0.0
H512 H 0.85943 0.36001 0.53542 0.0
H513 H 0.81312 0.29156 0.52756 0.0
H514 H 0.92501 0.43284 0.52468 0.0
H515 H 0.97634 0.46851 0.50317 0.0
C516 C 0.6883 0.83997 0.83537 0.0
C517 C 0.73284 0.83348 0.82617 0.0
C518 C 0.77813 0.93303 0.81343 0.0
C519 C 0.72874 0.935 0.81766 0.0
N520 N 0.63452 0.88765 0.83164 0.0
N521 N 0.82024 0.8774 0.80409 0.0
C522 C 0.68334 0.88778 0.82852 0.0
C523 C 0.77824 0.88129 0.81494 0.0
N524 N 0.65197 0.8018 0.85178 0.0
N525 N 0.82548 0.98124 0.80779 0.0
H526 H 0.82422 0.84225 0.80462 0.0
H527 H 0.84941 0.90826 0.79264 0.0
H528 H 0.82651 1.01932 0.80655 0.0
H529 H 0.8646 0.9845 0.80708 0.0
H530 H 0.62163 0.80653 0.86075 0.0
H531 H 0.65672 0.76916 0.85894 0.0
H532 H 0.59769 0.85223 0.83653 0.0
H533 H 0.63025 0.92235 0.82783 0.0
C534 C 0.97366 0.54522 0.13269 0.0
C535 C 1.01075 0.577 0.15301 0.0
C536 C 0.94712 0.61415 0.16126 0.0
C537 C 0.90822 0.5789 0.14215 0.0
N538 N 0.87874 0.4989 0.11531 0.0
N539 N 1.02539 0.633 0.19009 0.0
C540 C 0.91976 0.54051 0.12983 0.0
C541 C 0.99515 0.60883 0.16834 0.0
N542 N 0.99095 0.52234 0.1149 0.0
N543 N 0.93987 0.65456 0.17193 0.0
H544 H 1.05974 0.6293 0.19605 0.0
H545 H 1.01324 0.652 0.20336 0.0
H546 H 0.90542 0.65926 0.16756 0.0
H547 H 0.96988 0.68567 0.18372 0.0
H548 H 0.96798 0.50425 0.09822 0.0
H549 H 1.03057 0.52652 0.11541 0.0
H550 H 0.88288 0.46669 0.10771 0.0
H551 H 0.8386 0.4934 0.11334 0.0
C552 C 0.51288 0.93102 0.50639 0.0
C553 C 0.5269 0.97788 0.49035 0.0
C554 C 0.43333 0.92178 0.469 0.0
C555 C 0.42324 0.87259 0.48216 0.0
N556 N 0.45863 0.83058 0.51201 0.0
N557 N 0.50162 1.01088 0.45237 0.0
C558 C 0.46439 0.87747 0.50061 0.0
C559 C 0.48721 0.97138 0.47068 0.0
N560 N 0.54505 0.93772 0.5277 0.0
N561 N 0.39061 0.92197 0.45532 0.0
H562 H 0.5408 1.04629 0.45167 0.0
H563 H 0.47676 1.00532 0.43617 0.0
H564 H 0.35029 0.8878 0.45446 0.0
H565 H 0.39359 0.95786 0.44737 0.0
H566 H 0.53414 0.90768 0.54167 0.0
H567 H 0.57996 0.97542 0.53283 0.0
H568 H 0.48797 0.83041 0.52474 0.0
H569 H 0.42636 0.7908 0.50738 0.0
C570 C 0.67689 0.46053 0.8083 0.0
C571 C 0.7175 0.50364 0.82448 0.0
C572 C 0.75978 0.44361 0.83325 0.0
C573 C 0.71797 0.4 0.81771 0.0
N574 N 0.62788 0.3626 0.79655 0.0
N575 N 0.78954 0.52916 0.857 0.0
C576 C 0.67396 0.40735 0.80713 0.0
C577 C 0.75661 0.49301 0.83826 0.0
N578 N 0.64259 0.47087 0.79282 0.0
N579 N 0.80408 0.43914 0.84252 0.0
H580 H 0.78725 0.56425 0.86185 0.0
H581 H 0.81484 0.52151 0.86949 0.0
H582 H 0.80761 0.40391 0.83982 0.0
H583 H 0.83951 0.47194 0.85111 0.0
H584 H 0.61731 0.44392 0.77839 0.0
H585 H 0.64287 0.50846 0.79275 0.0
H586 H 0.59178 0.36333 0.79093 0.0
H587 H 0.62334 0.32297 0.79597 0.0
C588 C 0.56875 0.75767 0.50463 0.0
C589 C 0.61108 0.78632 0.4869 0.0
C590 C 0.59776 0.6976 0.47226 0.0
C591 C 0.57328 0.67488 0.49558 0.0
N592 N 0.49572 0.66673 0.51782 0.0
N593 N 0.65365 0.77973 0.44856 0.0
C594 C 0.54461 0.69927 0.50624 0.0
C595 C 0.6209 0.75533 0.46864 0.0
N596 N 0.55461 0.78609 0.52083 0.0
N597 N 0.60094 0.6646 0.45435 0.0
H598 H 0.67223 0.82219 0.4448 0.0
H599 H 0.67223 0.82219 0.4448 0.0
H600 H 0.58326 0.62182 0.45716 0.0
H601 H 0.61954 0.68014 0.43705 0.0
H602 H 0.52785 0.7669 0.53568 0.0
H603 H 0.57184 0.82914 0.51994 0.0
H604 H 0.47112 0.68211 0.52469 0.0
H605 H 0.47884 0.62363 0.51854 0.0
C606 C 0.92385 0.54086 0.80287 0.0
C607 C 0.97011 0.59541 0.80628 0.0
C608 C 1.02954 0.55824 0.82074 0.0
C609 C 0.98144 0.50464 0.82114 0.0
N610 N 0.88969 0.4412 0.80434 0.0
N611 N 1.06925 0.65542 0.80906 0.0
C612 C 0.93086 0.49464 0.80909 0.0
C613 C 1.02404 0.60367 0.81178 0.0
N614 N 0.87285 0.53364 0.79541 0.0
N615 N 1.07938 0.56579 0.83037 0.0
H616 H 1.0651 0.6888 0.8024 0.0
H617 H 1.1104 0.66425 0.81123 0.0
H618 H 1.08495 0.53264 0.83596 0.0
H619 H 1.11467 0.60454 0.83342 0.0
H620 H 0.83651 0.49523 0.79415 0.0
H621 H 0.86644 0.56662 0.79068 0.0
H622 H 0.85312 0.43055 0.79389 0.0
H623 H 0.89434 0.40719 0.80929 0.0
C624 C 0.27121 0.99062 0.19448 0.0
C625 C 0.30384 0.97752 0.17886 0.0
C626 C 0.38186 1.07205 0.18289 0.0
C627 C 0.35142 1.08434 0.20035 0.0
N628 N 0.26374 1.06168 0.21788 0.0
N629 N 0.38594 1.00732 0.15447 0.0
C630 C 0.29464 1.04557 0.20442 0.0
C631 C 0.35714 1.0191 0.1715 0.0
N632 N 0.21918 0.94969 0.20077 0.0
N633 N 0.43583 0.10891 0.17758 0.0
H634 H 0.36918 0.96883 0.14537 0.0
H635 H 0.42586 1.0367 0.14892 0.0
H636 H 0.45881 0.14887 0.1852 0.0
H637 H 0.45881 0.14887 0.1852 0.0
H638 H 0.19516 0.9544 0.21417 0.0
H639 H 0.20048 0.90975 0.193 0.0
H640 H 0.22105 1.03712 0.22027 0.0
H641 H 0.28049 0.10197 0.22508 0.0
C642 C 0.84966 0.46669 0.52252 0.0
C643 C 0.83739 0.4605 0.49595 0.0
C644 C 0.92313 0.54925 0.48953 0.0
C645 C 0.92456 0.56083 0.51549 0.0
N646 N 0.92255 0.51579 0.55454 0.0
N647 N 0.86594 0.49472 0.45356 0.0
C648 C 0.89802 0.51499 0.53164 0.0
C649 C 0.87625 0.50057 0.47911 0.0
N650 N 0.81627 0.42651 0.53901 0.0
N651 N 0.96499 0.587 0.47512 0.0
H652 H 0.83039 0.46141 0.44528 0.0
H653 H 0.89059 0.52481 0.44061 0.0
H654 H 0.99777 0.62319 0.48331 0.0
H655 H 0.96938 0.5804 0.4562 0.0
H656 H 0.82032 0.43274 0.55855 0.0
H657 H 0.78404 0.3875 0.53326 0.0
H658 H 0.90729 0.48172 0.5666 0.0
H659 H 0.96253 0.54799 0.55946 0.0
C660 C 0.33918 0.3475 0.86384 0.0
C661 C 0.37597 0.40431 0.86978 0.0
C662 C 0.30778 0.406 0.89717 0.0
C663 C 0.27068 0.34886 0.89153 0.0
N664 N 0.25379 0.26233 0.87364 0.0
N665 N 0.40226 0.48307 0.89721 0.0
C666 C 0.28747 0.31851 0.87626 0.0
C667 C 0.36268 0.43172 0.88838 0.0
N668 N 0.35297 0.32222 0.84569 0.0
N669 N 0.28944 0.43713 0.90914 0.0
H670 H 0.44276 0.50428 0.89068 0.0
H671 H 0.39657 0.50232 0.91272 0.0
H672 H 0.24917 0.42113 0.91554 0.0
H673 H 0.31263 0.48027 0.91069 0.0
H674 H 0.32569 0.28275 0.8384 0.0
H675 H 0.39159 0.34209 0.83716 0.0
H676 H 0.26529 0.23682 0.86441 0.0
H677 H 0.21566 0.24063 0.88249 0.0
C678 C 0.80792 0.32397 0.15123 0.0
C679 C 0.86267 0.36839 0.15582 0.0
C680 C 0.82586 0.41866 0.17851 0.0
C681 C 0.77411 0.36913 0.1796 0.0
N682 N 0.71414 0.27334 0.16653 0.0
N683 N 0.92506 0.45682 0.17612 0.0
C684 C 0.7639 0.32174 0.1652 0.0
C685 C 0.87208 0.41622 0.16953 0.0
N686 N 0.79864 0.28338 0.1342 0.0
N687 N 0.83107 0.46702 0.18748 0.0
H688 H 0.96058 0.45666 0.17031 0.0
H689 H 0.93367 0.48865 0.1889 0.0
H690 H 0.79699 0.46889 0.19422 0.0
H691 H 0.86727 0.50541 0.18595 0.0
H692 H 0.75892 0.25212 0.12845 0.0
H693 H 0.83085 0.28432 0.12409 0.0
H694 H 0.70715 0.23575 0.15906 0.0
H695 H 0.68048 0.26981 0.17625 0.0
C696 C 0.14783 0.50934 0.08203 0.0
C697 C 0.16512 0.56562 0.08718 0.0
C698 C 1.13813 0.57511 0.0435 0.0
C699 C 1.11365 0.51673 0.03986 0.0
N700 N 1.0817 0.42682 0.05901 0.0
N701 N 0.16554 0.64959 0.07394 0.0
C702 C 1.11409 0.48336 0.06023 0.0
C703 C 0.15705 0.59799 0.06826 0.0
N704 N 0.1665 0.48141 0.09704 0.0
N705 N 0.14576 0.60913 0.02335 0.0
H706 H 0.17835 0.66759 0.09188 0.0
H707 H 0.15476 0.67224 0.0614 0.0
H708 H 1.13435 0.5945 0.0048 0.0
H709 H 0.16835 0.65234 0.02481 0.0
H710 H 0.15856 0.44144 0.09279 0.0
H711 H 0.19554 0.50099 0.1118 0.0
H712 H 1.07764 0.40135 0.07439 0.0
H713 H 1.05433 0.40622 0.04373 0.0
C714 C 0.7167 0.1905 0.41576 0.0
C715 C 0.68871 0.13484 0.42413 0.0
C716 C 0.62238 0.10896 0.38798 0.0
C717 C 0.64475 0.16622 0.38231 0.0
N718 N 0.7073 0.26236 0.39386 0.0
N719 N 0.61449 1.04004 0.41874 0.0
C720 C 0.69059 0.20731 0.39693 0.0
C721 C 0.6413 1.09368 0.41038 0.0
N722 N 0.76824 0.22736 0.4257 0.0
N723 N 0.58479 1.06932 0.37149 0.0
H724 H 0.62968 1.02661 0.43397 0.0
H725 H 0.57592 1.00953 0.41139 0.0
H726 H 0.57091 1.07896 0.35462 0.0
H727 H 0.57109 1.02709 0.37333 0.0
H728 H 0.79286 0.2671 0.41848 0.0
H729 H 0.7885 0.21635 0.43956 0.0
H730 H 0.73684 0.29348 0.40582 0.0
H731 H 0.68762 0.27651 0.38109 0.0
C732 C 0.71643 0.62677 0.74028 0.0
C733 C 0.74338 0.67699 0.75451 0.0
C734 C 0.79922 0.72648 0.71813 0.0
C735 C 0.77454 0.67552 0.70451 0.0
N736 N 0.71847 0.5756 0.70388 0.0
N737 N 0.81566 0.77266 0.75875 0.0
C738 C 0.73591 0.62511 0.71603 0.0
C739 C 0.78651 0.72629 0.74395 0.0
N740 N 0.67053 0.58138 0.74942 0.0
N741 N 0.833 0.77522 0.70609 0.0
H742 H 0.80602 0.77384 0.77748 0.0
H743 H 0.85155 0.8082 0.75316 0.0
H744 H 0.84401 0.77685 0.68731 0.0
H745 H 0.84717 0.81429 0.7141 0.0
H746 H 0.64557 0.54543 0.73883 0.0
H747 H 0.65423 0.58141 0.76687 0.0
H748 H 0.69492 0.5371 0.71239 0.0
H749 H 0.7318 0.57291 0.686 0.0
C750 C 0.6533 0.10908 0.58642 0.0
C751 C 0.69918 0.14242 0.57088 0.0
C752 C 0.75726 0.18492 0.60967 0.0
C753 C 0.70896 0.15852 0.62438 0.0
N754 N 0.60943 0.09915 0.62649 0.0
N755 N 0.79649 0.21446 0.5685 0.0
C756 C 0.6566 0.12135 0.6127 0.0
C757 C 0.75188 0.18053 0.58268 0.0
N758 N 0.60677 1.06432 0.57614 0.0
N759 N 0.80867 0.21309 0.62157 0.0
H760 H 0.79796 0.21002 0.54918 0.0
H761 H 0.83219 0.24893 0.57595 0.0
H762 H 0.81416 0.21769 0.6412 0.0
H763 H 0.84594 0.22763 0.61226 0.0
H764 H 0.57429 1.03515 0.58686 0.0
H765 H 0.60345 1.0529 0.55718 0.0
H766 H 0.56933 1.07701 0.61838 0.0
H767 H 0.60997 0.1068 0.64579 0.0
C768 C 0.7205 0.69624 0.91713 0.0
C769 C 0.70564 0.64843 0.90201 0.0
C770 C 0.66892 0.58884 0.93935 0.0
C771 C 0.68218 0.63639 0.95423 0.0
N772 N 0.71105 0.73373 0.95677 0.0
N773 N 0.65733 0.54878 0.89747 0.0
C774 C 0.70473 0.68956 0.94288 0.0
C775 C 0.67732 0.59458 0.9128 0.0
N776 N 0.75271 0.74818 0.90741 0.0
N777 N 0.64962 0.53834 0.95077 0.0
H778 H 0.66321 0.55151 0.87805 0.0
H779 H 0.63107 0.50835 0.90347 0.0
H780 H 0.64053 0.53199 0.96991 0.0
H781 H 0.64565 0.50335 0.94173 0.0
H782 H 0.7705 0.78442 0.91827 0.0
H783 H 0.76564 0.75527 0.8888 0.0
H784 H 0.72109 0.77208 0.94895 0.0
H785 H 0.70203 0.7309 0.9759 0.0
C786 C 0.15026 0.59494 0.24777 0.0
C787 C 0.19442 0.59352 0.23531 0.0
C788 C 0.24443 0.60788 0.27642 0.0
C789 C 0.20339 0.61554 0.28827 0.0
N790 N 1.12392 0.62913 0.28371 0.0
N791 N 0.28885 0.61014 0.2374 0.0
C792 C 0.15842 0.61311 0.27345 0.0
C793 C 0.24312 0.60349 0.24955 0.0
N794 N 1.09909 0.57531 0.23594 0.0
N795 N 0.28331 0.60227 0.29083 0.0
H796 H 0.2901 0.60833 0.21776 0.0
H797 H 0.32732 0.623 0.2466 0.0
H798 H 0.28486 0.60363 0.31056 0.0
H799 H 0.31046 0.59077 0.28334 0.0
H800 H 1.06437 0.57068 0.24518 0.0
H801 H 1.08903 0.55735 0.21798 0.0
H802 H 1.09406 0.63361 0.273 0.0
H803 H 1.12889 0.64336 0.30232 0.0
loop_
_geom_bond_atom_site_label_1
_geom_bond_atom_site_label_2
_geom_bond_distance
_geom_bond_site_symmetry_2
_ccdc_geom_bond_type
C0 Eu1 2.835 . S
C0 C2 1.500 . S
C0 O20 1.257 . S
C0 O21 1.260 . S
Eu1 C0 2.835 . S
Eu1 O20 2.473 . S
Eu1 O21 2.480 . S
Eu1 O22 2.430 1_655 S
Eu1 O23 2.670 1_655 S
Eu1 O24 2.394 . S
Eu1 O29 2.355 1_655 S
Eu1 O31 2.374 1_655 S
C2 C0 1.500 . S
C2 C3 1.377 . S
C2 C7 1.377 . S
C3 C2 1.377 . S
C3 C4 1.395 . S
C3 H32 0.931 . S
C4 C3 1.395 . S
C4 C5 1.383 . S
C4 H33 0.931 . S
C5 C4 1.383 . S
C5 C6 1.394 . S
C6 C5 1.394 . S
C6 C7 1.378 . S
C6 H34 0.931 . S
C7 C2 1.377 . S
C7 C6 1.378 . S
C7 H35 0.931 . S
C8 O22 1.259 . S
C8 O23 1.270 . S
C9 O24 1.251 . S
C9 O25 1.251 . S
C10 Eu11 2.835 . S
C10 C12 1.500 . S
C10 O26 1.257 . S
C10 O27 1.260 . S
Eu11 C10 2.835 . S
Eu11 O23 2.355 . S
Eu11 O25 2.374 1_455 S
Eu11 O26 2.473 . S
Eu11 O27 2.480 . S
Eu11 O28 2.430 . S
Eu11 O29 2.670 . S
Eu11 O30 2.394 . S
C12 C10 1.500 . S
C12 C13 1.377 . S
C12 C17 1.377 . S
C13 C12 1.377 . S
C13 C14 1.395 . S
C13 H36 0.931 . S
C14 C13 1.395 . S
C14 C15 1.383 . S
C14 H37 0.931 . S
C15 C14 1.383 . S
C15 C16 1.394 . S
C16 C15 1.394 . S
C16 C17 1.378 . S
C16 H38 0.931 . S
C17 C12 1.377 . S
C17 C16 1.378 . S
C17 H39 0.931 . S
C18 O28 1.259 . S
C18 O29 1.270 . S
C19 O30 1.251 . S
C19 O31 1.251 . S
O20 C0 1.257 . S
O20 Eu1 2.473 . S
O21 C0 1.260 . S
O21 Eu1 2.480 . S
O22 Eu1 2.430 1_455 S
O22 C8 1.259 . S
O23 Eu1 2.670 1_455 S
O23 C8 1.270 . S
O23 Eu11 2.355 . S
O24 Eu1 2.394 . S
O24 C9 1.251 . S
O25 C9 1.251 . S
O25 Eu11 2.374 1_655 S
O26 C10 1.257 . S
O26 Eu11 2.473 . S
O27 C10 1.260 . S
O27 Eu11 2.480 . S
O28 Eu11 2.430 . S
O28 C18 1.259 . S
O29 Eu1 2.355 1_455 S
O29 Eu11 2.670 . S
O29 C18 1.270 . S
O30 Eu11 2.394 . S
O30 C19 1.251 . S
O31 Eu1 2.374 1_455 S
O31 C19 1.251 . S
H32 C3 0.931 . S
H33 C4 0.931 . S
H34 C6 0.931 . S
H35 C7 0.931 . S
H36 C13 0.931 . S
H37 C14 0.931 . S
H38 C16 0.931 . S
H39 C17 0.931 . S
C40 Eu41 2.835 . S
C40 C42 1.500 . S
C40 O60 1.257 . S
C40 O61 1.260 . S
Eu41 C40 2.835 . S
Eu41 O60 2.473 . S
Eu41 O61 2.480 . S
Eu41 O62 2.430 . S
Eu41 O63 2.670 . S
Eu41 O64 2.394 . S
Eu41 O69 2.355 . S
Eu41 O71 2.374 1_545 S
C42 C40 1.500 . S
C42 C43 1.377 . S
C42 C47 1.377 . S
C43 C42 1.377 . S
C43 C44 1.395 . S
C43 H72 0.931 . S
C44 C43 1.395 . S
C44 C45 1.383 . S
C44 H73 0.931 . S
C45 C44 1.383 . S
C45 C46 1.394 . S
C46 C45 1.394 . S
C46 C47 1.378 . S
C46 H74 0.931 . S
C47 C42 1.377 . S
C47 C46 1.378 . S
C47 H75 0.931 . S
C48 O62 1.259 . S
C48 O63 1.270 . S
C49 O64 1.251 . S
C49 O65 1.251 . S
C50 Eu51 2.835 . S
C50 C52 1.500 . S
C50 O66 1.257 . S
C50 O67 1.260 . S
Eu51 C50 2.835 . S
Eu51 O63 2.355 1_565 S
Eu51 O65 2.374 1_565 S
Eu51 O66 2.473 . S
Eu51 O67 2.480 . S
Eu51 O68 2.430 1_565 S
Eu51 O69 2.670 1_565 S
Eu51 O70 2.394 . S
C52 C50 1.500 . S
C52 C53 1.377 . S
C52 C57 1.377 . S
C53 C52 1.377 . S
C53 C54 1.395 . S
C53 H76 0.931 . S
C54 C53 1.395 . S
C54 C55 1.383 . S
C54 H77 0.931 . S
C55 C54 1.383 . S
C55 C56 1.394 . S
C56 C55 1.394 . S
C56 C57 1.378 . S
C56 H78 0.931 . S
C57 C52 1.377 . S
C57 C56 1.378 . S
C57 H79 0.931 . S
C58 O68 1.259 . S
C58 O69 1.270 . S
C59 O70 1.251 . S
C59 O71 1.251 . S
O60 C40 1.257 . S
O60 Eu41 2.473 . S
O61 C40 1.260 . S
O61 Eu41 2.480 . S
O62 Eu41 2.430 . S
O62 C48 1.259 . S
O63 Eu41 2.670 . S
O63 C48 1.270 . S
O63 Eu51 2.355 1_545 S
O64 Eu41 2.394 . S
O64 C49 1.251 . S
O65 C49 1.251 . S
O65 Eu51 2.374 1_545 S
O66 C50 1.257 . S
O66 Eu51 2.473 . S
O67 C50 1.260 . S
O67 Eu51 2.480 . S
O68 Eu51 2.430 1_545 S
O68 C58 1.259 . S
O69 Eu41 2.355 . S
O69 Eu51 2.670 1_545 S
O69 C58 1.270 . S
O70 Eu51 2.394 . S
O70 C59 1.251 . S
O71 Eu41 2.374 1_565 S
O71 C59 1.251 . S
H72 C43 0.931 . S
H73 C44 0.931 . S
H74 C46 0.931 . S
H75 C47 0.931 . S
H76 C53 0.931 . S
H77 C54 0.931 . S
H78 C56 0.931 . S
H79 C57 0.931 . S
C80 Eu81 2.835 . S
C80 C82 1.500 . S
C80 O100 1.257 . S
C80 O101 1.260 . S
Eu81 C80 2.835 . S
Eu81 O100 2.473 . S
Eu81 O101 2.480 . S
Eu81 O102 2.430 . S
Eu81 O103 2.670 . S
Eu81 O104 2.394 . S
Eu81 O109 2.355 . S
Eu81 O111 2.374 . S
C82 C80 1.500 . S
C82 C83 1.377 . S
C82 C87 1.377 . S
C83 C82 1.377 . S
C83 C84 1.395 . S
C83 H112 0.931 . S
C84 C83 1.395 . S
C84 C85 1.383 . S
C84 H113 0.931 . S
C85 C84 1.383 . S
C85 C86 1.394 . S
C86 C85 1.394 . S
C86 C87 1.378 . S
C86 H114 0.931 . S
C87 C82 1.377 . S
C87 C86 1.378 . S
C87 H115 0.931 . S
C88 O102 1.259 . S
C88 O103 1.270 . S
C89 O104 1.251 . S
C89 O105 1.251 . S
C90 Eu91 2.835 . S
C90 C92 1.500 . S
C90 O106 1.257 . S
C90 O107 1.260 . S
Eu91 C90 2.835 . S
Eu91 O103 2.355 . S
Eu91 O105 2.374 . S
Eu91 O106 2.473 . S
Eu91 O107 2.480 . S
Eu91 O108 2.430 . S
Eu91 O109 2.670 . S
Eu91 O110 2.394 . S
C92 C90 1.500 . S
C92 C93 1.377 . S
C92 C97 1.377 . S
C93 C92 1.377 . S
C93 C94 1.395 . S
C93 H116 0.931 . S
C94 C93 1.395 . S
C94 C95 1.383 . S
C94 H117 0.931 . S
C95 C94 1.383 . S
C95 C96 1.394 . S
C96 C95 1.394 . S
C96 C97 1.378 . S
C96 H118 0.931 . S
C97 C92 1.377 . S
C97 C96 1.378 . S
C97 H119 0.931 . S
C98 O108 1.259 . S
C98 O109 1.270 . S
C99 O110 1.251 . S
C99 O111 1.251 . S
O100 C80 1.257 . S
O100 Eu81 2.473 . S
O101 C80 1.260 . S
O101 Eu81 2.480 . S
O102 Eu81 2.430 . S
O102 C88 1.259 . S
O103 Eu81 2.670 . S
O103 C88 1.270 . S
O103 Eu91 2.355 . S
O104 Eu81 2.394 . S
O104 C89 1.251 . S
O105 C89 1.251 . S
O105 Eu91 2.374 . S
O106 C90 1.257 . S
O106 Eu91 2.473 . S
O107 C90 1.260 . S
O107 Eu91 2.480 . S
O108 Eu91 2.430 . S
O108 C98 1.259 . S
O109 Eu81 2.355 . S
O109 Eu91 2.670 . S
O109 C98 1.270 . S
O110 Eu91 2.394 . S
O110 C99 1.251 . S
O111 Eu81 2.374 . S
O111 C99 1.251 . S
H112 C83 0.931 . S
H113 C84 0.931 . S
H114 C86 0.931 . S
H115 C87 0.931 . S
H116 C93 0.931 . S
H117 C94 0.931 . S
H118 C96 0.931 . S
H119 C97 0.931 . S
C120 C121 1.391 . S
C120 C124 1.391 . S
C120 H162 0.948 . S
C121 C120 1.391 . S
C121 C122 1.391 . S
C122 C121 1.391 . S
C122 H178 0.947 . S
C122 C179 1.392 . S
C123 C124 1.391 . S
C123 C127 1.397 . S
C123 C179 1.419 . S
C124 C120 1.391 . S
C124 C123 1.391 . S
C124 C125 1.399 . S
C125 C124 1.399 . S
C125 C128 1.396 . S
C125 C137 1.453 . S
C125 C138 1.684 . S
H126 C150 0.948 . S
C127 C123 1.397 . S
C127 C128 1.394 . S
C127 C146 1.723 . S
C128 C125 1.396 . S
C128 C127 1.394 . S
C128 C158 1.723 . S
H129 C152 0.947 . S
H130 C153 0.948 1_545 S
H131 C159 0.982 . S
H132 C160 0.979 . S
H133 C160 0.980 . S
H134 C160 0.983 . S
H135 C159 0.979 . S
H136 C159 0.977 . S
C137 C125 1.453 . S
C137 H166 0.982 . S
C137 H167 0.979 . S
C137 H168 0.977 . S
C138 C125 1.684 . S
C138 H163 0.979 . S
C138 H164 0.980 . S
C138 H165 0.983 . S
C139 C140 1.391 . S
C139 C144 1.391 . S
C139 H169 0.948 . S
C140 C139 1.391 . S
C140 C141 1.391 . S
C141 C140 1.391 . S
C141 C142 1.392 . S
C141 H170 0.947 1_545 S
C142 C141 1.392 . S
C142 C143 1.419 . S
C142 H171 0.948 1_545 S
C143 C142 1.419 . S
C143 C144 1.391 . S
C143 C147 1.397 . S
C144 C139 1.391 . S
C144 C143 1.391 . S
C144 C145 1.399 . S
C145 C144 1.399 . S
C145 C146 1.396 . S
C145 C148 1.453 . S
C145 C149 1.684 . S
C146 C127 1.723 . S
C146 C145 1.396 . S
C146 C147 1.394 . S
C147 C143 1.397 . S
C147 C146 1.394 . S
C147 C157 1.723 . S
C148 C145 1.453 . S
C148 H172 0.982 . S
C148 H173 0.979 . S
C148 H174 0.977 . S
C149 C145 1.684 . S
C149 H175 0.979 . S
C149 H176 0.980 . S
C149 H177 0.983 . S
C150 H126 0.948 . S
C150 C151 1.391 . S
C150 C155 1.391 . S
C151 C150 1.391 . S
C151 C152 1.391 . S
C152 H129 0.947 . S
C152 C151 1.391 . S
C152 C153 1.392 . S
C153 H130 0.948 1_565 S
C153 C152 1.392 . S
C153 C154 1.419 . S
C154 C153 1.419 . S
C154 C155 1.391 . S
C154 C158 1.397 1_565 S
C155 C150 1.391 . S
C155 C154 1.391 . S
C155 C156 1.399 . S
C156 C155 1.399 . S
C156 C157 1.396 1_565 S
C156 C159 1.453 . S
C156 C160 1.684 . S
C157 C147 1.723 . S
C157 C156 1.396 1_545 S
C157 C158 1.394 . S
C158 C128 1.723 . S
C158 C154 1.397 1_545 S
C158 C157 1.394 . S
C159 H131 0.982 . S
C159 H135 0.979 . S
C159 H136 0.977 . S
C159 C156 1.453 . S
C160 H132 0.979 . S
C160 H133 0.980 . S
C160 H134 0.983 . S
C160 C156 1.684 . S
H161 C179 0.948 . S
H162 C120 0.948 . S
H163 C138 0.979 . S
H164 C138 0.980 . S
H165 C138 0.983 . S
H166 C137 0.982 . S
H167 C137 0.979 . S
H168 C137 0.977 . S
H169 C139 0.948 . S
H170 C141 0.947 1_565 S
H171 C142 0.948 1_565 S
H172 C148 0.982 . S
H173 C148 0.979 . S
H174 C148 0.977 . S
H175 C149 0.979 . S
H176 C149 0.980 . S
H177 C149 0.983 . S
H178 C122 0.947 . S
C179 C122 1.392 . S
C179 C123 1.419 . S
C179 H161 0.948 . S
C180 C181 1.391 . S
C180 C184 1.391 . S
C180 H222 0.948 . S
C181 C180 1.391 . S
C181 C182 1.391 . S
C182 C181 1.391 . S
C182 H238 0.947 . S
C182 C239 1.392 . S
C183 C184 1.391 . S
C183 C187 1.397 . S
C183 C239 1.419 . S
C184 C180 1.391 . S
C184 C183 1.391 . S
C184 C185 1.399 . S
C185 C184 1.399 . S
C185 C188 1.396 . S
C185 C197 1.453 . S
C185 C198 1.684 . S
H186 C210 0.948 . S
C187 C183 1.397 . S
C187 C188 1.394 . S
C187 C206 1.723 . S
C188 C185 1.396 . S
C188 C187 1.394 . S
C188 C218 1.723 . S
H189 C212 0.947 . S
H190 C213 0.948 . S
H191 C219 0.982 . S
H192 C220 0.979 . S
H193 C220 0.980 . S
H194 C220 0.983 . S
H195 C219 0.979 . S
H196 C219 0.977 . S
C197 C185 1.453 . S
C197 H226 0.982 . S
C197 H227 0.979 . S
C197 H228 0.977 . S
C198 C185 1.684 . S
C198 H223 0.979 . S
C198 H224 0.980 . S
C198 H225 0.983 . S
C199 C200 1.391 . S
C199 C204 1.391 . S
C199 H229 0.948 . S
C200 C199 1.391 . S
C200 C201 1.391 . S
C201 C200 1.391 . S
C201 C202 1.392 . S
C201 H230 0.947 . S
C202 C201 1.392 . S
C202 C203 1.419 . S
C202 H231 0.948 . S
C203 C202 1.419 . S
C203 C204 1.391 . S
C203 C207 1.397 . S
C204 C199 1.391 . S
C204 C203 1.391 . S
C204 C205 1.399 . S
C205 C204 1.399 . S
C205 C206 1.396 . S
C205 C208 1.453 . S
C205 C209 1.684 . S
C206 C187 1.723 . S
C206 C205 1.396 . S
C206 C207 1.394 . S
C207 C203 1.397 . S
C207 C206 1.394 . S
C207 C217 1.723 . S
C208 C205 1.453 . S
C208 H232 0.982 . S
C208 H233 0.979 . S
C208 H234 0.977 . S
C209 C205 1.684 . S
C209 H235 0.979 . S
C209 H236 0.980 . S
C209 H237 0.983 . S
C210 H186 0.948 . S
C210 C211 1.391 . S
C210 C215 1.391 . S
C211 C210 1.391 . S
C211 C212 1.391 . S
C212 H189 0.947 . S
C212 C211 1.391 . S
C212 C213 1.392 . S
C213 H190 0.948 . S
C213 C212 1.392 . S
C213 C214 1.419 . S
C214 C213 1.419 . S
C214 C215 1.391 . S
C214 C218 1.397 . S
C215 C210 1.391 . S
C215 C214 1.391 . S
C215 C216 1.399 . S
C216 C215 1.399 . S
C216 C217 1.396 . S
C216 C219 1.453 . S
C216 C220 1.684 . S
C217 C207 1.723 . S
C217 C216 1.396 . S
C217 C218 1.394 . S
C218 C188 1.723 . S
C218 C214 1.397 . S
C218 C217 1.394 . S
C219 H191 0.982 . S
C219 H195 0.979 . S
C219 H196 0.977 . S
C219 C216 1.453 . S
C220 H192 0.979 . S
C220 H193 0.980 . S
C220 H194 0.983 . S
C220 C216 1.684 . S
H221 C239 0.948 . S
H222 C180 0.948 . S
H223 C198 0.979 . S
H224 C198 0.980 . S
H225 C198 0.983 . S
H226 C197 0.982 . S
H227 C197 0.979 . S
H228 C197 0.977 . S
H229 C199 0.948 . S
H230 C201 0.947 . S
H231 C202 0.948 . S
H232 C208 0.982 . S
H233 C208 0.979 . S
H234 C208 0.977 . S
H235 C209 0.979 . S
H236 C209 0.980 . S
H237 C209 0.983 . S
H238 C182 0.947 . S
C239 C182 1.392 . S
C239 C183 1.419 . S
C239 H221 0.948 . S
C240 C241 1.391 . S
C240 C244 1.391 . S
C240 H282 0.948 . S
C241 C240 1.391 . S
C241 C242 1.391 . S
C242 C241 1.391 . S
C242 H298 0.947 . S
C242 C299 1.392 . S
C243 C244 1.391 . S
C243 C247 1.397 . S
C243 C299 1.419 . S
C244 C240 1.391 . S
C244 C243 1.391 . S
C244 C245 1.399 . S
C245 C244 1.399 . S
C245 C248 1.396 . S
C245 C257 1.453 . S
C245 C258 1.684 . S
H246 C270 0.948 . S
C247 C243 1.397 . S
C247 C248 1.394 . S
C247 C266 1.723 . S
C248 C245 1.396 . S
C248 C247 1.394 . S
C248 C278 1.723 1_455 S
H249 C272 0.947 . S
H250 C273 0.948 . S
H251 C279 0.982 . S
H252 C280 0.979 . S
H253 C280 0.980 . S
H254 C280 0.983 . S
H255 C279 0.979 . S
H256 C279 0.977 . S
C257 C245 1.453 . S
C257 H286 0.981 . S
C257 H287 0.979 . S
C257 H288 0.977 1_455 S
C258 C245 1.684 . S
C258 H283 0.979 . S
C258 H284 0.980 . S
C258 H285 0.983 . S
C259 C260 1.391 . S
C259 C264 1.391 1_554 S
C259 H289 0.948 . S
C260 C259 1.391 . S
C260 C261 1.391 1_455 S
C261 C260 1.391 1_655 S
C261 C262 1.392 1_554 S
C261 H290 0.947 . S
C262 C261 1.392 1_556 S
C262 C263 1.419 . S
C262 H291 0.948 . S
C263 C262 1.419 . S
C263 C264 1.391 1_655 S
C263 C267 1.397 . S
C264 C259 1.391 1_556 S
C264 C263 1.391 1_455 S
C264 C265 1.399 . S
C265 C264 1.399 . S
C265 C266 1.396 . S
C265 C268 1.453 . S
C265 C269 1.684 . S
C266 C247 1.723 . S
C266 C265 1.396 . S
C266 C267 1.394 1_455 S
C267 C263 1.397 . S
C267 C266 1.394 1_655 S
C267 C277 1.723 . S
C268 C265 1.453 . S
C268 H292 0.982 . S
C268 H293 0.979 . S
C268 H294 0.977 . S
C269 C265 1.684 . S
C269 H295 0.979 . S
C269 H296 0.980 . S
C269 H297 0.983 . S
C270 H246 0.948 . S
C270 C271 1.391 . S
C270 C275 1.391 . S
C271 C270 1.391 . S
C271 C272 1.391 . S
C272 H249 0.947 . S
C272 C271 1.391 . S
C272 C273 1.392 . S
C273 H250 0.948 . S
C273 C272 1.392 . S
C273 C274 1.419 . S
C274 C273 1.419 . S
C274 C275 1.391 . S
C274 C278 1.397 . S
C275 C270 1.391 . S
C275 C274 1.391 . S
C275 C276 1.399 . S
C276 C275 1.399 . S
C276 C277 1.396 . S
C276 C279 1.453 . S
C276 C280 1.684 . S
C277 C267 1.723 . S
C277 C276 1.396 . S
C277 C278 1.394 . S
C278 C248 1.723 1_655 S
C278 C274 1.397 . S
C278 C277 1.394 . S
C279 H251 0.982 . S
C279 H255 0.979 . S
C279 H256 0.977 . S
C279 C276 1.453 . S
C280 H252 0.979 . S
C280 H253 0.980 . S
C280 H254 0.983 . S
C280 C276 1.684 . S
H281 C299 0.948 . S
H282 C240 0.948 . S
H283 C258 0.979 . S
H284 C258 0.980 . S
H285 C258 0.983 . S
H286 C257 0.981 . S
H287 C257 0.979 . S
H288 C257 0.977 1_655 S
H289 C259 0.948 . S
H290 C261 0.947 . S
H291 C262 0.948 . S
H292 C268 0.982 . S
H293 C268 0.979 . S
H294 C268 0.977 . S
H295 C269 0.979 . S
H296 C269 0.980 . S
H297 C269 0.983 . S
H298 C242 0.947 . S
C299 C242 1.392 . S
C299 C243 1.419 . S
C299 H281 0.948 . S
C300 C301 1.391 . S
C300 C304 1.391 . S
C300 H342 0.948 . S
C301 C300 1.391 . S
C301 C302 1.391 . S
C302 C301 1.391 . S
C302 H358 0.947 . S
C302 C359 1.392 . S
C303 C304 1.391 . S
C303 C307 1.397 1_655 S
C303 C359 1.419 . S
C304 C300 1.391 . S
C304 C303 1.391 . S
C304 C305 1.399 1_655 S
C305 C304 1.399 1_455 S
C305 C308 1.396 . S
C305 C317 1.453 . S
C305 C318 1.684 . S
H306 C330 0.948 . S
C307 C303 1.397 1_455 S
C307 C308 1.394 . S
C307 C326 1.723 . S
C308 C305 1.396 . S
C308 C307 1.394 . S
C308 C338 1.723 . S
H309 C332 0.947 . S
H310 C333 0.948 . S
H311 C339 0.982 . S
H312 C340 0.979 . S
H313 C340 0.980 . S
H314 C340 0.983 . S
H315 C339 0.979 . S
H316 C339 0.977 . S
C317 C305 1.453 . S
C317 H346 0.982 . S
C317 H347 0.979 . S
C317 H348 0.977 . S
C318 C305 1.684 . S
C318 H343 0.979 1_455 S
C318 H344 0.980 . S
C318 H345 0.983 . S
C319 C320 1.391 . S
C319 C324 1.391 . S
C319 H349 0.948 1_455 S
C320 C319 1.391 . S
C320 C321 1.391 . S
C321 C320 1.391 . S
C321 C322 1.392 . S
C321 H350 0.947 . S
C322 C321 1.392 . S
C322 C323 1.419 . S
C322 H351 0.948 . S
C323 C322 1.419 . S
C323 C324 1.391 . S
C323 C327 1.397 . S
C324 C319 1.391 . S
C324 C323 1.391 . S
C324 C325 1.399 1_455 S
C325 C324 1.399 1_655 S
C325 C326 1.396 1_655 S
C325 C328 1.453 . S
C325 C329 1.684 . S
C326 C307 1.723 . S
C326 C325 1.396 1_455 S
C326 C327 1.394 . S
C327 C323 1.397 . S
C327 C326 1.394 . S
C327 C337 1.723 . S
C328 C325 1.453 . S
C328 H352 0.982 1_655 S
C328 H353 0.979 . S
C328 H354 0.977 . S
C329 C325 1.684 . S
C329 H355 0.979 . S
C329 H356 0.980 . S
C329 H357 0.983 . S
C330 H306 0.948 . S
C330 C331 1.391 . S
C330 C335 1.391 . S
C331 C330 1.391 . S
C331 C332 1.391 . S
C332 H309 0.947 . S
C332 C331 1.391 . S
C332 C333 1.392 . S
C333 H310 0.948 . S
C333 C332 1.392 . S
C333 C334 1.419 . S
C334 C333 1.419 . S
C334 C335 1.391 . S
C334 C338 1.397 . S
C335 C330 1.391 . S
C335 C334 1.391 . S
C335 C336 1.399 . S
C336 C335 1.399 . S
C336 C337 1.396 . S
C336 C339 1.453 . S
C336 C340 1.684 . S
C337 C327 1.723 . S
C337 C336 1.396 . S
C337 C338 1.394 . S
C338 C308 1.723 . S
C338 C334 1.397 . S
C338 C337 1.394 . S
C339 H311 0.982 . S
C339 H315 0.979 . S
C339 H316 0.977 . S
C339 C336 1.453 . S
C340 H312 0.979 . S
C340 H313 0.980 . S
C340 H314 0.983 . S
C340 C336 1.684 . S
H341 C359 0.948 . S
H342 C300 0.948 . S
H343 C318 0.979 1_655 S
H344 C318 0.980 . S
H345 C318 0.983 . S
H346 C317 0.982 . S
H347 C317 0.979 . S
H348 C317 0.977 . S
H349 C319 0.948 1_655 S
H350 C321 0.947 . S
H351 C322 0.948 . S
H352 C328 0.982 1_455 S
H353 C328 0.979 . S
H354 C328 0.977 . S
H355 C329 0.979 . S
H356 C329 0.980 . S
H357 C329 0.983 . S
H358 C302 0.947 . S
C359 C302 1.392 . S
C359 C303 1.419 . S
C359 H341 0.948 . S
C360 C361 1.391 . S
C360 C364 1.391 . S
C360 H402 0.948 . S
C361 C360 1.391 . S
C361 C362 1.391 . S
C362 C361 1.391 . S
C362 H418 0.947 . S
C362 C419 1.392 . S
C363 C364 1.391 . S
C363 C367 1.397 . S
C363 C419 1.419 . S
C364 C360 1.391 . S
C364 C363 1.391 . S
C364 C365 1.399 . S
C365 C364 1.399 . S
C365 C368 1.396 . S
C365 C377 1.453 . S
C365 C378 1.684 . S
H366 C390 0.948 . S
C367 C363 1.397 . S
C367 C368 1.394 . S
C367 C386 1.723 . S
C368 C365 1.396 . S
C368 C367 1.394 . S
C368 C398 1.723 1_565 S
H369 C392 0.947 . S
H370 C393 0.948 . S
H371 C399 0.982 . S
H372 C400 0.979 . S
H373 C400 0.980 . S
H374 C400 0.983 . S
H375 C399 0.979 . S
H376 C399 0.977 . S
C377 C365 1.453 . S
C377 H406 0.982 1_565 S
C377 H407 0.979 . S
C377 H408 0.977 1_565 S
C378 C365 1.684 . S
C378 H403 0.979 . S
C378 H404 0.980 . S
C378 H405 0.983 . S
C379 C380 1.391 1_565 S
C379 C384 1.391 . S
C379 H409 0.948 . S
C380 C379 1.391 1_545 S
C380 C381 1.391 . S
C381 C380 1.391 . S
C381 C382 1.392 . S
C381 H410 0.947 . S
C382 C381 1.392 . S
C382 C383 1.419 . S
C382 H411 0.948 . S
C383 C382 1.419 . S
C383 C384 1.391 1_545 S
C383 C387 1.397 . S
C384 C379 1.391 . S
C384 C383 1.391 1_565 S
C384 C385 1.399 . S
C385 C384 1.399 . S
C385 C386 1.396 . S
C385 C388 1.453 . S
C385 C389 1.684 . S
C386 C367 1.723 . S
C386 C385 1.396 . S
C386 C387 1.394 1_565 S
C387 C383 1.397 . S
C387 C386 1.394 1_545 S
C387 C397 1.723 . S
C388 C385 1.453 . S
C388 H412 0.982 . S
C388 H413 0.979 . S
C388 H414 0.977 . S
C389 C385 1.684 . S
C389 H415 0.979 . S
C389 H416 0.980 . S
C389 H417 0.983 . S
C390 H366 0.948 . S
C390 C391 1.391 . S
C390 C395 1.391 . S
C391 C390 1.391 . S
C391 C392 1.391 . S
C392 H369 0.947 . S
C392 C391 1.391 . S
C392 C393 1.392 . S
C393 H370 0.948 . S
C393 C392 1.392 . S
C393 C394 1.419 . S
C394 C393 1.419 . S
C394 C395 1.391 . S
C394 C398 1.397 . S
C395 C390 1.391 . S
C395 C394 1.391 . S
C395 C396 1.399 . S
C396 C395 1.399 . S
C396 C397 1.396 . S
C396 C399 1.453 . S
C396 C400 1.684 . S
C397 C387 1.723 . S
C397 C396 1.396 . S
C397 C398 1.394 . S
C398 C368 1.723 1_545 S
C398 C394 1.397 . S
C398 C397 1.394 . S
C399 H371 0.982 . S
C399 H375 0.979 . S
C399 H376 0.977 . S
C399 C396 1.453 . S
C400 H372 0.979 . S
C400 H373 0.980 . S
C400 H374 0.983 . S
C400 C396 1.684 . S
H401 C419 0.948 . S
H402 C360 0.948 . S
H403 C378 0.979 . S
H404 C378 0.980 . S
H405 C378 0.983 . S
H406 C377 0.982 1_545 S
H407 C377 0.979 . S
H408 C377 0.977 1_545 S
H409 C379 0.948 . S
H410 C381 0.947 . S
H411 C382 0.948 . S
H412 C388 0.982 . S
H413 C388 0.979 . S
H414 C388 0.977 . S
H415 C389 0.979 . S
H416 C389 0.980 . S
H417 C389 0.983 . S
H418 C362 0.947 . S
C419 C362 1.392 . S
C419 C363 1.419 . S
C419 H401 0.948 . S
C420 C421 1.391 . S
C420 C424 1.391 . S
C420 H462 0.948 . S
C421 C420 1.391 . S
C421 C422 1.391 . S
C422 C421 1.391 . S
C422 H478 0.947 . S
C422 C479 1.392 . S
C423 C424 1.391 . S
C423 C427 1.397 . S
C423 C479 1.419 . S
C424 C420 1.391 . S
C424 C423 1.391 . S
C424 C425 1.399 . S
C425 C424 1.399 . S
C425 C428 1.396 . S
C425 C437 1.453 . S
C425 C438 1.684 . S
H426 C450 0.948 . S
C427 C423 1.397 . S
C427 C428 1.394 . S
C427 C446 1.723 . S
C428 C425 1.396 . S
C428 C427 1.394 . S
C428 C458 1.723 . S
H429 C452 0.947 . S
H430 C453 0.948 . S
H431 C459 0.982 . S
H432 C460 0.979 . S
H433 C460 0.980 . S
H434 C460 0.983 . S
H435 C459 0.979 . S
H436 C459 0.977 . S
C437 C425 1.453 . S
C437 H466 0.982 . S
C437 H467 0.979 . S
C437 H468 0.977 . S
C438 C425 1.684 . S
C438 H463 0.979 . S
C438 H464 0.980 . S
C438 H465 0.983 . S
C439 C440 1.391 1_554 S
C439 C444 1.391 . S
C439 H469 0.948 . S
C440 C439 1.391 1_556 S
C440 C441 1.391 1_556 S
C441 C440 1.391 1_554 S
C441 C442 1.392 . S
C441 H470 0.938 1_554 S
C442 C441 1.392 . S
C442 C443 1.419 . S
C442 H471 0.948 . S
C443 C442 1.419 . S
C443 C444 1.391 . S
C443 C447 1.397 . S
C444 C439 1.391 . S
C444 C443 1.391 . S
C444 C445 1.399 . S
C445 C444 1.399 . S
C445 C446 1.396 . S
C445 C448 1.453 . S
C445 C449 1.684 . S
C446 C427 1.723 . S
C446 C445 1.396 . S
C446 C447 1.394 . S
C447 C443 1.397 . S
C447 C446 1.394 . S
C447 C457 1.723 . S
C448 C445 1.453 . S
C448 H472 0.982 . S
C448 H473 0.979 . S
C448 H474 0.977 . S
C449 C445 1.684 . S
C449 H475 0.979 . S
C449 H476 0.980 . S
C449 H477 0.983 . S
C450 H426 0.948 . S
C450 C451 1.391 . S
C450 C455 1.391 . S
C451 C450 1.391 . S
C451 C452 1.391 . S
C452 H429 0.947 . S
C452 C451 1.391 . S
C452 C453 1.392 . S
C453 H430 0.948 . S
C453 C452 1.392 . S
C453 C454 1.419 . S
C454 C453 1.419 . S
C454 C455 1.391 . S
C454 C458 1.397 . S
C455 C450 1.391 . S
C455 C454 1.391 . S
C455 C456 1.399 . S
C456 C455 1.399 . S
C456 C457 1.396 . S
C456 C459 1.453 . S
C456 C460 1.684 . S
C457 C447 1.723 . S
C457 C456 1.396 . S
C457 C458 1.394 . S
C458 C428 1.723 . S
C458 C454 1.397 . S
C458 C457 1.394 . S
C459 H431 0.982 . S
C459 H435 0.979 . S
C459 H436 0.977 . S
C459 C456 1.453 . S
C460 H432 0.979 . S
C460 H433 0.980 . S
C460 H434 0.983 . S
C460 C456 1.684 . S
H461 C479 0.948 . S
H462 C420 0.948 . S
H463 C438 0.979 . S
H464 C438 0.980 . S
H465 C438 0.983 . S
H466 C437 0.982 . S
H467 C437 0.979 . S
H468 C437 0.977 . S
H469 C439 0.948 . S
H470 C441 0.938 1_556 S
H471 C442 0.948 . S
H472 C448 0.982 . S
H473 C448 0.979 . S
H474 C448 0.977 . S
H475 C449 0.979 . S
H476 C449 0.980 . S
H477 C449 0.983 . S
H478 C422 0.947 . S
C479 C422 1.392 . S
C479 C423 1.419 . S
C479 H461 0.948 . S
C480 C481 1.363 . S
C480 C486 1.379 . S
C480 N488 1.356 . S
C481 C480 1.363 . S
C481 C487 1.363 . S
C482 C483 1.363 . S
C482 C487 1.379 . S
C482 N489 1.356 . S
C483 C482 1.363 . S
C483 C486 1.363 . S
N484 C486 1.356 . S
N484 H496 0.984 . S
N484 H497 0.985 . S
N485 C487 1.356 . S
N485 H490 0.984 . S
N485 H491 0.985 . S
C486 C480 1.379 . S
C486 C483 1.363 . S
C486 N484 1.356 . S
C487 C481 1.363 . S
C487 C482 1.379 . S
C487 N485 1.356 . S
N488 C480 1.356 . S
N488 H494 0.984 . S
N488 H495 0.984 . S
N489 C482 1.356 . S
N489 H492 0.984 . S
N489 H493 0.985 . S
H490 N485 0.984 . S
H491 N485 0.985 . S
H492 N489 0.984 . S
H493 N489 0.985 . S
H494 N488 0.984 . S
H495 N488 0.984 . S
H496 N484 0.984 . S
H497 N484 0.985 . S
C498 C499 1.363 . S
C498 C504 1.379 . S
C498 N506 1.356 . S
C499 C498 1.363 . S
C499 C505 1.363 . S
C500 C501 1.363 . S
C500 C505 1.379 . S
C500 N507 1.356 . S
C501 C500 1.363 . S
C501 C504 1.363 . S
N502 C504 1.356 . S
N502 H514 0.984 . S
N502 H515 0.985 . S
N503 C505 1.356 . S
N503 H508 0.984 . S
N503 H509 0.985 . S
C504 C498 1.379 . S
C504 C501 1.363 . S
C504 N502 1.356 . S
C505 C499 1.363 . S
C505 C500 1.379 . S
C505 N503 1.356 . S
N506 C498 1.356 . S
N506 H512 0.984 . S
N506 H513 0.984 . S
N507 C500 1.356 . S
N507 H510 0.984 . S
N507 H511 0.985 . S
H508 N503 0.984 . S
H509 N503 0.985 . S
H510 N507 0.984 . S
H511 N507 0.985 . S
H512 N506 0.984 . S
H513 N506 0.984 . S
H514 N502 0.984 . S
H515 N502 0.985 . S
C516 C517 1.363 . S
C516 C522 1.379 . S
C516 N524 1.356 . S
C517 C516 1.363 . S
C517 C523 1.363 . S
C518 C519 1.363 . S
C518 C523 1.379 . S
C518 N525 1.356 . S
C519 C518 1.363 . S
C519 C522 1.363 . S
N520 C522 1.356 . S
N520 H532 0.984 . S
N520 H533 0.985 . S
N521 C523 1.356 . S
N521 H526 0.984 . S
N521 H527 0.985 . S
C522 C516 1.379 . S
C522 C519 1.363 . S
C522 N520 1.356 . S
C523 C517 1.363 . S
C523 C518 1.379 . S
C523 N521 1.356 . S
N524 C516 1.356 . S
N524 H530 0.984 . S
N524 H531 0.984 . S
N525 C518 1.356 . S
N525 H528 0.984 . S
N525 H529 0.985 . S
H526 N521 0.984 . S
H527 N521 0.985 . S
H528 N525 0.984 . S
H529 N525 0.985 . S
H530 N524 0.984 . S
H531 N524 0.984 . S
H532 N520 0.984 . S
H533 N520 0.985 . S
C534 C535 1.363 . S
C534 C540 1.379 . S
C534 N542 1.356 . S
C535 C534 1.363 . S
C535 C541 1.363 . S
C536 C537 1.363 . S
C536 C541 1.379 . S
C536 N543 1.356 . S
C537 C536 1.363 . S
C537 C540 1.363 . S
N538 C540 1.356 . S
N538 H550 0.984 . S
N538 H551 0.985 . S
N539 C541 1.356 . S
N539 H544 0.984 . S
N539 H545 0.985 . S
C540 C534 1.379 . S
C540 C537 1.363 . S
C540 N538 1.356 . S
C541 C535 1.363 . S
C541 C536 1.379 . S
C541 N539 1.356 . S
N542 C534 1.356 . S
N542 H548 0.984 . S
N542 H549 0.984 . S
N543 C536 1.356 . S
N543 H546 0.984 . S
N543 H547 0.985 . S
H544 N539 0.984 . S
H545 N539 0.985 . S
H546 N543 0.984 . S
H547 N543 0.985 . S
H548 N542 0.984 . S
H549 N542 0.984 . S
H550 N538 0.984 . S
H551 N538 0.985 . S
C552 C553 1.363 . S
C552 C558 1.379 . S
C552 N560 1.356 . S
C553 C552 1.363 . S
C553 C559 1.363 . S
C554 C555 1.363 . S
C554 C559 1.379 . S
C554 N561 1.356 . S
C555 C554 1.363 . S
C555 C558 1.363 . S
N556 C558 1.356 . S
N556 H568 0.984 . S
N556 H569 0.985 . S
N557 C559 1.356 . S
N557 H562 0.984 . S
N557 H563 0.985 . S
C558 C552 1.379 . S
C558 C555 1.363 . S
C558 N556 1.356 . S
C559 C553 1.363 . S
C559 C554 1.379 . S
C559 N557 1.356 . S
N560 C552 1.356 . S
N560 H566 0.984 . S
N560 H567 0.984 . S
N561 C554 1.356 . S
N561 H564 0.984 . S
N561 H565 0.985 . S
H562 N557 0.984 . S
H563 N557 0.985 . S
H564 N561 0.984 . S
H565 N561 0.985 . S
H566 N560 0.984 . S
H567 N560 0.984 . S
H568 N556 0.984 . S
H569 N556 0.985 . S
C570 C571 1.363 . S
C570 C576 1.379 . S
C570 N578 1.356 . S
C571 C570 1.363 . S
C571 C577 1.363 . S
C572 C573 1.363 . S
C572 C577 1.379 . S
C572 N579 1.356 . S
C573 C572 1.363 . S
C573 C576 1.363 . S
N574 C576 1.356 . S
N574 H586 0.984 . S
N574 H587 0.985 . S
N575 C577 1.356 . S
N575 H580 0.984 . S
N575 H581 0.985 . S
C576 C570 1.379 . S
C576 C573 1.363 . S
C576 N574 1.356 . S
C577 C571 1.363 . S
C577 C572 1.379 . S
C577 N575 1.356 . S
N578 C570 1.356 . S
N578 H584 0.984 . S
N578 H585 0.984 . S
N579 C572 1.356 . S
N579 H582 0.984 . S
N579 H583 0.985 . S
H580 N575 0.984 . S
H581 N575 0.985 . S
H582 N579 0.984 . S
H583 N579 0.985 . S
H584 N578 0.984 . S
H585 N578 0.984 . S
H586 N574 0.984 . S
H587 N574 0.985 . S
C588 C589 1.363 . S
C588 C594 1.379 . S
C588 N596 1.356 . S
C589 C588 1.363 . S
C589 C595 1.363 . S
C590 C591 1.363 . S
C590 C595 1.379 . S
C590 N597 1.356 . S
C591 C590 1.363 . S
C591 C594 1.363 . S
N592 C594 1.356 . S
N592 H604 0.984 . S
N592 H605 0.985 . S
N593 C595 1.356 . S
N593 H598 0.984 . S
N593 H599 0.985 . S
C594 C588 1.379 . S
C594 C591 1.363 . S
C594 N592 1.356 . S
C595 C589 1.363 . S
C595 C590 1.379 . S
C595 N593 1.356 . S
N596 C588 1.356 . S
N596 H602 0.984 . S
N596 H603 0.984 . S
N597 C590 1.356 . S
N597 H600 0.984 . S
N597 H601 0.985 . S
H598 N593 0.984 . S
H599 N593 0.985 . S
H600 N597 0.984 . S
H601 N597 0.985 . S
H602 N596 0.984 . S
H603 N596 0.984 . S
H604 N592 0.984 . S
H605 N592 0.985 . S
C606 C607 1.363 . S
C606 C612 1.379 . S
C606 N614 1.356 . S
C607 C606 1.363 . S
C607 C613 1.363 . S
C608 C609 1.363 . S
C608 C613 1.379 . S
C608 N615 1.356 . S
C609 C608 1.363 . S
C609 C612 1.363 . S
N610 C612 1.356 . S
N610 H622 0.984 . S
N610 H623 0.985 . S
N611 C613 1.356 . S
N611 H616 0.984 . S
N611 H617 0.985 . S
C612 C606 1.379 . S
C612 C609 1.363 . S
C612 N610 1.356 . S
C613 C607 1.363 . S
C613 C608 1.379 . S
C613 N611 1.356 . S
N614 C606 1.356 . S
N614 H620 0.984 . S
N614 H621 0.984 . S
N615 C608 1.356 . S
N615 H618 0.984 . S
N615 H619 0.985 . S
H616 N611 0.984 . S
H617 N611 0.985 . S
H618 N615 0.984 . S
H619 N615 0.985 . S
H620 N614 0.984 . S
H621 N614 0.984 . S
H622 N610 0.984 . S
H623 N610 0.985 . S
C624 C625 1.363 . S
C624 C630 1.379 . S
C624 N632 1.356 . S
C625 C624 1.363 . S
C625 C631 1.363 . S
C626 C627 1.363 . S
C626 C631 1.379 . S
C626 N633 1.356 . S
C627 C626 1.363 . S
C627 C630 1.363 . S
N628 C630 1.356 . S
N628 H640 0.984 . S
N628 H641 0.985 . S
N629 C631 1.356 . S
N629 H634 0.984 . S
N629 H635 0.985 . S
C630 C624 1.379 . S
C630 C627 1.363 . S
C630 N628 1.356 . S
C631 C625 1.363 . S
C631 C626 1.379 . S
C631 N629 1.356 . S
N632 C624 1.356 . S
N632 H638 0.984 . S
N632 H639 0.984 . S
N633 C626 1.356 . S
N633 H636 0.984 . S
N633 H637 0.985 . S
H634 N629 0.984 . S
H635 N629 0.985 . S
H636 N633 0.984 . S
H637 N633 0.985 . S
H638 N632 0.984 . S
H639 N632 0.984 . S
H640 N628 0.984 . S
H641 N628 0.985 . S
C642 C643 1.363 . S
C642 C648 1.379 . S
C642 N650 1.356 . S
C643 C642 1.363 . S
C643 C649 1.363 . S
C644 C645 1.363 . S
C644 C649 1.379 . S
C644 N651 1.356 . S
C645 C644 1.363 . S
C645 C648 1.363 . S
N646 C648 1.356 . S
N646 H658 0.984 . S
N646 H659 0.985 . S
N647 C649 1.356 . S
N647 H652 0.984 . S
N647 H653 0.985 . S
C648 C642 1.379 . S
C648 C645 1.363 . S
C648 N646 1.356 . S
C649 C643 1.363 . S
C649 C644 1.379 . S
C649 N647 1.356 . S
N650 C642 1.356 . S
N650 H656 0.984 . S
N650 H657 0.984 . S
N651 C644 1.356 . S
N651 H654 0.984 . S
N651 H655 0.985 . S
H652 N647 0.984 . S
H653 N647 0.985 . S
H654 N651 0.984 . S
H655 N651 0.985 . S
H656 N650 0.984 . S
H657 N650 0.984 . S
H658 N646 0.984 . S
H659 N646 0.985 . S
C660 C661 1.363 . S
C660 C666 1.379 . S
C660 N668 1.356 . S
C661 C660 1.363 . S
C661 C667 1.363 . S
C662 C663 1.363 . S
C662 C667 1.379 . S
C662 N669 1.356 . S
C663 C662 1.363 . S
C663 C666 1.363 . S
N664 C666 1.356 . S
N664 H676 0.984 . S
N664 H677 0.985 . S
N665 C667 1.356 . S
N665 H670 0.984 . S
N665 H671 0.985 . S
C666 C660 1.379 . S
C666 C663 1.363 . S
C666 N664 1.356 . S
C667 C661 1.363 . S
C667 C662 1.379 . S
C667 N665 1.356 . S
N668 C660 1.356 . S
N668 H674 0.984 . S
N668 H675 0.984 . S
N669 C662 1.356 . S
N669 H672 0.984 . S
N669 H673 0.985 . S
H670 N665 0.984 . S
H671 N665 0.985 . S
H672 N669 0.984 . S
H673 N669 0.985 . S
H674 N668 0.984 . S
H675 N668 0.984 . S
H676 N664 0.984 . S
H677 N664 0.985 . S
C678 C679 1.363 . S
C678 C684 1.379 . S
C678 N686 1.356 . S
C679 C678 1.363 . S
C679 C685 1.363 . S
C680 C681 1.363 . S
C680 C685 1.379 . S
C680 N687 1.356 . S
C681 C680 1.363 . S
C681 C684 1.363 . S
N682 C684 1.356 . S
N682 H694 0.984 . S
N682 H695 0.985 . S
N683 C685 1.356 . S
N683 H688 0.984 . S
N683 H689 0.985 . S
C684 C678 1.379 . S
C684 C681 1.363 . S
C684 N682 1.356 . S
C685 C679 1.363 . S
C685 C680 1.379 . S
C685 N683 1.356 . S
N686 C678 1.356 . S
N686 H692 0.984 . S
N686 H693 0.984 . S
N687 C680 1.356 . S
N687 H690 0.984 . S
N687 H691 0.985 . S
H688 N683 0.984 . S
H689 N683 0.985 . S
H690 N687 0.984 . S
H691 N687 0.985 . S
H692 N686 0.984 . S
H693 N686 0.984 . S
H694 N682 0.984 . S
H695 N682 0.985 . S
C696 C697 1.363 . S
C696 C702 1.379 . S
C696 N704 1.356 . S
C697 C696 1.363 . S
C697 C703 1.363 . S
C698 C699 1.345 1_655 S
C698 C703 1.381 1_655 S
C698 N705 1.369 . S
C699 C698 1.345 1_455 S
C699 C702 1.363 . S
N700 C702 1.356 . S
N700 H712 0.984 . S
N700 H713 0.985 . S
N701 C703 1.356 1_655 S
N701 H706 0.984 1_655 S
N701 H707 0.985 . S
C702 C696 1.379 . S
C702 C699 1.363 . S
C702 N700 1.356 . S
C703 C697 1.363 . S
C703 C698 1.381 1_455 S
C703 N701 1.356 1_455 S
N704 C696 1.356 . S
N704 H710 0.984 . S
N704 H711 0.984 . S
N705 C698 1.369 . S
N705 H708 0.984 . S
N705 H709 0.985 . S
H706 N701 0.984 1_455 S
H707 N701 0.985 . S
H708 N705 0.984 . S
H709 N705 0.985 . S
H710 N704 0.984 . S
H711 N704 0.984 . S
H712 N700 0.984 . S
H713 N700 0.985 . S
C714 C715 1.363 . S
C714 C720 1.379 . S
C714 N722 1.356 . S
C715 C714 1.363 . S
C715 C721 1.363 . S
C716 C717 1.363 . S
C716 C721 1.379 . S
C716 N723 1.356 1_545 S
C717 C716 1.363 . S
C717 C720 1.363 . S
N718 C720 1.356 . S
N718 H730 0.984 . S
N718 H731 0.985 . S
N719 C721 1.356 1_565 S
N719 H724 0.984 . S
N719 H725 0.985 . S
C720 C714 1.379 . S
C720 C717 1.363 . S
C720 N718 1.356 . S
C721 C715 1.363 . S
C721 C716 1.379 . S
C721 N719 1.356 1_545 S
N722 C714 1.356 . S
N722 H728 0.984 . S
N722 H729 0.984 . S
N723 C716 1.356 1_565 S
N723 H726 0.984 . S
N723 H727 0.985 . S
H724 N719 0.984 . S
H725 N719 0.985 . S
H726 N723 0.984 . S
H727 N723 0.985 . S
H728 N722 0.984 . S
H729 N722 0.984 . S
H730 N718 0.984 . S
H731 N718 0.985 . S
C732 C733 1.363 . S
C732 C738 1.379 . S
C732 N740 1.356 . S
C733 C732 1.363 . S
C733 C739 1.363 . S
C734 C735 1.363 . S
C734 C739 1.379 . S
C734 N741 1.356 . S
C735 C734 1.363 . S
C735 C738 1.363 . S
N736 C738 1.356 . S
N736 H748 0.984 . S
N736 H749 0.985 . S
N737 C739 1.356 . S
N737 H742 0.984 . S
N737 H743 0.985 . S
C738 C732 1.379 . S
C738 C735 1.363 . S
C738 N736 1.356 . S
C739 C733 1.363 . S
C739 C734 1.379 . S
C739 N737 1.356 . S
N740 C732 1.356 . S
N740 H746 0.984 . S
N740 H747 0.984 . S
N741 C734 1.356 . S
N741 H744 0.984 . S
N741 H745 0.985 . S
H742 N737 0.984 . S
H743 N737 0.985 . S
H744 N741 0.984 . S
H745 N741 0.985 . S
H746 N740 0.984 . S
H747 N740 0.984 . S
H748 N736 0.984 . S
H749 N736 0.985 . S
C750 C751 1.363 1_565 S
C750 C756 1.379 . S
C750 N758 1.356 . S
C751 C750 1.363 1_545 S
C751 C757 1.363 . S
C752 C753 1.363 . S
C752 C757 1.379 . S
C752 N759 1.356 . S
C753 C752 1.363 . S
C753 C756 1.363 1_545 S
N754 C756 1.356 . S
N754 H766 0.984 . S
N754 H767 0.985 . S
N755 C757 1.356 . S
N755 H760 0.984 . S
N755 H761 0.985 . S
C756 C750 1.379 . S
C756 C753 1.363 1_565 S
C756 N754 1.356 . S
C757 C751 1.363 . S
C757 C752 1.379 . S
C757 N755 1.356 . S
N758 C750 1.356 . S
N758 H764 0.984 . S
N758 H765 0.984 . S
N759 C752 1.356 . S
N759 H762 0.984 . S
N759 H763 0.985 . S
H760 N755 0.984 . S
H761 N755 0.985 . S
H762 N759 0.984 . S
H763 N759 0.985 . S
H764 N758 0.984 . S
H765 N758 0.984 . S
H766 N754 0.984 . S
H767 N754 0.985 . S
C768 C769 1.363 . S
C768 C774 1.379 . S
C768 N776 1.356 . S
C769 C768 1.363 . S
C769 C775 1.363 . S
C770 C771 1.363 . S
C770 C775 1.379 . S
C770 N777 1.356 . S
C771 C770 1.363 . S
C771 C774 1.363 . S
N772 C774 1.356 . S
N772 H784 0.984 . S
N772 H785 0.985 . S
N773 C775 1.356 . S
N773 H778 0.984 . S
N773 H779 0.985 . S
C774 C768 1.379 . S
C774 C771 1.363 . S
C774 N772 1.356 . S
C775 C769 1.363 . S
C775 C770 1.379 . S
C775 N773 1.356 . S
N776 C768 1.356 . S
N776 H782 0.984 . S
N776 H783 0.984 . S
N777 C770 1.356 . S
N777 H780 0.984 . S
N777 H781 0.985 . S
H778 N773 0.984 . S
H779 N773 0.985 . S
H780 N777 0.984 . S
H781 N777 0.985 . S
H782 N776 0.984 . S
H783 N776 0.984 . S
H784 N772 0.984 . S
H785 N772 0.985 . S
C786 C787 1.369 . S
C786 C792 1.380 . S
C786 N794 1.351 1_455 S
C787 C786 1.369 . S
C787 C793 1.363 . S
C788 C789 1.363 . S
C788 C793 1.379 . S
C788 N795 1.356 . S
C789 C788 1.363 . S
C789 C792 1.363 . S
N790 C792 1.356 1_655 S
N790 H802 0.984 . S
N790 H803 0.985 . S
N791 C793 1.356 . S
N791 H796 0.984 . S
N791 H797 0.985 . S
C792 C786 1.380 . S
C792 C789 1.363 . S
C792 N790 1.356 1_455 S
C793 C787 1.363 . S
C793 C788 1.379 . S
C793 N791 1.356 . S
N794 C786 1.351 1_655 S
N794 H800 0.984 . S
N794 H801 0.984 . S
N795 C788 1.356 . S
N795 H798 0.984 . S
N795 H799 0.985 . S
H796 N791 0.984 . S
H797 N791 0.985 . S
H798 N795 0.984 . S
H799 N795 0.985 . S
H800 N794 0.984 . S
H801 N794 0.984 . S
H802 N790 0.984 . S
H803 N790 0.985 . S
C481 C19 3.095 . S
C483 C451 3.086 . S
C499 C49 3.161 . S
C501 C301 2.966 . S
C517 C99 3.094 . S
C519 C361 2.894 . S
C535 C9 3.161 . S
C537 C421 2.966 . S
C555 C331 3.087 . S
C553 C59 3.095 . S
C573 C391 3.154 . S
C571 C89 3.161 . S
C589 C55 0.641 . S
C591 C181 0.649 . S
C607 C85 0.673 . S
C609 C271 0.648 . S
C625 C15 0.640 . S
C627 C151 0.613 . S
C645 C211 0.647 . S
C643 C45 0.673 . S
C663 C241 0.648 . S
C661 C95 0.641 . S
C679 C5 0.673 . S
C681 C121 0.590 . S
C699 C260 1.005 . S
C697 C18 1.031 . S
C715 C58 1.031 . S
C717 C140 1.033 . S
C733 C98 1.031 . S
C735 C200 1.005 . S
C753 C380 1.795 . S
C751 C48 1.727 . S
C771 C440 1.790 . S
C769 C88 1.727 . S
C787 C8 1.727 . S
C789 C320 1.790 . S
