# Generated by pormake.
# Topology pth, (4,4)-cn, num edge types: 1
# Building blocks:
#     Node 0, Type 0, BuildingBlock: NAHDIM_clean_sbu_0, # of connection points: 4
#     Node 1, Type 0, BuildingBlock: NAHDIM_clean_sbu_0, # of connection points: 4
#     Node 2, Type 0, BuildingBlock: NAHDIM_clean_sbu_0, # of connection points: 4
#     Node 3, Type 1, BuildingBlock: NAWXER_clean_linker_0, # of connection points: 4
#     Node 4, Type 1, BuildingBlock: NAWXER_clean_linker_0, # of connection points: 4
#     Node 5, Type 1, BuildingBlock: NAWXER_clean_linker_0, # of connection points: 4
#     Edge 6, Type (0, 1), BuildingBlock: FUNLAD_clean_linker_0, # of connection points: 2
#     Edge 7, Type (0, 1), BuildingBlock: FUNLAD_clean_linker_0, # of connection points: 2
#     Edge 8, Type (0, 1), BuildingBlock: FUNLAD_clean_linker_0, # of connection points: 2
#     Edge 9, Type (0, 1), BuildingBlock: FUNLAD_clean_linker_0, # of connection points: 2
#     Edge 10, Type (0, 1), BuildingBlock: FUNLAD_clean_linker_0, # of connection points: 2
#     Edge 11, Type (0, 1), BuildingBlock: FUNLAD_clean_linker_0, # of connection points: 2
#     Edge 12, Type (0, 1), BuildingBlock: FUNLAD_clean_linker_0, # of connection points: 2
#     Edge 13, Type (0, 1), BuildingBlock: FUNLAD_clean_linker_0, # of connection points: 2
#     Edge 14, Type (0, 1), BuildingBlock: FUNLAD_clean_linker_0, # of connection points: 2
#     Edge 15, Type (0, 1), BuildingBlock: FUNLAD_clean_linker_0, # of connection points: 2
#     Edge 16, Type (0, 1), BuildingBlock: FUNLAD_clean_linker_0, # of connection points: 2
#     Edge 17, Type (0, 1), BuildingBlock: FUNLAD_clean_linker_0, # of connection points: 2
# Relax obj value: 0.041
# Max RMSD: 0.165
# Mean RMSD: 0.085
data_MOF--net-pth--node1-NAHDIM_clean_sbu_0--node2-NAWXER_clean_linker_0--edge1-FUNLAD_clean_linker_0
_symmetry_space_group_name_H-M    P1
_symmetry_Int_Tables_number       1
_symmetry_cell_setting            triclinic
loop_
_symmetry_equiv_pos_as_xyz
'x, y, z'
_cell_length_a     32.914988
_cell_length_b     33.117795
_cell_length_c     73.487269
_cell_angle_alpha  91.789768
_cell_angle_beta   89.936224
_cell_angle_gamma 120.52654
loop_
_atom_site_label
_atom_site_type_symbol
_atom_site_fract_x
_atom_site_fract_y
_atom_site_fract_z
_atom_type_partial_charge
C0 C 0.99263 0.95071 0.06139 0.0
O1 O 0.95151 0.94763 0.0593 0.0
O2 O 0.02096 0.07909 0.05753 0.0
Zn3 Zn 0.01868 0.02993 0.04019 0.0
O4 O 0.95621 0.99466 0.02709 0.0
C5 C 0.10849 0.09682 0.02574 0.0
O6 O 0.11874 0.10976 0.043 0.0
O7 O 0.02864 0.98415 0.05414 0.0
C8 C 0.94337 0.01249 0.01493 0.0
O9 O 0.97111 0.05674 0.0111 0.0
C10 C 0.98599 0.07324 0.06686 0.0
O11 O 0.94574 0.03343 0.06512 0.0
O12 O 0.06823 0.06202 0.0214 0.0
C13 C 0.03263 0.11847 0.3515 0.0
O14 O 0.99283 0.07814 0.35191 0.0
O15 O 0.03855 0.01597 0.35685 0.0
Zn16 Zn 0.05053 0.06697 0.37548 0.0
O17 O 0.99321 0.05181 0.39022 0.0
C18 C 0.10283 0.03784 0.39583 0.0
O19 O 0.07054 -0.00185 0.38799 0.0
O20 O 0.06696 0.12461 0.3615 0.0
C21 C 0.96801 0.01455 0.39878 0.0
O22 O 0.97815 0.98096 0.39807 0.0
C23 C -0.00057 0.98213 0.35082 0.0
O24 O 0.95973 0.97751 0.35681 0.0
O25 O 0.10276 0.07528 0.3925 0.0
C26 C 0.10468 0.03509 0.69456 0.0
O27 O 0.10988 0.07664 0.69804 0.0
O28 O 0.98932 0.02915 0.68644 0.0
Zn29 Zn 0.01579 0.01202 0.7075 0.0
O30 O 0.04627 0.06512 0.72618 0.0
C31 C 0.92885 0.96315 0.72455 0.0
O32 O 0.93221 0.00367 0.72164 0.0
O33 O 0.06529 -0.0012 0.69782 0.0
C34 C 0.05404 0.05674 0.74215 0.0
O35 O 0.04086 0.01342 0.74614 0.0
C36 C 0.98569 0.06553 0.68625 0.0
O37 O 0.00075 0.09501 0.7004 0.0
O38 O 0.96203 0.95666 0.71935 0.0
C39 C 0.00084 0.3998 0.24484 0.0
C40 C 0.04146 0.42147 0.2561 0.0
C41 C 0.99046 0.4264 0.23343 0.0
C42 C 0.02094 0.47509 0.23282 0.0
C43 C 0.07105 0.47043 0.25594 0.0
C44 C 0.06079 0.49701 0.24442 0.0
C45 C 0.01122 0.50359 0.22041 0.0
C46 C 0.03561 0.40461 0.18482 0.0
C47 C -0.00424 0.37328 0.17417 0.0
C48 C 0.03766 0.44344 0.19382 0.0
C49 C -0.00028 0.45134 0.19243 0.0
C50 C 0.95813 0.38169 0.17267 0.0
C51 C 0.96024 0.42048 0.18163 0.0
C52 C 0.00118 0.49236 0.20162 0.0
C53 C 0.01934 0.66877 0.17382 0.0
C54 C 0.98413 0.65016 0.16011 0.0
C55 C 0.02213 0.63952 0.18639 0.0
C56 C 0.98947 0.59111 0.18564 0.0
C57 C 0.95162 0.60164 0.15932 0.0
C58 C 0.95449 0.57236 0.1719 0.0
C59 C 0.99366 0.55965 0.19838 0.0
C60 C 0.95279 0.6467 0.23284 0.0
C61 C 0.98713 0.67696 0.24575 0.0
C62 C 0.95755 0.61206 0.22345 0.0
C63 C -0.00307 0.60725 0.2267 0.0
C64 C 0.0263 0.6718 0.24907 0.0
C65 C 0.03098 0.63707 0.23972 0.0
C66 C 0.00139 0.56958 0.21731 0.0
H67 H 0.97677 0.36227 0.24499 0.0
H68 H 0.95862 0.40888 0.22508 0.0
H69 H 0.10261 0.48808 0.26444 0.0
H70 H 0.08449 0.53462 0.2443 0.0
H71 H 0.0651 0.39899 0.18627 0.0
H72 H 0.06893 0.46739 0.20177 0.0
H73 H 0.92735 0.35872 0.1643 0.0
H74 H 0.93083 0.42627 0.18022 0.0
H75 H 0.04471 0.70602 0.17487 0.0
H76 H 0.05031 0.6547 0.19654 0.0
H77 H 0.9245 0.58618 0.14876 0.0
H78 H 0.92935 0.53503 0.17091 0.0
H79 H 0.9223 0.6499 0.22995 0.0
H80 H 0.93011 0.58863 0.21383 0.0
H81 H 0.05295 0.69408 0.25916 0.0
H82 H 0.0613 0.63356 0.24261 0.0
N83 N 0.01072 0.54167 0.22755 0.0
N84 N 0.99304 0.52096 0.19133 0.0
C85 C 0.67583 0.05859 0.50788 0.0
C86 C 0.66163 0.0227 0.49439 0.0
C87 C 0.64323 0.05824 0.52015 0.0
C88 C 0.59591 0.02188 0.51918 0.0
C89 C 0.61412 0.98662 0.49335 0.0
C90 C 0.58148 0.98645 0.50556 0.0
C91 C 0.56099 0.02123 0.53198 0.0
C92 C 0.66147 -0.00324 0.56457 0.0
C93 C 0.68723 0.0324 0.57785 0.0
C94 C 0.62233 0.99381 0.55583 0.0
C95 C 0.60852 0.02668 0.56011 0.0
C96 C 0.67293 0.0649 0.58223 0.0
C97 C 0.63378 0.06187 0.57351 0.0
C98 C 0.56717 0.02413 0.55107 0.0
C99 C 0.37594 0.98018 0.57712 0.0
C100 C 0.38943 0.00941 0.59293 0.0
C101 C 0.40969 0.98413 0.56463 0.0
C102 C 0.45757 0.01787 0.56755 0.0
C103 C 0.4375 0.04251 0.59598 0.0
C104 C 0.4712 0.04655 0.58345 0.0
C105 C 0.4939 0.02158 0.5547 0.0
C106 C 0.40667 0.06412 0.52224 0.0
C107 C 0.38348 0.03518 0.50682 0.0
C108 C 0.44013 0.05882 0.5319 0.0
C109 C 0.4507 0.02419 0.52641 0.0
C110 C 0.39408 0.00049 0.50141 0.0
C111 C 0.42752 0.99524 0.51106 0.0
C112 C 0.48873 0.02068 0.53557 0.0
H113 H 0.71225 0.08673 0.50905 0.0
H114 H 0.65492 0.08646 0.53033 0.0
H115 H 0.60205 0.95889 0.48293 0.0
H116 H 0.54499 0.95838 0.50448 0.0
H117 H 0.67169 0.97127 0.56088 0.0
H118 H 0.60272 0.96568 0.54581 0.0
H119 H 0.69151 0.09222 0.59264 0.0
H120 H 0.62339 0.08729 0.57714 0.0
H121 H 0.33922 0.95449 0.57429 0.0
H122 H 0.39834 0.96048 0.55278 0.0
H123 H 0.44919 0.065 0.60817 0.0
H124 H 0.50799 0.0723 0.58615 0.0
H125 H 0.39914 0.09104 0.52679 0.0
H126 H 0.45849 0.08253 0.54339 0.0
H127 H 0.37746 0.97817 0.48941 0.0
H128 H 0.43562 0.96877 0.50642 0.0
N129 N 0.52212 0.01977 0.52496 0.0
N130 N 0.53332 0.02401 0.56169 0.0
C131 C 0.36172 0.39177 0.8469 0.0
C132 C 0.33175 0.40185 0.83686 0.0
C133 C 0.4006 0.42746 0.85655 0.0
C134 C 0.40995 0.47378 0.85648 0.0
C135 C 0.34149 0.4484 0.83675 0.0
C136 C 0.38041 0.48405 0.84639 0.0
C137 C 0.45142 0.5121 0.86626 0.0
C138 C 0.35564 0.41518 0.90918 0.0
C139 C 0.3778 0.39754 0.9201 0.0
C140 C 0.3822 0.45214 0.89764 0.0
C141 C 0.43124 0.47152 0.89664 0.0
C142 C 0.42688 0.41722 0.91908 0.0
C143 C 0.45328 0.45391 0.90753 0.0
C144 C 0.46073 0.51133 0.88496 0.0
C145 C 0.61819 0.70957 0.9006 0.0
C146 C 0.642 0.70083 0.9144 0.0
C147 C 0.58252 0.67246 0.89016 0.0
C148 C 0.57033 0.62597 0.89323 0.0
C149 C 0.62953 0.65425 0.91746 0.0
C150 C 0.59399 0.61725 0.90703 0.0
C151 C 0.53086 0.58601 0.88308 0.0
C152 C 0.64045 0.65855 0.84119 0.0
C153 C 0.62789 0.67727 0.8268 0.0
C154 C 0.60671 0.62935 0.85346 0.0
C155 C 0.55975 0.61877 0.85184 0.0
C156 C 0.58083 0.66659 0.82514 0.0
C157 C 0.54701 0.63734 0.83749 0.0
C158 C 0.52341 0.58516 0.86411 0.0
H159 H 0.35578 0.35648 0.84697 0.0
H160 H 0.42369 0.41898 0.86388 0.0
H161 H 0.31889 0.45727 0.8293 0.0
H162 H 0.38726 0.51967 0.84608 0.0
H163 H 0.31796 0.40116 0.90989 0.0
H164 H 0.36455 0.46597 0.88974 0.0
H165 H 0.4449 0.40407 0.92716 0.0
H166 H 0.49109 0.46842 0.90702 0.0
H167 H 0.62707 0.74506 0.89787 0.0
H168 H 0.56392 0.68009 0.87995 0.0
H169 H 0.64651 0.64622 0.92822 0.0
H170 H 0.58483 0.58169 0.90981 0.0
H171 H 0.67643 0.66639 0.84296 0.0
H172 H 0.61725 0.61426 0.86402 0.0
H173 H 0.56992 0.67997 0.81407 0.0
H174 H 0.51084 0.629 0.83578 0.0
N175 N 0.48336 0.54876 0.8565 0.0
N176 N 0.49976 0.54861 0.89265 0.0
C177 C 0.95331 0.10427 0.09067 0.0
C178 C 0.991 0.11089 0.07968 0.0
C179 C 0.95825 0.13993 0.1028 0.0
C180 C 0.0012 0.18295 0.10422 0.0
C181 C 0.03861 0.18962 0.09308 0.0
C182 C 0.03372 0.15397 0.08101 0.0
C183 C 0.00782 0.22243 0.11648 0.0
C184 C 0.98223 0.21693 0.1315 0.0
C185 C 0.9877 0.25698 0.14311 0.0
C186 C 0.94895 0.25134 0.15313 0.0
C187 C 0.9518 0.28881 0.16348 0.0
C188 C 0.99372 0.33266 0.16418 0.0
H189 H 0.06148 0.30569 0.13739 0.0
C190 C 0.03315 0.33782 0.15475 0.0
C191 C 0.03026 0.30037 0.14436 0.0
H192 H 0.06595 0.37116 0.15503 0.0
H193 H 0.91982 0.07161 0.08987 0.0
H194 H 0.928 0.13383 0.11068 0.0
H195 H 0.0719 0.22253 0.09376 0.0
H196 H 0.06344 0.16033 0.07269 0.0
H197 H 0.03499 0.25736 0.11282 0.0
H198 H 0.95492 0.18208 0.13517 0.0
H199 H 0.91598 0.21812 0.15263 0.0
H200 H 0.92108 0.28351 0.17088 0.0
C201 C 0.92095 0.04807 0.41194 0.0
C202 C 0.9285 0.01008 0.40988 0.0
C203 C 0.88475 0.04486 0.42283 0.0
C204 C 0.85467 0.00321 0.43178 0.0
C205 C 0.86228 0.96524 0.42971 0.0
C206 C 0.89874 0.96855 0.41886 0.0
C207 C 0.81655 -0.00131 0.44399 0.0
C208 C 0.79862 0.02735 0.44372 0.0
C209 C 0.76284 0.02469 0.45671 0.0
C210 C 0.76129 0.06557 0.46078 0.0
C211 C 0.72859 0.06496 0.47305 0.0
C212 C 0.69622 0.0232 0.48133 0.0
H213 H 0.72916 0.95013 0.46162 0.0
C214 C 0.69705 0.98199 0.477 0.0
C215 C 0.73003 0.98267 0.46481 0.0
H216 H 0.6725 0.94929 0.48318 0.0
H217 H 0.94354 0.08078 0.40536 0.0
H218 H 0.88159 0.07568 0.42445 0.0
H219 H 0.84 0.93287 0.43656 0.0
H220 H 0.9037 0.93867 0.4176 0.0
H221 H 0.80339 0.97094 0.45371 0.0
H222 H 0.81153 0.05522 0.4341 0.0
H223 H 0.78583 0.09829 0.45459 0.0
H224 H 0.72829 0.0971 0.4759 0.0
C225 C 0.88552 0.88489 0.73906 0.0
C226 C 0.88788 0.92679 0.73433 0.0
C227 C 0.84753 0.85167 0.749 0.0
C228 C 0.81121 0.85987 0.75446 0.0
C229 C 0.81298 0.90108 0.7492 0.0
C230 C 0.85094 0.93427 0.73934 0.0
C231 C 0.77096 0.82669 0.76561 0.0
C232 C 0.77295 0.79622 0.77677 0.0
C233 C 0.73392 0.76542 0.78891 0.0
C234 C 0.732 0.72483 0.79508 0.0
C235 C 0.69723 0.69592 0.80713 0.0
C236 C 0.66377 0.70723 0.81348 0.0
H237 H 0.70143 0.80848 0.79132 0.0
C238 C 0.66554 0.74779 0.8073 0.0
C239 C 0.70031 0.77672 0.7952 0.0
H240 H 0.6408 0.75791 0.81219 0.0
H241 H 0.9132 0.87788 0.73523 0.0
H242 H 0.84676 0.81964 0.7522 0.0
H243 H 0.78532 0.90812 0.75305 0.0
H244 H 0.85143 0.96602 0.73579 0.0
H245 H 0.73929 0.82907 0.76506 0.0
H246 H 0.8045 0.79366 0.77731 0.0
H247 H 0.75752 0.71539 0.79054 0.0
H248 H 0.69649 0.66458 0.81144 0.0
C249 C 0.95636 0.87964 0.08029 0.0
C250 C -0.00338 0.91607 0.0723 0.0
C251 C 0.95976 0.84729 0.09094 0.0
C252 C 0.00356 0.8504 0.09375 0.0
C253 C 0.04384 0.88698 0.08584 0.0
C254 C 0.04043 0.91938 0.07515 0.0
C255 C 0.00893 0.81773 0.10557 0.0
C256 C 0.97335 0.77416 0.10893 0.0
C257 C 0.97743 0.74232 0.12166 0.0
C258 C 0.93603 0.70596 0.12903 0.0
C259 C 0.93809 0.67586 0.14141 0.0
C260 C 0.98169 0.68132 0.14662 0.0
H261 H 0.05366 0.77333 0.12069 0.0
C262 C 0.02308 0.71696 0.13893 0.0
C263 C 0.02103 0.74703 0.12653 0.0
H264 H 0.05712 0.7213 0.14234 0.0
H265 H 0.92212 0.87631 0.0785 0.0
H266 H 0.92809 0.8208 0.09729 0.0
H267 H 0.0781 0.8905 0.08794 0.0
H268 H 0.07215 0.94716 0.06925 0.0
H269 H 0.04347 0.83064 0.11174 0.0
H270 H 0.93901 0.76138 0.10258 0.0
H271 H 0.90193 0.70127 0.12544 0.0
H272 H 0.90559 0.64889 0.14717 0.0
C273 C 0.16957 0.0784 0.41877 0.0
C274 C 0.13757 0.03784 0.40859 0.0
C275 C 0.20117 0.07711 0.43117 0.0
C276 C 0.20124 0.03508 0.43359 0.0
C277 C 0.16977 0.99498 0.42314 0.0
C278 C 0.13826 -0.00376 0.41086 0.0
C279 C 0.23347 0.03087 0.44653 0.0
C280 C 0.25759 0.06165 0.46035 0.0
C281 C 0.28811 0.0543 0.47306 0.0
C282 C 0.32855 0.0933 0.48074 0.0
C283 C 0.35912 0.08724 0.49201 0.0
C284 C 0.3495 0.04194 0.49597 0.0
H285 H 0.24552 0.97816 0.47267 0.0
C286 C 0.3079 0.00298 0.48893 0.0
C287 C 0.27745 0.00904 0.47767 0.0
H288 H 0.29885 0.96768 0.49212 0.0
H289 H 0.17003 0.11106 0.41724 0.0
H290 H 0.22553 0.10916 0.4386 0.0
H291 H 0.16916 0.96221 0.42459 0.0
H292 H 0.11429 0.96435 0.40319 0.0
H293 H 0.23676 -1e-05 0.44466 0.0
H294 H 0.2562 0.09352 0.46227 0.0
H295 H 0.33724 0.12853 0.47759 0.0
H296 H 0.39099 0.11799 0.49717 0.0
C297 C 0.09856 0.14236 0.75089 0.0
C298 C 0.08037 0.0956 0.75569 0.0
C299 C 0.12621 0.17924 0.76327 0.0
C300 C 0.13594 0.17011 0.78085 0.0
C301 C 0.11693 0.12328 0.78571 0.0
C302 C 0.08937 0.08642 0.77331 0.0
C303 C 0.16829 0.20797 0.79402 0.0
C304 C 0.18111 0.25343 0.79279 0.0
C305 C 0.21766 0.29127 0.80485 0.0
C306 C 0.24431 0.33648 0.79812 0.0
C307 C 0.28093 0.37249 0.80857 0.0
C308 C 0.29136 0.36416 0.82611 0.0
H309 H 0.20607 0.24935 0.82861 0.0
C310 C 0.26354 0.31931 0.83314 0.0
C311 C 0.22699 0.28324 0.82265 0.0
H312 H 0.26993 0.3121 0.84678 0.0
H313 H 0.09248 0.15061 0.73738 0.0
H314 H 0.14101 0.21458 0.75866 0.0
H315 H 0.12399 0.11513 0.79908 0.0
H316 H 0.07585 0.05077 0.77745 0.0
H317 H 0.18329 0.19774 0.80485 0.0
H318 H 0.16669 0.26421 0.78198 0.0
H319 H 0.23767 0.34369 0.7845 0.0
H320 H 0.30187 0.40651 0.80268 0.0
C321 C 0.9472 0.04191 0.65538 0.0
C322 C 0.96073 0.072 0.67092 0.0
C323 C 0.91983 0.04497 0.6416 0.0
C324 C 0.90487 0.07787 0.64319 0.0
C325 C 0.92052 0.10955 0.65825 0.0
C326 C 0.9481 0.10663 0.67202 0.0
C327 C 0.87194 0.07928 0.62975 0.0
C328 C 0.84073 0.04135 0.61963 0.0
C329 C 0.80331 0.04027 0.60798 0.0
C330 C 0.76284 -0.00327 0.60376 0.0
C331 C 0.72554 0.99406 0.59371 0.0
C332 C 0.72801 0.03497 0.58756 0.0
H333 H 0.8378 0.11518 0.60358 0.0
C334 C 0.76918 0.07845 0.59121 0.0
C335 C 0.80656 0.08112 0.60124 0.0
H336 H 0.77252 0.11047 0.58627 0.0
H337 H 0.95711 0.0154 0.65396 0.0
H338 H 0.91028 0.02123 0.62985 0.0
H339 H 0.91006 0.13567 0.6597 0.0
H340 H 0.95827 0.13059 0.68375 0.0
H341 H 0.87045 0.11126 0.62958 0.0
H342 H 0.83953 0.00825 0.62112 0.0
H343 H 0.75951 0.96466 0.60865 0.0
H344 H 0.6942 0.96006 0.59122 0.0
C345 C 0.87218 0.93429 0.00775 0.0
C346 C 0.90032 0.98198 0.00388 0.0
C347 C 0.8348 0.90389 -0.00383 0.0
C348 C 0.82483 0.92046 0.9804 0.0
C349 C 0.8509 0.96859 0.97713 0.0
C350 C 0.88856 -0.00087 0.98872 0.0
C351 C 0.78841 0.88781 0.96698 0.0
C352 C 0.78131 0.84454 0.9634 0.0
C353 C 0.74648 0.8104 0.94986 0.0
C354 C 0.75293 0.77407 0.943 0.0
C355 C 0.71971 0.73933 0.93111 0.0
C356 C 0.67888 0.7398 0.92595 0.0
H357 H 0.69927 0.8383 0.94979 0.0
C358 C 0.67267 0.77659 0.93258 0.0
C359 C 0.70609 0.81155 0.94444 0.0
H360 H 0.6412 0.77751 0.92909 0.0
H361 H 0.87973 0.92005 0.01949 0.0
H362 H 0.81417 0.86725 -0.00054 0.0
H363 H 0.84337 0.98227 0.96521 0.0
H364 H 0.9093 0.03578 0.98546 0.0
H365 H 0.76998 0.9009 0.95905 0.0
H366 H 0.80363 0.83404 0.9702 0.0
H367 H 0.78371 0.77234 0.94695 0.0
H368 H 0.72589 0.71187 0.92605 0.0
C369 C 0.9569 0.90929 0.33072 0.0
C370 C -0.00066 0.94791 0.33737 0.0
C371 C 0.95743 0.87659 0.31832 0.0
C372 C 0.00058 0.88211 0.31228 0.0
C373 C 0.04281 0.92083 0.31894 0.0
C374 C 0.04227 0.95337 0.33127 0.0
C375 C 0.00383 0.84789 0.29969 0.0
C376 C 0.96799 0.81497 0.28922 0.0
C377 C 0.97319 0.78095 0.27724 0.0
C378 C 0.9337 0.73637 0.27356 0.0
C379 C 0.93796 0.70274 0.26311 0.0
C380 C 0.98183 0.71325 0.25601 0.0
H381 H 0.04746 0.82666 0.27135 0.0
C382 C 0.02093 0.75846 0.2591 0.0
C383 C 0.01666 0.79204 0.26951 0.0
H384 H 0.05489 0.76796 0.2534 0.0
H385 H 0.92324 0.90397 0.33523 0.0
H386 H 0.924 0.84679 0.31391 0.0
H387 H 0.07657 0.92596 0.31462 0.0
H388 H 0.07569 0.98268 0.33612 0.0
H389 H 0.03786 0.85006 0.29919 0.0
H390 H 0.93337 0.81133 0.28979 0.0
H391 H 0.89971 0.72709 0.27918 0.0
H392 H 0.90719 0.66814 0.26101 0.0
C393 C 0.136 0.98807 0.679 0.0
C394 C 0.1433 0.03132 0.68595 0.0
C395 C 0.17184 0.9857 0.66964 0.0
C396 C 0.21569 0.02666 0.66707 0.0
C397 C 0.22345 0.06938 0.67473 0.0
C398 C 0.18766 0.07178 0.68397 0.0
C399 C 0.25404 0.02704 0.65625 0.0
C400 C 0.24682 0.99472 0.64308 0.0
C401 C 0.28478 -0.00082 0.63086 0.0
C402 C 0.28111 0.95858 0.62268 0.0
C403 C 0.31523 0.96173 0.61052 0.0
C404 C 0.35353 0.00571 0.60611 0.0
H405 H 0.32615 0.07547 0.63179 0.0
C406 C 0.35697 0.04637 0.6142 0.0
C407 C 0.32299 0.04321 0.62638 0.0
H408 H 0.38537 0.08083 0.61077 0.0
H409 H 0.10232 0.95618 0.68047 0.0
H410 H 0.1649 0.9518 0.66447 0.0
H411 H 0.25699 0.10139 0.67314 0.0
H412 H 0.19465 0.10561 0.68932 0.0
H413 H 0.28932 0.0569 0.65857 0.0
H414 H 0.21192 0.96432 0.64077 0.0
H415 H 0.25181 0.92427 0.62575 0.0
H416 H 0.31174 0.92968 0.60466 0.0
C417 C 0.18414 0.16614 0.01605 0.0
C418 C 0.14096 0.12563 0.01139 0.0
C419 C 0.21257 0.19602 0.00258 0.0
C420 C 0.19853 0.1858 0.98411 0.0
C421 C 0.15591 0.14472 0.97946 0.0
C422 C 0.12752 0.11481 0.99292 0.0
C423 C 0.22531 0.21876 0.96953 0.0
C424 C 0.27167 0.25092 0.97095 0.0
C425 C 0.29801 0.28719 0.95729 0.0
C426 C 0.34174 0.32613 0.96258 0.0
C427 C 0.36749 0.36186 0.95054 0.0
C428 C 0.35021 0.35943 0.93283 0.0
H429 H 0.24826 0.25451 0.93447 0.0
C430 C 0.30676 0.32028 0.92737 0.0
C431 C 0.28099 0.28437 0.93942 0.0
H432 H 0.29301 0.31705 0.91368 0.0
H433 H 0.19537 0.17564 0.03016 0.0
H434 H 0.24441 0.22794 0.00687 0.0
H435 H 0.14408 0.1361 0.96537 0.0
H436 H 0.0944 0.08391 0.98885 0.0
H437 H 0.20533 0.21659 0.95745 0.0
H438 H 0.29134 0.2521 0.98299 0.0
H439 H 0.35585 0.32931 0.97621 0.0
H440 H 0.40067 0.39179 0.95522 0.0
C441 C 0.07754 0.1996 0.33913 0.0
C442 C 0.03687 0.15478 0.33914 0.0
C443 C 0.08071 0.2332 0.32716 0.0
C444 C 0.0432 0.22236 0.31499 0.0
C445 C 0.00296 0.17746 0.31497 0.0
C446 C -0.00033 0.1442 0.32694 0.0
C447 C 0.04452 0.25593 0.30175 0.0
C448 C 0.07115 0.30292 0.30386 0.0
C449 C 0.06729 0.3347 0.29104 0.0
C450 C 0.07467 0.37824 0.29758 0.0
C451 C 0.06726 0.40702 0.28618 0.0
C452 C 0.05257 0.39282 0.26797 0.0
H453 H 0.05096 0.28935 0.26681 0.0
C454 C 0.04746 0.35033 0.2612 0.0
C455 C 0.055 0.3217 0.27256 0.0
H456 H 0.03749 0.33912 0.24709 0.0
H457 H 0.10691 0.20867 0.3483 0.0
H458 H 0.11278 0.2671 0.32727 0.0
H459 H 0.97366 0.16805 0.30569 0.0
H460 H 0.9679 0.10996 0.32649 0.0
H461 H 0.01949 0.24096 0.29041 0.0
H462 H 0.09295 0.31853 0.31604 0.0
H463 H 0.08463 0.3893 0.31171 0.0
H464 H 0.07153 0.43963 0.29177 0.0
loop_
_geom_bond_atom_site_label_1
_geom_bond_atom_site_label_2
_geom_bond_distance
_geom_bond_site_symmetry_2
_ccdc_geom_bond_type
C0 O1 1.160 . S
C0 O7 1.185 . S
O1 C0 1.160 . S
O2 Zn3 1.899 . S
O2 C10 1.284 . S
Zn3 O2 1.899 . S
Zn3 O4 2.032 1_445 S
Zn3 O7 2.086 1_545 S
Zn3 O12 1.977 . S
O4 Zn3 2.032 1_665 S
O4 C8 1.278 . S
C5 O6 1.203 . S
C5 O12 1.267 . S
O6 C5 1.203 . S
O7 C0 1.185 . S
O7 Zn3 2.086 1_565 S
C8 O4 1.278 . S
C8 O9 1.211 1_565 S
O9 C8 1.211 1_545 S
C10 O2 1.284 . S
C10 O11 1.273 1_455 S
O11 C10 1.273 1_655 S
O12 Zn3 1.977 . S
O12 C5 1.267 . S
C13 O14 1.160 . S
C13 O20 1.185 . S
O14 C13 1.160 . S
O15 Zn16 1.899 . S
O15 C23 1.284 1_545 S
Zn16 O15 1.899 . S
Zn16 O17 2.032 1_455 S
Zn16 O20 2.086 . S
Zn16 O25 1.977 . S
O17 Zn16 2.032 1_655 S
O17 C21 1.278 . S
C18 O19 1.203 . S
C18 O25 1.267 . S
O19 C18 1.203 . S
O20 C13 1.185 . S
O20 Zn16 2.086 . S
C21 O17 1.278 . S
C21 O22 1.211 . S
O22 C21 1.211 . S
C23 O15 1.284 1_565 S
C23 O24 1.273 1_455 S
O24 C23 1.273 1_655 S
O25 Zn16 1.977 . S
O25 C18 1.267 . S
C26 O27 1.160 . S
C26 O33 1.185 1_545 S
O27 C26 1.160 . S
O28 Zn29 1.899 1_655 S
O28 C36 1.284 . S
Zn29 O28 1.899 1_455 S
Zn29 O30 2.032 . S
Zn29 O33 2.086 1_545 S
Zn29 O38 1.977 1_445 S
O30 Zn29 2.032 . S
O30 C34 1.278 . S
C31 O32 1.203 . S
C31 O38 1.267 . S
O32 C31 1.203 . S
O33 C26 1.185 1_565 S
O33 Zn29 2.086 1_565 S
C34 O30 1.278 . S
C34 O35 1.211 . S
O35 C34 1.211 . S
C36 O28 1.284 . S
C36 O37 1.273 . S
O37 C36 1.273 . S
O38 Zn29 1.977 1_665 S
O38 C31 1.267 . S
C39 C40 1.384 1_655 S
C39 C41 1.384 . S
C39 H67 0.931 . S
C40 C39 1.384 1_455 S
C40 C43 1.382 . S
C41 C39 1.384 . S
C41 C42 1.381 1_655 S
C41 H68 0.930 . S
C42 C41 1.381 1_455 S
C42 C44 1.381 . S
C42 C45 1.487 . S
C43 C40 1.382 . S
C43 C44 1.387 . S
C43 H69 0.930 . S
C44 C42 1.381 . S
C44 C43 1.387 . S
C44 H70 0.931 . S
C45 C42 1.487 . S
C45 C52 1.399 . S
C45 N83 1.343 . S
C46 C47 1.384 . S
C46 C48 1.384 . S
C46 H71 0.931 . S
C47 C46 1.384 . S
C47 C50 1.382 1_455 S
C48 C46 1.384 . S
C48 C49 1.381 . S
C48 H72 0.930 . S
C49 C48 1.381 . S
C49 C51 1.381 1_455 S
C49 C52 1.487 . S
C50 C47 1.382 1_655 S
C50 C51 1.387 . S
C50 H73 0.930 . S
C51 C49 1.381 1_655 S
C51 C50 1.387 . S
C51 H74 0.931 . S
C52 C45 1.399 . S
C52 C49 1.487 . S
C52 N84 1.343 . S
C53 C54 1.384 . S
C53 C55 1.384 . S
C53 H75 0.931 . S
C54 C53 1.384 . S
C54 C57 1.382 1_455 S
C55 C53 1.384 . S
C55 C56 1.381 . S
C55 H76 0.930 . S
C56 C55 1.381 . S
C56 C58 1.381 1_455 S
C56 C59 1.487 . S
C57 C54 1.382 1_655 S
C57 C58 1.387 . S
C57 H77 0.930 . S
C58 C56 1.381 1_655 S
C58 C57 1.387 . S
C58 H78 0.931 . S
C59 C56 1.487 . S
C59 C66 1.399 . S
C59 N84 1.343 . S
C60 C61 1.384 1_655 S
C60 C62 1.384 . S
C60 H79 0.931 . S
C61 C60 1.384 1_455 S
C61 C64 1.382 . S
C62 C60 1.384 . S
C62 C63 1.381 1_655 S
C62 H80 0.930 . S
C63 C62 1.381 1_455 S
C63 C65 1.381 . S
C63 C66 1.487 . S
C64 C61 1.382 . S
C64 C65 1.387 . S
C64 H81 0.930 . S
C65 C63 1.381 . S
C65 C64 1.387 . S
C65 H82 0.931 . S
C66 C59 1.399 . S
C66 C63 1.487 . S
C66 N83 1.343 . S
H67 C39 0.931 . S
H68 C41 0.930 . S
H69 C43 0.930 . S
H70 C44 0.931 . S
H71 C46 0.931 . S
H72 C48 0.930 . S
H73 C50 0.930 . S
H74 C51 0.931 . S
H75 C53 0.931 . S
H76 C55 0.930 . S
H77 C57 0.930 . S
H78 C58 0.931 . S
H79 C60 0.931 . S
H80 C62 0.930 . S
H81 C64 0.930 . S
H82 C65 0.931 . S
N83 C45 1.343 . S
N83 C66 1.343 . S
N84 C52 1.343 . S
N84 C59 1.343 . S
C85 C86 1.384 . S
C85 C87 1.384 . S
C85 H113 0.931 . S
C86 C85 1.384 . S
C86 C89 1.382 1_545 S
C87 C85 1.384 . S
C87 C88 1.381 . S
C87 H114 0.930 . S
C88 C87 1.381 . S
C88 C90 1.381 1_545 S
C88 C91 1.487 . S
C89 C86 1.382 1_565 S
C89 C90 1.387 . S
C89 H115 0.930 . S
C90 C88 1.381 1_565 S
C90 C89 1.387 . S
C90 H116 0.931 . S
C91 C88 1.487 . S
C91 C98 1.399 . S
C91 N129 1.343 . S
C92 C93 1.384 1_565 S
C92 C94 1.384 . S
C92 H117 0.931 . S
C93 C92 1.384 1_545 S
C93 C96 1.382 . S
C94 C92 1.384 . S
C94 C95 1.381 1_565 S
C94 H118 0.930 . S
C95 C94 1.381 1_545 S
C95 C97 1.381 . S
C95 C98 1.487 . S
C96 C93 1.382 . S
C96 C97 1.387 . S
C96 H119 0.930 . S
C97 C95 1.381 . S
C97 C96 1.387 . S
C97 H120 0.931 . S
C98 C91 1.399 . S
C98 C95 1.487 . S
C98 N130 1.343 . S
C99 C100 1.384 1_565 S
C99 C101 1.384 . S
C99 H121 0.931 . S
C100 C99 1.384 1_545 S
C100 C103 1.382 . S
C101 C99 1.384 . S
C101 C102 1.381 1_565 S
C101 H122 0.930 . S
C102 C101 1.381 1_545 S
C102 C104 1.381 . S
C102 C105 1.487 . S
C103 C100 1.382 . S
C103 C104 1.387 . S
C103 H123 0.930 . S
C104 C102 1.381 . S
C104 C103 1.387 . S
C104 H124 0.931 . S
C105 C102 1.487 . S
C105 C112 1.399 . S
C105 N130 1.343 . S
C106 C107 1.384 . S
C106 C108 1.384 . S
C106 H125 0.931 . S
C107 C106 1.384 . S
C107 C110 1.382 1_545 S
C108 C106 1.384 . S
C108 C109 1.381 . S
C108 H126 0.930 . S
C109 C108 1.381 . S
C109 C111 1.381 1_545 S
C109 C112 1.487 . S
C110 C107 1.382 1_565 S
C110 C111 1.387 . S
C110 H127 0.930 . S
C111 C109 1.381 1_565 S
C111 C110 1.387 . S
C111 H128 0.931 . S
C112 C105 1.399 . S
C112 C109 1.487 . S
C112 N129 1.343 . S
H113 C85 0.931 . S
H114 C87 0.930 . S
H115 C89 0.930 . S
H116 C90 0.931 . S
H117 C92 0.931 . S
H118 C94 0.930 . S
H119 C96 0.930 . S
H120 C97 0.931 . S
H121 C99 0.931 . S
H122 C101 0.930 . S
H123 C103 0.930 . S
H124 C104 0.931 . S
H125 C106 0.931 . S
H126 C108 0.930 . S
H127 C110 0.930 . S
H128 C111 0.931 . S
N129 C91 1.343 . S
N129 C112 1.343 . S
N130 C98 1.343 . S
N130 C105 1.343 . S
C131 C132 1.384 . S
C131 C133 1.384 . S
C131 H159 0.931 . S
C132 C131 1.384 . S
C132 C135 1.382 . S
C133 C131 1.384 . S
C133 C134 1.381 . S
C133 H160 0.930 . S
C134 C133 1.381 . S
C134 C136 1.381 . S
C134 C137 1.487 . S
C135 C132 1.382 . S
C135 C136 1.387 . S
C135 H161 0.930 . S
C136 C134 1.381 . S
C136 C135 1.387 . S
C136 H162 0.931 . S
C137 C134 1.487 . S
C137 C144 1.399 . S
C137 N175 1.343 . S
C138 C139 1.384 . S
C138 C140 1.384 . S
C138 H163 0.931 . S
C139 C138 1.384 . S
C139 C142 1.382 . S
C140 C138 1.384 . S
C140 C141 1.381 . S
C140 H164 0.930 . S
C141 C140 1.381 . S
C141 C143 1.381 . S
C141 C144 1.487 . S
C142 C139 1.382 . S
C142 C143 1.387 . S
C142 H165 0.930 . S
C143 C141 1.381 . S
C143 C142 1.387 . S
C143 H166 0.931 . S
C144 C137 1.399 . S
C144 C141 1.487 . S
C144 N176 1.343 . S
C145 C146 1.384 . S
C145 C147 1.384 . S
C145 H167 0.931 . S
C146 C145 1.384 . S
C146 C149 1.382 . S
C147 C145 1.384 . S
C147 C148 1.381 . S
C147 H168 0.930 . S
C148 C147 1.381 . S
C148 C150 1.381 . S
C148 C151 1.487 . S
C149 C146 1.382 . S
C149 C150 1.387 . S
C149 H169 0.930 . S
C150 C148 1.381 . S
C150 C149 1.387 . S
C150 H170 0.931 . S
C151 C148 1.487 . S
C151 C158 1.399 . S
C151 N176 1.343 . S
C152 C153 1.384 . S
C152 C154 1.384 . S
C152 H171 0.931 . S
C153 C152 1.384 . S
C153 C156 1.382 . S
C154 C152 1.384 . S
C154 C155 1.381 . S
C154 H172 0.930 . S
C155 C154 1.381 . S
C155 C157 1.381 . S
C155 C158 1.487 . S
C156 C153 1.382 . S
C156 C157 1.387 . S
C156 H173 0.930 . S
C157 C155 1.381 . S
C157 C156 1.387 . S
C157 H174 0.931 . S
C158 C151 1.399 . S
C158 C155 1.487 . S
C158 N175 1.343 . S
H159 C131 0.931 . S
H160 C133 0.930 . S
H161 C135 0.930 . S
H162 C136 0.931 . S
H163 C138 0.931 . S
H164 C140 0.930 . S
H165 C142 0.930 . S
H166 C143 0.931 . S
H167 C145 0.931 . S
H168 C147 0.930 . S
H169 C149 0.930 . S
H170 C150 0.931 . S
H171 C152 0.931 . S
H172 C154 0.930 . S
H173 C156 0.930 . S
H174 C157 0.931 . S
N175 C137 1.343 . S
N175 C158 1.343 . S
N176 C144 1.343 . S
N176 C151 1.343 . S
C177 C178 1.386 1_655 S
C177 C179 1.383 . S
C177 H193 0.951 . S
C178 C177 1.386 1_455 S
C178 C182 1.383 . S
C179 C177 1.383 . S
C179 C180 1.402 1_655 S
C179 H194 0.951 . S
C180 C179 1.402 1_455 S
C180 C181 1.375 . S
C180 C183 1.481 . S
C181 C180 1.375 . S
C181 C182 1.367 . S
C181 H195 0.951 . S
C182 C178 1.383 . S
C182 C181 1.367 . S
C182 H196 0.950 . S
C183 C180 1.481 . S
C183 C184 1.297 1_455 S
C183 H197 0.950 . S
C184 C183 1.297 1_655 S
C184 C185 1.479 1_655 S
C184 H198 0.950 . S
C185 C184 1.479 1_455 S
C185 C186 1.375 1_455 S
C185 C191 1.404 . S
C186 C185 1.375 1_655 S
C186 C187 1.369 . S
C186 H199 0.950 . S
C187 C186 1.369 . S
C187 C188 1.392 1_655 S
C187 H200 0.951 . S
C188 C187 1.392 1_455 S
C188 C190 1.384 . S
H189 C191 0.949 . S
C190 C188 1.384 . S
C190 C191 1.385 . S
C190 H192 0.950 . S
C191 C185 1.404 . S
C191 H189 0.949 . S
C191 C190 1.385 . S
H192 C190 0.950 . S
H193 C177 0.951 . S
H194 C179 0.951 . S
H195 C181 0.951 . S
H196 C182 0.950 . S
H197 C183 0.950 . S
H198 C184 0.950 . S
H199 C186 0.950 . S
H200 C187 0.951 . S
C201 C202 1.386 . S
C201 C203 1.383 . S
C201 H217 0.951 . S
C202 C201 1.386 . S
C202 C206 1.383 1_545 S
C203 C201 1.383 . S
C203 C204 1.402 . S
C203 H218 0.951 . S
C204 C203 1.402 . S
C204 C205 1.375 1_545 S
C204 C207 1.481 . S
C205 C204 1.375 1_565 S
C205 C206 1.367 . S
C205 H219 0.951 . S
C206 C202 1.383 1_565 S
C206 C205 1.367 . S
C206 H220 0.950 . S
C207 C204 1.481 . S
C207 C208 1.297 . S
C207 H221 0.950 1_545 S
C208 C207 1.297 . S
C208 C209 1.479 . S
C208 H222 0.950 . S
C209 C208 1.479 . S
C209 C210 1.375 . S
C209 C215 1.404 1_545 S
C210 C209 1.375 . S
C210 C211 1.369 . S
C210 H223 0.950 . S
C211 C210 1.369 . S
C211 C212 1.392 . S
C211 H224 0.951 . S
C212 C211 1.392 . S
C212 C214 1.384 1_545 S
H213 C215 0.949 . S
C214 C212 1.384 1_565 S
C214 C215 1.385 . S
C214 H216 0.950 . S
C215 C209 1.404 1_565 S
C215 H213 0.949 . S
C215 C214 1.385 . S
H216 C214 0.950 . S
H217 C201 0.951 . S
H218 C203 0.951 . S
H219 C205 0.951 . S
H220 C206 0.950 . S
H221 C207 0.950 1_565 S
H222 C208 0.950 . S
H223 C210 0.950 . S
H224 C211 0.951 . S
C225 C226 1.386 . S
C225 C227 1.383 . S
C225 H241 0.951 . S
C226 C225 1.386 . S
C226 C230 1.383 . S
C227 C225 1.383 . S
C227 C228 1.402 . S
C227 H242 0.951 . S
C228 C227 1.402 . S
C228 C229 1.375 . S
C228 C231 1.481 . S
C229 C228 1.375 . S
C229 C230 1.367 . S
C229 H243 0.951 . S
C230 C226 1.383 . S
C230 C229 1.367 . S
C230 H244 0.950 . S
C231 C228 1.481 . S
C231 C232 1.297 . S
C231 H245 0.950 . S
C232 C231 1.297 . S
C232 C233 1.479 . S
C232 H246 0.950 . S
C233 C232 1.479 . S
C233 C234 1.375 . S
C233 C239 1.404 . S
C234 C233 1.375 . S
C234 C235 1.369 . S
C234 H247 0.950 . S
C235 C234 1.369 . S
C235 C236 1.392 . S
C235 H248 0.951 . S
C236 C235 1.392 . S
C236 C238 1.384 . S
H237 C239 0.949 . S
C238 C236 1.384 . S
C238 C239 1.385 . S
C238 H240 0.950 . S
C239 C233 1.404 . S
C239 H237 0.949 . S
C239 C238 1.385 . S
H240 C238 0.950 . S
H241 C225 0.951 . S
H242 C227 0.951 . S
H243 C229 0.951 . S
H244 C230 0.950 . S
H245 C231 0.950 . S
H246 C232 0.950 . S
H247 C234 0.950 . S
H248 C235 0.951 . S
C249 C250 1.386 . S
C249 C251 1.383 . S
C249 H265 0.951 1_455 S
C250 C249 1.386 . S
C250 C254 1.383 . S
C251 C249 1.383 . S
C251 C252 1.402 . S
C251 H266 0.951 1_455 S
C252 C251 1.402 . S
C252 C253 1.375 . S
C252 C255 1.481 . S
C253 C252 1.375 . S
C253 C254 1.367 . S
C253 H267 0.951 . S
C254 C250 1.383 . S
C254 C253 1.367 . S
C254 H268 0.950 . S
C255 C252 1.481 . S
C255 C256 1.309 . S
C255 H269 0.950 . S
C256 C255 1.309 . S
C256 C257 1.487 . S
C256 H270 0.924 1_455 S
C257 C256 1.487 . S
C257 C258 1.371 1_455 S
C257 C263 1.411 . S
C258 C257 1.371 1_655 S
C258 C259 1.369 . S
C258 H271 0.950 . S
C259 C258 1.369 . S
C259 C260 1.392 1_655 S
C259 H272 0.951 . S
C260 C259 1.392 1_455 S
C260 C262 1.384 . S
H261 C263 0.949 . S
C262 C260 1.384 . S
C262 C263 1.385 . S
C262 H264 0.950 . S
C263 C257 1.411 . S
C263 H261 0.949 . S
C263 C262 1.385 . S
H264 C262 0.950 . S
H265 C249 0.951 1_655 S
H266 C251 0.951 1_655 S
H267 C253 0.951 . S
H268 C254 0.950 . S
H269 C255 0.950 . S
H270 C256 0.924 1_655 S
H271 C258 0.950 . S
H272 C259 0.951 . S
C273 C274 1.386 . S
C273 C275 1.383 . S
C273 H289 0.951 . S
C274 C273 1.386 . S
C274 C278 1.383 . S
C275 C273 1.383 . S
C275 C276 1.402 . S
C275 H290 0.951 . S
C276 C275 1.402 . S
C276 C277 1.375 . S
C276 C279 1.481 . S
C277 C276 1.375 . S
C277 C278 1.367 . S
C277 H291 0.951 1_545 S
C278 C274 1.383 . S
C278 C277 1.367 . S
C278 H292 0.950 . S
C279 C276 1.481 . S
C279 C280 1.297 . S
C279 H293 0.950 . S
C280 C279 1.297 . S
C280 C281 1.479 . S
C280 H294 0.950 . S
C281 C280 1.479 . S
C281 C282 1.375 . S
C281 C287 1.404 . S
C282 C281 1.375 . S
C282 C283 1.369 . S
C282 H295 0.950 . S
C283 C282 1.369 . S
C283 C284 1.392 . S
C283 H296 0.951 . S
C284 C283 1.392 . S
C284 C286 1.384 . S
H285 C287 0.949 . S
C286 C284 1.384 . S
C286 C287 1.385 . S
C286 H288 0.950 1_545 S
C287 C281 1.404 . S
C287 H285 0.949 . S
C287 C286 1.385 . S
H288 C286 0.950 1_565 S
H289 C273 0.951 . S
H290 C275 0.951 . S
H291 C277 0.951 1_565 S
H292 C278 0.950 . S
H293 C279 0.950 . S
H294 C280 0.950 . S
H295 C282 0.950 . S
H296 C283 0.951 . S
C297 C298 1.386 . S
C297 C299 1.383 . S
C297 H313 0.951 . S
C298 C297 1.386 . S
C298 C302 1.383 . S
C299 C297 1.383 . S
C299 C300 1.402 . S
C299 H314 0.951 . S
C300 C299 1.402 . S
C300 C301 1.375 . S
C300 C303 1.481 . S
C301 C300 1.375 . S
C301 C302 1.367 . S
C301 H315 0.951 . S
C302 C298 1.383 . S
C302 C301 1.367 . S
C302 H316 0.950 . S
C303 C300 1.481 . S
C303 C304 1.297 . S
C303 H317 0.950 . S
C304 C303 1.297 . S
C304 C305 1.479 . S
C304 H318 0.950 . S
C305 C304 1.479 . S
C305 C306 1.375 . S
C305 C311 1.404 . S
C306 C305 1.375 . S
C306 C307 1.369 . S
C306 H319 0.950 . S
C307 C306 1.369 . S
C307 C308 1.392 . S
C307 H320 0.951 . S
C308 C307 1.392 . S
C308 C310 1.384 . S
H309 C311 0.949 . S
C310 C308 1.384 . S
C310 C311 1.385 . S
C310 H312 0.950 . S
C311 C305 1.404 . S
C311 H309 0.949 . S
C311 C310 1.385 . S
H312 C310 0.950 . S
H313 C297 0.951 . S
H314 C299 0.951 . S
H315 C301 0.951 . S
H316 C302 0.950 . S
H317 C303 0.950 . S
H318 C304 0.950 . S
H319 C306 0.950 . S
H320 C307 0.951 . S
C321 C322 1.380 1_565 S
C321 C323 1.376 1_565 S
C321 H337 0.964 . S
C322 C321 1.380 1_545 S
C322 C326 1.383 . S
C323 C321 1.376 1_545 S
C323 C324 1.402 . S
C323 H338 0.951 1_545 S
C324 C323 1.402 . S
C324 C325 1.375 . S
C324 C327 1.481 . S
C325 C324 1.375 . S
C325 C326 1.367 . S
C325 H339 0.951 . S
C326 C322 1.383 . S
C326 C325 1.367 . S
C326 H340 0.950 . S
C327 C324 1.481 . S
C327 C328 1.297 . S
C327 H341 0.950 . S
C328 C327 1.297 . S
C328 C329 1.479 . S
C328 H342 0.950 1_545 S
C329 C328 1.479 . S
C329 C330 1.375 1_545 S
C329 C335 1.404 . S
C330 C329 1.375 1_565 S
C330 C331 1.369 . S
C330 H343 0.950 . S
C331 C330 1.369 . S
C331 C332 1.392 1_565 S
C331 H344 0.951 . S
C332 C331 1.392 1_545 S
C332 C334 1.384 . S
H333 C335 0.949 . S
C334 C332 1.384 . S
C334 C335 1.385 . S
C334 H336 0.950 . S
C335 C329 1.404 . S
C335 H333 0.949 . S
C335 C334 1.385 . S
H336 C334 0.950 . S
H337 C321 0.964 . S
H338 C323 0.951 1_565 S
H339 C325 0.951 . S
H340 C326 0.950 . S
H341 C327 0.950 . S
H342 C328 0.950 1_565 S
H343 C330 0.950 . S
H344 C331 0.951 . S
C345 C346 1.386 . S
C345 C347 1.383 . S
C345 H361 0.951 . S
C346 C345 1.386 . S
C346 C350 1.383 . S
C347 C345 1.383 . S
C347 C348 1.402 1_554 S
C347 H362 0.951 . S
C348 C347 1.402 1_556 S
C348 C349 1.375 . S
C348 C351 1.481 . S
C349 C348 1.375 . S
C349 C350 1.367 1_556 S
C349 H363 0.951 . S
C350 C346 1.383 . S
C350 C349 1.367 1_554 S
C350 H364 0.950 1_565 S
C351 C348 1.481 . S
C351 C352 1.297 . S
C351 H365 0.950 . S
C352 C351 1.297 . S
C352 C353 1.479 . S
C352 H366 0.950 . S
C353 C352 1.479 . S
C353 C354 1.375 . S
C353 C359 1.404 . S
C354 C353 1.375 . S
C354 C355 1.369 . S
C354 H367 0.950 . S
C355 C354 1.369 . S
C355 C356 1.392 . S
C355 H368 0.951 . S
C356 C355 1.392 . S
C356 C358 1.384 . S
H357 C359 0.949 . S
C358 C356 1.384 . S
C358 C359 1.385 . S
C358 H360 0.950 . S
C359 C353 1.404 . S
C359 H357 0.949 . S
C359 C358 1.385 . S
H360 C358 0.950 . S
H361 C345 0.951 . S
H362 C347 0.951 . S
H363 C349 0.951 . S
H364 C350 0.950 1_545 S
H365 C351 0.950 . S
H366 C352 0.950 . S
H367 C354 0.950 . S
H368 C355 0.951 . S
C369 C370 1.386 1_655 S
C369 C371 1.383 . S
C369 H385 0.951 . S
C370 C369 1.386 1_455 S
C370 C374 1.383 . S
C371 C369 1.383 . S
C371 C372 1.402 1_655 S
C371 H386 0.951 . S
C372 C371 1.402 1_455 S
C372 C373 1.375 . S
C372 C375 1.481 . S
C373 C372 1.375 . S
C373 C374 1.367 . S
C373 H387 0.951 . S
C374 C370 1.383 . S
C374 C373 1.367 . S
C374 H388 0.950 . S
C375 C372 1.481 . S
C375 C376 1.297 1_455 S
C375 H389 0.950 . S
C376 C375 1.297 1_655 S
C376 C377 1.479 1_655 S
C376 H390 0.950 . S
C377 C376 1.479 1_455 S
C377 C378 1.375 1_455 S
C377 C383 1.404 . S
C378 C377 1.375 1_655 S
C378 C379 1.369 . S
C378 H391 0.950 . S
C379 C378 1.369 . S
C379 C380 1.392 1_655 S
C379 H392 0.951 . S
C380 C379 1.392 1_455 S
C380 C382 1.384 . S
H381 C383 0.949 . S
C382 C380 1.384 . S
C382 C383 1.385 . S
C382 H384 0.950 . S
C383 C377 1.404 . S
C383 H381 0.949 . S
C383 C382 1.385 . S
H384 C382 0.950 . S
H385 C369 0.951 . S
H386 C371 0.951 . S
H387 C373 0.951 . S
H388 C374 0.950 . S
H389 C375 0.950 . S
H390 C376 0.950 . S
H391 C378 0.950 . S
H392 C379 0.951 . S
C393 C394 1.386 1_565 S
C393 C395 1.383 . S
C393 H409 0.951 . S
C394 C393 1.386 1_545 S
C394 C398 1.383 . S
C395 C393 1.383 . S
C395 C396 1.402 1_565 S
C395 H410 0.951 . S
C396 C395 1.402 1_545 S
C396 C397 1.375 . S
C396 C399 1.481 . S
C397 C396 1.375 . S
C397 C398 1.367 . S
C397 H411 0.951 . S
C398 C394 1.383 . S
C398 C397 1.367 . S
C398 H412 0.950 . S
C399 C396 1.481 . S
C399 C400 1.297 . S
C399 H413 0.950 . S
C400 C399 1.297 . S
C400 C401 1.479 . S
C400 H414 0.950 1_545 S
C401 C400 1.479 . S
C401 C402 1.375 1_545 S
C401 C407 1.404 . S
C402 C401 1.375 1_565 S
C402 C403 1.369 . S
C402 H415 0.950 . S
C403 C402 1.369 . S
C403 C404 1.392 1_565 S
C403 H416 0.951 . S
C404 C403 1.392 1_545 S
C404 C406 1.384 . S
H405 C407 0.949 . S
C406 C404 1.384 . S
C406 C407 1.385 . S
C406 H408 0.950 . S
C407 C401 1.404 . S
C407 H405 0.949 . S
C407 C406 1.385 . S
H408 C406 0.950 . S
H409 C393 0.951 . S
H410 C395 0.951 . S
H411 C397 0.951 . S
H412 C398 0.950 . S
H413 C399 0.950 . S
H414 C400 0.950 1_565 S
H415 C402 0.950 . S
H416 C403 0.951 . S
C417 C418 1.386 . S
C417 C419 1.383 . S
C417 H433 0.951 . S
C418 C417 1.386 . S
C418 C422 1.383 1_554 S
C419 C417 1.383 . S
C419 C420 1.402 1_554 S
C419 H434 0.951 . S
C420 C419 1.402 1_556 S
C420 C421 1.375 . S
C420 C423 1.481 . S
C421 C420 1.375 . S
C421 C422 1.367 . S
C421 H435 0.951 . S
C422 C418 1.383 1_556 S
C422 C421 1.367 . S
C422 H436 0.950 . S
C423 C420 1.481 . S
C423 C424 1.297 . S
C423 H437 0.950 . S
C424 C423 1.297 . S
C424 C425 1.479 . S
C424 H438 0.950 . S
C425 C424 1.479 . S
C425 C426 1.375 . S
C425 C431 1.404 . S
C426 C425 1.375 . S
C426 C427 1.369 . S
C426 H439 0.950 . S
C427 C426 1.369 . S
C427 C428 1.392 . S
C427 H440 0.951 . S
C428 C427 1.392 . S
C428 C430 1.384 . S
H429 C431 0.949 . S
C430 C428 1.384 . S
C430 C431 1.385 . S
C430 H432 0.950 . S
C431 C425 1.404 . S
C431 H429 0.949 . S
C431 C430 1.385 . S
H432 C430 0.950 . S
H433 C417 0.951 . S
H434 C419 0.951 . S
H435 C421 0.951 . S
H436 C422 0.950 . S
H437 C423 0.950 . S
H438 C424 0.950 . S
H439 C426 0.950 . S
H440 C427 0.951 . S
C441 C442 1.386 . S
C441 C443 1.383 . S
C441 H457 0.951 . S
C442 C441 1.386 . S
C442 C446 1.383 . S
C443 C441 1.383 . S
C443 C444 1.402 . S
C443 H458 0.951 . S
C444 C443 1.402 . S
C444 C445 1.375 . S
C444 C447 1.481 . S
C445 C444 1.375 . S
C445 C446 1.367 . S
C445 H459 0.951 . S
C446 C442 1.383 . S
C446 C445 1.367 . S
C446 H460 0.950 . S
C447 C444 1.481 . S
C447 C448 1.297 . S
C447 H461 0.950 . S
C448 C447 1.297 . S
C448 C449 1.479 . S
C448 H462 0.950 . S
C449 C448 1.479 . S
C449 C450 1.375 . S
C449 C455 1.404 . S
C450 C449 1.375 . S
C450 C451 1.369 . S
C450 H463 0.950 . S
C451 C450 1.369 . S
C451 C452 1.392 . S
C451 H464 0.951 . S
C452 C451 1.392 . S
C452 C454 1.384 . S
H453 C455 0.949 . S
C454 C452 1.384 . S
C454 C455 1.385 . S
C454 H456 0.954 . S
C455 C449 1.404 . S
C455 H453 0.949 . S
C455 C454 1.385 . S
H456 C454 0.954 . S
H457 C441 0.951 . S
H458 C443 0.951 . S
H459 C445 0.951 . S
H460 C446 0.950 . S
H461 C447 0.950 . S
H462 C448 0.950 . S
H463 C450 0.950 . S
H464 C451 0.951 . S
C188 C47 1.371 . S
C178 C10 1.388 . S
C202 C21 1.431 . S
C212 C86 1.438 . S
C226 C31 1.352 . S
C236 C153 1.410 . S
C250 C0 1.383 . S
C260 C54 1.401 . S
C284 C107 1.414 . S
C274 C18 1.356 . S
C298 C34 1.355 . S
C308 C132 1.396 . S
C332 C93 1.365 . S
C322 C36 1.365 . S
C346 C8 1.389 . S
C356 C146 1.404 . S
C380 C61 1.377 . S
C370 C23 1.391 . S
C404 C100 1.333 . S
C394 C26 1.290 . S
C428 C139 1.396 . S
C418 C5 1.375 . S
C442 C13 1.341 . S
C452 C40 1.378 . S
