# Generated by pormake.
# Topology pth, (4,4)-cn, num edge types: 1
# Building blocks:
#     Node 0, Type 0, BuildingBlock: QUQFOY_clean_sbu_3, # of connection points: 4
#     Node 1, Type 0, BuildingBlock: QUQFOY_clean_sbu_3, # of connection points: 4
#     Node 2, Type 0, BuildingBlock: QUQFOY_clean_sbu_3, # of connection points: 4
#     Node 3, Type 1, BuildingBlock: MIFKUJ_clean_linker_1, # of connection points: 4
#     Node 4, Type 1, BuildingBlock: MIFKUJ_clean_linker_1, # of connection points: 4
#     Node 5, Type 1, BuildingBlock: MIFKUJ_clean_linker_1, # of connection points: 4
#     Edge 6, Type (0, 1), BuildingBlock: FUNLAD_clean_linker_0, # of connection points: 2
#     Edge 7, Type (0, 1), BuildingBlock: FUNLAD_clean_linker_0, # of connection points: 2
#     Edge 8, Type (0, 1), BuildingBlock: FUNLAD_clean_linker_0, # of connection points: 2
#     Edge 9, Type (0, 1), BuildingBlock: FUNLAD_clean_linker_0, # of connection points: 2
#     Edge 10, Type (0, 1), BuildingBlock: FUNLAD_clean_linker_0, # of connection points: 2
#     Edge 11, Type (0, 1), BuildingBlock: FUNLAD_clean_linker_0, # of connection points: 2
#     Edge 12, Type (0, 1), BuildingBlock: FUNLAD_clean_linker_0, # of connection points: 2
#     Edge 13, Type (0, 1), BuildingBlock: FUNLAD_clean_linker_0, # of connection points: 2
#     Edge 14, Type (0, 1), BuildingBlock: FUNLAD_clean_linker_0, # of connection points: 2
#     Edge 15, Type (0, 1), BuildingBlock: FUNLAD_clean_linker_0, # of connection points: 2
#     Edge 16, Type (0, 1), BuildingBlock: FUNLAD_clean_linker_0, # of connection points: 2
#     Edge 17, Type (0, 1), BuildingBlock: FUNLAD_clean_linker_0, # of connection points: 2
# Relax obj value: 0.016
# Max RMSD: 0.072
# Mean RMSD: 0.058
data_MOF--net-pth--node1-QUQFOY_clean_sbu_3--node2-MIFKUJ_clean_linker_1--edge1-FUNLAD_clean_linker_0
_symmetry_space_group_name_H-M    P1
_symmetry_Int_Tables_number       1
_symmetry_cell_setting            triclinic
loop_
_symmetry_equiv_pos_as_xyz
'x, y, z'
_cell_length_a     33.954168
_cell_length_b     33.606461
_cell_length_c     74.910008
_cell_angle_alpha  90.056287
_cell_angle_beta   90.653086
_cell_angle_gamma 120.58504
loop_
_atom_site_label
_atom_site_type_symbol
_atom_site_fract_x
_atom_site_fract_y
_atom_site_fract_z
_atom_type_partial_charge
C0 C 0.97209 0.10969 0.06139 0.0
O1 O 0.9453 0.10045 0.04807 0.0
Cd2 Cd 0.94676 0.05749 0.02292 0.0
O3 O -0.00152 0.0931 0.06231 0.0
Cd4 Cd 0.01407 0.03892 0.04522 0.0
C5 C 0.06204 0.11879 0.01313 0.0
O6 O 0.93692 0.98584 0.0336 0.0
O7 O -0.00815 0.98278 0.02074 0.0
O8 O 0.00859 0.00354 0.07401 0.0
C9 C 0.94918 0.96572 0.02257 0.0
O10 O 0.02097 0.10706 0.00905 0.0
C11 C 0.04404 0.00033 0.07249 0.0
O12 O 0.07063 0.10098 0.02653 0.0
O13 O 0.06668 0.01595 0.05823 0.0
C14 C 0.11229 0.08299 0.39519 0.0
O15 O 0.13123 0.11044 0.38228 0.0
Cd16 Cd 0.0897 0.11751 0.35765 0.0
O17 O 0.0688 0.05936 0.39618 0.0
Cd18 Cd 0.00116 0.05071 0.37926 0.0
C19 C 0.02673 0.00294 0.34495 0.0
O20 O 0.03213 0.13052 0.36947 0.0
O21 O 0.97057 0.07918 0.35597 0.0
O22 O 0.96934 0.05436 0.40776 0.0
C23 C -9e-05 0.12154 0.35849 0.0
O24 O 0.05774 0.04417 0.34135 0.0
C25 C 0.9302 0.0188 0.40511 0.0
O26 O 0.00226 0.99442 0.35878 0.0
O27 O 0.9242 -0.003 0.39051 0.0
C28 C 0.9446 0.07745 0.68848 0.0
O29 O 0.95229 0.10416 0.70172 0.0
Cd30 Cd -0.00476 0.1065 0.72763 0.0
O31 O 0.9629 0.05244 0.68781 0.0
Cd32 Cd 0.01831 0.04045 0.70586 0.0
C33 C 0.93948 0.99036 0.73804 0.0
O34 O 0.06724 0.1185 0.71802 0.0
O35 O 0.07286 0.06417 0.73086 0.0
O36 O 0.06136 0.04927 0.67893 0.0
C37 C 0.08755 0.10704 0.72939 0.0
O38 O 0.94926 0.03139 0.74184 0.0
C39 C 0.06156 0.01178 0.68048 0.0
O40 O 0.95788 0.98256 0.72478 0.0
O41 O 0.04026 0.98643 0.69367 0.0
H42 H 0.1074 0.52626 0.18048 0.0
H43 H 0.10068 0.46209 0.16255 0.0
H44 H 0.96319 0.37427 0.18157 0.0
H45 H 0.96976 0.43879 0.19914 0.0
H46 H 0.05838 0.56865 0.17787 0.0
H47 H 0.08771 0.48565 0.22215 0.0
H48 H 0.07625 0.42061 0.24052 0.0
H49 H 0.95239 0.40829 0.26127 0.0
H50 H 0.96346 0.47283 0.24261 0.0
H51 H 0.97119 0.59516 0.23801 0.0
H52 H 0.96924 0.65705 0.25438 0.0
H53 H 0.10866 0.75243 0.23905 0.0
H54 H 0.11001 0.69048 0.22246 0.0
H55 H 0.02633 0.55904 0.24265 0.0
H56 H -0.00666 0.63663 0.19612 0.0
H57 H 0.00448 0.70144 0.17776 0.0
H58 H 0.13673 0.72496 0.16204 0.0
H59 H 0.12508 0.65964 0.18036 0.0
C60 C 0.03921 0.48724 0.19123 0.0
C61 C 0.07589 0.49313 0.18082 0.0
C62 C 0.07212 0.45635 0.1707 0.0
C63 C 0.03141 0.41311 0.17067 0.0
C64 C -0.00515 0.40726 0.18121 0.0
C65 C -0.0013 0.44398 0.19137 0.0
C66 C 0.04255 0.52672 0.20143 0.0
C67 C 0.05215 0.56684 0.1921 0.0
C68 C 0.03348 0.52394 0.21993 0.0
C69 C 0.02617 0.48387 0.23082 0.0
C70 C 0.05768 0.46851 0.23043 0.0
C71 C 0.05116 0.4314 0.24095 0.0
C72 C 0.01341 0.40938 0.25231 0.0
C73 C 0.98202 0.42489 0.25276 0.0
C74 C 0.9883 0.46171 0.2421 0.0
C75 C 0.04061 0.6383 0.22891 0.0
C76 C 0.00132 0.62943 0.2382 0.0
C77 C 0.00033 0.66482 0.2476 0.0
C78 C 0.03878 0.70976 0.24803 0.0
C79 C 0.07818 0.71845 0.23875 0.0
C80 C 0.07909 0.68305 0.22931 0.0
C81 C 0.0414 0.60047 0.21904 0.0
C82 C 0.03273 0.56078 0.22844 0.0
C83 C 0.05137 0.60362 0.20063 0.0
C84 C 0.05859 0.64361 0.18976 0.0
C85 C 0.02495 0.65607 0.18888 0.0
C86 C 0.03144 0.69323 0.1784 0.0
C87 C 0.07163 0.71858 0.16848 0.0
C88 C 0.10522 0.70591 0.16936 0.0
C89 C 0.09868 0.6687 0.17986 0.0
H90 H 0.5698 0.04951 0.5081 0.0
H91 H 0.63308 0.05355 0.49143 0.0
H92 H 0.61365 0.93115 0.51828 0.0
H93 H 0.54913 0.92628 0.5344 0.0
H94 H 0.48269 0.98922 0.50879 0.0
H95 H 0.60268 0.05436 0.5515 0.0
H96 H 0.6672 0.06334 0.56949 0.0
H97 H 0.57848 0.93234 0.5947 0.0
H98 H 0.51407 0.92309 0.57632 0.0
H99 H 0.3831 0.91656 0.57412 0.0
H100 H 0.32125 0.9165 0.59066 0.0
H101 H 0.35635 0.04784 0.56731 0.0
H102 H 0.41805 0.04773 0.55089 0.0
H103 H 0.47569 0.97797 0.57483 0.0
H104 H 0.35121 0.92649 0.53086 0.0
H105 H 0.29472 0.9346 0.51304 0.0
H106 H 0.40335 0.0614 0.49091 0.0
H107 H 0.4594 0.0533 0.50875 0.0
C108 C 0.55488 0.98781 0.52261 0.0
C109 C 0.57895 0.02335 0.51031 0.0
C110 C 0.61544 0.02587 0.50092 0.0
C111 C 0.62867 0.99284 0.5036 0.0
C112 C 0.60416 0.95694 0.51579 0.0
C113 C 0.56755 0.95438 0.52515 0.0
C114 C 0.51652 0.9858 0.53273 0.0
C115 C 0.48131 0.98706 0.52325 0.0
C116 C 0.51466 0.98295 0.55157 0.0
C117 C 0.55368 0.98782 0.56245 0.0
C118 C 0.59721 0.02734 0.56077 0.0
C119 C 0.63397 0.03261 0.57117 0.0
C120 C 0.62793 -0.00145 0.58352 0.0
C121 C 0.58431 0.95892 0.58515 0.0
C122 C 0.54744 0.95374 0.57478 0.0
C123 C 0.40476 0.98179 0.56107 0.0
C124 C 0.37749 0.94536 0.57261 0.0
C125 C 0.34223 0.94542 0.58207 0.0
C126 C 0.33366 0.982 0.58019 0.0
C127 C 0.36146 0.01872 0.56879 0.0
C128 C 0.39681 0.01874 0.55942 0.0
C129 C 0.44178 0.98134 0.55088 0.0
C130 C 0.47674 0.9795 0.56037 0.0
C131 C 0.44427 0.98548 0.53205 0.0
C132 C 0.40954 0.98941 0.52121 0.0
C133 C 0.36277 0.95616 0.52225 0.0
C134 C 0.33054 0.96086 0.51209 0.0
C135 C 0.34462 -0.00141 0.50054 0.0
C136 C 0.39148 0.03161 0.49948 0.0
C137 C 0.42355 0.02705 0.50969 0.0
H138 H 0.50337 0.42681 0.84464 0.0
H139 H 0.44258 0.36552 0.82647 0.0
H140 H 0.34452 0.39545 0.84982 0.0
H141 H 0.40588 0.45816 0.86728 0.0
H142 H 0.53534 0.51614 0.84363 0.0
H143 H 0.46781 0.40031 0.88933 0.0
H144 H 0.40644 0.34241 0.90786 0.0
H145 H 0.37793 0.44654 0.92682 0.0
H146 H 0.43879 0.50403 0.90807 0.0
H147 H 0.56492 0.63434 0.90233 0.0
H148 H 0.62666 0.6981 0.91969 0.0
H149 H 0.71592 0.64522 0.90812 0.0
H150 H 0.65451 0.58226 0.89035 0.0
H151 H 0.52949 0.53518 0.90904 0.0
H152 H 0.59561 0.65016 0.8641 0.0
H153 H 0.65387 0.70871 0.84493 0.0
H154 H 0.68331 0.60688 0.82398 0.0
H155 H 0.62593 0.54873 0.8437 0.0
C156 C 0.45919 0.44686 0.85745 0.0
C157 C 0.46874 0.4201 0.84586 0.0
C158 C 0.43385 0.38477 0.83559 0.0
C159 C 0.38859 0.37546 0.83669 0.0
C160 C 0.37904 0.402 0.84848 0.0
C161 C 0.41402 0.4375 0.85867 0.0
C162 C 0.49686 0.48606 0.86753 0.0
C163 C 0.53443 0.51977 0.85798 0.0
C164 C 0.49503 0.49168 0.88618 0.0
C165 C 0.45759 0.45637 0.89722 0.0
C166 C 0.44809 0.41053 0.89738 0.0
C167 C 0.41331 0.37761 0.90808 0.0
C168 C 0.38735 0.38994 0.91878 0.0
C169 C 0.39699 0.43588 0.91858 0.0
C170 C 0.43192 0.46881 0.90797 0.0
C171 C 0.60538 0.60387 0.89506 0.0
C172 C 0.59792 0.63678 0.90343 0.0
C173 C 0.63309 0.67311 0.91325 0.0
C174 C 0.67579 0.67629 0.91519 0.0
C175 C 0.68317 0.64327 0.90682 0.0
C176 C 0.6483 0.60753 0.89668 0.0
C177 C 0.56781 0.56469 0.88512 0.0
C178 C 0.53041 0.53114 0.8947 0.0
C179 C 0.5698 0.55918 0.86653 0.0
C180 C 0.60681 0.59519 0.85552 0.0
C181 C 0.61522 0.64063 0.85565 0.0
C182 C 0.64813 0.67393 0.8445 0.0
C183 C 0.67311 0.66242 0.83287 0.0
C184 C 0.66502 0.617 0.83292 0.0
C185 C 0.63205 0.58367 0.84409 0.0
C186 C 0.00708 0.15716 0.08922 0.0
C187 C 0.97301 0.14046 0.07578 0.0
C188 C 0.00875 0.18755 0.10239 0.0
C189 C 0.97627 0.20178 0.1024 0.0
C190 C 0.94154 0.18402 0.08928 0.0
C191 C 0.94009 0.15401 0.07604 0.0
C192 C 0.97705 0.23467 0.11587 0.0
C193 C 0.01577 0.26789 0.12384 0.0
C194 C 0.01777 0.30352 0.13631 0.0
C195 C 0.05791 0.33027 0.14649 0.0
C196 C 0.06225 0.36547 0.1578 0.0
C197 C 0.02648 0.37477 0.15917 0.0
H198 H 0.95092 0.29458 0.1298 0.0
C199 C 0.98624 0.348 0.14907 0.0
C200 C 0.98195 0.31298 0.13771 0.0
H201 H 0.95843 0.35496 0.14957 0.0
H202 H 0.03275 0.14712 0.08948 0.0
H203 H 0.03519 0.19934 0.11261 0.0
H204 H 0.91584 0.19405 0.08907 0.0
H205 H 0.91315 0.14153 0.06599 0.0
H206 H 0.94462 0.23228 0.11851 0.0
H207 H 0.04801 0.27 0.12088 0.0
H208 H 0.08618 0.32406 0.14566 0.0
H209 H 0.09359 0.38532 0.1655 0.0
C210 C 0.90152 0.02867 0.43442 0.0
C211 C 0.8928 0.00532 0.41798 0.0
C212 C 0.86576 0.01908 0.44596 0.0
C213 C 0.82025 0.98626 0.4412 0.0
C214 C 0.81187 0.96143 0.42514 0.0
C215 C 0.84772 0.97089 0.41362 0.0
C216 C 0.78079 0.9775 0.45247 0.0
C217 C 0.78211 0.00931 0.46387 0.0
C218 C 0.74226 0.00324 0.47425 0.0
C219 C 0.74421 0.04276 0.48151 0.0
C220 C 0.7076 0.03932 0.49109 0.0
C221 C 0.668 -0.00387 0.49374 0.0
H222 H 0.7004 0.92824 0.47233 0.0
C223 C 0.66629 0.95635 0.48682 0.0
C224 C 0.70302 0.95978 0.47722 0.0
H225 H 0.63625 0.92254 0.48858 0.0
H226 H 0.93599 0.05492 0.4383 0.0
H227 H 0.87409 0.03762 0.45854 0.0
H228 H 0.77728 0.93552 0.42123 0.0
H229 H 0.83991 0.95211 0.40108 0.0
H230 H 0.7489 0.94528 0.45019 0.0
H231 H 0.8131 0.04293 0.4649 0.0
H232 H 0.77412 0.07665 0.47964 0.0
H233 H 0.71049 0.07057 0.49655 0.0
C234 C 0.89624 0.90614 0.74626 0.0
C235 C 0.90602 0.95166 0.74918 0.0
C236 C 0.86445 0.86994 0.75687 0.0
C237 C 0.84187 0.87862 0.77066 0.0
C238 C 0.85143 0.92399 0.77342 0.0
C239 C 0.88323 0.96008 0.76291 0.0
C240 C 0.80699 0.84148 0.78205 0.0
C241 C 0.80461 0.80078 0.78504 0.0
C242 C 0.7701 0.76504 0.79701 0.0
C243 C 0.78024 0.7342 0.80566 0.0
C244 C 0.74887 0.70083 0.81729 0.0
C245 C 0.70649 0.69741 0.8204 0.0
H246 H 0.71727 0.78263 0.79284 0.0
C247 C 0.6959 0.72753 0.81139 0.0
C248 C 0.7272 0.76081 0.79978 0.0
H249 H 0.66306 0.72496 0.81311 0.0
H250 H 0.91297 0.8984 0.73573 0.0
H251 H 0.85714 0.83527 0.75399 0.0
H252 H 0.83433 0.93167 0.78384 0.0
H253 H 0.88969 -0.00538 0.76552 0.0
H254 H 0.78388 0.84933 0.78904 0.0
H255 H 0.83029 0.79437 0.77949 0.0
H256 H 0.81284 0.7364 0.80365 0.0
H257 H 0.75812 0.67823 0.82406 0.0
C258 C 0.08758 0.96241 0.08286 0.0
C259 C 0.05666 0.97746 0.08641 0.0
C260 C 0.09594 0.93697 0.09558 0.0
C261 C 0.0737 0.92645 0.11214 0.0
C262 C 0.0446 0.94349 0.11594 0.0
C263 C 0.03581 0.96832 0.10318 0.0
C264 C 0.07903 0.89716 0.12566 0.0
C265 C 0.08607 0.86233 0.12132 0.0
C266 C 0.08501 0.82817 0.13431 0.0
C267 C 0.0998 0.79808 0.12866 0.0
C268 C 0.09636 0.76318 0.13984 0.0
C269 C 0.07782 0.75735 0.15697 0.0
H270 H 0.05435 0.84418 0.15658 0.0
C271 C 0.06375 0.7879 0.16279 0.0
C272 C 0.0671 0.82274 0.15162 0.0
H273 H 0.04976 0.78468 0.17598 0.0
H274 H 0.10439 0.96921 0.07009 0.0
H275 H 0.11969 0.9256 0.0924 0.0
H276 H 0.02739 0.9363 0.12864 0.0
H277 H 0.01212 0.9798 0.10638 0.0
H278 H 0.07351 0.90273 0.13943 0.0
H279 H 0.09096 0.85708 0.10739 0.0
H280 H 0.11339 0.80104 0.11539 0.0
H281 H 0.107 0.73991 0.13483 0.0
C282 C 0.12151 0.04134 0.42129 0.0
C283 C 0.14112 0.07703 0.40868 0.0
C284 C 0.14918 0.03382 0.43316 0.0
C285 C 0.19719 0.06225 0.43279 0.0
C286 C 0.21651 0.09848 0.42043 0.0
C287 C 0.18893 0.10579 0.40853 0.0
C288 C 0.22878 0.05445 0.44425 0.0
C289 C 0.21587 0.02495 0.45809 0.0
C290 C 0.24888 0.01741 0.46866 0.0
C291 C 0.23881 0.0025 0.48641 0.0
C292 C 0.26953 -0.0042 0.49675 0.0
C293 C 0.31087 0.00366 0.48949 0.0
H294 H 0.29777 0.03321 0.4474 0.0
C295 C 0.32027 0.01721 0.47157 0.0
C296 C 0.28959 0.02377 0.46124 0.0
H297 H 0.35127 0.02236 0.46546 0.0
H298 H 0.08478 0.01838 0.4217 0.0
H299 H 0.13257 0.00501 0.44218 0.0
H300 H 0.2533 0.12094 0.41977 0.0
H301 H 0.20524 0.1337 0.39904 0.0
H302 H 0.26491 0.07491 0.44116 0.0
H303 H 0.18062 0.00692 0.46239 0.0
H304 H 0.20746 -0.00323 0.49239 0.0
H305 H 0.26137 0.98545 0.51054 0.0
C306 C 0.13948 0.12694 0.75605 0.0
C307 C 0.12329 0.14138 0.74158 0.0
C308 C 0.17232 0.15925 0.7679 0.0
C309 C 0.19026 0.20696 0.76537 0.0
C310 C 0.17395 0.22121 0.75086 0.0
C311 C 0.14085 0.18886 0.7391 0.0
C312 C 0.22485 0.243 0.77769 0.0
C313 C 0.24929 0.23516 0.79005 0.0
C314 C 0.28404 0.27161 0.80216 0.0
C315 C 0.31689 0.26395 0.81045 0.0
C316 C 0.35045 0.2973 0.82179 0.0
C317 C 0.35187 0.33917 0.82518 0.0
H318 H 0.25927 0.3199 0.80037 0.0
C319 C 0.31841 0.34647 0.8172 0.0
C320 C 0.28473 0.31304 0.80592 0.0
H321 H 0.31859 0.37841 0.81943 0.0
H322 H 0.12627 0.09053 0.75842 0.0
H323 H 0.18262 0.14625 0.7791 0.0
H324 H 0.1868 0.25761 0.74859 0.0
H325 H 0.12899 0.20109 0.72808 0.0
H326 H 0.23135 0.27786 0.77593 0.0
H327 H 0.24562 0.20125 0.79097 0.0
H328 H 0.31687 0.23214 0.80804 0.0
H329 H 0.37516 0.29014 0.82797 0.0
C330 C 0.89439 0.03763 0.66171 0.0
C331 C 0.91291 0.07446 0.67408 0.0
C332 C 0.86224 0.0335 0.64885 0.0
C333 C 0.84823 0.06633 0.64806 0.0
C334 C 0.86802 0.10394 0.65999 0.0
C335 C 0.89966 0.10778 0.67295 0.0
C336 C 0.81337 0.06289 0.63499 0.0
C337 C 0.77841 0.02226 0.62888 0.0
C338 C 0.74087 0.01779 0.61693 0.0
C339 C 0.71117 0.97469 0.60889 0.0
C340 C 0.67458 0.96833 0.59803 0.0
C341 C 0.66685 0.00503 0.59494 0.0
H342 H 0.75346 0.0879 0.62018 0.0
C343 C 0.69635 0.04811 0.603 0.0
C344 C 0.73275 0.05444 0.61392 0.0
H345 H 0.69072 0.07682 0.60117 0.0
H346 H 0.90409 0.01152 0.66215 0.0
H347 H 0.84875 0.00479 0.63951 0.0
H348 H 0.85819 0.12998 0.65955 0.0
H349 H 0.91354 0.1368 0.68217 0.0
H350 H 0.8158 0.09513 0.63117 0.0
H351 H 0.7764 0.99037 0.63309 0.0
H352 H 0.71624 0.94571 0.61101 0.0
H353 H 0.6526 0.93478 0.59191 0.0
C354 C 0.92885 0.91768 -0.00524 0.0
C355 C 0.91557 0.92735 0.01113 0.0
C356 C 0.89672 0.88227 0.98367 0.0
C357 C 0.85089 0.8554 0.98891 0.0
C358 C 0.8379 0.86424 0.00548 0.0
C359 C 0.8698 0.90036 0.01639 0.0
C360 C 0.81635 0.81734 0.9775 0.0
C361 C 0.81522 0.82092 0.95964 0.0
C362 C 0.77971 0.78344 0.9483 0.0
C363 C 0.76136 0.7947 0.9336 0.0
C364 C 0.72731 0.75985 0.92286 0.0
C365 C 0.71212 0.71324 0.92636 0.0
H366 H 0.77885 0.72713 0.96279 0.0
C367 C 0.73131 0.70196 0.94077 0.0
C368 C 0.76458 0.73674 0.95175 0.0
H369 H 0.72003 0.66618 0.9437 0.0
H370 H 0.96394 0.9379 0.9904 0.0
H371 H 0.90788 0.87555 0.97112 0.0
H372 H 0.80283 0.84368 0.00984 0.0
H373 H 0.85874 0.9069 0.029 0.0
H374 H 0.78945 0.78689 0.98405 0.0
H375 H 0.8391 0.85331 0.95326 0.0
H376 H 0.77281 0.83049 0.93061 0.0
H377 H 0.7131 0.76924 0.91173 0.0
C378 C 0.04338 0.97431 0.31681 0.0
C379 C 0.02048 0.96466 0.33316 0.0
C380 C 0.0396 0.93863 0.306 0.0
C381 C 0.01323 0.89225 0.3114 0.0
C382 C 0.98921 0.88256 0.32748 0.0
C383 C -0.00722 0.91832 0.33826 0.0
C384 C 0.00975 0.85312 0.30071 0.0
C385 C 0.04014 0.85815 0.28818 0.0
C386 C 0.03764 0.81897 0.27796 0.0
C387 C 0.05884 0.82783 0.26128 0.0
C388 C 0.0588 0.79241 0.25149 0.0
C389 C 0.03796 0.74728 0.25826 0.0
H390 H 0.00143 0.7658 0.29783 0.0
C391 C 0.01689 0.73841 0.275 0.0
C392 C 0.01676 0.77381 0.28477 0.0
H393 H 0.0014 0.70427 0.28079 0.0
H394 H 0.06443 0.00959 0.31232 0.0
H395 H 0.05725 0.94789 0.29342 0.0
H396 H 0.96821 0.8472 0.3319 0.0
H397 H 0.97451 0.90963 0.35073 0.0
H398 H 0.98152 0.81881 0.30368 0.0
H399 H 0.06835 0.89227 0.28505 0.0
H400 H 0.07541 0.86233 0.25576 0.0
H401 H 0.07488 0.80038 0.23855 0.0
C402 C 0.11316 0.03043 0.65436 0.0
C403 C 0.08766 -0.00017 0.66804 0.0
C404 C 0.14084 0.02141 0.64344 0.0
C405 C 0.14335 0.98118 0.64582 0.0
C406 C 0.11728 0.95027 0.65934 0.0
C407 C 0.08963 0.95938 0.67031 0.0
C408 C 0.17498 0.97195 0.63534 0.0
C409 C 0.19241 0.99174 0.61948 0.0
C410 C 0.22704 0.98599 0.60957 0.0
C411 C 0.23408 -0.00162 0.59149 0.0
C412 C 0.26815 -0.00355 0.5819 0.0
C413 C 0.29623 0.98224 0.59021 0.0
H414 H 0.25188 0.96292 0.63189 0.0
C415 C 0.289 0.96938 0.60826 0.0
C416 C 0.25498 0.97143 0.61787 0.0
H417 H 0.31058 0.95903 0.61512 0.0
H418 H 0.11275 0.06213 0.65235 0.0
H419 H 0.1613 0.04701 0.63362 0.0
H420 H 0.11876 0.91921 0.6616 0.0
H421 H 0.07054 0.9352 0.68079 0.0
H422 H 0.18357 0.94751 0.64093 0.0
H423 H 0.18053 0.01285 0.61316 0.0
H424 H 0.21333 0.00995 0.58474 0.0
H425 H 0.27248 0.0061 0.56796 0.0
C426 C 0.14468 0.16224 0.00418 0.0
C427 C 0.09983 0.15382 0.00215 0.0
C428 C 0.17998 0.19516 0.99361 0.0
C429 C 0.17107 0.22042 0.98084 0.0
C430 C 0.12647 0.21249 0.97907 0.0
C431 C 0.0912 0.17936 0.98947 0.0
C432 C 0.20735 0.25627 0.96949 0.0
C433 C 0.24469 0.25513 0.96435 0.0
C434 C 0.28048 0.29012 0.95246 0.0
C435 C 0.32267 0.29196 0.95139 0.0
C436 C 0.35726 0.32408 0.9404 0.0
C437 C 0.35042 0.35515 0.93019 0.0
H438 H 0.24111 0.31975 0.94167 0.0
C439 C 0.30808 0.35298 0.93102 0.0
C440 C 0.2734 0.32073 0.94191 0.0
H441 H 0.30148 0.37585 0.92301 0.0
H442 H 0.15253 0.14335 0.0139 0.0
H443 H 0.2142 0.20125 -0.00428 0.0
H444 H 0.11874 0.23172 0.96945 0.0
H445 H 0.05716 0.17405 0.98763 0.0
H446 H 0.2018 0.28361 0.96489 0.0
H447 H 0.2495 0.22726 0.96898 0.0
H448 H 0.32909 0.2687 0.95922 0.0
H449 H 0.38964 0.32508 0.94013 0.0
C450 C 0.96883 0.1466 0.33321 0.0
C451 C -0.00046 0.15815 0.34769 0.0
C452 C 0.96969 0.18116 0.32256 0.0
C453 C 0.00124 0.22804 0.32623 0.0
C454 C 0.03096 0.23957 0.341 0.0
C455 C 0.03043 0.205 0.35154 0.0
C456 C 0.00351 0.26567 0.3151 0.0
C457 C -0.00657 0.26064 0.2975 0.0
C458 C -0.00211 0.29892 0.28617 0.0
C459 C 0.00802 0.29949 0.26802 0.0
C460 C 0.01308 0.33533 0.25702 0.0
C461 C 0.00731 0.37092 0.26389 0.0
H462 H 0.98236 0.33419 0.3068 0.0
C463 C -0.00392 0.36978 0.28195 0.0
C464 C -0.00854 0.3342 0.293 0.0
H465 H -0.0085 0.39681 0.28762 0.0
H466 H 0.94437 0.11081 0.32998 0.0
H467 H 0.94531 0.17104 0.31161 0.0
H468 H 0.05526 0.27543 0.34422 0.0
H469 H 0.0543 0.215 0.36268 0.0
H470 H 0.01694 0.29936 0.32139 0.0
H471 H 0.98454 0.22833 0.29085 0.0
H472 H 0.01264 0.27246 0.26239 0.0
H473 H 0.02115 0.335 0.24309 0.0
loop_
_geom_bond_atom_site_label_1
_geom_bond_atom_site_label_2
_geom_bond_distance
_geom_bond_site_symmetry_2
_ccdc_geom_bond_type
C0 O1 1.306 1_455 S
C0 O3 1.160 . S
O1 C0 1.306 1_655 S
O1 Cd2 2.228 . S
Cd2 O1 2.228 . S
Cd2 O6 2.273 . S
Cd2 O10 2.277 1_655 S
O3 C0 1.160 . S
O3 Cd4 2.203 . S
Cd4 O3 2.203 . S
Cd4 O6 2.411 1_455 S
Cd4 O7 2.335 1_545 S
Cd4 O8 2.352 1_545 S
Cd4 O12 2.277 . S
Cd4 O13 2.356 1_545 S
C5 O10 1.209 . S
C5 O12 1.226 . S
O6 Cd2 2.273 . S
O6 Cd4 2.411 1_655 S
O6 C9 1.320 1_545 S
O7 Cd4 2.335 1_565 S
O7 C9 1.192 1_455 S
O8 Cd4 2.352 1_565 S
O8 C11 1.258 . S
C9 O6 1.320 1_565 S
C9 O7 1.192 1_655 S
O10 Cd2 2.277 1_455 S
O10 C5 1.209 . S
C11 O8 1.258 . S
C11 O13 1.282 . S
O12 Cd4 2.277 . S
O12 C5 1.226 . S
O13 Cd4 2.356 1_565 S
O13 C11 1.282 . S
C14 O15 1.306 . S
C14 O17 1.160 . S
O15 C14 1.306 . S
O15 Cd16 2.228 . S
Cd16 O15 2.228 . S
Cd16 O20 2.273 . S
Cd16 O24 2.277 . S
O17 C14 1.160 . S
O17 Cd18 2.203 . S
Cd18 O17 2.203 . S
Cd18 O20 2.411 . S
Cd18 O21 2.333 1_455 S
Cd18 O22 2.352 1_455 S
Cd18 O26 2.277 1_445 S
Cd18 O27 2.356 1_445 S
C19 O24 1.209 1_565 S
C19 O26 1.226 1_455 S
O20 Cd16 2.273 . S
O20 Cd18 2.411 . S
O20 C23 1.320 . S
O21 Cd18 2.333 1_655 S
O21 C23 1.214 1_655 S
O22 Cd18 2.352 1_655 S
O22 C25 1.258 . S
C23 O20 1.320 . S
C23 O21 1.214 1_455 S
O24 Cd16 2.277 . S
O24 C19 1.209 1_545 S
C25 O22 1.258 . S
C25 O27 1.282 1_545 S
O26 Cd18 2.277 1_665 S
O26 C19 1.226 1_655 S
O27 Cd18 2.356 1_665 S
O27 C25 1.282 1_565 S
C28 O29 1.306 . S
C28 O31 1.160 . S
O29 C28 1.306 . S
O29 Cd30 2.228 . S
Cd30 O29 2.228 . S
Cd30 O34 2.273 1_655 S
Cd30 O38 2.277 . S
O31 C28 1.160 . S
O31 Cd32 2.203 1_655 S
Cd32 O31 2.203 1_455 S
Cd32 O34 2.411 . S
Cd32 O35 2.333 . S
Cd32 O36 2.352 . S
Cd32 O40 2.277 1_445 S
Cd32 O41 2.356 1_545 S
C33 O38 1.209 1_565 S
C33 O40 1.226 . S
O34 Cd30 2.273 1_455 S
O34 Cd32 2.411 . S
O34 C37 1.320 . S
O35 Cd32 2.333 . S
O35 C37 1.214 . S
O36 Cd32 2.352 . S
O36 C39 1.258 . S
C37 O34 1.320 . S
C37 O35 1.214 . S
O38 Cd30 2.277 . S
O38 C33 1.209 1_545 S
C39 O36 1.258 . S
C39 O41 1.282 1_545 S
O40 Cd32 2.277 1_665 S
O40 C33 1.226 . S
O41 Cd32 2.356 1_565 S
O41 C39 1.282 1_565 S
H42 C61 0.949 . S
H43 C62 0.950 . S
H44 C64 0.950 1_655 S
H45 C65 0.950 1_655 S
H46 C67 0.950 . S
H47 C70 0.950 . S
H48 C71 0.950 . S
H49 C73 0.943 1_655 S
H50 C74 0.953 . S
H51 C76 0.949 . S
H52 C77 0.950 . S
H53 C79 0.950 . S
H54 C80 0.950 . S
H55 C82 0.950 . S
H56 C85 0.950 1_655 S
H57 C86 0.950 1_655 S
H58 C88 0.951 . S
H59 C89 0.949 . S
C60 C61 1.376 . S
C60 C65 1.386 . S
C60 C66 1.483 . S
C61 H42 0.949 . S
C61 C60 1.376 . S
C61 C62 1.397 . S
C62 H43 0.950 . S
C62 C61 1.397 . S
C62 C63 1.391 . S
C63 C62 1.391 . S
C63 C64 1.405 . S
C64 H44 0.950 1_455 S
C64 C63 1.405 . S
C64 C65 1.367 . S
C65 H45 0.950 1_455 S
C65 C60 1.386 . S
C65 C64 1.367 . S
C66 C60 1.483 . S
C66 C67 1.382 . S
C66 C68 1.403 . S
C67 H46 0.950 . S
C67 C66 1.382 . S
C67 C83 1.411 . S
C68 C66 1.403 . S
C68 C69 1.489 . S
C68 C82 1.411 . S
C69 C68 1.489 . S
C69 C70 1.383 . S
C69 C74 1.379 1_455 S
C70 H47 0.950 . S
C70 C69 1.383 . S
C70 C71 1.395 . S
C71 H48 0.950 . S
C71 C70 1.395 . S
C71 C72 1.288 . S
C72 C71 1.288 . S
C72 C73 1.404 . S
C73 H49 0.943 1_455 S
C73 C72 1.404 . S
C73 C74 1.385 1_455 S
C74 H50 0.953 . S
C74 C69 1.379 1_655 S
C74 C73 1.385 1_655 S
C75 C76 1.376 1_455 S
C75 C80 1.386 . S
C75 C81 1.483 . S
C76 H51 0.949 . S
C76 C75 1.376 1_655 S
C76 C77 1.397 . S
C77 H52 0.950 . S
C77 C76 1.397 . S
C77 C78 1.391 1_655 S
C78 C77 1.391 1_455 S
C78 C79 1.405 . S
C79 H53 0.950 . S
C79 C78 1.405 . S
C79 C80 1.367 . S
C80 H54 0.950 . S
C80 C75 1.386 . S
C80 C79 1.367 . S
C81 C75 1.483 . S
C81 C82 1.382 . S
C81 C83 1.403 . S
C82 H55 0.950 . S
C82 C68 1.411 . S
C82 C81 1.382 . S
C83 C67 1.411 . S
C83 C81 1.403 . S
C83 C84 1.489 . S
C84 C83 1.489 . S
C84 C85 1.383 . S
C84 C89 1.382 . S
C85 H56 0.950 1_455 S
C85 C84 1.383 . S
C85 C86 1.395 . S
C86 H57 0.950 1_455 S
C86 C85 1.395 . S
C86 C87 1.288 . S
C87 C86 1.288 . S
C87 C88 1.392 . S
C88 H58 0.951 . S
C88 C87 1.392 . S
C88 C89 1.392 . S
C89 H59 0.949 . S
C89 C84 1.382 . S
C89 C88 1.392 . S
H90 C109 0.949 . S
H91 C110 0.950 . S
H92 C112 0.950 . S
H93 C113 0.955 . S
H94 C115 0.950 . S
H95 C118 0.950 . S
H96 C119 0.950 . S
H97 C121 0.951 . S
H98 C122 0.949 . S
H99 C124 0.949 . S
H100 C125 0.950 . S
H101 C127 0.950 . S
H102 C128 0.950 . S
H103 C130 0.950 . S
H104 C133 0.950 1_565 S
H105 C134 0.950 1_565 S
H106 C136 0.951 . S
H107 C137 0.949 . S
C108 C109 1.376 . S
C108 C113 1.377 1_545 S
C108 C114 1.483 . S
C109 H90 0.949 . S
C109 C108 1.376 . S
C109 C110 1.397 . S
C110 H91 0.950 . S
C110 C109 1.397 . S
C110 C111 1.391 . S
C111 C110 1.391 . S
C111 C112 1.405 1_545 S
C112 H92 0.950 . S
C112 C111 1.405 1_565 S
C112 C113 1.372 . S
C113 H93 0.955 . S
C113 C108 1.377 1_565 S
C113 C112 1.372 . S
C114 C108 1.483 . S
C114 C115 1.382 . S
C114 C116 1.403 . S
C115 H94 0.950 . S
C115 C114 1.382 . S
C115 C131 1.411 . S
C116 C114 1.403 . S
C116 C117 1.489 . S
C116 C130 1.411 . S
C117 C116 1.489 . S
C117 C118 1.383 . S
C117 C122 1.382 1_545 S
C118 H95 0.950 . S
C118 C117 1.383 . S
C118 C119 1.395 . S
C119 H96 0.950 . S
C119 C118 1.395 . S
C119 C120 1.288 . S
C120 C119 1.288 . S
C120 C121 1.392 1_545 S
C121 H97 0.951 . S
C121 C120 1.392 1_565 S
C121 C122 1.392 . S
C122 H98 0.949 . S
C122 C117 1.382 1_565 S
C122 C121 1.392 . S
C123 C124 1.376 1_545 S
C123 C128 1.386 . S
C123 C129 1.483 . S
C124 H99 0.949 . S
C124 C123 1.376 1_565 S
C124 C125 1.397 . S
C125 H100 0.950 . S
C125 C124 1.397 . S
C125 C126 1.391 1_565 S
C126 C125 1.391 1_545 S
C126 C127 1.405 . S
C127 H101 0.950 . S
C127 C126 1.405 . S
C127 C128 1.367 . S
C128 H102 0.950 . S
C128 C123 1.386 . S
C128 C127 1.367 . S
C129 C123 1.483 . S
C129 C130 1.382 . S
C129 C131 1.403 . S
C130 H103 0.950 . S
C130 C116 1.411 . S
C130 C129 1.382 . S
C131 C115 1.411 . S
C131 C129 1.403 . S
C131 C132 1.489 . S
C132 C131 1.489 . S
C132 C133 1.383 . S
C132 C137 1.382 . S
C133 H104 0.950 1_545 S
C133 C132 1.383 . S
C133 C134 1.395 . S
C134 H105 0.950 1_545 S
C134 C133 1.395 . S
C134 C135 1.288 . S
C135 C134 1.288 . S
C135 C136 1.392 . S
C136 H106 0.951 . S
C136 C135 1.392 . S
C136 C137 1.392 . S
C137 H107 0.949 . S
C137 C132 1.382 . S
C137 C136 1.392 . S
H138 C157 0.949 . S
H139 C158 0.950 . S
H140 C160 0.950 . S
H141 C161 0.950 . S
H142 C163 0.950 . S
H143 C166 0.950 . S
H144 C167 0.950 . S
H145 C169 0.951 . S
H146 C170 0.949 . S
H147 C172 0.949 . S
H148 C173 0.950 . S
H149 C175 0.950 . S
H150 C176 0.950 . S
H151 C178 0.950 . S
H152 C181 0.950 . S
H153 C182 0.950 . S
H154 C184 0.951 . S
H155 C185 0.949 . S
C156 C157 1.376 . S
C156 C161 1.386 . S
C156 C162 1.483 . S
C157 H138 0.949 . S
C157 C156 1.376 . S
C157 C158 1.397 . S
C158 H139 0.950 . S
C158 C157 1.397 . S
C158 C159 1.391 . S
C159 C158 1.391 . S
C159 C160 1.405 . S
C160 H140 0.950 . S
C160 C159 1.405 . S
C160 C161 1.367 . S
C161 H141 0.950 . S
C161 C156 1.386 . S
C161 C160 1.367 . S
C162 C156 1.483 . S
C162 C163 1.382 . S
C162 C164 1.403 . S
C163 H142 0.950 . S
C163 C162 1.382 . S
C163 C179 1.411 . S
C164 C162 1.403 . S
C164 C165 1.489 . S
C164 C178 1.411 . S
C165 C164 1.489 . S
C165 C166 1.383 . S
C165 C170 1.382 . S
C166 H143 0.950 . S
C166 C165 1.383 . S
C166 C167 1.395 . S
C167 H144 0.950 . S
C167 C166 1.395 . S
C167 C168 1.288 . S
C168 C167 1.288 . S
C168 C169 1.392 . S
C169 H145 0.951 . S
C169 C168 1.392 . S
C169 C170 1.392 . S
C170 H146 0.949 . S
C170 C165 1.382 . S
C170 C169 1.392 . S
C171 C172 1.376 . S
C171 C176 1.386 . S
C171 C177 1.483 . S
C172 H147 0.949 . S
C172 C171 1.376 . S
C172 C173 1.397 . S
C173 H148 0.950 . S
C173 C172 1.397 . S
C173 C174 1.391 . S
C174 C173 1.391 . S
C174 C175 1.405 . S
C175 H149 0.950 . S
C175 C174 1.405 . S
C175 C176 1.367 . S
C176 H150 0.950 . S
C176 C171 1.386 . S
C176 C175 1.367 . S
C177 C171 1.483 . S
C177 C178 1.382 . S
C177 C179 1.403 . S
C178 H151 0.950 . S
C178 C164 1.411 . S
C178 C177 1.382 . S
C179 C163 1.411 . S
C179 C177 1.403 . S
C179 C180 1.489 . S
C180 C179 1.489 . S
C180 C181 1.383 . S
C180 C185 1.382 . S
C181 H152 0.950 . S
C181 C180 1.383 . S
C181 C182 1.395 . S
C182 H153 0.950 . S
C182 C181 1.395 . S
C182 C183 1.288 . S
C183 C182 1.288 . S
C183 C184 1.392 . S
C184 H154 0.951 . S
C184 C183 1.392 . S
C184 C185 1.392 . S
C185 H155 0.949 . S
C185 C180 1.382 . S
C185 C184 1.392 . S
C186 C187 1.386 . S
C186 C188 1.383 . S
C186 H202 0.951 . S
C187 C186 1.386 . S
C187 C191 1.383 1_455 S
C188 C186 1.383 . S
C188 C189 1.402 . S
C188 H203 0.951 . S
C189 C188 1.402 . S
C189 C190 1.375 1_455 S
C189 C192 1.481 . S
C190 C189 1.375 1_655 S
C190 C191 1.367 . S
C190 H204 0.951 . S
C191 C187 1.383 1_655 S
C191 C190 1.367 . S
C191 H205 0.950 . S
C192 C189 1.481 . S
C192 C193 1.297 . S
C192 H206 0.950 1_455 S
C193 C192 1.297 . S
C193 C194 1.479 . S
C193 H207 0.950 . S
C194 C193 1.479 . S
C194 C195 1.375 . S
C194 C200 1.404 . S
C195 C194 1.375 . S
C195 C196 1.369 . S
C195 H208 0.950 . S
C196 C195 1.369 . S
C196 C197 1.392 . S
C196 H209 0.951 . S
C197 C196 1.392 . S
C197 C199 1.384 . S
H198 C200 0.949 1_655 S
C199 C197 1.384 . S
C199 C200 1.385 . S
C199 H201 0.950 1_455 S
C200 C194 1.404 . S
C200 H198 0.949 1_455 S
C200 C199 1.385 . S
H201 C199 0.950 1_655 S
H202 C186 0.951 . S
H203 C188 0.951 . S
H204 C190 0.951 . S
H205 C191 0.950 . S
H206 C192 0.950 1_655 S
H207 C193 0.950 . S
H208 C195 0.950 . S
H209 C196 0.951 . S
C210 C211 1.386 . S
C210 C212 1.383 . S
C210 H226 0.951 . S
C211 C210 1.386 . S
C211 C215 1.383 1_545 S
C212 C210 1.383 . S
C212 C213 1.402 . S
C212 H227 0.951 . S
C213 C212 1.402 . S
C213 C214 1.375 1_545 S
C213 C216 1.481 . S
C214 C213 1.375 1_565 S
C214 C215 1.367 . S
C214 H228 0.951 . S
C215 C211 1.383 1_565 S
C215 C214 1.367 . S
C215 H229 0.950 . S
C216 C213 1.481 . S
C216 C217 1.297 . S
C216 H230 0.950 1_545 S
C217 C216 1.297 . S
C217 C218 1.479 . S
C217 H231 0.950 . S
C218 C217 1.479 . S
C218 C219 1.375 . S
C218 C224 1.404 1_545 S
C219 C218 1.375 . S
C219 C220 1.369 . S
C219 H232 0.950 . S
C220 C219 1.369 . S
C220 C221 1.392 . S
C220 H233 0.951 . S
C221 C220 1.392 . S
C221 C223 1.384 1_545 S
H222 C224 0.949 . S
C223 C221 1.384 1_565 S
C223 C224 1.385 . S
C223 H225 0.950 . S
C224 C218 1.404 1_565 S
C224 H222 0.949 . S
C224 C223 1.385 . S
H225 C223 0.950 . S
H226 C210 0.951 . S
H227 C212 0.951 . S
H228 C214 0.951 . S
H229 C215 0.950 . S
H230 C216 0.950 1_565 S
H231 C217 0.950 . S
H232 C219 0.950 . S
H233 C220 0.951 . S
C234 C235 1.386 . S
C234 C236 1.383 . S
C234 H250 0.951 . S
C235 C234 1.386 . S
C235 C239 1.383 . S
C236 C234 1.383 . S
C236 C237 1.402 . S
C236 H251 0.951 . S
C237 C236 1.402 . S
C237 C238 1.375 . S
C237 C240 1.481 . S
C238 C237 1.375 . S
C238 C239 1.367 . S
C238 H252 0.951 . S
C239 C235 1.383 . S
C239 C238 1.367 . S
C239 H253 0.950 . S
C240 C237 1.481 . S
C240 C241 1.297 . S
C240 H254 0.950 . S
C241 C240 1.297 . S
C241 C242 1.479 . S
C241 H255 0.950 . S
C242 C241 1.479 . S
C242 C243 1.375 . S
C242 C248 1.404 . S
C243 C242 1.375 . S
C243 C244 1.369 . S
C243 H256 0.950 . S
C244 C243 1.369 . S
C244 C245 1.392 . S
C244 H257 0.951 . S
C245 C244 1.392 . S
C245 C247 1.384 . S
H246 C248 0.949 . S
C247 C245 1.384 . S
C247 C248 1.385 . S
C247 H249 0.950 . S
C248 C242 1.404 . S
C248 H246 0.949 . S
C248 C247 1.385 . S
H249 C247 0.950 . S
H250 C234 0.951 . S
H251 C236 0.951 . S
H252 C238 0.951 . S
H253 C239 0.950 . S
H254 C240 0.950 . S
H255 C241 0.950 . S
H256 C243 0.950 . S
H257 C244 0.951 . S
C258 C259 1.386 . S
C258 C260 1.383 . S
C258 H274 0.951 . S
C259 C258 1.386 . S
C259 C263 1.383 . S
C260 C258 1.383 . S
C260 C261 1.402 . S
C260 H275 0.951 . S
C261 C260 1.402 . S
C261 C262 1.375 . S
C261 C264 1.481 . S
C262 C261 1.375 . S
C262 C263 1.367 . S
C262 H276 0.951 . S
C263 C259 1.383 . S
C263 C262 1.367 . S
C263 H277 0.950 . S
C264 C261 1.481 . S
C264 C265 1.297 . S
C264 H278 0.950 . S
C265 C264 1.297 . S
C265 C266 1.479 . S
C265 H279 0.950 . S
C266 C265 1.479 . S
C266 C267 1.375 . S
C266 C272 1.404 . S
C267 C266 1.375 . S
C267 C268 1.369 . S
C267 H280 0.950 . S
C268 C267 1.369 . S
C268 C269 1.392 . S
C268 H281 0.951 . S
C269 C268 1.392 . S
C269 C271 1.384 . S
H270 C272 0.949 . S
C271 C269 1.384 . S
C271 C272 1.385 . S
C271 H273 0.950 . S
C272 C266 1.404 . S
C272 H270 0.949 . S
C272 C271 1.385 . S
H273 C271 0.950 . S
H274 C258 0.951 . S
H275 C260 0.951 . S
H276 C262 0.951 . S
H277 C263 0.950 . S
H278 C264 0.950 . S
H279 C265 0.950 . S
H280 C267 0.950 . S
H281 C268 0.951 . S
C282 C283 1.386 . S
C282 C284 1.383 . S
C282 H298 0.951 . S
C283 C282 1.386 . S
C283 C287 1.383 . S
C284 C282 1.383 . S
C284 C285 1.402 . S
C284 H299 0.951 . S
C285 C284 1.402 . S
C285 C286 1.375 . S
C285 C288 1.481 . S
C286 C285 1.375 . S
C286 C287 1.367 . S
C286 H300 0.951 . S
C287 C283 1.383 . S
C287 C286 1.367 . S
C287 H301 0.950 . S
C288 C285 1.481 . S
C288 C289 1.297 . S
C288 H302 0.950 . S
C289 C288 1.297 . S
C289 C290 1.479 . S
C289 H303 0.950 . S
C290 C289 1.479 . S
C290 C291 1.375 . S
C290 C296 1.404 . S
C291 C290 1.375 . S
C291 C292 1.369 . S
C291 H304 0.950 . S
C292 C291 1.369 . S
C292 C293 1.392 . S
C292 H305 0.951 . S
C293 C292 1.392 . S
C293 C295 1.384 . S
H294 C296 0.949 . S
C295 C293 1.384 . S
C295 C296 1.385 . S
C295 H297 0.950 . S
C296 C290 1.404 . S
C296 H294 0.949 . S
C296 C295 1.385 . S
H297 C295 0.950 . S
H298 C282 0.951 . S
H299 C284 0.951 . S
H300 C286 0.951 . S
H301 C287 0.950 . S
H302 C288 0.950 . S
H303 C289 0.950 . S
H304 C291 0.950 . S
H305 C292 0.951 . S
C306 C307 1.386 . S
C306 C308 1.383 . S
C306 H322 0.951 . S
C307 C306 1.386 . S
C307 C311 1.383 . S
C308 C306 1.383 . S
C308 C309 1.402 . S
C308 H323 0.951 . S
C309 C308 1.402 . S
C309 C310 1.375 . S
C309 C312 1.481 . S
C310 C309 1.375 . S
C310 C311 1.367 . S
C310 H324 0.951 . S
C311 C307 1.383 . S
C311 C310 1.367 . S
C311 H325 0.950 . S
C312 C309 1.481 . S
C312 C313 1.297 . S
C312 H326 0.950 . S
C313 C312 1.297 . S
C313 C314 1.479 . S
C313 H327 0.950 . S
C314 C313 1.479 . S
C314 C315 1.375 . S
C314 C320 1.404 . S
C315 C314 1.375 . S
C315 C316 1.369 . S
C315 H328 0.950 . S
C316 C315 1.369 . S
C316 C317 1.392 . S
C316 H329 0.951 . S
C317 C316 1.392 . S
C317 C319 1.384 . S
H318 C320 0.949 . S
C319 C317 1.384 . S
C319 C320 1.385 . S
C319 H321 0.950 . S
C320 C314 1.404 . S
C320 H318 0.949 . S
C320 C319 1.385 . S
H321 C319 0.950 . S
H322 C306 0.951 . S
H323 C308 0.951 . S
H324 C310 0.951 . S
H325 C311 0.950 . S
H326 C312 0.950 . S
H327 C313 0.950 . S
H328 C315 0.950 . S
H329 C316 0.951 . S
C330 C331 1.386 . S
C330 C332 1.383 . S
C330 H346 0.951 1_545 S
C331 C330 1.386 . S
C331 C335 1.383 . S
C332 C330 1.383 . S
C332 C333 1.402 . S
C332 H347 0.951 1_545 S
C333 C332 1.402 . S
C333 C334 1.375 . S
C333 C336 1.481 . S
C334 C333 1.375 . S
C334 C335 1.367 . S
C334 H348 0.951 . S
C335 C331 1.383 . S
C335 C334 1.367 . S
C335 H349 0.950 . S
C336 C333 1.481 . S
C336 C337 1.297 . S
C336 H350 0.950 . S
C337 C336 1.297 . S
C337 C338 1.479 . S
C337 H351 0.950 1_545 S
C338 C337 1.479 . S
C338 C339 1.375 1_545 S
C338 C344 1.404 . S
C339 C338 1.375 1_565 S
C339 C340 1.374 . S
C339 H352 0.950 . S
C340 C339 1.374 . S
C340 C341 1.381 1_565 S
C340 H353 0.956 . S
C341 C340 1.381 1_545 S
C341 C343 1.384 . S
H342 C344 0.949 . S
C343 C341 1.384 . S
C343 C344 1.385 . S
C343 H345 0.950 . S
C344 C338 1.404 . S
C344 H342 0.949 . S
C344 C343 1.385 . S
H345 C343 0.950 . S
H346 C330 0.951 1_565 S
H347 C332 0.951 1_565 S
H348 C334 0.951 . S
H349 C335 0.950 . S
H350 C336 0.950 . S
H351 C337 0.950 1_565 S
H352 C339 0.950 . S
H353 C340 0.956 . S
C354 C355 1.386 1_556 S
C354 C356 1.383 . S
C354 H370 0.951 . S
C355 C354 1.386 1_554 S
C355 C359 1.383 . S
C356 C354 1.383 . S
C356 C357 1.402 . S
C356 H371 0.951 . S
C357 C356 1.402 . S
C357 C358 1.375 1_556 S
C357 C360 1.481 . S
C358 C357 1.375 1_554 S
C358 C359 1.367 . S
C358 H372 0.951 . S
C359 C355 1.383 . S
C359 C358 1.367 . S
C359 H373 0.950 . S
C360 C357 1.481 . S
C360 C361 1.297 . S
C360 H374 0.950 . S
C361 C360 1.297 . S
C361 C362 1.479 . S
C361 H375 0.950 . S
C362 C361 1.479 . S
C362 C363 1.375 . S
C362 C368 1.404 . S
C363 C362 1.375 . S
C363 C364 1.369 . S
C363 H376 0.950 . S
C364 C363 1.369 . S
C364 C365 1.392 . S
C364 H377 0.951 . S
C365 C364 1.392 . S
C365 C367 1.384 . S
H366 C368 0.949 . S
C367 C365 1.384 . S
C367 C368 1.385 . S
C367 H369 0.950 . S
C368 C362 1.404 . S
C368 H366 0.949 . S
C368 C367 1.385 . S
H369 C367 0.950 . S
H370 C354 0.951 . S
H371 C356 0.951 . S
H372 C358 0.951 . S
H373 C359 0.950 . S
H374 C360 0.950 . S
H375 C361 0.950 . S
H376 C363 0.950 . S
H377 C364 0.951 . S
C378 C379 1.386 . S
C378 C380 1.383 . S
C378 H394 0.951 . S
C379 C378 1.386 . S
C379 C383 1.383 . S
C380 C378 1.383 . S
C380 C381 1.402 . S
C380 H395 0.951 . S
C381 C380 1.402 . S
C381 C382 1.375 . S
C381 C384 1.481 . S
C382 C381 1.375 . S
C382 C383 1.367 . S
C382 H396 0.951 . S
C383 C379 1.383 . S
C383 C382 1.367 . S
C383 H397 0.950 . S
C384 C381 1.481 . S
C384 C385 1.297 . S
C384 H398 0.950 . S
C385 C384 1.297 . S
C385 C386 1.479 . S
C385 H399 0.950 . S
C386 C385 1.479 . S
C386 C387 1.375 . S
C386 C392 1.404 . S
C387 C386 1.375 . S
C387 C388 1.369 . S
C387 H400 0.950 . S
C388 C387 1.369 . S
C388 C389 1.392 . S
C388 H401 0.951 . S
C389 C388 1.392 . S
C389 C391 1.384 . S
H390 C392 0.949 . S
C391 C389 1.384 . S
C391 C392 1.385 . S
C391 H393 0.950 . S
C392 C386 1.404 . S
C392 H390 0.949 . S
C392 C391 1.385 . S
H393 C391 0.950 . S
H394 C378 0.951 . S
H395 C380 0.951 . S
H396 C382 0.951 . S
H397 C383 0.950 . S
H398 C384 0.950 . S
H399 C385 0.950 . S
H400 C387 0.950 . S
H401 C388 0.951 . S
C402 C403 1.386 . S
C402 C404 1.383 . S
C402 H418 0.951 . S
C403 C402 1.386 . S
C403 C407 1.383 . S
C404 C402 1.383 . S
C404 C405 1.402 . S
C404 H419 0.951 . S
C405 C404 1.402 . S
C405 C406 1.375 . S
C405 C408 1.481 . S
C406 C405 1.375 . S
C406 C407 1.367 . S
C406 H420 0.951 . S
C407 C403 1.383 . S
C407 C406 1.367 . S
C407 H421 0.950 . S
C408 C405 1.481 . S
C408 C409 1.297 . S
C408 H422 0.950 . S
C409 C408 1.297 . S
C409 C410 1.479 . S
C409 H423 0.950 . S
C410 C409 1.479 . S
C410 C411 1.375 . S
C410 C416 1.404 . S
C411 C410 1.375 . S
C411 C412 1.369 . S
C411 H424 0.950 . S
C412 C411 1.369 . S
C412 C413 1.392 . S
C412 H425 0.951 . S
C413 C412 1.392 . S
C413 C415 1.384 . S
H414 C416 0.949 . S
C415 C413 1.384 . S
C415 C416 1.385 . S
C415 H417 0.950 . S
C416 C410 1.404 . S
C416 H414 0.949 . S
C416 C415 1.385 . S
H417 C415 0.950 . S
H418 C402 0.951 . S
H419 C404 0.951 . S
H420 C406 0.951 . S
H421 C407 0.950 . S
H422 C408 0.950 . S
H423 C409 0.950 . S
H424 C411 0.950 . S
H425 C412 0.951 . S
C426 C427 1.386 . S
C426 C428 1.383 1_554 S
C426 H442 0.951 . S
C427 C426 1.386 . S
C427 C431 1.383 . S
C428 C426 1.383 1_556 S
C428 C429 1.402 . S
C428 H443 0.951 . S
C429 C428 1.402 . S
C429 C430 1.375 . S
C429 C432 1.481 . S
C430 C429 1.375 . S
C430 C431 1.367 1_556 S
C430 H444 0.951 . S
C431 C427 1.383 . S
C431 C430 1.367 1_554 S
C431 H445 0.950 . S
C432 C429 1.481 . S
C432 C433 1.297 . S
C432 H446 0.950 . S
C433 C432 1.297 . S
C433 C434 1.479 . S
C433 H447 0.950 . S
C434 C433 1.479 . S
C434 C435 1.375 . S
C434 C440 1.404 . S
C435 C434 1.375 . S
C435 C436 1.369 . S
C435 H448 0.950 . S
C436 C435 1.369 . S
C436 C437 1.392 . S
C436 H449 0.951 . S
C437 C436 1.392 . S
C437 C439 1.384 . S
H438 C440 0.949 . S
C439 C437 1.384 . S
C439 C440 1.385 . S
C439 H441 0.950 . S
C440 C434 1.404 . S
C440 H438 0.949 . S
C440 C439 1.385 . S
H441 C439 0.950 . S
H442 C426 0.951 . S
H443 C428 0.951 . S
H444 C430 0.951 . S
H445 C431 0.950 . S
H446 C432 0.950 . S
H447 C433 0.950 . S
H448 C435 0.950 . S
H449 C436 0.951 . S
C450 C451 1.386 . S
C450 C452 1.383 . S
C450 H466 0.951 . S
C451 C450 1.386 . S
C451 C455 1.383 . S
C452 C450 1.383 . S
C452 C453 1.402 . S
C452 H467 0.951 . S
C453 C452 1.402 . S
C453 C454 1.375 . S
C453 C456 1.481 . S
C454 C453 1.375 . S
C454 C455 1.367 . S
C454 H468 0.951 . S
C455 C451 1.383 . S
C455 C454 1.367 . S
C455 H469 0.950 . S
C456 C453 1.481 . S
C456 C457 1.297 . S
C456 H470 0.950 . S
C457 C456 1.297 . S
C457 C458 1.479 . S
C457 H471 0.950 1_455 S
C458 C457 1.479 . S
C458 C459 1.375 . S
C458 C464 1.404 . S
C459 C458 1.375 . S
C459 C460 1.369 . S
C459 H472 0.950 1_455 S
C460 C459 1.369 . S
C460 C461 1.392 . S
C460 H473 0.951 . S
C461 C460 1.392 . S
C461 C463 1.384 . S
H462 C464 0.949 . S
C463 C461 1.384 . S
C463 C464 1.385 . S
C463 H465 0.950 . S
C464 C458 1.404 . S
C464 H462 0.949 . S
C464 C463 1.385 . S
H465 C463 0.950 . S
H466 C450 0.951 . S
H467 C452 0.951 . S
H468 C454 0.951 . S
H469 C455 0.950 . S
H470 C456 0.950 . S
H471 C457 0.950 1_655 S
H472 C459 0.950 1_655 S
H473 C460 0.951 . S
C197 C63 1.452 . S
C187 C0 1.445 . S
C211 C25 1.502 . S
C221 C111 1.500 . S
C235 C33 1.523 . S
C245 C183 1.512 . S
C259 C11 1.458 . S
C269 C87 1.431 . S
C293 C135 1.499 . S
C283 C14 1.479 . S
C307 C37 1.530 . S
C317 C159 1.521 . S
C341 C120 1.466 . S
C331 C28 1.476 . S
C355 C9 1.516 . S
C365 C174 1.524 . S
C389 C78 1.562 . S
C379 C19 1.554 . S
C413 C126 1.503 . S
C403 C39 1.497 . S
C437 C168 1.528 . S
C427 C5 1.524 . S
C451 C23 1.557 . S
C461 C72 1.540 . S
