# Generated by pormake.
# Topology ssb, (4,4)-cn, num edge types: 1
# Building blocks:
#     Node 0, Type 0, BuildingBlock: MUDLON_clean_linker_0, # of connection points: 4
#     Node 1, Type 0, BuildingBlock: MUDLON_clean_linker_0, # of connection points: 4
#     Node 2, Type 0, BuildingBlock: MUDLON_clean_linker_0, # of connection points: 4
#     Node 3, Type 0, BuildingBlock: MUDLON_clean_linker_0, # of connection points: 4
#     Node 4, Type 0, BuildingBlock: MUDLON_clean_linker_0, # of connection points: 4
#     Node 5, Type 0, BuildingBlock: MUDLON_clean_linker_0, # of connection points: 4
#     Node 6, Type 0, BuildingBlock: MUDLON_clean_linker_0, # of connection points: 4
#     Node 7, Type 0, BuildingBlock: MUDLON_clean_linker_0, # of connection points: 4
#     Node 8, Type 1, BuildingBlock: NAWXER_clean_sbu_0, # of connection points: 4
#     Node 9, Type 1, BuildingBlock: NAWXER_clean_sbu_0, # of connection points: 4
#     Node 10, Type 1, BuildingBlock: NAWXER_clean_sbu_0, # of connection points: 4
#     Node 11, Type 1, BuildingBlock: NAWXER_clean_sbu_0, # of connection points: 4
#     Node 12, Type 1, BuildingBlock: NAWXER_clean_sbu_0, # of connection points: 4
#     Node 13, Type 1, BuildingBlock: NAWXER_clean_sbu_0, # of connection points: 4
#     Node 14, Type 1, BuildingBlock: NAWXER_clean_sbu_0, # of connection points: 4
#     Node 15, Type 1, BuildingBlock: NAWXER_clean_sbu_0, # of connection points: 4
#     Edge 16, Type (0, 1), BuildingBlock: KIFKEQ_clean_linker_1, # of connection points: 2
#     Edge 17, Type (0, 1), BuildingBlock: KIFKEQ_clean_linker_1, # of connection points: 2
#     Edge 18, Type (0, 1), BuildingBlock: KIFKEQ_clean_linker_1, # of connection points: 2
#     Edge 19, Type (0, 1), BuildingBlock: KIFKEQ_clean_linker_1, # of connection points: 2
#     Edge 20, Type (0, 1), BuildingBlock: KIFKEQ_clean_linker_1, # of connection points: 2
#     Edge 21, Type (0, 1), BuildingBlock: KIFKEQ_clean_linker_1, # of connection points: 2
#     Edge 22, Type (0, 1), BuildingBlock: KIFKEQ_clean_linker_1, # of connection points: 2
#     Edge 23, Type (0, 1), BuildingBlock: KIFKEQ_clean_linker_1, # of connection points: 2
#     Edge 24, Type (0, 1), BuildingBlock: KIFKEQ_clean_linker_1, # of connection points: 2
#     Edge 25, Type (0, 1), BuildingBlock: KIFKEQ_clean_linker_1, # of connection points: 2
#     Edge 26, Type (0, 1), BuildingBlock: KIFKEQ_clean_linker_1, # of connection points: 2
#     Edge 27, Type (0, 1), BuildingBlock: KIFKEQ_clean_linker_1, # of connection points: 2
#     Edge 28, Type (0, 1), BuildingBlock: KIFKEQ_clean_linker_1, # of connection points: 2
#     Edge 29, Type (0, 1), BuildingBlock: KIFKEQ_clean_linker_1, # of connection points: 2
#     Edge 30, Type (0, 1), BuildingBlock: KIFKEQ_clean_linker_1, # of connection points: 2
#     Edge 31, Type (0, 1), BuildingBlock: KIFKEQ_clean_linker_1, # of connection points: 2
#     Edge 32, Type (0, 1), BuildingBlock: KIFKEQ_clean_linker_1, # of connection points: 2
#     Edge 33, Type (0, 1), BuildingBlock: KIFKEQ_clean_linker_1, # of connection points: 2
#     Edge 34, Type (0, 1), BuildingBlock: KIFKEQ_clean_linker_1, # of connection points: 2
#     Edge 35, Type (0, 1), BuildingBlock: KIFKEQ_clean_linker_1, # of connection points: 2
#     Edge 36, Type (0, 1), BuildingBlock: KIFKEQ_clean_linker_1, # of connection points: 2
#     Edge 37, Type (0, 1), BuildingBlock: KIFKEQ_clean_linker_1, # of connection points: 2
#     Edge 38, Type (0, 1), BuildingBlock: KIFKEQ_clean_linker_1, # of connection points: 2
#     Edge 39, Type (0, 1), BuildingBlock: KIFKEQ_clean_linker_1, # of connection points: 2
#     Edge 40, Type (0, 1), BuildingBlock: KIFKEQ_clean_linker_1, # of connection points: 2
#     Edge 41, Type (0, 1), BuildingBlock: KIFKEQ_clean_linker_1, # of connection points: 2
#     Edge 42, Type (0, 1), BuildingBlock: KIFKEQ_clean_linker_1, # of connection points: 2
#     Edge 43, Type (0, 1), BuildingBlock: KIFKEQ_clean_linker_1, # of connection points: 2
#     Edge 44, Type (0, 1), BuildingBlock: KIFKEQ_clean_linker_1, # of connection points: 2
#     Edge 45, Type (0, 1), BuildingBlock: KIFKEQ_clean_linker_1, # of connection points: 2
#     Edge 46, Type (0, 1), BuildingBlock: KIFKEQ_clean_linker_1, # of connection points: 2
#     Edge 47, Type (0, 1), BuildingBlock: KIFKEQ_clean_linker_1, # of connection points: 2
# Relax obj value: 0.003
# Max RMSD: 0.052
# Mean RMSD: 0.027
data_MOF--net-ssb--node1-NAWXER_clean_sbu_0--node2-MUDLON_clean_linker_0--edge1-KIFKEQ_clean_linker_1
_symmetry_space_group_name_H-M    P1
_symmetry_Int_Tables_number       1
_symmetry_cell_setting            triclinic
loop_
_symmetry_equiv_pos_as_xyz
'x, y, z'
_cell_length_a     61.383942
_cell_length_b     61.311776
_cell_length_c     53.499615
_cell_angle_alpha  90.13391
_cell_angle_beta   89.986541
_cell_angle_gamma 89.967731
loop_
_atom_site_label
_atom_site_type_symbol
_atom_site_fract_x
_atom_site_fract_y
_atom_site_fract_z
_atom_type_partial_charge
H0 H 0.26433 0.31222 0.16068 0.0
N1 N 0.29562 0.29733 0.19023 0.0
H2 H 0.26217 0.3483 0.14157 0.0
H3 H 0.31974 0.33312 0.20401 0.0
H4 H 0.31709 0.36936 0.18606 0.0
H5 H 0.33578 0.29733 0.21265 0.0
H6 H 0.37049 0.29185 0.19097 0.0
H7 H 0.30109 0.27938 0.14569 0.0
H8 H 0.33568 0.27348 0.12401 0.0
H9 H 0.27193 0.26209 0.19882 0.0
H10 H 0.30404 0.3153 0.23653 0.0
H11 H 0.25878 0.24842 0.23899 0.0
H12 H 0.29026 0.30247 0.27638 0.0
H13 H 0.1973 0.23254 0.34683 0.0
H14 H 0.1624 0.24696 0.36035 0.0
H15 H 0.19468 0.30383 0.39069 0.0
H16 H 0.22991 0.28866 0.37783 0.0
H17 H 0.252 0.24025 0.40151 0.0
H18 H 0.25467 0.2041 0.42049 0.0
H19 H 0.23259 0.17491 0.35139 0.0
H20 H 0.2297 0.21117 0.33272 0.0
H21 H 0.21774 0.24615 0.3105 0.0
H22 H 0.23292 0.25701 0.27041 0.0
H23 H 0.29324 0.27472 0.30693 0.0
N24 N 0.23748 0.25024 0.35636 0.0
H25 H 0.2774 0.2647 0.34728 0.0
C26 C 0.29193 0.3199 0.18396 0.0
C27 C 0.27548 0.32484 0.16678 0.0
C28 C 0.27431 0.3455 0.15589 0.0
C29 C 0.28961 0.36174 0.1621 0.0
C30 C 0.30529 0.35715 0.18051 0.0
C31 C 0.30656 0.33643 0.19119 0.0
C32 C 0.31584 0.28891 0.18061 0.0
C33 C 0.33562 0.29155 0.19354 0.0
C34 C 0.35546 0.28841 0.18113 0.0
C35 C 0.35574 0.28267 0.15568 0.0
C36 C 0.33593 0.27832 0.14349 0.0
C37 C 0.3162 0.28142 0.15589 0.0
C38 C 0.28873 0.28981 0.21447 0.0
C39 C 0.27604 0.27087 0.21576 0.0
C40 C 0.26843 0.26319 0.23872 0.0
C41 C 0.27329 0.27442 0.26099 0.0
C42 C 0.28638 0.29323 0.25969 0.0
C43 C 0.29414 0.30078 0.23672 0.0
C44 C 0.21634 0.25942 0.36169 0.0
C45 C 0.19696 0.24816 0.35623 0.0
C46 C 0.17688 0.2566 0.36377 0.0
C47 C 0.17567 0.27656 0.37673 0.0
C48 C 0.19503 0.28826 0.38111 0.0
C49 C 0.21514 0.27971 0.37368 0.0
C50 C 0.24081 0.22846 0.36577 0.0
C51 C 0.24804 0.226 0.39041 0.0
C52 C 0.24957 0.20533 0.40116 0.0
C53 C 0.24383 0.1866 0.38744 0.0
C54 C 0.23691 0.18903 0.36253 0.0
C55 C 0.23544 0.20976 0.35175 0.0
C56 C 0.24639 0.25494 0.33203 0.0
C57 C 0.23419 0.25239 0.30996 0.0
C58 C 0.24302 0.25844 0.28691 0.0
C59 C 0.2643 0.26691 0.28537 0.0
C60 C 0.27666 0.26872 0.30743 0.0
C61 C 0.26773 0.26284 0.33047 0.0
H62 H 0.72626 0.33897 0.21048 0.0
N63 N 0.72589 0.2979 0.19497 0.0
H64 H 0.74078 0.37075 0.18834 0.0
H65 H 0.7499 0.29686 0.15188 0.0
H66 H 0.76463 0.32853 0.12969 0.0
H67 H 0.72667 0.26423 0.16121 0.0
H68 H 0.6959 0.25183 0.13543 0.0
H69 H 0.68487 0.31087 0.19778 0.0
H70 H 0.65412 0.29862 0.17226 0.0
H71 H 0.71783 0.29172 0.24307 0.0
H72 H 0.76149 0.27277 0.18386 0.0
H73 H 0.73797 0.26878 0.27244 0.0
H74 H 0.78225 0.25041 0.21313 0.0
H75 H 0.80565 0.22328 0.3597 0.0
H76 H 0.83643 0.23306 0.38615 0.0
H77 H 0.88078 0.21109 0.32857 0.0
H78 H 0.84968 0.20063 0.30251 0.0
H79 H 0.81393 0.15972 0.31504 0.0
H80 H 0.79379 0.13249 0.33896 0.0
H81 H 0.75048 0.18288 0.36611 0.0
H82 H 0.771 0.21004 0.34233 0.0
H83 H 0.7908 0.24307 0.32401 0.0
H84 H 0.77173 0.2665 0.2944 0.0
H85 H 0.77994 0.21756 0.23683 0.0
N86 N 0.80769 0.20244 0.3143 0.0
H87 H 0.7997 0.19459 0.26648 0.0
C88 C 0.73705 0.31564 0.18293 0.0
C89 C 0.73496 0.33659 0.19308 0.0
C90 C 0.74316 0.35467 0.18036 0.0
C91 C 0.75373 0.3521 0.15723 0.0
C92 C 0.75672 0.33096 0.14758 0.0
C93 C 0.74831 0.31285 0.16025 0.0
C94 C 0.70795 0.28852 0.18139 0.0
C95 C 0.71082 0.27157 0.16394 0.0
C96 C 0.69324 0.26446 0.14928 0.0
C97 C 0.67268 0.27441 0.15169 0.0
C98 C 0.66983 0.29085 0.16976 0.0
C99 C 0.68729 0.29778 0.18443 0.0
C100 C 0.73817 0.28402 0.21141 0.0
C101 C 0.73186 0.28266 0.2365 0.0
C102 C 0.74352 0.26969 0.25326 0.0
C103 C 0.76186 0.25782 0.24524 0.0
C104 C 0.76809 0.25913 0.21993 0.0
C105 C 0.7563 0.27205 0.20314 0.0
C106 C 0.82539 0.21106 0.32907 0.0
C107 C 0.82195 0.22076 0.3526 0.0
C108 C 0.83965 0.22646 0.36773 0.0
C109 C 0.86116 0.2227 0.35964 0.0
C110 C 0.86448 0.21383 0.33564 0.0
C111 C 0.84676 0.20805 0.3206 0.0
C112 C 0.79405 0.18681 0.32689 0.0
C113 C 0.7999 0.16478 0.32589 0.0
C114 C 0.78825 0.14926 0.33945 0.0
C115 C 0.77043 0.15549 0.35441 0.0
C116 C 0.76421 0.17758 0.35492 0.0
C117 C 0.77589 0.19312 0.34125 0.0
C118 C 0.79687 0.21709 0.29733 0.0
C119 C 0.78871 0.23746 0.30499 0.0
C120 C 0.7776 0.25079 0.28803 0.0
C121 C 0.77424 0.24395 0.26316 0.0
C122 C 0.7825 0.22356 0.25566 0.0
C123 C 0.79369 0.21034 0.27258 0.0
H124 H 0.81386 0.79116 0.36997 0.0
N125 N 0.81195 0.80438 0.32112 0.0
H126 H 0.84415 0.77264 0.39005 0.0
H127 H 0.84697 0.78754 0.29904 0.0
H128 H 0.87707 0.7678 0.31874 0.0
H129 H 0.83432 0.84132 0.32113 0.0
H130 H 0.82884 0.87325 0.34769 0.0
H131 H 0.77717 0.81128 0.35271 0.0
H132 H 0.77083 0.84353 0.37836 0.0
H133 H 0.78695 0.77182 0.34138 0.0
H134 H 0.79776 0.80953 0.27466 0.0
H135 H 0.76085 0.74902 0.3191 0.0
H136 H 0.7709 0.78734 0.25234 0.0
H137 H 0.71038 0.66551 0.24421 0.0
H138 H 0.71888 0.63414 0.21726 0.0
H139 H 0.73397 0.67808 0.15675 0.0
H140 H 0.72527 0.70895 0.18321 0.0
H141 H 0.70738 0.7414 0.19755 0.0
H142 H 0.67743 0.75081 0.16946 0.0
H143 H 0.63604 0.70432 0.20693 0.0
H144 H 0.66634 0.69445 0.23458 0.0
H145 H 0.7026 0.72163 0.27677 0.0
H146 H 0.72583 0.74716 0.29976 0.0
H147 H 0.76862 0.75133 0.23577 0.0
N148 N 0.70751 0.70712 0.23043 0.0
H149 H 0.74512 0.72672 0.21285 0.0
C150 C 0.82845 0.79123 0.33303 0.0
C151 C 0.82754 0.78608 0.35861 0.0
C152 C 0.84482 0.77516 0.37004 0.0
C153 C 0.86324 0.76885 0.35609 0.0
C154 C 0.8634 0.77282 0.33018 0.0
C155 C 0.84621 0.78399 0.31884 0.0
C156 C 0.80617 0.82396 0.33467 0.0
C157 C 0.82026 0.84189 0.33335 0.0
C158 C 0.81702 0.86017 0.34853 0.0
C159 C 0.79939 0.86106 0.36533 0.0
C160 C 0.78481 0.84333 0.36601 0.0
C161 C 0.78824 0.8249 0.35103 0.0
C162 C 0.79453 0.79227 0.30951 0.0
C163 C 0.78348 0.77541 0.32201 0.0
C164 C 0.76839 0.76244 0.30924 0.0
C165 C 0.7639 0.76617 0.2838 0.0
C166 C 0.7743 0.78368 0.27174 0.0
C167 C 0.78948 0.79653 0.28449 0.0
C168 C 0.71717 0.68965 0.216 0.0
C169 C 0.71613 0.66833 0.22535 0.0
C170 C 0.72093 0.65046 0.20994 0.0
C171 C 0.72674 0.6537 0.1848 0.0
C172 C 0.72916 0.67509 0.17593 0.0
C173 C 0.7244 0.69285 0.19128 0.0
C174 C 0.68913 0.71697 0.21804 0.0
C175 C 0.69178 0.73355 0.20014 0.0
C176 C 0.6747 0.73886 0.18402 0.0
C177 C 0.65459 0.72807 0.18591 0.0
C178 C 0.65139 0.71289 0.20515 0.0
C179 C 0.6686 0.70731 0.22097 0.0
C180 C 0.72205 0.72194 0.2432 0.0
C181 C 0.71701 0.7281 0.26777 0.0
C182 C 0.73036 0.74262 0.28089 0.0
C183 C 0.74916 0.75131 0.26966 0.0
C184 C 0.75411 0.74524 0.24492 0.0
C185 C 0.74068 0.73084 0.23178 0.0
H186 H 0.30452 0.75055 0.14454 0.0
N187 N 0.30311 0.72735 0.18829 0.0
H188 H 0.33711 0.76481 0.12403 0.0
H189 H 0.34391 0.72573 0.20477 0.0
H190 H 0.37672 0.73991 0.18425 0.0
H191 H 0.31034 0.68493 0.19302 0.0
H192 H 0.29459 0.65518 0.1683 0.0
H193 H 0.27159 0.73154 0.15252 0.0
H194 H 0.25604 0.70187 0.12719 0.0
H195 H 0.29077 0.77014 0.18108 0.0
H196 H 0.28441 0.71532 0.23087 0.0
H197 H 0.27071 0.79283 0.21011 0.0
H198 H 0.26253 0.73747 0.25929 0.0
H199 H 0.21414 0.86702 0.30586 0.0
H200 H 0.23251 0.89547 0.32984 0.0
H201 H 0.27733 0.84741 0.35901 0.0
H202 H 0.2583 0.81908 0.3358 0.0
H203 H 0.22339 0.80349 0.35211 0.0
H204 H 0.19257 0.79529 0.37935 0.0
H205 H 0.14838 0.81917 0.32274 0.0
H206 H 0.1795 0.82797 0.29599 0.0
H207 H 0.22075 0.82677 0.25766 0.0
H208 H 0.23819 0.80236 0.22764 0.0
H209 H 0.26409 0.76433 0.28894 0.0
N210 N 0.22146 0.82448 0.30708 0.0
H211 H 0.24487 0.78767 0.31839 0.0
C212 C 0.3218 0.73706 0.17631 0.0
C213 C 0.32014 0.7483 0.15348 0.0
C214 C 0.33879 0.75658 0.14181 0.0
C215 C 0.35947 0.75347 0.15252 0.0
C216 C 0.36102 0.74243 0.17547 0.0
C217 C 0.34235 0.7344 0.18725 0.0
C218 C 0.29234 0.71034 0.1744 0.0
C219 C 0.29829 0.68866 0.17886 0.0
C220 C 0.2892 0.67173 0.16483 0.0
C221 C 0.27409 0.6762 0.14579 0.0
C222 C 0.26777 0.69797 0.14162 0.0
C223 C 0.27668 0.71491 0.15598 0.0
C224 C 0.28955 0.74095 0.20397 0.0
C225 C 0.28487 0.76281 0.19812 0.0
C226 C 0.27302 0.77583 0.21479 0.0
C227 C 0.26495 0.7672 0.23739 0.0
C228 C 0.26889 0.74503 0.24256 0.0
C229 C 0.2812 0.7322 0.22616 0.0
C230 C 0.23478 0.84095 0.31882 0.0
C231 C 0.22817 0.86275 0.31711 0.0
C232 C 0.23881 0.87899 0.33076 0.0
C233 C 0.25648 0.8738 0.34644 0.0
C234 C 0.26363 0.852 0.34741 0.0
C235 C 0.25282 0.83572 0.33386 0.0
C236 C 0.20368 0.81645 0.32201 0.0
C237 C 0.20708 0.80666 0.34541 0.0
C238 C 0.18937 0.80193 0.36098 0.0
C239 C 0.16794 0.8068 0.3534 0.0
C240 C 0.16465 0.81563 0.32944 0.0
C241 C 0.18235 0.82044 0.31399 0.0
C242 C 0.23185 0.80938 0.2902 0.0
C243 C 0.23011 0.81304 0.26448 0.0
C244 C 0.24032 0.79913 0.24737 0.0
C245 C 0.25297 0.78137 0.25565 0.0
C246 C 0.25438 0.77758 0.28161 0.0
C247 C 0.24367 0.79123 0.29867 0.0
H248 H 0.1848 0.83722 0.69844 0.0
N249 N 0.20889 0.80171 0.70416 0.0
H250 H 0.19221 0.8686 0.67179 0.0
H251 H 0.24659 0.80897 0.67822 0.0
H252 H 0.25474 0.84077 0.65224 0.0
H253 H 0.2206 0.77985 0.66167 0.0
H254 H 0.19627 0.7593 0.63427 0.0
H255 H 0.16798 0.79033 0.71359 0.0
H256 H 0.14321 0.77049 0.68593 0.0
H257 H 0.22415 0.82155 0.74467 0.0
H258 H 0.23015 0.76172 0.70247 0.0
H259 H 0.24865 0.80695 0.77634 0.0
H260 H 0.2532 0.74658 0.73468 0.0
H261 H 0.30358 0.74974 0.88605 0.0
H262 H 0.33906 0.75624 0.90546 0.0
H263 H 0.37077 0.74028 0.83564 0.0
H264 H 0.33516 0.7338 0.81646 0.0
H265 H 0.31961 0.69803 0.82714 0.0
H266 H 0.31419 0.66123 0.84292 0.0
H267 H 0.25371 0.68181 0.87727 0.0
H268 H 0.26046 0.71903 0.86321 0.0
H269 H 0.26571 0.7645 0.84317 0.0
H270 H 0.24669 0.78191 0.8086 0.0
H271 H 0.28631 0.7454 0.7562 0.0
N272 N 0.29598 0.73398 0.84079 0.0
H273 H 0.30417 0.72704 0.79129 0.0
C274 C 0.21514 0.82092 0.69043 0.0
C275 C 0.2002 0.8381 0.6886 0.0
C276 C 0.20455 0.85606 0.67343 0.0
C277 C 0.22412 0.85732 0.6598 0.0
C278 C 0.23937 0.84024 0.66214 0.0
C279 C 0.23487 0.82214 0.6772 0.0
C280 C 0.19598 0.78668 0.68965 0.0
C281 C 0.20386 0.77741 0.66734 0.0
C282 C 0.18989 0.76574 0.65165 0.0
C283 C 0.1677 0.76343 0.65773 0.0
C284 C 0.16023 0.77167 0.68076 0.0
C285 C 0.17429 0.78314 0.69655 0.0
C286 C 0.22494 0.79289 0.7212 0.0
C287 C 0.23076 0.8053 0.74219 0.0
C288 C 0.24461 0.7968 0.76042 0.0
C289 C 0.25266 0.77536 0.75841 0.0
C290 C 0.24753 0.7632 0.73687 0.0
C291 C 0.23401 0.7719 0.71836 0.0
C292 C 0.31674 0.74131 0.84994 0.0
C293 C 0.31819 0.74821 0.87483 0.0
C294 C 0.33846 0.75189 0.88583 0.0
C295 C 0.35771 0.74862 0.87209 0.0
C296 C 0.3562 0.74268 0.84675 0.0
C297 C 0.33585 0.73915 0.8357 0.0
C298 C 0.29073 0.7114 0.84476 0.0
C299 C 0.30516 0.69459 0.83798 0.0
C300 C 0.30188 0.67341 0.84685 0.0
C301 C 0.28379 0.66855 0.86206 0.0
C302 C 0.26828 0.68505 0.8665 0.0
C303 C 0.27189 0.70629 0.85819 0.0
C304 C 0.28641 0.74478 0.81974 0.0
C305 C 0.27033 0.76045 0.82418 0.0
C306 C 0.25964 0.77051 0.80432 0.0
C307 C 0.26504 0.7653 0.77943 0.0
C308 C 0.28154 0.74972 0.77505 0.0
C309 C 0.292 0.73939 0.79506 0.0
H310 H 0.28815 0.24113 0.88728 0.0
N311 N 0.2761 0.27665 0.86222 0.0
H312 H 0.32431 0.23266 0.9044 0.0
H313 H 0.31355 0.30061 0.85587 0.0
H314 H 0.34939 0.29216 0.87231 0.0
H315 H 0.28145 0.31731 0.84189 0.0
H316 H 0.27012 0.35179 0.86041 0.0
H317 H 0.25128 0.28232 0.90238 0.0
H318 H 0.23832 0.31666 0.92025 0.0
H319 H 0.24029 0.25577 0.84813 0.0
H320 H 0.29902 0.28454 0.8189 0.0
H321 H 0.22966 0.24474 0.80592 0.0
H322 H 0.28928 0.27259 0.77707 0.0
H323 H 0.22319 0.18653 0.69806 0.0
H324 H 0.23601 0.15267 0.6799 0.0
H325 H 0.28683 0.18755 0.64104 0.0
H326 H 0.27411 0.22177 0.66007 0.0
H327 H 0.23256 0.25396 0.64964 0.0
H328 H 0.1987 0.26064 0.62706 0.0
H329 H 0.16461 0.2186 0.67889 0.0
H330 H 0.19816 0.21388 0.70249 0.0
H331 H 0.22862 0.20716 0.73244 0.0
H332 H 0.23775 0.21965 0.77424 0.0
H333 H 0.26601 0.2782 0.74308 0.0
N334 N 0.23881 0.22764 0.68821 0.0
H335 H 0.25785 0.26479 0.70104 0.0
C336 C 0.29794 0.27152 0.87045 0.0
C337 C 0.30154 0.25221 0.88385 0.0
C338 C 0.32221 0.24737 0.89349 0.0
C339 C 0.3397 0.26184 0.88993 0.0
C340 C 0.33619 0.28085 0.87582 0.0
C341 C 0.31559 0.28567 0.86625 0.0
C342 C 0.26756 0.2972 0.87107 0.0
C343 C 0.27215 0.31704 0.85905 0.0
C344 C 0.26534 0.33682 0.86958 0.0
C345 C 0.25338 0.33724 0.89209 0.0
C346 C 0.24796 0.31719 0.90332 0.0
C347 C 0.25514 0.29748 0.89302 0.0
C348 C 0.27052 0.2707 0.83689 0.0
C349 C 0.25097 0.25954 0.83261 0.0
C350 C 0.24503 0.2531 0.80846 0.0
C351 C 0.25867 0.25755 0.78793 0.0
C352 C 0.27818 0.26906 0.79225 0.0
C353 C 0.28395 0.27574 0.81639 0.0
C354 C 0.24774 0.2069 0.6805 0.0
C355 C 0.23739 0.18707 0.68621 0.0
C356 C 0.24465 0.16759 0.67555 0.0
C357 C 0.26227 0.16743 0.65876 0.0
C358 C 0.27329 0.18709 0.65402 0.0
C359 C 0.26603 0.20663 0.6648 0.0
C360 C 0.21803 0.23313 0.67739 0.0
C361 C 0.21763 0.24658 0.65631 0.0
C362 C 0.19825 0.25006 0.64322 0.0
C363 C 0.1788 0.2397 0.6506 0.0
C364 C 0.1791 0.22695 0.67251 0.0
C365 C 0.19845 0.22394 0.68594 0.0
C366 C 0.24291 0.23489 0.71343 0.0
C367 C 0.23692 0.22256 0.73444 0.0
C368 C 0.24197 0.22993 0.75854 0.0
C369 C 0.25277 0.24996 0.76223 0.0
C370 C 0.25815 0.26249 0.7411 0.0
C371 C 0.25335 0.25496 0.71703 0.0
H372 H 0.8141 0.24918 0.65453 0.0
N373 N 0.81416 0.23631 0.70347 0.0
H374 H 0.84403 0.26679 0.63255 0.0
H375 H 0.84981 0.25342 0.72369 0.0
H376 H 0.87955 0.27215 0.70212 0.0
H377 H 0.8385 0.20061 0.70284 0.0
H378 H 0.83375 0.16805 0.67713 0.0
H379 H 0.7782 0.22669 0.67432 0.0
H380 H 0.77269 0.19386 0.64976 0.0
H381 H 0.78504 0.26467 0.68225 0.0
H382 H 0.80493 0.23567 0.75184 0.0
H383 H 0.75736 0.28596 0.70408 0.0
H384 H 0.77819 0.25783 0.77423 0.0
H385 H 0.68714 0.36828 0.79668 0.0
H386 H 0.69748 0.39752 0.82516 0.0
H387 H 0.75376 0.3601 0.84817 0.0
H388 H 0.74245 0.33042 0.82071 0.0
H389 H 0.709 0.31143 0.84095 0.0
H390 H 0.67964 0.30151 0.86937 0.0
H391 H 0.63255 0.31412 0.81119 0.0
H392 H 0.66223 0.32404 0.78263 0.0
H393 H 0.7268 0.33846 0.75325 0.0
H394 H 0.75312 0.31594 0.73076 0.0
H395 H 0.7413 0.2632 0.78251 0.0
N396 N 0.70424 0.32859 0.79405 0.0
H397 H 0.71621 0.28591 0.8055 0.0
C398 C 0.83002 0.24956 0.6907 0.0
C399 C 0.82822 0.25434 0.66509 0.0
C400 C 0.84533 0.26465 0.65258 0.0
C401 C 0.8644 0.27067 0.66548 0.0
C402 C 0.86535 0.26729 0.69147 0.0
C403 C 0.84836 0.25673 0.70388 0.0
C404 C 0.80879 0.21615 0.6908 0.0
C405 C 0.82395 0.19904 0.69154 0.0
C406 C 0.82114 0.18039 0.67683 0.0
C407 C 0.80287 0.17825 0.66113 0.0
C408 C 0.78721 0.19506 0.66115 0.0
C409 C 0.79022 0.21388 0.67559 0.0
C410 C 0.79684 0.24829 0.71546 0.0
C411 C 0.78336 0.26279 0.70225 0.0
C412 C 0.7677 0.27521 0.71487 0.0
C413 C 0.76546 0.27375 0.74103 0.0
C414 C 0.77903 0.25915 0.75408 0.0
C415 C 0.79442 0.24652 0.74137 0.0
C416 C 0.71391 0.34719 0.80647 0.0
C417 C 0.70201 0.36667 0.80743 0.0
C418 C 0.70801 0.38341 0.82376 0.0
C419 C 0.72635 0.38116 0.83933 0.0
C420 C 0.73923 0.36223 0.83697 0.0
C421 C 0.73298 0.34533 0.82091 0.0
C422 C 0.68777 0.31855 0.80955 0.0
C423 C 0.69242 0.31169 0.8341 0.0
C424 C 0.67561 0.30615 0.8504 0.0
C425 C 0.6538 0.30736 0.8426 0.0
C426 C 0.64922 0.31296 0.81768 0.0
C427 C 0.66611 0.31858 0.80134 0.0
C428 C 0.71939 0.31426 0.7812 0.0
C429 C 0.72998 0.32206 0.75977 0.0
C430 C 0.7449 0.30904 0.74679 0.0
C431 C 0.7494 0.28763 0.75471 0.0
C432 C 0.73862 0.2797 0.77606 0.0
C433 C 0.72397 0.29284 0.78926 0.0
H434 H 0.76155 0.80636 0.6515 0.0
N435 N 0.79184 0.79803 0.68548 0.0
H436 H 0.74962 0.84202 0.63683 0.0
H437 H 0.80189 0.83715 0.70711 0.0
H438 H 0.78851 0.87273 0.69452 0.0
H439 H 0.83135 0.80782 0.70615 0.0
H440 H 0.86674 0.80627 0.68459 0.0
H441 H 0.8 0.78118 0.64089 0.0
H442 H 0.8351 0.77972 0.61918 0.0
H443 H 0.77125 0.76013 0.68678 0.0
H444 H 0.79861 0.8097 0.73449 0.0
H445 H 0.75767 0.74074 0.72339 0.0
H446 H 0.78382 0.79143 0.77109 0.0
H447 H 0.68784 0.70885 0.83656 0.0
H448 H 0.65763 0.72612 0.85883 0.0
H449 H 0.70068 0.77778 0.88304 0.0
H450 H 0.73094 0.76011 0.86062 0.0
H451 H 0.75389 0.72987 0.87553 0.0
H452 H 0.7713 0.7024 0.90199 0.0
H453 H 0.74873 0.65174 0.85203 0.0
H454 H 0.73163 0.67941 0.8256 0.0
H455 H 0.71348 0.72506 0.78821 0.0
H456 H 0.72988 0.74352 0.75257 0.0
H457 H 0.78483 0.76184 0.79871 0.0
N458 N 0.72887 0.72196 0.83426 0.0
H459 H 0.76744 0.7444 0.83461 0.0
C460 C 0.78232 0.81902 0.68055 0.0
C461 C 0.76714 0.82085 0.66117 0.0
C462 C 0.76022 0.84134 0.65296 0.0
C463 C 0.76813 0.86053 0.66431 0.0
C464 C 0.78237 0.85848 0.68486 0.0
C465 C 0.78974 0.83799 0.69255 0.0
C466 C 0.81313 0.79445 0.67506 0.0
C467 C 0.83217 0.80125 0.68738 0.0
C468 C 0.85232 0.8004 0.67504 0.0
C469 C 0.8536 0.7931 0.65012 0.0
C470 C 0.83457 0.78569 0.63825 0.0
C471 C 0.81459 0.78631 0.65065 0.0
C472 C 0.78554 0.78652 0.70776 0.0
C473 C 0.77422 0.76686 0.7052 0.0
C474 C 0.76627 0.75596 0.72619 0.0
C475 C 0.76916 0.7647 0.75035 0.0
C476 C 0.78127 0.7841 0.7529 0.0
C477 C 0.78956 0.79479 0.73184 0.0
C478 C 0.7115 0.73316 0.847 0.0
C479 C 0.69066 0.72397 0.84656 0.0
C480 C 0.67343 0.73396 0.85916 0.0
C481 C 0.67668 0.75345 0.87259 0.0
C482 C 0.69767 0.76273 0.87298 0.0
C483 C 0.71495 0.75271 0.86018 0.0
C484 C 0.74135 0.70658 0.84867 0.0
C485 C 0.75298 0.7129 0.8701 0.0
C486 C 0.76287 0.69715 0.88525 0.0
C487 C 0.76134 0.67484 0.87921 0.0
C488 C 0.7505 0.66876 0.8571 0.0
C489 C 0.7406 0.6845 0.84204 0.0
C490 C 0.73931 0.73312 0.81389 0.0
C491 C 0.72905 0.73313 0.79055 0.0
C492 C 0.73861 0.74352 0.77014 0.0
C493 C 0.75895 0.75396 0.77249 0.0
C494 C 0.76913 0.75414 0.79612 0.0
C495 C 0.7593 0.74399 0.8167 0.0
C496 C 0.98769 0.28323 0.5448 0.0
C497 C 0.04033 0.28575 0.47662 0.0
O498 O 0.99508 0.30011 0.53398 0.0
Zn499 Zn 0.01393 0.28496 0.51049 0.0
O500 O 0.9941 0.26432 0.53769 0.0
Zn501 Zn 0.01546 0.25033 0.51062 0.0
O502 O 0.03636 0.23527 0.53144 0.0
O503 O 0.03889 0.27111 0.53402 0.0
O504 O 0.0357 0.26624 0.48343 0.0
O505 O 0.03132 0.30186 0.48751 0.0
O506 O 0.991 0.26886 0.48606 0.0
O507 O 0.99583 0.23339 0.49016 0.0
C508 C 0.04565 0.2521 0.54034 0.0
C509 C 0.98575 0.24924 0.48015 0.0
C510 C 0.78707 0.04915 0.54444 0.0
C511 C 0.78586 0.9878 0.48576 0.0
O512 O 0.80328 0.03977 0.53427 0.0
Zn513 Zn 0.78712 0.01831 0.51503 0.0
O514 O 0.76777 0.04229 0.53979 0.0
Zn515 Zn 0.75235 0.01736 0.51805 0.0
O516 O 0.7388 0.99901 0.54342 0.0
O517 O 0.77468 0.99696 0.54293 0.0
O518 O 0.76681 0.99334 0.49346 0.0
O519 O 0.80249 0.9982 0.49348 0.0
O520 O 0.76989 0.03728 0.48819 0.0
O521 O 0.73452 0.03461 0.49531 0.0
C522 C 0.75635 0.99089 0.552 0.0
C523 C 0.75023 0.04221 0.4825 0.0
C524 C 0.98626 0.78638 0.53955 0.0
C525 C 0.04334 0.78742 0.47561 0.0
O526 O 0.99506 0.80289 0.5294 0.0
Zn527 Zn 0.01476 0.78741 0.50735 0.0
O528 O 0.99227 0.76718 0.53291 0.0
Zn529 Zn 0.01479 0.75256 0.50705 0.0
O530 O 0.03433 0.73655 0.52901 0.0
O531 O 0.03737 0.77233 0.53206 0.0
O532 O 0.03752 0.76803 0.48173 0.0
O533 O 0.03416 0.80371 0.48597 0.0
O534 O 0.99344 0.77271 0.48091 0.0
O535 O 0.99557 0.73691 0.48427 0.0
C536 C 0.0435 0.75319 0.53858 0.0
C537 C 0.9875 0.75366 0.47378 0.0
C538 C 0.28189 0.03783 0.54748 0.0
C539 C 0.2802 0.98794 0.47601 0.0
O540 O 0.29834 0.02992 0.53618 0.0
Zn541 Zn 0.28196 0.01258 0.51197 0.0
O542 O 0.26264 0.03294 0.54016 0.0
Zn543 Zn 0.24712 0.01407 0.51182 0.0
O544 O 0.23043 0.99347 0.53129 0.0
O545 O 0.26593 0.98856 0.53465 0.0
O546 O 0.26128 0.99419 0.48323 0.0
O547 O 0.29707 0.99437 0.48769 0.0
O548 O 0.26801 0.03769 0.48906 0.0
O549 O 0.23221 0.03629 0.49261 0.0
C550 C 0.24643 0.98298 0.5404 0.0
C551 C 0.24912 0.04513 0.48335 0.0
C552 C 0.49052 0.7824 0.04676 0.0
C553 C 0.5493 0.77985 0.98457 0.0
O554 O 0.49982 0.79888 0.03703 0.0
Zn555 Zn 0.51989 0.78239 0.0158 0.0
O556 O 0.49598 0.7631 0.04005 0.0
Zn557 Zn 0.51784 0.74741 0.01465 0.0
O558 O 0.53556 0.73005 0.03689 0.0
O559 O 0.53931 0.76554 0.04285 0.0
O560 O 0.54147 0.76117 0.99033 0.0
O561 O 0.54195 0.79691 0.99523 0.0
O562 O 0.49777 0.76929 0.98879 0.0
O563 O 0.49802 0.73337 0.99154 0.0
C564 C 0.54395 0.74586 0.04894 0.0
C565 C 0.49075 0.75066 0.98142 0.0
C566 C 0.25261 0.54413 0.03733 0.0
C567 C 0.24553 0.47978 0.98312 0.0
O568 O 0.27077 0.53701 0.02868 0.0
Zn569 Zn 0.28272 0.51085 0.00567 0.0
O570 O 0.23505 0.53399 0.03233 0.0
Zn571 Zn 0.24809 0.51157 0.01119 0.0
O572 O 0.26563 0.49298 0.03789 0.0
O573 O 0.30059 0.49363 0.02832 0.0
O574 O 0.23023 0.48929 0.99491 0.0
O575 O 0.26516 0.48649 0.98565 0.0
O576 O 0.29604 0.52698 0.9787 0.0
O577 O 0.26026 0.5307 0.98061 0.0
C578 C 0.28527 0.48723 0.04251 0.0
C579 C 0.27855 0.53534 0.97026 0.0
C580 C 0.53815 0.28525 0.97384 0.0
C581 C 0.48625 0.28188 0.04264 0.0
O582 O 0.52948 0.3011 0.98553 0.0
Zn583 Zn 0.5123 0.28414 0.00846 0.0
O584 O 0.53365 0.26562 0.9803 0.0
Zn585 Zn 0.51414 0.24922 0.00777 0.0
O586 O 0.49332 0.23276 0.98733 0.0
O587 O 0.48947 0.26848 0.98449 0.0
O588 O 0.49279 0.26299 0.0355 0.0
O589 O 0.49342 0.29886 0.0318 0.0
O590 O 0.53614 0.27036 0.03252 0.0
O591 O 0.53633 0.23455 0.02809 0.0
C592 C 0.4836 0.24923 0.97808 0.0
C593 C 0.54387 0.25167 0.03842 0.0
C594 C 0.74277 0.53644 0.05415 0.0
C595 C 0.74434 0.48763 0.98201 0.0
O596 O 0.76222 0.53175 0.04703 0.0
Zn597 Zn 0.77786 0.51264 0.01801 0.0
O598 O 0.72656 0.52861 0.04233 0.0
Zn599 Zn 0.74304 0.51236 0.01809 0.0
O600 O 0.75817 0.48846 0.04137 0.0
O601 O 0.79395 0.49101 0.0373 0.0
O602 O 0.72775 0.49551 0.99299 0.0
O603 O 0.76344 0.49276 0.98966 0.0
O604 O 0.79314 0.53498 0.99862 0.0
O605 O 0.75737 0.53813 0.99728 0.0
C606 C 0.77737 0.48194 0.04705 0.0
C607 C 0.77628 0.54517 0.99121 0.0
H608 H 0.13493 0.27397 0.35565 0.0
H609 H 0.16845 0.29583 0.42221 0.0
H610 H 0.1 0.28045 0.37622 0.0
H611 H 0.1336 0.30281 0.44234 0.0
H612 H 0.06638 0.32149 0.46954 0.0
H613 H 0.09793 0.32412 0.44157 0.0
H614 H 0.08379 0.25987 0.4126 0.0
H615 H 0.05256 0.25718 0.44045 0.0
C616 C 0.13489 0.28042 0.37451 0.0
C617 C 0.15455 0.28406 0.38738 0.0
C618 C 0.11489 0.28424 0.3862 0.0
C619 C 0.11411 0.29201 0.41091 0.0
C620 C 0.13369 0.29706 0.42318 0.0
C621 C 0.1537 0.29306 0.41159 0.0
C622 C 0.06978 0.30816 0.45679 0.0
C623 C 0.05716 0.28905 0.45729 0.0
C624 C 0.08786 0.30963 0.44091 0.0
C625 C 0.09331 0.29219 0.42498 0.0
C626 C 0.07987 0.27367 0.42448 0.0
C627 C 0.06208 0.27206 0.44057 0.0
H628 H 0.75717 0.16044 0.40301 0.0
H629 H 0.7595 0.11335 0.34285 0.0
H630 H 0.74586 0.13181 0.43182 0.0
H631 H 0.74852 0.0847 0.37182 0.0
H632 H 0.7734 0.04302 0.4398 0.0
H633 H 0.7719 0.06998 0.40663 0.0
H634 H 0.71805 0.10192 0.44366 0.0
H635 H 0.71941 0.07439 0.47707 0.0
C636 C 0.75466 0.14413 0.39575 0.0
C637 C 0.75963 0.13911 0.37071 0.0
C638 C 0.74815 0.12773 0.41228 0.0
C639 C 0.74656 0.106 0.4041 0.0
C640 C 0.74991 0.10128 0.37868 0.0
C641 C 0.75631 0.11767 0.36215 0.0
C642 C 0.76094 0.05553 0.44062 0.0
C643 C 0.74658 0.05672 0.46098 0.0
C644 C 0.75997 0.07089 0.42153 0.0
C645 C 0.74484 0.08805 0.42254 0.0
C646 C 0.72988 0.08884 0.44246 0.0
C647 C 0.73057 0.07309 0.46145 0.0
H648 H 0.90587 0.77774 0.34528 0.0
H649 H 0.86557 0.74108 0.39646 0.0
H650 H 0.93771 0.76924 0.3702 0.0
H651 H 0.8975 0.73367 0.42228 0.0
H652 H 0.97529 0.78555 0.44186 0.0
H653 H 0.94697 0.78458 0.41054 0.0
H654 H 0.93433 0.71691 0.42766 0.0
H655 H 0.96296 0.71796 0.45977 0.0
C656 C 0.90379 0.76745 0.36151 0.0
C657 C 0.883 0.76039 0.36901 0.0
C658 C 0.92209 0.76279 0.37599 0.0
C659 C 0.92006 0.75119 0.39849 0.0
C660 C 0.8996 0.74268 0.40506 0.0
C661 C 0.88125 0.74719 0.39043 0.0
C662 C 0.96665 0.77035 0.43893 0.0
C663 C 0.97128 0.75186 0.45345 0.0
C664 C 0.95052 0.76974 0.42071 0.0
C665 C 0.93849 0.75062 0.41645 0.0
C666 C 0.94333 0.73189 0.43058 0.0
C667 C 0.95973 0.73247 0.44885 0.0
H668 H 0.26403 0.91699 0.33596 0.0
H669 H 0.27061 0.86925 0.39485 0.0
H670 H 0.27417 0.94577 0.36531 0.0
H671 H 0.28144 0.89799 0.4238 0.0
H672 H 0.31072 0.95612 0.46686 0.0
H673 H 0.3098 0.92869 0.43324 0.0
H674 H 0.25208 0.95908 0.40306 0.0
H675 H 0.25278 0.98601 0.43655 0.0
C676 C 0.26788 0.91256 0.35503 0.0
C677 C 0.26614 0.89079 0.36306 0.0
C678 C 0.27384 0.92904 0.37177 0.0
C679 C 0.27847 0.9241 0.39684 0.0
C680 C 0.27817 0.90223 0.40451 0.0
C681 C 0.27197 0.88575 0.38785 0.0
C682 C 0.2981 0.95708 0.45275 0.0
C683 C 0.28175 0.97307 0.45433 0.0
C684 C 0.29752 0.94138 0.43364 0.0
C685 C 0.28089 0.94182 0.41554 0.0
C686 C 0.26522 0.95847 0.41656 0.0
C687 C 0.26554 0.9738 0.43584 0.0
H688 H 0.16783 0.77152 0.60767 0.0
H689 H 0.13137 0.73773 0.66489 0.0
H690 H 0.13879 0.76463 0.57796 0.0
H691 H 0.10179 0.73148 0.63494 0.0
H692 H 0.0588 0.71641 0.56272 0.0
H693 H 0.09057 0.71417 0.59073 0.0
H694 H 0.10158 0.78318 0.58124 0.0
H695 H 0.07036 0.78555 0.55386 0.0
C696 C 0.15393 0.76206 0.61379 0.0
C697 C 0.15187 0.75538 0.6388 0.0
C698 C 0.13719 0.7583 0.59676 0.0
C699 C 0.11796 0.74783 0.6043 0.0
C700 C 0.11648 0.73959 0.6287 0.0
C701 C 0.13331 0.74337 0.64585 0.0
C702 C 0.06805 0.73104 0.56671 0.0
C703 C 0.06206 0.75113 0.55604 0.0
C704 C 0.08615 0.72975 0.5827 0.0
C705 C 0.09865 0.74845 0.58778 0.0
C706 C 0.09248 0.76844 0.57726 0.0
C707 C 0.07443 0.76979 0.5617 0.0
H708 H 0.30276 0.15031 0.6479 0.0
H709 H 0.23394 0.13916 0.63709 0.0
H710 H 0.31087 0.11702 0.62408 0.0
H711 H 0.24189 0.10647 0.61335 0.0
H712 H 0.25686 0.04037 0.58879 0.0
H713 H 0.25492 0.07027 0.61865 0.0
H714 H 0.30895 0.10185 0.58166 0.0
H715 H 0.31142 0.07114 0.55231 0.0
C716 C 0.2894 0.14077 0.64046 0.0
C717 C 0.2677 0.14719 0.64471 0.0
C718 C 0.29403 0.12173 0.62682 0.0
C719 C 0.27704 0.10884 0.61713 0.0
C720 C 0.25541 0.11555 0.62118 0.0
C721 C 0.25082 0.13438 0.63479 0.0
C722 C 0.26866 0.05346 0.58743 0.0
C723 C 0.28416 0.0536 0.56817 0.0
C724 C 0.26745 0.0707 0.60439 0.0
C725 C 0.28138 0.08879 0.60214 0.0
C726 C 0.29796 0.08819 0.58394 0.0
C727 C 0.29941 0.07063 0.56713 0.0
H728 H 0.9069 0.26001 0.6745 0.0
H729 H 0.86646 0.29761 0.62435 0.0
H730 H 0.93833 0.26718 0.64834 0.0
H731 H 0.89795 0.30379 0.59736 0.0
H732 H 0.96355 0.31893 0.5595 0.0
H733 H 0.93505 0.31997 0.59169 0.0
H734 H 0.94673 0.2519 0.60755 0.0
H735 H 0.975 0.25091 0.57605 0.0
C736 C 0.90473 0.27022 0.6582 0.0
C737 C 0.88401 0.27803 0.65145 0.0
C738 C 0.92276 0.27409 0.64301 0.0
C739 C 0.92055 0.2857 0.62055 0.0
C740 C 0.90019 0.29479 0.61457 0.0
C741 C 0.88209 0.29101 0.62988 0.0
C742 C 0.96014 0.30431 0.57012 0.0
C743 C 0.97147 0.28483 0.56517 0.0
C744 C 0.94379 0.30488 0.58844 0.0
C745 C 0.93873 0.28605 0.60226 0.0
C746 C 0.95046 0.2668 0.59759 0.0
C747 C 0.96658 0.26619 0.57932 0.0
H748 H 0.79492 0.89637 0.66284 0.0
H749 H 0.73098 0.8745 0.63975 0.0
H750 H 0.78969 0.92993 0.64024 0.0
H751 H 0.72673 0.90748 0.61495 0.0
H752 H 0.72174 0.97559 0.57999 0.0
H753 H 0.72257 0.94635 0.61123 0.0
H754 H 0.79148 0.93773 0.59764 0.0
H755 H 0.79081 0.96699 0.56771 0.0
C756 C 0.77956 0.89872 0.65331 0.0
C757 C 0.76351 0.88233 0.65303 0.0
C758 C 0.77674 0.91795 0.63985 0.0
C759 C 0.75806 0.92121 0.62512 0.0
C760 C 0.74138 0.90553 0.62599 0.0
C761 C 0.744 0.88639 0.63993 0.0
C762 C 0.73705 0.96753 0.58396 0.0
C763 C 0.75621 0.97373 0.57145 0.0
C764 C 0.73752 0.95072 0.60175 0.0
C765 C 0.75715 0.93979 0.60723 0.0
C766 C 0.77618 0.9461 0.59458 0.0
C767 C 0.77575 0.96287 0.57713 0.0
H768 H 0.89386 0.77834 0.66447 0.0
H769 H 0.86015 0.80999 0.60375 0.0
H770 H 0.92753 0.77825 0.63971 0.0
H771 H 0.89361 0.80989 0.5791 0.0
H772 H 0.96229 0.82302 0.55009 0.0
H773 H 0.93143 0.82622 0.57883 0.0
H774 H 0.93954 0.75882 0.60003 0.0
H775 H 0.97026 0.75554 0.57133 0.0
C776 C 0.89372 0.78544 0.64596 0.0
C777 C 0.87438 0.79401 0.63595 0.0
C778 C 0.91291 0.7853 0.63176 0.0
C779 C 0.91319 0.79406 0.60747 0.0
C780 C 0.89397 0.8032 0.59782 0.0
C781 C 0.87477 0.80307 0.61184 0.0
C782 C 0.95763 0.80895 0.56107 0.0
C783 C 0.96865 0.78899 0.55831 0.0
C784 C 0.93991 0.81077 0.57743 0.0
C785 C 0.93305 0.79275 0.59164 0.0
C786 C 0.94455 0.77303 0.58951 0.0
C787 C 0.96207 0.77113 0.57293 0.0
H788 H 0.24401 0.85664 0.61382 0.0
H789 H 0.21308 0.9004 0.6665 0.0
H790 H 0.24936 0.88695 0.58506 0.0
H791 H 0.21783 0.93048 0.63725 0.0
H792 H 0.20891 0.97161 0.56501 0.0
H793 H 0.20374 0.94127 0.59409 0.0
H794 H 0.27084 0.92218 0.58372 0.0
H795 H 0.27609 0.95241 0.55484 0.0
C796 C 0.23854 0.87271 0.61944 0.0
C797 C 0.22811 0.87599 0.64257 0.0
C798 C 0.2415 0.89005 0.60285 0.0
C799 C 0.2339 0.91104 0.60887 0.0
C800 C 0.22356 0.9144 0.63197 0.0
C801 C 0.22082 0.89713 0.64869 0.0
C802 C 0.22252 0.9609 0.5689 0.0
C803 C 0.2429 0.96444 0.55763 0.0
C804 C 0.2196 0.94363 0.58564 0.0
C805 C 0.2369 0.92939 0.59116 0.0
C806 C 0.25718 0.93279 0.57968 0.0
C807 C 0.26018 0.95018 0.56323 0.0
H808 H 0.17588 0.24367 0.59947 0.0
H809 H 0.13567 0.23947 0.6658 0.0
H810 H 0.1433 0.24707 0.57393 0.0
H811 H 0.1031 0.24136 0.63962 0.0
H812 H 0.05602 0.21803 0.57127 0.0
H813 H 0.08773 0.21507 0.5991 0.0
H814 H 0.10993 0.27828 0.5748 0.0
H815 H 0.07808 0.28162 0.54763 0.0
C816 C 0.16022 0.24364 0.60876 0.0
C817 C 0.15865 0.24152 0.63494 0.0
C818 C 0.14155 0.24535 0.59398 0.0
C819 C 0.1208 0.24443 0.60486 0.0
C820 C 0.11899 0.24194 0.63083 0.0
C821 C 0.13771 0.24073 0.64576 0.0
C822 C 0.06763 0.23131 0.57198 0.0
C823 C 0.06458 0.25006 0.55731 0.0
C824 C 0.08566 0.22965 0.58795 0.0
C825 C 0.10116 0.24646 0.589 0.0
C826 C 0.09817 0.26512 0.57426 0.0
C827 C 0.07994 0.26702 0.55879 0.0
H828 H 0.81491 0.13558 0.66971 0.0
H829 H 0.78603 0.17723 0.61357 0.0
H830 H 0.81226 0.10461 0.64111 0.0
H831 H 0.78257 0.14602 0.58564 0.0
H832 H 0.75655 0.07908 0.5581 0.0
H833 H 0.76081 0.11012 0.58623 0.0
H834 H 0.8283 0.0931 0.59766 0.0
H835 H 0.82417 0.06198 0.56913 0.0
C836 C 0.80809 0.13824 0.65131 0.0
C837 C 0.80063 0.15903 0.6441 0.0
C838 C 0.80654 0.12044 0.63497 0.0
C839 C 0.7972 0.12294 0.6112 0.0
C840 C 0.78964 0.1436 0.60398 0.0
C841 C 0.79148 0.16145 0.62013 0.0
C842 C 0.77233 0.08192 0.56657 0.0
C843 C 0.79004 0.06806 0.56138 0.0
C844 C 0.77476 0.09977 0.58258 0.0
C845 C 0.79487 0.104 0.5941 0.0
C846 C 0.81258 0.0901 0.58911 0.0
C847 C 0.81025 0.0724 0.5727 0.0
H848 H 0.89811 0.19818 0.36577 0.0
H849 H 0.86677 0.25702 0.39211 0.0
H850 H 0.92854 0.20485 0.3939 0.0
H851 H 0.89669 0.26308 0.4212 0.0
H852 H 0.96369 0.27945 0.45248 0.0
H853 H 0.93427 0.27327 0.42283 0.0
H854 H 0.93749 0.20405 0.43747 0.0
H855 H 0.96739 0.21019 0.46664 0.0
C856 C 0.89774 0.21262 0.37745 0.0
C857 C 0.87996 0.2271 0.37655 0.0
C858 C 0.91507 0.21627 0.39389 0.0
C859 C 0.91508 0.23446 0.40994 0.0
C860 C 0.89738 0.24902 0.40894 0.0
C861 C 0.88006 0.24541 0.39244 0.0
C862 C 0.95817 0.26289 0.44936 0.0
C863 C 0.96793 0.24531 0.46196 0.0
C864 C 0.94118 0.25936 0.43244 0.0
C865 C 0.93341 0.23816 0.42775 0.0
C866 C 0.94323 0.22057 0.44032 0.0
C867 C 0.96032 0.22409 0.45718 0.0
H868 H 0.80811 0.90441 0.35641 0.0
H869 H 0.78516 0.86068 0.41401 0.0
H870 H 0.8056 0.93489 0.38568 0.0
H871 H 0.78188 0.89136 0.44278 0.0
H872 H 0.75574 0.9565 0.47518 0.0
H873 H 0.75897 0.92608 0.44598 0.0
H874 H 0.8241 0.94671 0.42695 0.0
H875 H 0.821 0.97721 0.45643 0.0
C876 C 0.8026 0.90121 0.37527 0.0
C877 C 0.79684 0.87996 0.38274 0.0
C878 C 0.80113 0.91872 0.392 0.0
C879 C 0.79357 0.91547 0.41648 0.0
C880 C 0.78755 0.89437 0.42392 0.0
C881 C 0.7893 0.87681 0.40732 0.0
C882 C 0.77078 0.95459 0.46479 0.0
C883 C 0.78813 0.96928 0.46812 0.0
C884 C 0.77264 0.93709 0.44817 0.0
C885 C 0.79177 0.93404 0.43421 0.0
C886 C 0.80911 0.94878 0.43736 0.0
C887 C 0.80737 0.96614 0.45432 0.0
H888 H 0.13263 0.83351 0.36021 0.0
H889 H 0.16089 0.77314 0.38625 0.0
H890 H 0.10215 0.82871 0.38873 0.0
H891 H 0.13094 0.76892 0.41574 0.0
H892 H 0.06334 0.75619 0.44728 0.0
H893 H 0.09283 0.76079 0.41739 0.0
H894 H 0.09339 0.83008 0.43238 0.0
H895 H 0.06339 0.82553 0.46184 0.0
C896 C 0.13231 0.81914 0.37192 0.0
C897 C 0.14921 0.80364 0.37077 0.0
C898 C 0.11496 0.81656 0.38858 0.0
C899 C 0.11405 0.79846 0.40463 0.0
C900 C 0.13094 0.78294 0.40347 0.0
C901 C 0.14828 0.78548 0.38674 0.0
C902 C 0.06968 0.77244 0.44417 0.0
C903 C 0.06098 0.7905 0.45699 0.0
C904 C 0.08673 0.77505 0.42712 0.0
C905 C 0.09561 0.79579 0.42251 0.0
C906 C 0.08679 0.8139 0.43521 0.0
C907 C 0.06964 0.81129 0.45221 0.0
H908 H 0.21404 0.1534 0.38388 0.0
H909 H 0.27539 0.17046 0.41828 0.0
H910 H 0.21488 0.11808 0.40498 0.0
H911 H 0.27582 0.13566 0.44 0.0
H912 H 0.28184 0.06431 0.45702 0.0
H913 H 0.28026 0.09723 0.43194 0.0
H914 H 0.21138 0.10297 0.44723 0.0
H915 H 0.21285 0.06955 0.47205 0.0
C916 C 0.22777 0.14956 0.3958 0.0
C917 C 0.24466 0.16475 0.39941 0.0
C918 C 0.22811 0.12943 0.40811 0.0
C919 C 0.2454 0.12403 0.42419 0.0
C920 C 0.26238 0.13915 0.42752 0.0
C921 C 0.26203 0.15923 0.41528 0.0
C922 C 0.26629 0.07247 0.45496 0.0
C923 C 0.24749 0.06437 0.46674 0.0
C924 C 0.26543 0.09144 0.44065 0.0
C925 C 0.24576 0.1029 0.43781 0.0
C926 C 0.22677 0.09445 0.44891 0.0
C927 C 0.22762 0.07536 0.46323 0.0
H928 H 0.63452 0.75834 0.8572 0.0
H929 H 0.67701 0.77091 0.91994 0.0
H930 H 0.60317 0.76915 0.88232 0.0
H931 H 0.64553 0.78193 0.94506 0.0
H932 H 0.58219 0.81019 0.97959 0.0
H933 H 0.61327 0.80837 0.95055 0.0
H934 H 0.58681 0.74942 0.91835 0.0
H935 H 0.55625 0.75115 0.94705 0.0
C936 C 0.6372 0.76362 0.87629 0.0
C937 C 0.65823 0.76336 0.8867 0.0
C938 C 0.61925 0.76989 0.89064 0.0
C939 C 0.62185 0.77614 0.91575 0.0
C940 C 0.64302 0.77733 0.92571 0.0
C941 C 0.66105 0.77098 0.91132 0.0
C942 C 0.58294 0.79709 0.966 0.0
C943 C 0.56686 0.78077 0.96564 0.0
C944 C 0.60074 0.79596 0.94953 0.0
C945 C 0.60244 0.77878 0.93212 0.0
C946 C 0.58587 0.76301 0.93127 0.0
C947 C 0.56841 0.76393 0.94787 0.0
H948 H 0.26797 0.66089 0.909 0.0
H949 H 0.29652 0.62767 0.84544 0.0
H950 H 0.26615 0.62663 0.93136 0.0
H951 H 0.2957 0.59336 0.86885 0.0
H952 H 0.31367 0.54935 0.94257 0.0
H953 H 0.31441 0.57997 0.9131 0.0
H954 H 0.24533 0.58928 0.92345 0.0
H955 H 0.24436 0.55882 0.95242 0.0
C956 C 0.27354 0.6463 0.89953 0.0
C957 C 0.2821 0.64716 0.87514 0.0
C958 C 0.27268 0.62667 0.91253 0.0
C959 C 0.28071 0.60743 0.90174 0.0
C960 C 0.28949 0.60808 0.87754 0.0
C961 C 0.28999 0.62774 0.86424 0.0
C962 C 0.29859 0.55769 0.9382 0.0
C963 C 0.27901 0.55179 0.95006 0.0
C964 C 0.29902 0.57511 0.92128 0.0
C965 C 0.27994 0.58698 0.91625 0.0
C966 C 0.26027 0.58044 0.9272 0.0
C967 C 0.25977 0.56297 0.94378 0.0
H968 H 0.36559 0.29142 0.91358 0.0
H969 H 0.3625 0.22319 0.8936 0.0
H970 H 0.40112 0.28575 0.93228 0.0
H971 H 0.39846 0.21746 0.91248 0.0
H972 H 0.45274 0.21665 0.97622 0.0
H973 H 0.41804 0.21781 0.95337 0.0
H974 H 0.43779 0.27817 0.91858 0.0
H975 H 0.4718 0.27728 0.94171 0.0
C976 C 0.37263 0.27522 0.91289 0.0
C977 C 0.3613 0.25784 0.90175 0.0
C978 C 0.39306 0.27195 0.92363 0.0
C979 C 0.40285 0.25121 0.92352 0.0
C980 C 0.39137 0.23363 0.9129 0.0
C981 C 0.37078 0.23692 0.9021 0.0
C982 C 0.44977 0.22986 0.96326 0.0
C983 C 0.4648 0.24702 0.96098 0.0
C984 C 0.42991 0.23056 0.95021 0.0
C985 C 0.42493 0.24837 0.9346 0.0
C986 C 0.4408 0.26456 0.931 0.0
C987 C 0.46038 0.26397 0.94413 0.0
H988 H 0.74211 0.37383 0.88657 0.0
H989 H 0.72029 0.42572 0.83791 0.0
H990 H 0.74708 0.40008 0.92023 0.0
H991 H 0.72431 0.45172 0.87225 0.0
H992 H 0.7087 0.48155 0.95191 0.0
H993 H 0.70538 0.45646 0.91636 0.0
H994 H 0.77122 0.43426 0.92868 0.0
H995 H 0.77473 0.45943 0.96385 0.0
C996 C 0.73868 0.39083 0.88282 0.0
C997 C 0.73084 0.39756 0.85933 0.0
C998 C 0.74136 0.40583 0.90226 0.0
C999 C 0.73594 0.42786 0.89884 0.0
C1000 C 0.72833 0.43474 0.87542 0.0
C1001 C 0.726 0.4198 0.8558 0.0
C1002 C 0.72245 0.47132 0.94699 0.0
C1003 C 0.74196 0.47245 0.96066 0.0
C1004 C 0.72059 0.4571 0.92659 0.0
C1005 C 0.73807 0.44349 0.91983 0.0
C1006 C 0.7575 0.44453 0.93359 0.0
C1007 C 0.75949 0.45898 0.95365 0.0
H1008 H 0.64707 0.3026 0.12613 0.0
H1009 H 0.65743 0.23379 0.13819 0.0
H1010 H 0.61601 0.29451 0.09967 0.0
H1011 H 0.62567 0.22553 0.11186 0.0
H1012 H 0.57869 0.22332 0.04137 0.0
H1013 H 0.61053 0.22696 0.06899 0.0
H1014 H 0.57975 0.28176 0.1057 0.0
H1015 H 0.54877 0.27861 0.07782 0.0
C1016 C 0.64254 0.2857 0.12327 0.0
C1017 C 0.65445 0.26885 0.13457 0.0
C1018 C 0.62467 0.28103 0.10815 0.0
C1019 C 0.61799 0.25936 0.10406 0.0
C1020 C 0.63035 0.24238 0.11464 0.0
C1021 C 0.64849 0.2471 0.12973 0.0
C1022 C 0.57872 0.23589 0.05564 0.0
C1023 C 0.56147 0.25089 0.05724 0.0
C1024 C 0.59691 0.23799 0.07144 0.0
C1025 C 0.59794 0.25501 0.08916 0.0
C1026 C 0.57988 0.26894 0.09174 0.0
C1027 C 0.56202 0.26703 0.07587 0.0
H1028 H 0.70884 0.65046 0.13852 0.0
H1029 H 0.74818 0.61483 0.19146 0.0
H1030 H 0.71192 0.62051 0.10879 0.0
H1031 H 0.751 0.58449 0.16165 0.0
H1032 H 0.77349 0.55158 0.08673 0.0
H1033 H 0.76878 0.5784 0.11999 0.0
H1034 H 0.70003 0.58206 0.10339 0.0
H1035 H 0.70471 0.5553 0.06993 0.0
C1036 C 0.7182 0.6362 0.14377 0.0
C1037 C 0.72849 0.63507 0.1672 0.0
C1038 C 0.71972 0.61894 0.12686 0.0
C1039 C 0.73164 0.60013 0.13292 0.0
C1040 C 0.7418 0.59885 0.15644 0.0
C1041 C 0.74011 0.61612 0.17352 0.0
C1042 C 0.75732 0.55797 0.09026 0.0
C1043 C 0.73949 0.55145 0.07553 0.0
C1044 C 0.75462 0.57322 0.10946 0.0
C1045 C 0.73407 0.58239 0.11422 0.0
C1046 C 0.71612 0.57543 0.09995 0.0
C1047 C 0.71878 0.56004 0.08087 0.0
H1048 H 0.3675 0.79289 0.13005 0.0
H1049 H 0.3964 0.73 0.14446 0.0
H1050 H 0.40028 0.80398 0.10734 0.0
H1051 H 0.42862 0.74055 0.12121 0.0
H1052 H 0.49072 0.76559 0.09315 0.0
H1053 H 0.45984 0.76189 0.12141 0.0
H1054 H 0.41972 0.79823 0.06967 0.0
H1055 H 0.45129 0.80296 0.04222 0.0
C1056 C 0.38086 0.78144 0.12829 0.0
C1057 C 0.37946 0.76063 0.13918 0.0
C1058 C 0.39963 0.78775 0.11523 0.0
C1059 C 0.41731 0.77328 0.11253 0.0
C1060 C 0.41572 0.75245 0.12343 0.0
C1061 C 0.39715 0.74629 0.1367 0.0
C1062 C 0.47543 0.77335 0.0883 0.0
C1063 C 0.47331 0.78466 0.06571 0.0
C1064 C 0.45761 0.77097 0.10427 0.0
C1065 C 0.43702 0.77925 0.09762 0.0
C1066 C 0.43528 0.79171 0.07557 0.0
C1067 C 0.45334 0.79449 0.05981 0.0
H1068 H 0.25515 0.38624 0.14555 0.0
H1069 H 0.32554 0.38445 0.14632 0.0
H1070 H 0.25621 0.41815 0.11881 0.0
H1071 H 0.32661 0.41728 0.12088 0.0
H1072 H 0.26143 0.48359 0.08487 0.0
H1073 H 0.26415 0.45564 0.11686 0.0
H1074 H 0.31998 0.4281 0.07887 0.0
H1075 H 0.31775 0.45686 0.0474 0.0
C1076 C 0.27086 0.39279 0.14027 0.0
C1077 C 0.29023 0.38266 0.14805 0.0
C1078 C 0.2715 0.41133 0.12518 0.0
C1079 C 0.29153 0.42039 0.11766 0.0
C1080 C 0.3109 0.41063 0.12605 0.0
C1081 C 0.31027 0.39196 0.14099 0.0
C1082 C 0.27451 0.47176 0.0836 0.0
C1083 C 0.28927 0.47224 0.06355 0.0
C1084 C 0.27596 0.45562 0.10183 0.0
C1085 C 0.29199 0.4393 0.10023 0.0
C1086 C 0.3075 0.44047 0.08083 0.0
C1087 C 0.30623 0.4569 0.06274 0.0
H1088 H 0.39557 0.2654 0.16807 0.0
H1089 H 0.36226 0.30192 0.11067 0.0
H1090 H 0.42924 0.26686 0.14343 0.0
H1091 H 0.39556 0.30306 0.08603 0.0
H1092 H 0.46277 0.31783 0.05691 0.0
H1093 H 0.43269 0.31918 0.08681 0.0
H1094 H 0.44186 0.2508 0.10289 0.0
H1095 H 0.47196 0.24943 0.07328 0.0
C1096 C 0.39548 0.27375 0.15025 0.0
C1097 C 0.37627 0.28331 0.14113 0.0
C1098 C 0.41467 0.27453 0.13614 0.0
C1099 C 0.41502 0.28514 0.11285 0.0
C1100 C 0.39588 0.29501 0.10402 0.0
C1101 C 0.37673 0.29407 0.11797 0.0
C1102 C 0.45856 0.30317 0.06707 0.0
C1103 C 0.4696 0.28349 0.06254 0.0
C1104 C 0.44128 0.30392 0.08409 0.0
C1105 C 0.43485 0.28505 0.09704 0.0
C1106 C 0.44655 0.26563 0.09334 0.0
C1107 C 0.46369 0.26484 0.07622 0.0
H1108 H 0.79237 0.36047 0.13305 0.0
H1109 H 0.72861 0.38739 0.14735 0.0
H1110 H 0.80176 0.3928 0.10841 0.0
H1111 H 0.73743 0.419 0.12225 0.0
H1112 H 0.76019 0.48162 0.0932 0.0
H1113 H 0.75766 0.45095 0.12181 0.0
H1114 H 0.79481 0.4113 0.07012 0.0
H1115 H 0.79841 0.44279 0.04222 0.0
C1116 C 0.78038 0.37329 0.13085 0.0
C1117 C 0.75987 0.37157 0.14237 0.0
C1118 C 0.7857 0.39177 0.11668 0.0
C1119 C 0.77049 0.40876 0.11353 0.0
C1120 C 0.74988 0.40671 0.12484 0.0
C1121 C 0.74472 0.38848 0.13918 0.0
C1122 C 0.76825 0.46646 0.08832 0.0
C1123 C 0.77948 0.46445 0.06564 0.0
C1124 C 0.76659 0.44877 0.10453 0.0
C1125 C 0.77552 0.42837 0.09805 0.0
C1126 C 0.78779 0.42673 0.07583 0.0
C1127 C 0.78988 0.44471 0.05982 0.0
H1128 H 0.61145 0.73765 0.19225 0.0
H1129 H 0.65992 0.72432 0.13576 0.0
H1130 H 0.58353 0.74087 0.15959 0.0
H1131 H 0.63203 0.7272 0.10325 0.0
H1132 H 0.56967 0.71014 0.05758 0.0
H1133 H 0.59611 0.70535 0.09155 0.0
H1134 H 0.57804 0.7681 0.12187 0.0
H1135 H 0.55201 0.7731 0.08789 0.0
C1136 C 0.61607 0.73545 0.17286 0.0
C1137 C 0.63779 0.73097 0.16642 0.0
C1138 C 0.60018 0.73727 0.15426 0.0
C1139 C 0.60569 0.73414 0.129 0.0
C1140 C 0.62737 0.72948 0.12262 0.0
C1141 C 0.64331 0.72809 0.14114 0.0
C1142 C 0.57128 0.7228 0.07161 0.0
C1143 C 0.55892 0.74203 0.07005 0.0
C1144 C 0.58642 0.72012 0.09092 0.0
C1145 C 0.58904 0.73639 0.10922 0.0
C1146 C 0.57621 0.75528 0.10806 0.0
C1147 C 0.56144 0.75817 0.08854 0.0
H1148 H 0.27199 0.67559 0.09485 0.0
H1149 H 0.25873 0.63611 0.15981 0.0
H1150 H 0.26357 0.64453 0.06779 0.0
H1151 H 0.25031 0.605 0.13267 0.0
H1152 H 0.2222 0.55822 0.07167 0.0
H1153 H 0.22394 0.59138 0.09758 0.0
H1154 H 0.28471 0.60891 0.06237 0.0
H1155 H 0.28318 0.57601 0.03696 0.0
C1156 C 0.26683 0.66041 0.10332 0.0
C1157 C 0.26614 0.65824 0.12945 0.0
C1158 C 0.26215 0.64261 0.08784 0.0
C1159 C 0.2564 0.62233 0.09814 0.0
C1160 C 0.25457 0.62046 0.12422 0.0
C1161 C 0.25955 0.6382 0.13973 0.0
C1162 C 0.23582 0.56927 0.06942 0.0
C1163 C 0.2526 0.56445 0.05238 0.0
C1164 C 0.23684 0.58816 0.08427 0.0
C1165 C 0.2544 0.60276 0.08188 0.0
C1166 C 0.27085 0.59812 0.06443 0.0
C1167 C 0.27004 0.57916 0.05001 0.0
H1168 H 0.37167 0.77961 0.90513 0.0
H1169 H 0.39193 0.72027 0.86816 0.0
H1170 H 0.40527 0.77964 0.92937 0.0
H1171 H 0.42591 0.72062 0.89195 0.0
H1172 H 0.46761 0.71506 0.96498 0.0
H1173 H 0.43683 0.71495 0.93597 0.0
H1174 H 0.44451 0.7843 0.925 0.0
H1175 H 0.47487 0.78453 0.95412 0.0
C1176 C 0.38343 0.7667 0.90201 0.0
C1177 C 0.37915 0.74993 0.88479 0.0
C1178 C 0.40276 0.7668 0.91574 0.0
C1179 C 0.41825 0.7501 0.91259 0.0
C1180 C 0.41421 0.73359 0.89494 0.0
C1181 C 0.39488 0.73355 0.88111 0.0
C1182 C 0.46285 0.73022 0.95616 0.0
C1183 C 0.47354 0.74983 0.96207 0.0
C1184 C 0.44529 0.73015 0.93947 0.0
C1185 C 0.43812 0.74967 0.92838 0.0
C1186 C 0.44939 0.76907 0.93358 0.0
C1187 C 0.46686 0.76916 0.95021 0.0
H1188 H 0.25092 0.34642 0.94241 0.0
H1189 H 0.24278 0.37646 0.86989 0.0
H1190 H 0.24405 0.3814 0.96244 0.0
H1191 H 0.23711 0.41169 0.89022 0.0
H1192 H 0.26678 0.46895 0.94055 0.0
H1193 H 0.26447 0.43483 0.91711 0.0
H1194 H 0.21392 0.41229 0.96683 0.0
H1195 H 0.21588 0.44689 0.99008 0.0
C1196 C 0.24727 0.36029 0.93065 0.0
C1197 C 0.24755 0.35841 0.90438 0.0
C1198 C 0.24339 0.3804 0.94223 0.0
C1199 C 0.24005 0.39923 0.92788 0.0
C1200 C 0.23976 0.39741 0.90172 0.0
C1201 C 0.24323 0.37722 0.8901 0.0
C1202 C 0.25484 0.4569 0.94616 0.0
C1203 C 0.24151 0.46052 0.96711 0.0
C1204 C 0.25347 0.43742 0.93269 0.0
C1205 C 0.23906 0.42092 0.9402 0.0
C1206 C 0.22519 0.42477 0.9607 0.0
C1207 C 0.22621 0.44456 0.97387 0.0
H1208 H 0.61612 0.28386 0.83697 0.0
H1209 H 0.6511 0.32436 0.88951 0.0
H1210 H 0.58675 0.27934 0.86753 0.0
H1211 H 0.62207 0.31956 0.92007 0.0
H1212 H 0.55626 0.32403 0.95928 0.0
H1213 H 0.58319 0.32985 0.92632 0.0
H1214 H 0.58213 0.26105 0.9089 0.0
H1215 H 0.55518 0.2552 0.94163 0.0
C1216 C 0.6175 0.29179 0.85501 0.0
C1217 C 0.63596 0.30431 0.86094 0.0
C1218 C 0.60079 0.28912 0.87252 0.0
C1219 C 0.60212 0.29913 0.89616 0.0
C1220 C 0.62047 0.31183 0.90193 0.0
C1221 C 0.63722 0.31435 0.88455 0.0
C1222 C 0.56167 0.31018 0.94831 0.0
C1223 C 0.55367 0.28914 0.95317 0.0
C1224 C 0.57715 0.31349 0.92953 0.0
C1225 C 0.58479 0.29588 0.9151 0.0
C1226 C 0.5764 0.27496 0.91956 0.0
C1227 C 0.56107 0.27161 0.93844 0.0
H1228 H 0.7572 0.67453 0.93002 0.0
H1229 H 0.78256 0.63639 0.86853 0.0
H1230 H 0.76486 0.6446 0.95852 0.0
H1231 H 0.78974 0.60613 0.89715 0.0
H1232 H 0.81038 0.55998 0.96214 0.0
H1233 H 0.81086 0.593 0.93602 0.0
H1234 H 0.7458 0.60874 0.96092 0.0
H1235 H 0.74526 0.57623 0.98657 0.0
C1236 C 0.76487 0.65996 0.92264 0.0
C1237 C 0.76909 0.65781 0.89692 0.0
C1238 C 0.76908 0.64273 0.93897 0.0
C1239 C 0.77767 0.62293 0.93002 0.0
C1240 C 0.78318 0.62121 0.9046 0.0
C1241 C 0.77886 0.63846 0.88819 0.0
C1242 C 0.79632 0.57065 0.96212 0.0
C1243 C 0.77776 0.56545 0.97631 0.0
C1244 C 0.79656 0.58945 0.94714 0.0
C1245 C 0.77842 0.60352 0.94657 0.0
C1246 C 0.76015 0.59845 0.96122 0.0
C1247 C 0.75979 0.57966 0.97577 0.0
loop_
_geom_bond_atom_site_label_1
_geom_bond_atom_site_label_2
_geom_bond_distance
_geom_bond_site_symmetry_2
_ccdc_geom_bond_type
H0 C27 0.929 . S
N1 C26 1.433 . S
N1 C32 1.435 . S
N1 C38 1.423 . S
H2 C28 0.930 . S
H3 C31 0.931 . S
H4 C30 0.929 . S
H5 C33 0.930 . S
H6 C34 0.932 . S
H7 C37 0.929 . S
H8 C36 0.931 . S
H9 C39 0.929 . S
H10 C43 0.932 . S
H11 C40 0.931 . S
H12 C42 0.929 . S
H13 C45 0.929 . S
H14 C46 0.930 . S
H15 C48 0.929 . S
H16 C49 0.931 . S
H17 C51 0.930 . S
H18 C52 0.932 . S
H19 C54 0.931 . S
H20 C55 0.929 . S
H21 C57 0.929 . S
H22 C58 0.931 . S
H23 C60 0.929 . S
N24 C44 1.433 . S
N24 C50 1.435 . S
N24 C56 1.423 . S
H25 C61 0.932 . S
C26 N1 1.433 . S
C26 C27 1.363 . S
C26 C31 1.370 . S
C27 H0 0.929 . S
C27 C26 1.363 . S
C27 C28 1.385 . S
C28 H2 0.930 . S
C28 C27 1.385 . S
C28 C29 1.357 . S
C29 C28 1.357 . S
C29 C30 1.406 . S
C30 H4 0.929 . S
C30 C29 1.406 . S
C30 C31 1.391 . S
C31 H3 0.931 . S
C31 C26 1.370 . S
C31 C30 1.391 . S
C32 N1 1.435 . S
C32 C33 1.358 . S
C32 C37 1.371 . S
C33 H5 0.930 . S
C33 C32 1.358 . S
C33 C34 1.405 . S
C34 H6 0.932 . S
C34 C33 1.405 . S
C34 C35 1.383 . S
C35 C34 1.383 . S
C35 C36 1.393 . S
C36 H8 0.931 . S
C36 C35 1.393 . S
C36 C37 1.382 . S
C37 H7 0.929 . S
C37 C32 1.371 . S
C37 C36 1.382 . S
C38 N1 1.423 . S
C38 C39 1.362 . S
C38 C43 1.388 . S
C39 H9 0.929 . S
C39 C38 1.362 . S
C39 C40 1.376 . S
C40 H11 0.931 . S
C40 C39 1.376 . S
C40 C41 1.396 . S
C41 C40 1.396 . S
C41 C42 1.348 . S
C41 C59 1.472 . S
C42 H12 0.929 . S
C42 C41 1.348 . S
C42 C43 1.443 . S
C43 H10 0.932 . S
C43 C38 1.388 . S
C43 C42 1.443 . S
C44 N24 1.433 . S
C44 C45 1.363 . S
C44 C49 1.370 . S
C45 H13 0.929 . S
C45 C44 1.363 . S
C45 C46 1.385 . S
C46 H14 0.930 . S
C46 C45 1.385 . S
C46 C47 1.357 . S
C47 C46 1.357 . S
C47 C48 1.406 . S
C48 H15 0.929 . S
C48 C47 1.406 . S
C48 C49 1.391 . S
C49 H16 0.931 . S
C49 C44 1.370 . S
C49 C48 1.391 . S
C50 N24 1.435 . S
C50 C51 1.358 . S
C50 C55 1.371 . S
C51 H17 0.930 . S
C51 C50 1.358 . S
C51 C52 1.405 . S
C52 H18 0.932 . S
C52 C51 1.405 . S
C52 C53 1.383 . S
C53 C52 1.383 . S
C53 C54 1.393 . S
C54 H19 0.931 . S
C54 C53 1.393 . S
C54 C55 1.382 . S
C55 H20 0.929 . S
C55 C50 1.371 . S
C55 C54 1.382 . S
C56 N24 1.423 . S
C56 C57 1.362 . S
C56 C61 1.388 . S
C57 H21 0.929 . S
C57 C56 1.362 . S
C57 C58 1.376 . S
C58 H22 0.931 . S
C58 C57 1.376 . S
C58 C59 1.396 . S
C59 C41 1.472 . S
C59 C58 1.396 . S
C59 C60 1.348 . S
C60 H23 0.929 . S
C60 C59 1.348 . S
C60 C61 1.443 . S
C61 H25 0.932 . S
C61 C56 1.388 . S
C61 C60 1.443 . S
H62 C89 0.929 . S
N63 C88 1.433 . S
N63 C94 1.435 . S
N63 C100 1.423 . S
H64 C90 0.930 . S
H65 C93 0.931 . S
H66 C92 0.929 . S
H67 C95 0.930 . S
H68 C96 0.932 . S
H69 C99 0.929 . S
H70 C98 0.931 . S
H71 C101 0.929 . S
H72 C105 0.932 . S
H73 C102 0.931 . S
H74 C104 0.929 . S
H75 C107 0.929 . S
H76 C108 0.930 . S
H77 C110 0.929 . S
H78 C111 0.931 . S
H79 C113 0.930 . S
H80 C114 0.932 . S
H81 C116 0.931 . S
H82 C117 0.929 . S
H83 C119 0.929 . S
H84 C120 0.931 . S
H85 C122 0.929 . S
N86 C106 1.433 . S
N86 C112 1.435 . S
N86 C118 1.423 . S
H87 C123 0.932 . S
C88 N63 1.433 . S
C88 C89 1.363 . S
C88 C93 1.370 . S
C89 H62 0.929 . S
C89 C88 1.363 . S
C89 C90 1.385 . S
C90 H64 0.930 . S
C90 C89 1.385 . S
C90 C91 1.357 . S
C91 C90 1.357 . S
C91 C92 1.406 . S
C92 H66 0.929 . S
C92 C91 1.406 . S
C92 C93 1.391 . S
C93 H65 0.931 . S
C93 C88 1.370 . S
C93 C92 1.391 . S
C94 N63 1.435 . S
C94 C95 1.358 . S
C94 C99 1.371 . S
C95 H67 0.930 . S
C95 C94 1.358 . S
C95 C96 1.405 . S
C96 H68 0.932 . S
C96 C95 1.405 . S
C96 C97 1.383 . S
C97 C96 1.383 . S
C97 C98 1.393 . S
C98 H70 0.931 . S
C98 C97 1.393 . S
C98 C99 1.382 . S
C99 H69 0.929 . S
C99 C94 1.371 . S
C99 C98 1.382 . S
C100 N63 1.423 . S
C100 C101 1.362 . S
C100 C105 1.388 . S
C101 H71 0.929 . S
C101 C100 1.362 . S
C101 C102 1.376 . S
C102 H73 0.931 . S
C102 C101 1.376 . S
C102 C103 1.396 . S
C103 C102 1.396 . S
C103 C104 1.348 . S
C103 C121 1.472 . S
C104 H74 0.929 . S
C104 C103 1.348 . S
C104 C105 1.443 . S
C105 H72 0.932 . S
C105 C100 1.388 . S
C105 C104 1.443 . S
C106 N86 1.433 . S
C106 C107 1.363 . S
C106 C111 1.370 . S
C107 H75 0.929 . S
C107 C106 1.363 . S
C107 C108 1.385 . S
C108 H76 0.930 . S
C108 C107 1.385 . S
C108 C109 1.357 . S
C109 C108 1.357 . S
C109 C110 1.406 . S
C110 H77 0.929 . S
C110 C109 1.406 . S
C110 C111 1.391 . S
C111 H78 0.931 . S
C111 C106 1.370 . S
C111 C110 1.391 . S
C112 N86 1.435 . S
C112 C113 1.358 . S
C112 C117 1.371 . S
C113 H79 0.930 . S
C113 C112 1.358 . S
C113 C114 1.405 . S
C114 H80 0.932 . S
C114 C113 1.405 . S
C114 C115 1.383 . S
C115 C114 1.383 . S
C115 C116 1.393 . S
C116 H81 0.931 . S
C116 C115 1.393 . S
C116 C117 1.382 . S
C117 H82 0.929 . S
C117 C112 1.371 . S
C117 C116 1.382 . S
C118 N86 1.423 . S
C118 C119 1.362 . S
C118 C123 1.388 . S
C119 H83 0.929 . S
C119 C118 1.362 . S
C119 C120 1.376 . S
C120 H84 0.931 . S
C120 C119 1.376 . S
C120 C121 1.396 . S
C121 C103 1.472 . S
C121 C120 1.396 . S
C121 C122 1.348 . S
C122 H85 0.929 . S
C122 C121 1.348 . S
C122 C123 1.443 . S
C123 H87 0.932 . S
C123 C118 1.388 . S
C123 C122 1.443 . S
H124 C151 0.929 . S
N125 C150 1.433 . S
N125 C156 1.435 . S
N125 C162 1.423 . S
H126 C152 0.930 . S
H127 C155 0.931 . S
H128 C154 0.929 . S
H129 C157 0.930 . S
H130 C158 0.932 . S
H131 C161 0.929 . S
H132 C160 0.931 . S
H133 C163 0.929 . S
H134 C167 0.932 . S
H135 C164 0.931 . S
H136 C166 0.929 . S
H137 C169 0.929 . S
H138 C170 0.930 . S
H139 C172 0.929 . S
H140 C173 0.931 . S
H141 C175 0.930 . S
H142 C176 0.932 . S
H143 C178 0.931 . S
H144 C179 0.929 . S
H145 C181 0.929 . S
H146 C182 0.931 . S
H147 C184 0.929 . S
N148 C168 1.433 . S
N148 C174 1.435 . S
N148 C180 1.423 . S
H149 C185 0.932 . S
C150 N125 1.433 . S
C150 C151 1.363 . S
C150 C155 1.370 . S
C151 H124 0.929 . S
C151 C150 1.363 . S
C151 C152 1.385 . S
C152 H126 0.930 . S
C152 C151 1.385 . S
C152 C153 1.357 . S
C153 C152 1.357 . S
C153 C154 1.406 . S
C154 H128 0.929 . S
C154 C153 1.406 . S
C154 C155 1.391 . S
C155 H127 0.931 . S
C155 C150 1.370 . S
C155 C154 1.391 . S
C156 N125 1.435 . S
C156 C157 1.358 . S
C156 C161 1.371 . S
C157 H129 0.930 . S
C157 C156 1.358 . S
C157 C158 1.405 . S
C158 H130 0.932 . S
C158 C157 1.405 . S
C158 C159 1.383 . S
C159 C158 1.383 . S
C159 C160 1.393 . S
C160 H132 0.931 . S
C160 C159 1.393 . S
C160 C161 1.382 . S
C161 H131 0.929 . S
C161 C156 1.371 . S
C161 C160 1.382 . S
C162 N125 1.423 . S
C162 C163 1.362 . S
C162 C167 1.388 . S
C163 H133 0.929 . S
C163 C162 1.362 . S
C163 C164 1.376 . S
C164 H135 0.931 . S
C164 C163 1.376 . S
C164 C165 1.396 . S
C165 C164 1.396 . S
C165 C166 1.348 . S
C165 C183 1.472 . S
C166 H136 0.929 . S
C166 C165 1.348 . S
C166 C167 1.443 . S
C167 H134 0.932 . S
C167 C162 1.388 . S
C167 C166 1.443 . S
C168 N148 1.433 . S
C168 C169 1.363 . S
C168 C173 1.370 . S
C169 H137 0.929 . S
C169 C168 1.363 . S
C169 C170 1.385 . S
C170 H138 0.930 . S
C170 C169 1.385 . S
C170 C171 1.357 . S
C171 C170 1.357 . S
C171 C172 1.406 . S
C172 H139 0.929 . S
C172 C171 1.406 . S
C172 C173 1.391 . S
C173 H140 0.931 . S
C173 C168 1.370 . S
C173 C172 1.391 . S
C174 N148 1.435 . S
C174 C175 1.358 . S
C174 C179 1.371 . S
C175 H141 0.930 . S
C175 C174 1.358 . S
C175 C176 1.405 . S
C176 H142 0.932 . S
C176 C175 1.405 . S
C176 C177 1.383 . S
C177 C176 1.383 . S
C177 C178 1.393 . S
C178 H143 0.931 . S
C178 C177 1.393 . S
C178 C179 1.382 . S
C179 H144 0.929 . S
C179 C174 1.371 . S
C179 C178 1.382 . S
C180 N148 1.423 . S
C180 C181 1.362 . S
C180 C185 1.388 . S
C181 H145 0.929 . S
C181 C180 1.362 . S
C181 C182 1.376 . S
C182 H146 0.931 . S
C182 C181 1.376 . S
C182 C183 1.396 . S
C183 C165 1.472 . S
C183 C182 1.396 . S
C183 C184 1.348 . S
C184 H147 0.929 . S
C184 C183 1.348 . S
C184 C185 1.443 . S
C185 H149 0.932 . S
C185 C180 1.388 . S
C185 C184 1.443 . S
H186 C213 0.929 . S
N187 C212 1.433 . S
N187 C218 1.435 . S
N187 C224 1.423 . S
H188 C214 0.930 . S
H189 C217 0.931 . S
H190 C216 0.929 . S
H191 C219 0.930 . S
H192 C220 0.932 . S
H193 C223 0.929 . S
H194 C222 0.931 . S
H195 C225 0.929 . S
H196 C229 0.932 . S
H197 C226 0.931 . S
H198 C228 0.929 . S
H199 C231 0.929 . S
H200 C232 0.930 . S
H201 C234 0.929 . S
H202 C235 0.931 . S
H203 C237 0.930 . S
H204 C238 0.932 . S
H205 C240 0.931 . S
H206 C241 0.929 . S
H207 C243 0.929 . S
H208 C244 0.931 . S
H209 C246 0.929 . S
N210 C230 1.433 . S
N210 C236 1.435 . S
N210 C242 1.423 . S
H211 C247 0.932 . S
C212 N187 1.433 . S
C212 C213 1.363 . S
C212 C217 1.370 . S
C213 H186 0.929 . S
C213 C212 1.363 . S
C213 C214 1.385 . S
C214 H188 0.930 . S
C214 C213 1.385 . S
C214 C215 1.357 . S
C215 C214 1.357 . S
C215 C216 1.406 . S
C216 H190 0.929 . S
C216 C215 1.406 . S
C216 C217 1.391 . S
C217 H189 0.931 . S
C217 C212 1.370 . S
C217 C216 1.391 . S
C218 N187 1.435 . S
C218 C219 1.358 . S
C218 C223 1.371 . S
C219 H191 0.930 . S
C219 C218 1.358 . S
C219 C220 1.405 . S
C220 H192 0.932 . S
C220 C219 1.405 . S
C220 C221 1.383 . S
C221 C220 1.383 . S
C221 C222 1.393 . S
C222 H194 0.931 . S
C222 C221 1.393 . S
C222 C223 1.382 . S
C223 H193 0.929 . S
C223 C218 1.371 . S
C223 C222 1.382 . S
C224 N187 1.423 . S
C224 C225 1.362 . S
C224 C229 1.388 . S
C225 H195 0.929 . S
C225 C224 1.362 . S
C225 C226 1.376 . S
C226 H197 0.931 . S
C226 C225 1.376 . S
C226 C227 1.396 . S
C227 C226 1.396 . S
C227 C228 1.348 . S
C227 C245 1.472 . S
C228 H198 0.929 . S
C228 C227 1.348 . S
C228 C229 1.443 . S
C229 H196 0.932 . S
C229 C224 1.388 . S
C229 C228 1.443 . S
C230 N210 1.433 . S
C230 C231 1.363 . S
C230 C235 1.370 . S
C231 H199 0.929 . S
C231 C230 1.363 . S
C231 C232 1.385 . S
C232 H200 0.930 . S
C232 C231 1.385 . S
C232 C233 1.357 . S
C233 C232 1.357 . S
C233 C234 1.406 . S
C234 H201 0.929 . S
C234 C233 1.406 . S
C234 C235 1.391 . S
C235 H202 0.931 . S
C235 C230 1.370 . S
C235 C234 1.391 . S
C236 N210 1.435 . S
C236 C237 1.358 . S
C236 C241 1.371 . S
C237 H203 0.930 . S
C237 C236 1.358 . S
C237 C238 1.405 . S
C238 H204 0.932 . S
C238 C237 1.405 . S
C238 C239 1.383 . S
C239 C238 1.383 . S
C239 C240 1.393 . S
C240 H205 0.931 . S
C240 C239 1.393 . S
C240 C241 1.382 . S
C241 H206 0.929 . S
C241 C236 1.371 . S
C241 C240 1.382 . S
C242 N210 1.423 . S
C242 C243 1.362 . S
C242 C247 1.388 . S
C243 H207 0.929 . S
C243 C242 1.362 . S
C243 C244 1.376 . S
C244 H208 0.931 . S
C244 C243 1.376 . S
C244 C245 1.396 . S
C245 C227 1.472 . S
C245 C244 1.396 . S
C245 C246 1.348 . S
C246 H209 0.929 . S
C246 C245 1.348 . S
C246 C247 1.443 . S
C247 H211 0.932 . S
C247 C242 1.388 . S
C247 C246 1.443 . S
H248 C275 0.929 . S
N249 C274 1.433 . S
N249 C280 1.435 . S
N249 C286 1.423 . S
H250 C276 0.930 . S
H251 C279 0.931 . S
H252 C278 0.929 . S
H253 C281 0.930 . S
H254 C282 0.932 . S
H255 C285 0.929 . S
H256 C284 0.931 . S
H257 C287 0.929 . S
H258 C291 0.932 . S
H259 C288 0.931 . S
H260 C290 0.929 . S
H261 C293 0.929 . S
H262 C294 0.930 . S
H263 C296 0.929 . S
H264 C297 0.931 . S
H265 C299 0.930 . S
H266 C300 0.932 . S
H267 C302 0.931 . S
H268 C303 0.929 . S
H269 C305 0.929 . S
H270 C306 0.931 . S
H271 C308 0.929 . S
N272 C292 1.433 . S
N272 C298 1.435 . S
N272 C304 1.423 . S
H273 C309 0.932 . S
C274 N249 1.433 . S
C274 C275 1.363 . S
C274 C279 1.370 . S
C275 H248 0.929 . S
C275 C274 1.363 . S
C275 C276 1.385 . S
C276 H250 0.930 . S
C276 C275 1.385 . S
C276 C277 1.357 . S
C277 C276 1.357 . S
C277 C278 1.406 . S
C278 H252 0.929 . S
C278 C277 1.406 . S
C278 C279 1.391 . S
C279 H251 0.931 . S
C279 C274 1.370 . S
C279 C278 1.391 . S
C280 N249 1.435 . S
C280 C281 1.358 . S
C280 C285 1.371 . S
C281 H253 0.930 . S
C281 C280 1.358 . S
C281 C282 1.405 . S
C282 H254 0.932 . S
C282 C281 1.405 . S
C282 C283 1.383 . S
C283 C282 1.383 . S
C283 C284 1.393 . S
C284 H256 0.931 . S
C284 C283 1.393 . S
C284 C285 1.382 . S
C285 H255 0.929 . S
C285 C280 1.371 . S
C285 C284 1.382 . S
C286 N249 1.423 . S
C286 C287 1.362 . S
C286 C291 1.388 . S
C287 H257 0.929 . S
C287 C286 1.362 . S
C287 C288 1.376 . S
C288 H259 0.931 . S
C288 C287 1.376 . S
C288 C289 1.396 . S
C289 C288 1.396 . S
C289 C290 1.348 . S
C289 C307 1.472 . S
C290 H260 0.929 . S
C290 C289 1.348 . S
C290 C291 1.443 . S
C291 H258 0.932 . S
C291 C286 1.388 . S
C291 C290 1.443 . S
C292 N272 1.433 . S
C292 C293 1.363 . S
C292 C297 1.370 . S
C293 H261 0.929 . S
C293 C292 1.363 . S
C293 C294 1.385 . S
C294 H262 0.930 . S
C294 C293 1.385 . S
C294 C295 1.357 . S
C295 C294 1.357 . S
C295 C296 1.406 . S
C296 H263 0.929 . S
C296 C295 1.406 . S
C296 C297 1.391 . S
C297 H264 0.931 . S
C297 C292 1.370 . S
C297 C296 1.391 . S
C298 N272 1.435 . S
C298 C299 1.358 . S
C298 C303 1.371 . S
C299 H265 0.930 . S
C299 C298 1.358 . S
C299 C300 1.405 . S
C300 H266 0.932 . S
C300 C299 1.405 . S
C300 C301 1.383 . S
C301 C300 1.383 . S
C301 C302 1.393 . S
C302 H267 0.931 . S
C302 C301 1.393 . S
C302 C303 1.382 . S
C303 H268 0.929 . S
C303 C298 1.371 . S
C303 C302 1.382 . S
C304 N272 1.423 . S
C304 C305 1.362 . S
C304 C309 1.388 . S
C305 H269 0.929 . S
C305 C304 1.362 . S
C305 C306 1.376 . S
C306 H270 0.931 . S
C306 C305 1.376 . S
C306 C307 1.396 . S
C307 C289 1.472 . S
C307 C306 1.396 . S
C307 C308 1.348 . S
C308 H271 0.929 . S
C308 C307 1.348 . S
C308 C309 1.443 . S
C309 H273 0.932 . S
C309 C304 1.388 . S
C309 C308 1.443 . S
H310 C337 0.929 . S
N311 C336 1.433 . S
N311 C342 1.435 . S
N311 C348 1.423 . S
H312 C338 0.930 . S
H313 C341 0.931 . S
H314 C340 0.929 . S
H315 C343 0.930 . S
H316 C344 0.932 . S
H317 C347 0.929 . S
H318 C346 0.931 . S
H319 C349 0.929 . S
H320 C353 0.932 . S
H321 C350 0.931 . S
H322 C352 0.929 . S
H323 C355 0.929 . S
H324 C356 0.930 . S
H325 C358 0.929 . S
H326 C359 0.931 . S
H327 C361 0.930 . S
H328 C362 0.932 . S
H329 C364 0.931 . S
H330 C365 0.929 . S
H331 C367 0.929 . S
H332 C368 0.931 . S
H333 C370 0.929 . S
N334 C354 1.433 . S
N334 C360 1.435 . S
N334 C366 1.423 . S
H335 C371 0.932 . S
C336 N311 1.433 . S
C336 C337 1.363 . S
C336 C341 1.370 . S
C337 H310 0.929 . S
C337 C336 1.363 . S
C337 C338 1.385 . S
C338 H312 0.930 . S
C338 C337 1.385 . S
C338 C339 1.357 . S
C339 C338 1.357 . S
C339 C340 1.406 . S
C340 H314 0.929 . S
C340 C339 1.406 . S
C340 C341 1.391 . S
C341 H313 0.931 . S
C341 C336 1.370 . S
C341 C340 1.391 . S
C342 N311 1.435 . S
C342 C343 1.358 . S
C342 C347 1.371 . S
C343 H315 0.930 . S
C343 C342 1.358 . S
C343 C344 1.405 . S
C344 H316 0.932 . S
C344 C343 1.405 . S
C344 C345 1.383 . S
C345 C344 1.383 . S
C345 C346 1.393 . S
C346 H318 0.931 . S
C346 C345 1.393 . S
C346 C347 1.382 . S
C347 H317 0.929 . S
C347 C342 1.371 . S
C347 C346 1.382 . S
C348 N311 1.423 . S
C348 C349 1.362 . S
C348 C353 1.388 . S
C349 H319 0.929 . S
C349 C348 1.362 . S
C349 C350 1.376 . S
C350 H321 0.931 . S
C350 C349 1.376 . S
C350 C351 1.396 . S
C351 C350 1.396 . S
C351 C352 1.348 . S
C351 C369 1.472 . S
C352 H322 0.929 . S
C352 C351 1.348 . S
C352 C353 1.443 . S
C353 H320 0.932 . S
C353 C348 1.388 . S
C353 C352 1.443 . S
C354 N334 1.433 . S
C354 C355 1.363 . S
C354 C359 1.370 . S
C355 H323 0.929 . S
C355 C354 1.363 . S
C355 C356 1.385 . S
C356 H324 0.930 . S
C356 C355 1.385 . S
C356 C357 1.357 . S
C357 C356 1.357 . S
C357 C358 1.406 . S
C358 H325 0.929 . S
C358 C357 1.406 . S
C358 C359 1.391 . S
C359 H326 0.931 . S
C359 C354 1.370 . S
C359 C358 1.391 . S
C360 N334 1.435 . S
C360 C361 1.358 . S
C360 C365 1.371 . S
C361 H327 0.930 . S
C361 C360 1.358 . S
C361 C362 1.405 . S
C362 H328 0.932 . S
C362 C361 1.405 . S
C362 C363 1.383 . S
C363 C362 1.383 . S
C363 C364 1.393 . S
C364 H329 0.931 . S
C364 C363 1.393 . S
C364 C365 1.382 . S
C365 H330 0.929 . S
C365 C360 1.371 . S
C365 C364 1.382 . S
C366 N334 1.423 . S
C366 C367 1.362 . S
C366 C371 1.388 . S
C367 H331 0.929 . S
C367 C366 1.362 . S
C367 C368 1.376 . S
C368 H332 0.931 . S
C368 C367 1.376 . S
C368 C369 1.396 . S
C369 C351 1.472 . S
C369 C368 1.396 . S
C369 C370 1.348 . S
C370 H333 0.929 . S
C370 C369 1.348 . S
C370 C371 1.443 . S
C371 H335 0.932 . S
C371 C366 1.388 . S
C371 C370 1.443 . S
H372 C399 0.929 . S
N373 C398 1.433 . S
N373 C404 1.435 . S
N373 C410 1.423 . S
H374 C400 0.930 . S
H375 C403 0.931 . S
H376 C402 0.929 . S
H377 C405 0.930 . S
H378 C406 0.932 . S
H379 C409 0.929 . S
H380 C408 0.931 . S
H381 C411 0.929 . S
H382 C415 0.932 . S
H383 C412 0.931 . S
H384 C414 0.929 . S
H385 C417 0.929 . S
H386 C418 0.930 . S
H387 C420 0.929 . S
H388 C421 0.931 . S
H389 C423 0.930 . S
H390 C424 0.932 . S
H391 C426 0.931 . S
H392 C427 0.929 . S
H393 C429 0.929 . S
H394 C430 0.931 . S
H395 C432 0.929 . S
N396 C416 1.433 . S
N396 C422 1.435 . S
N396 C428 1.423 . S
H397 C433 0.932 . S
C398 N373 1.433 . S
C398 C399 1.363 . S
C398 C403 1.370 . S
C399 H372 0.929 . S
C399 C398 1.363 . S
C399 C400 1.385 . S
C400 H374 0.930 . S
C400 C399 1.385 . S
C400 C401 1.357 . S
C401 C400 1.357 . S
C401 C402 1.406 . S
C402 H376 0.929 . S
C402 C401 1.406 . S
C402 C403 1.391 . S
C403 H375 0.931 . S
C403 C398 1.370 . S
C403 C402 1.391 . S
C404 N373 1.435 . S
C404 C405 1.358 . S
C404 C409 1.371 . S
C405 H377 0.930 . S
C405 C404 1.358 . S
C405 C406 1.405 . S
C406 H378 0.932 . S
C406 C405 1.405 . S
C406 C407 1.383 . S
C407 C406 1.383 . S
C407 C408 1.393 . S
C408 H380 0.931 . S
C408 C407 1.393 . S
C408 C409 1.382 . S
C409 H379 0.929 . S
C409 C404 1.371 . S
C409 C408 1.382 . S
C410 N373 1.423 . S
C410 C411 1.362 . S
C410 C415 1.388 . S
C411 H381 0.929 . S
C411 C410 1.362 . S
C411 C412 1.376 . S
C412 H383 0.931 . S
C412 C411 1.376 . S
C412 C413 1.396 . S
C413 C412 1.396 . S
C413 C414 1.348 . S
C413 C431 1.472 . S
C414 H384 0.929 . S
C414 C413 1.348 . S
C414 C415 1.443 . S
C415 H382 0.932 . S
C415 C410 1.388 . S
C415 C414 1.443 . S
C416 N396 1.433 . S
C416 C417 1.363 . S
C416 C421 1.370 . S
C417 H385 0.929 . S
C417 C416 1.363 . S
C417 C418 1.385 . S
C418 H386 0.930 . S
C418 C417 1.385 . S
C418 C419 1.357 . S
C419 C418 1.357 . S
C419 C420 1.406 . S
C420 H387 0.929 . S
C420 C419 1.406 . S
C420 C421 1.391 . S
C421 H388 0.931 . S
C421 C416 1.370 . S
C421 C420 1.391 . S
C422 N396 1.435 . S
C422 C423 1.358 . S
C422 C427 1.371 . S
C423 H389 0.930 . S
C423 C422 1.358 . S
C423 C424 1.405 . S
C424 H390 0.932 . S
C424 C423 1.405 . S
C424 C425 1.383 . S
C425 C424 1.383 . S
C425 C426 1.393 . S
C426 H391 0.931 . S
C426 C425 1.393 . S
C426 C427 1.382 . S
C427 H392 0.929 . S
C427 C422 1.371 . S
C427 C426 1.382 . S
C428 N396 1.423 . S
C428 C429 1.362 . S
C428 C433 1.388 . S
C429 H393 0.929 . S
C429 C428 1.362 . S
C429 C430 1.376 . S
C430 H394 0.931 . S
C430 C429 1.376 . S
C430 C431 1.396 . S
C431 C413 1.472 . S
C431 C430 1.396 . S
C431 C432 1.348 . S
C432 H395 0.929 . S
C432 C431 1.348 . S
C432 C433 1.443 . S
C433 H397 0.932 . S
C433 C428 1.388 . S
C433 C432 1.443 . S
H434 C461 0.929 . S
N435 C460 1.433 . S
N435 C466 1.435 . S
N435 C472 1.423 . S
H436 C462 0.930 . S
H437 C465 0.931 . S
H438 C464 0.929 . S
H439 C467 0.930 . S
H440 C468 0.932 . S
H441 C471 0.929 . S
H442 C470 0.931 . S
H443 C473 0.929 . S
H444 C477 0.932 . S
H445 C474 0.931 . S
H446 C476 0.929 . S
H447 C479 0.929 . S
H448 C480 0.930 . S
H449 C482 0.929 . S
H450 C483 0.931 . S
H451 C485 0.930 . S
H452 C486 0.932 . S
H453 C488 0.931 . S
H454 C489 0.929 . S
H455 C491 0.929 . S
H456 C492 0.931 . S
H457 C494 0.929 . S
N458 C478 1.433 . S
N458 C484 1.435 . S
N458 C490 1.423 . S
H459 C495 0.932 . S
C460 N435 1.433 . S
C460 C461 1.363 . S
C460 C465 1.370 . S
C461 H434 0.929 . S
C461 C460 1.363 . S
C461 C462 1.385 . S
C462 H436 0.930 . S
C462 C461 1.385 . S
C462 C463 1.357 . S
C463 C462 1.357 . S
C463 C464 1.406 . S
C464 H438 0.929 . S
C464 C463 1.406 . S
C464 C465 1.391 . S
C465 H437 0.931 . S
C465 C460 1.370 . S
C465 C464 1.391 . S
C466 N435 1.435 . S
C466 C467 1.358 . S
C466 C471 1.371 . S
C467 H439 0.930 . S
C467 C466 1.358 . S
C467 C468 1.405 . S
C468 H440 0.932 . S
C468 C467 1.405 . S
C468 C469 1.383 . S
C469 C468 1.383 . S
C469 C470 1.393 . S
C470 H442 0.931 . S
C470 C469 1.393 . S
C470 C471 1.382 . S
C471 H441 0.929 . S
C471 C466 1.371 . S
C471 C470 1.382 . S
C472 N435 1.423 . S
C472 C473 1.362 . S
C472 C477 1.388 . S
C473 H443 0.929 . S
C473 C472 1.362 . S
C473 C474 1.376 . S
C474 H445 0.931 . S
C474 C473 1.376 . S
C474 C475 1.396 . S
C475 C474 1.396 . S
C475 C476 1.348 . S
C475 C493 1.472 . S
C476 H446 0.929 . S
C476 C475 1.348 . S
C476 C477 1.443 . S
C477 H444 0.932 . S
C477 C472 1.388 . S
C477 C476 1.443 . S
C478 N458 1.433 . S
C478 C479 1.363 . S
C478 C483 1.370 . S
C479 H447 0.929 . S
C479 C478 1.363 . S
C479 C480 1.385 . S
C480 H448 0.930 . S
C480 C479 1.385 . S
C480 C481 1.357 . S
C481 C480 1.357 . S
C481 C482 1.406 . S
C482 H449 0.929 . S
C482 C481 1.406 . S
C482 C483 1.391 . S
C483 H450 0.931 . S
C483 C478 1.370 . S
C483 C482 1.391 . S
C484 N458 1.435 . S
C484 C485 1.358 . S
C484 C489 1.371 . S
C485 H451 0.930 . S
C485 C484 1.358 . S
C485 C486 1.405 . S
C486 H452 0.932 . S
C486 C485 1.405 . S
C486 C487 1.383 . S
C487 C486 1.383 . S
C487 C488 1.393 . S
C488 H453 0.931 . S
C488 C487 1.393 . S
C488 C489 1.382 . S
C489 H454 0.929 . S
C489 C484 1.371 . S
C489 C488 1.382 . S
C490 N458 1.423 . S
C490 C491 1.362 . S
C490 C495 1.388 . S
C491 H455 0.929 . S
C491 C490 1.362 . S
C491 C492 1.376 . S
C492 H456 0.931 . S
C492 C491 1.376 . S
C492 C493 1.396 . S
C493 C475 1.472 . S
C493 C492 1.396 . S
C493 C494 1.348 . S
C494 H457 0.929 . S
C494 C493 1.348 . S
C494 C495 1.443 . S
C495 H459 0.932 . S
C495 C490 1.388 . S
C495 C494 1.443 . S
C496 O498 1.247 . S
C496 O500 1.258 . S
C497 O504 1.247 . S
C497 O505 1.258 . S
O498 C496 1.247 . S
O498 Zn499 2.028 1_655 S
Zn499 O498 2.028 1_455 S
Zn499 O503 2.035 . S
Zn499 O505 2.035 . S
Zn499 O506 2.028 1_455 S
O500 C496 1.258 . S
O500 Zn501 2.035 1_655 S
Zn501 O500 2.035 1_455 S
Zn501 O502 2.028 . S
Zn501 O504 2.028 . S
Zn501 O507 2.035 1_455 S
O502 Zn501 2.028 . S
O502 C508 1.247 . S
O503 Zn499 2.035 . S
O503 C508 1.258 . S
O504 C497 1.247 . S
O504 Zn501 2.028 . S
O505 C497 1.258 . S
O505 Zn499 2.035 . S
O506 Zn499 2.028 1_655 S
O506 C509 1.247 . S
O507 Zn501 2.035 1_655 S
O507 C509 1.258 . S
C508 O502 1.247 . S
C508 O503 1.258 . S
C509 O506 1.247 . S
C509 O507 1.258 . S
C510 O512 1.247 . S
C510 O514 1.258 . S
C511 O518 1.247 . S
C511 O519 1.258 . S
O512 C510 1.247 . S
O512 Zn513 2.028 . S
Zn513 O512 2.028 . S
Zn513 O517 2.035 1_545 S
Zn513 O519 2.035 1_545 S
Zn513 O520 2.028 . S
O514 C510 1.258 . S
O514 Zn515 2.035 . S
Zn515 O514 2.035 . S
Zn515 O516 2.028 1_545 S
Zn515 O518 2.028 1_545 S
Zn515 O521 2.035 . S
O516 Zn515 2.028 1_565 S
O516 C522 1.247 . S
O517 Zn513 2.035 1_565 S
O517 C522 1.258 . S
O518 C511 1.247 . S
O518 Zn515 2.028 1_565 S
O519 C511 1.258 . S
O519 Zn513 2.035 1_565 S
O520 Zn513 2.028 . S
O520 C523 1.247 . S
O521 Zn515 2.035 . S
O521 C523 1.258 . S
C522 O516 1.247 . S
C522 O517 1.258 . S
C523 O520 1.247 . S
C523 O521 1.258 . S
C524 O526 1.247 . S
C524 O528 1.258 . S
C525 O532 1.247 . S
C525 O533 1.258 . S
O526 C524 1.247 . S
O526 Zn527 2.028 1_655 S
Zn527 O526 2.028 1_455 S
Zn527 O531 2.035 . S
Zn527 O533 2.035 . S
Zn527 O534 2.028 1_455 S
O528 C524 1.258 . S
O528 Zn529 2.035 1_655 S
Zn529 O528 2.035 1_455 S
Zn529 O530 2.028 . S
Zn529 O532 2.028 . S
Zn529 O535 2.035 1_455 S
O530 Zn529 2.028 . S
O530 C536 1.247 . S
O531 Zn527 2.035 . S
O531 C536 1.258 . S
O532 C525 1.247 . S
O532 Zn529 2.028 . S
O533 C525 1.258 . S
O533 Zn527 2.035 . S
O534 Zn527 2.028 1_655 S
O534 C537 1.247 . S
O535 Zn529 2.035 1_655 S
O535 C537 1.258 . S
C536 O530 1.247 . S
C536 O531 1.258 . S
C537 O534 1.247 . S
C537 O535 1.258 . S
C538 O540 1.247 . S
C538 O542 1.258 . S
C539 O546 1.247 . S
C539 O547 1.258 . S
O540 C538 1.247 . S
O540 Zn541 2.028 . S
Zn541 O540 2.028 . S
Zn541 O545 2.035 1_545 S
Zn541 O547 2.035 1_545 S
Zn541 O548 2.028 . S
O542 C538 1.258 . S
O542 Zn543 2.035 . S
Zn543 O542 2.035 . S
Zn543 O544 2.028 1_545 S
Zn543 O546 2.028 1_545 S
Zn543 O549 2.035 . S
O544 Zn543 2.028 1_565 S
O544 C550 1.247 . S
O545 Zn541 2.035 1_565 S
O545 C550 1.258 . S
O546 C539 1.247 . S
O546 Zn543 2.028 1_565 S
O547 C539 1.258 . S
O547 Zn541 2.035 1_565 S
O548 Zn541 2.028 . S
O548 C551 1.247 . S
O549 Zn543 2.035 . S
O549 C551 1.258 . S
C550 O544 1.247 . S
C550 O545 1.258 . S
C551 O548 1.247 . S
C551 O549 1.258 . S
C552 O554 1.247 . S
C552 O556 1.258 . S
C553 O560 1.247 . S
C553 O561 1.258 . S
O554 C552 1.247 . S
O554 Zn555 2.028 . S
Zn555 O554 2.028 . S
Zn555 O559 2.035 . S
Zn555 O561 2.035 1_554 S
Zn555 O562 2.028 1_554 S
O556 C552 1.258 . S
O556 Zn557 2.035 . S
Zn557 O556 2.035 . S
Zn557 O558 2.028 . S
Zn557 O560 2.028 1_554 S
Zn557 O563 2.035 1_554 S
O558 Zn557 2.028 . S
O558 C564 1.247 . S
O559 Zn555 2.035 . S
O559 C564 1.258 . S
O560 C553 1.247 . S
O560 Zn557 2.028 1_556 S
O561 C553 1.258 . S
O561 Zn555 2.035 1_556 S
O562 Zn555 2.028 1_556 S
O562 C565 1.247 . S
O563 Zn557 2.035 1_556 S
O563 C565 1.258 . S
C564 O558 1.247 . S
C564 O559 1.258 . S
C565 O562 1.247 . S
C565 O563 1.258 . S
C566 O568 1.247 . S
C566 O570 1.258 . S
C567 O574 1.247 . S
C567 O575 1.258 . S
O568 C566 1.247 . S
O568 Zn569 2.028 . S
Zn569 O568 2.028 . S
Zn569 O573 2.035 . S
Zn569 O575 2.035 1_554 S
Zn569 O576 2.028 1_554 S
O570 C566 1.258 . S
O570 Zn571 2.035 . S
Zn571 O570 2.035 . S
Zn571 O572 2.028 . S
Zn571 O574 2.028 1_554 S
Zn571 O577 2.035 1_554 S
O572 Zn571 2.028 . S
O572 C578 1.247 . S
O573 Zn569 2.035 . S
O573 C578 1.258 . S
O574 C567 1.247 . S
O574 Zn571 2.028 1_556 S
O575 C567 1.258 . S
O575 Zn569 2.035 1_556 S
O576 Zn569 2.028 1_556 S
O576 C579 1.247 . S
O577 Zn571 2.035 1_556 S
O577 C579 1.258 . S
C578 O572 1.247 . S
C578 O573 1.258 . S
C579 O576 1.247 . S
C579 O577 1.258 . S
C580 O582 1.247 . S
C580 O584 1.258 . S
C581 O588 1.247 . S
C581 O589 1.258 . S
O582 C580 1.247 . S
O582 Zn583 2.028 1_556 S
Zn583 O582 2.028 1_554 S
Zn583 O587 2.035 1_554 S
Zn583 O589 2.035 . S
Zn583 O590 2.028 . S
O584 C580 1.258 . S
O584 Zn585 2.035 1_556 S
Zn585 O584 2.035 1_554 S
Zn585 O586 2.028 1_554 S
Zn585 O588 2.028 . S
Zn585 O591 2.035 . S
O586 Zn585 2.028 1_556 S
O586 C592 1.247 . S
O587 Zn583 2.035 1_556 S
O587 C592 1.258 . S
O588 C581 1.247 . S
O588 Zn585 2.028 . S
O589 C581 1.258 . S
O589 Zn583 2.035 . S
O590 Zn583 2.028 . S
O590 C593 1.247 . S
O591 Zn585 2.035 . S
O591 C593 1.258 . S
C592 O586 1.247 . S
C592 O587 1.258 . S
C593 O590 1.247 . S
C593 O591 1.258 . S
C594 O596 1.247 . S
C594 O598 1.258 . S
C595 O602 1.247 . S
C595 O603 1.258 . S
O596 C594 1.247 . S
O596 Zn597 2.028 . S
Zn597 O596 2.028 . S
Zn597 O601 2.035 . S
Zn597 O603 2.035 1_554 S
Zn597 O604 2.028 1_554 S
O598 C594 1.258 . S
O598 Zn599 2.035 . S
Zn599 O598 2.035 . S
Zn599 O600 2.028 . S
Zn599 O602 2.028 1_554 S
Zn599 O605 2.035 1_554 S
O600 Zn599 2.028 . S
O600 C606 1.247 . S
O601 Zn597 2.035 . S
O601 C606 1.258 . S
O602 C595 1.247 . S
O602 Zn599 2.028 1_556 S
O603 C595 1.258 . S
O603 Zn597 2.035 1_556 S
O604 Zn597 2.028 1_556 S
O604 C607 1.247 . S
O605 Zn599 2.035 1_556 S
O605 C607 1.258 . S
C606 O600 1.247 . S
C606 O601 1.258 . S
C607 O604 1.247 . S
C607 O605 1.258 . S
H608 C616 0.950 . S
H609 C621 0.950 . S
H610 C618 0.950 . S
H611 C620 0.950 . S
H612 C622 0.950 . S
H613 C624 0.950 . S
H614 C626 0.950 . S
H615 C627 0.950 . S
C616 H608 0.950 . S
C616 C617 1.386 . S
C616 C618 1.391 . S
C617 C616 1.386 . S
C617 C621 1.393 . S
C618 H610 0.950 . S
C618 C616 1.391 . S
C618 C619 1.400 . S
C619 C618 1.400 . S
C619 C620 1.398 . S
C619 C625 1.491 . S
C620 H611 0.950 . S
C620 C619 1.398 . S
C620 C621 1.391 . S
C621 H609 0.950 . S
C621 C617 1.393 . S
C621 C620 1.391 . S
C622 H612 0.950 . S
C622 C623 1.386 . S
C622 C624 1.391 . S
C623 C622 1.386 . S
C623 C627 1.393 . S
C624 H613 0.950 . S
C624 C622 1.391 . S
C624 C625 1.400 . S
C625 C619 1.491 . S
C625 C624 1.400 . S
C625 C626 1.398 . S
C626 H614 0.950 . S
C626 C625 1.398 . S
C626 C627 1.391 . S
C627 H615 0.950 . S
C627 C623 1.393 . S
C627 C626 1.391 . S
H628 C636 0.950 . S
H629 C641 0.950 . S
H630 C638 0.950 . S
H631 C640 0.950 . S
H632 C642 0.950 . S
H633 C644 0.950 . S
H634 C646 0.950 . S
H635 C647 0.950 . S
C636 H628 0.950 . S
C636 C637 1.386 . S
C636 C638 1.391 . S
C637 C636 1.386 . S
C637 C641 1.393 . S
C638 H630 0.950 . S
C638 C636 1.391 . S
C638 C639 1.400 . S
C639 C638 1.400 . S
C639 C640 1.398 . S
C639 C645 1.491 . S
C640 H631 0.950 . S
C640 C639 1.398 . S
C640 C641 1.391 . S
C641 H629 0.950 . S
C641 C637 1.393 . S
C641 C640 1.391 . S
C642 H632 0.950 . S
C642 C643 1.386 . S
C642 C644 1.391 . S
C643 C642 1.386 . S
C643 C647 1.393 . S
C644 H633 0.950 . S
C644 C642 1.391 . S
C644 C645 1.400 . S
C645 C639 1.491 . S
C645 C644 1.400 . S
C645 C646 1.398 . S
C646 H634 0.950 . S
C646 C645 1.398 . S
C646 C647 1.391 . S
C647 H635 0.950 . S
C647 C643 1.393 . S
C647 C646 1.391 . S
H648 C656 0.950 . S
H649 C661 0.950 . S
H650 C658 0.950 . S
H651 C660 0.950 . S
H652 C662 0.950 . S
H653 C664 0.950 . S
H654 C666 0.950 . S
H655 C667 0.950 . S
C656 H648 0.950 . S
C656 C657 1.386 . S
C656 C658 1.391 . S
C657 C656 1.386 . S
C657 C661 1.393 . S
C658 H650 0.950 . S
C658 C656 1.391 . S
C658 C659 1.400 . S
C659 C658 1.400 . S
C659 C660 1.398 . S
C659 C665 1.491 . S
C660 H651 0.950 . S
C660 C659 1.398 . S
C660 C661 1.391 . S
C661 H649 0.950 . S
C661 C657 1.393 . S
C661 C660 1.391 . S
C662 H652 0.950 . S
C662 C663 1.386 . S
C662 C664 1.391 . S
C663 C662 1.386 . S
C663 C667 1.393 . S
C664 H653 0.950 . S
C664 C662 1.391 . S
C664 C665 1.400 . S
C665 C659 1.491 . S
C665 C664 1.400 . S
C665 C666 1.398 . S
C666 H654 0.950 . S
C666 C665 1.398 . S
C666 C667 1.391 . S
C667 H655 0.950 . S
C667 C663 1.393 . S
C667 C666 1.391 . S
H668 C676 0.950 . S
H669 C681 0.950 . S
H670 C678 0.950 . S
H671 C680 0.950 . S
H672 C682 0.950 . S
H673 C684 0.950 . S
H674 C686 0.950 . S
H675 C687 0.950 . S
C676 H668 0.950 . S
C676 C677 1.386 . S
C676 C678 1.391 . S
C677 C676 1.386 . S
C677 C681 1.393 . S
C678 H670 0.950 . S
C678 C676 1.391 . S
C678 C679 1.400 . S
C679 C678 1.400 . S
C679 C680 1.398 . S
C679 C685 1.491 . S
C680 H671 0.950 . S
C680 C679 1.398 . S
C680 C681 1.391 . S
C681 H669 0.950 . S
C681 C677 1.393 . S
C681 C680 1.391 . S
C682 H672 0.950 . S
C682 C683 1.386 . S
C682 C684 1.391 . S
C683 C682 1.386 . S
C683 C687 1.393 . S
C684 H673 0.950 . S
C684 C682 1.391 . S
C684 C685 1.400 . S
C685 C679 1.491 . S
C685 C684 1.400 . S
C685 C686 1.398 . S
C686 H674 0.950 . S
C686 C685 1.398 . S
C686 C687 1.391 . S
C687 H675 0.950 . S
C687 C683 1.393 . S
C687 C686 1.391 . S
H688 C696 0.950 . S
H689 C701 0.950 . S
H690 C698 0.950 . S
H691 C700 0.950 . S
H692 C702 0.950 . S
H693 C704 0.950 . S
H694 C706 0.950 . S
H695 C707 0.950 . S
C696 H688 0.950 . S
C696 C697 1.386 . S
C696 C698 1.391 . S
C697 C696 1.386 . S
C697 C701 1.393 . S
C698 H690 0.950 . S
C698 C696 1.391 . S
C698 C699 1.400 . S
C699 C698 1.400 . S
C699 C700 1.398 . S
C699 C705 1.491 . S
C700 H691 0.950 . S
C700 C699 1.398 . S
C700 C701 1.391 . S
C701 H689 0.950 . S
C701 C697 1.393 . S
C701 C700 1.391 . S
C702 H692 0.950 . S
C702 C703 1.386 . S
C702 C704 1.391 . S
C703 C702 1.386 . S
C703 C707 1.393 . S
C704 H693 0.950 . S
C704 C702 1.391 . S
C704 C705 1.400 . S
C705 C699 1.491 . S
C705 C704 1.400 . S
C705 C706 1.398 . S
C706 H694 0.950 . S
C706 C705 1.398 . S
C706 C707 1.391 . S
C707 H695 0.950 . S
C707 C703 1.393 . S
C707 C706 1.391 . S
H708 C716 0.950 . S
H709 C721 0.950 . S
H710 C718 0.950 . S
H711 C720 0.950 . S
H712 C722 0.950 . S
H713 C724 0.950 . S
H714 C726 0.950 . S
H715 C727 0.950 . S
C716 H708 0.950 . S
C716 C717 1.386 . S
C716 C718 1.391 . S
C717 C716 1.386 . S
C717 C721 1.393 . S
C718 H710 0.950 . S
C718 C716 1.391 . S
C718 C719 1.400 . S
C719 C718 1.400 . S
C719 C720 1.398 . S
C719 C725 1.491 . S
C720 H711 0.950 . S
C720 C719 1.398 . S
C720 C721 1.391 . S
C721 H709 0.950 . S
C721 C717 1.393 . S
C721 C720 1.391 . S
C722 H712 0.950 . S
C722 C723 1.386 . S
C722 C724 1.391 . S
C723 C722 1.386 . S
C723 C727 1.393 . S
C724 H713 0.950 . S
C724 C722 1.391 . S
C724 C725 1.400 . S
C725 C719 1.491 . S
C725 C724 1.400 . S
C725 C726 1.398 . S
C726 H714 0.950 . S
C726 C725 1.398 . S
C726 C727 1.391 . S
C727 H715 0.950 . S
C727 C723 1.393 . S
C727 C726 1.391 . S
H728 C736 0.950 . S
H729 C741 0.950 . S
H730 C738 0.950 . S
H731 C740 0.950 . S
H732 C742 0.950 . S
H733 C744 0.950 . S
H734 C746 0.950 . S
H735 C747 0.950 . S
C736 H728 0.950 . S
C736 C737 1.386 . S
C736 C738 1.391 . S
C737 C736 1.386 . S
C737 C741 1.393 . S
C738 H730 0.950 . S
C738 C736 1.391 . S
C738 C739 1.400 . S
C739 C738 1.400 . S
C739 C740 1.398 . S
C739 C745 1.491 . S
C740 H731 0.950 . S
C740 C739 1.398 . S
C740 C741 1.391 . S
C741 H729 0.950 . S
C741 C737 1.393 . S
C741 C740 1.391 . S
C742 H732 0.950 . S
C742 C743 1.386 . S
C742 C744 1.391 . S
C743 C742 1.386 . S
C743 C747 1.393 . S
C744 H733 0.950 . S
C744 C742 1.391 . S
C744 C745 1.400 . S
C745 C739 1.491 . S
C745 C744 1.400 . S
C745 C746 1.398 . S
C746 H734 0.950 . S
C746 C745 1.398 . S
C746 C747 1.391 . S
C747 H735 0.950 . S
C747 C743 1.393 . S
C747 C746 1.391 . S
H748 C756 0.950 . S
H749 C761 0.950 . S
H750 C758 0.950 . S
H751 C760 0.950 . S
H752 C762 0.950 . S
H753 C764 0.950 . S
H754 C766 0.950 . S
H755 C767 0.950 . S
C756 H748 0.950 . S
C756 C757 1.386 . S
C756 C758 1.391 . S
C757 C756 1.386 . S
C757 C761 1.393 . S
C758 H750 0.950 . S
C758 C756 1.391 . S
C758 C759 1.400 . S
C759 C758 1.400 . S
C759 C760 1.398 . S
C759 C765 1.491 . S
C760 H751 0.950 . S
C760 C759 1.398 . S
C760 C761 1.391 . S
C761 H749 0.950 . S
C761 C757 1.393 . S
C761 C760 1.391 . S
C762 H752 0.950 . S
C762 C763 1.386 . S
C762 C764 1.391 . S
C763 C762 1.386 . S
C763 C767 1.393 . S
C764 H753 0.950 . S
C764 C762 1.391 . S
C764 C765 1.400 . S
C765 C759 1.491 . S
C765 C764 1.400 . S
C765 C766 1.398 . S
C766 H754 0.950 . S
C766 C765 1.398 . S
C766 C767 1.391 . S
C767 H755 0.950 . S
C767 C763 1.393 . S
C767 C766 1.391 . S
H768 C776 0.950 . S
H769 C781 0.950 . S
H770 C778 0.950 . S
H771 C780 0.950 . S
H772 C782 0.950 . S
H773 C784 0.950 . S
H774 C786 0.950 . S
H775 C787 0.950 . S
C776 H768 0.950 . S
C776 C777 1.386 . S
C776 C778 1.391 . S
C777 C776 1.386 . S
C777 C781 1.393 . S
C778 H770 0.950 . S
C778 C776 1.391 . S
C778 C779 1.400 . S
C779 C778 1.400 . S
C779 C780 1.398 . S
C779 C785 1.491 . S
C780 H771 0.950 . S
C780 C779 1.398 . S
C780 C781 1.391 . S
C781 H769 0.950 . S
C781 C777 1.393 . S
C781 C780 1.391 . S
C782 H772 0.950 . S
C782 C783 1.386 . S
C782 C784 1.391 . S
C783 C782 1.386 . S
C783 C787 1.393 . S
C784 H773 0.950 . S
C784 C782 1.391 . S
C784 C785 1.400 . S
C785 C779 1.491 . S
C785 C784 1.400 . S
C785 C786 1.398 . S
C786 H774 0.950 . S
C786 C785 1.398 . S
C786 C787 1.391 . S
C787 H775 0.950 . S
C787 C783 1.393 . S
C787 C786 1.391 . S
H788 C796 0.950 . S
H789 C801 0.950 . S
H790 C798 0.950 . S
H791 C800 0.950 . S
H792 C802 0.950 . S
H793 C804 0.950 . S
H794 C806 0.950 . S
H795 C807 0.950 . S
C796 H788 0.950 . S
C796 C797 1.386 . S
C796 C798 1.391 . S
C797 C796 1.386 . S
C797 C801 1.393 . S
C798 H790 0.950 . S
C798 C796 1.391 . S
C798 C799 1.400 . S
C799 C798 1.400 . S
C799 C800 1.398 . S
C799 C805 1.491 . S
C800 H791 0.950 . S
C800 C799 1.398 . S
C800 C801 1.391 . S
C801 H789 0.950 . S
C801 C797 1.393 . S
C801 C800 1.391 . S
C802 H792 0.950 . S
C802 C803 1.386 . S
C802 C804 1.391 . S
C803 C802 1.386 . S
C803 C807 1.393 . S
C804 H793 0.950 . S
C804 C802 1.391 . S
C804 C805 1.400 . S
C805 C799 1.491 . S
C805 C804 1.400 . S
C805 C806 1.398 . S
C806 H794 0.950 . S
C806 C805 1.398 . S
C806 C807 1.391 . S
C807 H795 0.950 . S
C807 C803 1.393 . S
C807 C806 1.391 . S
H808 C816 0.950 . S
H809 C821 0.950 . S
H810 C818 0.950 . S
H811 C820 0.950 . S
H812 C822 0.950 . S
H813 C824 0.950 . S
H814 C826 0.950 . S
H815 C827 0.950 . S
C816 H808 0.950 . S
C816 C817 1.386 . S
C816 C818 1.391 . S
C817 C816 1.386 . S
C817 C821 1.393 . S
C818 H810 0.950 . S
C818 C816 1.391 . S
C818 C819 1.400 . S
C819 C818 1.400 . S
C819 C820 1.398 . S
C819 C825 1.491 . S
C820 H811 0.950 . S
C820 C819 1.398 . S
C820 C821 1.391 . S
C821 H809 0.950 . S
C821 C817 1.393 . S
C821 C820 1.391 . S
C822 H812 0.950 . S
C822 C823 1.386 . S
C822 C824 1.391 . S
C823 C822 1.386 . S
C823 C827 1.393 . S
C824 H813 0.950 . S
C824 C822 1.391 . S
C824 C825 1.400 . S
C825 C819 1.491 . S
C825 C824 1.400 . S
C825 C826 1.398 . S
C826 H814 0.950 . S
C826 C825 1.398 . S
C826 C827 1.391 . S
C827 H815 0.950 . S
C827 C823 1.393 . S
C827 C826 1.391 . S
H828 C836 0.950 . S
H829 C841 0.950 . S
H830 C838 0.950 . S
H831 C840 0.950 . S
H832 C842 0.950 . S
H833 C844 0.950 . S
H834 C846 0.950 . S
H835 C847 0.950 . S
C836 H828 0.950 . S
C836 C837 1.386 . S
C836 C838 1.391 . S
C837 C836 1.386 . S
C837 C841 1.393 . S
C838 H830 0.950 . S
C838 C836 1.391 . S
C838 C839 1.400 . S
C839 C838 1.400 . S
C839 C840 1.398 . S
C839 C845 1.491 . S
C840 H831 0.950 . S
C840 C839 1.398 . S
C840 C841 1.391 . S
C841 H829 0.950 . S
C841 C837 1.393 . S
C841 C840 1.391 . S
C842 H832 0.950 . S
C842 C843 1.386 . S
C842 C844 1.391 . S
C843 C842 1.386 . S
C843 C847 1.393 . S
C844 H833 0.950 . S
C844 C842 1.391 . S
C844 C845 1.400 . S
C845 C839 1.491 . S
C845 C844 1.400 . S
C845 C846 1.398 . S
C846 H834 0.950 . S
C846 C845 1.398 . S
C846 C847 1.391 . S
C847 H835 0.950 . S
C847 C843 1.393 . S
C847 C846 1.391 . S
H848 C856 0.950 . S
H849 C861 0.950 . S
H850 C858 0.950 . S
H851 C860 0.950 . S
H852 C862 0.950 . S
H853 C864 0.950 . S
H854 C866 0.950 . S
H855 C867 0.950 . S
C856 H848 0.950 . S
C856 C857 1.386 . S
C856 C858 1.391 . S
C857 C856 1.386 . S
C857 C861 1.393 . S
C858 H850 0.950 . S
C858 C856 1.391 . S
C858 C859 1.400 . S
C859 C858 1.400 . S
C859 C860 1.398 . S
C859 C865 1.491 . S
C860 H851 0.950 . S
C860 C859 1.398 . S
C860 C861 1.391 . S
C861 H849 0.950 . S
C861 C857 1.393 . S
C861 C860 1.391 . S
C862 H852 0.950 . S
C862 C863 1.386 . S
C862 C864 1.391 . S
C863 C862 1.386 . S
C863 C867 1.393 . S
C864 H853 0.950 . S
C864 C862 1.391 . S
C864 C865 1.400 . S
C865 C859 1.491 . S
C865 C864 1.400 . S
C865 C866 1.398 . S
C866 H854 0.950 . S
C866 C865 1.398 . S
C866 C867 1.391 . S
C867 H855 0.950 . S
C867 C863 1.393 . S
C867 C866 1.391 . S
H868 C876 0.950 . S
H869 C881 0.950 . S
H870 C878 0.950 . S
H871 C880 0.950 . S
H872 C882 0.950 . S
H873 C884 0.950 . S
H874 C886 0.950 . S
H875 C887 0.950 . S
C876 H868 0.950 . S
C876 C877 1.386 . S
C876 C878 1.391 . S
C877 C876 1.386 . S
C877 C881 1.393 . S
C878 H870 0.950 . S
C878 C876 1.391 . S
C878 C879 1.400 . S
C879 C878 1.400 . S
C879 C880 1.398 . S
C879 C885 1.491 . S
C880 H871 0.950 . S
C880 C879 1.398 . S
C880 C881 1.391 . S
C881 H869 0.950 . S
C881 C877 1.393 . S
C881 C880 1.391 . S
C882 H872 0.950 . S
C882 C883 1.386 . S
C882 C884 1.391 . S
C883 C882 1.386 . S
C883 C887 1.393 . S
C884 H873 0.950 . S
C884 C882 1.391 . S
C884 C885 1.400 . S
C885 C879 1.491 . S
C885 C884 1.400 . S
C885 C886 1.398 . S
C886 H874 0.950 . S
C886 C885 1.398 . S
C886 C887 1.391 . S
C887 H875 0.950 . S
C887 C883 1.393 . S
C887 C886 1.391 . S
H888 C896 0.950 . S
H889 C901 0.950 . S
H890 C898 0.950 . S
H891 C900 0.950 . S
H892 C902 0.950 . S
H893 C904 0.950 . S
H894 C906 0.950 . S
H895 C907 0.950 . S
C896 H888 0.950 . S
C896 C897 1.386 . S
C896 C898 1.391 . S
C897 C896 1.386 . S
C897 C901 1.393 . S
C898 H890 0.950 . S
C898 C896 1.391 . S
C898 C899 1.400 . S
C899 C898 1.400 . S
C899 C900 1.398 . S
C899 C905 1.491 . S
C900 H891 0.950 . S
C900 C899 1.398 . S
C900 C901 1.391 . S
C901 H889 0.950 . S
C901 C897 1.393 . S
C901 C900 1.391 . S
C902 H892 0.950 . S
C902 C903 1.386 . S
C902 C904 1.391 . S
C903 C902 1.386 . S
C903 C907 1.393 . S
C904 H893 0.950 . S
C904 C902 1.391 . S
C904 C905 1.400 . S
C905 C899 1.491 . S
C905 C904 1.400 . S
C905 C906 1.398 . S
C906 H894 0.950 . S
C906 C905 1.398 . S
C906 C907 1.391 . S
C907 H895 0.950 . S
C907 C903 1.393 . S
C907 C906 1.391 . S
H908 C916 0.950 . S
H909 C921 0.950 . S
H910 C918 0.950 . S
H911 C920 0.950 . S
H912 C922 0.950 . S
H913 C924 0.950 . S
H914 C926 0.950 . S
H915 C927 0.950 . S
C916 H908 0.950 . S
C916 C917 1.386 . S
C916 C918 1.391 . S
C917 C916 1.386 . S
C917 C921 1.393 . S
C918 H910 0.950 . S
C918 C916 1.391 . S
C918 C919 1.400 . S
C919 C918 1.400 . S
C919 C920 1.398 . S
C919 C925 1.491 . S
C920 H911 0.950 . S
C920 C919 1.398 . S
C920 C921 1.391 . S
C921 H909 0.950 . S
C921 C917 1.393 . S
C921 C920 1.391 . S
C922 H912 0.950 . S
C922 C923 1.386 . S
C922 C924 1.391 . S
C923 C922 1.386 . S
C923 C927 1.393 . S
C924 H913 0.950 . S
C924 C922 1.391 . S
C924 C925 1.400 . S
C925 C919 1.491 . S
C925 C924 1.400 . S
C925 C926 1.398 . S
C926 H914 0.950 . S
C926 C925 1.398 . S
C926 C927 1.391 . S
C927 H915 0.950 . S
C927 C923 1.393 . S
C927 C926 1.391 . S
H928 C936 0.950 . S
H929 C941 0.950 . S
H930 C938 0.950 . S
H931 C940 0.950 . S
H932 C942 0.950 . S
H933 C944 0.950 . S
H934 C946 0.950 . S
H935 C947 0.950 . S
C936 H928 0.950 . S
C936 C937 1.386 . S
C936 C938 1.391 . S
C937 C936 1.386 . S
C937 C941 1.393 . S
C938 H930 0.950 . S
C938 C936 1.391 . S
C938 C939 1.400 . S
C939 C938 1.400 . S
C939 C940 1.398 . S
C939 C945 1.491 . S
C940 H931 0.950 . S
C940 C939 1.398 . S
C940 C941 1.391 . S
C941 H929 0.950 . S
C941 C937 1.393 . S
C941 C940 1.391 . S
C942 H932 0.950 . S
C942 C943 1.386 . S
C942 C944 1.391 . S
C943 C942 1.386 . S
C943 C947 1.393 . S
C944 H933 0.950 . S
C944 C942 1.391 . S
C944 C945 1.400 . S
C945 C939 1.491 . S
C945 C944 1.400 . S
C945 C946 1.398 . S
C946 H934 0.950 . S
C946 C945 1.398 . S
C946 C947 1.391 . S
C947 H935 0.950 . S
C947 C943 1.393 . S
C947 C946 1.391 . S
H948 C956 0.950 . S
H949 C961 0.950 . S
H950 C958 0.950 . S
H951 C960 0.950 . S
H952 C962 0.950 . S
H953 C964 0.950 . S
H954 C966 0.950 . S
H955 C967 0.950 . S
C956 H948 0.950 . S
C956 C957 1.386 . S
C956 C958 1.391 . S
C957 C956 1.386 . S
C957 C961 1.393 . S
C958 H950 0.950 . S
C958 C956 1.391 . S
C958 C959 1.400 . S
C959 C958 1.400 . S
C959 C960 1.398 . S
C959 C965 1.491 . S
C960 H951 0.950 . S
C960 C959 1.398 . S
C960 C961 1.391 . S
C961 H949 0.950 . S
C961 C957 1.393 . S
C961 C960 1.391 . S
C962 H952 0.950 . S
C962 C963 1.386 . S
C962 C964 1.391 . S
C963 C962 1.386 . S
C963 C967 1.393 . S
C964 H953 0.950 . S
C964 C962 1.391 . S
C964 C965 1.400 . S
C965 C959 1.491 . S
C965 C964 1.400 . S
C965 C966 1.398 . S
C966 H954 0.950 . S
C966 C965 1.398 . S
C966 C967 1.391 . S
C967 H955 0.950 . S
C967 C963 1.393 . S
C967 C966 1.391 . S
H968 C976 0.950 . S
H969 C981 0.950 . S
H970 C978 0.950 . S
H971 C980 0.950 . S
H972 C982 0.950 . S
H973 C984 0.950 . S
H974 C986 0.950 . S
H975 C987 0.950 . S
C976 H968 0.950 . S
C976 C977 1.386 . S
C976 C978 1.391 . S
C977 C976 1.386 . S
C977 C981 1.393 . S
C978 H970 0.950 . S
C978 C976 1.391 . S
C978 C979 1.400 . S
C979 C978 1.400 . S
C979 C980 1.398 . S
C979 C985 1.491 . S
C980 H971 0.950 . S
C980 C979 1.398 . S
C980 C981 1.391 . S
C981 H969 0.950 . S
C981 C977 1.393 . S
C981 C980 1.391 . S
C982 H972 0.950 . S
C982 C983 1.386 . S
C982 C984 1.391 . S
C983 C982 1.386 . S
C983 C987 1.393 . S
C984 H973 0.950 . S
C984 C982 1.391 . S
C984 C985 1.400 . S
C985 C979 1.491 . S
C985 C984 1.400 . S
C985 C986 1.398 . S
C986 H974 0.950 . S
C986 C985 1.398 . S
C986 C987 1.391 . S
C987 H975 0.950 . S
C987 C983 1.393 . S
C987 C986 1.391 . S
H988 C996 0.950 . S
H989 C1001 0.950 . S
H990 C998 0.950 . S
H991 C1000 0.950 . S
H992 C1002 0.950 . S
H993 C1004 0.950 . S
H994 C1006 0.950 . S
H995 C1007 0.950 . S
C996 H988 0.950 . S
C996 C997 1.386 . S
C996 C998 1.391 . S
C997 C996 1.386 . S
C997 C1001 1.393 . S
C998 H990 0.950 . S
C998 C996 1.391 . S
C998 C999 1.400 . S
C999 C998 1.400 . S
C999 C1000 1.398 . S
C999 C1005 1.491 . S
C1000 H991 0.950 . S
C1000 C999 1.398 . S
C1000 C1001 1.391 . S
C1001 H989 0.950 . S
C1001 C997 1.393 . S
C1001 C1000 1.391 . S
C1002 H992 0.950 . S
C1002 C1003 1.386 . S
C1002 C1004 1.391 . S
C1003 C1002 1.386 . S
C1003 C1007 1.393 . S
C1004 H993 0.950 . S
C1004 C1002 1.391 . S
C1004 C1005 1.400 . S
C1005 C999 1.491 . S
C1005 C1004 1.400 . S
C1005 C1006 1.398 . S
C1006 H994 0.950 . S
C1006 C1005 1.398 . S
C1006 C1007 1.391 . S
C1007 H995 0.950 . S
C1007 C1003 1.393 . S
C1007 C1006 1.391 . S
H1008 C1016 0.950 . S
H1009 C1021 0.950 . S
H1010 C1018 0.950 . S
H1011 C1020 0.950 . S
H1012 C1022 0.950 . S
H1013 C1024 0.950 . S
H1014 C1026 0.950 . S
H1015 C1027 0.950 . S
C1016 H1008 0.950 . S
C1016 C1017 1.386 . S
C1016 C1018 1.391 . S
C1017 C1016 1.386 . S
C1017 C1021 1.393 . S
C1018 H1010 0.950 . S
C1018 C1016 1.391 . S
C1018 C1019 1.400 . S
C1019 C1018 1.400 . S
C1019 C1020 1.398 . S
C1019 C1025 1.491 . S
C1020 H1011 0.950 . S
C1020 C1019 1.398 . S
C1020 C1021 1.391 . S
C1021 H1009 0.950 . S
C1021 C1017 1.393 . S
C1021 C1020 1.391 . S
C1022 H1012 0.950 . S
C1022 C1023 1.386 . S
C1022 C1024 1.391 . S
C1023 C1022 1.386 . S
C1023 C1027 1.393 . S
C1024 H1013 0.950 . S
C1024 C1022 1.391 . S
C1024 C1025 1.400 . S
C1025 C1019 1.491 . S
C1025 C1024 1.400 . S
C1025 C1026 1.398 . S
C1026 H1014 0.950 . S
C1026 C1025 1.398 . S
C1026 C1027 1.391 . S
C1027 H1015 0.950 . S
C1027 C1023 1.393 . S
C1027 C1026 1.391 . S
H1028 C1036 0.950 . S
H1029 C1041 0.950 . S
H1030 C1038 0.950 . S
H1031 C1040 0.950 . S
H1032 C1042 0.950 . S
H1033 C1044 0.950 . S
H1034 C1046 0.950 . S
H1035 C1047 0.950 . S
C1036 H1028 0.950 . S
C1036 C1037 1.386 . S
C1036 C1038 1.391 . S
C1037 C1036 1.386 . S
C1037 C1041 1.393 . S
C1038 H1030 0.950 . S
C1038 C1036 1.391 . S
C1038 C1039 1.400 . S
C1039 C1038 1.400 . S
C1039 C1040 1.398 . S
C1039 C1045 1.491 . S
C1040 H1031 0.950 . S
C1040 C1039 1.398 . S
C1040 C1041 1.391 . S
C1041 H1029 0.950 . S
C1041 C1037 1.393 . S
C1041 C1040 1.391 . S
C1042 H1032 0.950 . S
C1042 C1043 1.386 . S
C1042 C1044 1.391 . S
C1043 C1042 1.386 . S
C1043 C1047 1.393 . S
C1044 H1033 0.950 . S
C1044 C1042 1.391 . S
C1044 C1045 1.400 . S
C1045 C1039 1.491 . S
C1045 C1044 1.400 . S
C1045 C1046 1.398 . S
C1046 H1034 0.950 . S
C1046 C1045 1.398 . S
C1046 C1047 1.391 . S
C1047 H1035 0.950 . S
C1047 C1043 1.393 . S
C1047 C1046 1.391 . S
H1048 C1056 0.950 . S
H1049 C1061 0.950 . S
H1050 C1058 0.950 . S
H1051 C1060 0.950 . S
H1052 C1062 0.950 . S
H1053 C1064 0.950 . S
H1054 C1066 0.950 . S
H1055 C1067 0.950 . S
C1056 H1048 0.950 . S
C1056 C1057 1.386 . S
C1056 C1058 1.391 . S
C1057 C1056 1.386 . S
C1057 C1061 1.393 . S
C1058 H1050 0.950 . S
C1058 C1056 1.391 . S
C1058 C1059 1.400 . S
C1059 C1058 1.400 . S
C1059 C1060 1.398 . S
C1059 C1065 1.491 . S
C1060 H1051 0.950 . S
C1060 C1059 1.398 . S
C1060 C1061 1.391 . S
C1061 H1049 0.950 . S
C1061 C1057 1.393 . S
C1061 C1060 1.391 . S
C1062 H1052 0.950 . S
C1062 C1063 1.386 . S
C1062 C1064 1.391 . S
C1063 C1062 1.386 . S
C1063 C1067 1.393 . S
C1064 H1053 0.950 . S
C1064 C1062 1.391 . S
C1064 C1065 1.400 . S
C1065 C1059 1.491 . S
C1065 C1064 1.400 . S
C1065 C1066 1.398 . S
C1066 H1054 0.950 . S
C1066 C1065 1.398 . S
C1066 C1067 1.391 . S
C1067 H1055 0.950 . S
C1067 C1063 1.393 . S
C1067 C1066 1.391 . S
H1068 C1076 0.950 . S
H1069 C1081 0.950 . S
H1070 C1078 0.950 . S
H1071 C1080 0.950 . S
H1072 C1082 0.950 . S
H1073 C1084 0.950 . S
H1074 C1086 0.950 . S
H1075 C1087 0.950 . S
C1076 H1068 0.950 . S
C1076 C1077 1.386 . S
C1076 C1078 1.391 . S
C1077 C1076 1.386 . S
C1077 C1081 1.393 . S
C1078 H1070 0.950 . S
C1078 C1076 1.391 . S
C1078 C1079 1.400 . S
C1079 C1078 1.400 . S
C1079 C1080 1.398 . S
C1079 C1085 1.491 . S
C1080 H1071 0.950 . S
C1080 C1079 1.398 . S
C1080 C1081 1.391 . S
C1081 H1069 0.950 . S
C1081 C1077 1.393 . S
C1081 C1080 1.391 . S
C1082 H1072 0.950 . S
C1082 C1083 1.386 . S
C1082 C1084 1.391 . S
C1083 C1082 1.386 . S
C1083 C1087 1.393 . S
C1084 H1073 0.950 . S
C1084 C1082 1.391 . S
C1084 C1085 1.400 . S
C1085 C1079 1.491 . S
C1085 C1084 1.400 . S
C1085 C1086 1.398 . S
C1086 H1074 0.950 . S
C1086 C1085 1.398 . S
C1086 C1087 1.391 . S
C1087 H1075 0.950 . S
C1087 C1083 1.393 . S
C1087 C1086 1.391 . S
H1088 C1096 0.950 . S
H1089 C1101 0.950 . S
H1090 C1098 0.950 . S
H1091 C1100 0.950 . S
H1092 C1102 0.950 . S
H1093 C1104 0.950 . S
H1094 C1106 0.950 . S
H1095 C1107 0.950 . S
C1096 H1088 0.950 . S
C1096 C1097 1.386 . S
C1096 C1098 1.391 . S
C1097 C1096 1.386 . S
C1097 C1101 1.393 . S
C1098 H1090 0.950 . S
C1098 C1096 1.391 . S
C1098 C1099 1.400 . S
C1099 C1098 1.400 . S
C1099 C1100 1.398 . S
C1099 C1105 1.491 . S
C1100 H1091 0.950 . S
C1100 C1099 1.398 . S
C1100 C1101 1.391 . S
C1101 H1089 0.950 . S
C1101 C1097 1.393 . S
C1101 C1100 1.391 . S
C1102 H1092 0.950 . S
C1102 C1103 1.386 . S
C1102 C1104 1.391 . S
C1103 C1102 1.386 . S
C1103 C1107 1.393 . S
C1104 H1093 0.950 . S
C1104 C1102 1.391 . S
C1104 C1105 1.400 . S
C1105 C1099 1.491 . S
C1105 C1104 1.400 . S
C1105 C1106 1.398 . S
C1106 H1094 0.950 . S
C1106 C1105 1.398 . S
C1106 C1107 1.391 . S
C1107 H1095 0.950 . S
C1107 C1103 1.393 . S
C1107 C1106 1.391 . S
H1108 C1116 0.950 . S
H1109 C1121 0.950 . S
H1110 C1118 0.950 . S
H1111 C1120 0.950 . S
H1112 C1122 0.950 . S
H1113 C1124 0.950 . S
H1114 C1126 0.950 . S
H1115 C1127 0.950 . S
C1116 H1108 0.950 . S
C1116 C1117 1.386 . S
C1116 C1118 1.391 . S
C1117 C1116 1.386 . S
C1117 C1121 1.393 . S
C1118 H1110 0.950 . S
C1118 C1116 1.391 . S
C1118 C1119 1.400 . S
C1119 C1118 1.400 . S
C1119 C1120 1.398 . S
C1119 C1125 1.491 . S
C1120 H1111 0.950 . S
C1120 C1119 1.398 . S
C1120 C1121 1.391 . S
C1121 H1109 0.950 . S
C1121 C1117 1.393 . S
C1121 C1120 1.391 . S
C1122 H1112 0.950 . S
C1122 C1123 1.386 . S
C1122 C1124 1.391 . S
C1123 C1122 1.386 . S
C1123 C1127 1.393 . S
C1124 H1113 0.950 . S
C1124 C1122 1.391 . S
C1124 C1125 1.400 . S
C1125 C1119 1.491 . S
C1125 C1124 1.400 . S
C1125 C1126 1.398 . S
C1126 H1114 0.950 . S
C1126 C1125 1.398 . S
C1126 C1127 1.391 . S
C1127 H1115 0.950 . S
C1127 C1123 1.393 . S
C1127 C1126 1.391 . S
H1128 C1136 0.950 . S
H1129 C1141 0.950 . S
H1130 C1138 0.950 . S
H1131 C1140 0.950 . S
H1132 C1142 0.950 . S
H1133 C1144 0.950 . S
H1134 C1146 0.950 . S
H1135 C1147 0.950 . S
C1136 H1128 0.950 . S
C1136 C1137 1.386 . S
C1136 C1138 1.391 . S
C1137 C1136 1.386 . S
C1137 C1141 1.393 . S
C1138 H1130 0.950 . S
C1138 C1136 1.391 . S
C1138 C1139 1.400 . S
C1139 C1138 1.400 . S
C1139 C1140 1.398 . S
C1139 C1145 1.491 . S
C1140 H1131 0.950 . S
C1140 C1139 1.398 . S
C1140 C1141 1.391 . S
C1141 H1129 0.950 . S
C1141 C1137 1.393 . S
C1141 C1140 1.391 . S
C1142 H1132 0.950 . S
C1142 C1143 1.386 . S
C1142 C1144 1.391 . S
C1143 C1142 1.386 . S
C1143 C1147 1.393 . S
C1144 H1133 0.950 . S
C1144 C1142 1.391 . S
C1144 C1145 1.400 . S
C1145 C1139 1.491 . S
C1145 C1144 1.400 . S
C1145 C1146 1.398 . S
C1146 H1134 0.950 . S
C1146 C1145 1.398 . S
C1146 C1147 1.391 . S
C1147 H1135 0.950 . S
C1147 C1143 1.393 . S
C1147 C1146 1.391 . S
H1148 C1156 0.950 . S
H1149 C1161 0.950 . S
H1150 C1158 0.950 . S
H1151 C1160 0.950 . S
H1152 C1162 0.950 . S
H1153 C1164 0.950 . S
H1154 C1166 0.950 . S
H1155 C1167 0.950 . S
C1156 H1148 0.950 . S
C1156 C1157 1.386 . S
C1156 C1158 1.391 . S
C1157 C1156 1.386 . S
C1157 C1161 1.393 . S
C1158 H1150 0.950 . S
C1158 C1156 1.391 . S
C1158 C1159 1.400 . S
C1159 C1158 1.400 . S
C1159 C1160 1.398 . S
C1159 C1165 1.491 . S
C1160 H1151 0.950 . S
C1160 C1159 1.398 . S
C1160 C1161 1.391 . S
C1161 H1149 0.950 . S
C1161 C1157 1.393 . S
C1161 C1160 1.391 . S
C1162 H1152 0.950 . S
C1162 C1163 1.386 . S
C1162 C1164 1.391 . S
C1163 C1162 1.386 . S
C1163 C1167 1.393 . S
C1164 H1153 0.950 . S
C1164 C1162 1.391 . S
C1164 C1165 1.400 . S
C1165 C1159 1.491 . S
C1165 C1164 1.400 . S
C1165 C1166 1.398 . S
C1166 H1154 0.950 . S
C1166 C1165 1.398 . S
C1166 C1167 1.391 . S
C1167 H1155 0.950 . S
C1167 C1163 1.393 . S
C1167 C1166 1.391 . S
H1168 C1176 0.950 . S
H1169 C1181 0.950 . S
H1170 C1178 0.950 . S
H1171 C1180 0.950 . S
H1172 C1182 0.950 . S
H1173 C1184 0.950 . S
H1174 C1186 0.950 . S
H1175 C1187 0.950 . S
C1176 H1168 0.950 . S
C1176 C1177 1.386 . S
C1176 C1178 1.391 . S
C1177 C1176 1.386 . S
C1177 C1181 1.393 . S
C1178 H1170 0.950 . S
C1178 C1176 1.391 . S
C1178 C1179 1.400 . S
C1179 C1178 1.400 . S
C1179 C1180 1.398 . S
C1179 C1185 1.491 . S
C1180 H1171 0.950 . S
C1180 C1179 1.398 . S
C1180 C1181 1.391 . S
C1181 H1169 0.950 . S
C1181 C1177 1.393 . S
C1181 C1180 1.391 . S
C1182 H1172 0.950 . S
C1182 C1183 1.386 . S
C1182 C1184 1.391 . S
C1183 C1182 1.386 . S
C1183 C1187 1.393 . S
C1184 H1173 0.950 . S
C1184 C1182 1.391 . S
C1184 C1185 1.400 . S
C1185 C1179 1.491 . S
C1185 C1184 1.400 . S
C1185 C1186 1.398 . S
C1186 H1174 0.950 . S
C1186 C1185 1.398 . S
C1186 C1187 1.391 . S
C1187 H1175 0.950 . S
C1187 C1183 1.393 . S
C1187 C1186 1.391 . S
H1188 C1196 0.950 . S
H1189 C1201 0.950 . S
H1190 C1198 0.950 . S
H1191 C1200 0.950 . S
H1192 C1202 0.950 . S
H1193 C1204 0.950 . S
H1194 C1206 0.950 . S
H1195 C1207 0.950 . S
C1196 H1188 0.950 . S
C1196 C1197 1.386 . S
C1196 C1198 1.391 . S
C1197 C1196 1.386 . S
C1197 C1201 1.393 . S
C1198 H1190 0.950 . S
C1198 C1196 1.391 . S
C1198 C1199 1.400 . S
C1199 C1198 1.400 . S
C1199 C1200 1.398 . S
C1199 C1205 1.491 . S
C1200 H1191 0.950 . S
C1200 C1199 1.398 . S
C1200 C1201 1.391 . S
C1201 H1189 0.950 . S
C1201 C1197 1.393 . S
C1201 C1200 1.391 . S
C1202 H1192 0.950 . S
C1202 C1203 1.386 . S
C1202 C1204 1.391 . S
C1203 C1202 1.386 . S
C1203 C1207 1.393 . S
C1204 H1193 0.950 . S
C1204 C1202 1.391 . S
C1204 C1205 1.400 . S
C1205 C1199 1.491 . S
C1205 C1204 1.400 . S
C1205 C1206 1.398 . S
C1206 H1194 0.950 . S
C1206 C1205 1.398 . S
C1206 C1207 1.391 . S
C1207 H1195 0.950 . S
C1207 C1203 1.393 . S
C1207 C1206 1.391 . S
H1208 C1216 0.950 . S
H1209 C1221 0.950 . S
H1210 C1218 0.950 . S
H1211 C1220 0.950 . S
H1212 C1222 0.950 . S
H1213 C1224 0.950 . S
H1214 C1226 0.950 . S
H1215 C1227 0.950 . S
C1216 H1208 0.950 . S
C1216 C1217 1.386 . S
C1216 C1218 1.391 . S
C1217 C1216 1.386 . S
C1217 C1221 1.393 . S
C1218 H1210 0.950 . S
C1218 C1216 1.391 . S
C1218 C1219 1.400 . S
C1219 C1218 1.400 . S
C1219 C1220 1.398 . S
C1219 C1225 1.491 . S
C1220 H1211 0.950 . S
C1220 C1219 1.398 . S
C1220 C1221 1.391 . S
C1221 H1209 0.950 . S
C1221 C1217 1.393 . S
C1221 C1220 1.391 . S
C1222 H1212 0.950 . S
C1222 C1223 1.386 . S
C1222 C1224 1.391 . S
C1223 C1222 1.386 . S
C1223 C1227 1.393 . S
C1224 H1213 0.950 . S
C1224 C1222 1.391 . S
C1224 C1225 1.400 . S
C1225 C1219 1.491 . S
C1225 C1224 1.400 . S
C1225 C1226 1.398 . S
C1226 H1214 0.950 . S
C1226 C1225 1.398 . S
C1226 C1227 1.391 . S
C1227 H1215 0.950 . S
C1227 C1223 1.393 . S
C1227 C1226 1.391 . S
H1228 C1236 0.950 . S
H1229 C1241 0.950 . S
H1230 C1238 0.950 . S
H1231 C1240 0.950 . S
H1232 C1242 0.950 . S
H1233 C1244 0.950 . S
H1234 C1246 0.950 . S
H1235 C1247 0.950 . S
C1236 H1228 0.950 . S
C1236 C1237 1.386 . S
C1236 C1238 1.391 . S
C1237 C1236 1.386 . S
C1237 C1241 1.393 . S
C1238 H1230 0.950 . S
C1238 C1236 1.391 . S
C1238 C1239 1.400 . S
C1239 C1238 1.400 . S
C1239 C1240 1.398 . S
C1239 C1245 1.491 . S
C1240 H1231 0.950 . S
C1240 C1239 1.398 . S
C1240 C1241 1.391 . S
C1241 H1229 0.950 . S
C1241 C1237 1.393 . S
C1241 C1240 1.391 . S
C1242 H1232 0.950 . S
C1242 C1243 1.386 . S
C1242 C1244 1.391 . S
C1243 C1242 1.386 . S
C1243 C1247 1.393 . S
C1244 H1233 0.950 . S
C1244 C1242 1.391 . S
C1244 C1245 1.400 . S
C1245 C1239 1.491 . S
C1245 C1244 1.400 . S
C1245 C1246 1.398 . S
C1246 H1234 0.950 . S
C1246 C1245 1.398 . S
C1246 C1247 1.391 . S
C1247 H1235 0.950 . S
C1247 C1243 1.393 . S
C1247 C1246 1.391 . S
C623 C497 1.614 . S
C617 C47 1.502 . S
C643 C523 1.492 . S
C637 C115 1.463 . S
C663 C537 1.552 . S
C657 C153 1.400 . S
C683 C539 1.672 . S
C677 C233 1.535 . S
C697 C283 1.448 . S
C703 C536 1.487 . S
C723 C538 1.617 . S
C717 C357 1.505 . S
C743 C496 1.670 . S
C737 C401 1.522 . S
C763 C522 1.556 . S
C757 C463 1.410 . S
C783 C524 1.389 . S
C777 C469 1.354 . S
C803 C550 1.531 . S
C797 C277 1.416 . S
C823 C508 1.524 . S
C817 C363 1.504 . S
C843 C510 1.372 . S
C837 C407 1.357 . S
C863 C509 1.534 . S
C857 C109 1.428 . S
C883 C511 1.392 . S
C877 C159 1.366 . S
C903 C525 1.368 . S
C897 C239 1.334 . S
C923 C551 1.521 . S
C917 C53 1.515 . S
C943 C553 1.614 . S
C937 C481 1.495 . S
C957 C301 1.463 . S
C963 C579 1.492 . S
C977 C339 1.394 . S
C983 C592 1.551 . S
C997 C419 1.566 . S
C1003 C595 1.678 . S
C1017 C97 1.437 . S
C1023 C593 1.486 . S
C1037 C171 1.515 . S
C1043 C594 1.615 . S
C1057 C215 1.557 . S
C1063 C552 1.678 . S
C1083 C578 1.561 . S
C1077 C29 1.433 . S
C1103 C581 1.389 . S
C1097 C35 1.356 . S
C1117 C91 1.429 . S
C1123 C606 1.529 . S
C1137 C177 1.508 . S
C1143 C564 1.518 . S
C1157 C221 1.344 . S
C1163 C566 1.370 . S
C1183 C565 1.530 . S
C1177 C295 1.424 . S
C1203 C567 1.386 . S
C1197 C345 1.345 . S
C1217 C425 1.346 . S
C1223 C580 1.372 . S
C1243 C607 1.523 . S
C1237 C487 1.510 . S
