# Generated by pormake.
# Topology ssc, (4,4)-cn, num edge types: 1
# Building blocks:
#     Node 0, Type 0, BuildingBlock: CEKHIL_clean_sbu_0, # of connection points: 4
#     Node 1, Type 0, BuildingBlock: CEKHIL_clean_sbu_0, # of connection points: 4
#     Node 2, Type 0, BuildingBlock: CEKHIL_clean_sbu_0, # of connection points: 4
#     Node 3, Type 0, BuildingBlock: CEKHIL_clean_sbu_0, # of connection points: 4
#     Node 4, Type 0, BuildingBlock: CEKHIL_clean_sbu_0, # of connection points: 4
#     Node 5, Type 0, BuildingBlock: CEKHIL_clean_sbu_0, # of connection points: 4
#     Node 6, Type 0, BuildingBlock: CEKHIL_clean_sbu_0, # of connection points: 4
#     Node 7, Type 0, BuildingBlock: CEKHIL_clean_sbu_0, # of connection points: 4
#     Node 8, Type 0, BuildingBlock: CEKHIL_clean_sbu_0, # of connection points: 4
#     Node 9, Type 0, BuildingBlock: CEKHIL_clean_sbu_0, # of connection points: 4
#     Node 10, Type 0, BuildingBlock: CEKHIL_clean_sbu_0, # of connection points: 4
#     Node 11, Type 0, BuildingBlock: CEKHIL_clean_sbu_0, # of connection points: 4
#     Node 12, Type 1, BuildingBlock: GIZVER_clean_linker_0, # of connection points: 4
#     Node 13, Type 1, BuildingBlock: GIZVER_clean_linker_0, # of connection points: 4
#     Node 14, Type 1, BuildingBlock: GIZVER_clean_linker_0, # of connection points: 4
#     Node 15, Type 1, BuildingBlock: GIZVER_clean_linker_0, # of connection points: 4
#     Node 16, Type 1, BuildingBlock: GIZVER_clean_linker_0, # of connection points: 4
#     Node 17, Type 1, BuildingBlock: GIZVER_clean_linker_0, # of connection points: 4
#     Node 18, Type 1, BuildingBlock: GIZVER_clean_linker_0, # of connection points: 4
#     Node 19, Type 1, BuildingBlock: GIZVER_clean_linker_0, # of connection points: 4
#     Node 20, Type 1, BuildingBlock: GIZVER_clean_linker_0, # of connection points: 4
#     Node 21, Type 1, BuildingBlock: GIZVER_clean_linker_0, # of connection points: 4
#     Node 22, Type 1, BuildingBlock: GIZVER_clean_linker_0, # of connection points: 4
#     Node 23, Type 1, BuildingBlock: GIZVER_clean_linker_0, # of connection points: 4
#     Edge 24, Type (0, 1), BuildingBlock: CIFDUS_clean_linker_0, # of connection points: 2
#     Edge 25, Type (0, 1), BuildingBlock: CIFDUS_clean_linker_0, # of connection points: 2
#     Edge 26, Type (0, 1), BuildingBlock: CIFDUS_clean_linker_0, # of connection points: 2
#     Edge 27, Type (0, 1), BuildingBlock: CIFDUS_clean_linker_0, # of connection points: 2
#     Edge 28, Type (0, 1), BuildingBlock: CIFDUS_clean_linker_0, # of connection points: 2
#     Edge 29, Type (0, 1), BuildingBlock: CIFDUS_clean_linker_0, # of connection points: 2
#     Edge 30, Type (0, 1), BuildingBlock: CIFDUS_clean_linker_0, # of connection points: 2
#     Edge 31, Type (0, 1), BuildingBlock: CIFDUS_clean_linker_0, # of connection points: 2
#     Edge 32, Type (0, 1), BuildingBlock: CIFDUS_clean_linker_0, # of connection points: 2
#     Edge 33, Type (0, 1), BuildingBlock: CIFDUS_clean_linker_0, # of connection points: 2
#     Edge 34, Type (0, 1), BuildingBlock: CIFDUS_clean_linker_0, # of connection points: 2
#     Edge 35, Type (0, 1), BuildingBlock: CIFDUS_clean_linker_0, # of connection points: 2
#     Edge 36, Type (0, 1), BuildingBlock: CIFDUS_clean_linker_0, # of connection points: 2
#     Edge 37, Type (0, 1), BuildingBlock: CIFDUS_clean_linker_0, # of connection points: 2
#     Edge 38, Type (0, 1), BuildingBlock: CIFDUS_clean_linker_0, # of connection points: 2
#     Edge 39, Type (0, 1), BuildingBlock: CIFDUS_clean_linker_0, # of connection points: 2
#     Edge 40, Type (0, 1), BuildingBlock: CIFDUS_clean_linker_0, # of connection points: 2
#     Edge 41, Type (0, 1), BuildingBlock: CIFDUS_clean_linker_0, # of connection points: 2
#     Edge 42, Type (0, 1), BuildingBlock: CIFDUS_clean_linker_0, # of connection points: 2
#     Edge 43, Type (0, 1), BuildingBlock: CIFDUS_clean_linker_0, # of connection points: 2
#     Edge 44, Type (0, 1), BuildingBlock: CIFDUS_clean_linker_0, # of connection points: 2
#     Edge 45, Type (0, 1), BuildingBlock: CIFDUS_clean_linker_0, # of connection points: 2
#     Edge 46, Type (0, 1), BuildingBlock: CIFDUS_clean_linker_0, # of connection points: 2
#     Edge 47, Type (0, 1), BuildingBlock: CIFDUS_clean_linker_0, # of connection points: 2
#     Edge 48, Type (0, 1), BuildingBlock: CIFDUS_clean_linker_0, # of connection points: 2
#     Edge 49, Type (0, 1), BuildingBlock: CIFDUS_clean_linker_0, # of connection points: 2
#     Edge 50, Type (0, 1), BuildingBlock: CIFDUS_clean_linker_0, # of connection points: 2
#     Edge 51, Type (0, 1), BuildingBlock: CIFDUS_clean_linker_0, # of connection points: 2
#     Edge 52, Type (0, 1), BuildingBlock: CIFDUS_clean_linker_0, # of connection points: 2
#     Edge 53, Type (0, 1), BuildingBlock: CIFDUS_clean_linker_0, # of connection points: 2
#     Edge 54, Type (0, 1), BuildingBlock: CIFDUS_clean_linker_0, # of connection points: 2
#     Edge 55, Type (0, 1), BuildingBlock: CIFDUS_clean_linker_0, # of connection points: 2
#     Edge 56, Type (0, 1), BuildingBlock: CIFDUS_clean_linker_0, # of connection points: 2
#     Edge 57, Type (0, 1), BuildingBlock: CIFDUS_clean_linker_0, # of connection points: 2
#     Edge 58, Type (0, 1), BuildingBlock: CIFDUS_clean_linker_0, # of connection points: 2
#     Edge 59, Type (0, 1), BuildingBlock: CIFDUS_clean_linker_0, # of connection points: 2
#     Edge 60, Type (0, 1), BuildingBlock: CIFDUS_clean_linker_0, # of connection points: 2
#     Edge 61, Type (0, 1), BuildingBlock: CIFDUS_clean_linker_0, # of connection points: 2
#     Edge 62, Type (0, 1), BuildingBlock: CIFDUS_clean_linker_0, # of connection points: 2
#     Edge 63, Type (0, 1), BuildingBlock: CIFDUS_clean_linker_0, # of connection points: 2
#     Edge 64, Type (0, 1), BuildingBlock: CIFDUS_clean_linker_0, # of connection points: 2
#     Edge 65, Type (0, 1), BuildingBlock: CIFDUS_clean_linker_0, # of connection points: 2
#     Edge 66, Type (0, 1), BuildingBlock: CIFDUS_clean_linker_0, # of connection points: 2
#     Edge 67, Type (0, 1), BuildingBlock: CIFDUS_clean_linker_0, # of connection points: 2
#     Edge 68, Type (0, 1), BuildingBlock: CIFDUS_clean_linker_0, # of connection points: 2
#     Edge 69, Type (0, 1), BuildingBlock: CIFDUS_clean_linker_0, # of connection points: 2
#     Edge 70, Type (0, 1), BuildingBlock: CIFDUS_clean_linker_0, # of connection points: 2
#     Edge 71, Type (0, 1), BuildingBlock: CIFDUS_clean_linker_0, # of connection points: 2
# Relax obj value: 0.117
# Max RMSD: 0.302
# Mean RMSD: 0.276
data_MOF--net-ssc--node1-CEKHIL_clean_sbu_0--node2-GIZVER_clean_linker_0--edge1-CIFDUS_clean_linker_0
_symmetry_space_group_name_H-M    P1
_symmetry_Int_Tables_number       1
_symmetry_cell_setting            triclinic
loop_
_symmetry_equiv_pos_as_xyz
'x, y, z'
_cell_length_a     27.295282
_cell_length_b     27.471005
_cell_length_c     27.27126
_cell_angle_alpha  91.379691
_cell_angle_beta   89.87335
_cell_angle_gamma 93.887811
loop_
_atom_site_label
_atom_site_type_symbol
_atom_site_fract_x
_atom_site_fract_y
_atom_site_fract_z
_atom_type_partial_charge
Co0 Co 0.96748 0.21829 0.14721 0.0
O1 O 0.02754 0.22984 0.11188 0.0
O2 O 0.96013 0.26856 0.09968 0.0
C3 C 0.00113 0.22117 0.22213 0.0
O4 O 0.90003 0.21929 0.17916 0.0
Co5 Co 0.94773 0.12456 0.20365 0.0
O6 O 0.89361 0.15926 0.23366 0.0
C7 C 0.93654 0.11901 0.09753 0.0
C8 C 0.00597 0.26328 0.08899 0.0
C9 C 0.87833 0.19754 0.21522 0.0
O10 O 0.94501 0.16568 0.09734 0.0
O11 O 0.93766 0.09425 0.13653 0.0
O12 O 0.99185 0.26069 0.20001 0.0
O13 O 0.99512 0.18064 0.19659 0.0
Co14 Co 0.10046 0.76441 0.36951 0.0
O15 O 0.12855 0.73929 0.42784 0.0
O16 O 0.06068 0.708 0.39133 0.0
C17 C 0.17205 0.77347 0.32843 0.0
O18 O 0.06189 0.77502 0.30693 0.0
Co19 Co 0.12459 0.86577 0.32682 0.0
O20 O 0.10543 0.83145 0.26447 0.0
C21 C 0.06122 0.85755 0.41416 0.0
C22 C 0.09313 0.70518 0.4256 0.0
C23 C 0.07475 0.79464 0.26609 0.0
O24 O 0.06153 0.81058 0.41077 0.0
O25 O 0.08381 0.88631 0.3842 0.0
O26 O 0.14813 0.73099 0.33061 0.0
O27 O 0.15342 0.80861 0.35297 0.0
Co28 Co 0.52882 0.78473 0.60029 0.0
O29 O 0.5644 0.8223 0.55198 0.0
O30 O 0.483 0.81407 0.55798 0.0
C31 C 0.57415 0.81025 0.66574 0.0
O32 O 0.479 0.75208 0.64645 0.0
Co33 Co 0.57826 0.70454 0.6576 0.0
O34 O 0.52164 0.71312 0.70218 0.0
C35 C 0.54664 0.68401 0.55594 0.0
C36 C 0.52173 0.83229 0.53543 0.0
C37 C 0.48241 0.73079 0.68753 0.0
O38 O 0.52721 0.72537 0.55539 0.0
O39 O 0.57067 0.66945 0.59243 0.0
O40 O 0.54053 0.83703 0.64922 0.0
O41 O 0.58293 0.77242 0.63899 0.0
Co42 Co 0.47787 0.24996 0.88975 0.0
O43 O 0.52675 0.21955 0.92634 0.0
O44 O 0.44618 0.20447 0.93456 0.0
C45 C 0.51241 0.24136 0.8157 0.0
O46 O 0.41673 0.27012 0.85584 0.0
Co47 Co 0.50383 0.34536 0.83292 0.0
O48 O 0.44103 0.32514 0.79933 0.0
C49 C 0.48977 0.35153 0.93965 0.0
C50 C 0.49038 0.19439 0.94649 0.0
C51 C 0.40892 0.29512 0.81783 0.0
O52 O 0.47627 0.30551 0.94013 0.0
O53 O 0.50537 0.37335 0.90118 0.0
O54 O 0.48673 0.20487 0.83455 0.0
O55 O 0.52088 0.2792 0.84421 0.0
Co56 Co 0.12929 0.03139 0.32279 0.0
O57 O 0.17452 0.98116 0.31974 0.0
O58 O 0.15427 0.02108 0.38794 0.0
C59 C 0.06996 0.9948 0.27454 0.0
O60 O 0.08316 0.0832 0.34067 0.0
Co61 Co 0.10406 0.08666 0.22878 0.0
O62 O 0.04764 0.10424 0.27069 0.0
C63 C 0.19964 0.10733 0.27561 0.0
C64 C 0.18015 0.98866 0.36668 0.0
C65 C 0.04952 0.10335 0.31741 0.0
O66 O 0.18446 0.08197 0.3122 0.0
O67 O 0.17509 0.11087 0.23609 0.0
O68 O 0.07321 0.98321 0.32039 0.0
O69 O 0.10579 0.02318 0.2584 0.0
Co70 Co 0.23184 0.89067 0.58931 0.0
O71 O 0.21197 0.95289 0.61286 0.0
O72 O 0.20264 0.92398 0.53635 0.0
C73 C 0.20153 0.84505 0.65131 0.0
O74 O 0.24459 0.82861 0.55112 0.0
Co75 Co 0.3072 0.83172 0.64321 0.0
O76 O 0.2839 0.77739 0.5976 0.0
C77 C 0.34181 0.91912 0.58985 0.0
C78 C 0.19681 0.95879 0.56833 0.0
C79 C 0.2605 0.78643 0.55898 0.0
O80 O 0.29844 0.92163 0.5723 0.0
O81 O 0.35294 0.88771 0.62116 0.0
O82 O 0.1729 0.85812 0.61664 0.0
O83 O 0.24619 0.86423 0.65031 0.0
Co84 Co 0.42193 0.03501 0.78213 0.0
O85 O 0.36761 0.0694 0.76027 0.0
O86 O 0.38866 0.06213 0.83831 0.0
C87 C 0.47865 0.06542 0.72925 0.0
O88 O 0.47683 0.00482 0.81855 0.0
Co89 Co 0.4683 0.95793 0.7161 0.0
O90 O 0.5254 0.97595 0.75977 0.0
C91 C 0.37152 0.93414 0.75879 0.0
C92 C 0.35902 0.07846 0.80635 0.0
C93 C 0.5188 0.99226 0.80324 0.0
O94 O 0.3771 0.97389 0.78455 0.0
O95 O 0.40287 0.92096 0.72701 0.0
O96 O 0.46755 0.09003 0.76859 0.0
O97 O 0.45105 0.02592 0.72002 0.0
Co98 Co 0.24816 0.12209 0.0753 0.0
O99 O 0.26976 0.08266 0.12729 0.0
O100 O 0.30778 0.09229 0.0558 0.0
C101 C 0.23315 0.18697 0.12273 0.0
O102 O 0.23971 0.16241 0.01403 0.0
Co103 Co 0.14176 0.15196 0.07079 0.0
O104 O 0.16487 0.19184 0.01466 0.0
C105 C 0.16154 0.04995 0.05509 0.0
C106 C 0.30617 0.07299 0.09885 0.0
C107 C 0.20741 0.189 0.996 0.0
O108 O 0.20697 0.06402 0.0488 0.0
O109 O 0.12893 0.07909 0.06774 0.0
O110 O 0.27747 0.18002 0.1079 0.0
O111 O 0.19985 0.1525 0.11241 0.0
Co112 Co 0.65797 0.38916 0.06484 0.0
O113 O 0.64025 0.43169 0.11749 0.0
O114 O 0.59658 0.41758 0.04949 0.0
C115 C 0.67664 0.32783 0.11269 0.0
O116 O 0.66407 0.34411 0.00445 0.0
Co117 Co 0.76629 0.36007 0.05867 0.0
O118 O 0.73928 0.31457 0.0062 0.0
C119 C 0.74286 0.45936 0.03614 0.0
C120 C 0.60111 0.43878 0.09262 0.0
C121 C 0.69652 0.31594 0.98777 0.0
O122 O 0.69718 0.44465 0.03266 0.0
O123 O 0.77576 0.43276 0.05211 0.0
O124 O 0.63121 0.33341 0.10128 0.0
O125 O 0.70819 0.36194 0.0991 0.0
Co126 Co 0.86489 0.58632 0.20891 0.0
O127 O 0.82025 0.62884 0.18099 0.0
O128 O 0.83148 0.61974 0.26079 0.0
C129 C 0.92878 0.6075 0.16085 0.0
O130 O 0.91028 0.54923 0.25129 0.0
Co131 Co 0.90575 0.50149 0.14933 0.0
O132 O 0.9594 0.51215 0.19844 0.0
C133 C 0.80531 0.48938 0.18783 0.0
C134 C 0.80942 0.64103 0.22581 0.0
C135 C 0.95083 0.53006 0.24089 0.0
O136 O 0.81202 0.53159 0.20902 0.0
O137 O 0.83782 0.47047 0.16085 0.0
O138 O 0.91859 0.63401 0.19911 0.0
O139 O 0.89731 0.57141 0.14997 0.0
Co140 Co 0.81778 0.61633 0.53059 0.0
O141 O 0.84065 0.55965 0.56115 0.0
O142 O 0.85615 0.58112 0.48423 0.0
C143 C 0.83506 0.67093 0.59193 0.0
O144 O 0.80359 0.67114 0.48536 0.0
Co145 Co 0.73034 0.67238 0.56979 0.0
O146 O 0.75625 0.72348 0.52419 0.0
C147 C 0.71411 0.57207 0.53093 0.0
C148 C 0.86069 0.55031 0.51886 0.0
C149 C 0.78454 0.71247 0.48902 0.0
O150 O 0.75675 0.57609 0.51078 0.0
O151 O 0.697 0.6054 0.55827 0.0
O152 O 0.86956 0.6584 0.56203 0.0
O153 O 0.79297 0.647 0.58657 0.0
Co154 Co 0.66164 0.46227 0.68777 0.0
O155 O 0.70983 0.42463 0.65491 0.0
O156 O 0.69418 0.42447 0.73482 0.0
C157 C 0.59976 0.44694 0.63335 0.0
O158 O 0.61463 0.4916 0.73626 0.0
Co159 Co 0.61883 0.55336 0.64526 0.0
O160 O 0.56747 0.54113 0.69613 0.0
C161 C 0.7199 0.56108 0.68281 0.0
C162 C 0.71971 0.40898 0.69825 0.0
C163 C 0.57647 0.51609 0.73327 0.0
O164 O 0.71303 0.51739 0.69844 0.0
O165 O 0.68734 0.58244 0.65927 0.0
O166 O 0.60901 0.41542 0.66623 0.0
O167 O 0.6304 0.48496 0.6317 0.0
H168 H 0.14004 0.27173 0.75285 0.0
H169 H 0.12753 0.2758 0.59528 0.0
H170 H 0.16118 0.144 0.66458 0.0
H171 H 0.12446 0.34653 0.71763 0.0
H172 H 0.14678 0.35459 0.65671 0.0
H173 H 0.03521 0.32437 0.73242 0.0
H174 H 0.93737 0.35989 0.61883 0.0
H175 H 0.09192 0.35884 0.58847 0.0
C176 C 0.14038 0.25366 0.71747 0.0
C177 C 0.15076 0.2045 0.71425 0.0
C178 C 0.13106 0.2796 0.67491 0.0
C179 C 0.13307 0.25601 0.62846 0.0
C180 C 0.14234 0.20662 0.62528 0.0
C181 C 0.1512 0.18151 0.66799 0.0
C182 C 0.12019 0.33251 0.67923 0.0
C183 C 0.06898 0.33925 0.66181 0.0
C184 C 0.02905 0.33288 0.69441 0.0
C185 C 0.98141 0.33902 0.67801 0.0
C186 C 0.9741 0.35159 0.62938 0.0
C187 C 0.01339 0.35948 0.59651 0.0
C188 C 0.06096 0.35248 0.61298 0.0
H189 H 0.12602 0.70844 0.82974 0.0
H190 H 0.0344 0.74933 0.95148 0.0
H191 H 0.15002 0.84909 0.90065 0.0
H192 H 0.05912 0.65326 0.85241 0.0
H193 H 0.05595 0.6538 0.91777 0.0
H194 H 0.99418 0.69882 0.80537 0.0
H195 H 0.85214 0.69279 0.87354 0.0
H196 H 0.97739 0.65191 0.95409 0.0
C197 C 0.11556 0.73503 0.85702 0.0
C198 C 0.14205 0.7806 0.86071 0.0
C199 C 0.07554 0.72389 0.88872 0.0
C200 C 0.06375 0.75803 0.92564 0.0
C201 C 0.09084 0.80297 0.92985 0.0
C202 C 0.12905 0.81417 0.89693 0.0
C203 C 0.04724 0.67477 0.88489 0.0
C204 C 0.99253 0.67996 0.88195 0.0
C205 C 0.97148 0.69378 0.83777 0.0
C206 C 0.92062 0.69779 0.8346 0.0
C207 C 0.89148 0.69008 0.87637 0.0
C208 C 0.91057 0.66995 0.91834 0.0
C209 C 0.96174 0.66715 0.92186 0.0
H210 H 0.41705 0.67465 0.21777 0.0
H211 H 0.51899 0.76371 0.30867 0.0
H212 H 0.57188 0.65939 0.20561 0.0
H213 H 0.38556 0.7329 0.27344 0.0
H214 H 0.42069 0.73166 0.32833 0.0
H215 H 0.43402 0.80714 0.21342 0.0
H216 H 0.41041 0.94006 0.29335 0.0
H217 H 0.40804 0.80528 0.36889 0.0
C218 C 0.45431 0.68695 0.22779 0.0
C219 C 0.49363 0.66378 0.20674 0.0
C220 C 0.46332 0.72414 0.26394 0.0
C221 C 0.51181 0.73707 0.27928 0.0
C222 C 0.55088 0.71432 0.25759 0.0
C223 C 0.54155 0.67832 0.2211 0.0
C224 C 0.42112 0.74561 0.29036 0.0
C225 C 0.42506 0.80073 0.2917 0.0
C226 C 0.42983 0.82683 0.24792 0.0
C227 C 0.42567 0.87763 0.24824 0.0
C228 C 0.41801 0.90187 0.29331 0.0
C229 C 0.41054 0.87615 0.33682 0.0
C230 C 0.41544 0.82568 0.33584 0.0
H231 H 0.61708 0.24553 0.31567 0.0
H232 H 0.56674 0.28151 0.461 0.0
H233 H 0.61574 0.39531 0.36455 0.0
H234 H 0.58724 0.18085 0.36547 0.0
H235 H 0.60621 0.19489 0.42738 0.0
H236 H 0.49383 0.22583 0.35501 0.0
H237 H 0.39437 0.15641 0.45809 0.0
H238 H 0.54932 0.1457 0.47447 0.0
C239 C 0.60806 0.2727 0.34289 0.0
C240 C 0.61777 0.32258 0.33344 0.0
C241 C 0.58839 0.25753 0.3883 0.0
C242 C 0.57923 0.29273 0.42497 0.0
C243 C 0.58735 0.34242 0.41531 0.0
C244 C 0.60598 0.35685 0.3697 0.0
C245 C 0.57977 0.20376 0.39847 0.0
C246 C 0.52784 0.19101 0.41544 0.0
C247 C 0.4877 0.20588 0.38853 0.0
C248 C 0.4396 0.19422 0.40443 0.0
C249 C 0.43166 0.16732 0.44701 0.0
C250 C 0.47094 0.14933 0.4721 0.0
C251 C 0.51903 0.16092 0.45607 0.0
H252 H 0.62831 0.9538 0.11373 0.0
H253 H 0.71308 0.03084 0.22881 0.0
H254 H 0.60797 0.10435 0.14694 0.0
H255 H 0.67014 0.90649 0.17251 0.0
H256 H 0.72951 0.93864 0.1758 0.0
H257 H 0.61385 0.94997 0.25274 0.0
H258 H 0.68991 0.92919 0.38672 0.0
H259 H 0.76424 0.90997 0.24932 0.0
C260 C 0.63658 0.98626 0.13638 0.0
C261 C 0.6137 0.02915 0.12667 0.0
C262 C 0.67066 0.98579 0.17516 0.0
C263 C 0.68455 0.02971 0.20114 0.0
C264 C 0.66043 0.07179 0.19217 0.0
C265 C 0.62442 0.07073 0.15587 0.0
C266 C 0.69117 0.93852 0.1897 0.0
C267 C 0.69029 0.93359 0.2448 0.0
C268 C 0.64736 0.9426 0.27162 0.0
C269 C 0.64819 0.94331 0.32288 0.0
C270 C 0.69092 0.93219 0.34711 0.0
C271 C 0.73243 0.91877 0.32116 0.0
C272 C 0.73224 0.92012 0.26976 0.0
H273 H 0.19681 0.35992 0.58761 0.0
H274 H 0.31341 0.42024 0.49634 0.0
H275 H 0.34269 0.31371 0.60287 0.0
H276 H 0.18236 0.42767 0.54085 0.0
H277 H 0.23519 0.46361 0.51987 0.0
H278 H 0.195 0.33623 0.47061 0.0
H279 H 0.14444 0.39162 0.3355 0.0
H280 H 0.18973 0.49147 0.45226 0.0
C281 C 0.23423 0.35961 0.57448 0.0
C282 C 0.26738 0.3319 0.59865 0.0
C283 C 0.2504 0.39096 0.537 0.0
C284 C 0.30026 0.39379 0.52302 0.0
C285 C 0.33362 0.36483 0.54595 0.0
C286 C 0.31627 0.33281 0.58231 0.0
C287 C 0.21592 0.42657 0.51773 0.0
C288 C 0.19982 0.41542 0.46558 0.0
C289 C 0.18987 0.36701 0.44751 0.0
C290 C 0.17095 0.35861 0.40002 0.0
C291 C 0.16153 0.39829 0.37119 0.0
C292 C 0.1672 0.44598 0.39023 0.0
C293 C 0.18676 0.45456 0.43711 0.0
H294 H 0.9069 0.05909 0.62732 0.0
H295 H 0.80415 0.97701 0.72049 0.0
H296 H 0.902 0.90313 0.62621 0.0
H297 H 0.85702 0.10313 0.68234 0.0
H298 H 0.79861 0.07317 0.66859 0.0
H299 H 0.88047 0.04506 0.77537 0.0
H300 H 0.78716 0.10994 0.88142 0.0
H301 H 0.75723 0.12211 0.72801 0.0
C302 C 0.89245 0.02471 0.64197 0.0
C303 C 0.91095 0.98102 0.62445 0.0
C304 C 0.85433 0.0239 0.67753 0.0
C305 C 0.83453 0.97849 0.69481 0.0
C306 C 0.85366 0.93493 0.67795 0.0
C307 C 0.89056 0.93703 0.64232 0.0
C308 C 0.83176 0.0713 0.69193 0.0
C309 C 0.81707 0.07747 0.74544 0.0
C310 C 0.84711 0.06284 0.78375 0.0
C311 C 0.83533 0.0733 0.83294 0.0
C312 C 0.79397 0.09916 0.8436 0.0
C313 C 0.7664 0.11822 0.80621 0.0
C314 C 0.7776 0.1065 0.75715 0.0
H315 H 0.34575 0.67101 0.07834 0.0
H316 H 0.2037 0.60737 0.03656 0.0
H317 H 0.21592 0.74394 0.11579 0.0
H318 H 0.31588 0.57396 0.05182 0.0
H319 H 0.27323 0.57286 0.00178 0.0
H320 H 0.30391 0.67348 0.95915 0.0
H321 H 0.44477 0.65141 0.8963 0.0
H322 H 0.38286 0.54978 -2e-05 0.0
C323 C 0.30663 0.67461 0.07461 0.0
C324 C 0.28453 0.71216 0.10056 0.0
C325 C 0.27754 0.63859 0.04822 0.0
C326 C 0.22612 0.63841 0.05117 0.0
C327 C 0.20407 0.67553 0.07746 0.0
C328 C 0.23367 0.7154 0.09582 0.0
C329 C 0.30084 0.59652 0.0228 0.0
C330 C 0.34159 0.61314 0.98836 0.0
C331 C 0.33703 0.65384 0.95839 0.0
C332 C 0.37489 0.66813 0.9262 0.0
C333 C 0.41673 0.64164 0.92336 0.0
C334 C 0.41915 0.59817 0.94835 0.0
C335 C 0.38184 0.58411 0.98143 0.0
H336 H 0.83121 0.7557 0.04602 0.0
H337 H 0.81735 0.90973 0.06969 0.0
H338 H 0.95778 0.85177 0.08073 0.0
H339 H 0.75281 0.78554 0.03721 0.0
H340 H 0.74453 0.84005 0.07238 0.0
H341 H 0.74481 0.7854 0.948 0.0
H342 H 0.72757 0.91987 0.87656 0.0
H343 H 0.73664 0.91814 0.03339 0.0
C344 C 0.84822 0.79234 0.0507 0.0
C345 C 0.89811 0.79864 0.06337 0.0
C346 C 0.81915 0.83279 0.04987 0.0
C347 C 0.84025 0.8794 0.06408 0.0
C348 C 0.89063 0.88602 0.07405 0.0
C349 C 0.91963 0.84626 0.06949 0.0
C350 C 0.76464 0.82505 0.04051 0.0
C351 C 0.75097 0.85068 0.9948 0.0
C352 C 0.74437 0.82482 0.94956 0.0
C353 C 0.73285 0.85014 0.90744 0.0
C354 C 0.7351 0.90108 0.90999 0.0
C355 C 0.72877 0.92471 0.95537 0.0
C356 C 0.74024 0.90016 0.99787 0.0
H357 H 0.39158 0.5296 0.18203 0.0
H358 H 0.24371 0.49927 0.23522 0.0
H359 H 0.31924 0.38701 0.16115 0.0
H360 H 0.34549 0.59537 0.21445 0.0
H361 H 0.28125 0.58521 0.22836 0.0
H362 H 0.40853 0.56583 0.27293 0.0
H363 H 0.36673 0.57304 0.42424 0.0
H364 H 0.25756 0.58148 0.31265 0.0
C365 C 0.35976 0.50441 0.18692 0.0
C366 C 0.36076 0.4561 0.16943 0.0
C367 C 0.31776 0.51997 0.21133 0.0
C368 C 0.27618 0.48736 0.21695 0.0
C369 C 0.27723 0.43924 0.19955 0.0
C370 C 0.31934 0.4241 0.17587 0.0
C371 C 0.31794 0.57061 0.23317 0.0
C372 C 0.33087 0.56945 0.28676 0.0
C373 C 0.3801 0.56603 0.30067 0.0
C374 C 0.39303 0.56657 0.35036 0.0
C375 C 0.35614 0.56873 0.38596 0.0
C376 C 0.30775 0.57622 0.37299 0.0
C377 C 0.29479 0.57491 0.32311 0.0
H378 H 0.6916 0.31707 0.55499 0.0
H379 H 0.73972 0.17221 0.55665 0.0
H380 H 0.58787 0.19476 0.53714 0.0
H381 H 0.77091 0.3044 0.58234 0.0
H382 H 0.79053 0.24386 0.58694 0.0
H383 H 0.75053 0.31766 0.4784 0.0
H384 H 0.88829 0.30331 0.40529 0.0
H385 H 0.86149 0.23402 0.54208 0.0
C386 C 0.68307 0.2783 0.5499 0.0
C387 C 0.63455 0.25867 0.55552 0.0
C388 C 0.72194 0.24735 0.54943 0.0
C389 C 0.71106 0.19642 0.54909 0.0
C390 C 0.66198 0.17747 0.54516 0.0
C391 C 0.62524 0.21009 0.53922 0.0
C392 C 0.77278 0.26896 0.56216 0.0
C393 C 0.80413 0.27849 0.51764 0.0
C394 C 0.78763 0.30597 0.47858 0.0
C395 C 0.81795 0.31494 0.43774 0.0
C396 C 0.86572 0.29921 0.43799 0.0
C397 C 0.88015 0.26762 0.47375 0.0
C398 C 0.8503 0.25885 0.51456 0.0
H399 H 0.06384 0.47261 0.66251 0.0
H400 H 0.13887 0.54626 0.78581 0.0
H401 H 0.14672 0.60903 0.64356 0.0
H402 H 0.0462 0.47071 0.77179 0.0
H403 H 0.07652 0.42673 0.73688 0.0
H404 H 0.05996 0.46735 0.85606 0.0
H405 H 0.19728 0.4267 0.91295 0.0
H406 H 0.16758 0.41279 0.7594 0.0
C407 C 0.08879 0.5017 0.67724 0.0
C408 C 0.10478 0.54031 0.64715 0.0
C409 C 0.10338 0.50184 0.72701 0.0
C410 C 0.13125 0.54302 0.74686 0.0
C411 C 0.14719 0.58129 0.71636 0.0
C412 C 0.13576 0.57835 0.66651 0.0
C413 C 0.08311 0.461 0.7591 0.0
C414 C 0.11521 0.45117 0.80251 0.0
C415 C 0.09734 0.45742 0.8507 0.0
C416 C 0.12538 0.44424 0.89098 0.0
C417 C 0.17436 0.43403 0.88192 0.0
C418 C 0.1848 0.41213 0.8366 0.0
C419 C 0.15857 0.42663 0.79558 0.0
H420 H 0.98108 0.34993 0.05068 0.0
H421 H 0.09433 0.24743 0.05022 0.0
H422 H 0.14302 0.29764 0.99383 0.0
H423 H 0.15062 0.36511 0.94094 0.0
H424 H 0.04151 0.47218 0.93993 0.0
H425 H 0.99359 0.42497 0.00087 0.0
C426 C 0.01631 0.33865 0.03793 0.0
C427 C 0.03375 0.29456 0.05397 0.0
C428 C 0.0447 0.3682 0.0055 0.0
C429 C 0.07983 0.2808 0.03801 0.0
C430 C 0.1078 0.30955 0.00585 0.0
C431 C 0.11746 0.38003 0.9547 0.0
C432 C 0.10035 0.42297 0.93535 0.0
C433 C 0.09034 0.3529 0.98909 0.0
C434 C 0.05582 0.43929 0.95355 0.0
C435 C 0.02828 0.41218 0.98837 0.0
H436 H 0.98255 0.75195 0.25391 0.0
H437 H 0.11373 0.79822 0.17452 0.0
H438 H 0.0712 0.78154 0.09665 0.0
H439 H 0.99267 0.77296 0.05326 0.0
H440 H 0.8596 0.73995 0.13422 0.0
H441 H 0.9064 0.72993 0.2083 0.0
C442 C 0.00199 0.75744 0.21954 0.0
C443 C 0.05071 0.77737 0.21985 0.0
C444 C 0.9767 0.74992 0.17491 0.0
C445 C 0.07569 0.7841 0.17509 0.0
C446 C 0.05153 0.77423 0.13056 0.0
C447 C 0.97429 0.76061 0.08651 0.0
C448 C 0.92276 0.75999 0.08902 0.0
C449 C 0.0014 0.75942 0.13009 0.0
C450 C 0.89922 0.74221 0.13155 0.0
C451 C 0.92603 0.73779 0.17451 0.0
H452 H 0.53856 0.70472 0.45959 0.0
H453 H 0.52751 0.58653 0.56088 0.0
H454 H 0.48894 0.53248 0.49755 0.0
H455 H 0.44538 0.5236 0.41972 0.0
H456 H 0.45132 0.64311 0.32072 0.0
H457 H 0.50746 0.69092 0.37544 0.0
C458 C 0.52923 0.66661 0.46718 0.0
C459 C 0.53532 0.64951 0.51477 0.0
C460 C 0.50717 0.63566 0.43066 0.0
C461 C 0.52333 0.60021 0.52438 0.0
C462 C 0.50118 0.56939 0.48835 0.0
C463 C 0.46136 0.55901 0.40894 0.0
C464 C 0.44376 0.58039 0.36678 0.0
C465 C 0.4915 0.58708 0.44194 0.0
C466 C 0.46459 0.6261 0.35289 0.0
C467 C 0.49598 0.65375 0.38472 0.0
H468 H 0.58127 0.30086 0.77348 0.0
H469 H 0.46979 0.18617 0.74042 0.0
H470 H 0.48886 0.19168 0.6529 0.0
H471 H 0.54023 0.226 0.5876 0.0
H472 H 0.6589 0.33367 0.62425 0.0
H473 H 0.63203 0.33504 0.70796 0.0
C474 C 0.56105 0.27716 0.74707 0.0
C475 C 0.52438 0.2431 0.76318 0.0
C476 C 0.57303 0.2796 0.69728 0.0
C477 C 0.49843 0.21254 0.72876 0.0
C478 C 0.50905 0.21599 0.67874 0.0
C479 C 0.56121 0.24962 0.61323 0.0
C480 C 0.60498 0.27616 0.59863 0.0
C481 C 0.54686 0.24906 0.66268 0.0
C482 C 0.62722 0.30996 0.63314 0.0
C483 C 0.6118 0.31114 0.68181 0.0
H484 H 0.02466 0.67053 0.49167 0.0
H485 H 0.16246 0.6408 0.42438 0.0
H486 H 0.17195 0.57387 0.48051 0.0
H487 H 0.15013 0.53704 0.55932 0.0
H488 H 0.01351 0.56762 0.62879 0.0
H489 H 0.99404 0.62031 0.56144 0.0
C490 C 0.05648 0.64899 0.48928 0.0
C491 C 0.09416 0.66164 0.45584 0.0
C492 C 0.06211 0.61112 0.52238 0.0
C493 C 0.13456 0.63297 0.45181 0.0
C494 C 0.13976 0.59461 0.48351 0.0
C495 C 0.11497 0.55323 0.55825 0.0
C496 C 0.08327 0.54858 0.59872 0.0
C497 C 0.10511 0.58504 0.52053 0.0
C498 C 0.03812 0.57025 0.59759 0.0
C499 C 0.02753 0.60129 0.55963 0.0
H500 H 0.64992 0.76489 0.70542 0.0
H501 H 0.54554 0.87278 0.73722 0.0
H502 H 0.58117 0.88748 0.81856 0.0
H503 H 0.64467 0.87404 0.8777 0.0
H504 H 0.75546 0.77331 0.84473 0.0
H505 H 0.71105 0.74789 0.76833 0.0
C506 C 0.63493 0.7915 0.73028 0.0
C507 C 0.59563 0.81831 0.71509 0.0
C508 C 0.65614 0.80038 0.77686 0.0
C509 C 0.57627 0.85235 0.74771 0.0
C510 C 0.5964 0.86053 0.79431 0.0
C511 C 0.6597 0.84674 0.85361 0.0
C512 C 0.7042 0.82676 0.8659 0.0
C513 C 0.63683 0.83543 0.80872 0.0
C514 C 0.72186 0.78988 0.83559 0.0
C515 C 0.69721 0.77612 0.79168 0.0
H516 H 0.48047 0.32334 0.0348 0.0
H517 H 0.48004 0.44963 0.94358 0.0
H518 H 0.44871 0.49737 0.01155 0.0
H519 H 0.40586 0.49839 0.09094 0.0
H520 H 0.40783 0.37323 0.18305 0.0
H521 H 0.45491 0.3306 0.12121 0.0
C522 C 0.47422 0.36152 0.03004 0.0
C523 C 0.48108 0.38228 0.98376 0.0
C524 C 0.45584 0.38901 0.06924 0.0
C525 C 0.47421 0.43227 0.97855 0.0
C526 C 0.45585 0.45968 0.01728 0.0
C527 C 0.4181 0.46249 0.09813 0.0
C528 C 0.40241 0.43842 0.14075 0.0
C529 C 0.44428 0.43777 0.062 0.0
C530 C 0.41884 0.39205 0.14991 0.0
C531 C 0.44541 0.36752 0.11446 0.0
H532 H 0.87432 0.29427 0.23378 0.0
H533 H 0.79812 0.15468 0.25999 0.0
H534 H 0.75183 0.19069 0.32668 0.0
H535 H 0.75282 0.25399 0.39084 0.0
H536 H 0.84019 0.38861 0.37303 0.0
H537 H 0.85946 0.36449 0.28868 0.0
C538 C 0.84619 0.27226 0.25289 0.0
C539 C 0.83976 0.22186 0.24238 0.0
C540 C 0.82243 0.29244 0.29356 0.0
C541 C 0.80363 0.19355 0.26764 0.0
C542 C 0.77752 0.21405 0.30604 0.0
C543 C 0.77375 0.27923 0.36748 0.0
C544 C 0.79722 0.32176 0.3886 0.0
C545 C 0.78921 0.2625 0.32139 0.0
C546 C 0.82269 0.35506 0.35773 0.0
C547 C 0.83514 0.34045 0.31006 0.0
H548 H 0.05961 0.15166 0.40522 0.0
H549 H 0.95386 0.10464 0.2935 0.0
H550 H 0.89012 0.1459 0.33768 0.0
H551 H 0.8669 0.2014 0.40267 0.0
H552 H 0.97272 0.25662 0.51072 0.0
H553 H 0.03439 0.20501 0.47419 0.0
C554 C 0.0224 0.15004 0.3911 0.0
C555 C 0.01123 0.12596 0.34597 0.0
C556 C 0.98632 0.17494 0.4161 0.0
C557 C 0.96319 0.12396 0.32766 0.0
C558 C 0.92682 0.14716 0.353 0.0
C559 C 0.90337 0.20146 0.41859 0.0
C560 C 0.91589 0.23248 0.45882 0.0
C561 C 0.93837 0.1737 0.39639 0.0
C562 C 0.96275 0.23267 0.47967 0.0
C563 C 0.99779 0.20348 0.45865 0.0
H564 H 0.25879 0.77834 0.69063 0.0
H565 H 0.10934 0.81922 0.68237 0.0
H566 H 0.08035 0.74258 0.71969 0.0
H567 H 0.09583 0.65803 0.73639 0.0
H568 H 0.24336 0.61212 0.73099 0.0
H569 H 0.27521 0.69659 0.71871 0.0
C570 C 0.21998 0.77068 0.69746 0.0
C571 C 0.18607 0.80376 0.68269 0.0
C572 C 0.20338 0.72538 0.71643 0.0
C573 C 0.13599 0.79386 0.69276 0.0
C574 C 0.11943 0.75009 0.71406 0.0
C575 C 0.13514 0.66711 0.73504 0.0
C576 C 0.16733 0.62932 0.73493 0.0
C577 C 0.15254 0.71466 0.72368 0.0
C578 C 0.2181 0.64089 0.73207 0.0
C579 C 0.23613 0.68895 0.72392 0.0
H580 H 0.52446 0.9659 0.89813 0.0
H581 H 0.60859 0.03275 0.78079 0.0
H582 H 0.6827 0.03642 0.83101 0.0
H583 H 0.72575 0.00626 0.90104 0.0
H584 H 0.64428 0.92163 0.00866 0.0
H585 H 0.56732 0.94241 0.9725 0.0
C586 C 0.55892 0.98209 0.8842 0.0
C587 C 0.56151 -0.00138 0.83598 0.0
C588 C 0.60196 0.98143 0.91222 0.0
C589 C 0.60616 0.01932 0.8178 0.0
C590 C 0.64841 0.02172 0.84659 0.0
C591 C 0.69104 0.99444 0.91792 0.0
C592 C 0.69091 0.96103 0.95621 0.0
C593 C 0.64713 0.00122 0.89316 0.0
C594 C 0.64577 0.94658 0.97845 0.0
C595 C 0.60153 0.95724 0.95685 0.0
H596 H 0.17529 0.26205 0.10959 0.0
H597 H 0.2754 0.20285 0.2102 0.0
H598 H 0.27821 0.27743 0.26029 0.0
H599 H 0.27261 0.36489 0.26032 0.0
H600 H 0.19239 0.42991 0.14646 0.0
H601 H 0.15828 0.34926 0.11856 0.0
C602 C 0.19601 0.26525 0.14355 0.0
C603 C 0.22449 0.22714 0.15714 0.0
C604 C 0.20095 0.31014 0.16961 0.0
C605 C 0.2524 0.2315 0.20021 0.0
C606 C 0.25442 0.2744 0.22842 0.0
C607 C 0.24539 0.36125 0.23124 0.0
C608 C 0.2358 0.40255 0.20463 0.0
C609 C 0.23142 0.31487 0.21172 0.0
C610 C 0.20047 0.39826 0.16717 0.0
C611 C 0.18205 0.35202 0.15045 0.0
H612 H 0.05515 0.01366 0.17814 0.0
H613 H 0.9862 0.94345 0.30292 0.0
H614 H 0.91617 0.9145 0.25211 0.0
H615 H 0.8806 0.89915 0.17039 0.0
H616 H 0.9532 0.96142 0.0441 0.0
H617 H 0.01442 0.00558 0.0973 0.0
C618 C 0.02455 0.99246 0.19431 0.0
C619 C 0.02626 0.98008 0.24413 0.0
C620 C 0.98468 0.97518 0.16459 0.0
C621 C 0.98616 0.95291 0.26458 0.0
C622 C 0.94596 0.93654 0.23559 0.0
C623 C 0.90851 0.92431 0.15486 0.0
C624 C 0.91205 0.92788 0.10363 0.0
C625 C 0.94543 0.94637 0.18535 0.0
C626 C 0.94931 0.95904 0.08352 0.0
C627 C 0.98484 0.98336 0.1139 0.0
H628 H 0.26272 0.68736 0.56612 0.0
H629 H 0.24588 0.80134 0.46303 0.0
H630 H 0.24905 0.74285 0.39482 0.0
H631 H 0.26861 0.66211 0.36475 0.0
H632 H 0.28509 0.54692 0.46638 0.0
H633 H 0.26844 0.60245 0.53515 0.0
C634 C 0.25904 0.69912 0.5287 0.0
C635 C 0.25524 0.74888 0.51931 0.0
C636 C 0.26041 0.66495 0.48958 0.0
C637 C 0.24941 0.76342 0.47086 0.0
C638 C 0.25111 0.72995 0.4319 0.0
C639 C 0.26596 0.64847 0.40165 0.0
C640 C 0.27792 0.60062 0.41044 0.0
C641 C 0.25799 0.68093 0.44076 0.0
C642 C 0.2758 0.5837 0.45877 0.0
C643 C 0.26715 0.61567 0.49807 0.0
H644 H 0.50178 0.04059 0.63438 0.0
H645 H 0.5582 0.11945 0.76332 0.0
H646 H 0.63097 0.14851 0.71836 0.0
H647 H 0.67105 0.16313 0.64018 0.0
H648 H 0.61052 0.09487 0.50802 0.0
H649 H 0.54914 0.0474 0.55645 0.0
C650 C 0.53042 0.06355 0.6526 0.0
C651 C 0.52422 0.0786 0.70182 0.0
C652 C 0.57187 0.08149 0.62594 0.0
C653 C 0.56163 0.10817 0.72519 0.0
C654 C 0.6035 0.12454 0.69961 0.0
C655 C 0.64597 0.136 0.62219 0.0
C656 C 0.64524 0.13243 0.57071 0.0
C657 C 0.6082 0.11281 0.64966 0.0
C658 C 0.61188 0.09799 0.54766 0.0
C659 C 0.57602 0.07187 0.57528 0.0
H660 H 0.1508 0.2073 0.91856 0.0
H661 H 0.2932 0.24433 0.98193 0.0
H662 H 0.3053 0.31374 0.92719 0.0
H663 H 0.26671 0.37325 0.8745 0.0
H664 H 0.12315 0.33471 0.81388 0.0
H665 H 0.12071 0.25654 0.85316 0.0
C666 C 0.18507 0.22978 0.91937 0.0
C667 C 0.22066 0.22134 0.95467 0.0
C668 C 0.19139 0.2698 0.8884 0.0
C669 C 0.26517 0.25026 0.95508 0.0
C670 C 0.27189 0.29022 0.92407 0.0
C671 C 0.23621 0.34656 0.86777 0.0
C672 C 0.19552 0.35992 0.84054 0.0
C673 C 0.23418 0.3017 0.89218 0.0
C674 C 0.15563 0.3253 0.83334 0.0
C675 C 0.15358 0.28078 0.85689 0.0
H676 H 0.31146 0.97578 0.08533 0.0
H677 H 0.38475 0.1035 0.15359 0.0
H678 H 0.43947 0.05248 0.19742 0.0
H679 H 0.45591 0.97168 0.22685 0.0
H680 H 0.37518 0.84403 0.16602 0.0
H681 H 0.33612 0.89405 0.10702 0.0
C682 C 0.34039 0.99219 0.1088 0.0
C683 C 0.34465 0.04299 0.11633 0.0
C684 C 0.37033 0.96245 0.13527 0.0
C685 C 0.38141 0.06432 0.14727 0.0
C686 C 0.41248 0.03517 0.17236 0.0
C687 C 0.43045 0.95466 0.20005 0.0
C688 C 0.41717 0.90428 0.20225 0.0
C689 C 0.40583 0.98413 0.16823 0.0
C690 C 0.38561 0.88267 0.16596 0.0
C691 C 0.36269 0.91145 0.13247 0.0
H692 H 0.80895 0.52939 0.07302 0.0
H693 H 0.71564 0.49193 0.94841 0.0
H694 H 0.75683 0.55779 0.90211 0.0
H695 H 0.82684 0.61599 0.89334 0.0
H696 H 0.91723 0.65994 0.01877 0.0
H697 H 0.86799 0.60223 0.06905 0.0
C698 C 0.79698 0.5366 0.03614 0.0
C699 C 0.75991 0.50565 0.0137 0.0
C700 C 0.82048 0.57497 0.00987 0.0
C701 C 0.74411 0.51538 0.96626 0.0
C702 C 0.76789 0.55274 0.9397 0.0
C703 C 0.83531 0.61454 0.93206 0.0
C704 C 0.8764 0.64214 0.95194 0.0
C705 C 0.80727 0.58145 0.96059 0.0
C706 C 0.88672 0.63837 0.0021 0.0
C707 C 0.85875 0.60524 0.03084 0.0
H708 H 0.75046 0.64466 0.30585 0.0
H709 H 0.78202 0.7126 0.16735 0.0
H710 H 0.70789 0.75687 0.17436 0.0
H711 H 0.62549 0.75912 0.20902 0.0
H712 H 0.58962 0.68422 0.3424 0.0
H713 H 0.67429 0.66173 0.34989 0.0
C714 C 0.74166 0.67018 0.27797 0.0
C715 C 0.77098 0.67489 0.23576 0.0
C716 C 0.69795 0.69419 0.28142 0.0
C717 C 0.75955 0.70809 0.19988 0.0
C718 C 0.71718 0.7334 0.20387 0.0
C719 C 0.6371 0.74006 0.24096 0.0
C720 C 0.60178 0.72288 0.27483 0.0
C721 C 0.68478 0.72449 0.24299 0.0
C722 C 0.61647 0.69796 0.31606 0.0
C723 C 0.66467 0.68426 0.31975 0.0
H724 H 0.62149 0.55137 0.49572 0.0
H725 H 0.74609 0.48654 0.5573 0.0
H726 H 0.70851 0.40491 0.53935 0.0
H727 H 0.64896 0.35383 0.49064 0.0
H728 H 0.52873 0.41826 0.42139 0.0
H729 H 0.55571 0.49778 0.45662 0.0
C730 C 0.63962 0.51919 0.506 0.0
C731 C 0.68677 0.52436 0.52652 0.0
C732 C 0.61837 0.47232 0.49415 0.0
C733 C 0.71024 0.48285 0.54012 0.0
C734 C 0.68861 0.43629 0.53025 0.0
C735 C 0.62676 0.38468 0.48652 0.0
C736 C 0.58682 0.38041 0.45421 0.0
C737 C 0.64369 0.43063 0.50538 0.0
C738 C 0.55911 0.42083 0.44704 0.0
C739 C 0.57478 0.46648 0.46696 0.0
H740 H 0.26973 0.02445 0.39832 0.0
H741 H 0.17339 0.89443 0.3896 0.0
H742 H 0.24248 0.84401 0.39398 0.0
H743 H 0.32874 0.83788 0.38024 0.0
H744 H 0.42705 0.96746 0.38081 0.0
H745 H 0.35966 0.0169 0.406 0.0
C746 C 0.26394 0.98512 0.40081 0.0
C747 C 0.21675 0.96262 0.39285 0.0
C748 C 0.30453 0.95627 0.40317 0.0
C749 C 0.20937 0.91196 0.39522 0.0
C750 C 0.24905 0.88314 0.39831 0.0
C751 C 0.33628 0.87653 0.38837 0.0
C752 C 0.38223 0.89934 0.37654 0.0
C753 C 0.29685 0.90486 0.39926 0.0
C754 C 0.39141 0.94932 0.38828 0.0
C755 C 0.35269 0.97769 0.40196 0.0
H756 H 0.24151 0.04326 0.53834 0.0
H757 H 0.10006 0.97267 0.57116 0.0
H758 H 0.06292 0.05133 0.57132 0.0
H759 H 0.07703 0.13945 0.58614 0.0
H760 H 0.22073 0.20958 0.56399 0.0
H761 H 0.25031 0.13305 0.53213 0.0
C762 C 0.20229 0.04529 0.54378 0.0
C763 C 0.17331 0.00303 0.55539 0.0
C764 C 0.18181 0.09083 0.54554 0.0
C765 C 0.12267 0.00524 0.56242 0.0
C766 C 0.10161 0.05015 0.56262 0.0
C767 C 0.11387 0.13846 0.57123 0.0
C768 C 0.14717 0.17925 0.57864 0.0
C769 C 0.1315 0.09336 0.55739 0.0
C770 C 0.19469 0.17828 0.55902 0.0
C771 C 0.21192 0.13413 0.5421 0.0
H772 H 0.79283 0.39129 0.19852 0.0
H773 H 0.71498 0.5228 0.2038 0.0
H774 H 0.64359 0.4783 0.23963 0.0
H775 H 0.60922 0.40583 0.28152 0.0
H776 H 0.69293 0.27834 0.28721 0.0
H777 H 0.75316 0.31584 0.231 0.0
C778 C 0.75976 0.40987 0.20635 0.0
C779 C 0.75932 0.46031 0.19914 0.0
C780 C 0.71977 0.3847 0.22926 0.0
C781 C 0.71634 0.48404 0.20967 0.0
C782 C 0.67558 0.45866 0.23027 0.0
C783 C 0.64083 0.38616 0.27084 0.0
C784 C 0.64713 0.33981 0.29017 0.0
C785 C 0.67784 0.40954 0.24232 0.0
C786 C 0.68728 0.31431 0.27397 0.0
C787 C 0.72255 0.33617 0.2428 0.0
H788 H 0.73786 0.65739 0.70769 0.0
H789 H 0.80889 0.52338 0.68311 0.0
H790 H 0.88577 0.56155 0.71565 0.0
H791 H 0.92653 0.6265 0.7667 0.0
H792 H 0.85321 0.75737 0.79943 0.0
H793 H 0.78506 0.72816 0.74634 0.0
C794 C 0.7705 0.63699 0.70856 0.0
C795 C 0.76761 0.58745 0.69403 0.0
C796 C 0.81416 0.65856 0.72924 0.0
C797 C 0.81013 0.56137 0.69504 0.0
C798 C 0.85411 0.58318 0.71353 0.0
C799 C 0.89663 0.64966 0.76026 0.0
C800 C 0.89463 0.6938 0.78709 0.0
C801 C 0.85587 0.631 0.73282 0.0
C802 C 0.85544 0.7232 0.77912 0.0
C803 C 0.81576 0.70584 0.74996 0.0
H804 H 0.55002 0.92622 0.51882 0.0
H805 H 0.48932 0.79347 0.44897 0.0
H806 H 0.51262 0.82497 0.36863 0.0
H807 H 0.56801 0.88079 0.32241 0.0
H808 H 0.6313 0.01202 0.39312 0.0
H809 H 0.58552 0.9929 0.46807 0.0
C810 C 0.53984 0.90537 0.48565 0.0
C811 C 0.51854 0.85774 0.48922 0.0
C812 C 0.55321 0.92375 0.43963 0.0
C813 C 0.50546 0.83049 0.4466 0.0
C814 C 0.51892 0.84839 0.40071 0.0
C815 C 0.56947 0.9065 0.35331 0.0
C816 C 0.60359 0.94706 0.35298 0.0
C817 C 0.54523 0.89377 0.39706 0.0
C818 C 0.60535 0.98036 0.39299 0.0
C819 C 0.57995 0.96892 0.43612 0.0
H820 H 0.33135 0.34953 0.80566 0.0
H821 H 0.39046 0.21341 0.76354 0.0
H822 H 0.33205 0.20234 0.69583 0.0
H823 H 0.28296 0.24378 0.63678 0.0
H824 H 0.23263 0.38511 0.67448 0.0
H825 H 0.2646 0.3801 0.75697 0.0
C826 C 0.32973 0.31661 0.78278 0.0
C827 C 0.36482 0.28244 0.78883 0.0
C828 C 0.29707 0.31138 0.74309 0.0
C829 C 0.36354 0.24013 0.75894 0.0
C830 C 0.33021 0.23384 0.72031 0.0
C831 C 0.2767 0.2721 0.66407 0.0
C832 C 0.2574 0.31544 0.64917 0.0
C833 C 0.2992 0.2709 0.71012 0.0
C834 C 0.24811 0.35155 0.6848 0.0
C835 C 0.26744 0.34923 0.73188 0.0
H836 H 0.97218 0.13697 0.00641 0.0
H837 H 0.86652 0.0443 0.08459 0.0
H838 H 0.83043 0.01333 0.00687 0.0
H839 H 0.8204 0.02415 0.9177 0.0
H840 H 0.92758 0.11523 0.83984 0.0
H841 H 0.97261 0.13416 0.91603 0.0
C842 C 0.94184 0.10932 0.00628 0.0
C843 C 0.92124 0.09375 0.05099 0.0
C844 C 0.92163 0.09141 0.96149 0.0
C845 C 0.88263 0.05719 0.05054 0.0
C846 C 0.86191 0.03958 0.00613 0.0
C847 C 0.85474 0.04647 0.91727 0.0
C848 C 0.87067 0.06844 0.87339 0.0
C849 C 0.87991 0.05791 0.96146 0.0
C850 C 0.91498 0.09754 0.8731 0.0
C851 C 0.94028 0.109 0.91682 0.0
H852 H 0.23917 0.70992 0.30523 0.0
H853 H 0.19974 0.85569 0.27705 0.0
H854 H 0.25168 0.8577 0.20358 0.0
H855 H 0.28653 0.80689 0.13724 0.0
H856 H 0.3302 0.66381 0.17039 0.0
H857 H 0.30197 0.67347 0.25441 0.0
C858 C 0.2436 0.74287 0.28426 0.0
C859 C 0.21398 0.78148 0.29479 0.0
C860 C 0.27439 0.74424 0.24319 0.0
C861 C 0.22074 0.8246 0.26822 0.0
C862 C 0.25065 0.82589 0.2264 0.0
C863 C 0.29292 0.77918 0.16374 0.0
C864 C 0.30658 0.73309 0.14685 0.0
C865 C 0.27482 0.7844 0.21176 0.0
C866 C 0.31725 0.69863 0.18187 0.0
C867 C 0.29983 0.7035 0.22968 0.0
H868 H 0.5654 0.13652 0.9408 0.0
H869 H 0.43474 0.1615 0.02398 0.0
H870 H 0.45605 0.10037 0.08298 0.0
H871 H 0.51873 0.04999 0.1172 0.0
H872 H 0.65244 0.03221 0.03683 0.0
H873 H 0.62224 0.07811 0.9692 0.0
C874 C 0.54158 0.12835 0.97183 0.0
C875 C 0.49954 0.15425 0.97919 0.0
C876 C 0.55415 0.09356 0.00541 0.0
C877 C 0.46775 0.14232 0.01822 0.0
C878 C 0.47984 0.10734 0.05179 0.0
C879 C 0.53991 0.05422 0.08366 0.0
C880 C 0.58701 0.03645 0.08098 0.0
C881 C 0.52373 0.08382 0.04654 0.0
C882 C 0.61525 0.04366 0.03852 0.0
C883 C 0.59858 0.07125 0.00056 0.0
H884 H 0.09552 0.20796 0.24394 0.0
H885 H 0.95906 0.25011 0.30592 0.0
H886 H 0.00231 0.28622 0.37767 0.0
H887 H 0.07951 0.3211 0.41265 0.0
H888 H 0.21634 0.2924 0.34265 0.0
H889 H 0.17313 0.23381 0.28572 0.0
C890 C 0.0753 0.22289 0.27447 0.0
C891 C 0.02426 0.22551 0.27059 0.0
C892 C 0.10089 0.24619 0.31418 0.0
C893 C 0.99831 0.24692 0.30894 0.0
C894 C 0.02312 0.26802 0.34963 0.0
C895 C 0.09998 0.30001 0.38649 0.0
C896 C 0.15089 0.31023 0.38213 0.0
C897 C 0.07454 0.26982 0.35152 0.0
C898 C 0.17723 0.28419 0.3472 0.0
C899 C 0.15242 0.25144 0.31415 0.0
H900 H 0.00971 0.93984 0.42093 0.0
H901 H 0.06627 0.82619 0.50673 0.0
H902 H 0.0359 0.8639 0.58165 0.0
H903 H 0.9879 0.92437 0.62197 0.0
H904 H 0.91676 0.02895 0.53639 0.0
H905 H 0.96088 0.00232 0.46291 0.0
C906 C 0.01499 0.92334 0.4561 0.0
C907 C 0.03928 0.8797 0.45827 0.0
C908 C 0.99579 0.94439 0.49914 0.0
C909 C 0.04652 0.85894 0.504 0.0
C910 C 0.02971 0.88082 0.54689 0.0
C911 C 0.98235 0.94178 0.58729 0.0
C912 C 0.94827 0.97791 0.58455 0.0
C913 C 0.00361 0.92294 0.54477 0.0
C914 C 0.94269 0.00107 0.53969 0.0
C915 C 0.96716 0.98508 0.49745 0.0
H916 H 0.4687 0.78709 0.76693 0.0
H917 H 0.40367 0.66531 0.68211 0.0
H918 H 0.34785 0.644 0.74995 0.0
H919 H 0.33438 0.64812 0.83876 0.0
H920 H 0.40752 0.76381 0.92573 0.0
H921 H 0.4408 0.80185 0.85148 0.0
C922 C 0.44087 0.7571 0.76292 0.0
C923 C 0.44005 0.72737 0.72039 0.0
C924 C 0.41034 0.74429 0.80257 0.0
C925 C 0.40449 0.68844 0.71489 0.0
C926 C 0.37292 0.67619 0.7537 0.0
C927 C 0.35529 0.68316 0.84097 0.0
C928 C 0.36897 0.70319 0.8872 0.0
C929 C 0.37763 0.70216 0.7986 0.0
C930 C 0.39641 0.74818 0.89029 0.0
C931 C 0.41636 0.76919 0.84793 0.0
H932 H 0.59676 0.53621 0.82915 0.0
H933 H 0.4787 0.49486 0.72872 0.0
H934 H 0.4187 0.50175 0.79486 0.0
H935 H 0.39942 0.53388 0.87621 0.0
H936 H 0.51589 0.59192 0.97097 0.0
H937 H 0.57715 0.56198 0.91408 0.0
C938 C 0.55792 0.52792 0.82229 0.0
C939 C 0.54173 0.51556 0.77445 0.0
C940 C 0.52355 0.53443 0.85994 0.0
C941 C 0.49154 0.50511 0.76536 0.0
C942 C 0.4574 0.50881 0.80313 0.0
C943 C 0.43823 0.53773 0.88528 0.0
C944 C 0.45336 0.56374 0.92812 0.0
C945 C 0.47285 0.52523 0.85003 0.0
C946 C 0.50358 0.57043 0.93906 0.0
C947 C 0.53852 0.5544 0.90585 0.0
H948 H 0.62382 0.27863 0.18049 0.0
H949 H 0.76165 0.28145 0.10291 0.0
H950 H 0.77856 0.20238 0.13665 0.0
H951 H 0.74385 0.1259 0.17297 0.0
H952 H 0.60879 0.12659 0.25463 0.0
H953 H 0.60179 0.21208 0.2362 0.0
C954 C 0.65783 0.2621 0.17152 0.0
C955 C 0.69069 0.28451 0.13813 0.0
C956 C 0.66803 0.21793 0.19239 0.0
C957 C 0.73549 0.2641 0.12798 0.0
C958 C 0.74524 0.21914 0.14744 0.0
C959 C 0.71486 0.14581 0.18968 0.0
C960 C 0.67584 0.12001 0.2134 0.0
C961 C 0.71067 0.1948 0.17801 0.0
C962 C 0.63891 0.14597 0.23581 0.0
C963 C 0.63429 0.19455 0.22427 0.0
H964 H 0.04853 0.53122 0.2265 0.0
H965 H 0.93868 0.52597 0.34057 0.0
H966 H 0.00169 0.51194 0.40157 0.0
H967 H 0.08457 0.48607 0.41865 0.0
H968 H 0.192 0.48539 0.30303 0.0
H969 H 0.13416 0.51892 0.24645 0.0
C970 C 0.03846 0.52736 0.2648 0.0
C971 C 0.98894 0.52796 0.27892 0.0
C972 C 0.07464 0.51884 0.29928 0.0
C973 C 0.97651 0.52471 0.3288 0.0
C974 C 0.0125 0.51675 0.36362 0.0
C975 C 0.09578 0.49545 0.38165 0.0
C976 C 0.14217 0.48359 0.3645 0.0
C977 C 0.06129 0.51182 0.34888 0.0
C978 C 0.15651 0.49492 0.31654 0.0
C979 C 0.12317 0.51319 0.28421 0.0
H980 H 0.76598 0.73251 0.62116 0.0
H981 H 0.9189 0.7056 0.63749 0.0
H982 H 0.93264 0.78167 0.68542 0.0
H983 H 0.90496 0.8614 0.70864 0.0
H984 H 0.75809 0.89668 0.67318 0.0
H985 H 0.73643 0.8109 0.65105 0.0
C986 C 0.80221 0.7432 0.63538 0.0
C987 C 0.84171 0.71411 0.625 0.0
C988 C 0.81037 0.7883 0.66043 0.0
C989 C 0.88829 0.72799 0.64428 0.0
C990 C 0.89603 0.77126 0.67186 0.0
C991 C 0.86767 0.84979 0.69772 0.0
C992 C 0.8336 0.88537 0.6911 0.0
C993 C 0.85779 0.80247 0.67852 0.0
C994 C 0.78514 0.87012 0.67808 0.0
C995 C 0.77323 0.82132 0.66408 0.0
H996 H 0.5569 0.36462 0.59114 0.0
H997 H 0.53997 0.51838 0.61016 0.0
H998 H 0.45633 0.50759 0.57805 0.0
H999 H 0.38522 0.45261 0.55354 0.0
H1000 H 0.40322 0.29884 0.53198 0.0
H1001 H 0.49035 0.31171 0.55283 0.0
C1002 C 0.5352 0.39579 0.58732 0.0
C1003 C 0.55383 0.44196 0.60455 0.0
C1004 C 0.48779 0.3894 0.56712 0.0
C1005 C 0.52598 0.48237 0.59817 0.0
C1006 C 0.47824 0.47619 0.57951 0.0
C1007 C 0.4086 0.42223 0.55153 0.0
C1008 C 0.38769 0.37478 0.54166 0.0
C1009 C 0.45834 0.42969 0.5649 0.0
C1010 C 0.41846 0.33567 0.53971 0.0
C1011 C 0.46813 0.34293 0.55214 0.0
H1012 H 0.71987 0.3196 0.89107 0.0
H1013 H 0.64799 0.22857 -0.00032 0.0
H1014 H 0.65391 0.15697 0.94574 0.0
H1015 H 0.69513 0.11885 0.87631 0.0
H1016 H 0.76936 0.20937 0.76848 0.0
H1017 H 0.74416 0.2825 0.8116 0.0
C1018 C 0.7033 0.2844 0.9017 0.0
C1019 C 0.68336 0.27915 0.94902 0.0
C1020 C 0.70726 0.24316 0.87055 0.0
C1021 C 0.66283 0.23341 0.96308 0.0
C1022 C 0.66649 0.19238 0.93236 0.0
C1023 C 0.70397 0.1545 0.86113 0.0
C1024 C 0.7348 0.15861 0.81974 0.0
C1025 C 0.69086 0.19647 0.88715 0.0
C1026 C 0.74576 0.20506 0.8003 0.0
C1027 C 0.73196 0.24704 0.82543 0.0
H1028 H 0.0113 0.64582 0.20222 0.0
H1029 H 0.95405 0.58331 0.06599 0.0
H1030 H 0.03359 0.60205 0.02609 0.0
H1031 H 0.12011 0.63685 0.03098 0.0
H1032 H 0.1761 0.69142 0.17155 0.0
H1033 H 0.09648 0.67507 0.20852 0.0
C1034 C 0.01612 0.63648 0.16368 0.0
C1035 C 0.9767 0.61477 0.13655 0.0
C1036 C 0.06182 0.64605 0.14177 0.0
C1037 C 0.98373 0.60126 0.0872 0.0
C1038 C 0.0292 0.61183 0.06451 0.0
C1039 C 0.11463 0.6454 0.06955 0.0
C1040 C 0.15378 0.66697 0.09776 0.0
C1041 C 0.06855 0.63457 0.09146 0.0
C1042 C 0.14634 0.67685 0.14813 0.0
C1043 C 0.1009 0.66682 0.16973 0.0
H1044 H 0.79948 0.81062 0.4974 0.0
H1045 H 0.78944 0.69152 0.3912 0.0
H1046 H 0.78805 0.74961 0.3245 0.0
H1047 H 0.76753 0.831 0.29986 0.0
H1048 H 0.77958 0.95044 0.40554 0.0
H1049 H 0.80357 0.89535 0.4688 0.0
C1050 C 0.7976 0.79751 0.45955 0.0
C1051 C 0.79266 0.74714 0.44907 0.0
C1052 C 0.79657 0.83082 0.42146 0.0
C1053 C 0.79213 0.73027 0.40003 0.0
C1054 C 0.79105 0.76327 0.36196 0.0
C1055 C 0.77794 0.8455 0.336 0.0
C1056 C 0.77001 0.8942 0.34866 0.0
C1057 C 0.79029 0.81337 0.37251 0.0
C1058 C 0.78434 0.91266 0.39543 0.0
C1059 C 0.7973 0.88106 0.43178 0.0
H1060 H 0.95742 0.54185 0.50352 0.0
H1061 H 0.81848 0.45874 0.51393 0.0
H1062 H 0.86022 0.38296 0.51605 0.0
H1063 H 0.93486 0.34417 0.53537 0.0
H1064 H 0.07065 0.43266 0.55148 0.0
H1065 H 0.0342 0.49925 0.51026 0.0
C1066 C 0.93663 0.50688 0.50507 0.0
C1067 C 0.88541 0.50533 0.50997 0.0
C1068 C 0.96103 0.46382 0.50939 0.0
C1069 C 0.85814 0.46032 0.51128 0.0
C1070 C 0.88197 0.41707 0.51196 0.0
C1071 C 0.95675 0.37792 0.52919 0.0
C1072 C 0.00394 0.38466 0.54998 0.0
C1073 C 0.93336 0.41877 0.51418 0.0
C1074 C 0.03333 0.42685 0.5381 0.0
C1075 C 0.01209 0.46571 0.51594 0.0
H1076 H 0.35815 0.01292 0.61955 0.0
H1077 H 0.40882 0.90414 0.51873 0.0
H1078 H 0.46097 0.96677 0.47747 0.0
H1079 H 0.48363 0.0534 0.46382 0.0
H1080 H 0.42935 0.16278 0.56165 0.0
H1081 H 0.38898 0.09905 0.612 0.0
C1082 C 0.38189 0.00297 0.58948 0.0
C1083 C 0.38021 0.95436 0.57213 0.0
C1084 C 0.41139 0.03917 0.56582 0.0
C1085 C 0.41025 0.94143 0.53283 0.0
C1086 C 0.43995 0.97716 0.50929 0.0
C1087 C 0.46437 0.06301 0.49717 0.0
C1088 C 0.45963 0.11235 0.50953 0.0
C1089 C 0.43977 0.02627 0.5246 0.0
C1090 C 0.43377 0.12482 0.55205 0.0
C1091 C 0.41032 0.08846 0.58041 0.0
H1092 H 0.26467 0.04638 0.7973 0.0
H1093 H 0.35825 0.17041 0.84596 0.0
H1094 H 0.29044 0.22377 0.83599 0.0
H1095 H 0.21836 0.23627 0.78353 0.0
H1096 H 0.12278 0.11138 0.7399 0.0
H1097 H 0.17818 0.05708 0.77718 0.0
C1098 C 0.26955 0.08485 0.80742 0.0
C1099 C 0.3163 0.10516 0.82042 0.0
C1100 C 0.23118 0.11527 0.80025 0.0
C1101 C 0.32247 0.15451 0.83481 0.0
C1102 C 0.28403 0.18502 0.82848 0.0
C1103 C 0.20804 0.19751 0.78476 0.0
C1104 C 0.16803 0.17754 0.75675 0.0
C1105 C 0.24 0.16635 0.80661 0.0
C1106 C 0.15461 0.12731 0.75962 0.0
C1107 C 0.1864 0.09617 0.78065 0.0
H1108 H 0.07447 0.00801 0.02014 0.0
H1109 H 0.21648 0.97467 0.07439 0.0
H1110 H 0.19896 0.88868 0.05297 0.0
H1111 H 0.15105 0.8272 0.00437 0.0
H1112 H 0.01428 0.86146 0.9399 0.0
H1113 H 0.02034 0.94189 0.98148 0.0
C1114 C 0.10104 0.98164 0.02801 0.0
C1115 C 0.14717 -0.00238 0.04758 0.0
C1116 C 0.09137 0.93232 0.01397 0.0
C1117 C 0.18128 0.96326 0.05805 0.0
C1118 C 0.17117 0.91408 0.04615 0.0
C1119 C 0.12163 0.85165 0.0013 0.0
C1120 C 0.08254 0.83909 0.96921 0.0
C1121 C 0.12738 0.89868 0.02211 0.0
C1122 C 0.04454 0.87062 0.96482 0.0
C1123 C 0.04853 0.91684 0.98787 0.0
H1124 H 0.80101 0.43634 0.75 0.0
H1125 H 0.73215 0.31635 0.66537 0.0
H1126 H 0.80805 0.27369 0.66762 0.0
H1127 H 0.89775 0.28125 0.67456 0.0
H1128 H 0.96864 0.4052 0.7515 0.0
H1129 H 0.88867 0.43522 0.77238 0.0
C1130 C 0.80261 0.40042 0.73286 0.0
C1131 C 0.7619 0.37979 0.70643 0.0
C1132 C 0.84698 0.37728 0.73235 0.0
C1133 C 0.76369 0.3333 0.68462 0.0
C1134 C 0.80697 0.30901 0.6859 0.0
C1135 C 0.8954 0.31335 0.69824 0.0
C1136 C 0.93872 0.34125 0.7112 0.0
C1137 C 0.84953 0.33197 0.70705 0.0
C1138 C 0.93568 0.38304 0.74143 0.0
C1139 C 0.88994 0.40075 0.75238 0.0
H1140 H 0.55613 0.51398 0.05233 0.0
H1141 H 0.5635 0.42976 0.18307 0.0
H1142 H 0.51626 0.48828 0.22837 0.0
H1143 H 0.49005 0.57147 0.23501 0.0
H1144 H 0.48858 0.65982 0.10707 0.0
H1145 H 0.51474 0.59164 0.05614 0.0
C1146 C 0.54599 0.50796 0.09029 0.0
C1147 C 0.56343 0.46818 0.11469 0.0
C1148 C 0.52011 0.54276 0.11663 0.0
C1149 C 0.55061 0.46055 0.1639 0.0
C1150 C 0.52368 0.49397 0.18979 0.0
C1151 C 0.49287 0.57471 0.19551 0.0
C1152 C 0.48701 0.62005 0.17452 0.0
C1153 C 0.51045 0.53637 0.16719 0.0
C1154 C 0.4922 0.6248 0.12365 0.0
C1155 C 0.50795 0.58607 0.09472 0.0
H1156 H 0.35459 0.83826 0.78337 0.0
H1157 H 0.28256 0.9673 0.74633 0.0
H1158 H 0.20284 0.92723 0.76669 0.0
H1159 H 0.1552 0.8601 0.80535 0.0
H1160 H 0.22623 0.73276 0.84893 0.0
H1161 H 0.30424 0.767 0.81534 0.0
C1162 C 0.32121 0.85698 0.77897 0.0
C1163 C 0.32414 0.90566 0.76381 0.0
C1164 C 0.27542 0.83419 0.79245 0.0
C1165 C 0.28092 0.92992 0.75841 0.0
C1166 C 0.23542 0.90711 0.77012 0.0
C1167 C 0.18764 0.83939 0.80642 0.0
C1168 C 0.18516 0.79415 0.82954 0.0
C1169 C 0.23245 0.85993 0.7887 0.0
C1170 C 0.22723 0.76752 0.83088 0.0
C1171 C 0.27196 0.78731 0.81218 0.0
H1172 H 0.22403 0.18129 0.33803 0.0
H1173 H 0.28317 0.08751 0.22735 0.0
H1174 H 0.3669 0.11664 0.25101 0.0
H1175 H 0.42151 0.15648 0.31391 0.0
H1176 H 0.36105 0.2458 0.42785 0.0
H1177 H 0.27948 0.23312 0.39083 0.0
C1178 C 0.25535 0.16897 0.31787 0.0
C1179 C 0.24803 0.13311 0.28073 0.0
C1180 C 0.30296 0.18519 0.33236 0.0
C1181 C 0.28842 0.11584 0.25551 0.0
C1182 C 0.33612 0.13226 0.26928 0.0
C1183 C 0.39078 0.17484 0.3292 0.0
C1184 C 0.3968 0.20185 0.37342 0.0
C1185 C 0.34375 0.16534 0.30905 0.0
C1186 C 0.35688 0.22496 0.39369 0.0
C1187 C 0.31029 0.21721 0.37288 0.0
loop_
_geom_bond_atom_site_label_1
_geom_bond_atom_site_label_2
_geom_bond_distance
_geom_bond_site_symmetry_2
_ccdc_geom_bond_type
Co0 O1 2.216 . S
Co0 O2 2.091 . S
Co0 O4 2.004 1_455 S
Co0 O10 2.021 1_455 S
Co0 O12 2.137 . S
Co0 O13 2.244 . S
O1 Co0 2.216 . S
O1 C8 1.247 . S
O2 Co0 2.091 . S
O2 C8 1.261 . S
C3 O12 1.247 . S
C3 O13 1.272 . S
O4 Co0 2.004 1_655 S
O4 C9 1.259 . S
Co5 O6 2.061 1_455 S
Co5 O11 2.052 1_455 S
Co5 O13 2.135 . S
O6 Co5 2.061 1_655 S
O6 C9 1.235 . S
C7 O10 1.238 . S
C7 O11 1.241 . S
C8 O1 1.247 . S
C8 O2 1.261 . S
C9 O4 1.259 . S
C9 O6 1.235 . S
O10 Co0 2.021 1_655 S
O10 C7 1.238 . S
O11 Co5 2.052 1_655 S
O11 C7 1.241 . S
O12 Co0 2.137 . S
O12 C3 1.247 . S
O13 Co0 2.244 . S
O13 C3 1.272 . S
O13 Co5 2.135 . S
Co14 O15 2.216 . S
Co14 O16 2.091 1_455 S
Co14 O18 2.004 1_455 S
Co14 O24 2.021 1_455 S
Co14 O26 2.137 . S
Co14 O27 2.244 . S
O15 Co14 2.216 . S
O15 C22 1.247 . S
O16 Co14 2.091 1_655 S
O16 C22 1.261 1_655 S
C17 O26 1.247 . S
C17 O27 1.272 . S
O18 Co14 2.004 1_655 S
O18 C23 1.259 . S
Co19 O20 2.061 1_455 S
Co19 O25 2.052 1_455 S
Co19 O27 2.135 . S
O20 Co19 2.061 1_655 S
O20 C23 1.235 . S
C21 O24 1.238 . S
C21 O25 1.241 . S
C22 O15 1.247 . S
C22 O16 1.261 1_455 S
C23 O18 1.259 . S
C23 O20 1.235 . S
O24 Co14 2.021 1_655 S
O24 C21 1.238 . S
O25 Co19 2.052 1_655 S
O25 C21 1.241 . S
O26 Co14 2.137 . S
O26 C17 1.247 . S
O27 Co14 2.244 . S
O27 C17 1.272 . S
O27 Co19 2.135 . S
Co28 O29 2.216 . S
Co28 O30 2.091 . S
Co28 O32 2.004 . S
Co28 O38 2.021 . S
Co28 O40 2.137 . S
Co28 O41 2.244 . S
O29 Co28 2.216 . S
O29 C36 1.247 . S
O30 Co28 2.091 . S
O30 C36 1.261 . S
C31 O40 1.247 . S
C31 O41 1.272 . S
O32 Co28 2.004 . S
O32 C37 1.259 . S
Co33 O34 2.061 . S
Co33 O39 2.052 . S
Co33 O41 2.135 . S
O34 Co33 2.061 . S
O34 C37 1.235 . S
C35 O38 1.238 . S
C35 O39 1.241 . S
C36 O29 1.247 . S
C36 O30 1.261 . S
C37 O32 1.259 . S
C37 O34 1.235 . S
O38 Co28 2.021 . S
O38 C35 1.238 . S
O39 Co33 2.052 . S
O39 C35 1.241 . S
O40 Co28 2.137 . S
O40 C31 1.247 . S
O41 Co28 2.244 . S
O41 C31 1.272 . S
O41 Co33 2.135 . S
Co42 O43 2.216 . S
Co42 O44 2.091 . S
Co42 O46 2.004 . S
Co42 O52 2.021 . S
Co42 O54 2.137 . S
Co42 O55 2.244 . S
O43 Co42 2.216 . S
O43 C50 1.247 . S
O44 Co42 2.091 . S
O44 C50 1.261 . S
C45 O54 1.247 . S
C45 O55 1.272 . S
O46 Co42 2.004 . S
O46 C51 1.259 . S
Co47 O48 2.061 . S
Co47 O53 2.052 . S
Co47 O55 2.135 . S
O48 Co47 2.061 . S
O48 C51 1.235 . S
C49 O52 1.238 . S
C49 O53 1.241 . S
C50 O43 1.247 . S
C50 O44 1.261 . S
C51 O46 1.259 . S
C51 O48 1.235 . S
O52 Co42 2.021 . S
O52 C49 1.238 . S
O53 Co47 2.052 . S
O53 C49 1.241 . S
O54 Co42 2.137 . S
O54 C45 1.247 . S
O55 Co42 2.244 . S
O55 C45 1.272 . S
O55 Co47 2.135 . S
Co56 O57 2.216 . S
Co56 O58 2.091 . S
Co56 O60 2.004 1_565 S
Co56 O66 2.021 1_565 S
Co56 O68 2.137 . S
Co56 O69 2.244 1_565 S
O57 Co56 2.216 . S
O57 C64 1.247 . S
O58 Co56 2.091 . S
O58 C64 1.261 . S
C59 O68 1.247 . S
C59 O69 1.272 1_565 S
O60 Co56 2.004 1_545 S
O60 C65 1.259 . S
Co61 O62 2.061 . S
Co61 O67 2.052 . S
Co61 O69 2.135 . S
O62 Co61 2.061 . S
O62 C65 1.235 . S
C63 O66 1.238 . S
C63 O67 1.241 . S
C64 O57 1.247 . S
C64 O58 1.261 . S
C65 O60 1.259 . S
C65 O62 1.235 . S
O66 Co56 2.021 1_545 S
O66 C63 1.238 . S
O67 Co61 2.052 . S
O67 C63 1.241 . S
O68 Co56 2.137 . S
O68 C59 1.247 . S
O69 Co56 2.244 1_545 S
O69 C59 1.272 1_545 S
O69 Co61 2.135 . S
Co70 O71 2.216 . S
Co70 O72 2.091 . S
Co70 O74 2.004 . S
Co70 O80 2.021 . S
Co70 O82 2.137 . S
Co70 O83 2.244 . S
O71 Co70 2.216 . S
O71 C78 1.247 . S
O72 Co70 2.091 . S
O72 C78 1.261 . S
C73 O82 1.247 . S
C73 O83 1.272 . S
O74 Co70 2.004 . S
O74 C79 1.259 . S
Co75 O76 2.061 . S
Co75 O81 2.052 . S
Co75 O83 2.135 . S
O76 Co75 2.061 . S
O76 C79 1.235 . S
C77 O80 1.238 . S
C77 O81 1.241 . S
C78 O71 1.247 . S
C78 O72 1.261 . S
C79 O74 1.259 . S
C79 O76 1.235 . S
O80 Co70 2.021 . S
O80 C77 1.238 . S
O81 Co75 2.052 . S
O81 C77 1.241 . S
O82 Co70 2.137 . S
O82 C73 1.247 . S
O83 Co70 2.244 . S
O83 C73 1.272 . S
O83 Co75 2.135 . S
Co84 O85 2.216 . S
Co84 O86 2.091 . S
Co84 O88 2.004 . S
Co84 O94 2.010 1_545 S
Co84 O96 2.137 . S
Co84 O97 2.244 . S
O85 Co84 2.216 . S
O85 C92 1.247 . S
O86 Co84 2.091 . S
O86 C92 1.261 . S
C87 O96 1.247 . S
C87 O97 1.272 . S
O88 Co84 2.004 . S
O88 C93 1.259 . S
Co89 O90 2.061 . S
Co89 O95 2.052 . S
Co89 O97 2.135 1_565 S
O90 Co89 2.061 . S
O90 C93 1.235 1_565 S
C91 O94 1.250 . S
C91 O95 1.241 . S
C92 O85 1.247 . S
C92 O86 1.261 . S
C93 O88 1.259 . S
C93 O90 1.235 1_545 S
O94 Co84 2.010 1_565 S
O94 C91 1.250 . S
O95 Co89 2.052 . S
O95 C91 1.241 . S
O96 Co84 2.137 . S
O96 C87 1.247 . S
O97 Co84 2.244 . S
O97 C87 1.272 . S
O97 Co89 2.135 1_545 S
Co98 O99 2.216 . S
Co98 O100 2.091 1_554 S
Co98 O102 2.004 1_554 S
Co98 O108 2.021 1_554 S
Co98 O110 2.137 . S
Co98 O111 2.244 . S
O99 Co98 2.216 . S
O99 C106 1.247 . S
O100 Co98 2.091 1_556 S
O100 C106 1.261 1_556 S
C101 O110 1.247 . S
C101 O111 1.272 . S
O102 Co98 2.004 1_556 S
O102 C107 1.259 . S
Co103 O104 2.046 1_554 S
Co103 O109 2.049 1_554 S
Co103 O111 2.148 . S
O104 Co103 2.046 1_556 S
O104 C107 1.235 . S
C105 O108 1.238 . S
C105 O109 1.241 . S
C106 O99 1.247 . S
C106 O100 1.261 1_554 S
C107 O102 1.259 . S
C107 O104 1.235 . S
O108 Co98 2.021 1_556 S
O108 C105 1.238 . S
O109 Co103 2.049 1_556 S
O109 C105 1.241 . S
O110 Co98 2.137 . S
O110 C101 1.247 . S
O111 Co98 2.244 . S
O111 C101 1.272 . S
O111 Co103 2.148 . S
Co112 O113 2.216 . S
Co112 O114 2.091 . S
Co112 O116 2.004 1_554 S
Co112 O122 2.021 1_554 S
Co112 O124 2.137 . S
Co112 O125 2.244 . S
O113 Co112 2.216 . S
O113 C120 1.247 . S
O114 Co112 2.091 . S
O114 C120 1.261 . S
C115 O124 1.247 . S
C115 O125 1.272 . S
O116 Co112 2.004 1_556 S
O116 C121 1.259 . S
Co117 O118 2.061 1_554 S
Co117 O123 2.052 . S
Co117 O125 2.135 . S
O118 Co117 2.061 1_556 S
O118 C121 1.235 . S
C119 O122 1.238 . S
C119 O123 1.241 1_556 S
C120 O113 1.247 . S
C120 O114 1.261 . S
C121 O116 1.259 . S
C121 O118 1.235 . S
O122 Co112 2.021 1_556 S
O122 C119 1.238 . S
O123 Co117 2.052 . S
O123 C119 1.241 1_554 S
O124 Co112 2.137 . S
O124 C115 1.247 . S
O125 Co112 2.244 . S
O125 C115 1.272 . S
O125 Co117 2.135 . S
Co126 O127 2.216 . S
Co126 O128 2.091 . S
Co126 O130 2.004 . S
Co126 O136 2.021 . S
Co126 O138 2.137 . S
Co126 O139 2.244 . S
O127 Co126 2.216 . S
O127 C134 1.247 . S
O128 Co126 2.091 . S
O128 C134 1.261 . S
C129 O138 1.247 . S
C129 O139 1.272 . S
O130 Co126 2.004 . S
O130 C135 1.259 . S
Co131 O132 2.061 . S
Co131 O137 2.052 . S
Co131 O139 2.135 . S
O132 Co131 2.061 . S
O132 C135 1.235 . S
C133 O136 1.238 . S
C133 O137 1.241 . S
C134 O127 1.247 . S
C134 O128 1.261 . S
C135 O130 1.259 . S
C135 O132 1.235 . S
O136 Co126 2.021 . S
O136 C133 1.238 . S
O137 Co131 2.052 . S
O137 C133 1.241 . S
O138 Co126 2.137 . S
O138 C129 1.247 . S
O139 Co126 2.244 . S
O139 C129 1.272 . S
O139 Co131 2.135 . S
Co140 O141 2.216 . S
Co140 O142 2.091 . S
Co140 O144 2.004 . S
Co140 O150 2.021 . S
Co140 O152 2.137 . S
Co140 O153 2.244 . S
O141 Co140 2.216 . S
O141 C148 1.247 . S
O142 Co140 2.091 . S
O142 C148 1.261 . S
C143 O152 1.247 . S
C143 O153 1.272 . S
O144 Co140 2.004 . S
O144 C149 1.259 . S
Co145 O146 2.061 . S
Co145 O151 2.052 . S
Co145 O153 2.135 . S
O146 Co145 2.061 . S
O146 C149 1.235 . S
C147 O150 1.238 . S
C147 O151 1.241 . S
C148 O141 1.247 . S
C148 O142 1.261 . S
C149 O144 1.259 . S
C149 O146 1.235 . S
O150 Co140 2.021 . S
O150 C147 1.238 . S
O151 Co145 2.052 . S
O151 C147 1.241 . S
O152 Co140 2.137 . S
O152 C143 1.247 . S
O153 Co140 2.244 . S
O153 C143 1.272 . S
O153 Co145 2.135 . S
Co154 O155 2.216 . S
Co154 O156 2.091 . S
Co154 O158 2.004 . S
Co154 O164 2.021 . S
Co154 O166 2.137 . S
Co154 O167 2.244 . S
O155 Co154 2.216 . S
O155 C162 1.247 . S
O156 Co154 2.091 . S
O156 C162 1.261 . S
C157 O166 1.247 . S
C157 O167 1.272 . S
O158 Co154 2.004 . S
O158 C163 1.259 . S
Co159 O160 2.061 . S
Co159 O165 2.052 . S
Co159 O167 2.135 . S
O160 Co159 2.061 . S
O160 C163 1.235 . S
C161 O164 1.238 . S
C161 O165 1.241 . S
C162 O155 1.247 . S
C162 O156 1.261 . S
C163 O158 1.259 . S
C163 O160 1.235 . S
O164 Co154 2.021 . S
O164 C161 1.238 . S
O165 Co159 2.052 . S
O165 C161 1.241 . S
O166 Co154 2.137 . S
O166 C157 1.247 . S
O167 Co154 2.244 . S
O167 C157 1.272 . S
O167 Co159 2.135 . S
H168 C176 0.930 . S
H169 C179 0.930 . S
H170 C181 0.930 . S
H171 C182 0.970 . S
H172 C182 0.970 . S
H173 C184 0.930 . S
H174 C186 0.930 . S
H175 C188 0.930 1_455 S
C176 H168 0.930 . S
C176 C177 1.382 . S
C176 C178 1.426 . S
C177 C176 1.382 . S
C177 C181 1.389 . S
C178 C176 1.426 . S
C178 C179 1.375 . S
C178 C182 1.532 . S
C179 H169 0.930 . S
C179 C178 1.375 . S
C179 C180 1.416 . S
C180 C179 1.416 . S
C180 C181 1.371 . S
C181 H170 0.930 . S
C181 C177 1.389 . S
C181 C180 1.371 . S
C182 H171 0.970 . S
C182 H172 0.970 . S
C182 C178 1.532 . S
C182 C183 1.499 . S
C183 C182 1.499 . S
C183 C184 1.370 1_455 S
C183 C188 1.415 1_455 S
C184 H173 0.930 . S
C184 C183 1.370 1_655 S
C184 C185 1.407 . S
C185 C184 1.407 . S
C185 C186 1.365 . S
C186 H174 0.930 . S
C186 C185 1.365 . S
C186 C187 1.393 . S
C187 C186 1.393 . S
C187 C188 1.387 . S
C188 H175 0.930 1_655 S
C188 C183 1.415 1_655 S
C188 C187 1.387 . S
H189 C197 0.930 . S
H190 C200 0.930 . S
H191 C202 0.930 . S
H192 C203 0.970 . S
H193 C203 0.970 . S
H194 C205 0.930 1_455 S
H195 C207 0.930 . S
H196 C209 0.930 1_455 S
C197 H189 0.930 . S
C197 C198 1.382 . S
C197 C199 1.426 . S
C198 C197 1.382 . S
C198 C202 1.389 . S
C199 C197 1.426 . S
C199 C200 1.375 . S
C199 C203 1.532 . S
C200 H190 0.930 . S
C200 C199 1.375 . S
C200 C201 1.416 . S
C201 C200 1.416 . S
C201 C202 1.371 . S
C202 H191 0.930 . S
C202 C198 1.389 . S
C202 C201 1.371 . S
C203 H192 0.970 . S
C203 H193 0.970 . S
C203 C199 1.532 . S
C203 C204 1.499 . S
C204 C203 1.499 . S
C204 C205 1.370 1_455 S
C204 C209 1.415 1_455 S
C205 H194 0.930 1_655 S
C205 C204 1.370 1_655 S
C205 C206 1.407 . S
C206 C205 1.407 . S
C206 C207 1.365 . S
C207 H195 0.930 . S
C207 C206 1.365 . S
C207 C208 1.393 . S
C208 C207 1.393 . S
C208 C209 1.387 . S
C209 H196 0.930 1_655 S
C209 C204 1.415 1_655 S
C209 C208 1.387 . S
H210 C218 0.930 . S
H211 C221 0.930 . S
H212 C223 0.930 . S
H213 C224 0.970 . S
H214 C224 0.970 . S
H215 C226 0.930 . S
H216 C228 0.930 . S
H217 C230 0.930 . S
C218 H210 0.930 . S
C218 C219 1.382 . S
C218 C220 1.426 . S
C219 C218 1.382 . S
C219 C223 1.389 . S
C220 C218 1.426 . S
C220 C221 1.375 . S
C220 C224 1.532 . S
C221 H211 0.930 . S
C221 C220 1.375 . S
C221 C222 1.416 . S
C222 C221 1.416 . S
C222 C223 1.371 . S
C223 H212 0.930 . S
C223 C219 1.389 . S
C223 C222 1.371 . S
C224 H213 0.970 . S
C224 H214 0.970 . S
C224 C220 1.532 . S
C224 C225 1.499 . S
C225 C224 1.499 . S
C225 C226 1.370 . S
C225 C230 1.415 . S
C226 H215 0.930 . S
C226 C225 1.370 . S
C226 C227 1.407 . S
C227 C226 1.407 . S
C227 C228 1.365 . S
C228 H216 0.930 . S
C228 C227 1.365 . S
C228 C229 1.393 . S
C229 C228 1.393 . S
C229 C230 1.387 . S
C230 H217 0.930 . S
C230 C225 1.415 . S
C230 C229 1.387 . S
H231 C239 0.930 . S
H232 C242 0.930 . S
H233 C244 0.930 . S
H234 C245 0.970 . S
H235 C245 0.970 . S
H236 C247 0.930 . S
H237 C249 0.930 . S
H238 C251 0.930 . S
C239 H231 0.930 . S
C239 C240 1.382 . S
C239 C241 1.426 . S
C240 C239 1.382 . S
C240 C244 1.389 . S
C241 C239 1.426 . S
C241 C242 1.375 . S
C241 C245 1.532 . S
C242 H232 0.930 . S
C242 C241 1.375 . S
C242 C243 1.416 . S
C243 C242 1.416 . S
C243 C244 1.371 . S
C244 H233 0.930 . S
C244 C240 1.389 . S
C244 C243 1.371 . S
C245 H234 0.970 . S
C245 H235 0.970 . S
C245 C241 1.532 . S
C245 C246 1.499 . S
C246 C245 1.499 . S
C246 C247 1.370 . S
C246 C251 1.415 . S
C247 H236 0.930 . S
C247 C246 1.370 . S
C247 C248 1.407 . S
C248 C247 1.407 . S
C248 C249 1.365 . S
C249 H237 0.930 . S
C249 C248 1.365 . S
C249 C250 1.393 . S
C250 C249 1.393 . S
C250 C251 1.387 . S
C251 H238 0.930 . S
C251 C246 1.415 . S
C251 C250 1.387 . S
H252 C260 0.930 . S
H253 C263 0.930 . S
H254 C265 0.930 . S
H255 C266 0.970 . S
H256 C266 0.970 . S
H257 C268 0.930 . S
H258 C270 0.930 . S
H259 C272 0.930 . S
C260 H252 0.930 . S
C260 C261 1.382 . S
C260 C262 1.426 . S
C261 C260 1.382 . S
C261 C265 1.389 . S
C262 C260 1.426 . S
C262 C263 1.375 . S
C262 C266 1.532 1_545 S
C263 H253 0.930 . S
C263 C262 1.375 . S
C263 C264 1.416 . S
C264 C263 1.416 . S
C264 C265 1.371 . S
C265 H254 0.930 . S
C265 C261 1.389 . S
C265 C264 1.371 . S
C266 H255 0.970 . S
C266 H256 0.970 . S
C266 C262 1.532 1_565 S
C266 C267 1.499 . S
C267 C266 1.499 . S
C267 C268 1.370 . S
C267 C272 1.415 . S
C268 H257 0.930 . S
C268 C267 1.370 . S
C268 C269 1.407 . S
C269 C268 1.407 . S
C269 C270 1.365 . S
C270 H258 0.930 . S
C270 C269 1.365 . S
C270 C271 1.393 . S
C271 C270 1.393 . S
C271 C272 1.387 . S
C272 H259 0.930 . S
C272 C267 1.415 . S
C272 C271 1.387 . S
H273 C281 0.930 . S
H274 C284 0.930 . S
H275 C286 0.930 . S
H276 C287 0.970 . S
H277 C287 0.970 . S
H278 C289 0.930 . S
H279 C291 0.930 . S
H280 C293 0.930 . S
C281 H273 0.930 . S
C281 C282 1.382 . S
C281 C283 1.426 . S
C282 C281 1.382 . S
C282 C286 1.389 . S
C283 C281 1.426 . S
C283 C284 1.375 . S
C283 C287 1.532 . S
C284 H274 0.930 . S
C284 C283 1.375 . S
C284 C285 1.416 . S
C285 C284 1.416 . S
C285 C286 1.371 . S
C286 H275 0.930 . S
C286 C282 1.389 . S
C286 C285 1.371 . S
C287 H276 0.970 . S
C287 H277 0.970 . S
C287 C283 1.532 . S
C287 C288 1.499 . S
C288 C287 1.499 . S
C288 C289 1.370 . S
C288 C293 1.415 . S
C289 H278 0.930 . S
C289 C288 1.370 . S
C289 C290 1.407 . S
C290 C289 1.407 . S
C290 C291 1.365 . S
C291 H279 0.930 . S
C291 C290 1.365 . S
C291 C292 1.393 . S
C292 C291 1.393 . S
C292 C293 1.387 . S
C293 H280 0.930 . S
C293 C288 1.415 . S
C293 C292 1.387 . S
H294 C302 0.930 . S
H295 C305 0.930 . S
H296 C307 0.930 . S
H297 C308 0.970 . S
H298 C308 0.970 . S
H299 C310 0.930 . S
H300 C312 0.930 . S
H301 C314 0.930 . S
C302 H294 0.930 . S
C302 C303 1.382 . S
C302 C304 1.426 1_565 S
C303 C302 1.382 . S
C303 C307 1.389 . S
C304 C302 1.426 1_545 S
C304 C305 1.375 1_545 S
C304 C308 1.532 . S
C305 H295 0.930 . S
C305 C304 1.375 1_565 S
C305 C306 1.416 . S
C306 C305 1.416 . S
C306 C307 1.371 . S
C307 H296 0.930 . S
C307 C303 1.389 . S
C307 C306 1.371 . S
C308 H297 0.970 . S
C308 H298 0.970 . S
C308 C304 1.532 . S
C308 C309 1.499 . S
C309 C308 1.499 . S
C309 C310 1.370 . S
C309 C314 1.415 . S
C310 H299 0.930 . S
C310 C309 1.370 . S
C310 C311 1.407 . S
C311 C310 1.407 . S
C311 C312 1.365 . S
C312 H300 0.930 . S
C312 C311 1.365 . S
C312 C313 1.393 . S
C313 C312 1.393 . S
C313 C314 1.387 . S
C314 H301 0.930 . S
C314 C309 1.415 . S
C314 C313 1.387 . S
H315 C323 0.930 . S
H316 C326 0.930 . S
H317 C328 0.930 . S
H318 C329 0.970 . S
H319 C329 0.970 . S
H320 C331 0.930 . S
H321 C333 0.930 . S
H322 C335 0.930 . S
C323 H315 0.930 . S
C323 C324 1.382 . S
C323 C325 1.426 . S
C324 C323 1.382 . S
C324 C328 1.389 . S
C325 C323 1.426 . S
C325 C326 1.375 . S
C325 C329 1.532 . S
C326 H316 0.930 . S
C326 C325 1.375 . S
C326 C327 1.416 . S
C327 C326 1.416 . S
C327 C328 1.371 . S
C328 H317 0.930 . S
C328 C324 1.389 . S
C328 C327 1.371 . S
C329 H318 0.970 . S
C329 H319 0.970 . S
C329 C325 1.532 . S
C329 C330 1.499 . S
C330 C329 1.499 . S
C330 C331 1.370 . S
C330 C335 1.415 . S
C331 H320 0.930 . S
C331 C330 1.370 . S
C331 C332 1.407 1_554 S
C332 C331 1.407 1_556 S
C332 C333 1.365 . S
C333 H321 0.930 . S
C333 C332 1.365 . S
C333 C334 1.393 . S
C334 C333 1.393 . S
C334 C335 1.387 1_556 S
C335 H322 0.930 . S
C335 C330 1.415 . S
C335 C334 1.387 1_554 S
H336 C344 0.930 . S
H337 C347 0.930 . S
H338 C349 0.930 . S
H339 C350 0.970 . S
H340 C350 0.970 . S
H341 C352 0.930 1_554 S
H342 C354 0.930 . S
H343 C356 0.934 . S
C344 H336 0.930 . S
C344 C345 1.382 . S
C344 C346 1.426 . S
C345 C344 1.382 . S
C345 C349 1.389 . S
C346 C344 1.426 . S
C346 C347 1.375 . S
C346 C350 1.532 . S
C347 H337 0.930 . S
C347 C346 1.375 . S
C347 C348 1.416 . S
C348 C347 1.416 . S
C348 C349 1.371 . S
C349 H338 0.930 . S
C349 C345 1.389 . S
C349 C348 1.371 . S
C350 H339 0.970 . S
C350 H340 0.970 . S
C350 C346 1.532 . S
C350 C351 1.499 . S
C351 C350 1.499 . S
C351 C352 1.370 1_554 S
C351 C356 1.419 . S
C352 H341 0.930 1_556 S
C352 C351 1.370 1_556 S
C352 C353 1.407 . S
C353 C352 1.407 . S
C353 C354 1.365 . S
C354 H342 0.930 . S
C354 C353 1.365 . S
C354 C355 1.393 . S
C355 C354 1.393 . S
C355 C356 1.379 1_556 S
C356 H343 0.934 . S
C356 C351 1.419 . S
C356 C355 1.379 1_554 S
H357 C365 0.930 . S
H358 C368 0.930 . S
H359 C370 0.930 . S
H360 C371 0.970 . S
H361 C371 0.970 . S
H362 C373 0.930 . S
H363 C375 0.930 . S
H364 C377 0.930 . S
C365 H357 0.930 . S
C365 C366 1.382 . S
C365 C367 1.426 . S
C366 C365 1.382 . S
C366 C370 1.389 . S
C367 C365 1.426 . S
C367 C368 1.375 . S
C367 C371 1.532 . S
C368 H358 0.930 . S
C368 C367 1.375 . S
C368 C369 1.416 . S
C369 C368 1.416 . S
C369 C370 1.371 . S
C370 H359 0.930 . S
C370 C366 1.389 . S
C370 C369 1.371 . S
C371 H360 0.970 . S
C371 H361 0.970 . S
C371 C367 1.532 . S
C371 C372 1.499 . S
C372 C371 1.499 . S
C372 C373 1.370 . S
C372 C377 1.415 . S
C373 H362 0.930 . S
C373 C372 1.370 . S
C373 C374 1.407 . S
C374 C373 1.407 . S
C374 C375 1.365 . S
C375 H363 0.930 . S
C375 C374 1.365 . S
C375 C376 1.393 . S
C376 C375 1.393 . S
C376 C377 1.387 . S
C377 H364 0.930 . S
C377 C372 1.415 . S
C377 C376 1.387 . S
H378 C386 0.930 . S
H379 C389 0.930 . S
H380 C391 0.930 . S
H381 C392 0.970 . S
H382 C392 0.970 . S
H383 C394 0.930 . S
H384 C396 0.930 . S
H385 C398 0.930 . S
C386 H378 0.930 . S
C386 C387 1.382 . S
C386 C388 1.426 . S
C387 C386 1.382 . S
C387 C391 1.389 . S
C388 C386 1.426 . S
C388 C389 1.375 . S
C388 C392 1.532 . S
C389 H379 0.930 . S
C389 C388 1.375 . S
C389 C390 1.416 . S
C390 C389 1.416 . S
C390 C391 1.371 . S
C391 H380 0.930 . S
C391 C387 1.389 . S
C391 C390 1.371 . S
C392 H381 0.970 . S
C392 H382 0.970 . S
C392 C388 1.532 . S
C392 C393 1.499 . S
C393 C392 1.499 . S
C393 C394 1.370 . S
C393 C398 1.415 . S
C394 H383 0.930 . S
C394 C393 1.370 . S
C394 C395 1.407 . S
C395 C394 1.407 . S
C395 C396 1.365 . S
C396 H384 0.930 . S
C396 C395 1.365 . S
C396 C397 1.393 . S
C397 C396 1.393 . S
C397 C398 1.387 . S
C398 H385 0.930 . S
C398 C393 1.415 . S
C398 C397 1.387 . S
H399 C407 0.930 . S
H400 C410 0.930 . S
H401 C412 0.930 . S
H402 C413 0.970 . S
H403 C413 0.970 . S
H404 C415 0.930 . S
H405 C417 0.930 . S
H406 C419 0.930 . S
C407 H399 0.930 . S
C407 C408 1.382 . S
C407 C409 1.426 . S
C408 C407 1.382 . S
C408 C412 1.389 . S
C409 C407 1.426 . S
C409 C410 1.375 . S
C409 C413 1.532 . S
C410 H400 0.930 . S
C410 C409 1.375 . S
C410 C411 1.416 . S
C411 C410 1.416 . S
C411 C412 1.371 . S
C412 H401 0.930 . S
C412 C408 1.389 . S
C412 C411 1.371 . S
C413 H402 0.970 . S
C413 H403 0.970 . S
C413 C409 1.532 . S
C413 C414 1.499 . S
C414 C413 1.499 . S
C414 C415 1.370 . S
C414 C419 1.415 . S
C415 H404 0.930 . S
C415 C414 1.370 . S
C415 C416 1.407 . S
C416 C415 1.407 . S
C416 C417 1.365 . S
C417 H405 0.930 . S
C417 C416 1.365 . S
C417 C418 1.393 . S
C418 C417 1.393 . S
C418 C419 1.387 . S
C419 H406 0.930 . S
C419 C414 1.415 . S
C419 C418 1.387 . S
H420 C426 0.930 . S
H421 C429 0.930 . S
H422 C430 0.930 . S
H423 C431 0.930 . S
H424 C434 0.930 . S
H425 C435 0.930 . S
C426 H420 0.930 . S
C426 C427 1.355 . S
C426 C428 1.415 1_554 S
C427 C426 1.355 . S
C427 C429 1.419 . S
C428 C426 1.415 1_556 S
C428 C433 1.425 . S
C428 C435 1.409 . S
C429 H421 0.930 . S
C429 C427 1.419 . S
C429 C430 1.362 1_554 S
C430 H422 0.930 . S
C430 C429 1.362 1_556 S
C430 C433 1.409 . S
C431 H423 0.930 . S
C431 C432 1.355 . S
C431 C433 1.415 . S
C432 C431 1.355 . S
C432 C434 1.419 . S
C433 C428 1.425 . S
C433 C430 1.409 . S
C433 C431 1.415 . S
C434 H424 0.930 . S
C434 C432 1.419 . S
C434 C435 1.362 . S
C435 H425 0.930 . S
C435 C428 1.409 . S
C435 C434 1.362 . S
H436 C442 0.930 . S
H437 C445 0.930 . S
H438 C446 0.930 . S
H439 C447 0.930 . S
H440 C450 0.930 . S
H441 C451 0.930 . S
C442 H436 0.930 . S
C442 C443 1.355 . S
C442 C444 1.415 . S
C443 C442 1.355 . S
C443 C445 1.419 . S
C444 C442 1.415 . S
C444 C449 1.425 . S
C444 C451 1.409 . S
C445 H437 0.930 . S
C445 C443 1.419 . S
C445 C446 1.362 . S
C446 H438 0.930 . S
C446 C445 1.362 . S
C446 C449 1.409 . S
C447 H439 0.930 . S
C447 C448 1.355 . S
C447 C449 1.415 . S
C448 C447 1.355 . S
C448 C450 1.419 . S
C449 C444 1.425 . S
C449 C446 1.409 . S
C449 C447 1.415 . S
C450 H440 0.930 . S
C450 C448 1.419 . S
C450 C451 1.362 . S
C451 H441 0.930 . S
C451 C444 1.409 . S
C451 C450 1.362 . S
H452 C458 0.930 . S
H453 C461 0.930 . S
H454 C462 0.930 . S
H455 C463 0.930 . S
H456 C466 0.930 . S
H457 C467 0.930 . S
C458 H452 0.930 . S
C458 C459 1.355 . S
C458 C460 1.415 . S
C459 C458 1.355 . S
C459 C461 1.419 . S
C460 C458 1.415 . S
C460 C465 1.425 . S
C460 C467 1.409 . S
C461 H453 0.930 . S
C461 C459 1.419 . S
C461 C462 1.362 . S
C462 H454 0.930 . S
C462 C461 1.362 . S
C462 C465 1.409 . S
C463 H455 0.930 . S
C463 C464 1.355 . S
C463 C465 1.415 . S
C464 C463 1.355 . S
C464 C466 1.419 . S
C465 C460 1.425 . S
C465 C462 1.409 . S
C465 C463 1.415 . S
C466 H456 0.930 . S
C466 C464 1.419 . S
C466 C467 1.362 . S
C467 H457 0.930 . S
C467 C460 1.409 . S
C467 C466 1.362 . S
H468 C474 0.930 . S
H469 C477 0.930 . S
H470 C478 0.930 . S
H471 C479 0.930 . S
H472 C482 0.930 . S
H473 C483 0.930 . S
C474 H468 0.930 . S
C474 C475 1.355 . S
C474 C476 1.415 . S
C475 C474 1.355 . S
C475 C477 1.419 . S
C476 C474 1.415 . S
C476 C481 1.425 . S
C476 C483 1.409 . S
C477 H469 0.930 . S
C477 C475 1.419 . S
C477 C478 1.362 . S
C478 H470 0.930 . S
C478 C477 1.362 . S
C478 C481 1.409 . S
C479 H471 0.930 . S
C479 C480 1.355 . S
C479 C481 1.415 . S
C480 C479 1.355 . S
C480 C482 1.419 . S
C481 C476 1.425 . S
C481 C478 1.409 . S
C481 C479 1.415 . S
C482 H472 0.930 . S
C482 C480 1.419 . S
C482 C483 1.362 . S
C483 H473 0.930 . S
C483 C476 1.409 . S
C483 C482 1.362 . S
H484 C490 0.930 . S
H485 C493 0.930 . S
H486 C494 0.930 . S
H487 C495 0.930 . S
H488 C498 0.930 . S
H489 C499 0.930 . S
C490 H484 0.930 . S
C490 C491 1.355 . S
C490 C492 1.415 . S
C491 C490 1.355 . S
C491 C493 1.419 . S
C492 C490 1.415 . S
C492 C497 1.425 . S
C492 C499 1.409 . S
C493 H485 0.930 . S
C493 C491 1.419 . S
C493 C494 1.362 . S
C494 H486 0.930 . S
C494 C493 1.362 . S
C494 C497 1.409 . S
C495 H487 0.930 . S
C495 C496 1.355 . S
C495 C497 1.415 . S
C496 C495 1.355 . S
C496 C498 1.419 . S
C497 C492 1.425 . S
C497 C494 1.409 . S
C497 C495 1.415 . S
C498 H488 0.930 . S
C498 C496 1.419 . S
C498 C499 1.362 . S
C499 H489 0.930 . S
C499 C492 1.409 . S
C499 C498 1.362 . S
H500 C506 0.930 . S
H501 C509 0.930 . S
H502 C510 0.930 . S
H503 C511 0.930 . S
H504 C514 0.930 . S
H505 C515 0.930 . S
C506 H500 0.930 . S
C506 C507 1.355 . S
C506 C508 1.415 . S
C507 C506 1.355 . S
C507 C509 1.419 . S
C508 C506 1.415 . S
C508 C513 1.425 . S
C508 C515 1.409 . S
C509 H501 0.930 . S
C509 C507 1.419 . S
C509 C510 1.362 . S
C510 H502 0.930 . S
C510 C509 1.362 . S
C510 C513 1.409 . S
C511 H503 0.930 . S
C511 C512 1.355 . S
C511 C513 1.415 . S
C512 C511 1.355 . S
C512 C514 1.419 . S
C513 C508 1.425 . S
C513 C510 1.409 . S
C513 C511 1.415 . S
C514 H504 0.930 . S
C514 C512 1.419 . S
C514 C515 1.362 . S
C515 H505 0.930 . S
C515 C508 1.409 . S
C515 C514 1.362 . S
H516 C522 0.930 . S
H517 C525 0.930 . S
H518 C526 0.930 . S
H519 C527 0.930 . S
H520 C530 0.930 . S
H521 C531 0.930 . S
C522 H516 0.930 . S
C522 C523 1.355 . S
C522 C524 1.415 . S
C523 C522 1.355 . S
C523 C525 1.419 1_554 S
C524 C522 1.415 . S
C524 C529 1.425 . S
C524 C531 1.409 . S
C525 H517 0.930 . S
C525 C523 1.419 1_556 S
C525 C526 1.362 1_556 S
C526 H518 0.930 . S
C526 C525 1.362 1_554 S
C526 C529 1.409 . S
C527 H519 0.930 . S
C527 C528 1.355 . S
C527 C529 1.415 . S
C528 C527 1.355 . S
C528 C530 1.419 . S
C529 C524 1.425 . S
C529 C526 1.409 . S
C529 C527 1.415 . S
C530 H520 0.930 . S
C530 C528 1.419 . S
C530 C531 1.362 . S
C531 H521 0.930 . S
C531 C524 1.409 . S
C531 C530 1.362 . S
H532 C538 0.930 . S
H533 C541 0.930 . S
H534 C542 0.930 . S
H535 C543 0.930 . S
H536 C546 0.930 . S
H537 C547 0.930 . S
C538 H532 0.930 . S
C538 C539 1.355 . S
C538 C540 1.415 . S
C539 C538 1.355 . S
C539 C541 1.419 . S
C540 C538 1.415 . S
C540 C545 1.425 . S
C540 C547 1.409 . S
C541 H533 0.930 . S
C541 C539 1.419 . S
C541 C542 1.362 . S
C542 H534 0.930 . S
C542 C541 1.362 . S
C542 C545 1.409 . S
C543 H535 0.930 . S
C543 C544 1.355 . S
C543 C545 1.415 . S
C544 C543 1.355 . S
C544 C546 1.419 . S
C545 C540 1.425 . S
C545 C542 1.409 . S
C545 C543 1.415 . S
C546 H536 0.930 . S
C546 C544 1.419 . S
C546 C547 1.362 . S
C547 H537 0.930 . S
C547 C540 1.409 . S
C547 C546 1.362 . S
H548 C554 0.930 . S
H549 C557 0.930 . S
H550 C558 0.930 . S
H551 C559 0.930 . S
H552 C562 0.930 . S
H553 C563 0.930 . S
C554 H548 0.930 . S
C554 C555 1.355 . S
C554 C556 1.415 1_455 S
C555 C554 1.355 . S
C555 C557 1.419 1_455 S
C556 C554 1.415 1_655 S
C556 C561 1.425 . S
C556 C563 1.409 . S
C557 H549 0.930 . S
C557 C555 1.419 1_655 S
C557 C558 1.362 . S
C558 H550 0.930 . S
C558 C557 1.362 . S
C558 C561 1.409 . S
C559 H551 0.930 . S
C559 C560 1.355 . S
C559 C561 1.415 . S
C560 C559 1.355 . S
C560 C562 1.419 . S
C561 C556 1.425 . S
C561 C558 1.409 . S
C561 C559 1.415 . S
C562 H552 0.930 . S
C562 C560 1.419 . S
C562 C563 1.362 . S
C563 H553 0.930 . S
C563 C556 1.409 . S
C563 C562 1.362 . S
H564 C570 0.930 . S
H565 C573 0.930 . S
H566 C574 0.930 . S
H567 C575 0.930 . S
H568 C578 0.930 . S
H569 C579 0.930 . S
C570 H564 0.930 . S
C570 C571 1.355 . S
C570 C572 1.415 . S
C571 C570 1.355 . S
C571 C573 1.419 . S
C572 C570 1.415 . S
C572 C577 1.425 . S
C572 C579 1.409 . S
C573 H565 0.930 . S
C573 C571 1.419 . S
C573 C574 1.362 . S
C574 H566 0.930 . S
C574 C573 1.362 . S
C574 C577 1.409 . S
C575 H567 0.930 . S
C575 C576 1.355 . S
C575 C577 1.415 . S
C576 C575 1.355 . S
C576 C578 1.419 . S
C577 C572 1.425 . S
C577 C574 1.409 . S
C577 C575 1.415 . S
C578 H568 0.930 . S
C578 C576 1.419 . S
C578 C579 1.362 . S
C579 H569 0.930 . S
C579 C572 1.409 . S
C579 C578 1.362 . S
H580 C586 0.930 . S
H581 C589 0.930 . S
H582 C590 0.930 . S
H583 C591 0.930 . S
H584 C594 0.930 . S
H585 C595 0.930 . S
C586 H580 0.930 . S
C586 C587 1.355 . S
C586 C588 1.415 . S
C587 C586 1.355 . S
C587 C589 1.419 1_565 S
C588 C586 1.415 . S
C588 C593 1.425 . S
C588 C595 1.409 . S
C589 H581 0.930 . S
C589 C587 1.419 1_545 S
C589 C590 1.362 . S
C590 H582 0.930 . S
C590 C589 1.362 . S
C590 C593 1.409 1_545 S
C591 H583 0.930 . S
C591 C592 1.355 . S
C591 C593 1.415 . S
C592 C591 1.355 . S
C592 C594 1.419 . S
C593 C588 1.425 . S
C593 C590 1.409 1_565 S
C593 C591 1.415 . S
C594 H584 0.930 . S
C594 C592 1.419 . S
C594 C595 1.362 . S
C595 H585 0.930 . S
C595 C588 1.409 . S
C595 C594 1.362 . S
H596 C602 0.930 . S
H597 C605 0.930 . S
H598 C606 0.930 . S
H599 C607 0.930 . S
H600 C610 0.930 . S
H601 C611 0.930 . S
C602 H596 0.930 . S
C602 C603 1.355 . S
C602 C604 1.415 . S
C603 C602 1.355 . S
C603 C605 1.419 . S
C604 C602 1.415 . S
C604 C609 1.425 . S
C604 C611 1.409 . S
C605 H597 0.930 . S
C605 C603 1.419 . S
C605 C606 1.362 . S
C606 H598 0.930 . S
C606 C605 1.362 . S
C606 C609 1.409 . S
C607 H599 0.930 . S
C607 C608 1.355 . S
C607 C609 1.415 . S
C608 C607 1.355 . S
C608 C610 1.419 . S
C609 C604 1.425 . S
C609 C606 1.409 . S
C609 C607 1.415 . S
C610 H600 0.930 . S
C610 C608 1.419 . S
C610 C611 1.362 . S
C611 H601 0.930 . S
C611 C604 1.409 . S
C611 C610 1.362 . S
H612 C618 0.936 1_545 S
H613 C621 0.930 . S
H614 C622 0.930 . S
H615 C623 0.930 . S
H616 C626 0.930 . S
H617 C627 0.932 . S
C618 H612 0.936 1_565 S
C618 C619 1.366 . S
C618 C620 1.397 1_455 S
C619 C618 1.366 . S
C619 C621 1.419 . S
C620 C618 1.397 1_655 S
C620 C625 1.425 . S
C620 C627 1.409 . S
C621 H613 0.930 . S
C621 C619 1.419 . S
C621 C622 1.362 1_455 S
C622 H614 0.930 . S
C622 C621 1.362 1_655 S
C622 C625 1.409 . S
C623 H615 0.930 . S
C623 C624 1.355 . S
C623 C625 1.415 . S
C624 C623 1.355 . S
C624 C626 1.419 . S
C625 C620 1.425 . S
C625 C622 1.409 . S
C625 C623 1.415 . S
C626 H616 0.930 . S
C626 C624 1.419 . S
C626 C627 1.362 . S
C627 H617 0.932 . S
C627 C620 1.409 . S
C627 C626 1.362 . S
H628 C634 0.930 . S
H629 C637 0.930 . S
H630 C638 0.930 . S
H631 C639 0.930 . S
H632 C642 0.930 . S
H633 C643 0.930 . S
C634 H628 0.930 . S
C634 C635 1.355 . S
C634 C636 1.415 . S
C635 C634 1.355 . S
C635 C637 1.419 . S
C636 C634 1.415 . S
C636 C641 1.425 . S
C636 C643 1.409 . S
C637 H629 0.930 . S
C637 C635 1.419 . S
C637 C638 1.362 . S
C638 H630 0.930 . S
C638 C637 1.362 . S
C638 C641 1.409 . S
C639 H631 0.930 . S
C639 C640 1.355 . S
C639 C641 1.415 . S
C640 C639 1.355 . S
C640 C642 1.419 . S
C641 C636 1.425 . S
C641 C638 1.409 . S
C641 C639 1.415 . S
C642 H632 0.930 . S
C642 C640 1.419 . S
C642 C643 1.362 . S
C643 H633 0.930 . S
C643 C636 1.409 . S
C643 C642 1.362 . S
H644 C650 0.930 . S
H645 C653 0.930 . S
H646 C654 0.930 . S
H647 C655 0.930 . S
H648 C658 0.930 . S
H649 C659 0.930 . S
C650 H644 0.930 . S
C650 C651 1.355 . S
C650 C652 1.415 . S
C651 C650 1.355 . S
C651 C653 1.419 . S
C652 C650 1.415 . S
C652 C657 1.425 . S
C652 C659 1.409 . S
C653 H645 0.930 . S
C653 C651 1.419 . S
C653 C654 1.362 . S
C654 H646 0.930 . S
C654 C653 1.362 . S
C654 C657 1.409 . S
C655 H647 0.930 . S
C655 C656 1.355 . S
C655 C657 1.415 . S
C656 C655 1.355 . S
C656 C658 1.419 . S
C657 C652 1.425 . S
C657 C654 1.409 . S
C657 C655 1.415 . S
C658 H648 0.930 . S
C658 C656 1.419 . S
C658 C659 1.362 . S
C659 H649 0.930 . S
C659 C652 1.409 . S
C659 C658 1.362 . S
H660 C666 0.930 . S
H661 C669 0.930 . S
H662 C670 0.930 . S
H663 C671 0.930 . S
H664 C674 0.930 . S
H665 C675 0.930 . S
C666 H660 0.930 . S
C666 C667 1.355 . S
C666 C668 1.415 . S
C667 C666 1.355 . S
C667 C669 1.419 . S
C668 C666 1.415 . S
C668 C673 1.425 . S
C668 C675 1.409 . S
C669 H661 0.930 . S
C669 C667 1.419 . S
C669 C670 1.362 . S
C670 H662 0.930 . S
C670 C669 1.362 . S
C670 C673 1.409 . S
C671 H663 0.930 . S
C671 C672 1.355 . S
C671 C673 1.415 . S
C672 C671 1.355 . S
C672 C674 1.419 . S
C673 C668 1.425 . S
C673 C670 1.409 . S
C673 C671 1.415 . S
C674 H664 0.930 . S
C674 C672 1.419 . S
C674 C675 1.362 . S
C675 H665 0.930 . S
C675 C668 1.409 . S
C675 C674 1.362 . S
H676 C682 0.930 1_556 S
H677 C685 0.930 . S
H678 C686 0.930 . S
H679 C687 0.930 . S
H680 C690 0.930 . S
H681 C691 0.930 . S
C682 H676 0.930 1_554 S
C682 C683 1.355 1_565 S
C682 C684 1.415 . S
C683 C682 1.355 1_545 S
C683 C685 1.419 . S
C684 C682 1.415 . S
C684 C689 1.425 . S
C684 C691 1.409 . S
C685 H677 0.930 . S
C685 C683 1.419 . S
C685 C686 1.362 1_545 S
C686 H678 0.930 . S
C686 C685 1.362 1_565 S
C686 C689 1.409 . S
C687 H679 0.930 . S
C687 C688 1.355 . S
C687 C689 1.415 . S
C688 C687 1.355 . S
C688 C690 1.419 . S
C689 C684 1.425 . S
C689 C686 1.409 . S
C689 C687 1.415 . S
C690 H680 0.930 . S
C690 C688 1.419 . S
C690 C691 1.362 . S
C691 H681 0.930 . S
C691 C684 1.409 . S
C691 C690 1.362 . S
H692 C698 0.930 1_554 S
H693 C701 0.930 . S
H694 C702 0.930 . S
H695 C703 0.930 . S
H696 C706 0.930 . S
H697 C707 0.930 . S
C698 H692 0.930 1_556 S
C698 C699 1.355 . S
C698 C700 1.415 . S
C699 C698 1.355 . S
C699 C701 1.419 . S
C700 C698 1.415 . S
C700 C705 1.425 . S
C700 C707 1.409 . S
C701 H693 0.930 . S
C701 C699 1.419 . S
C701 C702 1.362 . S
C702 H694 0.930 . S
C702 C701 1.362 . S
C702 C705 1.409 . S
C703 H695 0.930 . S
C703 C704 1.355 . S
C703 C705 1.415 . S
C704 C703 1.355 . S
C704 C706 1.419 . S
C705 C700 1.425 . S
C705 C702 1.409 . S
C705 C703 1.415 . S
C706 H696 0.930 . S
C706 C704 1.419 . S
C706 C707 1.362 . S
C707 H697 0.930 . S
C707 C700 1.409 . S
C707 C706 1.362 . S
H708 C714 0.930 . S
H709 C717 0.930 . S
H710 C718 0.930 . S
H711 C719 0.930 . S
H712 C722 0.930 . S
H713 C723 0.930 . S
C714 H708 0.930 . S
C714 C715 1.355 . S
C714 C716 1.415 . S
C715 C714 1.355 . S
C715 C717 1.419 . S
C716 C714 1.415 . S
C716 C721 1.425 . S
C716 C723 1.409 . S
C717 H709 0.930 . S
C717 C715 1.419 . S
C717 C718 1.362 . S
C718 H710 0.930 . S
C718 C717 1.362 . S
C718 C721 1.409 . S
C719 H711 0.930 . S
C719 C720 1.355 . S
C719 C721 1.415 . S
C720 C719 1.355 . S
C720 C722 1.419 . S
C721 C716 1.425 . S
C721 C718 1.409 . S
C721 C719 1.415 . S
C722 H712 0.930 . S
C722 C720 1.419 . S
C722 C723 1.362 . S
C723 H713 0.930 . S
C723 C716 1.409 . S
C723 C722 1.362 . S
H724 C730 0.930 . S
H725 C733 0.930 . S
H726 C734 0.930 . S
H727 C735 0.930 . S
H728 C738 0.930 . S
H729 C739 0.930 . S
C730 H724 0.930 . S
C730 C731 1.355 . S
C730 C732 1.415 . S
C731 C730 1.355 . S
C731 C733 1.419 . S
C732 C730 1.415 . S
C732 C737 1.425 . S
C732 C739 1.409 . S
C733 H725 0.930 . S
C733 C731 1.419 . S
C733 C734 1.362 . S
C734 H726 0.930 . S
C734 C733 1.362 . S
C734 C737 1.409 . S
C735 H727 0.930 . S
C735 C736 1.355 . S
C735 C737 1.415 . S
C736 C735 1.355 . S
C736 C738 1.419 . S
C737 C732 1.425 . S
C737 C734 1.409 . S
C737 C735 1.415 . S
C738 H728 0.930 . S
C738 C736 1.419 . S
C738 C739 1.362 . S
C739 H729 0.930 . S
C739 C732 1.409 . S
C739 C738 1.362 . S
H740 C746 0.930 . S
H741 C749 0.930 . S
H742 C750 0.930 . S
H743 C751 0.930 . S
H744 C754 0.930 . S
H745 C755 0.930 . S
C746 H740 0.930 . S
C746 C747 1.355 . S
C746 C748 1.415 . S
C747 C746 1.355 . S
C747 C749 1.419 . S
C748 C746 1.415 . S
C748 C753 1.425 . S
C748 C755 1.409 . S
C749 H741 0.930 . S
C749 C747 1.419 . S
C749 C750 1.362 . S
C750 H742 0.930 . S
C750 C749 1.362 . S
C750 C753 1.409 . S
C751 H743 0.930 . S
C751 C752 1.355 . S
C751 C753 1.415 . S
C752 C751 1.355 . S
C752 C754 1.419 . S
C753 C748 1.425 . S
C753 C750 1.409 . S
C753 C751 1.415 . S
C754 H744 0.930 . S
C754 C752 1.419 . S
C754 C755 1.362 . S
C755 H745 0.930 . S
C755 C748 1.409 . S
C755 C754 1.362 . S
H756 C762 0.930 . S
H757 C765 0.930 . S
H758 C766 0.930 . S
H759 C767 0.930 . S
H760 C770 0.930 . S
H761 C771 0.930 . S
C762 H756 0.930 . S
C762 C763 1.349 1_545 S
C762 C764 1.415 . S
C763 C762 1.349 1_565 S
C763 C765 1.420 . S
C764 C762 1.415 . S
C764 C769 1.425 . S
C764 C771 1.409 . S
C765 H757 0.930 . S
C765 C763 1.420 . S
C765 C766 1.362 1_565 S
C766 H758 0.930 . S
C766 C765 1.362 1_545 S
C766 C769 1.409 . S
C767 H759 0.930 . S
C767 C768 1.355 . S
C767 C769 1.415 . S
C768 C767 1.355 . S
C768 C770 1.419 . S
C769 C764 1.425 . S
C769 C766 1.409 . S
C769 C767 1.415 . S
C770 H760 0.930 . S
C770 C768 1.419 . S
C770 C771 1.362 . S
C771 H761 0.930 . S
C771 C764 1.409 . S
C771 C770 1.362 . S
H772 C778 0.930 . S
H773 C781 0.930 . S
H774 C782 0.930 . S
H775 C783 0.930 . S
H776 C786 0.930 . S
H777 C787 0.930 . S
C778 H772 0.930 . S
C778 C779 1.355 . S
C778 C780 1.415 . S
C779 C778 1.355 . S
C779 C781 1.419 . S
C780 C778 1.415 . S
C780 C785 1.425 . S
C780 C787 1.409 . S
C781 H773 0.930 . S
C781 C779 1.419 . S
C781 C782 1.362 . S
C782 H774 0.930 . S
C782 C781 1.362 . S
C782 C785 1.409 . S
C783 H775 0.930 . S
C783 C784 1.355 . S
C783 C785 1.415 . S
C784 C783 1.355 . S
C784 C786 1.419 . S
C785 C780 1.425 . S
C785 C782 1.409 . S
C785 C783 1.415 . S
C786 H776 0.930 . S
C786 C784 1.419 . S
C786 C787 1.362 . S
C787 H777 0.930 . S
C787 C780 1.409 . S
C787 C786 1.362 . S
H788 C794 0.930 . S
H789 C797 0.930 . S
H790 C798 0.930 . S
H791 C799 0.930 . S
H792 C802 0.930 . S
H793 C803 0.930 . S
C794 H788 0.930 . S
C794 C795 1.355 . S
C794 C796 1.415 . S
C795 C794 1.355 . S
C795 C797 1.419 . S
C796 C794 1.415 . S
C796 C801 1.425 . S
C796 C803 1.409 . S
C797 H789 0.930 . S
C797 C795 1.419 . S
C797 C798 1.362 . S
C798 H790 0.930 . S
C798 C797 1.362 . S
C798 C801 1.409 . S
C799 H791 0.930 . S
C799 C800 1.355 . S
C799 C801 1.415 . S
C800 C799 1.355 . S
C800 C802 1.419 . S
C801 C796 1.425 . S
C801 C798 1.409 . S
C801 C799 1.415 . S
C802 H792 0.930 . S
C802 C800 1.419 . S
C802 C803 1.362 . S
C803 H793 0.930 . S
C803 C796 1.409 . S
C803 C802 1.362 . S
H804 C810 0.930 . S
H805 C813 0.930 . S
H806 C814 0.930 . S
H807 C815 0.930 . S
H808 C818 0.930 1_545 S
H809 C819 0.930 . S
C810 H804 0.930 . S
C810 C811 1.355 . S
C810 C812 1.415 . S
C811 C810 1.355 . S
C811 C813 1.419 . S
C812 C810 1.415 . S
C812 C817 1.425 . S
C812 C819 1.409 . S
C813 H805 0.930 . S
C813 C811 1.419 . S
C813 C814 1.362 . S
C814 H806 0.930 . S
C814 C813 1.362 . S
C814 C817 1.409 . S
C815 H807 0.930 . S
C815 C816 1.355 . S
C815 C817 1.415 . S
C816 C815 1.355 . S
C816 C818 1.419 . S
C817 C812 1.425 . S
C817 C814 1.409 . S
C817 C815 1.415 . S
C818 H808 0.930 1_565 S
C818 C816 1.419 . S
C818 C819 1.362 . S
C819 H809 0.930 . S
C819 C812 1.409 . S
C819 C818 1.362 . S
H820 C826 0.930 . S
H821 C829 0.930 . S
H822 C830 0.930 . S
H823 C831 0.930 . S
H824 C834 0.930 . S
H825 C835 0.930 . S
C826 H820 0.930 . S
C826 C827 1.355 . S
C826 C828 1.415 . S
C827 C826 1.355 . S
C827 C829 1.419 . S
C828 C826 1.415 . S
C828 C833 1.425 . S
C828 C835 1.409 . S
C829 H821 0.930 . S
C829 C827 1.419 . S
C829 C830 1.362 . S
C830 H822 0.930 . S
C830 C829 1.362 . S
C830 C833 1.409 . S
C831 H823 0.930 . S
C831 C832 1.355 . S
C831 C833 1.415 . S
C832 C831 1.355 . S
C832 C834 1.419 . S
C833 C828 1.425 . S
C833 C830 1.409 . S
C833 C831 1.415 . S
C834 H824 0.930 . S
C834 C832 1.419 . S
C834 C835 1.362 . S
C835 H825 0.930 . S
C835 C828 1.409 . S
C835 C834 1.362 . S
H836 C842 0.930 . S
H837 C845 0.930 . S
H838 C846 0.930 . S
H839 C847 0.930 . S
H840 C850 0.930 . S
H841 C851 0.930 . S
C842 H836 0.930 . S
C842 C843 1.355 . S
C842 C844 1.415 1_554 S
C843 C842 1.355 . S
C843 C845 1.419 . S
C844 C842 1.415 1_556 S
C844 C849 1.425 . S
C844 C851 1.409 . S
C845 H837 0.930 . S
C845 C843 1.419 . S
C845 C846 1.362 . S
C846 H838 0.930 . S
C846 C845 1.362 . S
C846 C849 1.409 1_554 S
C847 H839 0.930 . S
C847 C848 1.355 . S
C847 C849 1.415 . S
C848 C847 1.355 . S
C848 C850 1.419 . S
C849 C844 1.425 . S
C849 C846 1.409 1_556 S
C849 C847 1.415 . S
C850 H840 0.930 . S
C850 C848 1.419 . S
C850 C851 1.362 . S
C851 H841 0.930 . S
C851 C844 1.409 . S
C851 C850 1.362 . S
H852 C858 0.930 . S
H853 C861 0.930 . S
H854 C862 0.930 . S
H855 C863 0.930 . S
H856 C866 0.930 . S
H857 C867 0.930 . S
C858 H852 0.930 . S
C858 C859 1.355 . S
C858 C860 1.415 . S
C859 C858 1.355 . S
C859 C861 1.419 . S
C860 C858 1.415 . S
C860 C865 1.425 . S
C860 C867 1.409 . S
C861 H853 0.930 . S
C861 C859 1.419 . S
C861 C862 1.362 . S
C862 H854 0.930 . S
C862 C861 1.362 . S
C862 C865 1.409 . S
C863 H855 0.930 . S
C863 C864 1.355 . S
C863 C865 1.415 . S
C864 C863 1.355 . S
C864 C866 1.419 . S
C865 C860 1.425 . S
C865 C862 1.409 . S
C865 C863 1.415 . S
C866 H856 0.930 . S
C866 C864 1.419 . S
C866 C867 1.362 . S
C867 H857 0.930 . S
C867 C860 1.409 . S
C867 C866 1.362 . S
H868 C874 0.930 . S
H869 C877 0.930 . S
H870 C878 0.930 . S
H871 C879 0.930 . S
H872 C882 0.930 . S
H873 C883 0.930 . S
C874 H868 0.930 . S
C874 C875 1.355 . S
C874 C876 1.415 . S
C875 C874 1.355 . S
C875 C877 1.419 . S
C876 C874 1.415 . S
C876 C881 1.425 . S
C876 C883 1.409 . S
C877 H869 0.930 . S
C877 C875 1.419 . S
C877 C878 1.362 . S
C878 H870 0.930 . S
C878 C877 1.362 . S
C878 C881 1.409 . S
C879 H871 0.930 . S
C879 C880 1.355 . S
C879 C881 1.415 . S
C880 C879 1.355 . S
C880 C882 1.419 . S
C881 C876 1.425 . S
C881 C878 1.409 . S
C881 C879 1.415 . S
C882 H872 0.930 . S
C882 C880 1.419 . S
C882 C883 1.362 . S
C883 H873 0.930 . S
C883 C876 1.409 . S
C883 C882 1.362 . S
H884 C890 0.930 . S
H885 C893 0.930 . S
H886 C894 0.930 . S
H887 C895 0.930 . S
H888 C898 0.930 . S
H889 C899 0.930 . S
C890 H884 0.930 . S
C890 C891 1.355 . S
C890 C892 1.415 . S
C891 C890 1.355 . S
C891 C893 1.419 . S
C892 C890 1.415 . S
C892 C897 1.425 . S
C892 C899 1.409 . S
C893 H885 0.930 . S
C893 C891 1.419 . S
C893 C894 1.362 . S
C894 H886 0.930 . S
C894 C893 1.362 . S
C894 C897 1.409 . S
C895 H887 0.930 . S
C895 C896 1.355 . S
C895 C897 1.415 . S
C896 C895 1.355 . S
C896 C898 1.419 . S
C897 C892 1.425 . S
C897 C894 1.409 . S
C897 C895 1.415 . S
C898 H888 0.930 . S
C898 C896 1.419 . S
C898 C899 1.362 . S
C899 H889 0.930 . S
C899 C892 1.409 . S
C899 C898 1.362 . S
H900 C906 0.930 . S
H901 C909 0.930 1_455 S
H902 C910 0.930 1_455 S
H903 C911 0.930 . S
H904 C914 0.930 . S
H905 C915 0.930 . S
C906 H900 0.930 . S
C906 C907 1.355 . S
C906 C908 1.415 . S
C907 C906 1.355 . S
C907 C909 1.419 . S
C908 C906 1.415 . S
C908 C913 1.425 . S
C908 C915 1.409 . S
C909 H901 0.930 1_655 S
C909 C907 1.419 . S
C909 C910 1.362 . S
C910 H902 0.930 1_655 S
C910 C909 1.362 . S
C910 C913 1.409 . S
C911 H903 0.930 . S
C911 C912 1.355 . S
C911 C913 1.415 . S
C912 C911 1.355 . S
C912 C914 1.419 . S
C913 C908 1.425 . S
C913 C910 1.409 . S
C913 C911 1.415 . S
C914 H904 0.930 . S
C914 C912 1.419 . S
C914 C915 1.362 . S
C915 H905 0.930 . S
C915 C908 1.409 . S
C915 C914 1.362 . S
H916 C922 0.930 . S
H917 C925 0.930 . S
H918 C926 0.930 . S
H919 C927 0.930 . S
H920 C930 0.930 . S
H921 C931 0.930 . S
C922 H916 0.930 . S
C922 C923 1.355 . S
C922 C924 1.415 . S
C923 C922 1.355 . S
C923 C925 1.419 . S
C924 C922 1.415 . S
C924 C929 1.425 . S
C924 C931 1.409 . S
C925 H917 0.930 . S
C925 C923 1.419 . S
C925 C926 1.362 . S
C926 H918 0.930 . S
C926 C925 1.362 . S
C926 C929 1.409 . S
C927 H919 0.930 . S
C927 C928 1.355 . S
C927 C929 1.415 . S
C928 C927 1.355 . S
C928 C930 1.419 . S
C929 C924 1.425 . S
C929 C926 1.409 . S
C929 C927 1.415 . S
C930 H920 0.930 . S
C930 C928 1.419 . S
C930 C931 1.362 . S
C931 H921 0.930 . S
C931 C924 1.409 . S
C931 C930 1.362 . S
H932 C938 0.930 . S
H933 C941 0.930 . S
H934 C942 0.930 . S
H935 C943 0.930 . S
H936 C946 0.930 1_554 S
H937 C947 0.930 . S
C938 H932 0.930 . S
C938 C939 1.355 . S
C938 C940 1.415 . S
C939 C938 1.355 . S
C939 C941 1.419 . S
C940 C938 1.415 . S
C940 C945 1.425 . S
C940 C947 1.409 . S
C941 H933 0.930 . S
C941 C939 1.419 . S
C941 C942 1.362 . S
C942 H934 0.930 . S
C942 C941 1.362 . S
C942 C945 1.409 . S
C943 H935 0.930 . S
C943 C944 1.355 . S
C943 C945 1.415 . S
C944 C943 1.355 . S
C944 C946 1.419 . S
C945 C940 1.425 . S
C945 C942 1.409 . S
C945 C943 1.415 . S
C946 H936 0.930 1_556 S
C946 C944 1.419 . S
C946 C947 1.362 . S
C947 H937 0.930 . S
C947 C940 1.409 . S
C947 C946 1.362 . S
H948 C954 0.930 . S
H949 C957 0.930 . S
H950 C958 0.930 . S
H951 C959 0.930 . S
H952 C962 0.930 . S
H953 C963 0.930 . S
C954 H948 0.930 . S
C954 C955 1.355 . S
C954 C956 1.415 . S
C955 C954 1.355 . S
C955 C957 1.419 . S
C956 C954 1.415 . S
C956 C961 1.425 . S
C956 C963 1.409 . S
C957 H949 0.930 . S
C957 C955 1.419 . S
C957 C958 1.362 . S
C958 H950 0.930 . S
C958 C957 1.362 . S
C958 C961 1.409 . S
C959 H951 0.930 . S
C959 C960 1.355 . S
C959 C961 1.415 . S
C960 C959 1.355 . S
C960 C962 1.419 . S
C961 C956 1.425 . S
C961 C958 1.409 . S
C961 C959 1.415 . S
C962 H952 0.930 . S
C962 C960 1.419 . S
C962 C963 1.362 . S
C963 H953 0.930 . S
C963 C956 1.409 . S
C963 C962 1.362 . S
H964 C970 0.930 . S
H965 C973 0.930 . S
H966 C974 0.930 . S
H967 C975 0.930 . S
H968 C978 0.930 . S
H969 C979 0.930 . S
C970 H964 0.930 . S
C970 C971 1.355 1_455 S
C970 C972 1.415 . S
C971 C970 1.355 1_655 S
C971 C973 1.419 . S
C972 C970 1.415 . S
C972 C977 1.425 . S
C972 C979 1.409 . S
C973 H965 0.930 . S
C973 C971 1.419 . S
C973 C974 1.362 1_655 S
C974 H966 0.930 . S
C974 C973 1.362 1_455 S
C974 C977 1.409 . S
C975 H967 0.930 . S
C975 C976 1.355 . S
C975 C977 1.415 . S
C976 C975 1.355 . S
C976 C978 1.419 . S
C977 C972 1.425 . S
C977 C974 1.409 . S
C977 C975 1.415 . S
C978 H968 0.930 . S
C978 C976 1.419 . S
C978 C979 1.362 . S
C979 H969 0.930 . S
C979 C972 1.409 . S
C979 C978 1.362 . S
H980 C986 0.930 . S
H981 C989 0.930 . S
H982 C990 0.930 . S
H983 C991 0.930 . S
H984 C994 0.930 . S
H985 C995 0.930 . S
C986 H980 0.930 . S
C986 C987 1.355 . S
C986 C988 1.415 . S
C987 C986 1.355 . S
C987 C989 1.419 . S
C988 C986 1.415 . S
C988 C993 1.425 . S
C988 C995 1.409 . S
C989 H981 0.930 . S
C989 C987 1.419 . S
C989 C990 1.362 . S
C990 H982 0.930 . S
C990 C989 1.362 . S
C990 C993 1.409 . S
C991 H983 0.930 . S
C991 C992 1.355 . S
C991 C993 1.415 . S
C992 C991 1.355 . S
C992 C994 1.419 . S
C993 C988 1.425 . S
C993 C990 1.409 . S
C993 C991 1.415 . S
C994 H984 0.930 . S
C994 C992 1.419 . S
C994 C995 1.362 . S
C995 H985 0.930 . S
C995 C988 1.409 . S
C995 C994 1.362 . S
H996 C1002 0.930 . S
H997 C1005 0.930 . S
H998 C1006 0.930 . S
H999 C1007 0.930 . S
H1000 C1010 0.930 . S
H1001 C1011 0.930 . S
C1002 H996 0.930 . S
C1002 C1003 1.355 . S
C1002 C1004 1.415 . S
C1003 C1002 1.355 . S
C1003 C1005 1.419 . S
C1004 C1002 1.415 . S
C1004 C1009 1.425 . S
C1004 C1011 1.409 . S
C1005 H997 0.930 . S
C1005 C1003 1.419 . S
C1005 C1006 1.362 . S
C1006 H998 0.930 . S
C1006 C1005 1.362 . S
C1006 C1009 1.409 . S
C1007 H999 0.930 . S
C1007 C1008 1.355 . S
C1007 C1009 1.415 . S
C1008 C1007 1.355 . S
C1008 C1010 1.419 . S
C1009 C1004 1.425 . S
C1009 C1006 1.409 . S
C1009 C1007 1.415 . S
C1010 H1000 0.930 . S
C1010 C1008 1.419 . S
C1010 C1011 1.362 . S
C1011 H1001 0.930 . S
C1011 C1004 1.409 . S
C1011 C1010 1.362 . S
H1012 C1018 0.930 . S
H1013 C1021 0.930 . S
H1014 C1022 0.930 . S
H1015 C1023 0.930 . S
H1016 C1026 0.930 . S
H1017 C1027 0.930 . S
C1018 H1012 0.930 . S
C1018 C1019 1.355 . S
C1018 C1020 1.415 . S
C1019 C1018 1.355 . S
C1019 C1021 1.419 . S
C1020 C1018 1.415 . S
C1020 C1025 1.425 . S
C1020 C1027 1.409 . S
C1021 H1013 0.930 . S
C1021 C1019 1.419 . S
C1021 C1022 1.362 . S
C1022 H1014 0.930 . S
C1022 C1021 1.362 . S
C1022 C1025 1.409 . S
C1023 H1015 0.930 . S
C1023 C1024 1.355 . S
C1023 C1025 1.415 . S
C1024 C1023 1.355 . S
C1024 C1026 1.419 . S
C1025 C1020 1.425 . S
C1025 C1022 1.409 . S
C1025 C1023 1.415 . S
C1026 H1016 0.930 . S
C1026 C1024 1.419 . S
C1026 C1027 1.362 . S
C1027 H1017 0.930 . S
C1027 C1020 1.409 . S
C1027 C1026 1.362 . S
H1028 C1034 0.930 1_655 S
H1029 C1037 0.937 . S
H1030 C1038 0.930 . S
H1031 C1039 0.930 . S
H1032 C1042 0.930 . S
H1033 C1043 0.930 . S
C1034 H1028 0.930 1_455 S
C1034 C1035 1.355 1_455 S
C1034 C1036 1.415 . S
C1035 C1034 1.355 1_655 S
C1035 C1037 1.419 1_655 S
C1036 C1034 1.415 . S
C1036 C1041 1.425 . S
C1036 C1043 1.409 . S
C1037 H1029 0.937 . S
C1037 C1035 1.419 1_455 S
C1037 C1038 1.362 . S
C1038 H1030 0.930 . S
C1038 C1037 1.362 . S
C1038 C1041 1.409 . S
C1039 H1031 0.930 . S
C1039 C1040 1.355 . S
C1039 C1041 1.415 . S
C1040 C1039 1.355 . S
C1040 C1042 1.419 . S
C1041 C1036 1.425 . S
C1041 C1038 1.409 . S
C1041 C1039 1.415 . S
C1042 H1032 0.930 . S
C1042 C1040 1.419 . S
C1042 C1043 1.362 . S
C1043 H1033 0.930 . S
C1043 C1036 1.409 . S
C1043 C1042 1.362 . S
H1044 C1050 0.930 . S
H1045 C1053 0.930 . S
H1046 C1054 0.930 . S
H1047 C1055 0.930 . S
H1048 C1058 0.930 . S
H1049 C1059 0.930 . S
C1050 H1044 0.930 . S
C1050 C1051 1.355 . S
C1050 C1052 1.415 . S
C1051 C1050 1.355 . S
C1051 C1053 1.419 . S
C1052 C1050 1.415 . S
C1052 C1057 1.425 . S
C1052 C1059 1.409 . S
C1053 H1045 0.930 . S
C1053 C1051 1.419 . S
C1053 C1054 1.362 . S
C1054 H1046 0.930 . S
C1054 C1053 1.362 . S
C1054 C1057 1.409 . S
C1055 H1047 0.930 . S
C1055 C1056 1.355 . S
C1055 C1057 1.415 . S
C1056 C1055 1.355 . S
C1056 C1058 1.419 . S
C1057 C1052 1.425 . S
C1057 C1054 1.409 . S
C1057 C1055 1.415 . S
C1058 H1048 0.930 . S
C1058 C1056 1.419 . S
C1058 C1059 1.362 . S
C1059 H1049 0.930 . S
C1059 C1052 1.409 . S
C1059 C1058 1.362 . S
H1060 C1066 0.930 . S
H1061 C1069 0.930 . S
H1062 C1070 0.930 . S
H1063 C1071 0.930 . S
H1064 C1074 0.930 . S
H1065 C1075 0.930 . S
C1066 H1060 0.930 . S
C1066 C1067 1.355 . S
C1066 C1068 1.415 . S
C1067 C1066 1.355 . S
C1067 C1069 1.419 . S
C1068 C1066 1.415 . S
C1068 C1073 1.425 . S
C1068 C1075 1.409 . S
C1069 H1061 0.930 . S
C1069 C1067 1.419 . S
C1069 C1070 1.362 . S
C1070 H1062 0.930 . S
C1070 C1069 1.362 . S
C1070 C1073 1.409 . S
C1071 H1063 0.930 . S
C1071 C1072 1.355 . S
C1071 C1073 1.415 . S
C1072 C1071 1.355 . S
C1072 C1074 1.419 . S
C1073 C1068 1.425 . S
C1073 C1070 1.409 . S
C1073 C1071 1.415 . S
C1074 H1064 0.930 . S
C1074 C1072 1.419 . S
C1074 C1075 1.362 . S
C1075 H1065 0.930 . S
C1075 C1068 1.409 . S
C1075 C1074 1.362 . S
H1076 C1082 0.930 . S
H1077 C1085 0.930 . S
H1078 C1086 0.930 . S
H1079 C1087 0.930 . S
H1080 C1090 0.930 . S
H1081 C1091 0.930 . S
C1082 H1076 0.930 . S
C1082 C1083 1.355 1_545 S
C1082 C1084 1.415 . S
C1083 C1082 1.355 1_565 S
C1083 C1085 1.419 . S
C1084 C1082 1.415 . S
C1084 C1089 1.425 . S
C1084 C1091 1.409 . S
C1085 H1077 0.930 . S
C1085 C1083 1.419 . S
C1085 C1086 1.362 1_565 S
C1086 H1078 0.930 . S
C1086 C1085 1.362 1_545 S
C1086 C1089 1.409 . S
C1087 H1079 0.930 . S
C1087 C1088 1.355 . S
C1087 C1089 1.415 . S
C1088 C1087 1.355 . S
C1088 C1090 1.419 . S
C1089 C1084 1.425 . S
C1089 C1086 1.409 . S
C1089 C1087 1.415 . S
C1090 H1080 0.930 . S
C1090 C1088 1.419 . S
C1090 C1091 1.362 . S
C1091 H1081 0.930 . S
C1091 C1084 1.409 . S
C1091 C1090 1.362 . S
H1092 C1098 0.930 . S
H1093 C1101 0.930 . S
H1094 C1102 0.930 . S
H1095 C1103 0.930 . S
H1096 C1106 0.930 . S
H1097 C1107 0.930 . S
C1098 H1092 0.930 . S
C1098 C1099 1.355 . S
C1098 C1100 1.415 . S
C1099 C1098 1.355 . S
C1099 C1101 1.419 . S
C1100 C1098 1.415 . S
C1100 C1105 1.425 . S
C1100 C1107 1.409 . S
C1101 H1093 0.930 . S
C1101 C1099 1.419 . S
C1101 C1102 1.362 . S
C1102 H1094 0.930 . S
C1102 C1101 1.362 . S
C1102 C1105 1.409 . S
C1103 H1095 0.930 . S
C1103 C1104 1.355 . S
C1103 C1105 1.415 . S
C1104 C1103 1.355 . S
C1104 C1106 1.419 . S
C1105 C1100 1.425 . S
C1105 C1102 1.409 . S
C1105 C1103 1.415 . S
C1106 H1096 0.930 . S
C1106 C1104 1.419 . S
C1106 C1107 1.362 . S
C1107 H1097 0.930 . S
C1107 C1100 1.409 . S
C1107 C1106 1.362 . S
H1108 C1114 0.930 . S
H1109 C1117 0.930 1_545 S
H1110 C1118 0.930 . S
H1111 C1119 0.930 . S
H1112 C1122 0.930 . S
H1113 C1123 0.930 . S
C1114 H1108 0.930 . S
C1114 C1115 1.355 . S
C1114 C1116 1.415 1_545 S
C1115 C1114 1.355 . S
C1115 C1117 1.419 1_545 S
C1116 C1114 1.415 1_565 S
C1116 C1121 1.425 . S
C1116 C1123 1.409 . S
C1117 H1109 0.930 1_565 S
C1117 C1115 1.419 1_565 S
C1117 C1118 1.362 . S
C1118 H1110 0.930 . S
C1118 C1117 1.362 . S
C1118 C1121 1.409 . S
C1119 H1111 0.930 . S
C1119 C1120 1.355 . S
C1119 C1121 1.415 . S
C1120 C1119 1.355 . S
C1120 C1122 1.419 . S
C1121 C1116 1.425 . S
C1121 C1118 1.409 . S
C1121 C1119 1.415 . S
C1122 H1112 0.930 . S
C1122 C1120 1.419 . S
C1122 C1123 1.362 . S
C1123 H1113 0.930 . S
C1123 C1116 1.409 . S
C1123 C1122 1.362 . S
H1124 C1130 0.930 . S
H1125 C1133 0.930 . S
H1126 C1134 0.930 . S
H1127 C1135 0.930 . S
H1128 C1138 0.930 . S
H1129 C1139 0.930 . S
C1130 H1124 0.930 . S
C1130 C1131 1.355 . S
C1130 C1132 1.415 . S
C1131 C1130 1.355 . S
C1131 C1133 1.419 . S
C1132 C1130 1.415 . S
C1132 C1137 1.425 . S
C1132 C1139 1.409 . S
C1133 H1125 0.930 . S
C1133 C1131 1.419 . S
C1133 C1134 1.362 . S
C1134 H1126 0.930 . S
C1134 C1133 1.362 . S
C1134 C1137 1.409 . S
C1135 H1127 0.930 . S
C1135 C1136 1.355 . S
C1135 C1137 1.415 . S
C1136 C1135 1.355 . S
C1136 C1138 1.419 . S
C1137 C1132 1.425 . S
C1137 C1134 1.409 . S
C1137 C1135 1.415 . S
C1138 H1128 0.930 . S
C1138 C1136 1.419 . S
C1138 C1139 1.362 . S
C1139 H1129 0.930 . S
C1139 C1132 1.409 . S
C1139 C1138 1.362 . S
H1140 C1146 0.930 . S
H1141 C1149 0.930 . S
H1142 C1150 0.930 . S
H1143 C1151 0.930 . S
H1144 C1154 0.930 . S
H1145 C1155 0.930 . S
C1146 H1140 0.930 . S
C1146 C1147 1.355 . S
C1146 C1148 1.415 . S
C1147 C1146 1.355 . S
C1147 C1149 1.419 . S
C1148 C1146 1.415 . S
C1148 C1153 1.425 . S
C1148 C1155 1.409 . S
C1149 H1141 0.930 . S
C1149 C1147 1.419 . S
C1149 C1150 1.362 . S
C1150 H1142 0.930 . S
C1150 C1149 1.362 . S
C1150 C1153 1.409 . S
C1151 H1143 0.930 . S
C1151 C1152 1.355 . S
C1151 C1153 1.415 . S
C1152 C1151 1.355 . S
C1152 C1154 1.419 . S
C1153 C1148 1.425 . S
C1153 C1150 1.409 . S
C1153 C1151 1.415 . S
C1154 H1144 0.930 . S
C1154 C1152 1.419 . S
C1154 C1155 1.362 . S
C1155 H1145 0.930 . S
C1155 C1148 1.409 . S
C1155 C1154 1.362 . S
H1156 C1162 0.930 . S
H1157 C1165 0.930 1_545 S
H1158 C1166 0.930 . S
H1159 C1167 0.930 . S
H1160 C1170 0.930 . S
H1161 C1171 0.930 . S
C1162 H1156 0.930 . S
C1162 C1163 1.355 . S
C1162 C1164 1.415 . S
C1163 C1162 1.355 . S
C1163 C1165 1.419 . S
C1164 C1162 1.415 . S
C1164 C1169 1.425 . S
C1164 C1171 1.409 . S
C1165 H1157 0.930 1_565 S
C1165 C1163 1.419 . S
C1165 C1166 1.362 . S
C1166 H1158 0.930 . S
C1166 C1165 1.362 . S
C1166 C1169 1.409 . S
C1167 H1159 0.930 . S
C1167 C1168 1.355 . S
C1167 C1169 1.415 . S
C1168 C1167 1.355 . S
C1168 C1170 1.419 . S
C1169 C1164 1.425 . S
C1169 C1166 1.409 . S
C1169 C1167 1.415 . S
C1170 H1160 0.930 . S
C1170 C1168 1.419 . S
C1170 C1171 1.362 . S
C1171 H1161 0.930 . S
C1171 C1164 1.409 . S
C1171 C1170 1.362 . S
H1172 C1178 0.930 . S
H1173 C1181 0.930 . S
H1174 C1182 0.930 . S
H1175 C1183 0.930 . S
H1176 C1186 0.930 . S
H1177 C1187 0.930 . S
C1178 H1172 0.930 . S
C1178 C1179 1.355 . S
C1178 C1180 1.415 . S
C1179 C1178 1.355 . S
C1179 C1181 1.419 . S
C1180 C1178 1.415 . S
C1180 C1185 1.425 . S
C1180 C1187 1.409 . S
C1181 H1173 0.930 . S
C1181 C1179 1.419 . S
C1181 C1182 1.362 . S
C1182 H1174 0.930 . S
C1182 C1181 1.362 . S
C1182 C1185 1.409 . S
C1183 H1175 0.930 . S
C1183 C1184 1.355 . S
C1183 C1185 1.415 . S
C1184 C1183 1.355 . S
C1184 C1186 1.419 . S
C1185 C1180 1.425 . S
C1185 C1182 1.409 . S
C1185 C1183 1.415 . S
C1186 H1176 0.930 . S
C1186 C1184 1.419 . S
C1186 C1187 1.362 . S
C1187 H1177 0.930 . S
C1187 C1180 1.409 . S
C1187 C1186 1.362 . S
C432 C416 1.335 . S
C427 C8 1.341 . S
C443 C23 1.230 . S
C448 C345 1.101 . S
C459 C35 1.386 . S
C464 C374 1.344 . S
C480 C387 1.041 . S
C475 C45 1.249 . S
C491 C22 1.408 . S
C496 C408 1.284 . S
C512 C353 1.095 . S
C507 C31 1.188 . S
C528 C366 1.277 . S
C523 C49 1.410 1_554 S
C544 C395 1.209 . S
C539 C9 1.235 . S
C555 C65 1.308 . S
C560 C397 1.202 . S
C576 C411 1.168 . S
C571 C73 1.301 . S
C592 C355 1.245 . S
C587 C93 1.365 1_565 S
C608 C369 1.125 . S
C603 C101 1.264 . S
C619 C59 1.295 . S
C624 C348 1.298 . S
C635 C79 1.262 . S
C640 C376 1.167 . S
C651 C87 1.297 . S
C656 C390 1.291 . S
C672 C418 1.081 . S
C667 C107 1.337 . S
C688 C227 1.423 . S
C683 C106 1.413 . S
C704 C208 1.226 . S
C699 C119 1.347 . S
C720 C222 1.211 . S
C715 C134 1.339 . S
C736 C243 1.247 . S
C731 C147 1.340 . S
C747 C64 1.325 . S
C752 C229 1.125 . S
C763 C78 1.383 . S
C768 C180 1.362 . S
C779 C133 1.331 . S
C784 C240 0.962 . S
C795 C161 1.292 . S
C800 C206 1.098 . S
C816 C269 1.321 . S
C811 C36 1.333 . S
C832 C282 1.051 . S
C827 C51 1.218 . S
C843 C7 1.388 . S
C848 C311 1.282 . S
C859 C17 1.301 . S
C864 C324 0.952 . S
C880 C261 1.170 . S
C875 C50 1.355 1_554 S
C896 C290 1.142 . S
C891 C3 1.181 . S
C907 C21 1.423 . S
C912 C303 1.146 . S
C928 C332 1.145 . S
C923 C37 1.286 . S
C939 C163 1.298 . S
C944 C334 1.222 . S
C955 C115 1.274 . S
C960 C264 1.025 . S
C976 C292 1.361 . S
C971 C135 1.350 . S
C987 C143 1.196 . S
C992 C306 1.120 . S
C1008 C285 1.215 . S
C1003 C157 1.351 . S
C1019 C121 1.267 . S
C1024 C313 0.991 . S
C1040 C327 1.201 . S
C1035 C129 1.355 . S
C1056 C271 1.116 . S
C1051 C149 1.359 . S
C1072 C187 1.240 . S
C1067 C148 1.411 . S
C1088 C250 1.306 . S
C1083 C77 1.380 . S
C1099 C92 1.360 . S
C1104 C177 1.103 . S
C1120 C201 1.226 . S
C1115 C105 1.370 . S
C1136 C185 1.112 . S
C1131 C162 1.310 . S
C1147 C120 1.410 . S
C1152 C219 1.260 . S
C1163 C91 1.298 . S
C1168 C198 0.923 . S
C1179 C63 1.259 . S
C1184 C248 0.996 . S
