# Generated by pormake.
# Topology tsx, (6,3)-cn, num edge types: 1
# Building blocks:
#     Node 0, Type 0, BuildingBlock: VOLQOD_clean_sbu_1, # of connection points: 6
#     Node 1, Type 0, BuildingBlock: VOLQOD_clean_sbu_1, # of connection points: 6
#     Node 2, Type 1, BuildingBlock: ESEHIV_clean_linker_0, # of connection points: 3
#     Node 3, Type 1, BuildingBlock: ESEHIV_clean_linker_0, # of connection points: 3
#     Node 4, Type 1, BuildingBlock: ESEHIV_clean_linker_0, # of connection points: 3
#     Node 5, Type 1, BuildingBlock: ESEHIV_clean_linker_0, # of connection points: 3
#     Edge 6, Type (0, 1), BuildingBlock: MIFKUJ_clean_linker_0, # of connection points: 2
#     Edge 7, Type (0, 1), BuildingBlock: MIFKUJ_clean_linker_0, # of connection points: 2
#     Edge 8, Type (0, 1), BuildingBlock: MIFKUJ_clean_linker_0, # of connection points: 2
#     Edge 9, Type (0, 1), BuildingBlock: MIFKUJ_clean_linker_0, # of connection points: 2
#     Edge 10, Type (0, 1), BuildingBlock: MIFKUJ_clean_linker_0, # of connection points: 2
#     Edge 11, Type (0, 1), BuildingBlock: MIFKUJ_clean_linker_0, # of connection points: 2
#     Edge 12, Type (0, 1), BuildingBlock: MIFKUJ_clean_linker_0, # of connection points: 2
#     Edge 13, Type (0, 1), BuildingBlock: MIFKUJ_clean_linker_0, # of connection points: 2
#     Edge 14, Type (0, 1), BuildingBlock: MIFKUJ_clean_linker_0, # of connection points: 2
#     Edge 15, Type (0, 1), BuildingBlock: MIFKUJ_clean_linker_0, # of connection points: 2
#     Edge 16, Type (0, 1), BuildingBlock: MIFKUJ_clean_linker_0, # of connection points: 2
#     Edge 17, Type (0, 1), BuildingBlock: MIFKUJ_clean_linker_0, # of connection points: 2
# Relax obj value: 0.075
# Max RMSD: 0.108
# Mean RMSD: 0.083
data_MOF--net-tsx--node1-VOLQOD_clean_sbu_1--node2-ESEHIV_clean_linker_0--edge1-MIFKUJ_clean_linker_0
_symmetry_space_group_name_H-M    P1
_symmetry_Int_Tables_number       1
_symmetry_cell_setting            triclinic
loop_
_symmetry_equiv_pos_as_xyz
'x, y, z'
_cell_length_a     25.120675
_cell_length_b     26.093418
_cell_length_c     49.928232
_cell_angle_alpha  90.614289
_cell_angle_beta   89.910715
_cell_angle_gamma 90.286054
loop_
_atom_site_label
_atom_site_type_symbol
_atom_site_fract_x
_atom_site_fract_y
_atom_site_fract_z
_atom_type_partial_charge
O0 O 0.04723 0.97861 0.07394 0.0
Zn1 Zn 0.06957 0.97656 0.03511 0.0
O2 O 0.01069 0.99288 0.01118 0.0
Zn3 Zn 0.99522 0.93488 0.98731 0.0
Zn4 Zn 0.94828 0.00801 0.03312 0.0
Zn5 Zn 0.02919 0.05208 0.98924 0.0
O6 O -0.00089 0.95465 0.94839 0.0
O7 O 0.03234 0.03362 0.94988 0.0
O8 O 0.09893 0.90646 0.0268 0.0
O9 O 0.04831 0.87877 0.99312 0.0
O10 O 0.9228 0.90486 0.99464 0.0
O11 O 0.8916 0.95478 0.02724 0.0
O12 O 0.9174 0.07591 0.02346 0.0
O13 O 0.12804 0.02902 0.03168 0.0
O14 O 0.97335 0.10695 0.99313 0.0
O15 O 0.09972 0.0822 0.00036 0.0
C16 C 0.00509 0.99347 0.08585 0.0
C17 C 0.01671 0.99437 0.93663 0.0
C18 C 0.88645 0.91661 0.01137 0.0
C19 C 0.08644 0.87224 0.0095 0.0
C20 C 0.93134 0.11098 0.00732 0.0
C21 C 0.13446 0.06878 0.01743 0.0
O22 O 0.9646 0.00788 0.07265 0.0
O23 O 0.55142 0.5033 0.57817 0.0
Zn24 Zn 0.57257 0.50014 0.53913 0.0
O25 O 0.51112 0.50904 0.51559 0.0
Zn26 Zn 0.49985 0.44764 0.49341 0.0
Zn27 Zn 0.44782 0.52079 0.53737 0.0
Zn28 Zn 0.52362 0.56786 0.4925 0.0
O29 O 0.49977 0.46468 0.45404 0.0
O30 O 0.5232 0.54689 0.45375 0.0
O31 O 0.60819 0.43269 0.53164 0.0
O32 O 0.55846 0.39707 0.49966 0.0
O33 O 0.43008 0.41293 0.50166 0.0
O34 O 0.39258 0.46625 0.5309 0.0
O35 O 0.41412 0.58792 0.52903 0.0
O36 O 0.62782 0.55504 0.53287 0.0
O37 O 0.46585 0.62051 0.49733 0.0
O38 O 0.59436 0.60134 0.49995 0.0
C39 C 0.50731 0.51245 0.58987 0.0
C40 C 0.51151 0.5054 0.44145 0.0
C41 C 0.3911 0.42564 0.51658 0.0
C42 C 0.59836 0.39596 0.51536 0.0
C43 C 0.42522 0.62329 0.51258 0.0
C44 C 0.63144 0.59206 0.51653 0.0
O45 O 0.46507 0.52048 0.57655 0.0
H46 H 0.94728 0.06155 0.37854 0.0
H47 H 0.05422 0.93317 0.37785 0.0
H48 H 0.00789 0.0041 0.45252 0.0
C49 C 0.97146 0.034 0.38906 0.0
C50 C 0.97307 0.03548 0.41715 0.0
C51 C 0.00093 -0.00269 0.37459 0.0
C52 C 0.03244 0.96242 0.38876 0.0
C53 C 0.03568 0.96463 0.4169 0.0
C54 C 0.00525 0.00104 0.43089 0.0
H55 H 0.97985 0.92803 0.64427 0.0
H56 H 0.0532 0.07779 0.64389 0.0
H57 H 0.01652 0.00098 0.56973 0.0
C58 C 0.99556 0.96072 0.63359 0.0
C59 C 0.99503 0.95992 0.60544 0.0
C60 C 0.01672 0.00293 0.64788 0.0
C61 C 0.03748 0.04449 0.63338 0.0
C62 C 0.03841 0.04338 0.60525 0.0
C63 C 0.01741 0.00097 0.59145 0.0
H64 H 0.42218 0.53601 0.88335 0.0
H65 H 0.56244 0.44398 0.87697 0.0
H66 H 0.48981 0.46815 0.95389 0.0
C67 C 0.45186 0.51252 0.89291 0.0
C68 C 0.45013 0.50463 0.9208 0.0
C69 C 0.49164 0.49 0.87699 0.0
C70 C 0.53145 0.46108 0.88921 0.0
C71 C 0.53162 0.45397 0.91701 0.0
C72 C 0.49028 0.4749 0.93255 0.0
H73 H 0.44742 0.44669 0.15265 0.0
H74 H 0.53755 0.58657 0.14822 0.0
H75 H 0.50565 0.4992 0.07658 0.0
C76 C 0.46869 0.47479 0.14092 0.0
C77 C 0.47248 0.46816 0.11298 0.0
C78 C 0.49275 0.51684 0.15396 0.0
C79 C 0.51997 0.55322 0.13853 0.0
C80 C 0.5247 0.54715 0.11064 0.0
C81 C 0.50067 0.50469 0.09798 0.0
H82 H 0.20005 0.06873 0.06091 0.0
H83 H 0.26707 0.133 0.07293 0.0
H84 H 0.24078 0.21 0.99819 0.0
H85 H 0.17271 0.14625 0.98606 0.0
H86 H 0.35701 0.19963 0.01956 0.0
H87 H 0.17848 0.26006 0.04136 0.0
H88 H 0.08911 0.24963 0.06113 0.0
H89 H 0.15891 0.22392 0.13826 0.0
H90 H 0.24879 0.23341 0.1188 0.0
H91 H 0.42294 0.4631 0.06393 0.0
H92 H 0.37658 0.38953 0.04381 0.0
H93 H 0.41522 0.29816 0.11238 0.0
H94 H 0.4649 0.36987 0.13187 0.0
H95 H 0.29467 0.31586 0.09243 0.0
H96 H 0.46861 0.24993 0.07384 0.0
H97 H 0.56088 0.25433 0.05725 0.0
H98 H 0.50399 0.28411 0.97789 0.0
H99 H 0.41111 0.28093 0.99421 0.0
C100 C 0.20918 0.09866 0.04673 0.0
C101 C 0.18066 0.10272 0.02264 0.0
C102 C 0.24751 0.13528 0.05365 0.0
C103 C 0.25847 0.1761 0.03646 0.0
C104 C 0.23278 0.17852 0.01162 0.0
C105 C 0.19378 0.14229 0.00483 0.0
C106 C 0.29202 0.21912 0.04592 0.0
C107 C 0.3432 0.22559 0.03517 0.0
C108 C 0.27428 0.2519 0.06678 0.0
C109 C 0.2203 0.2469 0.07857 0.0
C110 C 0.17477 0.25173 0.06248 0.0
C111 C 0.12403 0.24608 0.07364 0.0
C112 C 0.11834 0.23597 0.10092 0.0
C113 C 0.16338 0.23167 0.11712 0.0
C114 C 0.21422 0.23722 0.10604 0.0
C115 C 0.4229 0.42704 0.07446 0.0
C116 C 0.44724 0.42279 0.09973 0.0
C117 C 0.39612 0.3852 0.06297 0.0
C118 C 0.39268 0.33876 0.0767 0.0
C119 C 0.4176 0.3339 0.10158 0.0
C120 C 0.44539 0.37521 0.11279 0.0
C121 C 0.35959 0.29651 0.06606 0.0
C122 C 0.30834 0.29026 0.07661 0.0
C123 C 0.37761 0.26359 0.04537 0.0
C124 C 0.43304 0.26617 0.03534 0.0
C125 C 0.47577 0.25827 0.05295 0.0
C126 C 0.52813 0.26033 0.04359 0.0
C127 C 0.53826 0.26978 0.0166 0.0
C128 C 0.49603 0.27704 0.99884 0.0
C129 C 0.4435 0.27513 0.00814 0.0
H130 H 0.57891 0.27127 0.00954 0.0
H131 H 0.07902 0.2316 0.10953 0.0
H132 H 0.08372 0.79924 0.96996 0.0
H133 H 0.13941 0.72363 0.96554 0.0
H134 H 0.21439 0.75986 0.04118 0.0
H135 H 0.15976 0.83685 0.04534 0.0
H136 H 0.28654 0.74056 0.00647 0.0
H137 H 0.13156 0.65194 0.03285 0.0
H138 H 0.0367 0.62747 0.03399 0.0
H139 H 0.04596 0.57511 0.95231 0.0
H140 H 0.14074 0.59987 0.95053 0.0
H141 H 0.45513 0.53715 0.97372 0.0
H142 H 0.38684 0.58003 0.99974 0.0
H143 H 0.28139 0.57491 0.93165 0.0
H144 H 0.34637 0.52526 0.90662 0.0
H145 H 0.22462 0.56977 0.9745 0.0
H146 H 0.37521 0.6864 0.94842 0.0
H147 H 0.47159 0.70578 0.94981 0.0
H148 H 0.4688 0.69857 0.03573 0.0
H149 H 0.37257 0.68024 0.03477 0.0
C150 C 0.1116 0.79091 0.98584 0.0
C151 C 0.11754 0.82431 0.00792 0.0
C152 C 0.14313 0.74727 0.98341 0.0
C153 C 0.18062 0.73552 0.00322 0.0
C154 C 0.18563 0.76805 0.02567 0.0
C155 C 0.15446 0.8121 0.02799 0.0
C156 C 0.21803 0.69236 0.99894 0.0
C157 C 0.2728 0.70288 7e-05 0.0
C158 C 0.20045 0.64304 0.99065 0.0
C159 C 0.14333 0.62802 0.99154 0.0
C160 C 0.11332 0.63554 0.01506 0.0
C161 C 0.05955 0.62155 0.01583 0.0
C162 C 0.03529 0.59981 0.99322 0.0
C163 C 0.06481 0.59194 0.96981 0.0
C164 C 0.11861 0.60585 0.96893 0.0
C165 C 0.41693 0.5433 0.96436 0.0
C166 C 0.40728 0.52838 0.93756 0.0
C167 C 0.37805 0.56893 0.97927 0.0
C168 C 0.32973 0.5828 0.96735 0.0
C169 C 0.31869 0.56548 0.94123 0.0
C170 C 0.35663 0.53795 0.92667 0.0
C171 C 0.29258 0.61905 0.98079 0.0
C172 C 0.23799 0.6072 0.98143 0.0
C173 C 0.31014 0.66704 0.99105 0.0
C174 C 0.36701 0.68189 0.99152 0.0
C175 C 0.39524 0.68956 0.96757 0.0
C176 C 0.44981 0.70035 0.96829 0.0
C177 C 0.47638 0.70352 0.99284 0.0
C178 C 0.4483 0.6965 0.01672 0.0
C179 C 0.3937 0.68624 0.01613 0.0
H180 H 0.51873 0.71126 0.99335 0.0
H181 H 0.99366 0.58899 0.99385 0.0
H182 H 0.8093 0.92106 0.04983 0.0
H183 H 0.73958 0.85826 0.05833 0.0
H184 H 0.78572 0.77346 0.98741 0.0
H185 H 0.85698 0.83556 0.97913 0.0
H186 H 0.65453 0.82048 0.03491 0.0
H187 H 0.77717 0.64601 0.00115 0.0
H188 H 0.87105 0.622 0.99366 0.0
H189 H 0.92092 0.73265 0.05287 0.0
H190 H 0.82738 0.75679 0.06094 0.0
H191 H 0.5009 0.5915 0.06244 0.0
H192 H 0.55544 0.65353 0.0376 0.0
H193 H 0.67532 0.64787 0.0992 0.0
H194 H 0.62222 0.58534 0.1236 0.0
H195 H 0.71801 0.64318 0.04926 0.0
H196 H 0.58603 0.73826 0.09814 0.0
H197 H 0.49679 0.76805 0.11124 0.0
H198 H 0.47108 0.8247 0.03192 0.0
H199 H 0.55953 0.79363 0.01804 0.0
C200 C 0.80429 0.8895 0.03578 0.0
C201 C 0.83932 0.88286 0.01404 0.0
C202 C 0.76414 0.85371 0.04061 0.0
C203 C 0.75799 0.81075 0.02375 0.0
C204 C 0.79042 0.80589 0.00094 0.0
C205 C 0.83106 0.84144 0.99623 0.0
C206 C 0.72106 0.76914 0.03169 0.0
C207 C 0.66802 0.78145 0.03768 0.0
C208 C 0.73912 0.7185 0.03567 0.0
C209 C 0.7954 0.70363 0.03136 0.0
C210 C 0.8082 0.66507 0.0126 0.0
C211 C 0.86133 0.65146 0.00826 0.0
C212 C 0.90191 0.67596 0.02269 0.0
C213 C 0.88946 0.71387 0.04163 0.0
C214 C 0.83642 0.72754 0.04608 0.0
C215 C 0.53909 0.60329 0.07052 0.0
C216 C 0.55714 0.58401 0.09509 0.0
C217 C 0.56988 0.63889 0.05643 0.0
C218 C 0.619 0.65559 0.06674 0.0
C219 C 0.63745 0.63551 0.09094 0.0
C220 C 0.60684 0.60019 0.10499 0.0
C221 C 0.65149 0.69462 0.05289 0.0
C222 C 0.70383 0.68175 0.04575 0.0
C223 C 0.63305 0.7451 0.04862 0.0
C224 C 0.57905 0.76229 0.05682 0.0
C225 C 0.56098 0.75598 0.08328 0.0
C226 C 0.51056 0.77334 0.0909 0.0
C227 C 0.47814 0.79797 0.07238 0.0
C228 C 0.49617 0.80549 0.04623 0.0
C229 C 0.54635 0.78775 0.03845 0.0
H230 H 0.43916 0.81147 0.07834 0.0
H231 H 0.94299 0.66553 0.01924 0.0
H232 H 0.94578 0.193 0.97414 0.0
H233 H 0.88088 0.25926 0.96352 0.0
H234 H 0.77112 0.195 0.02071 0.0
H235 H 0.83541 0.12865 0.03146 0.0
H236 H 0.72832 0.20447 0.97066 0.0
H237 H 0.82707 0.30879 0.03306 0.0
H238 H 0.90715 0.35012 0.05212 0.0
H239 H 0.93199 0.43171 0.97889 0.0
H240 H 0.85249 0.39024 0.95922 0.0
H241 H 0.52369 0.38426 0.95754 0.0
H242 H 0.59518 0.33434 0.97722 0.0
H243 H 0.70873 0.40493 0.92421 0.0
H244 H 0.63807 0.4575 0.90541 0.0
H245 H 0.75029 0.3935 0.97315 0.0
H246 H 0.65356 0.28984 0.91029 0.0
H247 H 0.5742 0.24899 0.89029 0.0
H248 H 0.54818 0.16395 0.96232 0.0
H249 H 0.62712 0.20464 0.98287 0.0
C250 C 0.9082 0.19344 0.9848 0.0
C251 C 0.89559 0.15517 0.00345 0.0
C252 C 0.87127 0.23148 0.97878 0.0
C253 C 0.82128 0.2319 0.99134 0.0
C254 C 0.80951 0.19518 0.01079 0.0
C255 C 0.84639 0.15732 0.0169 0.0
C256 C 0.77933 0.26732 0.98238 0.0
C257 C 0.73264 0.24585 0.97164 0.0
C258 C 0.78611 0.32114 0.98282 0.0
C259 C 0.83409 0.34597 0.99457 0.0
C260 C 0.84989 0.33514 0.02092 0.0
C261 C 0.89513 0.35868 0.03185 0.0
C262 C 0.92472 0.39341 0.0167 0.0
C263 C 0.90908 0.40474 0.99059 0.0
C264 C 0.8639 0.38125 0.97955 0.0
C265 C 0.56397 0.38995 0.95037 0.0
C266 C 0.57506 0.42453 0.92969 0.0
C267 C 0.60467 0.36096 0.96149 0.0
C268 C 0.65695 0.36515 0.95183 0.0
C269 C 0.66855 0.40085 0.93184 0.0
C270 C 0.628 0.43035 0.92089 0.0
C271 C 0.69897 0.3306 0.96171 0.0
C272 C 0.74578 0.35214 0.97239 0.0
C273 C 0.69261 0.27664 0.96098 0.0
C274 C 0.64569 0.25121 0.94837 0.0
C275 C 0.63065 0.26284 0.92199 0.0
C276 C 0.58579 0.23957 0.91051 0.0
C277 C 0.55597 0.20411 0.92508 0.0
C278 C 0.5712 0.19154 0.95108 0.0
C279 C 0.61602 0.2147 0.96265 0.0
H280 H 0.52121 0.18621 0.91617 0.0
H281 H 0.95971 0.41163 0.02521 0.0
H282 H 0.6588 0.66758 0.48131 0.0
H283 H 0.73479 0.72621 0.48406 0.0
H284 H 0.78716 0.65181 0.55611 0.0
H285 H 0.71234 0.59238 0.55311 0.0
H286 H 0.75282 0.79468 0.51917 0.0
H287 H 0.91724 0.6628 0.56637 0.0
H288 H 0.95282 0.5758 0.55945 0.0
H289 H 0.8902 0.57231 0.47949 0.0
H290 H 0.85493 0.65959 0.48574 0.0
H291 H 0.89791 0.91905 0.61615 0.0
H292 H 0.84876 0.85547 0.58979 0.0
H293 H 0.97996 0.84386 0.53421 0.0
H294 H 0.02994 0.90755 0.56084 0.0
H295 H 0.93603 0.74914 0.54689 0.0
H296 H 0.87949 0.9059 0.51308 0.0
H297 H 0.85021 0.99593 0.51359 0.0
H298 H 0.70681 0.95296 0.55472 0.0
H299 H 0.7356 0.86275 0.55487 0.0
C300 C 0.68689 0.66328 0.49756 0.0
C301 C 0.67924 0.62551 0.51712 0.0
C302 C 0.7304 0.69677 0.49905 0.0
C303 C 0.76708 0.69321 0.52013 0.0
C304 C 0.76022 0.65467 0.53928 0.0
C305 C 0.71699 0.62096 0.5377 0.0
C306 C 0.80882 0.73306 0.5241 0.0
C307 C 0.79307 0.78464 0.52483 0.0
C308 C 0.86212 0.72046 0.53041 0.0
C309 C 0.88305 0.66772 0.52662 0.0
C310 C 0.91124 0.64362 0.54726 0.0
C311 C 0.93133 0.5942 0.54346 0.0
C312 C 0.92367 0.5685 0.51907 0.0
C313 C 0.89594 0.59218 0.49841 0.0
C314 C 0.87577 0.64159 0.5021 0.0
C315 C 0.91668 0.90241 0.59857 0.0
C316 C 0.9677 0.91815 0.59054 0.0
C317 C 0.88838 0.86653 0.58338 0.0
C318 C 0.91048 0.84572 0.55987 0.0
C319 C 0.96217 0.85989 0.5522 0.0
C320 C 0.99049 0.89624 0.56735 0.0
C321 C 0.87853 0.80945 0.54357 0.0
C322 C 0.89616 0.75889 0.54049 0.0
C323 C 0.82767 0.82319 0.53406 0.0
C324 C 0.80984 0.87745 0.53405 0.0
C325 C 0.84187 0.91565 0.52241 0.0
C326 C 0.82534 0.96674 0.52255 0.0
C327 C 0.77666 0.98013 0.53417 0.0
C328 C 0.74447 0.94249 0.54569 0.0
C329 C 0.76084 0.89134 0.54563 0.0
H330 H 0.76383 0.01965 0.53421 0.0
H331 H 0.93927 0.53025 0.51617 0.0
H332 H 0.69706 0.3884 0.53822 0.0
H333 H 0.76526 0.32462 0.52788 0.0
H334 H 0.65431 0.24293 0.47705 0.0
H335 H 0.58617 0.30674 0.48687 0.0
H336 H 0.7787 0.21877 0.53008 0.0
H337 H 0.71595 0.21768 0.41873 0.0
H338 H 0.67045 0.27412 0.38679 0.0
H339 H 0.72042 0.40638 0.43227 0.0
H340 H 0.76687 0.35079 0.46421 0.0
H341 H 0.90133 0.01638 0.45657 0.0
H342 H 0.84409 0.07818 0.47971 0.0
H343 H 0.91847 0.20134 0.43597 0.0
H344 H 0.9739 0.13906 0.41191 0.0
H345 H 0.81892 0.21104 0.43276 0.0
H346 H 0.93573 0.18463 0.50733 0.0
H347 H 0.98645 0.13318 0.5397 0.0
H348 H 0.84105 0.06696 0.56884 0.0
H349 H 0.78961 0.11738 0.5364 0.0
C350 C 0.68681 0.35635 0.52523 0.0
C351 C 0.6365 0.35318 0.51293 0.0
C352 C 0.7258 0.31983 0.51947 0.0
C353 C 0.71498 0.27969 0.50138 0.0
C354 C 0.66356 0.27416 0.49078 0.0
C355 C 0.62472 0.31073 0.49637 0.0
C356 C 0.75867 0.24726 0.49106 0.0
C357 C 0.78772 0.21694 0.50883 0.0
C358 C 0.77123 0.24616 0.46345 0.0
C359 C 0.74442 0.28001 0.44399 0.0
C360 C 0.71743 0.25882 0.42182 0.0
C361 C 0.69145 0.29066 0.40373 0.0
C362 C 0.69239 0.34379 0.40755 0.0
C363 C 0.71956 0.36522 0.42939 0.0
C364 C 0.74569 0.33356 0.4475 0.0
C365 C 0.90559 0.05676 0.45214 0.0
C366 C 0.94129 0.07321 0.43233 0.0
C367 C 0.87334 0.0921 0.46555 0.0
C368 C 0.8773 0.14457 0.45982 0.0
C369 C 0.91454 0.16106 0.44066 0.0
C370 C 0.946 0.12562 0.42688 0.0
C371 C 0.83904 0.18153 0.47165 0.0
C372 C 0.81061 0.21283 0.45408 0.0
C373 C 0.82819 0.18429 0.49949 0.0
C374 C 0.85894 0.15434 0.51923 0.0
C375 C 0.9147 0.15871 0.52047 0.0
C376 C 0.94354 0.12986 0.53886 0.0
C377 C 0.91698 0.09678 0.55625 0.0
C378 C 0.86155 0.09259 0.55534 0.0
C379 C 0.83254 0.12133 0.53699 0.0
H380 H 0.93928 0.07456 0.57049 0.0
H381 H 0.67217 0.36837 0.39355 0.0
H382 H 0.29326 0.44858 0.5372 0.0
H383 H 0.219 0.38975 0.54475 0.0
H384 H 0.30842 0.26674 0.50819 0.0
H385 H 0.38242 0.32571 0.49987 0.0
H386 H 0.20289 0.25789 0.49661 0.0
H387 H 0.31171 0.28535 0.5753 0.0
H388 H 0.35627 0.33789 0.61007 0.0
H389 H 0.2052 0.39764 0.63546 0.0
H390 H 0.15983 0.34593 0.60057 0.0
H391 H 0.11217 0.038 0.56548 0.0
H392 H 0.15692 0.10914 0.54323 0.0
H393 H 0.06072 0.21663 0.58813 0.0
H394 H 0.01707 0.14526 0.61106 0.0
H395 H 0.15983 0.24008 0.59308 0.0
H396 H 0.04984 0.19946 0.51714 0.0
H397 H 0.00886 0.14327 0.48268 0.0
H398 H 0.16348 0.10394 0.45255 0.0
H399 H 0.20555 0.15918 0.48695 0.0
C400 C 0.29689 0.40917 0.53043 0.0
C401 C 0.34408 0.39156 0.51836 0.0
C402 C 0.25436 0.37565 0.5347 0.0
C403 C 0.25863 0.3237 0.52747 0.0
C404 C 0.30436 0.30668 0.51395 0.0
C405 C 0.34673 0.34038 0.50936 0.0
C406 C 0.21818 0.2862 0.53655 0.0
C407 C 0.19337 0.25377 0.51768 0.0
C408 C 0.20529 0.28152 0.56401 0.0
C409 C 0.23247 0.31225 0.58515 0.0
C410 C 0.28806 0.30996 0.58819 0.0
C411 C 0.31345 0.33955 0.60792 0.0
C412 C 0.2836 0.3712 0.62491 0.0
C413 C 0.22828 0.37319 0.62225 0.0
C414 C 0.2027 0.34374 0.60251 0.0
C415 C 0.10008 0.07684 0.57025 0.0
C416 C 0.06176 0.08638 0.59016 0.0
C417 C 0.12528 0.11747 0.55735 0.0
C418 C 0.11179 0.16831 0.56376 0.0
C419 C 0.07177 0.17773 0.58287 0.0
C420 C 0.04713 0.13709 0.59605 0.0
C421 C 0.14409 0.21132 0.5532 0.0
C422 C 0.16797 0.24472 0.57189 0.0
C423 C 0.15624 0.21637 0.52562 0.0
C424 C 0.13088 0.18331 0.50478 0.0
C425 C 0.07514 0.17856 0.50329 0.0
C426 C 0.05169 0.14695 0.48375 0.0
C427 C 0.08352 0.12009 0.4655 0.0
C428 C 0.13887 0.1248 0.4667 0.0
C429 C 0.16254 0.15633 0.48618 0.0
H430 H 0.0653 0.09573 0.45039 0.0
H431 H 0.30333 0.3941 0.64017 0.0
H432 H 0.4221 0.69387 0.47267 0.0
H433 H 0.35449 0.75872 0.46543 0.0
H434 H 0.27643 0.71607 0.53904 0.0
H435 H 0.34326 0.64978 0.54603 0.0
H436 H 0.2062 0.72199 0.50138 0.0
H437 H 0.34105 0.83356 0.53297 0.0
H438 H 0.43084 0.87125 0.53731 0.0
H439 H 0.42636 0.91759 0.4551 0.0
H440 H 0.33684 0.87954 0.45012 0.0
H441 H 0.02127 0.9199 0.46615 0.0
H442 H 0.08567 0.87 0.49137 0.0
H443 H 0.19701 0.88069 0.42571 0.0
H444 H 0.13488 0.9338 0.40134 0.0
H445 H 0.24582 0.8985 0.47109 0.0
H446 H 0.11336 0.77049 0.44016 0.0
H447 H 0.02253 0.73403 0.43869 0.0
H448 H 0.02172 0.72201 0.52439 0.0
H449 H 0.11221 0.75911 0.52638 0.0
C450 C 0.39108 0.69876 0.48756 0.0
C451 C 0.38798 0.66656 0.50988 0.0
C452 C 0.35252 0.73609 0.48348 0.0
C453 C 0.31067 0.74271 0.50187 0.0
C454 C 0.30837 0.71166 0.52461 0.0
C455 C 0.34666 0.67388 0.52858 0.0
C456 C 0.2674 0.77932 0.49606 0.0
C457 C 0.21474 0.76097 0.49529 0.0
C458 C 0.27837 0.83024 0.48829 0.0
C459 C 0.33223 0.85344 0.49116 0.0
C460 C 0.35932 0.8515 0.51576 0.0
C461 C 0.41017 0.87297 0.51834 0.0
C462 C 0.43431 0.89675 0.49649 0.0
C463 C 0.4076 0.89918 0.47202 0.0
C464 C 0.35675 0.87774 0.46932 0.0
C465 C 0.05968 0.9121 0.45717 0.0
C466 C 0.07276 0.93087 0.43162 0.0
C467 C 0.09622 0.88303 0.47153 0.0
C468 C 0.14597 0.87115 0.46032 0.0
C469 C 0.15883 0.88938 0.43476 0.0
C470 C 0.12285 0.91914 0.42065 0.0
C471 C 0.18545 0.84007 0.47488 0.0
C472 C 0.2373 0.85975 0.47758 0.0
C473 C 0.17353 0.7907 0.48479 0.0
C474 C 0.1193 0.76805 0.48343 0.0
C475 C 0.09365 0.76038 0.45869 0.0
C476 C 0.04222 0.73961 0.45778 0.0
C477 C 0.01625 0.72594 0.48145 0.0
C478 C 0.04174 0.73283 0.50609 0.0
C479 C 0.0931 0.75369 0.50711 0.0
H480 H 0.97645 0.70988 0.48072 0.0
H481 H 0.47369 0.91334 0.49853 0.0
H482 H 0.08555 0.97146 0.12078 0.0
H483 H 0.08198 0.97134 0.16963 0.0
H484 H 0.91668 0.01503 0.16724 0.0
H485 H 0.9201 0.0162 0.11831 0.0
H486 H 0.96805 0.06901 0.2046 0.0
H487 H 0.9531 0.89167 0.18093 0.0
H488 H 0.9781 0.81078 0.15837 0.0
H489 H 0.12798 0.81207 0.1996 0.0
H490 H 0.10419 0.89341 0.22214 0.0
H491 H 0.91494 0.01098 0.34156 0.0
H492 H 0.9136 0.01008 0.29257 0.0
H493 H 0.08191 0.97851 0.29107 0.0
H494 H 0.08395 0.98046 0.33998 0.0
H495 H 0.02538 0.91703 0.25582 0.0
H496 H 0.03928 0.09649 0.27867 0.0
H497 H 0.01203 0.17649 0.30144 0.0
H498 H 0.86055 0.16949 0.26179 0.0
H499 H 0.88664 0.08898 0.23907 0.0
C500 C 0.04836 0.98102 0.13059 0.0
C501 C 0.00304 0.99365 0.11556 0.0
C502 C 0.04634 0.98071 0.15856 0.0
C503 C -0.00115 0.99247 0.17212 0.0
C504 C 0.95373 0.00572 0.15721 0.0
C505 C 0.95575 0.00625 0.12922 0.0
C506 C 0.99648 0.99134 0.20185 0.0
C507 C 0.97982 0.03549 0.21577 0.0
C508 C 0.01264 0.94791 0.21649 0.0
C509 C 0.02705 0.8989 0.20304 0.0
C510 C 0.99156 0.87492 0.18503 0.0
C511 C 0.00549 0.82895 0.17227 0.0
C512 C 0.05465 0.80637 0.17749 0.0
C513 C 0.08994 0.82965 0.19555 0.0
C514 C 0.07624 0.87566 0.20834 0.0
C515 C 0.9518 0.00435 0.33084 0.0
C516 C -0.00042 0.9959 0.34477 0.0
C517 C 0.95091 0.00365 0.30283 0.0
C518 C 0.99773 0.99453 0.28819 0.0
C519 C 0.04529 0.98542 0.30198 0.0
C520 C 0.0463 0.98635 0.32996 0.0
C521 C 0.99734 0.99475 0.25848 0.0
C522 C 0.01345 0.95043 0.24459 0.0
C523 C 0.98032 0.03786 0.24388 0.0
C524 C 0.96471 0.08643 0.25739 0.0
C525 C -0.0 0.11178 0.27497 0.0
C526 C 0.98479 0.15726 0.28784 0.0
C527 C 0.93453 0.17799 0.28312 0.0
C528 C 0.89944 0.15335 0.26546 0.0
C529 C 0.91443 0.10781 0.25257 0.0
H530 H 0.92283 0.2132 0.2931 0.0
H531 H 0.06536 0.77078 0.16759 0.0
H532 H 0.07607 0.05695 0.90453 0.0
H533 H 0.07762 0.05877 0.85563 0.0
H534 H 0.96034 0.93735 0.8528 0.0
H535 H 0.96053 0.93379 0.90166 0.0
H536 H 0.02905 0.91935 0.81646 0.0
H537 H 0.93043 0.0687 0.84135 0.0
H538 H 0.91268 0.15047 0.86484 0.0
H539 H 0.04814 0.21908 0.82652 0.0
H540 H 0.06713 0.13747 0.80306 0.0
H541 H 0.94129 0.96399 0.68226 0.0
H542 H 0.94382 0.96245 0.73113 0.0
H543 H 0.09337 0.04399 0.73058 0.0
H544 H 0.09302 0.04331 0.68165 0.0
H545 H 0.00918 0.08292 0.76777 0.0
H546 H 0.1039 0.9289 0.7423 0.0
H547 H 0.11441 0.84675 0.71805 0.0
H548 H 0.97535 0.78696 0.75716 0.0
H549 H 0.96355 0.8691 0.78135 0.0
C550 C 0.05064 0.03062 0.89347 0.0
C551 C 0.01805 0.99533 0.90697 0.0
C552 C 0.05131 0.03189 0.86548 0.0
C553 C 0.01833 -0.00113 0.85041 0.0
C554 C 0.98614 0.96328 0.8639 0.0
C555 C 0.98621 0.96133 0.89187 0.0
C556 C 0.01769 0.00096 0.82061 0.0
C557 C 0.02399 0.95513 0.80592 0.0
C558 C 0.01186 0.04764 0.80663 0.0
C559 C 0.00051 0.09681 0.82067 0.0
C560 C 0.95667 0.10111 0.83809 0.0
C561 C 0.94634 0.14745 0.85137 0.0
C562 C 0.97935 0.1899 0.84723 0.0
C563 C 0.02266 0.18614 0.82974 0.0
C564 C 0.0332 0.13987 0.81643 0.0
C565 C 0.97524 0.98095 0.69239 0.0
C566 C 0.01712 0.00354 0.67779 0.0
C567 C 0.9763 0.9804 0.72037 0.0
C568 C 0.0188 0.00304 0.73437 0.0
C569 C 0.0601 0.02654 0.72007 0.0
C570 C 0.05958 0.02636 0.69206 0.0
C571 C 0.02038 0.00151 0.76398 0.0
C572 C 0.01424 0.04735 0.77851 0.0
C573 C 0.02529 0.95482 0.77782 0.0
C574 C 0.03253 0.90533 0.76341 0.0
C575 C 0.07528 0.89841 0.74554 0.0
C576 C 0.08153 0.85181 0.73184 0.0
C577 C 0.04549 0.81171 0.736 0.0
C578 C 0.0032 0.81808 0.75393 0.0
C579 C 0.99673 0.86464 0.76765 0.0
H580 H 0.0504 0.77566 0.72538 0.0
H581 H 0.97129 0.22574 0.85753 0.0
H582 H 0.42084 0.53347 0.62136 0.0
H583 H 0.41623 0.53548 0.67015 0.0
H584 H 0.58237 0.49537 0.67446 0.0
H585 H 0.58769 0.49409 0.62557 0.0
H586 H 0.43058 0.46238 0.70556 0.0
H587 H 0.63713 0.55107 0.72998 0.0
H588 H 0.70174 0.61113 0.71 0.0
H589 H 0.5757 0.68421 0.66701 0.0
H590 H 0.51027 0.62508 0.687 0.0
H591 H 0.50543 0.41533 0.83911 0.0
H592 H 0.50552 0.42448 0.79044 0.0
H593 H 0.4765 0.58656 0.79948 0.0
H594 H 0.4773 0.57779 0.84835 0.0
H595 H 0.55374 0.56616 0.76202 0.0
H596 H 0.37668 0.51073 0.78168 0.0
H597 H 0.30746 0.45575 0.80167 0.0
H598 H 0.36511 0.32655 0.75644 0.0
H599 H 0.43523 0.38061 0.73647 0.0
C600 C 0.45654 0.52524 0.63262 0.0
C601 C 0.50472 0.51374 0.6195 0.0
C602 C 0.45375 0.5263 0.66054 0.0
C603 C 0.49903 0.51604 0.67593 0.0
C604 C 0.54713 0.50423 0.66296 0.0
C605 C 0.55003 0.50329 0.635 0.0
C606 C 0.49553 0.51665 0.70557 0.0
C607 C 0.45749 0.48512 0.71789 0.0
C608 C 0.52997 0.54705 0.72165 0.0
C609 C 0.5689 0.58331 0.70981 0.0
C610 C 0.62318 0.5801 0.71635 0.0
C611 C 0.65995 0.61396 0.70501 0.0
C612 C 0.64286 0.65135 0.68719 0.0
C613 C 0.58892 0.6551 0.68074 0.0
C614 C 0.55199 0.62138 0.69205 0.0
C615 C 0.49944 0.45298 0.83073 0.0
C616 C 0.49135 0.49587 0.84749 0.0
C617 C 0.49912 0.45808 0.80295 0.0
C618 C 0.49058 0.50611 0.7914 0.0
C619 C 0.48304 0.54915 0.80805 0.0
C620 C 0.48311 0.54403 0.8359 0.0
C621 C 0.48957 0.51112 0.7619 0.0
C622 C 0.52678 0.54359 0.74964 0.0
C623 C 0.45373 0.48229 0.74585 0.0
C624 C 0.41151 0.44965 0.75776 0.0
C625 C 0.37488 0.47051 0.77615 0.0
C626 C 0.33543 0.43952 0.78746 0.0
C627 C 0.33197 0.38766 0.78037 0.0
C628 C 0.36788 0.36671 0.76193 0.0
C629 C 0.40746 0.39752 0.75059 0.0
H630 H 0.30138 0.36374 0.78914 0.0
H631 H 0.67139 0.67749 0.67841 0.0
H632 H 0.57153 0.56356 0.40796 0.0
H633 H 0.56745 0.56603 0.35915 0.0
H634 H 0.4426 0.45164 0.35961 0.0
H635 H 0.44898 0.4469 0.40843 0.0
H636 H 0.50275 0.43193 0.32034 0.0
H637 H 0.41967 0.58599 0.3507 0.0
H638 H 0.41102 0.66713 0.37609 0.0
H639 H 0.54604 0.72916 0.33446 0.0
H640 H 0.55595 0.64812 0.30908 0.0
H641 H 0.41103 0.4918 0.1883 0.0
H642 H 0.41331 0.49078 0.23723 0.0
H643 H 0.57253 0.55291 0.23627 0.0
H644 H 0.5722 0.55128 0.18737 0.0
H645 H 0.49134 0.59979 0.27491 0.0
H646 H 0.57155 0.4391 0.24547 0.0
H647 H 0.57169 0.35826 0.21943 0.0
H648 H 0.42885 0.30988 0.25941 0.0
H649 H 0.42742 0.39089 0.28539 0.0
C650 C 0.54339 0.5388 0.3976 0.0
C651 C 0.51033 0.50527 0.41192 0.0
C652 C 0.54077 0.5405 0.36971 0.0
C653 C 0.50368 0.51005 0.35565 0.0
C654 C 0.47139 0.47571 0.36995 0.0
C655 C 0.475 0.47302 0.39784 0.0
C656 C 0.49874 0.51394 0.32606 0.0
C657 C 0.49948 0.4687 0.31055 0.0
C658 C 0.49484 0.56186 0.31305 0.0
C659 C 0.48882 0.6108 0.32816 0.0
C660 C 0.44772 0.61682 0.34708 0.0
C661 C 0.44257 0.6628 0.36146 0.0
C662 C 0.47804 0.70323 0.35693 0.0
C663 C 0.51864 0.69779 0.33797 0.0
C664 C 0.524 0.65186 0.32356 0.0
C665 C 0.44679 0.50487 0.1984 0.0
C666 C 0.49164 0.52117 0.18374 0.0
C667 C 0.44775 0.50467 0.22636 0.0
C668 C 0.49314 0.5216 0.24018 0.0
C669 C 0.53709 0.53992 0.22583 0.0
C670 C 0.5366 0.53924 0.19786 0.0
C671 C 0.49567 0.51805 0.26963 0.0
C672 C 0.4944 0.56326 0.28496 0.0
C673 C 0.49782 0.47018 0.28251 0.0
C674 C 0.49905 0.42127 0.26714 0.0
C675 C 0.5399 0.41144 0.24852 0.0
C676 C 0.54027 0.36555 0.23381 0.0
C677 C 0.50021 0.32902 0.23771 0.0
C678 C 0.4598 0.33824 0.25639 0.0
C679 C 0.45921 0.38412 0.27112 0.0
H680 H 0.50056 0.29351 0.2263 0.0
H681 H 0.47399 0.73879 0.36809 0.0
loop_
_geom_bond_atom_site_label_1
_geom_bond_atom_site_label_2
_geom_bond_distance
_geom_bond_site_symmetry_2
_ccdc_geom_bond_type
O0 Zn1 1.953 . S
O0 C16 1.225 1_565 S
Zn1 O0 1.953 . S
Zn1 O2 1.949 1_565 S
Zn1 O8 1.919 . S
Zn1 O13 1.924 1_565 S
O2 Zn1 1.949 1_545 S
O2 Zn3 1.923 1_444 S
O2 Zn4 1.950 1_455 S
O2 Zn5 1.945 1_554 S
Zn3 O2 1.923 1_666 S
Zn3 O6 1.933 . S
Zn3 O9 1.941 1_655 S
Zn3 O10 1.966 1_556 S
Zn4 O2 1.950 1_655 S
Zn4 O11 1.938 1_545 S
Zn4 O12 1.906 . S
Zn4 O22 1.953 . S
Zn5 O2 1.945 1_556 S
Zn5 O7 1.932 . S
Zn5 O14 1.977 1_455 S
Zn5 O15 1.910 1_556 S
O6 Zn3 1.933 . S
O6 C17 1.226 1_665 S
O7 Zn5 1.932 . S
O7 C17 1.307 . S
O8 Zn1 1.919 . S
O8 C19 1.253 . S
O9 Zn3 1.941 1_455 S
O9 C19 1.283 1_556 S
O10 Zn3 1.966 1_554 S
O10 C18 1.302 . S
O11 Zn4 1.938 1_565 S
O11 C18 1.247 . S
O12 Zn4 1.906 . S
O12 C20 1.304 . S
O13 Zn1 1.924 1_545 S
O13 C21 1.311 . S
O14 Zn5 1.977 1_655 S
O14 C20 1.272 1_556 S
O15 Zn5 1.910 1_554 S
O15 C21 1.231 . S
C16 O0 1.225 1_545 S
C16 O22 1.298 1_455 S
C17 O6 1.226 1_445 S
C17 O7 1.307 . S
C18 O10 1.302 . S
C18 O11 1.247 . S
C19 O8 1.253 . S
C19 O9 1.283 1_554 S
C20 O12 1.304 . S
C20 O14 1.272 1_554 S
C21 O13 1.311 . S
C21 O15 1.231 . S
O22 Zn4 1.953 . S
O22 C16 1.298 1_655 S
O23 Zn24 1.953 . S
O23 C39 1.225 . S
Zn24 O23 1.953 . S
Zn24 O25 1.949 . S
Zn24 O31 1.919 . S
Zn24 O36 1.924 . S
O25 Zn24 1.949 . S
O25 Zn26 1.923 . S
O25 Zn27 1.950 . S
O25 Zn28 1.945 . S
Zn26 O25 1.923 . S
Zn26 O29 1.933 . S
Zn26 O32 1.941 . S
Zn26 O33 1.965 . S
Zn27 O25 1.950 . S
Zn27 O34 1.938 . S
Zn27 O35 1.906 . S
Zn27 O45 1.953 . S
Zn28 O25 1.945 . S
Zn28 O30 1.932 . S
Zn28 O37 1.977 . S
Zn28 O38 1.910 . S
O29 Zn26 1.933 . S
O29 C40 1.226 . S
O30 Zn28 1.932 . S
O30 C40 1.307 . S
O31 Zn24 1.919 . S
O31 C42 1.253 . S
O32 Zn26 1.941 . S
O32 C42 1.283 . S
O33 Zn26 1.965 . S
O33 C41 1.303 . S
O34 Zn27 1.938 . S
O34 C41 1.247 . S
O35 Zn27 1.906 . S
O35 C43 1.304 . S
O36 Zn24 1.924 . S
O36 C44 1.311 . S
O37 Zn28 1.977 . S
O37 C43 1.272 . S
O38 Zn28 1.910 . S
O38 C44 1.231 . S
C39 O23 1.225 . S
C39 O45 1.298 . S
C40 O29 1.226 . S
C40 O30 1.307 . S
C41 O33 1.303 . S
C41 O34 1.247 . S
C42 O31 1.253 . S
C42 O32 1.283 . S
C43 O35 1.304 . S
C43 O37 1.272 . S
C44 O36 1.311 . S
C44 O38 1.231 . S
O45 Zn27 1.953 . S
O45 C39 1.298 . S
H46 C49 0.931 . S
H47 C52 0.928 . S
H48 C54 0.930 1_545 S
C49 H46 0.931 . S
C49 C50 1.413 . S
C49 C51 1.357 1_545 S
C50 C49 1.413 . S
C50 C54 1.422 1_645 S
C51 C49 1.357 1_565 S
C51 C52 1.375 1_655 S
C52 H47 0.928 . S
C52 C51 1.375 1_455 S
C52 C53 1.404 . S
C53 C52 1.404 . S
C53 C54 1.398 . S
C54 H48 0.930 1_565 S
C54 C50 1.422 1_465 S
C54 C53 1.398 . S
H55 C58 0.931 . S
H56 C61 0.928 . S
H57 C63 0.930 . S
C58 H55 0.931 . S
C58 C59 1.413 . S
C58 C60 1.360 1_665 S
C59 C58 1.413 . S
C59 C63 1.429 1_665 S
C60 C58 1.360 1_445 S
C60 C61 1.372 . S
C61 H56 0.928 . S
C61 C60 1.372 . S
C61 C62 1.404 . S
C62 C61 1.404 . S
C62 C63 1.391 . S
C63 H57 0.930 . S
C63 C59 1.429 1_445 S
C63 C62 1.391 . S
H64 C67 0.931 . S
H65 C70 0.928 . S
H66 C72 0.930 . S
C67 H64 0.931 . S
C67 C68 1.413 . S
C67 C69 1.360 . S
C68 C67 1.413 . S
C68 C72 1.429 . S
C69 C67 1.360 . S
C69 C70 1.372 . S
C70 H65 0.928 . S
C70 C69 1.372 . S
C70 C71 1.404 . S
C71 C70 1.404 . S
C71 C72 1.391 . S
C72 H66 0.930 . S
C72 C68 1.429 . S
C72 C71 1.391 . S
H73 C76 0.931 . S
H74 C79 0.928 . S
H75 C81 0.930 . S
C76 H73 0.931 . S
C76 C77 1.413 . S
C76 C78 1.360 . S
C77 C76 1.413 . S
C77 C81 1.429 . S
C78 C76 1.360 . S
C78 C79 1.372 . S
C79 H74 0.928 . S
C79 C78 1.372 . S
C79 C80 1.404 . S
C80 C79 1.404 . S
C80 C81 1.391 . S
C81 H75 0.930 . S
C81 C77 1.429 . S
C81 C80 1.391 . S
H82 C100 0.951 . S
H83 C102 0.951 . S
H84 C104 0.950 . S
H85 C105 0.950 1_556 S
H86 C107 0.950 . S
H87 C110 0.950 . S
H88 C111 0.950 . S
H89 C113 0.950 . S
H90 C114 0.950 . S
H91 C115 0.951 . S
H92 C117 0.951 . S
H93 C119 0.950 . S
H94 C120 0.950 . S
H95 C122 0.950 . S
H96 C125 0.950 . S
H97 C126 0.950 . S
H98 C128 0.950 . S
H99 C129 0.950 . S
C100 H82 0.951 . S
C100 C101 1.366 . S
C100 C102 1.388 . S
C101 C100 1.366 . S
C101 C105 1.385 . S
C102 H83 0.951 . S
C102 C100 1.388 . S
C102 C103 1.366 . S
C103 C102 1.366 . S
C103 C104 1.414 . S
C103 C106 1.499 . S
C104 H84 0.950 . S
C104 C103 1.414 . S
C104 C105 1.374 . S
C105 H85 0.950 1_554 S
C105 C101 1.385 . S
C105 C104 1.374 . S
C106 C103 1.499 . S
C106 C107 1.373 . S
C106 C108 1.389 . S
C107 H86 0.950 . S
C107 C106 1.373 . S
C107 C123 1.377 . S
C108 C106 1.389 . S
C108 C109 1.524 . S
C108 C122 1.377 . S
C109 C108 1.524 . S
C109 C110 1.397 . S
C109 C114 1.363 . S
C110 H87 0.950 . S
C110 C109 1.397 . S
C110 C111 1.334 . S
C111 H88 0.950 . S
C111 C110 1.334 . S
C111 C112 1.287 . S
C112 C111 1.287 . S
C112 C113 1.524 . S
C112 H131 0.913 . S
C113 H89 0.950 . S
C113 C112 1.524 . S
C113 C114 1.415 . S
C114 H90 0.950 . S
C114 C109 1.363 . S
C114 C113 1.415 . S
C115 H91 0.951 . S
C115 C116 1.366 . S
C115 C117 1.388 . S
C116 C115 1.366 . S
C116 C120 1.385 . S
C117 H92 0.951 . S
C117 C115 1.388 . S
C117 C118 1.366 . S
C118 C117 1.366 . S
C118 C119 1.414 . S
C118 C121 1.499 . S
C119 H93 0.950 . S
C119 C118 1.414 . S
C119 C120 1.374 . S
C120 H94 0.950 . S
C120 C116 1.385 . S
C120 C119 1.374 . S
C121 C118 1.499 . S
C121 C122 1.373 . S
C121 C123 1.389 . S
C122 H95 0.950 . S
C122 C108 1.377 . S
C122 C121 1.373 . S
C123 C107 1.377 . S
C123 C121 1.389 . S
C123 C124 1.524 . S
C124 C123 1.524 . S
C124 C125 1.397 . S
C124 C129 1.363 . S
C125 H96 0.950 . S
C125 C124 1.397 . S
C125 C126 1.334 . S
C126 H97 0.950 . S
C126 C125 1.334 . S
C126 C127 1.287 . S
C127 C126 1.287 . S
C127 C128 1.524 1_554 S
C127 H130 0.999 . S
C128 H98 0.950 . S
C128 C127 1.524 1_556 S
C128 C129 1.415 1_556 S
C129 H99 0.950 . S
C129 C124 1.363 . S
C129 C128 1.415 1_554 S
H130 C127 0.999 . S
H131 C112 0.913 . S
H132 C150 0.951 . S
H133 C152 0.951 . S
H134 C154 0.950 . S
H135 C155 0.950 . S
H136 C157 0.950 . S
H137 C160 0.950 . S
H138 C161 0.950 . S
H139 C163 0.950 . S
H140 C164 0.950 . S
H141 C165 0.951 . S
H142 C167 0.951 . S
H143 C169 0.950 . S
H144 C170 0.950 . S
H145 C172 0.950 . S
H146 C175 0.950 . S
H147 C176 0.950 . S
H148 C178 0.950 . S
H149 C179 0.950 . S
C150 H132 0.951 . S
C150 C151 1.366 . S
C150 C152 1.388 . S
C151 C150 1.366 . S
C151 C155 1.385 1_556 S
C152 H133 0.951 . S
C152 C150 1.388 . S
C152 C153 1.366 . S
C153 C152 1.366 . S
C153 C154 1.414 1_556 S
C153 C156 1.499 . S
C154 H134 0.950 . S
C154 C153 1.414 1_554 S
C154 C155 1.374 . S
C155 H135 0.950 . S
C155 C151 1.385 1_554 S
C155 C154 1.374 . S
C156 C153 1.499 . S
C156 C157 1.373 . S
C156 C158 1.389 . S
C157 H136 0.950 . S
C157 C156 1.373 . S
C157 C173 1.377 . S
C158 C156 1.389 . S
C158 C159 1.524 . S
C158 C172 1.377 . S
C159 C158 1.524 . S
C159 C160 1.397 . S
C159 C164 1.363 . S
C160 H137 0.950 . S
C160 C159 1.397 . S
C160 C161 1.334 . S
C161 H138 0.950 . S
C161 C160 1.334 . S
C161 C162 1.287 . S
C162 C161 1.287 . S
C162 C163 1.524 . S
C162 H181 0.913 . S
C163 H139 0.950 . S
C163 C162 1.524 . S
C163 C164 1.415 . S
C164 H140 0.950 . S
C164 C159 1.363 . S
C164 C163 1.415 . S
C165 H141 0.951 . S
C165 C166 1.366 . S
C165 C167 1.388 . S
C166 C165 1.366 . S
C166 C170 1.385 . S
C167 H142 0.951 . S
C167 C165 1.388 . S
C167 C168 1.366 . S
C168 C167 1.366 . S
C168 C169 1.414 . S
C168 C171 1.499 . S
C169 H143 0.950 . S
C169 C168 1.414 . S
C169 C170 1.374 . S
C170 H144 0.950 . S
C170 C166 1.385 . S
C170 C169 1.374 . S
C171 C168 1.499 . S
C171 C172 1.373 . S
C171 C173 1.389 . S
C172 H145 0.950 . S
C172 C158 1.377 . S
C172 C171 1.373 . S
C173 C157 1.377 . S
C173 C171 1.389 . S
C173 C174 1.524 . S
C174 C173 1.524 . S
C174 C175 1.397 . S
C174 C179 1.363 1_556 S
C175 H146 0.950 . S
C175 C174 1.397 . S
C175 C176 1.334 . S
C176 H147 0.950 . S
C176 C175 1.334 . S
C176 C177 1.287 . S
C177 C176 1.287 . S
C177 C178 1.524 1_556 S
C177 H180 0.999 . S
C178 H148 0.950 . S
C178 C177 1.524 1_554 S
C178 C179 1.415 . S
C179 H149 0.950 . S
C179 C174 1.363 1_554 S
C179 C178 1.415 . S
H180 C177 0.999 . S
H181 C162 0.913 . S
H182 C200 0.951 . S
H183 C202 0.951 . S
H184 C204 0.950 . S
H185 C205 0.950 . S
H186 C207 0.950 . S
H187 C210 0.950 . S
H188 C211 0.950 1_556 S
H189 C213 0.950 . S
H190 C214 0.950 . S
H191 C215 0.951 . S
H192 C217 0.951 . S
H193 C219 0.950 . S
H194 C220 0.950 . S
H195 C222 0.950 . S
H196 C225 0.950 . S
H197 C226 0.950 . S
H198 C228 0.950 . S
H199 C229 0.950 . S
C200 H182 0.951 . S
C200 C201 1.366 . S
C200 C202 1.388 . S
C201 C200 1.366 . S
C201 C205 1.385 . S
C202 H183 0.951 . S
C202 C200 1.388 . S
C202 C203 1.366 . S
C203 C202 1.366 . S
C203 C204 1.414 . S
C203 C206 1.499 . S
C204 H184 0.950 . S
C204 C203 1.414 . S
C204 C205 1.374 . S
C205 H185 0.950 . S
C205 C201 1.385 . S
C205 C204 1.374 . S
C206 C203 1.499 . S
C206 C207 1.373 . S
C206 C208 1.389 . S
C207 H186 0.950 . S
C207 C206 1.373 . S
C207 C223 1.377 . S
C208 C206 1.389 . S
C208 C209 1.524 . S
C208 C222 1.377 . S
C209 C208 1.524 . S
C209 C210 1.397 . S
C209 C214 1.363 . S
C210 H187 0.950 . S
C210 C209 1.397 . S
C210 C211 1.334 . S
C211 H188 0.950 1_554 S
C211 C210 1.334 . S
C211 C212 1.287 . S
C212 C211 1.287 . S
C212 C213 1.524 . S
C212 H231 0.913 . S
C213 H189 0.950 . S
C213 C212 1.524 . S
C213 C214 1.415 . S
C214 H190 0.950 . S
C214 C209 1.363 . S
C214 C213 1.415 . S
C215 H191 0.951 . S
C215 C216 1.366 . S
C215 C217 1.388 . S
C216 C215 1.366 . S
C216 C220 1.385 . S
C217 H192 0.951 . S
C217 C215 1.388 . S
C217 C218 1.366 . S
C218 C217 1.366 . S
C218 C219 1.414 . S
C218 C221 1.499 . S
C219 H193 0.950 . S
C219 C218 1.414 . S
C219 C220 1.374 . S
C220 H194 0.950 . S
C220 C216 1.385 . S
C220 C219 1.374 . S
C221 C218 1.499 . S
C221 C222 1.373 . S
C221 C223 1.389 . S
C222 H195 0.950 . S
C222 C208 1.377 . S
C222 C221 1.373 . S
C223 C207 1.377 . S
C223 C221 1.389 . S
C223 C224 1.524 . S
C224 C223 1.524 . S
C224 C225 1.397 . S
C224 C229 1.363 . S
C225 H196 0.950 . S
C225 C224 1.397 . S
C225 C226 1.334 . S
C226 H197 0.950 . S
C226 C225 1.334 . S
C226 C227 1.287 . S
C227 C226 1.287 . S
C227 C228 1.524 . S
C227 H230 0.999 . S
C228 H198 0.950 . S
C228 C227 1.524 . S
C228 C229 1.415 . S
C229 H199 0.950 . S
C229 C224 1.363 . S
C229 C228 1.415 . S
H230 C227 0.999 . S
H231 C212 0.913 . S
H232 C250 0.951 . S
H233 C252 0.951 . S
H234 C254 0.949 1_554 S
H235 C255 0.950 . S
H236 C257 0.950 . S
H237 C260 0.966 . S
H238 C261 0.950 . S
H239 C263 0.950 . S
H240 C264 0.950 . S
H241 C265 0.951 . S
H242 C267 0.951 . S
H243 C269 0.950 . S
H244 C270 0.950 . S
H245 C272 0.950 . S
H246 C275 0.950 . S
H247 C276 0.950 . S
H248 C278 0.950 . S
H249 C279 0.950 . S
C250 H232 0.951 . S
C250 C251 1.366 . S
C250 C252 1.388 . S
C251 C250 1.366 . S
C251 C255 1.385 1_556 S
C252 H233 0.951 . S
C252 C250 1.388 . S
C252 C253 1.366 . S
C253 C252 1.366 . S
C253 C254 1.417 . S
C253 C256 1.499 . S
C254 H234 0.949 1_556 S
C254 C253 1.417 . S
C254 C255 1.373 1_556 S
C255 H235 0.950 . S
C255 C251 1.385 1_554 S
C255 C254 1.373 1_554 S
C256 C253 1.499 . S
C256 C257 1.373 . S
C256 C258 1.389 . S
C257 H236 0.950 . S
C257 C256 1.373 . S
C257 C273 1.377 . S
C258 C256 1.389 . S
C258 C259 1.524 . S
C258 C272 1.377 . S
C259 C258 1.524 . S
C259 C260 1.372 1_556 S
C259 C264 1.363 . S
C260 H237 0.966 . S
C260 C259 1.372 1_554 S
C260 C261 1.343 . S
C261 H238 0.950 . S
C261 C260 1.343 . S
C261 C262 1.287 1_554 S
C262 C261 1.287 1_556 S
C262 C263 1.524 . S
C262 H281 0.913 . S
C263 H239 0.950 . S
C263 C262 1.524 . S
C263 C264 1.415 . S
C264 H240 0.950 . S
C264 C259 1.363 . S
C264 C263 1.415 . S
C265 H241 0.951 . S
C265 C266 1.366 . S
C265 C267 1.388 . S
C266 C265 1.366 . S
C266 C270 1.385 . S
C267 H242 0.951 . S
C267 C265 1.388 . S
C267 C268 1.366 . S
C268 C267 1.366 . S
C268 C269 1.414 . S
C268 C271 1.499 . S
C269 H243 0.950 . S
C269 C268 1.414 . S
C269 C270 1.374 . S
C270 H244 0.950 . S
C270 C266 1.385 . S
C270 C269 1.374 . S
C271 C268 1.499 . S
C271 C272 1.373 . S
C271 C273 1.389 . S
C272 H245 0.950 . S
C272 C258 1.377 . S
C272 C271 1.373 . S
C273 C257 1.377 . S
C273 C271 1.389 . S
C273 C274 1.524 . S
C274 C273 1.524 . S
C274 C275 1.397 . S
C274 C279 1.363 . S
C275 H246 0.950 . S
C275 C274 1.397 . S
C275 C276 1.334 . S
C276 H247 0.950 . S
C276 C275 1.334 . S
C276 C277 1.287 . S
C277 C276 1.287 . S
C277 C278 1.524 . S
C277 H280 0.999 . S
C278 H248 0.950 . S
C278 C277 1.524 . S
C278 C279 1.415 . S
C279 H249 0.950 . S
C279 C274 1.363 . S
C279 C278 1.415 . S
H280 C277 0.999 . S
H281 C262 0.913 . S
H282 C300 0.951 . S
H283 C302 0.951 . S
H284 C304 0.950 . S
H285 C305 0.950 . S
H286 C307 0.950 . S
H287 C310 0.950 . S
H288 C311 0.950 . S
H289 C313 0.950 . S
H290 C314 0.950 . S
H291 C315 0.951 . S
H292 C317 0.951 . S
H293 C319 0.950 . S
H294 C320 0.950 . S
H295 C322 0.950 . S
H296 C325 0.950 . S
H297 C326 0.950 1_545 S
H298 C328 0.950 . S
H299 C329 0.950 . S
C300 H282 0.951 . S
C300 C301 1.366 . S
C300 C302 1.388 . S
C301 C300 1.366 . S
C301 C305 1.385 . S
C302 H283 0.951 . S
C302 C300 1.388 . S
C302 C303 1.366 . S
C303 C302 1.366 . S
C303 C304 1.414 . S
C303 C306 1.499 . S
C304 H284 0.950 . S
C304 C303 1.414 . S
C304 C305 1.374 . S
C305 H285 0.950 . S
C305 C301 1.385 . S
C305 C304 1.374 . S
C306 C303 1.499 . S
C306 C307 1.373 . S
C306 C308 1.389 . S
C307 H286 0.950 . S
C307 C306 1.373 . S
C307 C323 1.377 . S
C308 C306 1.389 . S
C308 C309 1.524 . S
C308 C322 1.377 . S
C309 C308 1.524 . S
C309 C310 1.397 . S
C309 C314 1.363 . S
C310 H287 0.950 . S
C310 C309 1.397 . S
C310 C311 1.334 . S
C311 H288 0.950 . S
C311 C310 1.334 . S
C311 C312 1.287 . S
C312 C311 1.287 . S
C312 C313 1.524 . S
C312 H331 0.913 . S
C313 H289 0.950 . S
C313 C312 1.524 . S
C313 C314 1.415 . S
C314 H290 0.950 . S
C314 C309 1.363 . S
C314 C313 1.415 . S
C315 H291 0.951 . S
C315 C316 1.366 . S
C315 C317 1.388 . S
C316 C315 1.366 . S
C316 C320 1.385 . S
C317 H292 0.951 . S
C317 C315 1.388 . S
C317 C318 1.366 . S
C318 C317 1.366 . S
C318 C319 1.414 . S
C318 C321 1.499 . S
C319 H293 0.950 . S
C319 C318 1.414 . S
C319 C320 1.374 . S
C320 H294 0.950 . S
C320 C316 1.385 . S
C320 C319 1.374 . S
C321 C318 1.499 . S
C321 C322 1.373 . S
C321 C323 1.389 . S
C322 H295 0.950 . S
C322 C308 1.377 . S
C322 C321 1.373 . S
C323 C307 1.377 . S
C323 C321 1.389 . S
C323 C324 1.524 . S
C324 C323 1.524 . S
C324 C325 1.397 . S
C324 C329 1.363 . S
C325 H296 0.950 . S
C325 C324 1.397 . S
C325 C326 1.334 . S
C326 H297 0.950 1_565 S
C326 C325 1.334 . S
C326 C327 1.287 . S
C327 C326 1.287 . S
C327 C328 1.524 . S
C327 H330 0.999 1_565 S
C328 H298 0.950 . S
C328 C327 1.524 . S
C328 C329 1.415 . S
C329 H299 0.950 . S
C329 C324 1.363 . S
C329 C328 1.415 . S
H330 C327 0.999 1_545 S
H331 C312 0.913 . S
H332 C350 0.951 . S
H333 C352 0.951 . S
H334 C354 0.950 . S
H335 C355 0.950 . S
H336 C357 0.950 . S
H337 C360 0.950 . S
H338 C361 0.950 . S
H339 C363 0.950 . S
H340 C364 0.950 . S
H341 C365 0.951 . S
H342 C367 0.951 . S
H343 C369 0.950 . S
H344 C370 0.950 . S
H345 C372 0.950 . S
H346 C375 0.950 . S
H347 C376 0.950 . S
H348 C378 0.950 . S
H349 C379 0.950 . S
C350 H332 0.951 . S
C350 C351 1.366 . S
C350 C352 1.388 . S
C351 C350 1.366 . S
C351 C355 1.385 . S
C352 H333 0.951 . S
C352 C350 1.388 . S
C352 C353 1.366 . S
C353 C352 1.366 . S
C353 C354 1.414 . S
C353 C356 1.499 . S
C354 H334 0.950 . S
C354 C353 1.414 . S
C354 C355 1.374 . S
C355 H335 0.950 . S
C355 C351 1.385 . S
C355 C354 1.374 . S
C356 C353 1.499 . S
C356 C357 1.373 . S
C356 C358 1.389 . S
C357 H336 0.950 . S
C357 C356 1.373 . S
C357 C373 1.377 . S
C358 C356 1.389 . S
C358 C359 1.524 . S
C358 C372 1.377 . S
C359 C358 1.524 . S
C359 C360 1.397 . S
C359 C364 1.363 . S
C360 H337 0.950 . S
C360 C359 1.397 . S
C360 C361 1.334 . S
C361 H338 0.950 . S
C361 C360 1.334 . S
C361 C362 1.287 . S
C362 C361 1.287 . S
C362 C363 1.524 . S
C362 H381 0.913 . S
C363 H339 0.950 . S
C363 C362 1.524 . S
C363 C364 1.415 . S
C364 H340 0.950 . S
C364 C359 1.363 . S
C364 C363 1.415 . S
C365 H341 0.951 . S
C365 C366 1.366 . S
C365 C367 1.388 . S
C366 C365 1.366 . S
C366 C370 1.385 . S
C367 H342 0.951 . S
C367 C365 1.388 . S
C367 C368 1.366 . S
C368 C367 1.366 . S
C368 C369 1.414 . S
C368 C371 1.499 . S
C369 H343 0.950 . S
C369 C368 1.414 . S
C369 C370 1.374 . S
C370 H344 0.950 . S
C370 C366 1.385 . S
C370 C369 1.374 . S
C371 C368 1.499 . S
C371 C372 1.373 . S
C371 C373 1.389 . S
C372 H345 0.950 . S
C372 C358 1.377 . S
C372 C371 1.373 . S
C373 C357 1.377 . S
C373 C371 1.389 . S
C373 C374 1.524 . S
C374 C373 1.524 . S
C374 C375 1.397 . S
C374 C379 1.363 . S
C375 H346 0.950 . S
C375 C374 1.397 . S
C375 C376 1.334 . S
C376 H347 0.950 . S
C376 C375 1.334 . S
C376 C377 1.287 . S
C377 C376 1.287 . S
C377 C378 1.524 . S
C377 H380 0.999 . S
C378 H348 0.950 . S
C378 C377 1.524 . S
C378 C379 1.415 . S
C379 H349 0.950 . S
C379 C374 1.363 . S
C379 C378 1.415 . S
H380 C377 0.999 . S
H381 C362 0.913 . S
H382 C400 0.951 . S
H383 C402 0.951 . S
H384 C404 0.950 . S
H385 C405 0.950 . S
H386 C407 0.950 . S
H387 C410 0.950 . S
H388 C411 0.950 . S
H389 C413 0.950 . S
H390 C414 0.950 . S
H391 C415 0.951 . S
H392 C417 0.951 . S
H393 C419 0.950 . S
H394 C420 0.950 . S
H395 C422 0.950 . S
H396 C425 0.950 . S
H397 C426 0.950 . S
H398 C428 0.950 . S
H399 C429 0.950 . S
C400 H382 0.951 . S
C400 C401 1.366 . S
C400 C402 1.388 . S
C401 C400 1.366 . S
C401 C405 1.385 . S
C402 H383 0.951 . S
C402 C400 1.388 . S
C402 C403 1.366 . S
C403 C402 1.366 . S
C403 C404 1.414 . S
C403 C406 1.499 . S
C404 H384 0.950 . S
C404 C403 1.414 . S
C404 C405 1.374 . S
C405 H385 0.950 . S
C405 C401 1.385 . S
C405 C404 1.374 . S
C406 C403 1.499 . S
C406 C407 1.373 . S
C406 C408 1.389 . S
C407 H386 0.950 . S
C407 C406 1.373 . S
C407 C423 1.377 . S
C408 C406 1.389 . S
C408 C409 1.524 . S
C408 C422 1.377 . S
C409 C408 1.524 . S
C409 C410 1.397 . S
C409 C414 1.363 . S
C410 H387 0.950 . S
C410 C409 1.397 . S
C410 C411 1.334 . S
C411 H388 0.950 . S
C411 C410 1.334 . S
C411 C412 1.287 . S
C412 C411 1.287 . S
C412 C413 1.524 . S
C412 H431 0.913 . S
C413 H389 0.950 . S
C413 C412 1.524 . S
C413 C414 1.415 . S
C414 H390 0.950 . S
C414 C409 1.363 . S
C414 C413 1.415 . S
C415 H391 0.951 . S
C415 C416 1.366 . S
C415 C417 1.388 . S
C416 C415 1.366 . S
C416 C420 1.385 . S
C417 H392 0.951 . S
C417 C415 1.388 . S
C417 C418 1.366 . S
C418 C417 1.366 . S
C418 C419 1.414 . S
C418 C421 1.499 . S
C419 H393 0.950 . S
C419 C418 1.414 . S
C419 C420 1.374 . S
C420 H394 0.950 . S
C420 C416 1.385 . S
C420 C419 1.374 . S
C421 C418 1.499 . S
C421 C422 1.373 . S
C421 C423 1.389 . S
C422 H395 0.950 . S
C422 C408 1.377 . S
C422 C421 1.373 . S
C423 C407 1.377 . S
C423 C421 1.389 . S
C423 C424 1.524 . S
C424 C423 1.524 . S
C424 C425 1.397 . S
C424 C429 1.363 . S
C425 H396 0.950 . S
C425 C424 1.397 . S
C425 C426 1.334 . S
C426 H397 0.950 . S
C426 C425 1.334 . S
C426 C427 1.287 . S
C427 C426 1.287 . S
C427 C428 1.524 . S
C427 H430 0.999 . S
C428 H398 0.950 . S
C428 C427 1.524 . S
C428 C429 1.415 . S
C429 H399 0.950 . S
C429 C424 1.363 . S
C429 C428 1.415 . S
H430 C427 0.999 . S
H431 C412 0.913 . S
H432 C450 0.951 . S
H433 C452 0.951 . S
H434 C454 0.950 . S
H435 C455 0.950 . S
H436 C457 0.950 . S
H437 C460 0.950 . S
H438 C461 0.950 . S
H439 C463 0.950 . S
H440 C464 0.950 . S
H441 C465 0.951 . S
H442 C467 0.951 . S
H443 C469 0.950 . S
H444 C470 0.950 . S
H445 C472 0.950 . S
H446 C475 0.950 . S
H447 C476 0.950 1_655 S
H448 C478 0.950 . S
H449 C479 0.950 . S
C450 H432 0.951 . S
C450 C451 1.366 . S
C450 C452 1.388 . S
C451 C450 1.366 . S
C451 C455 1.385 . S
C452 H433 0.951 . S
C452 C450 1.388 . S
C452 C453 1.366 . S
C453 C452 1.366 . S
C453 C454 1.414 . S
C453 C456 1.499 . S
C454 H434 0.950 . S
C454 C453 1.414 . S
C454 C455 1.374 . S
C455 H435 0.950 . S
C455 C451 1.385 . S
C455 C454 1.374 . S
C456 C453 1.499 . S
C456 C457 1.373 . S
C456 C458 1.389 . S
C457 H436 0.950 . S
C457 C456 1.373 . S
C457 C473 1.377 . S
C458 C456 1.389 . S
C458 C459 1.524 . S
C458 C472 1.377 . S
C459 C458 1.524 . S
C459 C460 1.397 . S
C459 C464 1.363 . S
C460 H437 0.950 . S
C460 C459 1.397 . S
C460 C461 1.334 . S
C461 H438 0.950 . S
C461 C460 1.334 . S
C461 C462 1.287 . S
C462 C461 1.287 . S
C462 C463 1.524 . S
C462 H481 0.913 . S
C463 H439 0.950 . S
C463 C462 1.524 . S
C463 C464 1.415 . S
C464 H440 0.950 . S
C464 C459 1.363 . S
C464 C463 1.415 . S
C465 H441 0.951 . S
C465 C466 1.366 . S
C465 C467 1.388 . S
C466 C465 1.366 . S
C466 C470 1.385 . S
C467 H442 0.951 . S
C467 C465 1.388 . S
C467 C468 1.366 . S
C468 C467 1.366 . S
C468 C469 1.414 . S
C468 C471 1.499 . S
C469 H443 0.950 . S
C469 C468 1.414 . S
C469 C470 1.374 . S
C470 H444 0.950 . S
C470 C466 1.385 . S
C470 C469 1.374 . S
C471 C468 1.499 . S
C471 C472 1.373 . S
C471 C473 1.389 . S
C472 H445 0.950 . S
C472 C458 1.377 . S
C472 C471 1.373 . S
C473 C457 1.377 . S
C473 C471 1.389 . S
C473 C474 1.524 . S
C474 C473 1.524 . S
C474 C475 1.397 . S
C474 C479 1.363 . S
C475 H446 0.950 . S
C475 C474 1.397 . S
C475 C476 1.334 . S
C476 H447 0.950 1_455 S
C476 C475 1.334 . S
C476 C477 1.287 . S
C477 C476 1.287 . S
C477 C478 1.524 . S
C477 H480 0.999 1_455 S
C478 H448 0.950 . S
C478 C477 1.524 . S
C478 C479 1.415 . S
C479 H449 0.950 . S
C479 C474 1.363 . S
C479 C478 1.415 . S
H480 C477 0.999 1_655 S
H481 C462 0.913 . S
H482 C500 0.951 . S
H483 C502 0.951 . S
H484 C504 0.950 . S
H485 C505 0.950 . S
H486 C507 0.950 . S
H487 C510 0.950 . S
H488 C511 0.950 . S
H489 C513 0.950 . S
H490 C514 0.950 . S
H491 C515 0.951 . S
H492 C517 0.951 . S
H493 C519 0.950 . S
H494 C520 0.950 . S
H495 C522 0.950 . S
H496 C525 0.950 . S
H497 C526 0.950 . S
H498 C528 0.950 . S
H499 C529 0.950 . S
C500 H482 0.951 . S
C500 C501 1.366 1_565 S
C500 C502 1.388 . S
C501 C500 1.366 1_545 S
C501 C505 1.385 1_455 S
C502 H483 0.951 . S
C502 C500 1.388 . S
C502 C503 1.366 1_565 S
C503 C502 1.366 1_545 S
C503 C504 1.414 1_455 S
C503 C506 1.499 . S
C504 H484 0.950 . S
C504 C503 1.414 1_655 S
C504 C505 1.374 . S
C505 H485 0.950 . S
C505 C501 1.385 1_655 S
C505 C504 1.374 . S
C506 C503 1.499 . S
C506 C507 1.373 1_455 S
C506 C508 1.389 1_545 S
C507 H486 0.950 . S
C507 C506 1.373 1_655 S
C507 C523 1.377 . S
C508 C506 1.389 1_565 S
C508 C509 1.524 . S
C508 C522 1.377 . S
C509 C508 1.524 . S
C509 C510 1.397 1_455 S
C509 C514 1.363 . S
C510 H487 0.950 . S
C510 C509 1.397 1_655 S
C510 C511 1.334 . S
C511 H488 0.950 . S
C511 C510 1.334 . S
C511 C512 1.287 1_655 S
C512 C511 1.287 1_455 S
C512 C513 1.524 . S
C512 H531 0.913 . S
C513 H489 0.950 . S
C513 C512 1.524 . S
C513 C514 1.415 . S
C514 H490 0.950 . S
C514 C509 1.363 . S
C514 C513 1.415 . S
C515 H491 0.951 . S
C515 C516 1.366 1_655 S
C515 C517 1.388 . S
C516 C515 1.366 1_455 S
C516 C520 1.385 1_545 S
C517 H492 0.951 . S
C517 C515 1.388 . S
C517 C518 1.366 1_655 S
C518 C517 1.366 1_455 S
C518 C519 1.414 1_545 S
C518 C521 1.499 . S
C519 H493 0.950 . S
C519 C518 1.414 1_565 S
C519 C520 1.374 . S
C520 H494 0.950 . S
C520 C516 1.385 1_565 S
C520 C519 1.374 . S
C521 C518 1.499 . S
C521 C522 1.373 1_545 S
C521 C523 1.389 1_455 S
C522 H495 0.950 . S
C522 C508 1.377 . S
C522 C521 1.373 1_565 S
C523 C507 1.377 . S
C523 C521 1.389 1_655 S
C523 C524 1.524 . S
C524 C523 1.524 . S
C524 C525 1.397 1_655 S
C524 C529 1.363 . S
C525 H496 0.950 . S
C525 C524 1.397 1_455 S
C525 C526 1.334 . S
C526 H497 0.950 . S
C526 C525 1.334 . S
C526 C527 1.287 1_455 S
C527 C526 1.287 1_655 S
C527 C528 1.524 . S
C527 H530 0.999 . S
C528 H498 0.950 . S
C528 C527 1.524 . S
C528 C529 1.415 . S
C529 H499 0.950 . S
C529 C524 1.363 . S
C529 C528 1.415 . S
H530 C527 0.999 . S
H531 C512 0.913 . S
H532 C550 0.951 . S
H533 C552 0.951 . S
H534 C554 0.950 . S
H535 C555 0.950 . S
H536 C557 0.950 . S
H537 C560 0.950 . S
H538 C561 0.950 . S
H539 C563 0.950 . S
H540 C564 0.950 . S
H541 C565 0.951 . S
H542 C567 0.951 . S
H543 C569 0.950 . S
H544 C570 0.950 . S
H545 C572 0.950 . S
H546 C575 0.950 . S
H547 C576 0.950 . S
H548 C578 0.950 1_655 S
H549 C579 0.950 1_655 S
C550 H532 0.951 . S
C550 C551 1.366 . S
C550 C552 1.388 . S
C551 C550 1.366 . S
C551 C555 1.385 1_445 S
C552 H533 0.951 . S
C552 C550 1.388 . S
C552 C553 1.366 . S
C553 C552 1.366 . S
C553 C554 1.414 1_445 S
C553 C556 1.499 . S
C554 H534 0.950 . S
C554 C553 1.414 1_665 S
C554 C555 1.374 . S
C555 H535 0.950 . S
C555 C551 1.385 1_665 S
C555 C554 1.374 . S
C556 C553 1.499 . S
C556 C557 1.373 1_545 S
C556 C558 1.389 . S
C557 H536 0.950 . S
C557 C556 1.373 1_565 S
C557 C573 1.377 . S
C558 C556 1.389 . S
C558 C559 1.524 1_455 S
C558 C572 1.377 . S
C559 C558 1.524 1_655 S
C559 C560 1.397 . S
C559 C564 1.363 1_655 S
C560 H537 0.950 . S
C560 C559 1.397 . S
C560 C561 1.334 . S
C561 H538 0.950 . S
C561 C560 1.334 . S
C561 C562 1.287 . S
C562 C561 1.287 . S
C562 C563 1.524 1_655 S
C562 H581 0.913 . S
C563 H539 0.950 . S
C563 C562 1.524 1_455 S
C563 C564 1.415 . S
C564 H540 0.950 . S
C564 C559 1.363 1_455 S
C564 C563 1.415 . S
C565 H541 0.951 . S
C565 C566 1.366 1_665 S
C565 C567 1.388 . S
C566 C565 1.366 1_445 S
C566 C570 1.385 . S
C567 H542 0.951 . S
C567 C565 1.388 . S
C567 C568 1.366 1_665 S
C568 C567 1.366 1_445 S
C568 C569 1.414 . S
C568 C571 1.499 . S
C569 H543 0.950 . S
C569 C568 1.414 . S
C569 C570 1.374 . S
C570 H544 0.950 . S
C570 C566 1.385 . S
C570 C569 1.374 . S
C571 C568 1.499 . S
C571 C572 1.373 . S
C571 C573 1.389 1_545 S
C572 H545 0.950 . S
C572 C558 1.377 . S
C572 C571 1.373 . S
C573 C557 1.377 . S
C573 C571 1.389 1_565 S
C573 C574 1.524 . S
C574 C573 1.524 . S
C574 C575 1.397 . S
C574 C579 1.363 . S
C575 H546 0.950 . S
C575 C574 1.397 . S
C575 C576 1.334 . S
C576 H547 0.950 . S
C576 C575 1.334 . S
C576 C577 1.287 . S
C577 C576 1.287 . S
C577 C578 1.524 . S
C577 H580 0.999 . S
C578 H548 0.950 1_455 S
C578 C577 1.524 . S
C578 C579 1.415 . S
C579 H549 0.950 1_455 S
C579 C574 1.363 . S
C579 C578 1.415 . S
H580 C577 0.999 . S
H581 C562 0.913 . S
H582 C600 0.951 . S
H583 C602 0.951 . S
H584 C604 0.950 . S
H585 C605 0.950 . S
H586 C607 0.950 . S
H587 C610 0.950 . S
H588 C611 0.950 . S
H589 C613 0.950 . S
H590 C614 0.950 . S
H591 C615 0.951 . S
H592 C617 0.951 . S
H593 C619 0.950 . S
H594 C620 0.950 . S
H595 C622 0.950 . S
H596 C625 0.950 . S
H597 C626 0.950 . S
H598 C628 0.950 . S
H599 C629 0.950 . S
C600 H582 0.951 . S
C600 C601 1.366 . S
C600 C602 1.388 . S
C601 C600 1.366 . S
C601 C605 1.385 . S
C602 H583 0.951 . S
C602 C600 1.388 . S
C602 C603 1.366 . S
C603 C602 1.366 . S
C603 C604 1.414 . S
C603 C606 1.499 . S
C604 H584 0.950 . S
C604 C603 1.414 . S
C604 C605 1.374 . S
C605 H585 0.950 . S
C605 C601 1.385 . S
C605 C604 1.374 . S
C606 C603 1.499 . S
C606 C607 1.373 . S
C606 C608 1.389 . S
C607 H586 0.950 . S
C607 C606 1.373 . S
C607 C623 1.377 . S
C608 C606 1.389 . S
C608 C609 1.524 . S
C608 C622 1.377 . S
C609 C608 1.524 . S
C609 C610 1.397 . S
C609 C614 1.363 . S
C610 H587 0.950 . S
C610 C609 1.397 . S
C610 C611 1.334 . S
C611 H588 0.950 . S
C611 C610 1.334 . S
C611 C612 1.287 . S
C612 C611 1.287 . S
C612 C613 1.524 . S
C612 H631 0.913 . S
C613 H589 0.950 . S
C613 C612 1.524 . S
C613 C614 1.415 . S
C614 H590 0.950 . S
C614 C609 1.363 . S
C614 C613 1.415 . S
C615 H591 0.951 . S
C615 C616 1.366 . S
C615 C617 1.388 . S
C616 C615 1.366 . S
C616 C620 1.385 . S
C617 H592 0.951 . S
C617 C615 1.388 . S
C617 C618 1.366 . S
C618 C617 1.366 . S
C618 C619 1.414 . S
C618 C621 1.499 . S
C619 H593 0.950 . S
C619 C618 1.414 . S
C619 C620 1.374 . S
C620 H594 0.950 . S
C620 C616 1.385 . S
C620 C619 1.374 . S
C621 C618 1.499 . S
C621 C622 1.373 . S
C621 C623 1.389 . S
C622 H595 0.950 . S
C622 C608 1.377 . S
C622 C621 1.373 . S
C623 C607 1.377 . S
C623 C621 1.389 . S
C623 C624 1.524 . S
C624 C623 1.524 . S
C624 C625 1.397 . S
C624 C629 1.363 . S
C625 H596 0.950 . S
C625 C624 1.397 . S
C625 C626 1.334 . S
C626 H597 0.950 . S
C626 C625 1.334 . S
C626 C627 1.287 . S
C627 C626 1.287 . S
C627 C628 1.524 . S
C627 H630 0.999 . S
C628 H598 0.950 . S
C628 C627 1.524 . S
C628 C629 1.415 . S
C629 H599 0.950 . S
C629 C624 1.363 . S
C629 C628 1.415 . S
H630 C627 0.999 . S
H631 C612 0.913 . S
H632 C650 0.951 . S
H633 C652 0.951 . S
H634 C654 0.950 . S
H635 C655 0.950 . S
H636 C657 0.950 . S
H637 C660 0.950 . S
H638 C661 0.950 . S
H639 C663 0.950 . S
H640 C664 0.950 . S
H641 C665 0.951 . S
H642 C667 0.951 . S
H643 C669 0.950 . S
H644 C670 0.950 . S
H645 C672 0.950 . S
H646 C675 0.950 . S
H647 C676 0.950 . S
H648 C678 0.950 . S
H649 C679 0.950 . S
C650 H632 0.951 . S
C650 C651 1.366 . S
C650 C652 1.388 . S
C651 C650 1.366 . S
C651 C655 1.385 . S
C652 H633 0.951 . S
C652 C650 1.388 . S
C652 C653 1.366 . S
C653 C652 1.366 . S
C653 C654 1.414 . S
C653 C656 1.499 . S
C654 H634 0.950 . S
C654 C653 1.414 . S
C654 C655 1.374 . S
C655 H635 0.950 . S
C655 C651 1.385 . S
C655 C654 1.374 . S
C656 C653 1.499 . S
C656 C657 1.373 . S
C656 C658 1.389 . S
C657 H636 0.950 . S
C657 C656 1.373 . S
C657 C673 1.377 . S
C658 C656 1.389 . S
C658 C659 1.524 . S
C658 C672 1.377 . S
C659 C658 1.524 . S
C659 C660 1.397 . S
C659 C664 1.363 . S
C660 H637 0.950 . S
C660 C659 1.397 . S
C660 C661 1.334 . S
C661 H638 0.950 . S
C661 C660 1.334 . S
C661 C662 1.287 . S
C662 C661 1.287 . S
C662 C663 1.524 . S
C662 H681 0.913 . S
C663 H639 0.950 . S
C663 C662 1.524 . S
C663 C664 1.415 . S
C664 H640 0.950 . S
C664 C659 1.363 . S
C664 C663 1.415 . S
C665 H641 0.951 . S
C665 C666 1.366 . S
C665 C667 1.388 . S
C666 C665 1.366 . S
C666 C670 1.385 . S
C667 H642 0.951 . S
C667 C665 1.388 . S
C667 C668 1.366 . S
C668 C667 1.366 . S
C668 C669 1.414 . S
C668 C671 1.499 . S
C669 H643 0.950 . S
C669 C668 1.414 . S
C669 C670 1.374 . S
C670 H644 0.950 . S
C670 C666 1.385 . S
C670 C669 1.374 . S
C671 C668 1.499 . S
C671 C672 1.373 . S
C671 C673 1.389 . S
C672 H645 0.950 . S
C672 C658 1.377 . S
C672 C671 1.373 . S
C673 C657 1.377 . S
C673 C671 1.389 . S
C673 C674 1.524 . S
C674 C673 1.524 . S
C674 C675 1.397 . S
C674 C679 1.363 . S
C675 H646 0.950 . S
C675 C674 1.397 . S
C675 C676 1.334 . S
C676 H647 0.950 . S
C676 C675 1.334 . S
C676 C677 1.287 . S
C677 C676 1.287 . S
C677 C678 1.524 . S
C677 H680 0.999 . S
C678 H648 0.950 . S
C678 C677 1.524 . S
C678 C679 1.415 . S
C679 H649 0.950 . S
C679 C674 1.363 . S
C679 C678 1.415 . S
H680 C677 0.999 . S
H681 C662 0.913 . S
C116 C77 1.389 . S
C101 C21 1.389 . S
C151 C19 1.382 1_556 S
C166 C68 1.384 . S
C201 C18 1.348 . S
C216 C80 1.355 . S
C251 C20 1.371 1_556 S
C266 C71 1.369 . S
C301 C44 1.390 . S
C316 C59 1.389 . S
C351 C42 1.382 . S
C366 C50 1.384 . S
C416 C62 1.355 . S
C401 C41 1.349 . S
C466 C53 1.368 . S
C451 C43 1.370 . S
C501 C16 1.492 . S
C516 C51 1.491 1_445 S
C551 C17 1.457 . S
C566 C60 1.457 . S
C616 C69 1.493 . S
C601 C39 1.492 . S
C651 C40 1.456 . S
C666 C78 1.457 . S
