# Generated by pormake.
# Topology eea, (3,6)-cn, num edge types: 1
# Building blocks:
#     Node 0, Type 0, BuildingBlock: ESEHIV_clean_linker_0, # of connection points: 3
#     Node 1, Type 0, BuildingBlock: ESEHIV_clean_linker_0, # of connection points: 3
#     Node 2, Type 0, BuildingBlock: ESEHIV_clean_linker_0, # of connection points: 3
#     Node 3, Type 0, BuildingBlock: ESEHIV_clean_linker_0, # of connection points: 3
#     Node 4, Type 0, BuildingBlock: ESEHIV_clean_linker_0, # of connection points: 3
#     Node 5, Type 0, BuildingBlock: ESEHIV_clean_linker_0, # of connection points: 3
#     Node 6, Type 0, BuildingBlock: ESEHIV_clean_linker_0, # of connection points: 3
#     Node 7, Type 0, BuildingBlock: ESEHIV_clean_linker_0, # of connection points: 3
#     Node 8, Type 0, BuildingBlock: ESEHIV_clean_linker_0, # of connection points: 3
#     Node 9, Type 0, BuildingBlock: ESEHIV_clean_linker_0, # of connection points: 3
#     Node 10, Type 0, BuildingBlock: ESEHIV_clean_linker_0, # of connection points: 3
#     Node 11, Type 0, BuildingBlock: ESEHIV_clean_linker_0, # of connection points: 3
#     Node 12, Type 0, BuildingBlock: ESEHIV_clean_linker_0, # of connection points: 3
#     Node 13, Type 0, BuildingBlock: ESEHIV_clean_linker_0, # of connection points: 3
#     Node 14, Type 0, BuildingBlock: ESEHIV_clean_linker_0, # of connection points: 3
#     Node 15, Type 0, BuildingBlock: ESEHIV_clean_linker_0, # of connection points: 3
#     Node 16, Type 0, BuildingBlock: ESEHIV_clean_linker_0, # of connection points: 3
#     Node 17, Type 0, BuildingBlock: ESEHIV_clean_linker_0, # of connection points: 3
#     Node 18, Type 1, BuildingBlock: KUMBUR_clean_sbu_0, # of connection points: 6
#     Node 19, Type 1, BuildingBlock: KUMBUR_clean_sbu_0, # of connection points: 6
#     Node 20, Type 1, BuildingBlock: KUMBUR_clean_sbu_0, # of connection points: 6
#     Node 21, Type 1, BuildingBlock: KUMBUR_clean_sbu_0, # of connection points: 6
#     Node 22, Type 1, BuildingBlock: KUMBUR_clean_sbu_0, # of connection points: 6
#     Node 23, Type 1, BuildingBlock: KUMBUR_clean_sbu_0, # of connection points: 6
#     Node 24, Type 1, BuildingBlock: KUMBUR_clean_sbu_0, # of connection points: 6
#     Node 25, Type 1, BuildingBlock: KUMBUR_clean_sbu_0, # of connection points: 6
#     Node 26, Type 1, BuildingBlock: KUMBUR_clean_sbu_0, # of connection points: 6
#     Edge 27, Type (0, 1), BuildingBlock: EZIPEK_clean_linker_0, # of connection points: 2
#     Edge 28, Type (0, 1), BuildingBlock: EZIPEK_clean_linker_0, # of connection points: 2
#     Edge 29, Type (0, 1), BuildingBlock: EZIPEK_clean_linker_0, # of connection points: 2
#     Edge 30, Type (0, 1), BuildingBlock: EZIPEK_clean_linker_0, # of connection points: 2
#     Edge 31, Type (0, 1), BuildingBlock: EZIPEK_clean_linker_0, # of connection points: 2
#     Edge 32, Type (0, 1), BuildingBlock: EZIPEK_clean_linker_0, # of connection points: 2
#     Edge 33, Type (0, 1), BuildingBlock: EZIPEK_clean_linker_0, # of connection points: 2
#     Edge 34, Type (0, 1), BuildingBlock: EZIPEK_clean_linker_0, # of connection points: 2
#     Edge 35, Type (0, 1), BuildingBlock: EZIPEK_clean_linker_0, # of connection points: 2
#     Edge 36, Type (0, 1), BuildingBlock: EZIPEK_clean_linker_0, # of connection points: 2
#     Edge 37, Type (0, 1), BuildingBlock: EZIPEK_clean_linker_0, # of connection points: 2
#     Edge 38, Type (0, 1), BuildingBlock: EZIPEK_clean_linker_0, # of connection points: 2
#     Edge 39, Type (0, 1), BuildingBlock: EZIPEK_clean_linker_0, # of connection points: 2
#     Edge 40, Type (0, 1), BuildingBlock: EZIPEK_clean_linker_0, # of connection points: 2
#     Edge 41, Type (0, 1), BuildingBlock: EZIPEK_clean_linker_0, # of connection points: 2
#     Edge 42, Type (0, 1), BuildingBlock: EZIPEK_clean_linker_0, # of connection points: 2
#     Edge 43, Type (0, 1), BuildingBlock: EZIPEK_clean_linker_0, # of connection points: 2
#     Edge 44, Type (0, 1), BuildingBlock: EZIPEK_clean_linker_0, # of connection points: 2
#     Edge 45, Type (0, 1), BuildingBlock: EZIPEK_clean_linker_0, # of connection points: 2
#     Edge 46, Type (0, 1), BuildingBlock: EZIPEK_clean_linker_0, # of connection points: 2
#     Edge 47, Type (0, 1), BuildingBlock: EZIPEK_clean_linker_0, # of connection points: 2
#     Edge 48, Type (0, 1), BuildingBlock: EZIPEK_clean_linker_0, # of connection points: 2
#     Edge 49, Type (0, 1), BuildingBlock: EZIPEK_clean_linker_0, # of connection points: 2
#     Edge 50, Type (0, 1), BuildingBlock: EZIPEK_clean_linker_0, # of connection points: 2
#     Edge 51, Type (0, 1), BuildingBlock: EZIPEK_clean_linker_0, # of connection points: 2
#     Edge 52, Type (0, 1), BuildingBlock: EZIPEK_clean_linker_0, # of connection points: 2
#     Edge 53, Type (0, 1), BuildingBlock: EZIPEK_clean_linker_0, # of connection points: 2
#     Edge 54, Type (0, 1), BuildingBlock: EZIPEK_clean_linker_0, # of connection points: 2
#     Edge 55, Type (0, 1), BuildingBlock: EZIPEK_clean_linker_0, # of connection points: 2
#     Edge 56, Type (0, 1), BuildingBlock: EZIPEK_clean_linker_0, # of connection points: 2
#     Edge 57, Type (0, 1), BuildingBlock: EZIPEK_clean_linker_0, # of connection points: 2
#     Edge 58, Type (0, 1), BuildingBlock: EZIPEK_clean_linker_0, # of connection points: 2
#     Edge 59, Type (0, 1), BuildingBlock: EZIPEK_clean_linker_0, # of connection points: 2
#     Edge 60, Type (0, 1), BuildingBlock: EZIPEK_clean_linker_0, # of connection points: 2
#     Edge 61, Type (0, 1), BuildingBlock: EZIPEK_clean_linker_0, # of connection points: 2
#     Edge 62, Type (0, 1), BuildingBlock: EZIPEK_clean_linker_0, # of connection points: 2
#     Edge 63, Type (0, 1), BuildingBlock: EZIPEK_clean_linker_0, # of connection points: 2
#     Edge 64, Type (0, 1), BuildingBlock: EZIPEK_clean_linker_0, # of connection points: 2
#     Edge 65, Type (0, 1), BuildingBlock: EZIPEK_clean_linker_0, # of connection points: 2
#     Edge 66, Type (0, 1), BuildingBlock: EZIPEK_clean_linker_0, # of connection points: 2
#     Edge 67, Type (0, 1), BuildingBlock: EZIPEK_clean_linker_0, # of connection points: 2
#     Edge 68, Type (0, 1), BuildingBlock: EZIPEK_clean_linker_0, # of connection points: 2
#     Edge 69, Type (0, 1), BuildingBlock: EZIPEK_clean_linker_0, # of connection points: 2
#     Edge 70, Type (0, 1), BuildingBlock: EZIPEK_clean_linker_0, # of connection points: 2
#     Edge 71, Type (0, 1), BuildingBlock: EZIPEK_clean_linker_0, # of connection points: 2
#     Edge 72, Type (0, 1), BuildingBlock: EZIPEK_clean_linker_0, # of connection points: 2
#     Edge 73, Type (0, 1), BuildingBlock: EZIPEK_clean_linker_0, # of connection points: 2
#     Edge 74, Type (0, 1), BuildingBlock: EZIPEK_clean_linker_0, # of connection points: 2
#     Edge 75, Type (0, 1), BuildingBlock: EZIPEK_clean_linker_0, # of connection points: 2
#     Edge 76, Type (0, 1), BuildingBlock: EZIPEK_clean_linker_0, # of connection points: 2
#     Edge 77, Type (0, 1), BuildingBlock: EZIPEK_clean_linker_0, # of connection points: 2
#     Edge 78, Type (0, 1), BuildingBlock: EZIPEK_clean_linker_0, # of connection points: 2
#     Edge 79, Type (0, 1), BuildingBlock: EZIPEK_clean_linker_0, # of connection points: 2
#     Edge 80, Type (0, 1), BuildingBlock: EZIPEK_clean_linker_0, # of connection points: 2
# Relax obj value: 0.007
# Max RMSD: 0.109
# Mean RMSD: 0.092
data_MOF--net-eea--node1-KUMBUR_clean_sbu_0--node2-ESEHIV_clean_linker_0--edge1-EZIPEK_clean_linker_0
_symmetry_space_group_name_H-M    P1
_symmetry_Int_Tables_number       1
_symmetry_cell_setting            triclinic
loop_
_symmetry_equiv_pos_as_xyz
'x, y, z'
_cell_length_a     33.578084
_cell_length_b     34.555491
_cell_length_c     54.550272
_cell_angle_alpha  90.015554
_cell_angle_beta   89.958681
_cell_angle_gamma 120.01939
loop_
_atom_site_label
_atom_site_type_symbol
_atom_site_fract_x
_atom_site_fract_y
_atom_site_fract_z
_atom_type_partial_charge
H0 H 0.28824 0.20819 0.43995 0.0
H1 H 0.28295 0.08103 0.44233 0.0
H2 H 0.22764 0.11524 0.38036 0.0
C3 C 0.27938 0.17645 0.43153 0.0
C4 C 0.25674 0.16499 0.40884 0.0
C5 C 0.28897 0.14628 0.44381 0.0
C6 C 0.2765 0.10492 0.43284 0.0
C7 C 0.25547 0.09424 0.40969 0.0
C8 C 0.24545 0.12421 0.39783 0.0
H9 H 0.81605 0.07259 0.44662 0.0
H10 H 0.93913 0.20157 0.4426 0.0
H11 H 0.90135 0.10962 0.38221 0.0
C12 C 0.84671 0.09656 0.43686 0.0
C13 C 0.85502 0.08641 0.41313 0.0
C14 C 0.87684 0.13805 0.44771 0.0
C15 C 0.91601 0.16922 0.43459 0.0
C16 C 0.92529 0.15879 0.41109 0.0
C17 C 0.89474 0.11737 0.4005 0.0
H18 H 0.81245 0.75417 0.44093 0.0
H19 H 0.93885 0.75046 0.44095 0.0
H20 H 0.90041 0.79852 0.37745 0.0
C21 C 0.84373 0.76018 0.4318 0.0
C22 C 0.85237 0.7768 0.40767 0.0
C23 C 0.87425 0.74972 0.44392 0.0
C24 C 0.91487 0.75795 0.43176 0.0
C25 C 0.92511 0.77639 0.40797 0.0
C26 C 0.89319 0.78497 0.39588 0.0
H27 H 0.06246 0.25161 0.59062 0.0
H28 H 0.19303 0.25647 0.58984 0.0
H29 H 0.09896 0.19414 0.65023 0.0
C30 C 0.08688 0.244 0.59918 0.0
C31 C 0.07697 0.22357 0.62241 0.0
C32 C 0.12845 0.25546 0.58711 0.0
C33 C 0.16057 0.24677 0.59884 0.0
C34 C 0.15039 0.22387 0.62148 0.0
C35 C 0.10789 0.21196 0.63294 0.0
H36 H 0.73777 0.93251 0.58812 0.0
H37 H 0.72448 0.80184 0.58946 0.0
H38 H 0.78402 0.89056 0.65085 0.0
C39 C 0.74274 0.90742 0.59731 0.0
C40 C 0.76156 0.91578 0.62096 0.0
C41 C 0.72867 0.86609 0.58591 0.0
C42 C 0.73506 0.8338 0.59811 0.0
C43 C 0.756 0.84303 0.62124 0.0
C44 C 0.76866 0.88377 0.63274 0.0
H45 H 0.05408 0.79019 0.59016 0.0
H46 H 0.1827 0.91359 0.58625 0.0
H47 H 0.08565 0.89166 0.64415 0.0
C48 C 0.07758 0.82306 0.59749 0.0
C49 C 0.06686 0.8369 0.61948 0.0
C50 C 0.11847 0.8515 0.58487 0.0
C51 C 0.15012 0.8929 0.5954 0.0
C52 C 0.13893 0.90861 0.61682 0.0
C53 C 0.09609 0.88042 0.62813 0.0
H54 H 0.941 0.53382 0.77637 0.0
H55 H 0.94541 0.4115 0.7761 0.0
H56 H 0.89588 0.44876 0.7128 0.0
C57 C 0.93579 0.50399 0.76697 0.0
C58 C 0.91746 0.49472 0.74317 0.0
C59 C 0.94705 0.47456 0.77869 0.0
C60 C 0.93841 0.43512 0.76672 0.0
C61 C 0.91971 0.42546 0.74299 0.0
C62 C 0.91062 0.45612 0.73106 0.0
H63 H 0.48217 0.39921 0.77998 0.0
H64 H 0.60287 0.53013 0.77536 0.0
H65 H 0.5632 0.44022 0.71393 0.0
C66 C 0.51153 0.42422 0.76978 0.0
C67 C 0.51855 0.41514 0.74551 0.0
C68 C 0.54141 0.46592 0.7807 0.0
C69 C 0.5796 0.49797 0.7672 0.0
C70 C 0.58803 0.48856 0.74326 0.0
C71 C 0.5571 0.44735 0.73247 0.0
H72 H 0.47212 0.07513 0.76978 0.0
H73 H 0.60067 0.07566 0.77227 0.0
H74 H 0.5622 0.11959 0.70712 0.0
C75 C 0.50384 0.08139 0.76108 0.0
C76 C 0.51289 0.0972 0.73674 0.0
C77 C 0.53473 0.07247 0.77406 0.0
C78 C 0.57619 0.08165 0.76247 0.0
C79 C 0.58683 0.09957 0.73853 0.0
C80 C 0.55444 0.10617 0.72558 0.0
H81 H 0.73092 0.58148 0.92398 0.0
H82 H 0.86333 0.5899 0.92387 0.0
H83 H 0.77146 0.52923 0.98479 0.0
C84 C 0.75601 0.57519 0.93285 0.0
C85 C 0.74615 0.55464 0.95609 0.0
C86 C 0.79781 0.58726 0.92085 0.0
C87 C 0.83069 0.57992 0.93274 0.0
C88 C 0.82146 0.55924 0.95587 0.0
C89 C 0.77884 0.54586 0.96714 0.0
H90 H 0.43139 0.27766 0.91504 0.0
H91 H 0.42056 0.14796 0.91513 0.0
H92 H 0.46149 0.22824 0.98052 0.0
C93 C 0.43485 0.25184 0.92444 0.0
C94 C 0.44827 0.2575 0.94904 0.0
C95 C 0.42354 0.21178 0.91237 0.0
C96 C 0.42864 0.17869 0.92453 0.0
C97 C 0.44248 0.1845 0.94912 0.0
C98 C 0.45154 0.22376 0.96136 0.0
H99 H 0.72966 0.13171 0.92506 0.0
H100 H 0.85644 0.25772 0.92139 0.0
H101 H 0.76983 0.2249 0.98504 0.0
C102 C 0.75388 0.16359 0.93318 0.0
C103 C 0.74456 0.17509 0.95642 0.0
C104 C 0.79431 0.19319 0.92037 0.0
C105 C 0.82525 0.23464 0.93107 0.0
C106 C 0.81688 0.24598 0.95449 0.0
C107 C 0.77658 0.21606 0.96706 0.0
H108 H 0.60409 0.86465 0.10818 0.0
H109 H 0.59178 0.73486 0.11418 0.0
H110 H 0.54834 0.7715 0.04829 0.0
C111 C 0.59423 0.83217 0.10043 0.0
C112 C 0.57417 0.82096 0.07703 0.0
C113 C 0.60086 0.80127 0.11397 0.0
C114 C 0.58715 0.75906 0.10378 0.0
C115 C 0.56924 0.74853 0.07987 0.0
C116 C 0.56288 0.77969 0.06658 0.0
H117 H 0.15218 0.73645 0.11212 0.0
H118 H 0.27399 0.8665 0.10864 0.0
H119 H 0.23712 0.77613 0.04751 0.0
C120 C 0.18259 0.76097 0.1024 0.0
C121 C 0.19094 0.75156 0.07848 0.0
C122 C 0.21224 0.80243 0.11352 0.0
C123 C 0.25121 0.83423 0.10044 0.0
C124 C 0.26072 0.82464 0.07675 0.0
C125 C 0.23041 0.7833 0.06592 0.0
H126 H 0.14829 0.42056 0.1079 0.0
H127 H 0.27272 0.41327 0.10735 0.0
H128 H 0.23605 0.46388 0.04432 0.0
C129 C 0.17951 0.42636 0.09879 0.0
C130 C 0.18839 0.44312 0.0747 0.0
C131 C 0.2095 0.41509 0.11081 0.0
C132 C 0.24962 0.42229 0.09848 0.0
C133 C 0.25985 0.44057 0.07465 0.0
C134 C 0.22898 0.45084 0.06286 0.0
H135 H 0.39414 0.91404 0.25787 0.0
H136 H 0.52621 0.92161 0.25905 0.0
H137 H 0.43834 0.87461 0.32256 0.0
C138 C 0.41971 0.90922 0.26733 0.0
C139 C 0.41174 0.89399 0.29179 0.0
C140 C 0.46118 0.91981 0.25532 0.0
C141 C 0.49411 0.91352 0.26798 0.0
C142 C 0.48575 0.89653 0.29204 0.0
C143 C 0.44458 0.88698 0.30388 0.0
H144 H 0.07354 0.6031 0.25437 0.0
H145 H 0.06755 0.47554 0.25363 0.0
H146 H 0.11908 0.56037 0.31705 0.0
C147 C 0.07936 0.57831 0.26328 0.0
C148 C 0.09687 0.58586 0.2872 0.0
C149 C 0.06786 0.53813 0.25116 0.0
C150 C 0.07602 0.50652 0.26286 0.0
C151 C 0.09525 0.51483 0.28642 0.0
C152 C 0.10493 0.55421 0.29866 0.0
H153 H 0.39012 0.46981 0.26066 0.0
H154 H 0.51385 0.59796 0.25627 0.0
H155 H 0.43002 0.56138 0.32134 0.0
C156 C 0.41376 0.50197 0.26873 0.0
C157 C 0.40518 0.51232 0.29235 0.0
C158 C 0.45275 0.53285 0.25551 0.0
C159 C 0.48338 0.57417 0.26625 0.0
C160 C 0.4758 0.58437 0.29009 0.0
C161 C 0.43624 0.55357 0.30299 0.0
Tb162 Tb 0.48404 0.97566 0.98547 0.0
C163 C 0.56956 0.12827 0.06146 0.0
C164 C 0.651 0.15755 0.05592 0.0
C165 C 0.6233 0.20625 0.07068 0.0
C166 C 0.6052 0.12211 0.05452 0.0
C167 C 0.57802 0.17002 0.07032 0.0
C168 C 0.65981 0.20004 0.0634 0.0
C169 C 0.49693 0.13589 0.07939 0.0
N170 N 0.52656 0.09247 0.0606 0.0
C171 C 0.49042 0.09524 0.07027 0.0
C172 C 0.54085 0.17366 0.0791 0.0
Tb173 Tb 0.51852 0.02678 0.04597 0.0
N174 N 0.59495 0.08047 0.04776 0.0
C175 C 0.62956 0.071 0.04443 0.0
C176 C 0.68644 0.14874 0.05061 0.0
C177 C 0.67566 0.10504 0.04531 0.0
H178 H 0.45625 0.06647 0.07048 0.0
H179 H 0.7028 0.09751 0.0418 0.0
H180 H 0.69472 0.22789 0.06434 0.0
H181 H 0.46805 0.1381 0.08652 0.0
H182 H 0.62202 0.03752 0.0403 0.0
H183 H 0.29819 0.88 0.98785 0.0
H184 H 0.72213 0.17503 0.05133 0.0
H185 H 0.55791 0.95101 0.95914 0.0
H186 H 0.3741 0.94846 0.98846 0.0
H187 H 0.55891 0.88295 0.94593 0.0
H188 H 0.63055 0.23881 0.07709 0.0
H189 H 0.29272 0.80666 0.98111 0.0
H190 H 0.33278 0.76354 0.97107 0.0
H191 H 0.54582 0.20512 0.0861 0.0
H192 H 0.40421 0.76422 0.95993 0.0
N193 N 0.41153 0.91473 0.9836 0.0
C194 C 0.37226 0.91693 0.98575 0.0
C195 C 0.32616 0.83673 0.98156 0.0
C196 C 0.36636 0.83498 0.97743 0.0
C197 C 0.32911 0.87804 0.9853 0.0
C198 C 0.409 0.87512 0.97837 0.0
H199 H 0.48882 0.80877 0.95017 0.0
N200 N 0.48903 0.91517 0.97231 0.0
C201 C 0.52794 0.88025 0.95368 0.0
C202 C 0.44914 0.87529 0.97256 0.0
C203 C 0.52729 0.91866 0.96118 0.0
C204 C 0.48833 0.83843 0.95616 0.0
C205 C 0.44785 0.83568 0.965 0.0
O206 O 0.51931 0.99818 0.95206 0.0
O207 O 0.54077 0.02231 1.00924 0.0
O208 O 0.50101 0.06865 0.02273 0.0
O209 O 0.45252 0.01698 0.99358 0.0
O210 O 0.54316 0.03818 0.97354 0.0
O211 O 0.4473 0.97833 0.95451 0.0
O212 O 0.48252 0.004 0.07959 0.0
O213 O 0.4655 0.97269 0.02408 0.0
O214 O 0.5105 0.93724 1.0057 0.0
O215 O 0.54303 0.97937 0.04135 0.0
O216 O 0.44507 0.99735 0.05206 0.0
O217 O 0.54794 0.00876 0.07469 0.0
C218 C 0.56404 0.0531 0.99377 0.0
C219 C 0.47766 0.97422 0.91508 0.0
C220 C 0.49036 0.98538 0.87047 0.0
C221 C 0.49004 0.0023 0.89413 0.0
C222 C 0.47854 0.94031 0.86832 0.0
C223 C 0.46422 0.92908 0.91194 0.0
C224 C 0.46508 0.91241 0.8888 0.0
C225 C 0.47043 0.05665 1.00459 0.0
C226 C 0.48339 0.99321 0.94012 0.0
C227 C 0.40585 0.79516 0.96534 0.0
C228 C 0.36516 0.7948 0.97161 0.0
C229 C 0.42973 0.96733 0.03532 0.0
C230 C 0.52785 0.01727 0.11518 0.0
C231 C 0.50537 0.9898 0.13567 0.0
C232 C 0.52008 0.00575 0.15976 0.0
C233 C 0.55683 0.04961 0.16288 0.0
C234 C 0.56396 0.06104 0.11897 0.0
C235 C 0.57823 0.07704 0.14268 0.0
C236 C 0.53223 0.94456 0.0271 0.0
C237 C 0.51468 -0.00043 0.09001 0.0
H238 H 0.49988 0.03715 0.89625 0.0
H239 H 0.47882 0.9264 0.85056 0.0
H240 H 0.45364 0.9067 0.92736 0.0
H241 H 0.45533 0.87761 0.88672 0.0
H242 H 0.47711 0.95606 0.13292 0.0
H243 H 0.5688 0.06275 0.18111 0.0
H244 H 0.58157 0.08269 0.10359 0.0
H245 H 0.60629 0.11081 0.14541 0.0
Tb246 Tb 0.03522 0.51466 0.98656 0.0
C247 C 0.8661 0.4278 0.05082 0.0
C248 C 0.83457 0.47662 0.04584 0.0
C249 C 0.78341 0.39721 0.05278 0.0
C250 C 0.87247 0.4696 0.04632 0.0
C251 C 0.82173 0.39132 0.05511 0.0
C252 C 0.78984 0.43989 0.04813 0.0
C253 C 0.85719 0.34862 0.06777 0.0
N254 N 0.90413 0.42403 0.05345 0.0
C255 C 0.90046 0.38615 0.06363 0.0
C256 C 0.81754 0.35087 0.06291 0.0
Tb257 Tb 0.97354 0.48581 0.04387 0.0
N258 N 0.91627 0.504 0.04462 0.0
C259 C 0.92459 0.54701 0.04551 0.0
C260 C 0.84296 0.52047 0.04441 0.0
C261 C 0.88821 0.55587 0.04499 0.0
H262 H 0.93098 0.38456 0.06796 0.0
H263 H 0.89519 0.59003 0.04484 0.0
H264 H 0.7602 0.44446 0.04744 0.0
H265 H 0.85446 0.31816 0.07488 0.0
H266 H 0.95924 0.57486 0.04603 0.0
H267 H 0.10183 0.40043 0.98324 0.0
H268 H 0.81485 0.52739 0.04397 0.0
H269 H 0.08517 0.61785 0.9643 0.0
H270 H 0.04195 0.42104 0.98236 0.0
H271 H 0.16406 0.68107 0.95843 0.0
H272 H 0.7489 0.36947 0.05563 0.0
H273 H 0.18386 0.45904 0.98527 0.0
H274 H 0.24313 0.54098 0.98327 0.0
H275 H 0.78406 0.32195 0.06639 0.0
H276 H 0.26033 0.61832 0.97629 0.0
N277 N 0.08867 0.4913 0.98509 0.0
C278 C 0.07724 0.44738 0.98343 0.0
C279 C 0.15754 0.46844 0.98496 0.0
C280 C 0.1692 0.51332 0.98427 0.0
C281 C 0.11133 0.43532 0.98373 0.0
C282 C 0.13349 0.52357 0.9839 0.0
H283 H 0.23089 0.67097 0.96644 0.0
N284 N 0.10706 0.57337 0.97722 0.0
C285 C 0.15873 0.6491 0.96471 0.0
C286 C 0.1431 0.56651 0.97985 0.0
C287 C 0.11408 0.61326 0.96813 0.0
C288 C 0.19634 0.64333 0.96932 0.0
C289 C 0.18875 0.60119 0.97627 0.0
O290 O 0.02478 0.53661 0.95235 0.0
O291 O 0.97373 0.50423 1.00575 0.0
O292 O 0.93492 0.42673 0.02077 0.0
O293 O 0.98601 0.44191 0.98818 0.0
O294 O 0.00315 0.55576 0.98148 0.0
O295 O 0.0156 0.47078 0.9567 0.0
O296 O 0.9946 0.47122 0.07721 0.0
O297 O 0.03563 0.49736 0.02472 0.0
O298 O 0.07321 0.5733 1.01012 0.0
O299 O 0.02076 0.55885 0.04189 0.0
O300 O 0.00673 0.44563 0.04889 0.0
O301 O 0.98055 0.52517 0.07489 0.0
C302 C 0.96866 0.53504 0.99599 0.0
C303 C 0.03869 0.50397 0.91794 0.0
C304 C 0.03403 0.50035 0.87344 0.0
C305 C 0.01503 0.50106 0.89624 0.0
C306 C 0.0776 0.50395 0.87257 0.0
C307 C 0.08238 0.50809 0.91684 0.0
C308 C 0.10177 0.50824 0.89418 0.0
C309 C 0.9475 0.41531 1.00026 0.0
C310 C 0.01584 0.49975 0.94141 0.0
C311 C 0.22492 0.59205 0.97861 0.0
C312 C 0.21513 0.54805 0.98259 0.0
C313 C 0.04116 0.46672 0.03434 0.0
C314 C 0.96838 0.48858 0.11299 0.0
C315 C 0.99466 0.50439 0.13443 0.0
C316 C 0.97433 0.48785 0.15741 0.0
C317 C 0.92728 0.45575 0.15867 0.0
C318 C 0.92111 0.45801 0.11463 0.0
C319 C 0.90075 0.44148 0.1374 0.0
C320 C 0.06004 0.58499 0.03035 0.0
C321 C 0.99163 0.50207 0.08922 0.0
H322 H 0.9813 0.49804 0.89707 0.0
H323 H 0.09285 0.5035 0.85514 0.0
H324 H 0.10108 0.51044 0.93343 0.0
H325 H 0.13536 0.51112 0.89337 0.0
H326 H 0.03106 0.52876 0.13325 0.0
H327 H 0.91099 0.44239 0.1762 0.0
H328 H 0.89999 0.4466 0.09845 0.0
H329 H 0.86437 0.41739 0.13853 0.0
Tb330 Tb 0.51393 0.4774 0.04951 0.0
C331 C 0.45771 0.57835 0.98213 0.0
C332 C 0.37494 0.53229 0.98046 0.0
C333 C 0.4107 0.61302 0.97686 0.0
C334 C 0.4188 0.53684 0.98341 0.0
C335 C 0.45435 0.61693 0.97828 0.0
C336 C 0.371 0.57072 0.97796 0.0
C337 C 0.53727 0.65947 0.97553 0.0
N338 N 0.49915 0.58056 0.98374 0.0
C339 C 0.5388 0.62018 0.97927 0.0
C340 C 0.49491 0.65797 0.97541 0.0
Tb341 Tb 0.49773 0.51431 0.99133 0.0
N342 N 0.42424 0.50066 0.98547 0.0
C343 C 0.38772 0.45895 0.98147 0.0
C344 C 0.33673 0.48926 0.97885 0.0
C345 C 0.34335 0.45246 0.97861 0.0
H346 H 0.57174 0.62175 0.97952 0.0
H347 H 0.31436 0.41912 0.97613 0.0
H348 H 0.33757 0.56797 0.976 0.0
H349 H 0.56876 0.6909 0.97276 0.0
H350 H 0.39286 0.43064 0.98026 0.0
H351 H 0.69145 0.59556 0.0713 0.0
H352 H 0.3024 0.48421 0.97657 0.0
H353 H 0.45253 0.36697 0.05476 0.0
H354 H 0.61898 0.57032 0.04936 0.0
H355 H 0.46301 0.30619 0.07112 0.0
H356 H 0.4073 0.64231 0.97421 0.0
H357 H 0.70517 0.54107 0.09367 0.0
H358 H 0.67778 0.46088 0.10446 0.0
H359 H 0.49383 0.68844 0.97246 0.0
H360 H 0.61716 0.38174 0.10255 0.0
N361 N 0.58838 0.50271 0.06156 0.0
C362 C 0.62275 0.54641 0.06026 0.0
C363 C 0.67233 0.52999 0.08483 0.0
C364 C 0.63827 0.48484 0.08479 0.0
C365 C 0.66467 0.56084 0.07228 0.0
C366 C 0.59599 0.47226 0.07314 0.0
H367 H 0.53748 0.3236 0.08953 0.0
N368 N 0.52182 0.41779 0.06112 0.0
C369 C 0.49142 0.34024 0.07124 0.0
C370 C 0.56218 0.428 0.072 0.0
C371 C 0.48578 0.3747 0.06161 0.0
C372 C 0.53343 0.35022 0.08167 0.0
C373 C 0.56919 0.39465 0.08259 0.0
O374 O 0.46604 0.44862 0.07811 0.0
O375 O 0.46797 0.49096 0.02753 0.0
O376 O 0.50758 0.56611 0.01765 0.0
O377 O 0.54093 0.55019 0.05021 0.0
O378 O 0.43961 0.43272 0.04637 0.0
O379 O 0.52814 0.51181 0.08334 0.0
O380 O 0.53702 0.53797 0.95911 0.0
O381 O 0.54215 0.49819 0.01263 0.0
O382 O 0.5118 0.42924 0.02309 0.0
O383 O 0.47023 0.4402 0.99228 0.0
O384 O 0.57347 0.55228 0.99172 0.0
O385 O 0.47097 0.47801 0.95833 0.0
C386 C 0.42921 0.45725 0.03324 0.0
C387 C 0.49379 0.46643 0.11864 0.0
C388 C 0.48612 0.47281 0.16275 0.0
C389 C 0.48892 0.4892 0.13879 0.0
C390 C 0.48982 0.43451 0.16639 0.0
C391 C 0.49694 0.42797 0.1228 0.0
C392 C 0.49554 0.41247 0.14652 0.0
C393 C 0.52882 0.57664 0.03901 0.0
C394 C 0.49068 0.48046 0.09353 0.0
C395 C 0.61113 0.40684 0.09425 0.0
C396 C 0.64553 0.4519 0.09547 0.0
C397 C 0.58222 0.52698 1.00528 0.0
C398 C 0.49827 0.5194 0.92106 0.0
C399 C 0.50699 0.50145 0.89982 0.0
C400 C 0.50485 0.51758 0.87636 0.0
C401 C 0.49315 0.55128 0.87456 0.0
C402 C 0.48594 0.55242 0.91868 0.0
C403 C 0.48334 0.56816 0.89553 0.0
C404 C 0.48621 0.4159 1.00305 0.0
C405 C 0.50628 0.50622 0.94545 0.0
H406 H 0.48584 0.51863 0.13583 0.0
H407 H 0.48799 0.42152 0.18469 0.0
H408 H 0.4991 0.40897 0.10782 0.0
H409 H 0.49795 0.38273 0.14946 0.0
H410 H 0.51639 0.47578 0.90152 0.0
H411 H 0.49127 0.5643 0.8568 0.0
H412 H 0.47916 0.56664 0.93465 0.0
H413 H 0.47414 0.59392 0.89385 0.0
Tb414 Tb 0.15006 0.30279 0.31936 0.0
C415 C 0.23052 0.46559 0.38638 0.0
C416 C 0.31233 0.4944 0.38452 0.0
C417 C 0.28306 0.54566 0.38904 0.0
C418 C 0.26678 0.45839 0.38338 0.0
C419 C 0.23797 0.50913 0.38986 0.0
C420 C 0.3203 0.53828 0.38642 0.0
C421 C 0.15649 0.47658 0.39716 0.0
N422 N 0.18785 0.42929 0.3873 0.0
C423 C 0.15104 0.43404 0.39378 0.0
C424 C 0.20006 0.51438 0.3948 0.0
Tb425 Tb 0.1812 0.3612 0.37807 0.0
N426 N 0.25729 0.41548 0.382 0.0
C427 C 0.29195 0.40611 0.38522 0.0
C428 C 0.34823 0.48498 0.38524 0.0
C429 C 0.33785 0.44057 0.38646 0.0
H430 H 0.11704 0.40516 0.39526 0.0
H431 H 0.36517 0.43277 0.38825 0.0
H432 H 0.35504 0.5665 0.38691 0.0
H433 H 0.12704 0.48018 0.4015 0.0
H434 H 0.28477 0.37216 0.38676 0.0
H435 H 0.96414 0.21336 0.3215 0.0
H436 H 0.38375 0.5116 0.38619 0.0
H437 H 0.21878 0.2707 0.2933 0.0
H438 H 0.04174 0.27961 0.32019 0.0
H439 H 0.21711 0.20033 0.28386 0.0
H440 H 0.28958 0.57948 0.39133 0.0
H441 H 0.9548 0.13773 0.31854 0.0
H442 H 0.99161 0.09054 0.31113 0.0
H443 H 0.20424 0.54728 0.39751 0.0
H444 H 0.06122 0.08697 0.30088 0.0
N445 N 0.07632 0.24277 0.31833 0.0
C446 C 0.03819 0.24715 0.31928 0.0
C447 C 0.98894 0.1669 0.31822 0.0
C448 C 0.0279 0.1627 0.31493 0.0
C449 C 0.99408 0.20947 0.31983 0.0
C450 C 0.07146 0.20183 0.31476 0.0
H451 H 0.14572 0.12796 0.29032 0.0
N452 N 0.15033 0.23893 0.3074 0.0
C453 C 0.18686 0.19959 0.29131 0.0
C454 C 0.11011 0.19979 0.30912 0.0
C455 C 0.1878 0.23953 0.29701 0.0
C456 C 0.14654 0.15883 0.29499 0.0
C457 C 0.10704 0.15863 0.30332 0.0
O458 O 0.18752 0.33121 0.28694 0.0
O459 O 0.1999 0.36045 0.34017 0.0
O460 O 0.16577 0.40098 0.35288 0.0
O461 O 0.12272 0.34927 0.32253 0.0
O462 O 0.22444 0.33383 0.31522 0.0
O463 O 0.11543 0.30753 0.288 0.0
O464 O 0.14636 0.3486 0.41203 0.0
O465 O 0.1299 0.30339 0.35755 0.0
O466 O 0.17265 0.26549 0.34232 0.0
O467 O 0.20931 0.31588 0.37474 0.0
O468 O 0.10779 0.33196 0.38259 0.0
O469 O 0.20403 0.33863 0.40776 0.0
C470 C 0.23699 0.36544 0.33096 0.0
C471 C 0.14905 0.30819 0.24929 0.0
C472 C 0.1633 0.32174 0.20506 0.0
C473 C 0.16161 0.33724 0.22885 0.0
C474 C 0.15242 0.27705 0.20221 0.0
C475 C 0.13697 0.26349 0.24564 0.0
C476 C 0.13895 0.24817 0.22228 0.0
C477 C 0.13855 0.38878 0.33348 0.0
C478 C 0.15227 0.3256 0.27442 0.0
C479 C 0.06428 0.11904 0.30496 0.0
C480 C 0.02467 0.12108 0.31078 0.0
C481 C 0.09347 0.29958 0.3673 0.0
C482 C 0.18982 0.35547 0.44765 0.0
C483 C 0.16847 0.32902 0.4686 0.0
C484 C 0.18637 0.34489 0.49227 0.0
C485 C 0.22528 0.3877 0.49454 0.0
C486 C 0.22813 0.39828 0.45054 0.0
C487 C 0.24566 0.41423 0.47387 0.0
C488 C 0.19776 0.27846 0.36259 0.0
C489 C 0.17339 0.33723 0.42291 0.0
H490 H 0.17046 0.37174 0.23145 0.0
H491 H 0.15357 0.26427 0.18425 0.0
H492 H 0.12646 0.24047 0.26086 0.0
H493 H 0.13007 0.2137 0.21971 0.0
H494 H 0.13863 0.296 0.4665 0.0
H495 H 0.23978 0.40071 0.51243 0.0
H496 H 0.24483 0.41912 0.43473 0.0
H497 H 0.27544 0.44721 0.47595 0.0
Tb498 Tb 0.69852 0.85095 0.32142 0.0
C499 C 0.52968 0.76176 0.38552 0.0
C500 C 0.49737 0.80999 0.38102 0.0
C501 C 0.44684 0.73023 0.38718 0.0
C502 C 0.5356 0.80347 0.3814 0.0
C503 C 0.48545 0.72483 0.38949 0.0
C504 C 0.45281 0.77286 0.38293 0.0
C505 C 0.52158 0.68266 0.40198 0.0
N506 N 0.56799 0.75849 0.38819 0.0
C507 C 0.56469 0.72061 0.39815 0.0
C508 C 0.4817 0.68443 0.39703 0.0
Tb509 Tb 0.63715 0.82089 0.37893 0.0
N510 N 0.57925 0.83824 0.38012 0.0
C511 C 0.58705 0.88102 0.38159 0.0
C512 C 0.50526 0.85371 0.38011 0.0
C513 C 0.55033 0.8894 0.38117 0.0
H514 H 0.59536 0.7193 0.40247 0.0
H515 H 0.55691 0.92343 0.38146 0.0
H516 H 0.42293 0.77701 0.38234 0.0
H517 H 0.51917 0.65221 0.4089 0.0
H518 H 0.62155 0.90905 0.38251 0.0
H519 H 0.77327 0.74366 0.31791 0.0
H520 H 0.47689 0.86026 0.37975 0.0
H521 H 0.74355 0.95349 0.29874 0.0
H522 H 0.71043 0.76054 0.31706 0.0
H523 H 0.82099 0.01935 0.29302 0.0
H524 H 0.41244 0.70216 0.38978 0.0
H525 H 0.85412 0.80508 0.32012 0.0
H526 H 0.91017 0.88792 0.31847 0.0
H527 H 0.44835 0.65518 0.40026 0.0
H528 H 0.92348 0.96398 0.31161 0.0
N529 N 0.75454 0.83112 0.31987 0.0
C530 C 0.74528 0.78788 0.31816 0.0
C531 C 0.82653 0.81274 0.31979 0.0
C532 C 0.83592 0.85698 0.31924 0.0
C533 C 0.78099 0.77804 0.31846 0.0
C534 C 0.79867 0.86498 0.31885 0.0
H535 H 0.89021 0.01345 0.30154 0.0
N536 N 0.76874 0.91214 0.31249 0.0
C537 C 0.81735 0.98818 0.29957 0.0
C538 C 0.80611 0.90733 0.31507 0.0
C539 C 0.77355 0.95095 0.30301 0.0
C540 C 0.85632 0.98474 0.30444 0.0
C541 C 0.85097 0.94348 0.31151 0.0
O542 O 0.67796 0.86783 0.28862 0.0
O543 O 0.63685 0.83949 0.34092 0.0
O544 O 0.59881 0.76266 0.35547 0.0
O545 O 0.65061 0.77787 0.32322 0.0
O546 O 0.6663 0.89203 0.31716 0.0
O547 O 0.69013 0.81264 0.28969 0.0
O548 O 0.65785 0.80568 0.4122 0.0
O549 O 0.69884 0.83242 0.35941 0.0
O550 O 0.73677 0.909 0.34523 0.0
O551 O 0.68395 0.89402 0.37692 0.0
O552 O 0.67091 0.78116 0.38387 0.0
O553 O 0.64457 0.86018 0.41002 0.0
C554 C 0.63183 0.87072 0.33166 0.0
C555 C 0.70231 0.85087 0.25205 0.0
C556 C 0.69575 0.85298 0.20765 0.0
C557 C 0.67553 0.83632 0.23067 0.0
C558 C 0.74306 0.88416 0.20633 0.0
C559 C 0.74974 0.88068 0.25029 0.0
C560 C 0.76992 0.89745 0.22752 0.0
C561 C 0.61175 0.75139 0.33507 0.0
C562 C 0.67959 0.8369 0.27596 0.0
C563 C 0.88861 0.93654 0.31386 0.0
C564 C 0.88106 0.89324 0.31775 0.0
C565 C 0.7049 0.80206 0.36904 0.0
C566 C 0.63075 0.82245 0.44781 0.0
C567 C 0.6564 0.83628 0.46951 0.0
C568 C 0.63494 0.81926 0.49219 0.0
C569 C 0.58744 0.78863 0.49291 0.0
C570 C 0.58309 0.79331 0.4489 0.0
C571 C 0.56161 0.77628 0.47137 0.0
C572 C 0.72333 0.92032 0.36548 0.0
C573 C 0.6549 0.83645 0.42431 0.0
H574 H 0.63897 0.81261 0.23192 0.0
H575 H 0.75932 0.89751 0.18879 0.0
H576 H 0.77112 0.89131 0.26643 0.0
H577 H 0.80647 0.92087 0.2263 0.0
H578 H 0.69314 0.85952 0.46875 0.0
H579 H 0.5703 0.77497 0.51023 0.0
H580 H 0.56252 0.78341 0.4325 0.0
H581 H 0.52491 0.75331 0.47208 0.0
Tb582 Tb 0.18845 0.823 0.38119 0.0
C583 C 0.10404 0.90347 0.31403 0.0
C584 C 0.02259 0.85296 0.31933 0.0
C585 C 0.05061 0.93119 0.30997 0.0
C586 C 0.06828 0.86152 0.31921 0.0
C587 C 0.09574 0.93868 0.30862 0.0
C588 C 0.01405 0.88831 0.31533 0.0
C589 C 0.176 0.98388 0.29793 0.0
N590 N 0.14684 0.90895 0.3128 0.0
C591 C 0.18219 0.94761 0.30322 0.0
C592 C 0.13273 0.97969 0.30111 0.0
Tb593 Tb 0.15437 0.84825 0.3228 0.0
N594 N 0.07821 0.82854 0.3229 0.0
C595 C 0.04344 0.78521 0.32449 0.0
C596 C 0.98696 0.80898 0.32277 0.0
C597 C 0.99744 0.7748 0.32487 0.0
H598 H 0.21534 0.9507 0.29995 0.0
H599 H 0.97018 0.74044 0.32685 0.0
H600 H 0.97927 0.88255 0.31563 0.0
H601 H 0.20446 0.01483 0.29115 0.0
H602 H 0.05101 0.75867 0.32583 0.0
H603 H 0.34314 0.97212 0.41451 0.0
H604 H 0.95136 0.80094 0.3231 0.0
H605 H 0.17769 0.72039 0.38768 0.0
H606 H 0.26036 0.92107 0.41157 0.0
H607 H 0.22582 0.68663 0.38065 0.0
H608 H 0.04348 0.9579 0.30616 0.0
H609 H 0.39764 0.9508 0.3974 0.0
H610 H 0.40996 0.89108 0.37885 0.0
H611 H 0.12787 0.00766 0.29678 0.0
H612 H 0.37704 0.81162 0.36851 0.0
N613 N 0.266 0.87254 0.38942 0.0
C614 C 0.28294 0.9116 0.40262 0.0
C615 C 0.36096 0.92845 0.3954 0.0
C616 C 0.34373 0.88608 0.38505 0.0
C617 C 0.33033 0.94061 0.405 0.0
C618 C 0.29555 0.85827 0.38286 0.0
H619 H 0.30825 0.73426 0.37053 0.0
N620 N 0.23116 0.78718 0.37953 0.0
C621 C 0.24071 0.72248 0.37917 0.0
C622 C 0.27725 0.81381 0.37728 0.0
C623 C 0.21349 0.74207 0.38306 0.0
C624 C 0.28709 0.74942 0.37331 0.0
C625 C 0.30641 0.79583 0.37348 0.0
O626 O 0.14685 0.76776 0.40391 0.0
O627 O 0.13128 0.81772 0.35879 0.0
O628 O 0.17353 0.9069 0.34625 0.0
O629 O 0.20636 0.89359 0.38083 0.0
O630 O 0.13302 0.83201 0.39504 0.0
O631 O 0.19695 0.83215 0.41961 0.0
O632 O 0.19284 0.86195 0.29016 0.0
O633 O 0.20565 0.83895 0.34275 0.0
O634 O 0.1593 0.76192 0.35874 0.0
O635 O 0.13064 0.77632 0.32299 0.0
O636 O 0.22827 0.89282 0.32009 0.0
O637 O 0.12188 0.81242 0.29045 0.0
C638 C 0.1102 0.82674 0.37537 0.0
C639 C 0.15061 0.77245 0.44867 0.0
C640 C 0.13718 0.77992 0.49217 0.0
C641 C 0.15286 0.79933 0.4688 0.0
C642 C 0.12028 0.73398 0.49522 0.0
C643 C 0.13317 0.72655 0.45227 0.0
C644 C 0.11839 0.70758 0.47542 0.0
C645 C 0.19593 0.9192 0.36743 0.0
C646 C 0.16463 0.79122 0.42371 0.0
C647 C 0.35419 0.82455 0.37224 0.0
C648 C 0.37292 0.86976 0.37817 0.0
C649 C 0.24201 0.87211 0.33418 0.0
C650 C 0.15442 0.84821 0.25247 0.0
C651 C 0.16723 0.83288 0.23154 0.0
C652 C 0.16726 0.85027 0.2081 0.0
C653 C 0.15448 0.88317 0.20603 0.0
C654 C 0.14024 0.87982 0.24968 0.0
C655 C 0.14064 0.89741 0.22662 0.0
C656 C 0.13869 0.74993 0.33716 0.0
C657 C 0.15872 0.83305 0.27711 0.0
H658 H 0.16579 0.83476 0.46626 0.0
H659 H 0.10825 0.71849 0.513 0.0
H660 H 0.13108 0.70528 0.43714 0.0
H661 H 0.10516 0.67215 0.478 0.0
H662 H 0.17748 0.80785 0.23348 0.0
H663 H 0.15436 0.89722 0.18829 0.0
H664 H 0.12913 0.89117 0.26528 0.0
H665 H 0.13014 0.9222 0.22469 0.0
Tb666 Tb 0.81481 0.63622 0.65271 0.0
C667 C 0.89576 0.79524 0.72237 0.0
C668 C 0.97716 0.82271 0.71876 0.0
C669 C 0.94983 0.87476 0.72646 0.0
C670 C 0.93121 0.78735 0.71802 0.0
C671 C 0.90446 0.83876 0.7275 0.0
C672 C 0.98623 0.86672 0.72208 0.0
C673 C 0.82412 0.80674 0.73772 0.0
N674 N 0.8529 0.75938 0.72367 0.0
C675 C 0.81761 0.76422 0.73275 0.0
C676 C 0.86761 0.84435 0.73459 0.0
Tb677 Tb 0.84357 0.69127 0.71209 0.0
N678 N 0.9206 0.74428 0.71534 0.0
C679 C 0.95495 0.73397 0.71659 0.0
C680 C 0.01241 0.81244 0.71747 0.0
C681 C 1.0012 0.76775 0.71713 0.0
H682 H 0.78406 0.73531 0.73557 0.0
H683 H 0.02812 0.75921 0.71725 0.0
H684 H 0.02126 0.89446 0.72234 0.0
H685 H 0.79566 0.81043 0.74409 0.0
H686 H 0.94738 0.69983 0.71687 0.0
H687 H 0.62905 0.55774 0.65011 0.0
H688 H 0.04821 0.83854 0.71795 0.0
H689 H 0.87919 0.59912 0.62736 0.0
H690 H 0.70835 0.62083 0.65032 0.0
H691 H 0.87275 0.52633 0.61782 0.0
H692 H 0.95727 0.90859 0.73 0.0
H693 H 0.61444 0.48016 0.64801 0.0
H694 H 0.64653 0.42861 0.64208 0.0
H695 H 0.87273 0.87723 0.73868 0.0
H696 H 0.71361 0.41991 0.63317 0.0
N697 N 0.73923 0.57993 0.65016 0.0
C698 C 0.70288 0.58738 0.64983 0.0
C699 C 0.64949 0.50784 0.64836 0.0
C700 C 0.68676 0.50062 0.64624 0.0
C701 C 0.65761 0.55155 0.64948 0.0
C702 C 0.73162 0.5379 0.64687 0.0
H703 H 0.79841 0.45641 0.62363 0.0
N704 N 0.81066 0.57051 0.64081 0.0
C705 C 0.84337 0.5276 0.625 0.0
C706 C 0.76891 0.53296 0.64202 0.0
C707 C 0.84707 0.56877 0.63071 0.0
C708 C 0.80138 0.48823 0.62831 0.0
C709 C 0.76305 0.4907 0.63619 0.0
O710 O 0.85477 0.66453 0.62087 0.0
O711 O 0.86378 0.69456 0.6739 0.0
O712 O 0.82329 0.73018 0.68896 0.0
O713 O 0.78543 0.68039 0.65668 0.0
O714 O 0.88928 0.66712 0.64983 0.0
O715 O 0.78344 0.64395 0.62082 0.0
O716 O 0.80839 0.67641 0.74603 0.0
O717 O 0.79391 0.63371 0.69088 0.0
O718 O 0.83562 0.5969 0.67522 0.0
O719 O 0.87085 0.64539 0.70841 0.0
O720 O 0.76918 0.66037 0.71582 0.0
O721 O 0.86732 0.66865 0.74131 0.0
C722 C 0.90121 0.6995 0.66506 0.0
C723 C 0.8177 0.64369 0.5826 0.0
C724 C 0.83092 0.65753 0.53835 0.0
C725 C 0.83 0.67294 0.56227 0.0
C726 C 0.81965 0.61277 0.53526 0.0
C727 C 0.80491 0.59887 0.5787 0.0
C728 C 0.80631 0.58368 0.55522 0.0
C729 C 0.79809 0.71807 0.66875 0.0
C730 C 0.82083 0.66074 0.6078 0.0
C731 C 0.71884 0.45283 0.63723 0.0
C732 C 0.68067 0.45779 0.64229 0.0
C733 C 0.7567 0.62838 0.70033 0.0
C734 C 0.85332 0.68506 0.78122 0.0
C735 C 0.83312 0.65867 0.80227 0.0
C736 C 0.8515 0.67513 0.82574 0.0
C737 C 0.88966 0.71846 0.82777 0.0
C738 C 0.89097 0.72838 0.7838 0.0
C739 C 0.90893 0.74493 0.80698 0.0
C740 C 0.85988 0.60864 0.69579 0.0
C741 C 0.83653 0.66625 0.75665 0.0
H742 H 0.83903 0.70745 0.56504 0.0
H743 H 0.82023 0.60006 0.51718 0.0
H744 H 0.79407 0.57558 0.59377 0.0
H745 H 0.79691 0.54911 0.55246 0.0
H746 H 0.80384 0.62523 0.8004 0.0
H747 H 0.90442 0.73189 0.84557 0.0
H748 H 0.90687 0.74914 0.76787 0.0
H749 H 0.93818 0.7783 0.80883 0.0
Tb750 Tb 0.36415 0.18161 0.65185 0.0
C751 C 0.20715 0.09332 0.73212 0.0
C752 C 0.18675 0.14828 0.74474 0.0
C753 C 0.13626 0.07 0.75476 0.0
C754 C 0.21722 0.13711 0.73311 0.0
C755 C 0.16692 0.05924 0.74329 0.0
C756 C 0.14615 0.11446 0.75547 0.0
C757 C 0.19227 0.00713 0.73288 0.0
N758 N 0.23775 0.08438 0.72101 0.0
C759 C 0.23149 0.04202 0.72189 0.0
C760 C 0.1595 0.01564 0.74333 0.0
Tb761 Tb 0.30534 0.14493 0.7085 0.0
N762 N 0.25614 0.16857 0.72187 0.0
C763 C 0.26661 0.21232 0.7219 0.0
C764 C 0.1977 0.19299 0.74497 0.0
C765 C 0.23776 0.22511 0.73342 0.0
H766 H 0.25632 0.03462 0.71393 0.0
H767 H 0.24631 0.25975 0.73319 0.0
H768 H 0.12225 0.12236 0.7644 0.0
H769 H 0.18733 0.97369 0.7332 0.0
H770 H 0.29658 0.2378 0.71282 0.0
H771 H 0.43203 0.06995 0.64016 0.0
H772 H 0.1752 0.20295 0.75367 0.0
H773 H 0.41423 0.29134 0.64107 0.0
H774 H 0.37105 0.08978 0.6427 0.0
H775 H 0.49354 0.35534 0.63741 0.0
H776 H 0.1051 0.04428 0.76336 0.0
H777 H 0.51375 0.1289 0.64339 0.0
H778 H 0.57223 0.21082 0.64535 0.0
H779 H 0.12914 0.98857 0.75181 0.0
H780 H 0.58913 0.28886 0.64416 0.0
N781 N 0.41758 0.15915 0.64818 0.0
C782 C 0.40654 0.11582 0.64425 0.0
C783 C 0.48712 0.13781 0.64452 0.0
C784 C 0.49829 0.18248 0.64656 0.0
C785 C 0.44105 0.10447 0.64263 0.0
C786 C 0.46227 0.19222 0.64796 0.0
H787 H 0.55991 0.34307 0.64065 0.0
N788 N 0.43586 0.2437 0.64722 0.0
C789 C 0.48788 0.32198 0.64034 0.0
C790 C 0.4718 0.236 0.64715 0.0
C791 C 0.44309 0.28573 0.64228 0.0
C792 C 0.52527 0.31492 0.64223 0.0
C793 C 0.5175 0.27142 0.64514 0.0
O794 O 0.35668 0.2115 0.61998 0.0
O795 O 0.30183 0.16694 0.6717 0.0
O796 O 0.25749 0.09755 0.68075 0.0
O797 O 0.30971 0.1088 0.64966 0.0
O798 O 0.32925 0.22153 0.6511 0.0
O799 O 0.36121 0.15151 0.61786 0.0
O800 O 0.32454 0.11773 0.73741 0.0
O801 O 0.36582 0.15656 0.68795 0.0
O802 O 0.40684 0.23146 0.67881 0.0
O803 O 0.35307 0.21869 0.70874 0.0
O804 O 0.32993 0.09752 0.70565 0.0
O805 O 0.32892 0.1819 0.7414 0.0
C806 C 0.29334 0.19692 0.66426 0.0
C807 C 0.38314 0.19788 0.58267 0.0
C808 C 0.38088 0.19981 0.53811 0.0
C809 C 0.35927 0.1814 0.56057 0.0
C810 C 0.42717 0.23406 0.53798 0.0
C811 C 0.42957 0.23135 0.58226 0.0
C812 C 0.45147 0.24925 0.55995 0.0
C813 C 0.26764 0.08512 0.6595 0.0
C814 C 0.35739 0.18176 0.60562 0.0
C815 C 0.5537 0.26208 0.64534 0.0
C816 C 0.5441 0.21766 0.64607 0.0
C817 C 0.36697 0.12135 0.69349 0.0
C818 C 0.31545 0.13801 0.7772 0.0
C819 C 0.3428 0.16377 0.79678 0.0
C820 C 0.32963 0.14897 0.82093 0.0
C821 C 0.28783 0.1096 0.82546 0.0
C822 C 0.27415 0.09826 0.78203 0.0
C823 C 0.26005 0.08458 0.80603 0.0
C824 C 0.39406 0.24402 0.69856 0.0
C825 C 0.33328 0.15054 0.75217 0.0
H826 H 0.32342 0.15524 0.56085 0.0
H827 H 0.44448 0.24879 0.52085 0.0
H828 H 0.44872 0.24414 0.59901 0.0
H829 H 0.48721 0.27538 0.55972 0.0
H830 H 0.37519 0.19411 0.79329 0.0
H831 H 0.2771 0.09798 0.84404 0.0
H832 H 0.25342 0.07686 0.76745 0.0
H833 H 0.22816 0.05389 0.80954 0.0
Tb834 Tb 0.85445 0.15394 0.71326 0.0
C835 C 0.7764 0.24217 0.64725 0.0
C836 C 0.69412 0.19587 0.65229 0.0
C837 C 0.72718 0.27468 0.64264 0.0
C838 C 0.73867 0.20135 0.65244 0.0
C839 C 0.77118 0.27931 0.64189 0.0
C840 C 0.68868 0.233 0.64789 0.0
C841 C 0.85293 0.3222 0.63461 0.0
N842 N 0.81833 0.24526 0.64722 0.0
C843 C 0.85634 0.28439 0.64002 0.0
C844 C 0.81026 0.31981 0.63578 0.0
Tb845 Tb 0.81983 0.18069 0.65612 0.0
N846 N 0.74546 0.16641 0.65635 0.0
C847 C 0.70867 0.12419 0.65783 0.0
C848 C 0.65641 0.153 0.65573 0.0
C849 C 0.66372 0.11681 0.658 0.0
H850 H 0.88968 0.2872 0.63874 0.0
H851 H 0.63482 0.08323 0.65987 0.0
H852 H 0.65483 0.22961 0.64792 0.0
H853 H 0.88327 0.35317 0.62945 0.0
H854 H 0.71403 0.09628 0.65916 0.0
H855 H 0.04036 0.25054 0.71275 0.0
H856 H 0.62161 0.1473 0.65582 0.0
H857 H 0.78476 0.04903 0.73341 0.0
H858 H 0.96233 0.23973 0.71383 0.0
H859 H 0.79045 0.98134 0.74053 0.0
H860 H 0.72248 0.30291 0.63882 0.0
H861 H 0.05152 0.18505 0.71241 0.0
H862 H 0.01679 0.10193 0.71611 0.0
H863 H 0.80775 0.34916 0.63158 0.0
H864 H 0.94861 0.02848 0.72395 0.0
N865 N 0.92886 0.16881 0.71328 0.0
C866 C 0.96635 0.21082 0.71367 0.0
C867 C 0.017 0.18008 0.71289 0.0
C868 C 0.9786 0.13717 0.71455 0.0
C869 C 0.01086 0.2171 0.71315 0.0
C870 C 0.93442 0.13259 0.71512 0.0
H871 H 0.86428 0.98338 0.73358 0.0
N872 N 0.85435 0.08852 0.72142 0.0
C873 C 0.82028 0.0119 0.73442 0.0
C874 C 0.89605 0.09121 0.7196 0.0
C875 C 0.81725 0.05032 0.73048 0.0
C876 C 0.862 0.01318 0.73043 0.0
C877 C 0.90082 0.05339 0.72354 0.0
O878 O 0.8168 0.13141 0.74587 0.0
O879 O 0.79593 0.14745 0.69152 0.0
O880 O 0.83639 0.2353 0.6821 0.0
O881 O 0.88495 0.2267 0.70864 0.0
O882 O 0.79911 0.16197 0.72776 0.0
O883 O 0.88829 0.18443 0.74635 0.0
O884 O 0.85626 0.18932 0.62322 0.0
O885 O 0.87247 0.17298 0.67514 0.0
O886 O 0.82718 0.09355 0.69071 0.0
O887 O 0.79451 0.10798 0.65662 0.0
O888 O 0.89378 0.22437 0.65116 0.0
O889 O 0.78342 0.14739 0.62398 0.0
C890 C 0.77542 0.15619 0.70856 0.0
C891 C 0.85523 0.14394 0.78359 0.0
C892 C 0.84033 0.14025 0.82772 0.0
C893 C 0.84295 0.15948 0.80457 0.0
C894 C 0.85044 0.10546 0.82954 0.0
C895 C 0.86642 0.11014 0.78598 0.0
C896 C 0.86386 0.09094 0.80886 0.0
C897 C 0.86504 0.24937 0.70101 0.0
C898 C 0.85105 0.16012 0.75933 0.0
C899 C 0.94436 0.0573 0.72135 0.0
C900 C 0.98319 0.09911 0.71685 0.0
C901 C 0.90857 0.20489 0.66545 0.0
C902 C 0.8182 0.18214 0.58617 0.0
C903 C 0.83009 0.16682 0.56496 0.0
C904 C 0.83278 0.18676 0.542 0.0
C905 C 0.8234 0.22204 0.5406 0.0
C906 C 0.8079 0.21662 0.58416 0.0
C907 C 0.81068 0.23654 0.56151 0.0
C908 C 0.80516 0.08185 0.66955 0.0
C909 C 0.82005 0.16412 0.61036 0.0
H910 H 0.83454 0.18584 0.80284 0.0
H911 H 0.84859 0.09002 0.8471 0.0
H912 H 0.8764 0.09809 0.77021 0.0
H913 H 0.87203 0.06448 0.81056 0.0
H914 H 0.83772 0.13989 0.56632 0.0
H915 H 0.82529 0.23792 0.52318 0.0
H916 H 0.79811 0.22848 0.60005 0.0
H917 H 0.80304 0.2634 0.56016 0.0
C918 C 0.3395 0.85182 0.0584 0.0
C919 C 0.30183 0.85856 0.06282 0.0
C920 C 0.34555 0.93373 0.04522 0.0
C921 C 0.38306 0.92663 0.03957 0.0
N922 N 0.4084 0.8726 0.0353 0.0
N923 N 0.26419 0.90072 0.05417 0.0
C924 C 0.37764 0.88364 0.04428 0.0
C925 C 0.30332 0.89781 0.05413 0.0
N926 N 0.34018 0.81616 0.06881 0.0
N927 N 0.35074 0.97548 0.04336 0.0
H928 H 0.23268 0.87512 0.06062 0.0
H929 H 0.26196 0.92652 0.0456 0.0
H930 H 0.38047 0.00318 0.03687 0.0
H931 H 0.32677 0.98351 0.05015 0.0
H932 H 0.36917 0.81252 0.06879 0.0
H933 H 0.31325 0.79228 0.07944 0.0
H934 H 0.40323 0.84026 0.03568 0.0
H935 H 0.43692 0.89482 0.02537 0.0
C936 C 0.15905 0.49377 0.0603 0.0
C937 C 0.15371 0.45054 0.06145 0.0
C938 C 0.07919 0.42003 0.04039 0.0
C939 C 0.08435 0.4636 0.03881 0.0
N940 N 0.13727 0.54302 0.04112 0.0
N941 N 0.11357 0.37381 0.04838 0.0
C942 C 0.12669 0.50078 0.04693 0.0
C943 C 0.11519 0.41405 0.05021 0.0
N944 N 0.19436 0.52816 0.07276 0.0
N945 N 0.03954 0.38406 0.03221 0.0
H946 H 0.13896 0.36812 0.0556 0.0
H947 H 0.08915 0.34703 0.03813 0.0
H948 H 0.01612 0.38774 0.02144 0.0
H949 H 0.02981 0.35102 0.03616 0.0
H950 H 0.19674 0.5591 0.0754 0.0
H951 H 0.21941 0.52469 0.0822 0.0
H952 H 0.16937 0.57118 0.04404 0.0
H953 H 0.11576 0.54902 0.03049 0.0
C954 C 0.51213 0.67331 0.06203 0.0
C955 C 0.5579 0.70488 0.06872 0.0
C956 C 0.57964 0.64811 0.06304 0.0
C957 C 0.53676 0.6189 0.05153 0.0
N958 N 0.46118 0.60643 0.0397 0.0
N959 N 0.63788 0.72525 0.06857 0.0
C960 C 0.50286 0.63253 0.05061 0.0
C961 C 0.59256 0.69332 0.06672 0.0
N962 N 0.47699 0.6809 0.06784 0.0
N963 N 0.60631 0.63266 0.07284 0.0
H964 H 0.64869 0.75917 0.07021 0.0
H965 H 0.66435 0.71831 0.06553 0.0
H966 H 0.59278 0.59934 0.07743 0.0
H967 H 0.63743 0.65339 0.08165 0.0
H968 H 0.4424 0.65682 0.0659 0.0
H969 H 0.48204 0.70957 0.07691 0.0
H970 H 0.43881 0.61814 0.03544 0.0
H971 H 0.44907 0.57369 0.03417 0.0
C972 C 0.87598 0.28957 0.98693 0.0
C973 C 0.85068 0.28932 0.96606 0.0
C974 C 0.89216 0.3714 0.96618 0.0
C975 C 0.9143 0.37168 0.98853 0.0
N976 N 0.92145 0.33013 0.02212 0.0
N977 N 0.82821 0.32946 0.93849 0.0
C978 C 0.90428 0.33046 0.99953 0.0
C979 C 0.85711 0.33012 0.95635 0.0
N980 N 0.87448 0.25096 0.99415 0.0
N981 N 0.90445 0.41052 0.95419 0.0
H982 H 0.80176 0.29997 0.93103 0.0
H983 H 0.8276 0.35787 0.93267 0.0
H984 H 0.92722 0.44183 0.96138 0.0
H985 H 0.89408 0.41187 0.93638 0.0
H986 H 0.89598 0.24986 1.00754 0.0
H987 H 0.85477 0.22049 0.9852 0.0
H988 H 0.91094 0.30118 0.03237 0.0
H989 H 0.94358 0.35923 0.03147 0.0
C990 C 0.65822 0.51281 0.95743 0.0
C991 C 0.70139 0.54166 0.96882 0.0
C992 C 0.65977 0.53063 1.00696 0.0
C993 C 0.6179 0.51631 0.99476 0.0
N994 N 0.57546 0.481 0.9582 0.0
N995 N 0.74028 0.58327 1.00555 0.0
C996 C 0.61664 0.50384 0.9697 0.0
C997 C 0.70114 0.55345 0.9937 0.0
N998 N 0.6567 0.4919 0.93589 0.0
N999 N 0.65991 0.5072 0.02674 0.0
H1000 H 0.77151 0.6026 0.99649 0.0
H1001 H 0.73961 0.59056 0.02409 0.0
H1002 H 0.63019 0.47748 0.03121 0.0
H1003 H 0.6905 0.51263 0.03483 0.0
H1004 H 0.62633 0.46766 0.92778 0.0
H1005 H 0.68602 0.49532 0.9273 0.0
H1006 H 0.57167 0.47516 0.93938 0.0
H1007 H 0.54506 0.4677 0.96813 0.0
C1008 C 0.49005 0.16272 0.97414 0.0
C1009 C 0.44773 0.14992 0.96256 0.0
C1010 C 0.41578 0.07561 0.98125 0.0
C1011 C 0.45787 0.09002 0.99429 0.0
N1012 N 0.52005 0.157 1.01247 0.0
N1013 N 0.36639 0.09702 0.95982 0.0
C1014 C 0.49118 0.1363 0.99342 0.0
C1015 C 0.40938 0.10697 0.96725 0.0
N1016 N 0.52918 0.2008 0.96735 0.0
N1017 N 0.38086 0.03263 0.9832 0.0
H1018 H 0.3599 0.11949 0.95037 0.0
H1019 H 0.33646 0.06799 0.96491 0.0
H1020 H 0.37971 0.01198 0.99726 0.0
H1021 H 0.35306 0.01812 0.97117 0.0
H1022 H 0.56127 0.20956 0.97475 0.0
H1023 H 0.5301 0.22072 0.95273 0.0
H1024 H 0.54257 0.19145 0.01305 0.0
H1025 H 0.51573 0.14108 0.02904 0.0
C1026 C 0.6683 0.15911 0.97399 0.0
C1027 C 0.70057 0.14484 0.96949 0.0
C1028 C 0.6461 0.07121 0.98658 0.0
C1029 C 0.61466 0.08614 0.9923 0.0
N1030 N 0.60233 0.14815 0.99722 0.0
N1031 N 0.72453 0.09075 0.97693 0.0
C1032 C 0.62814 0.13146 0.9879 0.0
C1033 C 0.69085 0.10194 0.97753 0.0
N1034 N 0.6744 0.19782 0.96373 0.0
N1035 N 0.6325 0.02714 0.9889 0.0
H1036 H 0.75777 0.11257 0.97067 0.0
H1037 H 0.72074 0.06157 0.98471 0.0
H1038 H 0.60117 0.00492 0.99682 0.0
H1039 H 0.65106 0.01275 0.98204 0.0
H1040 H 0.64945 0.20731 0.96428 0.0
H1041 H 0.70233 0.21831 0.95256 0.0
H1042 H 0.61242 0.18198 0.99697 0.0
H1043 H 0.5739 0.12832 1.008 0.0
C1044 C 0.89511 0.58819 0.98007 0.0
C1045 C 0.85682 0.55197 0.9685 0.0
C1046 C 0.8836 0.50143 0.98289 0.0
C1047 C 0.92578 0.53843 0.99123 0.0
N1048 N 0.97053 0.61782 0.99835 0.0
N1049 N 0.81711 0.47471 0.95629 0.0
C1050 C 0.93102 0.58204 0.98987 0.0
C1051 C 0.85167 0.50875 0.96931 0.0
N1052 N 0.89641 0.62822 0.9824 0.0
N1053 N 0.87271 0.45908 0.98867 0.0
H1054 H 0.79281 0.47851 0.94629 0.0
H1055 H 0.81495 0.44386 0.95361 0.0
H1056 H 0.89397 0.45279 0.99938 0.0
H1057 H 0.84054 0.4311 0.9856 0.0
H1058 H 0.92063 0.65467 0.99292 0.0
H1059 H 0.87092 0.63394 0.97537 0.0
H1060 H 0.98022 0.65094 0.99465 0.0
H1061 H 0.99394 0.61396 1.00904 0.0
C1062 C 0.50404 0.33362 0.96473 0.0
C1063 C 0.458 0.29835 0.96253 0.0
C1064 C 0.43219 0.33667 0.99047 0.0
C1065 C 0.47754 0.37356 0.99125 0.0
N1066 N 0.5587 0.39951 0.98687 0.0
N1067 N 0.37725 0.26687 0.97129 0.0
C1068 C 0.51422 0.37001 0.98058 0.0
C1069 C 0.42174 0.30006 0.97481 0.0
N1070 N 0.53779 0.33298 0.95097 0.0
N1071 N 0.40052 0.3345 1.00688 0.0
H1072 H 0.36842 0.23837 0.9609 0.0
H1073 H 0.34891 0.26894 0.97724 0.0
H1074 H 0.40966 0.35809 0.02075 0.0
H1075 H 0.36768 0.30701 1.00897 0.0
H1076 H 0.57094 0.3602 0.94933 0.0
H1077 H 0.53171 0.30644 0.93947 0.0
H1078 H 0.58657 0.39595 0.98175 0.0
H1079 H 0.56773 0.42531 0.99931 0.0
C1080 C 0.15012 0.66741 0.07528 0.0
C1081 C 0.15733 0.70887 0.06618 0.0
C1082 C 0.10464 0.6697 0.03201 0.0
C1083 C 0.09352 0.62789 0.04254 0.0
N1084 N 0.10152 0.58704 0.07641 0.0
N1085 N 0.13418 0.74877 0.03874 0.0
C1086 C 0.11483 0.62681 0.06492 0.0
C1087 C 0.13262 0.70984 0.04529 0.0
N1088 N 0.17849 0.66677 0.09305 0.0
N1089 N 0.08889 0.67133 1.00921 0.0
H1090 H 0.15318 0.77862 0.04835 0.0
H1091 H 0.11311 0.75051 0.02529 0.0
H1092 H 0.06746 0.64276 0.99922 0.0
H1093 H 0.10016 0.7009 0.99943 0.0
H1094 H 0.17836 0.63782 0.09849 0.0
H1095 H 0.20528 0.69574 0.10077 0.0
H1096 H 0.11141 0.5847 0.09419 0.0
H1097 H 0.07841 0.5562 0.0688 0.0
C1098 C 0.34536 0.48598 0.06697 0.0
C1099 C 0.30253 0.44757 0.06182 0.0
C1100 C 0.34181 0.41935 0.03527 0.0
C1101 C 0.38561 0.45759 0.0407 0.0
N1102 N 0.42728 0.51828 0.06939 0.0
N1103 N 0.25829 0.38072 0.03823 0.0
C1104 C 0.3869 0.4889 0.05835 0.0
C1105 C 0.30035 0.41516 0.04515 0.0
N1106 N 0.34649 0.52034 0.07998 0.0
N1107 N 0.34001 0.38517 0.02189 0.0
H1108 H 0.22745 0.37524 0.04593 0.0
H1109 H 0.25335 0.35928 0.02369 0.0
H1110 H 0.3685 0.38805 0.0129 0.0
H1111 H 0.31113 0.3535 0.02045 0.0
H1112 H 0.37603 0.55158 0.08169 0.0
H1113 H 0.31702 0.51908 0.08712 0.0
H1114 H 0.4295 0.53735 0.08467 0.0
H1115 H 0.4583 0.52081 0.06481 0.0
C1116 C 0.5247 0.85542 0.0713 0.0
C1117 C 0.56292 0.85165 0.06373 0.0
C1118 C 0.57533 0.90145 0.02902 0.0
C1119 C 0.5405 0.9096 0.03815 0.0
N1120 N 0.48667 0.89883 0.07079 0.0
N1121 N 0.62919 0.87581 0.03778 0.0
C1122 C 0.51653 0.88785 0.0601 0.0
C1123 C 0.58945 0.87588 0.0432 0.0
N1124 N 0.49526 0.82703 0.08873 0.0
N1125 N 0.59485 0.91776 1.00677 0.0
H1126 H 0.64057 0.85745 0.04778 0.0
H1127 H 0.65291 0.89686 0.02481 0.0
H1128 H 0.58574 0.93682 0.99616 0.0
H1129 H 0.61661 0.90892 0.99789 0.0
H1130 H 0.4638 0.8246 0.09289 0.0
H1131 H 0.50011 0.80288 0.0975 0.0
H1132 H 0.47328 0.8886 0.08835 0.0
H1133 H 0.47752 0.92072 0.063 0.0
C1134 C 0.00488 0.18606 0.39428 0.0
C1135 C 0.9664 0.19197 0.39706 0.0
C1136 C 0.0091 0.26545 0.3776 0.0
C1137 C 0.0474 0.25886 0.3731 0.0
N1138 N 0.07445 0.2057 0.37235 0.0
N1139 N 0.92728 0.23141 0.38539 0.0
C1140 C 0.04298 0.2169 0.37983 0.0
C1141 C 0.96702 0.22968 0.38668 0.0
N1142 N 0.00608 0.15197 0.40635 0.0
N1143 N 0.01322 0.3066 0.37468 0.0
H1144 H 0.8959 0.20606 0.39213 0.0
H1145 H 0.92458 0.25581 0.37551 0.0
H1146 H 0.04287 0.33467 0.36855 0.0
H1147 H 0.98832 0.31408 0.3806 0.0
H1148 H 0.03557 0.14928 0.40758 0.0
H1149 H 0.97885 0.12854 0.41701 0.0
H1150 H 0.07014 0.17382 0.37429 0.0
H1151 H 0.10227 0.22669 0.36175 0.0
C1152 C 0.77898 0.74873 0.3834 0.0
C1153 C 0.8178 0.78483 0.39468 0.0
C1154 C 0.79053 0.83566 0.38137 0.0
C1155 C 0.74815 0.79879 0.37306 0.0
N1156 N 0.70341 0.71964 0.3654 0.0
N1157 N 0.85891 0.86216 0.40658 0.0
C1158 C 0.74301 0.75518 0.37395 0.0
C1159 C 0.82324 0.82817 0.39409 0.0
N1160 N 0.77707 0.7084 0.38119 0.0
N1161 N 0.80068 0.87811 0.37645 0.0
H1162 H 0.88418 0.85837 0.41556 0.0
H1163 H 0.86151 0.89308 0.40971 0.0
H1164 H 0.77861 0.88451 0.36657 0.0
H1165 H 0.83278 0.90625 0.37939 0.0
H1166 H 0.75238 0.68181 0.37094 0.0
H1167 H 0.80242 0.70241 0.38815 0.0
H1168 H 0.69351 0.68639 0.36883 0.0
H1169 H 0.68023 0.72392 0.35474 0.0
C1170 C 0.26489 0.04553 0.37874 0.0
C1171 C 0.24022 0.04989 0.39859 0.0
C1172 C 0.18795 0.96926 0.39884 0.0
C1173 C 0.20988 0.96462 0.3775 0.0
N1174 N 0.26601 0.00018 0.34527 0.0
N1175 N 0.17273 0.01789 0.42418 0.0
C1176 C 0.24726 0.0034 0.36682 0.0
C1177 C 0.20017 0.01235 0.40766 0.0
N1178 N 0.30606 0.08132 0.37186 0.0
N1179 N 0.15604 0.93265 0.41128 0.0
H1180 H 0.1806 0.04891 0.43135 0.0
H1181 H 0.14004 0.99237 0.42909 0.0
H1182 H 0.14366 0.90063 0.40493 0.0
H1183 H 0.14405 0.93403 0.4287 0.0
H1184 H 0.32841 0.07917 0.35942 0.0
H1185 H 0.31977 0.11267 0.38011 0.0
H1186 H 0.28944 0.02771 0.33508 0.0
H1187 H 0.25572 0.96986 0.33664 0.0
C1188 C 0.53677 0.62623 0.3219 0.0
C1189 C 0.51048 0.627 0.30177 0.0
C1190 C 0.55527 0.70891 0.30139 0.0
C1191 C 0.57812 0.70831 0.32325 0.0
N1192 N 0.58499 0.66584 0.35644 0.0
N1193 N 0.48861 0.6689 0.27517 0.0
C1194 C 0.56702 0.66678 0.3342 0.0
C1195 C 0.51814 0.66832 0.29223 0.0
N1196 N 0.53446 0.58702 0.32862 0.0
N1197 N 0.56884 0.74816 0.28926 0.0
H1198 H 0.4605 0.6399 0.26833 0.0
H1199 H 0.48928 0.69802 0.26954 0.0
H1200 H 0.59361 0.77915 0.29597 0.0
H1201 H 0.55744 0.74975 0.27173 0.0
H1202 H 0.5565 0.58524 0.34141 0.0
H1203 H 0.51353 0.55673 0.31976 0.0
H1204 H 0.57393 0.63674 0.36664 0.0
H1205 H 0.6083 0.69467 0.36564 0.0
C1206 C 0.37034 0.91881 0.32106 0.0
C1207 C 0.36898 0.88614 0.30477 0.0
C1208 C 0.28497 0.8423 0.30917 0.0
C1209 C 0.28586 0.8734 0.32671 0.0
N1210 N 0.32871 0.94686 0.34455 0.0
N1211 N 0.32653 0.81263 0.28718 0.0
C1212 C 0.32856 0.91313 0.33139 0.0
C1213 C 0.32677 0.84669 0.30006 0.0
N1214 N 0.41188 0.95491 0.32715 0.0
N1215 N 0.24437 0.81146 0.29882 0.0
H1216 H 0.35627 0.81469 0.27988 0.0
H1217 H 0.29752 0.78096 0.28568 0.0
H1218 H 0.21258 0.80561 0.30493 0.0
H1219 H 0.24233 0.79319 0.2832 0.0
H1220 H 0.41641 0.97693 0.3413 0.0
H1221 H 0.44279 0.96145 0.31906 0.0
H1222 H 0.35671 0.97913 0.3457 0.0
H1223 H 0.29982 0.94299 0.3538 0.0
C1224 C 0.15215 0.49486 0.30295 0.0
C1225 C 0.10586 0.48249 0.2984 0.0
C1226 C 0.0806 0.4086 0.31594 0.0
C1227 C 0.12693 0.422 0.3226 0.0
N1228 N 0.20566 0.48426 0.32701 0.0
N1229 N 0.02528 0.43121 0.30486 0.0
C1230 C 0.16228 0.46704 0.3177 0.0
C1231 C 0.06986 0.44031 0.306 0.0
N1232 N 0.18686 0.53237 0.29216 0.0
N1233 N 0.04629 0.36567 0.31935 0.0
H1234 H 0.01599 0.45372 0.29795 0.0
H1235 H 0.99781 0.4031 0.31279 0.0
H1236 H 0.05071 0.34299 0.32956 0.0
H1237 H 0.01389 0.35226 0.31134 0.0
H1238 H 0.22112 0.54014 0.29239 0.0
H1239 H 0.18101 0.55329 0.2808 0.0
H1240 H 0.22949 0.51839 0.32694 0.0
H1241 H 0.21796 0.46604 0.33605 0.0
C1242 C 0.36504 0.44649 0.32072 0.0
C1243 C 0.36338 0.47917 0.30582 0.0
C1244 C 0.27956 0.44064 0.30986 0.0
C1245 C 0.28053 0.4082 0.32565 0.0
N1246 N 0.32375 0.37457 0.3408 0.0
N1247 N 0.32111 0.5133 0.2905 0.0
C1248 C 0.32334 0.40985 0.32975 0.0
C1249 C 0.32131 0.47817 0.3019 0.0
N1250 N 0.40676 0.45113 0.32669 0.0
N1251 N 0.23915 0.43286 0.29962 0.0
H1252 H 0.35088 0.5409 0.28378 0.0
H1253 H 0.29211 0.51689 0.28973 0.0
H1254 H 0.20751 0.40576 0.30417 0.0
H1255 H 0.23728 0.45152 0.28512 0.0
H1256 H 0.41114 0.4318 0.33987 0.0
H1257 H 0.4378 0.47686 0.31986 0.0
H1258 H 0.35212 0.37002 0.34111 0.0
H1259 H 0.29472 0.3485 0.34896 0.0
C1260 C 0.55864 0.92453 0.3167 0.0
C1261 C 0.52044 0.8887 0.3049 0.0
C1262 C 0.54692 0.83753 0.31851 0.0
C1263 C 0.58897 0.87423 0.32722 0.0
N1264 N 0.63351 0.95322 0.33551 0.0
N1265 N 0.48013 0.81171 0.29221 0.0
C1266 C 0.59423 0.91789 0.32649 0.0
C1267 C 0.51501 0.84537 0.30529 0.0
N1268 N 0.56029 0.96472 0.31909 0.0
N1269 N 0.53619 0.79496 0.32359 0.0
H1270 H 0.45545 0.81572 0.28273 0.0
H1271 H 0.47782 0.78092 0.28906 0.0
H1272 H 0.5575 0.78821 0.33396 0.0
H1273 H 0.50408 0.76704 0.3203 0.0
H1274 H 0.58446 0.991 0.32972 0.0
H1275 H 0.5352 0.97083 0.31184 0.0
H1276 H 0.64341 0.98654 0.33231 0.0
H1277 H 0.65646 0.94874 0.34625 0.0
C1278 C 0.07093 0.63062 0.31185 0.0
C1279 C 0.10705 0.62718 0.30052 0.0
C1280 C 0.16367 0.69912 0.31801 0.0
C1281 C 0.12751 0.70548 0.32694 0.0
N1282 N 0.04647 0.677 0.33276 0.0
N1283 N 0.18705 0.66016 0.28972 0.0
C1284 C 0.081 0.6711 0.32389 0.0
C1285 C 0.15323 0.66189 0.30284 0.0
N1286 N 0.02731 0.59454 0.31183 0.0
N1287 N 0.20815 0.72816 0.32434 0.0
H1288 H 0.18083 0.63331 0.27845 0.0
H1289 H 0.2205 0.68697 0.28825 0.0
H1290 H 0.2178 0.75687 0.33452 0.0
H1291 H 0.23519 0.72221 0.32104 0.0
H1292 H 1.00014 0.59295 0.32183 0.0
H1293 H 0.01873 0.56451 0.30309 0.0
H1294 H 0.0119 0.65662 0.32838 0.0
H1295 H 0.05296 0.70344 0.34422 0.0
C1296 C 0.81366 0.00243 0.4102 0.0
C1297 C 0.821 0.04388 0.40105 0.0
C1298 C 0.76747 0.0049 0.36724 0.0
C1299 C 0.75654 0.96311 0.37773 0.0
N1300 N 0.76469 0.92215 0.4115 0.0
N1301 N 0.7979 0.08413 0.37385 0.0
C1302 C 0.77807 0.96192 0.39999 0.0
C1303 C 0.796 0.04502 0.38036 0.0
N1304 N 0.84214 0.00172 0.42788 0.0
N1305 N 0.75099 0.00652 0.34466 0.0
H1306 H 0.81751 0.11405 0.38332 0.0
H1307 H 0.77667 0.08607 0.36059 0.0
H1308 H 0.72886 0.97795 0.33488 0.0
H1309 H 0.76214 0.03602 0.33483 0.0
H1310 H 0.84191 0.97271 0.43331 0.0
H1311 H 0.86904 0.03065 0.43556 0.0
H1312 H 0.77481 0.91981 0.42923 0.0
H1313 H 0.74126 0.89134 0.404 0.0
C1314 C 0.98114 0.75497 0.38999 0.0
C1315 C 0.97047 0.78861 0.39625 0.0
C1316 C 0.04684 0.84557 0.38137 0.0
C1317 C 0.05987 0.81249 0.37786 0.0
N1318 N 0.04077 0.73601 0.38443 0.0
N1319 N 0.99671 0.86693 0.40192 0.0
C1320 C 0.02722 0.76718 0.38358 0.0
C1321 C 0.00414 0.83417 0.39282 0.0
N1322 N 0.94711 0.71118 0.3899 0.0
N1323 N 0.07523 0.88828 0.37373 0.0
H1324 H 0.96654 0.86033 0.41089 0.0
H1325 H 0.02212 0.90049 0.40274 0.0
H1326 H 0.10677 0.89805 0.36574 0.0
H1327 H 0.06557 0.91258 0.37294 0.0
H1328 H 0.95183 0.68555 0.38313 0.0
H1329 H 0.91307 0.70106 0.3944 0.0
H1330 H 0.02023 0.70394 0.39145 0.0
H1331 H 0.07375 0.74316 0.37965 0.0
C1332 C 0.20326 0.1956 0.4064 0.0
C1333 C 0.24203 0.19439 0.39708 0.0
C1334 C 0.24783 0.24325 0.36311 0.0
C1335 C 0.21199 0.24814 0.37376 0.0
N1336 N 0.15918 0.2334 0.40736 0.0
N1337 N 0.30565 0.2216 0.3689 0.0
C1338 C 0.19086 0.22571 0.39599 0.0
C1339 C 0.2655 0.21939 0.37602 0.0
N1340 N 0.1771 0.16658 0.42452 0.0
N1341 N 0.26486 0.26111 0.34062 0.0
H1342 H 0.3196 0.20451 0.37795 0.0
H1343 H 0.32717 0.24319 0.35537 0.0
H1344 H 0.25444 0.28065 0.33122 0.0
H1345 H 0.28689 0.25413 0.33057 0.0
H1346 H 0.14548 0.16227 0.43013 0.0
H1347 H 0.18483 0.14374 0.43253 0.0
H1348 H 0.14719 0.22268 0.42509 0.0
H1349 H 0.14694 0.25311 0.39981 0.0
C1350 C 0.66813 0.51578 0.72709 0.0
C1351 C 0.62957 0.52186 0.72933 0.0
C1352 C 0.67117 0.59242 0.70646 0.0
C1353 C 0.71032 0.58674 0.70431 0.0
N1354 N 0.73783 0.53437 0.70531 0.0
N1355 N 0.59031 0.56079 0.71693 0.0
C1356 C 0.70632 0.54579 0.7124 0.0
C1357 C 0.62987 0.55866 0.71769 0.0
N1358 N 0.66924 0.48227 0.73984 0.0
N1359 N 0.67376 0.6306 0.69771 0.0
H1360 H 0.55978 0.53702 0.72526 0.0
H1361 H 0.58651 0.58408 0.70663 0.0
H1362 H 0.70064 0.65266 0.68646 0.0
H1363 H 0.64998 0.64065 0.70172 0.0
H1364 H 0.69867 0.47955 0.74139 0.0
H1365 H 0.64195 0.45937 0.75067 0.0
H1366 H 0.73428 0.50302 0.70831 0.0
H1367 H 0.76459 0.55451 0.6938 0.0
C1368 C 0.44477 0.07177 0.70821 0.0
C1369 C 0.47882 0.10542 0.72333 0.0
C1370 C 0.44163 0.15066 0.7184 0.0
C1371 C 0.4085 0.1185 0.70191 0.0
N1372 N 0.37196 0.04256 0.6868 0.0
N1373 N 0.51544 0.18073 0.73862 0.0
C1374 C 0.4085 0.07746 0.69831 0.0
C1375 C 0.47904 0.146 0.72699 0.0
N1376 N 0.44782 0.03468 0.70282 0.0
N1377 N 0.43442 0.18249 0.72876 0.0
H1378 H 0.54298 0.17842 0.74578 0.0
H1379 H 0.52021 0.21294 0.73917 0.0
H1380 H 0.40734 0.18714 0.72406 0.0
H1381 H 0.4531 0.20184 0.74371 0.0
H1382 H 0.42798 0.01133 0.68954 0.0
H1383 H 0.47283 0.02879 0.71038 0.0
H1384 H 0.36639 0.01013 0.68636 0.0
H1385 H 0.3451 0.04504 0.67884 0.0
C1386 C 0.85955 0.35256 0.72472 0.0
C1387 C 0.90582 0.38134 0.73156 0.0
C1388 C 0.92095 0.32017 0.7251 0.0
C1389 C 0.87755 0.29391 0.71298 0.0
N1390 N 0.80687 0.29241 0.69948 0.0
N1391 N 0.98366 0.39526 0.73186 0.0
C1392 C 0.84759 0.31252 0.71184 0.0
C1393 C 0.93764 0.36621 0.72933 0.0
N1394 N 0.82589 0.3614 0.732 0.0
N1395 N 0.94451 0.30145 0.73514 0.0
H1396 H 0.99717 0.42947 0.73459 0.0
H1397 H 0.00822 0.3858 0.72856 0.0
H1398 H 0.92882 0.2679 0.73968 0.0
H1399 H 0.97573 0.32018 0.74427 0.0
H1400 H 0.79093 0.3388 0.72959 0.0
H1401 H 0.83216 0.38851 0.74303 0.0
H1402 H 0.78944 0.30939 0.69502 0.0
H1403 H 0.78955 0.25941 0.694 0.0
C1404 C 0.1751 0.96354 0.6525 0.0
C1405 C 0.1711 0.95485 0.62692 0.0
C1406 C 0.23115 0.03343 0.621 0.0
C1407 C 0.23089 0.04265 0.64669 0.0
N1408 N 0.17297 0.01761 0.67865 0.0
N1409 N 0.18224 0.99049 0.5873 0.0
C1410 C 0.19461 0.00824 0.66052 0.0
C1411 C 0.19555 0.99226 0.61114 0.0
N1412 N 0.16089 0.9302 0.66939 0.0
N1413 N 0.2628 0.06381 0.60535 0.0
H1414 H 0.15252 0.9635 0.58017 0.0
H1415 H 0.19686 0.0183 0.57577 0.0
H1416 H 0.28402 0.09678 0.60984 0.0
H1417 H 0.26723 0.05548 0.58756 0.0
H1418 H 0.16431 0.93707 0.68817 0.0
H1419 H 0.15112 0.8974 0.66462 0.0
H1420 H 0.14422 0.99221 0.68758 0.0
H1421 H 0.17854 0.04973 0.68159 0.0
C1422 C 0.99277 0.17553 0.63345 0.0
C1423 C 0.03477 0.21627 0.63599 0.0
C1424 C 0.99479 0.24724 0.65998 0.0
C1425 C 0.95238 0.20598 0.65783 0.0
N1426 N 0.91002 0.13837 0.63405 0.0
N1427 N 0.07795 0.28854 0.65488 0.0
C1428 C 0.95111 0.17177 0.64259 0.0
C1429 C 0.03631 0.25144 0.65016 0.0
N1430 N 0.99255 0.13996 0.62235 0.0
N1431 N 0.99491 0.2835 0.67018 0.0
H1432 H 0.1088 0.29319 0.64763 0.0
H1433 H 0.08265 0.31304 0.66752 0.0
H1434 H 0.96595 0.28202 0.67816 0.0
H1435 H 0.02283 0.31587 0.66944 0.0
H1436 H 0.96417 0.10775 0.62262 0.0
H1437 H 0.02194 0.14182 0.6147 0.0
H1438 H 0.90713 0.11669 0.61999 0.0
H1439 H 0.87853 0.1342 0.63953 0.0
C1440 C 0.80252 0.80493 0.62427 0.0
C1441 C 0.76617 0.81055 0.63329 0.0
C1442 C 0.75449 0.75995 0.66746 0.0
C1443 C 0.78755 0.75065 0.65705 0.0
N1444 N 0.8396 0.76047 0.62383 0.0
N1445 N 0.70248 0.78855 0.66099 0.0
C1446 C 0.81036 0.77186 0.63487 0.0
C1447 C 0.74076 0.78677 0.65424 0.0
N1448 N 0.831 0.83267 0.60633 0.0
N1449 N 0.73653 0.74364 0.69005 0.0
H1450 H 0.69123 0.80765 0.65162 0.0
H1451 H 0.67962 0.7682 0.67447 0.0
H1452 H 0.74464 0.72274 0.69985 0.0
H1453 H 0.71645 0.75347 0.69985 0.0
H1454 H 0.8613 0.8337 0.601 0.0
H1455 H 0.82674 0.8577 0.59823 0.0
H1456 H 0.85224 0.77017 0.6061 0.0
H1457 H 0.84947 0.73928 0.63186 0.0
C1458 C 0.98712 0.81021 0.63623 0.0
C1459 C 0.02614 0.80491 0.63429 0.0
C1460 C 0.98665 0.73629 0.65885 0.0
C1461 C 0.94715 0.74136 0.66087 0.0
N1462 N 0.91939 0.7935 0.65933 0.0
N1463 N 0.06779 0.76958 0.64905 0.0
C1464 C 0.95024 0.78147 0.65196 0.0
C1465 C 0.02736 0.76997 0.64726 0.0
N1466 N 0.98429 0.84164 0.62232 0.0
N1467 N 0.98498 0.69872 0.6679 0.0
H1468 H 0.09829 0.79367 0.64085 0.0
H1469 H 0.07224 0.74778 0.66037 0.0
H1470 H 0.95831 0.67649 0.67918 0.0
H1471 H 0.00926 0.68927 0.66391 0.0
H1472 H 0.95433 0.84348 0.62087 0.0
H1473 H 0.0105 0.86327 0.61052 0.0
H1474 H 0.92241 0.82438 0.65542 0.0
H1475 H 0.89444 0.77488 0.67206 0.0
C1476 C 0.19405 0.21638 0.65796 0.0
C1477 C 0.1835 0.2109 0.63252 0.0
C1478 C 0.23676 0.18137 0.62853 0.0
C1479 C 0.247 0.18825 0.65401 0.0
N1480 N 0.19234 0.16378 0.68595 0.0
N1481 N 0.18282 0.17075 0.59597 0.0
C1482 C 0.21569 0.19418 0.66827 0.0
C1483 C 0.20161 0.18849 0.61826 0.0
N1484 N 0.18147 0.23999 0.67288 0.0
N1485 N 0.25795 0.16445 0.61471 0.0
H1486 H 0.15371 0.17059 0.58928 0.0
H1487 H 0.19241 0.15161 0.58546 0.0
H1488 H 0.27519 0.15043 0.62334 0.0
H1489 H 0.25748 0.16363 0.59561 0.0
H1490 H 0.18831 0.24243 0.69167 0.0
H1491 H 0.16833 0.25963 0.66619 0.0
H1492 H 0.16424 0.16264 0.69491 0.0
H1493 H 0.19639 0.13587 0.68774 0.0
C1494 C 0.7363 0.96334 0.64312 0.0
C1495 C 0.77246 0.95759 0.63396 0.0
C1496 C 0.82907 0.02812 0.65288 0.0
C1497 C 0.79333 0.03729 0.6591 0.0
N1498 N 0.7124 0.01302 0.65995 0.0
N1499 N 0.85331 0.98698 0.62679 0.0
C1500 C 0.7468 0.00476 0.65398 0.0
C1501 C 0.81885 0.99053 0.63804 0.0
N1502 N 0.69204 0.92837 0.64255 0.0
N1503 N 0.87284 0.05473 0.66127 0.0
H1504 H 0.84724 0.96005 0.61563 0.0
H1505 H 0.88751 0.01263 0.62667 0.0
H1506 H 0.88343 0.08432 0.67074 0.0
H1507 H 0.89827 0.04592 0.66014 0.0
H1508 H 0.6646 0.92872 0.65122 0.0
H1509 H 0.68314 0.89717 0.63526 0.0
H1510 H 0.67878 0.99427 0.65355 0.0
H1511 H 0.71821 0.0397 0.67093 0.0
C1512 C 0.50051 0.33941 0.73019 0.0
C1513 C 0.4863 0.37132 0.73363 0.0
C1514 C 0.41344 0.32162 0.71224 0.0
C1515 C 0.42707 0.28892 0.70949 0.0
N1516 N 0.49089 0.27455 0.70853 0.0
N1517 N 0.42853 0.39272 0.72945 0.0
C1518 C 0.47267 0.30001 0.71631 0.0
C1519 C 0.44247 0.36232 0.72511 0.0
N1520 N 0.53984 0.34567 0.7413 0.0
N1521 N 0.37499 0.31568 0.7003 0.0
H1522 H 0.45004 0.42412 0.73703 0.0
H1523 H 0.39509 0.38625 0.72677 0.0
H1524 H 0.35589 0.2887 0.68865 0.0
H1525 H 0.3645 0.33933 0.69963 0.0
H1526 H 0.54897 0.32101 0.74231 0.0
H1527 H 0.56127 0.37396 0.75164 0.0
H1528 H 0.52566 0.28461 0.71001 0.0
H1529 H 0.47298 0.24538 0.69846 0.0
C1530 C 0.64491 0.08199 0.71948 0.0
C1531 C 0.63345 0.11409 0.72785 0.0
C1532 C 0.71412 0.17293 0.72285 0.0
C1533 C 0.72544 0.14172 0.71243 0.0
N1534 N 0.70495 0.06419 0.71194 0.0
N1535 N 0.65594 0.19151 0.73395 0.0
C1536 C 0.69158 0.09545 0.71355 0.0
C1537 C 0.66758 0.15993 0.72815 0.0
N1538 N 0.61086 0.03857 0.71664 0.0
N1539 N 0.74828 0.21338 0.73107 0.0
H1540 H 0.62327 0.18377 0.73988 0.0
H1541 H 0.678 0.22558 0.73109 0.0
H1542 H 0.78303 0.22339 0.72997 0.0
H1543 H 0.7423 0.2352 0.74153 0.0
H1544 H 0.6159 0.01452 0.70794 0.0
H1545 H 0.57655 0.02756 0.72098 0.0
H1546 H 0.68327 0.03041 0.71572 0.0
H1547 H 0.73898 0.07248 0.70911 0.0
C1548 C 0.92676 0.5491 0.71016 0.0
C1549 C 0.90286 0.52408 0.73114 0.0
C1550 C 0.85169 0.55537 0.7293 0.0
C1551 C 0.87303 0.57746 0.70701 0.0
N1552 N 0.92562 0.58879 0.674 0.0
N1553 N 0.83674 0.49587 0.75779 0.0
C1554 C 0.90882 0.57213 0.6967 0.0
C1555 C 0.8637 0.52513 0.73996 0.0
N1556 N 0.96769 0.55238 0.70369 0.0
N1557 N 0.8202 0.56349 0.74054 0.0
H1558 H 0.84399 0.47277 0.76592 0.0
H1559 H 0.80491 0.49158 0.76296 0.0
H1560 H 0.80822 0.5833 0.73285 0.0
H1561 H 0.80816 0.55298 0.75828 0.0
H1562 H 0.98924 0.57405 0.69018 0.0
H1563 H 0.98231 0.53654 0.71337 0.0
H1564 H 0.94772 0.58138 0.66431 0.0
H1565 H 0.91477 0.60746 0.6641 0.0
C1566 C 0.48156 0.91684 0.21068 0.0
C1567 C 0.47094 0.93856 0.22966 0.0
C1568 C 0.47813 0.99481 0.19966 0.0
C1569 C 0.49729 0.97823 0.18223 0.0
N1570 N 0.52201 0.92529 0.17244 0.0
N1571 N 0.46767 0.00387 0.24267 0.0
C1572 C 0.49996 0.93944 0.18797 0.0
C1573 C 0.47111 0.97891 0.22424 0.0
N1574 N 0.47308 0.87421 0.21409 0.0
N1575 N 0.46634 0.02572 0.19268 0.0
H1576 H 0.46535 0.99523 0.26112 0.0
H1577 H 0.47218 0.03565 0.23984 0.0
H1578 H 0.47 0.03724 0.17467 0.0
H1579 H 0.44842 0.03601 0.20405 0.0
H1580 H 0.47621 0.85528 0.20015 0.0
H1581 H 0.4583 0.85614 0.2301 0.0
H1582 H 0.52937 0.90025 0.17701 0.0
H1583 H 0.53639 0.94096 0.15583 0.0
C1584 C 0.00441 0.5288 0.22277 0.0
C1585 C 0.04609 0.52845 0.22645 0.0
C1586 C 0.04057 0.49987 0.18473 0.0
C1587 C 1.00153 0.50468 0.1804 0.0
N1588 N 0.95607 0.5375 0.19316 0.0
N1589 N 0.11023 0.5254 0.20839 0.0
C1590 C 0.98659 0.52361 0.19874 0.0
C1591 C 0.06625 0.51766 0.20662 0.0
N1592 N 0.98023 0.53144 0.24222 0.0
N1593 N 0.05196 0.47657 0.1687 0.0
H1594 H 0.13079 0.54009 0.22377 0.0
H1595 H 0.12779 0.52174 0.19363 0.0
H1596 H 0.033 0.46128 0.15295 0.0
H1597 H 0.07751 0.46864 0.17235 0.0
H1598 H 0.94759 0.52772 0.24038 0.0
H1599 H 0.99015 0.53214 0.26038 0.0
H1600 H 0.9473 0.55505 0.20552 0.0
H1601 H 0.94367 0.536 0.17544 0.0
C1602 C 0.43108 0.51157 0.21113 0.0
C1603 C 0.4626 0.52124 0.23073 0.0
C1604 C 0.51447 0.51228 0.20274 0.0
C1605 C 0.47975 0.4951 0.18455 0.0
N1606 N 0.4022 0.47355 0.17233 0.0
N1607 N 0.53063 0.52213 0.24609 0.0
C1608 C 0.43731 0.49372 0.18886 0.0
C1609 C 0.50352 0.51956 0.22676 0.0
N1610 N 0.39585 0.52034 0.21357 0.0
N1611 N 0.55808 0.52186 0.19698 0.0
H1612 H 0.52274 0.52499 0.26425 0.0
H1613 H 0.55828 0.51658 0.24434 0.0
H1614 H 0.56741 0.51769 0.17933 0.0
H1615 H 0.58577 0.53829 0.20896 0.0
H1616 H 0.37441 0.51784 0.19913 0.0
H1617 H 0.39082 0.53432 0.2294 0.0
H1618 H 0.36899 0.46731 0.17579 0.0
H1619 H 0.40513 0.45981 0.15588 0.0
C1620 C 0.01075 0.52192 0.80833 0.0
C1621 C 0.96683 0.48406 0.80385 0.0
C1622 C 0.96602 0.45664 0.84537 0.0
C1623 C 0.00865 0.49592 0.85029 0.0
N1624 N 0.06402 0.5716 0.83888 0.0
N1625 N 0.89721 0.4225 0.82037 0.0
C1626 C 0.0286 0.53042 0.83252 0.0
C1627 C 0.94267 0.45366 0.82314 0.0
N1628 N 0.03665 0.54847 0.78938 0.0
N1629 N 0.94889 0.42124 0.86119 0.0
H1630 H 0.87872 0.42018 0.80454 0.0
H1631 H 0.87685 0.40226 0.83467 0.0
H1632 H 0.96551 0.42124 0.87732 0.0
H1633 H 0.92037 0.39026 0.85715 0.0
H1634 H 0.07079 0.57365 0.79146 0.0
H1635 H 0.02575 0.54274 0.77119 0.0
H1636 H 0.07693 0.59915 0.82721 0.0
H1637 H 0.07713 0.57939 0.85666 0.0
C1638 C 0.56443 0.48826 0.82518 0.0
C1639 C 0.53167 0.47657 0.80597 0.0
C1640 C 0.47819 0.48022 0.83534 0.0
C1641 C 0.51344 0.49919 0.85327 0.0
N1642 N 0.59313 0.52711 0.86383 0.0
N1643 N 0.46085 0.47148 0.79209 0.0
C1644 C 0.55742 0.50461 0.84789 0.0
C1645 C 0.48937 0.4751 0.81089 0.0
N1646 N 0.60158 0.48263 0.82203 0.0
N1647 N 0.43371 0.4664 0.84174 0.0
H1648 H 0.46899 0.4707 0.77372 0.0
H1649 H 0.43174 0.4745 0.79458 0.0
H1650 H 0.424 0.46832 0.85967 0.0
H1651 H 0.40611 0.44863 0.82987 0.0
H1652 H 0.62416 0.48657 0.83617 0.0
H1653 H 0.6072 0.46963 0.80599 0.0
H1654 H 0.62695 0.5361 0.85962 0.0
H1655 H 0.58983 0.54029 0.88039 0.0
C1656 C 0.55333 0.0736 0.81972 0.0
C1657 C 0.52297 0.05255 0.79957 0.0
C1658 C 0.46738 0.99669 0.82827 0.0
C1659 C 0.50069 0.01272 0.84731 0.0
N1660 N 0.57897 0.06379 0.85963 0.0
N1661 N 0.45483 0.98696 0.7846 0.0
C1662 C 0.54468 0.05067 0.84269 0.0
C1663 C 0.48089 0.01221 0.80385 0.0
N1664 N 0.58959 0.11605 0.81726 0.0
N1665 N 0.42245 0.96683 0.83354 0.0
H1666 H 0.46474 0.99512 0.76635 0.0
H1667 H 0.42614 0.95527 0.78684 0.0
H1668 H 0.41097 0.95591 0.85136 0.0
H1669 H 0.39611 0.95703 0.82073 0.0
H1670 H 0.61029 0.13443 0.83194 0.0
H1671 H 0.59594 0.1346 0.8012 0.0
H1672 H 0.61294 0.0882 0.85611 0.0
H1673 H 0.57444 0.04767 0.87641 0.0
C1674 C 0.14536 0.25369 0.54193 0.0
C1675 C 0.13839 0.27608 0.56194 0.0
C1676 C 0.14929 0.33603 0.53368 0.0
C1677 C 0.16491 0.31798 0.51509 0.0
N1678 N 0.18328 0.26139 0.50297 0.0
N1679 N 0.14051 0.3427 0.57725 0.0
C1680 C 0.16416 0.27707 0.51951 0.0
C1681 C 0.14187 0.31828 0.5579 0.0
N1682 N 0.1326 0.20961 0.54403 0.0
N1683 N 0.14074 0.36973 0.5281 0.0
H1684 H 0.13685 0.33186 0.59537 0.0
H1685 H 0.14758 0.37557 0.57553 0.0
H1686 H 0.14448 0.38258 0.5104 0.0
H1687 H 0.12528 0.38139 0.54033 0.0
H1688 H 0.1332 0.19055 0.52938 0.0
H1689 H 0.11637 0.1909 0.55964 0.0
H1690 H 0.18797 0.23432 0.50656 0.0
H1691 H 0.19823 0.2777 0.48658 0.0
C1692 C 0.66577 0.85866 0.55776 0.0
C1693 C 0.7063 0.85618 0.56137 0.0
C1694 C 0.6991 0.82695 0.5197 0.0
C1695 C 0.66161 0.83418 0.51539 0.0
N1696 N 0.61906 0.87001 0.52826 0.0
N1697 N 0.7682 0.84921 0.54331 0.0
C1698 C 0.64803 0.85421 0.53377 0.0
C1699 C 0.72509 0.84375 0.54157 0.0
N1700 N 0.64265 0.86282 0.57726 0.0
N1701 N 0.70878 0.80246 0.5036 0.0
H1702 H 0.78912 0.86327 0.55863 0.0
H1703 H 0.78493 0.84433 0.52855 0.0
H1704 H 0.68953 0.78799 0.48782 0.0
H1705 H 0.73303 0.79279 0.50722 0.0
H1706 H 0.61072 0.86074 0.57552 0.0
H1707 H 0.65258 0.86313 0.59538 0.0
H1708 H 0.61152 0.88843 0.54064 0.0
H1709 H 0.60682 0.86911 0.51057 0.0
C1710 C 0.16187 0.82695 0.5568 0.0
C1711 C 0.12704 0.83836 0.5601 0.0
C1712 C 0.10194 0.81664 0.51738 0.0
C1713 C 0.13763 0.80645 0.51396 0.0
N1714 N 0.20814 0.81216 0.52822 0.0
N1715 N 0.07095 0.85394 0.54206 0.0
C1716 C 0.16977 0.81506 0.53301 0.0
C1717 C 0.09925 0.83628 0.53988 0.0
N1718 N 0.18577 0.82515 0.57662 0.0
N1719 N 0.06943 0.8058 0.49956 0.0
H1720 H 0.0684 0.86895 0.55813 0.0
H1721 H 0.05317 0.8574 0.52738 0.0
H1722 H 0.07096 0.79262 0.48262 0.0
H1723 H 0.03943 0.80718 0.5021 0.0
H1724 H 0.20791 0.81226 0.57585 0.0
H1725 H 0.18063 0.83305 0.59436 0.0
H1726 H 0.2352 0.82219 0.54056 0.0
H1727 H 0.21491 0.80378 0.51094 0.0
C1728 C 0.66433 0.81123 0.14247 0.0
C1729 C 0.62374 0.81347 0.13849 0.0
C1730 C 0.63088 0.84388 0.17997 0.0
C1731 C 0.66837 0.83675 0.18464 0.0
N1732 N 0.71105 0.80076 0.17237 0.0
N1733 N 0.56233 0.82208 0.15582 0.0
C1734 C 0.68198 0.81628 0.16653 0.0
C1735 C 0.60511 0.82686 0.15796 0.0
N1736 N 0.68766 0.80678 0.12317 0.0
N1737 N 0.62095 0.86839 0.19592 0.0
H1738 H 0.54172 0.80825 0.14038 0.0
H1739 H 0.54553 0.82754 0.17033 0.0
H1740 H 0.63969 0.8825 0.21189 0.0
H1741 H 0.5969 0.87823 0.19211 0.0
H1742 H 0.71956 0.80885 0.1251 0.0
H1743 H 0.67803 0.80655 0.105 0.0
H1744 H 0.71865 0.78202 0.16024 0.0
H1745 H 0.72334 0.80223 0.19011 0.0
C1746 C 0.15802 0.81107 0.14226 0.0
C1747 C 0.20088 0.81309 0.13838 0.0
C1748 C 0.22293 0.83967 0.18085 0.0
C1749 C 0.17829 0.83339 0.18519 0.0
N1750 N 0.09951 0.80012 0.17175 0.0
N1751 N 0.26978 0.81938 0.15611 0.0
C1752 C 0.14463 0.81489 0.16642 0.0
C1753 C 0.23211 0.82444 0.15833 0.0
N1754 N 0.13098 0.80793 0.12279 0.0
N1755 N 0.25716 0.86183 0.19763 0.0
H1756 H 0.27696 0.80713 0.14025 0.0
H1757 H 0.29125 0.82307 0.17079 0.0
H1758 H 0.25216 0.8741 0.2141 0.0
H1759 H 0.29142 0.87143 0.19423 0.0
H1760 H 0.10154 0.8106 0.12461 0.0
H1761 H 0.14057 0.80779 0.10462 0.0
H1762 H 0.07305 0.78266 0.15919 0.0
H1763 H 0.0881 0.80089 0.18945 0.0
C1764 C 0.22777 0.41273 0.15606 0.0
C1765 C 0.19736 0.3934 0.13577 0.0
C1766 C 0.14102 0.33588 0.16343 0.0
C1767 C 0.17413 0.35041 0.18251 0.0
N1768 N 0.25215 0.40019 0.19571 0.0
N1769 N 0.12868 0.32975 0.11969 0.0
C1770 C 0.21838 0.38838 0.17856 0.0
C1771 C 0.15485 0.35318 0.13936 0.0
N1772 N 0.2649 0.45482 0.15413 0.0
N1773 N 0.09599 0.3058 0.16837 0.0
H1774 H 0.13873 0.33935 0.10159 0.0
H1775 H 0.09964 0.29813 0.12131 0.0
H1776 H 0.08433 0.29346 0.18597 0.0
H1777 H 0.06975 0.29713 0.15562 0.0
H1778 H 0.28577 0.47218 0.16896 0.0
H1779 H 0.27211 0.47415 0.13831 0.0
H1780 H 0.28628 0.42461 0.19268 0.0
H1781 H 0.24696 0.3831 0.21221 0.0
C1782 C 0.81539 0.58547 0.87583 0.0
C1783 C 0.80721 0.60737 0.89565 0.0
C1784 C 0.81463 0.66556 0.86712 0.0
C1785 C 0.83117 0.64828 0.84861 0.0
N1786 N 0.85255 0.5938 0.83655 0.0
N1787 N 0.80655 0.67288 0.91064 0.0
C1788 C 0.83266 0.60852 0.85319 0.0
C1789 C 0.80853 0.64856 0.89141 0.0
N1790 N 0.80556 0.54223 0.8784 0.0
N1791 N 0.80409 0.69788 0.86139 0.0
H1792 H 0.80419 0.66283 0.92886 0.0
H1793 H 0.81202 0.70518 0.9087 0.0
H1794 H 0.80697 0.71021 0.84362 0.0
H1795 H 0.78788 0.70876 0.87361 0.0
H1796 H 0.80668 0.52325 0.86385 0.0
H1797 H 0.79164 0.52384 0.89442 0.0
H1798 H 0.85897 0.56781 0.84018 0.0
H1799 H 0.86631 0.6099 0.81995 0.0
C1800 C 0.36015 0.19983 0.8835 0.0
C1801 C 0.40345 0.20289 0.88745 0.0
C1802 C 0.40144 0.17477 0.84609 0.0
C1803 C 0.35923 0.17385 0.84191 0.0
N1804 N 0.30666 0.19894 0.85355 0.0
N1805 N 0.47094 0.20517 0.87047 0.0
C1806 C 0.34154 0.19119 0.85959 0.0
C1807 C 0.42605 0.19436 0.868 0.0
N1808 N 0.33507 0.20173 0.90272 0.0
N1809 N 0.4167 0.15473 0.82998 0.0
H1810 H 0.49009 0.22022 0.88623 0.0
H1811 H 0.49033 0.20332 0.85606 0.0
H1812 H 0.39948 0.13935 0.81384 0.0
H1813 H 0.44456 0.1502 0.83363 0.0
H1814 H 0.30134 0.19512 0.90088 0.0
H1815 H 0.3458 0.20509 0.92088 0.0
H1816 H 0.2952 0.21523 0.86522 0.0
H1817 H 0.29271 0.19336 0.83594 0.0
C1818 C 0.77605 0.17051 0.87559 0.0
C1819 C 0.80563 0.18036 0.89617 0.0
C1820 C 0.86122 0.17364 0.86994 0.0
C1821 C 0.82889 0.15706 0.85048 0.0
N1822 N 0.7518 0.13309 0.83628 0.0
N1823 N 0.87178 0.18058 0.9138 0.0
C1824 C 0.78522 0.15377 0.85365 0.0
C1825 C 0.84699 0.17898 0.89358 0.0
N1826 N 0.74012 0.17847 0.87665 0.0
N1827 N 0.90603 0.1855 0.86573 0.0
H1828 H 0.86143 0.18204 0.93164 0.0
H1829 H 0.89978 0.1754 0.91296 0.0
H1830 H 0.91828 0.18377 0.84842 0.0
H1831 H 0.93183 0.20166 0.87879 0.0
H1832 H 0.72016 0.17595 0.86146 0.0
H1833 H 0.73307 0.19185 0.89209 0.0
H1834 H 0.71797 0.12574 0.83883 0.0
H1835 H 0.75671 0.11959 0.82024 0.0
C1836 C 0.29008 0.16786 0.4881 0.0
C1837 C 0.31113 0.15768 0.46845 0.0
C1838 C 0.37186 0.16569 0.49636 0.0
C1839 C 0.35528 0.18336 0.5146 0.0
N1840 N 0.3024 0.20873 0.52594 0.0
N1841 N 0.37774 0.15595 0.45296 0.0
C1842 C 0.31531 0.18645 0.51001 0.0
C1843 C 0.35359 0.15897 0.47231 0.0
N1844 N 0.24554 0.15847 0.48619 0.0
N1845 N 0.40408 0.15407 0.50213 0.0
H1846 H 0.36683 0.15315 0.43483 0.0
H1847 H 0.41093 0.16102 0.45471 0.0
H1848 H 0.417 0.15683 0.51983 0.0
H1849 H 0.41407 0.13719 0.48999 0.0
H1850 H 0.22738 0.16159 0.50083 0.0
H1851 H 0.22521 0.14291 0.47087 0.0
H1852 H 0.27604 0.21547 0.52214 0.0
H1853 H 0.32084 0.22446 0.54175 0.0
C1854 C 0.82385 0.14938 0.47584 0.0
C1855 C 0.86579 0.14941 0.47236 0.0
C1856 C 0.88737 0.17459 0.51499 0.0
C1857 C 0.84344 0.17024 0.51894 0.0
N1858 N 0.76556 0.14114 0.50478 0.0
N1859 N 0.93299 0.15255 0.49044 0.0
C1860 C 0.81033 0.1537 0.49986 0.0
C1861 C 0.8963 0.15922 0.49249 0.0
N1862 N 0.79786 0.14748 0.45612 0.0
N1863 N 0.9212 0.19503 0.53217 0.0
H1864 H 0.94004 0.14033 0.47452 0.0
H1865 H 0.95372 0.15497 0.50524 0.0
H1866 H 0.91632 0.20724 0.5487 0.0
H1867 H 0.9552 0.20331 0.52911 0.0
H1868 H 0.76932 0.15171 0.4576 0.0
H1869 H 0.80757 0.14667 0.43805 0.0
H1870 H 0.73923 0.12494 0.49201 0.0
H1871 H 0.754 0.14243 0.52236 0.0
C1872 C 0.89357 0.74834 0.48909 0.0
C1873 C 0.86268 0.7286 0.46902 0.0
C1874 C 0.8072 0.67155 0.49715 0.0
C1875 C 0.84094 0.68621 0.51589 0.0
N1876 N 0.91939 0.73622 0.52839 0.0
N1877 N 0.79367 0.66449 0.45353 0.0
C1878 C 0.88501 0.7242 0.5116 0.0
C1879 C 0.82032 0.68839 0.47295 0.0
N1880 N 0.93029 0.79063 0.48698 0.0
N1881 N 0.7623 0.64168 0.50249 0.0
H1882 H 0.80328 0.67361 0.43533 0.0
H1883 H 0.76469 0.63291 0.45545 0.0
H1884 H 0.75119 0.62969 0.52021 0.0
H1885 H 0.7357 0.6329 0.48996 0.0
H1886 H 0.9515 0.80812 0.50168 0.0
H1887 H 0.93669 0.80995 0.47122 0.0
H1888 H 0.95341 0.76061 0.525 0.0
H1889 H 0.91479 0.7193 0.5449 0.0
loop_
_geom_bond_atom_site_label_1
_geom_bond_atom_site_label_2
_geom_bond_distance
_geom_bond_site_symmetry_2
_ccdc_geom_bond_type
H0 C3 0.931 . S
H1 C6 0.928 . S
H2 C8 0.930 . S
C3 H0 0.931 . S
C3 C4 1.413 . S
C3 C5 1.360 . S
C4 C3 1.413 . S
C4 C8 1.429 . S
C5 C3 1.360 . S
C5 C6 1.372 . S
C6 H1 0.928 . S
C6 C5 1.372 . S
C6 C7 1.404 . S
C7 C6 1.404 . S
C7 C8 1.391 . S
C8 H2 0.930 . S
C8 C4 1.429 . S
C8 C7 1.391 . S
H9 C12 0.931 . S
H10 C15 0.928 . S
H11 C17 0.930 . S
C12 H9 0.931 . S
C12 C13 1.413 . S
C12 C14 1.360 . S
C13 C12 1.413 . S
C13 C17 1.429 . S
C14 C12 1.360 . S
C14 C15 1.372 . S
C15 H10 0.928 . S
C15 C14 1.372 . S
C15 C16 1.404 . S
C16 C15 1.404 . S
C16 C17 1.391 . S
C17 H11 0.930 . S
C17 C13 1.429 . S
C17 C16 1.391 . S
H18 C21 0.931 . S
H19 C24 0.928 . S
H20 C26 0.930 . S
C21 H18 0.931 . S
C21 C22 1.413 . S
C21 C23 1.360 . S
C22 C21 1.413 . S
C22 C26 1.429 . S
C23 C21 1.360 . S
C23 C24 1.372 . S
C24 H19 0.928 . S
C24 C23 1.372 . S
C24 C25 1.404 . S
C25 C24 1.404 . S
C25 C26 1.391 . S
C26 H20 0.930 . S
C26 C22 1.429 . S
C26 C25 1.391 . S
H27 C30 0.931 . S
H28 C33 0.928 . S
H29 C35 0.930 . S
C30 H27 0.931 . S
C30 C31 1.413 . S
C30 C32 1.360 . S
C31 C30 1.413 . S
C31 C35 1.429 . S
C32 C30 1.360 . S
C32 C33 1.372 . S
C33 H28 0.928 . S
C33 C32 1.372 . S
C33 C34 1.404 . S
C34 C33 1.404 . S
C34 C35 1.391 . S
C35 H29 0.930 . S
C35 C31 1.429 . S
C35 C34 1.391 . S
H36 C39 0.931 . S
H37 C42 0.928 . S
H38 C44 0.930 . S
C39 H36 0.931 . S
C39 C40 1.413 . S
C39 C41 1.360 . S
C40 C39 1.413 . S
C40 C44 1.429 . S
C41 C39 1.360 . S
C41 C42 1.372 . S
C42 H37 0.928 . S
C42 C41 1.372 . S
C42 C43 1.404 . S
C43 C42 1.404 . S
C43 C44 1.391 . S
C44 H38 0.930 . S
C44 C40 1.429 . S
C44 C43 1.391 . S
H45 C48 0.931 . S
H46 C51 0.928 . S
H47 C53 0.930 . S
C48 H45 0.931 . S
C48 C49 1.413 . S
C48 C50 1.360 . S
C49 C48 1.413 . S
C49 C53 1.429 . S
C50 C48 1.360 . S
C50 C51 1.372 . S
C51 H46 0.928 . S
C51 C50 1.372 . S
C51 C52 1.404 . S
C52 C51 1.404 . S
C52 C53 1.391 . S
C53 H47 0.930 . S
C53 C49 1.429 . S
C53 C52 1.391 . S
H54 C57 0.931 . S
H55 C60 0.928 . S
H56 C62 0.930 . S
C57 H54 0.931 . S
C57 C58 1.413 . S
C57 C59 1.360 . S
C58 C57 1.413 . S
C58 C62 1.429 . S
C59 C57 1.360 . S
C59 C60 1.372 . S
C60 H55 0.928 . S
C60 C59 1.372 . S
C60 C61 1.404 . S
C61 C60 1.404 . S
C61 C62 1.391 . S
C62 H56 0.930 . S
C62 C58 1.429 . S
C62 C61 1.391 . S
H63 C66 0.931 . S
H64 C69 0.928 . S
H65 C71 0.930 . S
C66 H63 0.931 . S
C66 C67 1.413 . S
C66 C68 1.360 . S
C67 C66 1.413 . S
C67 C71 1.429 . S
C68 C66 1.360 . S
C68 C69 1.372 . S
C69 H64 0.928 . S
C69 C68 1.372 . S
C69 C70 1.404 . S
C70 C69 1.404 . S
C70 C71 1.391 . S
C71 H65 0.930 . S
C71 C67 1.429 . S
C71 C70 1.391 . S
H72 C75 0.931 . S
H73 C78 0.928 . S
H74 C80 0.930 . S
C75 H72 0.931 . S
C75 C76 1.413 . S
C75 C77 1.360 . S
C76 C75 1.413 . S
C76 C80 1.429 . S
C77 C75 1.360 . S
C77 C78 1.372 . S
C78 H73 0.928 . S
C78 C77 1.372 . S
C78 C79 1.404 . S
C79 C78 1.404 . S
C79 C80 1.391 . S
C80 H74 0.930 . S
C80 C76 1.429 . S
C80 C79 1.391 . S
H81 C84 0.931 . S
H82 C87 0.928 . S
H83 C89 0.930 . S
C84 H81 0.931 . S
C84 C85 1.413 . S
C84 C86 1.360 . S
C85 C84 1.413 . S
C85 C89 1.429 . S
C86 C84 1.360 . S
C86 C87 1.372 . S
C87 H82 0.928 . S
C87 C86 1.372 . S
C87 C88 1.404 . S
C88 C87 1.404 . S
C88 C89 1.391 . S
C89 H83 0.930 . S
C89 C85 1.429 . S
C89 C88 1.391 . S
H90 C93 0.931 . S
H91 C96 0.928 . S
H92 C98 0.930 . S
C93 H90 0.931 . S
C93 C94 1.413 . S
C93 C95 1.360 . S
C94 C93 1.413 . S
C94 C98 1.429 . S
C95 C93 1.360 . S
C95 C96 1.372 . S
C96 H91 0.928 . S
C96 C95 1.372 . S
C96 C97 1.404 . S
C97 C96 1.404 . S
C97 C98 1.391 . S
C98 H92 0.930 . S
C98 C94 1.429 . S
C98 C97 1.391 . S
H99 C102 0.931 . S
H100 C105 0.928 . S
H101 C107 0.930 . S
C102 H99 0.931 . S
C102 C103 1.413 . S
C102 C104 1.360 . S
C103 C102 1.413 . S
C103 C107 1.429 . S
C104 C102 1.360 . S
C104 C105 1.372 . S
C105 H100 0.928 . S
C105 C104 1.372 . S
C105 C106 1.404 . S
C106 C105 1.404 . S
C106 C107 1.391 . S
C107 H101 0.930 . S
C107 C103 1.429 . S
C107 C106 1.391 . S
H108 C111 0.931 . S
H109 C114 0.928 . S
H110 C116 0.930 . S
C111 H108 0.931 . S
C111 C112 1.413 . S
C111 C113 1.360 . S
C112 C111 1.413 . S
C112 C116 1.429 . S
C113 C111 1.360 . S
C113 C114 1.372 . S
C114 H109 0.928 . S
C114 C113 1.372 . S
C114 C115 1.404 . S
C115 C114 1.404 . S
C115 C116 1.391 . S
C116 H110 0.930 . S
C116 C112 1.429 . S
C116 C115 1.391 . S
H117 C120 0.931 . S
H118 C123 0.928 . S
H119 C125 0.930 . S
C120 H117 0.931 . S
C120 C121 1.413 . S
C120 C122 1.360 . S
C121 C120 1.413 . S
C121 C125 1.429 . S
C122 C120 1.360 . S
C122 C123 1.372 . S
C123 H118 0.928 . S
C123 C122 1.372 . S
C123 C124 1.404 . S
C124 C123 1.404 . S
C124 C125 1.391 . S
C125 H119 0.930 . S
C125 C121 1.429 . S
C125 C124 1.391 . S
H126 C129 0.931 . S
H127 C132 0.928 . S
H128 C134 0.930 . S
C129 H126 0.931 . S
C129 C130 1.413 . S
C129 C131 1.360 . S
C130 C129 1.413 . S
C130 C134 1.429 . S
C131 C129 1.360 . S
C131 C132 1.372 . S
C132 H127 0.928 . S
C132 C131 1.372 . S
C132 C133 1.404 . S
C133 C132 1.404 . S
C133 C134 1.391 . S
C134 H128 0.930 . S
C134 C130 1.429 . S
C134 C133 1.391 . S
H135 C138 0.931 . S
H136 C141 0.928 . S
H137 C143 0.930 . S
C138 H135 0.931 . S
C138 C139 1.413 . S
C138 C140 1.360 . S
C139 C138 1.413 . S
C139 C143 1.429 . S
C140 C138 1.360 . S
C140 C141 1.372 . S
C141 H136 0.928 . S
C141 C140 1.372 . S
C141 C142 1.404 . S
C142 C141 1.404 . S
C142 C143 1.391 . S
C143 H137 0.930 . S
C143 C139 1.429 . S
C143 C142 1.391 . S
H144 C147 0.931 . S
H145 C150 0.928 . S
H146 C152 0.930 . S
C147 H144 0.931 . S
C147 C148 1.413 . S
C147 C149 1.360 . S
C148 C147 1.413 . S
C148 C152 1.429 . S
C149 C147 1.360 . S
C149 C150 1.372 . S
C150 H145 0.928 . S
C150 C149 1.372 . S
C150 C151 1.404 . S
C151 C150 1.404 . S
C151 C152 1.391 . S
C152 H146 0.930 . S
C152 C148 1.429 . S
C152 C151 1.391 . S
H153 C156 0.931 . S
H154 C159 0.928 . S
H155 C161 0.930 . S
C156 H153 0.931 . S
C156 C157 1.413 . S
C156 C158 1.360 . S
C157 C156 1.413 . S
C157 C161 1.429 . S
C158 C156 1.360 . S
C158 C159 1.372 . S
C159 H154 0.928 . S
C159 C158 1.372 . S
C159 C160 1.404 . S
C160 C159 1.404 . S
C160 C161 1.391 . S
C161 H155 0.930 . S
C161 C157 1.429 . S
C161 C160 1.391 . S
Tb162 N193 2.660 . S
Tb162 N200 2.600 . S
Tb162 O206 2.546 . S
Tb162 O207 2.610 1_565 S
Tb162 O209 2.320 1_565 S
Tb162 O210 2.552 1_565 S
Tb162 O211 2.413 . S
Tb162 O213 2.362 1_556 S
Tb162 O214 2.421 . S
Tb162 C226 2.833 . S
C163 C166 1.432 . S
C163 C167 1.414 . S
C163 N170 1.359 . S
C164 C166 1.417 . S
C164 C168 1.432 . S
C164 C176 1.410 . S
C165 C167 1.444 . S
C165 C168 1.317 . S
C165 H188 0.929 . S
C166 C163 1.432 . S
C166 C164 1.417 . S
C166 N174 1.360 . S
C167 C163 1.414 . S
C167 C165 1.444 . S
C167 C172 1.385 . S
C168 C164 1.432 . S
C168 C165 1.317 . S
C168 H180 0.930 . S
C169 C171 1.392 . S
C169 C172 1.370 . S
C169 H181 0.931 . S
N170 C163 1.359 . S
N170 C171 1.327 . S
N170 Tb173 2.600 . S
C171 C169 1.392 . S
C171 N170 1.327 . S
C171 H178 0.930 . S
C172 C167 1.385 . S
C172 C169 1.370 . S
C172 H191 0.930 . S
Tb173 N170 2.600 . S
Tb173 N174 2.660 . S
Tb173 O207 2.362 1_554 S
Tb173 O208 2.421 . S
Tb173 O212 2.546 . S
Tb173 O213 2.610 1_545 S
Tb173 O215 2.320 1_545 S
Tb173 O216 2.552 1_545 S
Tb173 O217 2.413 . S
Tb173 C237 2.833 . S
N174 C166 1.360 . S
N174 Tb173 2.660 . S
N174 C175 1.305 . S
C175 N174 1.305 . S
C175 C177 1.407 . S
C175 H182 0.930 . S
C176 C164 1.410 . S
C176 C177 1.345 . S
C176 H184 0.930 . S
C177 C175 1.407 . S
C177 C176 1.345 . S
C177 H179 0.930 . S
H178 C171 0.930 . S
H179 C177 0.930 . S
H180 C168 0.930 . S
H181 C169 0.931 . S
H182 C175 0.930 . S
H183 C197 0.930 . S
H184 C176 0.930 . S
H185 C203 0.930 . S
H186 C194 0.930 . S
H187 C201 0.931 . S
H188 C165 0.929 . S
H189 C195 0.930 . S
H190 C228 0.930 . S
H191 C172 0.930 . S
H192 C227 0.929 . S
N193 Tb162 2.660 . S
N193 C194 1.305 . S
N193 C198 1.360 . S
C194 H186 0.930 . S
C194 N193 1.305 . S
C194 C197 1.407 . S
C195 H189 0.930 . S
C195 C196 1.410 . S
C195 C197 1.345 . S
C196 C195 1.410 . S
C196 C198 1.417 . S
C196 C228 1.432 . S
C197 H183 0.930 . S
C197 C194 1.407 . S
C197 C195 1.345 . S
C198 N193 1.360 . S
C198 C196 1.417 . S
C198 C202 1.432 . S
H199 C204 0.930 . S
N200 Tb162 2.600 . S
N200 C202 1.359 . S
N200 C203 1.327 . S
C201 H187 0.931 . S
C201 C203 1.392 . S
C201 C204 1.370 . S
C202 C198 1.432 . S
C202 N200 1.359 . S
C202 C205 1.414 . S
C203 H185 0.930 . S
C203 N200 1.327 . S
C203 C201 1.392 . S
C204 H199 0.930 . S
C204 C201 1.370 . S
C204 C205 1.385 . S
C205 C202 1.414 . S
C205 C204 1.385 . S
C205 C227 1.444 . S
O206 Tb162 2.546 . S
O206 C226 1.251 . S
O207 Tb162 2.610 1_545 S
O207 Tb173 2.362 1_556 S
O207 C218 1.283 . S
O208 Tb173 2.421 . S
O208 C225 1.262 1_554 S
O209 Tb162 2.320 1_545 S
O209 C225 1.260 . S
O210 Tb162 2.552 1_545 S
O210 C218 1.243 . S
O211 Tb162 2.413 . S
O211 C226 1.256 . S
O212 Tb173 2.546 . S
O212 C237 1.251 . S
O213 Tb162 2.362 1_554 S
O213 Tb173 2.610 1_565 S
O213 C229 1.283 . S
O214 Tb162 2.421 . S
O214 C236 1.262 1_556 S
O215 Tb173 2.320 1_565 S
O215 C236 1.260 . S
O216 Tb173 2.552 1_565 S
O216 C229 1.243 . S
O217 Tb173 2.413 . S
O217 C237 1.256 . S
C218 O207 1.283 . S
C218 O210 1.243 . S
C219 C221 1.382 1_565 S
C219 C223 1.393 . S
C219 C226 1.500 . S
C220 C221 1.400 . S
C220 C222 1.384 1_545 S
C221 C219 1.382 1_545 S
C221 C220 1.400 . S
C221 H238 0.930 . S
C222 C220 1.384 1_565 S
C222 C224 1.392 . S
C222 H239 0.931 . S
C223 C219 1.393 . S
C223 C224 1.401 . S
C223 H240 0.930 . S
C224 C222 1.392 . S
C224 C223 1.401 . S
C224 H241 0.930 . S
C225 O208 1.262 1_556 S
C225 O209 1.260 . S
C226 Tb162 2.833 . S
C226 O206 1.251 . S
C226 O211 1.256 . S
C226 C219 1.500 . S
C227 H192 0.929 . S
C227 C205 1.444 . S
C227 C228 1.317 . S
C228 H190 0.930 . S
C228 C196 1.432 . S
C228 C227 1.317 . S
C229 O213 1.283 . S
C229 O216 1.243 . S
C230 C231 1.382 1_545 S
C230 C234 1.393 . S
C230 C237 1.500 . S
C231 C230 1.382 1_565 S
C231 C232 1.400 . S
C231 H242 0.930 . S
C232 C231 1.400 . S
C232 C233 1.384 1_565 S
C233 C232 1.384 1_545 S
C233 C235 1.392 . S
C233 H243 0.931 . S
C234 C230 1.393 . S
C234 C235 1.401 . S
C234 H244 0.930 . S
C235 C233 1.392 . S
C235 C234 1.401 . S
C235 H245 0.930 . S
C236 O214 1.262 1_554 S
C236 O215 1.260 . S
C237 Tb173 2.833 . S
C237 O212 1.251 . S
C237 O217 1.256 . S
C237 C230 1.500 . S
H238 C221 0.930 . S
H239 C222 0.931 . S
H240 C223 0.930 . S
H241 C224 0.930 . S
H242 C231 0.930 . S
H243 C233 0.931 . S
H244 C234 0.930 . S
H245 C235 0.930 . S
Tb246 N277 2.660 . S
Tb246 N284 2.600 . S
Tb246 O290 2.546 . S
Tb246 O291 2.610 1_455 S
Tb246 O293 2.320 1_455 S
Tb246 O294 2.552 1_455 S
Tb246 O295 2.413 . S
Tb246 O297 2.362 1_556 S
Tb246 O298 2.421 . S
Tb246 C310 2.833 . S
C247 C250 1.432 . S
C247 C251 1.414 . S
C247 N254 1.359 . S
C248 C250 1.417 . S
C248 C252 1.432 . S
C248 C260 1.410 . S
C249 C251 1.444 . S
C249 C252 1.317 . S
C249 H272 0.929 . S
C250 C247 1.432 . S
C250 C248 1.417 . S
C250 N258 1.360 . S
C251 C247 1.414 . S
C251 C249 1.444 . S
C251 C256 1.385 . S
C252 C248 1.432 . S
C252 C249 1.317 . S
C252 H264 0.930 . S
C253 C255 1.392 . S
C253 C256 1.370 . S
C253 H265 0.931 . S
N254 C247 1.359 . S
N254 C255 1.327 . S
N254 Tb257 2.600 . S
C255 C253 1.392 . S
C255 N254 1.327 . S
C255 H262 0.930 . S
C256 C251 1.385 . S
C256 C253 1.370 . S
C256 H275 0.930 . S
Tb257 N254 2.600 . S
Tb257 N258 2.660 . S
Tb257 O291 2.362 1_554 S
Tb257 O292 2.421 . S
Tb257 O296 2.546 . S
Tb257 O297 2.610 1_655 S
Tb257 O299 2.320 1_655 S
Tb257 O300 2.552 1_655 S
Tb257 O301 2.413 . S
Tb257 C321 2.833 . S
N258 C250 1.360 . S
N258 Tb257 2.660 . S
N258 C259 1.305 . S
C259 N258 1.305 . S
C259 C261 1.407 . S
C259 H266 0.930 . S
C260 C248 1.410 . S
C260 C261 1.345 . S
C260 H268 0.930 . S
C261 C259 1.407 . S
C261 C260 1.345 . S
C261 H263 0.930 . S
H262 C255 0.930 . S
H263 C261 0.930 . S
H264 C252 0.930 . S
H265 C253 0.931 . S
H266 C259 0.930 . S
H267 C281 0.930 . S
H268 C260 0.930 . S
H269 C287 0.930 . S
H270 C278 0.930 . S
H271 C285 0.931 . S
H272 C249 0.929 . S
H273 C279 0.930 . S
H274 C312 0.930 . S
H275 C256 0.930 . S
H276 C311 0.929 . S
N277 Tb246 2.660 . S
N277 C278 1.305 . S
N277 C282 1.360 . S
C278 H270 0.930 . S
C278 N277 1.305 . S
C278 C281 1.407 . S
C279 H273 0.930 . S
C279 C280 1.410 . S
C279 C281 1.345 . S
C280 C279 1.410 . S
C280 C282 1.417 . S
C280 C312 1.432 . S
C281 H267 0.930 . S
C281 C278 1.407 . S
C281 C279 1.345 . S
C282 N277 1.360 . S
C282 C280 1.417 . S
C282 C286 1.432 . S
H283 C288 0.930 . S
N284 Tb246 2.600 . S
N284 C286 1.359 . S
N284 C287 1.327 . S
C285 H271 0.931 . S
C285 C287 1.392 . S
C285 C288 1.370 . S
C286 C282 1.432 . S
C286 N284 1.359 . S
C286 C289 1.414 . S
C287 H269 0.930 . S
C287 N284 1.327 . S
C287 C285 1.392 . S
C288 H283 0.930 . S
C288 C285 1.370 . S
C288 C289 1.385 . S
C289 C286 1.414 . S
C289 C288 1.385 . S
C289 C311 1.444 . S
O290 Tb246 2.546 . S
O290 C310 1.251 . S
O291 Tb246 2.610 1_655 S
O291 Tb257 2.362 1_556 S
O291 C302 1.283 . S
O292 Tb257 2.421 . S
O292 C309 1.262 1_554 S
O293 Tb246 2.320 1_655 S
O293 C309 1.260 . S
O294 Tb246 2.552 1_655 S
O294 C302 1.243 . S
O295 Tb246 2.413 . S
O295 C310 1.256 . S
O296 Tb257 2.546 . S
O296 C321 1.251 . S
O297 Tb246 2.362 1_554 S
O297 Tb257 2.610 1_455 S
O297 C313 1.283 . S
O298 Tb246 2.421 . S
O298 C320 1.262 1_556 S
O299 Tb257 2.320 1_455 S
O299 C320 1.260 . S
O300 Tb257 2.552 1_455 S
O300 C313 1.243 . S
O301 Tb257 2.413 . S
O301 C321 1.256 . S
C302 O291 1.283 . S
C302 O294 1.243 . S
C303 C305 1.382 1_455 S
C303 C307 1.393 . S
C303 C310 1.500 . S
C304 C305 1.400 . S
C304 C306 1.384 1_655 S
C305 C303 1.382 1_655 S
C305 C304 1.400 . S
C305 H322 0.930 . S
C306 C304 1.384 1_455 S
C306 C308 1.392 . S
C306 H323 0.931 . S
C307 C303 1.393 . S
C307 C308 1.401 . S
C307 H324 0.930 . S
C308 C306 1.392 . S
C308 C307 1.401 . S
C308 H325 0.930 . S
C309 O292 1.262 1_556 S
C309 O293 1.260 . S
C310 Tb246 2.833 . S
C310 O290 1.251 . S
C310 O295 1.256 . S
C310 C303 1.500 . S
C311 H276 0.929 . S
C311 C289 1.444 . S
C311 C312 1.317 . S
C312 H274 0.930 . S
C312 C280 1.432 . S
C312 C311 1.317 . S
C313 O297 1.283 . S
C313 O300 1.243 . S
C314 C315 1.382 1_655 S
C314 C318 1.393 . S
C314 C321 1.500 . S
C315 C314 1.382 1_455 S
C315 C316 1.400 . S
C315 H326 0.930 . S
C316 C315 1.400 . S
C316 C317 1.384 1_455 S
C317 C316 1.384 1_655 S
C317 C319 1.392 . S
C317 H327 0.931 . S
C318 C314 1.393 . S
C318 C319 1.401 . S
C318 H328 0.930 . S
C319 C317 1.392 . S
C319 C318 1.401 . S
C319 H329 0.930 . S
C320 O298 1.262 1_554 S
C320 O299 1.260 . S
C321 Tb257 2.833 . S
C321 O296 1.251 . S
C321 O301 1.256 . S
C321 C314 1.500 . S
H322 C305 0.930 . S
H323 C306 0.931 . S
H324 C307 0.930 . S
H325 C308 0.930 . S
H326 C315 0.930 . S
H327 C317 0.931 . S
H328 C318 0.930 . S
H329 C319 0.930 . S
Tb330 N361 2.660 . S
Tb330 N368 2.600 . S
Tb330 O374 2.546 . S
Tb330 O375 2.610 . S
Tb330 O377 2.320 . S
Tb330 O378 2.552 . S
Tb330 O379 2.413 . S
Tb330 O381 2.362 1_554 S
Tb330 O382 2.421 . S
Tb330 C394 2.833 . S
C331 C334 1.432 . S
C331 C335 1.414 . S
C331 N338 1.359 . S
C332 C334 1.417 . S
C332 C336 1.432 . S
C332 C344 1.410 . S
C333 C335 1.444 . S
C333 C336 1.317 . S
C333 H356 0.929 . S
C334 C331 1.432 . S
C334 C332 1.417 . S
C334 N342 1.360 . S
C335 C331 1.414 . S
C335 C333 1.444 . S
C335 C340 1.385 . S
C336 C332 1.432 . S
C336 C333 1.317 . S
C336 H348 0.930 . S
C337 C339 1.392 . S
C337 C340 1.370 . S
C337 H349 0.931 . S
N338 C331 1.359 . S
N338 C339 1.327 . S
N338 Tb341 2.600 . S
C339 C337 1.392 . S
C339 N338 1.327 . S
C339 H346 0.930 . S
C340 C335 1.385 . S
C340 C337 1.370 . S
C340 H359 0.930 . S
Tb341 N338 2.600 . S
Tb341 N342 2.660 . S
Tb341 O375 2.362 1_556 S
Tb341 O376 2.421 . S
Tb341 O380 2.546 . S
Tb341 O381 2.610 . S
Tb341 O383 2.320 . S
Tb341 O384 2.552 . S
Tb341 O385 2.413 . S
Tb341 C405 2.833 . S
N342 C334 1.360 . S
N342 Tb341 2.660 . S
N342 C343 1.305 . S
C343 N342 1.305 . S
C343 C345 1.407 . S
C343 H350 0.930 . S
C344 C332 1.410 . S
C344 C345 1.345 . S
C344 H352 0.930 . S
C345 C343 1.407 . S
C345 C344 1.345 . S
C345 H347 0.930 . S
H346 C339 0.930 . S
H347 C345 0.930 . S
H348 C336 0.930 . S
H349 C337 0.931 . S
H350 C343 0.930 . S
H351 C365 0.930 . S
H352 C344 0.930 . S
H353 C371 0.930 . S
H354 C362 0.930 . S
H355 C369 0.931 . S
H356 C333 0.929 . S
H357 C363 0.930 . S
H358 C396 0.930 . S
H359 C340 0.930 . S
H360 C395 0.929 . S
N361 Tb330 2.660 . S
N361 C362 1.305 . S
N361 C366 1.360 . S
C362 H354 0.930 . S
C362 N361 1.305 . S
C362 C365 1.407 . S
C363 H357 0.930 . S
C363 C364 1.410 . S
C363 C365 1.345 . S
C364 C363 1.410 . S
C364 C366 1.417 . S
C364 C396 1.432 . S
C365 H351 0.930 . S
C365 C362 1.407 . S
C365 C363 1.345 . S
C366 N361 1.360 . S
C366 C364 1.417 . S
C366 C370 1.432 . S
H367 C372 0.930 . S
N368 Tb330 2.600 . S
N368 C370 1.359 . S
N368 C371 1.327 . S
C369 H355 0.931 . S
C369 C371 1.392 . S
C369 C372 1.370 . S
C370 C366 1.432 . S
C370 N368 1.359 . S
C370 C373 1.414 . S
C371 H353 0.930 . S
C371 N368 1.327 . S
C371 C369 1.392 . S
C372 H367 0.930 . S
C372 C369 1.370 . S
C372 C373 1.385 . S
C373 C370 1.414 . S
C373 C372 1.385 . S
C373 C395 1.444 . S
O374 Tb330 2.546 . S
O374 C394 1.251 . S
O375 Tb330 2.610 . S
O375 Tb341 2.362 1_554 S
O375 C386 1.283 . S
O376 Tb341 2.421 . S
O376 C393 1.262 1_556 S
O377 Tb330 2.320 . S
O377 C393 1.260 . S
O378 Tb330 2.552 . S
O378 C386 1.243 . S
O379 Tb330 2.413 . S
O379 C394 1.256 . S
O380 Tb341 2.546 . S
O380 C405 1.251 . S
O381 Tb330 2.362 1_556 S
O381 Tb341 2.610 . S
O381 C397 1.283 . S
O382 Tb330 2.421 . S
O382 C404 1.262 1_554 S
O383 Tb341 2.320 . S
O383 C404 1.260 . S
O384 Tb341 2.552 . S
O384 C397 1.243 . S
O385 Tb341 2.413 . S
O385 C405 1.256 . S
C386 O375 1.283 . S
C386 O378 1.243 . S
C387 C389 1.382 . S
C387 C391 1.393 . S
C387 C394 1.500 . S
C388 C389 1.400 . S
C388 C390 1.384 . S
C389 C387 1.382 . S
C389 C388 1.400 . S
C389 H406 0.930 . S
C390 C388 1.384 . S
C390 C392 1.392 . S
C390 H407 0.931 . S
C391 C387 1.393 . S
C391 C392 1.401 . S
C391 H408 0.930 . S
C392 C390 1.392 . S
C392 C391 1.401 . S
C392 H409 0.930 . S
C393 O376 1.262 1_554 S
C393 O377 1.260 . S
C394 Tb330 2.833 . S
C394 O374 1.251 . S
C394 O379 1.256 . S
C394 C387 1.500 . S
C395 H360 0.929 . S
C395 C373 1.444 . S
C395 C396 1.317 . S
C396 H358 0.930 . S
C396 C364 1.432 . S
C396 C395 1.317 . S
C397 O381 1.283 . S
C397 O384 1.243 . S
C398 C399 1.382 . S
C398 C402 1.393 . S
C398 C405 1.500 . S
C399 C398 1.382 . S
C399 C400 1.400 . S
C399 H410 0.930 . S
C400 C399 1.400 . S
C400 C401 1.384 . S
C401 C400 1.384 . S
C401 C403 1.392 . S
C401 H411 0.931 . S
C402 C398 1.393 . S
C402 C403 1.401 . S
C402 H412 0.930 . S
C403 C401 1.392 . S
C403 C402 1.401 . S
C403 H413 0.930 . S
C404 O382 1.262 1_556 S
C404 O383 1.260 . S
C405 Tb341 2.833 . S
C405 O380 1.251 . S
C405 O385 1.256 . S
C405 C398 1.500 . S
H406 C389 0.930 . S
H407 C390 0.931 . S
H408 C391 0.930 . S
H409 C392 0.930 . S
H410 C399 0.930 . S
H411 C401 0.931 . S
H412 C402 0.930 . S
H413 C403 0.930 . S
Tb414 N445 2.660 . S
Tb414 N452 2.600 . S
Tb414 O458 2.546 . S
Tb414 O459 2.610 . S
Tb414 O461 2.320 . S
Tb414 O462 2.552 . S
Tb414 O463 2.413 . S
Tb414 O465 2.362 . S
Tb414 O466 2.421 . S
Tb414 C478 2.833 . S
C415 C418 1.432 . S
C415 C419 1.414 . S
C415 N422 1.359 . S
C416 C418 1.417 . S
C416 C420 1.432 . S
C416 C428 1.410 . S
C417 C419 1.444 . S
C417 C420 1.317 . S
C417 H440 0.929 . S
C418 C415 1.432 . S
C418 C416 1.417 . S
C418 N426 1.360 . S
C419 C415 1.414 . S
C419 C417 1.444 . S
C419 C424 1.385 . S
C420 C416 1.432 . S
C420 C417 1.317 . S
C420 H432 0.930 . S
C421 C423 1.392 . S
C421 C424 1.370 . S
C421 H433 0.931 . S
N422 C415 1.359 . S
N422 C423 1.327 . S
N422 Tb425 2.600 . S
C423 C421 1.392 . S
C423 N422 1.327 . S
C423 H430 0.930 . S
C424 C419 1.385 . S
C424 C421 1.370 . S
C424 H443 0.930 . S
Tb425 N422 2.600 . S
Tb425 N426 2.660 . S
Tb425 O459 2.362 . S
Tb425 O460 2.421 . S
Tb425 O464 2.546 . S
Tb425 O465 2.610 . S
Tb425 O467 2.320 . S
Tb425 O468 2.552 . S
Tb425 O469 2.413 . S
Tb425 C489 2.833 . S
N426 C418 1.360 . S
N426 Tb425 2.660 . S
N426 C427 1.305 . S
C427 N426 1.305 . S
C427 C429 1.407 . S
C427 H434 0.930 . S
C428 C416 1.410 . S
C428 C429 1.345 . S
C428 H436 0.930 . S
C429 C427 1.407 . S
C429 C428 1.345 . S
C429 H431 0.930 . S
H430 C423 0.930 . S
H431 C429 0.930 . S
H432 C420 0.930 . S
H433 C421 0.931 . S
H434 C427 0.930 . S
H435 C449 0.930 . S
H436 C428 0.930 . S
H437 C455 0.930 . S
H438 C446 0.930 . S
H439 C453 0.931 . S
H440 C417 0.929 . S
H441 C447 0.930 . S
H442 C480 0.930 . S
H443 C424 0.930 . S
H444 C479 0.929 . S
N445 Tb414 2.660 . S
N445 C446 1.305 . S
N445 C450 1.360 . S
C446 H438 0.930 . S
C446 N445 1.305 . S
C446 C449 1.407 1_455 S
C447 H441 0.930 . S
C447 C448 1.410 . S
C447 C449 1.345 . S
C448 C447 1.410 . S
C448 C450 1.417 1_655 S
C448 C480 1.432 . S
C449 H435 0.930 . S
C449 C446 1.407 1_655 S
C449 C447 1.345 . S
C450 N445 1.360 . S
C450 C448 1.417 1_455 S
C450 C454 1.432 . S
H451 C456 0.930 . S
N452 Tb414 2.600 . S
N452 C454 1.359 . S
N452 C455 1.327 . S
C453 H439 0.931 . S
C453 C455 1.392 . S
C453 C456 1.370 . S
C454 C450 1.432 . S
C454 N452 1.359 . S
C454 C457 1.414 . S
C455 H437 0.930 . S
C455 N452 1.327 . S
C455 C453 1.392 . S
C456 H451 0.930 . S
C456 C453 1.370 . S
C456 C457 1.385 . S
C457 C454 1.414 . S
C457 C456 1.385 . S
C457 C479 1.444 1_455 S
O458 Tb414 2.546 . S
O458 C478 1.251 . S
O459 Tb414 2.610 . S
O459 Tb425 2.362 . S
O459 C470 1.283 . S
O460 Tb425 2.421 . S
O460 C477 1.262 . S
O461 Tb414 2.320 . S
O461 C477 1.260 . S
O462 Tb414 2.552 . S
O462 C470 1.243 . S
O463 Tb414 2.413 . S
O463 C478 1.256 . S
O464 Tb425 2.546 . S
O464 C489 1.251 . S
O465 Tb414 2.362 . S
O465 Tb425 2.610 . S
O465 C481 1.283 . S
O466 Tb414 2.421 . S
O466 C488 1.262 . S
O467 Tb425 2.320 . S
O467 C488 1.260 . S
O468 Tb425 2.552 . S
O468 C481 1.243 . S
O469 Tb425 2.413 . S
O469 C489 1.256 . S
C470 O459 1.283 . S
C470 O462 1.243 . S
C471 C473 1.382 . S
C471 C475 1.393 . S
C471 C478 1.500 . S
C472 C473 1.400 . S
C472 C474 1.384 . S
C473 C471 1.382 . S
C473 C472 1.400 . S
C473 H490 0.930 . S
C474 C472 1.384 . S
C474 C476 1.392 . S
C474 H491 0.931 . S
C475 C471 1.393 . S
C475 C476 1.401 . S
C475 H492 0.930 . S
C476 C474 1.392 . S
C476 C475 1.401 . S
C476 H493 0.930 . S
C477 O460 1.262 . S
C477 O461 1.260 . S
C478 Tb414 2.833 . S
C478 O458 1.251 . S
C478 O463 1.256 . S
C478 C471 1.500 . S
C479 H444 0.929 . S
C479 C457 1.444 1_655 S
C479 C480 1.317 . S
C480 H442 0.930 . S
C480 C448 1.432 . S
C480 C479 1.317 . S
C481 O465 1.283 . S
C481 O468 1.243 . S
C482 C483 1.382 . S
C482 C486 1.393 . S
C482 C489 1.500 . S
C483 C482 1.382 . S
C483 C484 1.400 . S
C483 H494 0.930 . S
C484 C483 1.400 . S
C484 C485 1.384 . S
C485 C484 1.384 . S
C485 C487 1.392 . S
C485 H495 0.931 . S
C486 C482 1.393 . S
C486 C487 1.401 . S
C486 H496 0.930 . S
C487 C485 1.392 . S
C487 C486 1.401 . S
C487 H497 0.930 . S
C488 O466 1.262 . S
C488 O467 1.260 . S
C489 Tb425 2.833 . S
C489 O464 1.251 . S
C489 O469 1.256 . S
C489 C482 1.500 . S
H490 C473 0.930 . S
H491 C474 0.931 . S
H492 C475 0.930 . S
H493 C476 0.930 . S
H494 C483 0.930 . S
H495 C485 0.931 . S
H496 C486 0.930 . S
H497 C487 0.930 . S
Tb498 N529 2.660 . S
Tb498 N536 2.600 . S
Tb498 O542 2.546 . S
Tb498 O543 2.610 . S
Tb498 O545 2.320 . S
Tb498 O546 2.552 . S
Tb498 O547 2.413 . S
Tb498 O549 2.362 . S
Tb498 O550 2.421 . S
Tb498 C562 2.833 . S
C499 C502 1.432 . S
C499 C503 1.414 . S
C499 N506 1.359 . S
C500 C502 1.417 . S
C500 C504 1.432 . S
C500 C512 1.410 . S
C501 C503 1.444 . S
C501 C504 1.317 . S
C501 H524 0.929 . S
C502 C499 1.432 . S
C502 C500 1.417 . S
C502 N510 1.360 . S
C503 C499 1.414 . S
C503 C501 1.444 . S
C503 C508 1.385 . S
C504 C500 1.432 . S
C504 C501 1.317 . S
C504 H516 0.930 . S
C505 C507 1.392 . S
C505 C508 1.370 . S
C505 H517 0.931 . S
N506 C499 1.359 . S
N506 C507 1.327 . S
N506 Tb509 2.600 . S
C507 C505 1.392 . S
C507 N506 1.327 . S
C507 H514 0.930 . S
C508 C503 1.385 . S
C508 C505 1.370 . S
C508 H527 0.930 . S
Tb509 N506 2.600 . S
Tb509 N510 2.660 . S
Tb509 O543 2.362 . S
Tb509 O544 2.421 . S
Tb509 O548 2.546 . S
Tb509 O549 2.610 . S
Tb509 O551 2.320 . S
Tb509 O552 2.552 . S
Tb509 O553 2.413 . S
Tb509 C573 2.833 . S
N510 C502 1.360 . S
N510 Tb509 2.660 . S
N510 C511 1.305 . S
C511 N510 1.305 . S
C511 C513 1.407 . S
C511 H518 0.930 . S
C512 C500 1.410 . S
C512 C513 1.345 . S
C512 H520 0.930 . S
C513 C511 1.407 . S
C513 C512 1.345 . S
C513 H515 0.930 . S
H514 C507 0.930 . S
H515 C513 0.930 . S
H516 C504 0.930 . S
H517 C505 0.931 . S
H518 C511 0.930 . S
H519 C533 0.930 . S
H520 C512 0.930 . S
H521 C539 0.930 . S
H522 C530 0.930 . S
H523 C537 0.931 . S
H524 C501 0.929 . S
H525 C531 0.930 . S
H526 C564 0.930 . S
H527 C508 0.930 . S
H528 C563 0.929 . S
N529 Tb498 2.660 . S
N529 C530 1.305 . S
N529 C534 1.360 . S
C530 H522 0.930 . S
C530 N529 1.305 . S
C530 C533 1.407 . S
C531 H525 0.930 . S
C531 C532 1.410 . S
C531 C533 1.345 . S
C532 C531 1.410 . S
C532 C534 1.417 . S
C532 C564 1.432 . S
C533 H519 0.930 . S
C533 C530 1.407 . S
C533 C531 1.345 . S
C534 N529 1.360 . S
C534 C532 1.417 . S
C534 C538 1.432 . S
H535 C540 0.930 . S
N536 Tb498 2.600 . S
N536 C538 1.359 . S
N536 C539 1.327 . S
C537 H523 0.931 . S
C537 C539 1.392 . S
C537 C540 1.370 . S
C538 C534 1.432 . S
C538 N536 1.359 . S
C538 C541 1.414 . S
C539 H521 0.930 . S
C539 N536 1.327 . S
C539 C537 1.392 . S
C540 H535 0.930 . S
C540 C537 1.370 . S
C540 C541 1.385 . S
C541 C538 1.414 . S
C541 C540 1.385 . S
C541 C563 1.444 . S
O542 Tb498 2.546 . S
O542 C562 1.251 . S
O543 Tb498 2.610 . S
O543 Tb509 2.362 . S
O543 C554 1.283 . S
O544 Tb509 2.421 . S
O544 C561 1.262 . S
O545 Tb498 2.320 . S
O545 C561 1.260 . S
O546 Tb498 2.552 . S
O546 C554 1.243 . S
O547 Tb498 2.413 . S
O547 C562 1.256 . S
O548 Tb509 2.546 . S
O548 C573 1.251 . S
O549 Tb498 2.362 . S
O549 Tb509 2.610 . S
O549 C565 1.283 . S
O550 Tb498 2.421 . S
O550 C572 1.262 . S
O551 Tb509 2.320 . S
O551 C572 1.260 . S
O552 Tb509 2.552 . S
O552 C565 1.243 . S
O553 Tb509 2.413 . S
O553 C573 1.256 . S
C554 O543 1.283 . S
C554 O546 1.243 . S
C555 C557 1.382 . S
C555 C559 1.393 . S
C555 C562 1.500 . S
C556 C557 1.400 . S
C556 C558 1.384 . S
C557 C555 1.382 . S
C557 C556 1.400 . S
C557 H574 0.930 . S
C558 C556 1.384 . S
C558 C560 1.392 . S
C558 H575 0.931 . S
C559 C555 1.393 . S
C559 C560 1.401 . S
C559 H576 0.930 . S
C560 C558 1.392 . S
C560 C559 1.401 . S
C560 H577 0.930 . S
C561 O544 1.262 . S
C561 O545 1.260 . S
C562 Tb498 2.833 . S
C562 O542 1.251 . S
C562 O547 1.256 . S
C562 C555 1.500 . S
C563 H528 0.929 . S
C563 C541 1.444 . S
C563 C564 1.317 . S
C564 H526 0.930 . S
C564 C532 1.432 . S
C564 C563 1.317 . S
C565 O549 1.283 . S
C565 O552 1.243 . S
C566 C567 1.382 . S
C566 C570 1.393 . S
C566 C573 1.500 . S
C567 C566 1.382 . S
C567 C568 1.400 . S
C567 H578 0.930 . S
C568 C567 1.400 . S
C568 C569 1.384 . S
C569 C568 1.384 . S
C569 C571 1.392 . S
C569 H579 0.931 . S
C570 C566 1.393 . S
C570 C571 1.401 . S
C570 H580 0.930 . S
C571 C569 1.392 . S
C571 C570 1.401 . S
C571 H581 0.930 . S
C572 O550 1.262 . S
C572 O551 1.260 . S
C573 Tb509 2.833 . S
C573 O548 1.251 . S
C573 O553 1.256 . S
C573 C566 1.500 . S
H574 C557 0.930 . S
H575 C558 0.931 . S
H576 C559 0.930 . S
H577 C560 0.930 . S
H578 C567 0.930 . S
H579 C569 0.931 . S
H580 C570 0.930 . S
H581 C571 0.930 . S
Tb582 N613 2.660 . S
Tb582 N620 2.600 . S
Tb582 O626 2.546 . S
Tb582 O627 2.610 . S
Tb582 O629 2.320 . S
Tb582 O630 2.552 . S
Tb582 O631 2.413 . S
Tb582 O633 2.362 . S
Tb582 O634 2.421 . S
Tb582 C646 2.833 . S
C583 C586 1.432 . S
C583 C587 1.414 . S
C583 N590 1.359 . S
C584 C586 1.417 1_655 S
C584 C588 1.432 . S
C584 C596 1.410 . S
C585 C587 1.444 1_655 S
C585 C588 1.317 . S
C585 H608 0.929 . S
C586 C583 1.432 . S
C586 C584 1.417 1_455 S
C586 N594 1.360 . S
C587 C583 1.414 . S
C587 C585 1.444 1_455 S
C587 C592 1.385 . S
C588 C584 1.432 . S
C588 C585 1.317 . S
C588 H600 0.930 . S
C589 C591 1.392 . S
C589 C592 1.370 . S
C589 H601 0.931 . S
N590 C583 1.359 . S
N590 C591 1.327 . S
N590 Tb593 2.600 . S
C591 C589 1.392 . S
C591 N590 1.327 . S
C591 H598 0.930 . S
C592 C587 1.385 . S
C592 C589 1.370 . S
C592 H611 0.930 . S
Tb593 N590 2.600 . S
Tb593 N594 2.660 . S
Tb593 O627 2.362 . S
Tb593 O628 2.421 . S
Tb593 O632 2.546 . S
Tb593 O633 2.610 . S
Tb593 O635 2.320 . S
Tb593 O636 2.552 . S
Tb593 O637 2.413 . S
Tb593 C657 2.833 . S
N594 C586 1.360 . S
N594 Tb593 2.660 . S
N594 C595 1.305 . S
C595 N594 1.305 . S
C595 C597 1.407 1_455 S
C595 H602 0.930 . S
C596 C584 1.410 . S
C596 C597 1.345 . S
C596 H604 0.930 . S
C597 C595 1.407 1_655 S
C597 C596 1.345 . S
C597 H599 0.930 . S
H598 C591 0.930 . S
H599 C597 0.930 . S
H600 C588 0.930 . S
H601 C589 0.931 . S
H602 C595 0.930 . S
H603 C617 0.930 . S
H604 C596 0.930 . S
H605 C623 0.930 . S
H606 C614 0.930 . S
H607 C621 0.931 . S
H608 C585 0.929 . S
H609 C615 0.930 . S
H610 C648 0.930 . S
H611 C592 0.930 . S
H612 C647 0.929 . S
N613 Tb582 2.660 . S
N613 C614 1.305 . S
N613 C618 1.360 . S
C614 H606 0.930 . S
C614 N613 1.305 . S
C614 C617 1.407 . S
C615 H609 0.930 . S
C615 C616 1.410 . S
C615 C617 1.345 . S
C616 C615 1.410 . S
C616 C618 1.417 . S
C616 C648 1.432 . S
C617 H603 0.930 . S
C617 C614 1.407 . S
C617 C615 1.345 . S
C618 N613 1.360 . S
C618 C616 1.417 . S
C618 C622 1.432 . S
H619 C624 0.930 . S
N620 Tb582 2.600 . S
N620 C622 1.359 . S
N620 C623 1.327 . S
C621 H607 0.931 . S
C621 C623 1.392 . S
C621 C624 1.370 . S
C622 C618 1.432 . S
C622 N620 1.359 . S
C622 C625 1.414 . S
C623 H605 0.930 . S
C623 N620 1.327 . S
C623 C621 1.392 . S
C624 H619 0.930 . S
C624 C621 1.370 . S
C624 C625 1.385 . S
C625 C622 1.414 . S
C625 C624 1.385 . S
C625 C647 1.444 . S
O626 Tb582 2.546 . S
O626 C646 1.251 . S
O627 Tb582 2.610 . S
O627 Tb593 2.362 . S
O627 C638 1.283 . S
O628 Tb593 2.421 . S
O628 C645 1.262 . S
O629 Tb582 2.320 . S
O629 C645 1.260 . S
O630 Tb582 2.552 . S
O630 C638 1.243 . S
O631 Tb582 2.413 . S
O631 C646 1.256 . S
O632 Tb593 2.546 . S
O632 C657 1.251 . S
O633 Tb582 2.362 . S
O633 Tb593 2.610 . S
O633 C649 1.283 . S
O634 Tb582 2.421 . S
O634 C656 1.262 . S
O635 Tb593 2.320 . S
O635 C656 1.260 . S
O636 Tb593 2.552 . S
O636 C649 1.243 . S
O637 Tb593 2.413 . S
O637 C657 1.256 . S
C638 O627 1.283 . S
C638 O630 1.243 . S
C639 C641 1.382 . S
C639 C643 1.393 . S
C639 C646 1.500 . S
C640 C641 1.400 . S
C640 C642 1.384 . S
C641 C639 1.382 . S
C641 C640 1.400 . S
C641 H658 0.930 . S
C642 C640 1.384 . S
C642 C644 1.392 . S
C642 H659 0.931 . S
C643 C639 1.393 . S
C643 C644 1.401 . S
C643 H660 0.930 . S
C644 C642 1.392 . S
C644 C643 1.401 . S
C644 H661 0.930 . S
C645 O628 1.262 . S
C645 O629 1.260 . S
C646 Tb582 2.833 . S
C646 O626 1.251 . S
C646 O631 1.256 . S
C646 C639 1.500 . S
C647 H612 0.929 . S
C647 C625 1.444 . S
C647 C648 1.317 . S
C648 H610 0.930 . S
C648 C616 1.432 . S
C648 C647 1.317 . S
C649 O633 1.283 . S
C649 O636 1.243 . S
C650 C651 1.382 . S
C650 C654 1.393 . S
C650 C657 1.500 . S
C651 C650 1.382 . S
C651 C652 1.400 . S
C651 H662 0.930 . S
C652 C651 1.400 . S
C652 C653 1.384 . S
C653 C652 1.384 . S
C653 C655 1.392 . S
C653 H663 0.931 . S
C654 C650 1.393 . S
C654 C655 1.401 . S
C654 H664 0.930 . S
C655 C653 1.392 . S
C655 C654 1.401 . S
C655 H665 0.930 . S
C656 O634 1.262 . S
C656 O635 1.260 . S
C657 Tb593 2.833 . S
C657 O632 1.251 . S
C657 O637 1.256 . S
C657 C650 1.500 . S
H658 C641 0.930 . S
H659 C642 0.931 . S
H660 C643 0.930 . S
H661 C644 0.930 . S
H662 C651 0.930 . S
H663 C653 0.931 . S
H664 C654 0.930 . S
H665 C655 0.930 . S
Tb666 N697 2.660 . S
Tb666 N704 2.600 . S
Tb666 O710 2.546 . S
Tb666 O711 2.610 . S
Tb666 O713 2.320 . S
Tb666 O714 2.552 . S
Tb666 O715 2.413 . S
Tb666 O717 2.362 . S
Tb666 O718 2.421 . S
Tb666 C730 2.833 . S
C667 C670 1.432 . S
C667 C671 1.414 . S
C667 N674 1.359 . S
C668 C670 1.417 1_455 S
C668 C672 1.432 . S
C668 C680 1.410 . S
C669 C671 1.444 1_455 S
C669 C672 1.317 . S
C669 H692 0.929 . S
C670 C667 1.432 . S
C670 C668 1.417 1_655 S
C670 N678 1.360 . S
C671 C667 1.414 . S
C671 C669 1.444 1_655 S
C671 C676 1.385 . S
C672 C668 1.432 . S
C672 C669 1.317 . S
C672 H684 0.930 . S
C673 C675 1.392 . S
C673 C676 1.370 . S
C673 H685 0.931 . S
N674 C667 1.359 . S
N674 C675 1.327 . S
N674 Tb677 2.600 . S
C675 C673 1.392 . S
C675 N674 1.327 . S
C675 H682 0.930 . S
C676 C671 1.385 . S
C676 C673 1.370 . S
C676 H695 0.930 . S
Tb677 N674 2.600 . S
Tb677 N678 2.660 . S
Tb677 O711 2.362 . S
Tb677 O712 2.421 . S
Tb677 O716 2.546 . S
Tb677 O717 2.610 . S
Tb677 O719 2.320 . S
Tb677 O720 2.552 . S
Tb677 O721 2.413 . S
Tb677 C741 2.833 . S
N678 C670 1.360 . S
N678 Tb677 2.660 . S
N678 C679 1.305 . S
C679 N678 1.305 . S
C679 C681 1.407 1_655 S
C679 H686 0.930 . S
C680 C668 1.410 . S
C680 C681 1.345 . S
C680 H688 0.930 . S
C681 C679 1.407 1_455 S
C681 C680 1.345 . S
C681 H683 0.930 . S
H682 C675 0.930 . S
H683 C681 0.930 . S
H684 C672 0.930 . S
H685 C673 0.931 . S
H686 C679 0.930 . S
H687 C701 0.930 . S
H688 C680 0.930 . S
H689 C707 0.930 . S
H690 C698 0.930 . S
H691 C705 0.931 . S
H692 C669 0.929 . S
H693 C699 0.930 . S
H694 C732 0.930 . S
H695 C676 0.930 . S
H696 C731 0.929 . S
N697 Tb666 2.660 . S
N697 C698 1.305 . S
N697 C702 1.360 . S
C698 H690 0.930 . S
C698 N697 1.305 . S
C698 C701 1.407 . S
C699 H693 0.930 . S
C699 C700 1.410 . S
C699 C701 1.345 . S
C700 C699 1.410 . S
C700 C702 1.417 . S
C700 C732 1.432 . S
C701 H687 0.930 . S
C701 C698 1.407 . S
C701 C699 1.345 . S
C702 N697 1.360 . S
C702 C700 1.417 . S
C702 C706 1.432 . S
H703 C708 0.930 . S
N704 Tb666 2.600 . S
N704 C706 1.359 . S
N704 C707 1.327 . S
C705 H691 0.931 . S
C705 C707 1.392 . S
C705 C708 1.370 . S
C706 C702 1.432 . S
C706 N704 1.359 . S
C706 C709 1.414 . S
C707 H689 0.930 . S
C707 N704 1.327 . S
C707 C705 1.392 . S
C708 H703 0.930 . S
C708 C705 1.370 . S
C708 C709 1.385 . S
C709 C706 1.414 . S
C709 C708 1.385 . S
C709 C731 1.444 . S
O710 Tb666 2.546 . S
O710 C730 1.251 . S
O711 Tb666 2.610 . S
O711 Tb677 2.362 . S
O711 C722 1.283 . S
O712 Tb677 2.421 . S
O712 C729 1.262 . S
O713 Tb666 2.320 . S
O713 C729 1.260 . S
O714 Tb666 2.552 . S
O714 C722 1.243 . S
O715 Tb666 2.413 . S
O715 C730 1.256 . S
O716 Tb677 2.546 . S
O716 C741 1.251 . S
O717 Tb666 2.362 . S
O717 Tb677 2.610 . S
O717 C733 1.283 . S
O718 Tb666 2.421 . S
O718 C740 1.262 . S
O719 Tb677 2.320 . S
O719 C740 1.260 . S
O720 Tb677 2.552 . S
O720 C733 1.243 . S
O721 Tb677 2.413 . S
O721 C741 1.256 . S
C722 O711 1.283 . S
C722 O714 1.243 . S
C723 C725 1.382 . S
C723 C727 1.393 . S
C723 C730 1.500 . S
C724 C725 1.400 . S
C724 C726 1.384 . S
C725 C723 1.382 . S
C725 C724 1.400 . S
C725 H742 0.930 . S
C726 C724 1.384 . S
C726 C728 1.392 . S
C726 H743 0.931 . S
C727 C723 1.393 . S
C727 C728 1.401 . S
C727 H744 0.930 . S
C728 C726 1.392 . S
C728 C727 1.401 . S
C728 H745 0.930 . S
C729 O712 1.262 . S
C729 O713 1.260 . S
C730 Tb666 2.833 . S
C730 O710 1.251 . S
C730 O715 1.256 . S
C730 C723 1.500 . S
C731 H696 0.929 . S
C731 C709 1.444 . S
C731 C732 1.317 . S
C732 H694 0.930 . S
C732 C700 1.432 . S
C732 C731 1.317 . S
C733 O717 1.283 . S
C733 O720 1.243 . S
C734 C735 1.382 . S
C734 C738 1.393 . S
C734 C741 1.500 . S
C735 C734 1.382 . S
C735 C736 1.400 . S
C735 H746 0.930 . S
C736 C735 1.400 . S
C736 C737 1.384 . S
C737 C736 1.384 . S
C737 C739 1.392 . S
C737 H747 0.931 . S
C738 C734 1.393 . S
C738 C739 1.401 . S
C738 H748 0.930 . S
C739 C737 1.392 . S
C739 C738 1.401 . S
C739 H749 0.930 . S
C740 O718 1.262 . S
C740 O719 1.260 . S
C741 Tb677 2.833 . S
C741 O716 1.251 . S
C741 O721 1.256 . S
C741 C734 1.500 . S
H742 C725 0.930 . S
H743 C726 0.931 . S
H744 C727 0.930 . S
H745 C728 0.930 . S
H746 C735 0.930 . S
H747 C737 0.931 . S
H748 C738 0.930 . S
H749 C739 0.930 . S
Tb750 N781 2.660 . S
Tb750 N788 2.600 . S
Tb750 O794 2.546 . S
Tb750 O795 2.610 . S
Tb750 O797 2.320 . S
Tb750 O798 2.552 . S
Tb750 O799 2.413 . S
Tb750 O801 2.362 . S
Tb750 O802 2.421 . S
Tb750 C814 2.833 . S
C751 C754 1.432 . S
C751 C755 1.414 . S
C751 N758 1.359 . S
C752 C754 1.417 . S
C752 C756 1.432 . S
C752 C764 1.410 . S
C753 C755 1.444 . S
C753 C756 1.317 . S
C753 H776 0.929 . S
C754 C751 1.432 . S
C754 C752 1.417 . S
C754 N762 1.360 . S
C755 C751 1.414 . S
C755 C753 1.444 . S
C755 C760 1.385 . S
C756 C752 1.432 . S
C756 C753 1.317 . S
C756 H768 0.930 . S
C757 C759 1.392 . S
C757 C760 1.370 . S
C757 H769 0.931 . S
N758 C751 1.359 . S
N758 C759 1.327 . S
N758 Tb761 2.600 . S
C759 C757 1.392 . S
C759 N758 1.327 . S
C759 H766 0.930 . S
C760 C755 1.385 . S
C760 C757 1.370 . S
C760 H779 0.930 . S
Tb761 N758 2.600 . S
Tb761 N762 2.660 . S
Tb761 O795 2.362 . S
Tb761 O796 2.421 . S
Tb761 O800 2.546 . S
Tb761 O801 2.610 . S
Tb761 O803 2.320 . S
Tb761 O804 2.552 . S
Tb761 O805 2.413 . S
Tb761 C825 2.833 . S
N762 C754 1.360 . S
N762 Tb761 2.660 . S
N762 C763 1.305 . S
C763 N762 1.305 . S
C763 C765 1.407 . S
C763 H770 0.930 . S
C764 C752 1.410 . S
C764 C765 1.345 . S
C764 H772 0.930 . S
C765 C763 1.407 . S
C765 C764 1.345 . S
C765 H767 0.930 . S
H766 C759 0.930 . S
H767 C765 0.930 . S
H768 C756 0.930 . S
H769 C757 0.931 . S
H770 C763 0.930 . S
H771 C785 0.930 . S
H772 C764 0.930 . S
H773 C791 0.930 . S
H774 C782 0.930 . S
H775 C789 0.931 . S
H776 C753 0.929 . S
H777 C783 0.930 . S
H778 C816 0.930 . S
H779 C760 0.930 . S
H780 C815 0.929 . S
N781 Tb750 2.660 . S
N781 C782 1.305 . S
N781 C786 1.360 . S
C782 H774 0.930 . S
C782 N781 1.305 . S
C782 C785 1.407 . S
C783 H777 0.930 . S
C783 C784 1.410 . S
C783 C785 1.345 . S
C784 C783 1.410 . S
C784 C786 1.417 . S
C784 C816 1.432 . S
C785 H771 0.930 . S
C785 C782 1.407 . S
C785 C783 1.345 . S
C786 N781 1.360 . S
C786 C784 1.417 . S
C786 C790 1.432 . S
H787 C792 0.930 . S
N788 Tb750 2.600 . S
N788 C790 1.359 . S
N788 C791 1.327 . S
C789 H775 0.931 . S
C789 C791 1.392 . S
C789 C792 1.370 . S
C790 C786 1.432 . S
C790 N788 1.359 . S
C790 C793 1.414 . S
C791 H773 0.930 . S
C791 N788 1.327 . S
C791 C789 1.392 . S
C792 H787 0.930 . S
C792 C789 1.370 . S
C792 C793 1.385 . S
C793 C790 1.414 . S
C793 C792 1.385 . S
C793 C815 1.444 . S
O794 Tb750 2.546 . S
O794 C814 1.251 . S
O795 Tb750 2.610 . S
O795 Tb761 2.362 . S
O795 C806 1.283 . S
O796 Tb761 2.421 . S
O796 C813 1.262 . S
O797 Tb750 2.320 . S
O797 C813 1.260 . S
O798 Tb750 2.552 . S
O798 C806 1.243 . S
O799 Tb750 2.413 . S
O799 C814 1.256 . S
O800 Tb761 2.546 . S
O800 C825 1.251 . S
O801 Tb750 2.362 . S
O801 Tb761 2.610 . S
O801 C817 1.283 . S
O802 Tb750 2.421 . S
O802 C824 1.262 . S
O803 Tb761 2.320 . S
O803 C824 1.260 . S
O804 Tb761 2.552 . S
O804 C817 1.243 . S
O805 Tb761 2.413 . S
O805 C825 1.256 . S
C806 O795 1.283 . S
C806 O798 1.243 . S
C807 C809 1.382 . S
C807 C811 1.393 . S
C807 C814 1.500 . S
C808 C809 1.400 . S
C808 C810 1.384 . S
C809 C807 1.382 . S
C809 C808 1.400 . S
C809 H826 0.930 . S
C810 C808 1.384 . S
C810 C812 1.392 . S
C810 H827 0.931 . S
C811 C807 1.393 . S
C811 C812 1.401 . S
C811 H828 0.930 . S
C812 C810 1.392 . S
C812 C811 1.401 . S
C812 H829 0.930 . S
C813 O796 1.262 . S
C813 O797 1.260 . S
C814 Tb750 2.833 . S
C814 O794 1.251 . S
C814 O799 1.256 . S
C814 C807 1.500 . S
C815 H780 0.929 . S
C815 C793 1.444 . S
C815 C816 1.317 . S
C816 H778 0.930 . S
C816 C784 1.432 . S
C816 C815 1.317 . S
C817 O801 1.283 . S
C817 O804 1.243 . S
C818 C819 1.382 . S
C818 C822 1.393 . S
C818 C825 1.500 . S
C819 C818 1.382 . S
C819 C820 1.400 . S
C819 H830 0.930 . S
C820 C819 1.400 . S
C820 C821 1.384 . S
C821 C820 1.384 . S
C821 C823 1.392 . S
C821 H831 0.931 . S
C822 C818 1.393 . S
C822 C823 1.401 . S
C822 H832 0.930 . S
C823 C821 1.392 . S
C823 C822 1.401 . S
C823 H833 0.930 . S
C824 O802 1.262 . S
C824 O803 1.260 . S
C825 Tb761 2.833 . S
C825 O800 1.251 . S
C825 O805 1.256 . S
C825 C818 1.500 . S
H826 C809 0.930 . S
H827 C810 0.931 . S
H828 C811 0.930 . S
H829 C812 0.930 . S
H830 C819 0.930 . S
H831 C821 0.931 . S
H832 C822 0.930 . S
H833 C823 0.930 . S
Tb834 N865 2.660 . S
Tb834 N872 2.600 . S
Tb834 O878 2.546 . S
Tb834 O879 2.610 . S
Tb834 O881 2.320 . S
Tb834 O882 2.552 . S
Tb834 O883 2.413 . S
Tb834 O885 2.362 . S
Tb834 O886 2.421 . S
Tb834 C898 2.833 . S
C835 C838 1.432 . S
C835 C839 1.414 . S
C835 N842 1.359 . S
C836 C838 1.417 . S
C836 C840 1.432 . S
C836 C848 1.410 . S
C837 C839 1.444 . S
C837 C840 1.317 . S
C837 H860 0.929 . S
C838 C835 1.432 . S
C838 C836 1.417 . S
C838 N846 1.360 . S
C839 C835 1.414 . S
C839 C837 1.444 . S
C839 C844 1.385 . S
C840 C836 1.432 . S
C840 C837 1.317 . S
C840 H852 0.930 . S
C841 C843 1.392 . S
C841 C844 1.370 . S
C841 H853 0.931 . S
N842 C835 1.359 . S
N842 C843 1.327 . S
N842 Tb845 2.600 . S
C843 C841 1.392 . S
C843 N842 1.327 . S
C843 H850 0.930 . S
C844 C839 1.385 . S
C844 C841 1.370 . S
C844 H863 0.930 . S
Tb845 N842 2.600 . S
Tb845 N846 2.660 . S
Tb845 O879 2.362 . S
Tb845 O880 2.421 . S
Tb845 O884 2.546 . S
Tb845 O885 2.610 . S
Tb845 O887 2.320 . S
Tb845 O888 2.552 . S
Tb845 O889 2.413 . S
Tb845 C909 2.833 . S
N846 C838 1.360 . S
N846 Tb845 2.660 . S
N846 C847 1.305 . S
C847 N846 1.305 . S
C847 C849 1.407 . S
C847 H854 0.930 . S
C848 C836 1.410 . S
C848 C849 1.345 . S
C848 H856 0.930 . S
C849 C847 1.407 . S
C849 C848 1.345 . S
C849 H851 0.930 . S
H850 C843 0.930 . S
H851 C849 0.930 . S
H852 C840 0.930 . S
H853 C841 0.931 . S
H854 C847 0.930 . S
H855 C869 0.930 . S
H856 C848 0.930 . S
H857 C875 0.930 . S
H858 C866 0.930 . S
H859 C873 0.931 . S
H860 C837 0.929 . S
H861 C867 0.930 . S
H862 C900 0.930 . S
H863 C844 0.930 . S
H864 C899 0.929 . S
N865 Tb834 2.660 . S
N865 C866 1.305 . S
N865 C870 1.360 . S
C866 H858 0.930 . S
C866 N865 1.305 . S
C866 C869 1.407 1_655 S
C867 H861 0.930 . S
C867 C868 1.410 . S
C867 C869 1.345 . S
C868 C867 1.410 . S
C868 C870 1.417 1_455 S
C868 C900 1.432 . S
C869 H855 0.930 . S
C869 C866 1.407 1_455 S
C869 C867 1.345 . S
C870 N865 1.360 . S
C870 C868 1.417 1_655 S
C870 C874 1.432 . S
H871 C876 0.930 . S
N872 Tb834 2.600 . S
N872 C874 1.359 . S
N872 C875 1.327 . S
C873 H859 0.931 . S
C873 C875 1.392 . S
C873 C876 1.370 . S
C874 C870 1.432 . S
C874 N872 1.359 . S
C874 C877 1.414 . S
C875 H857 0.930 . S
C875 N872 1.327 . S
C875 C873 1.392 . S
C876 H871 0.930 . S
C876 C873 1.370 . S
C876 C877 1.385 . S
C877 C874 1.414 . S
C877 C876 1.385 . S
C877 C899 1.444 1_655 S
O878 Tb834 2.546 . S
O878 C898 1.251 . S
O879 Tb834 2.610 . S
O879 Tb845 2.362 . S
O879 C890 1.283 . S
O880 Tb845 2.421 . S
O880 C897 1.262 . S
O881 Tb834 2.320 . S
O881 C897 1.260 . S
O882 Tb834 2.552 . S
O882 C890 1.243 . S
O883 Tb834 2.413 . S
O883 C898 1.256 . S
O884 Tb845 2.546 . S
O884 C909 1.251 . S
O885 Tb834 2.362 . S
O885 Tb845 2.610 . S
O885 C901 1.283 . S
O886 Tb834 2.421 . S
O886 C908 1.262 . S
O887 Tb845 2.320 . S
O887 C908 1.260 . S
O888 Tb845 2.552 . S
O888 C901 1.243 . S
O889 Tb845 2.413 . S
O889 C909 1.256 . S
C890 O879 1.283 . S
C890 O882 1.243 . S
C891 C893 1.382 . S
C891 C895 1.393 . S
C891 C898 1.500 . S
C892 C893 1.400 . S
C892 C894 1.384 . S
C893 C891 1.382 . S
C893 C892 1.400 . S
C893 H910 0.930 . S
C894 C892 1.384 . S
C894 C896 1.392 . S
C894 H911 0.931 . S
C895 C891 1.393 . S
C895 C896 1.401 . S
C895 H912 0.930 . S
C896 C894 1.392 . S
C896 C895 1.401 . S
C896 H913 0.930 . S
C897 O880 1.262 . S
C897 O881 1.260 . S
C898 Tb834 2.833 . S
C898 O878 1.251 . S
C898 O883 1.256 . S
C898 C891 1.500 . S
C899 H864 0.929 . S
C899 C877 1.444 1_455 S
C899 C900 1.317 . S
C900 H862 0.930 . S
C900 C868 1.432 . S
C900 C899 1.317 . S
C901 O885 1.283 . S
C901 O888 1.243 . S
C902 C903 1.382 . S
C902 C906 1.393 . S
C902 C909 1.500 . S
C903 C902 1.382 . S
C903 C904 1.400 . S
C903 H914 0.930 . S
C904 C903 1.400 . S
C904 C905 1.384 . S
C905 C904 1.384 . S
C905 C907 1.392 . S
C905 H915 0.931 . S
C906 C902 1.393 . S
C906 C907 1.401 . S
C906 H916 0.930 . S
C907 C905 1.392 . S
C907 C906 1.401 . S
C907 H917 0.930 . S
C908 O886 1.262 . S
C908 O887 1.260 . S
C909 Tb845 2.833 . S
C909 O884 1.251 . S
C909 O889 1.256 . S
C909 C902 1.500 . S
H910 C893 0.930 . S
H911 C894 0.931 . S
H912 C895 0.930 . S
H913 C896 0.930 . S
H914 C903 0.930 . S
H915 C905 0.931 . S
H916 C906 0.930 . S
H917 C907 0.930 . S
C918 C919 1.363 . S
C918 C924 1.379 . S
C918 N926 1.356 . S
C919 C918 1.363 . S
C919 C925 1.363 . S
C920 C921 1.363 . S
C920 C925 1.379 . S
C920 N927 1.356 . S
C921 C920 1.363 . S
C921 C924 1.363 . S
N922 C924 1.356 . S
N922 H934 0.984 . S
N922 H935 0.985 . S
N923 C925 1.356 . S
N923 H928 0.984 . S
N923 H929 0.985 . S
C924 C918 1.379 . S
C924 C921 1.363 . S
C924 N922 1.356 . S
C925 C919 1.363 . S
C925 C920 1.379 . S
C925 N923 1.356 . S
N926 C918 1.356 . S
N926 H932 0.984 . S
N926 H933 0.984 . S
N927 C920 1.356 . S
N927 H930 0.984 . S
N927 H931 0.985 . S
H928 N923 0.984 . S
H929 N923 0.985 . S
H930 N927 0.984 . S
H931 N927 0.985 . S
H932 N926 0.984 . S
H933 N926 0.984 . S
H934 N922 0.984 . S
H935 N922 0.985 . S
C936 C937 1.363 . S
C936 C942 1.379 . S
C936 N944 1.356 . S
C937 C936 1.363 . S
C937 C943 1.363 . S
C938 C939 1.363 . S
C938 C943 1.379 . S
C938 N945 1.356 . S
C939 C938 1.363 . S
C939 C942 1.363 . S
N940 C942 1.356 . S
N940 H952 0.984 . S
N940 H953 0.985 . S
N941 C943 1.356 . S
N941 H946 0.984 . S
N941 H947 0.985 . S
C942 C936 1.379 . S
C942 C939 1.363 . S
C942 N940 1.356 . S
C943 C937 1.363 . S
C943 C938 1.379 . S
C943 N941 1.356 . S
N944 C936 1.356 . S
N944 H950 0.984 . S
N944 H951 0.984 . S
N945 C938 1.356 . S
N945 H948 0.984 . S
N945 H949 0.985 1_554 S
H946 N941 0.984 . S
H947 N941 0.985 . S
H948 N945 0.984 . S
H949 N945 0.985 1_556 S
H950 N944 0.984 . S
H951 N944 0.984 . S
H952 N940 0.984 . S
H953 N940 0.985 . S
C954 C955 1.363 . S
C954 C960 1.379 . S
C954 N962 1.356 . S
C955 C954 1.363 . S
C955 C961 1.363 . S
C956 C957 1.363 . S
C956 C961 1.379 . S
C956 N963 1.356 . S
C957 C956 1.363 . S
C957 C960 1.363 . S
N958 C960 1.356 . S
N958 H970 0.984 1_554 S
N958 H971 0.985 . S
N959 C961 1.356 . S
N959 H964 0.984 . S
N959 H965 0.985 . S
C960 C954 1.379 . S
C960 C957 1.363 . S
C960 N958 1.356 . S
C961 C955 1.363 . S
C961 C956 1.379 . S
C961 N959 1.356 . S
N962 C954 1.356 . S
N962 H968 0.984 . S
N962 H969 0.984 . S
N963 C956 1.356 . S
N963 H966 0.984 . S
N963 H967 0.985 . S
H964 N959 0.984 . S
H965 N959 0.985 . S
H966 N963 0.984 . S
H967 N963 0.985 . S
H968 N962 0.984 . S
H969 N962 0.984 . S
H970 N958 0.984 1_556 S
H971 N958 0.985 . S
C972 C973 1.363 . S
C972 C978 1.379 . S
C972 N980 1.356 . S
C973 C972 1.363 . S
C973 C979 1.363 . S
C974 C975 1.363 . S
C974 C979 1.379 . S
C974 N981 1.356 . S
C975 C974 1.363 . S
C975 C978 1.363 . S
N976 C978 1.356 1_554 S
N976 H988 0.984 . S
N976 H989 0.985 . S
N977 C979 1.356 . S
N977 H982 0.984 . S
N977 H983 0.985 . S
C978 C972 1.379 . S
C978 C975 1.363 . S
C978 N976 1.356 1_556 S
C979 C973 1.363 . S
C979 C974 1.379 . S
C979 N977 1.356 . S
N980 C972 1.356 . S
N980 H986 0.984 1_556 S
N980 H987 0.984 . S
N981 C974 1.356 . S
N981 H984 0.984 . S
N981 H985 0.985 . S
H982 N977 0.984 . S
H983 N977 0.985 . S
H984 N981 0.984 . S
H985 N981 0.985 . S
H986 N980 0.984 1_554 S
H987 N980 0.984 . S
H988 N976 0.984 . S
H989 N976 0.985 . S
C990 C991 1.363 . S
C990 C996 1.379 . S
C990 N998 1.356 . S
C991 C990 1.363 . S
C991 C997 1.363 . S
C992 C993 1.363 . S
C992 C997 1.379 . S
C992 N999 1.356 1_556 S
C993 C992 1.363 . S
C993 C996 1.363 . S
N994 C996 1.356 . S
N994 H1006 0.984 . S
N994 H1007 0.985 . S
N995 C997 1.356 . S
N995 H1000 0.984 . S
N995 H1001 0.985 1_556 S
C996 C990 1.379 . S
C996 C993 1.363 . S
C996 N994 1.356 . S
C997 C991 1.363 . S
C997 C992 1.379 . S
C997 N995 1.356 . S
N998 C990 1.356 . S
N998 H1004 0.984 . S
N998 H1005 0.984 . S
N999 C992 1.356 1_554 S
N999 H1002 0.984 . S
N999 H1003 0.985 . S
H1000 N995 0.984 . S
H1001 N995 0.985 1_554 S
H1002 N999 0.984 . S
H1003 N999 0.985 . S
H1004 N998 0.984 . S
H1005 N998 0.984 . S
H1006 N994 0.984 . S
H1007 N994 0.985 . S
C1008 C1009 1.363 . S
C1008 C1014 1.379 . S
C1008 N1016 1.356 . S
C1009 C1008 1.363 . S
C1009 C1015 1.363 . S
C1010 C1011 1.363 . S
C1010 C1015 1.379 . S
C1010 N1017 1.356 . S
C1011 C1010 1.363 . S
C1011 C1014 1.363 . S
N1012 C1014 1.372 . S
N1012 H1024 0.974 1_556 S
N1012 H1025 0.980 1_556 S
N1013 C1015 1.356 . S
N1013 H1018 0.984 . S
N1013 H1019 0.985 . S
C1014 C1008 1.379 . S
C1014 C1011 1.363 . S
C1014 N1012 1.372 . S
C1015 C1009 1.363 . S
C1015 C1010 1.379 . S
C1015 N1013 1.356 . S
N1016 C1008 1.356 . S
N1016 H1022 0.984 . S
N1016 H1023 0.984 . S
N1017 C1010 1.356 . S
N1017 H1020 0.984 . S
N1017 H1021 0.985 . S
H1018 N1013 0.984 . S
H1019 N1013 0.985 . S
H1020 N1017 0.984 . S
H1021 N1017 0.985 . S
H1022 N1016 0.984 . S
H1023 N1016 0.984 . S
H1024 N1012 0.974 1_554 S
H1025 N1012 0.980 1_554 S
C1026 C1027 1.363 . S
C1026 C1032 1.379 . S
C1026 N1034 1.356 . S
C1027 C1026 1.363 . S
C1027 C1033 1.363 . S
C1028 C1029 1.363 . S
C1028 C1033 1.379 . S
C1028 N1035 1.356 . S
C1029 C1028 1.363 . S
C1029 C1032 1.363 . S
N1030 C1032 1.356 . S
N1030 H1042 0.984 . S
N1030 H1043 0.985 . S
N1031 C1033 1.356 . S
N1031 H1036 0.984 . S
N1031 H1037 0.985 . S
C1032 C1026 1.379 . S
C1032 C1029 1.363 . S
C1032 N1030 1.356 . S
C1033 C1027 1.363 . S
C1033 C1028 1.379 . S
C1033 N1031 1.356 . S
N1034 C1026 1.356 . S
N1034 H1040 0.984 . S
N1034 H1041 0.984 . S
N1035 C1028 1.356 . S
N1035 H1038 0.984 . S
N1035 H1039 0.985 . S
H1036 N1031 0.984 . S
H1037 N1031 0.985 . S
H1038 N1035 0.984 . S
H1039 N1035 0.985 . S
H1040 N1034 0.984 . S
H1041 N1034 0.984 . S
H1042 N1030 0.984 . S
H1043 N1030 0.985 . S
C1044 C1045 1.363 . S
C1044 C1050 1.379 . S
C1044 N1052 1.356 . S
C1045 C1044 1.363 . S
C1045 C1051 1.363 . S
C1046 C1047 1.363 . S
C1046 C1051 1.379 . S
C1046 N1053 1.356 1_556 S
C1047 C1046 1.363 . S
C1047 C1050 1.363 . S
N1048 C1050 1.356 . S
N1048 H1060 0.984 . S
N1048 H1061 0.985 . S
N1049 C1051 1.356 . S
N1049 H1054 0.984 . S
N1049 H1055 0.979 1_556 S
C1050 C1044 1.379 . S
C1050 C1047 1.363 . S
C1050 N1048 1.356 . S
C1051 C1045 1.363 . S
C1051 C1046 1.379 . S
C1051 N1049 1.356 . S
N1052 C1044 1.356 . S
N1052 H1058 0.984 . S
N1052 H1059 0.984 . S
N1053 C1046 1.356 1_554 S
N1053 H1056 0.984 . S
N1053 H1057 0.985 . S
H1054 N1049 0.984 . S
H1055 N1049 0.979 1_554 S
H1056 N1053 0.984 . S
H1057 N1053 0.985 . S
H1058 N1052 0.984 . S
H1059 N1052 0.984 . S
H1060 N1048 0.984 . S
H1061 N1048 0.985 . S
C1062 C1063 1.363 . S
C1062 C1068 1.379 . S
C1062 N1070 1.356 . S
C1063 C1062 1.363 . S
C1063 C1069 1.363 . S
C1064 C1065 1.363 . S
C1064 C1069 1.379 . S
C1064 N1071 1.356 1_556 S
C1065 C1064 1.363 . S
C1065 C1068 1.363 . S
N1066 C1068 1.356 . S
N1066 H1078 0.984 . S
N1066 H1079 0.985 . S
N1067 C1069 1.356 . S
N1067 H1072 0.984 . S
N1067 H1073 0.985 . S
C1068 C1062 1.379 . S
C1068 C1065 1.363 . S
C1068 N1066 1.356 . S
C1069 C1063 1.363 . S
C1069 C1064 1.379 . S
C1069 N1067 1.356 . S
N1070 C1062 1.356 . S
N1070 H1076 0.984 . S
N1070 H1077 0.984 . S
N1071 C1064 1.356 1_554 S
N1071 H1074 0.984 . S
N1071 H1075 0.985 . S
H1072 N1067 0.984 . S
H1073 N1067 0.985 . S
H1074 N1071 0.984 . S
H1075 N1071 0.985 . S
H1076 N1070 0.984 . S
H1077 N1070 0.984 . S
H1078 N1066 0.984 . S
H1079 N1066 0.985 . S
C1080 C1081 1.363 . S
C1080 C1086 1.379 . S
C1080 N1088 1.356 . S
C1081 C1080 1.363 . S
C1081 C1087 1.363 . S
C1082 C1083 1.363 . S
C1082 C1087 1.379 . S
C1082 N1089 1.373 . S
C1083 C1082 1.363 . S
C1083 C1086 1.363 . S
N1084 C1086 1.356 . S
N1084 H1096 0.984 . S
N1084 H1097 0.985 . S
N1085 C1087 1.356 . S
N1085 H1090 0.984 . S
N1085 H1091 0.985 . S
C1086 C1080 1.379 . S
C1086 C1083 1.363 . S
C1086 N1084 1.356 . S
C1087 C1081 1.363 . S
C1087 C1082 1.379 . S
C1087 N1085 1.356 . S
N1088 C1080 1.356 . S
N1088 H1094 0.984 . S
N1088 H1095 0.984 . S
N1089 C1082 1.373 . S
N1089 H1092 0.982 1_554 S
N1089 H1093 0.970 1_554 S
H1090 N1085 0.984 . S
H1091 N1085 0.985 . S
H1092 N1089 0.982 1_556 S
H1093 N1089 0.970 1_556 S
H1094 N1088 0.984 . S
H1095 N1088 0.984 . S
H1096 N1084 0.984 . S
H1097 N1084 0.985 . S
C1098 C1099 1.363 . S
C1098 C1104 1.379 . S
C1098 N1106 1.356 . S
C1099 C1098 1.363 . S
C1099 C1105 1.363 . S
C1100 C1101 1.363 . S
C1100 C1105 1.379 . S
C1100 N1107 1.356 . S
C1101 C1100 1.363 . S
C1101 C1104 1.363 . S
N1102 C1104 1.356 . S
N1102 H1114 0.984 . S
N1102 H1115 0.985 . S
N1103 C1105 1.356 . S
N1103 H1108 0.984 . S
N1103 H1109 0.985 . S
C1104 C1098 1.379 . S
C1104 C1101 1.363 . S
C1104 N1102 1.356 . S
C1105 C1099 1.363 . S
C1105 C1100 1.379 . S
C1105 N1103 1.356 . S
N1106 C1098 1.356 . S
N1106 H1112 0.984 . S
N1106 H1113 0.984 . S
N1107 C1100 1.356 . S
N1107 H1110 0.984 . S
N1107 H1111 0.985 . S
H1108 N1103 0.984 . S
H1109 N1103 0.985 . S
H1110 N1107 0.984 . S
H1111 N1107 0.985 . S
H1112 N1106 0.984 . S
H1113 N1106 0.984 . S
H1114 N1102 0.984 . S
H1115 N1102 0.985 . S
C1116 C1117 1.363 . S
C1116 C1122 1.379 . S
C1116 N1124 1.356 . S
C1117 C1116 1.363 . S
C1117 C1123 1.363 . S
C1118 C1119 1.363 . S
C1118 C1123 1.379 . S
C1118 N1125 1.356 1_554 S
C1119 C1118 1.363 . S
C1119 C1122 1.363 . S
N1120 C1122 1.356 . S
N1120 H1132 0.984 . S
N1120 H1133 0.985 . S
N1121 C1123 1.356 . S
N1121 H1126 0.984 . S
N1121 H1127 1.020 . S
C1122 C1116 1.379 . S
C1122 C1119 1.363 . S
C1122 N1120 1.356 . S
C1123 C1117 1.363 . S
C1123 C1118 1.379 . S
C1123 N1121 1.356 . S
N1124 C1116 1.356 . S
N1124 H1130 0.984 . S
N1124 H1131 0.984 . S
N1125 C1118 1.356 1_556 S
N1125 H1128 0.984 . S
N1125 H1129 0.985 . S
H1126 N1121 0.984 . S
H1127 N1121 1.020 . S
H1128 N1125 0.984 . S
H1129 N1125 0.985 . S
H1130 N1124 0.984 . S
H1131 N1124 0.984 . S
H1132 N1120 0.984 . S
H1133 N1120 0.985 . S
C1134 C1135 1.363 . S
C1134 C1140 1.379 1_655 S
C1134 N1142 1.356 . S
C1135 C1134 1.363 . S
C1135 C1141 1.363 . S
C1136 C1137 1.363 . S
C1136 C1141 1.379 1_455 S
C1136 N1143 1.356 . S
C1137 C1136 1.363 . S
C1137 C1140 1.363 . S
N1138 C1140 1.356 . S
N1138 H1150 0.984 . S
N1138 H1151 0.985 . S
N1139 C1141 1.356 . S
N1139 H1144 0.984 . S
N1139 H1145 0.985 . S
C1140 C1134 1.379 1_455 S
C1140 C1137 1.363 . S
C1140 N1138 1.356 . S
C1141 C1135 1.363 . S
C1141 C1136 1.379 1_655 S
C1141 N1139 1.356 . S
N1142 C1134 1.356 . S
N1142 H1148 0.984 . S
N1142 H1149 0.984 . S
N1143 C1136 1.356 . S
N1143 H1146 0.984 . S
N1143 H1147 0.985 . S
H1144 N1139 0.984 . S
H1145 N1139 0.985 . S
H1146 N1143 0.984 . S
H1147 N1143 0.985 . S
H1148 N1142 0.984 . S
H1149 N1142 0.984 . S
H1150 N1138 0.984 . S
H1151 N1138 0.985 . S
C1152 C1153 1.363 . S
C1152 C1158 1.379 . S
C1152 N1160 1.356 . S
C1153 C1152 1.363 . S
C1153 C1159 1.363 . S
C1154 C1155 1.363 . S
C1154 C1159 1.379 . S
C1154 N1161 1.356 . S
C1155 C1154 1.363 . S
C1155 C1158 1.363 . S
N1156 C1158 1.356 . S
N1156 H1168 0.984 . S
N1156 H1169 0.985 . S
N1157 C1159 1.356 . S
N1157 H1162 0.984 . S
N1157 H1163 0.985 . S
C1158 C1152 1.379 . S
C1158 C1155 1.363 . S
C1158 N1156 1.356 . S
C1159 C1153 1.363 . S
C1159 C1154 1.379 . S
C1159 N1157 1.356 . S
N1160 C1152 1.356 . S
N1160 H1166 0.984 . S
N1160 H1167 0.984 . S
N1161 C1154 1.356 . S
N1161 H1164 0.984 . S
N1161 H1165 0.985 . S
H1162 N1157 0.984 . S
H1163 N1157 0.985 . S
H1164 N1161 0.984 . S
H1165 N1161 0.985 . S
H1166 N1160 0.984 . S
H1167 N1160 0.984 . S
H1168 N1156 0.984 . S
H1169 N1156 0.985 . S
C1170 C1171 1.363 . S
C1170 C1176 1.379 1_545 S
C1170 N1178 1.356 . S
C1171 C1170 1.363 . S
C1171 C1177 1.363 . S
C1172 C1173 1.363 . S
C1172 C1177 1.379 1_565 S
C1172 N1179 1.356 . S
C1173 C1172 1.363 . S
C1173 C1176 1.363 . S
N1174 C1176 1.356 . S
N1174 H1186 0.984 . S
N1174 H1187 0.985 . S
N1175 C1177 1.356 . S
N1175 H1180 0.984 . S
N1175 H1181 0.985 . S
C1176 C1170 1.379 1_565 S
C1176 C1173 1.363 . S
C1176 N1174 1.356 . S
C1177 C1171 1.363 . S
C1177 C1172 1.379 1_545 S
C1177 N1175 1.356 . S
N1178 C1170 1.356 . S
N1178 H1184 0.984 . S
N1178 H1185 0.984 . S
N1179 C1172 1.356 . S
N1179 H1182 0.984 . S
N1179 H1183 0.985 . S
H1180 N1175 0.984 . S
H1181 N1175 0.985 . S
H1182 N1179 0.984 . S
H1183 N1179 0.985 . S
H1184 N1178 0.984 . S
H1185 N1178 0.984 . S
H1186 N1174 0.984 . S
H1187 N1174 0.985 . S
C1188 C1189 1.363 . S
C1188 C1194 1.379 . S
C1188 N1196 1.356 . S
C1189 C1188 1.363 . S
C1189 C1195 1.363 . S
C1190 C1191 1.363 . S
C1190 C1195 1.379 . S
C1190 N1197 1.356 . S
C1191 C1190 1.363 . S
C1191 C1194 1.363 . S
N1192 C1194 1.356 . S
N1192 H1204 0.984 . S
N1192 H1205 0.985 . S
N1193 C1195 1.356 . S
N1193 H1198 0.984 . S
N1193 H1199 0.985 . S
C1194 C1188 1.379 . S
C1194 C1191 1.363 . S
C1194 N1192 1.356 . S
C1195 C1189 1.363 . S
C1195 C1190 1.379 . S
C1195 N1193 1.356 . S
N1196 C1188 1.356 . S
N1196 H1202 0.984 . S
N1196 H1203 0.984 . S
N1197 C1190 1.356 . S
N1197 H1200 0.984 . S
N1197 H1201 0.985 . S
H1198 N1193 0.984 . S
H1199 N1193 0.985 . S
H1200 N1197 0.984 . S
H1201 N1197 0.985 . S
H1202 N1196 0.984 . S
H1203 N1196 0.984 . S
H1204 N1192 0.984 . S
H1205 N1192 0.985 . S
C1206 C1207 1.363 . S
C1206 C1212 1.379 . S
C1206 N1214 1.356 . S
C1207 C1206 1.363 . S
C1207 C1213 1.363 . S
C1208 C1209 1.363 . S
C1208 C1213 1.379 . S
C1208 N1215 1.356 . S
C1209 C1208 1.363 . S
C1209 C1212 1.363 . S
N1210 C1212 1.356 . S
N1210 H1222 0.984 . S
N1210 H1223 0.985 . S
N1211 C1213 1.356 . S
N1211 H1216 0.984 . S
N1211 H1217 0.985 . S
C1212 C1206 1.379 . S
C1212 C1209 1.363 . S
C1212 N1210 1.356 . S
C1213 C1207 1.363 . S
C1213 C1208 1.379 . S
C1213 N1211 1.356 . S
N1214 C1206 1.356 . S
N1214 H1220 0.984 . S
N1214 H1221 0.984 . S
N1215 C1208 1.356 . S
N1215 H1218 0.984 . S
N1215 H1219 0.985 . S
H1216 N1211 0.984 . S
H1217 N1211 0.985 . S
H1218 N1215 0.984 . S
H1219 N1215 0.985 . S
H1220 N1214 0.984 . S
H1221 N1214 0.984 . S
H1222 N1210 0.984 . S
H1223 N1210 0.985 . S
C1224 C1225 1.363 . S
C1224 C1230 1.379 . S
C1224 N1232 1.356 . S
C1225 C1224 1.363 . S
C1225 C1231 1.363 . S
C1226 C1227 1.363 . S
C1226 C1231 1.379 . S
C1226 N1233 1.356 . S
C1227 C1226 1.363 . S
C1227 C1230 1.363 . S
N1228 C1230 1.356 . S
N1228 H1240 0.984 . S
N1228 H1241 0.985 . S
N1229 C1231 1.356 . S
N1229 H1234 0.984 . S
N1229 H1235 0.985 . S
C1230 C1224 1.379 . S
C1230 C1227 1.363 . S
C1230 N1228 1.356 . S
C1231 C1225 1.363 . S
C1231 C1226 1.379 . S
C1231 N1229 1.356 . S
N1232 C1224 1.356 . S
N1232 H1238 0.984 . S
N1232 H1239 0.984 . S
N1233 C1226 1.356 . S
N1233 H1236 0.984 . S
N1233 H1237 0.985 . S
H1234 N1229 0.984 . S
H1235 N1229 0.985 . S
H1236 N1233 0.984 . S
H1237 N1233 0.985 . S
H1238 N1232 0.984 . S
H1239 N1232 0.984 . S
H1240 N1228 0.984 . S
H1241 N1228 0.985 . S
C1242 C1243 1.363 . S
C1242 C1248 1.379 . S
C1242 N1250 1.356 . S
C1243 C1242 1.363 . S
C1243 C1249 1.363 . S
C1244 C1245 1.363 . S
C1244 C1249 1.379 . S
C1244 N1251 1.356 . S
C1245 C1244 1.363 . S
C1245 C1248 1.363 . S
N1246 C1248 1.356 . S
N1246 H1258 0.984 . S
N1246 H1259 0.985 . S
N1247 C1249 1.356 . S
N1247 H1252 0.984 . S
N1247 H1253 0.985 . S
C1248 C1242 1.379 . S
C1248 C1245 1.363 . S
C1248 N1246 1.356 . S
C1249 C1243 1.363 . S
C1249 C1244 1.379 . S
C1249 N1247 1.356 . S
N1250 C1242 1.356 . S
N1250 H1256 0.984 . S
N1250 H1257 0.984 . S
N1251 C1244 1.356 . S
N1251 H1254 0.984 . S
N1251 H1255 0.985 . S
H1252 N1247 0.984 . S
H1253 N1247 0.985 . S
H1254 N1251 0.984 . S
H1255 N1251 0.985 . S
H1256 N1250 0.984 . S
H1257 N1250 0.984 . S
H1258 N1246 0.984 . S
H1259 N1246 0.985 . S
C1260 C1261 1.363 . S
C1260 C1266 1.379 . S
C1260 N1268 1.356 . S
C1261 C1260 1.363 . S
C1261 C1267 1.363 . S
C1262 C1263 1.363 . S
C1262 C1267 1.379 . S
C1262 N1269 1.356 . S
C1263 C1262 1.363 . S
C1263 C1266 1.363 . S
N1264 C1266 1.356 . S
N1264 H1276 0.984 . S
N1264 H1277 0.985 . S
N1265 C1267 1.356 . S
N1265 H1270 0.984 . S
N1265 H1271 0.985 . S
C1266 C1260 1.379 . S
C1266 C1263 1.363 . S
C1266 N1264 1.356 . S
C1267 C1261 1.363 . S
C1267 C1262 1.379 . S
C1267 N1265 1.356 . S
N1268 C1260 1.356 . S
N1268 H1274 0.984 . S
N1268 H1275 0.984 . S
N1269 C1262 1.356 . S
N1269 H1272 0.984 . S
N1269 H1273 0.985 . S
H1270 N1265 0.984 . S
H1271 N1265 0.985 . S
H1272 N1269 0.984 . S
H1273 N1269 0.985 . S
H1274 N1268 0.984 . S
H1275 N1268 0.984 . S
H1276 N1264 0.984 . S
H1277 N1264 0.985 . S
C1278 C1279 1.363 . S
C1278 C1284 1.379 . S
C1278 N1286 1.356 . S
C1279 C1278 1.363 . S
C1279 C1285 1.363 . S
C1280 C1281 1.363 . S
C1280 C1285 1.379 . S
C1280 N1287 1.356 . S
C1281 C1280 1.363 . S
C1281 C1284 1.363 . S
N1282 C1284 1.356 . S
N1282 H1294 0.984 . S
N1282 H1295 0.985 . S
N1283 C1285 1.356 . S
N1283 H1288 0.984 . S
N1283 H1289 0.985 . S
C1284 C1278 1.379 . S
C1284 C1281 1.363 . S
C1284 N1282 1.356 . S
C1285 C1279 1.363 . S
C1285 C1280 1.379 . S
C1285 N1283 1.356 . S
N1286 C1278 1.356 . S
N1286 H1292 0.984 . S
N1286 H1293 0.984 . S
N1287 C1280 1.356 . S
N1287 H1290 0.984 . S
N1287 H1291 0.985 . S
H1288 N1283 0.984 . S
H1289 N1283 0.985 . S
H1290 N1287 0.984 . S
H1291 N1287 0.985 . S
H1292 N1286 0.984 . S
H1293 N1286 0.984 . S
H1294 N1282 0.984 . S
H1295 N1282 0.985 . S
C1296 C1297 1.363 . S
C1296 C1302 1.379 1_545 S
C1296 N1304 1.356 . S
C1297 C1296 1.363 . S
C1297 C1303 1.363 . S
C1298 C1299 1.363 . S
C1298 C1303 1.379 1_565 S
C1298 N1305 1.356 . S
C1299 C1298 1.363 . S
C1299 C1302 1.363 . S
N1300 C1302 1.356 . S
N1300 H1312 0.984 . S
N1300 H1313 0.985 . S
N1301 C1303 1.356 . S
N1301 H1306 0.984 . S
N1301 H1307 0.985 . S
C1302 C1296 1.379 1_565 S
C1302 C1299 1.363 . S
C1302 N1300 1.356 . S
C1303 C1297 1.363 . S
C1303 C1298 1.379 1_545 S
C1303 N1301 1.356 . S
N1304 C1296 1.356 . S
N1304 H1310 0.984 . S
N1304 H1311 0.984 . S
N1305 C1298 1.356 . S
N1305 H1308 0.984 . S
N1305 H1309 0.985 . S
H1306 N1301 0.984 . S
H1307 N1301 0.985 . S
H1308 N1305 0.984 . S
H1309 N1305 0.985 . S
H1310 N1304 0.984 . S
H1311 N1304 0.984 . S
H1312 N1300 0.984 . S
H1313 N1300 0.985 . S
C1314 C1315 1.363 . S
C1314 C1320 1.379 1_655 S
C1314 N1322 1.356 . S
C1315 C1314 1.363 . S
C1315 C1321 1.363 . S
C1316 C1317 1.363 . S
C1316 C1321 1.379 1_455 S
C1316 N1323 1.356 . S
C1317 C1316 1.363 . S
C1317 C1320 1.363 . S
N1318 C1320 1.356 . S
N1318 H1330 0.984 . S
N1318 H1331 0.985 . S
N1319 C1321 1.356 . S
N1319 H1324 0.984 . S
N1319 H1325 0.985 . S
C1320 C1314 1.379 1_455 S
C1320 C1317 1.363 . S
C1320 N1318 1.356 . S
C1321 C1315 1.363 . S
C1321 C1316 1.379 1_655 S
C1321 N1319 1.356 . S
N1322 C1314 1.356 . S
N1322 H1328 0.984 . S
N1322 H1329 0.984 . S
N1323 C1316 1.356 . S
N1323 H1326 0.984 . S
N1323 H1327 0.985 . S
H1324 N1319 0.984 . S
H1325 N1319 0.985 . S
H1326 N1323 0.984 . S
H1327 N1323 0.985 . S
H1328 N1322 0.984 . S
H1329 N1322 0.984 . S
H1330 N1318 0.984 . S
H1331 N1318 0.985 . S
C1332 C1333 1.363 . S
C1332 C1338 1.379 . S
C1332 N1340 1.356 . S
C1333 C1332 1.363 . S
C1333 C1339 1.363 . S
C1334 C1335 1.363 . S
C1334 C1339 1.379 . S
C1334 N1341 1.356 . S
C1335 C1334 1.363 . S
C1335 C1338 1.363 . S
N1336 C1338 1.356 . S
N1336 H1348 0.984 . S
N1336 H1349 0.985 . S
N1337 C1339 1.356 . S
N1337 H1342 0.984 . S
N1337 H1343 0.985 . S
C1338 C1332 1.379 . S
C1338 C1335 1.363 . S
C1338 N1336 1.356 . S
C1339 C1333 1.363 . S
C1339 C1334 1.379 . S
C1339 N1337 1.356 . S
N1340 C1332 1.356 . S
N1340 H1346 0.984 . S
N1340 H1347 0.984 . S
N1341 C1334 1.356 . S
N1341 H1344 0.984 . S
N1341 H1345 0.985 . S
H1342 N1337 0.984 . S
H1343 N1337 0.985 . S
H1344 N1341 0.984 . S
H1345 N1341 0.985 . S
H1346 N1340 0.984 . S
H1347 N1340 0.984 . S
H1348 N1336 0.984 . S
H1349 N1336 0.985 . S
C1350 C1351 1.363 . S
C1350 C1356 1.379 . S
C1350 N1358 1.356 . S
C1351 C1350 1.363 . S
C1351 C1357 1.363 . S
C1352 C1353 1.363 . S
C1352 C1357 1.379 . S
C1352 N1359 1.356 . S
C1353 C1352 1.363 . S
C1353 C1356 1.363 . S
N1354 C1356 1.356 . S
N1354 H1366 0.984 . S
N1354 H1367 0.985 . S
N1355 C1357 1.356 . S
N1355 H1360 0.984 . S
N1355 H1361 0.985 . S
C1356 C1350 1.379 . S
C1356 C1353 1.363 . S
C1356 N1354 1.356 . S
C1357 C1351 1.363 . S
C1357 C1352 1.379 . S
C1357 N1355 1.356 . S
N1358 C1350 1.356 . S
N1358 H1364 0.984 . S
N1358 H1365 0.984 . S
N1359 C1352 1.356 . S
N1359 H1362 0.984 . S
N1359 H1363 0.985 . S
H1360 N1355 0.984 . S
H1361 N1355 0.985 . S
H1362 N1359 0.984 . S
H1363 N1359 0.985 . S
H1364 N1358 0.984 . S
H1365 N1358 0.984 . S
H1366 N1354 0.984 . S
H1367 N1354 0.985 . S
C1368 C1369 1.363 . S
C1368 C1374 1.379 . S
C1368 N1376 1.356 . S
C1369 C1368 1.363 . S
C1369 C1375 1.363 . S
C1370 C1371 1.363 . S
C1370 C1375 1.379 . S
C1370 N1377 1.356 . S
C1371 C1370 1.363 . S
C1371 C1374 1.363 . S
N1372 C1374 1.356 . S
N1372 H1384 0.984 . S
N1372 H1385 0.985 . S
N1373 C1375 1.356 . S
N1373 H1378 0.984 . S
N1373 H1379 0.985 . S
C1374 C1368 1.379 . S
C1374 C1371 1.363 . S
C1374 N1372 1.356 . S
C1375 C1369 1.363 . S
C1375 C1370 1.379 . S
C1375 N1373 1.356 . S
N1376 C1368 1.356 . S
N1376 H1382 0.984 . S
N1376 H1383 0.984 . S
N1377 C1370 1.356 . S
N1377 H1380 0.984 . S
N1377 H1381 0.985 . S
H1378 N1373 0.984 . S
H1379 N1373 0.985 . S
H1380 N1377 0.984 . S
H1381 N1377 0.985 . S
H1382 N1376 0.984 . S
H1383 N1376 0.984 . S
H1384 N1372 0.984 . S
H1385 N1372 0.985 . S
C1386 C1387 1.363 . S
C1386 C1392 1.379 . S
C1386 N1394 1.356 . S
C1387 C1386 1.363 . S
C1387 C1393 1.363 . S
C1388 C1389 1.363 . S
C1388 C1393 1.379 . S
C1388 N1395 1.356 . S
C1389 C1388 1.363 . S
C1389 C1392 1.363 . S
N1390 C1392 1.356 . S
N1390 H1402 0.984 . S
N1390 H1403 0.985 . S
N1391 C1393 1.356 . S
N1391 H1396 0.984 . S
N1391 H1397 0.985 . S
C1392 C1386 1.379 . S
C1392 C1389 1.363 . S
C1392 N1390 1.356 . S
C1393 C1387 1.363 . S
C1393 C1388 1.379 . S
C1393 N1391 1.356 . S
N1394 C1386 1.356 . S
N1394 H1400 0.984 . S
N1394 H1401 0.984 . S
N1395 C1388 1.356 . S
N1395 H1398 0.984 . S
N1395 H1399 0.985 . S
H1396 N1391 0.984 . S
H1397 N1391 0.985 . S
H1398 N1395 0.984 . S
H1399 N1395 0.985 . S
H1400 N1394 0.984 . S
H1401 N1394 0.984 . S
H1402 N1390 0.984 . S
H1403 N1390 0.985 . S
C1404 C1405 1.363 . S
C1404 C1410 1.379 1_565 S
C1404 N1412 1.356 . S
C1405 C1404 1.363 . S
C1405 C1411 1.363 . S
C1406 C1407 1.363 . S
C1406 C1411 1.379 1_545 S
C1406 N1413 1.356 . S
C1407 C1406 1.363 . S
C1407 C1410 1.363 . S
N1408 C1410 1.356 . S
N1408 H1420 0.984 . S
N1408 H1421 0.985 . S
N1409 C1411 1.356 . S
N1409 H1414 0.984 . S
N1409 H1415 0.985 . S
C1410 C1404 1.379 1_545 S
C1410 C1407 1.363 . S
C1410 N1408 1.356 . S
C1411 C1405 1.363 . S
C1411 C1406 1.379 1_565 S
C1411 N1409 1.356 . S
N1412 C1404 1.356 . S
N1412 H1418 0.984 . S
N1412 H1419 0.984 . S
N1413 C1406 1.356 . S
N1413 H1416 0.984 . S
N1413 H1417 0.985 . S
H1414 N1409 0.984 . S
H1415 N1409 0.985 . S
H1416 N1413 0.984 . S
H1417 N1413 0.985 . S
H1418 N1412 0.984 . S
H1419 N1412 0.984 . S
H1420 N1408 0.984 . S
H1421 N1408 0.985 . S
C1422 C1423 1.363 1_655 S
C1422 C1428 1.379 . S
C1422 N1430 1.356 1_655 S
C1423 C1422 1.363 1_455 S
C1423 C1429 1.363 . S
C1424 C1425 1.363 . S
C1424 C1429 1.379 1_655 S
C1424 N1431 1.356 . S
C1425 C1424 1.363 . S
C1425 C1428 1.363 . S
N1426 C1428 1.356 . S
N1426 H1438 0.984 . S
N1426 H1439 0.985 . S
N1427 C1429 1.356 . S
N1427 H1432 0.984 . S
N1427 H1433 0.985 . S
C1428 C1422 1.379 . S
C1428 C1425 1.363 . S
C1428 N1426 1.356 . S
C1429 C1423 1.363 . S
C1429 C1424 1.379 1_455 S
C1429 N1427 1.356 . S
N1430 C1422 1.356 1_455 S
N1430 H1436 0.984 1_455 S
N1430 H1437 0.984 . S
N1431 C1424 1.356 . S
N1431 H1434 0.984 . S
N1431 H1435 0.985 . S
H1432 N1427 0.984 . S
H1433 N1427 0.985 . S
H1434 N1431 0.984 . S
H1435 N1431 0.985 . S
H1436 N1430 0.984 1_655 S
H1437 N1430 0.984 . S
H1438 N1426 0.984 . S
H1439 N1426 0.985 . S
C1440 C1441 1.363 . S
C1440 C1446 1.379 . S
C1440 N1448 1.356 . S
C1441 C1440 1.363 . S
C1441 C1447 1.363 . S
C1442 C1443 1.363 . S
C1442 C1447 1.379 . S
C1442 N1449 1.356 . S
C1443 C1442 1.363 . S
C1443 C1446 1.363 . S
N1444 C1446 1.356 . S
N1444 H1456 0.984 . S
N1444 H1457 0.985 . S
N1445 C1447 1.356 . S
N1445 H1450 0.984 . S
N1445 H1451 0.985 . S
C1446 C1440 1.379 . S
C1446 C1443 1.363 . S
C1446 N1444 1.356 . S
C1447 C1441 1.363 . S
C1447 C1442 1.379 . S
C1447 N1445 1.356 . S
N1448 C1440 1.356 . S
N1448 H1454 0.984 . S
N1448 H1455 0.984 . S
N1449 C1442 1.356 . S
N1449 H1452 0.984 . S
N1449 H1453 0.985 . S
H1450 N1445 0.984 . S
H1451 N1445 0.985 . S
H1452 N1449 0.984 . S
H1453 N1449 0.985 . S
H1454 N1448 0.984 . S
H1455 N1448 0.984 . S
H1456 N1444 0.984 . S
H1457 N1444 0.985 . S
C1458 C1459 1.363 . S
C1458 C1464 1.379 1_455 S
C1458 N1466 1.356 . S
C1459 C1458 1.363 . S
C1459 C1465 1.363 . S
C1460 C1461 1.363 . S
C1460 C1465 1.379 1_655 S
C1460 N1467 1.356 . S
C1461 C1460 1.363 . S
C1461 C1464 1.363 . S
N1462 C1464 1.356 . S
N1462 H1474 0.984 . S
N1462 H1475 0.985 . S
N1463 C1465 1.356 . S
N1463 H1468 0.984 . S
N1463 H1469 0.985 . S
C1464 C1458 1.379 1_655 S
C1464 C1461 1.363 . S
C1464 N1462 1.356 . S
C1465 C1459 1.363 . S
C1465 C1460 1.379 1_455 S
C1465 N1463 1.356 . S
N1466 C1458 1.356 . S
N1466 H1472 0.984 . S
N1466 H1473 0.984 . S
N1467 C1460 1.356 . S
N1467 H1470 0.984 . S
N1467 H1471 0.985 . S
H1468 N1463 0.984 . S
H1469 N1463 0.985 . S
H1470 N1467 0.984 . S
H1471 N1467 0.985 . S
H1472 N1466 0.984 . S
H1473 N1466 0.984 . S
H1474 N1462 0.984 . S
H1475 N1462 0.985 . S
C1476 C1477 1.363 . S
C1476 C1482 1.379 . S
C1476 N1484 1.356 . S
C1477 C1476 1.363 . S
C1477 C1483 1.363 . S
C1478 C1479 1.363 . S
C1478 C1483 1.379 . S
C1478 N1485 1.356 . S
C1479 C1478 1.363 . S
C1479 C1482 1.363 . S
N1480 C1482 1.356 . S
N1480 H1492 0.984 . S
N1480 H1493 0.985 . S
N1481 C1483 1.356 . S
N1481 H1486 0.984 . S
N1481 H1487 0.985 . S
C1482 C1476 1.379 . S
C1482 C1479 1.363 . S
C1482 N1480 1.356 . S
C1483 C1477 1.363 . S
C1483 C1478 1.379 . S
C1483 N1481 1.356 . S
N1484 C1476 1.356 . S
N1484 H1490 0.984 . S
N1484 H1491 0.984 . S
N1485 C1478 1.356 . S
N1485 H1488 0.984 . S
N1485 H1489 0.985 . S
H1486 N1481 0.984 . S
H1487 N1481 0.985 . S
H1488 N1485 0.984 . S
H1489 N1485 0.985 . S
H1490 N1484 0.984 . S
H1491 N1484 0.984 . S
H1492 N1480 0.984 . S
H1493 N1480 0.985 . S
C1494 C1495 1.363 . S
C1494 C1500 1.379 1_565 S
C1494 N1502 1.356 . S
C1495 C1494 1.363 . S
C1495 C1501 1.363 . S
C1496 C1497 1.363 . S
C1496 C1501 1.379 1_545 S
C1496 N1503 1.356 . S
C1497 C1496 1.363 . S
C1497 C1500 1.363 . S
N1498 C1500 1.356 . S
N1498 H1510 0.984 . S
N1498 H1511 0.985 . S
N1499 C1501 1.356 . S
N1499 H1504 0.984 . S
N1499 H1505 0.985 . S
C1500 C1494 1.379 1_545 S
C1500 C1497 1.363 . S
C1500 N1498 1.356 . S
C1501 C1495 1.363 . S
C1501 C1496 1.379 1_565 S
C1501 N1499 1.356 . S
N1502 C1494 1.356 . S
N1502 H1508 0.984 . S
N1502 H1509 0.984 . S
N1503 C1496 1.356 . S
N1503 H1506 0.984 . S
N1503 H1507 0.985 . S
H1504 N1499 0.984 . S
H1505 N1499 0.985 . S
H1506 N1503 0.984 . S
H1507 N1503 0.985 . S
H1508 N1502 0.984 . S
H1509 N1502 0.984 . S
H1510 N1498 0.984 . S
H1511 N1498 0.985 . S
C1512 C1513 1.363 . S
C1512 C1518 1.379 . S
C1512 N1520 1.356 . S
C1513 C1512 1.363 . S
C1513 C1519 1.363 . S
C1514 C1515 1.363 . S
C1514 C1519 1.379 . S
C1514 N1521 1.356 . S
C1515 C1514 1.363 . S
C1515 C1518 1.363 . S
N1516 C1518 1.356 . S
N1516 H1528 0.984 . S
N1516 H1529 0.985 . S
N1517 C1519 1.356 . S
N1517 H1522 0.984 . S
N1517 H1523 0.985 . S
C1518 C1512 1.379 . S
C1518 C1515 1.363 . S
C1518 N1516 1.356 . S
C1519 C1513 1.363 . S
C1519 C1514 1.379 . S
C1519 N1517 1.356 . S
N1520 C1512 1.356 . S
N1520 H1526 0.984 . S
N1520 H1527 0.984 . S
N1521 C1514 1.356 . S
N1521 H1524 0.984 . S
N1521 H1525 0.985 . S
H1522 N1517 0.984 . S
H1523 N1517 0.985 . S
H1524 N1521 0.984 . S
H1525 N1521 0.985 . S
H1526 N1520 0.984 . S
H1527 N1520 0.984 . S
H1528 N1516 0.984 . S
H1529 N1516 0.985 . S
C1530 C1531 1.363 . S
C1530 C1536 1.379 . S
C1530 N1538 1.356 . S
C1531 C1530 1.363 . S
C1531 C1537 1.363 . S
C1532 C1533 1.363 . S
C1532 C1537 1.379 . S
C1532 N1539 1.356 . S
C1533 C1532 1.363 . S
C1533 C1536 1.363 . S
N1534 C1536 1.356 . S
N1534 H1546 0.984 . S
N1534 H1547 0.985 . S
N1535 C1537 1.356 . S
N1535 H1540 0.984 . S
N1535 H1541 0.985 . S
C1536 C1530 1.379 . S
C1536 C1533 1.363 . S
C1536 N1534 1.356 . S
C1537 C1531 1.363 . S
C1537 C1532 1.379 . S
C1537 N1535 1.356 . S
N1538 C1530 1.356 . S
N1538 H1544 0.984 . S
N1538 H1545 0.984 . S
N1539 C1532 1.356 . S
N1539 H1542 0.984 . S
N1539 H1543 0.985 . S
H1540 N1535 0.984 . S
H1541 N1535 0.985 . S
H1542 N1539 0.984 . S
H1543 N1539 0.985 . S
H1544 N1538 0.984 . S
H1545 N1538 0.984 . S
H1546 N1534 0.984 . S
H1547 N1534 0.985 . S
C1548 C1549 1.363 . S
C1548 C1554 1.379 . S
C1548 N1556 1.356 . S
C1549 C1548 1.363 . S
C1549 C1555 1.363 . S
C1550 C1551 1.363 . S
C1550 C1555 1.379 . S
C1550 N1557 1.356 . S
C1551 C1550 1.363 . S
C1551 C1554 1.363 . S
N1552 C1554 1.356 . S
N1552 H1564 0.984 . S
N1552 H1565 0.985 . S
N1553 C1555 1.356 . S
N1553 H1558 0.984 . S
N1553 H1559 0.985 . S
C1554 C1548 1.379 . S
C1554 C1551 1.363 . S
C1554 N1552 1.356 . S
C1555 C1549 1.363 . S
C1555 C1550 1.379 . S
C1555 N1553 1.356 . S
N1556 C1548 1.356 . S
N1556 H1562 0.984 . S
N1556 H1563 0.984 . S
N1557 C1550 1.356 . S
N1557 H1560 0.984 . S
N1557 H1561 0.985 . S
H1558 N1553 0.984 . S
H1559 N1553 0.985 . S
H1560 N1557 0.984 . S
H1561 N1557 0.985 . S
H1562 N1556 0.984 . S
H1563 N1556 0.984 . S
H1564 N1552 0.984 . S
H1565 N1552 0.985 . S
C1566 C1567 1.363 . S
C1566 C1572 1.379 . S
C1566 N1574 1.356 . S
C1567 C1566 1.363 . S
C1567 C1573 1.363 . S
C1568 C1569 1.363 . S
C1568 C1573 1.379 . S
C1568 N1575 1.371 . S
C1569 C1568 1.363 . S
C1569 C1572 1.363 . S
N1570 C1572 1.356 . S
N1570 H1582 0.984 . S
N1570 H1583 0.985 . S
N1571 C1573 1.356 . S
N1571 H1576 0.984 . S
N1571 H1577 0.985 . S
C1572 C1566 1.379 . S
C1572 C1569 1.363 . S
C1572 N1570 1.356 . S
C1573 C1567 1.363 . S
C1573 C1568 1.379 . S
C1573 N1571 1.356 . S
N1574 C1566 1.356 . S
N1574 H1580 0.984 . S
N1574 H1581 0.984 . S
N1575 C1568 1.371 . S
N1575 H1578 0.984 1_565 S
N1575 H1579 0.970 1_565 S
H1576 N1571 0.984 . S
H1577 N1571 0.985 . S
H1578 N1575 0.984 1_545 S
H1579 N1575 0.970 1_545 S
H1580 N1574 0.984 . S
H1581 N1574 0.984 . S
H1582 N1570 0.984 . S
H1583 N1570 0.985 . S
C1584 C1585 1.363 . S
C1584 C1590 1.379 . S
C1584 N1592 1.356 . S
C1585 C1584 1.363 . S
C1585 C1591 1.363 . S
C1586 C1587 1.363 . S
C1586 C1591 1.379 . S
C1586 N1593 1.356 . S
C1587 C1586 1.363 . S
C1587 C1590 1.363 . S
N1588 C1590 1.356 . S
N1588 H1600 0.984 . S
N1588 H1601 0.985 . S
N1589 C1591 1.356 . S
N1589 H1594 0.984 . S
N1589 H1595 0.985 . S
C1590 C1584 1.379 . S
C1590 C1587 1.363 . S
C1590 N1588 1.356 . S
C1591 C1585 1.363 . S
C1591 C1586 1.379 . S
C1591 N1589 1.356 . S
N1592 C1584 1.356 . S
N1592 H1598 0.984 . S
N1592 H1599 0.984 . S
N1593 C1586 1.356 . S
N1593 H1596 0.984 . S
N1593 H1597 0.985 . S
H1594 N1589 0.984 . S
H1595 N1589 0.985 . S
H1596 N1593 0.984 . S
H1597 N1593 0.985 . S
H1598 N1592 0.984 . S
H1599 N1592 0.984 . S
H1600 N1588 0.984 . S
H1601 N1588 0.985 . S
C1602 C1603 1.363 . S
C1602 C1608 1.379 . S
C1602 N1610 1.356 . S
C1603 C1602 1.363 . S
C1603 C1609 1.363 . S
C1604 C1605 1.363 . S
C1604 C1609 1.379 . S
C1604 N1611 1.356 . S
C1605 C1604 1.363 . S
C1605 C1608 1.363 . S
N1606 C1608 1.356 . S
N1606 H1618 0.984 . S
N1606 H1619 0.985 . S
N1607 C1609 1.356 . S
N1607 H1612 0.984 . S
N1607 H1613 0.985 . S
C1608 C1602 1.379 . S
C1608 C1605 1.363 . S
C1608 N1606 1.356 . S
C1609 C1603 1.363 . S
C1609 C1604 1.379 . S
C1609 N1607 1.356 . S
N1610 C1602 1.356 . S
N1610 H1616 0.984 . S
N1610 H1617 0.984 . S
N1611 C1604 1.356 . S
N1611 H1614 0.984 . S
N1611 H1615 0.985 . S
H1612 N1607 0.984 . S
H1613 N1607 0.985 . S
H1614 N1611 0.984 . S
H1615 N1611 0.985 . S
H1616 N1610 0.984 . S
H1617 N1610 0.984 . S
H1618 N1606 0.984 . S
H1619 N1606 0.985 . S
C1620 C1621 1.363 . S
C1620 C1626 1.379 . S
C1620 N1628 1.356 . S
C1621 C1620 1.363 . S
C1621 C1627 1.363 . S
C1622 C1623 1.363 . S
C1622 C1627 1.379 . S
C1622 N1629 1.356 . S
C1623 C1622 1.363 . S
C1623 C1626 1.363 . S
N1624 C1626 1.356 1_455 S
N1624 H1636 0.984 . S
N1624 H1637 0.985 . S
N1625 C1627 1.356 . S
N1625 H1630 0.984 . S
N1625 H1631 0.985 . S
C1626 C1620 1.379 . S
C1626 C1623 1.363 . S
C1626 N1624 1.356 1_655 S
C1627 C1621 1.363 . S
C1627 C1622 1.379 . S
C1627 N1625 1.356 . S
N1628 C1620 1.356 . S
N1628 H1634 0.984 1_655 S
N1628 H1635 0.984 . S
N1629 C1622 1.356 . S
N1629 H1632 0.984 . S
N1629 H1633 0.985 . S
H1630 N1625 0.984 . S
H1631 N1625 0.985 . S
H1632 N1629 0.984 . S
H1633 N1629 0.985 . S
H1634 N1628 0.984 1_455 S
H1635 N1628 0.984 . S
H1636 N1624 0.984 . S
H1637 N1624 0.985 . S
C1638 C1639 1.363 . S
C1638 C1644 1.379 . S
C1638 N1646 1.356 . S
C1639 C1638 1.363 . S
C1639 C1645 1.363 . S
C1640 C1641 1.363 . S
C1640 C1645 1.379 . S
C1640 N1647 1.356 . S
C1641 C1640 1.363 . S
C1641 C1644 1.363 . S
N1642 C1644 1.356 . S
N1642 H1654 0.984 . S
N1642 H1655 0.985 . S
N1643 C1645 1.356 . S
N1643 H1648 0.984 . S
N1643 H1649 0.985 . S
C1644 C1638 1.379 . S
C1644 C1641 1.363 . S
C1644 N1642 1.356 . S
C1645 C1639 1.363 . S
C1645 C1640 1.379 . S
C1645 N1643 1.356 . S
N1646 C1638 1.356 . S
N1646 H1652 0.984 . S
N1646 H1653 0.984 . S
N1647 C1640 1.356 . S
N1647 H1650 0.984 . S
N1647 H1651 0.985 . S
H1648 N1643 0.984 . S
H1649 N1643 0.985 . S
H1650 N1647 0.984 . S
H1651 N1647 0.985 . S
H1652 N1646 0.984 . S
H1653 N1646 0.984 . S
H1654 N1642 0.984 . S
H1655 N1642 0.985 . S
C1656 C1657 1.363 . S
C1656 C1662 1.379 . S
C1656 N1664 1.356 . S
C1657 C1656 1.363 . S
C1657 C1663 1.363 . S
C1658 C1659 1.363 . S
C1658 C1663 1.379 . S
C1658 N1665 1.356 1_545 S
C1659 C1658 1.363 . S
C1659 C1662 1.363 . S
N1660 C1662 1.356 . S
N1660 H1672 0.984 . S
N1660 H1673 0.985 . S
N1661 C1663 1.356 . S
N1661 H1666 0.984 . S
N1661 H1667 0.985 1_545 S
C1662 C1656 1.379 . S
C1662 C1659 1.363 . S
C1662 N1660 1.356 . S
C1663 C1657 1.363 . S
C1663 C1658 1.379 . S
C1663 N1661 1.356 . S
N1664 C1656 1.356 . S
N1664 H1670 0.984 . S
N1664 H1671 0.984 . S
N1665 C1658 1.356 1_565 S
N1665 H1668 0.984 . S
N1665 H1669 0.985 . S
H1666 N1661 0.984 . S
H1667 N1661 0.985 1_565 S
H1668 N1665 0.984 . S
H1669 N1665 0.985 . S
H1670 N1664 0.984 . S
H1671 N1664 0.984 . S
H1672 N1660 0.984 . S
H1673 N1660 0.985 . S
C1674 C1675 1.363 . S
C1674 C1680 1.379 . S
C1674 N1682 1.356 . S
C1675 C1674 1.363 . S
C1675 C1681 1.363 . S
C1676 C1677 1.363 . S
C1676 C1681 1.379 . S
C1676 N1683 1.356 . S
C1677 C1676 1.363 . S
C1677 C1680 1.363 . S
N1678 C1680 1.356 . S
N1678 H1690 0.984 . S
N1678 H1691 0.985 . S
N1679 C1681 1.356 . S
N1679 H1684 0.984 . S
N1679 H1685 0.985 . S
C1680 C1674 1.379 . S
C1680 C1677 1.363 . S
C1680 N1678 1.356 . S
C1681 C1675 1.363 . S
C1681 C1676 1.379 . S
C1681 N1679 1.356 . S
N1682 C1674 1.356 . S
N1682 H1688 0.984 . S
N1682 H1689 0.984 . S
N1683 C1676 1.356 . S
N1683 H1686 0.984 . S
N1683 H1687 0.985 . S
H1684 N1679 0.984 . S
H1685 N1679 0.985 . S
H1686 N1683 0.984 . S
H1687 N1683 0.985 . S
H1688 N1682 0.984 . S
H1689 N1682 0.984 . S
H1690 N1678 0.984 . S
H1691 N1678 0.985 . S
C1692 C1693 1.363 . S
C1692 C1698 1.379 . S
C1692 N1700 1.356 . S
C1693 C1692 1.363 . S
C1693 C1699 1.363 . S
C1694 C1695 1.363 . S
C1694 C1699 1.379 . S
C1694 N1701 1.356 . S
C1695 C1694 1.363 . S
C1695 C1698 1.363 . S
N1696 C1698 1.356 . S
N1696 H1708 0.984 . S
N1696 H1709 0.985 . S
N1697 C1699 1.356 . S
N1697 H1702 0.984 . S
N1697 H1703 0.985 . S
C1698 C1692 1.379 . S
C1698 C1695 1.363 . S
C1698 N1696 1.356 . S
C1699 C1693 1.363 . S
C1699 C1694 1.379 . S
C1699 N1697 1.356 . S
N1700 C1692 1.356 . S
N1700 H1706 0.984 . S
N1700 H1707 0.984 . S
N1701 C1694 1.356 . S
N1701 H1704 0.984 . S
N1701 H1705 0.985 . S
H1702 N1697 0.984 . S
H1703 N1697 0.985 . S
H1704 N1701 0.984 . S
H1705 N1701 0.985 . S
H1706 N1700 0.984 . S
H1707 N1700 0.984 . S
H1708 N1696 0.984 . S
H1709 N1696 0.985 . S
C1710 C1711 1.363 . S
C1710 C1716 1.379 . S
C1710 N1718 1.356 . S
C1711 C1710 1.363 . S
C1711 C1717 1.363 . S
C1712 C1713 1.363 . S
C1712 C1717 1.379 . S
C1712 N1719 1.356 . S
C1713 C1712 1.363 . S
C1713 C1716 1.363 . S
N1714 C1716 1.356 . S
N1714 H1726 0.984 . S
N1714 H1727 0.985 . S
N1715 C1717 1.356 . S
N1715 H1720 0.984 . S
N1715 H1721 0.985 . S
C1716 C1710 1.379 . S
C1716 C1713 1.363 . S
C1716 N1714 1.356 . S
C1717 C1711 1.363 . S
C1717 C1712 1.379 . S
C1717 N1715 1.356 . S
N1718 C1710 1.356 . S
N1718 H1724 0.984 . S
N1718 H1725 0.984 . S
N1719 C1712 1.356 . S
N1719 H1722 0.984 . S
N1719 H1723 0.985 . S
H1720 N1715 0.984 . S
H1721 N1715 0.985 . S
H1722 N1719 0.984 . S
H1723 N1719 0.985 . S
H1724 N1718 0.984 . S
H1725 N1718 0.984 . S
H1726 N1714 0.984 . S
H1727 N1714 0.985 . S
C1728 C1729 1.363 . S
C1728 C1734 1.379 . S
C1728 N1736 1.356 . S
C1729 C1728 1.363 . S
C1729 C1735 1.363 . S
C1730 C1731 1.363 . S
C1730 C1735 1.379 . S
C1730 N1737 1.356 . S
C1731 C1730 1.363 . S
C1731 C1734 1.363 . S
N1732 C1734 1.356 . S
N1732 H1744 0.984 . S
N1732 H1745 0.985 . S
N1733 C1735 1.356 . S
N1733 H1738 0.984 . S
N1733 H1739 0.985 . S
C1734 C1728 1.379 . S
C1734 C1731 1.363 . S
C1734 N1732 1.356 . S
C1735 C1729 1.363 . S
C1735 C1730 1.379 . S
C1735 N1733 1.356 . S
N1736 C1728 1.356 . S
N1736 H1742 0.984 . S
N1736 H1743 0.984 . S
N1737 C1730 1.356 . S
N1737 H1740 0.984 . S
N1737 H1741 0.985 . S
H1738 N1733 0.984 . S
H1739 N1733 0.985 . S
H1740 N1737 0.984 . S
H1741 N1737 0.985 . S
H1742 N1736 0.984 . S
H1743 N1736 0.984 . S
H1744 N1732 0.984 . S
H1745 N1732 0.985 . S
C1746 C1747 1.363 . S
C1746 C1752 1.379 . S
C1746 N1754 1.356 . S
C1747 C1746 1.363 . S
C1747 C1753 1.363 . S
C1748 C1749 1.363 . S
C1748 C1753 1.379 . S
C1748 N1755 1.356 . S
C1749 C1748 1.363 . S
C1749 C1752 1.363 . S
N1750 C1752 1.356 . S
N1750 H1762 0.984 . S
N1750 H1763 0.985 . S
N1751 C1753 1.356 . S
N1751 H1756 0.984 . S
N1751 H1757 0.985 . S
C1752 C1746 1.379 . S
C1752 C1749 1.363 . S
C1752 N1750 1.356 . S
C1753 C1747 1.363 . S
C1753 C1748 1.379 . S
C1753 N1751 1.356 . S
N1754 C1746 1.356 . S
N1754 H1760 0.984 . S
N1754 H1761 0.984 . S
N1755 C1748 1.356 . S
N1755 H1758 0.984 . S
N1755 H1759 0.985 . S
H1756 N1751 0.984 . S
H1757 N1751 0.985 . S
H1758 N1755 0.984 . S
H1759 N1755 0.985 . S
H1760 N1754 0.984 . S
H1761 N1754 0.984 . S
H1762 N1750 0.984 . S
H1763 N1750 0.985 . S
C1764 C1765 1.363 . S
C1764 C1770 1.379 . S
C1764 N1772 1.356 . S
C1765 C1764 1.363 . S
C1765 C1771 1.363 . S
C1766 C1767 1.363 . S
C1766 C1771 1.379 . S
C1766 N1773 1.356 . S
C1767 C1766 1.363 . S
C1767 C1770 1.363 . S
N1768 C1770 1.356 . S
N1768 H1780 0.984 . S
N1768 H1781 0.985 . S
N1769 C1771 1.356 . S
N1769 H1774 0.984 . S
N1769 H1775 0.985 . S
C1770 C1764 1.379 . S
C1770 C1767 1.363 . S
C1770 N1768 1.356 . S
C1771 C1765 1.363 . S
C1771 C1766 1.379 . S
C1771 N1769 1.356 . S
N1772 C1764 1.356 . S
N1772 H1778 0.984 . S
N1772 H1779 0.984 . S
N1773 C1766 1.356 . S
N1773 H1776 0.984 . S
N1773 H1777 0.985 . S
H1774 N1769 0.984 . S
H1775 N1769 0.985 . S
H1776 N1773 0.984 . S
H1777 N1773 0.985 . S
H1778 N1772 0.984 . S
H1779 N1772 0.984 . S
H1780 N1768 0.984 . S
H1781 N1768 0.985 . S
C1782 C1783 1.363 . S
C1782 C1788 1.379 . S
C1782 N1790 1.356 . S
C1783 C1782 1.363 . S
C1783 C1789 1.363 . S
C1784 C1785 1.363 . S
C1784 C1789 1.379 . S
C1784 N1791 1.356 . S
C1785 C1784 1.363 . S
C1785 C1788 1.363 . S
N1786 C1788 1.356 . S
N1786 H1798 0.984 . S
N1786 H1799 0.985 . S
N1787 C1789 1.356 . S
N1787 H1792 0.984 . S
N1787 H1793 0.985 . S
C1788 C1782 1.379 . S
C1788 C1785 1.363 . S
C1788 N1786 1.356 . S
C1789 C1783 1.363 . S
C1789 C1784 1.379 . S
C1789 N1787 1.356 . S
N1790 C1782 1.356 . S
N1790 H1796 0.984 . S
N1790 H1797 0.984 . S
N1791 C1784 1.356 . S
N1791 H1794 0.984 . S
N1791 H1795 0.985 . S
H1792 N1787 0.984 . S
H1793 N1787 0.985 . S
H1794 N1791 0.984 . S
H1795 N1791 0.985 . S
H1796 N1790 0.984 . S
H1797 N1790 0.984 . S
H1798 N1786 0.984 . S
H1799 N1786 0.985 . S
C1800 C1801 1.363 . S
C1800 C1806 1.379 . S
C1800 N1808 1.356 . S
C1801 C1800 1.363 . S
C1801 C1807 1.363 . S
C1802 C1803 1.363 . S
C1802 C1807 1.379 . S
C1802 N1809 1.356 . S
C1803 C1802 1.363 . S
C1803 C1806 1.363 . S
N1804 C1806 1.356 . S
N1804 H1816 0.984 . S
N1804 H1817 0.985 . S
N1805 C1807 1.356 . S
N1805 H1810 0.984 . S
N1805 H1811 0.985 . S
C1806 C1800 1.379 . S
C1806 C1803 1.363 . S
C1806 N1804 1.356 . S
C1807 C1801 1.363 . S
C1807 C1802 1.379 . S
C1807 N1805 1.356 . S
N1808 C1800 1.356 . S
N1808 H1814 0.984 . S
N1808 H1815 0.984 . S
N1809 C1802 1.356 . S
N1809 H1812 0.984 . S
N1809 H1813 0.985 . S
H1810 N1805 0.984 . S
H1811 N1805 0.985 . S
H1812 N1809 0.984 . S
H1813 N1809 0.985 . S
H1814 N1808 0.984 . S
H1815 N1808 0.984 . S
H1816 N1804 0.984 . S
H1817 N1804 0.985 . S
C1818 C1819 1.363 . S
C1818 C1824 1.379 . S
C1818 N1826 1.356 . S
C1819 C1818 1.363 . S
C1819 C1825 1.363 . S
C1820 C1821 1.363 . S
C1820 C1825 1.379 . S
C1820 N1827 1.356 . S
C1821 C1820 1.363 . S
C1821 C1824 1.363 . S
N1822 C1824 1.356 . S
N1822 H1834 0.984 . S
N1822 H1835 0.985 . S
N1823 C1825 1.356 . S
N1823 H1828 0.984 . S
N1823 H1829 0.985 . S
C1824 C1818 1.379 . S
C1824 C1821 1.363 . S
C1824 N1822 1.356 . S
C1825 C1819 1.363 . S
C1825 C1820 1.379 . S
C1825 N1823 1.356 . S
N1826 C1818 1.356 . S
N1826 H1832 0.984 . S
N1826 H1833 0.984 . S
N1827 C1820 1.356 . S
N1827 H1830 0.984 . S
N1827 H1831 0.985 . S
H1828 N1823 0.984 . S
H1829 N1823 0.985 . S
H1830 N1827 0.984 . S
H1831 N1827 0.985 . S
H1832 N1826 0.984 . S
H1833 N1826 0.984 . S
H1834 N1822 0.984 . S
H1835 N1822 0.985 . S
C1836 C1837 1.363 . S
C1836 C1842 1.379 . S
C1836 N1844 1.356 . S
C1837 C1836 1.363 . S
C1837 C1843 1.363 . S
C1838 C1839 1.363 . S
C1838 C1843 1.379 . S
C1838 N1845 1.356 . S
C1839 C1838 1.363 . S
C1839 C1842 1.363 . S
N1840 C1842 1.356 . S
N1840 H1852 0.984 . S
N1840 H1853 0.985 . S
N1841 C1843 1.356 . S
N1841 H1846 0.984 . S
N1841 H1847 0.985 . S
C1842 C1836 1.379 . S
C1842 C1839 1.363 . S
C1842 N1840 1.356 . S
C1843 C1837 1.363 . S
C1843 C1838 1.379 . S
C1843 N1841 1.356 . S
N1844 C1836 1.356 . S
N1844 H1850 0.984 . S
N1844 H1851 0.984 . S
N1845 C1838 1.356 . S
N1845 H1848 0.984 . S
N1845 H1849 0.985 . S
H1846 N1841 0.984 . S
H1847 N1841 0.985 . S
H1848 N1845 0.984 . S
H1849 N1845 0.985 . S
H1850 N1844 0.984 . S
H1851 N1844 0.984 . S
H1852 N1840 0.984 . S
H1853 N1840 0.985 . S
C1854 C1855 1.363 . S
C1854 C1860 1.379 . S
C1854 N1862 1.356 . S
C1855 C1854 1.363 . S
C1855 C1861 1.363 . S
C1856 C1857 1.363 . S
C1856 C1861 1.379 . S
C1856 N1863 1.356 . S
C1857 C1856 1.363 . S
C1857 C1860 1.363 . S
N1858 C1860 1.356 . S
N1858 H1870 0.984 . S
N1858 H1871 0.985 . S
N1859 C1861 1.356 . S
N1859 H1864 0.984 . S
N1859 H1865 0.985 . S
C1860 C1854 1.379 . S
C1860 C1857 1.363 . S
C1860 N1858 1.356 . S
C1861 C1855 1.363 . S
C1861 C1856 1.379 . S
C1861 N1859 1.356 . S
N1862 C1854 1.356 . S
N1862 H1868 0.984 . S
N1862 H1869 0.984 . S
N1863 C1856 1.356 . S
N1863 H1866 0.984 . S
N1863 H1867 0.985 . S
H1864 N1859 0.984 . S
H1865 N1859 0.985 . S
H1866 N1863 0.984 . S
H1867 N1863 0.985 . S
H1868 N1862 0.984 . S
H1869 N1862 0.984 . S
H1870 N1858 0.984 . S
H1871 N1858 0.985 . S
C1872 C1873 1.363 . S
C1872 C1878 1.379 . S
C1872 N1880 1.356 . S
C1873 C1872 1.363 . S
C1873 C1879 1.363 . S
C1874 C1875 1.363 . S
C1874 C1879 1.379 . S
C1874 N1881 1.356 . S
C1875 C1874 1.363 . S
C1875 C1878 1.363 . S
N1876 C1878 1.356 . S
N1876 H1888 0.984 . S
N1876 H1889 0.985 . S
N1877 C1879 1.356 . S
N1877 H1882 0.984 . S
N1877 H1883 0.985 . S
C1878 C1872 1.379 . S
C1878 C1875 1.363 . S
C1878 N1876 1.356 . S
C1879 C1873 1.363 . S
C1879 C1874 1.379 . S
C1879 N1877 1.356 . S
N1880 C1872 1.356 . S
N1880 H1886 0.984 . S
N1880 H1887 0.984 . S
N1881 C1874 1.356 . S
N1881 H1884 0.984 . S
N1881 H1885 0.985 . S
H1882 N1877 0.984 . S
H1883 N1877 0.985 . S
H1884 N1881 0.984 . S
H1885 N1881 0.985 . S
H1886 N1880 0.984 . S
H1887 N1880 0.984 . S
H1888 N1876 0.984 . S
H1889 N1876 0.985 . S
C919 C124 1.462 . S
C921 C229 1.382 . S
C937 C130 1.502 . S
C939 C313 1.429 . S
C955 C115 1.487 . S
C957 C393 1.445 . S
C973 C106 1.465 . S
C975 C309 1.425 . S
C993 C397 1.380 . S
C991 C85 1.459 . S
C1009 C97 1.436 . S
C1011 C225 1.394 . S
C1029 C218 1.400 . S
C1027 C103 1.481 . S
C1047 C302 1.409 . S
C1045 C88 1.481 . S
C1063 C94 1.485 . S
C1065 C404 1.443 . S
C1081 C121 1.462 . S
C1083 C320 1.423 . S
C1099 C133 1.438 . S
C1101 C386 1.360 . S
C1119 C236 1.413 . S
C1117 C112 1.455 . S
C1137 C481 1.382 . S
C1135 C16 1.461 . S
C1153 C22 1.502 . S
C1155 C565 1.429 . S
C1171 C7 1.487 . S
C1173 C645 1.445 . S
C1189 C160 1.465 . S
C1191 C561 1.425 . S
C1207 C139 1.459 . S
C1209 C649 1.380 . S
C1225 C151 1.436 . S
C1227 C477 1.394 . S
C1243 C157 1.481 . S
C1245 C470 1.400 . S
C1261 C142 1.481 . S
C1263 C554 1.409 . S
C1281 C656 1.444 . S
C1279 C148 1.485 . S
C1297 C13 1.462 . S
C1299 C572 1.423 . S
C1317 C638 1.360 . S
C1315 C25 1.438 . S
C1333 C4 1.455 . S
C1335 C488 1.412 . S
C1353 C733 1.382 . S
C1351 C70 1.462 . S
C1369 C76 1.502 . S
C1371 C817 1.429 . S
C1389 C897 1.445 . S
C1387 C61 1.487 . S
C1407 C813 1.425 . S
C1405 C52 1.465 . S
C1425 C901 1.380 . S
C1423 C31 1.459 . S
C1441 C43 1.435 . S
C1443 C729 1.393 . S
C1459 C49 1.481 . S
C1461 C722 1.400 . S
C1477 C34 1.481 . S
C1479 C806 1.409 . S
C1497 C908 1.443 . S
C1495 C40 1.485 . S
C1513 C67 1.462 . S
C1515 C824 1.423 . S
C1531 C79 1.438 . S
C1533 C890 1.360 . S
C1549 C58 1.455 . S
C1551 C740 1.413 . S
C1567 C140 1.508 . S
C1569 C232 1.403 . S
C1587 C316 1.381 . S
C1585 C149 1.515 . S
C1603 C158 1.517 . S
C1605 C388 1.393 . S
C1621 C59 1.528 . S
C1623 C304 1.392 . S
C1639 C68 1.504 . S
C1641 C400 1.383 . S
C1659 C220 1.404 . S
C1657 C77 1.508 . S
C1675 C32 1.508 . S
C1677 C484 1.403 . S
C1693 C41 1.515 . S
C1695 C568 1.381 . S
C1711 C50 1.517 . S
C1713 C640 1.393 . S
C1729 C113 1.528 . S
C1731 C556 1.392 . S
C1749 C652 1.383 . S
C1747 C122 1.504 . S
C1765 C131 1.508 . S
C1767 C472 1.405 . S
C1783 C86 1.508 . S
C1785 C736 1.403 . S
C1801 C95 1.515 . S
C1803 C820 1.381 . S
C1821 C892 1.393 . S
C1819 C104 1.517 . S
C1837 C5 1.528 . S
C1839 C808 1.392 . S
C1855 C14 1.504 . S
C1857 C904 1.383 . S
C1873 C23 1.508 . S
C1875 C724 1.404 . S
