# Generated by pormake.
# Topology rtl, (3,6)-cn, num edge types: 1
# Building blocks:
#     Node 0, Type 0, BuildingBlock: QEWDON_clean_linker_0, # of connection points: 3
#     Node 1, Type 0, BuildingBlock: QEWDON_clean_linker_0, # of connection points: 3
#     Node 2, Type 0, BuildingBlock: QEWDON_clean_linker_0, # of connection points: 3
#     Node 3, Type 0, BuildingBlock: QEWDON_clean_linker_0, # of connection points: 3
#     Node 4, Type 1, BuildingBlock: FUNLAD_clean_sbu_0, # of connection points: 6
#     Node 5, Type 1, BuildingBlock: FUNLAD_clean_sbu_0, # of connection points: 6
#     Edge 6, Type (0, 1), BuildingBlock: MIFKUJ_clean_linker_0, # of connection points: 2
#     Edge 7, Type (0, 1), BuildingBlock: MIFKUJ_clean_linker_0, # of connection points: 2
#     Edge 8, Type (0, 1), BuildingBlock: MIFKUJ_clean_linker_0, # of connection points: 2
#     Edge 9, Type (0, 1), BuildingBlock: MIFKUJ_clean_linker_0, # of connection points: 2
#     Edge 10, Type (0, 1), BuildingBlock: MIFKUJ_clean_linker_0, # of connection points: 2
#     Edge 11, Type (0, 1), BuildingBlock: MIFKUJ_clean_linker_0, # of connection points: 2
#     Edge 12, Type (0, 1), BuildingBlock: MIFKUJ_clean_linker_0, # of connection points: 2
#     Edge 13, Type (0, 1), BuildingBlock: MIFKUJ_clean_linker_0, # of connection points: 2
#     Edge 14, Type (0, 1), BuildingBlock: MIFKUJ_clean_linker_0, # of connection points: 2
#     Edge 15, Type (0, 1), BuildingBlock: MIFKUJ_clean_linker_0, # of connection points: 2
#     Edge 16, Type (0, 1), BuildingBlock: MIFKUJ_clean_linker_0, # of connection points: 2
#     Edge 17, Type (0, 1), BuildingBlock: MIFKUJ_clean_linker_0, # of connection points: 2
# Relax obj value: 0.016
# Max RMSD: 0.110
# Mean RMSD: 0.088
data_MOF--net-rtl--node1-FUNLAD_clean_sbu_0--node2-QEWDON_clean_linker_0--edge1-MIFKUJ_clean_linker_0
_symmetry_space_group_name_H-M    P1
_symmetry_Int_Tables_number       1
_symmetry_cell_setting            triclinic
loop_
_symmetry_equiv_pos_as_xyz
'x, y, z'
_cell_length_a     53.404203
_cell_length_b     53.405604
_cell_length_c     26.754063
_cell_angle_alpha  91.344851
_cell_angle_beta   92.319704
_cell_angle_gamma 90.047352
loop_
_atom_site_label
_atom_site_type_symbol
_atom_site_fract_x
_atom_site_fract_y
_atom_site_fract_z
_atom_type_partial_charge
H0 H 0.20732 0.84681 0.0947 0.0
C1 C 0.1975 0.8492 0.05888 0.0
C2 C 0.17249 0.85751 0.05715 0.0
C3 C 0.21031 0.84531 0.01449 0.0
H4 H 0.14147 0.86899 0.00905 0.0
C5 C 0.16034 0.86146 0.01046 0.0
C6 C 0.17308 0.85829 0.96586 0.0
C7 C 0.1981 0.8501 0.96819 0.0
C8 C 0.23762 0.84079 0.01681 0.0
H9 H 0.20837 0.84827 0.93417 0.0
C10 C 0.24774 0.81658 0.02255 0.0
C11 C 0.274 0.81312 0.025 0.0
C12 C 0.25374 0.86134 0.01315 0.0
H13 H 0.24623 0.88003 0.00861 0.0
C14 C 0.27962 0.85799 0.01543 0.0
H15 H 0.23531 0.80068 0.0254 0.0
C16 C 0.2897 0.83413 0.02131 0.0
H17 H 0.3099 0.83206 0.0222 0.0
H18 H 0.29192 0.87396 0.01246 0.0
H19 H 0.71039 0.68173 0.46459 0.0
C20 C 0.69982 0.67802 0.49737 0.0
C21 C 0.67508 0.66901 0.49157 0.0
C22 C 0.71138 0.68082 0.54536 0.0
H23 H 0.64313 0.65543 0.5295 0.0
C24 C 0.66182 0.66334 0.53413 0.0
C25 C 0.67326 0.66545 0.58218 0.0
C26 C 0.69803 0.6743 0.58749 0.0
C27 C 0.73838 0.68722 0.55144 0.0
H28 H 0.70717 0.67562 0.6244 0.0
C29 C 0.74802 0.71011 0.53504 0.0
C30 C 0.77389 0.71551 0.54148 0.0
C31 C 0.75473 0.66991 0.57416 0.0
H32 H 0.74774 0.6522 0.58689 0.0
C33 C 0.78025 0.6751 0.58021 0.0
H34 H 0.7355 0.72362 0.51769 0.0
C35 C 0.78979 0.69768 0.56405 0.0
H36 H 0.80964 0.70141 0.57013 0.0
H37 H 0.79268 0.66161 0.59774 0.0
H38 H 0.80957 0.18495 0.08002 0.0
C39 C 0.81971 0.17957 0.04717 0.0
C40 C 0.84382 0.16901 0.05272 0.0
C41 C 0.80801 0.18169 0.99929 0.0
H42 H 0.87411 0.1516 0.01352 0.0
C43 C 0.85606 0.16084 0.00979 0.0
C44 C 0.84473 0.16295 0.96204 0.0
C45 C 0.82084 0.17365 0.95683 0.0
C46 C 0.78097 0.1878 0.99387 0.0
H47 H 0.81162 0.17436 0.92002 0.0
C48 C 0.77127 0.21128 0.0089 0.0
C49 C 0.74526 0.21597 0.00372 0.0
C50 C 0.76454 0.16931 0.97366 0.0
H51 H 0.77157 0.15114 0.96209 0.0
C52 C 0.73891 0.17387 0.96879 0.0
H53 H 0.78381 0.2257 0.02437 0.0
C54 C 0.7293 0.19697 0.98373 0.0
H55 H 0.70932 0.20014 0.97887 0.0
H56 H 0.72643 0.15945 0.95326 0.0
H57 H 0.33789 0.3123 0.58101 0.0
C58 C 0.34241 0.32312 0.54879 0.0
C59 C 0.3515 0.34775 0.55567 0.0
C60 C 0.34053 0.31199 0.50054 0.0
H61 H 0.36591 0.37997 0.51938 0.0
C62 C 0.35843 0.36117 0.51394 0.0
C63 C 0.35741 0.35015 0.46579 0.0
C64 C 0.34803 0.32565 0.45925 0.0
C65 C 0.33463 0.28494 0.49389 0.0
H66 H 0.34776 0.3167 0.42244 0.0
C67 C 0.3114 0.27479 0.50695 0.0
C68 C 0.30671 0.24884 0.50049 0.0
C69 C 0.3529 0.269 0.47436 0.0
H70 H 0.37088 0.27637 0.46428 0.0
C71 C 0.34837 0.24341 0.46826 0.0
H72 H 0.29715 0.28697 0.52187 0.0
C73 C 0.3255 0.23337 0.48122 0.0
H74 H 0.32234 0.21346 0.47535 0.0
H75 H 0.36262 0.2313 0.45326 0.0
C76 C 0.03383 0.98659 0.43245 0.0
N77 N 0.05085 0.05497 0.50913 0.0
C78 C 0.07521 0.04748 0.50945 0.0
C79 C 0.09463 0.06509 0.51172 0.0
C80 C 0.08911 0.09083 0.51387 0.0
C81 C 0.06376 0.09805 0.51315 0.0
C82 C 0.04487 0.07975 0.5108 0.0
Zn83 Zn 0.02319 0.02777 0.50674 0.0
C84 C 0.98142 0.03881 0.43294 0.0
N85 N 0.96652 0.97003 0.50224 0.0
C86 C 0.97396 0.94565 0.50252 0.0
C87 C 0.94175 0.9761 0.50186 0.0
C88 C 0.92342 0.95732 0.50224 0.0
C89 C 0.93059 0.93199 0.50324 0.0
C90 C 0.95629 0.92633 0.50305 0.0
Zn91 Zn 0.99366 0.9977 0.50404 0.0
O92 O 0.04233 0.00729 0.45057 0.0
C93 C 0.03534 0.98683 0.5782 0.0
O94 O 0.01326 0.97815 0.44762 0.0
H95 H 0.93618 0.99556 0.50179 0.0
H96 H 0.07966 0.02773 0.50797 0.0
H97 H 0.9937 0.94113 0.50262 0.0
O98 O 0.04344 0.00758 0.56286 0.0
O99 O 0.01461 0.97822 0.56009 0.0
H100 H 0.02542 0.08538 0.5106 0.0
O101 O 0.97477 0.01782 0.56073 0.0
O102 O 1.00334 0.04752 0.56268 0.0
O103 O 0.97331 0.01797 0.448 0.0
O104 O 1.00223 0.04737 0.45091 0.0
C105 C 0.98306 0.03868 0.57846 0.0
H106 H 0.1138 0.05854 0.51125 0.0
H107 H 0.05853 0.11762 0.5152 0.0
H108 H 0.90386 0.96262 0.50282 0.0
H109 H 0.96275 0.90711 0.503 0.0
C110 C 0.48087 0.48653 0.94892 0.0
N111 N 0.54976 0.46999 0.02477 0.0
C112 C 0.54213 0.44567 0.02483 0.0
C113 C 0.55968 0.42624 0.02628 0.0
C114 C 0.58547 0.43175 0.02777 0.0
C115 C 0.5928 0.45705 0.02747 0.0
C116 C 0.57459 0.47592 0.02599 0.0
Zn117 Zn 0.52317 0.4981 0.02323 0.0
C118 C 0.53455 0.53749 0.94997 0.0
N119 N 0.46745 0.55646 0.0202 0.0
C120 C 0.44256 0.55084 0.01958 0.0
C121 C 0.4754 0.5807 0.021 0.0
C122 C 0.45813 0.60035 0.0217 0.0
C123 C 0.43231 0.59517 0.02156 0.0
C124 C 0.42462 0.56996 0.02015 0.0
Zn125 Zn 0.4939 0.52825 0.02128 0.0
O126 O 0.50155 0.478 0.9667 0.0
C127 C 0.48246 0.4888 0.09427 0.0
O128 O 0.47314 0.50773 0.96456 0.0
H129 H 0.49523 0.58484 0.02131 0.0
H130 H 0.52234 0.44128 0.0237 0.0
H131 H 0.43659 0.53147 0.01908 0.0
O132 O 0.50295 0.4799 0.07893 0.0
O133 O 0.47422 0.50929 0.07672 0.0
H134 H 0.58034 0.49534 0.02603 0.0
O135 O 0.51526 0.54812 0.07829 0.0
O136 O 0.54405 0.51881 0.07978 0.0
O137 O 0.51418 0.54651 0.96563 0.0
O138 O 0.54277 0.51698 0.96747 0.0
C139 C 0.53601 0.53978 0.09596 0.0
H140 H 0.55305 0.40707 0.02562 0.0
H141 H 0.61241 0.46228 0.02913 0.0
H142 H 0.46498 0.61945 0.02197 0.0
H143 H 0.40496 0.56502 0.02049 0.0
H144 H 0.25944 0.2634 0.46947 0.0
H145 H 0.22031 0.23974 0.47627 0.0
H146 H 0.26001 0.18444 0.5637 0.0
H147 H 0.299 0.20774 0.55613 0.0
H148 H 0.23421 0.1622 0.4908 0.0
H149 H 0.21609 0.22588 0.61396 0.0
H150 H 0.2105 0.26904 0.64633 0.0
H151 H 0.15184 0.28101 0.53496 0.0
H152 H 0.15731 0.238 0.50147 0.0
H153 H 0.13401 0.08858 0.56708 0.0
H154 H 0.16875 0.11832 0.5682 0.0
H155 H 0.1259 0.16625 0.46961 0.0
H156 H 0.09103 0.13634 0.46769 0.0
H157 H 0.15186 0.19334 0.54475 0.0
H158 H 0.16994 0.12957 0.42247 0.0
H159 H 0.17539 0.08629 0.39061 0.0
H160 H 0.23453 0.07472 0.50114 0.0
H161 H 0.22919 0.11783 0.53415 0.0
C162 C 0.25962 0.24652 0.49113 0.0
C163 C 0.28228 0.23735 0.51208 0.0
C164 C 0.23726 0.23296 0.49497 0.0
C165 C 0.23712 0.21019 0.52044 0.0
C166 C 0.25957 0.20179 0.5435 0.0
C167 C 0.28186 0.21517 0.53931 0.0
C168 C 0.21427 0.19403 0.52009 0.0
C169 C 0.21633 0.169 0.50335 0.0
C170 C 0.19062 0.20296 0.53479 0.0
C171 C 0.18729 0.22881 0.55488 0.0
C172 C 0.20214 0.23778 0.5961 0.0
C173 C 0.19896 0.26221 0.6147 0.0
C174 C 0.18087 0.27778 0.59262 0.0
C175 C 0.16587 0.26894 0.55197 0.0
C176 C 0.16899 0.24453 0.53319 0.0
C177 C 0.13194 0.10534 0.54532 0.0
C178 C 0.10974 0.10983 0.51678 0.0
C179 C 0.15183 0.12243 0.54622 0.0
C180 C 0.1501 0.14441 0.51848 0.0
C181 C 0.12768 0.14943 0.49132 0.0
C182 C 0.10773 0.1323 0.49035 0.0
C183 C 0.17209 0.16152 0.51649 0.0
C184 C 0.16981 0.18665 0.53237 0.0
C185 C 0.19563 0.15274 0.50105 0.0
C186 C 0.19901 0.12685 0.48106 0.0
C187 C 0.18398 0.11773 0.44022 0.0
C188 C 0.18707 0.09324 0.42192 0.0
C189 C 0.20525 0.07775 0.44391 0.0
C190 C 0.22044 0.08673 0.48418 0.0
C191 C 0.2174 0.1112 0.50267 0.0
H192 H 0.20761 0.05879 0.42969 0.0
H193 H 0.17844 0.29668 0.60709 0.0
H194 H 0.31292 0.8 0.08805 0.0
H195 H 0.33639 0.7608 0.08814 0.0
H196 H 0.28527 0.72988 0.97394 0.0
H197 H 0.26154 0.76932 0.97375 0.0
H198 H 0.30039 0.6945 0.04453 0.0
H199 H 0.33904 0.75353 0.93978 0.0
H200 H 0.35682 0.79442 0.9189 0.0
H201 H 0.41335 0.78729 0.03645 0.0
H202 H 0.39565 0.74651 0.05856 0.0
H203 H 0.38675 0.59861 0.97035 0.0
H204 H 0.35687 0.63334 0.97215 0.0
H205 H 0.40572 0.67353 0.07845 0.0
H206 H 0.43556 0.63895 0.07693 0.0
H207 H 0.39008 0.70347 0.00633 0.0
H208 H 0.3508 0.64494 0.1127 0.0
H209 H 0.33275 0.60428 0.13435 0.0
H210 H 0.27758 0.61023 0.01393 0.0
H211 H 0.29554 0.65079 0.99114 0.0
C212 C 0.3065 0.78479 0.06326 0.0
C213 C 0.28557 0.7879 0.03035 0.0
C214 C 0.31994 0.76237 0.06336 0.0
C215 C 0.31293 0.74256 0.0303 0.0
C216 C 0.29111 0.74496 0.9996 0.0
C217 C 0.27753 0.76747 0.9996 0.0
C218 C 0.32943 0.72021 0.02582 0.0
C219 C 0.31991 0.69637 0.03547 0.0
C220 C 0.35501 0.72267 0.01465 0.0
C221 C 0.36588 0.74706 0.00109 0.0
C222 C 0.35516 0.76076 0.9614 0.0
C223 C 0.36523 0.78391 0.94932 0.0
C224 C 0.38617 0.79347 0.9764 0.0
C225 C 0.39712 0.77987 0.01554 0.0
C226 C 0.38708 0.75673 0.02784 0.0
C227 C 0.391 0.61471 0.99456 0.0
C228 C 0.41366 0.61597 0.02337 0.0
C229 C 0.37388 0.63459 0.99555 0.0
C230 C 0.37891 0.65606 0.0257 0.0
C231 C 0.40142 0.65725 0.0547 0.0
C232 C 0.41854 0.63746 0.05364 0.0
C233 C 0.36125 0.67769 0.02604 0.0
C234 C 0.37055 0.70148 0.01531 0.0
C235 C 0.33553 0.67511 0.03618 0.0
C236 C 0.32469 0.65076 0.04988 0.0
C237 C 0.33495 0.63748 0.09058 0.0
C238 C 0.32471 0.61447 0.1031 0.0
C239 C 0.30408 0.60464 0.07544 0.0
C240 C 0.2936 0.61784 0.03528 0.0
C241 C 0.30378 0.64085 0.02256 0.0
H242 H 0.29617 0.58683 0.0852 0.0
H243 H 0.39394 0.8114 0.96699 0.0
H244 H 0.81576 0.72291 0.48866 0.0
H245 H 0.83782 0.76232 0.47699 0.0
H246 H 0.77901 0.80263 0.5498 0.0
H247 H 0.75695 0.763 0.56218 0.0
H248 H 0.82867 0.80625 0.43185 0.0
H249 H 0.80772 0.84881 0.62503 0.0
H250 H 0.79559 0.83524 0.70825 0.0
H251 H 0.83086 0.76405 0.68334 0.0
H252 H 0.84348 0.77734 0.60033 0.0
H253 H 0.88482 0.92819 0.45248 0.0
H254 H 0.85412 0.89416 0.45502 0.0
H255 H 0.9027 0.85535 0.55992 0.0
H256 H 0.93308 0.8895 0.55863 0.0
H257 H 0.85527 0.85299 0.58751 0.0
H258 H 0.89922 0.83855 0.43555 0.0
H259 H 0.91471 0.8496 0.3533 0.0
H260 H 0.83913 0.86036 0.29706 0.0
H261 H 0.8232 0.84969 0.37924 0.0
C262 C 0.80734 0.74021 0.50158 0.0
C263 C 0.78473 0.73983 0.52677 0.0
C264 C 0.81992 0.76276 0.49466 0.0
C265 C 0.81029 0.78545 0.51309 0.0
C266 C 0.78696 0.78533 0.53573 0.0
C267 C 0.77426 0.76271 0.54245 0.0
C268 C 0.82574 0.80868 0.51186 0.0
C269 C 0.83424 0.81664 0.46583 0.0
C270 C 0.83343 0.82206 0.55621 0.0
C271 C 0.82624 0.81397 0.60628 0.0
C272 C 0.81293 0.8303 0.63741 0.0
C273 C 0.80597 0.82265 0.68453 0.0
C274 C 0.81237 0.79876 0.70099 0.0
C275 C 0.82583 0.78251 0.67047 0.0
C276 C 0.83286 0.79008 0.62337 0.0
C277 C 0.88886 0.91253 0.47649 0.0
C278 C 0.91155 0.91156 0.50512 0.0
C279 C 0.87136 0.89299 0.47761 0.0
C280 C 0.87616 0.87203 0.50732 0.0
C281 C 0.89855 0.87126 0.53663 0.0
C282 C 0.91604 0.89073 0.53546 0.0
C283 C 0.85821 0.85062 0.50747 0.0
C284 C 0.8493 0.84294 0.55337 0.0
C285 C 0.85051 0.83726 0.46309 0.0
C286 C 0.86004 0.8436 0.41367 0.0
C287 C 0.88592 0.84347 0.40575 0.0
C288 C 0.89477 0.84963 0.35913 0.0
C289 C 0.87792 0.85575 0.32002 0.0
C290 C 0.85216 0.85566 0.32741 0.0
C291 C 0.84321 0.84955 0.37399 0.0
H292 H 0.88481 0.86051 0.28395 0.0
H293 H 0.80694 0.79287 0.73745 0.0
H294 H 0.75862 0.2626 0.97312 0.0
H295 H 0.73467 0.30157 0.98244 0.0
H296 H 0.68246 0.26347 0.07349 0.0
H297 H 0.706 0.2246 0.06335 0.0
H298 H 0.65799 0.28651 0.00198 0.0
H299 H 0.72412 0.30981 0.12121 0.0
H300 H 0.76785 0.31732 0.15094 0.0
H301 H 0.776 0.37272 0.03898 0.0
H302 H 0.7324 0.3653 0.00812 0.0
H303 H 0.58416 0.38826 0.08018 0.0
H304 H 0.61422 0.35383 0.08026 0.0
H305 H 0.66021 0.39416 0.9805 0.0
H306 H 0.63004 0.42868 0.97977 0.0
H307 H 0.68877 0.3712 0.05387 0.0
H308 H 0.62287 0.34778 0.9349 0.0
H309 H 0.57911 0.34044 0.90521 0.0
H310 H 0.57083 0.28492 0.01692 0.0
H311 H 0.61446 0.29219 0.04776 0.0
C312 C 0.7424 0.26279 0.99618 0.0
C313 C 0.73411 0.24058 0.01738 0.0
C314 C 0.72868 0.28505 0.00145 0.0
C315 C 0.70663 0.28553 0.0286 0.0
C316 C 0.69923 0.26362 0.05203 0.0
C317 C 0.71276 0.24142 0.04642 0.0
C318 C 0.69005 0.30803 0.02939 0.0
C319 C 0.66472 0.30492 0.01412 0.0
C320 C 0.69886 0.33232 0.04353 0.0
C321 C 0.72507 0.33681 0.06202 0.0
C322 C 0.7353 0.32344 0.10265 0.0
C323 C 0.76005 0.32771 0.11976 0.0
C324 C 0.77472 0.34543 0.09677 0.0
C325 C 0.76463 0.35897 0.0567 0.0
C326 C 0.73989 0.35476 0.03941 0.0
C327 C 0.60056 0.3898 0.05794 0.0
C328 C 0.60447 0.41122 0.02954 0.0
C329 C 0.61782 0.37011 0.05822 0.0
C330 C 0.63936 0.37123 0.0299 0.0
C331 C 0.64375 0.39286 0.00268 0.0
C332 C 0.62647 0.41261 0.00238 0.0
C333 C 0.65674 0.34944 0.02745 0.0
C334 C 0.68214 0.35272 0.04196 0.0
C335 C 0.64806 0.32523 0.01262 0.0
C336 C 0.62186 0.3207 0.99393 0.0
C337 C 0.61166 0.33413 0.95337 0.0
C338 C 0.58689 0.32997 0.9363 0.0
C339 C 0.57218 0.31227 0.95924 0.0
C340 C 0.58224 0.29865 0.99922 0.0
C341 C 0.607 0.30277 0.01649 0.0
H342 H 0.553 0.30907 0.94597 0.0
H343 H 0.79387 0.34871 0.11008 0.0
H344 H 0.19083 0.88788 0.13351 0.0
H345 H 0.16759 0.90664 0.20169 0.0
H346 H 0.10196 0.86412 0.15277 0.0
H347 H 0.12505 0.84584 0.08365 0.0
H348 H 0.08932 0.9102 0.16622 0.0
H349 H 0.13668 0.85254 0.26535 0.0
H350 H 0.17447 0.83097 0.29819 0.0
H351 H 0.20407 0.90084 0.3573 0.0
H352 H 0.16661 0.9229 0.32421 0.0
H353 H 0.01839 0.9452 0.3772 0.0
H354 H 0.04235 0.92076 0.31719 0.0
H355 H 0.10561 0.97016 0.34413 0.0
H356 H 0.08176 0.99481 0.40407 0.0
H357 H 0.11867 0.91914 0.34403 0.0
H358 H 0.07103 0.97633 0.24096 0.0
H359 H 0.03246 0.9969 0.20911 0.0
H360 H 1.00244 0.92564 0.1588 0.0
H361 H 0.04072 0.9046 0.19101 0.0
C362 C 0.17165 0.88204 0.13812 0.0
C363 C 0.15978 0.86532 0.10338 0.0
C364 C 0.15833 0.8928 0.17713 0.0
C365 C 0.13298 0.88674 0.18275 0.0
C366 C 0.12144 0.86921 0.14923 0.0
C367 C 0.13466 0.85868 0.10988 0.0
C368 C 0.11803 0.90004 0.22103 0.0
C369 C 0.09558 0.9117 0.20526 0.0
C370 C 0.12635 0.90261 0.27188 0.0
C371 C 0.14892 0.88941 0.29189 0.0
C372 C 0.15133 0.86334 0.28501 0.0
C373 C 0.17268 0.85102 0.30373 0.0
C374 C 0.19169 0.86453 0.32971 0.0
C375 C 0.18935 0.8904 0.33712 0.0
C376 C 0.16805 0.90282 0.31844 0.0
C377 C 0.03738 0.95093 0.37029 0.0
C378 C 0.04811 0.97205 0.39526 0.0
C379 C 0.05104 0.93694 0.33595 0.0
C380 C 0.07573 0.9437 0.32605 0.0
C381 C 0.08659 0.9646 0.35126 0.0
C382 C 0.07287 0.97875 0.38528 0.0
C383 C 0.09013 0.92912 0.28899 0.0
C384 C 0.11245 0.91736 0.305 0.0
C385 C 0.08159 0.92623 0.23846 0.0
C386 C 0.05862 0.93887 0.21887 0.0
C387 C 0.05612 0.96503 0.22348 0.0
C388 C 0.03432 0.97678 0.2053 0.0
C389 C 0.01498 0.96258 0.18207 0.0
C390 C 0.01742 0.93661 0.17687 0.0
C391 C 0.03917 0.92477 0.19505 0.0
H392 H 0.99813 0.97171 0.16801 0.0
H393 H 0.2082 0.85496 0.34418 0.0
H394 H 0.69149 0.63349 0.65294 0.0
H395 H 0.66832 0.61339 0.7183 0.0
H396 H 0.60201 0.65466 0.6742 0.0
H397 H 0.62508 0.67479 0.6085 0.0
H398 H 0.61147 0.6514 0.78153 0.0
H399 H 0.60515 0.59861 0.63235 0.0
H400 H 0.62216 0.57446 0.56175 0.0
H401 H 0.66394 0.52835 0.66448 0.0
H402 H 0.64746 0.55245 0.73575 0.0
H403 H 0.52013 0.57892 0.8978 0.0
H404 H 0.54416 0.60181 0.83785 0.0
H405 H 0.60571 0.55034 0.85887 0.0
H406 H 0.58151 0.52694 0.91785 0.0
H407 H 0.59932 0.55943 0.76381 0.0
H408 H 0.60632 0.61041 0.91288 0.0
H409 H 0.59116 0.6344 0.98545 0.0
H410 H 0.55077 0.6838 0.88698 0.0
H411 H 0.56538 0.65988 0.81375 0.0
C412 C 0.67212 0.63867 0.65784 0.0
C413 C 0.66009 0.65573 0.62565 0.0
C414 C 0.65887 0.62705 0.69494 0.0
C415 C 0.63341 0.63242 0.70082 0.0
C416 C 0.62164 0.65027 0.67025 0.0
C417 C 0.6348 0.66167 0.63269 0.0
C418 C 0.61876 0.61836 0.73695 0.0
C419 C 0.60853 0.63134 0.77746 0.0
C420 C 0.61551 0.59211 0.7322 0.0
C421 C 0.62528 0.5775 0.68938 0.0
C422 C 0.61813 0.58346 0.63989 0.0
C423 C 0.62764 0.56976 0.59975 0.0
C424 C 0.64417 0.54995 0.60862 0.0
C425 C 0.65117 0.54373 0.65766 0.0
C426 C 0.64173 0.55739 0.69795 0.0
C427 C 0.53877 0.57243 0.88962 0.0
C428 C 0.5489 0.55111 0.91274 0.0
C429 C 0.55256 0.58564 0.85551 0.0
C430 C 0.57695 0.57808 0.84434 0.0
C431 C 0.58697 0.5566 0.86689 0.0
C432 C 0.57311 0.54324 0.90069 0.0
C433 C 0.59192 0.5924 0.80881 0.0
C434 C 0.60223 0.57948 0.76822 0.0
C435 C 0.59548 0.61867 0.81388 0.0
C436 C 0.58676 0.63319 0.85782 0.0
C437 C 0.59406 0.62627 0.90669 0.0
C438 C 0.58559 0.63988 0.94795 0.0
C439 C 0.56997 0.66057 0.94084 0.0
C440 C 0.56284 0.66775 0.89243 0.0
C441 C 0.57123 0.65418 0.85102 0.0
H442 H 0.56343 0.67108 0.97283 0.0
H443 H 0.65151 0.53937 0.57748 0.0
H444 H 0.89267 0.17572 0.08451 0.0
H445 H 0.91393 0.15655 0.15658 0.0
H446 H 0.84303 0.13011 0.20614 0.0
H447 H 0.8216 0.14867 0.13318 0.0
H448 H 0.88149 0.14704 0.28653 0.0
H449 H 0.86922 0.09172 0.14095 0.0
H450 H 0.87151 0.08229 0.05057 0.0
H451 H 0.95138 0.09212 0.06077 0.0
H452 H 0.94947 0.10217 0.15107 0.0
H453 H 0.94221 0.02244 0.37158 0.0
H454 H 0.91672 0.04702 0.31239 0.0
H455 H 0.96054 0.11279 0.35275 0.0
H456 H 0.98638 0.08832 0.41139 0.0
H457 H 0.93262 0.07502 0.22926 0.0
H458 H 0.91678 0.16211 0.35555 0.0
H459 H 0.91436 0.17307 0.44534 0.0
H460 H 0.88963 0.09848 0.47442 0.0
H461 H 0.89152 0.0872 0.38475 0.0
C462 C 0.88151 0.16628 0.1113 0.0
C463 C 0.85548 0.16337 0.10268 0.0
C464 C 0.89369 0.15544 0.15255 0.0
C465 C 0.88007 0.14168 0.18625 0.0
C466 C 0.85384 0.14071 0.18051 0.0
C467 C 0.84161 0.15141 0.13887 0.0
C468 C 0.89354 0.12558 0.22284 0.0
C469 C 0.89267 0.1313 0.27415 0.0
C470 C 0.90788 0.10489 0.20652 0.0
C471 C 0.90917 0.0979 0.15266 0.0
C472 C 0.88725 0.09202 0.12386 0.0
C473 C 0.88848 0.08657 0.07265 0.0
C474 C 0.91157 0.08666 0.04992 0.0
C475 C 0.9335 0.09209 0.07842 0.0
C476 C 0.93235 0.09766 0.12962 0.0
C477 C 0.94648 0.04212 0.36774 0.0
C478 C 0.96635 0.05342 0.39613 0.0
C479 C 0.93193 0.05611 0.33386 0.0
C480 C 0.93665 0.08174 0.32847 0.0
C481 C 0.95649 0.09307 0.35663 0.0
C482 C 0.9713 0.07902 0.38993 0.0
C483 C 0.92092 0.09663 0.29315 0.0
C484 C 0.92141 0.0907 0.24186 0.0
C485 C 0.90621 0.11706 0.3096 0.0
C486 C 0.90455 0.12376 0.36349 0.0
C487 C 0.91072 0.14808 0.38108 0.0
C488 C 0.90945 0.15435 0.43196 0.0
C489 C 0.90193 0.13646 0.46559 0.0
C490 C 0.89555 0.11229 0.44837 0.0
C491 C 0.89676 0.10595 0.39753 0.0
H492 H 0.90099 0.14133 0.50497 0.0
H493 H 0.91248 0.08248 0.01024 0.0
H494 H 0.38048 0.32801 0.63103 0.0
H495 H 0.39843 0.35049 0.70479 0.0
H496 H 0.35416 0.41545 0.66702 0.0
H497 H 0.33682 0.39319 0.59244 0.0
H498 H 0.4003 0.4287 0.68027 0.0
H499 H 0.34511 0.37972 0.77474 0.0
H500 H 0.32495 0.34132 0.80315 0.0
H501 H 0.39636 0.31365 0.85655 0.0
H502 H 0.41702 0.35174 0.82782 0.0
H503 H 0.43837 0.50095 0.89667 0.0
H504 H 0.41295 0.47612 0.83565 0.0
H505 H 0.46293 0.41347 0.85568 0.0
H506 H 0.48851 0.43815 0.91683 0.0
H507 H 0.41258 0.39945 0.8541 0.0
H508 H 0.4674 0.44794 0.75543 0.0
H509 H 0.48712 0.48668 0.72751 0.0
H510 H 0.41486 0.51558 0.68256 0.0
H511 H 0.39467 0.47713 0.71092 0.0
C512 C 0.37397 0.34679 0.63949 0.0
C513 C 0.35722 0.35886 0.60619 0.0
C514 C 0.38428 0.35968 0.68165 0.0
C515 C 0.37769 0.38475 0.69169 0.0
C516 C 0.35968 0.39621 0.66005 0.0
C517 C 0.34963 0.38344 0.61765 0.0
C518 C 0.39139 0.39981 0.73171 0.0
C519 C 0.4025 0.42247 0.7185 0.0
C520 C 0.395 0.39145 0.78137 0.0
C521 C 0.38264 0.36851 0.79869 0.0
C522 C 0.35655 0.36536 0.79216 0.0
C523 C 0.34503 0.34366 0.8084 0.0
C524 C 0.35937 0.32503 0.83153 0.0
C525 C 0.38527 0.32809 0.83858 0.0
C526 C 0.39689 0.34974 0.82237 0.0
C527 C 0.44401 0.4819 0.88809 0.0
C528 C 0.4656 0.47161 0.91141 0.0
C529 C 0.42944 0.46773 0.85318 0.0
C530 C 0.43612 0.44298 0.8409 0.0
C531 C 0.45743 0.43252 0.86464 0.0
C532 C 0.47211 0.44672 0.89934 0.0
C533 C 0.42118 0.42823 0.80245 0.0
C534 C 0.41005 0.40566 0.81591 0.0
C535 C 0.41739 0.43668 0.75302 0.0
C536 C 0.42951 0.45977 0.7358 0.0
C537 C 0.4557 0.46265 0.73999 0.0
C538 C 0.46696 0.48454 0.72402 0.0
C539 C 0.45224 0.50361 0.70341 0.0
C540 C 0.42623 0.50081 0.69861 0.0
C541 C 0.41487 0.47897 0.7146 0.0
H542 H 0.461 0.52055 0.69105 0.0
H543 H 0.35042 0.30825 0.84408 0.0
H544 H 0.63064 0.68472 0.44956 0.0
H545 H 0.6083 0.66661 0.37549 0.0
H546 H 0.67097 0.6176 0.34995 0.0
H547 H 0.69372 0.63658 0.42267 0.0
H548 H 0.65028 0.62942 0.26356 0.0
H549 H 0.61943 0.5999 0.41757 0.0
H550 H 0.60213 0.60451 0.50135 0.0
H551 H 0.53647 0.63983 0.43775 0.0
H552 H 0.55362 0.63594 0.35366 0.0
H553 H 0.58321 0.53005 0.13468 0.0
H554 H 0.60781 0.55504 0.19685 0.0
H555 H 0.54724 0.60808 0.20598 0.0
H556 H 0.52248 0.58322 0.14393 0.0
H557 H 0.56655 0.59516 0.29871 0.0
H558 H 0.59811 0.62224 0.14269 0.0
H559 H 0.61631 0.61598 0.06009 0.0
H560 H 0.68141 0.58208 0.12923 0.0
H561 H 0.66343 0.5878 0.21224 0.0
C562 C 0.63985 0.67058 0.42718 0.0
C563 C 0.66385 0.66201 0.44167 0.0
C564 C 0.62703 0.66007 0.38517 0.0
C565 C 0.63764 0.6402 0.35788 0.0
C566 C 0.6623 0.63279 0.37046 0.0
C567 C 0.67534 0.64368 0.41191 0.0
C568 C 0.62241 0.62586 0.319 0.0
C569 C 0.63207 0.62176 0.27144 0.0
C570 C 0.59851 0.61595 0.32895 0.0
C571 C 0.58792 0.61784 0.37937 0.0
C572 C 0.60136 0.60877 0.42148 0.0
C573 C 0.59159 0.61126 0.46903 0.0
C574 C 0.56823 0.62247 0.47488 0.0
C575 C 0.55457 0.63118 0.43317 0.0
C576 C 0.56432 0.62885 0.38555 0.0
C577 C 0.57509 0.54702 0.14993 0.0
C578 C 0.55086 0.55463 0.13427 0.0
C579 C 0.58924 0.56135 0.18529 0.0
C580 C 0.57946 0.58357 0.20572 0.0
C581 C 0.55517 0.59104 0.19064 0.0
C582 C 0.54107 0.57681 0.15509 0.0
C583 C 0.59438 0.59884 0.24336 0.0
C584 C 0.58469 0.60298 0.29079 0.0
C585 C 0.61836 0.60844 0.23348 0.0
C586 C 0.62932 0.60526 0.18365 0.0
C587 C 0.61623 0.61329 0.14026 0.0
C588 C 0.62652 0.60987 0.09337 0.0
C589 C 0.64998 0.5986 0.0894 0.0
C590 C 0.66323 0.59079 0.13235 0.0
C591 C 0.65301 0.59414 0.17934 0.0
H592 H 0.6579 0.59595 0.05306 0.0
H593 H 0.5607 0.62438 0.51173 0.0
H594 H 0.86205 0.18591 0.87988 0.0
H595 H 0.88572 0.16656 0.8123 0.0
H596 H 0.87775 0.09429 0.87917 0.0
H597 H 0.85541 0.1139 0.94774 0.0
H598 H 0.92229 0.09786 0.85411 0.0
H599 H 0.84391 0.11423 0.76745 0.0
H600 H 0.80814 0.13959 0.7369 0.0
H601 H 0.85789 0.1857 0.65659 0.0
H602 H 0.89401 0.16081 0.68723 0.0
H603 H 0.94876 0.02019 0.64097 0.0
H604 H 0.92551 0.04331 0.70422 0.0
H605 H 0.96153 0.11187 0.66443 0.0
H606 H 0.98542 0.08877 0.60188 0.0
H607 H 0.90457 0.11189 0.6735 0.0
H608 H 0.98284 0.09218 0.76136 0.0
H609 H 0.01649 0.06367 0.78992 0.0
H610 H 0.96315 0.01992 0.86633 0.0
H611 H 0.92909 0.04796 0.83752 0.0
C612 C 0.86524 0.16588 0.8796 0.0
C613 C 0.85696 0.15132 0.91867 0.0
C614 C 0.87865 0.15478 0.84095 0.0
C615 C 0.88338 0.12882 0.8401 0.0
C616 C 0.87453 0.11431 0.87886 0.0
C617 C 0.86164 0.12546 0.91789 0.0
C618 C 0.8983 0.11675 0.8002 0.0
C619 C 0.9181 0.10079 0.81467 0.0
C620 C 0.89337 0.1208 0.74851 0.0
C621 C 0.87169 0.13583 0.7301 0.0
C622 C 0.84724 0.1299 0.74361 0.0
C623 C 0.8269 0.14417 0.72622 0.0
C624 C 0.83075 0.16429 0.69495 0.0
C625 C 0.85494 0.17014 0.6809 0.0
C626 C 0.87536 0.15595 0.69824 0.0
C627 C 0.95176 0.04018 0.64569 0.0
C628 C 0.969 0.05266 0.61663 0.0
C629 C 0.93846 0.05334 0.68179 0.0
C630 C 0.94183 0.07925 0.68886 0.0
C631 C 0.95869 0.09187 0.65939 0.0
C632 C 0.97239 0.07863 0.62395 0.0
C633 C 0.92802 0.09298 0.72782 0.0
C634 C 0.90859 0.10918 0.71309 0.0
C635 C 0.9329 0.08879 0.77921 0.0
C636 C 0.95338 0.07201 0.79682 0.0
C637 C 0.97824 0.07634 0.78383 0.0
C638 C 0.9974 0.06029 0.80015 0.0
C639 C 0.99195 0.03995 0.8298 0.0
C640 C 0.96734 0.03566 0.8433 0.0
C641 C 0.9481 0.05163 0.82701 0.0
H642 H 0.00681 0.02755 0.8424 0.0
H643 H 0.81498 0.17531 0.68152 0.0
H644 H 0.40168 0.37557 0.46699 0.0
H645 H 0.41937 0.39915 0.39998 0.0
H646 H 0.35634 0.37847 0.30171 0.0
H647 H 0.33838 0.35464 0.36921 0.0
H648 H 0.39996 0.37553 0.25341 0.0
H649 H 0.35924 0.43654 0.35434 0.0
H650 H 0.34852 0.45847 0.43272 0.0
H651 H 0.42539 0.48051 0.45839 0.0
H652 H 0.43665 0.4584 0.3805 0.0
H653 H 0.43792 0.50229 0.13446 0.0
H654 H 0.41335 0.47873 0.19268 0.0
H655 H 0.46947 0.42068 0.19551 0.0
H656 H 0.49399 0.44393 0.13689 0.0
H657 H 0.42319 0.46462 0.28586 0.0
H658 H 0.44157 0.36408 0.20814 0.0
H659 H 0.44943 0.343 0.12725 0.0
H660 H 0.41127 0.40212 0.04939 0.0
H661 H 0.40286 0.42336 0.12979 0.0
C662 C 0.39141 0.37619 0.43129 0.0
C663 C 0.36837 0.3636 0.42371 0.0
C664 C 0.40161 0.38964 0.39294 0.0
C665 C 0.38897 0.39101 0.34609 0.0
C666 C 0.36635 0.37779 0.33769 0.0
C667 C 0.35612 0.36419 0.3762 0.0
C668 C 0.39949 0.40647 0.30643 0.0
C669 C 0.40497 0.39502 0.2604 0.0
C670 C 0.40554 0.43208 0.31511 0.0
C671 C 0.39881 0.44566 0.36172 0.0
C672 C 0.37389 0.44593 0.37685 0.0
C673 C 0.36771 0.45841 0.42118 0.0
C674 C 0.38627 0.47084 0.45056 0.0
C675 C 0.41103 0.47087 0.4356 0.0
C676 C 0.41732 0.45839 0.39133 0.0
C677 C 0.44506 0.48451 0.14748 0.0
C678 C 0.46793 0.47499 0.13092 0.0
C679 C 0.43099 0.47108 0.18081 0.0
C680 C 0.43939 0.44778 0.19802 0.0
C681 C 0.46237 0.4384 0.18208 0.0
C682 C 0.47646 0.45181 0.14878 0.0
C683 C 0.42439 0.43349 0.23337 0.0
C684 C 0.41807 0.44517 0.27866 0.0
C685 C 0.41716 0.40826 0.22358 0.0
C686 C 0.42178 0.39541 0.17503 0.0
C687 C 0.43475 0.37252 0.17377 0.0
C688 C 0.43932 0.36055 0.128 0.0
C689 C 0.43092 0.37125 0.08321 0.0
C690 C 0.41785 0.3939 0.0841 0.0
C691 C 0.4132 0.40592 0.12977 0.0
H692 H 0.4345 0.36197 0.04782 0.0
H693 H 0.38145 0.48048 0.48488 0.0
H694 H 0.19282 0.88877 0.89696 0.0
H695 H 0.17074 0.90809 0.82577 0.0
H696 H 0.10374 0.86711 0.85686 0.0
H697 H 0.12579 0.84761 0.92808 0.0
H698 H 0.1124 0.87063 0.75288 0.0
H699 H 0.10869 0.92382 0.9007 0.0
H700 H 0.12683 0.94754 0.97363 0.0
H701 H 0.16927 0.99256 0.87643 0.0
H702 H 0.15166 0.96881 0.80292 0.0
H703 H 0.02097 0.9453 0.62786 0.0
H704 H 0.0456 0.92159 0.68939 0.0
H705 H 0.10806 0.97181 0.67448 0.0
H706 H 0.08326 0.99606 0.61401 0.0
H707 H 0.10292 0.96288 0.76867 0.0
H708 H 0.10613 0.91137 0.62034 0.0
H709 H 0.08901 0.88754 0.54661 0.0
H710 H 0.049 0.83945 0.64217 0.0
H711 H 0.06561 0.86322 0.71648 0.0
C712 C 0.17359 0.88337 0.88785 0.0
C713 C 0.161 0.86671 0.91815 0.0
C714 C 0.16094 0.89456 0.84741 0.0
C715 C 0.13553 0.88924 0.83643 0.0
C716 C 0.12334 0.8715 0.86476 0.0
C717 C 0.1359 0.86046 0.90549 0.0
C718 C 0.12119 0.90358 0.79802 0.0
C719 C 0.1101 0.89077 0.75643 0.0
C720 C 0.11866 0.92991 0.80226 0.0
C721 C 0.12907 0.94437 0.84637 0.0
C722 C 0.12204 0.93864 0.89491 0.0
C723 C 0.1322 0.95211 0.93634 0.0
C724 C 0.14924 0.9715 0.92968 0.0
C725 C 0.1561 0.97751 0.88154 0.0
C726 C 0.14603 0.96406 0.83998 0.0
C727 C 0.03995 0.95131 0.63768 0.0
C728 C 0.05015 0.97256 0.61595 0.0
C729 C 0.05409 0.93763 0.67267 0.0
C730 C 0.07888 0.94462 0.68606 0.0
C731 C 0.08901 0.96598 0.66473 0.0
C732 C 0.0748 0.97982 0.6301 0.0
C733 C 0.09408 0.93001 0.72304 0.0
C734 C 0.10529 0.94277 0.76465 0.0
C735 C 0.09685 0.90366 0.71855 0.0
C736 C 0.08694 0.88922 0.67396 0.0
C737 C 0.09354 0.89582 0.62562 0.0
C738 C 0.08395 0.88231 0.58373 0.0
C739 C 0.06788 0.86204 0.5897 0.0
C740 C 0.06143 0.85518 0.6376 0.0
C741 C 0.07095 0.86865 0.67962 0.0
H742 H 0.06047 0.8516 0.55721 0.0
H743 H 0.15709 0.98191 0.96181 0.0
loop_
_geom_bond_atom_site_label_1
_geom_bond_atom_site_label_2
_geom_bond_distance
_geom_bond_site_symmetry_2
_ccdc_geom_bond_type
H0 C1 0.949 . S
C1 H0 0.949 . S
C1 C2 1.395 . S
C1 C3 1.391 . S
C2 C1 1.395 . S
C2 C5 1.390 . S
C3 C1 1.391 . S
C3 C7 1.387 1_554 S
C3 C8 1.491 1_554 S
H4 C5 0.950 . S
C5 C2 1.390 . S
C5 H4 0.950 . S
C5 C6 1.378 1_554 S
C6 C5 1.378 1_556 S
C6 C7 1.409 . S
C7 C3 1.387 1_556 S
C7 C6 1.409 . S
C7 H9 0.951 . S
C8 C3 1.491 1_556 S
C8 C10 1.382 1_556 S
C8 C12 1.404 . S
H9 C7 0.951 . S
C10 C8 1.382 1_554 S
C10 C11 1.390 . S
C10 H15 0.949 . S
C11 C10 1.390 . S
C11 C16 1.399 1_554 S
C12 C8 1.404 . S
C12 H13 0.950 . S
C12 C14 1.375 . S
H13 C12 0.950 . S
C14 C12 1.375 . S
C14 C16 1.382 . S
C14 H18 0.950 . S
H15 C10 0.949 . S
C16 C11 1.399 1_556 S
C16 C14 1.382 . S
C16 H17 0.952 . S
H17 C16 0.952 . S
H18 C14 0.950 . S
H19 C20 0.949 . S
C20 H19 0.949 . S
C20 C21 1.395 . S
C20 C22 1.391 . S
C21 C20 1.395 . S
C21 C24 1.390 . S
C22 C20 1.391 . S
C22 C26 1.387 . S
C22 C27 1.491 . S
H23 C24 0.950 . S
C24 C21 1.390 . S
C24 H23 0.950 . S
C24 C25 1.378 . S
C25 C24 1.378 . S
C25 C26 1.409 . S
C26 C22 1.387 . S
C26 C25 1.409 . S
C26 H28 0.951 . S
C27 C22 1.491 . S
C27 C29 1.382 . S
C27 C31 1.404 . S
H28 C26 0.951 . S
C29 C27 1.382 . S
C29 C30 1.390 . S
C29 H34 0.949 . S
C30 C29 1.390 . S
C30 C35 1.399 . S
C31 C27 1.404 . S
C31 H32 0.950 . S
C31 C33 1.375 . S
H32 C31 0.950 . S
C33 C31 1.375 . S
C33 C35 1.382 . S
C33 H37 0.950 . S
H34 C29 0.949 . S
C35 C30 1.399 . S
C35 C33 1.382 . S
C35 H36 0.952 . S
H36 C35 0.952 . S
H37 C33 0.950 . S
H38 C39 0.949 . S
C39 H38 0.949 . S
C39 C40 1.395 . S
C39 C41 1.391 1_554 S
C40 C39 1.395 . S
C40 C43 1.390 . S
C41 C39 1.391 1_556 S
C41 C45 1.387 . S
C41 C46 1.491 . S
H42 C43 0.950 . S
C43 C40 1.390 . S
C43 H42 0.950 . S
C43 C44 1.378 1_554 S
C44 C43 1.378 1_556 S
C44 C45 1.409 . S
C45 C41 1.387 . S
C45 C44 1.409 . S
C45 H47 0.951 . S
C46 C41 1.491 . S
C46 C48 1.382 1_556 S
C46 C50 1.404 . S
H47 C45 0.951 . S
C48 C46 1.382 1_554 S
C48 C49 1.390 . S
C48 H53 0.949 . S
C49 C48 1.390 . S
C49 C54 1.399 1_554 S
C50 C46 1.404 . S
C50 H51 0.950 . S
C50 C52 1.375 . S
H51 C50 0.950 . S
C52 C50 1.375 . S
C52 C54 1.382 . S
C52 H56 0.950 . S
H53 C48 0.949 . S
C54 C49 1.399 1_556 S
C54 C52 1.382 . S
C54 H55 0.952 . S
H55 C54 0.952 . S
H56 C52 0.950 . S
H57 C58 0.949 . S
C58 H57 0.949 . S
C58 C59 1.395 . S
C58 C60 1.391 . S
C59 C58 1.395 . S
C59 C62 1.390 . S
C60 C58 1.391 . S
C60 C64 1.387 . S
C60 C65 1.491 . S
H61 C62 0.950 . S
C62 C59 1.390 . S
C62 H61 0.950 . S
C62 C63 1.378 . S
C63 C62 1.378 . S
C63 C64 1.409 . S
C64 C60 1.387 . S
C64 C63 1.409 . S
C64 H66 0.951 . S
C65 C60 1.491 . S
C65 C67 1.382 . S
C65 C69 1.404 . S
H66 C64 0.951 . S
C67 C65 1.382 . S
C67 C68 1.390 . S
C67 H72 0.949 . S
C68 C67 1.390 . S
C68 C73 1.399 . S
C69 C65 1.404 . S
C69 H70 0.950 . S
C69 C71 1.375 . S
H70 C69 0.950 . S
C71 C69 1.375 . S
C71 C73 1.382 . S
C71 H75 0.950 . S
H72 C67 0.949 . S
C73 C68 1.399 . S
C73 C71 1.382 . S
C73 H74 0.952 . S
H74 C73 0.952 . S
H75 C71 0.950 . S
C76 O92 1.251 1_565 S
C76 O94 1.254 . S
N77 C78 1.333 . S
N77 C82 1.307 . S
N77 Zn83 2.020 . S
C78 N77 1.333 . S
C78 C79 1.379 . S
C78 H96 0.952 . S
C79 C78 1.379 . S
C79 C80 1.390 . S
C79 H106 0.949 . S
C80 C79 1.390 . S
C80 C81 1.357 . S
C81 C80 1.357 . S
C81 C82 1.370 . S
C81 H107 0.950 . S
C82 N77 1.307 . S
C82 C81 1.370 . S
C82 H100 0.948 . S
Zn83 N77 2.020 . S
Zn83 O92 2.039 . S
Zn83 O98 2.034 . S
Zn83 O102 2.049 . S
Zn83 O104 2.027 . S
C84 O103 1.246 . S
C84 O104 1.245 1_655 S
N85 C86 1.307 . S
N85 C87 1.333 . S
N85 Zn91 2.020 . S
C86 N85 1.307 . S
C86 C90 1.370 . S
C86 H97 0.948 . S
C87 N85 1.333 . S
C87 C88 1.379 . S
C87 H95 0.952 . S
C88 C87 1.379 . S
C88 C89 1.390 . S
C88 H108 0.949 . S
C89 C88 1.390 . S
C89 C90 1.357 . S
C90 C86 1.370 . S
C90 C89 1.357 . S
C90 H109 0.950 . S
Zn91 N85 2.020 . S
Zn91 O94 2.025 1_655 S
Zn91 O99 2.024 1_655 S
Zn91 O101 2.039 1_565 S
Zn91 O103 2.034 1_565 S
O92 C76 1.251 1_545 S
O92 Zn83 2.039 . S
C93 O98 1.246 1_565 S
C93 O99 1.249 . S
O94 C76 1.254 . S
O94 Zn91 2.025 1_455 S
H95 C87 0.952 . S
H96 C78 0.952 . S
H97 C86 0.948 . S
O98 Zn83 2.034 . S
O98 C93 1.246 1_545 S
O99 Zn91 2.024 1_455 S
O99 C93 1.249 . S
H100 C82 0.948 . S
O101 Zn91 2.039 1_545 S
O101 C105 1.251 . S
O102 Zn83 2.049 . S
O102 C105 1.224 1_455 S
O103 C84 1.246 . S
O103 Zn91 2.034 1_545 S
O104 Zn83 2.027 . S
O104 C84 1.245 1_455 S
C105 O101 1.251 . S
C105 O102 1.224 1_655 S
H106 C79 0.949 . S
H107 C81 0.950 . S
H108 C88 0.949 . S
H109 C90 0.950 . S
C110 O126 1.251 . S
C110 O128 1.254 . S
N111 C112 1.333 . S
N111 C116 1.307 . S
N111 Zn117 2.020 . S
C112 N111 1.333 . S
C112 C113 1.379 . S
C112 H130 0.948 1_554 S
C113 C112 1.379 . S
C113 C114 1.390 . S
C113 H140 0.949 1_554 S
C114 C113 1.390 . S
C114 C115 1.357 . S
C115 C114 1.357 . S
C115 C116 1.370 . S
C115 H141 0.950 . S
C116 N111 1.307 . S
C116 C115 1.370 . S
C116 H134 0.948 . S
Zn117 N111 2.020 . S
Zn117 O126 2.039 1_554 S
Zn117 O132 2.034 . S
Zn117 O136 2.025 . S
Zn117 O138 2.024 1_554 S
C118 O137 1.246 . S
C118 O138 1.249 . S
N119 C120 1.307 . S
N119 C121 1.333 . S
N119 Zn125 2.020 . S
C120 N119 1.307 . S
C120 C124 1.370 . S
C120 H131 0.948 . S
C121 N119 1.333 . S
C121 C122 1.379 . S
C121 H129 0.952 . S
C122 C121 1.379 . S
C122 C123 1.390 . S
C122 H142 0.949 . S
C123 C122 1.390 . S
C123 C124 1.357 . S
C124 C120 1.370 . S
C124 C123 1.357 . S
C124 H143 0.950 . S
Zn125 N119 2.020 . S
Zn125 O128 2.025 1_554 S
Zn125 O133 2.024 . S
Zn125 O135 2.039 . S
Zn125 O137 2.034 1_554 S
O126 C110 1.251 . S
O126 Zn117 2.039 1_556 S
C127 O132 1.246 . S
C127 O133 1.249 . S
O128 C110 1.254 . S
O128 Zn125 2.025 1_556 S
H129 C121 0.952 . S
H130 C112 0.948 1_556 S
H131 C120 0.948 . S
O132 Zn117 2.034 . S
O132 C127 1.246 . S
O133 Zn125 2.024 . S
O133 C127 1.249 . S
H134 C116 0.948 . S
O135 Zn125 2.039 . S
O135 C139 1.251 . S
O136 Zn117 2.025 . S
O136 C139 1.254 . S
O137 C118 1.246 . S
O137 Zn125 2.034 1_556 S
O138 Zn117 2.024 1_556 S
O138 C118 1.249 . S
C139 O135 1.251 . S
C139 O136 1.254 . S
H140 C113 0.949 1_556 S
H141 C115 0.950 . S
H142 C122 0.949 . S
H143 C124 0.950 . S
H144 C162 0.951 . S
H145 C164 0.951 . S
H146 C166 0.950 . S
H147 C167 0.950 . S
H148 C169 0.950 . S
H149 C172 0.950 . S
H150 C173 0.950 . S
H151 C175 0.950 . S
H152 C176 0.950 . S
H153 C177 0.951 . S
H154 C179 0.951 . S
H155 C181 0.950 . S
H156 C182 0.950 . S
H157 C184 0.950 . S
H158 C187 0.950 . S
H159 C188 0.950 . S
H160 C190 0.950 . S
H161 C191 0.950 . S
C162 H144 0.951 . S
C162 C163 1.366 . S
C162 C164 1.388 . S
C163 C162 1.366 . S
C163 C167 1.385 . S
C164 H145 0.951 . S
C164 C162 1.388 . S
C164 C165 1.366 . S
C165 C164 1.366 . S
C165 C166 1.414 . S
C165 C168 1.499 . S
C166 H146 0.950 . S
C166 C165 1.414 . S
C166 C167 1.374 . S
C167 H147 0.950 . S
C167 C163 1.385 . S
C167 C166 1.374 . S
C168 C165 1.499 . S
C168 C169 1.373 . S
C168 C170 1.389 . S
C169 H148 0.950 . S
C169 C168 1.373 . S
C169 C185 1.377 . S
C170 C168 1.389 . S
C170 C171 1.524 . S
C170 C184 1.377 . S
C171 C170 1.524 . S
C171 C172 1.397 . S
C171 C176 1.363 . S
C172 H149 0.950 . S
C172 C171 1.397 . S
C172 C173 1.334 . S
C173 H150 0.950 . S
C173 C172 1.334 . S
C173 C174 1.287 . S
C174 C173 1.287 . S
C174 C175 1.524 . S
C174 H193 0.913 . S
C175 H151 0.950 . S
C175 C174 1.524 . S
C175 C176 1.415 . S
C176 H152 0.950 . S
C176 C171 1.363 . S
C176 C175 1.415 . S
C177 H153 0.951 . S
C177 C178 1.366 . S
C177 C179 1.388 . S
C178 C177 1.366 . S
C178 C182 1.385 . S
C179 H154 0.951 . S
C179 C177 1.388 . S
C179 C180 1.366 . S
C180 C179 1.366 . S
C180 C181 1.414 . S
C180 C183 1.499 . S
C181 H155 0.950 . S
C181 C180 1.414 . S
C181 C182 1.374 . S
C182 H156 0.950 . S
C182 C178 1.385 . S
C182 C181 1.374 . S
C183 C180 1.499 . S
C183 C184 1.373 . S
C183 C185 1.389 . S
C184 H157 0.950 . S
C184 C170 1.377 . S
C184 C183 1.373 . S
C185 C169 1.377 . S
C185 C183 1.389 . S
C185 C186 1.524 . S
C186 C185 1.524 . S
C186 C187 1.397 . S
C186 C191 1.363 . S
C187 H158 0.950 . S
C187 C186 1.397 . S
C187 C188 1.334 . S
C188 H159 0.950 . S
C188 C187 1.334 . S
C188 C189 1.287 . S
C189 C188 1.287 . S
C189 C190 1.524 . S
C189 H192 0.999 . S
C190 H160 0.950 . S
C190 C189 1.524 . S
C190 C191 1.415 . S
C191 H161 0.950 . S
C191 C186 1.363 . S
C191 C190 1.415 . S
H192 C189 0.999 . S
H193 C174 0.913 . S
H194 C212 0.951 . S
H195 C214 0.951 . S
H196 C216 0.950 1_556 S
H197 C217 0.950 1_556 S
H198 C219 0.950 . S
H199 C222 0.950 . S
H200 C223 0.950 . S
H201 C225 0.950 . S
H202 C226 0.950 . S
H203 C227 0.951 1_556 S
H204 C229 0.951 1_556 S
H205 C231 0.950 . S
H206 C232 0.950 . S
H207 C234 0.950 . S
H208 C237 0.950 . S
H209 C238 0.950 . S
H210 C240 0.950 . S
H211 C241 0.950 1_556 S
C212 H194 0.951 . S
C212 C213 1.366 . S
C212 C214 1.388 . S
C213 C212 1.366 . S
C213 C217 1.385 . S
C214 H195 0.951 . S
C214 C212 1.388 . S
C214 C215 1.366 . S
C215 C214 1.366 . S
C215 C216 1.414 . S
C215 C218 1.499 . S
C216 H196 0.950 1_554 S
C216 C215 1.414 . S
C216 C217 1.374 . S
C217 H197 0.950 1_554 S
C217 C213 1.385 . S
C217 C216 1.374 . S
C218 C215 1.499 . S
C218 C219 1.373 . S
C218 C220 1.389 . S
C219 H198 0.950 . S
C219 C218 1.373 . S
C219 C235 1.377 . S
C220 C218 1.389 . S
C220 C221 1.524 . S
C220 C234 1.377 . S
C221 C220 1.524 . S
C221 C222 1.397 1_554 S
C221 C226 1.363 . S
C222 H199 0.950 . S
C222 C221 1.397 1_556 S
C222 C223 1.334 . S
C223 H200 0.950 . S
C223 C222 1.334 . S
C223 C224 1.287 . S
C224 C223 1.287 . S
C224 C225 1.524 1_556 S
C224 H243 0.913 . S
C225 H201 0.950 . S
C225 C224 1.524 1_554 S
C225 C226 1.415 . S
C226 H202 0.950 . S
C226 C221 1.363 . S
C226 C225 1.415 . S
C227 H203 0.951 1_554 S
C227 C228 1.366 . S
C227 C229 1.388 . S
C228 C227 1.366 . S
C228 C232 1.385 . S
C229 H204 0.951 1_554 S
C229 C227 1.388 . S
C229 C230 1.366 . S
C230 C229 1.366 . S
C230 C231 1.414 . S
C230 C233 1.499 . S
C231 H205 0.950 . S
C231 C230 1.414 . S
C231 C232 1.374 . S
C232 H206 0.950 . S
C232 C228 1.385 . S
C232 C231 1.374 . S
C233 C230 1.499 . S
C233 C234 1.373 . S
C233 C235 1.389 . S
C234 H207 0.950 . S
C234 C220 1.377 . S
C234 C233 1.373 . S
C235 C219 1.377 . S
C235 C233 1.389 . S
C235 C236 1.524 . S
C236 C235 1.524 . S
C236 C237 1.397 . S
C236 C241 1.363 . S
C237 H208 0.950 . S
C237 C236 1.397 . S
C237 C238 1.334 . S
C238 H209 0.950 . S
C238 C237 1.334 . S
C238 C239 1.287 . S
C239 C238 1.287 . S
C239 C240 1.524 . S
C239 H242 0.999 . S
C240 H210 0.950 . S
C240 C239 1.524 . S
C240 C241 1.415 . S
C241 H211 0.950 1_554 S
C241 C236 1.363 . S
C241 C240 1.415 . S
H242 C239 0.999 . S
H243 C224 0.913 . S
H244 C262 0.951 . S
H245 C264 0.951 . S
H246 C266 0.950 . S
H247 C267 0.950 . S
H248 C269 0.950 . S
H249 C272 0.950 . S
H250 C273 0.950 . S
H251 C275 0.950 . S
H252 C276 0.950 . S
H253 C277 0.951 . S
H254 C279 0.951 . S
H255 C281 0.950 . S
H256 C282 0.950 . S
H257 C284 0.950 . S
H258 C287 0.950 . S
H259 C288 0.950 . S
H260 C290 0.950 . S
H261 C291 0.950 . S
C262 H244 0.951 . S
C262 C263 1.366 . S
C262 C264 1.388 . S
C263 C262 1.366 . S
C263 C267 1.385 . S
C264 H245 0.951 . S
C264 C262 1.388 . S
C264 C265 1.366 . S
C265 C264 1.366 . S
C265 C266 1.414 . S
C265 C268 1.499 . S
C266 H246 0.950 . S
C266 C265 1.414 . S
C266 C267 1.374 . S
C267 H247 0.950 . S
C267 C263 1.385 . S
C267 C266 1.374 . S
C268 C265 1.499 . S
C268 C269 1.373 . S
C268 C270 1.389 . S
C269 H248 0.950 . S
C269 C268 1.373 . S
C269 C285 1.377 . S
C270 C268 1.389 . S
C270 C271 1.524 . S
C270 C284 1.377 . S
C271 C270 1.524 . S
C271 C272 1.397 . S
C271 C276 1.363 . S
C272 H249 0.950 . S
C272 C271 1.397 . S
C272 C273 1.334 . S
C273 H250 0.950 . S
C273 C272 1.334 . S
C273 C274 1.287 . S
C274 C273 1.287 . S
C274 C275 1.524 . S
C274 H293 0.913 . S
C275 H251 0.950 . S
C275 C274 1.524 . S
C275 C276 1.415 . S
C276 H252 0.950 . S
C276 C271 1.363 . S
C276 C275 1.415 . S
C277 H253 0.951 . S
C277 C278 1.366 . S
C277 C279 1.388 . S
C278 C277 1.366 . S
C278 C282 1.385 . S
C279 H254 0.951 . S
C279 C277 1.388 . S
C279 C280 1.366 . S
C280 C279 1.366 . S
C280 C281 1.414 . S
C280 C283 1.499 . S
C281 H255 0.950 . S
C281 C280 1.414 . S
C281 C282 1.374 . S
C282 H256 0.950 . S
C282 C278 1.385 . S
C282 C281 1.374 . S
C283 C280 1.499 . S
C283 C284 1.373 . S
C283 C285 1.389 . S
C284 H257 0.950 . S
C284 C270 1.377 . S
C284 C283 1.373 . S
C285 C269 1.377 . S
C285 C283 1.389 . S
C285 C286 1.524 . S
C286 C285 1.524 . S
C286 C287 1.397 . S
C286 C291 1.363 . S
C287 H258 0.950 . S
C287 C286 1.397 . S
C287 C288 1.334 . S
C288 H259 0.950 . S
C288 C287 1.334 . S
C288 C289 1.287 . S
C289 C288 1.287 . S
C289 C290 1.524 . S
C289 H292 0.999 . S
C290 H260 0.950 . S
C290 C289 1.524 . S
C290 C291 1.415 . S
C291 H261 0.950 . S
C291 C286 1.363 . S
C291 C290 1.415 . S
H292 C289 0.999 . S
H293 C274 0.913 . S
H294 C312 0.957 . S
H295 C314 0.951 1_556 S
H296 C316 0.950 . S
H297 C317 0.950 . S
H298 C319 0.950 1_556 S
H299 C322 0.950 . S
H300 C323 0.950 . S
H301 C325 0.950 . S
H302 C326 0.950 . S
H303 C327 0.951 . S
H304 C329 0.951 . S
H305 C331 0.950 1_556 S
H306 C332 0.950 1_556 S
H307 C334 0.950 . S
H308 C337 0.950 . S
H309 C338 0.950 . S
H310 C340 0.950 . S
H311 C341 0.950 1_554 S
C312 H294 0.957 . S
C312 C313 1.360 1_556 S
C312 C314 1.387 1_556 S
C313 C312 1.360 1_554 S
C313 C317 1.385 . S
C314 H295 0.951 1_554 S
C314 C312 1.387 1_554 S
C314 C315 1.366 . S
C315 C314 1.366 . S
C315 C316 1.414 . S
C315 C318 1.499 . S
C316 H296 0.950 . S
C316 C315 1.414 . S
C316 C317 1.374 . S
C317 H297 0.950 . S
C317 C313 1.385 . S
C317 C316 1.374 . S
C318 C315 1.499 . S
C318 C319 1.373 . S
C318 C320 1.389 . S
C319 H298 0.950 1_554 S
C319 C318 1.373 . S
C319 C335 1.377 . S
C320 C318 1.389 . S
C320 C321 1.524 . S
C320 C334 1.377 . S
C321 C320 1.524 . S
C321 C322 1.397 . S
C321 C326 1.363 . S
C322 H299 0.950 . S
C322 C321 1.397 . S
C322 C323 1.334 . S
C323 H300 0.950 . S
C323 C322 1.334 . S
C323 C324 1.287 . S
C324 C323 1.287 . S
C324 C325 1.524 . S
C324 H343 0.913 . S
C325 H301 0.950 . S
C325 C324 1.524 . S
C325 C326 1.415 . S
C326 H302 0.950 . S
C326 C321 1.363 . S
C326 C325 1.415 . S
C327 H303 0.951 . S
C327 C328 1.366 . S
C327 C329 1.388 . S
C328 C327 1.366 . S
C328 C332 1.385 . S
C329 H304 0.951 . S
C329 C327 1.388 . S
C329 C330 1.366 . S
C330 C329 1.366 . S
C330 C331 1.414 . S
C330 C333 1.499 . S
C331 H305 0.950 1_554 S
C331 C330 1.414 . S
C331 C332 1.374 . S
C332 H306 0.950 1_554 S
C332 C328 1.385 . S
C332 C331 1.374 . S
C333 C330 1.499 . S
C333 C334 1.373 . S
C333 C335 1.389 . S
C334 H307 0.950 . S
C334 C320 1.377 . S
C334 C333 1.373 . S
C335 C319 1.377 . S
C335 C333 1.389 . S
C335 C336 1.524 1_554 S
C336 C335 1.524 1_556 S
C336 C337 1.397 . S
C336 C341 1.363 . S
C337 H308 0.950 . S
C337 C336 1.397 . S
C337 C338 1.334 . S
C338 H309 0.950 . S
C338 C337 1.334 . S
C338 C339 1.287 . S
C339 C338 1.287 . S
C339 C340 1.524 . S
C339 H342 0.999 . S
C340 H310 0.950 . S
C340 C339 1.524 . S
C340 C341 1.415 . S
C341 H311 0.950 1_556 S
C341 C336 1.363 . S
C341 C340 1.415 . S
H342 C339 0.999 . S
H343 C324 0.913 . S
H344 C362 0.951 . S
H345 C364 0.951 . S
H346 C366 0.950 . S
H347 C367 0.950 . S
H348 C369 0.950 . S
H349 C372 0.950 . S
H350 C373 0.950 . S
H351 C375 0.950 . S
H352 C376 0.950 . S
H353 C377 0.951 . S
H354 C379 0.951 . S
H355 C381 0.950 . S
H356 C382 0.950 . S
H357 C384 0.950 . S
H358 C387 0.950 . S
H359 C388 0.950 . S
H360 C390 0.950 . S
H361 C391 0.950 . S
C362 H344 0.951 . S
C362 C363 1.366 . S
C362 C364 1.388 . S
C363 C362 1.366 . S
C363 C367 1.385 . S
C364 H345 0.951 . S
C364 C362 1.388 . S
C364 C365 1.366 . S
C365 C364 1.366 . S
C365 C366 1.414 . S
C365 C368 1.499 . S
C366 H346 0.950 . S
C366 C365 1.414 . S
C366 C367 1.374 . S
C367 H347 0.950 . S
C367 C363 1.385 . S
C367 C366 1.374 . S
C368 C365 1.499 . S
C368 C369 1.373 . S
C368 C370 1.389 . S
C369 H348 0.950 . S
C369 C368 1.373 . S
C369 C385 1.377 . S
C370 C368 1.389 . S
C370 C371 1.524 . S
C370 C384 1.377 . S
C371 C370 1.524 . S
C371 C372 1.397 . S
C371 C376 1.363 . S
C372 H349 0.950 . S
C372 C371 1.397 . S
C372 C373 1.334 . S
C373 H350 0.950 . S
C373 C372 1.334 . S
C373 C374 1.287 . S
C374 C373 1.287 . S
C374 C375 1.524 . S
C374 H393 0.913 . S
C375 H351 0.950 . S
C375 C374 1.524 . S
C375 C376 1.415 . S
C376 H352 0.950 . S
C376 C371 1.363 . S
C376 C375 1.415 . S
C377 H353 0.951 . S
C377 C378 1.366 . S
C377 C379 1.388 . S
C378 C377 1.366 . S
C378 C382 1.385 . S
C379 H354 0.951 . S
C379 C377 1.388 . S
C379 C380 1.366 . S
C380 C379 1.366 . S
C380 C381 1.414 . S
C380 C383 1.499 . S
C381 H355 0.950 . S
C381 C380 1.414 . S
C381 C382 1.374 . S
C382 H356 0.950 . S
C382 C378 1.385 . S
C382 C381 1.374 . S
C383 C380 1.499 . S
C383 C384 1.373 . S
C383 C385 1.389 . S
C384 H357 0.950 . S
C384 C370 1.377 . S
C384 C383 1.373 . S
C385 C369 1.377 . S
C385 C383 1.389 . S
C385 C386 1.524 . S
C386 C385 1.524 . S
C386 C387 1.397 . S
C386 C391 1.363 . S
C387 H358 0.950 . S
C387 C386 1.397 . S
C387 C388 1.334 . S
C388 H359 0.950 . S
C388 C387 1.334 . S
C388 C389 1.287 . S
C389 C388 1.287 . S
C389 C390 1.524 . S
C389 H392 1.008 . S
C390 H360 0.950 . S
C390 C389 1.524 . S
C390 C391 1.415 . S
C391 H361 0.950 . S
C391 C386 1.363 . S
C391 C390 1.415 . S
H392 C389 1.008 . S
H393 C374 0.913 . S
H394 C412 0.951 . S
H395 C414 0.951 . S
H396 C416 0.950 . S
H397 C417 0.950 . S
H398 C419 0.950 . S
H399 C422 0.950 . S
H400 C423 0.950 . S
H401 C425 0.950 . S
H402 C426 0.950 . S
H403 C427 0.951 . S
H404 C429 0.951 . S
H405 C431 0.950 . S
H406 C432 0.950 . S
H407 C434 0.950 . S
H408 C437 0.950 . S
H409 C438 0.950 . S
H410 C440 0.950 . S
H411 C441 0.950 . S
C412 H394 0.951 . S
C412 C413 1.366 . S
C412 C414 1.388 . S
C413 C412 1.366 . S
C413 C417 1.385 . S
C414 H395 0.951 . S
C414 C412 1.388 . S
C414 C415 1.366 . S
C415 C414 1.366 . S
C415 C416 1.414 . S
C415 C418 1.499 . S
C416 H396 0.950 . S
C416 C415 1.414 . S
C416 C417 1.374 . S
C417 H397 0.950 . S
C417 C413 1.385 . S
C417 C416 1.374 . S
C418 C415 1.499 . S
C418 C419 1.373 . S
C418 C420 1.389 . S
C419 H398 0.950 . S
C419 C418 1.373 . S
C419 C435 1.377 . S
C420 C418 1.389 . S
C420 C421 1.524 . S
C420 C434 1.377 . S
C421 C420 1.524 . S
C421 C422 1.397 . S
C421 C426 1.363 . S
C422 H399 0.950 . S
C422 C421 1.397 . S
C422 C423 1.334 . S
C423 H400 0.950 . S
C423 C422 1.334 . S
C423 C424 1.287 . S
C424 C423 1.287 . S
C424 C425 1.524 . S
C424 H443 0.913 . S
C425 H401 0.950 . S
C425 C424 1.524 . S
C425 C426 1.415 . S
C426 H402 0.950 . S
C426 C421 1.363 . S
C426 C425 1.415 . S
C427 H403 0.951 . S
C427 C428 1.366 . S
C427 C429 1.388 . S
C428 C427 1.366 . S
C428 C432 1.385 . S
C429 H404 0.951 . S
C429 C427 1.388 . S
C429 C430 1.366 . S
C430 C429 1.366 . S
C430 C431 1.414 . S
C430 C433 1.499 . S
C431 H405 0.950 . S
C431 C430 1.414 . S
C431 C432 1.374 . S
C432 H406 0.950 . S
C432 C428 1.385 . S
C432 C431 1.374 . S
C433 C430 1.499 . S
C433 C434 1.373 . S
C433 C435 1.389 . S
C434 H407 0.950 . S
C434 C420 1.377 . S
C434 C433 1.373 . S
C435 C419 1.377 . S
C435 C433 1.389 . S
C435 C436 1.524 . S
C436 C435 1.524 . S
C436 C437 1.397 . S
C436 C441 1.363 . S
C437 H408 0.950 . S
C437 C436 1.397 . S
C437 C438 1.334 . S
C438 H409 0.950 . S
C438 C437 1.334 . S
C438 C439 1.287 . S
C439 C438 1.287 . S
C439 C440 1.524 . S
C439 H442 0.999 . S
C440 H410 0.950 . S
C440 C439 1.524 . S
C440 C441 1.415 . S
C441 H411 0.950 . S
C441 C436 1.363 . S
C441 C440 1.415 . S
H442 C439 0.999 . S
H443 C424 0.913 . S
H444 C462 0.951 . S
H445 C464 0.951 . S
H446 C466 0.950 . S
H447 C467 0.950 . S
H448 C469 0.950 . S
H449 C472 0.950 . S
H450 C473 0.950 . S
H451 C475 0.950 . S
H452 C476 0.950 . S
H453 C477 0.951 . S
H454 C479 0.951 . S
H455 C481 0.950 . S
H456 C482 0.950 . S
H457 C484 0.950 . S
H458 C487 0.950 . S
H459 C488 0.950 . S
H460 C490 0.950 . S
H461 C491 0.950 . S
C462 H444 0.951 . S
C462 C463 1.366 . S
C462 C464 1.388 . S
C463 C462 1.366 . S
C463 C467 1.385 . S
C464 H445 0.951 . S
C464 C462 1.388 . S
C464 C465 1.366 . S
C465 C464 1.366 . S
C465 C466 1.414 . S
C465 C468 1.499 . S
C466 H446 0.950 . S
C466 C465 1.414 . S
C466 C467 1.374 . S
C467 H447 0.950 . S
C467 C463 1.385 . S
C467 C466 1.374 . S
C468 C465 1.499 . S
C468 C469 1.373 . S
C468 C470 1.389 . S
C469 H448 0.950 . S
C469 C468 1.373 . S
C469 C485 1.377 . S
C470 C468 1.389 . S
C470 C471 1.524 . S
C470 C484 1.377 . S
C471 C470 1.524 . S
C471 C472 1.397 . S
C471 C476 1.363 . S
C472 H449 0.950 . S
C472 C471 1.397 . S
C472 C473 1.334 . S
C473 H450 0.950 . S
C473 C472 1.334 . S
C473 C474 1.287 . S
C474 C473 1.287 . S
C474 C475 1.524 . S
C474 H493 0.913 . S
C475 H451 0.950 . S
C475 C474 1.524 . S
C475 C476 1.415 . S
C476 H452 0.950 . S
C476 C471 1.363 . S
C476 C475 1.415 . S
C477 H453 0.951 . S
C477 C478 1.366 . S
C477 C479 1.388 . S
C478 C477 1.366 . S
C478 C482 1.385 . S
C479 H454 0.951 . S
C479 C477 1.388 . S
C479 C480 1.366 . S
C480 C479 1.366 . S
C480 C481 1.414 . S
C480 C483 1.499 . S
C481 H455 0.950 . S
C481 C480 1.414 . S
C481 C482 1.374 . S
C482 H456 0.950 . S
C482 C478 1.385 . S
C482 C481 1.374 . S
C483 C480 1.499 . S
C483 C484 1.373 . S
C483 C485 1.389 . S
C484 H457 0.950 . S
C484 C470 1.377 . S
C484 C483 1.373 . S
C485 C469 1.377 . S
C485 C483 1.389 . S
C485 C486 1.524 . S
C486 C485 1.524 . S
C486 C487 1.397 . S
C486 C491 1.363 . S
C487 H458 0.950 . S
C487 C486 1.397 . S
C487 C488 1.334 . S
C488 H459 0.950 . S
C488 C487 1.334 . S
C488 C489 1.287 . S
C489 C488 1.287 . S
C489 C490 1.524 . S
C489 H492 0.999 . S
C490 H460 0.950 . S
C490 C489 1.524 . S
C490 C491 1.415 . S
C491 H461 0.950 . S
C491 C486 1.363 . S
C491 C490 1.415 . S
H492 C489 0.999 . S
H493 C474 0.913 . S
H494 C512 0.951 . S
H495 C514 0.951 . S
H496 C516 0.950 . S
H497 C517 0.950 . S
H498 C519 0.950 . S
H499 C522 0.950 . S
H500 C523 0.950 . S
H501 C525 0.950 . S
H502 C526 0.950 . S
H503 C527 0.951 . S
H504 C529 0.951 . S
H505 C531 0.950 . S
H506 C532 0.950 . S
H507 C534 0.950 . S
H508 C537 0.950 . S
H509 C538 0.950 . S
H510 C540 0.950 . S
H511 C541 0.950 . S
C512 H494 0.951 . S
C512 C513 1.366 . S
C512 C514 1.388 . S
C513 C512 1.366 . S
C513 C517 1.385 . S
C514 H495 0.951 . S
C514 C512 1.388 . S
C514 C515 1.366 . S
C515 C514 1.366 . S
C515 C516 1.414 . S
C515 C518 1.499 . S
C516 H496 0.950 . S
C516 C515 1.414 . S
C516 C517 1.374 . S
C517 H497 0.950 . S
C517 C513 1.385 . S
C517 C516 1.374 . S
C518 C515 1.499 . S
C518 C519 1.373 . S
C518 C520 1.389 . S
C519 H498 0.950 . S
C519 C518 1.373 . S
C519 C535 1.377 . S
C520 C518 1.389 . S
C520 C521 1.524 . S
C520 C534 1.377 . S
C521 C520 1.524 . S
C521 C522 1.397 . S
C521 C526 1.363 . S
C522 H499 0.950 . S
C522 C521 1.397 . S
C522 C523 1.334 . S
C523 H500 0.950 . S
C523 C522 1.334 . S
C523 C524 1.287 . S
C524 C523 1.287 . S
C524 C525 1.524 . S
C524 H543 0.913 . S
C525 H501 0.950 . S
C525 C524 1.524 . S
C525 C526 1.415 . S
C526 H502 0.950 . S
C526 C521 1.363 . S
C526 C525 1.415 . S
C527 H503 0.951 . S
C527 C528 1.366 . S
C527 C529 1.388 . S
C528 C527 1.366 . S
C528 C532 1.385 . S
C529 H504 0.951 . S
C529 C527 1.388 . S
C529 C530 1.366 . S
C530 C529 1.366 . S
C530 C531 1.414 . S
C530 C533 1.499 . S
C531 H505 0.950 . S
C531 C530 1.414 . S
C531 C532 1.374 . S
C532 H506 0.950 . S
C532 C528 1.385 . S
C532 C531 1.374 . S
C533 C530 1.499 . S
C533 C534 1.373 . S
C533 C535 1.389 . S
C534 H507 0.950 . S
C534 C520 1.377 . S
C534 C533 1.373 . S
C535 C519 1.377 . S
C535 C533 1.389 . S
C535 C536 1.524 . S
C536 C535 1.524 . S
C536 C537 1.397 . S
C536 C541 1.363 . S
C537 H508 0.950 . S
C537 C536 1.397 . S
C537 C538 1.334 . S
C538 H509 0.950 . S
C538 C537 1.334 . S
C538 C539 1.287 . S
C539 C538 1.287 . S
C539 C540 1.524 . S
C539 H542 0.999 . S
C540 H510 0.950 . S
C540 C539 1.524 . S
C540 C541 1.415 . S
C541 H511 0.950 . S
C541 C536 1.363 . S
C541 C540 1.415 . S
H542 C539 0.999 . S
H543 C524 0.913 . S
H544 C562 0.951 . S
H545 C564 0.951 . S
H546 C566 0.950 . S
H547 C567 0.950 . S
H548 C569 0.950 . S
H549 C572 0.950 . S
H550 C573 0.950 . S
H551 C575 0.950 . S
H552 C576 0.950 . S
H553 C577 0.951 . S
H554 C579 0.951 . S
H555 C581 0.950 . S
H556 C582 0.950 . S
H557 C584 0.950 . S
H558 C587 0.950 . S
H559 C588 0.950 . S
H560 C590 0.950 . S
H561 C591 0.950 . S
C562 H544 0.951 . S
C562 C563 1.366 . S
C562 C564 1.388 . S
C563 C562 1.366 . S
C563 C567 1.385 . S
C564 H545 0.951 . S
C564 C562 1.388 . S
C564 C565 1.366 . S
C565 C564 1.366 . S
C565 C566 1.414 . S
C565 C568 1.499 . S
C566 H546 0.950 . S
C566 C565 1.414 . S
C566 C567 1.374 . S
C567 H547 0.950 . S
C567 C563 1.385 . S
C567 C566 1.374 . S
C568 C565 1.499 . S
C568 C569 1.373 . S
C568 C570 1.389 . S
C569 H548 0.950 . S
C569 C568 1.373 . S
C569 C585 1.377 . S
C570 C568 1.389 . S
C570 C571 1.524 . S
C570 C584 1.377 . S
C571 C570 1.524 . S
C571 C572 1.397 . S
C571 C576 1.363 . S
C572 H549 0.950 . S
C572 C571 1.397 . S
C572 C573 1.334 . S
C573 H550 0.950 . S
C573 C572 1.334 . S
C573 C574 1.287 . S
C574 C573 1.287 . S
C574 C575 1.524 . S
C574 H593 0.913 . S
C575 H551 0.950 . S
C575 C574 1.524 . S
C575 C576 1.415 . S
C576 H552 0.950 . S
C576 C571 1.363 . S
C576 C575 1.415 . S
C577 H553 0.951 . S
C577 C578 1.366 . S
C577 C579 1.388 . S
C578 C577 1.366 . S
C578 C582 1.385 . S
C579 H554 0.951 . S
C579 C577 1.388 . S
C579 C580 1.366 . S
C580 C579 1.366 . S
C580 C581 1.414 . S
C580 C583 1.499 . S
C581 H555 0.950 . S
C581 C580 1.414 . S
C581 C582 1.374 . S
C582 H556 0.950 . S
C582 C578 1.385 . S
C582 C581 1.374 . S
C583 C580 1.499 . S
C583 C584 1.373 . S
C583 C585 1.389 . S
C584 H557 0.950 . S
C584 C570 1.377 . S
C584 C583 1.373 . S
C585 C569 1.377 . S
C585 C583 1.389 . S
C585 C586 1.524 . S
C586 C585 1.524 . S
C586 C587 1.397 . S
C586 C591 1.363 . S
C587 H558 0.950 . S
C587 C586 1.397 . S
C587 C588 1.334 . S
C588 H559 0.950 . S
C588 C587 1.334 . S
C588 C589 1.287 . S
C589 C588 1.287 . S
C589 C590 1.524 . S
C589 H592 0.999 . S
C590 H560 0.950 . S
C590 C589 1.524 . S
C590 C591 1.415 . S
C591 H561 0.950 . S
C591 C586 1.363 . S
C591 C590 1.415 . S
H592 C589 0.999 . S
H593 C574 0.913 . S
H594 C612 0.951 . S
H595 C614 0.951 . S
H596 C616 0.950 . S
H597 C617 0.950 . S
H598 C619 0.950 . S
H599 C622 0.950 . S
H600 C623 0.950 . S
H601 C625 0.950 . S
H602 C626 0.950 . S
H603 C627 0.951 . S
H604 C629 0.951 . S
H605 C631 0.950 . S
H606 C632 0.950 . S
H607 C634 0.950 . S
H608 C637 0.950 . S
H609 C638 0.950 . S
H610 C640 0.950 . S
H611 C641 0.950 . S
C612 H594 0.951 . S
C612 C613 1.366 . S
C612 C614 1.388 . S
C613 C612 1.366 . S
C613 C617 1.385 . S
C614 H595 0.951 . S
C614 C612 1.388 . S
C614 C615 1.366 . S
C615 C614 1.366 . S
C615 C616 1.414 . S
C615 C618 1.499 . S
C616 H596 0.950 . S
C616 C615 1.414 . S
C616 C617 1.374 . S
C617 H597 0.950 . S
C617 C613 1.385 . S
C617 C616 1.374 . S
C618 C615 1.499 . S
C618 C619 1.373 . S
C618 C620 1.389 . S
C619 H598 0.950 . S
C619 C618 1.373 . S
C619 C635 1.377 . S
C620 C618 1.389 . S
C620 C621 1.524 . S
C620 C634 1.377 . S
C621 C620 1.524 . S
C621 C622 1.397 . S
C621 C626 1.363 . S
C622 H599 0.950 . S
C622 C621 1.397 . S
C622 C623 1.334 . S
C623 H600 0.950 . S
C623 C622 1.334 . S
C623 C624 1.287 . S
C624 C623 1.287 . S
C624 C625 1.524 . S
C624 H643 0.913 . S
C625 H601 0.950 . S
C625 C624 1.524 . S
C625 C626 1.415 . S
C626 H602 0.950 . S
C626 C621 1.363 . S
C626 C625 1.415 . S
C627 H603 0.951 . S
C627 C628 1.366 . S
C627 C629 1.388 . S
C628 C627 1.366 . S
C628 C632 1.385 . S
C629 H604 0.951 . S
C629 C627 1.388 . S
C629 C630 1.366 . S
C630 C629 1.366 . S
C630 C631 1.414 . S
C630 C633 1.499 . S
C631 H605 0.950 . S
C631 C630 1.414 . S
C631 C632 1.374 . S
C632 H606 0.950 . S
C632 C628 1.385 . S
C632 C631 1.374 . S
C633 C630 1.499 . S
C633 C634 1.373 . S
C633 C635 1.389 . S
C634 H607 0.950 . S
C634 C620 1.377 . S
C634 C633 1.373 . S
C635 C619 1.377 . S
C635 C633 1.389 . S
C635 C636 1.524 . S
C636 C635 1.524 . S
C636 C637 1.397 . S
C636 C641 1.363 . S
C637 H608 0.950 . S
C637 C636 1.397 . S
C637 C638 1.334 1_655 S
C638 H609 0.950 . S
C638 C637 1.334 1_455 S
C638 C639 1.287 . S
C639 C638 1.287 . S
C639 C640 1.524 1_455 S
C639 H642 0.999 . S
C640 H610 0.950 . S
C640 C639 1.524 1_655 S
C640 C641 1.415 . S
C641 H611 0.950 . S
C641 C636 1.363 . S
C641 C640 1.415 . S
H642 C639 0.999 . S
H643 C624 0.913 . S
H644 C662 0.951 . S
H645 C664 0.951 . S
H646 C666 0.950 . S
H647 C667 0.950 . S
H648 C669 0.950 . S
H649 C672 0.950 . S
H650 C673 0.950 . S
H651 C675 0.950 . S
H652 C676 0.950 . S
H653 C677 0.951 . S
H654 C679 0.951 . S
H655 C681 0.950 . S
H656 C682 0.950 . S
H657 C684 0.950 . S
H658 C687 0.950 . S
H659 C688 0.950 . S
H660 C690 0.950 . S
H661 C691 0.950 . S
C662 H644 0.951 . S
C662 C663 1.366 . S
C662 C664 1.388 . S
C663 C662 1.366 . S
C663 C667 1.385 . S
C664 H645 0.951 . S
C664 C662 1.388 . S
C664 C665 1.366 . S
C665 C664 1.366 . S
C665 C666 1.414 . S
C665 C668 1.499 . S
C666 H646 0.950 . S
C666 C665 1.414 . S
C666 C667 1.374 . S
C667 H647 0.950 . S
C667 C663 1.385 . S
C667 C666 1.374 . S
C668 C665 1.499 . S
C668 C669 1.373 . S
C668 C670 1.389 . S
C669 H648 0.950 . S
C669 C668 1.373 . S
C669 C685 1.377 . S
C670 C668 1.389 . S
C670 C671 1.524 . S
C670 C684 1.377 . S
C671 C670 1.524 . S
C671 C672 1.397 . S
C671 C676 1.363 . S
C672 H649 0.950 . S
C672 C671 1.397 . S
C672 C673 1.334 . S
C673 H650 0.950 . S
C673 C672 1.334 . S
C673 C674 1.287 . S
C674 C673 1.287 . S
C674 C675 1.524 . S
C674 H693 0.913 . S
C675 H651 0.950 . S
C675 C674 1.524 . S
C675 C676 1.415 . S
C676 H652 0.950 . S
C676 C671 1.363 . S
C676 C675 1.415 . S
C677 H653 0.951 . S
C677 C678 1.366 . S
C677 C679 1.388 . S
C678 C677 1.366 . S
C678 C682 1.385 . S
C679 H654 0.951 . S
C679 C677 1.388 . S
C679 C680 1.366 . S
C680 C679 1.366 . S
C680 C681 1.414 . S
C680 C683 1.499 . S
C681 H655 0.950 . S
C681 C680 1.414 . S
C681 C682 1.374 . S
C682 H656 0.950 . S
C682 C678 1.385 . S
C682 C681 1.374 . S
C683 C680 1.499 . S
C683 C684 1.373 . S
C683 C685 1.389 . S
C684 H657 0.950 . S
C684 C670 1.377 . S
C684 C683 1.373 . S
C685 C669 1.377 . S
C685 C683 1.389 . S
C685 C686 1.524 . S
C686 C685 1.524 . S
C686 C687 1.397 . S
C686 C691 1.363 . S
C687 H658 0.950 . S
C687 C686 1.397 . S
C687 C688 1.334 . S
C688 H659 0.950 . S
C688 C687 1.334 . S
C688 C689 1.287 . S
C689 C688 1.287 . S
C689 C690 1.524 . S
C689 H692 0.999 . S
C690 H660 0.950 . S
C690 C689 1.524 . S
C690 C691 1.415 . S
C691 H661 0.950 . S
C691 C686 1.363 . S
C691 C690 1.415 . S
H692 C689 0.999 . S
H693 C674 0.913 . S
H694 C712 0.951 . S
H695 C714 0.951 . S
H696 C716 0.950 . S
H697 C717 0.950 . S
H698 C719 0.950 . S
H699 C722 0.950 . S
H700 C723 0.950 . S
H701 C725 0.950 . S
H702 C726 0.950 . S
H703 C727 0.951 . S
H704 C729 0.951 . S
H705 C731 0.950 . S
H706 C732 0.950 . S
H707 C734 0.950 . S
H708 C737 0.950 . S
H709 C738 0.950 . S
H710 C740 0.950 1_655 S
H711 C741 0.950 . S
C712 H694 0.951 . S
C712 C713 1.366 . S
C712 C714 1.388 . S
C713 C712 1.366 . S
C713 C717 1.385 . S
C714 H695 0.951 . S
C714 C712 1.388 . S
C714 C715 1.366 . S
C715 C714 1.366 . S
C715 C716 1.414 . S
C715 C718 1.499 . S
C716 H696 0.950 . S
C716 C715 1.414 . S
C716 C717 1.374 . S
C717 H697 0.950 . S
C717 C713 1.385 . S
C717 C716 1.374 . S
C718 C715 1.499 . S
C718 C719 1.373 . S
C718 C720 1.389 . S
C719 H698 0.950 . S
C719 C718 1.373 . S
C719 C735 1.377 . S
C720 C718 1.389 . S
C720 C721 1.524 . S
C720 C734 1.377 . S
C721 C720 1.524 . S
C721 C722 1.397 . S
C721 C726 1.363 . S
C722 H699 0.950 . S
C722 C721 1.397 . S
C722 C723 1.334 . S
C723 H700 0.950 . S
C723 C722 1.334 . S
C723 C724 1.287 . S
C724 C723 1.287 . S
C724 C725 1.524 . S
C724 H743 0.913 . S
C725 H701 0.950 . S
C725 C724 1.524 . S
C725 C726 1.415 . S
C726 H702 0.950 . S
C726 C721 1.363 . S
C726 C725 1.415 . S
C727 H703 0.951 . S
C727 C728 1.366 . S
C727 C729 1.388 . S
C728 C727 1.366 . S
C728 C732 1.385 . S
C729 H704 0.951 . S
C729 C727 1.388 . S
C729 C730 1.366 . S
C730 C729 1.366 . S
C730 C731 1.414 . S
C730 C733 1.499 . S
C731 H705 0.950 . S
C731 C730 1.414 . S
C731 C732 1.374 . S
C732 H706 0.950 . S
C732 C728 1.385 . S
C732 C731 1.374 . S
C733 C730 1.499 . S
C733 C734 1.373 . S
C733 C735 1.389 . S
C734 H707 0.950 . S
C734 C720 1.377 . S
C734 C733 1.373 . S
C735 C719 1.377 . S
C735 C733 1.389 . S
C735 C736 1.524 . S
C736 C735 1.524 . S
C736 C737 1.397 . S
C736 C741 1.363 . S
C737 H708 0.950 . S
C737 C736 1.397 . S
C737 C738 1.334 . S
C738 H709 0.950 . S
C738 C737 1.334 . S
C738 C739 1.287 . S
C739 C738 1.287 . S
C739 C740 1.524 . S
C739 H742 0.999 1_455 S
C740 H710 0.950 1_455 S
C740 C739 1.524 . S
C740 C741 1.415 . S
C741 H711 0.950 . S
C741 C736 1.363 . S
C741 C740 1.415 . S
H742 C739 0.999 1_655 S
H743 C724 0.913 . S
C178 C80 1.555 . S
C163 C68 1.436 . S
C213 C11 1.436 . S
C228 C123 1.558 . S
C263 C30 1.437 . S
C278 C89 1.557 . S
C313 C49 1.438 . S
C328 C114 1.555 . S
C378 C76 1.635 . S
C363 C2 1.597 . S
C428 C118 1.613 . S
C413 C25 1.614 . S
C463 C40 1.598 . S
C478 C84 1.627 . S
C513 C59 1.575 . S
C528 C110 1.609 . S
C578 C139 1.506 . S
C563 C21 1.476 . S
C628 C105 1.496 . S
C613 C44 1.494 . S
C678 C127 1.513 . S
C663 C63 1.516 . S
C713 C6 1.493 . S
C728 C93 1.491 . S
