# Generated by pormake.
# Topology hwx, (6,3)-cn, num edge types: 1
# Building blocks:
#     Node 0, Type 0, BuildingBlock: IZENUY_clean_sbu_0, # of connection points: 6
#     Node 1, Type 0, BuildingBlock: IZENUY_clean_sbu_0, # of connection points: 6
#     Node 2, Type 0, BuildingBlock: IZENUY_clean_sbu_0, # of connection points: 6
#     Node 3, Type 0, BuildingBlock: IZENUY_clean_sbu_0, # of connection points: 6
#     Node 4, Type 1, BuildingBlock: MIDCAF_clean_linker_0, # of connection points: 3
#     Node 5, Type 1, BuildingBlock: MIDCAF_clean_linker_0, # of connection points: 3
#     Node 6, Type 1, BuildingBlock: MIDCAF_clean_linker_0, # of connection points: 3
#     Node 7, Type 1, BuildingBlock: MIDCAF_clean_linker_0, # of connection points: 3
#     Node 8, Type 1, BuildingBlock: MIDCAF_clean_linker_0, # of connection points: 3
#     Node 9, Type 1, BuildingBlock: MIDCAF_clean_linker_0, # of connection points: 3
#     Node 10, Type 1, BuildingBlock: MIDCAF_clean_linker_0, # of connection points: 3
#     Node 11, Type 1, BuildingBlock: MIDCAF_clean_linker_0, # of connection points: 3
#     Edge 12, Type (0, 1), BuildingBlock: OJICUG_clean_linker_0, # of connection points: 2
#     Edge 13, Type (0, 1), BuildingBlock: OJICUG_clean_linker_0, # of connection points: 2
#     Edge 14, Type (0, 1), BuildingBlock: OJICUG_clean_linker_0, # of connection points: 2
#     Edge 15, Type (0, 1), BuildingBlock: OJICUG_clean_linker_0, # of connection points: 2
#     Edge 16, Type (0, 1), BuildingBlock: OJICUG_clean_linker_0, # of connection points: 2
#     Edge 17, Type (0, 1), BuildingBlock: OJICUG_clean_linker_0, # of connection points: 2
#     Edge 18, Type (0, 1), BuildingBlock: OJICUG_clean_linker_0, # of connection points: 2
#     Edge 19, Type (0, 1), BuildingBlock: OJICUG_clean_linker_0, # of connection points: 2
#     Edge 20, Type (0, 1), BuildingBlock: OJICUG_clean_linker_0, # of connection points: 2
#     Edge 21, Type (0, 1), BuildingBlock: OJICUG_clean_linker_0, # of connection points: 2
#     Edge 22, Type (0, 1), BuildingBlock: OJICUG_clean_linker_0, # of connection points: 2
#     Edge 23, Type (0, 1), BuildingBlock: OJICUG_clean_linker_0, # of connection points: 2
#     Edge 24, Type (0, 1), BuildingBlock: OJICUG_clean_linker_0, # of connection points: 2
#     Edge 25, Type (0, 1), BuildingBlock: OJICUG_clean_linker_0, # of connection points: 2
#     Edge 26, Type (0, 1), BuildingBlock: OJICUG_clean_linker_0, # of connection points: 2
#     Edge 27, Type (0, 1), BuildingBlock: OJICUG_clean_linker_0, # of connection points: 2
#     Edge 28, Type (0, 1), BuildingBlock: OJICUG_clean_linker_0, # of connection points: 2
#     Edge 29, Type (0, 1), BuildingBlock: OJICUG_clean_linker_0, # of connection points: 2
#     Edge 30, Type (0, 1), BuildingBlock: OJICUG_clean_linker_0, # of connection points: 2
#     Edge 31, Type (0, 1), BuildingBlock: OJICUG_clean_linker_0, # of connection points: 2
#     Edge 32, Type (0, 1), BuildingBlock: OJICUG_clean_linker_0, # of connection points: 2
#     Edge 33, Type (0, 1), BuildingBlock: OJICUG_clean_linker_0, # of connection points: 2
#     Edge 34, Type (0, 1), BuildingBlock: OJICUG_clean_linker_0, # of connection points: 2
#     Edge 35, Type (0, 1), BuildingBlock: OJICUG_clean_linker_0, # of connection points: 2
# Relax obj value: 0.053
# Max RMSD: 0.077
# Mean RMSD: 0.069
data_MOF--net-hwx--node1-IZENUY_clean_sbu_0--node2-MIDCAF_clean_linker_0--edge1-OJICUG_clean_linker_0
_symmetry_space_group_name_H-M    P1
_symmetry_Int_Tables_number       1
_symmetry_cell_setting            triclinic
loop_
_symmetry_equiv_pos_as_xyz
'x, y, z'
_cell_length_a     44.952044
_cell_length_b     44.904541
_cell_length_c     21.848696
_cell_angle_alpha  89.865848
_cell_angle_beta   90.147485
_cell_angle_gamma 90.013911
loop_
_atom_site_label
_atom_site_type_symbol
_atom_site_fract_x
_atom_site_fract_y
_atom_site_fract_z
_atom_type_partial_charge
Fe0 Fe 0.24321 0.21794 0.07796 0.0
Fe1 Fe 0.24044 0.2203 0.9379 0.0
O2 O 0.23333 0.20118 0.00734 0.0
Fe3 Fe 0.21631 0.16548 0.00593 0.0
O4 O 0.1853 0.17813 0.05245 0.0
O5 O 0.21237 0.20158 0.12094 0.0
O6 O 0.21945 0.24988 0.06353 0.0
C7 C 0.22112 0.26614 0.01659 0.0
C8 C 0.25981 0.16045 0.10041 0.0
O9 O 0.23508 0.25756 0.96969 0.0
C10 C 0.25365 0.16032 0.9079 0.0
O11 O 0.27611 0.2371 0.04782 0.0
O12 O 0.28007 0.22121 0.95306 0.0
O13 O 0.2366 0.15129 0.07322 0.0
O14 O 0.26755 0.18739 0.09778 0.0
C15 C 0.18533 0.19781 0.91354 0.0
O16 O 0.24688 0.18665 0.89267 0.0
O17 O 0.24599 0.15003 0.95927 0.0
C18 C 0.29163 0.2321 0.00066 0.0
O19 O 0.20139 0.22068 0.91842 0.0
O20 O 0.19299 0.17341 0.93836 0.0
C21 C 0.18791 0.19021 0.10425 0.0
Fe22 Fe 0.25942 0.71739 0.56927 0.0
Fe23 Fe 0.2851 0.66309 0.50279 0.0
O24 O 0.26842 0.69895 0.50029 0.0
Fe25 Fe 0.26042 0.7164 0.42924 0.0
O26 O 0.28355 0.74833 0.44734 0.0
O27 O 0.26533 0.75502 0.53934 0.0
O28 O 0.29791 0.71769 0.59302 0.0
C29 C 0.3137 0.69466 0.59918 0.0
C30 C 0.20992 0.72963 0.50137 0.0
O31 O 0.30653 0.67044 0.57317 0.0
C32 C 0.24428 0.65888 0.40362 0.0
O33 O 0.252 0.68344 0.61281 0.0
O34 O 0.25401 0.64744 0.54545 0.0
O35 O 0.22665 0.7352 0.45621 0.0
O36 O 0.22027 0.71807 0.54956 0.0
C37 C 0.31649 0.6891 0.40961 0.0
O38 O 0.26686 0.64961 0.43278 0.0
O39 O 0.23666 0.68587 0.40582 0.0
C40 C 0.24518 0.6574 0.59617 0.0
O41 O 0.31732 0.67578 0.46043 0.0
O42 O 0.29271 0.70077 0.38972 0.0
C43 C 0.28036 0.76422 0.49431 0.0
Fe44 Fe 0.75962 0.79749 0.92892 0.0
Fe45 Fe 0.75616 0.7983 0.06921 0.0
O46 O 0.76681 0.81549 0.99952 0.0
Fe47 Fe 0.78473 0.85078 0.00073 0.0
O48 O 0.75539 0.86776 0.95538 0.0
O49 O 0.75278 0.83209 0.88654 0.0
O50 O 0.71988 0.79616 0.94318 0.0
C51 C 0.70807 0.78512 0.99031 0.0
C52 C 0.81493 0.82024 0.90614 0.0
O53 O 0.72324 0.77995 0.0379 0.0
C54 C 0.81222 0.82381 0.09757 0.0
O55 O 0.7651 0.75976 0.95885 0.0
O56 O 0.77922 0.76587 0.05455 0.0
O57 O 0.80736 0.84408 0.93254 0.0
O58 O 0.79879 0.79734 0.90925 0.0
C59 C 0.74087 0.85601 0.09292 0.0
O60 O 0.78716 0.81359 0.11352 0.0
O61 O 0.81546 0.83627 0.04619 0.0
C62 C 0.7778 0.75018 0.00676 0.0
O63 O 0.73221 0.82938 0.08858 0.0
O64 O 0.76518 0.86415 0.069 0.0
C65 C 0.74647 0.85816 0.90431 0.0
Fe66 Fe 0.71838 0.34955 0.49628 0.0
Fe67 Fe 0.73943 0.294 0.56627 0.0
O68 O 0.73372 0.31311 0.49613 0.0
Fe69 Fe 0.74323 0.29566 0.42606 0.0
O70 O 0.76899 0.32513 0.40622 0.0
O71 O 0.7394 0.36247 0.42933 0.0
O72 O 0.74858 0.36382 0.54334 0.0
C73 C 0.75544 0.35353 0.59527 0.0
C74 C 0.68935 0.3257 0.39756 0.0
O75 O 0.74738 0.3276 0.61092 0.0
C76 C 0.71877 0.24853 0.48744 0.0
O77 O 0.69464 0.34322 0.56346 0.0
O78 O 0.70018 0.29567 0.58447 0.0
O79 O 0.71334 0.31313 0.38193 0.0
O80 O 0.68697 0.33805 0.44914 0.0
C81 C 0.79045 0.2795 0.50536 0.0
O82 O 0.73243 0.25687 0.53507 0.0
O83 O 0.71811 0.26472 0.44022 0.0
C84 C 0.68541 0.31945 0.58835 0.0
O85 O 0.77911 0.29094 0.55257 0.0
O86 O 0.77507 0.27526 0.45757 0.0
C87 C 0.76236 0.35237 0.40311 0.0
C88 C 0.18631 0.59828 0.16006 0.0
C89 C 0.19231 0.58427 0.21635 0.0
C90 C 0.19011 0.55307 0.22005 0.0
C91 C 0.18361 0.5362 0.16795 0.0
H92 H 0.16334 0.44855 0.09726 0.0
H93 H 0.16906 0.39456 0.10177 0.0
H94 H 0.20833 0.39579 0.92122 0.0
H95 H 0.20122 0.44918 0.91572 0.0
H96 H 0.20712 0.51175 0.84281 0.0
H97 H 0.21877 0.54135 0.75226 0.0
H98 H 0.16637 0.61399 0.82416 0.0
H99 H 0.15618 0.58495 0.91585 0.0
H100 H 0.17639 0.59308 0.06513 0.0
H101 H 0.18807 0.62223 0.15532 0.0
H102 H 0.19411 0.54162 0.26297 0.0
H103 H 0.18311 0.51217 0.17211 0.0
N104 N 0.17779 0.50213 0.05595 0.0
N105 N 0.17977 0.50031 0.94863 0.0
N106 N 0.17698 0.5463 0.99867 0.0
C107 C 0.17907 0.48596 0.00348 0.0
C108 C 0.17834 0.53046 0.94592 0.0
C109 C 0.17683 0.53238 0.05392 0.0
C110 C 0.18173 0.45314 0.00606 0.0
C111 C 0.17299 0.43717 0.05842 0.0
C112 C 0.17643 0.40622 0.06111 0.0
C113 C 0.1891 0.39062 0.01183 0.0
C114 C 0.19779 0.40676 0.95953 0.0
C115 C 0.19391 0.43754 0.95648 0.0
C116 C 0.18118 0.54626 0.88682 0.0
C117 C 0.19775 0.53389 0.83872 0.0
C118 C 0.2043 0.55084 0.78662 0.0
C119 C 0.194 0.58033 0.78125 0.0
C120 C 0.17548 0.59172 0.82749 0.0
C121 C 0.16945 0.57503 0.87995 0.0
C122 C 0.17921 0.55016 0.11093 0.0
C123 C 0.1798 0.58146 0.10807 0.0
C124 C 0.89863 0.84327 0.67092 0.0
C125 C 0.90523 0.82408 0.71991 0.0
C126 C 0.9301 0.80527 0.716 0.0
C127 C 0.94773 0.80526 0.66334 0.0
H128 H 0.03671 0.79914 0.59631 0.0
H129 H 0.08714 0.77987 0.59561 0.0
H130 H 0.08125 0.76667 0.40007 0.0
H131 H 0.03094 0.78682 0.40035 0.0
H132 H 0.97074 0.80732 0.32951 0.0
H133 H 0.93823 0.8094 0.2393 0.0
H134 H 0.87162 0.85523 0.3452 0.0
H135 H 0.90362 0.85334 0.43472 0.0
H136 H 0.90974 0.85739 0.58033 0.0
H137 H 0.87942 0.85782 0.67261 0.0
H138 H 0.93567 0.79036 0.75336 0.0
H139 H 0.96641 0.79006 0.66094 0.0
N140 N 0.98477 0.81032 0.55337 0.0
N141 N 0.98462 0.81325 0.44596 0.0
N142 N 0.94277 0.82819 0.5017 0.0
C143 C -0.00098 0.80652 0.49914 0.0
C144 C 0.95646 0.82426 0.44704 0.0
C145 C 0.95667 0.82123 0.55493 0.0
C146 C 0.02972 0.79458 0.49835 0.0
C147 C 0.04608 0.79211 0.55308 0.0
C148 C 0.07499 0.78086 0.55278 0.0
C149 C 0.08823 0.7716 0.49784 0.0
C150 C 0.07186 0.77397 0.44309 0.0
C151 C 0.04295 0.78542 0.44331 0.0
C152 C 0.93955 0.82961 0.38975 0.0
C153 C 0.94941 0.81836 0.33321 0.0
C154 C 0.93089 0.81959 0.28152 0.0
C155 C 0.90231 0.83201 0.28581 0.0
C156 C 0.89339 0.84506 0.34107 0.0
C157 C 0.91177 0.84393 0.39237 0.0
C158 C 0.94037 0.82361 0.61331 0.0
C159 C 0.91589 0.8429 0.618 0.0
C160 C 0.81956 0.41962 0.83358 0.0
C161 C 0.80254 0.43091 0.78461 0.0
C162 C 0.79331 0.46085 0.78668 0.0
C163 C 0.79958 0.4785 0.83789 0.0
H164 H 0.79259 0.56479 0.91148 0.0
H165 H 0.78569 0.61841 0.91454 0.0
H166 H 0.82717 0.62115 0.09329 0.0
H167 H 0.83266 0.56723 0.09129 0.0
H168 H 0.79037 0.49816 0.15764 0.0
H169 H 0.78139 0.46706 0.24646 0.0
H170 H 0.84005 0.3998 0.1722 0.0
H171 H 0.84696 0.4303 0.08098 0.0
H172 H 0.83774 0.4273 0.92271 0.0
H173 H 0.82778 0.39696 0.83295 0.0
H174 H 0.77998 0.47029 0.75014 0.0
H175 H 0.7911 0.50106 0.83913 0.0
N176 N 0.81532 0.51361 0.94673 0.0
N177 N 0.81806 0.51351 0.05409 0.0
N178 N 0.8203 0.46851 0.00016 0.0
C179 C 0.81595 0.52884 0.00053 0.0
C180 C 0.8203 0.48336 0.05418 0.0
C181 C 0.81775 0.48342 0.94624 0.0
C182 C 0.81308 0.5617 0.00119 0.0
C183 C 0.80035 0.57685 0.95132 0.0
C184 C 0.79658 0.60773 0.95299 0.0
C185 C 0.80594 0.62437 0.00415 0.0
C186 C 0.81918 0.60917 0.05358 0.0
C187 C 0.8225 0.57821 0.0523 0.0
C188 C 0.81915 0.46652 0.11225 0.0
C189 C 0.80166 0.47689 0.16081 0.0
C190 C 0.79668 0.45899 0.21214 0.0
C191 C 0.8097 0.43051 0.21694 0.0
C192 C 0.82883 0.42109 0.16974 0.0
C193 C 0.8331 0.43868 0.11759 0.0
C194 C 0.81491 0.46648 0.88839 0.0
C195 C 0.82544 0.43709 0.88499 0.0
C196 C 0.10482 0.16297 0.34229 0.0
C197 C 0.09647 0.17768 0.28821 0.0
C198 C 0.0682 0.19095 0.28455 0.0
C199 C 0.04961 0.19152 0.33606 0.0
H200 H 0.95689 0.19067 0.41949 0.0
H201 H 0.90593 0.20902 0.42146 0.0
H202 H 0.92417 0.25431 0.59203 0.0
H203 H 0.97447 0.23467 0.59146 0.0
H204 H 0.02621 0.1868 0.67629 0.0
H205 H 0.05702 0.18929 0.76931 0.0
H206 H 0.13575 0.19731 0.65803 0.0
H207 H 0.10556 0.19426 0.56573 0.0
H208 H 0.09421 0.15299 0.43509 0.0
H209 H 0.12628 0.15211 0.34589 0.0
H210 H 0.06128 0.20241 0.24323 0.0
H211 H 0.0287 0.20342 0.33329 0.0
N212 N 0.01414 0.19319 0.45036 0.0
N213 N 0.01654 0.19863 0.55741 0.0
N214 N 0.0584 0.18286 0.50315 0.0
C215 C 0.00072 0.20023 0.50432 0.0
C216 C 0.04541 0.1899 0.55706 0.0
C217 C 0.04305 0.18427 0.44971 0.0
C218 C 0.96969 0.21116 0.50531 0.0
C219 C 0.94992 0.20447 0.45745 0.0
C220 C 0.92073 0.21519 0.45847 0.0
C221 C 0.9108 0.23333 0.50682 0.0
C222 C 0.93071 0.23999 0.55462 0.0
C223 C 0.95969 0.22884 0.55411 0.0
C224 C 0.06345 0.19032 0.6137 0.0
C225 C 0.05011 0.18895 0.67183 0.0
C226 C 0.06763 0.19029 0.72489 0.0
C227 C 0.09858 0.1937 0.72036 0.0
C228 C 0.11186 0.1949 0.66244 0.0
C229 C 0.09454 0.19298 0.60969 0.0
C230 C 0.05914 0.17883 0.39172 0.0
C231 C 0.0864 0.16351 0.39337 0.0
C232 C 0.68071 0.9181 0.32975 0.0
C233 C 0.68768 0.93237 0.27434 0.0
C234 C 0.6873 0.9637 0.27209 0.0
C235 C 0.68186 0.98034 0.32501 0.0
H236 H 0.66036 0.0667 0.40231 0.0
H237 H 0.66529 0.12076 0.40005 0.0
H238 H 0.70566 0.11833 0.5799 0.0
H239 H 0.69943 0.06476 0.58318 0.0
H240 H 0.68285 0.00326 0.66602 0.0
H241 H 0.69389 0.97452 0.75859 0.0
H242 H 0.70437 0.89531 0.64863 0.0
H243 H 0.69234 0.92334 0.55772 0.0
H244 H 0.67118 0.92275 0.42477 0.0
H245 H 0.68106 0.89405 0.33342 0.0
H246 H 0.69213 0.97537 0.22983 0.0
H247 H 0.68298 0.00439 0.32226 0.0
N248 N 0.67576 0.01316 0.43969 0.0
N249 N 0.68099 0.01304 0.54686 0.0
N250 N 0.67893 0.96806 0.49319 0.0
C251 C 0.67801 0.02839 0.49332 0.0
C252 C 0.68133 0.98278 0.54707 0.0
C253 C 0.6761 0.98289 0.4394 0.0
C254 C 0.67949 0.06137 0.49293 0.0
C255 C 0.67003 0.0778 0.44158 0.0
C256 C 0.67303 0.10882 0.44014 0.0
C257 C 0.68592 0.12412 0.48972 0.0
C258 C 0.69503 0.10758 0.54131 0.0
C259 C 0.69163 0.07669 0.54309 0.0
C260 C 0.68661 0.96568 0.60428 0.0
C261 C 0.68721 0.97964 0.66187 0.0
C262 C 0.69369 0.96319 0.7149 0.0
C263 C 0.69986 0.9325 0.71134 0.0
C264 C 0.69901 0.91868 0.65369 0.0
C265 C 0.69231 0.93494 0.60113 0.0
C266 C 0.67681 0.96595 0.38125 0.0
C267 C 0.6753 0.93466 0.38246 0.0
C268 C 0.60347 0.34391 0.82575 0.0
C269 C 0.59612 0.32518 0.77659 0.0
C270 C 0.57085 0.3069 0.781 0.0
C271 C 0.55355 0.30698 0.83414 0.0
H272 H 0.47677 0.27215 0.91522 0.0
H273 H 0.42661 0.25198 0.91638 0.0
H274 H 0.409 0.299 0.08505 0.0
H275 H 0.45976 0.31786 0.08531 0.0
H276 H 0.53109 0.31158 0.16801 0.0
H277 H 0.56394 0.31441 0.25748 0.0
H278 H 0.62835 0.3631 0.15062 0.0
H279 H 0.59598 0.36032 0.06165 0.0
H280 H 0.59317 0.35791 0.91664 0.0
H281 H 0.62301 0.358 0.82382 0.0
H282 H 0.56466 0.29236 0.74359 0.0
H283 H 0.5345 0.29225 0.8367 0.0
N284 N 0.51723 0.31162 0.9447 0.0
N285 N 0.51649 0.3174 0.05162 0.0
N286 N 0.55854 0.33157 0.99545 0.0
C287 C 0.50266 0.30899 0.99889 0.0
C288 C 0.54454 0.32871 0.05013 0.0
C289 C 0.54512 0.32312 0.94264 0.0
C290 C 0.47221 0.2966 0.00019 0.0
C291 C 0.46218 0.27811 0.95263 0.0
C292 C 0.4333 0.26669 0.95312 0.0
C293 C 0.41353 0.27389 0.00065 0.0
C294 C 0.42366 0.29245 0.04824 0.0
C295 C 0.45275 0.30344 0.04829 0.0
C296 C 0.56118 0.33515 0.10726 0.0
C297 C 0.55196 0.32347 0.164 0.0
C298 C 0.57069 0.32514 0.21529 0.0
C299 C 0.59886 0.33849 0.21051 0.0
C300 C 0.60697 0.35218 0.15519 0.0
C301 C 0.58837 0.35055 0.10421 0.0
C302 C 0.56155 0.32495 0.88419 0.0
C303 C 0.58648 0.34368 0.87908 0.0
C304 C 0.31834 0.0947 0.67081 0.0
C305 C 0.30142 0.08311 0.71948 0.0
C306 C 0.29276 0.05301 0.71733 0.0
C307 C 0.29951 0.03544 0.66635 0.0
H308 H 0.29313 0.94908 0.59206 0.0
H309 H 0.2869 0.89539 0.58851 0.0
H310 H 0.33267 0.89297 0.41463 0.0
H311 H 0.33738 0.94696 0.4169 0.0
H312 H 0.28836 0.01523 0.34994 0.0
H313 H 0.27805 0.04573 0.26073 0.0
H314 H 0.33892 0.11282 0.3287 0.0
H315 H 0.34703 0.08304 0.42054 0.0
H316 H 0.33686 0.0873 0.58204 0.0
H317 H 0.32615 0.11751 0.67154 0.0
H318 H 0.27952 0.04333 0.75362 0.0
H319 H 0.29147 0.01271 0.66503 0.0
N320 N 0.31659 1.0005 0.55849 0.0
N321 N 0.31909 1.00029 0.45116 0.0
N322 N 0.31999 0.04556 0.50436 0.0
C323 C 0.31762 0.98513 0.50494 0.0
C324 C 0.32034 0.03048 0.4506 0.0
C325 C 0.31805 0.03074 0.55851 0.0
C326 C 0.31561 0.95227 0.50466 0.0
C327 C 0.302 0.93704 0.55326 0.0
C328 C 0.29862 0.90614 0.55132 0.0
C329 C 0.3093 0.88959 0.50125 0.0
C330 C 0.32361 0.90488 0.45336 0.0
C331 C 0.32649 0.93586 0.4548 0.0
C332 C 0.31827 0.04693 0.39226 0.0
C333 C 0.2998 0.03635 0.34527 0.0
C334 C 0.29406 0.0539 0.29372 0.0
C335 C 0.30731 0.08217 0.2871 0.0
C336 C 0.32744 0.09173 0.33265 0.0
C337 C 0.33242 0.07454 0.38512 0.0
C338 C 0.31473 0.04772 0.61612 0.0
C339 C 0.32467 0.07732 0.61957 0.0
C340 C 0.40485 0.66227 0.18546 0.0
C341 C 0.41012 0.68317 0.23184 0.0
C342 C 0.43348 0.70366 0.22538 0.0
C343 C 0.45073 0.7039 0.17218 0.0
H344 H 0.54427 0.69718 0.08701 0.0
H345 H 0.5944 0.71718 0.08094 0.0
H346 H 0.57344 0.757 0.90559 0.0
H347 H 0.52372 0.73563 0.91047 0.0
H348 H 0.47176 0.68573 0.83646 0.0
H349 H 0.4398 0.68659 0.74524 0.0
H350 H 0.36217 0.69164 0.8604 0.0
H351 H 0.39362 0.69028 0.95122 0.0
H352 H 0.41615 0.64755 0.09529 0.0
H353 H 0.38674 0.64646 0.1894 0.0
H354 H 0.43774 0.72006 0.26063 0.0
H355 H 0.46794 0.72062 0.16726 0.0
N356 N 0.48709 0.69774 0.05959 0.0
N357 N 0.4827 0.6994 0.95246 0.0
N358 N 0.4423 0.68403 0.01226 0.0
C359 C 0.49935 0.70327 0.00384 0.0
C360 C 0.45415 0.68973 0.95638 0.0
C361 C 0.45861 0.6879 0.06394 0.0
C362 C 0.53003 0.71488 0.99934 0.0
C363 C 0.55041 0.71013 0.0471 0.0
C364 C 0.57912 0.72183 0.04374 0.0
C365 C 0.58799 0.73906 0.99305 0.0
C366 C 0.5676 0.74356 0.94497 0.0
C367 C 0.53901 0.73141 0.94788 0.0
C368 C 0.43523 0.68802 0.90106 0.0
C369 C 0.44786 0.68676 0.84226 0.0
C370 C 0.42967 0.68716 0.79016 0.0
C371 C 0.39869 0.68944 0.79621 0.0
C372 C 0.38607 0.69014 0.8548 0.0
C373 C 0.40411 0.68918 0.9067 0.0
C374 C 0.44423 0.68421 0.12407 0.0
C375 C 0.42155 0.663 0.13168 0.0
C376 C 0.16906 0.19593 0.21075 0.0
C377 C 0.16349 0.18811 0.14952 0.0
H378 H 0.15223 0.19875 0.30181 0.0
C379 C 0.13496 0.17777 0.13331 0.0
H380 H 0.19066 0.20408 0.22506 0.0
C381 C 0.11268 0.17489 0.17786 0.0
C382 C 0.11881 0.18187 0.23926 0.0
H383 H 0.12993 0.17173 0.08645 0.0
H384 H 0.09098 0.16656 0.1647 0.0
C385 C 0.14707 0.19273 0.25496 0.0
C386 C 0.22285 0.60799 0.62708 0.0
C387 C 0.23014 0.63767 0.64096 0.0
H388 H 0.20504 0.56661 0.65997 0.0
C389 C 0.22398 0.6485 0.6999 0.0
H390 H 0.22717 0.599 0.58201 0.0
C391 C 0.21177 0.63001 0.74442 0.0
C392 C 0.20492 0.60016 0.73134 0.0
H393 H 0.22931 0.6712 0.71251 0.0
H394 H 0.20868 0.63903 0.78988 0.0
C395 C 0.21031 0.58941 0.67185 0.0
C396 C 0.86493 0.83567 0.12967 0.0
C397 C 0.83643 0.82458 0.14366 0.0
H398 H 0.9085 0.84659 0.16401 0.0
C399 C 0.8306 0.81488 0.20366 0.0
H400 H 0.87016 0.84317 0.08379 0.0
C401 C 0.85224 0.81707 0.249 0.0
C402 C 0.8804 0.8288 0.23564 0.0
H403 H 0.80905 0.80601 0.21622 0.0
H404 H 0.84687 0.80964 0.29489 0.0
C405 C 0.88685 0.83758 0.17535 0.0
C406 C 0.77304 0.3627 0.70219 0.0
C407 C 0.76947 0.37306 0.64186 0.0
H408 H 0.78545 0.37274 0.79404 0.0
C409 C 0.7782 0.40238 0.62787 0.0
H410 H 0.76649 0.34031 0.71488 0.0
C411 C 0.78962 0.42106 0.67363 0.0
C412 C 0.79248 0.41082 0.73435 0.0
H413 H 0.77588 0.41104 0.58179 0.0
H414 H 0.79607 0.44353 0.66146 0.0
C415 C 0.78422 0.38132 0.74775 0.0
C416 C 0.63677 0.33887 0.36658 0.0
C417 C 0.66541 0.32868 0.35122 0.0
H418 H 0.59289 0.34982 0.33387 0.0
C419 C 0.67149 0.32153 0.28991 0.0
H420 H 0.63137 0.34444 0.41346 0.0
C421 C 0.6498 0.32487 0.24493 0.0
C422 C 0.6213 0.33524 0.25987 0.0
H423 H 0.69323 0.3136 0.27622 0.0
H424 H 0.65531 0.31906 0.1982 0.0
C425 C 0.61477 0.34188 0.32124 0.0
C426 C 0.27091 0.15096 0.8011 0.0
C427 C 0.2674 0.14064 0.86145 0.0
H428 H 0.2835 0.14099 0.70951 0.0
C429 C 0.27626 0.11138 0.87565 0.0
H430 H 0.26422 0.17329 0.78822 0.0
C431 C 0.28793 0.09279 0.83014 0.0
C432 C 0.29087 0.10304 0.76946 0.0
H433 H 0.27399 0.10278 0.92176 0.0
H434 H 0.2946 0.0704 0.84251 0.0
C435 C 0.28228 0.13242 0.7558 0.0
C436 C 0.34828 0.71281 0.33019 0.0
C437 C 0.34269 0.6886 0.36927 0.0
H438 H 0.37482 0.73018 0.25701 0.0
C439 C 0.3611 0.66335 0.36636 0.0
H440 H 0.33444 0.73254 0.33178 0.0
C441 C 0.38378 0.66177 0.32271 0.0
C442 C 0.38887 0.68578 0.28284 0.0
H443 H 0.35708 0.64434 0.39582 0.0
H444 H 0.39694 0.64164 0.31919 0.0
C445 C 0.37141 0.71154 0.28782 0.0
C446 C 0.71164 0.86669 0.81749 0.0
C447 C 0.73147 0.8784 0.86084 0.0
H448 H 0.68493 0.87483 0.73838 0.0
C449 C 0.73837 0.9089 0.85895 0.0
H450 H 0.70555 0.84334 0.81859 0.0
C451 C 0.72714 0.92692 0.81183 0.0
C452 C 0.70846 0.91482 0.7664 0.0
H453 H 0.75367 0.91846 0.89187 0.0
H454 H 0.7343 0.94992 0.80941 0.0
C455 C 0.69999 0.88474 0.7713 0.0
C456 C 0.85118 0.79425 0.83736 0.0
C457 C 0.84051 0.8207 0.8637 0.0
H458 H 0.88044 0.77464 0.77143 0.0
C459 C 0.85334 0.84799 0.84623 0.0
H460 H 0.84189 0.77286 0.85014 0.0
C461 C 0.8752 0.84897 0.80107 0.0
C462 C 0.88499 0.82267 0.77306 0.0
H463 H 0.84574 0.86879 0.86575 0.0
H464 H 0.88401 0.87037 0.78703 0.0
C465 C 0.87336 0.79522 0.79265 0.0
C466 C 0.78097 0.40234 0.37044 0.0
C467 C 0.77835 0.37169 0.35952 0.0
H468 H 0.79456 0.44472 0.33596 0.0
C469 C 0.78865 0.36007 0.30394 0.0
H470 H 0.77343 0.41178 0.41328 0.0
C471 C 0.79967 0.379 0.25852 0.0
C472 C 0.80139 0.40999 0.26818 0.0
H473 H 0.78659 0.33651 0.29412 0.0
H474 H 0.80542 0.3693 0.21485 0.0
C475 C 0.79281 0.42122 0.3257 0.0
C476 C 0.1571 0.22235 0.82869 0.0
C477 C 0.1602 0.19835 0.86969 0.0
H478 H 0.13505 0.23946 0.74907 0.0
C479 C 0.14052 0.17407 0.86494 0.0
H480 H 0.17176 0.24147 0.8311 0.0
C481 C 0.11916 0.17323 0.81825 0.0
C482 C 0.11748 0.19644 0.77529 0.0
H483 H 0.14222 0.15535 0.89609 0.0
H484 H 0.10497 0.15384 0.81389 0.0
C485 C 0.13613 0.22126 0.78166 0.0
C486 C 0.23971 0.60972 0.35019 0.0
C487 C 0.22889 0.63867 0.36032 0.0
H488 H 0.23686 0.57004 0.29665 0.0
C489 C 0.20419 0.64858 0.32628 0.0
H490 H 0.25864 0.60131 0.37565 0.0
C491 C 0.19148 0.63047 0.28129 0.0
C492 C 0.20318 0.60205 0.26924 0.0
H493 H 0.19506 0.67062 0.33333 0.0
H494 H 0.1728 0.63896 0.25515 0.0
C495 C 0.22705 0.59166 0.30512 0.0
C496 C 0.33914 0.7176 0.68919 0.0
C497 C 0.33774 0.69473 0.64544 0.0
H498 H 0.35954 0.73357 0.77144 0.0
C499 C 0.35822 0.6711 0.6491 0.0
H500 H 0.32374 0.73615 0.68773 0.0
C501 C 0.37902 0.66991 0.69681 0.0
C502 C 0.37926 0.69206 0.74199 0.0
H503 H 0.35778 0.65324 0.61586 0.0
H504 H 0.39411 0.65115 0.69977 0.0
C505 C 0.35952 0.71613 0.73725 0.0
C506 C 0.69898 0.86791 0.16473 0.0
C507 C 0.72488 0.87684 0.13375 0.0
H508 H 0.66636 0.87879 0.23235 0.0
C509 C 0.73639 0.90545 0.14473 0.0
H510 H 0.68929 0.84616 0.15681 0.0
C511 C 0.72336 0.92405 0.18817 0.0
C512 C 0.6984 0.91455 0.22153 0.0
H513 H 0.7562 0.91316 0.12143 0.0
H514 H 0.73382 0.94526 0.19773 0.0
C515 C 0.68587 0.88658 0.20813 0.0
C516 C 0.64857 0.34836 0.65005 0.0
C517 C 0.65984 0.32072 0.6308 0.0
H518 H 0.61941 0.37139 0.71119 0.0
C519 C 0.64785 0.29448 0.6559 0.0
H520 H 0.65721 0.36901 0.63152 0.0
C521 C 0.62603 0.29592 0.70127 0.0
C522 C 0.616 0.3236 0.72276 0.0
H523 H 0.65592 0.27283 0.64178 0.0
H524 H 0.61803 0.27539 0.72152 0.0
C525 C 0.62701 0.34978 0.69582 0.0
C526 C 0.28631 0.15235 0.19927 0.0
C527 C 0.27497 0.14066 0.14449 0.0
H528 H 0.30412 0.14338 0.28767 0.0
C529 C 0.27639 0.10986 0.13453 0.0
H530 H 0.28519 0.17603 0.20843 0.0
C531 C 0.28837 0.09098 0.17929 0.0
C532 C 0.29829 0.10242 0.23586 0.0
H533 H 0.26803 0.10035 0.09232 0.0
H534 H 0.28933 0.06737 0.1697 0.0
C535 C 0.29744 0.13348 0.24468 0.0
C536 C 0.21017 0.31374 0.07181 0.0
C537 C 0.20975 0.29692 0.01777 0.0
H538 H 0.20487 0.35675 0.11219 0.0
C539 C 0.20019 0.31035 0.96313 0.0
H540 H 0.21759 0.30389 0.1145 0.0
C541 C 0.19217 0.34033 0.96195 0.0
C542 C 0.19422 0.35785 0.01511 0.0
H543 H 0.19922 0.2977 0.92099 0.0
H544 H 0.18481 0.34986 0.91893 0.0
C545 C 0.20274 0.34401 0.07041 0.0
C546 C 0.15878 0.73149 0.54653 0.0
C547 C 0.17857 0.73957 0.49969 0.0
H548 H 0.1146 0.73467 0.58197 0.0
C549 C 0.16823 0.75758 0.45142 0.0
H550 H 0.16597 0.71741 0.58407 0.0
C551 C 0.13889 0.76775 0.45057 0.0
C552 C 0.11915 0.75997 0.49774 0.0
H553 H 0.18292 0.76428 0.41464 0.0
H554 H 0.13189 0.78225 0.41357 0.0
C555 C 0.12937 0.74151 0.54547 0.0
C556 C 0.79596 0.70475 0.95314 0.0
C557 C 0.78787 0.71885 0.00793 0.0
H558 H 0.80915 0.66446 0.90927 0.0
C559 C 0.78761 0.7022 0.06238 0.0
H560 H 0.79673 0.71715 0.91056 0.0
C561 C 0.79395 0.67167 0.06147 0.0
C562 C 0.8012 0.65726 0.00622 0.0
H563 H 0.78127 0.71246 0.10523 0.0
H564 H 0.7921 0.65924 0.1038 0.0
C565 C 0.80283 0.67444 0.95238 0.0
C566 C 0.83704 0.2649 0.4516 0.0
C567 C 0.82141 0.26853 0.50665 0.0
H568 H 0.87757 0.25202 0.40852 0.0
C569 C 0.83539 0.26093 0.56204 0.0
H570 H 0.82694 0.2709 0.40821 0.0
C571 C 0.86426 0.24932 0.56217 0.0
C572 C 0.87998 0.24558 0.50699 0.0
H573 H 0.82377 0.26329 0.60513 0.0
H574 H 0.87401 0.24281 0.60554 0.0
C575 C 0.86603 0.25382 0.45179 0.0
C576 C 0.70689 0.20132 0.43128 0.0
C577 C 0.7069 0.21788 0.48568 0.0
H578 H 0.70114 0.15856 0.38998 0.0
C579 C 0.69752 0.20417 0.54011 0.0
H580 H 0.71417 0.21133 0.3887 0.0
C581 C 0.68938 0.17419 0.54075 0.0
C582 C 0.69103 0.15694 0.48717 0.0
H583 H 0.69689 0.21658 0.58258 0.0
H584 H 0.68229 0.16443 0.58366 0.0
C585 C 0.69929 0.17107 0.43209 0.0
C586 C 0.33864 0.24513 0.05535 0.0
C587 C 0.32302 0.24178 5e-05 0.0
H588 H 0.37957 0.25677 0.09891 0.0
C589 C 0.33745 0.24838 0.94477 0.0
H590 H 0.32817 0.23987 0.09866 0.0
C591 C 0.36674 0.25882 0.94492 0.0
C592 C 0.38245 0.26235 0.00031 0.0
H593 H 0.32587 0.2462 0.90146 0.0
H594 H 0.37681 0.26468 0.90157 0.0
C595 C 0.36807 0.25504 0.05546 0.0
C596 C 0.29222 0.81203 0.44029 0.0
C597 C 0.29081 0.79536 0.4946 0.0
H598 H 0.29811 0.85497 0.39979 0.0
C599 C 0.29754 0.80927 0.55041 0.0
H600 H 0.28694 0.80187 0.39667 0.0
C601 C 0.30468 0.83949 0.55223 0.0
C602 C 0.30462 0.85674 0.49837 0.0
H603 H 0.297 0.79679 0.59291 0.0
H604 H 0.30991 0.84936 0.59612 0.0
C605 C 0.29876 0.84248 0.4422 0.0
C606 C 0.66081 0.77372 0.04428 0.0
C607 C 0.67674 0.77543 0.98923 0.0
H608 H 0.62017 0.76208 0.08834 0.0
C609 C 0.66294 0.76646 0.93461 0.0
H610 H 0.67079 0.78092 0.08696 0.0
C611 C 0.63405 0.75484 0.93554 0.0
C612 C 0.61827 0.75247 0.99099 0.0
H613 H 0.67482 0.76743 0.89158 0.0
H614 H 0.62446 0.74697 0.89305 0.0
C615 C 0.63185 0.76266 0.04508 0.0
loop_
_geom_bond_atom_site_label_1
_geom_bond_atom_site_label_2
_geom_bond_distance
_geom_bond_site_symmetry_2
_ccdc_geom_bond_type
Fe0 O2 1.918 . S
Fe0 O5 1.997 . S
Fe0 O6 2.002 . S
Fe0 O11 1.976 . S
Fe0 O14 1.996 . S
Fe1 O2 1.918 1_556 S
Fe1 O9 1.997 . S
Fe1 O12 1.996 . S
Fe1 O16 1.976 . S
Fe1 O19 2.002 . S
O2 Fe0 1.918 . S
O2 Fe1 1.918 1_554 S
O2 Fe3 1.918 . S
Fe3 O2 1.918 . S
Fe3 O4 2.002 . S
Fe3 O13 1.976 . S
Fe3 O17 1.996 1_554 S
Fe3 O20 1.997 1_554 S
O4 Fe3 2.002 . S
O4 C21 1.295 . S
O5 Fe0 1.997 . S
O5 C21 1.235 . S
O6 Fe0 2.002 . S
O6 C7 1.295 . S
C7 O6 1.295 . S
C7 O9 1.235 1_554 S
C8 O13 1.287 . S
C8 O14 1.255 . S
O9 Fe1 1.997 . S
O9 C7 1.235 1_556 S
C10 O16 1.287 . S
C10 O17 1.255 . S
O11 Fe0 1.976 . S
O11 C18 1.285 1_554 S
O12 Fe1 1.996 . S
O12 C18 1.256 . S
O13 Fe3 1.976 . S
O13 C8 1.287 . S
O14 Fe0 1.996 . S
O14 C8 1.255 . S
C15 O19 1.295 . S
C15 O20 1.235 . S
O16 Fe1 1.976 . S
O16 C10 1.287 . S
O17 Fe3 1.996 1_556 S
O17 C10 1.255 . S
C18 O11 1.285 1_556 S
C18 O12 1.256 . S
O19 Fe1 2.002 . S
O19 C15 1.295 . S
O20 Fe3 1.997 1_556 S
O20 C15 1.235 . S
C21 O4 1.295 . S
C21 O5 1.235 . S
Fe22 O24 1.918 . S
Fe22 O27 1.997 . S
Fe22 O28 2.002 . S
Fe22 O33 1.976 . S
Fe22 O36 1.996 . S
Fe23 O24 1.918 . S
Fe23 O31 1.997 . S
Fe23 O34 1.996 . S
Fe23 O38 1.976 . S
Fe23 O41 2.002 . S
O24 Fe22 1.918 . S
O24 Fe23 1.918 . S
O24 Fe25 1.918 . S
Fe25 O24 1.918 . S
Fe25 O26 2.002 . S
Fe25 O35 1.976 . S
Fe25 O39 1.996 . S
Fe25 O42 1.997 . S
O26 Fe25 2.002 . S
O26 C43 1.295 . S
O27 Fe22 1.997 . S
O27 C43 1.235 . S
O28 Fe22 2.002 . S
O28 C29 1.295 . S
C29 O28 1.295 . S
C29 O31 1.235 . S
C30 O35 1.287 . S
C30 O36 1.255 . S
O31 Fe23 1.997 . S
O31 C29 1.235 . S
C32 O38 1.287 . S
C32 O39 1.255 . S
O33 Fe22 1.976 . S
O33 C40 1.287 . S
O34 Fe23 1.996 . S
O34 C40 1.255 . S
O35 Fe25 1.976 . S
O35 C30 1.287 . S
O36 Fe22 1.996 . S
O36 C30 1.255 . S
C37 O41 1.295 . S
C37 O42 1.235 . S
O38 Fe23 1.976 . S
O38 C32 1.287 . S
O39 Fe25 1.996 . S
O39 C32 1.255 . S
C40 O33 1.287 . S
C40 O34 1.255 . S
O41 Fe23 2.002 . S
O41 C37 1.295 . S
O42 Fe25 1.997 . S
O42 C37 1.235 . S
C43 O26 1.295 . S
C43 O27 1.235 . S
Fe44 O46 1.918 1_556 S
Fe44 O49 1.997 . S
Fe44 O50 2.002 . S
Fe44 O55 1.976 . S
Fe44 O58 1.996 . S
Fe45 O46 1.918 . S
Fe45 O53 1.997 . S
Fe45 O56 1.996 . S
Fe45 O60 1.976 . S
Fe45 O63 2.002 . S
O46 Fe44 1.918 1_554 S
O46 Fe45 1.918 . S
O46 Fe47 1.918 . S
Fe47 O46 1.918 . S
Fe47 O48 2.002 1_554 S
Fe47 O57 1.976 1_554 S
Fe47 O61 1.996 . S
Fe47 O64 1.997 . S
O48 Fe47 2.002 1_556 S
O48 C65 1.295 . S
O49 Fe44 1.997 . S
O49 C65 1.235 . S
O50 Fe44 2.002 . S
O50 C51 1.304 . S
C51 O50 1.304 . S
C51 O53 1.226 1_556 S
C52 O57 1.287 . S
C52 O58 1.255 . S
O53 Fe45 1.997 . S
O53 C51 1.226 1_554 S
C54 O60 1.287 . S
C54 O61 1.255 . S
O55 Fe44 1.976 . S
O55 C62 1.287 1_556 S
O56 Fe45 1.996 . S
O56 C62 1.255 . S
O57 Fe47 1.976 1_556 S
O57 C52 1.287 . S
O58 Fe44 1.996 . S
O58 C52 1.255 . S
C59 O63 1.295 . S
C59 O64 1.235 . S
O60 Fe45 1.976 . S
O60 C54 1.287 . S
O61 Fe47 1.996 . S
O61 C54 1.255 . S
C62 O55 1.287 1_554 S
C62 O56 1.255 . S
O63 Fe45 2.002 . S
O63 C59 1.295 . S
O64 Fe47 1.997 . S
O64 C59 1.235 . S
C65 O48 1.295 . S
C65 O49 1.235 . S
Fe66 O68 1.918 . S
Fe66 O71 1.997 . S
Fe66 O72 2.002 . S
Fe66 O77 1.976 . S
Fe66 O80 1.996 . S
Fe67 O68 1.918 . S
Fe67 O75 1.997 . S
Fe67 O78 1.996 . S
Fe67 O82 1.976 . S
Fe67 O85 2.002 . S
O68 Fe66 1.918 . S
O68 Fe67 1.918 . S
O68 Fe69 1.918 . S
Fe69 O68 1.918 . S
Fe69 O70 2.002 . S
Fe69 O79 1.976 . S
Fe69 O83 1.996 . S
Fe69 O86 1.997 . S
O70 Fe69 2.002 . S
O70 C87 1.295 . S
O71 Fe66 1.997 . S
O71 C87 1.235 . S
O72 Fe66 2.002 . S
O72 C73 1.295 . S
C73 O72 1.295 . S
C73 O75 1.235 . S
C74 O79 1.287 . S
C74 O80 1.255 . S
O75 Fe67 1.997 . S
O75 C73 1.235 . S
C76 O82 1.287 . S
C76 O83 1.255 . S
O77 Fe66 1.976 . S
O77 C84 1.287 . S
O78 Fe67 1.996 . S
O78 C84 1.255 . S
O79 Fe69 1.976 . S
O79 C74 1.287 . S
O80 Fe66 1.996 . S
O80 C74 1.255 . S
C81 O85 1.295 . S
C81 O86 1.235 . S
O82 Fe67 1.976 . S
O82 C76 1.287 . S
O83 Fe69 1.996 . S
O83 C76 1.255 . S
C84 O77 1.287 . S
C84 O78 1.255 . S
O85 Fe67 2.002 . S
O85 C81 1.295 . S
O86 Fe69 1.997 . S
O86 C81 1.235 . S
C87 O70 1.295 . S
C87 O71 1.235 . S
C88 C89 1.384 . S
C88 H101 0.947 . S
C88 C123 1.382 . S
C89 C88 1.384 . S
C89 C90 1.378 . S
C90 C89 1.378 . S
C90 C91 1.378 . S
C90 H102 0.952 . S
C91 C90 1.378 . S
C91 H103 0.950 . S
C91 C122 1.383 . S
H92 C111 0.947 . S
H93 C112 0.946 . S
H94 C114 0.953 . S
H95 C115 0.945 . S
H96 C117 0.952 . S
H97 C118 0.949 . S
H98 C120 0.950 . S
H99 C121 0.948 . S
H100 C123 0.951 . S
H101 C88 0.947 . S
H102 C90 0.952 . S
H103 C91 0.950 . S
N104 C107 1.370 1_554 S
N104 C109 1.363 . S
N105 C107 1.384 . S
N105 C108 1.372 . S
N106 C108 1.361 . S
N106 C109 1.377 1_556 S
C107 N104 1.370 1_556 S
C107 N105 1.384 . S
C107 C110 1.480 . S
C108 N105 1.372 . S
C108 N106 1.361 . S
C108 C116 1.457 . S
C109 N104 1.363 . S
C109 N106 1.377 1_554 S
C109 C122 1.479 . S
C110 C107 1.480 . S
C110 C111 1.383 1_556 S
C110 C115 1.385 . S
C111 H92 0.947 . S
C111 C110 1.383 1_554 S
C111 C112 1.388 . S
C112 H93 0.946 . S
C112 C111 1.388 . S
C112 C113 1.384 1_554 S
C113 C112 1.384 1_556 S
C113 C114 1.377 . S
C114 H94 0.953 . S
C114 C113 1.377 . S
C114 C115 1.369 . S
C115 H95 0.945 . S
C115 C110 1.385 . S
C115 C114 1.369 . S
C116 C108 1.457 . S
C116 C117 1.372 . S
C116 C121 1.364 . S
C117 H96 0.952 . S
C117 C116 1.372 . S
C117 C118 1.389 . S
C118 H97 0.949 . S
C118 C117 1.389 . S
C118 C119 1.387 . S
C119 C118 1.387 . S
C119 C120 1.372 . S
C120 H98 0.950 . S
C120 C119 1.372 . S
C120 C121 1.379 . S
C121 H99 0.948 . S
C121 C116 1.364 . S
C121 C120 1.379 . S
C122 C91 1.383 . S
C122 C109 1.479 . S
C122 C123 1.398 . S
C123 C88 1.382 . S
C123 H100 0.951 . S
C123 C122 1.398 . S
C124 C125 1.384 . S
C124 H137 0.947 . S
C124 C159 1.382 . S
C125 C124 1.384 . S
C125 C126 1.378 . S
C126 C125 1.378 . S
C126 C127 1.378 . S
C126 H138 0.952 . S
C127 C126 1.378 . S
C127 H139 0.950 . S
C127 C158 1.383 . S
H128 C147 0.947 . S
H129 C148 0.946 . S
H130 C150 0.953 . S
H131 C151 0.945 . S
H132 C153 0.952 . S
H133 C154 0.949 . S
H134 C156 0.950 . S
H135 C157 0.948 . S
H136 C159 0.951 . S
H137 C124 0.947 . S
H138 C126 0.952 . S
H139 C127 0.950 . S
N140 C143 1.382 1_655 S
N140 C145 1.363 . S
N141 C143 1.371 1_655 S
N141 C144 1.372 . S
N142 C144 1.361 . S
N142 C145 1.377 . S
C143 N140 1.382 1_455 S
C143 N141 1.371 1_455 S
C143 C146 1.480 . S
C144 N141 1.372 . S
C144 N142 1.361 . S
C144 C152 1.457 . S
C145 N140 1.363 . S
C145 N142 1.377 . S
C145 C158 1.479 . S
C146 C143 1.480 . S
C146 C147 1.383 . S
C146 C151 1.385 . S
C147 H128 0.947 . S
C147 C146 1.383 . S
C147 C148 1.388 . S
C148 H129 0.946 . S
C148 C147 1.388 . S
C148 C149 1.384 . S
C149 C148 1.384 . S
C149 C150 1.377 . S
C150 H130 0.953 . S
C150 C149 1.377 . S
C150 C151 1.369 . S
C151 H131 0.945 . S
C151 C146 1.385 . S
C151 C150 1.369 . S
C152 C144 1.457 . S
C152 C153 1.372 . S
C152 C157 1.364 . S
C153 H132 0.952 . S
C153 C152 1.372 . S
C153 C154 1.389 . S
C154 H133 0.949 . S
C154 C153 1.389 . S
C154 C155 1.387 . S
C155 C154 1.387 . S
C155 C156 1.372 . S
C156 H134 0.950 . S
C156 C155 1.372 . S
C156 C157 1.379 . S
C157 H135 0.948 . S
C157 C152 1.364 . S
C157 C156 1.379 . S
C158 C127 1.383 . S
C158 C145 1.479 . S
C158 C159 1.398 . S
C159 C124 1.382 . S
C159 H136 0.951 . S
C159 C158 1.398 . S
C160 C161 1.384 . S
C160 H173 0.947 . S
C160 C195 1.382 . S
C161 C160 1.384 . S
C161 C162 1.378 . S
C162 C161 1.378 . S
C162 C163 1.378 . S
C162 H174 0.952 . S
C163 C162 1.378 . S
C163 H175 0.950 . S
C163 C194 1.383 . S
H164 C183 0.947 . S
H165 C184 0.946 . S
H166 C186 0.953 . S
H167 C187 0.945 . S
H168 C189 0.952 . S
H169 C190 0.949 . S
H170 C192 0.950 . S
H171 C193 0.948 . S
H172 C195 0.951 . S
H173 C160 0.947 . S
H174 C162 0.952 . S
H175 C163 0.950 . S
N176 C179 1.382 1_556 S
N176 C181 1.363 . S
N177 C179 1.371 . S
N177 C180 1.372 . S
N178 C180 1.361 . S
N178 C181 1.377 1_554 S
C179 N176 1.382 1_554 S
C179 N177 1.371 . S
C179 C182 1.480 . S
C180 N177 1.372 . S
C180 N178 1.361 . S
C180 C188 1.457 . S
C181 N176 1.363 . S
C181 N178 1.377 1_556 S
C181 C194 1.479 . S
C182 C179 1.480 . S
C182 C183 1.383 1_554 S
C182 C187 1.385 . S
C183 H164 0.947 . S
C183 C182 1.383 1_556 S
C183 C184 1.388 . S
C184 H165 0.946 . S
C184 C183 1.388 . S
C184 C185 1.384 1_556 S
C185 C184 1.384 1_554 S
C185 C186 1.377 . S
C186 H166 0.953 . S
C186 C185 1.377 . S
C186 C187 1.369 . S
C187 H167 0.945 . S
C187 C182 1.385 . S
C187 C186 1.369 . S
C188 C180 1.457 . S
C188 C189 1.372 . S
C188 C193 1.364 . S
C189 H168 0.952 . S
C189 C188 1.372 . S
C189 C190 1.389 . S
C190 H169 0.949 . S
C190 C189 1.389 . S
C190 C191 1.387 . S
C191 C190 1.387 . S
C191 C192 1.372 . S
C192 H170 0.950 . S
C192 C191 1.372 . S
C192 C193 1.379 . S
C193 H171 0.948 . S
C193 C188 1.364 . S
C193 C192 1.379 . S
C194 C163 1.383 . S
C194 C181 1.479 . S
C194 C195 1.398 . S
C195 C160 1.382 . S
C195 H172 0.951 . S
C195 C194 1.398 . S
C196 C197 1.384 . S
C196 H209 0.947 . S
C196 C231 1.382 . S
C197 C196 1.384 . S
C197 C198 1.378 . S
C198 C197 1.378 . S
C198 C199 1.378 . S
C198 H210 0.952 . S
C199 C198 1.378 . S
C199 H211 0.950 . S
C199 C230 1.383 . S
H200 C219 0.947 . S
H201 C220 0.946 . S
H202 C222 0.953 . S
H203 C223 0.945 . S
H204 C225 0.952 . S
H205 C226 0.949 . S
H206 C228 0.950 . S
H207 C229 0.948 . S
H208 C231 0.951 . S
H209 C196 0.947 . S
H210 C198 0.952 . S
H211 C199 0.950 . S
N212 C215 1.382 1_455 S
N212 C217 1.363 . S
N213 C215 1.371 1_455 S
N213 C216 1.372 . S
N214 C216 1.361 . S
N214 C217 1.377 . S
C215 N212 1.382 1_655 S
C215 N213 1.371 1_655 S
C215 C218 1.480 . S
C216 N213 1.372 . S
C216 N214 1.361 . S
C216 C224 1.457 . S
C217 N212 1.363 . S
C217 N214 1.377 . S
C217 C230 1.479 . S
C218 C215 1.480 . S
C218 C219 1.383 . S
C218 C223 1.385 . S
C219 H200 0.947 . S
C219 C218 1.383 . S
C219 C220 1.388 . S
C220 H201 0.946 . S
C220 C219 1.388 . S
C220 C221 1.384 . S
C221 C220 1.384 . S
C221 C222 1.377 . S
C222 H202 0.953 . S
C222 C221 1.377 . S
C222 C223 1.369 . S
C223 H203 0.945 . S
C223 C218 1.385 . S
C223 C222 1.369 . S
C224 C216 1.457 . S
C224 C225 1.372 . S
C224 C229 1.364 . S
C225 H204 0.952 . S
C225 C224 1.372 . S
C225 C226 1.389 . S
C226 H205 0.949 . S
C226 C225 1.389 . S
C226 C227 1.387 . S
C227 C226 1.387 . S
C227 C228 1.372 . S
C228 H206 0.950 . S
C228 C227 1.372 . S
C228 C229 1.379 . S
C229 H207 0.948 . S
C229 C224 1.364 . S
C229 C228 1.379 . S
C230 C199 1.383 . S
C230 C217 1.479 . S
C230 C231 1.398 . S
C231 C196 1.382 . S
C231 H208 0.951 . S
C231 C230 1.398 . S
C232 C233 1.384 . S
C232 H245 0.947 . S
C232 C267 1.382 . S
C233 C232 1.384 . S
C233 C234 1.378 . S
C234 C233 1.378 . S
C234 C235 1.378 . S
C234 H246 0.952 . S
C235 C234 1.378 . S
C235 H247 0.942 1_565 S
C235 C266 1.383 . S
H236 C255 0.947 . S
H237 C256 0.946 . S
H238 C258 0.953 . S
H239 C259 0.945 . S
H240 C261 0.952 . S
H241 C262 0.949 . S
H242 C264 0.950 . S
H243 C265 0.948 . S
H244 C267 0.951 . S
H245 C232 0.947 . S
H246 C234 0.952 . S
H247 C235 0.942 1_545 S
N248 C251 1.382 . S
N248 C253 1.363 1_545 S
N249 C251 1.371 . S
N249 C252 1.372 1_545 S
N250 C252 1.361 . S
N250 C253 1.377 . S
C251 N248 1.382 . S
C251 N249 1.371 . S
C251 C254 1.480 . S
C252 N249 1.372 1_565 S
C252 N250 1.361 . S
C252 C260 1.457 . S
C253 N248 1.363 1_565 S
C253 N250 1.377 . S
C253 C266 1.479 . S
C254 C251 1.480 . S
C254 C255 1.383 . S
C254 C259 1.385 . S
C255 H236 0.947 . S
C255 C254 1.383 . S
C255 C256 1.388 . S
C256 H237 0.946 . S
C256 C255 1.388 . S
C256 C257 1.384 . S
C257 C256 1.384 . S
C257 C258 1.377 . S
C258 H238 0.953 . S
C258 C257 1.377 . S
C258 C259 1.369 . S
C259 H239 0.945 . S
C259 C254 1.385 . S
C259 C258 1.369 . S
C260 C252 1.457 . S
C260 C261 1.372 . S
C260 C265 1.364 . S
C261 H240 0.952 . S
C261 C260 1.372 . S
C261 C262 1.389 . S
C262 H241 0.949 . S
C262 C261 1.389 . S
C262 C263 1.387 . S
C263 C262 1.387 . S
C263 C264 1.372 . S
C264 H242 0.950 . S
C264 C263 1.372 . S
C264 C265 1.379 . S
C265 H243 0.948 . S
C265 C260 1.364 . S
C265 C264 1.379 . S
C266 C235 1.383 . S
C266 C253 1.479 . S
C266 C267 1.398 . S
C267 C232 1.382 . S
C267 H244 0.951 . S
C267 C266 1.398 . S
C268 C269 1.384 . S
C268 H281 0.947 . S
C268 C303 1.382 . S
C269 C268 1.384 . S
C269 C270 1.378 . S
C270 C269 1.378 . S
C270 C271 1.378 . S
C270 H282 0.952 . S
C271 C270 1.378 . S
C271 H283 0.950 . S
C271 C302 1.383 . S
H272 C291 0.947 . S
H273 C292 0.946 . S
H274 C294 0.953 . S
H275 C295 0.945 . S
H276 C297 0.952 . S
H277 C298 0.949 . S
H278 C300 0.950 . S
H279 C301 0.948 . S
H280 C303 0.951 . S
H281 C268 0.947 . S
H282 C270 0.952 . S
H283 C271 0.950 . S
N284 C287 1.382 1_556 S
N284 C289 1.363 . S
N285 C287 1.371 . S
N285 C288 1.372 . S
N286 C288 1.361 . S
N286 C289 1.377 1_554 S
C287 N284 1.382 1_554 S
C287 N285 1.371 . S
C287 C290 1.480 . S
C288 N285 1.372 . S
C288 N286 1.361 . S
C288 C296 1.457 . S
C289 N284 1.363 . S
C289 N286 1.377 1_556 S
C289 C302 1.479 . S
C290 C287 1.480 . S
C290 C291 1.383 1_554 S
C290 C295 1.385 . S
C291 H272 0.947 . S
C291 C290 1.383 1_556 S
C291 C292 1.388 . S
C292 H273 0.946 . S
C292 C291 1.388 . S
C292 C293 1.384 1_556 S
C293 C292 1.384 1_554 S
C293 C294 1.377 . S
C294 H274 0.953 . S
C294 C293 1.377 . S
C294 C295 1.369 . S
C295 H275 0.945 . S
C295 C290 1.385 . S
C295 C294 1.369 . S
C296 C288 1.457 . S
C296 C297 1.372 . S
C296 C301 1.364 . S
C297 H276 0.952 . S
C297 C296 1.372 . S
C297 C298 1.389 . S
C298 H277 0.949 . S
C298 C297 1.389 . S
C298 C299 1.387 . S
C299 C298 1.387 . S
C299 C300 1.372 . S
C300 H278 0.950 . S
C300 C299 1.372 . S
C300 C301 1.379 . S
C301 H279 0.948 . S
C301 C296 1.364 . S
C301 C300 1.379 . S
C302 C271 1.383 . S
C302 C289 1.479 . S
C302 C303 1.398 . S
C303 C268 1.382 . S
C303 H280 0.951 . S
C303 C302 1.398 . S
C304 C305 1.384 . S
C304 H317 0.947 . S
C304 C339 1.382 . S
C305 C304 1.384 . S
C305 C306 1.378 . S
C306 C305 1.378 . S
C306 C307 1.378 . S
C306 H318 0.952 . S
C307 C306 1.378 . S
C307 H319 0.950 . S
C307 C338 1.383 . S
H308 C327 0.947 . S
H309 C328 0.946 . S
H310 C330 0.953 . S
H311 C331 0.945 . S
H312 C333 0.952 . S
H313 C334 0.949 . S
H314 C336 0.950 . S
H315 C337 0.948 . S
H316 C339 0.951 . S
H317 C304 0.947 . S
H318 C306 0.952 . S
H319 C307 0.950 . S
N320 C323 1.381 . S
N320 C325 1.365 1_565 S
N321 C323 1.371 . S
N321 C324 1.372 1_565 S
N322 C324 1.361 . S
N322 C325 1.377 . S
C323 N320 1.381 . S
C323 N321 1.371 . S
C323 C326 1.480 . S
C324 N321 1.372 1_545 S
C324 N322 1.361 . S
C324 C332 1.457 . S
C325 N320 1.365 1_545 S
C325 N322 1.377 . S
C325 C338 1.479 . S
C326 C323 1.480 . S
C326 C327 1.383 . S
C326 C331 1.385 . S
C327 H308 0.947 . S
C327 C326 1.383 . S
C327 C328 1.388 . S
C328 H309 0.946 . S
C328 C327 1.388 . S
C328 C329 1.384 . S
C329 C328 1.384 . S
C329 C330 1.377 . S
C330 H310 0.953 . S
C330 C329 1.377 . S
C330 C331 1.369 . S
C331 H311 0.945 . S
C331 C326 1.385 . S
C331 C330 1.369 . S
C332 C324 1.457 . S
C332 C333 1.372 . S
C332 C337 1.364 . S
C333 H312 0.952 . S
C333 C332 1.372 . S
C333 C334 1.389 . S
C334 H313 0.949 . S
C334 C333 1.389 . S
C334 C335 1.387 . S
C335 C334 1.387 . S
C335 C336 1.372 . S
C336 H314 0.950 . S
C336 C335 1.372 . S
C336 C337 1.379 . S
C337 H315 0.948 . S
C337 C332 1.364 . S
C337 C336 1.379 . S
C338 C307 1.383 . S
C338 C325 1.479 . S
C338 C339 1.398 . S
C339 C304 1.382 . S
C339 H316 0.951 . S
C339 C338 1.398 . S
C340 C341 1.384 . S
C340 H353 0.947 . S
C340 C375 1.382 . S
C341 C340 1.384 . S
C341 C342 1.378 . S
C342 C341 1.378 . S
C342 C343 1.378 . S
C342 H354 0.952 . S
C343 C342 1.378 . S
C343 H355 0.950 . S
C343 C374 1.383 . S
H344 C363 0.947 . S
H345 C364 0.946 . S
H346 C366 0.953 . S
H347 C367 0.945 . S
H348 C369 0.952 . S
H349 C370 0.949 . S
H350 C372 0.950 . S
H351 C373 0.948 . S
H352 C375 0.951 . S
H353 C340 0.947 . S
H354 C342 0.952 . S
H355 C343 0.950 . S
N356 C359 1.383 . S
N356 C361 1.363 . S
N357 C359 1.370 1_556 S
N357 C360 1.372 . S
N358 C360 1.361 . S
N358 C361 1.377 1_556 S
C359 N356 1.383 . S
C359 N357 1.370 1_554 S
C359 C362 1.480 1_554 S
C360 N357 1.372 . S
C360 N358 1.361 . S
C360 C368 1.457 . S
C361 N356 1.363 . S
C361 N358 1.377 1_554 S
C361 C374 1.479 . S
C362 C359 1.480 1_556 S
C362 C363 1.383 1_556 S
C362 C367 1.385 . S
C363 H344 0.947 . S
C363 C362 1.383 1_554 S
C363 C364 1.388 . S
C364 H345 0.946 . S
C364 C363 1.388 . S
C364 C365 1.384 1_554 S
C365 C364 1.384 1_556 S
C365 C366 1.377 . S
C366 H346 0.953 . S
C366 C365 1.377 . S
C366 C367 1.369 . S
C367 H347 0.945 . S
C367 C362 1.385 . S
C367 C366 1.369 . S
C368 C360 1.457 . S
C368 C369 1.372 . S
C368 C373 1.364 . S
C369 H348 0.952 . S
C369 C368 1.372 . S
C369 C370 1.389 . S
C370 H349 0.949 . S
C370 C369 1.389 . S
C370 C371 1.387 . S
C371 C370 1.387 . S
C371 C372 1.372 . S
C372 H350 0.950 . S
C372 C371 1.372 . S
C372 C373 1.379 . S
C373 H351 0.948 . S
C373 C368 1.364 . S
C373 C372 1.379 . S
C374 C343 1.383 . S
C374 C361 1.479 . S
C374 C375 1.398 . S
C375 C340 1.382 . S
C375 H352 0.951 . S
C375 C374 1.398 . S
C376 C377 1.387 . S
C376 H380 0.950 . S
C376 C385 1.390 . S
C377 C376 1.387 . S
C377 C379 1.387 . S
H378 C385 0.950 . S
C379 C377 1.387 . S
C379 C381 1.390 . S
C379 H383 0.950 . S
H380 C376 0.950 . S
C381 C379 1.390 . S
C381 C382 1.387 . S
C381 H384 0.950 . S
C382 C381 1.387 . S
C382 C385 1.387 . S
H383 C379 0.950 . S
H384 C381 0.950 . S
C385 C376 1.390 . S
C385 H378 0.950 . S
C385 C382 1.387 . S
C386 C387 1.387 . S
C386 H390 0.950 . S
C386 C395 1.390 . S
C387 C386 1.387 . S
C387 C389 1.387 . S
H388 C395 0.950 . S
C389 C387 1.387 . S
C389 C391 1.390 . S
C389 H393 0.950 . S
H390 C386 0.950 . S
C391 C389 1.390 . S
C391 C392 1.387 . S
C391 H394 0.950 . S
C392 C391 1.387 . S
C392 C395 1.387 . S
H393 C389 0.950 . S
H394 C391 0.950 . S
C395 C386 1.390 . S
C395 H388 0.950 . S
C395 C392 1.387 . S
C396 C397 1.387 . S
C396 H400 0.950 . S
C396 C405 1.390 . S
C397 C396 1.387 . S
C397 C399 1.387 . S
H398 C405 0.950 . S
C399 C397 1.387 . S
C399 C401 1.390 . S
C399 H403 0.950 . S
H400 C396 0.950 . S
C401 C399 1.390 . S
C401 C402 1.387 . S
C401 H404 0.950 . S
C402 C401 1.387 . S
C402 C405 1.387 . S
H403 C399 0.950 . S
H404 C401 0.950 . S
C405 C396 1.390 . S
C405 H398 0.950 . S
C405 C402 1.387 . S
C406 C407 1.387 . S
C406 H410 0.950 . S
C406 C415 1.390 . S
C407 C406 1.387 . S
C407 C409 1.387 . S
H408 C415 0.950 . S
C409 C407 1.387 . S
C409 C411 1.390 . S
C409 H413 0.950 . S
H410 C406 0.950 . S
C411 C409 1.390 . S
C411 C412 1.387 . S
C411 H414 0.950 . S
C412 C411 1.387 . S
C412 C415 1.387 . S
H413 C409 0.950 . S
H414 C411 0.950 . S
C415 C406 1.390 . S
C415 H408 0.950 . S
C415 C412 1.387 . S
C416 C417 1.387 . S
C416 H420 0.950 . S
C416 C425 1.390 . S
C417 C416 1.387 . S
C417 C419 1.387 . S
H418 C425 0.950 . S
C419 C417 1.387 . S
C419 C421 1.390 . S
C419 H423 0.950 . S
H420 C416 0.950 . S
C421 C419 1.390 . S
C421 C422 1.387 . S
C421 H424 0.950 . S
C422 C421 1.387 . S
C422 C425 1.387 . S
H423 C419 0.950 . S
H424 C421 0.950 . S
C425 C416 1.390 . S
C425 H418 0.950 . S
C425 C422 1.387 . S
C426 C427 1.387 . S
C426 H430 0.950 . S
C426 C435 1.390 . S
C427 C426 1.387 . S
C427 C429 1.387 . S
H428 C435 0.950 . S
C429 C427 1.387 . S
C429 C431 1.390 . S
C429 H433 0.950 . S
H430 C426 0.950 . S
C431 C429 1.390 . S
C431 C432 1.387 . S
C431 H434 0.950 . S
C432 C431 1.387 . S
C432 C435 1.387 . S
H433 C429 0.950 . S
H434 C431 0.950 . S
C435 C426 1.390 . S
C435 H428 0.950 . S
C435 C432 1.387 . S
C436 C437 1.387 . S
C436 H440 0.950 . S
C436 C445 1.390 . S
C437 C436 1.387 . S
C437 C439 1.387 . S
H438 C445 0.950 . S
C439 C437 1.387 . S
C439 C441 1.390 . S
C439 H443 0.950 . S
H440 C436 0.950 . S
C441 C439 1.390 . S
C441 C442 1.387 . S
C441 H444 0.950 . S
C442 C441 1.387 . S
C442 C445 1.387 . S
H443 C439 0.950 . S
H444 C441 0.950 . S
C445 C436 1.390 . S
C445 H438 0.950 . S
C445 C442 1.387 . S
C446 C447 1.387 . S
C446 H450 0.950 . S
C446 C455 1.390 . S
C447 C446 1.387 . S
C447 C449 1.387 . S
H448 C455 0.950 . S
C449 C447 1.387 . S
C449 C451 1.390 . S
C449 H453 0.950 . S
H450 C446 0.950 . S
C451 C449 1.390 . S
C451 C452 1.387 . S
C451 H454 0.950 . S
C452 C451 1.387 . S
C452 C455 1.387 . S
H453 C449 0.950 . S
H454 C451 0.950 . S
C455 C446 1.390 . S
C455 H448 0.950 . S
C455 C452 1.387 . S
C456 C457 1.387 . S
C456 H460 0.950 . S
C456 C465 1.390 . S
C457 C456 1.387 . S
C457 C459 1.387 . S
H458 C465 0.950 . S
C459 C457 1.387 . S
C459 C461 1.390 . S
C459 H463 0.950 . S
H460 C456 0.950 . S
C461 C459 1.390 . S
C461 C462 1.387 . S
C461 H464 0.950 . S
C462 C461 1.387 . S
C462 C465 1.387 . S
H463 C459 0.950 . S
H464 C461 0.950 . S
C465 C456 1.390 . S
C465 H458 0.950 . S
C465 C462 1.387 . S
C466 C467 1.387 . S
C466 H470 0.950 . S
C466 C475 1.390 . S
C467 C466 1.387 . S
C467 C469 1.387 . S
H468 C475 0.950 . S
C469 C467 1.387 . S
C469 C471 1.390 . S
C469 H473 0.950 . S
H470 C466 0.950 . S
C471 C469 1.390 . S
C471 C472 1.387 . S
C471 H474 0.950 . S
C472 C471 1.387 . S
C472 C475 1.387 . S
H473 C469 0.950 . S
H474 C471 0.950 . S
C475 C466 1.390 . S
C475 H468 0.950 . S
C475 C472 1.387 . S
C476 C477 1.387 . S
C476 H480 0.950 . S
C476 C485 1.390 . S
C477 C476 1.387 . S
C477 C479 1.387 . S
H478 C485 0.950 . S
C479 C477 1.387 . S
C479 C481 1.390 . S
C479 H483 0.950 . S
H480 C476 0.950 . S
C481 C479 1.390 . S
C481 C482 1.387 . S
C481 H484 0.950 . S
C482 C481 1.387 . S
C482 C485 1.387 . S
H483 C479 0.950 . S
H484 C481 0.950 . S
C485 C476 1.390 . S
C485 H478 0.950 . S
C485 C482 1.387 . S
C486 C487 1.387 . S
C486 H490 0.950 . S
C486 C495 1.390 . S
C487 C486 1.387 . S
C487 C489 1.387 . S
H488 C495 0.950 . S
C489 C487 1.387 . S
C489 C491 1.390 . S
C489 H493 0.950 . S
H490 C486 0.950 . S
C491 C489 1.390 . S
C491 C492 1.387 . S
C491 H494 0.950 . S
C492 C491 1.387 . S
C492 C495 1.387 . S
H493 C489 0.950 . S
H494 C491 0.950 . S
C495 C486 1.390 . S
C495 H488 0.950 . S
C495 C492 1.387 . S
C496 C497 1.387 . S
C496 H500 0.950 . S
C496 C505 1.390 . S
C497 C496 1.387 . S
C497 C499 1.387 . S
H498 C505 0.950 . S
C499 C497 1.387 . S
C499 C501 1.390 . S
C499 H503 0.950 . S
H500 C496 0.950 . S
C501 C499 1.390 . S
C501 C502 1.387 . S
C501 H504 0.950 . S
C502 C501 1.387 . S
C502 C505 1.387 . S
H503 C499 0.950 . S
H504 C501 0.950 . S
C505 C496 1.390 . S
C505 H498 0.950 . S
C505 C502 1.387 . S
C506 C507 1.387 . S
C506 H510 0.950 . S
C506 C515 1.390 . S
C507 C506 1.387 . S
C507 C509 1.387 . S
H508 C515 0.950 . S
C509 C507 1.387 . S
C509 C511 1.390 . S
C509 H513 0.950 . S
H510 C506 0.950 . S
C511 C509 1.390 . S
C511 C512 1.387 . S
C511 H514 0.950 . S
C512 C511 1.387 . S
C512 C515 1.387 . S
H513 C509 0.950 . S
H514 C511 0.950 . S
C515 C506 1.390 . S
C515 H508 0.950 . S
C515 C512 1.387 . S
C516 C517 1.387 . S
C516 H520 0.950 . S
C516 C525 1.390 . S
C517 C516 1.387 . S
C517 C519 1.387 . S
H518 C525 0.950 . S
C519 C517 1.387 . S
C519 C521 1.390 . S
C519 H523 0.950 . S
H520 C516 0.950 . S
C521 C519 1.390 . S
C521 C522 1.387 . S
C521 H524 0.950 . S
C522 C521 1.387 . S
C522 C525 1.387 . S
H523 C519 0.950 . S
H524 C521 0.950 . S
C525 C516 1.390 . S
C525 H518 0.950 . S
C525 C522 1.387 . S
C526 C527 1.387 . S
C526 H530 0.950 . S
C526 C535 1.390 . S
C527 C526 1.387 . S
C527 C529 1.387 . S
H528 C535 0.950 . S
C529 C527 1.387 . S
C529 C531 1.390 . S
C529 H533 0.950 . S
H530 C526 0.950 . S
C531 C529 1.390 . S
C531 C532 1.387 . S
C531 H534 0.950 . S
C532 C531 1.387 . S
C532 C535 1.387 . S
H533 C529 0.950 . S
H534 C531 0.950 . S
C535 C526 1.390 . S
C535 H528 0.950 . S
C535 C532 1.387 . S
C536 C537 1.387 . S
C536 H540 0.950 . S
C536 C545 1.390 . S
C537 C536 1.387 . S
C537 C539 1.387 1_554 S
H538 C545 0.950 . S
C539 C537 1.387 1_556 S
C539 C541 1.390 . S
C539 H543 0.950 . S
H540 C536 0.950 . S
C541 C539 1.390 . S
C541 C542 1.378 1_556 S
C541 H544 0.950 . S
C542 C541 1.378 1_554 S
C542 C545 1.397 . S
H543 C539 0.950 . S
H544 C541 0.950 . S
C545 C536 1.390 . S
C545 H538 0.950 . S
C545 C542 1.397 . S
C546 C547 1.387 . S
C546 H550 0.950 . S
C546 C555 1.390 . S
C547 C546 1.387 . S
C547 C549 1.387 . S
H548 C555 0.950 . S
C549 C547 1.387 . S
C549 C551 1.390 . S
C549 H553 0.950 . S
H550 C546 0.950 . S
C551 C549 1.390 . S
C551 C552 1.387 . S
C551 H554 0.950 . S
C552 C551 1.387 . S
C552 C555 1.387 . S
H553 C549 0.950 . S
H554 C551 0.950 . S
C555 C546 1.390 . S
C555 H548 0.950 . S
C555 C552 1.387 . S
C556 C557 1.387 1_556 S
C556 H560 0.950 . S
C556 C565 1.390 . S
C557 C556 1.387 1_554 S
C557 C559 1.387 . S
H558 C565 0.950 . S
C559 C557 1.387 . S
C559 C561 1.390 . S
C559 H563 0.950 . S
H560 C556 0.950 . S
C561 C559 1.390 . S
C561 C562 1.387 . S
C561 H564 0.950 . S
C562 C561 1.387 . S
C562 C565 1.387 1_554 S
H563 C559 0.950 . S
H564 C561 0.950 . S
C565 C556 1.390 . S
C565 H558 0.950 . S
C565 C562 1.387 1_556 S
C566 C567 1.387 . S
C566 H570 0.950 . S
C566 C575 1.390 . S
C567 C566 1.387 . S
C567 C569 1.387 . S
H568 C575 0.950 . S
C569 C567 1.387 . S
C569 C571 1.390 . S
C569 H573 0.950 . S
H570 C566 0.950 . S
C571 C569 1.390 . S
C571 C572 1.387 . S
C571 H574 0.950 . S
C572 C571 1.387 . S
C572 C575 1.387 . S
H573 C569 0.950 . S
H574 C571 0.950 . S
C575 C566 1.390 . S
C575 H568 0.950 . S
C575 C572 1.387 . S
C576 C577 1.387 . S
C576 H580 0.950 . S
C576 C585 1.390 . S
C577 C576 1.387 . S
C577 C579 1.387 . S
H578 C585 0.950 . S
C579 C577 1.387 . S
C579 C581 1.390 . S
C579 H583 0.950 . S
H580 C576 0.950 . S
C581 C579 1.390 . S
C581 C582 1.387 . S
C581 H584 0.950 . S
C582 C581 1.387 . S
C582 C585 1.387 . S
H583 C579 0.950 . S
H584 C581 0.950 . S
C585 C576 1.390 . S
C585 H578 0.950 . S
C585 C582 1.387 . S
C586 C587 1.387 . S
C586 H590 0.950 . S
C586 C595 1.390 . S
C587 C586 1.387 . S
C587 C589 1.387 1_554 S
H588 C595 0.950 . S
C589 C587 1.387 1_556 S
C589 C591 1.390 . S
C589 H593 0.950 . S
H590 C586 0.950 . S
C591 C589 1.390 . S
C591 C592 1.387 1_556 S
C591 H594 0.950 . S
C592 C591 1.387 1_554 S
C592 C595 1.387 . S
H593 C589 0.950 . S
H594 C591 0.950 . S
C595 C586 1.390 . S
C595 H588 0.950 . S
C595 C592 1.387 . S
C596 C597 1.387 . S
C596 H600 0.950 . S
C596 C605 1.390 . S
C597 C596 1.387 . S
C597 C599 1.387 . S
H598 C605 0.950 . S
C599 C597 1.387 . S
C599 C601 1.390 . S
C599 H603 0.950 . S
H600 C596 0.950 . S
C601 C599 1.390 . S
C601 C602 1.387 . S
C601 H604 0.950 . S
C602 C601 1.387 . S
C602 C605 1.387 . S
H603 C599 0.950 . S
H604 C601 0.950 . S
C605 C596 1.390 . S
C605 H598 0.950 . S
C605 C602 1.387 . S
C606 C607 1.397 . S
C606 H610 0.950 . S
C606 C615 1.390 . S
C607 C606 1.397 . S
C607 C609 1.378 1_554 S
H608 C615 0.950 . S
C609 C607 1.378 1_556 S
C609 C611 1.390 . S
C609 H613 0.950 . S
H610 C606 0.950 . S
C611 C609 1.390 . S
C611 C612 1.387 1_556 S
C611 H614 0.950 . S
C612 C611 1.387 1_554 S
C612 C615 1.387 . S
H613 C609 0.950 . S
H614 C611 0.950 . S
C615 C606 1.390 . S
C615 H608 0.950 . S
C615 C612 1.387 . S
C377 C21 1.666 . S
C382 C197 1.618 . S
C387 C40 1.816 . S
C392 C119 1.668 . S
C402 C155 1.625 . S
C397 C54 1.656 . S
C407 C73 1.855 . S
C412 C161 1.785 . S
C422 C299 1.625 . S
C417 C74 1.656 . S
C432 C305 1.751 . S
C427 C10 1.815 . S
C442 C341 1.619 . S
C437 C37 1.665 . S
C452 C263 1.705 . S
C447 C65 1.857 . S
C457 C52 1.663 . S
C462 C125 1.632 . S
C467 C87 1.854 . S
C472 C191 1.784 . S
C477 C15 1.678 . S
C482 C227 1.602 . S
C492 C89 1.685 . S
C487 C32 1.807 . S
C497 C29 1.678 . S
C502 C371 1.603 . S
C512 C233 1.720 . S
C507 C59 1.851 . S
C522 C269 1.633 . S
C517 C84 1.662 . S
C527 C8 1.809 . S
C532 C335 1.744 . S
C542 C113 1.752 1_554 S
C537 C7 1.899 . S
C552 C149 1.706 . S
C547 C30 1.706 . S
C557 C62 1.907 . S
C562 C185 1.858 . S
C567 C81 1.670 . S
C572 C221 1.637 . S
C582 C257 1.768 . S
C577 C76 1.905 . S
C587 C18 1.703 1_554 S
C592 C293 1.704 . S
C597 C43 1.899 . S
C602 C329 1.838 . S
C607 C51 1.670 1_554 S
C612 C365 1.637 1_554 S
