# Generated by pormake.
# Topology nom, (4,4)-cn, num edge types: 1
# Building blocks:
#     Node 0, Type 0, BuildingBlock: GIZVER_clean_linker_0, # of connection points: 4
#     Node 1, Type 0, BuildingBlock: GIZVER_clean_linker_0, # of connection points: 4
#     Node 2, Type 0, BuildingBlock: GIZVER_clean_linker_0, # of connection points: 4
#     Node 3, Type 0, BuildingBlock: GIZVER_clean_linker_0, # of connection points: 4
#     Node 4, Type 0, BuildingBlock: GIZVER_clean_linker_0, # of connection points: 4
#     Node 5, Type 0, BuildingBlock: GIZVER_clean_linker_0, # of connection points: 4
#     Node 6, Type 1, BuildingBlock: GALJAG_clean_sbu_0, # of connection points: 4
#     Node 7, Type 1, BuildingBlock: GALJAG_clean_sbu_0, # of connection points: 4
#     Node 8, Type 1, BuildingBlock: GALJAG_clean_sbu_0, # of connection points: 4
#     Node 9, Type 1, BuildingBlock: GALJAG_clean_sbu_0, # of connection points: 4
#     Node 10, Type 1, BuildingBlock: GALJAG_clean_sbu_0, # of connection points: 4
#     Node 11, Type 1, BuildingBlock: GALJAG_clean_sbu_0, # of connection points: 4
#     Edge 12, Type (0, 1), BuildingBlock: AJUNOK_clean_linker_0, # of connection points: 2
#     Edge 13, Type (0, 1), BuildingBlock: AJUNOK_clean_linker_0, # of connection points: 2
#     Edge 14, Type (0, 1), BuildingBlock: AJUNOK_clean_linker_0, # of connection points: 2
#     Edge 15, Type (0, 1), BuildingBlock: AJUNOK_clean_linker_0, # of connection points: 2
#     Edge 16, Type (0, 1), BuildingBlock: AJUNOK_clean_linker_0, # of connection points: 2
#     Edge 17, Type (0, 1), BuildingBlock: AJUNOK_clean_linker_0, # of connection points: 2
#     Edge 18, Type (0, 1), BuildingBlock: AJUNOK_clean_linker_0, # of connection points: 2
#     Edge 19, Type (0, 1), BuildingBlock: AJUNOK_clean_linker_0, # of connection points: 2
#     Edge 20, Type (0, 1), BuildingBlock: AJUNOK_clean_linker_0, # of connection points: 2
#     Edge 21, Type (0, 1), BuildingBlock: AJUNOK_clean_linker_0, # of connection points: 2
#     Edge 22, Type (0, 1), BuildingBlock: AJUNOK_clean_linker_0, # of connection points: 2
#     Edge 23, Type (0, 1), BuildingBlock: AJUNOK_clean_linker_0, # of connection points: 2
#     Edge 24, Type (0, 1), BuildingBlock: AJUNOK_clean_linker_0, # of connection points: 2
#     Edge 25, Type (0, 1), BuildingBlock: AJUNOK_clean_linker_0, # of connection points: 2
#     Edge 26, Type (0, 1), BuildingBlock: AJUNOK_clean_linker_0, # of connection points: 2
#     Edge 27, Type (0, 1), BuildingBlock: AJUNOK_clean_linker_0, # of connection points: 2
#     Edge 28, Type (0, 1), BuildingBlock: AJUNOK_clean_linker_0, # of connection points: 2
#     Edge 29, Type (0, 1), BuildingBlock: AJUNOK_clean_linker_0, # of connection points: 2
#     Edge 30, Type (0, 1), BuildingBlock: AJUNOK_clean_linker_0, # of connection points: 2
#     Edge 31, Type (0, 1), BuildingBlock: AJUNOK_clean_linker_0, # of connection points: 2
#     Edge 32, Type (0, 1), BuildingBlock: AJUNOK_clean_linker_0, # of connection points: 2
#     Edge 33, Type (0, 1), BuildingBlock: AJUNOK_clean_linker_0, # of connection points: 2
#     Edge 34, Type (0, 1), BuildingBlock: AJUNOK_clean_linker_0, # of connection points: 2
#     Edge 35, Type (0, 1), BuildingBlock: AJUNOK_clean_linker_0, # of connection points: 2
# Relax obj value: 0.013
# Max RMSD: 0.089
# Mean RMSD: 0.072
data_MOF--net-nom--node1-GALJAG_clean_sbu_0--node2-GIZVER_clean_linker_0--edge1-AJUNOK_clean_linker_0
_symmetry_space_group_name_H-M    P1
_symmetry_Int_Tables_number       1
_symmetry_cell_setting            triclinic
loop_
_symmetry_equiv_pos_as_xyz
'x, y, z'
_cell_length_a     33.880243
_cell_length_b     33.879746
_cell_length_c     36.357519
_cell_angle_alpha  90.150413
_cell_angle_beta   90.109377
_cell_angle_gamma 120.16647
loop_
_atom_site_label
_atom_site_type_symbol
_atom_site_fract_x
_atom_site_fract_y
_atom_site_fract_z
_atom_type_partial_charge
H0 H 0.94764 0.57428 0.3527 0.0
H1 H 1.01946 0.56436 0.25854 0.0
H2 H 0.87733 0.46737 0.2732 0.0
H3 H 0.02585 0.62961 0.34614 0.0
H4 H 0.03628 0.64263 0.29867 0.0
H5 H 0.06613 0.59717 0.38002 0.0
H6 H 0.19165 0.61998 0.3325 0.0
H7 H 0.09659 0.63765 0.26653 0.0
C8 C 0.94855 0.55593 0.32856 0.0
C9 C 0.90776 0.5186 0.31539 0.0
C10 C 0.98968 0.57201 0.30877 0.0
C11 C 0.98919 0.55031 0.27552 0.0
C12 C 0.94885 0.51215 0.26287 0.0
C13 C 0.90894 0.49574 0.28366 0.0
C14 C 0.03145 0.61672 0.31962 0.0
C15 C 0.07465 0.61399 0.32217 0.0
C16 C 0.08763 0.60383 0.35612 0.0
C17 C 0.13032 0.60685 0.36 0.0
C18 C 0.15834 0.6168 0.32916 0.0
C19 C 0.14697 0.62847 0.2955 0.0
C20 C 0.10491 0.62697 0.29205 0.0
H21 H 0.40246 0.95881 0.52282 0.0
H22 H 0.45086 0.99959 0.41215 0.0
H23 H 0.41422 0.86534 0.45002 0.0
H24 H 0.40253 0.02404 0.49596 0.0
H25 H 0.41242 0.03454 0.4479 0.0
H26 H 0.47676 0.04398 0.53583 0.0
H27 H 0.57857 0.18293 0.5133 0.0
H28 H 0.477 0.10421 0.43165 0.0
C29 C 0.41268 0.95175 0.49652 0.0
C30 C 0.40847 0.90892 0.49011 0.0
C31 C 0.42829 0.98479 0.46846 0.0
C32 C 0.4398 0.97456 0.43399 0.0
C33 C 0.43459 0.93135 0.42704 0.0
C34 C 0.41991 0.89931 0.45553 0.0
C35 C 0.42645 0.0281 0.47343 0.0
C36 C 0.47256 0.069 0.4823 0.0
C37 C 0.49258 0.07246 0.51695 0.0
C38 C 0.53124 0.11341 0.52808 0.0
C39 C 0.55035 0.15057 0.50389 0.0
C40 C 0.53102 0.14795 0.46918 0.0
C41 C 0.49255 0.1066 0.45825 0.0
H42 H 0.40309 0.46198 0.60004 0.0
H43 H 0.45482 0.46895 0.70972 0.0
H44 H 0.41622 0.56608 0.67502 0.0
H45 H 0.40867 0.39842 0.62374 0.0
H46 H 0.41739 0.39594 0.67199 0.0
H47 H 0.4842 0.46135 0.58808 0.0
H48 H 0.59333 0.43526 0.61069 0.0
H49 H 0.4798 0.386 0.68462 0.0
C50 C 0.41376 0.47887 0.62654 0.0
C51 C 0.4093 0.51713 0.63398 0.0
C52 C 0.43074 0.46162 0.65372 0.0
C53 C 0.4429 0.48288 0.68846 0.0
C54 C 0.43762 0.52058 0.69633 0.0
C55 C 0.42183 0.53797 0.66869 0.0
C56 C 0.43132 0.41786 0.64722 0.0
C57 C 0.47878 0.42656 0.63916 0.0
C58 C 0.50073 0.44894 0.60649 0.0
C59 C 0.54217 0.45223 0.59612 0.0
C60 C 0.56215 0.43415 0.61928 0.0
C61 C 0.53964 0.40927 0.65077 0.0
C62 C 0.49832 0.40645 0.66109 0.0
H63 H 0.95127 0.39939 0.77341 0.0
H64 H 1.02084 0.47707 0.87016 0.0
H65 H 0.8807 0.43704 0.85133 0.0
H66 H 0.02814 0.41939 0.78244 0.0
H67 H 0.03731 0.41647 0.8302 0.0
H68 H 0.06956 0.49272 0.74928 0.0
H69 H 0.19613 0.59317 0.79822 0.0
H70 H 0.09791 0.48106 0.86306 0.0
C71 C 0.9518 0.41841 0.79758 0.0
C72 C 0.91119 0.41618 0.80937 0.0
C73 C 0.99221 0.44182 0.81874 0.0
C74 C 0.99123 0.46224 0.85223 0.0
C75 C 0.95113 0.46086 0.86389 0.0
C76 C 0.91205 0.43936 0.84166 0.0
C77 C 0.03352 0.43792 0.80896 0.0
C78 C 0.07731 0.4836 0.8071 0.0
C79 C 0.09106 0.50705 0.7734 0.0
C80 C 0.13429 0.5463 0.77005 0.0
C81 C 0.16242 0.56339 0.80115 0.0
C82 C 0.15039 0.53976 0.83452 0.0
C83 C 0.10727 0.50016 0.8376 0.0
H84 H 0.6708 0.1105 0.01831 0.0
H85 H 0.59538 0.03776 0.92161 0.0
H86 H 0.63191 0.17758 0.9381 0.0
H87 H 0.65561 0.03487 0.00882 0.0
H88 H 0.65552 0.02321 0.96104 0.0
H89 H 0.57616 1.00542 0.03982 0.0
H90 H 0.48327 0.86654 0.0079 0.0
H91 H 0.59682 0.95134 0.93873 0.0
C92 C 0.65215 0.10905 -0.00637 0.0
C93 C 0.65301 0.1488 0.9812 0.0
C94 C 0.63033 0.06837 0.97263 0.0
C95 C 0.60981 0.06802 0.93886 0.0
C96 C 0.61066 0.10752 0.9262 0.0
C97 C 0.63055 0.14685 0.94824 0.0
C98 C 0.63547 0.02798 0.983 0.0
C99 C 0.59013 0.98441 -0.01239 0.0
C100 C 0.56439 0.97814 0.01965 0.0
C101 C 0.52534 0.9358 0.02691 0.0
C102 C 0.51171 0.90012 0.00148 0.0
C103 C 0.53712 0.90542 0.96978 0.0
C104 C 0.5761 0.94777 0.96254 0.0
H105 H 0.67735 0.58769 0.10863 0.0
H106 H 0.59878 0.58057 0.20406 0.0
H107 H 0.63307 0.47647 0.18447 0.0
H108 H 0.6633 0.64872 0.12028 0.0
H109 H 0.65736 0.65674 0.16804 0.0
H110 H 0.58822 0.59842 0.08314 0.0
H111 H 0.48432 0.63048 0.11053 0.0
H112 H 0.59279 0.66219 0.18722 0.0
C113 C 0.65764 0.56927 0.13249 0.0
C114 C 0.65713 0.52927 0.14366 0.0
C115 C 0.63553 0.5874 0.15374 0.0
C116 C 0.61333 0.56535 0.18642 0.0
C117 C 0.61201 0.52506 0.19736 0.0
C118 C 0.63273 0.50674 0.17529 0.0
C119 C 0.64057 0.63317 0.14441 0.0
C120 C 0.59503 0.62956 0.13648 0.0
C121 C 0.57301 0.61102 0.10273 0.0
C122 C 0.53244 0.61035 0.09364 0.0
C123 C 0.51395 0.62819 0.11859 0.0
C124 C 0.53487 0.64637 0.15255 0.0
C125 C 0.5757 0.64716 0.16141 0.0
In126 In 0.63719 0.41908 0.3939 0.0
O127 O 0.71474 0.45539 0.40516 0.0
O128 O 0.69091 0.43356 0.35066 0.0
C129 C 0.60978 0.44688 0.45353 0.0
C130 C 0.60839 0.45031 0.33791 0.0
C131 C 0.60429 0.3289 0.407 0.0
O132 O 0.58262 0.41759 0.43089 0.0
O133 O 0.65143 0.46241 0.44626 0.0
O134 O 0.5822 0.34356 0.3895 0.0
O135 O 0.6434 0.35959 0.41731 0.0
C136 C 0.72479 0.45357 0.37198 0.0
O137 O 0.59891 0.40926 0.34011 0.0
O138 O 0.63226 0.47552 0.36419 0.0
In139 In 0.26573 0.64229 0.56438 0.0
O140 O 0.27017 0.5766 0.56142 0.0
O141 O 0.33111 0.63964 0.5698 0.0
C142 C 0.22054 0.62034 0.49943 0.0
C143 C 0.22247 0.62087 0.62992 0.0
C144 C 0.31355 0.73478 0.56089 0.0
O145 O 0.26224 0.64962 0.5028 0.0
O146 O 0.20155 0.60006 0.52879 0.0
O147 O 0.27115 0.71283 0.56707 0.0
O148 O 0.33143 0.71012 0.55799 0.0
C149 C 0.31274 0.59694 0.56697 0.0
O150 O 0.26399 0.63304 0.62614 0.0
O151 O 0.20273 0.62131 0.60066 0.0
In152 In 0.64091 0.24058 0.72925 0.0
O153 O 0.71856 0.27831 0.71808 0.0
O154 O 0.69541 0.28792 0.76969 0.0
C155 C 0.60568 0.18244 0.67185 0.0
C156 C 0.61265 0.17889 0.78391 0.0
C157 C 0.61131 0.29871 0.71105 0.0
O158 O 0.64828 0.20734 0.67681 0.0
O159 O 0.58151 0.18631 0.69635 0.0
O160 O 0.60144 0.27826 0.74155 0.0
O161 O 0.63676 0.29078 0.69089 0.0
C162 C 0.72902 0.29718 0.74937 0.0
O163 O 0.59775 0.20616 0.77992 0.0
O164 O 0.64122 0.18254 0.75995 0.0
In165 In 0.41675 0.63161 0.89971 0.0
O166 O 0.34168 0.57808 0.90958 0.0
O167 O 0.35582 0.6422 0.88923 0.0
C168 C 0.45004 0.60425 0.95515 0.0
C169 C 0.43232 0.59642 0.83791 0.0
C170 C 0.46195 0.7227 0.91335 0.0
O171 O 0.41094 0.60032 0.956 0.0
O172 O 0.47239 0.62196 0.92613 0.0
O173 O 0.44584 0.70663 0.88189 0.0
O174 O 0.45466 0.69305 0.93736 0.0
C175 C 0.3258 0.60256 0.8987 0.0
O176 O 0.45246 0.63879 0.84415 0.0
O177 O 0.4047 0.57256 0.86254 0.0
In178 In 0.81971 0.42058 0.06293 0.0
O179 O 0.85207 0.40544 0.11203 0.0
O180 O 0.87802 0.47478 0.09725 0.0
C181 C 0.76312 0.33229 0.04209 0.0
C182 C 0.76489 0.45403 0.08344 0.0
C183 C 0.88006 0.45408 0.00716 0.0
O184 O 0.77771 0.34296 0.07461 0.0
O185 O 0.77601 0.36584 0.02089 0.0
O186 O 0.85274 0.4682 0.01417 0.0
O187 O 0.87738 0.42375 0.02882 0.0
C188 C 0.88 0.44691 0.11909 0.0
O189 O 0.77945 0.45775 0.05103 0.0
O190 O 0.77681 0.43259 0.10467 0.0
In191 In 0.41295 0.79718 0.224 0.0
O192 O 0.47268 0.78329 0.22972 0.0
O193 O 0.41347 0.73511 0.20054 0.0
C194 C 0.42781 0.84733 0.28609 0.0
C195 C 0.44469 0.85245 0.16468 0.0
C196 C 0.32247 0.738 0.23179 0.0
O197 O 0.43854 0.81675 0.28354 0.0
O198 O 0.40996 0.85244 0.25746 0.0
O199 O 0.33756 0.7758 0.21564 0.0
O200 O 0.35287 0.73047 0.24421 0.0
C201 C 0.45277 0.74602 0.21216 0.0
O202 O 0.40474 0.81863 0.16621 0.0
O203 O 0.46858 0.85806 0.19291 0.0
C204 C 0.19981 0.69664 0.25837 0.0
C205 C 0.18393 0.65082 0.26784 0.0
C206 C 0.24377 0.72408 0.24384 0.0
C207 C 0.27335 0.70667 0.2388 0.0
H208 H 0.17988 0.71253 0.26527 0.0
H209 H 0.25588 0.75998 0.23934 0.0
S210 S 0.24429 0.58652 0.25171 0.0
N211 N 0.19814 0.58738 0.26502 0.0
N212 N 0.28105 0.63913 0.23868 0.0
C213 C 0.25617 0.65988 0.24468 0.0
C214 C 0.21129 0.63186 0.25883 0.0
C215 C 0.59599 0.2204 0.44401 0.0
C216 C 0.54856 0.1905 0.44705 0.0
C217 C 0.61373 0.2645 0.42969 0.0
C218 C 0.58478 0.2803 0.41736 0.0
H219 H 0.61966 0.21025 0.45411 0.0
H220 H 0.65044 0.28679 0.42923 0.0
S221 S 0.4581 0.21495 0.41734 0.0
N222 N 0.47299 0.17964 0.43538 0.0
N223 N 0.50634 0.26181 0.40724 0.0
C224 C 0.53734 0.24998 0.41828 0.0
C225 C 0.51923 0.20524 0.43336 0.0
C226 C 0.40948 0.58015 0.59878 0.0
C227 C 0.38722 0.53358 0.60778 0.0
C228 C 0.38566 0.59958 0.58271 0.0
C229 C 0.33851 0.57326 0.57534 0.0
H230 H 0.44497 0.60227 0.60632 0.0
H231 H 0.40387 0.63611 0.57817 0.0
S232 S 0.26579 0.44843 0.58965 0.0
N233 N 0.31664 0.46062 0.60496 0.0
N234 N 0.27161 0.49705 0.57464 0.0
C235 C 0.31669 0.52588 0.58144 0.0
C236 C 0.34112 0.50605 0.59773 0.0
C237 C 0.82887 0.35644 0.81488 0.0
C238 C 0.86607 0.3845 0.79201 0.0
C239 C 0.78511 0.3284 0.80057 0.0
C240 C 0.77654 0.32615 0.76262 0.0
H241 H 0.83347 0.35625 0.84437 0.0
H242 H 0.75769 0.3081 0.81955 0.0
S243 S 0.86184 0.39088 0.69035 0.0
N244 N 0.89136 0.40756 0.72914 0.0
N245 N 0.8089 0.35315 0.702 0.0
C246 C 0.81346 0.35255 0.73908 0.0
C247 C 0.85825 0.38199 0.75381 0.0
C248 C 0.53601 0.83201 0.966 0.0
C249 C 0.5265 0.86355 0.9491 0.0
C250 C 0.51647 0.78711 0.95304 0.0
C251 C 0.48684 0.77205 0.92249 0.0
H252 H 0.55663 0.84142 -0.0092 0.0
H253 H 0.52337 0.76356 0.96794 0.0
S254 S 0.45361 0.84255 0.86703 0.0
N255 N 0.48748 0.87774 0.89937 0.0
N256 N 0.45131 0.79326 0.87419 0.0
C257 C 0.47923 0.80405 0.90393 0.0
C258 C 0.49887 0.84986 0.91749 0.0
C259 C 0.7135 0.50263 0.14895 0.0
C260 C 0.68656 0.51342 0.12618 0.0
C261 C 0.73845 0.48357 0.13464 0.0
C262 C 0.73844 0.4752 0.09679 0.0
H263 H 0.71498 0.50851 0.17836 0.0
H264 H 0.75808 0.47546 0.15357 0.0
S265 S 0.6755 0.49912 0.02486 0.0
N266 N 0.66223 0.51528 0.06361 0.0
N267 N 0.71064 0.48065 0.03637 0.0
C268 C 0.71312 0.48732 0.07334 0.0
C269 C 0.68696 0.50627 0.0881 0.0
C270 C 0.40958 0.84726 0.52641 0.0
C271 C 0.38722 0.87134 0.51721 0.0
C272 C 0.38617 0.80456 0.54347 0.0
C273 C 0.33934 0.78408 0.55167 0.0
H274 H 0.44473 0.86027 0.51828 0.0
H275 H 0.40433 0.78627 0.5481 0.0
S276 S 0.26672 0.836 0.53728 0.0
N277 N 0.31705 0.87403 0.52076 0.0
N278 N 0.27281 0.79364 0.55296 0.0
C279 C 0.31756 0.80955 0.5454 0.0
C280 C 0.34158 0.85325 0.52809 0.0
C281 C 0.56889 0.35512 0.64528 0.0
C282 C 0.55597 0.38027 0.6682 0.0
C283 C 0.58686 0.32933 0.65968 0.0
C284 C 0.59173 0.32645 0.69776 0.0
H285 H 0.56516 0.35532 0.61569 0.0
H286 H 0.59656 0.31102 0.64067 0.0
S287 S 0.56149 0.3839 0.77014 0.0
N288 N 0.54871 0.40006 0.73119 0.0
N289 N 0.58103 0.34966 0.75851 0.0
C290 C 0.57762 0.35001 0.72131 0.0
C291 C 0.55996 0.37722 0.70649 0.0
C292 C 0.21671 0.59935 0.87055 0.0
C293 C 0.18731 0.5528 0.86232 0.0
C294 C 0.26055 0.61497 0.88495 0.0
C295 C 0.27637 0.58456 0.89232 0.0
H296 H 0.2072 0.62434 0.86284 0.0
H297 H 0.28314 0.65142 0.88822 0.0
S298 S 0.20998 0.45852 0.88178 0.0
N299 N 0.17525 0.47593 0.8668 0.0
N300 N 0.25691 0.50505 0.8952 0.0
C301 C 0.24553 0.53747 0.88813 0.0
C302 C 0.20108 0.52161 0.87293 0.0
C303 C 0.71043 0.23193 0.97637 0.0
C304 C 0.68236 0.19432 -0.00114 0.0
C305 C 0.73604 0.27602 -0.00918 0.0
C306 C 0.73567 0.2846 0.02859 0.0
H307 H 0.71251 0.22737 0.94707 0.0
H308 H 0.7566 0.30363 0.97209 0.0
S309 S 0.66964 0.19826 0.09989 0.0
N310 N 0.65639 0.16861 0.06115 0.0
N311 N 0.70611 0.25174 0.08866 0.0
C312 C 0.70909 0.24732 0.05179 0.0
C313 C 0.68222 0.20215 0.03688 0.0
C314 C 0.54225 0.71465 0.18621 0.0
C315 C 0.5154 0.66841 0.17603 0.0
C316 C 0.52205 0.73916 0.20005 0.0
C317 C 0.47434 0.71833 0.20372 0.0
H318 H 0.57868 0.73277 0.18119 0.0
H319 H 0.54366 0.77527 0.20575 0.0
S320 S 0.39001 0.59611 0.1872 0.0
N321 N 0.4395 0.60128 0.17568 0.0
N322 N 0.40156 0.64743 0.20068 0.0
C323 C 0.44762 0.67136 0.19626 0.0
C324 C 0.46816 0.64637 0.18273 0.0
C325 C 0.85232 0.49506 0.36833 0.0
C326 C 0.86254 0.50662 0.33104 0.0
C327 C 0.80787 0.479 0.38189 0.0
C328 C 0.7723 0.4737 0.35849 0.0
H329 H 0.87839 0.49702 0.38678 0.0
H330 H 0.801 0.46928 0.41054 0.0
S331 S 0.78326 0.50587 0.25996 0.0
N332 N 0.83478 0.51685 0.27211 0.0
N333 N 0.75159 0.48573 0.29719 0.0
C334 C 0.78277 0.48722 0.32162 0.0
C335 C 0.82781 0.50398 0.30802 0.0
C336 C 0.19446 0.64551 0.40444 0.0
C337 C 0.15055 0.60867 0.39666 0.0
C338 C 0.21668 0.64812 0.43741 0.0
C339 C 0.19572 0.61445 0.46451 0.0
H340 H 0.21204 0.67282 0.38475 0.0
H341 H 0.25046 0.67731 0.44179 0.0
S342 S 0.08037 0.51156 0.45847 0.0
N343 N 0.08648 0.5379 0.41889 0.0
N344 N 0.12796 0.5434 0.48193 0.0
C345 C 0.15134 0.57781 0.45767 0.0
C346 C 0.12875 0.57488 0.42358 0.0
C347 C 0.59594 0.14278 0.57312 0.0
C348 C 0.5486 0.12075 0.56648 0.0
C349 C 0.6141 0.15992 0.60808 0.0
C350 C 0.58558 0.15582 0.63765 0.0
H351 H 0.61926 0.14892 0.55063 0.0
H352 H 0.65087 0.17874 0.61135 0.0
S353 S 0.45888 0.09624 0.63567 0.0
N354 N 0.47337 0.09238 0.59306 0.0
N355 N 0.50728 0.12371 0.65889 0.0
C356 C 0.53799 0.13077 0.63203 0.0
C357 C 0.51953 0.11341 0.59641 0.0
C358 C 0.46667 0.58622 0.74057 0.0
C359 C 0.44257 0.53876 0.73428 0.0
C360 C 0.46477 0.60462 0.77469 0.0
C361 C 0.4384 0.57622 0.80367 0.0
H362 H 0.48585 0.60936 0.71851 0.0
H363 H 0.48273 0.6414 0.77787 0.0
S364 S 0.37103 0.44946 0.80185 0.0
N365 N 0.39315 0.46371 0.76028 0.0
N366 N 0.38992 0.498 0.82446 0.0
C367 C 0.41585 0.52859 0.79824 0.0
C368 C 0.4179 0.50993 0.76355 0.0
C369 C 0.95305 0.4488 0.93111 0.0
C370 C 0.94578 0.47206 0.90232 0.0
C371 C 0.93457 0.4462 0.96604 0.0
C372 C 0.90821 0.46678 0.97342 0.0
H373 H 0.96967 0.42914 0.92582 0.0
H374 H 0.93842 0.42528 -0.01339 0.0
S375 S 0.88757 0.53961 0.90925 0.0
N376 N 0.9168 0.52192 0.88481 0.0
N377 N 0.88204 0.51726 0.95056 0.0
C378 C 0.90485 0.49414 0.94594 0.0
C379 C 0.92364 0.4967 0.91033 0.0
C380 C 0.53073 0.93162 0.09498 0.0
C381 C 0.50359 0.92482 0.06366 0.0
C382 C 0.51103 0.9101 0.12829 0.0
C383 C 0.46355 0.88082 0.13138 0.0
H384 H 0.56762 0.95088 0.09306 0.0
H385 H 0.53349 0.91434 0.15109 0.0
S386 S 0.37716 0.85887 0.05927 0.0
N387 N 0.42664 0.89239 0.03922 0.0
N388 N 0.3895 0.85139 0.10173 0.0
C389 C 0.43581 0.87691 0.10117 0.0
C390 C 0.45588 0.8991 0.06735 0.0
C391 C 0.62062 0.53499 0.26518 0.0
C392 C 0.59799 0.50655 0.23492 0.0
C393 C 0.62071 0.51646 0.29955 0.0
C394 C 0.59832 0.46889 0.30471 0.0
H395 H 0.64178 0.57155 0.26153 0.0
H396 H 0.64132 0.53955 0.32136 0.0
S397 S 0.52572 0.38051 0.23614 0.0
N398 N 0.54629 0.42925 0.21375 0.0
N399 N 0.54653 0.39416 0.27832 0.0
C400 C 0.57152 0.44039 0.27572 0.0
C401 C 0.5713 0.45932 0.2408 0.0
C402 C 0.46104 0.89161 0.38386 0.0
C403 C 0.43861 0.91664 0.38933 0.0
C404 C 0.4585 0.87039 0.35006 0.0
C405 C 0.4336 0.87355 0.32036 0.0
H406 H 0.47954 0.88718 0.4063 0.0
H407 H 0.47532 0.85049 0.34751 0.0
S408 S 0.36984 0.93628 0.31998 0.0
N409 N 0.39136 0.94402 0.36188 0.0
N410 N 0.38754 0.90526 0.29815 0.0
C411 C 0.41259 0.90007 0.32495 0.0
C412 C 0.41492 0.9214 0.35945 0.0
C413 C 0.52935 0.43852 0.52889 0.0
C414 C 0.5592 0.46344 0.55783 0.0
C415 C 0.54612 0.43595 0.49437 0.0
C416 C 0.59336 0.45812 0.4875 0.0
H417 H 0.49301 0.41763 0.53375 0.0
H418 H 0.52185 0.41401 0.4737 0.0
S419 S 0.68511 0.53546 0.55189 0.0
N420 N 0.63758 0.5166 0.57576 0.0
N421 N 0.66934 0.51158 0.51079 0.0
C422 C 0.62331 0.48686 0.51503 0.0
C423 C 0.60615 0.48958 0.55021 0.0
C424 C 0.19839 0.57236 0.72577 0.0
C425 C 0.15455 0.56513 0.73355 0.0
C426 C 0.22005 0.59131 0.69258 0.0
C427 C 0.19856 0.60314 0.66524 0.0
H428 H 0.21624 0.56299 0.74552 0.0
H429 H 0.25372 0.5959 0.68814 0.0
S430 S 0.08345 0.59057 0.67135 0.0
N431 N 0.09023 0.57127 0.71118 0.0
N432 N 0.13061 0.60591 0.64776 0.0
C433 C 0.15439 0.59552 0.67218 0.0
C434 C 0.13239 0.57658 0.70649 0.0
C435 C 0.57439 0.134 0.88005 0.0
C436 C 0.59942 0.11205 0.88755 0.0
C437 C 0.57586 0.1525 0.84532 0.0
C438 C 0.60246 0.14973 0.81686 0.0
H439 H 0.55633 0.13991 0.90199 0.0
H440 H 0.55853 0.17176 0.84161 0.0
S441 S 0.66782 0.08878 0.82062 0.0
N442 N 0.64688 0.0836 0.86242 0.0
N443 N 0.6489 0.11745 0.79693 0.0
C444 C 0.62376 0.12376 0.82291 0.0
C445 C 0.62235 0.10505 0.85832 0.0
C446 C 0.53877 0.61941 0.02548 0.0
C447 C 0.51193 0.59734 0.05642 0.0
C448 C 0.51841 0.61841 -0.00838 0.0
C449 C 0.47059 0.59563 -0.01222 0.0
H450 H 0.57549 0.64059 0.02814 0.0
H451 H 0.54023 0.63845 0.96919 0.0
S452 S 0.38587 0.52459 0.05846 0.0
N453 N 0.43572 0.54579 0.0795 0.0
N454 N 0.39734 0.54458 0.01607 0.0
C455 C 0.44365 0.5698 0.01752 0.0
C456 C 0.46439 0.57046 0.0518 0.0
C457 C 0.95324 0.52551 0.19548 0.0
C458 C 0.94446 0.4951 0.22466 0.0
C459 C 0.93525 0.50939 0.16033 0.0
C460 C 0.90789 0.4623 0.15315 0.0
H461 H 0.97059 0.56197 0.20055 0.0
H462 H 0.9402 0.53415 0.1394 0.0
S463 S 0.88318 0.36883 0.21862 0.0
N464 N 0.91301 0.41607 0.24293 0.0
N465 N 0.87919 0.38548 0.1768 0.0
C466 C 0.90309 0.43158 0.18113 0.0
C467 C 0.92139 0.44807 0.21694 0.0
loop_
_geom_bond_atom_site_label_1
_geom_bond_atom_site_label_2
_geom_bond_distance
_geom_bond_site_symmetry_2
_ccdc_geom_bond_type
H0 C8 0.930 . S
H1 C11 0.930 . S
H2 C13 0.930 . S
H3 C14 0.970 . S
H4 C14 0.970 . S
H5 C16 0.930 . S
H6 C18 0.930 . S
H7 C20 0.930 . S
C8 H0 0.930 . S
C8 C9 1.382 . S
C8 C10 1.426 . S
C9 C8 1.382 . S
C9 C13 1.389 . S
C10 C8 1.426 . S
C10 C11 1.375 . S
C10 C14 1.532 1_655 S
C11 H1 0.930 . S
C11 C10 1.375 . S
C11 C12 1.416 . S
C12 C11 1.416 . S
C12 C13 1.371 . S
C13 H2 0.930 . S
C13 C9 1.389 . S
C13 C12 1.371 . S
C14 H3 0.970 . S
C14 H4 0.970 . S
C14 C10 1.532 1_455 S
C14 C15 1.499 . S
C15 C14 1.499 . S
C15 C16 1.370 . S
C15 C20 1.415 . S
C16 H5 0.930 . S
C16 C15 1.370 . S
C16 C17 1.407 . S
C17 C16 1.407 . S
C17 C18 1.365 . S
C18 H6 0.930 . S
C18 C17 1.365 . S
C18 C19 1.393 . S
C19 C18 1.393 . S
C19 C20 1.387 . S
C20 H7 0.930 . S
C20 C15 1.415 . S
C20 C19 1.387 . S
H21 C29 0.930 . S
H22 C32 0.930 . S
H23 C34 0.930 . S
H24 C35 0.970 . S
H25 C35 0.970 . S
H26 C37 0.930 . S
H27 C39 0.930 . S
H28 C41 0.930 . S
C29 H21 0.930 . S
C29 C30 1.382 . S
C29 C31 1.426 . S
C30 C29 1.382 . S
C30 C34 1.389 . S
C31 C29 1.426 . S
C31 C32 1.375 . S
C31 C35 1.532 1_565 S
C32 H22 0.930 . S
C32 C31 1.375 . S
C32 C33 1.416 . S
C33 C32 1.416 . S
C33 C34 1.371 . S
C34 H23 0.930 . S
C34 C30 1.389 . S
C34 C33 1.371 . S
C35 H24 0.970 . S
C35 H25 0.970 . S
C35 C31 1.532 1_545 S
C35 C36 1.499 . S
C36 C35 1.499 . S
C36 C37 1.370 . S
C36 C41 1.415 . S
C37 H26 0.930 . S
C37 C36 1.370 . S
C37 C38 1.407 . S
C38 C37 1.407 . S
C38 C39 1.365 . S
C39 H27 0.930 . S
C39 C38 1.365 . S
C39 C40 1.393 . S
C40 C39 1.393 . S
C40 C41 1.387 . S
C41 H28 0.930 . S
C41 C36 1.415 . S
C41 C40 1.387 . S
H42 C50 0.930 . S
H43 C53 0.930 . S
H44 C55 0.930 . S
H45 C56 0.970 . S
H46 C56 0.970 . S
H47 C58 0.930 . S
H48 C60 0.930 . S
H49 C62 0.930 . S
C50 H42 0.930 . S
C50 C51 1.382 . S
C50 C52 1.426 . S
C51 C50 1.382 . S
C51 C55 1.389 . S
C52 C50 1.426 . S
C52 C53 1.375 . S
C52 C56 1.532 . S
C53 H43 0.930 . S
C53 C52 1.375 . S
C53 C54 1.416 . S
C54 C53 1.416 . S
C54 C55 1.371 . S
C55 H44 0.930 . S
C55 C51 1.389 . S
C55 C54 1.371 . S
C56 H45 0.970 . S
C56 H46 0.970 . S
C56 C52 1.532 . S
C56 C57 1.499 . S
C57 C56 1.499 . S
C57 C58 1.370 . S
C57 C62 1.415 . S
C58 H47 0.930 . S
C58 C57 1.370 . S
C58 C59 1.407 . S
C59 C58 1.407 . S
C59 C60 1.365 . S
C60 H48 0.930 . S
C60 C59 1.365 . S
C60 C61 1.393 . S
C61 C60 1.393 . S
C61 C62 1.387 . S
C62 H49 0.930 . S
C62 C57 1.415 . S
C62 C61 1.387 . S
H63 C71 0.930 . S
H64 C74 0.930 . S
H65 C76 0.930 . S
H66 C77 0.970 . S
H67 C77 0.970 . S
H68 C79 0.930 . S
H69 C81 0.930 . S
H70 C83 0.930 . S
C71 H63 0.930 . S
C71 C72 1.382 . S
C71 C73 1.426 . S
C72 C71 1.382 . S
C72 C76 1.389 . S
C73 C71 1.426 . S
C73 C74 1.375 . S
C73 C77 1.532 1_655 S
C74 H64 0.930 . S
C74 C73 1.375 . S
C74 C75 1.416 . S
C75 C74 1.416 . S
C75 C76 1.371 . S
C76 H65 0.930 . S
C76 C72 1.389 . S
C76 C75 1.371 . S
C77 H66 0.970 . S
C77 H67 0.970 . S
C77 C73 1.532 1_455 S
C77 C78 1.499 . S
C78 C77 1.499 . S
C78 C79 1.370 . S
C78 C83 1.415 . S
C79 H68 0.930 . S
C79 C78 1.370 . S
C79 C80 1.407 . S
C80 C79 1.407 . S
C80 C81 1.365 . S
C81 H69 0.930 . S
C81 C80 1.365 . S
C81 C82 1.393 . S
C82 C81 1.393 . S
C82 C83 1.387 . S
C83 H70 0.930 . S
C83 C78 1.415 . S
C83 C82 1.387 . S
H84 C92 0.930 . S
H85 C95 0.930 . S
H86 C97 0.930 . S
H87 C98 0.970 1_554 S
H88 C98 0.970 . S
H89 C100 0.930 . S
H90 C102 0.930 . S
H91 C104 0.930 . S
C92 H84 0.930 . S
C92 C93 1.381 1_554 S
C92 C94 1.426 1_554 S
C93 C92 1.381 1_556 S
C93 C97 1.391 . S
C94 C92 1.426 1_556 S
C94 C95 1.375 . S
C94 C98 1.532 . S
C95 H85 0.930 . S
C95 C94 1.375 . S
C95 C96 1.416 . S
C96 C95 1.416 . S
C96 C97 1.371 . S
C97 H86 0.930 . S
C97 C93 1.391 . S
C97 C96 1.371 . S
C98 H87 0.970 1_556 S
C98 H88 0.970 . S
C98 C94 1.532 . S
C98 C99 1.499 1_546 S
C99 C98 1.499 1_564 S
C99 C100 1.370 . S
C99 C104 1.415 1_554 S
C100 H89 0.930 . S
C100 C99 1.370 . S
C100 C101 1.407 . S
C101 C100 1.407 . S
C101 C102 1.365 . S
C102 H90 0.930 . S
C102 C101 1.365 . S
C102 C103 1.393 1_554 S
C103 C102 1.393 1_556 S
C103 C104 1.387 . S
C104 H91 0.930 . S
C104 C99 1.415 1_556 S
C104 C103 1.387 . S
H105 C113 0.930 . S
H106 C116 0.930 . S
H107 C118 0.930 . S
H108 C119 0.970 . S
H109 C119 0.970 . S
H110 C121 0.930 . S
H111 C123 0.930 . S
H112 C125 0.930 . S
C113 H105 0.930 . S
C113 C114 1.382 . S
C113 C115 1.426 . S
C114 C113 1.382 . S
C114 C118 1.389 . S
C115 C113 1.426 . S
C115 C116 1.375 . S
C115 C119 1.532 . S
C116 H106 0.930 . S
C116 C115 1.375 . S
C116 C117 1.416 . S
C117 C116 1.416 . S
C117 C118 1.371 . S
C118 H107 0.930 . S
C118 C114 1.389 . S
C118 C117 1.371 . S
C119 H108 0.970 . S
C119 H109 0.970 . S
C119 C115 1.532 . S
C119 C120 1.499 . S
C120 C119 1.499 . S
C120 C121 1.370 . S
C120 C125 1.415 . S
C121 H110 0.930 . S
C121 C120 1.370 . S
C121 C122 1.407 . S
C122 C121 1.407 . S
C122 C123 1.365 . S
C123 H111 0.930 . S
C123 C122 1.365 . S
C123 C124 1.393 . S
C124 C123 1.393 . S
C124 C125 1.387 . S
C125 H112 0.930 . S
C125 C120 1.415 . S
C125 C124 1.387 . S
In126 O127 2.294 . S
In126 O128 2.326 . S
In126 O132 2.266 . S
In126 O133 2.326 . S
In126 O134 2.266 . S
In126 O135 2.326 . S
In126 O137 2.294 . S
In126 O138 2.326 . S
O127 In126 2.294 . S
O127 C136 1.240 . S
O128 In126 2.326 . S
O128 C136 1.252 . S
C129 O132 1.252 . S
C129 O133 1.260 . S
C130 O137 1.240 . S
C130 O138 1.252 . S
C131 O134 1.252 . S
C131 O135 1.260 . S
O132 In126 2.266 . S
O132 C129 1.252 . S
O133 In126 2.326 . S
O133 C129 1.260 . S
O134 In126 2.266 . S
O134 C131 1.252 . S
O135 In126 2.326 . S
O135 C131 1.260 . S
C136 O127 1.240 . S
C136 O128 1.252 . S
O137 In126 2.294 . S
O137 C130 1.240 . S
O138 In126 2.326 . S
O138 C130 1.252 . S
In139 O140 2.294 . S
In139 O141 2.326 . S
In139 O145 2.266 . S
In139 O146 2.326 . S
In139 O147 2.266 . S
In139 O148 2.326 . S
In139 O150 2.294 . S
In139 O151 2.326 . S
O140 In139 2.294 . S
O140 C149 1.240 . S
O141 In139 2.326 . S
O141 C149 1.252 . S
C142 O145 1.252 . S
C142 O146 1.260 . S
C143 O150 1.240 . S
C143 O151 1.252 . S
C144 O147 1.252 . S
C144 O148 1.260 . S
O145 In139 2.266 . S
O145 C142 1.252 . S
O146 In139 2.326 . S
O146 C142 1.260 . S
O147 In139 2.266 . S
O147 C144 1.252 . S
O148 In139 2.326 . S
O148 C144 1.260 . S
C149 O140 1.240 . S
C149 O141 1.252 . S
O150 In139 2.294 . S
O150 C143 1.240 . S
O151 In139 2.326 . S
O151 C143 1.252 . S
In152 O153 2.294 . S
In152 O154 2.326 . S
In152 O158 2.266 . S
In152 O159 2.326 . S
In152 O160 2.266 . S
In152 O161 2.326 . S
In152 O163 2.294 . S
In152 O164 2.326 . S
O153 In152 2.294 . S
O153 C162 1.240 . S
O154 In152 2.326 . S
O154 C162 1.252 . S
C155 O158 1.252 . S
C155 O159 1.260 . S
C156 O163 1.240 . S
C156 O164 1.252 . S
C157 O160 1.252 . S
C157 O161 1.260 . S
O158 In152 2.266 . S
O158 C155 1.252 . S
O159 In152 2.326 . S
O159 C155 1.260 . S
O160 In152 2.266 . S
O160 C157 1.252 . S
O161 In152 2.326 . S
O161 C157 1.260 . S
C162 O153 1.240 . S
C162 O154 1.252 . S
O163 In152 2.294 . S
O163 C156 1.240 . S
O164 In152 2.326 . S
O164 C156 1.252 . S
In165 O166 2.294 . S
In165 O167 2.326 . S
In165 O171 2.266 . S
In165 O172 2.326 . S
In165 O173 2.266 . S
In165 O174 2.326 . S
In165 O176 2.294 . S
In165 O177 2.326 . S
O166 In165 2.294 . S
O166 C175 1.240 . S
O167 In165 2.326 . S
O167 C175 1.252 . S
C168 O171 1.252 . S
C168 O172 1.260 . S
C169 O176 1.240 . S
C169 O177 1.252 . S
C170 O173 1.252 . S
C170 O174 1.260 . S
O171 In165 2.266 . S
O171 C168 1.252 . S
O172 In165 2.326 . S
O172 C168 1.260 . S
O173 In165 2.266 . S
O173 C170 1.252 . S
O174 In165 2.326 . S
O174 C170 1.260 . S
C175 O166 1.240 . S
C175 O167 1.252 . S
O176 In165 2.294 . S
O176 C169 1.240 . S
O177 In165 2.326 . S
O177 C169 1.252 . S
In178 O179 2.294 . S
In178 O180 2.326 . S
In178 O184 2.266 . S
In178 O185 2.326 . S
In178 O186 2.266 . S
In178 O187 2.326 . S
In178 O189 2.294 . S
In178 O190 2.326 . S
O179 In178 2.294 . S
O179 C188 1.240 . S
O180 In178 2.326 . S
O180 C188 1.252 . S
C181 O184 1.252 . S
C181 O185 1.260 . S
C182 O189 1.240 . S
C182 O190 1.252 . S
C183 O186 1.252 . S
C183 O187 1.260 . S
O184 In178 2.266 . S
O184 C181 1.252 . S
O185 In178 2.326 . S
O185 C181 1.260 . S
O186 In178 2.266 . S
O186 C183 1.252 . S
O187 In178 2.326 . S
O187 C183 1.260 . S
C188 O179 1.240 . S
C188 O180 1.252 . S
O189 In178 2.294 . S
O189 C182 1.240 . S
O190 In178 2.326 . S
O190 C182 1.252 . S
In191 O192 2.294 . S
In191 O193 2.326 . S
In191 O197 2.266 . S
In191 O198 2.326 . S
In191 O199 2.266 . S
In191 O200 2.326 . S
In191 O202 2.294 . S
In191 O203 2.326 . S
O192 In191 2.294 . S
O192 C201 1.240 . S
O193 In191 2.326 . S
O193 C201 1.252 . S
C194 O197 1.252 . S
C194 O198 1.260 . S
C195 O202 1.240 . S
C195 O203 1.252 . S
C196 O199 1.252 . S
C196 O200 1.260 . S
O197 In191 2.266 . S
O197 C194 1.252 . S
O198 In191 2.326 . S
O198 C194 1.260 . S
O199 In191 2.266 . S
O199 C196 1.252 . S
O200 In191 2.326 . S
O200 C196 1.260 . S
C201 O192 1.240 . S
C201 O193 1.252 . S
O202 In191 2.294 . S
O202 C195 1.240 . S
O203 In191 2.326 . S
O203 C195 1.252 . S
C204 C205 1.369 . S
C204 C206 1.419 . S
C204 H208 0.930 . S
C205 C204 1.369 . S
C205 C214 1.429 . S
C206 C204 1.419 . S
C206 C207 1.363 . S
C206 H209 0.929 . S
C207 C206 1.363 . S
C207 C213 1.428 . S
H208 C204 0.930 . S
H209 C206 0.929 . S
S210 N211 1.613 . S
S210 N212 1.610 . S
N211 S210 1.613 . S
N211 C214 1.350 . S
N212 S210 1.610 . S
N212 C213 1.351 . S
C213 C207 1.428 . S
C213 N212 1.351 . S
C213 C214 1.434 . S
C214 C205 1.429 . S
C214 N211 1.350 . S
C214 C213 1.434 . S
C215 C216 1.369 . S
C215 C217 1.419 . S
C215 H219 0.930 . S
C216 C215 1.369 . S
C216 C225 1.429 . S
C217 C215 1.419 . S
C217 C218 1.363 . S
C217 H220 0.929 . S
C218 C217 1.363 . S
C218 C224 1.428 . S
H219 C215 0.930 . S
H220 C217 0.929 . S
S221 N222 1.613 . S
S221 N223 1.610 . S
N222 S221 1.613 . S
N222 C225 1.350 . S
N223 S221 1.610 . S
N223 C224 1.351 . S
C224 C218 1.428 . S
C224 N223 1.351 . S
C224 C225 1.434 . S
C225 C216 1.429 . S
C225 N222 1.350 . S
C225 C224 1.434 . S
C226 C227 1.369 . S
C226 C228 1.419 . S
C226 H230 0.930 . S
C227 C226 1.369 . S
C227 C236 1.429 . S
C228 C226 1.419 . S
C228 C229 1.363 . S
C228 H231 0.929 . S
C229 C228 1.363 . S
C229 C235 1.428 . S
H230 C226 0.930 . S
H231 C228 0.929 . S
S232 N233 1.613 . S
S232 N234 1.610 . S
N233 S232 1.613 . S
N233 C236 1.350 . S
N234 S232 1.610 . S
N234 C235 1.351 . S
C235 C229 1.428 . S
C235 N234 1.351 . S
C235 C236 1.434 . S
C236 C227 1.429 . S
C236 N233 1.350 . S
C236 C235 1.434 . S
C237 C238 1.369 . S
C237 C239 1.419 . S
C237 H241 0.930 . S
C238 C237 1.369 . S
C238 C247 1.429 . S
C239 C237 1.419 . S
C239 C240 1.363 . S
C239 H242 0.929 . S
C240 C239 1.363 . S
C240 C246 1.428 . S
H241 C237 0.930 . S
H242 C239 0.929 . S
S243 N244 1.613 . S
S243 N245 1.610 . S
N244 S243 1.613 . S
N244 C247 1.350 . S
N245 S243 1.610 . S
N245 C246 1.351 . S
C246 C240 1.428 . S
C246 N245 1.351 . S
C246 C247 1.434 . S
C247 C238 1.429 . S
C247 N244 1.350 . S
C247 C246 1.434 . S
C248 C249 1.369 . S
C248 C250 1.419 . S
C248 H252 0.930 1_556 S
C249 C248 1.369 . S
C249 C258 1.429 . S
C250 C248 1.419 . S
C250 C251 1.363 . S
C250 H253 0.929 . S
C251 C250 1.363 . S
C251 C257 1.428 . S
H252 C248 0.930 1_554 S
H253 C250 0.929 . S
S254 N255 1.613 . S
S254 N256 1.610 . S
N255 S254 1.613 . S
N255 C258 1.350 . S
N256 S254 1.610 . S
N256 C257 1.351 . S
C257 C251 1.428 . S
C257 N256 1.351 . S
C257 C258 1.434 . S
C258 C249 1.429 . S
C258 N255 1.350 . S
C258 C257 1.434 . S
C259 C260 1.369 . S
C259 C261 1.419 . S
C259 H263 0.930 . S
C260 C259 1.369 . S
C260 C269 1.429 . S
C261 C259 1.419 . S
C261 C262 1.363 . S
C261 H264 0.929 . S
C262 C261 1.363 . S
C262 C268 1.428 . S
H263 C259 0.930 . S
H264 C261 0.929 . S
S265 N266 1.613 . S
S265 N267 1.610 . S
N266 S265 1.613 . S
N266 C269 1.350 . S
N267 S265 1.610 . S
N267 C268 1.351 . S
C268 C262 1.428 . S
C268 N267 1.351 . S
C268 C269 1.434 . S
C269 C260 1.429 . S
C269 N266 1.350 . S
C269 C268 1.434 . S
C270 C271 1.369 . S
C270 C272 1.419 . S
C270 H274 0.930 . S
C271 C270 1.369 . S
C271 C280 1.429 . S
C272 C270 1.419 . S
C272 C273 1.363 . S
C272 H275 0.929 . S
C273 C272 1.363 . S
C273 C279 1.428 . S
H274 C270 0.930 . S
H275 C272 0.929 . S
S276 N277 1.613 . S
S276 N278 1.610 . S
N277 S276 1.613 . S
N277 C280 1.350 . S
N278 S276 1.610 . S
N278 C279 1.351 . S
C279 C273 1.428 . S
C279 N278 1.351 . S
C279 C280 1.434 . S
C280 C271 1.429 . S
C280 N277 1.350 . S
C280 C279 1.434 . S
C281 C282 1.369 . S
C281 C283 1.419 . S
C281 H285 0.930 . S
C282 C281 1.369 . S
C282 C291 1.429 . S
C283 C281 1.419 . S
C283 C284 1.363 . S
C283 H286 0.929 . S
C284 C283 1.363 . S
C284 C290 1.428 . S
H285 C281 0.930 . S
H286 C283 0.929 . S
S287 N288 1.613 . S
S287 N289 1.610 . S
N288 S287 1.613 . S
N288 C291 1.350 . S
N289 S287 1.610 . S
N289 C290 1.351 . S
C290 C284 1.428 . S
C290 N289 1.351 . S
C290 C291 1.434 . S
C291 C282 1.429 . S
C291 N288 1.350 . S
C291 C290 1.434 . S
C292 C293 1.369 . S
C292 C294 1.419 . S
C292 H296 0.930 . S
C293 C292 1.369 . S
C293 C302 1.429 . S
C294 C292 1.419 . S
C294 C295 1.363 . S
C294 H297 0.929 . S
C295 C294 1.363 . S
C295 C301 1.428 . S
H296 C292 0.930 . S
H297 C294 0.929 . S
S298 N299 1.613 . S
S298 N300 1.610 . S
N299 S298 1.613 . S
N299 C302 1.350 . S
N300 S298 1.610 . S
N300 C301 1.351 . S
C301 C295 1.428 . S
C301 N300 1.351 . S
C301 C302 1.434 . S
C302 C293 1.429 . S
C302 N299 1.350 . S
C302 C301 1.434 . S
C303 C304 1.369 1_556 S
C303 C305 1.419 1_556 S
C303 H307 0.930 . S
C304 C303 1.369 1_554 S
C304 C313 1.429 . S
C305 C303 1.419 1_554 S
C305 C306 1.363 . S
C305 H308 0.929 1_554 S
C306 C305 1.363 . S
C306 C312 1.428 . S
H307 C303 0.930 . S
H308 C305 0.929 1_556 S
S309 N310 1.613 . S
S309 N311 1.610 . S
N310 S309 1.613 . S
N310 C313 1.350 . S
N311 S309 1.610 . S
N311 C312 1.351 . S
C312 C306 1.428 . S
C312 N311 1.351 . S
C312 C313 1.434 . S
C313 C304 1.429 . S
C313 N310 1.350 . S
C313 C312 1.434 . S
C314 C315 1.369 . S
C314 C316 1.419 . S
C314 H318 0.930 . S
C315 C314 1.369 . S
C315 C324 1.429 . S
C316 C314 1.419 . S
C316 C317 1.363 . S
C316 H319 0.929 . S
C317 C316 1.363 . S
C317 C323 1.428 . S
H318 C314 0.930 . S
H319 C316 0.929 . S
S320 N321 1.613 . S
S320 N322 1.610 . S
N321 S320 1.613 . S
N321 C324 1.350 . S
N322 S320 1.610 . S
N322 C323 1.351 . S
C323 C317 1.428 . S
C323 N322 1.351 . S
C323 C324 1.434 . S
C324 C315 1.429 . S
C324 N321 1.350 . S
C324 C323 1.434 . S
C325 C326 1.369 . S
C325 C327 1.419 . S
C325 H329 0.930 . S
C326 C325 1.369 . S
C326 C335 1.429 . S
C327 C325 1.419 . S
C327 C328 1.363 . S
C327 H330 0.929 . S
C328 C327 1.363 . S
C328 C334 1.428 . S
H329 C325 0.930 . S
H330 C327 0.929 . S
S331 N332 1.613 . S
S331 N333 1.610 . S
N332 S331 1.613 . S
N332 C335 1.350 . S
N333 S331 1.610 . S
N333 C334 1.351 . S
C334 C328 1.428 . S
C334 N333 1.351 . S
C334 C335 1.434 . S
C335 C326 1.429 . S
C335 N332 1.350 . S
C335 C334 1.434 . S
C336 C337 1.369 . S
C336 C338 1.419 . S
C336 H340 0.930 . S
C337 C336 1.369 . S
C337 C346 1.429 . S
C338 C336 1.419 . S
C338 C339 1.363 . S
C338 H341 0.929 . S
C339 C338 1.363 . S
C339 C345 1.428 . S
H340 C336 0.930 . S
H341 C338 0.929 . S
S342 N343 1.613 . S
S342 N344 1.610 . S
N343 S342 1.613 . S
N343 C346 1.350 . S
N344 S342 1.610 . S
N344 C345 1.351 . S
C345 C339 1.428 . S
C345 N344 1.351 . S
C345 C346 1.434 . S
C346 C337 1.429 . S
C346 N343 1.350 . S
C346 C345 1.434 . S
C347 C348 1.369 . S
C347 C349 1.419 . S
C347 H351 0.930 . S
C348 C347 1.369 . S
C348 C357 1.429 . S
C349 C347 1.419 . S
C349 C350 1.363 . S
C349 H352 0.929 . S
C350 C349 1.363 . S
C350 C356 1.428 . S
H351 C347 0.930 . S
H352 C349 0.929 . S
S353 N354 1.613 . S
S353 N355 1.610 . S
N354 S353 1.613 . S
N354 C357 1.350 . S
N355 S353 1.610 . S
N355 C356 1.351 . S
C356 C350 1.428 . S
C356 N355 1.351 . S
C356 C357 1.434 . S
C357 C348 1.429 . S
C357 N354 1.350 . S
C357 C356 1.434 . S
C358 C359 1.369 . S
C358 C360 1.419 . S
C358 H362 0.930 . S
C359 C358 1.369 . S
C359 C368 1.429 . S
C360 C358 1.419 . S
C360 C361 1.363 . S
C360 H363 0.929 . S
C361 C360 1.363 . S
C361 C367 1.428 . S
H362 C358 0.930 . S
H363 C360 0.929 . S
S364 N365 1.613 . S
S364 N366 1.610 . S
N365 S364 1.613 . S
N365 C368 1.350 . S
N366 S364 1.610 . S
N366 C367 1.351 . S
C367 C361 1.428 . S
C367 N366 1.351 . S
C367 C368 1.434 . S
C368 C359 1.429 . S
C368 N365 1.350 . S
C368 C367 1.434 . S
C369 C370 1.369 . S
C369 C371 1.419 . S
C369 H373 0.930 . S
C370 C369 1.369 . S
C370 C379 1.429 . S
C371 C369 1.419 . S
C371 C372 1.363 . S
C371 H374 0.929 . S
C372 C371 1.363 . S
C372 C378 1.428 . S
H373 C369 0.930 . S
H374 C371 0.929 . S
S375 N376 1.613 . S
S375 N377 1.610 . S
N376 S375 1.613 . S
N376 C379 1.350 . S
N377 S375 1.610 . S
N377 C378 1.351 . S
C378 C372 1.428 . S
C378 N377 1.351 . S
C378 C379 1.434 . S
C379 C370 1.429 . S
C379 N376 1.350 . S
C379 C378 1.434 . S
C380 C381 1.369 . S
C380 C382 1.419 . S
C380 H384 0.930 . S
C381 C380 1.369 . S
C381 C390 1.429 . S
C382 C380 1.419 . S
C382 C383 1.363 . S
C382 H385 0.929 . S
C383 C382 1.363 . S
C383 C389 1.428 . S
H384 C380 0.930 . S
H385 C382 0.929 . S
S386 N387 1.613 . S
S386 N388 1.610 . S
N387 S386 1.613 . S
N387 C390 1.350 . S
N388 S386 1.610 . S
N388 C389 1.351 . S
C389 C383 1.428 . S
C389 N388 1.351 . S
C389 C390 1.434 . S
C390 C381 1.429 . S
C390 N387 1.350 . S
C390 C389 1.434 . S
C391 C392 1.369 . S
C391 C393 1.419 . S
C391 H395 0.930 . S
C392 C391 1.369 . S
C392 C401 1.429 . S
C393 C391 1.419 . S
C393 C394 1.363 . S
C393 H396 0.929 . S
C394 C393 1.363 . S
C394 C400 1.428 . S
H395 C391 0.930 . S
H396 C393 0.929 . S
S397 N398 1.613 . S
S397 N399 1.610 . S
N398 S397 1.613 . S
N398 C401 1.350 . S
N399 S397 1.610 . S
N399 C400 1.351 . S
C400 C394 1.428 . S
C400 N399 1.351 . S
C400 C401 1.434 . S
C401 C392 1.429 . S
C401 N398 1.350 . S
C401 C400 1.434 . S
C402 C403 1.369 . S
C402 C404 1.419 . S
C402 H406 0.930 . S
C403 C402 1.369 . S
C403 C412 1.429 . S
C404 C402 1.419 . S
C404 C405 1.363 . S
C404 H407 0.929 . S
C405 C404 1.363 . S
C405 C411 1.428 . S
H406 C402 0.930 . S
H407 C404 0.929 . S
S408 N409 1.613 . S
S408 N410 1.610 . S
N409 S408 1.613 . S
N409 C412 1.350 . S
N410 S408 1.610 . S
N410 C411 1.351 . S
C411 C405 1.428 . S
C411 N410 1.351 . S
C411 C412 1.434 . S
C412 C403 1.429 . S
C412 N409 1.350 . S
C412 C411 1.434 . S
C413 C414 1.369 . S
C413 C415 1.419 . S
C413 H417 0.930 . S
C414 C413 1.369 . S
C414 C423 1.429 . S
C415 C413 1.419 . S
C415 C416 1.363 . S
C415 H418 0.929 . S
C416 C415 1.363 . S
C416 C422 1.428 . S
H417 C413 0.930 . S
H418 C415 0.929 . S
S419 N420 1.613 . S
S419 N421 1.610 . S
N420 S419 1.613 . S
N420 C423 1.350 . S
N421 S419 1.610 . S
N421 C422 1.351 . S
C422 C416 1.428 . S
C422 N421 1.351 . S
C422 C423 1.434 . S
C423 C414 1.429 . S
C423 N420 1.350 . S
C423 C422 1.434 . S
C424 C425 1.369 . S
C424 C426 1.419 . S
C424 H428 0.930 . S
C425 C424 1.369 . S
C425 C434 1.429 . S
C426 C424 1.419 . S
C426 C427 1.363 . S
C426 H429 0.929 . S
C427 C426 1.363 . S
C427 C433 1.428 . S
H428 C424 0.930 . S
H429 C426 0.929 . S
S430 N431 1.613 . S
S430 N432 1.610 . S
N431 S430 1.613 . S
N431 C434 1.350 . S
N432 S430 1.610 . S
N432 C433 1.351 . S
C433 C427 1.428 . S
C433 N432 1.351 . S
C433 C434 1.434 . S
C434 C425 1.429 . S
C434 N431 1.350 . S
C434 C433 1.434 . S
C435 C436 1.369 . S
C435 C437 1.419 . S
C435 H439 0.930 . S
C436 C435 1.369 . S
C436 C445 1.429 . S
C437 C435 1.419 . S
C437 C438 1.363 . S
C437 H440 0.929 . S
C438 C437 1.363 . S
C438 C444 1.428 . S
H439 C435 0.930 . S
H440 C437 0.929 . S
S441 N442 1.613 . S
S441 N443 1.610 . S
N442 S441 1.613 . S
N442 C445 1.350 . S
N443 S441 1.610 . S
N443 C444 1.351 . S
C444 C438 1.428 . S
C444 N443 1.351 . S
C444 C445 1.434 . S
C445 C436 1.429 . S
C445 N442 1.350 . S
C445 C444 1.434 . S
C446 C447 1.369 . S
C446 C448 1.419 . S
C446 H450 0.930 . S
C447 C446 1.369 . S
C447 C456 1.429 . S
C448 C446 1.419 . S
C448 C449 1.363 . S
C448 H451 0.929 1_554 S
C449 C448 1.363 . S
C449 C455 1.428 . S
H450 C446 0.930 . S
H451 C448 0.929 1_556 S
S452 N453 1.613 . S
S452 N454 1.610 . S
N453 S452 1.613 . S
N453 C456 1.350 . S
N454 S452 1.610 . S
N454 C455 1.351 . S
C455 C449 1.428 . S
C455 N454 1.351 . S
C455 C456 1.434 . S
C456 C447 1.429 . S
C456 N453 1.350 . S
C456 C455 1.434 . S
C457 C458 1.369 . S
C457 C459 1.419 . S
C457 H461 0.930 . S
C458 C457 1.369 . S
C458 C467 1.429 . S
C459 C457 1.419 . S
C459 C460 1.363 . S
C459 H462 0.929 . S
C460 C459 1.363 . S
C460 C466 1.428 . S
H461 C457 0.930 . S
H462 C459 0.929 . S
S463 N464 1.613 . S
S463 N465 1.610 . S
N464 S463 1.613 . S
N464 C467 1.350 . S
N465 S463 1.610 . S
N465 C466 1.351 . S
C466 C460 1.428 . S
C466 N465 1.351 . S
C466 C467 1.434 . S
C467 C458 1.429 . S
C467 N464 1.350 . S
C467 C466 1.434 . S
C207 C196 1.581 . S
C205 C19 1.515 . S
C216 C40 1.520 . S
C218 C131 1.584 . S
C227 C51 1.513 . S
C229 C149 1.588 . S
C238 C72 1.507 . S
C240 C162 1.576 . S
C251 C170 1.583 . S
C249 C103 1.523 . S
C260 C114 1.513 . S
C262 C182 1.582 . S
C271 C30 1.521 . S
C273 C144 1.594 . S
C282 C61 1.523 . S
C284 C157 1.582 . S
C293 C82 1.513 . S
C295 C175 1.576 . S
C306 C181 1.588 . S
C304 C93 1.515 1_554 S
C317 C201 1.573 . S
C315 C124 1.514 . S
C328 C136 1.581 . S
C326 C9 1.503 . S
C337 C17 1.517 . S
C339 C142 1.583 . S
C348 C38 1.513 . S
C350 C155 1.582 . S
C361 C169 1.577 . S
C359 C54 1.501 . S
C370 C75 1.515 . S
C372 C183 1.586 1_556 S
C383 C195 1.575 . S
C381 C101 1.509 . S
C394 C130 1.577 . S
C392 C117 1.509 . S
C405 C194 1.580 . S
C403 C33 1.504 . S
C414 C59 1.514 . S
C416 C129 1.580 . S
C427 C143 1.582 . S
C425 C80 1.515 . S
C436 C96 1.497 . S
C438 C156 1.574 . S
C447 C122 1.512 . S
C449 C168 1.583 1_554 S
C458 C12 1.512 . S
C460 C188 1.582 . S
