# Generated by pormake.
# Topology ant, (3,6)-cn, num edge types: 1
# Building blocks:
#     Node 0, Type 0, BuildingBlock: PAMTOO_clean_linker_0, # of connection points: 3
#     Node 1, Type 0, BuildingBlock: PAMTOO_clean_linker_0, # of connection points: 3
#     Node 2, Type 0, BuildingBlock: PAMTOO_clean_linker_0, # of connection points: 3
#     Node 3, Type 0, BuildingBlock: PAMTOO_clean_linker_0, # of connection points: 3
#     Node 4, Type 0, BuildingBlock: PAMTOO_clean_linker_0, # of connection points: 3
#     Node 5, Type 0, BuildingBlock: PAMTOO_clean_linker_0, # of connection points: 3
#     Node 6, Type 0, BuildingBlock: PAMTOO_clean_linker_0, # of connection points: 3
#     Node 7, Type 0, BuildingBlock: PAMTOO_clean_linker_0, # of connection points: 3
#     Node 8, Type 1, BuildingBlock: MIDCAF_clean_sbu_0, # of connection points: 6
#     Node 9, Type 1, BuildingBlock: MIDCAF_clean_sbu_0, # of connection points: 6
#     Node 10, Type 1, BuildingBlock: MIDCAF_clean_sbu_0, # of connection points: 6
#     Node 11, Type 1, BuildingBlock: MIDCAF_clean_sbu_0, # of connection points: 6
#     Edge 12, Type (0, 1), BuildingBlock: MIFKUJ_clean_linker_0, # of connection points: 2
#     Edge 13, Type (0, 1), BuildingBlock: MIFKUJ_clean_linker_0, # of connection points: 2
#     Edge 14, Type (0, 1), BuildingBlock: MIFKUJ_clean_linker_0, # of connection points: 2
#     Edge 15, Type (0, 1), BuildingBlock: MIFKUJ_clean_linker_0, # of connection points: 2
#     Edge 16, Type (0, 1), BuildingBlock: MIFKUJ_clean_linker_0, # of connection points: 2
#     Edge 17, Type (0, 1), BuildingBlock: MIFKUJ_clean_linker_0, # of connection points: 2
#     Edge 18, Type (0, 1), BuildingBlock: MIFKUJ_clean_linker_0, # of connection points: 2
#     Edge 19, Type (0, 1), BuildingBlock: MIFKUJ_clean_linker_0, # of connection points: 2
#     Edge 20, Type (0, 1), BuildingBlock: MIFKUJ_clean_linker_0, # of connection points: 2
#     Edge 21, Type (0, 1), BuildingBlock: MIFKUJ_clean_linker_0, # of connection points: 2
#     Edge 22, Type (0, 1), BuildingBlock: MIFKUJ_clean_linker_0, # of connection points: 2
#     Edge 23, Type (0, 1), BuildingBlock: MIFKUJ_clean_linker_0, # of connection points: 2
#     Edge 24, Type (0, 1), BuildingBlock: MIFKUJ_clean_linker_0, # of connection points: 2
#     Edge 25, Type (0, 1), BuildingBlock: MIFKUJ_clean_linker_0, # of connection points: 2
#     Edge 26, Type (0, 1), BuildingBlock: MIFKUJ_clean_linker_0, # of connection points: 2
#     Edge 27, Type (0, 1), BuildingBlock: MIFKUJ_clean_linker_0, # of connection points: 2
#     Edge 28, Type (0, 1), BuildingBlock: MIFKUJ_clean_linker_0, # of connection points: 2
#     Edge 29, Type (0, 1), BuildingBlock: MIFKUJ_clean_linker_0, # of connection points: 2
#     Edge 30, Type (0, 1), BuildingBlock: MIFKUJ_clean_linker_0, # of connection points: 2
#     Edge 31, Type (0, 1), BuildingBlock: MIFKUJ_clean_linker_0, # of connection points: 2
#     Edge 32, Type (0, 1), BuildingBlock: MIFKUJ_clean_linker_0, # of connection points: 2
#     Edge 33, Type (0, 1), BuildingBlock: MIFKUJ_clean_linker_0, # of connection points: 2
#     Edge 34, Type (0, 1), BuildingBlock: MIFKUJ_clean_linker_0, # of connection points: 2
#     Edge 35, Type (0, 1), BuildingBlock: MIFKUJ_clean_linker_0, # of connection points: 2
# Relax obj value: 0.057
# Max RMSD: 0.149
# Mean RMSD: 0.095
data_MOF--net-ant--node1-MIDCAF_clean_sbu_0--node2-PAMTOO_clean_linker_0--edge1-MIFKUJ_clean_linker_0
_symmetry_space_group_name_H-M    P1
_symmetry_Int_Tables_number       1
_symmetry_cell_setting            triclinic
loop_
_symmetry_equiv_pos_as_xyz
'x, y, z'
_cell_length_a     37.459614
_cell_length_b     37.377326
_cell_length_c     91.434945
_cell_angle_alpha  86.057559
_cell_angle_beta   97.623642
_cell_angle_gamma 90.085406
loop_
_atom_site_label
_atom_site_type_symbol
_atom_site_fract_x
_atom_site_fract_y
_atom_site_fract_z
_atom_type_partial_charge
H0 H 0.21074 0.16534 0.07081 0.0
H1 H 0.18815 0.27875 0.06316 0.0
H2 H 0.21717 0.23236 0.10739 0.0
H3 H 0.16299 0.29256 0.10535 0.0
C4 C 0.16811 0.30511 0.09445 0.0
O5 O 0.20007 0.29197 0.09092 0.0
H6 H 0.14528 0.29829 0.08602 0.0
C7 C 0.20792 0.19164 0.07488 0.0
C8 C 0.21452 0.19536 0.09014 0.0
C9 C 0.19843 0.22143 0.06491 0.0
C10 C 0.19589 0.25531 0.07053 0.0
C11 C 0.20263 0.25921 0.08577 0.0
C12 C 0.21214 0.22926 0.0956 0.0
H13 H 0.16317 0.82327 0.30059 0.0
H14 H 0.04994 0.80993 0.30355 0.0
H15 H 0.12488 0.81471 0.34305 0.0
H16 H 0.06075 0.76363 0.34733 0.0
C17 C 0.04556 0.77245 0.33639 0.0
O18 O 0.05699 0.80639 0.33224 0.0
H19 H 0.05119 0.75283 0.32833 0.0
C20 C 0.14099 0.82109 0.30709 0.0
C21 C 0.14833 0.82065 0.3226 0.0
C22 C 0.10564 0.81677 0.30001 0.0
C23 C 0.07746 0.81276 0.3087 0.0
C24 C 0.08446 0.81166 0.32413 0.0
C25 C 0.1198 0.81553 0.33108 0.0
H26 H 0.67334 0.64518 0.56314 0.0
H27 H 0.65842 0.75942 0.55441 0.0
H28 H 0.69764 0.71565 0.59824 0.0
H29 H 0.65073 0.779 0.59844 0.0
C30 C 0.65208 0.79053 0.587 0.0
O31 O 0.68044 0.7749 0.58147 0.0
H32 H 0.62628 0.78464 0.58005 0.0
C33 C 0.67402 0.6721 0.56688 0.0
C34 C 0.68572 0.67683 0.58184 0.0
C35 C 0.66411 0.70149 0.55675 0.0
C36 C 0.66641 0.73621 0.56187 0.0
C37 C 0.67854 0.74131 0.57677 0.0
C38 C 0.68855 0.71162 0.58672 0.0
H39 H 0.68453 0.25068 0.80418 0.0
H40 H 0.57162 0.25383 0.80887 0.0
H41 H 0.65106 0.26088 0.84695 0.0
H42 H 0.57955 0.22736 0.85613 0.0
C43 C 0.5678 0.22948 0.84429 0.0
O44 O 0.58169 0.25945 0.83736 0.0
H45 H 0.5753 0.20463 0.83929 0.0
C46 C 0.66319 0.25214 0.81106 0.0
C47 C 0.67225 0.25544 0.82631 0.0
C48 C 0.62702 0.25188 0.80456 0.0
C49 C 0.5997 0.25456 0.81358 0.0
C50 C 0.60837 0.25752 0.82882 0.0
C51 C 0.64459 0.25851 0.83515 0.0
H52 H 0.11109 0.79373 0.94451 0.0
H53 H 0.0927 0.68604 0.93158 0.0
H54 H 0.08448 0.77352 0.89842 0.0
H55 H 0.03539 0.70633 0.88795 0.0
C56 C 0.04577 0.69177 0.89867 0.0
O57 O 0.08006 0.70374 0.90332 0.0
H58 H 0.02685 0.69761 0.90666 0.0
C59 C 0.10503 0.77533 0.93587 0.0
C60 C 0.09822 0.78869 0.92097 0.0
C61 C 0.10296 0.73843 0.93983 0.0
C62 C 0.09399 0.71461 0.92874 0.0
C63 C 0.08723 0.72733 0.91389 0.0
C64 C 0.08924 0.76421 0.91 0.0
H65 H 0.61166 0.83186 0.19039 0.0
H66 H 0.72523 0.81999 0.18864 0.0
H67 H 0.65276 0.83943 0.14847 0.0
H68 H 0.71407 0.78871 0.14489 0.0
C69 C 0.73073 0.79423 0.15548 0.0
O70 O 0.7199 0.82664 0.15991 0.0
H71 H 0.72656 0.77196 0.16381 0.0
C72 C 0.6342 0.83236 0.18408 0.0
C73 C 0.62772 0.83761 0.16856 0.0
C74 C 0.66917 0.82611 0.19151 0.0
C75 C 0.698 0.82471 0.18319 0.0
C76 C 0.69193 0.82913 0.16773 0.0
C77 C 0.65696 0.83575 0.16043 0.0
H78 H 0.60136 0.28491 0.44435 0.0
H79 H 0.58169 0.17936 0.42924 0.0
H80 H 0.57325 0.27028 0.39781 0.0
H81 H 0.52132 0.20736 0.3864 0.0
C82 C 0.53148 0.19114 0.39676 0.0
O83 O 0.56664 0.20078 0.40132 0.0
H84 H 0.51355 0.19685 0.40514 0.0
C85 C 0.59511 0.26766 0.43532 0.0
C86 C 0.58792 0.28276 0.42068 0.0
C87 C 0.593 0.23043 0.43854 0.0
C88 C 0.58323 0.20811 0.42697 0.0
C89 C 0.57574 0.22266 0.41238 0.0
C90 C 0.57836 0.25973 0.40923 0.0
H91 H 0.08955 0.30701 0.69128 0.0
H92 H 0.20148 0.28792 0.68816 0.0
H93 H 0.12899 0.31992 0.6491 0.0
H94 H 0.19067 0.27155 0.64239 0.0
C95 C 0.20597 0.27266 0.65363 0.0
O96 O 0.19611 0.30331 0.65977 0.0
H97 H 0.19906 0.24819 0.66033 0.0
C98 C 0.11155 0.3063 0.68472 0.0
C99 C 0.10473 0.31479 0.66938 0.0
C100 C 0.14617 0.29639 0.6917 0.0
C101 C 0.17456 0.29572 0.68311 0.0
C102 C 0.16831 0.3041 0.66781 0.0
C103 C 0.13346 0.31347 0.66094 0.0
Zn104 Zn 0.21347 0.7217 0.14572 0.0
Zn105 Zn 0.13982 0.79619 0.10087 0.0
Zn106 Zn 0.17629 0.75935 0.12312 0.0
C107 C 0.15749 0.73268 0.08992 0.0
C108 C 0.19948 0.83718 0.11008 0.0
O109 O 0.14576 0.75926 0.14225 0.0
O110 O 0.17963 0.72728 0.1602 0.0
C111 C 0.19951 0.67556 0.12301 0.0
O112 O 0.16938 0.72543 0.10371 0.0
O113 O 0.14429 0.7631 0.08548 0.0
O114 O 0.17049 0.83915 0.10128 0.0
O115 O 0.20707 0.8087 0.1187 0.0
O116 O 0.21484 0.67614 0.13615 0.0
O117 O 0.18409 0.70412 0.1163 0.0
O118 O 0.22945 0.78566 0.12855 0.0
O119 O 0.25707 0.75178 0.1475 0.0
C120 C 0.25714 0.77854 0.13831 0.0
O121 O 0.1229 0.77358 0.12978 0.0
O122 O 0.09332 0.79737 0.10884 0.0
C123 C 0.15172 0.74578 0.15572 0.0
C124 C 0.09369 0.78673 0.12226 0.0
Zn125 Zn 0.55949 0.7113 0.35437 0.0
Zn126 Zn 0.64626 0.77602 0.39021 0.0
Zn127 Zn 0.60126 0.74271 0.37237 0.0
C128 C 0.58611 0.82044 0.38399 0.0
C129 C 0.68375 0.76513 0.36724 0.0
O130 O 0.59481 0.68644 0.38211 0.0
O131 O 0.57055 0.66151 0.36202 0.0
C132 C 0.51683 0.76067 0.36437 0.0
O133 O 0.57451 0.79374 0.37652 0.0
O134 O 0.61756 0.81988 0.39094 0.0
O135 O 0.68883 0.77748 0.37982 0.0
O136 O 0.6526 0.75266 0.36229 0.0
O137 O 0.51362 0.73079 0.35876 0.0
O138 O 0.54846 0.77264 0.36886 0.0
O139 O 0.62543 0.74292 0.35148 0.0
O140 O 0.5776 0.72991 0.33594 0.0
C141 C 0.60989 0.73998 0.33817 0.0
O142 O 0.61137 0.70763 0.39322 0.0
O143 O 0.64849 0.74119 0.40725 0.0
C144 C 0.58384 0.65824 0.37547 0.0
C145 C 0.63044 0.71291 0.40569 0.0
Zn146 Zn 0.61555 0.2797 0.60088 0.0
Zn147 Zn 0.6968 0.20162 0.64298 0.0
Zn148 Zn 0.65399 0.24095 0.6224 0.0
C149 C 0.73487 0.26323 0.63691 0.0
C150 C 0.68286 0.15934 0.61912 0.0
O151 O 0.60087 0.2518 0.6301 0.0
O152 O 0.57237 0.28402 0.61091 0.0
C153 C 0.67556 0.32043 0.60935 0.0
O154 O 0.70581 0.26953 0.62782 0.0
O155 O 0.73802 0.23507 0.64542 0.0
O156 O 0.70137 0.15878 0.63172 0.0
O157 O 0.66393 0.18741 0.61401 0.0
O158 O 0.64764 0.3216 0.59994 0.0
O159 O 0.6823 0.29251 0.6184 0.0
O160 O 0.64695 0.21001 0.60232 0.0
O161 O 0.61452 0.24576 0.58528 0.0
C162 C 0.63108 0.21654 0.58901 0.0
O163 O 0.62471 0.23487 0.64187 0.0
O164 O 0.66215 0.20043 0.65759 0.0
C165 C 0.57256 0.2691 0.62373 0.0
C166 C 0.63288 0.2178 0.65461 0.0
Zn167 Zn 0.06807 0.16743 0.85364 0.0
Zn168 Zn 0.1758 0.28469 0.88917 0.0
Zn169 Zn 0.12988 0.24192 0.87748 0.0
C170 C 0.17245 0.22804 0.91039 0.0
C171 C 0.11114 0.32347 0.8832 0.0
O172 O 0.13973 0.2235 0.85486 0.0
O173 O 0.10807 0.18185 0.84137 0.0
C174 C 0.1079 0.17116 0.88523 0.0
O175 O 0.14912 0.21762 0.89992 0.0
O176 O 0.18934 0.25691 0.90853 0.0
O177 O 0.14375 0.32716 0.88842 0.0
O178 O 0.09977 0.29321 0.87851 0.0
O179 O 0.09286 0.18345 0.87274 0.0
O180 O 0.12735 0.19357 0.89248 0.0
O181 O 0.07617 0.26635 0.87308 0.0
O182 O 0.07125 0.21501 0.86381 0.0
C183 C 0.05575 0.2436 0.8664 0.0
O184 O 0.17209 0.24388 0.86286 0.0
O185 O 0.20854 0.28301 0.87401 0.0
C186 C 0.13358 0.20479 0.84324 0.0
C187 C 0.20127 0.26224 0.86372 0.0
H188 H 0.21496 0.34184 0.11318 0.0
H189 H 0.21887 0.40676 0.11524 0.0
H190 H 0.13049 0.42307 0.07999 0.0
H191 H 0.12723 0.35807 0.07766 0.0
H192 H 0.18153 0.47286 0.07713 0.0
H193 H 0.11639 0.42745 0.11577 0.0
H194 H 0.10435 0.38775 0.13721 0.0
H195 H 0.20044 0.42443 0.16262 0.0
H196 H 0.21334 0.46399 0.14126 0.0
H197 H 0.14787 0.65174 0.10182 0.0
H198 H 0.14194 0.59076 0.09335 0.0
H199 H 0.24051 0.55968 0.12124 0.0
H200 H 0.24729 0.62055 0.1292 0.0
H201 H 0.17762 0.51896 0.1265 0.0
H202 H 0.24405 0.56142 0.0871 0.0
H203 H 0.25608 0.60042 0.06547 0.0
H204 H 0.15515 0.57054 0.04163 0.0
H205 H 0.14231 0.53156 0.06321 0.0
C206 C 0.19654 0.35939 0.10585 0.0
C207 C 0.17069 0.34509 0.09535 0.0
C208 C 0.19865 0.39638 0.10705 0.0
C209 C 0.17456 0.41975 0.09792 0.0
C210 C 0.14925 0.40555 0.08717 0.0
C211 C 0.1473 0.36848 0.0859 0.0
C212 C 0.17541 0.45884 0.09993 0.0
C213 C 0.18005 0.483 0.08786 0.0
C214 C 0.17371 0.47212 0.11396 0.0
C215 C 0.16597 0.44848 0.12687 0.0
C216 C 0.13509 0.42687 0.1259 0.0
C217 C 0.12809 0.40442 0.13804 0.0
C218 C 0.15166 0.40352 0.15126 0.0
C219 C 0.18223 0.42513 0.15237 0.0
C220 C 0.18937 0.44761 0.14025 0.0
C221 C 0.16901 0.63232 0.1056 0.0
C222 C 0.1982 0.64102 0.11601 0.0
C223 C 0.1654 0.59742 0.10091 0.0
C224 C 0.19075 0.5708 0.10674 0.0
C225 C 0.22064 0.57987 0.11665 0.0
C226 C 0.22443 0.61465 0.12119 0.0
C227 C 0.18466 0.5327 0.10382 0.0
C228 C 0.17875 0.50878 0.11573 0.0
C229 C 0.18489 0.51984 0.08966 0.0
C230 C 0.19207 0.54385 0.07682 0.0
C231 C 0.22421 0.56349 0.07732 0.0
C232 C 0.23123 0.58549 0.06506 0.0
C233 C 0.20642 0.58789 0.0522 0.0
C234 C 0.17436 0.56857 0.05161 0.0
C235 C 0.16721 0.54649 0.06384 0.0
H236 H 0.21224 0.60444 0.04266 0.0
H237 H 0.14619 0.38611 0.16065 0.0
H238 H 0.00958 0.74233 0.35831 0.0
H239 H 0.94451 0.73927 0.35886 0.0
H240 H 0.92608 0.79795 0.31621 0.0
H241 H 0.99143 0.80107 0.31564 0.0
H242 H 0.88377 0.82294 0.33568 0.0
H243 H 0.91019 0.71028 0.31829 0.0
H244 H 0.94273 0.6531 0.31801 0.0
H245 H 0.91291 0.61903 0.3605 0.0
H246 H 0.88063 0.67623 0.36115 0.0
H247 H 0.69569 0.79305 0.3396 0.0
H248 H 0.75354 0.7921 0.32941 0.0
H249 H 0.80132 0.72914 0.36831 0.0
H250 H 0.74411 0.72938 0.37826 0.0
H251 H 0.82498 0.70601 0.3448 0.0
H252 H 0.80684 0.82246 0.36361 0.0
H253 H 0.77648 0.88068 0.36435 0.0
H254 H 0.79212 0.90823 0.31928 0.0
H255 H 0.82185 0.84979 0.31817 0.0
C256 C 0.99165 0.75483 0.34911 0.0
C257 C 0.00552 0.77251 0.33706 0.0
C258 C 0.95449 0.75283 0.34937 0.0
C259 C 0.93039 0.76811 0.33751 0.0
C260 C 0.94416 0.786 0.32548 0.0
C261 C 0.98142 0.78786 0.32519 0.0
C262 C 0.89089 0.76561 0.33789 0.0
C263 C 0.87067 0.79735 0.33736 0.0
C264 C 0.87388 0.73223 0.34016 0.0
C265 C 0.89317 0.69768 0.3398 0.0
C266 C 0.91079 0.69071 0.32763 0.0
C267 C 0.92916 0.65827 0.32739 0.0
C268 C 0.92994 0.63247 0.33924 0.0
C269 C 0.91229 0.63904 0.35134 0.0
C270 C 0.89391 0.67145 0.35163 0.0
C271 C 0.71836 0.77818 0.34569 0.0
C272 C 0.71555 0.76089 0.3596 0.0
C273 C 0.75135 0.77797 0.33995 0.0
C274 C 0.78183 0.76084 0.34813 0.0
C275 C 0.7783 0.74244 0.36175 0.0
C276 C 0.74561 0.74264 0.36744 0.0
C277 C 0.81813 0.76342 0.34321 0.0
C278 C 0.83782 0.73161 0.34282 0.0
C279 C 0.83464 0.79676 0.34014 0.0
C280 C 0.8161 0.83155 0.34074 0.0
C281 C 0.80342 0.84075 0.3538 0.0
C282 C 0.78639 0.87382 0.3543 0.0
C283 C 0.78234 0.89813 0.34187 0.0
C284 C 0.79531 0.8894 0.32891 0.0
C285 C 0.81212 0.85626 0.32832 0.0
H286 H 0.76916 0.92372 0.34227 0.0
H287 H 0.94417 0.60737 0.33904 0.0
H288 H 0.74974 0.65783 0.59878 0.0
H289 H 0.7656 0.59834 0.61125 0.0
H290 H 0.65616 0.56383 0.59952 0.0
H291 H 0.64047 0.62279 0.58728 0.0
H292 H 0.6834 0.53362 0.62614 0.0
H293 H 0.72053 0.55333 0.57675 0.0
H294 H 0.75554 0.58424 0.55869 0.0
H295 H 0.85392 0.55676 0.58699 0.0
H296 H 0.81937 0.52607 0.6053 0.0
H297 H 0.68764 0.36852 0.5871 0.0
H298 H 0.70951 0.42945 0.58943 0.0
H299 H 0.73502 0.40786 0.63663 0.0
H300 H 0.7122 0.3466 0.63433 0.0
H301 H 0.76681 0.46772 0.59952 0.0
H302 H 0.70515 0.48117 0.65224 0.0
H303 H 0.66345 0.44951 0.66739 0.0
H304 H 0.60491 0.40953 0.62833 0.0
H305 H 0.64603 0.44129 0.61297 0.0
C306 C 0.72897 0.63777 0.59933 0.0
C307 C 0.69397 0.64461 0.59205 0.0
C308 C 0.73804 0.60382 0.60636 0.0
C309 C 0.71215 0.57648 0.60618 0.0
C310 C 0.67658 0.58443 0.59986 0.0
C311 C 0.66764 0.61806 0.59282 0.0
C312 C 0.72213 0.53847 0.6107 0.0
C313 C 0.70238 0.51934 0.62063 0.0
C314 C 0.74671 0.51966 0.60347 0.0
C315 C 0.76741 0.53786 0.59245 0.0
C316 C 0.74962 0.5541 0.57914 0.0
C317 C 0.76936 0.57155 0.56887 0.0
C318 C 0.80693 0.57257 0.57171 0.0
C319 C 0.82482 0.55604 0.58482 0.0
C320 C 0.80518 0.53863 0.59515 0.0
C321 C 0.69891 0.37638 0.59793 0.0
C322 C 0.69794 0.35295 0.61054 0.0
C323 C 0.71162 0.41122 0.59925 0.0
C324 C 0.72339 0.42349 0.61323 0.0
C325 C 0.72575 0.39906 0.62574 0.0
C326 C 0.71301 0.36397 0.62441 0.0
C327 C 0.72712 0.46278 0.61455 0.0
C328 C 0.74932 0.48216 0.60568 0.0
C329 C 0.70412 0.48178 0.62246 0.0
C330 C 0.67887 0.46318 0.63152 0.0
C331 C 0.68331 0.46568 0.64691 0.0
C332 C 0.65979 0.44773 0.65552 0.0
C333 C 0.63163 0.42741 0.64883 0.0
C334 C 0.62679 0.42518 0.6335 0.0
C335 C 0.65017 0.44314 0.62484 0.0
H336 H 0.61351 0.41348 0.65552 0.0
H337 H 0.82218 0.58608 0.56374 0.0
H338 H 0.72365 0.20616 0.8234 0.0
H339 H 0.78818 0.20806 0.83233 0.0
H340 H 0.77262 0.30725 0.85219 0.0
H341 H 0.70763 0.30512 0.84343 0.0
H342 H 0.83041 0.3067 0.83346 0.0
H343 H 0.78946 0.23956 0.87464 0.0
H344 H 0.75631 0.19132 0.88663 0.0
H345 H 0.81883 0.11212 0.86922 0.0
H346 H 0.852 0.1599 0.85693 0.0
H347 H 0.01473 0.30295 0.86956 0.0
H348 H 0.94889 0.30915 0.86408 0.0
H349 H 0.94247 0.20255 0.84865 0.0
H350 H 0.00765 0.1962 0.85404 0.0
H351 H 0.89453 0.21149 0.86742 0.0
H352 H 0.93298 0.27474 0.8253 0.0
H353 H 0.96434 0.32031 0.81107 0.0
H354 H 0.90516 0.40384 0.82742 0.0
H355 H 0.8745 0.35886 0.84222 0.0
C356 C 0.73397 0.22819 0.82979 0.0
C357 C 0.71074 0.25547 0.83276 0.0
C358 C 0.77077 0.22923 0.83489 0.0
C359 C 0.78514 0.25778 0.84292 0.0
C360 C 0.762 0.28499 0.84601 0.0
C361 C 0.72497 0.28364 0.8411 0.0
C362 C 0.82454 0.25934 0.84767 0.0
C363 C 0.84449 0.28642 0.84116 0.0
C364 C 0.8428 0.23216 0.85732 0.0
C365 C 0.82303 0.20334 0.86477 0.0
C366 C 0.79594 0.21186 0.87326 0.0
C367 C 0.77718 0.18459 0.88014 0.0
C368 C 0.78541 0.14868 0.87867 0.0
C369 C 0.81247 0.13996 0.87035 0.0
C370 C 0.83129 0.16712 0.86344 0.0
C371 C 0.99924 0.281 0.86487 0.0
C372 C 0.01643 0.24909 0.86222 0.0
C373 C 0.96166 0.28458 0.86175 0.0
C374 C 0.94071 0.25625 0.85598 0.0
C375 C 0.95799 0.22467 0.85317 0.0
C376 C 0.99537 0.22117 0.85619 0.0
C377 C 0.90072 0.25875 0.85312 0.0
C378 C 0.88059 0.23228 0.85994 0.0
C379 C 0.8824 0.2862 0.84356 0.0
C380 C 0.90187 0.3134 0.8351 0.0
C381 C 0.92716 0.30285 0.82611 0.0
C382 C 0.9448 0.32859 0.81792 0.0
C383 C 0.93694 0.36497 0.81841 0.0
C384 C 0.91145 0.37567 0.82712 0.0
C385 C 0.89405 0.35007 0.83547 0.0
H386 H 0.95044 0.38483 0.81197 0.0
H387 H 0.77086 0.1276 0.884 0.0
H388 H 0.02953 0.63653 0.91803 0.0
H389 H 0.03139 0.5719 0.91498 0.0
H390 H 0.06814 0.59302 0.87246 0.0
H391 H 0.06539 0.65771 0.87538 0.0
H392 H 0.01847 0.54206 0.87085 0.0
H393 H 0.1259 0.5649 0.90381 0.0
H394 H 0.16058 0.58728 0.92613 0.0
H395 H 0.10371 0.51598 0.95361 0.0
H396 H 0.0683 0.49353 0.93144 0.0
H397 H 0.10342 0.37657 0.86154 0.0
H398 H 0.08205 0.43749 0.86374 0.0
H399 H 0.04802 0.40424 0.90584 0.0
H400 H 0.07029 0.34329 0.90371 0.0
H401 H 0.09028 0.46014 0.90852 0.0
H402 H 0.9871 0.43284 0.87456 0.0
H403 H 0.95433 0.41095 0.85178 0.0
H404 H 0.0051 0.49071 0.82561 0.0
H405 H 0.03871 0.51269 0.84823 0.0
C406 C 0.03777 0.62727 0.90801 0.0
C407 C 0.04687 0.65199 0.89684 0.0
C408 C 0.03902 0.59038 0.9063 0.0
C409 C 0.05011 0.57747 0.89351 0.0
C410 C 0.05931 0.60225 0.88238 0.0
C411 C 0.05787 0.63915 0.88406 0.0
C412 C 0.0526 0.5382 0.89179 0.0
C413 C 0.03441 0.52417 0.87903 0.0
C414 C 0.07265 0.51462 0.90262 0.0
C415 C 0.09417 0.52782 0.91596 0.0
C416 C 0.1206 0.55418 0.91461 0.0
C417 C 0.14042 0.56685 0.92724 0.0
C418 C 0.13427 0.55315 0.94128 0.0
C419 C 0.10839 0.52663 0.94273 0.0
C420 C 0.08845 0.5139 0.93013 0.0
C421 C 0.08987 0.38198 0.87092 0.0
C422 C 0.08762 0.35521 0.88228 0.0
C423 C 0.07779 0.41686 0.87223 0.0
C424 C 0.06319 0.42562 0.88494 0.0
C425 C 0.05906 0.39821 0.89592 0.0
C426 C 0.07129 0.3633 0.89462 0.0
C427 C 0.05634 0.46387 0.88749 0.0
C428 C 0.07387 0.47783 0.90041 0.0
C429 C 0.03592 0.48738 0.87674 0.0
C430 C 0.01561 0.47427 0.86311 0.0
C431 C 0.99149 0.44555 0.86395 0.0
C432 C 0.97273 0.43314 0.85105 0.0
C433 C 0.97765 0.44943 0.83725 0.0
C434 C 1.00133 0.47814 0.83631 0.0
C435 C 0.02021 0.4906 0.84917 0.0
H436 H 0.9631 0.43992 0.82727 0.0
H437 H 0.14963 0.56301 0.95104 0.0
H438 H 0.76279 0.77831 0.13141 0.0
H439 H 0.82716 0.7765 0.1292 0.0
H440 H 0.85206 0.80922 0.17372 0.0
H441 H 0.7874 0.81109 0.17595 0.0
H442 H 0.89215 0.84552 0.15414 0.0
H443 H 0.86432 0.72391 0.16764 0.0
H444 H 0.82995 0.66771 0.16591 0.0
H445 H 0.8547 0.65885 0.12177 0.0
H446 H 0.8888 0.71529 0.12315 0.0
H447 H 0.08074 0.80338 0.1501 0.0
H448 H 0.02177 0.80425 0.15933 0.0
H449 H 0.97022 0.77347 0.11711 0.0
H450 H 0.02844 0.77168 0.10809 0.0
H451 H 0.94682 0.73417 0.14019 0.0
H452 H 0.97153 0.85708 0.12596 0.0
H453 H 1.00132 0.91582 0.12654 0.0
H454 H 0.9792 0.92499 0.17102 0.0
H455 H 0.95053 0.86557 0.17094 0.0
C456 C 0.782 0.78537 0.14068 0.0
C457 C 0.77021 0.79519 0.1538 0.0
C458 C 0.81875 0.78412 0.13944 0.0
C459 C 0.84443 0.79238 0.15135 0.0
C460 C 0.83271 0.80274 0.16441 0.0
C461 C 0.79588 0.80385 0.16567 0.0
C462 C 0.88346 0.79 0.15007 0.0
C463 C 0.90447 0.821 0.15142 0.0
C464 C 0.89921 0.7581 0.14631 0.0
C465 C 0.87893 0.72398 0.14547 0.0
C466 C 0.86223 0.71011 0.15753 0.0
C467 C 0.84283 0.67819 0.15662 0.0
C468 C 0.84009 0.65975 0.14373 0.0
C469 C 0.85683 0.67316 0.13175 0.0
C470 C 0.87625 0.7051 0.13259 0.0
C471 C 0.05687 0.79604 0.14298 0.0
C472 C 0.05921 0.78684 0.12849 0.0
C473 C 0.02322 0.79713 0.14816 0.0
C474 C 0.99161 0.78908 0.13888 0.0
C475 C 0.99419 0.7797 0.12448 0.0
C476 C 0.02749 0.77881 0.11932 0.0
C477 C 0.95549 0.78999 0.14388 0.0
C478 C 0.93492 0.75856 0.14324 0.0
C479 C 0.94022 0.82163 0.14823 0.0
C480 C 0.95951 0.85638 0.14855 0.0
C481 C 0.97376 0.87114 0.13601 0.0
C482 C 0.9903 0.90469 0.13622 0.0
C483 C 0.99221 0.92411 0.14882 0.0
C484 C 0.97768 0.90995 0.16126 0.0
C485 C 0.96152 0.8762 0.16117 0.0
H486 H 0.00493 0.95012 0.14894 0.0
H487 H 0.82505 0.63504 0.14305 0.0
H488 H 0.54531 0.3255 0.39964 0.0
H489 H 0.54925 0.39016 0.39426 0.0
H490 H 0.63756 0.39543 0.42938 0.0
H491 H 0.63518 0.33045 0.43443 0.0
H492 H 0.57988 0.44979 0.42852 0.0
H493 H 0.66009 0.40117 0.39772 0.0
H494 H 0.67658 0.36085 0.37941 0.0
H495 H 0.59161 0.40581 0.34729 0.0
H496 H 0.57426 0.44604 0.36549 0.0
H497 H 0.62679 0.63204 0.4011 0.0
H498 H 0.6302 0.56969 0.41188 0.0
H499 H 0.54892 0.53953 0.37706 0.0
H500 H 0.54452 0.60105 0.36666 0.0
H501 H 0.61035 0.49784 0.37983 0.0
H502 H 0.53039 0.54787 0.4096 0.0
H503 H 0.50958 0.5859 0.42773 0.0
H504 H 0.58657 0.53596 0.46196 0.0
H505 H 0.6095 0.49914 0.44386 0.0
C506 C 0.56599 0.34015 0.40611 0.0
C507 C 0.59001 0.32242 0.41745 0.0
C508 C 0.56794 0.37723 0.4031 0.0
C509 C 0.59367 0.39753 0.41144 0.0
C510 C 0.61734 0.38024 0.4229 0.0
C511 C 0.61578 0.34304 0.42579 0.0
C512 C 0.59629 0.43668 0.40787 0.0
C513 C 0.58726 0.46056 0.41802 0.0
C514 C 0.60512 0.45035 0.39402 0.0
C515 C 0.6157 0.42641 0.38301 0.0
C516 C 0.64474 0.40226 0.38679 0.0
C517 C 0.65428 0.37946 0.37642 0.0
C518 C 0.63511 0.38072 0.3622 0.0
C519 C 0.60642 0.40485 0.35831 0.0
C520 C 0.59675 0.42768 0.36865 0.0
C521 C 0.60903 0.61231 0.39602 0.0
C522 C 0.58531 0.6217 0.38306 0.0
C523 C 0.6112 0.57663 0.4021 0.0
C524 C 0.58992 0.54994 0.3952 0.0
C525 C 0.56578 0.55958 0.3825 0.0
C526 C 0.56338 0.5949 0.37657 0.0
C527 C 0.59356 0.51143 0.40042 0.0
C528 C 0.60369 0.48745 0.3905 0.0
C529 C 0.58527 0.49787 0.41444 0.0
C530 C 0.57244 0.52131 0.42521 0.0
C531 C 0.54373 0.54567 0.42087 0.0
C532 C 0.53144 0.567 0.43118 0.0
C533 C 0.54696 0.56359 0.44596 0.0
C534 C 0.57473 0.53877 0.45048 0.0
C535 C 0.58763 0.51792 0.44016 0.0
H536 H 0.53732 0.58002 0.45394 0.0
H537 H 0.64253 0.36304 0.35419 0.0
H538 H 0.06874 0.29163 0.64356 0.0
H539 H 1.00397 0.29711 0.63491 0.0
H540 H 0.99063 0.3612 0.67126 0.0
H541 H 0.05522 0.35702 0.67965 0.0
H542 H 0.94917 0.29633 0.66962 0.0
H543 H 0.97591 0.40051 0.63914 0.0
H544 H 0.00654 0.43374 0.62023 0.0
H545 H 0.96205 0.36251 0.58776 0.0
H546 H 0.93157 0.3285 0.60655 0.0
H547 H 0.7638 0.30616 0.65807 0.0
H548 H 0.82486 0.33064 0.6606 0.0
H549 H 0.84008 0.29215 0.61839 0.0
H550 H 0.77808 0.27002 0.61546 0.0
H551 H 0.88102 0.34777 0.62266 0.0
H552 H 0.86109 0.23974 0.65183 0.0
H553 H 0.83152 0.20183 0.66977 0.0
H554 H 0.86589 0.27326 0.70363 0.0
H555 H 0.89525 0.31188 0.68581 0.0
C556 C 0.05222 0.30784 0.64944 0.0
C557 C 0.06711 0.32336 0.66246 0.0
C558 C 0.01519 0.31085 0.6445 0.0
C559 C 0.99251 0.32934 0.65252 0.0
C560 C 0.00764 0.34664 0.66497 0.0
C561 C 0.04455 0.34401 0.66979 0.0
C562 C 0.95274 0.32706 0.64909 0.0
C563 C 0.93418 0.30815 0.65947 0.0
C564 C 0.93346 0.34131 0.63561 0.0
C565 C 0.95175 0.36173 0.6243 0.0
C566 C 0.97294 0.3917 0.62801 0.0
C567 C 0.99021 0.41074 0.6173 0.0
C568 C 0.98633 0.40019 0.60281 0.0
C569 C 0.96508 0.37063 0.59899 0.0
C570 C 0.94777 0.35149 0.60967 0.0
C571 C 0.77978 0.30437 0.64909 0.0
C572 C 0.76653 0.28636 0.63658 0.0
C573 C 0.81477 0.31798 0.65059 0.0
C574 C 0.83763 0.31209 0.63994 0.0
C575 C 0.82319 0.29682 0.62683 0.0
C576 C 0.78777 0.2842 0.62513 0.0
C577 C 0.87729 0.31736 0.6433 0.0
C578 C 0.89592 0.33637 0.6329 0.0
C579 C 0.897 0.30242 0.65664 0.0
C580 C 0.88003 0.27887 0.66746 0.0
C581 C 0.8622 0.24743 0.66309 0.0
C582 C 0.84547 0.22583 0.67323 0.0
C583 C 0.84673 0.23519 0.68782 0.0
C584 C 0.86488 0.26609 0.69232 0.0
C585 C 0.88158 0.28783 0.6822 0.0
H586 H 0.83371 0.21847 0.69565 0.0
H587 H 0.99971 0.41496 0.59454 0.0
H588 H 0.24152 0.31395 0.63446 0.0
H589 H 0.30582 0.31303 0.63185 0.0
H590 H 0.32423 0.23131 0.66777 0.0
H591 H 0.26002 0.2329 0.67061 0.0
H592 H 0.37781 0.27838 0.66973 0.0
H593 H 0.31855 0.20971 0.63161 0.0
H594 H 0.27357 0.19718 0.61038 0.0
H595 H 0.3132 0.28504 0.5845 0.0
H596 H 0.3581 0.29842 0.60565 0.0
H597 H 0.54782 0.22234 0.64488 0.0
H598 H 0.48788 0.22299 0.65314 0.0
H599 H 0.46071 0.31955 0.62536 0.0
H600 H 0.52039 0.31994 0.6176 0.0
H601 H 0.41258 0.25977 0.62031 0.0
H602 H 0.47321 0.32699 0.65919 0.0
H603 H 0.51778 0.33765 0.68076 0.0
H604 H 0.47516 0.24961 0.70558 0.0
H605 H 0.43133 0.23759 0.68402 0.0
C606 C 0.25941 0.29594 0.64181 0.0
C607 C 0.24582 0.27308 0.65255 0.0
C608 C 0.29607 0.29529 0.64029 0.0
C609 C 0.31983 0.27154 0.64941 0.0
C610 C 0.30646 0.24967 0.66054 0.0
C611 C 0.26978 0.25047 0.66211 0.0
C612 C 0.35835 0.26902 0.64708 0.0
C613 C 0.38543 0.27375 0.65898 0.0
C614 C 0.3684 0.26325 0.63303 0.0
C615 C 0.34148 0.25525 0.62027 0.0
C616 C 0.31749 0.22652 0.62143 0.0
C617 C 0.29204 0.21924 0.60941 0.0
C618 C 0.29047 0.24035 0.59611 0.0
C619 C 0.31442 0.26874 0.59481 0.0
C620 C 0.3399 0.27616 0.60681 0.0
C621 C 0.52952 0.24434 0.64097 0.0
C622 C 0.53901 0.27117 0.63065 0.0
C623 C 0.49518 0.2445 0.64558 0.0
C624 C 0.46982 0.27122 0.63977 0.0
C625 C 0.47979 0.2986 0.62991 0.0
C626 C 0.51398 0.29874 0.6255 0.0
C627 C 0.43193 0.26966 0.64289 0.0
C628 C 0.40495 0.26407 0.6311 0.0
C629 C 0.42213 0.2743 0.65705 0.0
C630 C 0.44932 0.281 0.66988 0.0
C631 C 0.4738 0.30944 0.66915 0.0
C632 C 0.49892 0.31582 0.68141 0.0
C633 C 0.49948 0.29426 0.69453 0.0
C634 C 0.47496 0.26622 0.69541 0.0
C635 C 0.45003 0.25954 0.68316 0.0
H636 H 0.51882 0.2994 0.70402 0.0
H637 H 0.27075 0.23467 0.58682 0.0
H638 H 0.57494 0.87892 0.17709 0.0
H639 H 0.51071 0.87926 0.16781 0.0
H640 H 0.53065 0.81064 0.13375 0.0
H641 H 0.59502 0.80891 0.1433 0.0
H642 H 0.46828 0.88277 0.13023 0.0
H643 H 0.50655 0.75853 0.15147 0.0
H644 H 0.54387 0.72095 0.17093 0.0
H645 H 0.49923 0.77495 0.20439 0.0
H646 H 0.46199 0.8131 0.18508 0.0
H647 H 0.29255 0.80194 0.11518 0.0
H648 H 0.35493 0.82325 0.11709 0.0
H649 H 0.35803 0.82506 0.16442 0.0
H650 H 0.29675 0.80203 0.16254 0.0
H651 H 0.41069 0.78788 0.15954 0.0
H652 H 0.36425 0.90324 0.14007 0.0
H653 H 0.32943 0.9475 0.12265 0.0
H654 H 0.38815 0.91847 0.08792 0.0
H655 H 0.42337 0.87394 0.10515 0.0
C656 C 0.56582 0.86419 0.16751 0.0
C657 C 0.59009 0.8433 0.16112 0.0
C658 C 0.52916 0.86485 0.16211 0.0
C659 C 0.51608 0.84507 0.1501 0.0
C660 C 0.54041 0.82638 0.14295 0.0
C661 C 0.57717 0.82541 0.14844 0.0
C662 C 0.47688 0.839 0.14688 0.0
C663 C 0.45549 0.86171 0.13639 0.0
C664 C 0.46037 0.81238 0.15531 0.0
C665 C 0.48175 0.78871 0.16687 0.0
C666 C 0.50484 0.76242 0.16298 0.0
C667 C 0.52595 0.74104 0.17398 0.0
C668 C 0.52398 0.74561 0.18889 0.0
C669 C 0.50076 0.77146 0.19284 0.0
C670 C 0.47962 0.79292 0.18188 0.0
C671 C 0.30637 0.80789 0.1259 0.0
C672 C 0.29019 0.80007 0.13874 0.0
C673 C 0.342 0.82013 0.12701 0.0
C674 C 0.36149 0.82549 0.14094 0.0
C675 C 0.3439 0.82065 0.15357 0.0
C676 C 0.3088 0.80769 0.1525 0.0
C677 C 0.40111 0.83164 0.14274 0.0
C678 C 0.42292 0.80887 0.15312 0.0
C679 C 0.41765 0.8586 0.1343 0.0
C680 C 0.39621 0.885 0.12387 0.0
C681 C 0.36952 0.90605 0.12869 0.0
C682 C 0.34974 0.93124 0.11884 0.0
C683 C 0.35642 0.93566 0.10415 0.0
C684 C 0.38297 0.91497 0.09929 0.0
C685 C 0.40291 0.88982 0.1091 0.0
H686 H 0.3412 0.95523 0.09654 0.0
H687 H 0.5404 0.72909 0.19739 0.0
H688 H 0.52601 0.28933 0.84603 0.0
H689 H 0.46075 0.29259 0.84593 0.0
H690 H 0.4534 0.17846 0.84166 0.0
H691 H 0.5186 0.17538 0.84125 0.0
H692 H 0.39897 0.21091 0.82467 0.0
H693 H 0.45029 0.21515 0.87515 0.0
H694 H 0.49008 0.23673 0.89637 0.0
H695 H 0.44056 0.34101 0.88838 0.0
H696 H 0.40079 0.32018 0.86698 0.0
H697 H 0.22607 0.19959 0.8545 0.0
H698 H 0.28597 0.1915 0.84686 0.0
H699 H 0.30082 0.30607 0.84468 0.0
H700 H 0.24153 0.31413 0.85227 0.0
H701 H 0.35108 0.26928 0.86517 0.0
H702 H 0.3009 0.26424 0.81419 0.0
H703 H 0.26321 0.24243 0.79263 0.0
H704 H 0.31018 0.13724 0.80236 0.0
H705 H 0.34826 0.15863 0.82411 0.0
C706 C 0.51039 0.26506 0.84483 0.0
C707 C 0.52729 0.23222 0.84333 0.0
C708 C 0.47312 0.26685 0.84492 0.0
C709 C 0.4521 0.23568 0.84395 0.0
C710 C 0.46894 0.20289 0.84237 0.0
C711 C 0.50618 0.20116 0.84214 0.0
C712 C 0.41272 0.23723 0.84488 0.0
C713 C 0.38852 0.2232 0.83366 0.0
C714 C 0.39893 0.25355 0.8565 0.0
C715 C 0.42279 0.26618 0.86938 0.0
C716 C 0.44807 0.24276 0.87785 0.0
C717 C 0.47059 0.25484 0.88992 0.0
C718 C 0.46791 0.29024 0.8937 0.0
C719 C 0.44264 0.31361 0.88543 0.0
C720 C 0.42008 0.30167 0.87334 0.0
C721 C 0.2415 0.22303 0.85172 0.0
C722 C 0.2294 0.25746 0.8541 0.0
C723 C 0.27581 0.2184 0.84745 0.0
C724 C 0.29813 0.2482 0.84547 0.0
C725 C 0.28428 0.28271 0.84631 0.0
C726 C 0.25028 0.28729 0.85056 0.0
C727 C 0.33732 0.24371 0.8448 0.0
C728 C 0.36153 0.25692 0.8562 0.0
C729 C 0.35101 0.22628 0.83347 0.0
C730 C 0.32706 0.21291 0.82086 0.0
C731 C 0.30282 0.23633 0.81186 0.0
C732 C 0.28149 0.22404 0.79955 0.0
C733 C 0.28415 0.18834 0.79611 0.0
C734 C 0.3081 0.16486 0.80503 0.0
C735 C 0.32962 0.17707 0.81734 0.0
H736 H 0.26787 0.17884 0.7865 0.0
H737 H 0.48537 0.29954 0.90305 0.0
H738 H 0.19784 0.87068 0.3158 0.0
H739 H 0.26145 0.87339 0.32608 0.0
H740 H 0.24804 0.78039 0.35547 0.0
H741 H 0.18411 0.77838 0.34552 0.0
H742 H 0.29268 0.82458 0.36935 0.0
H743 H 0.28214 0.77533 0.32174 0.0
H744 H 0.26323 0.77459 0.29488 0.0
H745 H 0.32426 0.86989 0.28738 0.0
H746 H 0.34312 0.87146 0.31424 0.0
H747 H 0.46045 0.73488 0.37694 0.0
H748 H 0.3992 0.75883 0.37318 0.0
H749 H 0.43524 0.85347 0.34978 0.0
H750 H 0.49696 0.82888 0.35338 0.0
H751 H 0.38088 0.82038 0.33356 0.0
H752 H 0.40359 0.85562 0.3825 0.0
H753 H 0.42249 0.85066 0.40939 0.0
H754 H 0.33977 0.77316 0.41488 0.0
H755 H 0.32054 0.77744 0.38799 0.0
C756 C 0.20845 0.85103 0.32455 0.0
C757 C 0.18609 0.82414 0.32977 0.0
C758 C 0.24483 0.85254 0.3304 0.0
C759 C 0.25987 0.82666 0.34137 0.0
C760 C 0.23719 0.80067 0.34702 0.0
C761 C 0.20064 0.79949 0.34132 0.0
C762 C 0.29947 0.82529 0.34634 0.0
C763 C 0.31201 0.8234 0.36156 0.0
C764 C 0.32484 0.82473 0.33615 0.0
C765 C 0.31366 0.82377 0.32 0.0
C766 C 0.2913 0.79628 0.31437 0.0
C767 C 0.28062 0.79569 0.29915 0.0
C768 C 0.29244 0.82225 0.28943 0.0
C769 C 0.31505 0.84939 0.29492 0.0
C770 C 0.32575 0.85015 0.31014 0.0
C771 C 0.45553 0.76141 0.37147 0.0
C772 C 0.48343 0.78033 0.36563 0.0
C773 C 0.42048 0.7751 0.36932 0.0
C774 C 0.41251 0.80804 0.36124 0.0
C775 C 0.4408 0.82806 0.35611 0.0
C776 C 0.47612 0.81432 0.35835 0.0
C777 C 0.37418 0.81873 0.35662 0.0
C778 C 0.36176 0.82228 0.34142 0.0
C779 C 0.34898 0.81984 0.36687 0.0
C780 C 0.36049 0.81708 0.38314 0.0
C781 C 0.38938 0.83757 0.38941 0.0
C782 C 0.40021 0.83481 0.40467 0.0
C783 C 0.38231 0.81164 0.41385 0.0
C784 C 0.35356 0.79118 0.40776 0.0
C785 C 0.34263 0.79385 0.3925 0.0
H786 H 0.39074 0.80952 0.42566 0.0
H787 H 0.28415 0.82175 0.27765 0.0
H788 H 0.71373 0.82765 0.59597 0.0
H789 H 0.72029 0.89233 0.59833 0.0
H790 H 0.60731 0.90791 0.58244 0.0
H791 H 0.60099 0.84342 0.57966 0.0
H792 H 0.64512 0.96052 0.57099 0.0
H793 H 0.63951 0.9053 0.61961 0.0
H794 H 0.65734 0.86293 0.64122 0.0
H795 H 0.76376 0.90719 0.6463 0.0
H796 H 0.74669 0.94953 0.62458 0.0
H797 H 0.62584 0.13173 0.60154 0.0
H798 H 0.62173 0.07124 0.59262 0.0
H799 H 0.73362 0.05219 0.60971 0.0
H800 H 0.73739 0.11197 0.61893 0.0
H801 H 0.69553 1.00137 0.61989 0.0
H802 H 0.69936 0.05898 0.57135 0.0
H803 H 0.68056 0.0999 0.5494 0.0
H804 H 0.57586 0.05183 0.54432 0.0
H805 H 0.5939 0.01085 0.56636 0.0
C806 C 0.69049 0.84501 0.59274 0.0
C807 C 0.657 0.8306 0.58739 0.0
C808 C 0.69415 0.88192 0.5942 0.0
C809 C 0.66419 0.90505 0.59071 0.0
C810 C 0.63085 0.89072 0.58515 0.0
C811 C 0.62725 0.85386 0.58359 0.0
C812 C 0.66724 0.94389 0.59337 0.0
C813 C 0.65583 0.96952 0.58172 0.0
C814 C 0.68163 0.95571 0.6073 0.0
C815 C 0.69192 0.93032 0.62038 0.0
C816 C 0.66679 0.90581 0.62527 0.0
C817 C 0.67675 0.88183 0.63755 0.0
C818 C 0.71169 0.8823 0.6451 0.0
C819 C 0.73672 0.90682 0.64042 0.0
C820 C 0.72692 0.93083 0.62814 0.0
C821 C 0.64977 0.11497 0.60296 0.0
C822 C 0.68191 0.12647 0.61094 0.0
C823 C 0.64743 0.08033 0.59789 0.0
C824 C 0.67736 0.05693 0.60053 0.0
C825 C 0.71005 0.06949 0.60764 0.0
C826 C 0.71223 0.10374 0.61286 0.0
C827 C 0.67404 0.01831 0.59743 0.0
C828 C 0.6851 0.99258 0.60909 0.0
C829 C 0.65913 0.00655 0.58354 0.0
C830 C 0.64792 0.032 0.57057 0.0
C831 C 0.6722 0.05738 0.56565 0.0
C832 C 0.66171 0.08051 0.55315 0.0
C833 C 0.62706 0.07837 0.54544 0.0
C834 C 0.60272 0.05336 0.55028 0.0
C835 C 0.61307 0.03017 0.56277 0.0
H836 H 0.61902 0.096 0.53568 0.0
H837 H 0.71935 0.86372 0.65461 0.0
H838 H 0.28033 0.17232 0.10372 0.0
H839 H 0.29549 0.11122 0.11448 0.0
H840 H 0.18267 0.08412 0.10841 0.0
H841 H 0.16775 0.14492 0.09781 0.0
H842 H 0.21706 0.04743 0.13264 0.0
H843 H 0.23257 0.0754 0.08136 0.0
H844 H 0.25859 0.10814 0.061 0.0
H845 H 0.36459 0.07276 0.08021 0.0
H846 H 0.33916 0.04033 0.10087 0.0
H847 H 0.20736 0.88747 0.08813 0.0
H848 H 0.22929 0.94808 0.09092 0.0
H849 H 0.26476 0.92131 0.13725 0.0
H850 H 0.24105 0.86056 0.13459 0.0
H851 H 0.28489 0.98559 0.09859 0.0
H852 H 0.24301 0.99229 0.15626 0.0
H853 H 0.2056 0.9595 0.17297 0.0
H854 H 0.13643 0.92413 0.13552 0.0
H855 H 0.1732 0.95702 0.11863 0.0
C856 C 0.25884 0.15358 0.10528 0.0
C857 C 0.22294 0.16296 0.10006 0.0
C858 C 0.26746 0.11876 0.11135 0.0
C859 C 0.24023 0.09304 0.11211 0.0
C860 C 0.2041 0.10353 0.10802 0.0
C861 C 0.19555 0.13818 0.10194 0.0
C862 C 0.24895 0.05426 0.11473 0.0
C863 C 0.23273 0.0339 0.12548 0.0
C864 C 0.26875 0.03655 0.10517 0.0
C865 C 0.28407 0.05602 0.09279 0.0
C866 C 0.26146 0.07492 0.08132 0.0
C867 C 0.27608 0.09336 0.06972 0.0
C868 C 0.31324 0.09265 0.06934 0.0
C869 C 0.33583 0.07341 0.08055 0.0
C870 C 0.32134 0.05505 0.09223 0.0
C871 C 0.22065 0.89418 0.09884 0.0
C872 C 0.22212 0.86945 0.11118 0.0
C873 C 0.23342 0.92886 0.10042 0.0
C874 C 0.24793 0.93958 0.11437 0.0
C875 C 0.25302 0.9138 0.12643 0.0
C876 C 0.23991 0.87894 0.12487 0.0
C877 C 0.25246 0.97853 0.11632 0.0
C878 C 0.27101 0.99904 0.10636 0.0
C879 C 0.23354 0.99629 0.12619 0.0
C880 C 0.21113 0.97666 0.13623 0.0
C881 C 0.2198 0.97752 0.15162 0.0
C882 C 0.1987 0.95894 0.16111 0.0
C883 C 0.16875 0.93962 0.15531 0.0
C884 C 0.15971 0.93899 0.14 0.0
C885 C 0.18066 0.95758 0.13047 0.0
H886 H 0.15248 0.92524 0.16268 0.0
H887 H 0.32452 0.10688 0.06033 0.0
H888 H 0.53754 0.13524 0.41775 0.0
H889 H 0.53839 0.07085 0.41416 0.0
H890 H 0.52343 0.09389 0.36686 0.0
H891 H 0.52285 0.15846 0.37045 0.0
H892 H 0.48072 0.0352 0.37665 0.0
H893 H 0.60393 0.07458 0.38226 0.0
H894 H 0.65699 0.10512 0.39447 0.0
H895 H 0.6553 0.03539 0.4337 0.0
H896 H 0.60186 0.00476 0.42179 0.0
H897 H 0.55236 0.86253 0.36067 0.0
H898 H 0.53242 0.92481 0.36156 0.0
H899 H 0.55334 0.9145 0.40921 0.0
H900 H 0.5737 0.85274 0.40828 0.0
H901 H 0.59197 0.96764 0.39741 0.0
H902 H 0.45809 0.94798 0.39507 0.0
H903 H 0.40244 0.91845 0.38464 0.0
H904 H 0.42649 0.94636 0.34066 0.0
H905 H 0.4815 0.9776 0.35092 0.0
C906 C 0.53426 0.12648 0.40661 0.0
C907 C 0.5301 0.15166 0.39438 0.0
C908 C 0.53468 0.08979 0.40456 0.0
C909 C 0.53105 0.07764 0.39024 0.0
C910 C 0.52607 0.10273 0.37799 0.0
C911 C 0.52589 0.13951 0.38005 0.0
C912 C 0.53457 0.03883 0.38818 0.0
C913 C 0.50524 0.02053 0.38099 0.0
C914 C 0.56628 0.01951 0.39405 0.0
C915 C 0.5987 0.03759 0.40118 0.0
C916 C 0.61471 0.06593 0.39353 0.0
C917 C 0.64488 0.08323 0.40039 0.0
C918 C 0.65946 0.07226 0.41487 0.0
C919 C 0.64395 0.04388 0.42249 0.0
C920 C 0.61375 0.02652 0.41569 0.0
C921 C 0.55097 0.87313 0.37131 0.0
C922 C 0.56419 0.85292 0.38441 0.0
C923 C 0.53972 0.90875 0.37183 0.0
C924 C 0.54138 0.92437 0.38547 0.0
C925 C 0.55186 0.90307 0.39858 0.0
C926 C 0.56333 0.86777 0.39804 0.0
C927 C 0.53793 0.9638 0.38613 0.0
C928 C 0.56749 0.98232 0.393 0.0
C929 C 0.50655 0.98319 0.38001 0.0
C930 C 0.47383 0.9647 0.37373 0.0
C931 C 0.45143 0.94774 0.38318 0.0
C932 C 0.42 0.93081 0.3773 0.0
C933 C 0.41117 0.93002 0.36198 0.0
C934 C 0.43343 0.94684 0.35251 0.0
C935 C 0.46454 0.96448 0.35835 0.0
H936 H 0.38701 0.91653 0.35746 0.0
H937 H 0.68281 0.0857 0.42016 0.0
H938 H 0.14716 0.8368 0.93308 0.0
H939 H 0.14896 0.90156 0.92752 0.0
H940 H 0.05682 0.89494 0.89417 0.0
H941 H 0.05437 0.83008 0.89984 0.0
H942 H 0.10876 0.93855 0.88453 0.0
H943 H 0.04729 0.925 0.92744 0.0
H944 H 0.03948 0.90327 0.95289 0.0
H945 H 0.13489 0.95897 0.96973 0.0
H946 H 0.14357 0.98062 0.94435 0.0
H947 H 0.06161 0.12133 0.87339 0.0
H948 H 0.06089 0.05706 0.87999 0.0
H949 H 0.14959 0.06873 0.91454 0.0
H950 H 0.15005 0.13359 0.90808 0.0
H951 H 0.10131 0.02246 0.92381 0.0
H952 H 0.1627 0.03684 0.88116 0.0
H953 H 0.17095 0.05883 0.85579 0.0
H954 H 0.07701 1.00151 0.83851 0.0
H955 H 0.06786 0.9796 0.86381 0.0
C956 C 0.12701 0.84906 0.92465 0.0
C957 C 0.10039 0.82807 0.91701 0.0
C958 C 0.12817 0.88617 0.92145 0.0
C959 C 0.10275 0.90328 0.91056 0.0
C960 C 0.07671 0.88237 0.90263 0.0
C961 C 0.07545 0.84522 0.90586 0.0
C962 C 0.10325 0.94296 0.90747 0.0
C963 C 0.10666 0.9569 0.89308 0.0
C964 C 0.10153 0.96697 0.9187 0.0
C965 C 0.09628 0.95412 0.93398 0.0
C966 C 0.06677 0.93237 0.93656 0.0
C967 C 0.06216 0.92011 0.95098 0.0
C968 C 0.08673 0.92965 0.96292 0.0
C969 C 0.11591 0.95155 0.96047 0.0
C970 C 0.12068 0.96385 0.94607 0.0
C971 C 0.08102 0.11031 0.88239 0.0
C972 C 0.10624 0.13254 0.89006 0.0
C973 C 0.08062 0.07345 0.88614 0.0
C974 C 0.10571 0.05778 0.89755 0.0
C975 C 0.13011 0.0801 0.90562 0.0
C976 C 0.13038 0.11717 0.90192 0.0
C977 C 0.10661 0.0181 0.90084 0.0
C978 C 0.10351 1.00414 0.91527 0.0
C979 C 0.10877 0.99403 0.88965 0.0
C980 C 0.11442 0.00683 0.8744 0.0
C981 C 0.14366 0.02911 0.87196 0.0
C982 C 0.14851 0.04154 0.85759 0.0
C983 C 0.12447 0.03164 0.84555 0.0
C984 C 0.09559 0.00919 0.84785 0.0
C985 C 0.09057 0.99673 0.8622 0.0
H986 H 0.12827 0.0413 0.83443 0.0
H987 H 0.0831 0.92013 0.97407 0.0
H988 H 0.16488 0.1656 0.05073 0.0
H989 H 0.15779 0.15651 0.02428 0.0
H990 H 0.20811 0.25832 0.01592 0.0
H991 H 0.21678 0.26709 0.04237 0.0
H992 H 0.14394 0.2457 0.99621 0.0
H993 H 0.25707 0.18772 0.01719 0.0
H994 H 0.29386 0.14486 0.03464 0.0
H995 H 0.23086 0.05753 0.0173 0.0
H996 H 0.19327 0.09997 -9e-05 0.0
H997 H 0.2321 0.22449 0.9309 0.0
H998 H 0.23373 0.20898 0.95739 0.0
H999 H 0.12263 0.17657 0.9502 0.0
H1000 H 0.12104 0.19123 0.92358 0.0
H1001 H 0.21252 0.1485 0.97772 0.0
H1002 H 0.08423 0.23072 0.97345 0.0
H1003 H 0.04806 0.27418 0.95597 0.0
H1004 H 0.14432 0.31449 0.94012 0.0
H1005 H 0.181 0.27173 0.95767 0.0
C1006 C 0.17477 0.18597 0.04331 0.0
C1007 C 0.19172 0.21698 0.04873 0.0
C1008 C 0.17041 0.1808 0.02819 0.0
C1009 C 0.18257 0.20668 0.01822 0.0
C1010 C 0.19843 0.23813 0.02348 0.0
C1011 C 0.20319 0.24315 0.03861 0.0
C1012 C 0.17992 0.20065 0.00231 0.0
C1013 C 0.15863 0.22423 0.99219 0.0
C1014 C 0.19909 0.17258 0.9971 0.0
C1015 C 0.22213 0.14705 0.00736 0.0
C1016 C 0.25089 0.1594 0.01717 0.0
C1017 C 0.27192 0.13519 0.02704 0.0
C1018 C 0.26466 0.0985 0.0271 0.0
C1019 C 0.23642 0.08596 0.01726 0.0
C1020 C 0.21526 0.11008 0.00739 0.0
C1021 C 0.20845 0.21274 0.9349 0.0
C1022 C 0.17633 0.20943 0.92526 0.0
C1023 C 0.20948 0.20372 0.95001 0.0
C1024 C 0.17821 0.19201 0.9557 0.0
C1025 C 0.14702 0.18554 0.94595 0.0
C1026 C 0.14618 0.19391 0.93077 0.0
C1027 C 0.17654 0.19354 0.97169 0.0
C1028 C 0.19714 0.16935 0.9818 0.0
C1029 C 0.15684 0.2211 0.97695 0.0
C1030 C 0.13523 0.24777 0.96673 0.0
C1031 C 0.09762 0.24899 0.96627 0.0
C1032 C 0.07706 0.27349 0.95636 0.0
C1033 C 0.09387 0.29699 0.9469 0.0
C1034 C 0.13131 0.2962 0.94741 0.0
C1035 C 0.15199 0.27184 0.95734 0.0
H1036 H 0.0779 0.31585 0.9392 0.0
H1037 H 0.28095 0.0798 0.03475 0.0
H1038 H 0.05834 0.77256 0.28448 0.0
H1039 H 0.05032 0.76514 0.25797 0.0
H1040 H 0.13019 0.84621 0.25204 0.0
H1041 H 0.13694 0.85532 0.27846 0.0
H1042 H 0.07756 0.85086 0.22913 0.0
H1043 H 0.15208 0.7562 0.25631 0.0
H1044 H 0.16558 0.70581 0.27511 0.0
H1045 H 0.07567 0.64758 0.25467 0.0
H1046 H 0.06137 0.69787 0.23585 0.0
H1047 H 0.16637 0.80412 0.17046 0.0
H1048 H 0.14401 0.81904 0.19313 0.0
H1049 H 0.07007 0.73031 0.18945 0.0
H1050 H 0.09432 0.71419 0.16698 0.0
H1051 H 0.1057 0.72843 0.21593 0.0
H1052 H 0.04437 0.82079 0.18431 0.0
H1053 H 0.04256 0.86874 0.1644 0.0
H1054 H 0.11176 0.9334 0.19291 0.0
H1055 H 0.11652 0.88462 0.21262 0.0
C1056 C 0.07357 0.78954 0.27753 0.0
C1057 C 0.09858 0.81435 0.28368 0.0
C1058 C 0.06915 0.785 0.26235 0.0
C1059 C 0.09009 0.80467 0.25304 0.0
C1060 C 0.11382 0.83062 0.25901 0.0
C1061 C 0.118 0.83546 0.27417 0.0
C1062 C 0.08961 0.79627 0.23737 0.0
C1063 C 0.08368 0.82414 0.22619 0.0
C1064 C 0.09676 0.76119 0.23352 0.0
C1065 C 0.10538 0.73094 0.2448 0.0
C1066 C 0.13503 0.73275 0.2559 0.0
C1067 C 0.14285 0.70421 0.26654 0.0
C1068 C 0.12142 0.67357 0.26612 0.0
C1069 C 0.09219 0.67137 0.25501 0.0
C1070 C 0.08421 0.69987 0.24435 0.0
C1071 C 0.14461 0.78849 0.17429 0.0
C1072 C 0.13151 0.75848 0.16699 0.0
C1073 C 0.13174 0.79704 0.18722 0.0
C1074 C 0.10485 0.77621 0.19292 0.0
C1075 C 0.09065 0.74691 0.18522 0.0
C1076 C 0.10416 0.73788 0.17237 0.0
C1077 C 0.09455 0.78318 0.20762 0.0
C1078 C 0.09848 0.75502 0.21869 0.0
C1079 C 0.08606 0.81812 0.21134 0.0
C1080 C 0.08091 0.8488 0.19996 0.0
C1081 C 0.05934 0.84515 0.18634 0.0
C1082 C 0.05791 0.87246 0.17505 0.0
C1083 C 0.07662 0.90432 0.17743 0.0
C1084 C 0.09713 0.90877 0.19109 0.0
C1085 C 0.09945 0.88113 0.2023 0.0
H1086 H 0.07535 0.92548 0.16868 0.0
H1087 H 0.12753 0.65149 0.27436 0.0
H1088 H 0.67734 0.74325 0.53212 0.0
H1089 H 0.66075 0.73114 0.50618 0.0
H1090 H 0.60911 0.63324 0.51931 0.0
H1091 H 0.62364 0.64596 0.54526 0.0
H1092 H 0.66275 0.62827 0.49816 0.0
H1093 H 0.55511 0.69031 0.50527 0.0
H1094 H 0.52079 0.73968 0.5135 0.0
H1095 H 0.56687 0.81457 0.48368 0.0
H1096 H 0.60191 0.76573 0.47543 0.0
H1097 H 0.57166 0.68038 0.41543 0.0
H1098 H 0.5676 0.66 0.4413 0.0
H1099 H 0.68227 0.67402 0.45201 0.0
H1100 H 0.68631 0.69374 0.42639 0.0
H1101 H 0.58345 0.70743 0.46197 0.0
H1102 H 0.71471 0.62458 0.48479 0.0
H1103 H 0.75222 0.5779 0.47654 0.0
H1104 H 0.66308 0.54638 0.44575 0.0
H1105 H 0.62473 0.59233 0.45405 0.0
C1106 C 0.66175 0.71954 0.52955 0.0
C1107 C 0.65212 0.6955 0.54088 0.0
C1108 C 0.65255 0.71253 0.51471 0.0
C1109 C 0.6339 0.68122 0.51089 0.0
C1110 C 0.62377 0.6574 0.52207 0.0
C1111 C 0.63236 0.66468 0.53691 0.0
C1112 C 0.62605 0.6731 0.49519 0.0
C1113 C 0.64528 0.64526 0.49017 0.0
C1114 C 0.60259 0.69495 0.48497 0.0
C1115 C 0.58129 0.72436 0.4898 0.0
C1116 C 0.55813 0.71734 0.50055 0.0
C1117 C 0.53851 0.74523 0.5052 0.0
C1118 C 0.54168 0.78025 0.49913 0.0
C1119 C 0.56443 0.78744 0.48837 0.0
C1120 C 0.58414 0.75964 0.48369 0.0
C1121 C 0.59612 0.67739 0.4232 0.0
C1122 C 0.62925 0.68884 0.41904 0.0
C1123 C 0.59377 0.66612 0.43798 0.0
C1124 C 0.62459 0.66581 0.44862 0.0
C1125 C 0.65817 0.67368 0.44404 0.0
C1126 C 0.66047 0.685 0.42937 0.0
C1127 C 0.6215 0.66345 0.46467 0.0
C1128 C 0.60034 0.68962 0.46985 0.0
C1129 C 0.64375 0.64034 0.47498 0.0
C1130 C 0.66657 0.61192 0.47013 0.0
C1131 C 0.70283 0.60741 0.47641 0.0
C1132 C 0.72434 0.58109 0.4717 0.0
C1133 C 0.71 0.55909 0.46067 0.0
C1134 C 0.6741 0.56332 0.45435 0.0
C1135 C 0.65245 0.58947 0.45908 0.0
H1136 H 0.72673 0.53882 0.457 0.0
H1137 H 0.52648 0.80181 0.50276 0.0
H1138 H 0.57591 0.28964 0.78531 0.0
H1139 H 0.56421 0.28737 0.75838 0.0
H1140 H 0.64653 0.20595 0.76031 0.0
H1141 H 0.65817 0.20791 0.78715 0.0
H1142 H 0.65468 0.25867 0.73947 0.0
H1143 H 0.55658 0.18273 0.75324 0.0
H1144 H 0.50308 0.17018 0.76583 0.0
H1145 H 0.44887 0.26205 0.74213 0.0
H1146 H 0.5023 0.2754 0.7296 0.0
H1147 H 0.62269 0.16702 0.67612 0.0
H1148 H 0.60512 0.17764 0.70021 0.0
H1149 H 0.57825 0.28731 0.68521 0.0
H1150 H 0.59615 0.2769 0.66095 0.0
H1151 H 0.53733 0.22748 0.71152 0.0
H1152 H 0.64093 0.30621 0.69901 0.0
H1153 H 0.69442 0.31278 0.68593 0.0
H1154 H 0.73749 0.21344 0.7075 0.0
H1155 H 0.68394 0.20615 0.72053 0.0
C1156 C 0.59113 0.27089 0.78001 0.0
C1157 C 0.61812 0.2491 0.78835 0.0
C1158 C 0.58446 0.26968 0.76462 0.0
C1159 C 0.60452 0.2465 0.75735 0.0
C1160 C 0.63094 0.22426 0.76569 0.0
C1161 C 0.63763 0.22546 0.78103 0.0
C1162 C 0.59903 0.24597 0.741 0.0
C1163 C 0.62879 0.25246 0.73338 0.0
C1164 C 0.56532 0.23801 0.73297 0.0
C1165 C 0.53329 0.22998 0.74047 0.0
C1166 C 0.53326 0.20027 0.75076 0.0
C1167 C 0.50298 0.19304 0.75789 0.0
C1168 C 0.47258 0.21528 0.75477 0.0
C1169 C 0.4724 0.24481 0.74452 0.0
C1170 C 0.50263 0.25218 0.73738 0.0
C1171 C 0.61163 0.193 0.67774 0.0
C1172 C 0.6111 0.22124 0.66675 0.0
C1173 C 0.60144 0.19896 0.69148 0.0
C1174 C 0.59065 0.23325 0.69446 0.0
C1175 C 0.58629 0.26058 0.68303 0.0
C1176 C 0.5965 0.2546 0.66919 0.0
C1177 C 0.59241 0.24174 0.71007 0.0
C1178 C 0.56248 0.23569 0.71758 0.0
C1179 C 0.6258 0.25059 0.71804 0.0
C1180 C 0.65848 0.25558 0.71065 0.0
C1181 C 0.6618 0.28577 0.70092 0.0
C1182 C 0.69209 0.28961 0.69351 0.0
C1183 C 0.71932 0.26352 0.69586 0.0
C1184 C 0.71637 0.23362 0.70568 0.0
C1185 C 0.68609 0.22963 0.71308 0.0
H1186 H 0.74272 0.26649 0.6901 0.0
H1187 H 0.44917 0.20964 0.7603 0.0
H1188 H 0.16041 0.75337 0.95999 0.0
H1189 H 0.17109 0.73313 0.98627 0.0
H1190 H 0.07222 0.67323 0.98152 0.0
H1191 H 0.06162 0.6931 0.95512 0.0
H1192 H 0.07966 0.72048 0.00488 0.0
H1193 H 0.14489 0.62679 0.98743 0.0
H1194 H 0.18837 0.60024 0.97321 0.0
H1195 H 0.27478 0.65559 0.99762 0.0
H1196 H 0.23173 0.68298 0.01183 0.0
H1197 H 0.10812 0.68379 0.08002 0.0
H1198 H 0.10107 0.66283 0.05502 0.0
H1199 H 0.20353 0.70932 0.04813 0.0
H1200 H 0.21133 0.72838 0.07337 0.0
H1201 H 0.18963 0.6576 0.03018 0.0
H1202 H 0.1252 0.76013 0.04296 0.0
H1203 H 0.08383 0.79131 0.05678 0.0
H1204 H 0.99745 0.72288 0.04052 0.0
H1205 H 0.03853 0.69092 0.02678 0.0
C1206 C 0.1411 0.73571 0.96454 0.0
C1207 C 0.11015 0.72488 0.95557 0.0
C1208 C 0.14735 0.72395 0.9795 0.0
C1209 C 0.12258 0.70146 0.98579 0.0
C1210 C 0.09176 0.69038 0.97684 0.0
C1211 C 0.08578 0.70168 0.9618 0.0
C1212 C 0.12777 0.69197 0.00194 0.0
C1213 C 0.1031 0.70569 0.01041 0.0
C1214 C 0.15891 0.6736 0.00913 0.0
C1215 C 0.18499 0.65717 0.00063 0.0
C1216 C 0.17311 0.63357 0.98968 0.0
C1217 C 0.1977 0.61831 0.98164 0.0
C1218 C 0.23431 0.62627 0.98449 0.0
C1219 C 0.24641 0.64946 0.99542 0.0
C1220 C 0.22192 0.66483 0.00348 0.0
C1221 C 0.1301 0.68739 0.07348 0.0
C1222 C 0.16043 0.70729 0.0786 0.0
C1223 C 0.12587 0.6759 0.05911 0.0
C1224 C 0.15117 0.68566 0.04951 0.0
C1225 C 0.18348 0.70169 0.05526 0.0
C1226 C 0.18805 0.71245 0.06972 0.0
C1227 C 0.14137 0.68573 0.03319 0.0
C1228 C 0.16539 0.67089 0.02467 0.0
C1229 C 0.10981 0.70347 0.0259 0.0
C1230 C 0.08499 0.72287 0.034 0.0
C1231 C 0.09743 0.75162 0.0424 0.0
C1232 C 0.07405 0.76942 0.05022 0.0
C1233 C 0.03806 0.75901 0.04957 0.0
C1234 C 0.02536 0.73084 0.04105 0.0
C1235 C 0.04867 0.71286 0.03325 0.0
H1236 H 0.02 0.77282 0.05563 0.0
H1237 H 0.25331 0.61443 0.97825 0.0
H1238 H 0.71378 0.77657 0.20846 0.0
H1239 H 0.7188 0.76313 0.23524 0.0
H1240 H 0.64144 0.84684 0.23824 0.0
H1241 H 0.63762 0.86152 0.21169 0.0
H1242 H 0.6915 0.84601 0.26127 0.0
H1243 H 0.61699 0.75769 0.23601 0.0
H1244 H 0.60345 0.71035 0.21863 0.0
H1245 H 0.68975 0.64552 0.24227 0.0
H1246 H 0.70409 0.69274 0.25968 0.0
H1247 H 0.58568 0.7889 0.31627 0.0
H1248 H 0.61125 0.80421 0.29342 0.0
H1249 H 0.69907 0.73002 0.30774 0.0
H1250 H 0.67362 0.71507 0.33096 0.0
H1251 H 0.65869 0.72261 0.27798 0.0
H1252 H 0.72019 0.80947 0.30688 0.0
H1253 H 0.72488 0.85627 0.32475 0.0
H1254 H 0.65646 0.92574 0.29375 0.0
H1255 H 0.64981 0.87853 0.27604 0.0
C1256 C 0.69845 0.79264 0.21487 0.0
C1257 C 0.67495 0.81986 0.2079 0.0
C1258 C 0.70111 0.78471 0.23016 0.0
C1259 C 0.68005 0.80357 0.23872 0.0
C1260 C 0.65788 0.83181 0.23188 0.0
C1261 C 0.6554 0.83991 0.21665 0.0
C1262 C 0.67904 0.79274 0.2546 0.0
C1263 C 0.68436 0.81903 0.26492 0.0
C1264 C 0.67049 0.75731 0.25946 0.0
C1265 C 0.66192 0.72891 0.24902 0.0
C1266 C 0.63326 0.73346 0.23742 0.0
C1267 C 0.62541 0.70664 0.22758 0.0
C1268 C 0.64582 0.675 0.22931 0.0
C1269 C 0.67404 0.67008 0.24092 0.0
C1270 C 0.68204 0.69686 0.25078 0.0
C1271 C 0.61075 0.7763 0.31463 0.0
C1272 C 0.62794 0.75109 0.32531 0.0
C1273 C 0.62532 0.78506 0.30161 0.0
C1274 C 0.65707 0.76833 0.29894 0.0
C1275 C 0.67458 0.74324 0.30966 0.0
C1276 C 0.66022 0.73488 0.32288 0.0
C1277 C 0.67019 0.77609 0.28449 0.0
C1278 C 0.66692 0.7493 0.27441 0.0
C1279 C 0.6798 0.81123 0.2798 0.0
C1280 C 0.68435 0.84026 0.2902 0.0
C1281 C 0.70588 0.83458 0.30397 0.0
C1282 C 0.7089 0.8612 0.31406 0.0
C1283 C 0.69119 0.89408 0.31036 0.0
C1284 C 0.67023 0.90027 0.29659 0.0
C1285 C 0.66671 0.8735 0.28654 0.0
H1286 H 0.69369 0.91472 0.31817 0.0
H1287 H 0.6397 0.65425 0.22169 0.0
H1288 H 0.64965 0.24475 0.45925 0.0
H1289 H 0.65924 0.22324 0.48538 0.0
H1290 H 0.56239 0.16047 0.47904 0.0
H1291 H 0.55265 0.18195 0.45285 0.0
H1292 H 0.56459 0.20547 0.50204 0.0
H1293 H 0.64015 0.11743 0.48622 0.0
H1294 H 0.68822 0.09495 0.4732 0.0
H1295 H 0.76649 0.15577 0.49957 0.0
H1296 H 0.71881 0.17908 0.5126 0.0
H1297 H 0.5842 0.16739 0.5772 0.0
H1298 H 0.58164 0.14833 0.55196 0.0
H1299 H 0.68379 0.19929 0.54813 0.0
H1300 H 0.68721 0.21624 0.57359 0.0
H1301 H 0.67558 0.14916 0.52969 0.0
H1302 H 0.60171 0.24669 0.54094 0.0
H1303 H 0.55578 0.27452 0.55362 0.0
H1304 H 0.47642 0.20127 0.53522 0.0
H1305 H 0.52209 0.17268 0.5226 0.0
C1306 C 0.63059 0.22611 0.46341 0.0
C1307 C 0.60031 0.21515 0.45406 0.0
C1308 C 0.63627 0.21358 0.47829 0.0
C1309 C 0.61168 0.19002 0.48411 0.0
C1310 C 0.5818 0.17844 0.47473 0.0
C1311 C 0.57632 0.19065 0.45979 0.0
C1312 C 0.61541 0.18052 0.50025 0.0
C1313 C 0.58838 0.19218 0.50807 0.0
C1314 C 0.64699 0.16424 0.5081 0.0
C1315 C 0.67582 0.15021 0.50033 0.0
C1316 C 0.66756 0.12626 0.48917 0.0
C1317 C 0.69476 0.11331 0.4818 0.0
C1318 C 0.73038 0.12397 0.48554 0.0
C1319 C 0.73888 0.14754 0.49668 0.0
C1320 C 0.71178 0.16059 0.50408 0.0
C1321 C 0.60695 0.17263 0.57121 0.0
C1322 C 0.63591 0.19313 0.57722 0.0
C1323 C 0.60531 0.16222 0.55674 0.0
C1324 C 0.63182 0.1737 0.54794 0.0
C1325 C 0.66281 0.19042 0.5546 0.0
C1326 C 0.66485 0.2 0.56919 0.0
C1327 C 0.62472 0.17413 0.53152 0.0
C1328 C 0.65126 0.16131 0.52365 0.0
C1329 C 0.59291 0.18993 0.52355 0.0
C1330 C 0.56535 0.20731 0.53098 0.0
C1331 C 0.57449 0.23643 0.53967 0.0
C1332 C 0.54853 0.25232 0.54684 0.0
C1333 C 0.51322 0.23961 0.54526 0.0
C1334 C 0.5038 0.21103 0.53646 0.0
C1335 C 0.5297 0.19497 0.5293 0.0
H1336 H 0.49315 0.25194 0.55082 0.0
H1337 H 0.75139 0.11392 0.47982 0.0
H1338 H 0.20427 0.31191 0.71199 0.0
H1339 H 0.21214 0.29713 0.73878 0.0
H1340 H 0.10907 0.24476 0.73489 0.0
H1341 H 0.10163 0.25776 0.70817 0.0
H1342 H 0.11981 0.29622 0.75725 0.0
H1343 H 0.1756 0.19084 0.7408 0.0
H1344 H 0.21881 0.16103 0.72736 0.0
H1345 H 0.30661 0.21325 0.75235 0.0
H1346 H 0.2638 0.24382 0.76571 0.0
H1347 H 0.14977 0.15981 0.82289 0.0
H1348 H 0.16328 0.17733 0.79803 0.0
H1349 H 0.17302 0.28754 0.80914 0.0
H1350 H 0.15793 0.27038 0.83383 0.0
H1351 H 0.21085 0.20943 0.78306 0.0
H1352 H 0.12716 0.34001 0.78093 0.0
H1353 H 0.08003 0.36536 0.79376 0.0
H1354 H 0.04395 0.25927 0.80522 0.0
H1355 H 0.09049 0.23335 0.79229 0.0
C1356 C 0.18352 0.29677 0.71679 0.0
C1357 C 0.15211 0.2864 0.7079 0.0
C1358 C 0.18797 0.2886 0.73211 0.0
C1359 C 0.16099 0.27022 0.73876 0.0
C1360 C 0.12995 0.25941 0.72994 0.0
C1361 C 0.12569 0.26707 0.71467 0.0
C1362 C 0.16473 0.26216 0.75496 0.0
C1363 C 0.1403 0.27793 0.763 0.0
C1364 C 0.19089 0.23771 0.76232 0.0
C1365 C 0.21657 0.21954 0.75425 0.0
C1366 C 0.20412 0.19606 0.74336 0.0
C1367 C 0.22852 0.17905 0.73575 0.0
C1368 C 0.26544 0.18522 0.739 0.0
C1369 C 0.27802 0.20845 0.74985 0.0
C1370 C 0.25371 0.22559 0.75746 0.0
C1371 C 0.15581 0.18764 0.82017 0.0
C1372 C 0.15257 0.21373 0.8303 0.0
C1373 C 0.16363 0.19761 0.80596 0.0
C1374 C 0.16824 0.23386 0.8016 0.0
C1375 C 0.16889 0.25947 0.81219 0.0
C1376 C 0.16075 0.24954 0.8264 0.0
C1377 C 0.16746 0.24506 0.78566 0.0
C1378 C 0.19176 0.22925 0.77755 0.0
C1379 C 0.14109 0.26948 0.77822 0.0
C1380 C 0.11259 0.28479 0.7858 0.0
C1381 C 0.10908 0.32213 0.78615 0.0
C1382 C 0.08248 0.33658 0.79344 0.0
C1383 C 0.0591 0.31393 0.80035 0.0
C1384 C 0.06215 0.27678 0.79992 0.0
C1385 C 0.08864 0.2622 0.79262 0.0
H1386 H 0.03856 0.32517 0.806 0.0
H1387 H 0.2843 0.17201 0.73311 0.0
loop_
_geom_bond_atom_site_label_1
_geom_bond_atom_site_label_2
_geom_bond_distance
_geom_bond_site_symmetry_2
_ccdc_geom_bond_type
H0 C7 0.929 . S
H1 C10 0.930 . S
H2 C12 0.929 . S
H3 C4 0.969 . S
C4 H3 0.969 . S
C4 O5 1.550 . S
C4 H6 0.973 . S
O5 C4 1.550 . S
O5 C11 1.412 . S
H6 C4 0.973 . S
C7 H0 0.929 . S
C7 C8 1.400 . S
C7 C9 1.364 . S
C8 C7 1.400 . S
C8 C12 1.377 . S
C9 C7 1.364 . S
C9 C10 1.374 . S
C10 H1 0.930 . S
C10 C9 1.374 . S
C10 C11 1.383 . S
C11 O5 1.412 . S
C11 C10 1.383 . S
C11 C12 1.394 . S
C12 H2 0.929 . S
C12 C8 1.377 . S
C12 C11 1.394 . S
H13 C20 0.929 . S
H14 C23 0.930 . S
H15 C25 0.929 . S
H16 C17 0.969 . S
C17 H16 0.969 . S
C17 O18 1.550 . S
C17 H19 0.973 . S
O18 C17 1.550 . S
O18 C24 1.412 . S
H19 C17 0.973 . S
C20 H13 0.929 . S
C20 C21 1.400 . S
C20 C22 1.364 . S
C21 C20 1.400 . S
C21 C25 1.377 . S
C22 C20 1.364 . S
C22 C23 1.374 . S
C23 H14 0.930 . S
C23 C22 1.374 . S
C23 C24 1.383 . S
C24 O18 1.412 . S
C24 C23 1.383 . S
C24 C25 1.394 . S
C25 H15 0.929 . S
C25 C21 1.377 . S
C25 C24 1.394 . S
H26 C33 0.929 . S
H27 C36 0.930 . S
H28 C38 0.929 . S
H29 C30 0.969 . S
C30 H29 0.969 . S
C30 O31 1.550 . S
C30 H32 0.973 . S
O31 C30 1.550 . S
O31 C37 1.412 . S
H32 C30 0.973 . S
C33 H26 0.929 . S
C33 C34 1.400 . S
C33 C35 1.364 . S
C34 C33 1.400 . S
C34 C38 1.377 . S
C35 C33 1.364 . S
C35 C36 1.374 . S
C36 H27 0.930 . S
C36 C35 1.374 . S
C36 C37 1.383 . S
C37 O31 1.412 . S
C37 C36 1.383 . S
C37 C38 1.394 . S
C38 H28 0.929 . S
C38 C34 1.377 . S
C38 C37 1.394 . S
H39 C46 0.929 . S
H40 C49 0.930 . S
H41 C51 0.929 . S
H42 C43 0.969 . S
C43 H42 0.969 . S
C43 O44 1.550 . S
C43 H45 0.973 . S
O44 C43 1.550 . S
O44 C50 1.412 . S
H45 C43 0.973 . S
C46 H39 0.929 . S
C46 C47 1.400 . S
C46 C48 1.364 . S
C47 C46 1.400 . S
C47 C51 1.377 . S
C48 C46 1.364 . S
C48 C49 1.374 . S
C49 H40 0.930 . S
C49 C48 1.374 . S
C49 C50 1.383 . S
C50 O44 1.412 . S
C50 C49 1.383 . S
C50 C51 1.394 . S
C51 H41 0.929 . S
C51 C47 1.377 . S
C51 C50 1.394 . S
H52 C59 0.929 . S
H53 C62 0.930 . S
H54 C64 0.929 . S
H55 C56 0.969 . S
C56 H55 0.969 . S
C56 O57 1.550 . S
C56 H58 0.973 . S
O57 C56 1.550 . S
O57 C63 1.412 . S
H58 C56 0.973 . S
C59 H52 0.929 . S
C59 C60 1.400 . S
C59 C61 1.364 . S
C60 C59 1.400 . S
C60 C64 1.377 . S
C61 C59 1.364 . S
C61 C62 1.374 . S
C62 H53 0.930 . S
C62 C61 1.374 . S
C62 C63 1.383 . S
C63 O57 1.412 . S
C63 C62 1.383 . S
C63 C64 1.394 . S
C64 H54 0.929 . S
C64 C60 1.377 . S
C64 C63 1.394 . S
H65 C72 0.929 . S
H66 C75 0.930 . S
H67 C77 0.929 . S
H68 C69 0.969 . S
C69 H68 0.969 . S
C69 O70 1.550 . S
C69 H71 0.973 . S
O70 C69 1.550 . S
O70 C76 1.412 . S
H71 C69 0.973 . S
C72 H65 0.929 . S
C72 C73 1.400 . S
C72 C74 1.364 . S
C73 C72 1.400 . S
C73 C77 1.377 . S
C74 C72 1.364 . S
C74 C75 1.374 . S
C75 H66 0.930 . S
C75 C74 1.374 . S
C75 C76 1.383 . S
C76 O70 1.412 . S
C76 C75 1.383 . S
C76 C77 1.394 . S
C77 H67 0.929 . S
C77 C73 1.377 . S
C77 C76 1.394 . S
H78 C85 0.929 . S
H79 C88 0.930 . S
H80 C90 0.929 . S
H81 C82 0.969 . S
C82 H81 0.969 . S
C82 O83 1.550 . S
C82 H84 0.973 . S
O83 C82 1.550 . S
O83 C89 1.412 . S
H84 C82 0.973 . S
C85 H78 0.929 . S
C85 C86 1.400 . S
C85 C87 1.364 . S
C86 C85 1.400 . S
C86 C90 1.377 . S
C87 C85 1.364 . S
C87 C88 1.374 . S
C88 H79 0.930 . S
C88 C87 1.374 . S
C88 C89 1.383 . S
C89 O83 1.412 . S
C89 C88 1.383 . S
C89 C90 1.394 . S
C90 H80 0.929 . S
C90 C86 1.377 . S
C90 C89 1.394 . S
H91 C98 0.929 . S
H92 C101 0.930 . S
H93 C103 0.929 . S
H94 C95 0.969 . S
C95 H94 0.969 . S
C95 O96 1.550 . S
C95 H97 0.973 . S
O96 C95 1.550 . S
O96 C102 1.412 . S
H97 C95 0.973 . S
C98 H91 0.929 . S
C98 C99 1.400 . S
C98 C100 1.364 . S
C99 C98 1.400 . S
C99 C103 1.377 . S
C100 C98 1.364 . S
C100 C101 1.374 . S
C101 H92 0.930 . S
C101 C100 1.374 . S
C101 C102 1.383 . S
C102 O96 1.412 . S
C102 C101 1.383 . S
C102 C103 1.394 . S
C103 H93 0.929 . S
C103 C99 1.377 . S
C103 C102 1.394 . S
Zn104 O110 1.920 . S
Zn104 O116 1.898 . S
Zn104 O119 1.905 . S
Zn105 O113 1.905 . S
Zn105 O114 1.898 . S
Zn105 O122 1.920 . S
Zn106 O109 2.080 . S
Zn106 O112 2.114 . S
Zn106 O115 2.120 . S
Zn106 O117 2.120 . S
Zn106 O118 2.114 . S
Zn106 O121 2.080 . S
C107 O112 1.166 . S
C107 O113 1.182 . S
C108 O114 1.167 . S
C108 O115 1.299 . S
O109 Zn106 2.080 . S
O109 C123 1.305 . S
O110 Zn104 1.920 . S
O110 C123 1.234 . S
C111 O116 1.167 . S
C111 O117 1.299 . S
O112 Zn106 2.114 . S
O112 C107 1.166 . S
O113 Zn105 1.905 . S
O113 C107 1.182 . S
O114 Zn105 1.898 . S
O114 C108 1.167 . S
O115 Zn106 2.120 . S
O115 C108 1.299 . S
O116 Zn104 1.898 . S
O116 C111 1.167 . S
O117 Zn106 2.120 . S
O117 C111 1.299 . S
O118 Zn106 2.114 . S
O118 C120 1.166 . S
O119 Zn104 1.905 . S
O119 C120 1.182 . S
C120 O118 1.166 . S
C120 O119 1.182 . S
O121 Zn106 2.080 . S
O121 C124 1.305 . S
O122 Zn105 1.920 . S
O122 C124 1.234 . S
C123 O109 1.305 . S
C123 O110 1.234 . S
C124 O121 1.305 . S
C124 O122 1.234 . S
Zn125 O131 1.920 . S
Zn125 O137 1.898 . S
Zn125 O140 1.905 . S
Zn126 O134 1.905 . S
Zn126 O135 1.898 . S
Zn126 O143 1.920 . S
Zn127 O130 2.080 . S
Zn127 O133 2.114 . S
Zn127 O136 2.120 . S
Zn127 O138 2.120 . S
Zn127 O139 2.114 . S
Zn127 O142 2.080 . S
C128 O133 1.166 . S
C128 O134 1.182 . S
C129 O135 1.167 . S
C129 O136 1.299 . S
O130 Zn127 2.080 . S
O130 C144 1.305 . S
O131 Zn125 1.920 . S
O131 C144 1.234 . S
C132 O137 1.167 . S
C132 O138 1.299 . S
O133 Zn127 2.114 . S
O133 C128 1.166 . S
O134 Zn126 1.905 . S
O134 C128 1.182 . S
O135 Zn126 1.898 . S
O135 C129 1.167 . S
O136 Zn127 2.120 . S
O136 C129 1.299 . S
O137 Zn125 1.898 . S
O137 C132 1.167 . S
O138 Zn127 2.120 . S
O138 C132 1.299 . S
O139 Zn127 2.114 . S
O139 C141 1.166 . S
O140 Zn125 1.905 . S
O140 C141 1.182 . S
C141 O139 1.166 . S
C141 O140 1.182 . S
O142 Zn127 2.080 . S
O142 C145 1.305 . S
O143 Zn126 1.920 . S
O143 C145 1.234 . S
C144 O130 1.305 . S
C144 O131 1.234 . S
C145 O142 1.305 . S
C145 O143 1.234 . S
Zn146 O152 1.920 . S
Zn146 O158 1.898 . S
Zn146 O161 1.905 . S
Zn147 O155 1.905 . S
Zn147 O156 1.898 . S
Zn147 O164 1.920 . S
Zn148 O151 2.080 . S
Zn148 O154 2.114 . S
Zn148 O157 2.120 . S
Zn148 O159 2.120 . S
Zn148 O160 2.114 . S
Zn148 O163 2.080 . S
C149 O154 1.166 . S
C149 O155 1.182 . S
C150 O156 1.167 . S
C150 O157 1.299 . S
O151 Zn148 2.080 . S
O151 C165 1.305 . S
O152 Zn146 1.920 . S
O152 C165 1.234 . S
C153 O158 1.167 . S
C153 O159 1.299 . S
O154 Zn148 2.114 . S
O154 C149 1.166 . S
O155 Zn147 1.905 . S
O155 C149 1.182 . S
O156 Zn147 1.898 . S
O156 C150 1.167 . S
O157 Zn148 2.120 . S
O157 C150 1.299 . S
O158 Zn146 1.898 . S
O158 C153 1.167 . S
O159 Zn148 2.120 . S
O159 C153 1.299 . S
O160 Zn148 2.114 . S
O160 C162 1.166 . S
O161 Zn146 1.905 . S
O161 C162 1.182 . S
C162 O160 1.166 . S
C162 O161 1.182 . S
O163 Zn148 2.080 . S
O163 C166 1.305 . S
O164 Zn147 1.920 . S
O164 C166 1.234 . S
C165 O151 1.305 . S
C165 O152 1.234 . S
C166 O163 1.305 . S
C166 O164 1.234 . S
Zn167 O173 1.920 . S
Zn167 O179 1.898 . S
Zn167 O182 1.905 . S
Zn168 O176 1.905 . S
Zn168 O177 1.898 . S
Zn168 O185 1.920 . S
Zn169 O172 2.080 . S
Zn169 O175 2.114 . S
Zn169 O178 2.120 . S
Zn169 O180 2.120 . S
Zn169 O181 2.114 . S
Zn169 O184 2.080 . S
C170 O175 1.166 . S
C170 O176 1.182 . S
C171 O177 1.167 . S
C171 O178 1.299 . S
O172 Zn169 2.080 . S
O172 C186 1.305 . S
O173 Zn167 1.920 . S
O173 C186 1.234 . S
C174 O179 1.167 . S
C174 O180 1.299 . S
O175 Zn169 2.114 . S
O175 C170 1.166 . S
O176 Zn168 1.905 . S
O176 C170 1.182 . S
O177 Zn168 1.898 . S
O177 C171 1.167 . S
O178 Zn169 2.120 . S
O178 C171 1.299 . S
O179 Zn167 1.898 . S
O179 C174 1.167 . S
O180 Zn169 2.120 . S
O180 C174 1.299 . S
O181 Zn169 2.114 . S
O181 C183 1.166 . S
O182 Zn167 1.905 . S
O182 C183 1.182 . S
C183 O181 1.166 . S
C183 O182 1.182 . S
O184 Zn169 2.080 . S
O184 C187 1.305 . S
O185 Zn168 1.920 . S
O185 C187 1.234 . S
C186 O172 1.305 . S
C186 O173 1.234 . S
C187 O184 1.305 . S
C187 O185 1.234 . S
H188 C206 0.951 . S
H189 C208 0.951 . S
H190 C210 0.950 . S
H191 C211 0.950 . S
H192 C213 0.950 . S
H193 C216 0.950 . S
H194 C217 0.950 . S
H195 C219 0.950 . S
H196 C220 0.950 . S
H197 C221 0.951 . S
H198 C223 0.951 . S
H199 C225 0.950 . S
H200 C226 0.950 . S
H201 C228 0.950 . S
H202 C231 0.950 . S
H203 C232 0.950 . S
H204 C234 0.950 . S
H205 C235 0.950 . S
C206 H188 0.951 . S
C206 C207 1.366 . S
C206 C208 1.388 . S
C207 C206 1.366 . S
C207 C211 1.385 . S
C208 H189 0.951 . S
C208 C206 1.388 . S
C208 C209 1.366 . S
C209 C208 1.366 . S
C209 C210 1.414 . S
C209 C212 1.499 . S
C210 H190 0.950 . S
C210 C209 1.414 . S
C210 C211 1.374 . S
C211 H191 0.950 . S
C211 C207 1.385 . S
C211 C210 1.374 . S
C212 C209 1.499 . S
C212 C213 1.373 . S
C212 C214 1.389 . S
C213 H192 0.950 . S
C213 C212 1.373 . S
C213 C229 1.377 . S
C214 C212 1.389 . S
C214 C215 1.524 . S
C214 C228 1.377 . S
C215 C214 1.524 . S
C215 C216 1.397 . S
C215 C220 1.363 . S
C216 H193 0.950 . S
C216 C215 1.397 . S
C216 C217 1.334 . S
C217 H194 0.950 . S
C217 C216 1.334 . S
C217 C218 1.287 . S
C218 C217 1.287 . S
C218 C219 1.524 . S
C218 H237 0.913 . S
C219 H195 0.950 . S
C219 C218 1.524 . S
C219 C220 1.415 . S
C220 H196 0.950 . S
C220 C215 1.363 . S
C220 C219 1.415 . S
C221 H197 0.951 . S
C221 C222 1.366 . S
C221 C223 1.388 . S
C222 C221 1.366 . S
C222 C226 1.385 . S
C223 H198 0.951 . S
C223 C221 1.388 . S
C223 C224 1.366 . S
C224 C223 1.366 . S
C224 C225 1.414 . S
C224 C227 1.499 . S
C225 H199 0.950 . S
C225 C224 1.414 . S
C225 C226 1.374 . S
C226 H200 0.950 . S
C226 C222 1.385 . S
C226 C225 1.374 . S
C227 C224 1.499 . S
C227 C228 1.373 . S
C227 C229 1.389 . S
C228 H201 0.950 . S
C228 C214 1.377 . S
C228 C227 1.373 . S
C229 C213 1.377 . S
C229 C227 1.389 . S
C229 C230 1.524 . S
C230 C229 1.524 . S
C230 C231 1.397 . S
C230 C235 1.363 . S
C231 H202 0.950 . S
C231 C230 1.397 . S
C231 C232 1.334 . S
C232 H203 0.950 . S
C232 C231 1.334 . S
C232 C233 1.287 . S
C233 C232 1.287 . S
C233 C234 1.524 . S
C233 H236 0.999 . S
C234 H204 0.950 . S
C234 C233 1.524 . S
C234 C235 1.415 . S
C235 H205 0.950 . S
C235 C230 1.363 . S
C235 C234 1.415 . S
H236 C233 0.999 . S
H237 C218 0.913 . S
H238 C256 0.951 1_455 S
H239 C258 0.951 . S
H240 C260 0.950 . S
H241 C261 0.950 . S
H242 C263 0.950 . S
H243 C266 0.950 . S
H244 C267 0.950 . S
H245 C269 0.950 . S
H246 C270 0.950 . S
H247 C271 0.951 . S
H248 C273 0.951 . S
H249 C275 0.950 . S
H250 C276 0.950 . S
H251 C278 0.950 . S
H252 C281 0.950 . S
H253 C282 0.950 . S
H254 C284 0.950 . S
H255 C285 0.950 . S
C256 H238 0.951 1_655 S
C256 C257 1.364 1_655 S
C256 C258 1.388 . S
C257 C256 1.364 1_455 S
C257 C261 1.380 1_455 S
C258 H239 0.951 . S
C258 C256 1.388 . S
C258 C259 1.366 . S
C259 C258 1.366 . S
C259 C260 1.414 . S
C259 C262 1.499 . S
C260 H240 0.950 . S
C260 C259 1.414 . S
C260 C261 1.374 . S
C261 H241 0.950 . S
C261 C257 1.380 1_655 S
C261 C260 1.374 . S
C262 C259 1.499 . S
C262 C263 1.373 . S
C262 C264 1.389 . S
C263 H242 0.950 . S
C263 C262 1.373 . S
C263 C279 1.377 . S
C264 C262 1.389 . S
C264 C265 1.524 . S
C264 C278 1.377 . S
C265 C264 1.524 . S
C265 C266 1.397 . S
C265 C270 1.363 . S
C266 H243 0.950 . S
C266 C265 1.397 . S
C266 C267 1.334 . S
C267 H244 0.950 . S
C267 C266 1.334 . S
C267 C268 1.287 . S
C268 C267 1.287 . S
C268 C269 1.524 . S
C268 H287 0.913 . S
C269 H245 0.950 . S
C269 C268 1.524 . S
C269 C270 1.415 . S
C270 H246 0.950 . S
C270 C265 1.363 . S
C270 C269 1.415 . S
C271 H247 0.951 . S
C271 C272 1.366 . S
C271 C273 1.388 . S
C272 C271 1.366 . S
C272 C276 1.385 . S
C273 H248 0.951 . S
C273 C271 1.388 . S
C273 C274 1.366 . S
C274 C273 1.366 . S
C274 C275 1.414 . S
C274 C277 1.499 . S
C275 H249 0.950 . S
C275 C274 1.414 . S
C275 C276 1.374 . S
C276 H250 0.950 . S
C276 C272 1.385 . S
C276 C275 1.374 . S
C277 C274 1.499 . S
C277 C278 1.373 . S
C277 C279 1.389 . S
C278 H251 0.950 . S
C278 C264 1.377 . S
C278 C277 1.373 . S
C279 C263 1.377 . S
C279 C277 1.389 . S
C279 C280 1.524 . S
C280 C279 1.524 . S
C280 C281 1.397 . S
C280 C285 1.363 . S
C281 H252 0.950 . S
C281 C280 1.397 . S
C281 C282 1.334 . S
C282 H253 0.950 . S
C282 C281 1.334 . S
C282 C283 1.287 . S
C283 C282 1.287 . S
C283 C284 1.524 . S
C283 H286 0.999 . S
C284 H254 0.950 . S
C284 C283 1.524 . S
C284 C285 1.415 . S
C285 H255 0.950 . S
C285 C280 1.363 . S
C285 C284 1.415 . S
H286 C283 0.999 . S
H287 C268 0.913 . S
H288 C306 0.951 . S
H289 C308 0.951 . S
H290 C310 0.950 . S
H291 C311 0.950 . S
H292 C313 0.950 . S
H293 C316 0.950 . S
H294 C317 0.950 . S
H295 C319 0.950 . S
H296 C320 0.950 . S
H297 C321 0.951 . S
H298 C323 0.951 . S
H299 C325 0.950 . S
H300 C326 0.950 . S
H301 C328 0.950 . S
H302 C331 0.950 . S
H303 C332 0.950 . S
H304 C334 0.950 . S
H305 C335 0.950 . S
C306 H288 0.951 . S
C306 C307 1.366 . S
C306 C308 1.388 . S
C307 C306 1.366 . S
C307 C311 1.385 . S
C308 H289 0.951 . S
C308 C306 1.388 . S
C308 C309 1.366 . S
C309 C308 1.366 . S
C309 C310 1.414 . S
C309 C312 1.499 . S
C310 H290 0.950 . S
C310 C309 1.414 . S
C310 C311 1.374 . S
C311 H291 0.950 . S
C311 C307 1.385 . S
C311 C310 1.374 . S
C312 C309 1.499 . S
C312 C313 1.373 . S
C312 C314 1.389 . S
C313 H292 0.950 . S
C313 C312 1.373 . S
C313 C329 1.377 . S
C314 C312 1.389 . S
C314 C315 1.524 . S
C314 C328 1.377 . S
C315 C314 1.524 . S
C315 C316 1.397 . S
C315 C320 1.363 . S
C316 H293 0.950 . S
C316 C315 1.397 . S
C316 C317 1.334 . S
C317 H294 0.950 . S
C317 C316 1.334 . S
C317 C318 1.287 . S
C318 C317 1.287 . S
C318 C319 1.524 . S
C318 H337 0.913 . S
C319 H295 0.950 . S
C319 C318 1.524 . S
C319 C320 1.415 . S
C320 H296 0.950 . S
C320 C315 1.363 . S
C320 C319 1.415 . S
C321 H297 0.951 . S
C321 C322 1.366 . S
C321 C323 1.388 . S
C322 C321 1.366 . S
C322 C326 1.385 . S
C323 H298 0.951 . S
C323 C321 1.388 . S
C323 C324 1.366 . S
C324 C323 1.366 . S
C324 C325 1.414 . S
C324 C327 1.499 . S
C325 H299 0.950 . S
C325 C324 1.414 . S
C325 C326 1.374 . S
C326 H300 0.950 . S
C326 C322 1.385 . S
C326 C325 1.374 . S
C327 C324 1.499 . S
C327 C328 1.373 . S
C327 C329 1.389 . S
C328 H301 0.950 . S
C328 C314 1.377 . S
C328 C327 1.373 . S
C329 C313 1.377 . S
C329 C327 1.389 . S
C329 C330 1.524 . S
C330 C329 1.524 . S
C330 C331 1.397 . S
C330 C335 1.363 . S
C331 H302 0.950 . S
C331 C330 1.397 . S
C331 C332 1.334 . S
C332 H303 0.950 . S
C332 C331 1.334 . S
C332 C333 1.287 . S
C333 C332 1.287 . S
C333 C334 1.524 . S
C333 H336 0.999 . S
C334 H304 0.950 . S
C334 C333 1.524 . S
C334 C335 1.415 . S
C335 H305 0.950 . S
C335 C330 1.363 . S
C335 C334 1.415 . S
H336 C333 0.999 . S
H337 C318 0.913 . S
H338 C356 0.951 . S
H339 C358 0.951 . S
H340 C360 0.950 . S
H341 C361 0.950 . S
H342 C363 0.950 . S
H343 C366 0.950 . S
H344 C367 0.950 . S
H345 C369 0.950 . S
H346 C370 0.950 . S
H347 C371 0.951 . S
H348 C373 0.951 . S
H349 C375 0.950 . S
H350 C376 0.950 . S
H351 C378 0.950 . S
H352 C381 0.950 . S
H353 C382 0.950 . S
H354 C384 0.950 . S
H355 C385 0.950 . S
C356 H338 0.951 . S
C356 C357 1.366 . S
C356 C358 1.388 . S
C357 C356 1.366 . S
C357 C361 1.385 . S
C358 H339 0.951 . S
C358 C356 1.388 . S
C358 C359 1.366 . S
C359 C358 1.366 . S
C359 C360 1.414 . S
C359 C362 1.499 . S
C360 H340 0.950 . S
C360 C359 1.414 . S
C360 C361 1.374 . S
C361 H341 0.950 . S
C361 C357 1.385 . S
C361 C360 1.374 . S
C362 C359 1.499 . S
C362 C363 1.373 . S
C362 C364 1.389 . S
C363 H342 0.950 . S
C363 C362 1.373 . S
C363 C379 1.377 . S
C364 C362 1.389 . S
C364 C365 1.524 . S
C364 C378 1.377 . S
C365 C364 1.524 . S
C365 C366 1.397 . S
C365 C370 1.363 . S
C366 H343 0.950 . S
C366 C365 1.397 . S
C366 C367 1.334 . S
C367 H344 0.950 . S
C367 C366 1.334 . S
C367 C368 1.287 . S
C368 C367 1.287 . S
C368 C369 1.524 . S
C368 H387 0.913 . S
C369 H345 0.950 . S
C369 C368 1.524 . S
C369 C370 1.415 . S
C370 H346 0.950 . S
C370 C365 1.363 . S
C370 C369 1.415 . S
C371 H347 0.951 . S
C371 C372 1.366 . S
C371 C373 1.388 . S
C372 C371 1.366 . S
C372 C376 1.385 . S
C373 H348 0.951 . S
C373 C371 1.388 . S
C373 C374 1.366 . S
C374 C373 1.366 . S
C374 C375 1.414 . S
C374 C377 1.499 . S
C375 H349 0.950 . S
C375 C374 1.414 . S
C375 C376 1.374 . S
C376 H350 0.950 . S
C376 C372 1.385 . S
C376 C375 1.374 . S
C377 C374 1.499 . S
C377 C378 1.373 . S
C377 C379 1.389 . S
C378 H351 0.950 . S
C378 C364 1.377 . S
C378 C377 1.373 . S
C379 C363 1.377 . S
C379 C377 1.389 . S
C379 C380 1.524 . S
C380 C379 1.524 . S
C380 C381 1.397 . S
C380 C385 1.363 . S
C381 H352 0.950 . S
C381 C380 1.397 . S
C381 C382 1.334 . S
C382 H353 0.950 . S
C382 C381 1.334 . S
C382 C383 1.287 . S
C383 C382 1.287 . S
C383 C384 1.524 . S
C383 H386 0.999 . S
C384 H354 0.950 . S
C384 C383 1.524 . S
C384 C385 1.415 . S
C385 H355 0.950 . S
C385 C380 1.363 . S
C385 C384 1.415 . S
H386 C383 0.999 . S
H387 C368 0.913 . S
H388 C406 0.951 . S
H389 C408 0.951 . S
H390 C410 0.950 . S
H391 C411 0.950 . S
H392 C413 0.950 . S
H393 C416 0.950 . S
H394 C417 0.950 . S
H395 C419 0.950 . S
H396 C420 0.950 . S
H397 C421 0.951 . S
H398 C423 0.951 . S
H399 C425 0.950 . S
H400 C426 0.950 . S
H401 C428 0.950 . S
H402 C431 0.946 1_455 S
H403 C432 0.950 . S
H404 C434 0.950 . S
H405 C435 0.950 . S
C406 H388 0.951 . S
C406 C407 1.366 . S
C406 C408 1.388 . S
C407 C406 1.366 . S
C407 C411 1.385 . S
C408 H389 0.951 . S
C408 C406 1.388 . S
C408 C409 1.366 . S
C409 C408 1.366 . S
C409 C410 1.414 . S
C409 C412 1.499 . S
C410 H390 0.950 . S
C410 C409 1.414 . S
C410 C411 1.374 . S
C411 H391 0.950 . S
C411 C407 1.385 . S
C411 C410 1.374 . S
C412 C409 1.499 . S
C412 C413 1.373 . S
C412 C414 1.389 . S
C413 H392 0.950 . S
C413 C412 1.373 . S
C413 C429 1.377 . S
C414 C412 1.389 . S
C414 C415 1.524 . S
C414 C428 1.377 . S
C415 C414 1.524 . S
C415 C416 1.397 . S
C415 C420 1.363 . S
C416 H393 0.950 . S
C416 C415 1.397 . S
C416 C417 1.334 . S
C417 H394 0.950 . S
C417 C416 1.334 . S
C417 C418 1.287 . S
C418 C417 1.287 . S
C418 C419 1.524 . S
C418 H437 0.913 . S
C419 H395 0.950 . S
C419 C418 1.524 . S
C419 C420 1.415 . S
C420 H396 0.950 . S
C420 C415 1.363 . S
C420 C419 1.415 . S
C421 H397 0.951 . S
C421 C422 1.366 . S
C421 C423 1.388 . S
C422 C421 1.366 . S
C422 C426 1.385 . S
C423 H398 0.951 . S
C423 C421 1.388 . S
C423 C424 1.366 . S
C424 C423 1.366 . S
C424 C425 1.414 . S
C424 C427 1.499 . S
C425 H399 0.950 . S
C425 C424 1.414 . S
C425 C426 1.374 . S
C426 H400 0.950 . S
C426 C422 1.385 . S
C426 C425 1.374 . S
C427 C424 1.499 . S
C427 C428 1.373 . S
C427 C429 1.389 . S
C428 H401 0.950 . S
C428 C414 1.377 . S
C428 C427 1.373 . S
C429 C413 1.377 . S
C429 C427 1.389 . S
C429 C430 1.524 . S
C430 C429 1.524 . S
C430 C431 1.397 1_455 S
C430 C435 1.363 . S
C431 H402 0.946 1_655 S
C431 C430 1.397 1_655 S
C431 C432 1.334 . S
C432 H403 0.950 . S
C432 C431 1.334 . S
C432 C433 1.287 . S
C433 C432 1.287 . S
C433 C434 1.524 . S
C433 H436 0.999 . S
C434 H404 0.950 . S
C434 C433 1.524 . S
C434 C435 1.415 1_655 S
C435 H405 0.950 . S
C435 C430 1.363 . S
C435 C434 1.415 1_455 S
H436 C433 0.999 . S
H437 C418 0.913 . S
H438 C456 0.951 . S
H439 C458 0.951 . S
H440 C460 0.950 . S
H441 C461 0.950 . S
H442 C463 0.950 . S
H443 C466 0.950 . S
H444 C467 0.950 . S
H445 C469 0.950 . S
H446 C470 0.950 . S
H447 C471 0.951 . S
H448 C473 0.951 1_655 S
H449 C475 0.950 . S
H450 C476 0.950 . S
H451 C478 0.950 . S
H452 C481 0.950 . S
H453 C482 0.950 1_455 S
H454 C484 0.950 . S
H455 C485 0.950 . S
C456 H438 0.951 . S
C456 C457 1.366 . S
C456 C458 1.388 . S
C457 C456 1.366 . S
C457 C461 1.385 . S
C458 H439 0.951 . S
C458 C456 1.388 . S
C458 C459 1.366 . S
C459 C458 1.366 . S
C459 C460 1.414 . S
C459 C462 1.499 . S
C460 H440 0.950 . S
C460 C459 1.414 . S
C460 C461 1.374 . S
C461 H441 0.950 . S
C461 C457 1.385 . S
C461 C460 1.374 . S
C462 C459 1.499 . S
C462 C463 1.373 . S
C462 C464 1.389 . S
C463 H442 0.950 . S
C463 C462 1.373 . S
C463 C479 1.377 . S
C464 C462 1.389 . S
C464 C465 1.524 . S
C464 C478 1.377 . S
C465 C464 1.524 . S
C465 C466 1.397 . S
C465 C470 1.363 . S
C466 H443 0.950 . S
C466 C465 1.397 . S
C466 C467 1.334 . S
C467 H444 0.950 . S
C467 C466 1.334 . S
C467 C468 1.287 . S
C468 C467 1.287 . S
C468 C469 1.524 . S
C468 H487 0.913 . S
C469 H445 0.950 . S
C469 C468 1.524 . S
C469 C470 1.415 . S
C470 H446 0.950 . S
C470 C465 1.363 . S
C470 C469 1.415 . S
C471 H447 0.951 . S
C471 C472 1.366 . S
C471 C473 1.388 . S
C472 C471 1.366 . S
C472 C476 1.385 . S
C473 H448 0.951 1_455 S
C473 C471 1.388 . S
C473 C474 1.366 1_455 S
C474 C473 1.366 1_655 S
C474 C475 1.414 . S
C474 C477 1.499 . S
C475 H449 0.950 . S
C475 C474 1.414 . S
C475 C476 1.374 1_655 S
C476 H450 0.950 . S
C476 C472 1.385 . S
C476 C475 1.374 1_455 S
C477 C474 1.499 . S
C477 C478 1.373 . S
C477 C479 1.389 . S
C478 H451 0.950 . S
C478 C464 1.377 . S
C478 C477 1.373 . S
C479 C463 1.377 . S
C479 C477 1.389 . S
C479 C480 1.524 . S
C480 C479 1.524 . S
C480 C481 1.397 . S
C480 C485 1.363 . S
C481 H452 0.950 . S
C481 C480 1.397 . S
C481 C482 1.334 . S
C482 H453 0.950 1_655 S
C482 C481 1.334 . S
C482 C483 1.287 . S
C483 C482 1.287 . S
C483 C484 1.524 . S
C483 H486 0.999 1_655 S
C484 H454 0.950 . S
C484 C483 1.524 . S
C484 C485 1.415 . S
C485 H455 0.950 . S
C485 C480 1.363 . S
C485 C484 1.415 . S
H486 C483 0.999 1_455 S
H487 C468 0.913 . S
H488 C506 0.951 . S
H489 C508 0.951 . S
H490 C510 0.950 . S
H491 C511 0.950 . S
H492 C513 0.950 . S
H493 C516 0.950 . S
H494 C517 0.950 . S
H495 C519 0.950 . S
H496 C520 0.950 . S
H497 C521 0.951 . S
H498 C523 0.951 . S
H499 C525 0.950 . S
H500 C526 0.950 . S
H501 C528 0.950 . S
H502 C531 0.950 . S
H503 C532 0.950 . S
H504 C534 0.950 . S
H505 C535 0.950 . S
C506 H488 0.951 . S
C506 C507 1.366 . S
C506 C508 1.388 . S
C507 C506 1.366 . S
C507 C511 1.385 . S
C508 H489 0.951 . S
C508 C506 1.388 . S
C508 C509 1.366 . S
C509 C508 1.366 . S
C509 C510 1.414 . S
C509 C512 1.499 . S
C510 H490 0.950 . S
C510 C509 1.414 . S
C510 C511 1.374 . S
C511 H491 0.950 . S
C511 C507 1.385 . S
C511 C510 1.374 . S
C512 C509 1.499 . S
C512 C513 1.373 . S
C512 C514 1.389 . S
C513 H492 0.950 . S
C513 C512 1.373 . S
C513 C529 1.377 . S
C514 C512 1.389 . S
C514 C515 1.524 . S
C514 C528 1.377 . S
C515 C514 1.524 . S
C515 C516 1.397 . S
C515 C520 1.363 . S
C516 H493 0.950 . S
C516 C515 1.397 . S
C516 C517 1.334 . S
C517 H494 0.950 . S
C517 C516 1.334 . S
C517 C518 1.287 . S
C518 C517 1.287 . S
C518 C519 1.524 . S
C518 H537 0.913 . S
C519 H495 0.950 . S
C519 C518 1.524 . S
C519 C520 1.415 . S
C520 H496 0.950 . S
C520 C515 1.363 . S
C520 C519 1.415 . S
C521 H497 0.951 . S
C521 C522 1.366 . S
C521 C523 1.388 . S
C522 C521 1.366 . S
C522 C526 1.385 . S
C523 H498 0.951 . S
C523 C521 1.388 . S
C523 C524 1.366 . S
C524 C523 1.366 . S
C524 C525 1.414 . S
C524 C527 1.499 . S
C525 H499 0.950 . S
C525 C524 1.414 . S
C525 C526 1.374 . S
C526 H500 0.950 . S
C526 C522 1.385 . S
C526 C525 1.374 . S
C527 C524 1.499 . S
C527 C528 1.373 . S
C527 C529 1.389 . S
C528 H501 0.950 . S
C528 C514 1.377 . S
C528 C527 1.373 . S
C529 C513 1.377 . S
C529 C527 1.389 . S
C529 C530 1.524 . S
C530 C529 1.524 . S
C530 C531 1.397 . S
C530 C535 1.363 . S
C531 H502 0.950 . S
C531 C530 1.397 . S
C531 C532 1.334 . S
C532 H503 0.950 . S
C532 C531 1.334 . S
C532 C533 1.287 . S
C533 C532 1.287 . S
C533 C534 1.524 . S
C533 H536 0.999 . S
C534 H504 0.950 . S
C534 C533 1.524 . S
C534 C535 1.415 . S
C535 H505 0.950 . S
C535 C530 1.363 . S
C535 C534 1.415 . S
H536 C533 0.999 . S
H537 C518 0.913 . S
H538 C556 0.951 . S
H539 C558 0.951 . S
H540 C560 0.950 . S
H541 C561 0.950 . S
H542 C563 0.950 . S
H543 C566 0.950 . S
H544 C567 0.950 1_455 S
H545 C569 0.950 . S
H546 C570 0.950 . S
H547 C571 0.951 . S
H548 C573 0.951 . S
H549 C575 0.950 . S
H550 C576 0.950 . S
H551 C578 0.950 . S
H552 C581 0.950 . S
H553 C582 0.950 . S
H554 C584 0.950 . S
H555 C585 0.950 . S
C556 H538 0.951 . S
C556 C557 1.366 . S
C556 C558 1.388 . S
C557 C556 1.366 . S
C557 C561 1.385 . S
C558 H539 0.951 . S
C558 C556 1.388 . S
C558 C559 1.366 . S
C559 C558 1.366 . S
C559 C560 1.414 . S
C559 C562 1.499 1_455 S
C560 H540 0.950 . S
C560 C559 1.414 . S
C560 C561 1.374 . S
C561 H541 0.950 . S
C561 C557 1.385 . S
C561 C560 1.374 . S
C562 C559 1.499 1_655 S
C562 C563 1.373 . S
C562 C564 1.389 . S
C563 H542 0.950 . S
C563 C562 1.373 . S
C563 C579 1.377 . S
C564 C562 1.389 . S
C564 C565 1.524 . S
C564 C578 1.377 . S
C565 C564 1.524 . S
C565 C566 1.397 . S
C565 C570 1.363 . S
C566 H543 0.950 . S
C566 C565 1.397 . S
C566 C567 1.334 . S
C567 H544 0.950 1_655 S
C567 C566 1.334 . S
C567 C568 1.287 . S
C568 C567 1.287 . S
C568 C569 1.524 . S
C568 H587 0.913 1_655 S
C569 H545 0.950 . S
C569 C568 1.524 . S
C569 C570 1.415 . S
C570 H546 0.950 . S
C570 C565 1.363 . S
C570 C569 1.415 . S
C571 H547 0.951 . S
C571 C572 1.366 . S
C571 C573 1.388 . S
C572 C571 1.366 . S
C572 C576 1.385 . S
C573 H548 0.951 . S
C573 C571 1.388 . S
C573 C574 1.366 . S
C574 C573 1.366 . S
C574 C575 1.414 . S
C574 C577 1.499 . S
C575 H549 0.950 . S
C575 C574 1.414 . S
C575 C576 1.374 . S
C576 H550 0.950 . S
C576 C572 1.385 . S
C576 C575 1.374 . S
C577 C574 1.499 . S
C577 C578 1.373 . S
C577 C579 1.389 . S
C578 H551 0.950 . S
C578 C564 1.377 . S
C578 C577 1.373 . S
C579 C563 1.377 . S
C579 C577 1.389 . S
C579 C580 1.524 . S
C580 C579 1.524 . S
C580 C581 1.397 . S
C580 C585 1.363 . S
C581 H552 0.950 . S
C581 C580 1.397 . S
C581 C582 1.334 . S
C582 H553 0.950 . S
C582 C581 1.334 . S
C582 C583 1.287 . S
C583 C582 1.287 . S
C583 C584 1.524 . S
C583 H586 0.999 . S
C584 H554 0.950 . S
C584 C583 1.524 . S
C584 C585 1.415 . S
C585 H555 0.950 . S
C585 C580 1.363 . S
C585 C584 1.415 . S
H586 C583 0.999 . S
H587 C568 0.913 1_455 S
H588 C606 0.951 . S
H589 C608 0.951 . S
H590 C610 0.950 . S
H591 C611 0.950 . S
H592 C613 0.950 . S
H593 C616 0.950 . S
H594 C617 0.950 . S
H595 C619 0.950 . S
H596 C620 0.950 . S
H597 C621 0.951 . S
H598 C623 0.951 . S
H599 C625 0.950 . S
H600 C626 0.950 . S
H601 C628 0.950 . S
H602 C631 0.950 . S
H603 C632 0.950 . S
H604 C634 0.950 . S
H605 C635 0.950 . S
C606 H588 0.951 . S
C606 C607 1.366 . S
C606 C608 1.388 . S
C607 C606 1.366 . S
C607 C611 1.385 . S
C608 H589 0.951 . S
C608 C606 1.388 . S
C608 C609 1.366 . S
C609 C608 1.366 . S
C609 C610 1.414 . S
C609 C612 1.499 . S
C610 H590 0.950 . S
C610 C609 1.414 . S
C610 C611 1.374 . S
C611 H591 0.950 . S
C611 C607 1.385 . S
C611 C610 1.374 . S
C612 C609 1.499 . S
C612 C613 1.373 . S
C612 C614 1.389 . S
C613 H592 0.950 . S
C613 C612 1.373 . S
C613 C629 1.377 . S
C614 C612 1.389 . S
C614 C615 1.524 . S
C614 C628 1.377 . S
C615 C614 1.524 . S
C615 C616 1.397 . S
C615 C620 1.363 . S
C616 H593 0.950 . S
C616 C615 1.397 . S
C616 C617 1.334 . S
C617 H594 0.950 . S
C617 C616 1.334 . S
C617 C618 1.287 . S
C618 C617 1.287 . S
C618 C619 1.524 . S
C618 H637 0.913 . S
C619 H595 0.950 . S
C619 C618 1.524 . S
C619 C620 1.415 . S
C620 H596 0.950 . S
C620 C615 1.363 . S
C620 C619 1.415 . S
C621 H597 0.951 . S
C621 C622 1.366 . S
C621 C623 1.388 . S
C622 C621 1.366 . S
C622 C626 1.385 . S
C623 H598 0.951 . S
C623 C621 1.388 . S
C623 C624 1.366 . S
C624 C623 1.366 . S
C624 C625 1.414 . S
C624 C627 1.499 . S
C625 H599 0.950 . S
C625 C624 1.414 . S
C625 C626 1.374 . S
C626 H600 0.950 . S
C626 C622 1.385 . S
C626 C625 1.374 . S
C627 C624 1.499 . S
C627 C628 1.373 . S
C627 C629 1.389 . S
C628 H601 0.950 . S
C628 C614 1.377 . S
C628 C627 1.373 . S
C629 C613 1.377 . S
C629 C627 1.389 . S
C629 C630 1.524 . S
C630 C629 1.524 . S
C630 C631 1.397 . S
C630 C635 1.363 . S
C631 H602 0.950 . S
C631 C630 1.397 . S
C631 C632 1.334 . S
C632 H603 0.950 . S
C632 C631 1.334 . S
C632 C633 1.287 . S
C633 C632 1.287 . S
C633 C634 1.524 . S
C633 H636 0.999 . S
C634 H604 0.950 . S
C634 C633 1.524 . S
C634 C635 1.415 . S
C635 H605 0.950 . S
C635 C630 1.363 . S
C635 C634 1.415 . S
H636 C633 0.999 . S
H637 C618 0.913 . S
H638 C656 0.951 . S
H639 C658 0.951 . S
H640 C660 0.950 . S
H641 C661 0.950 . S
H642 C663 0.950 . S
H643 C666 0.950 . S
H644 C667 0.950 . S
H645 C669 0.950 . S
H646 C670 0.950 . S
H647 C671 0.951 . S
H648 C673 0.951 . S
H649 C675 0.950 . S
H650 C676 0.950 . S
H651 C678 0.950 . S
H652 C681 0.950 . S
H653 C682 0.950 . S
H654 C684 0.950 . S
H655 C685 0.950 . S
C656 H638 0.951 . S
C656 C657 1.366 . S
C656 C658 1.388 . S
C657 C656 1.366 . S
C657 C661 1.385 . S
C658 H639 0.951 . S
C658 C656 1.388 . S
C658 C659 1.366 . S
C659 C658 1.366 . S
C659 C660 1.414 . S
C659 C662 1.499 . S
C660 H640 0.950 . S
C660 C659 1.414 . S
C660 C661 1.374 . S
C661 H641 0.950 . S
C661 C657 1.385 . S
C661 C660 1.374 . S
C662 C659 1.499 . S
C662 C663 1.373 . S
C662 C664 1.389 . S
C663 H642 0.950 . S
C663 C662 1.373 . S
C663 C679 1.377 . S
C664 C662 1.389 . S
C664 C665 1.524 . S
C664 C678 1.377 . S
C665 C664 1.524 . S
C665 C666 1.397 . S
C665 C670 1.363 . S
C666 H643 0.950 . S
C666 C665 1.397 . S
C666 C667 1.334 . S
C667 H644 0.950 . S
C667 C666 1.334 . S
C667 C668 1.287 . S
C668 C667 1.287 . S
C668 C669 1.524 . S
C668 H687 0.913 . S
C669 H645 0.950 . S
C669 C668 1.524 . S
C669 C670 1.415 . S
C670 H646 0.950 . S
C670 C665 1.363 . S
C670 C669 1.415 . S
C671 H647 0.951 . S
C671 C672 1.366 . S
C671 C673 1.388 . S
C672 C671 1.366 . S
C672 C676 1.385 . S
C673 H648 0.951 . S
C673 C671 1.388 . S
C673 C674 1.366 . S
C674 C673 1.366 . S
C674 C675 1.414 . S
C674 C677 1.499 . S
C675 H649 0.950 . S
C675 C674 1.414 . S
C675 C676 1.374 . S
C676 H650 0.950 . S
C676 C672 1.385 . S
C676 C675 1.374 . S
C677 C674 1.499 . S
C677 C678 1.373 . S
C677 C679 1.389 . S
C678 H651 0.950 . S
C678 C664 1.377 . S
C678 C677 1.373 . S
C679 C663 1.377 . S
C679 C677 1.389 . S
C679 C680 1.524 . S
C680 C679 1.524 . S
C680 C681 1.397 . S
C680 C685 1.363 . S
C681 H652 0.950 . S
C681 C680 1.397 . S
C681 C682 1.334 . S
C682 H653 0.950 . S
C682 C681 1.334 . S
C682 C683 1.287 . S
C683 C682 1.287 . S
C683 C684 1.524 . S
C683 H686 0.999 . S
C684 H654 0.950 . S
C684 C683 1.524 . S
C684 C685 1.415 . S
C685 H655 0.950 . S
C685 C680 1.363 . S
C685 C684 1.415 . S
H686 C683 0.999 . S
H687 C668 0.913 . S
H688 C706 0.951 . S
H689 C708 0.951 . S
H690 C710 0.950 . S
H691 C711 0.950 . S
H692 C713 0.950 . S
H693 C716 0.950 . S
H694 C717 0.950 . S
H695 C719 0.950 . S
H696 C720 0.950 . S
H697 C721 0.951 . S
H698 C723 0.951 . S
H699 C725 0.950 . S
H700 C726 0.950 . S
H701 C728 0.950 . S
H702 C731 0.950 . S
H703 C732 0.950 . S
H704 C734 0.950 . S
H705 C735 0.950 . S
C706 H688 0.951 . S
C706 C707 1.366 . S
C706 C708 1.388 . S
C707 C706 1.366 . S
C707 C711 1.385 . S
C708 H689 0.951 . S
C708 C706 1.388 . S
C708 C709 1.366 . S
C709 C708 1.366 . S
C709 C710 1.414 . S
C709 C712 1.499 . S
C710 H690 0.950 . S
C710 C709 1.414 . S
C710 C711 1.374 . S
C711 H691 0.950 . S
C711 C707 1.385 . S
C711 C710 1.374 . S
C712 C709 1.499 . S
C712 C713 1.373 . S
C712 C714 1.389 . S
C713 H692 0.950 . S
C713 C712 1.373 . S
C713 C729 1.377 . S
C714 C712 1.389 . S
C714 C715 1.524 . S
C714 C728 1.377 . S
C715 C714 1.524 . S
C715 C716 1.397 . S
C715 C720 1.363 . S
C716 H693 0.950 . S
C716 C715 1.397 . S
C716 C717 1.334 . S
C717 H694 0.950 . S
C717 C716 1.334 . S
C717 C718 1.287 . S
C718 C717 1.287 . S
C718 C719 1.524 . S
C718 H737 0.913 . S
C719 H695 0.950 . S
C719 C718 1.524 . S
C719 C720 1.415 . S
C720 H696 0.950 . S
C720 C715 1.363 . S
C720 C719 1.415 . S
C721 H697 0.951 . S
C721 C722 1.366 . S
C721 C723 1.388 . S
C722 C721 1.366 . S
C722 C726 1.385 . S
C723 H698 0.951 . S
C723 C721 1.388 . S
C723 C724 1.366 . S
C724 C723 1.366 . S
C724 C725 1.414 . S
C724 C727 1.499 . S
C725 H699 0.950 . S
C725 C724 1.414 . S
C725 C726 1.374 . S
C726 H700 0.950 . S
C726 C722 1.385 . S
C726 C725 1.374 . S
C727 C724 1.499 . S
C727 C728 1.373 . S
C727 C729 1.389 . S
C728 H701 0.950 . S
C728 C714 1.377 . S
C728 C727 1.373 . S
C729 C713 1.377 . S
C729 C727 1.389 . S
C729 C730 1.524 . S
C730 C729 1.524 . S
C730 C731 1.397 . S
C730 C735 1.363 . S
C731 H702 0.950 . S
C731 C730 1.397 . S
C731 C732 1.334 . S
C732 H703 0.950 . S
C732 C731 1.334 . S
C732 C733 1.287 . S
C733 C732 1.287 . S
C733 C734 1.524 . S
C733 H736 0.999 . S
C734 H704 0.950 . S
C734 C733 1.524 . S
C734 C735 1.415 . S
C735 H705 0.950 . S
C735 C730 1.363 . S
C735 C734 1.415 . S
H736 C733 0.999 . S
H737 C718 0.913 . S
H738 C756 0.951 . S
H739 C758 0.951 . S
H740 C760 0.950 . S
H741 C761 0.950 . S
H742 C763 0.950 . S
H743 C766 0.950 . S
H744 C767 0.950 . S
H745 C769 0.950 . S
H746 C770 0.950 . S
H747 C771 0.951 . S
H748 C773 0.951 . S
H749 C775 0.950 . S
H750 C776 0.950 . S
H751 C778 0.950 . S
H752 C781 0.950 . S
H753 C782 0.950 . S
H754 C784 0.950 . S
H755 C785 0.950 . S
C756 H738 0.951 . S
C756 C757 1.366 . S
C756 C758 1.388 . S
C757 C756 1.366 . S
C757 C761 1.385 . S
C758 H739 0.951 . S
C758 C756 1.388 . S
C758 C759 1.366 . S
C759 C758 1.366 . S
C759 C760 1.414 . S
C759 C762 1.499 . S
C760 H740 0.950 . S
C760 C759 1.414 . S
C760 C761 1.374 . S
C761 H741 0.950 . S
C761 C757 1.385 . S
C761 C760 1.374 . S
C762 C759 1.499 . S
C762 C763 1.373 . S
C762 C764 1.389 . S
C763 H742 0.950 . S
C763 C762 1.373 . S
C763 C779 1.377 . S
C764 C762 1.389 . S
C764 C765 1.524 . S
C764 C778 1.377 . S
C765 C764 1.524 . S
C765 C766 1.397 . S
C765 C770 1.363 . S
C766 H743 0.950 . S
C766 C765 1.397 . S
C766 C767 1.334 . S
C767 H744 0.950 . S
C767 C766 1.334 . S
C767 C768 1.287 . S
C768 C767 1.287 . S
C768 C769 1.524 . S
C768 H787 0.913 . S
C769 H745 0.950 . S
C769 C768 1.524 . S
C769 C770 1.415 . S
C770 H746 0.950 . S
C770 C765 1.363 . S
C770 C769 1.415 . S
C771 H747 0.951 . S
C771 C772 1.366 . S
C771 C773 1.388 . S
C772 C771 1.366 . S
C772 C776 1.385 . S
C773 H748 0.951 . S
C773 C771 1.388 . S
C773 C774 1.366 . S
C774 C773 1.366 . S
C774 C775 1.414 . S
C774 C777 1.499 . S
C775 H749 0.950 . S
C775 C774 1.414 . S
C775 C776 1.374 . S
C776 H750 0.950 . S
C776 C772 1.385 . S
C776 C775 1.374 . S
C777 C774 1.499 . S
C777 C778 1.373 . S
C777 C779 1.389 . S
C778 H751 0.950 . S
C778 C764 1.377 . S
C778 C777 1.373 . S
C779 C763 1.377 . S
C779 C777 1.389 . S
C779 C780 1.524 . S
C780 C779 1.524 . S
C780 C781 1.397 . S
C780 C785 1.363 . S
C781 H752 0.950 . S
C781 C780 1.397 . S
C781 C782 1.334 . S
C782 H753 0.950 . S
C782 C781 1.334 . S
C782 C783 1.287 . S
C783 C782 1.287 . S
C783 C784 1.524 . S
C783 H786 0.999 . S
C784 H754 0.950 . S
C784 C783 1.524 . S
C784 C785 1.415 . S
C785 H755 0.950 . S
C785 C780 1.363 . S
C785 C784 1.415 . S
H786 C783 0.999 . S
H787 C768 0.913 . S
H788 C806 0.951 . S
H789 C808 0.951 . S
H790 C810 0.950 . S
H791 C811 0.950 . S
H792 C813 0.950 . S
H793 C816 0.950 . S
H794 C817 0.950 . S
H795 C819 0.950 . S
H796 C820 0.950 1_545 S
H797 C821 0.951 . S
H798 C823 0.951 . S
H799 C825 0.950 . S
H800 C826 0.950 . S
H801 C828 0.950 . S
H802 C831 0.950 . S
H803 C832 0.950 . S
H804 C834 0.950 . S
H805 C835 0.947 1_565 S
C806 H788 0.951 . S
C806 C807 1.366 . S
C806 C808 1.388 . S
C807 C806 1.366 . S
C807 C811 1.385 . S
C808 H789 0.951 . S
C808 C806 1.388 . S
C808 C809 1.366 . S
C809 C808 1.366 . S
C809 C810 1.414 . S
C809 C812 1.499 . S
C810 H790 0.950 . S
C810 C809 1.414 . S
C810 C811 1.374 . S
C811 H791 0.950 . S
C811 C807 1.385 . S
C811 C810 1.374 . S
C812 C809 1.499 . S
C812 C813 1.373 . S
C812 C814 1.389 . S
C813 H792 0.950 . S
C813 C812 1.373 . S
C813 C829 1.377 1_565 S
C814 C812 1.389 . S
C814 C815 1.524 . S
C814 C828 1.377 1_565 S
C815 C814 1.524 . S
C815 C816 1.397 . S
C815 C820 1.363 . S
C816 H793 0.950 . S
C816 C815 1.397 . S
C816 C817 1.334 . S
C817 H794 0.950 . S
C817 C816 1.334 . S
C817 C818 1.287 . S
C818 C817 1.287 . S
C818 C819 1.524 . S
C818 H837 0.913 . S
C819 H795 0.950 . S
C819 C818 1.524 . S
C819 C820 1.415 . S
C820 H796 0.950 1_565 S
C820 C815 1.363 . S
C820 C819 1.415 . S
C821 H797 0.951 . S
C821 C822 1.366 . S
C821 C823 1.388 . S
C822 C821 1.366 . S
C822 C826 1.385 . S
C823 H798 0.951 . S
C823 C821 1.388 . S
C823 C824 1.366 . S
C824 C823 1.366 . S
C824 C825 1.414 . S
C824 C827 1.499 . S
C825 H799 0.950 . S
C825 C824 1.414 . S
C825 C826 1.374 . S
C826 H800 0.950 . S
C826 C822 1.385 . S
C826 C825 1.374 . S
C827 C824 1.499 . S
C827 C828 1.373 . S
C827 C829 1.389 . S
C828 H801 0.950 . S
C828 C814 1.377 1_545 S
C828 C827 1.373 . S
C829 C813 1.377 1_545 S
C829 C827 1.389 . S
C829 C830 1.524 . S
C830 C829 1.524 . S
C830 C831 1.397 . S
C830 C835 1.363 . S
C831 H802 0.950 . S
C831 C830 1.397 . S
C831 C832 1.334 . S
C832 H803 0.950 . S
C832 C831 1.334 . S
C832 C833 1.287 . S
C833 C832 1.287 . S
C833 C834 1.524 . S
C833 H836 0.999 . S
C834 H804 0.950 . S
C834 C833 1.524 . S
C834 C835 1.415 . S
C835 H805 0.947 1_545 S
C835 C830 1.363 . S
C835 C834 1.415 . S
H836 C833 0.999 . S
H837 C818 0.913 . S
H838 C856 0.951 . S
H839 C858 0.951 . S
H840 C860 0.950 . S
H841 C861 0.950 . S
H842 C863 0.950 . S
H843 C866 0.950 . S
H844 C867 0.950 . S
H845 C869 0.950 . S
H846 C870 0.950 . S
H847 C871 0.951 . S
H848 C873 0.951 . S
H849 C875 0.950 . S
H850 C876 0.950 . S
H851 C878 0.950 1_565 S
H852 C881 0.950 . S
H853 C882 0.950 . S
H854 C884 0.950 . S
H855 C885 0.950 . S
C856 H838 0.951 . S
C856 C857 1.366 . S
C856 C858 1.388 . S
C857 C856 1.366 . S
C857 C861 1.385 . S
C858 H839 0.951 . S
C858 C856 1.388 . S
C858 C859 1.366 . S
C859 C858 1.366 . S
C859 C860 1.414 . S
C859 C862 1.499 . S
C860 H840 0.950 . S
C860 C859 1.414 . S
C860 C861 1.374 . S
C861 H841 0.950 . S
C861 C857 1.385 . S
C861 C860 1.374 . S
C862 C859 1.499 . S
C862 C863 1.373 . S
C862 C864 1.389 . S
C863 H842 0.950 . S
C863 C862 1.373 . S
C863 C879 1.377 . S
C864 C862 1.389 . S
C864 C865 1.524 . S
C864 C878 1.377 . S
C865 C864 1.524 . S
C865 C866 1.397 . S
C865 C870 1.363 . S
C866 H843 0.950 . S
C866 C865 1.397 . S
C866 C867 1.334 . S
C867 H844 0.950 . S
C867 C866 1.334 . S
C867 C868 1.287 . S
C868 C867 1.287 . S
C868 C869 1.524 . S
C868 H887 0.913 . S
C869 H845 0.950 . S
C869 C868 1.524 . S
C869 C870 1.415 . S
C870 H846 0.950 . S
C870 C865 1.363 . S
C870 C869 1.415 . S
C871 H847 0.951 . S
C871 C872 1.366 . S
C871 C873 1.388 . S
C872 C871 1.366 . S
C872 C876 1.385 . S
C873 H848 0.951 . S
C873 C871 1.388 . S
C873 C874 1.366 . S
C874 C873 1.366 . S
C874 C875 1.414 . S
C874 C877 1.499 . S
C875 H849 0.950 . S
C875 C874 1.414 . S
C875 C876 1.374 . S
C876 H850 0.950 . S
C876 C872 1.385 . S
C876 C875 1.374 . S
C877 C874 1.499 . S
C877 C878 1.373 1_565 S
C877 C879 1.389 1_565 S
C878 H851 0.950 1_545 S
C878 C864 1.377 . S
C878 C877 1.373 1_545 S
C879 C863 1.377 . S
C879 C877 1.389 1_545 S
C879 C880 1.524 . S
C880 C879 1.524 . S
C880 C881 1.397 1_545 S
C880 C885 1.363 . S
C881 H852 0.950 . S
C881 C880 1.397 1_565 S
C881 C882 1.334 . S
C882 H853 0.950 . S
C882 C881 1.334 . S
C882 C883 1.287 . S
C883 C882 1.287 . S
C883 C884 1.524 1_565 S
C883 H886 0.999 . S
C884 H854 0.950 . S
C884 C883 1.524 1_545 S
C884 C885 1.415 . S
C885 H855 0.950 . S
C885 C880 1.363 . S
C885 C884 1.415 . S
H886 C883 0.999 . S
H887 C868 0.913 . S
H888 C906 0.951 . S
H889 C908 0.951 . S
H890 C910 0.950 . S
H891 C911 0.950 . S
H892 C913 0.955 . S
H893 C916 0.950 . S
H894 C917 0.950 . S
H895 C919 0.950 . S
H896 C920 0.950 . S
H897 C921 0.951 . S
H898 C923 0.951 . S
H899 C925 0.950 . S
H900 C926 0.950 . S
H901 C928 0.950 . S
H902 C931 0.950 . S
H903 C932 0.950 . S
H904 C934 0.950 . S
H905 C935 0.950 . S
C906 H888 0.951 . S
C906 C907 1.366 . S
C906 C908 1.388 . S
C907 C906 1.366 . S
C907 C911 1.385 . S
C908 H889 0.951 . S
C908 C906 1.388 . S
C908 C909 1.366 . S
C909 C908 1.366 . S
C909 C910 1.414 . S
C909 C912 1.499 . S
C910 H890 0.950 . S
C910 C909 1.414 . S
C910 C911 1.374 . S
C911 H891 0.950 . S
C911 C907 1.385 . S
C911 C910 1.374 . S
C912 C909 1.499 . S
C912 C913 1.373 1_545 S
C912 C914 1.389 1_545 S
C913 H892 0.955 . S
C913 C912 1.373 1_565 S
C913 C929 1.377 . S
C914 C912 1.389 1_565 S
C914 C915 1.524 1_565 S
C914 C928 1.377 . S
C915 C914 1.524 1_545 S
C915 C916 1.397 . S
C915 C920 1.363 1_545 S
C916 H893 0.950 . S
C916 C915 1.397 . S
C916 C917 1.334 . S
C917 H894 0.950 . S
C917 C916 1.334 . S
C917 C918 1.287 . S
C918 C917 1.287 . S
C918 C919 1.524 . S
C918 H937 0.913 . S
C919 H895 0.950 . S
C919 C918 1.524 . S
C919 C920 1.415 1_545 S
C920 H896 0.950 . S
C920 C915 1.363 1_565 S
C920 C919 1.415 1_565 S
C921 H897 0.951 . S
C921 C922 1.366 . S
C921 C923 1.388 . S
C922 C921 1.366 . S
C922 C926 1.385 . S
C923 H898 0.951 . S
C923 C921 1.388 . S
C923 C924 1.366 . S
C924 C923 1.366 . S
C924 C925 1.414 . S
C924 C927 1.499 . S
C925 H899 0.950 . S
C925 C924 1.414 . S
C925 C926 1.374 . S
C926 H900 0.950 . S
C926 C922 1.385 . S
C926 C925 1.374 . S
C927 C924 1.499 . S
C927 C928 1.373 . S
C927 C929 1.389 . S
C928 H901 0.950 . S
C928 C914 1.377 . S
C928 C927 1.373 . S
C929 C913 1.377 . S
C929 C927 1.389 . S
C929 C930 1.524 . S
C930 C929 1.524 . S
C930 C931 1.397 . S
C930 C935 1.363 . S
C931 H902 0.950 . S
C931 C930 1.397 . S
C931 C932 1.334 . S
C932 H903 0.950 . S
C932 C931 1.334 . S
C932 C933 1.287 . S
C933 C932 1.287 . S
C933 C934 1.524 . S
C933 H936 0.999 . S
C934 H904 0.950 . S
C934 C933 1.524 . S
C934 C935 1.415 . S
C935 H905 0.950 . S
C935 C930 1.363 . S
C935 C934 1.415 . S
H936 C933 0.999 . S
H937 C918 0.913 . S
H938 C956 0.951 . S
H939 C958 0.951 . S
H940 C960 0.950 . S
H941 C961 0.950 . S
H942 C963 0.950 . S
H943 C966 0.950 . S
H944 C967 0.950 . S
H945 C969 0.950 . S
H946 C970 0.950 . S
H947 C971 0.951 . S
H948 C973 0.951 . S
H949 C975 0.950 . S
H950 C976 0.950 . S
H951 C978 0.950 . S
H952 C981 0.950 . S
H953 C982 0.950 . S
H954 C984 0.950 . S
H955 C985 0.950 . S
C956 H938 0.951 . S
C956 C957 1.366 . S
C956 C958 1.388 . S
C957 C956 1.366 . S
C957 C961 1.385 . S
C958 H939 0.951 . S
C958 C956 1.388 . S
C958 C959 1.366 . S
C959 C958 1.366 . S
C959 C960 1.414 . S
C959 C962 1.499 . S
C960 H940 0.950 . S
C960 C959 1.414 . S
C960 C961 1.374 . S
C961 H941 0.950 . S
C961 C957 1.385 . S
C961 C960 1.374 . S
C962 C959 1.499 . S
C962 C963 1.373 . S
C962 C964 1.389 . S
C963 H942 0.950 . S
C963 C962 1.373 . S
C963 C979 1.377 . S
C964 C962 1.389 . S
C964 C965 1.524 . S
C964 C978 1.377 . S
C965 C964 1.524 . S
C965 C966 1.397 . S
C965 C970 1.363 . S
C966 H943 0.950 . S
C966 C965 1.397 . S
C966 C967 1.334 . S
C967 H944 0.950 . S
C967 C966 1.334 . S
C967 C968 1.287 . S
C968 C967 1.287 . S
C968 C969 1.524 . S
C968 H987 0.913 . S
C969 H945 0.950 . S
C969 C968 1.524 . S
C969 C970 1.415 . S
C970 H946 0.950 . S
C970 C965 1.363 . S
C970 C969 1.415 . S
C971 H947 0.951 . S
C971 C972 1.366 . S
C971 C973 1.388 . S
C972 C971 1.366 . S
C972 C976 1.385 . S
C973 H948 0.951 . S
C973 C971 1.388 . S
C973 C974 1.366 . S
C974 C973 1.366 . S
C974 C975 1.414 . S
C974 C977 1.499 1_545 S
C975 H949 0.950 . S
C975 C974 1.414 . S
C975 C976 1.374 . S
C976 H950 0.950 . S
C976 C972 1.385 . S
C976 C975 1.374 . S
C977 C974 1.499 1_565 S
C977 C978 1.373 . S
C977 C979 1.389 . S
C978 H951 0.950 . S
C978 C964 1.377 . S
C978 C977 1.373 . S
C979 C963 1.377 . S
C979 C977 1.389 . S
C979 C980 1.524 . S
C980 C979 1.524 . S
C980 C981 1.397 . S
C980 C985 1.363 . S
C981 H952 0.950 . S
C981 C980 1.397 . S
C981 C982 1.334 1_565 S
C982 H953 0.950 . S
C982 C981 1.334 1_545 S
C982 C983 1.287 1_545 S
C983 C982 1.287 1_565 S
C983 C984 1.524 . S
C983 H986 0.999 1_565 S
C984 H954 0.950 . S
C984 C983 1.524 . S
C984 C985 1.415 . S
C985 H955 0.950 . S
C985 C980 1.363 . S
C985 C984 1.415 . S
H986 C983 0.999 1_545 S
H987 C968 0.913 . S
H988 C1006 0.951 . S
H989 C1008 0.951 . S
H990 C1010 0.950 . S
H991 C1011 0.950 . S
H992 C1013 0.950 . S
H993 C1016 0.950 . S
H994 C1017 0.950 . S
H995 C1019 0.950 . S
H996 C1020 0.950 . S
H997 C1021 0.951 . S
H998 C1023 0.951 . S
H999 C1025 0.950 . S
H1000 C1026 0.950 . S
H1001 C1028 0.950 . S
H1002 C1031 0.950 . S
H1003 C1032 0.950 . S
H1004 C1034 0.950 . S
H1005 C1035 0.950 . S
C1006 H988 0.951 . S
C1006 C1007 1.366 . S
C1006 C1008 1.388 . S
C1007 C1006 1.366 . S
C1007 C1011 1.385 . S
C1008 H989 0.951 . S
C1008 C1006 1.388 . S
C1008 C1009 1.366 . S
C1009 C1008 1.366 . S
C1009 C1010 1.414 . S
C1009 C1012 1.499 1_554 S
C1010 H990 0.950 . S
C1010 C1009 1.414 . S
C1010 C1011 1.374 . S
C1011 H991 0.950 . S
C1011 C1007 1.385 . S
C1011 C1010 1.374 . S
C1012 C1009 1.499 1_556 S
C1012 C1013 1.373 . S
C1012 C1014 1.389 . S
C1013 H992 0.950 . S
C1013 C1012 1.373 . S
C1013 C1029 1.377 . S
C1014 C1012 1.389 . S
C1014 C1015 1.524 . S
C1014 C1028 1.377 . S
C1015 C1014 1.524 . S
C1015 C1016 1.397 1_556 S
C1015 C1020 1.363 . S
C1016 H993 0.950 . S
C1016 C1015 1.397 1_554 S
C1016 C1017 1.334 . S
C1017 H994 0.950 . S
C1017 C1016 1.334 . S
C1017 C1018 1.287 . S
C1018 C1017 1.287 . S
C1018 C1019 1.524 . S
C1018 H1037 0.913 . S
C1019 H995 0.950 . S
C1019 C1018 1.524 . S
C1019 C1020 1.415 1_554 S
C1020 H996 0.950 . S
C1020 C1015 1.363 . S
C1020 C1019 1.415 1_556 S
C1021 H997 0.951 . S
C1021 C1022 1.366 . S
C1021 C1023 1.388 . S
C1022 C1021 1.366 . S
C1022 C1026 1.385 . S
C1023 H998 0.951 . S
C1023 C1021 1.388 . S
C1023 C1024 1.366 . S
C1024 C1023 1.366 . S
C1024 C1025 1.414 . S
C1024 C1027 1.499 . S
C1025 H999 0.950 . S
C1025 C1024 1.414 . S
C1025 C1026 1.374 . S
C1026 H1000 0.950 . S
C1026 C1022 1.385 . S
C1026 C1025 1.374 . S
C1027 C1024 1.499 . S
C1027 C1028 1.373 . S
C1027 C1029 1.389 . S
C1028 H1001 0.950 . S
C1028 C1014 1.377 . S
C1028 C1027 1.373 . S
C1029 C1013 1.377 . S
C1029 C1027 1.389 . S
C1029 C1030 1.524 . S
C1030 C1029 1.524 . S
C1030 C1031 1.397 . S
C1030 C1035 1.363 . S
C1031 H1002 0.950 . S
C1031 C1030 1.397 . S
C1031 C1032 1.334 . S
C1032 H1003 0.950 . S
C1032 C1031 1.334 . S
C1032 C1033 1.287 . S
C1033 C1032 1.287 . S
C1033 C1034 1.524 . S
C1033 H1036 0.999 . S
C1034 H1004 0.950 . S
C1034 C1033 1.524 . S
C1034 C1035 1.415 . S
C1035 H1005 0.950 . S
C1035 C1030 1.363 . S
C1035 C1034 1.415 . S
H1036 C1033 0.999 . S
H1037 C1018 0.913 . S
H1038 C1056 0.951 . S
H1039 C1058 0.951 . S
H1040 C1060 0.950 . S
H1041 C1061 0.950 . S
H1042 C1063 0.950 . S
H1043 C1066 0.950 . S
H1044 C1067 0.950 . S
H1045 C1069 0.950 . S
H1046 C1070 0.950 . S
H1047 C1071 0.951 . S
H1048 C1073 0.951 . S
H1049 C1075 0.950 . S
H1050 C1076 0.950 . S
H1051 C1078 0.950 . S
H1052 C1081 0.950 . S
H1053 C1082 0.950 . S
H1054 C1084 0.950 . S
H1055 C1085 0.950 . S
C1056 H1038 0.951 . S
C1056 C1057 1.366 . S
C1056 C1058 1.388 . S
C1057 C1056 1.366 . S
C1057 C1061 1.385 . S
C1058 H1039 0.951 . S
C1058 C1056 1.388 . S
C1058 C1059 1.366 . S
C1059 C1058 1.366 . S
C1059 C1060 1.414 . S
C1059 C1062 1.499 . S
C1060 H1040 0.950 . S
C1060 C1059 1.414 . S
C1060 C1061 1.374 . S
C1061 H1041 0.950 . S
C1061 C1057 1.385 . S
C1061 C1060 1.374 . S
C1062 C1059 1.499 . S
C1062 C1063 1.373 . S
C1062 C1064 1.389 . S
C1063 H1042 0.950 . S
C1063 C1062 1.373 . S
C1063 C1079 1.377 . S
C1064 C1062 1.389 . S
C1064 C1065 1.524 . S
C1064 C1078 1.377 . S
C1065 C1064 1.524 . S
C1065 C1066 1.397 . S
C1065 C1070 1.363 . S
C1066 H1043 0.950 . S
C1066 C1065 1.397 . S
C1066 C1067 1.334 . S
C1067 H1044 0.950 . S
C1067 C1066 1.334 . S
C1067 C1068 1.287 . S
C1068 C1067 1.287 . S
C1068 C1069 1.524 . S
C1068 H1087 0.913 . S
C1069 H1045 0.950 . S
C1069 C1068 1.524 . S
C1069 C1070 1.415 . S
C1070 H1046 0.950 . S
C1070 C1065 1.363 . S
C1070 C1069 1.415 . S
C1071 H1047 0.951 . S
C1071 C1072 1.366 . S
C1071 C1073 1.388 . S
C1072 C1071 1.366 . S
C1072 C1076 1.385 . S
C1073 H1048 0.951 . S
C1073 C1071 1.388 . S
C1073 C1074 1.366 . S
C1074 C1073 1.366 . S
C1074 C1075 1.414 . S
C1074 C1077 1.499 . S
C1075 H1049 0.950 . S
C1075 C1074 1.414 . S
C1075 C1076 1.374 . S
C1076 H1050 0.950 . S
C1076 C1072 1.385 . S
C1076 C1075 1.374 . S
C1077 C1074 1.499 . S
C1077 C1078 1.373 . S
C1077 C1079 1.389 . S
C1078 H1051 0.950 . S
C1078 C1064 1.377 . S
C1078 C1077 1.373 . S
C1079 C1063 1.377 . S
C1079 C1077 1.389 . S
C1079 C1080 1.524 . S
C1080 C1079 1.524 . S
C1080 C1081 1.397 . S
C1080 C1085 1.363 . S
C1081 H1052 0.950 . S
C1081 C1080 1.397 . S
C1081 C1082 1.334 . S
C1082 H1053 0.950 . S
C1082 C1081 1.334 . S
C1082 C1083 1.287 . S
C1083 C1082 1.287 . S
C1083 C1084 1.524 . S
C1083 H1086 0.999 . S
C1084 H1054 0.950 . S
C1084 C1083 1.524 . S
C1084 C1085 1.415 . S
C1085 H1055 0.950 . S
C1085 C1080 1.363 . S
C1085 C1084 1.415 . S
H1086 C1083 0.999 . S
H1087 C1068 0.913 . S
H1088 C1106 0.951 . S
H1089 C1108 0.951 . S
H1090 C1110 0.950 . S
H1091 C1111 0.950 . S
H1092 C1113 0.950 . S
H1093 C1116 0.950 . S
H1094 C1117 0.950 . S
H1095 C1119 0.950 . S
H1096 C1120 0.950 . S
H1097 C1121 0.951 . S
H1098 C1123 0.951 . S
H1099 C1125 0.950 . S
H1100 C1126 0.950 . S
H1101 C1128 0.950 . S
H1102 C1131 0.950 . S
H1103 C1132 0.950 . S
H1104 C1134 0.950 . S
H1105 C1135 0.950 . S
C1106 H1088 0.951 . S
C1106 C1107 1.366 . S
C1106 C1108 1.388 . S
C1107 C1106 1.366 . S
C1107 C1111 1.385 . S
C1108 H1089 0.951 . S
C1108 C1106 1.388 . S
C1108 C1109 1.366 . S
C1109 C1108 1.366 . S
C1109 C1110 1.414 . S
C1109 C1112 1.499 . S
C1110 H1090 0.950 . S
C1110 C1109 1.414 . S
C1110 C1111 1.374 . S
C1111 H1091 0.950 . S
C1111 C1107 1.385 . S
C1111 C1110 1.374 . S
C1112 C1109 1.499 . S
C1112 C1113 1.373 . S
C1112 C1114 1.389 . S
C1113 H1092 0.950 . S
C1113 C1112 1.373 . S
C1113 C1129 1.377 . S
C1114 C1112 1.389 . S
C1114 C1115 1.524 . S
C1114 C1128 1.377 . S
C1115 C1114 1.524 . S
C1115 C1116 1.397 . S
C1115 C1120 1.363 . S
C1116 H1093 0.950 . S
C1116 C1115 1.397 . S
C1116 C1117 1.334 . S
C1117 H1094 0.950 . S
C1117 C1116 1.334 . S
C1117 C1118 1.287 . S
C1118 C1117 1.287 . S
C1118 C1119 1.524 . S
C1118 H1137 0.913 . S
C1119 H1095 0.950 . S
C1119 C1118 1.524 . S
C1119 C1120 1.415 . S
C1120 H1096 0.950 . S
C1120 C1115 1.363 . S
C1120 C1119 1.415 . S
C1121 H1097 0.951 . S
C1121 C1122 1.366 . S
C1121 C1123 1.388 . S
C1122 C1121 1.366 . S
C1122 C1126 1.385 . S
C1123 H1098 0.951 . S
C1123 C1121 1.388 . S
C1123 C1124 1.366 . S
C1124 C1123 1.366 . S
C1124 C1125 1.414 . S
C1124 C1127 1.499 . S
C1125 H1099 0.950 . S
C1125 C1124 1.414 . S
C1125 C1126 1.374 . S
C1126 H1100 0.950 . S
C1126 C1122 1.385 . S
C1126 C1125 1.374 . S
C1127 C1124 1.499 . S
C1127 C1128 1.373 . S
C1127 C1129 1.389 . S
C1128 H1101 0.950 . S
C1128 C1114 1.377 . S
C1128 C1127 1.373 . S
C1129 C1113 1.377 . S
C1129 C1127 1.389 . S
C1129 C1130 1.524 . S
C1130 C1129 1.524 . S
C1130 C1131 1.397 . S
C1130 C1135 1.363 . S
C1131 H1102 0.950 . S
C1131 C1130 1.397 . S
C1131 C1132 1.334 . S
C1132 H1103 0.950 . S
C1132 C1131 1.334 . S
C1132 C1133 1.287 . S
C1133 C1132 1.287 . S
C1133 C1134 1.524 . S
C1133 H1136 0.999 . S
C1134 H1104 0.950 . S
C1134 C1133 1.524 . S
C1134 C1135 1.415 . S
C1135 H1105 0.950 . S
C1135 C1130 1.363 . S
C1135 C1134 1.415 . S
H1136 C1133 0.999 . S
H1137 C1118 0.913 . S
H1138 C1156 0.951 . S
H1139 C1158 0.951 . S
H1140 C1160 0.950 . S
H1141 C1161 0.950 . S
H1142 C1163 0.950 . S
H1143 C1166 0.950 . S
H1144 C1167 0.950 . S
H1145 C1169 0.950 . S
H1146 C1170 0.950 . S
H1147 C1171 0.951 . S
H1148 C1173 0.951 . S
H1149 C1175 0.950 . S
H1150 C1176 0.950 . S
H1151 C1178 0.950 . S
H1152 C1181 0.950 . S
H1153 C1182 0.950 . S
H1154 C1184 0.950 . S
H1155 C1185 0.950 . S
C1156 H1138 0.951 . S
C1156 C1157 1.366 . S
C1156 C1158 1.388 . S
C1157 C1156 1.366 . S
C1157 C1161 1.385 . S
C1158 H1139 0.951 . S
C1158 C1156 1.388 . S
C1158 C1159 1.366 . S
C1159 C1158 1.366 . S
C1159 C1160 1.414 . S
C1159 C1162 1.499 . S
C1160 H1140 0.950 . S
C1160 C1159 1.414 . S
C1160 C1161 1.374 . S
C1161 H1141 0.950 . S
C1161 C1157 1.385 . S
C1161 C1160 1.374 . S
C1162 C1159 1.499 . S
C1162 C1163 1.373 . S
C1162 C1164 1.389 . S
C1163 H1142 0.950 . S
C1163 C1162 1.373 . S
C1163 C1179 1.377 . S
C1164 C1162 1.389 . S
C1164 C1165 1.524 . S
C1164 C1178 1.377 . S
C1165 C1164 1.524 . S
C1165 C1166 1.397 . S
C1165 C1170 1.363 . S
C1166 H1143 0.950 . S
C1166 C1165 1.397 . S
C1166 C1167 1.334 . S
C1167 H1144 0.950 . S
C1167 C1166 1.334 . S
C1167 C1168 1.287 . S
C1168 C1167 1.287 . S
C1168 C1169 1.524 . S
C1168 H1187 0.913 . S
C1169 H1145 0.950 . S
C1169 C1168 1.524 . S
C1169 C1170 1.415 . S
C1170 H1146 0.950 . S
C1170 C1165 1.363 . S
C1170 C1169 1.415 . S
C1171 H1147 0.951 . S
C1171 C1172 1.366 . S
C1171 C1173 1.388 . S
C1172 C1171 1.366 . S
C1172 C1176 1.385 . S
C1173 H1148 0.951 . S
C1173 C1171 1.388 . S
C1173 C1174 1.366 . S
C1174 C1173 1.366 . S
C1174 C1175 1.414 . S
C1174 C1177 1.499 . S
C1175 H1149 0.950 . S
C1175 C1174 1.414 . S
C1175 C1176 1.374 . S
C1176 H1150 0.950 . S
C1176 C1172 1.385 . S
C1176 C1175 1.374 . S
C1177 C1174 1.499 . S
C1177 C1178 1.373 . S
C1177 C1179 1.389 . S
C1178 H1151 0.950 . S
C1178 C1164 1.377 . S
C1178 C1177 1.373 . S
C1179 C1163 1.377 . S
C1179 C1177 1.389 . S
C1179 C1180 1.524 . S
C1180 C1179 1.524 . S
C1180 C1181 1.397 . S
C1180 C1185 1.363 . S
C1181 H1152 0.950 . S
C1181 C1180 1.397 . S
C1181 C1182 1.334 . S
C1182 H1153 0.950 . S
C1182 C1181 1.334 . S
C1182 C1183 1.287 . S
C1183 C1182 1.287 . S
C1183 C1184 1.524 . S
C1183 H1186 0.999 . S
C1184 H1154 0.950 . S
C1184 C1183 1.524 . S
C1184 C1185 1.415 . S
C1185 H1155 0.950 . S
C1185 C1180 1.363 . S
C1185 C1184 1.415 . S
H1186 C1183 0.999 . S
H1187 C1168 0.913 . S
H1188 C1206 0.951 . S
H1189 C1208 0.951 . S
H1190 C1210 0.950 . S
H1191 C1211 0.950 . S
H1192 C1213 0.950 . S
H1193 C1216 0.950 . S
H1194 C1217 0.950 . S
H1195 C1219 0.950 . S
H1196 C1220 0.950 . S
H1197 C1221 0.951 . S
H1198 C1223 0.951 . S
H1199 C1225 0.950 . S
H1200 C1226 0.950 . S
H1201 C1228 0.950 . S
H1202 C1231 0.950 . S
H1203 C1232 0.950 . S
H1204 C1234 0.950 . S
H1205 C1235 0.949 1_655 S
C1206 H1188 0.951 . S
C1206 C1207 1.366 . S
C1206 C1208 1.388 . S
C1207 C1206 1.366 . S
C1207 C1211 1.385 . S
C1208 H1189 0.951 . S
C1208 C1206 1.388 . S
C1208 C1209 1.366 . S
C1209 C1208 1.366 . S
C1209 C1210 1.414 . S
C1209 C1212 1.426 1_556 S
C1210 H1190 0.950 . S
C1210 C1209 1.414 . S
C1210 C1211 1.374 . S
C1211 H1191 0.950 . S
C1211 C1207 1.385 . S
C1211 C1210 1.374 . S
C1212 C1209 1.426 1_554 S
C1212 C1213 1.422 . S
C1212 C1214 1.417 . S
C1213 H1192 0.950 . S
C1213 C1212 1.422 . S
C1213 C1229 1.377 . S
C1214 C1212 1.417 . S
C1214 C1215 1.569 . S
C1214 C1228 1.377 . S
C1215 C1214 1.569 . S
C1215 C1216 1.364 1_554 S
C1215 C1220 1.363 . S
C1216 H1193 0.950 . S
C1216 C1215 1.364 1_556 S
C1216 C1217 1.334 . S
C1217 H1194 0.950 . S
C1217 C1216 1.334 . S
C1217 C1218 1.287 . S
C1218 C1217 1.287 . S
C1218 C1219 1.524 . S
C1218 H1237 0.913 . S
C1219 H1195 0.950 . S
C1219 C1218 1.524 . S
C1219 C1220 1.415 1_556 S
C1220 H1196 0.950 . S
C1220 C1215 1.363 . S
C1220 C1219 1.415 1_554 S
C1221 H1197 0.951 . S
C1221 C1222 1.366 . S
C1221 C1223 1.388 . S
C1222 C1221 1.366 . S
C1222 C1226 1.385 . S
C1223 H1198 0.951 . S
C1223 C1221 1.388 . S
C1223 C1224 1.366 . S
C1224 C1223 1.366 . S
C1224 C1225 1.414 . S
C1224 C1227 1.499 . S
C1225 H1199 0.950 . S
C1225 C1224 1.414 . S
C1225 C1226 1.374 . S
C1226 H1200 0.950 . S
C1226 C1222 1.385 . S
C1226 C1225 1.374 . S
C1227 C1224 1.499 . S
C1227 C1228 1.373 . S
C1227 C1229 1.389 . S
C1228 H1201 0.950 . S
C1228 C1214 1.377 . S
C1228 C1227 1.373 . S
C1229 C1213 1.377 . S
C1229 C1227 1.389 . S
C1229 C1230 1.524 . S
C1230 C1229 1.524 . S
C1230 C1231 1.397 . S
C1230 C1235 1.363 . S
C1231 H1202 0.950 . S
C1231 C1230 1.397 . S
C1231 C1232 1.334 . S
C1232 H1203 0.950 . S
C1232 C1231 1.334 . S
C1232 C1233 1.287 1_455 S
C1233 C1232 1.287 1_655 S
C1233 C1234 1.524 . S
C1233 H1236 0.999 . S
C1234 H1204 0.950 . S
C1234 C1233 1.524 . S
C1234 C1235 1.415 1_655 S
C1235 H1205 0.949 1_455 S
C1235 C1230 1.363 . S
C1235 C1234 1.415 1_455 S
H1236 C1233 0.999 . S
H1237 C1218 0.913 . S
H1238 C1256 0.951 . S
H1239 C1258 0.951 . S
H1240 C1260 0.950 . S
H1241 C1261 0.950 . S
H1242 C1263 0.950 . S
H1243 C1266 0.950 . S
H1244 C1267 0.950 . S
H1245 C1269 0.950 . S
H1246 C1270 0.950 . S
H1247 C1271 0.951 . S
H1248 C1273 0.951 . S
H1249 C1275 0.950 . S
H1250 C1276 0.950 . S
H1251 C1278 0.950 . S
H1252 C1281 0.950 . S
H1253 C1282 0.950 . S
H1254 C1284 0.950 . S
H1255 C1285 0.950 . S
C1256 H1238 0.951 . S
C1256 C1257 1.366 . S
C1256 C1258 1.388 . S
C1257 C1256 1.366 . S
C1257 C1261 1.385 . S
C1258 H1239 0.951 . S
C1258 C1256 1.388 . S
C1258 C1259 1.366 . S
C1259 C1258 1.366 . S
C1259 C1260 1.414 . S
C1259 C1262 1.499 . S
C1260 H1240 0.950 . S
C1260 C1259 1.414 . S
C1260 C1261 1.374 . S
C1261 H1241 0.950 . S
C1261 C1257 1.385 . S
C1261 C1260 1.374 . S
C1262 C1259 1.499 . S
C1262 C1263 1.373 . S
C1262 C1264 1.389 . S
C1263 H1242 0.950 . S
C1263 C1262 1.373 . S
C1263 C1279 1.377 . S
C1264 C1262 1.389 . S
C1264 C1265 1.524 . S
C1264 C1278 1.377 . S
C1265 C1264 1.524 . S
C1265 C1266 1.397 . S
C1265 C1270 1.363 . S
C1266 H1243 0.950 . S
C1266 C1265 1.397 . S
C1266 C1267 1.334 . S
C1267 H1244 0.950 . S
C1267 C1266 1.334 . S
C1267 C1268 1.287 . S
C1268 C1267 1.287 . S
C1268 C1269 1.524 . S
C1268 H1287 0.913 . S
C1269 H1245 0.950 . S
C1269 C1268 1.524 . S
C1269 C1270 1.415 . S
C1270 H1246 0.950 . S
C1270 C1265 1.363 . S
C1270 C1269 1.415 . S
C1271 H1247 0.951 . S
C1271 C1272 1.366 . S
C1271 C1273 1.388 . S
C1272 C1271 1.366 . S
C1272 C1276 1.385 . S
C1273 H1248 0.951 . S
C1273 C1271 1.388 . S
C1273 C1274 1.366 . S
C1274 C1273 1.366 . S
C1274 C1275 1.414 . S
C1274 C1277 1.499 . S
C1275 H1249 0.950 . S
C1275 C1274 1.414 . S
C1275 C1276 1.374 . S
C1276 H1250 0.950 . S
C1276 C1272 1.385 . S
C1276 C1275 1.374 . S
C1277 C1274 1.499 . S
C1277 C1278 1.373 . S
C1277 C1279 1.389 . S
C1278 H1251 0.950 . S
C1278 C1264 1.377 . S
C1278 C1277 1.373 . S
C1279 C1263 1.377 . S
C1279 C1277 1.389 . S
C1279 C1280 1.524 . S
C1280 C1279 1.524 . S
C1280 C1281 1.397 . S
C1280 C1285 1.363 . S
C1281 H1252 0.950 . S
C1281 C1280 1.397 . S
C1281 C1282 1.334 . S
C1282 H1253 0.950 . S
C1282 C1281 1.334 . S
C1282 C1283 1.287 . S
C1283 C1282 1.287 . S
C1283 C1284 1.524 . S
C1283 H1286 0.999 . S
C1284 H1254 0.950 . S
C1284 C1283 1.524 . S
C1284 C1285 1.415 . S
C1285 H1255 0.950 . S
C1285 C1280 1.363 . S
C1285 C1284 1.415 . S
H1286 C1283 0.999 . S
H1287 C1268 0.913 . S
H1288 C1306 0.951 . S
H1289 C1308 0.951 . S
H1290 C1310 0.950 . S
H1291 C1311 0.950 . S
H1292 C1313 0.950 . S
H1293 C1316 0.950 . S
H1294 C1317 0.950 . S
H1295 C1319 0.950 . S
H1296 C1320 0.950 . S
H1297 C1321 0.951 . S
H1298 C1323 0.951 . S
H1299 C1325 0.950 . S
H1300 C1326 0.950 . S
H1301 C1328 0.950 . S
H1302 C1331 0.950 . S
H1303 C1332 0.950 . S
H1304 C1334 0.950 . S
H1305 C1335 0.950 . S
C1306 H1288 0.951 . S
C1306 C1307 1.366 . S
C1306 C1308 1.388 . S
C1307 C1306 1.366 . S
C1307 C1311 1.385 . S
C1308 H1289 0.951 . S
C1308 C1306 1.388 . S
C1308 C1309 1.366 . S
C1309 C1308 1.366 . S
C1309 C1310 1.414 . S
C1309 C1312 1.499 . S
C1310 H1290 0.950 . S
C1310 C1309 1.414 . S
C1310 C1311 1.374 . S
C1311 H1291 0.950 . S
C1311 C1307 1.385 . S
C1311 C1310 1.374 . S
C1312 C1309 1.499 . S
C1312 C1313 1.373 . S
C1312 C1314 1.389 . S
C1313 H1292 0.950 . S
C1313 C1312 1.373 . S
C1313 C1329 1.377 . S
C1314 C1312 1.389 . S
C1314 C1315 1.524 . S
C1314 C1328 1.377 . S
C1315 C1314 1.524 . S
C1315 C1316 1.397 . S
C1315 C1320 1.363 . S
C1316 H1293 0.950 . S
C1316 C1315 1.397 . S
C1316 C1317 1.334 . S
C1317 H1294 0.950 . S
C1317 C1316 1.334 . S
C1317 C1318 1.287 . S
C1318 C1317 1.287 . S
C1318 C1319 1.524 . S
C1318 H1337 0.913 . S
C1319 H1295 0.950 . S
C1319 C1318 1.524 . S
C1319 C1320 1.415 . S
C1320 H1296 0.950 . S
C1320 C1315 1.363 . S
C1320 C1319 1.415 . S
C1321 H1297 0.951 . S
C1321 C1322 1.366 . S
C1321 C1323 1.388 . S
C1322 C1321 1.366 . S
C1322 C1326 1.385 . S
C1323 H1298 0.951 . S
C1323 C1321 1.388 . S
C1323 C1324 1.366 . S
C1324 C1323 1.366 . S
C1324 C1325 1.414 . S
C1324 C1327 1.499 . S
C1325 H1299 0.950 . S
C1325 C1324 1.414 . S
C1325 C1326 1.374 . S
C1326 H1300 0.950 . S
C1326 C1322 1.385 . S
C1326 C1325 1.374 . S
C1327 C1324 1.499 . S
C1327 C1328 1.373 . S
C1327 C1329 1.389 . S
C1328 H1301 0.950 . S
C1328 C1314 1.377 . S
C1328 C1327 1.373 . S
C1329 C1313 1.377 . S
C1329 C1327 1.389 . S
C1329 C1330 1.524 . S
C1330 C1329 1.524 . S
C1330 C1331 1.397 . S
C1330 C1335 1.363 . S
C1331 H1302 0.950 . S
C1331 C1330 1.397 . S
C1331 C1332 1.334 . S
C1332 H1303 0.950 . S
C1332 C1331 1.334 . S
C1332 C1333 1.287 . S
C1333 C1332 1.287 . S
C1333 C1334 1.524 . S
C1333 H1336 0.999 . S
C1334 H1304 0.950 . S
C1334 C1333 1.524 . S
C1334 C1335 1.415 . S
C1335 H1305 0.950 . S
C1335 C1330 1.363 . S
C1335 C1334 1.415 . S
H1336 C1333 0.999 . S
H1337 C1318 0.913 . S
H1338 C1356 0.951 . S
H1339 C1358 0.951 . S
H1340 C1360 0.950 . S
H1341 C1361 0.950 . S
H1342 C1363 0.950 . S
H1343 C1366 0.950 . S
H1344 C1367 0.950 . S
H1345 C1369 0.950 . S
H1346 C1370 0.950 . S
H1347 C1371 0.951 . S
H1348 C1373 0.951 . S
H1349 C1375 0.950 . S
H1350 C1376 0.950 . S
H1351 C1378 0.950 . S
H1352 C1381 0.950 . S
H1353 C1382 0.950 . S
H1354 C1384 0.950 . S
H1355 C1385 0.950 . S
C1356 H1338 0.951 . S
C1356 C1357 1.366 . S
C1356 C1358 1.388 . S
C1357 C1356 1.366 . S
C1357 C1361 1.385 . S
C1358 H1339 0.951 . S
C1358 C1356 1.388 . S
C1358 C1359 1.366 . S
C1359 C1358 1.366 . S
C1359 C1360 1.414 . S
C1359 C1362 1.499 . S
C1360 H1340 0.950 . S
C1360 C1359 1.414 . S
C1360 C1361 1.374 . S
C1361 H1341 0.950 . S
C1361 C1357 1.385 . S
C1361 C1360 1.374 . S
C1362 C1359 1.499 . S
C1362 C1363 1.373 . S
C1362 C1364 1.389 . S
C1363 H1342 0.950 . S
C1363 C1362 1.373 . S
C1363 C1379 1.377 . S
C1364 C1362 1.389 . S
C1364 C1365 1.524 . S
C1364 C1378 1.377 . S
C1365 C1364 1.524 . S
C1365 C1366 1.397 . S
C1365 C1370 1.363 . S
C1366 H1343 0.950 . S
C1366 C1365 1.397 . S
C1366 C1367 1.334 . S
C1367 H1344 0.950 . S
C1367 C1366 1.334 . S
C1367 C1368 1.287 . S
C1368 C1367 1.287 . S
C1368 C1369 1.524 . S
C1368 H1387 0.913 . S
C1369 H1345 0.950 . S
C1369 C1368 1.524 . S
C1369 C1370 1.415 . S
C1370 H1346 0.950 . S
C1370 C1365 1.363 . S
C1370 C1369 1.415 . S
C1371 H1347 0.951 . S
C1371 C1372 1.366 . S
C1371 C1373 1.388 . S
C1372 C1371 1.366 . S
C1372 C1376 1.385 . S
C1373 H1348 0.951 . S
C1373 C1371 1.388 . S
C1373 C1374 1.366 . S
C1374 C1373 1.366 . S
C1374 C1375 1.414 . S
C1374 C1377 1.499 . S
C1375 H1349 0.950 . S
C1375 C1374 1.414 . S
C1375 C1376 1.374 . S
C1376 H1350 0.950 . S
C1376 C1372 1.385 . S
C1376 C1375 1.374 . S
C1377 C1374 1.499 . S
C1377 C1378 1.373 . S
C1377 C1379 1.389 . S
C1378 H1351 0.950 . S
C1378 C1364 1.377 . S
C1378 C1377 1.373 . S
C1379 C1363 1.377 . S
C1379 C1377 1.389 . S
C1379 C1380 1.524 . S
C1380 C1379 1.524 . S
C1380 C1381 1.397 . S
C1380 C1385 1.363 . S
C1381 H1352 0.950 . S
C1381 C1380 1.397 . S
C1381 C1382 1.334 . S
C1382 H1353 0.950 . S
C1382 C1381 1.334 . S
C1382 C1383 1.287 1_455 S
C1383 C1382 1.287 1_655 S
C1383 C1384 1.524 . S
C1383 H1386 0.999 . S
C1384 H1354 0.950 . S
C1384 C1383 1.524 . S
C1384 C1385 1.415 1_655 S
C1385 H1355 0.950 . S
C1385 C1380 1.363 . S
C1385 C1384 1.415 1_455 S
H1386 C1383 0.999 . S
H1387 C1368 0.913 . S
C222 C111 1.522 . S
C207 C4 1.519 . S
C272 C129 1.350 . S
C257 C17 1.359 . S
C307 C34 1.289 . S
C322 C153 1.188 . S
C372 C183 1.270 1_655 S
C357 C47 1.400 . S
C422 C171 1.254 . S
C407 C56 1.321 . S
C457 C69 1.372 . S
C472 C124 1.377 . S
C507 C86 1.566 . S
C522 C144 1.446 . S
C557 C99 1.389 . S
C572 C149 1.250 . S
C607 C95 1.361 . S
C622 C165 1.366 . S
C657 C73 1.394 . S
C672 C120 1.247 . S
C722 C187 1.361 . S
C707 C43 1.358 . S
C772 C132 1.271 . S
C757 C21 1.409 . S
C807 C30 1.513 . S
C822 C150 1.516 . S
C857 C8 1.301 . S
C872 C108 1.199 . S
C922 C128 1.253 . S
C907 C82 1.310 . S
C972 C174 1.448 . S
C957 C60 1.577 . S
C1022 C170 1.355 . S
C1007 C9 1.573 . S
C1072 C123 1.382 . S
C1057 C22 1.453 . S
C1107 C35 1.559 . S
C1122 C145 1.336 . S
C1157 C48 1.478 . S
C1172 C166 1.405 . S
C1222 C107 1.386 . S
C1207 C61 1.519 . S
C1257 C74 1.553 . S
C1272 C141 1.489 . S
C1322 C162 1.405 . S
C1307 C87 1.539 . S
C1372 C186 1.462 . S
C1357 C100 1.526 . S
