# Generated by pormake.
# Topology tsx, (6,3)-cn, num edge types: 1
# Building blocks:
#     Node 0, Type 0, BuildingBlock: VOLQOD_clean_sbu_1, # of connection points: 6
#     Node 1, Type 0, BuildingBlock: VOLQOD_clean_sbu_1, # of connection points: 6
#     Node 2, Type 1, BuildingBlock: VETTIZ_charged_linker_0, # of connection points: 3
#     Node 3, Type 1, BuildingBlock: VETTIZ_charged_linker_0, # of connection points: 3
#     Node 4, Type 1, BuildingBlock: VETTIZ_charged_linker_0, # of connection points: 3
#     Node 5, Type 1, BuildingBlock: VETTIZ_charged_linker_0, # of connection points: 3
#     Edge 6, Type (0, 1), BuildingBlock: TEMPAE_clean_linker_10, # of connection points: 2
#     Edge 7, Type (0, 1), BuildingBlock: TEMPAE_clean_linker_10, # of connection points: 2
#     Edge 8, Type (0, 1), BuildingBlock: TEMPAE_clean_linker_10, # of connection points: 2
#     Edge 9, Type (0, 1), BuildingBlock: TEMPAE_clean_linker_10, # of connection points: 2
#     Edge 10, Type (0, 1), BuildingBlock: TEMPAE_clean_linker_10, # of connection points: 2
#     Edge 11, Type (0, 1), BuildingBlock: TEMPAE_clean_linker_10, # of connection points: 2
#     Edge 12, Type (0, 1), BuildingBlock: TEMPAE_clean_linker_10, # of connection points: 2
#     Edge 13, Type (0, 1), BuildingBlock: TEMPAE_clean_linker_10, # of connection points: 2
#     Edge 14, Type (0, 1), BuildingBlock: TEMPAE_clean_linker_10, # of connection points: 2
#     Edge 15, Type (0, 1), BuildingBlock: TEMPAE_clean_linker_10, # of connection points: 2
#     Edge 16, Type (0, 1), BuildingBlock: TEMPAE_clean_linker_10, # of connection points: 2
#     Edge 17, Type (0, 1), BuildingBlock: TEMPAE_clean_linker_10, # of connection points: 2
# Relax obj value: 0.078
# Max RMSD: 0.110
# Mean RMSD: 0.085
data_MOF--net-tsx--node1-VOLQOD_clean_sbu_1--node2-VETTIZ_charged_linker_0--edge1-TEMPAE_clean_linker_10
_symmetry_space_group_name_H-M    P1
_symmetry_Int_Tables_number       1
_symmetry_cell_setting            triclinic
loop_
_symmetry_equiv_pos_as_xyz
'x, y, z'
_cell_length_a     25.047414
_cell_length_b     25.921389
_cell_length_c     49.552852
_cell_angle_alpha  90.407192
_cell_angle_beta   89.871783
_cell_angle_gamma 90.082821
loop_
_atom_site_label
_atom_site_type_symbol
_atom_site_fract_x
_atom_site_fract_y
_atom_site_fract_z
_atom_type_partial_charge
O0 O 0.04358 -0.00061 0.08039 0.0
Zn1 Zn 0.06778 -0.0046 0.04148 0.0
O2 O 0.00778 0.00013 0.01639 0.0
Zn3 Zn 0.0004 0.93557 0.99611 0.0
Zn4 Zn 0.94279 0.01292 0.03706 0.0
Zn5 Zn 0.01962 0.05655 0.99103 0.0
O6 O 0.00149 0.94772 0.95599 0.0
O7 O 0.01878 0.03133 0.95247 0.0
O8 O 0.10867 0.92909 0.03574 0.0
O9 O 0.06134 0.88812 0.00438 0.0
O10 O 0.93152 0.89921 0.00505 0.0
O11 O 0.89023 0.95552 0.03173 0.0
O12 O 0.90739 0.07864 0.02598 0.0
O13 O 0.11891 0.05406 0.03537 0.0
O14 O 0.96101 0.10947 0.99424 0.0
O15 O 0.08964 0.09239 0.99822 0.0
C16 C -0.00146 0.0093 0.09124 0.0
C17 C 0.01003 0.98744 0.94163 0.0
C18 C 0.89113 0.91267 0.01906 0.0
C19 C 0.10119 0.89027 0.02027 0.0
C20 C 0.91914 0.11307 0.00878 0.0
C21 C 0.12366 0.08816 0.01714 0.0
O22 O 0.95722 0.01667 0.07688 0.0
O23 O 0.54924 0.50822 0.57496 0.0
Zn24 Zn 0.5723 0.50455 0.53587 0.0
O25 O 0.51049 0.50193 0.51175 0.0
Zn26 Zn 0.50928 0.43644 0.49223 0.0
Zn27 Zn 0.44504 0.5079 0.53292 0.0
Zn28 Zn 0.51454 0.5583 0.4858 0.0
O29 O 0.50478 0.44736 0.45209 0.0
O30 O 0.51897 0.53152 0.44753 0.0
O31 O 0.61942 0.44198 0.53077 0.0
O32 O 0.57588 0.39658 0.49966 0.0
O33 O 0.44713 0.39212 0.50317 0.0
O34 O 0.39803 0.44576 0.52801 0.0
O35 O 0.40225 0.56921 0.52205 0.0
O36 O 0.61664 0.56786 0.52838 0.0
O37 O 0.44866 0.60265 0.48822 0.0
O38 O 0.57758 0.60441 0.4932 0.0
C39 C 0.50377 0.51257 0.58634 0.0
C40 C 0.51166 0.48683 0.43732 0.0
C41 C 0.40497 0.40226 0.51652 0.0
C42 C 0.61555 0.40254 0.5154 0.0
C43 C 0.40802 0.60286 0.50372 0.0
C44 C 0.61432 0.60364 0.51091 0.0
O45 O 0.46099 0.51383 0.57253 0.0
C46 C 0.0815 0.87146 0.46098 0.0
C47 C 0.10933 0.83271 0.44681 0.0
C48 C 0.10311 0.82855 0.41862 0.0
C49 C 0.04533 0.90311 0.41885 0.0
C50 C 0.04972 0.90613 0.44661 0.0
C51 C 0.01875 0.95078 0.45826 0.0
H52 H 0.87181 0.1651 0.43681 0.0
C53 C 0.01263 0.94682 0.40977 0.0
C54 C -0.00356 0.9747 0.43274 0.0
H55 H 0.91407 0.09787 0.5134 0.0
H56 H 0.95968 0.02812 0.4902 0.0
H57 H 0.9857 0.1455 0.40697 0.0
H58 H 0.83778 0.0607 0.40908 0.0
H59 H 0.86197 0.05714 0.37584 0.0
H60 H 0.84516 0.11916 0.39024 0.0
H61 H 0.92627 0.16744 0.39047 0.0
H62 H 0.97225 0.12397 0.37398 0.0
C63 C 0.0586 0.98729 0.47274 0.0
C64 C 0.97416 0.92927 0.47684 0.0
C65 C 0.9905 0.97813 0.30939 0.0
C66 C 0.9656 0.0173 0.29453 0.0
C67 C 0.93861 0.05706 0.30853 0.0
C68 C 0.93687 0.05798 0.33682 0.0
C69 C 0.96256 0.01884 0.35137 0.0
C70 C 0.98849 0.97968 0.3376 0.0
C71 C 0.01424 0.94174 0.35628 0.0
C72 C -0.00068 0.96444 0.38358 0.0
C73 C 0.96926 0.00963 0.38061 0.0
C74 C 0.07537 0.94332 0.35118 0.0
C75 C 0.98799 0.88823 0.35153 0.0
C76 C 0.89185 0.13595 0.44862 0.0
C77 C 0.89045 0.13748 0.47696 0.0
C78 C 0.91518 0.09769 0.49156 0.0
C79 C 0.94157 0.05733 0.47804 0.0
C80 C 0.94293 0.05672 0.44963 0.0
C81 C 0.91788 0.09541 0.43545 0.0
C82 C 0.92116 0.08756 0.40542 0.0
C83 C 0.95244 0.0377 0.4038 0.0
C84 C 0.96556 0.02009 0.42972 0.0
C85 C 0.95262 0.13349 0.39334 0.0
C86 C 0.86369 0.08112 0.39433 0.0
H87 H 0.0689 0.85862 0.38313 0.0
H88 H 0.085 0.87515 0.48269 0.0
H89 H 0.9622 0.88953 0.47072 0.0
H90 H 0.93692 0.95204 0.4757 0.0
H91 H 0.98751 0.92769 0.49818 0.0
H92 H 0.09466 0.9935 0.46001 0.0
H93 H 0.07191 0.97058 0.49217 0.0
H94 H 0.04217 0.02602 0.47676 0.0
H95 H 0.01219 0.94741 0.29931 0.0
H96 H 0.91855 0.08736 0.29756 0.0
H97 H 0.91579 0.08929 0.34627 0.0
H98 H 0.0888 0.98314 0.34634 0.0
H99 H 0.08671 0.91798 0.33394 0.0
H100 H 0.09908 0.9325 0.369 0.0
H101 H 0.94524 0.89229 0.34585 0.0
H102 H 0.98736 0.86421 0.36987 0.0
H103 H 0.00831 0.86672 0.335 0.0
H104 H 0.12457 0.79941 0.40719 0.0
C105 C 0.07116 0.86335 0.40461 0.0
C106 C 0.10273 0.11653 0.5725 0.0
C107 C 0.14522 0.14171 0.58583 0.0
C108 C 0.1555 0.1294 0.61304 0.0
C109 C 0.07956 0.07194 0.61382 0.0
C110 C 0.071 0.08136 0.58677 0.0
C111 C 0.02609 0.04901 0.57555 0.0
H112 H 0.83241 0.87173 0.59778 0.0
C113 C 0.03887 0.03508 0.62311 0.0
C114 C 0.00798 0.02057 0.60072 0.0
H115 H 0.88353 0.93366 0.5212 0.0
H116 H 0.94826 0.98809 0.5441 0.0
H117 H 0.94721 0.85541 0.62158 0.0
H118 H 0.83542 0.98035 0.63075 0.0
H119 H 0.86579 0.97169 0.66227 0.0
H120 H 0.82677 0.91997 0.6477 0.0
H121 H 0.88652 0.84968 0.64068 0.0
H122 H 0.94701 0.87392 0.65577 0.0
C123 C 0.04918 0.01198 0.55372 0.0
C124 C 0.9822 0.08551 0.56497 0.0
C125 C 0.02304 -0.00342 0.72317 0.0
C126 C 0.98686 0.96708 0.73836 0.0
C127 C 0.94636 0.9394 0.72481 0.0
C128 C 0.94181 0.94135 0.69663 0.0
C129 C 0.97802 0.97145 0.68175 0.0
C130 C 0.01778 -0.00164 0.69508 0.0
C131 C 0.05216 0.02902 0.67614 0.0
C132 C 0.02611 0.01649 0.64922 0.0
C133 C 0.98291 0.98268 0.65262 0.0
C134 C 0.11011 0.00813 0.67773 0.0
C135 C 0.04628 0.0868 0.68381 0.0
C136 C 0.85695 0.89763 0.58596 0.0
C137 C 0.8528 0.89878 0.55771 0.0
C138 C 0.88632 0.93208 0.54299 0.0
C139 C 0.92383 0.96345 0.55631 0.0
C140 C 0.9282 0.96091 0.58459 0.0
C141 C 0.89486 0.92852 0.59889 0.0
C142 C 0.906 0.92941 0.62868 0.0
C143 C 0.95262 0.96659 0.6299 0.0
C144 C 0.96513 0.98532 0.60408 0.0
C145 C 0.92224 0.87431 0.63739 0.0
C146 C 0.856 0.95109 0.64333 0.0
H147 H 0.13253 0.08808 0.64777 0.0
H148 H 0.09379 0.12426 0.55156 0.0
H149 H 0.97355 0.11641 0.58005 0.0
H150 H 0.94394 0.06556 0.56126 0.0
H151 H -0.00491 0.10434 0.54596 0.0
H152 H 0.09279 0.00578 0.5564 0.0
H153 H 0.04319 0.02755 0.53312 0.0
H154 H 0.03154 0.97286 0.55475 0.0
H155 H 0.05418 0.01882 0.73297 0.0
H156 H 0.9183 0.91598 0.73603 0.0
H157 H 0.91019 0.9194 0.68752 0.0
H158 H 0.11107 0.96749 0.68481 0.0
H159 H 0.13473 0.03144 0.69191 0.0
H160 H 0.13001 0.0069 0.65775 0.0
H161 H 0.00372 0.09642 0.68787 0.0
H162 H 0.05897 0.11318 0.66768 0.0
H163 H 0.06942 0.09613 0.70232 0.0
H164 H 0.18918 0.14606 0.62365 0.0
C165 C 0.1228 0.09513 0.62708 0.0
C166 C 0.61117 0.39609 0.95734 0.0
C167 C 0.64378 0.36064 0.94341 0.0
C168 C 0.64189 0.35867 0.915 0.0
C169 C 0.57602 0.42669 0.91474 0.0
C170 C 0.57751 0.42857 0.94261 0.0
C171 C 0.53965 0.46824 0.95401 0.0
H172 H 0.35982 0.65788 0.93112 0.0
C173 C 0.53759 0.46564 0.90545 0.0
C174 C 0.51574 0.49001 0.92831 0.0
H175 H 0.41265 0.60015 0.0082 0.0
H176 H 0.46912 0.53769 0.98545 0.0
H177 H 0.47499 0.65775 0.90253 0.0
H178 H 0.34569 0.54812 0.90317 0.0
H179 H 0.37085 0.54978 0.87008 0.0
H180 H 0.34238 0.60741 0.88475 0.0
H181 H 0.4136 0.66842 0.88483 0.0
H182 H 0.46824 0.63361 0.86951 0.0
C183 C 0.57299 0.50903 0.96953 0.0
C184 C 0.49753 0.44014 0.97155 0.0
C185 C 0.51173 0.49202 0.80491 0.0
C186 C 0.48031 0.52619 0.78984 0.0
C187 C 0.4472 0.56166 0.80361 0.0
C188 C 0.44546 0.56303 0.8319 0.0
C189 C 0.47729 0.52868 0.84667 0.0
C190 C 0.50962 0.49396 0.83311 0.0
C191 C 0.54108 0.4607 0.85199 0.0
C192 C 0.52222 0.48105 0.87917 0.0
C193 C 0.48496 0.52081 0.87595 0.0
C194 C 0.60125 0.47166 0.84716 0.0
C195 C 0.52404 0.40379 0.84727 0.0
C196 C 0.38419 0.63236 0.94315 0.0
C197 C 0.38243 0.63442 0.97148 0.0
C198 C 0.41347 0.59935 0.98635 0.0
C199 C 0.44638 0.56335 0.9731 0.0
C200 C 0.44817 0.56238 0.94471 0.0
C201 C 0.41703 0.59633 0.93028 0.0
C202 C 0.42272 0.58924 0.9003 0.0
C203 C 0.46265 0.54549 0.899 0.0
C204 C 0.47769 0.53002 0.92505 0.0
C205 C 0.44573 0.6398 0.88843 0.0
C206 C 0.36766 0.57313 0.88873 0.0
H207 H 0.6089 0.38795 0.87907 0.0
H208 H 0.61148 0.39812 0.97919 0.0
H209 H 0.4893 0.40068 0.96359 0.0
H210 H 0.45829 0.45954 0.97154 0.0
H211 H 0.51155 0.43616 0.99269 0.0
H212 H 0.60897 0.52001 0.95767 0.0
H213 H 0.58678 0.49356 0.98915 0.0
H214 H 0.55125 0.54533 0.97328 0.0
H215 H 0.53815 0.46477 0.79499 0.0
H216 H 0.42219 0.58804 0.79247 0.0
H217 H 0.4194 0.59082 0.84117 0.0
H218 H 0.60797 0.51283 0.84191 0.0
H219 H 0.61713 0.44773 0.83029 0.0
H220 H 0.62598 0.46546 0.86526 0.0
H221 H 0.48118 0.40116 0.84154 0.0
H222 H 0.52736 0.38 0.8656 0.0
H223 H 0.54769 0.38567 0.83076 0.0
H224 H 0.6672 0.33222 0.9038 0.0
C225 C 0.60822 0.39135 0.90064 0.0
C226 C 0.59482 0.61861 0.06937 0.0
C227 C 0.62235 0.65717 0.08384 0.0
C228 C 0.61618 0.66019 0.11209 0.0
C229 C 0.56054 0.584 0.11139 0.0
C230 C 0.5643 0.58238 0.08356 0.0
C231 C 0.53372 0.53767 0.07164 0.0
H232 H 0.39353 0.31757 0.09178 0.0
C233 C 0.52995 0.53858 0.12022 0.0
C234 C 0.51401 0.51117 0.09708 0.0
H235 H 0.42019 0.3963 0.01652 0.0
H236 H 0.4718 0.46231 0.03978 0.0
H237 H 0.51145 0.33567 0.1179 0.0
H238 H 0.36324 0.41905 0.12436 0.0
H239 H 0.39069 0.41426 0.15686 0.0
H240 H 0.37284 0.35637 0.13876 0.0
H241 H 0.45672 0.31263 0.13791 0.0
H242 H 0.50562 0.35695 0.1515 0.0
C243 C 0.57317 0.50334 0.05553 0.0
C244 C 0.48726 0.55941 0.0545 0.0
C245 C 0.50938 0.50377 0.22038 0.0
C246 C 0.49003 0.46137 0.23484 0.0
C247 C 0.47009 0.41813 0.2208 0.0
C248 C 0.46859 0.41754 0.19249 0.0
C249 C 0.48782 0.46045 0.17817 0.0
C250 C 0.50854 0.50222 0.19216 0.0
C251 C 0.5311 0.54253 0.17371 0.0
C252 C 0.51896 0.51888 0.14629 0.0
C253 C 0.49304 0.4712 0.149 0.0
C254 C 0.59205 0.5468 0.17909 0.0
C255 C 0.49966 0.59324 0.17838 0.0
C256 C 0.41159 0.34859 0.08037 0.0
C257 C 0.40415 0.35179 0.05242 0.0
C258 C 0.42644 0.39318 0.03808 0.0
C259 C 0.45591 0.43142 0.05164 0.0
C260 C 0.46221 0.42837 0.0798 0.0
C261 C 0.43999 0.38752 0.09369 0.0
C262 C 0.44685 0.39262 0.12372 0.0
C263 C 0.47626 0.44363 0.12566 0.0
C264 C 0.48597 0.46392 0.09987 0.0
C265 C 0.48162 0.34706 0.13351 0.0
C266 C 0.39069 0.39544 0.13684 0.0
H267 H 0.58309 0.62791 0.14741 0.0
H268 H 0.5985 0.61558 0.04764 0.0
H269 H 0.4761 0.59916 0.06096 0.0
H270 H 0.45007 0.53671 0.05674 0.0
H271 H 0.49835 0.56111 0.03282 0.0
H272 H 0.60937 0.49534 0.06776 0.0
H273 H 0.58618 0.52286 0.03675 0.0
H274 H 0.55631 0.46544 0.04996 0.0
H275 H 0.52593 0.53696 0.23084 0.0
H276 H 0.45533 0.38503 0.23178 0.0
H277 H 0.45266 0.38368 0.18285 0.0
H278 H 0.60839 0.51042 0.18752 0.0
H279 H 0.60107 0.57822 0.19374 0.0
H280 H 0.61551 0.553 0.16047 0.0
H281 H 0.45634 0.58512 0.18108 0.0
H282 H 0.502 0.61979 0.16108 0.0
H283 H 0.51384 0.61371 0.1968 0.0
H284 H 0.63582 0.69039 0.1236 0.0
C285 C 0.58547 0.62391 0.1259 0.0
C286 C 0.18931 0.13914 0.04388 0.0
C287 C 0.1685 0.12502 0.01869 0.0
C288 C 0.22987 0.17617 0.04604 0.0
C289 C 0.2512 0.1985 0.02233 0.0
C290 C 0.23154 0.18318 0.99675 0.0
C291 C 0.18972 0.14712 0.99524 0.0
C292 C 0.24891 0.19236 0.07376 0.0
C293 C 0.25445 0.20506 0.97105 0.0
C294 C 0.31532 0.32882 0.03433 0.0
C295 C 0.3682 0.31463 0.03922 0.0
C296 C 0.27707 0.2916 0.0273 0.0
C297 C 0.29265 0.23927 0.02473 0.0
C298 C 0.34702 0.22553 0.02777 0.0
C299 C 0.38417 0.26343 0.03543 0.0
C300 C 0.21941 0.30772 0.02474 0.0
C301 C 0.36537 0.17038 0.02456 0.0
H302 H 0.17266 0.12238 0.06205 0.0
H303 H 0.17392 0.13584 0.97571 0.0
H304 H 0.29232 0.18492 0.07572 0.0
H305 H 0.24272 0.23442 0.07666 0.0
H306 H 0.22771 0.17162 0.09015 0.0
H307 H 0.23711 0.18664 0.95275 0.0
H308 H 0.24676 0.24715 0.97024 0.0
H309 H 0.2984 0.19972 0.97065 0.0
H310 H 0.30326 0.36853 0.03769 0.0
H311 H 0.42522 0.25279 0.03947 0.0
H312 H 0.19614 0.29183 0.04187 0.0
H313 H 0.20179 0.29192 0.0059 0.0
H314 H 0.21474 0.35034 0.02478 0.0
H315 H 0.35162 0.14753 0.0421 0.0
H316 H 0.40955 0.1675 0.0233 0.0
H317 H 0.34777 0.15265 0.00617 0.0
C318 C 0.13578 0.80786 0.00052 0.0
C319 C 0.14146 0.84842 0.01921 0.0
C320 C 0.17629 0.77128 0.9968 0.0
C321 C 0.22358 0.77504 0.01227 0.0
C322 C 0.22838 0.81399 0.03228 0.0
C323 C 0.1873 0.8504 0.03546 0.0
C324 C 0.16962 0.7303 0.97523 0.0
C325 C 0.27792 0.81872 0.04941 0.0
C326 C 0.31352 0.65776 0.00631 0.0
C327 C 0.34716 0.67253 0.98505 0.0
C328 C 0.27486 0.69188 0.01663 0.0
C329 C 0.26977 0.74159 0.00527 0.0
C330 C 0.3058 0.75764 0.98494 0.0
C331 C 0.34419 0.72299 0.97519 0.0
C332 C 0.23762 0.67369 0.03858 0.0
C333 C 0.30188 0.8104 0.97234 0.0
H334 H 0.10041 0.80564 0.988 0.0
H335 H 0.19192 0.8813 0.05012 0.0
H336 H 0.19892 0.73693 0.95878 0.0
H337 H 0.1777 0.69155 0.98362 0.0
H338 H 0.12889 0.73025 0.96639 0.0
H339 H 0.27242 0.84624 0.06647 0.0
H340 H 0.28937 0.78058 0.0576 0.0
H341 H 0.31165 0.83244 0.03679 0.0
H342 H 0.31562 0.61876 0.01399 0.0
H343 H 0.37095 0.73491 0.95917 0.0
H344 H 0.19748 0.66645 0.02992 0.0
H345 H 0.23312 0.70374 0.05447 0.0
H346 H 0.25186 0.63752 0.04806 0.0
H347 H 0.26386 0.81342 0.961 0.0
H348 H 0.33543 0.81824 0.95824 0.0
H349 H 0.3015 0.8408 0.98819 0.0
C350 C 0.84781 0.82662 0.0112 0.0
C351 C 0.84575 0.87655 0.0223 0.0
C352 C 0.80816 0.79009 0.01715 0.0
C353 C 0.7657 0.80388 0.03463 0.0
C354 C 0.76155 0.8551 0.04444 0.0
C355 C 0.80158 0.89082 0.03814 0.0
C356 C 0.81358 0.73592 0.0061 0.0
C357 C 0.71676 0.87132 0.06311 0.0
C358 C 0.64566 0.71664 0.04575 0.0
C359 C 0.65962 0.69276 0.07003 0.0
C360 C 0.68042 0.75199 0.0334 0.0
C361 C 0.72999 0.76352 0.04574 0.0
C362 C 0.7448 0.73833 0.06982 0.0
C363 C 0.70954 0.70316 0.08159 0.0
C364 C 0.66357 0.77796 0.00764 0.0
C365 C 0.79743 0.74941 0.08358 0.0
H366 H 0.88147 0.81535 0.99872 0.0
H367 H 0.7992 0.92947 0.04655 0.0
H368 H 0.82567 0.70965 0.02257 0.0
H369 H 0.77479 0.72182 0.99817 0.0
H370 H 0.84393 0.73344 0.98975 0.0
H371 H 0.71583 0.91375 0.06642 0.0
H372 H 0.67764 0.85885 0.05488 0.0
H373 H 0.72183 0.85236 0.08295 0.0
H374 H 0.60706 0.70869 0.03678 0.0
H375 H 0.72103 0.68381 0.10001 0.0
H376 H 0.69543 0.77441 0.99215 0.0
H377 H 0.65735 0.81974 0.01148 0.0
H378 H 0.62604 0.76139 0.99936 0.0
H379 H 0.83098 0.74246 0.06937 0.0
H380 H 0.80354 0.72524 0.10173 0.0
H381 H 0.79918 0.79059 0.0898 0.0
C382 C 0.83423 0.15987 0.01953 0.0
C383 C 0.88132 0.15599 0.00422 0.0
C384 C 0.795 0.1964 0.01326 0.0
C385 C 0.80303 0.22968 0.99113 0.0
C386 C 0.85168 0.22795 0.97656 0.0
C387 C 0.89029 0.19117 0.9833 0.0
C388 C 0.7438 0.19746 0.02941 0.0
C389 C 0.86175 0.26299 0.95285 0.0
C390 C 0.68465 0.27413 0.95026 0.0
C391 C 0.68058 0.32606 0.958 0.0
C392 C 0.72327 0.24198 0.96159 0.0
C393 C 0.7586 0.26225 0.98125 0.0
C394 C 0.75316 0.31403 0.99009 0.0
C395 C 0.71407 0.34544 0.97833 0.0
C396 C 0.72751 0.18681 0.95177 0.0
C397 C 0.78996 0.3368 0.01113 0.0
H398 H 0.8271 0.13321 0.03591 0.0
H399 H 0.92667 0.18879 0.97148 0.0
H400 H 0.73337 0.23762 0.0352 0.0
H401 H 0.71065 0.1822 0.01685 0.0
H402 H 0.74652 0.17385 0.04798 0.0
H403 H 0.90343 0.26017 0.94528 0.0
H404 H 0.83426 0.25257 0.93614 0.0
H405 H 0.85353 0.30369 0.95851 0.0
H406 H 0.65812 0.25886 0.93488 0.0
H407 H 0.71115 0.38568 0.98426 0.0
H408 H 0.72573 0.15998 0.96909 0.0
H409 H 0.76656 0.18086 0.9416 0.0
H410 H 0.69526 0.1764 0.93737 0.0
H411 H 0.79201 0.31134 0.029 0.0
H412 H 0.77697 0.37583 0.0178 0.0
H413 H 0.83094 0.33976 0.00273 0.0
C414 C 0.64785 0.68979 0.49539 0.0
C415 C 0.65315 0.64683 0.5123 0.0
C416 C 0.68108 0.73311 0.49842 0.0
C417 C 0.72047 0.73345 0.51884 0.0
C418 C 0.72767 0.68931 0.5351 0.0
C419 C 0.69396 0.64659 0.53164 0.0
C420 C 0.67245 0.77936 0.48062 0.0
C421 C 0.76949 0.68806 0.55701 0.0
C422 C 0.83377 0.83051 0.52311 0.0
C423 C 0.81564 0.86269 0.54405 0.0
C424 C 0.80194 0.78972 0.51347 0.0
C425 C 0.75098 0.78125 0.52508 0.0
C426 C 0.73117 0.81593 0.54489 0.0
C427 C 0.76379 0.85622 0.55413 0.0
C428 C 0.82427 0.75379 0.49219 0.0
C429 C 0.67682 0.80861 0.55758 0.0
H430 H 0.61665 0.69031 0.48027 0.0
H431 H 0.69874 0.61349 0.54466 0.0
H432 H 0.65564 0.81153 0.49281 0.0
H433 H 0.71097 0.79291 0.47212 0.0
H434 H 0.64463 0.77082 0.46373 0.0
H435 H 0.7726 0.64952 0.56654 0.0
H436 H 0.80912 0.69866 0.54868 0.0
H437 H 0.75946 0.71684 0.57291 0.0
H438 H 0.87398 0.83533 0.51536 0.0
H439 H 0.74949 0.88159 0.57006 0.0
H440 H 0.79401 0.74559 0.47641 0.0
H441 H 0.83494 0.7165 0.50159 0.0
H442 H 0.86056 0.76991 0.48242 0.0
H443 H 0.64592 0.80374 0.54177 0.0
H444 H 0.66541 0.84161 0.5708 0.0
H445 H 0.67683 0.77302 0.5699 0.0
C446 C 0.65727 0.32337 0.49583 0.0
C447 C 0.65844 0.36325 0.5151 0.0
C448 C 0.69856 0.28722 0.49407 0.0
C449 C 0.74206 0.29063 0.51218 0.0
C450 C 0.74282 0.32966 0.53228 0.0
C451 C 0.70106 0.36578 0.53343 0.0
C452 C 0.69633 0.24627 0.47222 0.0
C453 C 0.78828 0.33396 0.55212 0.0
C454 C 0.82295 0.16766 0.51085 0.0
C455 C 0.8604 0.17924 0.49071 0.0
C456 C 0.78666 0.20519 0.51997 0.0
C457 C 0.78794 0.25508 0.50851 0.0
C458 C 0.82876 0.26808 0.48997 0.0
C459 C 0.86464 0.23 0.48138 0.0
C460 C 0.74425 0.19014 0.54011 0.0
C461 C 0.83171 0.32087 0.47734 0.0
H462 H 0.62453 0.32092 0.48161 0.0
H463 H 0.70211 0.39624 0.54851 0.0
H464 H 0.73059 0.25105 0.45821 0.0
H465 H 0.6996 0.20736 0.48123 0.0
H466 H 0.65884 0.24796 0.46032 0.0
H467 H 0.78028 0.36307 0.56818 0.0
H468 H 0.7958 0.29611 0.5617 0.0
H469 H 0.82535 0.3451 0.54134 0.0
H470 H 0.81959 0.12847 0.51816 0.0
H471 H 0.8944 0.23927 0.46623 0.0
H472 H 0.70585 0.18399 0.52944 0.0
H473 H 0.738 0.22129 0.55525 0.0
H474 H 0.75468 0.15399 0.55079 0.0
H475 H 0.7981 0.32544 0.463 0.0
H476 H 0.86971 0.32684 0.46617 0.0
H477 H 0.8278 0.35152 0.49294 0.0
C478 C 0.31025 0.37379 0.51926 0.0
C479 C 0.36466 0.36176 0.52039 0.0
C480 C 0.2715 0.33673 0.52569 0.0
C481 C 0.2879 0.28746 0.53458 0.0
C482 C 0.34287 0.2747 0.53485 0.0
C483 C 0.38063 0.31185 0.52723 0.0
C484 C 0.2132 0.35107 0.52409 0.0
C485 C 0.36208 0.22319 0.54503 0.0
C486 C 0.20011 0.22258 0.58644 0.0
C487 C 0.17904 0.18064 0.57184 0.0
C488 C 0.23553 0.25741 0.5745 0.0
C489 C 0.24846 0.25181 0.54684 0.0
C490 C 0.2252 0.21145 0.53149 0.0
C491 C 0.19148 0.17575 0.54427 0.0
C492 C 0.26017 0.29946 0.59174 0.0
C493 C 0.23658 0.2055 0.5017 0.0
H494 H 0.29808 0.41239 0.51367 0.0
H495 H 0.42285 0.30285 0.52823 0.0
H496 H 0.18991 0.31957 0.5144 0.0
H497 H 0.19697 0.35677 0.54474 0.0
H498 H 0.20697 0.38718 0.51258 0.0
H499 H 0.40576 0.21805 0.54218 0.0
H500 H 0.35283 0.21999 0.56688 0.0
H501 H 0.34103 0.19121 0.53455 0.0
H502 H 0.18937 0.2281 0.60745 0.0
H503 H 0.17587 0.14348 0.53272 0.0
H504 H 0.24904 0.33789 0.58386 0.0
H505 H 0.30436 0.29668 0.59094 0.0
H506 H 0.24733 0.29728 0.61318 0.0
H507 H 0.23078 0.24284 0.49129 0.0
H508 H 0.21055 0.17598 0.49204 0.0
H509 H 0.27879 0.194 0.49862 0.0
C510 C 0.32081 0.64285 0.51687 0.0
C511 C 0.36508 0.64105 0.49945 0.0
C512 C 0.27761 0.67563 0.51171 0.0
C513 C 0.27868 0.7071 0.48854 0.0
C514 C 0.32404 0.70694 0.47144 0.0
C515 C 0.36678 0.674 0.47714 0.0
C516 C 0.23007 0.67523 0.53051 0.0
C517 C 0.32656 0.7401 0.44651 0.0
C518 C 0.15092 0.7464 0.45388 0.0
C519 C 0.14783 0.79885 0.46073 0.0
C520 C 0.19221 0.71551 0.46374 0.0
C521 C 0.2311 0.73765 0.48098 0.0
C522 C 0.22646 0.78982 0.48924 0.0
C523 C 0.18483 0.81991 0.47894 0.0
C524 C 0.19567 0.65988 0.45464 0.0
C525 C 0.26699 0.81455 0.50777 0.0
H526 H 0.3193 0.61783 0.53428 0.0
H527 H 0.40085 0.67303 0.46363 0.0
H528 H 0.2195 0.71516 0.53668 0.0
H529 H 0.19498 0.65873 0.51988 0.0
H530 H 0.23753 0.65215 0.54892 0.0
H531 H 0.3659 0.73764 0.43619 0.0
H532 H 0.29512 0.72778 0.43209 0.0
H533 H 0.31872 0.78101 0.45187 0.0
H534 H 0.12182 0.72985 0.44014 0.0
H535 H 0.18283 0.86057 0.48412 0.0
H536 H 0.19944 0.63414 0.47232 0.0
H537 H 0.23186 0.65435 0.44199 0.0
H538 H 0.16025 0.6477 0.44272 0.0
H539 H 0.27397 0.79 0.52566 0.0
H540 H 0.25425 0.85346 0.51476 0.0
H541 H 0.30567 0.81838 0.49701 0.0
C542 C 0.03854 0.00425 0.13754 0.0
C543 C 0.99373 0.01177 0.12108 0.0
C544 C 0.03415 0.0058 0.1658 0.0
C545 C 0.98376 0.01504 0.17789 0.0
C546 C 0.93846 0.02293 0.16143 0.0
C547 C 0.94397 0.02123 0.13326 0.0
C548 C 0.08337 -0.00276 0.18272 0.0
C549 C 0.88405 0.03286 0.1736 0.0
C550 C 0.96221 0.97088 0.25002 0.0
C551 C 0.96874 0.01706 0.26458 0.0
C552 C 0.96685 0.96971 0.2218 0.0
C553 C 0.97828 0.01585 0.20779 0.0
C554 C 0.98447 0.06268 0.22233 0.0
C555 C 0.97961 0.06272 0.25056 0.0
C556 C 0.95968 0.91907 0.20698 0.0
C557 C -0.00325 0.11263 0.20809 0.0
H558 H 0.07715 -0.00304 0.12838 0.0
H559 H 0.90906 0.0271 0.12078 0.0
H560 H 0.09006 0.03088 0.19627 0.0
H561 H 0.07763 0.963 0.19572 0.0
H562 H 0.11973 0.99126 0.17021 0.0
H563 H 0.85292 0.03878 0.15799 0.0
H564 H 0.87203 -0.00018 0.18637 0.0
H565 H 0.88547 0.06752 0.18684 0.0
H566 H 0.95312 0.93559 0.26071 0.0
H567 H 0.9854 0.0984 0.26172 0.0
H568 H -0.00359 0.90962 0.19542 0.0
H569 H 0.92662 0.92223 0.19222 0.0
H570 H 0.95077 0.88669 0.22086 0.0
H571 H 0.035 0.10911 0.1969 0.0
H572 H -0.00027 0.14583 0.22231 0.0
H573 H 0.96521 0.12099 0.19307 0.0
C574 C 0.01271 0.0268 0.89558 0.0
C575 C 0.00855 0.98275 0.91177 0.0
C576 C 0.00976 0.02316 0.86736 0.0
C577 C 0.00269 0.97427 0.85496 0.0
C578 C -0.00091 0.92957 0.8711 0.0
C579 C 0.00195 0.93434 0.8993 0.0
C580 C 0.01366 0.07173 0.8508 0.0
C581 C 0.99181 0.87675 0.85858 0.0
C582 C 0.94464 0.97172 0.7842 0.0
C583 C 0.99067 0.96637 0.76827 0.0
C584 C 0.94792 0.97369 0.81247 0.0
C585 C -0.00157 0.97009 0.82508 0.0
C586 C 0.04495 0.96378 0.80913 0.0
C587 C 0.04051 0.96207 0.78091 0.0
C588 C 0.89744 0.98066 0.8288 0.0
C589 C 0.09947 0.95948 0.82186 0.0
H590 H 0.01774 0.06439 0.90497 0.0
H591 H -0.00117 0.90003 0.91158 0.0
H592 H 0.04736 0.06865 0.83632 0.0
H593 H 0.97669 0.07673 0.83881 0.0
H594 H 0.01965 0.10672 0.86352 0.0
H595 H 0.99085 0.84571 0.87392 0.0
H596 H 0.954 0.87547 0.84698 0.0
H597 H 0.02475 0.86865 0.84416 0.0
H598 H 0.9061 0.97571 0.77454 0.0
H599 H 0.07614 0.95728 0.76869 0.0
H600 H 0.8995 0.01736 0.84041 0.0
H601 H 0.89335 0.949 0.84361 0.0
H602 H 0.86117 0.9813 0.81595 0.0
H603 H 0.10864 -0.00479 0.83341 0.0
H604 H 0.13149 0.95321 0.80664 0.0
H605 H 0.10004 0.92705 0.83635 0.0
C606 C 0.54672 0.51583 0.63203 0.0
C607 C 0.5003 0.51582 0.61621 0.0
C608 C 0.54376 0.51832 0.66031 0.0
C609 C 0.4932 0.52076 0.67308 0.0
C610 C 0.44624 0.52102 0.65727 0.0
C611 C 0.45034 0.5186 0.62905 0.0
C612 C 0.59473 0.51802 0.67653 0.0
C613 C 0.39161 0.5235 0.67018 0.0
C614 C 0.48278 0.47765 0.74597 0.0
C615 C 0.48249 0.52496 0.75989 0.0
C616 C 0.48617 0.47575 0.71772 0.0
C617 C 0.48937 0.52229 0.70303 0.0
C618 C 0.48878 0.57019 0.71693 0.0
C619 C 0.4853 0.57095 0.74521 0.0
C620 C 0.48635 0.42392 0.70359 0.0
C621 C 0.49226 0.6206 0.70195 0.0
H622 H 0.5855 0.51378 0.62234 0.0
H623 H 0.4142 0.51861 0.61707 0.0
H624 H 0.59675 0.55292 0.68958 0.0
H625 H 0.59525 0.48403 0.69001 0.0
H626 H 0.63089 0.51684 0.66352 0.0
H627 H 0.35902 0.52397 0.65501 0.0
H628 H 0.38568 0.48977 0.68352 0.0
H629 H 0.3883 0.55863 0.68299 0.0
H630 H 0.4799 0.442 0.75719 0.0
H631 H 0.48576 0.60759 0.75589 0.0
H632 H 0.52346 0.41947 0.69154 0.0
H633 H 0.45231 0.42137 0.68936 0.0
H634 H 0.48356 0.39134 0.71797 0.0
H635 H 0.52992 0.6221 0.69015 0.0
H636 H 0.49091 0.65454 0.71575 0.0
H637 H 0.45884 0.62354 0.68739 0.0
C638 C 0.54049 0.51274 0.39109 0.0
C639 C 0.50959 0.48089 0.4077 0.0
C640 C 0.53832 0.50785 0.36289 0.0
C641 C 0.50309 0.4714 0.35107 0.0
C642 C 0.47152 0.43938 0.36778 0.0
C643 C 0.47579 0.44397 0.39593 0.0
C644 C 0.5737 0.54167 0.34575 0.0
C645 C 0.43239 0.40112 0.35593 0.0
C646 C 0.46058 0.49778 0.27898 0.0
C647 C 0.49163 0.4622 0.26456 0.0
C648 C 0.46301 0.50036 0.30724 0.0
C649 C 0.49851 0.46752 0.32121 0.0
C650 C 0.5301 0.43158 0.3066 0.0
C651 C 0.52576 0.42892 0.27838 0.0
C652 C 0.42777 0.53831 0.32213 0.0
C653 C 0.5693 0.39683 0.32071 0.0
H654 H 0.56693 0.54105 0.4002 0.0
H655 H 0.45149 0.41964 0.40877 0.0
H656 H 0.59805 0.51747 0.33186 0.0
H657 H 0.54885 0.56728 0.3331 0.0
H658 H 0.60096 0.56602 0.3581 0.0
H659 H 0.41048 0.37939 0.37173 0.0
H660 H 0.40294 0.42161 0.34321 0.0
H661 H 0.45358 0.37317 0.3427 0.0
H662 H 0.43422 0.5234 0.26809 0.0
H663 H 0.55003 0.40179 0.26701 0.0
H664 H 0.45273 0.56711 0.33294 0.0
H665 H 0.40355 0.51791 0.33752 0.0
H666 H 0.4004 0.55911 0.30836 0.0
H667 H 0.59881 0.42052 0.33199 0.0
H668 H 0.59111 0.37126 0.30638 0.0
H669 H 0.54819 0.37246 0.33564 0.0
loop_
_geom_bond_atom_site_label_1
_geom_bond_atom_site_label_2
_geom_bond_distance
_geom_bond_site_symmetry_2
_ccdc_geom_bond_type
O0 Zn1 1.953 . S
O0 C16 1.225 1_565 S
Zn1 O0 1.953 . S
Zn1 O2 1.949 1_565 S
Zn1 O8 1.919 . S
Zn1 O13 1.924 1_565 S
O2 Zn1 1.949 1_545 S
O2 Zn3 1.923 1_444 S
O2 Zn4 1.950 1_455 S
O2 Zn5 1.945 1_554 S
Zn3 O2 1.923 1_666 S
Zn3 O6 1.933 . S
Zn3 O9 1.941 1_655 S
Zn3 O10 1.962 1_556 S
Zn4 O2 1.950 1_655 S
Zn4 O11 1.938 1_545 S
Zn4 O12 1.906 . S
Zn4 O22 1.953 . S
Zn5 O2 1.945 1_556 S
Zn5 O7 1.932 . S
Zn5 O14 1.977 1_455 S
Zn5 O15 1.910 1_556 S
O6 Zn3 1.933 . S
O6 C17 1.226 1_665 S
O7 Zn5 1.932 . S
O7 C17 1.307 . S
O8 Zn1 1.919 . S
O8 C19 1.253 . S
O9 Zn3 1.941 1_455 S
O9 C19 1.283 1_556 S
O10 Zn3 1.962 1_554 S
O10 C18 1.315 . S
O11 Zn4 1.938 1_565 S
O11 C18 1.247 . S
O12 Zn4 1.906 . S
O12 C20 1.304 . S
O13 Zn1 1.924 1_545 S
O13 C21 1.311 . S
O14 Zn5 1.977 1_655 S
O14 C20 1.272 1_556 S
O15 Zn5 1.910 1_554 S
O15 C21 1.231 . S
C16 O0 1.225 1_545 S
C16 O22 1.298 1_455 S
C17 O6 1.226 1_445 S
C17 O7 1.307 . S
C18 O10 1.315 . S
C18 O11 1.247 . S
C19 O8 1.253 . S
C19 O9 1.283 1_554 S
C20 O12 1.304 . S
C20 O14 1.272 1_554 S
C21 O13 1.311 . S
C21 O15 1.231 . S
O22 Zn4 1.953 . S
O22 C16 1.298 1_655 S
O23 Zn24 1.953 . S
O23 C39 1.225 . S
Zn24 O23 1.953 . S
Zn24 O25 1.949 . S
Zn24 O31 1.919 . S
Zn24 O36 1.924 . S
O25 Zn24 1.949 . S
O25 Zn26 1.923 . S
O25 Zn27 1.950 . S
O25 Zn28 1.945 . S
Zn26 O25 1.923 . S
Zn26 O29 1.933 . S
Zn26 O32 1.941 . S
Zn26 O33 1.965 . S
Zn27 O25 1.950 . S
Zn27 O34 1.938 . S
Zn27 O35 1.906 . S
Zn27 O45 1.953 . S
Zn28 O25 1.945 . S
Zn28 O30 1.932 . S
Zn28 O37 1.977 . S
Zn28 O38 1.910 . S
O29 Zn26 1.933 . S
O29 C40 1.226 . S
O30 Zn28 1.932 . S
O30 C40 1.307 . S
O31 Zn24 1.919 . S
O31 C42 1.253 . S
O32 Zn26 1.941 . S
O32 C42 1.283 . S
O33 Zn26 1.965 . S
O33 C41 1.303 . S
O34 Zn27 1.938 . S
O34 C41 1.247 . S
O35 Zn27 1.906 . S
O35 C43 1.304 . S
O36 Zn24 1.924 . S
O36 C44 1.311 . S
O37 Zn28 1.977 . S
O37 C43 1.272 . S
O38 Zn28 1.910 . S
O38 C44 1.231 . S
C39 O23 1.225 . S
C39 O45 1.298 . S
C40 O29 1.226 . S
C40 O30 1.307 . S
C41 O33 1.303 . S
C41 O34 1.247 . S
C42 O31 1.253 . S
C42 O32 1.283 . S
C43 O35 1.304 . S
C43 O37 1.272 . S
C44 O36 1.311 . S
C44 O38 1.231 . S
O45 Zn27 1.953 . S
O45 C39 1.298 . S
C46 C47 1.391 . S
C46 C50 1.391 . S
C46 H88 0.948 . S
C47 C46 1.391 . S
C47 C48 1.391 . S
C48 C47 1.391 . S
C48 H104 0.947 . S
C48 C105 1.392 . S
C49 C50 1.391 . S
C49 C53 1.397 . S
C49 C105 1.419 . S
C50 C46 1.391 . S
C50 C49 1.391 . S
C50 C51 1.399 . S
C51 C50 1.399 . S
C51 C54 1.396 . S
C51 C63 1.453 1_565 S
C51 C64 1.684 1_455 S
H52 C76 0.948 . S
C53 C49 1.397 . S
C53 C54 1.394 . S
C53 C72 1.723 . S
C54 C51 1.396 . S
C54 C53 1.394 . S
C54 C84 1.723 1_465 S
H55 C78 0.947 . S
H56 C79 0.948 . S
H57 C85 0.982 . S
H58 C86 0.979 . S
H59 C86 0.980 . S
H60 C86 0.983 . S
H61 C85 0.979 . S
H62 C85 0.977 . S
C63 C51 1.453 1_545 S
C63 H92 0.982 . S
C63 H93 0.979 1_545 S
C63 H94 0.977 . S
C64 C51 1.684 1_655 S
C64 H89 0.979 . S
C64 H90 0.980 . S
C64 H91 0.983 1_655 S
C65 C66 1.391 1_465 S
C65 C70 1.391 . S
C65 H95 0.948 . S
C66 C65 1.391 1_645 S
C66 C67 1.391 . S
C67 C66 1.391 . S
C67 C68 1.392 . S
C67 H96 0.947 . S
C68 C67 1.392 . S
C68 C69 1.419 . S
C68 H97 0.948 . S
C69 C68 1.419 . S
C69 C70 1.391 1_645 S
C69 C73 1.397 . S
C70 C65 1.391 . S
C70 C69 1.391 1_465 S
C70 C71 1.399 . S
C71 C70 1.399 . S
C71 C72 1.396 . S
C71 C74 1.453 . S
C71 C75 1.684 . S
C72 C53 1.723 . S
C72 C71 1.396 . S
C72 C73 1.394 1_465 S
C73 C69 1.397 . S
C73 C72 1.394 1_645 S
C73 C83 1.723 . S
C74 C71 1.453 . S
C74 H98 0.982 . S
C74 H99 0.979 . S
C74 H100 0.977 . S
C75 C71 1.684 . S
C75 H101 0.979 . S
C75 H102 0.980 . S
C75 H103 0.983 . S
C76 H52 0.948 . S
C76 C77 1.391 . S
C76 C81 1.391 . S
C77 C76 1.391 . S
C77 C78 1.391 . S
C78 H55 0.947 . S
C78 C77 1.391 . S
C78 C79 1.392 . S
C79 H56 0.948 . S
C79 C78 1.392 . S
C79 C80 1.419 . S
C80 C79 1.419 . S
C80 C81 1.391 . S
C80 C84 1.397 . S
C81 C76 1.391 . S
C81 C80 1.391 . S
C81 C82 1.399 . S
C82 C81 1.399 . S
C82 C83 1.396 . S
C82 C85 1.453 . S
C82 C86 1.684 . S
C83 C73 1.723 . S
C83 C82 1.396 . S
C83 C84 1.394 . S
C84 C54 1.723 1_645 S
C84 C80 1.397 . S
C84 C83 1.394 . S
C85 H57 0.982 . S
C85 H61 0.979 . S
C85 H62 0.977 . S
C85 C82 1.453 . S
C86 H58 0.979 . S
C86 H59 0.980 . S
C86 H60 0.983 . S
C86 C82 1.684 . S
H87 C105 0.948 . S
H88 C46 0.948 . S
H89 C64 0.979 . S
H90 C64 0.980 . S
H91 C64 0.983 1_455 S
H92 C63 0.982 . S
H93 C63 0.979 1_565 S
H94 C63 0.977 . S
H95 C65 0.948 . S
H96 C67 0.947 . S
H97 C68 0.948 . S
H98 C74 0.982 . S
H99 C74 0.979 . S
H100 C74 0.977 . S
H101 C75 0.979 . S
H102 C75 0.980 . S
H103 C75 0.983 . S
H104 C48 0.947 . S
C105 C48 1.392 . S
C105 C49 1.419 . S
C105 H87 0.948 . S
C106 C107 1.391 . S
C106 C110 1.391 . S
C106 H148 0.948 . S
C107 C106 1.391 . S
C107 C108 1.391 . S
C108 C107 1.391 . S
C108 H164 0.947 . S
C108 C165 1.392 . S
C109 C110 1.391 . S
C109 C113 1.397 . S
C109 C165 1.419 . S
C110 C106 1.391 . S
C110 C109 1.391 . S
C110 C111 1.399 . S
C111 C110 1.399 . S
C111 C114 1.396 . S
C111 C123 1.451 . S
C111 C124 1.687 . S
H112 C136 0.948 . S
C113 C109 1.397 . S
C113 C114 1.394 . S
C113 C132 1.723 . S
C114 C111 1.396 . S
C114 C113 1.394 . S
C114 C144 1.723 1_445 S
H115 C138 0.947 . S
H116 C139 0.948 . S
H117 C145 0.982 . S
H118 C146 0.979 . S
H119 C146 0.980 . S
H120 C146 0.983 . S
H121 C145 0.979 . S
H122 C145 0.977 . S
C123 C111 1.451 . S
C123 H152 0.983 1_545 S
C123 H153 0.978 . S
C123 H154 0.978 1_545 S
C124 C111 1.687 . S
C124 H149 0.976 1_455 S
C124 H150 0.977 1_455 S
C124 H151 0.986 . S
C125 C126 1.391 . S
C125 C130 1.391 . S
C125 H155 0.948 . S
C126 C125 1.391 . S
C126 C127 1.391 1_445 S
C127 C126 1.391 1_665 S
C127 C128 1.392 . S
C127 H156 0.947 . S
C128 C127 1.392 . S
C128 C129 1.405 1_655 S
C128 H157 0.948 . S
C129 C128 1.405 1_455 S
C129 C130 1.403 1_565 S
C129 C133 1.400 . S
C130 C125 1.391 . S
C130 C129 1.403 1_545 S
C130 C131 1.399 . S
C131 C130 1.399 . S
C131 C132 1.396 . S
C131 C134 1.453 . S
C131 C135 1.684 . S
C132 C113 1.723 . S
C132 C131 1.396 . S
C132 C133 1.394 1_545 S
C133 C129 1.400 . S
C133 C132 1.394 1_565 S
C133 C143 1.723 1_455 S
C134 C131 1.453 . S
C134 H158 0.982 . S
C134 H159 0.979 . S
C134 H160 0.977 . S
C135 C131 1.684 . S
C135 H161 0.979 . S
C135 H162 0.980 . S
C135 H163 0.983 . S
C136 H112 0.948 . S
C136 C137 1.391 . S
C136 C141 1.391 . S
C137 C136 1.391 . S
C137 C138 1.391 . S
C138 H115 0.947 . S
C138 C137 1.391 . S
C138 C139 1.392 . S
C139 H116 0.948 . S
C139 C138 1.392 . S
C139 C140 1.419 . S
C140 C139 1.419 . S
C140 C141 1.391 . S
C140 C144 1.397 . S
C141 C136 1.391 . S
C141 C140 1.391 . S
C141 C142 1.399 . S
C142 C141 1.399 . S
C142 C143 1.396 . S
C142 C145 1.453 . S
C142 C146 1.684 . S
C143 C133 1.723 1_655 S
C143 C142 1.396 . S
C143 C144 1.394 . S
C144 C114 1.723 1_665 S
C144 C140 1.397 . S
C144 C143 1.394 . S
C145 H117 0.982 . S
C145 H121 0.979 . S
C145 H122 0.977 . S
C145 C142 1.453 . S
C146 H118 0.979 . S
C146 H119 0.980 . S
C146 H120 0.983 . S
C146 C142 1.684 . S
H147 C165 0.948 . S
H148 C106 0.948 . S
H149 C124 0.976 1_655 S
H150 C124 0.977 1_655 S
H151 C124 0.986 . S
H152 C123 0.983 1_565 S
H153 C123 0.978 . S
H154 C123 0.978 1_565 S
H155 C125 0.948 . S
H156 C127 0.947 . S
H157 C128 0.948 . S
H158 C134 0.982 . S
H159 C134 0.979 . S
H160 C134 0.977 . S
H161 C135 0.979 . S
H162 C135 0.980 . S
H163 C135 0.983 . S
H164 C108 0.947 . S
C165 C108 1.392 . S
C165 C109 1.419 . S
C165 H147 0.948 . S
C166 C167 1.391 . S
C166 C170 1.391 . S
C166 H208 0.948 . S
C167 C166 1.391 . S
C167 C168 1.391 . S
C168 C167 1.391 . S
C168 H224 0.947 . S
C168 C225 1.392 . S
C169 C170 1.391 . S
C169 C173 1.397 . S
C169 C225 1.419 . S
C170 C166 1.391 . S
C170 C169 1.391 . S
C170 C171 1.399 . S
C171 C170 1.399 . S
C171 C174 1.396 . S
C171 C183 1.453 . S
C171 C184 1.684 . S
H172 C196 0.948 . S
C173 C169 1.397 . S
C173 C174 1.394 . S
C173 C192 1.723 . S
C174 C171 1.396 . S
C174 C173 1.394 . S
C174 C204 1.723 . S
H175 C198 0.947 . S
H176 C199 0.948 . S
H177 C205 0.982 . S
H178 C206 0.979 . S
H179 C206 0.980 . S
H180 C206 0.983 . S
H181 C205 0.979 . S
H182 C205 0.977 . S
C183 C171 1.453 . S
C183 H212 0.982 . S
C183 H213 0.979 . S
C183 H214 0.977 . S
C184 C171 1.684 . S
C184 H209 0.979 . S
C184 H210 0.980 . S
C184 H211 0.983 . S
C185 C186 1.391 . S
C185 C190 1.391 . S
C185 H215 0.948 . S
C186 C185 1.391 . S
C186 C187 1.391 . S
C187 C186 1.391 . S
C187 C188 1.392 . S
C187 H216 0.947 . S
C188 C187 1.392 . S
C188 C189 1.419 . S
C188 H217 0.948 . S
C189 C188 1.419 . S
C189 C190 1.391 . S
C189 C193 1.397 . S
C190 C185 1.391 . S
C190 C189 1.391 . S
C190 C191 1.399 . S
C191 C190 1.399 . S
C191 C192 1.396 . S
C191 C194 1.453 . S
C191 C195 1.684 . S
C192 C173 1.723 . S
C192 C191 1.396 . S
C192 C193 1.394 . S
C193 C189 1.397 . S
C193 C192 1.394 . S
C193 C203 1.723 . S
C194 C191 1.453 . S
C194 H218 0.982 . S
C194 H219 0.979 . S
C194 H220 0.977 . S
C195 C191 1.684 . S
C195 H221 0.979 . S
C195 H222 0.980 . S
C195 H223 0.983 . S
C196 H172 0.948 . S
C196 C197 1.391 . S
C196 C201 1.391 . S
C197 C196 1.391 . S
C197 C198 1.391 . S
C198 H175 0.947 . S
C198 C197 1.391 . S
C198 C199 1.392 . S
C199 H176 0.948 . S
C199 C198 1.392 . S
C199 C200 1.419 . S
C200 C199 1.419 . S
C200 C201 1.391 . S
C200 C204 1.397 . S
C201 C196 1.391 . S
C201 C200 1.391 . S
C201 C202 1.399 . S
C202 C201 1.399 . S
C202 C203 1.396 . S
C202 C205 1.453 . S
C202 C206 1.684 . S
C203 C193 1.723 . S
C203 C202 1.396 . S
C203 C204 1.394 . S
C204 C174 1.723 . S
C204 C200 1.397 . S
C204 C203 1.394 . S
C205 H177 0.982 . S
C205 H181 0.979 . S
C205 H182 0.977 . S
C205 C202 1.453 . S
C206 H178 0.979 . S
C206 H179 0.980 . S
C206 H180 0.983 . S
C206 C202 1.684 . S
H207 C225 0.948 . S
H208 C166 0.948 . S
H209 C184 0.979 . S
H210 C184 0.980 . S
H211 C184 0.983 . S
H212 C183 0.982 . S
H213 C183 0.979 . S
H214 C183 0.977 . S
H215 C185 0.948 . S
H216 C187 0.947 . S
H217 C188 0.948 . S
H218 C194 0.982 . S
H219 C194 0.979 . S
H220 C194 0.977 . S
H221 C195 0.979 . S
H222 C195 0.980 . S
H223 C195 0.983 . S
H224 C168 0.947 . S
C225 C168 1.392 . S
C225 C169 1.419 . S
C225 H207 0.948 . S
C226 C227 1.391 . S
C226 C230 1.391 . S
C226 H268 0.948 . S
C227 C226 1.391 . S
C227 C228 1.391 . S
C228 C227 1.391 . S
C228 H284 0.947 . S
C228 C285 1.392 . S
C229 C230 1.391 . S
C229 C233 1.397 . S
C229 C285 1.419 . S
C230 C226 1.391 . S
C230 C229 1.391 . S
C230 C231 1.399 . S
C231 C230 1.399 . S
C231 C234 1.396 . S
C231 C243 1.453 . S
C231 C244 1.684 . S
H232 C256 0.948 . S
C233 C229 1.397 . S
C233 C234 1.394 . S
C233 C252 1.723 . S
C234 C231 1.396 . S
C234 C233 1.394 . S
C234 C264 1.723 . S
H235 C258 0.947 . S
H236 C259 0.948 . S
H237 C265 0.982 . S
H238 C266 0.979 . S
H239 C266 0.980 . S
H240 C266 0.983 . S
H241 C265 0.979 . S
H242 C265 0.977 . S
C243 C231 1.453 . S
C243 H272 0.982 . S
C243 H273 0.979 . S
C243 H274 0.977 . S
C244 C231 1.684 . S
C244 H269 0.979 . S
C244 H270 0.980 . S
C244 H271 0.983 . S
C245 C246 1.391 . S
C245 C250 1.391 . S
C245 H275 0.948 . S
C246 C245 1.391 . S
C246 C247 1.391 . S
C247 C246 1.391 . S
C247 C248 1.392 . S
C247 H276 0.947 . S
C248 C247 1.392 . S
C248 C249 1.419 . S
C248 H277 0.948 . S
C249 C248 1.419 . S
C249 C250 1.391 . S
C249 C253 1.397 . S
C250 C245 1.391 . S
C250 C249 1.391 . S
C250 C251 1.399 . S
C251 C250 1.399 . S
C251 C252 1.396 . S
C251 C254 1.453 . S
C251 C255 1.684 . S
C252 C233 1.723 . S
C252 C251 1.396 . S
C252 C253 1.394 . S
C253 C249 1.397 . S
C253 C252 1.394 . S
C253 C263 1.723 . S
C254 C251 1.453 . S
C254 H278 0.982 . S
C254 H279 0.979 . S
C254 H280 0.977 . S
C255 C251 1.684 . S
C255 H281 0.979 . S
C255 H282 0.980 . S
C255 H283 0.983 . S
C256 H232 0.948 . S
C256 C257 1.391 . S
C256 C261 1.391 . S
C257 C256 1.391 . S
C257 C258 1.391 . S
C258 H235 0.947 . S
C258 C257 1.391 . S
C258 C259 1.392 . S
C259 H236 0.948 . S
C259 C258 1.392 . S
C259 C260 1.419 . S
C260 C259 1.419 . S
C260 C261 1.391 . S
C260 C264 1.397 . S
C261 C256 1.391 . S
C261 C260 1.391 . S
C261 C262 1.399 . S
C262 C261 1.399 . S
C262 C263 1.396 . S
C262 C265 1.453 . S
C262 C266 1.684 . S
C263 C253 1.723 . S
C263 C262 1.396 . S
C263 C264 1.394 . S
C264 C234 1.723 . S
C264 C260 1.397 . S
C264 C263 1.394 . S
C265 H237 0.982 . S
C265 H241 0.979 . S
C265 H242 0.977 . S
C265 C262 1.453 . S
C266 H238 0.979 . S
C266 H239 0.980 . S
C266 H240 0.983 . S
C266 C262 1.684 . S
H267 C285 0.948 . S
H268 C226 0.948 . S
H269 C244 0.979 . S
H270 C244 0.980 . S
H271 C244 0.983 . S
H272 C243 0.982 . S
H273 C243 0.979 . S
H274 C243 0.977 . S
H275 C245 0.948 . S
H276 C247 0.947 . S
H277 C248 0.948 . S
H278 C254 0.982 . S
H279 C254 0.979 . S
H280 C254 0.977 . S
H281 C255 0.979 . S
H282 C255 0.980 . S
H283 C255 0.983 . S
H284 C228 0.947 . S
C285 C228 1.392 . S
C285 C229 1.419 . S
C285 H267 0.948 . S
C286 C287 1.391 . S
C286 C288 1.394 . S
C286 H302 0.931 . S
C287 C286 1.391 . S
C287 C291 1.376 . S
C288 C286 1.394 . S
C288 C289 1.369 . S
C288 C292 1.531 . S
C289 C288 1.369 . S
C289 C290 1.410 . S
C289 C297 1.503 . S
C290 C289 1.410 . S
C290 C291 1.392 . S
C290 C293 1.511 . S
C291 C287 1.376 . S
C291 C290 1.392 . S
C291 H303 0.929 . S
C292 C288 1.531 . S
C292 H304 0.960 . S
C292 H305 0.962 . S
C292 H306 0.960 . S
C293 C290 1.511 . S
C293 H307 0.950 1_554 S
C293 H308 0.961 . S
C293 H309 0.961 . S
C294 C295 1.370 . S
C294 C296 1.363 . S
C294 H310 0.931 . S
C295 C294 1.370 . S
C295 C299 1.408 . S
C296 C294 1.363 . S
C296 C297 1.370 . S
C296 C300 1.524 . S
C297 C289 1.503 . S
C297 C296 1.370 . S
C297 C298 1.403 . S
C298 C297 1.403 . S
C298 C299 1.404 . S
C298 C301 1.539 . S
C299 C295 1.408 . S
C299 C298 1.404 . S
C299 H311 0.930 . S
C300 C296 1.524 . S
C300 H312 0.956 . S
C300 H313 0.961 . S
C300 H314 0.961 . S
C301 C298 1.539 . S
C301 H315 0.958 . S
C301 H316 0.961 . S
C301 H317 0.960 . S
H302 C286 0.931 . S
H303 C291 0.929 . S
H304 C292 0.960 . S
H305 C292 0.962 . S
H306 C292 0.960 . S
H307 C293 0.950 1_556 S
H308 C293 0.961 . S
H309 C293 0.961 . S
H310 C294 0.931 . S
H311 C299 0.930 . S
H312 C300 0.956 . S
H313 C300 0.961 . S
H314 C300 0.961 . S
H315 C301 0.958 . S
H316 C301 0.961 . S
H317 C301 0.960 . S
C318 C319 1.391 . S
C318 C320 1.394 . S
C318 H334 0.931 . S
C319 C318 1.391 . S
C319 C323 1.376 1_556 S
C320 C318 1.394 . S
C320 C321 1.369 . S
C320 C324 1.531 . S
C321 C320 1.369 . S
C321 C322 1.407 1_556 S
C321 C329 1.503 . S
C322 C321 1.407 1_554 S
C322 C323 1.393 . S
C322 C325 1.513 . S
C323 C319 1.376 1_554 S
C323 C322 1.393 . S
C323 H335 0.929 . S
C324 C320 1.531 . S
C324 H336 0.960 . S
C324 H337 0.962 . S
C324 H338 0.960 . S
C325 C322 1.513 . S
C325 H339 0.961 . S
C325 H340 0.961 . S
C325 H341 0.961 . S
C326 C327 1.370 . S
C326 C328 1.363 . S
C326 H342 0.931 . S
C327 C326 1.370 . S
C327 C331 1.408 . S
C328 C326 1.363 . S
C328 C329 1.370 . S
C328 C332 1.524 1_556 S
C329 C321 1.503 . S
C329 C328 1.370 . S
C329 C330 1.403 . S
C330 C329 1.403 . S
C330 C331 1.404 . S
C330 C333 1.539 . S
C331 C327 1.408 . S
C331 C330 1.404 . S
C331 H343 0.930 . S
C332 C328 1.524 1_554 S
C332 H344 0.956 . S
C332 H345 0.961 . S
C332 H346 0.961 . S
C333 C330 1.539 . S
C333 H347 0.958 . S
C333 H348 0.961 . S
C333 H349 0.960 . S
H334 C318 0.931 . S
H335 C323 0.929 . S
H336 C324 0.960 . S
H337 C324 0.962 . S
H338 C324 0.960 . S
H339 C325 0.961 . S
H340 C325 0.961 . S
H341 C325 0.961 . S
H342 C326 0.931 . S
H343 C331 0.930 . S
H344 C332 0.956 . S
H345 C332 0.961 . S
H346 C332 0.961 . S
H347 C333 0.958 . S
H348 C333 0.961 . S
H349 C333 0.960 . S
C350 C351 1.391 . S
C350 C352 1.394 . S
C350 H366 0.931 . S
C351 C350 1.391 . S
C351 C355 1.376 . S
C352 C350 1.394 . S
C352 C353 1.369 . S
C352 C356 1.531 . S
C353 C352 1.369 . S
C353 C354 1.410 . S
C353 C361 1.503 . S
C354 C353 1.410 . S
C354 C355 1.392 . S
C354 C357 1.511 . S
C355 C351 1.376 . S
C355 C354 1.392 . S
C355 H367 0.929 . S
C356 C352 1.531 . S
C356 H368 0.960 . S
C356 H369 0.962 . S
C356 H370 0.960 . S
C357 C354 1.511 . S
C357 H371 0.961 . S
C357 H372 0.961 . S
C357 H373 0.961 . S
C358 C359 1.370 . S
C358 C360 1.363 . S
C358 H374 0.931 . S
C359 C358 1.370 . S
C359 C363 1.408 . S
C360 C358 1.363 . S
C360 C361 1.370 . S
C360 C364 1.524 . S
C361 C353 1.503 . S
C361 C360 1.370 . S
C361 C362 1.403 . S
C362 C361 1.403 . S
C362 C363 1.404 . S
C362 C365 1.539 . S
C363 C359 1.408 . S
C363 C362 1.404 . S
C363 H375 0.930 . S
C364 C360 1.524 . S
C364 H376 0.953 1_554 S
C364 H377 0.961 . S
C364 H378 0.961 1_554 S
C365 C362 1.539 . S
C365 H379 0.958 . S
C365 H380 0.961 . S
C365 H381 0.960 . S
H366 C350 0.931 . S
H367 C355 0.929 . S
H368 C356 0.960 . S
H369 C356 0.962 . S
H370 C356 0.960 . S
H371 C357 0.961 . S
H372 C357 0.961 . S
H373 C357 0.961 . S
H374 C358 0.931 . S
H375 C363 0.930 . S
H376 C364 0.953 1_556 S
H377 C364 0.961 . S
H378 C364 0.961 1_556 S
H379 C365 0.958 . S
H380 C365 0.961 . S
H381 C365 0.960 . S
C382 C383 1.391 1_554 S
C382 C384 1.394 . S
C382 H398 0.931 . S
C383 C382 1.391 1_556 S
C383 C387 1.376 . S
C384 C382 1.394 . S
C384 C385 1.369 1_554 S
C384 C388 1.531 . S
C385 C384 1.369 1_556 S
C385 C386 1.410 . S
C385 C393 1.503 . S
C386 C385 1.410 . S
C386 C387 1.392 . S
C386 C389 1.511 . S
C387 C383 1.376 . S
C387 C386 1.392 . S
C387 H399 0.929 . S
C388 C384 1.531 . S
C388 H400 0.960 . S
C388 H401 0.962 1_554 S
C388 H402 0.960 . S
C389 C386 1.511 . S
C389 H403 0.961 . S
C389 H404 0.961 . S
C389 H405 0.961 . S
C390 C391 1.370 . S
C390 C392 1.363 . S
C390 H406 0.931 . S
C391 C390 1.370 . S
C391 C395 1.408 . S
C392 C390 1.363 . S
C392 C393 1.370 . S
C392 C396 1.524 . S
C393 C385 1.503 . S
C393 C392 1.370 . S
C393 C394 1.396 1_556 S
C394 C393 1.396 1_554 S
C394 C395 1.401 1_554 S
C394 C397 1.548 . S
C395 C391 1.408 . S
C395 C394 1.401 1_556 S
C395 H407 0.930 1_556 S
C396 C392 1.524 . S
C396 H408 0.956 . S
C396 H409 0.961 . S
C396 H410 0.961 . S
C397 C394 1.548 . S
C397 H411 0.958 . S
C397 H412 0.961 . S
C397 H413 0.960 . S
H398 C382 0.931 . S
H399 C387 0.929 . S
H400 C388 0.960 . S
H401 C388 0.962 1_556 S
H402 C388 0.960 . S
H403 C389 0.961 . S
H404 C389 0.961 . S
H405 C389 0.961 . S
H406 C390 0.931 . S
H407 C395 0.930 1_554 S
H408 C396 0.956 . S
H409 C396 0.961 . S
H410 C396 0.961 . S
H411 C397 0.958 . S
H412 C397 0.961 . S
H413 C397 0.960 . S
C414 C415 1.391 . S
C414 C416 1.394 . S
C414 H430 0.931 . S
C415 C414 1.391 . S
C415 C419 1.376 . S
C416 C414 1.394 . S
C416 C417 1.369 . S
C416 C420 1.531 . S
C417 C416 1.369 . S
C417 C418 1.410 . S
C417 C425 1.503 . S
C418 C417 1.410 . S
C418 C419 1.392 . S
C418 C421 1.511 . S
C419 C415 1.376 . S
C419 C418 1.392 . S
C419 H431 0.929 . S
C420 C416 1.531 . S
C420 H432 0.960 . S
C420 H433 0.962 . S
C420 H434 0.960 . S
C421 C418 1.511 . S
C421 H435 0.961 . S
C421 H436 0.961 . S
C421 H437 0.961 . S
C422 C423 1.370 . S
C422 C424 1.363 . S
C422 H438 0.931 . S
C423 C422 1.370 . S
C423 C427 1.408 . S
C424 C422 1.363 . S
C424 C425 1.370 . S
C424 C428 1.524 . S
C425 C417 1.503 . S
C425 C424 1.370 . S
C425 C426 1.403 . S
C426 C425 1.403 . S
C426 C427 1.404 . S
C426 C429 1.539 . S
C427 C423 1.408 . S
C427 C426 1.404 . S
C427 H439 0.930 . S
C428 C424 1.524 . S
C428 H440 0.956 . S
C428 H441 0.961 . S
C428 H442 0.961 . S
C429 C426 1.539 . S
C429 H443 0.958 . S
C429 H444 0.961 . S
C429 H445 0.960 . S
H430 C414 0.931 . S
H431 C419 0.929 . S
H432 C420 0.960 . S
H433 C420 0.962 . S
H434 C420 0.960 . S
H435 C421 0.961 . S
H436 C421 0.961 . S
H437 C421 0.961 . S
H438 C422 0.931 . S
H439 C427 0.930 . S
H440 C428 0.956 . S
H441 C428 0.961 . S
H442 C428 0.961 . S
H443 C429 0.958 . S
H444 C429 0.961 . S
H445 C429 0.960 . S
C446 C447 1.391 . S
C446 C448 1.394 . S
C446 H462 0.931 . S
C447 C446 1.391 . S
C447 C451 1.376 . S
C448 C446 1.394 . S
C448 C449 1.369 . S
C448 C452 1.531 . S
C449 C448 1.369 . S
C449 C450 1.410 . S
C449 C457 1.503 . S
C450 C449 1.410 . S
C450 C451 1.392 . S
C450 C453 1.511 . S
C451 C447 1.376 . S
C451 C450 1.392 . S
C451 H463 0.929 . S
C452 C448 1.531 . S
C452 H464 0.960 . S
C452 H465 0.962 . S
C452 H466 0.960 . S
C453 C450 1.511 . S
C453 H467 0.961 . S
C453 H468 0.961 . S
C453 H469 0.961 . S
C454 C455 1.370 . S
C454 C456 1.363 . S
C454 H470 0.931 . S
C455 C454 1.370 . S
C455 C459 1.408 . S
C456 C454 1.363 . S
C456 C457 1.370 . S
C456 C460 1.524 . S
C457 C449 1.503 . S
C457 C456 1.370 . S
C457 C458 1.403 . S
C458 C457 1.403 . S
C458 C459 1.404 . S
C458 C461 1.539 . S
C459 C455 1.408 . S
C459 C458 1.404 . S
C459 H471 0.930 . S
C460 C456 1.524 . S
C460 H472 0.956 . S
C460 H473 0.961 . S
C460 H474 0.961 . S
C461 C458 1.539 . S
C461 H475 0.958 . S
C461 H476 0.961 . S
C461 H477 0.960 . S
H462 C446 0.931 . S
H463 C451 0.929 . S
H464 C452 0.960 . S
H465 C452 0.962 . S
H466 C452 0.960 . S
H467 C453 0.961 . S
H468 C453 0.961 . S
H469 C453 0.961 . S
H470 C454 0.931 . S
H471 C459 0.930 . S
H472 C460 0.956 . S
H473 C460 0.961 . S
H474 C460 0.961 . S
H475 C461 0.958 . S
H476 C461 0.961 . S
H477 C461 0.960 . S
C478 C479 1.391 . S
C478 C480 1.394 . S
C478 H494 0.931 . S
C479 C478 1.391 . S
C479 C483 1.376 . S
C480 C478 1.394 . S
C480 C481 1.369 . S
C480 C484 1.531 . S
C481 C480 1.369 . S
C481 C482 1.410 . S
C481 C489 1.503 . S
C482 C481 1.410 . S
C482 C483 1.392 . S
C482 C485 1.511 . S
C483 C479 1.376 . S
C483 C482 1.392 . S
C483 H495 0.929 . S
C484 C480 1.531 . S
C484 H496 0.960 . S
C484 H497 0.962 . S
C484 H498 0.960 . S
C485 C482 1.511 . S
C485 H499 0.961 . S
C485 H500 0.961 . S
C485 H501 0.961 . S
C486 C487 1.370 . S
C486 C488 1.363 . S
C486 H502 0.931 . S
C487 C486 1.370 . S
C487 C491 1.408 . S
C488 C486 1.363 . S
C488 C489 1.370 . S
C488 C492 1.524 . S
C489 C481 1.503 . S
C489 C488 1.370 . S
C489 C490 1.403 . S
C490 C489 1.403 . S
C490 C491 1.404 . S
C490 C493 1.539 . S
C491 C487 1.408 . S
C491 C490 1.404 . S
C491 H503 0.930 . S
C492 C488 1.524 . S
C492 H504 0.956 . S
C492 H505 0.961 . S
C492 H506 0.961 . S
C493 C490 1.539 . S
C493 H507 0.958 . S
C493 H508 0.961 . S
C493 H509 0.960 . S
H494 C478 0.931 . S
H495 C483 0.929 . S
H496 C484 0.960 . S
H497 C484 0.962 . S
H498 C484 0.960 . S
H499 C485 0.961 . S
H500 C485 0.961 . S
H501 C485 0.961 . S
H502 C486 0.931 . S
H503 C491 0.930 . S
H504 C492 0.956 . S
H505 C492 0.961 . S
H506 C492 0.961 . S
H507 C493 0.958 . S
H508 C493 0.961 . S
H509 C493 0.960 . S
C510 C511 1.391 . S
C510 C512 1.394 . S
C510 H526 0.931 . S
C511 C510 1.391 . S
C511 C515 1.376 . S
C512 C510 1.394 . S
C512 C513 1.369 . S
C512 C516 1.531 . S
C513 C512 1.369 . S
C513 C514 1.410 . S
C513 C521 1.503 . S
C514 C513 1.410 . S
C514 C515 1.392 . S
C514 C517 1.511 . S
C515 C511 1.376 . S
C515 C514 1.392 . S
C515 H527 0.929 . S
C516 C512 1.531 . S
C516 H528 0.960 . S
C516 H529 0.962 . S
C516 H530 0.960 . S
C517 C514 1.511 . S
C517 H531 0.961 . S
C517 H532 0.961 . S
C517 H533 0.961 . S
C518 C519 1.370 . S
C518 C520 1.363 . S
C518 H534 0.931 . S
C519 C518 1.370 . S
C519 C523 1.408 . S
C520 C518 1.363 . S
C520 C521 1.370 . S
C520 C524 1.524 . S
C521 C513 1.503 . S
C521 C520 1.370 . S
C521 C522 1.403 . S
C522 C521 1.403 . S
C522 C523 1.404 . S
C522 C525 1.539 . S
C523 C519 1.408 . S
C523 C522 1.404 . S
C523 H535 0.930 . S
C524 C520 1.524 . S
C524 H536 0.956 . S
C524 H537 0.961 . S
C524 H538 0.961 . S
C525 C522 1.539 . S
C525 H539 0.958 . S
C525 H540 0.961 . S
C525 H541 0.960 . S
H526 C510 0.931 . S
H527 C515 0.929 . S
H528 C516 0.960 . S
H529 C516 0.962 . S
H530 C516 0.960 . S
H531 C517 0.961 . S
H532 C517 0.961 . S
H533 C517 0.961 . S
H534 C518 0.931 . S
H535 C523 0.930 . S
H536 C524 0.956 . S
H537 C524 0.961 . S
H538 C524 0.961 . S
H539 C525 0.958 . S
H540 C525 0.961 . S
H541 C525 0.960 . S
C542 C543 1.391 . S
C542 C544 1.394 . S
C542 H558 0.931 . S
C543 C542 1.391 . S
C543 C547 1.376 1_455 S
C544 C542 1.394 . S
C544 C545 1.369 . S
C544 C548 1.531 . S
C545 C544 1.369 . S
C545 C546 1.410 1_455 S
C545 C553 1.503 . S
C546 C545 1.410 1_655 S
C546 C547 1.392 . S
C546 C549 1.511 . S
C547 C543 1.376 1_655 S
C547 C546 1.392 . S
C547 H559 0.929 . S
C548 C544 1.531 . S
C548 H560 0.960 . S
C548 H561 0.962 1_545 S
C548 H562 0.960 . S
C549 C546 1.511 . S
C549 H563 0.961 1_545 S
C549 H564 0.961 1_545 S
C549 H565 0.961 . S
C550 C551 1.372 1_565 S
C550 C552 1.363 . S
C550 H566 0.931 . S
C551 C550 1.372 1_545 S
C551 C555 1.407 1_455 S
C552 C550 1.363 . S
C552 C553 1.370 1_565 S
C552 C556 1.524 . S
C553 C545 1.503 . S
C553 C552 1.370 1_545 S
C553 C554 1.403 1_455 S
C554 C553 1.403 1_655 S
C554 C555 1.404 . S
C554 C557 1.539 . S
C555 C551 1.407 1_655 S
C555 C554 1.404 . S
C555 H567 0.930 . S
C556 C552 1.524 . S
C556 H568 0.956 . S
C556 H569 0.961 1_455 S
C556 H570 0.961 . S
C557 C554 1.539 . S
C557 H571 0.958 1_655 S
C557 H572 0.961 . S
C557 H573 0.960 . S
H558 C542 0.931 . S
H559 C547 0.929 . S
H560 C548 0.960 . S
H561 C548 0.962 1_565 S
H562 C548 0.960 . S
H563 C549 0.961 1_565 S
H564 C549 0.961 1_565 S
H565 C549 0.961 . S
H566 C550 0.931 . S
H567 C555 0.930 . S
H568 C556 0.956 . S
H569 C556 0.961 1_655 S
H570 C556 0.961 . S
H571 C557 0.958 1_455 S
H572 C557 0.961 . S
H573 C557 0.960 . S
C574 C575 1.391 1_655 S
C574 C576 1.394 . S
C574 H590 0.931 . S
C575 C574 1.391 1_455 S
C575 C579 1.376 1_545 S
C576 C574 1.394 . S
C576 C577 1.369 1_655 S
C576 C580 1.531 . S
C577 C576 1.369 1_455 S
C577 C578 1.410 1_545 S
C577 C585 1.503 . S
C578 C577 1.410 1_565 S
C578 C579 1.392 . S
C578 C581 1.511 . S
C579 C575 1.376 1_565 S
C579 C578 1.392 . S
C579 H591 0.929 . S
C580 C576 1.531 . S
C580 H592 0.960 . S
C580 H593 0.962 . S
C580 H594 0.960 . S
C581 C578 1.511 . S
C581 H595 0.961 . S
C581 H596 0.961 . S
C581 H597 0.961 . S
C582 C583 1.370 1_665 S
C582 C584 1.363 . S
C582 H598 0.931 . S
C583 C582 1.370 1_445 S
C583 C587 1.408 . S
C584 C582 1.363 . S
C584 C585 1.370 1_665 S
C584 C588 1.524 . S
C585 C577 1.503 . S
C585 C584 1.370 1_445 S
C585 C586 1.403 . S
C586 C585 1.403 . S
C586 C587 1.404 . S
C586 C589 1.539 . S
C587 C583 1.408 . S
C587 C586 1.404 . S
C587 H599 0.930 . S
C588 C584 1.524 . S
C588 H600 0.956 . S
C588 H601 0.961 . S
C588 H602 0.961 . S
C589 C586 1.539 . S
C589 H603 0.958 . S
C589 H604 0.961 . S
C589 H605 0.960 . S
H590 C574 0.931 . S
H591 C579 0.929 . S
H592 C580 0.960 . S
H593 C580 0.962 . S
H594 C580 0.960 . S
H595 C581 0.961 . S
H596 C581 0.961 . S
H597 C581 0.961 . S
H598 C582 0.931 . S
H599 C587 0.930 . S
H600 C588 0.956 . S
H601 C588 0.961 . S
H602 C588 0.961 . S
H603 C589 0.958 . S
H604 C589 0.961 . S
H605 C589 0.960 . S
C606 C607 1.391 . S
C606 C608 1.394 . S
C606 H622 0.931 . S
C607 C606 1.391 . S
C607 C611 1.376 . S
C608 C606 1.394 . S
C608 C609 1.369 . S
C608 C612 1.531 . S
C609 C608 1.369 . S
C609 C610 1.410 . S
C609 C617 1.503 . S
C610 C609 1.410 . S
C610 C611 1.392 . S
C610 C613 1.511 . S
C611 C607 1.376 . S
C611 C610 1.392 . S
C611 H623 0.929 . S
C612 C608 1.531 . S
C612 H624 0.960 . S
C612 H625 0.962 . S
C612 H626 0.960 . S
C613 C610 1.511 . S
C613 H627 0.961 . S
C613 H628 0.961 . S
C613 H629 0.961 . S
C614 C615 1.370 . S
C614 C616 1.363 . S
C614 H630 0.931 . S
C615 C614 1.370 . S
C615 C619 1.408 . S
C616 C614 1.363 . S
C616 C617 1.370 . S
C616 C620 1.524 . S
C617 C609 1.503 . S
C617 C616 1.370 . S
C617 C618 1.403 . S
C618 C617 1.403 . S
C618 C619 1.404 . S
C618 C621 1.539 . S
C619 C615 1.408 . S
C619 C618 1.404 . S
C619 H631 0.930 . S
C620 C616 1.524 . S
C620 H632 0.956 . S
C620 H633 0.961 . S
C620 H634 0.961 . S
C621 C618 1.539 . S
C621 H635 0.958 . S
C621 H636 0.961 . S
C621 H637 0.960 . S
H622 C606 0.931 . S
H623 C611 0.929 . S
H624 C612 0.960 . S
H625 C612 0.962 . S
H626 C612 0.960 . S
H627 C613 0.961 . S
H628 C613 0.961 . S
H629 C613 0.961 . S
H630 C614 0.931 . S
H631 C619 0.930 . S
H632 C620 0.956 . S
H633 C620 0.961 . S
H634 C620 0.961 . S
H635 C621 0.958 . S
H636 C621 0.961 . S
H637 C621 0.960 . S
C638 C639 1.391 . S
C638 C640 1.394 . S
C638 H654 0.931 . S
C639 C638 1.391 . S
C639 C643 1.376 . S
C640 C638 1.394 . S
C640 C641 1.369 . S
C640 C644 1.531 . S
C641 C640 1.369 . S
C641 C642 1.410 . S
C641 C649 1.503 . S
C642 C641 1.410 . S
C642 C643 1.392 . S
C642 C645 1.511 . S
C643 C639 1.376 . S
C643 C642 1.392 . S
C643 H655 0.929 . S
C644 C640 1.531 . S
C644 H656 0.960 . S
C644 H657 0.962 . S
C644 H658 0.960 . S
C645 C642 1.511 . S
C645 H659 0.961 . S
C645 H660 0.961 . S
C645 H661 0.961 . S
C646 C647 1.370 . S
C646 C648 1.363 . S
C646 H662 0.931 . S
C647 C646 1.370 . S
C647 C651 1.408 . S
C648 C646 1.363 . S
C648 C649 1.370 . S
C648 C652 1.524 . S
C649 C641 1.503 . S
C649 C648 1.370 . S
C649 C650 1.403 . S
C650 C649 1.403 . S
C650 C651 1.404 . S
C650 C653 1.539 . S
C651 C647 1.408 . S
C651 C650 1.404 . S
C651 H663 0.930 . S
C652 C648 1.524 . S
C652 H664 0.956 . S
C652 H665 0.961 . S
C652 H666 0.961 . S
C653 C650 1.539 . S
C653 H667 0.958 . S
C653 H668 0.961 . S
C653 H669 0.960 . S
H654 C638 0.931 . S
H655 C643 0.929 . S
H656 C644 0.960 . S
H657 C644 0.962 . S
H658 C644 0.960 . S
H659 C645 0.961 . S
H660 C645 0.961 . S
H661 C645 0.961 . S
H662 C646 0.931 . S
H663 C651 0.930 . S
H664 C652 0.956 . S
H665 C652 0.961 . S
H666 C652 0.961 . S
H667 C653 0.958 . S
H668 C653 0.961 . S
H669 C653 0.960 . S
C295 C257 1.456 . S
C287 C21 1.448 . S
C319 C19 1.452 1_556 S
C327 C197 1.453 . S
C351 C18 1.418 . S
C359 C227 1.339 . S
C383 C20 1.416 1_556 S
C391 C167 1.387 . S
C415 C44 1.455 . S
C423 C137 1.448 . S
C447 C42 1.452 . S
C455 C77 1.451 . S
C487 C107 1.371 . S
C479 C41 1.407 . S
C519 C47 1.387 . S
C511 C43 1.419 . S
C543 C16 1.489 . S
C551 C66 1.462 1_455 S
C575 C17 1.456 . S
C583 C126 1.441 . S
C615 C186 1.462 . S
C607 C39 1.489 . S
C639 C40 1.450 . S
C647 C246 1.428 . S
