# Generated by pormake.
# Topology ptr, (4,4)-cn, num edge types: 1
# Building blocks:
#     Node 0, Type 0, BuildingBlock: KUFVIS_clean_sbu_0, # of connection points: 4
#     Node 1, Type 0, BuildingBlock: KUFVIS_clean_sbu_0, # of connection points: 4
#     Node 2, Type 0, BuildingBlock: KUFVIS_clean_sbu_0, # of connection points: 4
#     Node 3, Type 0, BuildingBlock: KUFVIS_clean_sbu_0, # of connection points: 4
#     Node 4, Type 0, BuildingBlock: KUFVIS_clean_sbu_0, # of connection points: 4
#     Node 5, Type 0, BuildingBlock: KUFVIS_clean_sbu_0, # of connection points: 4
#     Node 6, Type 0, BuildingBlock: KUFVIS_clean_sbu_0, # of connection points: 4
#     Node 7, Type 0, BuildingBlock: KUFVIS_clean_sbu_0, # of connection points: 4
#     Node 8, Type 0, BuildingBlock: KUFVIS_clean_sbu_0, # of connection points: 4
#     Node 9, Type 0, BuildingBlock: KUFVIS_clean_sbu_0, # of connection points: 4
#     Node 10, Type 0, BuildingBlock: KUFVIS_clean_sbu_0, # of connection points: 4
#     Node 11, Type 0, BuildingBlock: KUFVIS_clean_sbu_0, # of connection points: 4
#     Node 12, Type 0, BuildingBlock: KUFVIS_clean_sbu_0, # of connection points: 4
#     Node 13, Type 0, BuildingBlock: KUFVIS_clean_sbu_0, # of connection points: 4
#     Node 14, Type 0, BuildingBlock: KUFVIS_clean_sbu_0, # of connection points: 4
#     Node 15, Type 0, BuildingBlock: KUFVIS_clean_sbu_0, # of connection points: 4
#     Node 16, Type 0, BuildingBlock: KUFVIS_clean_sbu_0, # of connection points: 4
#     Node 17, Type 0, BuildingBlock: KUFVIS_clean_sbu_0, # of connection points: 4
#     Node 18, Type 1, BuildingBlock: GIZVER_clean_linker_0, # of connection points: 4
#     Node 19, Type 1, BuildingBlock: GIZVER_clean_linker_0, # of connection points: 4
#     Node 20, Type 1, BuildingBlock: GIZVER_clean_linker_0, # of connection points: 4
#     Node 21, Type 1, BuildingBlock: GIZVER_clean_linker_0, # of connection points: 4
#     Node 22, Type 1, BuildingBlock: GIZVER_clean_linker_0, # of connection points: 4
#     Node 23, Type 1, BuildingBlock: GIZVER_clean_linker_0, # of connection points: 4
#     Node 24, Type 1, BuildingBlock: GIZVER_clean_linker_0, # of connection points: 4
#     Node 25, Type 1, BuildingBlock: GIZVER_clean_linker_0, # of connection points: 4
#     Node 26, Type 1, BuildingBlock: GIZVER_clean_linker_0, # of connection points: 4
#     Node 27, Type 1, BuildingBlock: GIZVER_clean_linker_0, # of connection points: 4
#     Node 28, Type 1, BuildingBlock: GIZVER_clean_linker_0, # of connection points: 4
#     Node 29, Type 1, BuildingBlock: GIZVER_clean_linker_0, # of connection points: 4
#     Node 30, Type 1, BuildingBlock: GIZVER_clean_linker_0, # of connection points: 4
#     Node 31, Type 1, BuildingBlock: GIZVER_clean_linker_0, # of connection points: 4
#     Node 32, Type 1, BuildingBlock: GIZVER_clean_linker_0, # of connection points: 4
#     Node 33, Type 1, BuildingBlock: GIZVER_clean_linker_0, # of connection points: 4
#     Node 34, Type 1, BuildingBlock: GIZVER_clean_linker_0, # of connection points: 4
#     Node 35, Type 1, BuildingBlock: GIZVER_clean_linker_0, # of connection points: 4
#     Edge 36, Type (0, 1), BuildingBlock: EZIPEK_clean_linker_0, # of connection points: 2
#     Edge 37, Type (0, 1), BuildingBlock: EZIPEK_clean_linker_0, # of connection points: 2
#     Edge 38, Type (0, 1), BuildingBlock: EZIPEK_clean_linker_0, # of connection points: 2
#     Edge 39, Type (0, 1), BuildingBlock: EZIPEK_clean_linker_0, # of connection points: 2
#     Edge 40, Type (0, 1), BuildingBlock: EZIPEK_clean_linker_0, # of connection points: 2
#     Edge 41, Type (0, 1), BuildingBlock: EZIPEK_clean_linker_0, # of connection points: 2
#     Edge 42, Type (0, 1), BuildingBlock: EZIPEK_clean_linker_0, # of connection points: 2
#     Edge 43, Type (0, 1), BuildingBlock: EZIPEK_clean_linker_0, # of connection points: 2
#     Edge 44, Type (0, 1), BuildingBlock: EZIPEK_clean_linker_0, # of connection points: 2
#     Edge 45, Type (0, 1), BuildingBlock: EZIPEK_clean_linker_0, # of connection points: 2
#     Edge 46, Type (0, 1), BuildingBlock: EZIPEK_clean_linker_0, # of connection points: 2
#     Edge 47, Type (0, 1), BuildingBlock: EZIPEK_clean_linker_0, # of connection points: 2
#     Edge 48, Type (0, 1), BuildingBlock: EZIPEK_clean_linker_0, # of connection points: 2
#     Edge 49, Type (0, 1), BuildingBlock: EZIPEK_clean_linker_0, # of connection points: 2
#     Edge 50, Type (0, 1), BuildingBlock: EZIPEK_clean_linker_0, # of connection points: 2
#     Edge 51, Type (0, 1), BuildingBlock: EZIPEK_clean_linker_0, # of connection points: 2
#     Edge 52, Type (0, 1), BuildingBlock: EZIPEK_clean_linker_0, # of connection points: 2
#     Edge 53, Type (0, 1), BuildingBlock: EZIPEK_clean_linker_0, # of connection points: 2
#     Edge 54, Type (0, 1), BuildingBlock: EZIPEK_clean_linker_0, # of connection points: 2
#     Edge 55, Type (0, 1), BuildingBlock: EZIPEK_clean_linker_0, # of connection points: 2
#     Edge 56, Type (0, 1), BuildingBlock: EZIPEK_clean_linker_0, # of connection points: 2
#     Edge 57, Type (0, 1), BuildingBlock: EZIPEK_clean_linker_0, # of connection points: 2
#     Edge 58, Type (0, 1), BuildingBlock: EZIPEK_clean_linker_0, # of connection points: 2
#     Edge 59, Type (0, 1), BuildingBlock: EZIPEK_clean_linker_0, # of connection points: 2
#     Edge 60, Type (0, 1), BuildingBlock: EZIPEK_clean_linker_0, # of connection points: 2
#     Edge 61, Type (0, 1), BuildingBlock: EZIPEK_clean_linker_0, # of connection points: 2
#     Edge 62, Type (0, 1), BuildingBlock: EZIPEK_clean_linker_0, # of connection points: 2
#     Edge 63, Type (0, 1), BuildingBlock: EZIPEK_clean_linker_0, # of connection points: 2
#     Edge 64, Type (0, 1), BuildingBlock: EZIPEK_clean_linker_0, # of connection points: 2
#     Edge 65, Type (0, 1), BuildingBlock: EZIPEK_clean_linker_0, # of connection points: 2
#     Edge 66, Type (0, 1), BuildingBlock: EZIPEK_clean_linker_0, # of connection points: 2
#     Edge 67, Type (0, 1), BuildingBlock: EZIPEK_clean_linker_0, # of connection points: 2
#     Edge 68, Type (0, 1), BuildingBlock: EZIPEK_clean_linker_0, # of connection points: 2
#     Edge 69, Type (0, 1), BuildingBlock: EZIPEK_clean_linker_0, # of connection points: 2
#     Edge 70, Type (0, 1), BuildingBlock: EZIPEK_clean_linker_0, # of connection points: 2
#     Edge 71, Type (0, 1), BuildingBlock: EZIPEK_clean_linker_0, # of connection points: 2
#     Edge 72, Type (0, 1), BuildingBlock: EZIPEK_clean_linker_0, # of connection points: 2
#     Edge 73, Type (0, 1), BuildingBlock: EZIPEK_clean_linker_0, # of connection points: 2
#     Edge 74, Type (0, 1), BuildingBlock: EZIPEK_clean_linker_0, # of connection points: 2
#     Edge 75, Type (0, 1), BuildingBlock: EZIPEK_clean_linker_0, # of connection points: 2
#     Edge 76, Type (0, 1), BuildingBlock: EZIPEK_clean_linker_0, # of connection points: 2
#     Edge 77, Type (0, 1), BuildingBlock: EZIPEK_clean_linker_0, # of connection points: 2
#     Edge 78, Type (0, 1), BuildingBlock: EZIPEK_clean_linker_0, # of connection points: 2
#     Edge 79, Type (0, 1), BuildingBlock: EZIPEK_clean_linker_0, # of connection points: 2
#     Edge 80, Type (0, 1), BuildingBlock: EZIPEK_clean_linker_0, # of connection points: 2
#     Edge 81, Type (0, 1), BuildingBlock: EZIPEK_clean_linker_0, # of connection points: 2
#     Edge 82, Type (0, 1), BuildingBlock: EZIPEK_clean_linker_0, # of connection points: 2
#     Edge 83, Type (0, 1), BuildingBlock: EZIPEK_clean_linker_0, # of connection points: 2
#     Edge 84, Type (0, 1), BuildingBlock: EZIPEK_clean_linker_0, # of connection points: 2
#     Edge 85, Type (0, 1), BuildingBlock: EZIPEK_clean_linker_0, # of connection points: 2
#     Edge 86, Type (0, 1), BuildingBlock: EZIPEK_clean_linker_0, # of connection points: 2
#     Edge 87, Type (0, 1), BuildingBlock: EZIPEK_clean_linker_0, # of connection points: 2
#     Edge 88, Type (0, 1), BuildingBlock: EZIPEK_clean_linker_0, # of connection points: 2
#     Edge 89, Type (0, 1), BuildingBlock: EZIPEK_clean_linker_0, # of connection points: 2
#     Edge 90, Type (0, 1), BuildingBlock: EZIPEK_clean_linker_0, # of connection points: 2
#     Edge 91, Type (0, 1), BuildingBlock: EZIPEK_clean_linker_0, # of connection points: 2
#     Edge 92, Type (0, 1), BuildingBlock: EZIPEK_clean_linker_0, # of connection points: 2
#     Edge 93, Type (0, 1), BuildingBlock: EZIPEK_clean_linker_0, # of connection points: 2
#     Edge 94, Type (0, 1), BuildingBlock: EZIPEK_clean_linker_0, # of connection points: 2
#     Edge 95, Type (0, 1), BuildingBlock: EZIPEK_clean_linker_0, # of connection points: 2
#     Edge 96, Type (0, 1), BuildingBlock: EZIPEK_clean_linker_0, # of connection points: 2
#     Edge 97, Type (0, 1), BuildingBlock: EZIPEK_clean_linker_0, # of connection points: 2
#     Edge 98, Type (0, 1), BuildingBlock: EZIPEK_clean_linker_0, # of connection points: 2
#     Edge 99, Type (0, 1), BuildingBlock: EZIPEK_clean_linker_0, # of connection points: 2
#     Edge 100, Type (0, 1), BuildingBlock: EZIPEK_clean_linker_0, # of connection points: 2
#     Edge 101, Type (0, 1), BuildingBlock: EZIPEK_clean_linker_0, # of connection points: 2
#     Edge 102, Type (0, 1), BuildingBlock: EZIPEK_clean_linker_0, # of connection points: 2
#     Edge 103, Type (0, 1), BuildingBlock: EZIPEK_clean_linker_0, # of connection points: 2
#     Edge 104, Type (0, 1), BuildingBlock: EZIPEK_clean_linker_0, # of connection points: 2
#     Edge 105, Type (0, 1), BuildingBlock: EZIPEK_clean_linker_0, # of connection points: 2
#     Edge 106, Type (0, 1), BuildingBlock: EZIPEK_clean_linker_0, # of connection points: 2
#     Edge 107, Type (0, 1), BuildingBlock: EZIPEK_clean_linker_0, # of connection points: 2
# Relax obj value: 0.051
# Max RMSD: 0.135
# Mean RMSD: 0.084
data_MOF--net-ptr--node1-KUFVIS_clean_sbu_0--node2-GIZVER_clean_linker_0--edge1-EZIPEK_clean_linker_0
_symmetry_space_group_name_H-M    P1
_symmetry_Int_Tables_number       1
_symmetry_cell_setting            triclinic
loop_
_symmetry_equiv_pos_as_xyz
'x, y, z'
_cell_length_a     58.896114
_cell_length_b     58.524139
_cell_length_c     36.263199
_cell_angle_alpha  89.86481
_cell_angle_beta   91.375476
_cell_angle_gamma 119.42179
loop_
_atom_site_label
_atom_site_type_symbol
_atom_site_fract_x
_atom_site_fract_y
_atom_site_fract_z
_atom_type_partial_charge
Mn0 Mn 0.99685 0.37132 0.00761 0.0
Mn1 Mn 0.05516 0.42458 0.98942 0.0
C2 C 0.9999 0.39985 0.9611 0.0
C3 C 0.96505 0.32747 -0.00047 0.0
C4 C 0.02328 0.42039 0.05615 0.0
O5 O 0.02331 0.36258 0.03163 0.0
O6 O 0.06134 0.39662 0.0125 0.0
C7 C 0.0785 0.4065 0.93289 0.0
N8 N 0.06878 0.4223 0.9429 0.0
C9 C 0.08355 0.44685 0.88671 0.0
C10 C 0.09307 0.4303 0.87556 0.0
C11 C 0.09048 0.40999 0.89877 0.0
C12 C 0.07144 0.44212 0.92086 0.0
H13 H 0.0777 0.39189 0.95121 0.0
C14 C 0.04817 0.37455 0.02913 0.0
O15 O 0.96672 0.34029 0.02947 0.0
O16 O 0.98269 0.33956 0.97504 0.0
N17 N 0.05118 0.45226 0.9672 0.0
C18 C 0.04104 0.46666 0.98186 0.0
C19 C 0.04109 0.48707 0.96134 0.0
C20 C 0.05203 0.49284 0.92627 0.0
C21 C 0.06294 0.47826 0.91214 0.0
C22 C 0.06187 0.4578 0.93355 0.0
H23 H 0.03265 0.46245 0.00883 0.0
O24 O 0.97769 0.38478 0.97619 0.0
O25 O 0.01969 0.39789 0.9738 0.0
O26 O 1.00352 0.39831 0.04813 0.0
O27 O 0.04378 0.43083 0.03711 0.0
C28 C 0.07483 0.48322 0.87761 0.0
C29 C 0.08541 0.46773 0.86509 0.0
H30 H 0.10246 0.43306 0.84934 0.0
H31 H 0.09812 0.39734 0.89068 0.0
H32 H 0.03267 0.49828 0.9725 0.0
H33 H 0.05194 0.50848 0.9104 0.0
H34 H 0.07596 0.49892 0.86047 0.0
H35 H 0.09453 0.47173 0.8385 0.0
Mn36 Mn 0.63244 0.63596 0.01199 0.0
Mn37 Mn 0.6322 0.57996 0.03537 0.0
C38 C 0.60407 0.60879 0.05654 0.0
C39 C 0.64832 0.68085 0.01783 0.0
C40 C 0.60917 0.58761 0.96332 0.0
O41 O 0.66657 0.64019 0.99127 0.0
O42 O 0.66711 0.60543 0.01763 0.0
C43 C 0.66996 0.5979 0.09849 0.0
N44 N 0.64553 0.58172 0.08445 0.0
C45 C 0.63262 0.5576 0.14104 0.0
C46 C 0.65769 0.57391 0.15605 0.0
C47 C 0.67637 0.59428 0.13478 0.0
C48 C 0.62728 0.5624 0.10491 0.0
H49 H 0.68448 0.61335 0.08204 0.0
C50 C 0.67757 0.6264 -0.00141 0.0
O51 O 0.63711 0.66834 0.9875 0.0
O52 O 0.65171 0.66766 0.04423 0.0
N53 N 0.5996 0.55359 0.05365 0.0
C54 C 0.57651 0.53931 0.03488 0.0
C55 C 0.55539 0.51897 0.05277 0.0
C56 C 0.55841 0.51304 0.08949 0.0
C57 C 0.58265 0.52732 0.10782 0.0
C58 C 0.60291 0.5476 0.08868 0.0
H59 H 0.57426 0.54322 0.00639 0.0
O60 O 0.59982 0.62607 0.03994 0.0
O61 O 0.62503 0.60843 0.04711 0.0
O62 O 0.6115 0.60975 0.97133 0.0
O63 O 0.61765 0.57557 0.98405 0.0
C64 C 0.58757 0.52205 0.14419 0.0
C65 C 0.61259 0.53706 0.1607 0.0
H66 H 0.66273 0.57112 0.18399 0.0
H67 H 0.69572 0.60702 0.14623 0.0
H68 H 0.53697 0.50777 0.03803 0.0
H69 H 0.54216 0.49731 0.1032 0.0
H70 H 0.57225 0.5065 0.15969 0.0
H71 H 0.61611 0.53294 0.18874 0.0
Mn72 Mn 0.37278 0.99643 0.01704 0.0
Mn73 Mn 0.42977 0.05118 0.03879 0.0
C74 C 0.4012 0.99543 0.0615 0.0
C75 C 0.32913 0.96512 0.02491 0.0
C76 C 0.42261 0.01852 0.97149 0.0
O77 O 0.36566 0.02496 -0.00258 0.0
O78 O 0.40592 0.05935 0.00864 0.0
C79 C 0.40788 0.07577 0.0874 0.0
N80 N 0.4251 0.06698 0.08191 0.0
C81 C 0.44514 0.08254 0.14195 0.0
C82 C 0.42766 0.0918 0.1482 0.0
C83 C 0.40886 0.08827 0.12087 0.0
C84 C 0.44304 0.06997 0.10821 0.0
H85 H 0.39355 0.07333 0.0664 0.0
C86 C 0.38247 0.04931 0.99566 0.0
O87 O 0.34019 0.96792 0.99348 0.0
O88 O 0.34254 0.98223 0.05061 0.0
N89 N 0.45478 0.04679 0.06812 0.0
C90 C 0.46958 0.03586 0.05833 0.0
C91 C 0.48868 0.03681 0.08321 0.0
C92 C 0.4929 0.04967 0.11742 0.0
C93 C 0.47793 0.0614 0.12647 0.0
C94 C 0.45889 0.05945 0.10079 0.0
H95 H 0.4667 0.0263 0.03184 0.0
O96 O 0.38491 0.97434 0.04346 0.0
O97 O 0.40096 0.01684 0.05247 0.0
O98 O 0.39815 0.00353 0.97507 0.0
O99 O 0.43693 0.03609 0.99513 0.0
C100 C 0.48093 0.07468 0.16014 0.0
C101 C 0.46445 0.08512 0.16796 0.0
H102 H 0.42842 0.10156 0.17392 0.0
H103 H 0.39526 0.09532 0.12552 0.0
H104 H 0.50024 0.02782 0.07594 0.0
H105 H 0.50768 0.05041 0.13652 0.0
H106 H 0.4955 0.07653 0.18052 0.0
H107 H 0.46663 0.09486 0.19422 0.0
Mn108 Mn 1.00391 0.62819 0.99229 0.0
Mn109 Mn 0.06003 0.63445 0.96187 0.0
C110 C 1.00341 0.5955 0.9558 0.0
C111 C 0.96806 0.63465 0.98698 0.0
C112 C 0.04152 0.61624 0.03801 0.0
O113 O 0.02882 0.66711 -0.00068 0.0
O114 O 0.06615 0.66817 0.98539 0.0
C115 C 0.0608 0.66858 0.90081 0.0
N116 N 0.0626 0.64743 0.91273 0.0
C117 C 0.06558 0.63523 0.8504 0.0
C118 C 0.06557 0.65788 0.83776 0.0
C119 C 0.06268 0.67437 0.86303 0.0
C120 C 0.06345 0.63043 0.88835 0.0
H121 H 0.05725 0.68052 0.91985 0.0
C122 C 0.05361 0.67906 -0.00189 0.0
O123 O 0.97591 0.63077 0.01891 0.0
O124 O 0.98128 0.63547 0.95849 0.0
N125 N 0.05824 0.60412 0.9391 0.0
C126 C 0.05827 0.58325 0.95578 0.0
C127 C 0.05923 0.5639 0.93414 0.0
C128 C 0.06094 0.56657 0.89566 0.0
C129 C 0.06231 0.58892 0.8793 0.0
C130 C 0.06123 0.60754 0.90232 0.0
H131 H 0.05737 0.58128 0.9854 0.0
O132 O 0.98428 0.59044 0.97737 0.0
O133 O 0.02228 0.61971 0.95642 0.0
O134 O 0.02186 0.61985 0.03511 0.0
O135 O 0.05706 0.61985 0.0118 0.0
C136 C 0.06525 0.59372 0.84116 0.0
C137 C 0.06701 0.61693 0.82675 0.0
H138 H 0.06693 0.66235 0.80862 0.0
H139 H 0.0616 0.69132 0.85336 0.0
H140 H 0.05877 0.54706 0.94719 0.0
H141 H 0.06167 0.55161 0.87902 0.0
H142 H 0.06616 0.57971 0.82267 0.0
H143 H 0.06891 0.62024 0.7973 0.0
Mn144 Mn 0.36885 0.38423 0.0056 0.0
Mn145 Mn 0.42655 0.38603 0.02346 0.0
C146 C 0.39684 0.41089 0.05251 0.0
C147 C 0.32436 0.36813 0.01442 0.0
C148 C 0.41754 0.41373 0.95848 0.0
O149 O 0.36367 0.35085 0.97929 0.0
O150 O 0.40297 0.3548 0.99337 0.0
C151 C 0.4056 0.33892 0.07055 0.0
N152 N 0.42241 0.36498 0.06593 0.0
C153 C 0.44195 0.36846 0.12618 0.0
C154 C 0.42497 0.34164 0.13145 0.0
C155 C 0.4066 0.32686 0.10359 0.0
C156 C 0.43975 0.37948 0.09289 0.0
H157 H 0.39154 0.32738 0.04917 0.0
C158 C 0.38023 0.34269 0.97811 0.0
O159 O 0.33541 0.38023 0.98447 0.0
O160 O 0.33865 0.36378 0.03809 0.0
N161 N 0.45153 0.41477 0.05348 0.0
C162 C 0.46698 0.44024 0.04401 0.0
C163 C 0.48532 0.45799 0.06972 0.0
C164 C 0.48871 0.44905 0.10424 0.0
C165 C 0.47375 0.42244 0.11265 0.0
C166 C 0.45518 0.40584 0.0863 0.0
H167 H 0.46533 0.44688 0.01709 0.0
O168 O 0.37943 0.41582 0.03782 0.0
O169 O 0.39739 0.39055 0.03934 0.0
O170 O 0.39396 0.40666 0.96589 0.0
O171 O 0.43237 0.40835 0.97891 0.0
C172 C 0.47658 0.41175 0.14615 0.0
C173 C 0.46077 0.38473 0.15284 0.0
H174 H 0.42577 0.33225 0.15684 0.0
H175 H 0.39333 0.30617 0.10751 0.0
H176 H 0.49684 0.47847 0.0629 0.0
H177 H 0.50295 0.46268 0.124 0.0
H178 H 0.49073 0.42416 0.16704 0.0
H179 H 0.46293 0.37676 0.17884 0.0
Mn180 Mn 0.63916 0.00787 0.9938 0.0
Mn181 Mn 0.58372 0.9518 0.97177 0.0
C182 C 0.60847 0.00839 0.95284 0.0
C183 C 0.68269 0.03943 0.98483 0.0
C184 C 0.59229 0.98021 0.04447 0.0
O185 O 0.64795 0.9791 0.00797 0.0
O186 O 0.61019 0.94298 0.99257 0.0
C187 C 0.60597 0.93909 0.90763 0.0
N188 N 0.58636 0.9416 0.92271 0.0
C189 C 0.56218 0.93021 0.86494 0.0
C190 C 0.58094 0.92506 0.84985 0.0
C191 C 0.60327 0.93017 0.87102 0.0
C192 C 0.5659 0.93888 0.90167 0.0
H193 H 0.6238 0.9446 0.92316 0.0
C194 C 0.63361 0.95408 0.00588 0.0
O195 O 0.67217 0.03642 0.01672 0.0
O196 O 0.66849 0.02333 0.95861 0.0
N197 N 0.55603 0.95673 0.9519 0.0
C198 C 0.54132 0.96525 0.96946 0.0
C199 C 0.52012 0.96502 0.95053 0.0
C200 C 0.51396 0.95558 0.91402 0.0
C201 C 0.529 0.94631 0.89684 0.0
C202 C 0.5499 0.94704 0.91709 0.0
H203 H 0.54584 0.97234 -0.00239 0.0
O204 O 0.62488 0.02962 0.97059 0.0
O205 O 0.61031 0.98767 0.9603 0.0
O206 O 0.61499 0.99901 0.03778 0.0
O207 O 0.57884 0.96131 0.022 0.0
C208 C 0.52422 0.93661 0.8603 0.0
C209 C 0.54076 0.92849 0.84439 0.0
H210 H 0.57907 0.91852 0.82146 0.0
H211 H 0.61855 0.92768 0.85895 0.0
H212 H 0.50855 0.9721 0.96405 0.0
H213 H 0.49769 0.95557 0.89943 0.0
H214 H 0.50819 0.93578 0.84396 0.0
H215 H 0.53737 0.92181 0.81593 0.0
Mn216 Mn 0.65638 0.7046 0.33317 0.0
Mn217 Mn 0.71393 0.75889 0.31689 0.0
C218 C 0.65984 0.73235 0.28502 0.0
C219 C 0.62587 0.66035 0.32447 0.0
C220 C 0.67879 0.75571 0.37852 0.0
O221 O 0.68233 0.69713 0.36144 0.0
O222 O 0.71922 0.73388 0.34848 0.0
C223 C 0.73775 0.73403 0.27268 0.0
N224 N 0.73013 0.75243 0.27623 0.0
C225 C 0.749 0.77191 0.21838 0.0
C226 C 0.75716 0.75325 0.21418 0.0
C227 C 0.75134 0.73412 0.24133 0.0
C228 C 0.73522 0.77062 0.24995 0.0
H229 H 0.7336 0.71948 0.29367 0.0
C230 C 0.70704 0.7115 0.36421 0.0
O231 O 0.62594 0.67306 0.35375 0.0
O232 O 0.64434 0.67283 0.30128 0.0
N233 N 0.71226 0.78465 0.2862 0.0
C234 C 0.70178 0.8003 0.29346 0.0
C235 C 0.70397 0.81906 0.26753 0.0
C236 C 0.71821 0.82261 0.23548 0.0
C237 C 0.72949 0.8068 0.22912 0.0
C238 C 0.72577 0.7877 0.25525 0.0
H239 H 0.69115 0.79795 0.31834 0.0
O240 O 0.63738 0.71687 0.29908 0.0
O241 O 0.67964 0.73114 0.29946 0.0
O242 O 0.66159 0.73185 0.37249 0.0
O243 O 0.69863 0.76805 0.35844 0.0
C244 C 0.74383 0.80888 0.19752 0.0
C245 C 0.7537 0.79153 0.19225 0.0
H246 H 0.76774 0.75332 0.19012 0.0
H247 H 0.75749 0.7196 0.23823 0.0
H248 H 0.69434 0.83044 0.27202 0.0
H249 H 0.72006 0.83725 0.21571 0.0
H250 H 0.74701 0.82347 0.17682 0.0
H251 H 0.76435 0.79305 0.16758 0.0
Mn252 Mn 0.29892 0.95477 0.35421 0.0
Mn253 Mn 0.3011 0.9008 0.38172 0.0
C254 C 0.26984 0.92714 0.3971 0.0
C255 C 0.3104 0.99903 0.35793 0.0
C256 C 0.28066 0.9059 0.30619 0.0
O257 O 0.33546 0.96169 0.33883 0.0
O258 O 0.33576 0.92716 0.36539 0.0
C259 C 0.33644 0.92202 0.4473 0.0
N260 N 0.31302 0.90418 0.43192 0.0
C261 C 0.29961 0.88066 0.4889 0.0
C262 C 0.32382 0.89845 0.50513 0.0
C263 C 0.34219 0.9194 0.48435 0.0
C264 C 0.29494 0.8844 0.45194 0.0
H265 H 0.35063 0.93812 0.43137 0.0
C266 C 0.34735 0.94911 0.34893 0.0
O267 O 0.30177 0.98584 0.32735 0.0
O268 O 0.31426 0.98721 0.38576 0.0
N269 N 0.26846 0.8737 0.39899 0.0
C270 C 0.24565 0.85907 0.37977 0.0
C271 C 0.22485 0.83785 0.39698 0.0
C272 C 0.22767 0.83202 0.43385 0.0
C273 C 0.25117 0.84759 0.45327 0.0
C274 C 0.27131 0.8683 0.43454 0.0
H275 H 0.24325 0.86371 0.35166 0.0
O276 O 0.26458 0.94286 0.3781 0.0
O277 O 0.2919 0.92824 0.39043 0.0
O278 O 0.28096 0.92717 0.31405 0.0
O279 O 0.28883 0.89483 0.32911 0.0
C280 C 0.25546 0.84328 0.4904 0.0
C281 C 0.27971 0.85975 0.50817 0.0
H282 H 0.32831 0.89649 0.53372 0.0
H283 H 0.36077 0.93342 0.49681 0.0
H284 H 0.20678 0.826 0.38174 0.0
H285 H 0.21176 0.81549 0.44704 0.0
H286 H 0.2402 0.82745 0.5056 0.0
H287 H 0.2827 0.85642 0.53684 0.0
Mn288 Mn 0.04452 0.33802 0.35285 0.0
Mn289 Mn 0.09986 0.39463 0.37437 0.0
C290 C 0.07292 0.33926 0.39897 0.0
C291 C 1.00058 0.30735 0.36049 0.0
C292 C 0.09509 0.36123 0.30854 0.0
O293 O 0.03652 0.36501 0.33042 0.0
O294 O 0.07521 0.40113 0.34348 0.0
C295 C 0.07604 0.41813 0.42134 0.0
N296 N 0.09399 0.41016 0.41679 0.0
C297 C 0.11356 0.42719 0.47662 0.0
C298 C 0.09533 0.43565 0.48189 0.0
C299 C 0.07638 0.43093 0.45422 0.0
C300 C 0.11201 0.41418 0.44352 0.0
H301 H 0.06163 0.41485 0.4 0.0
C302 C 0.052 0.38966 0.32945 0.0
O303 O 0.01226 0.30828 0.33017 0.0
O304 O 0.01394 0.32496 0.38557 0.0
N305 N 0.12539 0.39173 0.40463 0.0
C306 C 0.14112 0.38171 0.39568 0.0
C307 C 0.16031 0.38363 0.42121 0.0
C308 C 0.1637 0.39658 0.45514 0.0
C309 C 0.14781 0.40746 0.46326 0.0
C310 C 0.12867 0.40448 0.43704 0.0
H311 H 0.13893 0.37215 0.36937 0.0
O312 O 0.05716 0.31745 0.382 0.0
O313 O 0.07193 0.35997 0.38828 0.0
O314 O 0.07088 0.34481 0.31212 0.0
O315 O 0.10822 0.3799 0.33141 0.0
C316 C 0.15019 0.4211 0.49637 0.0
C317 C 0.1331 0.43101 0.50302 0.0
H318 H 0.09564 0.44568 0.50712 0.0
H319 H 0.0622 0.43734 0.45811 0.0
H320 H 0.17262 0.37535 0.41462 0.0
H321 H 0.17862 0.39815 0.47467 0.0
H322 H 0.16487 0.42381 0.51711 0.0
H323 H 0.13488 0.44114 0.52879 0.0
Mn324 Mn 0.67284 0.95834 0.33495 0.0
Mn325 Mn 0.73013 0.96296 0.31113 0.0
C326 C 0.67393 0.93024 0.2908 0.0
C327 C 0.64016 0.9695 0.32698 0.0
C328 C 0.7029 0.93741 0.3816 0.0
O329 O 0.69909 0.99466 0.35399 0.0
O330 O 0.73605 0.99556 0.33642 0.0
C331 C 0.7444 0.00477 0.25559 0.0
N332 N 0.73955 0.98019 0.26459 0.0
C333 C 0.74906 0.97239 0.20321 0.0
C334 C 0.75433 0.99768 0.19336 0.0
C335 C 0.75183 0.01387 0.21961 0.0
C336 C 0.74138 0.96427 0.23932 0.0
H337 H 0.74261 0.01734 0.27568 0.0
C338 C 0.72377 0.00611 0.351 0.0
O339 O 0.64331 0.96024 0.35807 0.0
O340 O 0.6565 0.97328 0.3013 0.0
N341 N 0.72745 0.93313 0.28575 0.0
C342 C 0.72258 0.90966 0.30003 0.0
C343 C 0.72434 0.89124 0.2774 0.0
C344 C 0.73108 0.89705 0.24032 0.0
C345 C 0.73678 0.92163 0.22652 0.0
C346 C 0.73509 0.93939 0.25056 0.0
H347 H 0.71759 0.90508 0.32858 0.0
O348 O 0.65272 0.92374 0.30839 0.0
O349 O 0.69379 0.95275 0.29991 0.0
O350 O 0.68386 0.94182 0.37646 0.0
O351 O 0.7212 0.94405 0.35869 0.0
C352 C 0.74456 0.92939 0.19007 0.0
C353 C 0.75074 0.95478 0.17843 0.0
H354 H 0.7601 0.00478 0.16566 0.0
H355 H 0.7557 0.03335 0.21216 0.0
H356 H 0.72093 0.87283 0.28885 0.0
H357 H 0.73237 0.88278 0.2229 0.0
H358 H 0.74586 0.916 0.17078 0.0
H359 H 0.7565 0.96046 0.15027 0.0
Mn360 Mn 0.03475 0.72243 0.34398 0.0
Mn361 Mn 0.08968 0.71965 0.36414 0.0
C362 C 0.06394 0.74971 0.38963 0.0
C363 C 0.99074 0.70879 0.35226 0.0
C364 C 0.08084 0.74217 0.29335 0.0
O365 O 0.02723 0.68686 0.32277 0.0
O366 O 0.06224 0.68441 0.34503 0.0
C367 C 0.07497 0.68301 0.42699 0.0
N368 N 0.09024 0.70722 0.4129 0.0
C369 C 0.11702 0.72126 0.46849 0.0
C370 C 0.10185 0.69619 0.48316 0.0
C371 C 0.08054 0.67707 0.46245 0.0
C372 C 0.11057 0.72591 0.43288 0.0
H373 H 0.05876 0.66848 0.41126 0.0
C374 C 0.04015 0.67464 0.32719 0.0
O375 O 1.00201 0.71945 0.32175 0.0
O376 O 0.00458 0.70501 0.37736 0.0
N377 N 0.117 0.75276 0.38243 0.0
C378 C 0.12924 0.77619 0.36475 0.0
C379 C 0.14914 0.79823 0.38329 0.0
C380 C 0.15658 0.79585 0.41952 0.0
C381 C 0.14454 0.77131 0.43656 0.0
C382 C 0.12441 0.75018 0.41701 0.0
H383 H 0.1236 0.7782 0.33696 0.0
O384 O 0.04775 0.75583 0.3735 0.0
O385 O 0.06277 0.72821 0.37793 0.0
O386 O 0.05973 0.74153 0.3021 0.0
O387 O 0.09257 0.73329 0.31373 0.0
C388 C 0.15145 0.76707 0.47235 0.0
C389 C 0.13785 0.74199 0.48819 0.0
H390 H 0.106 0.69161 0.5106 0.0
H391 H 0.06845 0.65778 0.47375 0.0
H392 H 0.15849 0.81708 0.36985 0.0
H393 H 0.17134 0.81306 0.43412 0.0
H394 H 0.16717 0.78295 0.48794 0.0
H395 H 0.14319 0.73901 0.51585 0.0
Mn396 Mn 0.30877 0.3467 0.33926 0.0
Mn397 Mn 0.25419 0.29036 0.31504 0.0
C398 C 0.28057 0.34666 0.29297 0.0
C399 C 0.35294 0.37693 0.33213 0.0
C400 C 0.26045 0.32081 0.38611 0.0
O401 O 0.31545 0.31783 0.36084 0.0
O402 O 0.28084 0.2821 0.33546 0.0
C403 C 0.27329 0.27066 0.25486 0.0
N404 N 0.25652 0.2786 0.2669 0.0
C405 C 0.23234 0.26625 0.20915 0.0
C406 C 0.24925 0.25776 0.19622 0.0
C407 C 0.26994 0.2602 0.21907 0.0
C408 C 0.23683 0.27678 0.24492 0.0
H409 H 0.28899 0.27213 0.27253 0.0
C410 C 0.30248 0.29308 0.35394 0.0
O411 O 0.34134 0.37576 0.3626 0.0
O412 O 0.3395 0.35949 0.3069 0.0
N413 N 0.22709 0.29579 0.29398 0.0
C414 C 0.21266 0.30509 0.31046 0.0
C415 C 0.19208 0.30543 0.29052 0.0
C416 C 0.18616 0.29564 0.25417 0.0
C417 C 0.20085 0.28553 0.23811 0.0
C418 C 0.22136 0.28606 0.25914 0.0
H419 H 0.21683 0.31225 0.33856 0.0
O420 O 0.29683 0.3683 0.30995 0.0
O421 O 0.28138 0.3259 0.30362 0.0
O422 O 0.28256 0.34054 0.37949 0.0
O423 O 0.24907 0.30059 0.36505 0.0
C424 C 0.19587 0.27485 0.20212 0.0
C425 C 0.2115 0.26508 0.18772 0.0
H426 H 0.24669 0.24962 0.16865 0.0
H427 H 0.28315 0.25383 0.20921 0.0
H428 H 0.18073 0.3131 0.30322 0.0
H429 H 0.17023 0.29587 0.23892 0.0
H430 H 0.18008 0.2741 0.18524 0.0
H431 H 0.20761 0.25711 0.15991 0.0
Mn432 Mn 0.32675 0.03519 0.66534 0.0
Mn433 Mn 0.3827 0.0889 0.64168 0.0
C434 C 0.32656 0.06311 0.61993 0.0
C435 C 0.29515 0.99099 0.65925 0.0
C436 C 0.3544 0.08635 0.71102 0.0
O437 O 0.35489 0.02696 0.68458 0.0
O438 O 0.39086 0.0641 0.66932 0.0
C439 C 0.39491 0.06022 0.58524 0.0
N440 N 0.393 0.08153 0.59558 0.0
C441 C 0.40547 0.10058 0.53551 0.0
C442 C 0.40992 0.08003 0.52539 0.0
C443 C 0.40398 0.05941 0.55007 0.0
C444 C 0.39646 0.10028 0.57097 0.0
H445 H 0.38899 0.04375 0.60345 0.0
C446 C 0.37975 0.04143 0.68427 0.0
O447 O 0.2982 0.0039 0.68965 0.0
O448 O 0.31112 0.00327 0.633 0.0
N449 N 0.37872 0.11515 0.61526 0.0
C450 C 0.37101 0.13206 0.62811 0.0
C451 C 0.37244 0.15209 0.60515 0.0
C452 C 0.38233 0.15486 0.56956 0.0
C453 C 0.39071 0.13762 0.55726 0.0
C454 C 0.38882 0.11806 0.58137 0.0
H455 H 0.36374 0.13025 0.65564 0.0
O456 O 0.30542 0.04813 0.63747 0.0
O457 O 0.347 0.06153 0.63002 0.0
O458 O 0.33611 0.06275 0.70631 0.0
O459 O 0.3728 0.09834 0.68843 0.0
C460 C 0.40079 0.13901 0.52197 0.0
C461 C 0.40824 0.12054 0.51112 0.0
H462 H 0.41664 0.07922 0.49814 0.0
H463 H 0.40603 0.04277 0.5418 0.0
H464 H 0.36609 0.16544 0.61493 0.0
H465 H 0.38356 0.17038 0.55198 0.0
H466 H 0.40244 0.1539 0.50272 0.0
H467 H 0.41521 0.12131 0.48353 0.0
Mn468 Mn 0.96339 0.30454 0.68732 0.0
Mn469 Mn 0.95703 0.24571 0.71141 0.0
C470 C 0.93385 0.27927 0.73192 0.0
C471 C 0.98227 0.35005 0.69302 0.0
C472 C 0.93607 0.25571 0.63929 0.0
O473 O 0.99625 0.30541 0.6673 0.0
O474 O 0.99224 0.2682 0.69228 0.0
C475 C 0.99578 0.26148 0.77309 0.0
N476 N 0.97079 0.24679 0.75999 0.0
C477 C 0.9575 0.22312 0.81687 0.0
C478 C 0.98309 0.23794 0.83097 0.0
C479 C 1.00226 0.25735 0.80907 0.0
C480 C 0.95211 0.22842 0.78104 0.0
H481 H 0.01065 0.27616 0.75614 0.0
C482 C 0.00469 0.28926 0.67387 0.0
O483 O 0.97089 0.33787 0.66256 0.0
O484 O 0.98436 0.33613 0.71951 0.0
N485 N 0.92385 0.22192 0.73121 0.0
C486 C 0.89995 0.20986 0.71395 0.0
C487 C 0.87822 0.19142 0.73321 0.0
C488 C 0.88146 0.18482 0.76946 0.0
C489 C 0.90643 0.19653 0.78603 0.0
C490 C 0.92721 0.21536 0.7659 0.0
H491 H 0.89747 0.21445 0.68586 0.0
O492 O 0.93137 0.29748 0.71488 0.0
O493 O 0.95362 0.27666 0.72265 0.0
O494 O 0.94134 0.27902 0.64656 0.0
O495 O 0.94203 0.24195 0.66063 0.0
C496 C 0.91149 0.1904 0.82182 0.0
C497 C 0.93703 0.2036 0.83717 0.0
H498 H 0.98818 0.23474 0.85866 0.0
H499 H 0.02204 0.26894 0.8198 0.0
H500 H 0.85902 0.18238 0.72016 0.0
H501 H 0.86466 0.17087 0.78445 0.0
H502 H 0.89588 0.17565 0.83786 0.0
H503 H 0.9406 0.19899 0.86491 0.0
Mn504 Mn 0.70359 0.66504 0.67654 0.0
Mn505 Mn 0.75528 0.72194 0.70571 0.0
C506 C 0.733 0.66491 0.72041 0.0
C507 C 0.66025 0.63211 0.6816 0.0
C508 C 0.75538 0.6941 0.63565 0.0
O509 O 0.69355 0.6918 0.65791 0.0
O510 O 0.73022 0.72832 0.67557 0.0
C511 C 0.72366 0.73426 0.75592 0.0
N512 N 0.74424 0.73019 0.75058 0.0
C513 C 0.75436 0.73397 0.81577 0.0
C514 C 0.73335 0.73829 0.8219 0.0
C515 C 0.71792 0.7384 0.79183 0.0
C516 C 0.75887 0.72954 0.77942 0.0
H517 H 0.71158 0.73417 0.73304 0.0
C518 C 0.70769 0.71667 0.6596 0.0
O519 O 0.67244 0.63562 0.65092 0.0
O520 O 0.67267 0.64841 0.70841 0.0
N521 N 0.78159 0.72032 0.73568 0.0
C522 C 0.80375 0.72095 0.7242 0.0
C523 C 0.82295 0.72374 0.75033 0.0
C524 C 0.81938 0.72628 0.78795 0.0
C525 C 0.79711 0.72707 0.7989 0.0
C526 C 0.77905 0.72498 0.77143 0.0
H527 H 0.80679 0.71946 0.69525 0.0
O528 O 0.71777 0.64399 0.70139 0.0
O529 O 0.72997 0.68516 0.71407 0.0
O530 O 0.73131 0.67655 0.63696 0.0
O531 O 0.76707 0.71205 0.66043 0.0
C532 C 0.79274 0.73104 0.83576 0.0
C533 C 0.77117 0.73418 0.84425 0.0
H534 H 0.72897 0.74167 0.84953 0.0
H535 H 0.70163 0.74166 0.79633 0.0
H536 H 0.84043 0.72385 0.74151 0.0
H537 H 0.83412 0.7282 0.80807 0.0
H538 H 0.80609 0.73221 0.8577 0.0
H539 H 0.76809 0.73743 0.87265 0.0
Mn540 Mn 0.33679 0.29273 0.65028 0.0
Mn541 Mn 0.39106 0.29559 0.61908 0.0
C542 C 0.3331 0.25867 0.61328 0.0
C543 C 0.30383 0.30349 0.64757 0.0
C544 C 0.37085 0.27431 0.69288 0.0
O545 O 0.36352 0.33106 0.65865 0.0
O546 O 0.39837 0.32729 0.64849 0.0
C547 C 0.39519 0.33595 0.5658 0.0
N548 N 0.39486 0.3129 0.57283 0.0
C549 C 0.39657 0.3052 0.50803 0.0
C550 C 0.39767 0.32919 0.50026 0.0
C551 C 0.39675 0.34452 0.52928 0.0
C552 C 0.39434 0.29737 0.54491 0.0
H553 H 0.39393 0.3476 0.58776 0.0
C554 C 0.38794 0.34025 0.66078 0.0
O555 O 0.31095 0.29769 0.67872 0.0
O556 O 0.31585 0.3032 0.61825 0.0
N557 N 0.39013 0.2677 0.59063 0.0
C558 C 0.39576 0.24911 0.60359 0.0
C559 C 0.40024 0.23351 0.57867 0.0
C560 C 0.39987 0.23782 0.54061 0.0
C561 C 0.39633 0.25854 0.52805 0.0
C562 C 0.39255 0.27376 0.5544 0.0
H563 H 0.39698 0.24634 0.63289 0.0
O564 O 0.3145 0.25535 0.6348 0.0
O565 O 0.3532 0.28236 0.61299 0.0
O566 O 0.35365 0.28163 0.69159 0.0
O567 O 0.38559 0.27652 0.66605 0.0
C568 C 0.39832 0.26583 0.49072 0.0
C569 C 0.39804 0.28898 0.48066 0.0
H570 H 0.39918 0.336 0.47215 0.0
H571 H 0.3972 0.36289 0.52351 0.0
H572 H 0.40403 0.21826 0.58878 0.0
H573 H 0.40325 0.22571 0.52142 0.0
H574 H 0.40074 0.25415 0.46966 0.0
H575 H 0.39994 0.29463 0.45199 0.0
Mn576 Mn 0.6999 0.05297 0.67299 0.0
Mn577 Mn 0.75264 0.04527 0.68887 0.0
C578 C 0.73135 0.07878 0.71736 0.0
C579 C 0.65668 0.04141 0.68375 0.0
C580 C 0.74533 0.07189 0.62122 0.0
O581 O 0.6893 0.01716 0.64977 0.0
O582 O 0.72306 0.01154 0.66908 0.0
C583 C 0.73599 0.00629 0.74888 0.0
N584 N 0.7524 0.03072 0.73633 0.0
C585 C 0.77978 0.04094 0.79108 0.0
C586 C 0.76292 0.01593 0.80466 0.0
C587 C 0.74084 0.99856 0.78352 0.0
C588 C 0.77367 0.04763 0.75657 0.0
H589 H 0.71961 0.99276 0.73235 0.0
C590 C 0.70064 0.00335 0.65299 0.0
O591 O 0.66768 0.05239 0.65322 0.0
O592 O 0.67045 0.03651 0.70766 0.0
N593 N 0.78219 0.07647 0.70798 0.0
C594 C 0.79688 0.09972 0.69068 0.0
C595 C 0.81952 0.11937 0.70837 0.0
C596 C 0.82702 0.11483 0.74342 0.0
C597 C 0.81178 0.09073 0.76057 0.0
C598 C 0.78936 0.07189 0.74164 0.0
H599 H 0.79148 0.10328 0.66352 0.0
O600 O 0.71557 0.08621 0.70324 0.0
O601 O 0.72815 0.05653 0.70512 0.0
O602 O 0.72454 0.07165 0.63071 0.0
O603 O 0.75612 0.06117 0.6399 0.0
C604 C 0.81821 0.08452 0.79543 0.0
C605 C 0.80229 0.05959 0.8106 0.0
H606 H 0.76671 0.00988 0.83129 0.0
H607 H 0.72777 0.97915 0.79366 0.0
H608 H 0.8313 0.13784 0.69477 0.0
H609 H 0.84474 0.12974 0.75669 0.0
H610 H 0.8354 0.09875 0.81075 0.0
H611 H 0.80742 0.05502 0.83743 0.0
Mn612 Mn 0.96756 0.67295 0.66521 0.0
Mn613 Mn 0.91802 0.61345 0.64194 0.0
C614 C 0.93885 0.6697 0.61879 0.0
C615 C 0.01081 0.7056 0.66032 0.0
C616 C 0.92095 0.64211 0.71331 0.0
O617 O 0.97746 0.64687 0.68789 0.0
O618 O 0.94764 0.60871 0.66061 0.0
C619 C 0.93737 0.59644 0.57889 0.0
N620 N 0.9198 0.60262 0.59284 0.0
C621 C 0.89412 0.5892 0.53631 0.0
C622 C 0.91203 0.58278 0.52138 0.0
C623 C 0.93382 0.58654 0.54273 0.0
C624 C 0.89874 0.59905 0.57251 0.0
H625 H 0.9538 0.59889 0.59532 0.0
C626 C 0.96816 0.62237 0.68096 0.0
O627 O 0.99793 0.70348 0.68984 0.0
O628 O 0.99905 0.6881 0.63446 0.0
N629 N 0.88857 0.6161 0.62338 0.0
C630 C 0.87457 0.62572 0.64033 0.0
C631 C 0.85283 0.62472 0.62196 0.0
C632 C 0.84588 0.61419 0.58609 0.0
C633 C 0.86089 0.60495 0.56882 0.0
C634 C 0.88229 0.60635 0.58858 0.0
H635 H 0.88033 0.6348 0.66726 0.0
O636 O 0.95356 0.69206 0.63532 0.0
O637 O 0.94198 0.65014 0.62954 0.0
O638 O 0.9395 0.66423 0.70352 0.0
O639 O 0.9133 0.62159 0.69342 0.0
C640 C 0.85572 0.59485 0.5325 0.0
C641 C 0.87219 0.58675 0.51638 0.0
H642 H 0.90938 0.5752 0.49345 0.0
H643 H 0.94777 0.58167 0.53143 0.0
H644 H 0.84169 0.63241 0.63523 0.0
H645 H 0.82927 0.61371 0.57185 0.0
H646 H 0.8393 0.59352 0.51658 0.0
H647 H 0.86818 0.57928 0.48829 0.0
H648 H 0.15733 0.32988 0.18027 0.0
H649 H 0.12725 0.32521 0.06945 0.0
H650 H 0.11112 0.36586 0.15467 0.0
H651 H 0.15241 0.2952 0.12737 0.0
H652 H 0.154 0.30606 0.08117 0.0
H653 H 0.18995 0.32229 0.17332 0.0
H654 H 0.26518 0.36335 0.12548 0.0
H655 H 0.19641 0.33153 0.05543 0.0
C656 C 0.14773 0.3357 0.15963 0.0
C657 C 0.13413 0.34832 0.17126 0.0
C658 C 0.14687 0.32874 0.1222 0.0
C659 C 0.13043 0.33301 0.09731 0.0
C660 C 0.11734 0.34645 0.10878 0.0
C661 C 0.12103 0.35553 0.14532 0.0
C662 C 0.15985 0.31308 0.11015 0.0
C663 C 0.18947 0.32795 0.11427 0.0
C664 C 0.20157 0.33098 0.14934 0.0
C665 C 0.22885 0.34413 0.15356 0.0
C666 C 0.2441 0.35384 0.12237 0.0
C667 C 0.23262 0.34787 0.08704 0.0
C668 C 0.20528 0.33593 0.08287 0.0
H669 H 0.68971 0.82377 0.16357 0.0
H670 H 0.687 0.81218 0.04576 0.0
H671 H 0.65116 0.746 0.11745 0.0
H672 H 0.72103 0.85908 0.11832 0.0
H673 H 0.71207 0.85559 0.07048 0.0
H674 H 0.69396 0.86577 0.16495 0.0
H675 H 0.64838 0.89986 0.12455 0.0
H676 H 0.68427 0.87243 0.04792 0.0
C677 C 0.68268 0.81096 0.13963 0.0
C678 C 0.66933 0.78363 0.14458 0.0
C679 C 0.68801 0.82161 0.10383 0.0
C680 C 0.68118 0.80445 0.07319 0.0
C681 C 0.66843 0.7772 0.07842 0.0
C682 C 0.66091 0.76709 0.11365 0.0
C683 C 0.70401 0.85101 0.09866 0.0
C684 C 0.6884 0.86473 0.10561 0.0
C685 C 0.68476 0.87034 0.14207 0.0
C686 C 0.67046 0.88317 0.14898 0.0
C687 C 0.65932 0.88978 0.11928 0.0
C688 C 0.66573 0.88773 0.08312 0.0
C689 C 0.67949 0.8743 0.07601 0.0
H690 H 0.16545 0.8002 0.16753 0.0
H691 H 0.15145 0.78645 0.05152 0.0
H692 H 0.08789 0.75504 0.12719 0.0
H693 H 0.19657 0.79541 0.11887 0.0
H694 H 0.19357 0.80364 0.07277 0.0
H695 H 0.20673 0.82976 0.1707 0.0
H696 H 0.26883 0.90379 0.1364 0.0
H697 H 0.21707 0.8487 0.05491 0.0
C698 C 0.15217 0.79368 0.14397 0.0
C699 C 0.12546 0.77894 0.15014 0.0
C700 C 0.16157 0.79721 0.10797 0.0
C701 C 0.14349 0.78575 0.07816 0.0
C702 C 0.11615 0.7713 0.0834 0.0
C703 C 0.10788 0.76807 0.12028 0.0
C704 C 0.19042 0.80733 0.10178 0.0
C705 C 0.20863 0.83601 0.11168 0.0
C706 C 0.21616 0.84355 0.14884 0.0
C707 C 0.23774 0.86804 0.15799 0.0
C708 C 0.2515 0.88527 0.12968 0.0
C709 C 0.24375 0.87884 0.09276 0.0
C710 C 0.22212 0.85425 0.08368 0.0
H711 H 0.38964 0.21279 0.83558 0.0
H712 H 0.37455 0.2298 0.94484 0.0
H713 H 0.36368 0.26837 0.85062 0.0
H714 H 0.40851 0.20442 0.89795 0.0
H715 H 0.39039 0.2002 0.93838 0.0
H716 H 0.36604 0.17185 0.8397 0.0
H717 H 0.35087 0.09574 0.87113 0.0
H718 H 0.37994 0.15711 0.95266 0.0
C719 C 0.38128 0.22116 0.85368 0.0
C720 C 0.37434 0.23901 0.8389 0.0
C721 C 0.37903 0.21561 0.89166 0.0
C722 C 0.37329 0.23135 0.91517 0.0
C723 C 0.36865 0.25106 0.90043 0.0
C724 C 0.3675 0.25342 0.86218 0.0
C725 C 0.38849 0.19761 0.90786 0.0
C726 C 0.37261 0.16829 0.89841 0.0
C727 C 0.36459 0.15901 0.86175 0.0
C728 C 0.35709 0.13303 0.85199 0.0
C729 C 0.35557 0.11548 0.87914 0.0
C730 C 0.36367 0.12402 0.91543 0.0
C731 C 0.37195 0.15027 0.9251 0.0
H732 H 0.86229 0.18938 0.84667 0.0
H733 H 0.8683 0.19926 0.96487 0.0
H734 H 0.90042 0.26655 0.89483 0.0
H735 H 0.85856 0.15393 0.89164 0.0
H736 H 0.85283 0.15657 0.93896 0.0
H737 H 0.8243 0.14639 0.84281 0.0
H738 H 0.74553 0.10442 0.87974 0.0
H739 H 0.80886 0.13813 0.95916 0.0
C740 C 0.8673 0.20193 0.8708 0.0
C741 C 0.88178 0.2293 0.86668 0.0
C742 C 0.86107 0.19076 0.9062 0.0
C743 C 0.87061 0.20748 0.93751 0.0
C744 C 0.88547 0.2348 0.93323 0.0
C745 C 0.8887 0.24546 0.89799 0.0
C746 C 0.84894 0.1613 0.91058 0.0
C747 C 0.81987 0.14657 0.90195 0.0
C748 C 0.81062 0.14046 0.86503 0.0
C749 C 0.78376 0.12532 0.85687 0.0
C750 C 0.76623 0.11669 0.88586 0.0
C751 C 0.77516 0.11979 0.92247 0.0
C752 C 0.80192 0.1357 0.93071 0.0
H753 H 0.83628 0.63062 0.83868 0.0
H754 H 0.84987 0.62846 0.95587 0.0
H755 H 0.91068 0.64419 0.88039 0.0
H756 H 0.80076 0.59927 0.88468 0.0
H757 H 0.8063 0.60743 0.93228 0.0
H758 H 0.79585 0.62899 0.83941 0.0
H759 H 0.75857 0.6695 0.88466 0.0
H760 H 0.79139 0.63471 0.95656 0.0
C761 C 0.8493 0.63359 0.86199 0.0
C762 C 0.87495 0.63914 0.8555 0.0
C763 C 0.83983 0.62933 0.89816 0.0
C764 C 0.85694 0.6323 0.92797 0.0
C765 C 0.88244 0.63749 0.92145 0.0
C766 C 0.89124 0.64101 0.88538 0.0
C767 C 0.81077 0.61613 0.90427 0.0
C768 C 0.79904 0.63386 0.89866 0.0
C769 C 0.79193 0.63786 0.8628 0.0
C770 C 0.77798 0.65148 0.85726 0.0
C771 C 0.77049 0.6602 0.88835 0.0
C772 C 0.77263 0.65147 0.92342 0.0
C773 C 0.78949 0.64115 0.92918 0.0
H774 H 0.819 0.66579 0.50452 0.0
H775 H 0.79548 0.67154 0.39241 0.0
H776 H 0.76668 0.69552 0.48365 0.0
H777 H 0.81292 0.63273 0.44589 0.0
H778 H 0.81833 0.64814 0.40228 0.0
H779 H 0.84753 0.652 0.49702 0.0
H780 H 0.92599 0.69392 0.45998 0.0
H781 H 0.86246 0.67516 0.38328 0.0
C782 C 0.80904 0.6718 0.48473 0.0
C783 C 0.79367 0.68208 0.49797 0.0
C784 C 0.80996 0.6678 0.44648 0.0
C785 C 0.79549 0.67483 0.42181 0.0
C786 C 0.77959 0.6845 0.43532 0.0
C787 C 0.7791 0.68826 0.4732 0.0
C788 C 0.82245 0.65221 0.43237 0.0
C789 C 0.85158 0.6649 0.44024 0.0
C790 C 0.86097 0.66291 0.47555 0.0
C791 C 0.88782 0.67401 0.48297 0.0
C792 C 0.90527 0.6862 0.45459 0.0
C793 C 0.89623 0.68531 0.41843 0.0
C794 C 0.86944 0.6757 0.41135 0.0
H795 H 0.34629 0.14614 0.4879 0.0
H796 H 0.32969 0.12483 0.37309 0.0
H797 H 0.30339 0.06523 0.45544 0.0
H798 H 0.37036 0.17639 0.43247 0.0
H799 H 0.35366 0.16938 0.38894 0.0
H800 H 0.32399 0.16775 0.4833 0.0
H801 H 0.33482 0.24507 0.46705 0.0
H802 H 0.34492 0.20412 0.37749 0.0
C803 C 0.3356 0.13148 0.4667 0.0
C804 C 0.32301 0.10487 0.47626 0.0
C805 C 0.33555 0.13904 0.42971 0.0
C806 C 0.32655 0.11941 0.40186 0.0
C807 C 0.31642 0.09293 0.41139 0.0
C808 C 0.31191 0.08579 0.44831 0.0
C809 C 0.35062 0.16779 0.41921 0.0
C810 C 0.33933 0.18517 0.4307 0.0
C811 C 0.3309 0.18508 0.46693 0.0
C812 C 0.33055 0.20723 0.4814 0.0
C813 C 0.33561 0.22797 0.45727 0.0
C814 C 0.33766 0.22547 0.41951 0.0
C815 C 0.34126 0.20496 0.40646 0.0
H816 H 0.83348 0.14602 0.5019 0.0
H817 H 0.82191 0.12637 0.38596 0.0
H818 H 0.75862 0.08899 0.45986 0.0
H819 H 0.86831 0.14487 0.45473 0.0
H820 H 0.86425 0.15101 0.40799 0.0
H821 H 0.87278 0.17843 0.50437 0.0
H822 H 0.92728 0.25566 0.47021 0.0
H823 H 0.8861 0.19513 0.38864 0.0
C824 C 0.82077 0.13714 0.47815 0.0
C825 C 0.7945 0.11893 0.48428 0.0
C826 C 0.83088 0.14103 0.44224 0.0
C827 C 0.81407 0.1259 0.41286 0.0
C828 C 0.78836 0.10654 0.41963 0.0
C829 C 0.77825 0.1046 0.45458 0.0
C830 C 0.86012 0.15454 0.43657 0.0
C831 C 0.87508 0.1837 0.4452 0.0
C832 C 0.88063 0.19227 0.48216 0.0
C833 C 0.89863 0.21834 0.49107 0.0
C834 C 0.91203 0.23595 0.46299 0.0
C835 C 0.90827 0.2275 0.4262 0.0
C836 C 0.88862 0.20179 0.41707 0.0
H837 H 0.06111 0.55412 0.17938 0.0
H838 H 0.03057 0.55946 0.28411 0.0
H839 H 0.04379 0.61562 0.19865 0.0
H840 H 0.07384 0.54062 0.24182 0.0
H841 H 0.05407 0.53621 0.28045 0.0
H842 H 0.03383 0.51194 0.17962 0.0
H843 H 0.0144 0.43374 0.20813 0.0
H844 H 0.0422 0.49288 0.29244 0.0
C845 C 0.05321 0.563 0.19745 0.0
C846 C 0.05031 0.58392 0.18444 0.0
C847 C 0.04604 0.55383 0.23351 0.0
C848 C 0.0365 0.56657 0.25644 0.0
C849 C 0.03706 0.58995 0.24505 0.0
C850 C 0.04403 0.59828 0.20871 0.0
C851 C 0.05355 0.53452 0.24984 0.0
C852 C 0.03699 0.50581 0.2384 0.0
C853 C 0.03045 0.49789 0.20098 0.0
C854 C 0.02232 0.47187 0.19019 0.0
C855 C 0.01916 0.45338 0.21683 0.0
C856 C 0.02669 0.461 0.25345 0.0
C857 C 0.03481 0.48688 0.26442 0.0
H858 H 0.53193 0.5171 0.17312 0.0
H859 H 0.53248 0.53131 0.28987 0.0
H860 H 0.56787 0.59596 0.21562 0.0
H861 H 0.52276 0.48233 0.21937 0.0
H862 H 0.52059 0.488 0.26707 0.0
H863 H 0.48656 0.47758 0.17458 0.0
H864 H 0.41041 0.4369 0.22066 0.0
H865 H 0.47825 0.47085 0.2925 0.0
C866 C 0.53588 0.53055 0.19597 0.0
C867 C 0.55022 0.55777 0.19002 0.0
C868 C 0.52806 0.52074 0.23183 0.0
C869 C 0.53612 0.53853 0.26188 0.0
C870 C 0.55112 0.56562 0.25592 0.0
C871 C 0.5561 0.575 0.21993 0.0
C872 C 0.51521 0.49153 0.23885 0.0
C873 C 0.48581 0.4779 0.23412 0.0
C874 C 0.47431 0.47182 0.19843 0.0
C875 C 0.44711 0.4569 0.19347 0.0
C876 C 0.43138 0.44895 0.22445 0.0
C877 C 0.44246 0.4528 0.25997 0.0
C878 C 0.46967 0.46807 0.26497 0.0
H879 H 0.51022 0.96553 0.17202 0.0
H880 H 0.52726 0.97005 0.28898 0.0
H881 H 0.58714 0.98638 0.21144 0.0
H882 H 0.47741 0.93619 0.2188 0.0
H883 H 0.48405 0.94311 0.26653 0.0
H884 H 0.47934 0.97836 0.17979 0.0
H885 H 0.41062 0.97582 0.22204 0.0
H886 H 0.45955 0.95978 0.29388 0.0
C887 C 0.52412 0.97112 0.19491 0.0
C888 C 0.55015 0.97847 0.18772 0.0
C889 C 0.5156 0.96835 0.23151 0.0
C890 C 0.53377 0.97356 0.26078 0.0
C891 C 0.55928 0.97905 0.25352 0.0
C892 C 0.56755 0.98248 0.21711 0.0
C893 C 0.48675 0.95265 0.23915 0.0
C894 C 0.47155 0.96735 0.23705 0.0
C895 C 0.46716 0.97621 0.20284 0.0
C896 C 0.4451 0.97935 0.19712 0.0
C897 C 0.42837 0.97476 0.22644 0.0
C898 C 0.43443 0.96958 0.26169 0.0
C899 C 0.45611 0.9659 0.26707 0.0
H900 H 0.48058 0.98696 0.83899 0.0
H901 H 0.45994 0.99357 0.72587 0.0
H902 H 0.43144 0.02004 0.81491 0.0
H903 H 0.48206 0.95846 0.78297 0.0
H904 H 0.48448 0.97166 0.738 0.0
H905 H 0.51676 0.98515 0.83281 0.0
H906 H 0.59326 0.0329 0.79153 0.0
H907 H 0.52716 1.00095 0.71647 0.0
C908 C 0.4714 0.99349 0.81863 0.0
C909 C 0.45626 0.00426 0.83077 0.0
C910 C 0.47365 0.99025 0.78065 0.0
C911 C 0.45939 0.99695 0.75512 0.0
C912 C 0.44396 0.00757 0.76746 0.0
C913 C 0.44317 0.01175 0.80521 0.0
C914 C 0.48881 0.97712 0.76773 0.0
C915 C 0.51805 0.99382 0.77445 0.0
C916 C 0.52898 0.99588 0.81018 0.0
C917 C 0.55604 0.01043 0.8165 0.0
C918 C 0.57226 0.02263 0.78686 0.0
C919 C 0.56216 0.01779 0.75075 0.0
C920 C 0.53497 0.00455 0.74452 0.0
H921 H 0.02528 0.49062 0.84316 0.0
H922 H 0.02132 0.4826 0.7245 0.0
H923 H 0.9889 0.41424 0.79267 0.0
H924 H 0.05167 0.529 0.80192 0.0
H925 H 0.0456 0.52591 0.75311 0.0
H926 H 0.014 0.52346 0.84279 0.0
H927 H 0.96523 0.55168 0.79287 0.0
H928 H 0.02464 0.5495 0.73184 0.0
C929 C 0.01845 0.47848 0.81848 0.0
C930 C 0.00636 0.45107 0.82178 0.0
C931 C 0.02254 0.49016 0.78338 0.0
C932 C 0.01633 0.47396 0.75159 0.0
C933 C 0.00478 0.44654 0.75523 0.0
C934 C 0.99805 0.4354 0.79004 0.0
C935 C 0.03603 0.51987 0.78021 0.0
C936 C 0.01726 0.5304 0.78493 0.0
C937 C 0.00627 0.52916 0.81955 0.0
C938 C 0.98749 0.53733 0.82425 0.0
C939 C 0.97997 0.54602 0.79236 0.0
C940 C 0.99506 0.55331 0.76081 0.0
C941 C 0.01316 0.54454 0.75647 0.0
H942 H 0.50093 0.47318 0.83281 0.0
H943 H 0.48959 0.45245 0.71793 0.0
H944 H 0.42762 0.41251 0.79223 0.0
H945 H 0.53512 0.46883 0.79036 0.0
H946 H 0.53203 0.473 0.74255 0.0
H947 H 0.54312 0.50467 0.83553 0.0
H948 H 0.59456 0.58072 0.79303 0.0
H949 H 0.54992 0.5164 0.71801 0.0
C950 C 0.4877 0.46369 0.80984 0.0
C951 C 0.46063 0.44762 0.81562 0.0
C952 C 0.49839 0.46559 0.77471 0.0
C953 C 0.48179 0.45093 0.74516 0.0
C954 C 0.45628 0.43123 0.75182 0.0
C955 C 0.44644 0.42927 0.78717 0.0
C956 C 0.52761 0.47799 0.77009 0.0
C957 C 0.54284 0.5074 0.77603 0.0
C958 C 0.55013 0.51758 0.81209 0.0
C959 C 0.5682 0.54411 0.81822 0.0
C960 C 0.57954 0.56051 0.78814 0.0
C961 C 0.57371 0.55051 0.75205 0.0
C962 C 0.55419 0.52426 0.7459 0.0
H963 H 0.67935 0.85345 0.5195 0.0
H964 H 0.65478 0.87534 0.61841 0.0
H965 H 0.70176 0.93337 0.53954 0.0
H966 H 0.64786 0.83099 0.61379 0.0
H967 H 0.62941 0.82573 0.57256 0.0
H968 H 0.64577 0.81314 0.51268 0.0
H969 H 0.67575 0.76086 0.53471 0.0
H970 H 0.66891 0.80513 0.62389 0.0
C971 C 0.67957 0.86778 0.53821 0.0
C972 C 0.69064 0.89364 0.52575 0.0
C973 C 0.66665 0.86065 0.57214 0.0
C974 C 0.66613 0.88056 0.59363 0.0
C975 C 0.67956 0.90708 0.5828 0.0
C976 C 0.69244 0.91331 0.54922 0.0
C977 C 0.64949 0.83205 0.58326 0.0
C978 C 0.65722 0.81228 0.56974 0.0
C979 C 0.65363 0.80465 0.53226 0.0
C980 C 0.66161 0.78722 0.5195 0.0
C981 C 0.66994 0.77464 0.54472 0.0
C982 C 0.67211 0.78053 0.58241 0.0
C983 C 0.66647 0.79996 0.59484 0.0
H984 H 0.19652 0.84232 0.51948 0.0
H985 H 0.19788 0.86202 0.63428 0.0
H986 H 0.23548 0.92288 0.55481 0.0
H987 H 0.18446 0.80905 0.56886 0.0
H988 H 0.18105 0.81682 0.61522 0.0
H989 H 0.15187 0.81023 0.51858 0.0
H990 H 0.07366 0.77256 0.55755 0.0
H991 H 0.1379 0.79918 0.63514 0.0
C992 C 0.20098 0.85687 0.54096 0.0
C993 C 0.21619 0.88356 0.53274 0.0
C994 C 0.19273 0.84893 0.5772 0.0
C995 C 0.20189 0.86799 0.60579 0.0
C996 C 0.21803 0.89463 0.59765 0.0
C997 C 0.22304 0.90228 0.56093 0.0
C998 C 0.17745 0.82002 0.58589 0.0
C999 C 0.14848 0.80857 0.57801 0.0
C1000 C 0.13865 0.80453 0.54129 0.0
C1001 C 0.11162 0.79154 0.53376 0.0
C1002 C 0.09453 0.78336 0.56325 0.0
C1003 C 0.10384 0.7847 0.59943 0.0
C1004 C 0.1308 0.79834 0.60705 0.0
H1005 H 0.17285 0.30421 0.51103 0.0
H1006 H 0.19227 0.31051 0.62736 0.0
H1007 H 0.25096 0.32779 0.54772 0.0
H1008 H 0.14087 0.27652 0.55989 0.0
H1009 H 0.14888 0.28424 0.60737 0.0
H1010 H 0.14774 0.3232 0.52302 0.0
H1011 H 0.07716 0.31936 0.55918 0.0
H1012 H 0.11976 0.29602 0.63232 0.0
C1013 C 0.18728 0.31066 0.53334 0.0
C1014 C 0.21336 0.31876 0.52513 0.0
C1015 C 0.17954 0.30852 0.5704 0.0
C1016 C 0.19826 0.31416 0.59893 0.0
C1017 C 0.22353 0.31962 0.59055 0.0
C1018 C 0.23137 0.32365 0.554 0.0
C1019 C 0.15095 0.29324 0.57969 0.0
C1020 C 0.13623 0.30839 0.57815 0.0
C1021 C 0.13425 0.31973 0.5448 0.0
C1022 C 0.11266 0.32329 0.53743 0.0
C1023 C 0.09447 0.31772 0.56496 0.0
C1024 C 0.09784 0.30958 0.59973 0.0
C1025 C 0.11868 0.30477 0.60642 0.0
C1026 C 1.0016 0.43978 0.09518 0.0
C1027 C 0.02285 0.43514 0.08923 0.0
C1028 C 0.04656 0.46409 0.14146 0.0
C1029 C 0.02374 0.46464 0.15142 0.0
N1030 N 0.97874 0.45184 0.13924 0.0
N1031 N 0.06333 0.43863 0.11238 0.0
C1032 C 1.001 0.45223 0.12859 0.0
C1033 C 0.04485 0.44629 0.11378 0.0
N1034 N 0.98258 0.43331 0.06853 0.0
N1035 N 0.06984 0.48039 0.15885 0.0
H1036 H 0.06193 0.42411 0.09436 0.0
H1037 H 0.0784 0.44441 0.13204 0.0
H1038 H 0.07182 0.49426 0.17851 0.0
H1039 H 0.08749 0.48218 0.15068 0.0
H1040 H 0.96808 0.43854 0.07008 0.0
H1041 H 0.98267 0.42496 0.04326 0.0
H1042 H 0.96069 0.44047 0.12602 0.0
H1043 H 0.97823 0.46194 0.16262 0.0
C1044 C 0.56212 0.57836 0.08854 0.0
C1045 C 0.58956 0.59546 0.09014 0.0
C1046 C 0.591 0.58483 0.15506 0.0
C1047 C 0.56337 0.56893 0.15444 0.0
N1048 N 0.5221 0.55386 0.12221 0.0
N1049 N 0.62845 0.62099 0.1277 0.0
C1050 C 0.54873 0.56647 0.12154 0.0
C1051 C 0.6035 0.60054 0.12427 0.0
N1052 N 0.54895 0.57316 0.05539 0.0
N1053 N 0.60544 0.5843 0.18483 0.0
H1054 H 0.63817 0.63357 0.10613 0.0
H1055 H 0.63858 0.62727 0.15288 0.0
H1056 H 0.59733 0.57111 0.20634 0.0
H1057 H 0.62572 0.59455 0.18626 0.0
H1058 H 0.52965 0.55849 0.05139 0.0
H1059 H 0.55793 0.58237 0.03115 0.0
H1060 H 0.51032 0.55369 0.10024 0.0
H1061 H 0.51168 0.54514 0.14583 0.0
C1062 C 0.41408 0.00498 0.1289 0.0
C1063 C 0.4149 0.99331 0.09507 0.0
C1064 C 0.43537 0.97124 0.12807 0.0
C1065 C 0.43796 0.98612 0.16048 0.0
N1066 N 0.43419 0.02243 0.18684 0.0
N1067 N 0.43255 0.97022 0.06147 0.0
C1068 C 0.4292 0.00484 0.1591 0.0
C1069 C 0.42756 0.978 0.09429 0.0
N1070 N 0.39873 0.01602 0.13407 0.0
N1071 N 0.43803 0.94934 0.12963 0.0
H1072 H 0.42815 0.97579 0.03617 0.0
H1073 H 0.44377 0.96098 0.0596 0.0
H1074 H 0.44103 0.94179 0.15414 0.0
H1075 H 0.43396 0.93681 0.10705 0.0
H1076 H 0.38519 0.01564 0.11459 0.0
H1077 H 0.38519 0.01564 0.11459 0.0
H1078 H 0.44686 0.02537 0.20924 0.0
H1079 H 0.44686 0.02537 0.20924 0.0
C1080 C 0.45298 0.03691 0.91762 0.0
C1081 C 0.43499 0.01492 0.93832 0.0
C1082 C 0.4344 0.98514 0.89036 0.0
C1083 C 0.45268 0.00705 0.87042 0.0
N1084 N 0.48518 0.05264 0.86982 0.0
N1085 N 0.41573 0.96834 0.94957 0.0
C1086 C 0.46402 0.03255 0.88588 0.0
C1087 C 0.42794 0.98908 0.92633 0.0
N1088 N 0.4582 0.06178 0.92628 0.0
N1089 N 0.42222 0.96073 0.87438 0.0
H1090 H 0.4114 0.97039 0.97661 0.0
H1091 H 0.41248 0.94958 0.94337 0.0
H1092 H 0.42674 0.95688 0.84831 0.0
H1093 H 0.40637 0.94468 0.88595 0.0
H1094 H 0.46873 0.0778 0.90934 0.0
H1095 H 0.45011 0.0664 0.94824 0.0
H1096 H 0.49591 0.07124 0.8818 0.0
H1097 H 0.49357 0.04985 0.84643 0.0
C1098 C 0.99033 0.42992 0.92183 0.0
C1099 C 1.00067 0.41262 0.92548 0.0
C1100 C 0.01599 0.42186 0.86234 0.0
C1101 C 0.00463 0.43829 0.85795 0.0
N1102 N 0.974 0.45091 0.87967 0.0
N1103 N 0.01452 0.38508 0.89472 0.0
C1104 C 0.98983 0.44041 0.88664 0.0
C1105 C 0.01076 0.40636 0.89433 0.0
N1106 N 0.98154 0.43685 0.95199 0.0
N1107 N 0.03234 0.42155 0.83644 0.0
H1108 H 0.00979 0.37238 0.91696 0.0
H1109 H 0.01947 0.37823 0.87147 0.0
H1110 H 0.03884 0.4345 0.81441 0.0
H1111 H 0.04192 0.41067 0.83899 0.0
H1112 H 0.97651 0.45162 0.95153 0.0
H1113 H 0.98158 0.4296 0.97823 0.0
H1114 H 0.9607 0.45045 0.89851 0.0
H1115 H 0.97217 0.45757 0.85366 0.0
C1116 C 0.57088 0.56454 0.91888 0.0
C1117 C 0.59812 0.5765 0.9264 0.0
C1118 C 0.60472 0.5639 0.86527 0.0
C1119 C 0.57795 0.55417 0.85617 0.0
N1120 N 0.53623 0.54925 0.87215 0.0
N1121 N 0.64133 0.59538 0.90217 0.0
C1122 C 0.56111 0.55547 0.88244 0.0
C1123 C 0.6152 0.57841 0.89832 0.0
N1124 N 0.55441 0.56182 0.94648 0.0
N1125 N 0.62006 0.55878 0.84287 0.0
H1126 H 0.64939 0.60804 0.92481 0.0
H1127 H 0.65435 0.59913 0.88101 0.0
H1128 H 0.61289 0.54721 0.81903 0.0
H1129 H 0.63915 0.56365 0.85017 0.0
H1130 H 0.53419 0.55054 0.94389 0.0
H1131 H 0.56112 0.5696 0.97282 0.0
H1132 H 0.52392 0.55237 0.889 0.0
H1133 H 0.52853 0.54297 0.84556 0.0
C1134 C 0.98723 0.5832 0.89116 0.0
C1135 C 0.99786 0.57792 0.92341 0.0
C1136 C 0.98845 0.53569 0.89545 0.0
C1137 C 0.98084 0.54322 0.8622 0.0
N1138 N 0.95104 0.55941 0.84957 0.0
N1139 N 1.00026 0.5449 0.96074 0.0
C1140 C 0.97369 0.56283 0.86544 0.0
C1141 C 0.99578 0.55267 0.92715 0.0
N1142 N 0.98855 0.60685 0.88548 0.0
N1143 N 0.98687 0.51171 0.89705 0.0
H1144 H 0.00661 0.55739 0.98361 0.0
H1145 H 0.99736 0.52622 0.96623 0.0
H1146 H 0.97757 0.49808 0.87573 0.0
H1147 H 0.99434 0.50546 0.91867 0.0
H1148 H 0.98123 0.61074 0.86119 0.0
H1149 H 0.99886 0.62299 0.90292 0.0
H1150 H 0.94418 0.57258 0.85382 0.0
H1151 H 0.9379 0.54172 0.83651 0.0
C1152 C 0.41198 0.41518 0.88951 0.0
C1153 C 0.42711 0.42671 0.92222 0.0
C1154 C 0.46084 0.46136 0.88432 0.0
C1155 C 0.44757 0.44624 0.85223 0.0
N1156 N 0.4031 0.42653 0.82935 0.0
N1157 N 0.46048 0.46629 0.95113 0.0
C1158 C 0.42069 0.42843 0.85599 0.0
C1159 C 0.45023 0.45151 0.91986 0.0
N1160 N 0.38979 0.39133 0.88952 0.0
N1161 N 0.48061 0.48646 0.88041 0.0
H1162 H 0.44973 0.46183 0.97508 0.0
H1163 H 0.47832 0.4835 0.95292 0.0
H1164 H 0.48382 0.49599 0.85513 0.0
H1165 H 0.49206 0.49858 0.90203 0.0
H1166 H 0.37973 0.38209 0.8651 0.0
H1167 H 0.38281 0.37972 0.91281 0.0
H1168 H 0.383 0.41514 0.83245 0.0
H1169 H 0.40885 0.43889 0.80655 0.0
C1170 C 0.60141 1.00254 0.88456 0.0
C1171 C 0.59517 0.00999 0.91839 0.0
C1172 C 0.56465 0.0205 0.88502 0.0
C1173 C 0.56822 0.00931 0.85246 0.0
N1174 N 0.5863 0.98493 0.82324 0.0
N1175 N 0.57061 0.02586 0.95157 0.0
C1176 C 0.58554 0.99894 0.85287 0.0
C1177 C 0.57681 0.0191 0.91883 0.0
N1178 N 0.62313 0.99987 0.88222 0.0
N1179 N 0.55057 0.03336 0.88332 0.0
H1180 H 0.57964 0.02568 0.97652 0.0
H1181 H 0.55528 0.02973 0.95448 0.0
H1182 H 0.54159 0.03493 0.85905 0.0
H1183 H 0.5494 0.04422 0.90514 0.0
H1184 H 0.63009 0.99724 0.85736 0.0
H1185 H 0.63594 0.00319 0.9044 0.0
H1186 H 0.59784 0.97604 0.82252 0.0
H1187 H 0.57316 0.97952 0.80089 0.0
C1188 C 0.57468 0.99954 0.0902 0.0
C1189 C 0.58097 0.97978 0.08076 0.0
C1190 C 0.56236 0.95695 0.13835 0.0
C1191 C 0.55864 0.97809 0.14954 0.0
N1192 N 0.56348 0.02082 0.13828 0.0
N1193 N 0.58498 0.94211 0.09838 0.0
C1194 C 0.56531 0.99973 0.12598 0.0
C1195 C 0.57585 0.95906 0.10547 0.0
N1196 N 0.57691 0.01763 0.06458 0.0
N1197 N 0.55252 0.93462 0.15889 0.0
H1198 H 0.5844 0.92844 0.11731 0.0
H1199 H 0.59539 0.94327 0.07492 0.0
H1200 H 0.54239 0.9323 0.18308 0.0
H1201 H 0.55224 0.91753 0.15023 0.0
H1202 H 0.56985 0.03065 0.06817 0.0
H1203 H 0.5841 0.01834 0.0384 0.0
H1204 H 0.57085 0.03847 0.12421 0.0
H1205 H 0.55608 0.02132 0.16393 0.0
C1206 C 0.0253 0.58206 0.08687 0.0
C1207 C 0.04559 0.60616 0.07355 0.0
C1208 C 0.07199 0.61122 0.12947 0.0
C1209 C 0.05037 0.58916 0.14455 0.0
N1210 N 0.00558 0.55443 0.13945 0.0
N1211 N 0.08725 0.64531 0.08337 0.0
C1212 C 0.02691 0.57456 0.12357 0.0
C1213 C 0.06889 0.62105 0.09491 0.0
N1214 N 0.00455 0.56616 0.0643 0.0
N1215 N 0.09537 0.62272 0.1484 0.0
H1216 H 0.08548 0.65348 0.05864 0.0
H1217 H 0.10325 0.6583 0.0996 0.0
H1218 H 0.09795 0.61588 0.17389 0.0
H1219 H 0.11261 0.63739 0.13754 0.0
H1220 H 0.991 0.54691 0.07067 0.0
H1221 H 1.00181 0.57147 0.03788 0.0
H1222 H 0.98694 0.5455 0.12739 0.0
H1223 H 0.00597 0.54762 0.16591 0.0
C1224 C 0.40468 0.40721 0.11969 0.0
C1225 C 0.40969 0.42328 0.08826 0.0
C1226 C 0.4369 0.46231 0.1267 0.0
C1227 C 0.43492 0.44574 0.1566 0.0
N1228 N 0.42103 0.40187 0.17878 0.0
N1229 N 0.43168 0.46607 0.0607 0.0
C1230 C 0.41991 0.41802 0.15231 0.0
C1231 C 0.42599 0.45089 0.09147 0.0
N1232 N 0.38484 0.38178 0.11886 0.0
N1233 N 0.44827 0.4888 0.13229 0.0
H1234 H 0.42395 0.45837 0.03457 0.0
H1235 H 0.44574 0.48585 0.06044 0.0
H1236 H 0.45601 0.49779 0.15781 0.0
H1237 H 0.44806 0.50166 0.11258 0.0
H1238 H 0.37866 0.37009 0.14222 0.0
H1239 H 0.3726 0.37314 0.09588 0.0
H1240 H 0.41163 0.38153 0.17606 0.0
H1241 H 0.4339 0.40876 0.20148 0.0
C1242 C 0.64945 0.76362 0.41952 0.0
C1243 C 0.67519 0.76939 0.41079 0.0
C1244 C 0.69127 0.79611 0.46737 0.0
C1245 C 0.66541 0.78477 0.47974 0.0
N1246 N 0.61935 0.75722 0.46807 0.0
N1247 N 0.72122 0.79067 0.42953 0.0
C1248 C 0.64426 0.76861 0.45581 0.0
C1249 C 0.69642 0.78596 0.43512 0.0
N1250 N 0.63015 0.75411 0.39284 0.0
N1251 N 0.71097 0.81648 0.4868 0.0
H1252 H 0.7269 0.78419 0.40683 0.0
H1253 H 0.73618 0.79954 0.44938 0.0
H1254 H 0.70771 0.82438 0.51056 0.0
H1255 H 0.72986 0.82727 0.47717 0.0
H1256 H 0.6116 0.75155 0.39697 0.0
H1257 H 0.63363 0.75179 0.36542 0.0
H1258 H 0.6034 0.74284 0.45311 0.0
H1259 H 0.6149 0.76099 0.49425 0.0
C1260 C 0.22812 0.89744 0.42954 0.0
C1261 C 0.25543 0.91503 0.431 0.0
C1262 C 0.25681 0.90774 0.49699 0.0
C1263 C 0.2292 0.8923 0.49667 0.0
N1264 N 0.18799 0.87558 0.46346 0.0
N1265 N 0.29383 0.94319 0.46825 0.0
C1266 C 0.2146 0.88782 0.4631 0.0
C1267 C 0.26923 0.92209 0.46536 0.0
N1268 N 0.21521 0.88965 0.39618 0.0
N1269 N 0.27125 0.9083 0.52741 0.0
H1270 H 0.3034 0.95519 0.44612 0.0
H1271 H 0.30361 0.95062 0.49343 0.0
H1272 H 0.26313 0.89587 0.54972 0.0
H1273 H 0.29154 0.91869 0.52878 0.0
H1274 H 0.19596 0.87468 0.39313 0.0
H1275 H 0.22446 0.89658 0.37118 0.0
H1276 H 0.17638 0.87401 0.44045 0.0
H1277 H 0.17746 0.86879 0.48753 0.0
C1278 C 0.08416 0.34965 0.46646 0.0
C1279 C 0.08679 0.3386 0.43314 0.0
C1280 C 0.10628 0.31654 0.46795 0.0
C1281 C 0.10715 0.3307 0.50029 0.0
N1282 N 0.1035 0.36663 0.52662 0.0
N1283 N 0.10661 0.31691 0.40141 0.0
C1284 C 0.0985 0.34944 0.49813 0.0
C1285 C 0.10005 0.32392 0.43361 0.0
N1286 N 0.06688 0.35878 0.46885 0.0
N1287 N 0.1089 0.29462 0.4699 0.0
H1288 H 0.10307 0.32279 0.37579 0.0
H1289 H 0.11821 0.30802 0.40063 0.0
H1290 H 0.11046 0.28636 0.49462 0.0
H1291 H 0.10613 0.28269 0.44702 0.0
H1292 H 0.06289 0.36484 0.4937 0.0
H1293 H 0.05446 0.3577 0.44718 0.0
H1294 H 0.09781 0.38089 0.52604 0.0
H1295 H 0.1156 0.36826 0.54914 0.0
C1296 C 0.12663 0.38034 0.25579 0.0
C1297 C 0.10883 0.35816 0.27644 0.0
C1298 C 0.11148 0.32892 0.2305 0.0
C1299 C 0.12983 0.35106 0.21081 0.0
N1300 N 0.16058 0.39714 0.2104 0.0
N1301 N 0.09201 0.31207 0.28925 0.0
C1302 C 0.13946 0.37653 0.22568 0.0
C1303 C 0.10371 0.33266 0.26566 0.0
N1304 N 0.12996 0.40477 0.26272 0.0
N1305 N 0.1002 0.3044 0.21491 0.0
H1306 H 0.0868 0.314 0.3158 0.0
H1307 H 0.0902 0.29374 0.28394 0.0
H1308 H 0.10517 0.30048 0.18925 0.0
H1309 H 0.08437 0.28822 0.22632 0.0
H1310 H 0.14043 0.42072 0.24565 0.0
H1311 H 0.12029 0.40887 0.28303 0.0
H1312 H 0.17005 0.41591 0.22207 0.0
H1313 H 0.17019 0.39467 0.18823 0.0
C1314 C 0.65104 0.76263 0.24461 0.0
C1315 C 0.66128 0.74525 0.24915 0.0
C1316 C 0.67865 0.75526 0.18711 0.0
C1317 C 0.66731 0.77161 0.18154 0.0
N1318 N 0.63813 0.78655 0.20209 0.0
N1319 N 0.67682 0.71856 0.22019 0.0
C1320 C 0.65218 0.77412 0.20949 0.0
C1321 C 0.67262 0.73955 0.21899 0.0
N1322 N 0.64122 0.76902 0.27416 0.0
N1323 N 0.69591 0.75534 0.16246 0.0
H1324 H 0.67163 0.70576 0.24237 0.0
H1325 H 0.68267 0.71202 0.19753 0.0
H1326 H 0.70276 0.76828 0.14044 0.0
H1327 H 0.7058 0.74483 0.16614 0.0
H1328 H 0.63628 0.78384 0.27367 0.0
H1329 H 0.64026 0.7612 0.30028 0.0
H1330 H 0.62462 0.78663 0.22 0.0
H1331 H 0.63826 0.7949 0.17661 0.0
C1332 C 0.26159 0.86791 0.25752 0.0
C1333 C 0.2711 0.89481 0.26787 0.0
C1334 C 0.25326 0.90105 0.20956 0.0
C1335 C 0.24727 0.87583 0.19695 0.0
N1336 N 0.25405 0.83861 0.20601 0.0
N1337 N 0.28668 0.93833 0.24214 0.0
C1338 C 0.25374 0.8601 0.22004 0.0
C1339 C 0.27009 0.91188 0.24054 0.0
N1340 N 0.25942 0.84944 0.28241 0.0
N1341 N 0.24333 0.91496 0.19191 0.0
H1342 H 0.3026 0.94697 0.26059 0.0
H1343 H 0.28704 0.95088 0.22138 0.0
H1344 H 0.22982 0.90716 0.16996 0.0
H1345 H 0.24646 0.93301 0.20195 0.0
H1346 H 0.24966 0.82946 0.27591 0.0
H1347 H 0.26524 0.85307 0.30991 0.0
H1348 H 0.26111 0.82812 0.22109 0.0
H1349 H 0.2503 0.83315 0.17825 0.0
C1350 C 0.67781 0.9324 0.22244 0.0
C1351 C 0.67252 0.91738 0.25505 0.0
C1352 C 0.66194 0.87819 0.21776 0.0
C1353 C 0.67088 0.89421 0.18615 0.0
N1354 N 0.69158 0.93664 0.1592 0.0
N1355 N 0.6611 0.87627 0.28454 0.0
C1356 C 0.68005 0.92148 0.18901 0.0
C1357 C 0.66487 0.89027 0.25295 0.0
N1358 N 0.6794 0.95652 0.22289 0.0
N1359 N 0.64969 0.85152 0.21395 0.0
H1360 H 0.66307 0.88457 0.31056 0.0
H1361 H 0.65834 0.85728 0.28512 0.0
H1362 H 0.6465 0.84215 0.18841 0.0
H1363 H 0.64059 0.83865 0.23547 0.0
H1364 H 0.6799 0.96673 0.1991 0.0
H1365 H 0.6773 0.96523 0.24654 0.0
H1366 H 0.7005 0.95705 0.15889 0.0
H1367 H 0.7005 0.95705 0.15889 0.0
C1368 C 0.10136 0.77876 0.24728 0.0
C1369 C 0.09177 0.75203 0.25656 0.0
C1370 C 0.10839 0.74472 0.19902 0.0
C1371 C 0.11571 0.77067 0.18807 0.0
N1372 N 0.11666 0.81168 0.19929 0.0
N1373 N 0.08147 0.70828 0.23815 0.0
C1374 C 0.11154 0.78755 0.21155 0.0
C1375 C 0.09403 0.73465 0.23157 0.0
N1376 N 0.1016 0.79592 0.27301 0.0
N1377 N 0.11565 0.72984 0.17864 0.0
H1378 H 0.07027 0.69998 0.26131 0.0
H1379 H 0.07997 0.69435 0.21898 0.0
H1380 H 0.12628 0.73654 0.15461 0.0
H1381 H 0.11329 0.71185 0.18732 0.0
H1382 H 0.11096 0.81614 0.26941 0.0
H1383 H 0.09408 0.79015 0.29925 0.0
H1384 H 0.11132 0.82375 0.2133 0.0
H1385 H 0.12476 0.81894 0.17371 0.0
C1386 C 0.25019 0.35726 0.25552 0.0
C1387 C 0.26789 0.34736 0.25741 0.0
C1388 C 0.2588 0.33425 0.19242 0.0
C1389 C 0.24183 0.34504 0.1898 0.0
N1390 N 0.22581 0.37193 0.21666 0.0
N1391 N 0.29545 0.33487 0.22469 0.0
C1392 C 0.2387 0.35797 0.22078 0.0
C1393 C 0.27422 0.33851 0.22491 0.0
N1394 N 0.24392 0.36545 0.28698 0.0
N1395 N 0.25946 0.31898 0.16442 0.0
H1396 H 0.30782 0.33851 0.2476 0.0
H1397 H 0.30252 0.33106 0.20078 0.0
H1398 H 0.24657 0.31297 0.14174 0.0
H1399 H 0.27057 0.30959 0.16558 0.0
H1400 H 0.22882 0.36981 0.28828 0.0
H1401 H 0.25261 0.36603 0.31255 0.0
H1402 H 0.2251 0.38392 0.23723 0.0
H1403 H 0.21774 0.37349 0.19152 0.0
C1404 C 0.23715 0.33747 0.42659 0.0
C1405 C 0.2477 0.32051 0.42113 0.0
C1406 C 0.22912 0.29848 0.47903 0.0
C1407 C 0.22154 0.31748 0.48695 0.0
N1408 N 0.22015 0.3566 0.46992 0.0
N1409 N 0.25927 0.28948 0.44667 0.0
C1410 C 0.22586 0.33734 0.46104 0.0
C1411 C 0.24508 0.30216 0.44851 0.0
N1412 N 0.23758 0.35338 0.3987 0.0
N1413 N 0.22097 0.27686 0.50073 0.0
H1414 H 0.27293 0.29354 0.42635 0.0
H1415 H 0.25991 0.27756 0.4676 0.0
H1416 H 0.2088 0.27329 0.523 0.0
H1417 H 0.22405 0.26126 0.49433 0.0
H1418 H 0.22769 0.36402 0.39932 0.0
H1419 H 0.24643 0.35453 0.37374 0.0
H1420 H 0.22552 0.37325 0.45406 0.0
H1421 H 0.21134 0.35672 0.49448 0.0
C1422 C 0.67784 0.90041 0.42433 0.0
C1423 C 0.70218 0.9221 0.41501 0.0
C1424 C 0.72072 0.91715 0.47404 0.0
C1425 C 0.69522 0.89979 0.48593 0.0
N1426 N 0.64859 0.87736 0.47326 0.0
N1427 N 0.74765 0.95131 0.43176 0.0
C1428 C 0.67353 0.89172 0.46119 0.0
C1429 C 0.72408 0.93026 0.43972 0.0
N1430 N 0.65881 0.88789 0.39778 0.0
N1431 N 0.74165 0.92111 0.49574 0.0
H1432 H 0.75169 0.961 0.40672 0.0
H1433 H 0.76304 0.96019 0.45095 0.0
H1434 H 0.73951 0.91168 0.52095 0.0
H1435 H 0.76086 0.93157 0.48728 0.0
H1436 H 0.64167 0.87041 0.40241 0.0
H1437 H 0.66148 0.89336 0.37022 0.0
H1438 H 0.63228 0.87384 0.45712 0.0
H1439 H 0.644 0.87096 0.50026 0.0
C1440 C 0.06933 0.74477 0.45727 0.0
C1441 C 0.07604 0.76141 0.4262 0.0
C1442 C 0.1044 0.79918 0.46635 0.0
C1443 C 0.1006 0.78169 0.49584 0.0
N1444 N 0.08346 0.73702 0.51661 0.0
N1445 N 0.1001 0.80463 0.40046 0.0
C1446 C 0.08419 0.75424 0.49044 0.0
C1447 C 0.09353 0.78876 0.43057 0.0
N1448 N 0.04814 0.72012 0.45565 0.0
N1449 N 0.11745 0.82563 0.47288 0.0
H1450 H 0.09224 0.79769 0.37411 0.0
H1451 H 0.11478 0.82416 0.40089 0.0
H1452 H 0.12529 0.83385 0.49874 0.0
H1453 H 0.11881 0.83941 0.45359 0.0
H1454 H 0.04078 0.70828 0.47867 0.0
H1455 H 0.036 0.71253 0.43236 0.0
H1456 H 0.07252 0.71673 0.51359 0.0
H1457 H 0.09621 0.74278 0.53943 0.0
C1458 C 0.37803 0.11069 0.76873 0.0
C1459 C 0.35527 0.10024 0.74566 0.0
C1460 C 0.33371 0.11369 0.79118 0.0
C1461 C 0.35703 0.12536 0.81293 0.0
N1462 N 0.40338 0.14145 0.81745 0.0
N1463 N 0.31339 0.0966 0.73109 0.0
C1464 C 0.37987 0.12605 0.79993 0.0
C1465 C 0.33361 0.10314 0.75574 0.0
N1466 N 0.39722 0.10455 0.76236 0.0
N1467 N 0.31157 0.11212 0.80478 0.0
H1468 H 0.31287 0.08923 0.70476 0.0
H1469 H 0.29829 0.10063 0.73548 0.0
H1470 H 0.31141 0.12066 0.82994 0.0
H1471 H 0.29322 0.10119 0.79219 0.0
H1472 H 0.41286 0.10938 0.78069 0.0
H1473 H 0.39619 0.09218 0.74096 0.0
H1474 H 0.42102 0.14454 0.80714 0.0
H1475 H 0.40555 0.15339 0.84006 0.0
C1476 C 0.8919 0.25222 0.76603 0.0
C1477 C 0.91956 0.26764 0.76622 0.0
C1478 C 0.92201 0.2564 0.83034 0.0
C1479 C 0.8943 0.2414 0.83118 0.0
N1480 N 0.85261 0.22885 0.80171 0.0
N1481 N 0.96021 0.28951 0.8015 0.0
C1482 C 0.8791 0.24035 0.79947 0.0
C1483 C 0.93421 0.27152 0.79935 0.0
N1484 N 0.87801 0.24816 0.73367 0.0
N1485 N 0.93771 0.25622 0.85842 0.0
H1486 H 0.97004 0.30248 0.78034 0.0
H1487 H 0.97157 0.29252 0.82546 0.0
H1488 H 0.93119 0.24391 0.88115 0.0
H1489 H 0.93119 0.24391 0.88115 0.0
H1490 H 0.85821 0.23477 0.73055 0.0
H1491 H 0.88673 0.25687 0.709 0.0
H1492 H 0.84056 0.22959 0.78084 0.0
H1493 H 0.84269 0.22012 0.82568 0.0
C1494 C 0.73152 0.65576 0.78754 0.0
C1495 C 0.74568 0.66216 0.75461 0.0
C1496 C 0.78162 0.66035 0.78767 0.0
C1497 C 0.76667 0.65262 0.82017 0.0
N1498 N 0.72267 0.63029 0.84275 0.0
N1499 N 0.78055 0.66231 0.72087 0.0
C1500 C 0.74014 0.64649 0.81768 0.0
C1501 C 0.76942 0.66144 0.75375 0.0
N1502 N 0.7096 0.658 0.79018 0.0
N1503 N 0.80761 0.6681 0.78923 0.0
H1504 H 0.77321 0.66525 0.69601 0.0
H1505 H 0.79624 0.65893 0.71831 0.0
H1506 H 0.81807 0.6708 0.8139 0.0
H1507 H 0.81948 0.67471 0.7664 0.0
H1508 H 0.70016 0.65557 0.81504 0.0
H1509 H 0.70234 0.66463 0.76874 0.0
H1510 H 0.70274 0.6238 0.84035 0.0
H1511 H 0.72761 0.62061 0.86288 0.0
C1512 C 0.76609 0.66662 0.59393 0.0
C1513 C 0.77048 0.69196 0.60453 0.0
C1514 C 0.79979 0.7106 0.55244 0.0
C1515 C 0.79056 0.68503 0.53792 0.0
N1516 N 0.76338 0.63822 0.54372 0.0
N1517 N 0.79096 0.73853 0.5915 0.0
C1518 C 0.77363 0.66287 0.5586 0.0
C1519 C 0.78764 0.71423 0.58362 0.0
N1520 N 0.75508 0.6461 0.61778 0.0
N1521 N 0.81993 0.73142 0.53582 0.0
H1522 H 0.78236 0.7425 0.61343 0.0
H1523 H 0.80067 0.75458 0.5743 0.0
H1524 H 0.82901 0.72909 0.51287 0.0
H1525 H 0.82925 0.75036 0.54691 0.0
H1526 H 0.75402 0.62806 0.61284 0.0
H1527 H 0.74948 0.64781 0.64415 0.0
H1528 H 0.74824 0.62169 0.55562 0.0
H1529 H 0.76866 0.63442 0.5182 0.0
C1530 C 0.33261 0.06574 0.55194 0.0
C1531 C 0.32514 0.07422 0.58372 0.0
C1532 C 0.31424 0.10212 0.54486 0.0
C1533 C 0.32527 0.09629 0.51428 0.0
N1534 N 0.35063 0.07733 0.4914 0.0
N1535 N 0.31025 0.10175 0.61141 0.0
C1536 C 0.33623 0.07957 0.51873 0.0
C1537 C 0.31624 0.09274 0.58048 0.0
N1538 N 0.3353 0.04383 0.55292 0.0
N1539 N 0.30085 0.11548 0.53964 0.0
H1540 H 0.31121 0.09503 0.63774 0.0
H1541 H 0.3065 0.11738 0.61138 0.0
H1542 H 0.29851 0.12215 0.51393 0.0
H1543 H 0.29022 0.11808 0.56013 0.0
H1544 H 0.3381 0.03536 0.52947 0.0
H1545 H 0.3318 0.0323 0.57625 0.0
H1546 H 0.35968 0.06592 0.49353 0.0
H1547 H 0.35616 0.08929 0.46827 0.0
C1548 C 0.94302 0.24614 0.57507 0.0
C1549 C 0.92566 0.24554 0.60187 0.0
C1550 C 0.8901 0.22826 0.55536 0.0
C1551 C 0.90704 0.2262 0.53002 0.0
N1552 N 0.94762 0.22666 0.51928 0.0
N1553 N 0.88222 0.23451 0.61906 0.0
C1554 C 0.93288 0.23308 0.54101 0.0
C1555 C 0.89897 0.23604 0.59252 0.0
N1556 N 0.96934 0.26066 0.58113 0.0
N1557 N 0.86605 0.22386 0.54355 0.0
H1558 H 0.88845 0.24141 0.64593 0.0
H1559 H 0.86206 0.22508 0.61508 0.0
H1560 H 0.85899 0.2182 0.51656 0.0
H1561 H 0.85384 0.22763 0.55965 0.0
H1562 H 0.98284 0.26365 0.56098 0.0
H1563 H 0.97754 0.27226 0.60468 0.0
H1564 H 0.96575 0.22923 0.52787 0.0
H1565 H 0.94061 0.21624 0.49448 0.0
C1566 C 0.33408 0.21958 0.58543 0.0
C1567 C 0.32694 0.23936 0.58287 0.0
C1568 C 0.30637 0.22088 0.52298 0.0
C1569 C 0.32243 0.20928 0.51983 0.0
N1570 N 0.34635 0.19162 0.55499 0.0
N1571 N 0.30254 0.2565 0.54952 0.0
C1572 C 0.33421 0.20622 0.55294 0.0
C1573 C 0.31152 0.23904 0.552 0.0
N1574 N 0.34158 0.21398 0.6185 0.0
N1575 N 0.28682 0.21497 0.49745 0.0
H1576 H 0.3054 0.2698 0.57046 0.0
H1577 H 0.29367 0.25879 0.52566 0.0
H1578 H 0.28268 0.20112 0.47655 0.0
H1579 H 0.27335 0.22155 0.49946 0.0
H1580 H 0.34643 0.19913 0.62147 0.0
H1581 H 0.34266 0.22408 0.64261 0.0
H1582 H 0.34881 0.18183 0.53293 0.0
H1583 H 0.34881 0.18183 0.53293 0.0
C1584 C 0.7651 0.11143 0.5794 0.0
C1585 C 0.75781 0.08474 0.58629 0.0
C1586 C 0.78119 0.08422 0.53184 0.0
C1587 C 0.78512 0.10933 0.52194 0.0
N1588 N 0.77879 0.14618 0.53421 0.0
N1589 N 0.75402 0.04409 0.56395 0.0
C1590 C 0.77654 0.12283 0.54517 0.0
C1591 C 0.76452 0.07067 0.56109 0.0
N1592 N 0.76218 0.12622 0.60597 0.0
N1593 N 0.79375 0.07347 0.51356 0.0
H1594 H 0.74064 0.03308 0.58394 0.0
H1595 H 0.7563 0.03262 0.54403 0.0
H1596 H 0.80706 0.08347 0.49303 0.0
H1597 H 0.79329 0.05616 0.52165 0.0
H1598 H 0.76966 0.1464 0.60391 0.0
H1599 H 0.75431 0.11882 0.63155 0.0
H1600 H 0.77021 0.1555 0.54794 0.0
H1601 H 0.7879 0.15539 0.50995 0.0
C1602 C 0.92933 0.66061 0.5511 0.0
C1603 C 0.92393 0.66888 0.58492 0.0
C1604 C 0.89517 0.6818 0.55186 0.0
C1605 C 0.89812 0.6704 0.51908 0.0
N1606 N 0.91334 0.64361 0.48965 0.0
N1607 N 0.89984 0.68521 0.61853 0.0
C1608 C 0.91369 0.65804 0.51948 0.0
C1609 C 0.90626 0.67885 0.58561 0.0
N1610 N 0.95022 0.65657 0.54852 0.0
N1611 N 0.88311 0.69667 0.55047 0.0
H1612 H 0.90759 0.68342 0.64382 0.0
H1613 H 0.88497 0.68981 0.62114 0.0
H1614 H 0.87518 0.69978 0.52624 0.0
H1615 H 0.88292 0.70783 0.57265 0.0
H1616 H 0.95647 0.65312 0.52357 0.0
H1617 H 0.96305 0.65935 0.57053 0.0
H1618 H 0.92349 0.63324 0.48899 0.0
H1619 H 0.9006 0.63957 0.46705 0.0
C1620 C 0.92197 0.65999 0.77737 0.0
C1621 C 0.9082 0.64026 0.74972 0.0
C1622 C 0.87288 0.61794 0.79399 0.0
C1623 C 0.88461 0.64027 0.81755 0.0
N1624 N 0.91788 0.6854 0.8265 0.0
N1625 N 0.86623 0.60185 0.73181 0.0
C1626 C 0.9082 0.66233 0.80727 0.0
C1627 C 0.88238 0.61966 0.75782 0.0
N1628 N 0.94852 0.67502 0.77746 0.0
N1629 N 0.85359 0.59449 0.8065 0.0
H1630 H 0.87092 0.6006 0.7049 0.0
H1631 H 0.84653 0.58917 0.73642 0.0
H1632 H 0.84664 0.5918 0.83321 0.0
H1633 H 0.84656 0.577 0.79157 0.0
H1634 H 0.95908 0.68832 0.79866 0.0
H1635 H 0.96026 0.67134 0.76018 0.0
H1636 H 0.93417 0.70257 0.81811 0.0
H1637 H 0.90804 0.68792 0.84833 0.0
C1638 C 0.39689 0.27499 0.74912 0.0
C1639 C 0.3733 0.26245 0.72775 0.0
C1640 C 0.3517 0.23129 0.77759 0.0
C1641 C 0.37519 0.24398 0.79884 0.0
N1642 N 0.42141 0.27373 0.80315 0.0
N1643 N 0.32942 0.22635 0.71875 0.0
C1644 C 0.39827 0.26438 0.78386 0.0
C1645 C 0.35109 0.23979 0.74108 0.0
N1646 N 0.41727 0.29812 0.73759 0.0
N1647 N 0.32967 0.21189 0.7931 0.0
H1648 H 0.3274 0.23278 0.69277 0.0
H1649 H 0.31394 0.20798 0.7249 0.0
H1650 H 0.3298 0.20415 0.81901 0.0
H1651 H 0.31105 0.20419 0.78127 0.0
H1652 H 0.43376 0.30981 0.7539 0.0
H1653 H 0.41697 0.3069 0.71268 0.0
H1654 H 0.4394 0.28673 0.79229 0.0
H1655 H 0.42288 0.26673 0.82906 0.0
C1656 C 0.74128 0.07569 0.78406 0.0
C1657 C 0.74639 0.09119 0.75197 0.0
C1658 C 0.77642 0.13037 0.78849 0.0
C1659 C 0.77349 0.11412 0.81922 0.0
N1660 N 0.75864 0.07041 0.84235 0.0
N1661 N 0.7711 0.13293 0.72227 0.0
C1662 C 0.7577 0.08646 0.81562 0.0
C1663 C 0.76469 0.11847 0.75376 0.0
N1664 N 0.72007 0.05109 0.78517 0.0
N1665 N 0.78914 0.15703 0.7928 0.0
H1666 H 0.7627 0.12489 0.69658 0.0
H1667 H 0.78634 0.15218 0.72109 0.0
H1668 H 0.79749 0.16644 0.81787 0.0
H1669 H 0.78958 0.16976 0.77237 0.0
H1670 H 0.71418 0.04013 0.80922 0.0
H1671 H 0.7066 0.04268 0.76337 0.0
H1672 H 0.74804 0.05003 0.84075 0.0
H1673 H 0.77237 0.07741 0.86406 0.0
C1674 C 0.08239 0.36049 0.02837 0.0
C1675 C 0.06293 0.36275 0.04762 0.0
C1676 C 0.07318 0.34337 0.10068 0.0
C1677 C 0.09738 0.34901 0.0851 0.0
N1678 N 0.12611 0.36727 0.03332 0.0
N1679 N 0.04205 0.3586 0.10599 0.0
C1680 C 0.10237 0.3587 0.04855 0.0
C1681 C 0.05871 0.35462 0.08489 0.0
N1682 N 0.08056 0.35776 0.99104 0.0
N1683 N 0.06372 0.3269 0.12997 0.0
H1684 H 0.03209 0.36813 0.09647 0.0
H1685 H 0.04034 0.35481 0.1342 0.0
H1686 H 0.07284 0.31676 0.14053 0.0
H1687 H 0.04536 0.32101 0.14051 0.0
H1688 H 0.09371 0.35472 0.97592 0.0
H1689 H 0.06354 0.35426 0.97672 0.0
H1690 H 0.13042 0.37591 0.00736 0.0
H1691 H 0.14209 0.36843 0.04791 0.0
C1692 C 0.63477 0.71524 0.02424 0.0
C1693 C 0.65493 0.70852 0.0234 0.0
C1694 C 0.68667 0.75225 0.04655 0.0
C1695 C 0.66622 0.75835 0.04941 0.0
N1696 N 0.62341 0.74974 0.03104 0.0
N1697 N 0.70077 0.72268 0.02253 0.0
C1698 C 0.64117 0.74121 0.03438 0.0
C1699 C 0.68119 0.72779 0.03083 0.0
N1700 N 0.60934 0.69641 0.01816 0.0
N1701 N 0.71087 0.76911 0.06106 0.0
H1702 H 0.69712 0.70505 0.01029 0.0
H1703 H 0.72047 0.73665 0.02437 0.0
H1704 H 0.71585 0.78766 0.07132 0.0
H1705 H 0.72563 0.76431 0.06445 0.0
H1706 H 0.59362 0.69947 0.02253 0.0
H1707 H 0.60363 0.67705 0.01115 0.0
H1708 H 0.60533 0.7391 0.0176 0.0
H1709 H 0.62802 0.76876 0.03873 0.0
C1710 C 0.28253 0.94363 0.04518 0.0
C1711 C 0.30407 0.94119 0.03337 0.0
C1712 C 0.28177 0.89469 0.05105 0.0
C1713 C 0.2609 0.89755 0.06455 0.0
N1714 N 0.23808 0.92196 0.06732 0.0
N1715 N 0.32206 0.91313 0.01788 0.0
C1716 C 0.2602 0.92118 0.05901 0.0
C1717 C 0.30281 0.91623 0.03351 0.0
N1718 N 0.28381 0.96758 0.04395 0.0
N1719 N 0.28244 0.872 0.05765 0.0
H1720 H 0.33915 0.9285 0.00786 0.0
H1721 H 0.32047 0.89491 0.01269 0.0
H1722 H 0.26698 0.85545 0.06903 0.0
H1723 H 0.29871 0.86982 0.05369 0.0
H1724 H 0.27025 0.97165 0.05577 0.0
H1725 H 0.29915 0.9839 0.03189 0.0
H1726 H 0.23517 0.9378 0.06179 0.0
H1727 H 0.22158 0.90563 0.07725 0.0
C1728 C 0.35665 0.07321 0.98759 0.0
C1729 C 0.37582 0.06721 0.97499 0.0
C1730 C 0.39028 0.1027 0.93047 0.0
C1731 C 0.36931 0.1068 0.93977 0.0
N1732 N 0.33061 0.09426 0.97436 0.0
N1733 N 0.4058 0.07152 0.92789 0.0
C1734 C 0.35191 0.09159 0.96764 0.0
C1735 C 0.3912 0.08065 0.94455 0.0
N1736 N 0.34363 0.06204 0.01909 0.0
N1737 N 0.40955 0.12014 0.90848 0.0
H1738 H 0.40551 0.05428 0.93604 0.0
H1739 H 0.4156 0.0792 0.90349 0.0
H1740 H 0.41 0.13713 0.89876 0.0
H1741 H 0.42644 0.11926 0.90341 0.0
H1742 H 0.33145 0.06768 0.03176 0.0
H1743 H 0.34641 0.04832 0.03403 0.0
H1744 H 0.31567 0.08178 0.99144 0.0
H1745 H 0.32717 0.10813 0.961 0.0
C1746 C 0.94745 0.27958 0.98674 0.0
C1747 C 0.94272 0.30082 0.99211 0.0
C1748 C 0.89641 0.27211 0.97596 0.0
C1749 C 0.90234 0.25288 0.96331 0.0
N1750 N 0.9331 0.23714 0.95802 0.0
N1751 N 0.9127 0.31785 0.99161 0.0
C1752 C 0.92761 0.25599 0.96994 0.0
C1753 C 0.91705 0.2971 0.98756 0.0
N1754 N 0.97086 0.28199 -0.00204 0.0
N1755 N 0.87099 0.26645 0.97584 0.0
H1756 H 0.92722 0.33656 -0.00035 0.0
H1757 H 0.89509 0.31706 0.98455 0.0
H1758 H 0.85581 0.24816 0.96719 0.0
H1759 H 0.8648 0.27865 0.98743 0.0
H1760 H 0.9748 0.26649 -0.00196 0.0
H1761 H 0.98566 0.29907 0.01041 0.0
H1762 H 0.95188 0.23975 0.95725 0.0
H1763 H 0.91892 0.21916 0.9471 0.0
C1764 C 0.72524 0.65815 0.98716 0.0
C1765 C 0.70286 0.63307 0.98165 0.0
C1766 C 0.72894 0.61866 0.94681 0.0
C1767 C 0.75044 0.64469 0.94833 0.0
N1768 N 0.76864 0.68982 0.96733 0.0
N1769 N 0.68264 0.59034 0.95164 0.0
C1770 C 0.74846 0.66462 0.96785 0.0
C1771 C 0.70461 0.61349 0.96067 0.0
N1772 N 0.72466 0.67532 0.01208 0.0
N1773 N 0.73133 0.59863 0.93144 0.0
H1774 H 0.66416 0.58492 0.96102 0.0
H1775 H 0.68209 0.57727 0.93172 0.0
H1776 H 0.74711 0.60112 0.91631 0.0
H1777 H 0.71799 0.57891 0.93555 0.0
H1778 H 0.74099 0.69295 0.01992 0.0
H1779 H 0.7083 0.67081 0.02754 0.0
H1780 H 0.76732 0.70582 0.97714 0.0
H1781 H 0.78635 0.69485 0.95516 0.0
C1782 C 0.94396 0.65959 0.97922 0.0
C1783 C 0.94337 0.63519 0.98201 0.0
C1784 C 0.89774 0.61214 0.96027 0.0
C1785 C 0.89996 0.63672 0.95102 0.0
N1786 N 0.92332 0.68381 0.95449 0.0
N1787 N 0.91994 0.58802 0.97842 0.0
C1788 C 0.92238 0.66048 0.96213 0.0
C1789 C 0.92008 0.61133 0.97431 0.0
N1790 N 0.9653 0.68175 0.99257 0.0
N1791 N 0.87445 0.58965 0.95471 0.0
H1792 H 0.93557 0.58674 0.99036 0.0
H1793 H 0.9049 0.57002 0.96899 0.0
H1794 H 0.85794 0.58954 0.94357 0.0
H1795 H 0.87072 0.57125 0.96364 0.0
H1796 H 0.9666 0.70011 0.99371 0.0
H1797 H 0.98122 0.68131 0.00515 0.0
H1798 H 0.93991 0.70206 0.95798 0.0
H1799 H 0.90721 0.68475 0.94368 0.0
C1800 C 0.39368 0.32105 0.93121 0.0
C1801 C 0.3746 0.31887 0.95629 0.0
C1802 C 0.35039 0.27114 0.9449 0.0
C1803 C 0.37115 0.27335 0.92333 0.0
N1804 N 0.41545 0.2998 0.90365 0.0
N1805 N 0.33661 0.29115 0.99158 0.0
C1806 C 0.39369 0.29815 0.91891 0.0
C1807 C 0.3533 0.29371 0.96433 0.0
N1808 N 0.4115 0.34507 0.91825 0.0
N1809 N 0.32781 0.2477 0.94626 0.0
H1810 H 0.3382 0.30708 0.00652 0.0
H1811 H 0.32244 0.27307 0.00126 0.0
H1812 H 0.32548 0.23079 0.93318 0.0
H1813 H 0.31096 0.24549 0.95824 0.0
H1814 H 0.4241 0.34747 0.89704 0.0
H1815 H 0.41185 0.36241 0.92582 0.0
H1816 H 0.43325 0.31716 0.90307 0.0
H1817 H 0.41657 0.28337 0.89517 0.0
C1818 C 0.72971 0.05653 0.97051 0.0
C1819 C 0.70907 0.06165 0.97756 0.0
C1820 C 0.73749 0.1082 0.96323 0.0
C1821 C 0.75625 0.10206 0.94995 0.0
N1822 N 0.77118 0.07078 0.94152 0.0
N1823 N 0.69274 0.09217 0.98103 0.0
C1824 C 0.75288 0.07643 0.9545 0.0
C1825 C 0.71297 0.08758 0.97479 0.0
N1826 N 0.72713 0.03268 0.97947 0.0
N1827 N 0.7432 0.13382 0.9642 0.0
H1828 H 0.67463 0.07772 0.98992 0.0
H1829 H 0.6933 0.10988 0.97541 0.0
H1830 H 0.76111 0.14903 0.95576 0.0
H1831 H 0.73144 0.14023 0.97627 0.0
H1832 H 0.74226 0.02835 0.97833 0.0
H1833 H 0.71033 0.0178 0.99119 0.0
H1834 H 0.76839 0.05184 0.93923 0.0
H1835 H 0.78894 0.08507 0.93137 0.0
C1836 C 0.63386 0.91006 0.00949 0.0
C1837 C 0.64399 0.93684 0.02149 0.0
C1838 C 0.67571 0.93162 0.06049 0.0
C1839 C 0.66168 0.90414 0.05516 0.0
N1840 N 0.6254 0.8665 0.02672 0.0
N1841 N 0.66979 0.96883 0.06964 0.0
C1842 C 0.6402 0.89312 0.03017 0.0
C1843 C 0.66392 0.94671 0.04976 0.0
N1844 N 0.61912 0.90071 0.97786 0.0
N1845 N 0.6997 0.94311 0.0776 0.0
H1846 H 0.65857 0.97809 0.06848 0.0
H1847 H 0.68313 0.97535 0.09185 0.0
H1848 H 0.70871 0.93232 0.08589 0.0
H1849 H 0.71139 0.96343 0.08006 0.0
H1850 H 0.61354 0.8822 0.96685 0.0
H1851 H 0.61518 0.91218 0.96007 0.0
H1852 H 0.60757 0.85733 0.01224 0.0
H1853 H 0.63018 0.85365 0.04036 0.0
C1854 C 0.09182 0.72668 -0.0002 0.0
C1855 C 0.06837 0.70612 0.01512 0.0
C1856 C 0.07037 0.73817 0.06029 0.0
C1857 C 0.09676 0.75506 0.05255 0.0
N1858 N 0.12138 0.77369 -0.0015 0.0
N1859 N 0.03853 0.69304 0.06651 0.0
C1860 C 0.10472 0.75189 0.01742 0.0
C1861 C 0.05814 0.71215 0.04673 0.0
N1862 N 0.10232 0.72249 0.96917 0.0
N1863 N 0.05653 0.74749 0.07835 0.0
H1864 H 0.03147 0.67306 0.06227 0.0
H1865 H 0.03206 0.69725 0.09077 0.0
H1866 H 0.06497 0.76729 0.08579 0.0
H1867 H 0.03649 0.73619 0.0821 0.0
H1868 H 0.12098 0.73574 0.9605 0.0
H1869 H 0.09332 0.70548 0.95333 0.0
H1870 H 0.12606 0.7733 0.97107 0.0
H1871 H 0.12747 0.79248 0.00905 0.0
C1872 C 0.29124 0.38221 0.02863 0.0
C1873 C 0.29733 0.36173 0.02325 0.0
C1874 C 0.25547 0.32996 0.04914 0.0
C1875 C 0.25003 0.35066 0.05618 0.0
N1876 N 0.25835 0.39423 0.04355 0.0
N1877 N 0.28265 0.31555 0.01867 0.0
C1878 C 0.26643 0.37601 0.04244 0.0
C1879 C 0.27849 0.33536 0.03027 0.0
N1880 N 0.30978 0.40776 0.02335 0.0
N1881 N 0.23941 0.30551 0.06254 0.0
H1882 H 0.29928 0.31905 0.00456 0.0
H1883 H 0.26875 0.29576 0.01995 0.0
H1884 H 0.22182 0.30059 0.07496 0.0
H1885 H 0.244 0.29045 0.0629 0.0
H1886 H 0.30754 0.42367 0.03094 0.0
H1887 H 0.32827 0.41336 0.01368 0.0
H1888 H 0.26821 0.41254 0.03123 0.0
H1889 H 0.24025 0.38984 0.05386 0.0
C1890 C 0.71769 0.67595 0.38781 0.0
C1891 C 0.72356 0.70273 0.38599 0.0
C1892 C 0.7679 0.71693 0.4102 0.0
C1893 C 0.7624 0.69059 0.41135 0.0
N1894 N 0.73357 0.64493 0.39745 0.0
N1895 N 0.75005 0.74611 0.41181 0.0
C1896 C 0.73777 0.67008 0.39873 0.0
C1897 C 0.74762 0.72255 0.40159 0.0
N1898 N 0.69259 0.65608 0.38306 0.0
N1899 N 0.79276 0.73669 0.41736 0.0
H1900 H 0.73423 0.74945 0.41072 0.0
H1901 H 0.76622 0.76061 0.42623 0.0
H1902 H 0.80814 0.73311 0.42346 0.0
H1903 H 0.79856 0.75643 0.41347 0.0
H1904 H 0.68678 0.63628 0.38557 0.0
H1905 H 0.67659 0.65897 0.38246 0.0
H1906 H 0.71751 0.6294 0.38438 0.0
H1907 H 0.74727 0.63978 0.40689 0.0
C1908 C 0.33701 0.04787 0.36623 0.0
C1909 C 0.31226 0.02515 0.3624 0.0
C1910 C 0.29122 0.05165 0.37449 0.0
C1911 C 0.31574 0.07286 0.38548 0.0
N1912 N 0.3625 0.09161 0.39209 0.0
N1913 N 0.2653 0.00494 0.36188 0.0
C1914 C 0.33887 0.07132 0.38068 0.0
C1915 C 0.28917 0.027 0.3655 0.0
N1916 N 0.35865 0.04703 0.35548 0.0
N1917 N 0.26996 0.05519 0.37328 0.0
H1918 H 0.26292 0.98668 0.35452 0.0
H1919 H 0.24785 0.00434 0.36807 0.0
H1920 H 0.27135 0.07321 0.37982 0.0
H1921 H 0.25174 0.04134 0.36269 0.0
H1922 H 0.37711 0.06349 0.35439 0.0
H1923 H 0.35748 0.03021 0.34386 0.0
H1924 H 0.37944 0.09023 0.39412 0.0
H1925 H 0.365 0.1095 0.40161 0.0
C1926 C 0.95264 0.28822 0.37125 0.0
C1927 C 0.97473 0.28471 0.36895 0.0
C1928 C 0.94935 0.23984 0.39232 0.0
C1929 C 0.92845 0.24468 0.39956 0.0
N1930 N 0.9091 0.27245 0.39477 0.0
N1931 N 0.9949 0.25777 0.37764 0.0
C1932 C 0.92967 0.2685 0.38815 0.0
C1933 C 0.97311 0.26046 0.37877 0.0
N1934 N 0.95374 0.31038 0.357 0.0
N1935 N 0.94678 0.21569 0.39916 0.0
H1936 H 0.01243 0.27189 0.36674 0.0
H1937 H 0.9963 0.24226 0.38938 0.0
H1938 H 0.93067 0.20053 0.41156 0.0
H1939 H 0.95979 0.20983 0.39016 0.0
H1940 H 0.93788 0.31358 0.355 0.0
H1941 H 0.97036 0.325 0.34456 0.0
H1942 H 0.90948 0.29027 0.39119 0.0
H1943 H 0.89157 0.25775 0.40506 0.0
C1944 C 0.02263 0.40954 0.32195 0.0
C1945 C 0.04363 0.40637 0.30947 0.0
C1946 C 0.056 0.44265 0.26706 0.0
C1947 C 0.03345 0.44405 0.27626 0.0
N1948 N 0.99343 0.42705 0.30914 0.0
N1949 N 0.07543 0.41483 0.26322 0.0
C1950 C 0.01615 0.42695 0.3028 0.0
C1951 C 0.05892 0.42148 0.27998 0.0
N1952 N 0.00956 0.39672 0.35268 0.0
N1953 N 0.0749 0.46184 0.24643 0.0
H1954 H 0.07669 0.39824 0.2706 0.0
H1955 H 0.08536 0.42381 0.23938 0.0
H1956 H 0.07399 0.47835 0.23775 0.0
H1957 H 0.09273 0.46283 0.24158 0.0
H1958 H 0.9959 0.40034 0.36523 0.0
H1959 H 0.01369 0.38376 0.36726 0.0
H1960 H 0.97868 0.41312 0.3252 0.0
H1961 H 0.98871 0.44023 0.29639 0.0
C1962 C 0.6109 0.61298 0.31115 0.0
C1963 C 0.60462 0.63323 0.31619 0.0
C1964 C 0.55914 0.60284 0.29735 0.0
C1965 C 0.56669 0.58457 0.28588 0.0
N1966 N 0.59915 0.57092 0.2831 0.0
N1967 N 0.57281 0.64802 0.31337 0.0
C1968 C 0.59226 0.58899 0.294 0.0
C1969 C 0.57857 0.62817 0.30999 0.0
N1970 N 0.63474 0.61677 0.32287 0.0
N1971 N 0.53338 0.59595 0.29527 0.0
H1972 H 0.58641 0.66695 0.32201 0.0
H1973 H 0.55499 0.64633 0.30519 0.0
H1974 H 0.51908 0.57744 0.28586 0.0
H1975 H 0.52595 0.60736 0.30597 0.0
H1976 H 0.63974 0.60202 0.32364 0.0
H1977 H 0.64895 0.63438 0.33468 0.0
H1978 H 0.61826 0.57443 0.28323 0.0
H1979 H 0.58573 0.55257 0.27224 0.0
C1980 C 0.38408 0.93956 0.33622 0.0
C1981 C 0.37496 0.95804 0.33758 0.0
C1982 C 0.41309 0.98812 0.30208 0.0
C1983 C 0.41653 0.96655 0.29187 0.0
N1984 N 0.40262 0.9203 0.29701 0.0
N1985 N 0.3863 0.00333 0.33192 0.0
C1986 C 0.40144 0.94189 0.30849 0.0
C1987 C 0.39119 0.9835 0.32347 0.0
N1988 N 0.37789 0.92098 0.36274 0.0
N1989 N 0.43119 0.0129 0.29208 0.0
H1990 H 0.37397 1.00163 0.35317 0.0
H1991 H 0.39489 0.02145 0.31896 0.0
H1992 H 0.44795 0.01672 0.27807 0.0
H1993 H 0.43089 0.02981 0.30004 0.0
H1994 H 0.38544 0.90816 0.36332 0.0
H1995 H 0.36936 0.92148 0.38732 0.0
H1996 H 0.3899 0.9015 0.30643 0.0
H1997 H 0.41438 0.92064 0.27576 0.0
C1998 C 0.61969 0.99738 0.31355 0.0
C1999 C 0.61683 0.9721 0.31856 0.0
C2000 C 0.57218 0.95174 0.29282 0.0
C2001 C 0.57653 0.97702 0.28253 0.0
N2002 N 0.60294 0.024 0.28498 0.0
N2003 N 0.59083 0.92502 0.314 0.0
C2004 C 0.59975 0.99993 0.29404 0.0
C2005 C 0.59294 0.9492 0.30941 0.0
N2006 N 0.64154 0.01878 0.32751 0.0
N2007 N 0.54842 0.93005 0.28585 0.0
H2008 H 0.60514 0.92221 0.3273 0.0
H2009 H 0.57556 0.90768 0.30314 0.0
H2010 H 0.53322 0.93054 0.27134 0.0
H2011 H 0.54294 0.91162 0.29662 0.0
H2012 H 0.64446 0.0378 0.32717 0.0
H2013 H 0.6562 0.01715 0.34202 0.0
H2014 H 0.62027 0.04156 0.28881 0.0
H2015 H 0.58803 0.02632 0.27254 0.0
C2016 C 0.03634 0.63027 0.3277 0.0
C2017 C 0.03039 0.64814 0.30952 0.0
C2018 C 0.01626 0.61811 0.25639 0.0
C2019 C 0.03113 0.6066 0.27025 0.0
N2020 N 0.05964 0.60672 0.32023 0.0
N2021 N 0.0146 0.65835 0.25246 0.0
C2022 C 0.04216 0.61368 0.30653 0.0
C2023 C 0.01982 0.64175 0.27282 0.0
N2024 N 0.03559 0.62858 0.36506 0.0
N2025 N 0.99882 0.60653 0.22774 0.0
H2026 H 0.01718 0.67619 0.26206 0.0
H2027 H 0.00954 0.65512 0.22444 0.0
H2028 H 0.99491 0.58852 0.21644 0.0
H2029 H 0.98633 0.61331 0.21842 0.0
H2030 H 0.03901 0.61506 0.37947 0.0
H2031 H 0.02728 0.6377 0.38001 0.0
H2032 H 0.06875 0.6132 0.34611 0.0
H2033 H 0.06754 0.59764 0.30449 0.0
C2034 C 0.38336 0.42464 0.31875 0.0
C2035 C 0.37941 0.39887 0.32426 0.0
C2036 C 0.42159 0.41146 0.29704 0.0
C2037 C 0.42499 0.43685 0.28999 0.0
N2038 N 0.41348 0.46996 0.303 0.0
N2039 N 0.39778 0.37034 0.3296 0.0
C2040 C 0.40735 0.44423 0.30419 0.0
C2041 C 0.39961 0.39318 0.31701 0.0
N2042 N 0.3636 0.42995 0.32492 0.0
N2043 N 0.43844 0.40428 0.28272 0.0
H2044 H 0.38217 0.35717 0.34527 0.0
H2045 H 0.41275 0.3658 0.32797 0.0
H2046 H 0.45524 0.41733 0.26906 0.0
H2047 H 0.4351 0.38508 0.28267 0.0
H2048 H 0.36414 0.44735 0.3172 0.0
H2049 H 0.34584 0.41633 0.33583 0.0
H2050 H 0.40264 0.47727 0.31561 0.0
H2051 H 0.43097 0.48444 0.29227 0.0
C2052 C 0.33862 0.28153 0.36391 0.0
C2053 C 0.3122 0.27532 0.36821 0.0
C2054 C 0.30253 0.23241 0.39264 0.0
C2055 C 0.32948 0.24068 0.39493 0.0
N2056 N 0.37377 0.27367 0.38455 0.0
N2057 N 0.26986 0.24569 0.39334 0.0
C2058 C 0.34776 0.26544 0.38102 0.0
C2059 C 0.29431 0.25089 0.38413 0.0
N2060 N 0.35457 0.30181 0.3419 0.0
N2061 N 0.28465 0.20679 0.399 0.0
H2062 H 0.26271 0.25859 0.38898 0.0
H2063 H 0.25747 0.22956 0.40899 0.0
H2064 H 0.28995 0.19264 0.40545 0.0
H2065 H 0.26469 0.19909 0.39414 0.0
H2066 H 0.37329 0.30581 0.33535 0.0
H2067 H 0.34812 0.31285 0.32692 0.0
H2068 H 0.38818 0.29272 0.37872 0.0
H2069 H 0.38079 0.26171 0.39536 0.0
C2070 C 0.75944 0.03598 0.39384 0.0
C2071 C 0.73988 0.03248 0.3675 0.0
C2072 C 0.75374 0.07938 0.37183 0.0
C2073 C 0.77473 0.08296 0.39558 0.0
N2074 N 0.80151 0.06567 0.42101 0.0
N2075 N 0.72075 0.05133 0.32648 0.0
C2076 C 0.77896 0.0616 0.40364 0.0
C2077 C 0.73762 0.05433 0.35498 0.0
N2078 N 0.75843 0.01479 0.41127 0.0
N2079 N 0.74897 0.09972 0.36608 0.0
H2080 H 0.70877 0.03332 0.31347 0.0
H2081 H 0.72007 0.06701 0.31391 0.0
H2082 H 0.76126 0.11852 0.37672 0.0
H2083 H 0.73227 0.09762 0.35245 0.0
H2084 H 0.77084 0.01641 0.43332 0.0
H2085 H 0.74313 0.99577 0.40676 0.0
H2086 H 0.80636 0.05089 0.42443 0.0
H2087 H 0.81659 0.08421 0.42856 0.0
C2088 C 0.95822 0.72317 0.36767 0.0
C2089 C 0.96363 0.70261 0.35938 0.0
C2090 C 0.91988 0.66986 0.37807 0.0
C2091 C 0.91516 0.69046 0.38883 0.0
N2092 N 0.926 0.73555 0.38521 0.0
N2093 N 0.94796 0.65688 0.34692 0.0
C2094 C 0.93308 0.71678 0.38034 0.0
C2095 C 0.94381 0.67606 0.36129 0.0
N2096 N 0.97758 0.74872 0.36563 0.0
N2097 N 0.90213 0.6445 0.38609 0.0
H2098 H 0.96537 0.66101 0.33452 0.0
H2099 H 0.93359 0.63729 0.34439 0.0
H2100 H 0.88391 0.63921 0.39669 0.0
H2101 H 0.90573 0.62885 0.38369 0.0
H2102 H 0.97589 0.76455 0.37518 0.0
H2103 H 0.99607 0.75415 0.35597 0.0
H2104 H 0.93716 0.75495 0.37709 0.0
H2105 H 0.90762 0.73094 0.39456 0.0
C2106 C 0.3866 0.0146 0.73412 0.0
C2107 C 0.39664 0.03208 0.70381 0.0
C2108 C 0.43916 0.0343 0.7161 0.0
C2109 C 0.42759 0.01388 0.74196 0.0
N2110 N 0.38807 0.9796 0.76761 0.0
N2111 N 0.43269 0.05355 0.66129 0.0
C2112 C 0.4005 1.00222 0.74796 0.0
C2113 C 0.42295 0.04048 0.69332 0.0
N2114 N 0.36526 0.01156 0.75235 0.0
N2115 N 0.4657 0.04875 0.71417 0.0
H2116 H 0.42229 0.05839 0.64264 0.0
H2117 H 0.45058 0.05717 0.65122 0.0
H2118 H 0.4784 0.04523 0.73058 0.0
H2119 H 0.47506 0.06584 0.69876 0.0
H2120 H 0.35862 1.00027 0.77605 0.0
H2121 H 0.35679 0.02333 0.74774 0.0
H2122 H 0.36787 0.9694 0.77031 0.0
H2123 H 0.39762 0.96974 0.77764 0.0
C2124 C 0.97026 0.38568 0.69932 0.0
C2125 C 0.98982 0.37806 0.69887 0.0
C2126 C 0.02242 0.42163 0.72188 0.0
C2127 C 1.00247 0.42845 0.72483 0.0
N2128 N 0.96019 0.42112 0.70621 0.0
N2129 N 0.03532 0.39068 0.69936 0.0
C2130 C 0.97736 0.41186 0.70957 0.0
C2131 C 0.01625 0.39676 0.70668 0.0
N2132 N 0.94465 0.36747 0.69283 0.0
N2133 N 0.04682 0.43834 0.73587 0.0
H2134 H 0.0312 0.37267 0.68787 0.0
H2135 H 0.05517 0.40409 0.70153 0.0
H2136 H 0.0521 0.45714 0.74551 0.0
H2137 H 0.06143 0.43335 0.73924 0.0
H2138 H 0.92929 0.37113 0.69687 0.0
H2139 H 0.93838 0.34799 0.68579 0.0
H2140 H 0.94211 0.41098 0.69264 0.0
H2141 H 0.96535 0.44026 0.71406 0.0
C2142 C 0.6124 0.61062 0.6934 0.0
C2143 C 0.63495 0.60827 0.68843 0.0
C2144 C 0.61219 0.56326 0.71186 0.0
C2145 C 0.59128 0.56722 0.72248 0.0
N2146 N 0.56972 0.59301 0.72077 0.0
N2147 N 0.65684 0.58268 0.69177 0.0
C2148 C 0.59069 0.5903 0.71181 0.0
C2149 C 0.63472 0.5844 0.69638 0.0
N2150 N 0.61201 0.63241 0.68055 0.0
N2151 N 0.61085 0.53951 0.71745 0.0
H2152 H 0.67335 0.5972 0.67913 0.0
H2153 H 0.65952 0.56752 0.70197 0.0
H2154 H 0.59561 0.52397 0.73073 0.0
H2155 H 0.62388 0.53431 0.70651 0.0
H2156 H 0.59579 0.63503 0.68098 0.0
H2157 H 0.62771 0.64733 0.66687 0.0
H2158 H 0.56881 0.6102 0.71758 0.0
H2159 H 0.55308 0.57778 0.73232 0.0
C2160 C 0.71445 0.75253 0.61559 0.0
C2161 C 0.6983 0.73345 0.64133 0.0
C2162 C 0.6649 0.74658 0.63095 0.0
C2163 C 0.68204 0.76694 0.60747 0.0
N2164 N 0.72544 0.79335 0.58498 0.0
N2165 N 0.66042 0.71608 0.67942 0.0
C2166 C 0.70763 0.77127 0.60245 0.0
C2167 C 0.67414 0.73155 0.65079 0.0
N2168 N 0.73546 0.75175 0.60182 0.0
N2169 N 0.63952 0.74083 0.63315 0.0
H2170 H 0.66667 0.70508 0.69492 0.0
H2171 H 0.64408 0.71601 0.68993 0.0
H2172 H 0.63214 0.75161 0.61957 0.0
H2173 H 0.62537 0.72427 0.64632 0.0
H2174 H 0.74647 0.76363 0.58041 0.0
H2175 H 0.74002 0.73716 0.60875 0.0
H2176 H 0.74508 0.79874 0.58344 0.0
H2177 H 0.72108 0.80764 0.5754 0.0
C2178 C 0.24756 0.9596 0.64653 0.0
C2179 C 0.27324 0.96391 0.65345 0.0
C2180 C 0.25935 0.91849 0.63561 0.0
C2181 C 0.23415 0.91473 0.62621 0.0
N2182 N 0.20206 0.9283 0.63171 0.0
N2183 N 0.30197 0.94626 0.66455 0.0
C2184 C 0.22752 0.9342 0.63505 0.0
C2185 C 0.27855 0.94285 0.65134 0.0
N2186 N 0.24273 0.98014 0.64876 0.0
N2187 N 0.26534 0.89933 0.62731 0.0
H2188 H 0.31631 0.96396 0.67616 0.0
H2189 H 0.30636 0.93112 0.66698 0.0
H2190 H 0.25147 0.88082 0.61747 0.0
H2191 H 0.28417 0.90202 0.62862 0.0
H2192 H 0.22528 0.97911 0.64009 0.0
H2193 H 0.25677 0.99886 0.65767 0.0
H2194 H 0.19521 0.94073 0.64025 0.0
H2195 H 0.18732 0.90971 0.6233 0.0
C2196 C 0.03109 0.2735 0.639 0.0
C2197 C 0.02987 0.29407 0.65844 0.0
C2198 C 0.07585 0.32397 0.64526 0.0
C2199 C 0.07701 0.30329 0.62661 0.0
N2200 N 0.05808 0.25712 0.61354 0.0
N2201 N 0.05307 0.33641 0.68871 0.0
C2202 C 0.05543 0.27761 0.62641 0.0
C2203 C 0.05286 0.31863 0.66413 0.0
N2204 N 0.00885 0.25055 0.63028 0.0
N2205 N 0.09653 0.34887 0.64404 0.0
H2206 H 0.03696 0.33274 0.70421 0.0
H2207 H 0.06988 0.35365 0.69649 0.0
H2208 H 0.11417 0.35313 0.63229 0.0
H2209 H 0.09571 0.36535 0.65294 0.0
H2210 H 0.00833 0.23657 0.61203 0.0
H2211 H 0.99029 0.24616 0.63811 0.0
H2212 H 0.04398 0.23753 0.61666 0.0
H2213 H 0.07537 0.25946 0.6029 0.0
C2214 C 0.2565 0.28515 0.6343 0.0
C2215 C 0.28082 0.30709 0.64429 0.0
C2216 C 0.26386 0.33698 0.63069 0.0
C2217 C 0.24026 0.31524 0.61761 0.0
N2218 N 0.21141 0.26828 0.61489 0.0
N2219 N 0.30648 0.35273 0.66067 0.0
C2220 C 0.2356 0.28917 0.62249 0.0
C2221 C 0.28402 0.33269 0.64561 0.0
N2222 N 0.25399 0.26062 0.63402 0.0
N2223 N 0.2672 0.36169 0.62709 0.0
H2224 H 0.32143 0.34984 0.67152 0.0
H2225 H 0.30969 0.37168 0.66482 0.0
H2226 H 0.25213 0.365 0.61788 0.0
H2227 H 0.28473 0.37881 0.63234 0.0
H2228 H 0.2382 0.24414 0.62214 0.0
H2229 H 0.26842 0.25681 0.64455 0.0
H2230 H 0.20599 0.24899 0.62146 0.0
H2231 H 0.1958 0.27013 0.60443 0.0
C2232 C 0.68079 0.97158 0.59867 0.0
C2233 C 0.68779 0.97635 0.63671 0.0
C2234 C 0.6856 0.93365 0.64162 0.0
C2235 C 0.67836 0.92857 0.60364 0.0
N2236 N 0.65805 0.93818 0.55165 0.0
N2237 N 0.68259 0.95591 0.69572 0.0
C2238 C 0.67221 0.94605 0.58402 0.0
C2239 C 0.68569 0.95545 0.65872 0.0
N2240 N 0.68356 0.99139 0.57598 0.0
N2241 N 0.69394 0.91906 0.66108 0.0
H2242 H 0.67965 0.97041 0.70781 0.0
H2243 H 0.67941 0.94031 0.71281 0.0
H2244 H 0.6961 0.90405 0.64932 0.0
H2245 H 0.70126 0.92383 0.68812 0.0
H2246 H 0.68126 0.98914 0.54738 0.0
H2247 H 0.69012 0.01052 0.58515 0.0
H2248 H 0.65153 0.94958 0.53773 0.0
H2249 H 0.65035 0.91912 0.54122 0.0
C2250 C 0.05785 0.72214 0.64837 0.0
C2251 C 0.0375 0.72774 0.65501 0.0
C2252 C 0.06664 0.77402 0.64055 0.0
C2253 C 0.08481 0.7672 0.62681 0.0
N2254 N 0.09816 0.7347 0.61731 0.0
N2255 N 0.02192 0.75898 0.65716 0.0
C2256 C 0.08085 0.74136 0.63139 0.0
C2257 C 0.04188 0.75383 0.65192 0.0
N2258 N 0.05512 0.69842 0.6585 0.0
N2259 N 0.07306 0.79983 0.64194 0.0
H2260 H 1.00348 0.74484 0.6654 0.0
H2261 H 0.02305 0.7769 0.65105 0.0
H2262 H 0.09115 0.81477 0.63354 0.0
H2263 H 0.06171 0.80657 0.65448 0.0
H2264 H 0.07016 0.69394 0.65761 0.0
H2265 H 0.03848 0.68408 0.67124 0.0
H2266 H 0.09453 0.71545 0.6152 0.0
H2267 H 0.11567 0.74826 0.60574 0.0
C2268 C 0.98516 0.59026 0.67971 0.0
C2269 C 0.98037 0.60821 0.6998 0.0
C2270 C 0.99645 0.5967 0.75542 0.0
C2271 C 0.99431 0.57411 0.73732 0.0
N2272 N 0.98403 0.54837 0.68115 0.0
N2273 N 0.97747 0.62475 0.75978 0.0
C2274 C 0.98819 0.57064 0.69897 0.0
C2275 C 0.98526 0.61075 0.73847 0.0
N2276 N 0.98802 0.59273 0.64252 0.0
N2277 N 0.00862 0.60438 0.78922 0.0
H2278 H 0.96717 0.63368 0.74942 0.0
H2279 H 0.97855 0.62483 0.78853 0.0
H2280 H 0.01729 0.59466 0.80238 0.0
H2281 H 0.01234 0.62182 0.80213 0.0
H2282 H 0.99307 0.5811 0.62675 0.0
H2283 H 0.98912 0.60893 0.62886 0.0
H2284 H 0.97721 0.54416 0.65385 0.0
H2285 H 0.98521 0.53317 0.69446 0.0
C2286 C 0.43296 0.37853 0.67603 0.0
C2287 C 0.40532 0.36641 0.6794 0.0
C2288 C 0.41327 0.40406 0.71812 0.0
C2289 C 0.43986 0.4111 0.72313 0.0
N2290 N 0.473 0.39885 0.7119 0.0
N2291 N 0.37042 0.36677 0.7147 0.0
C2292 C 0.44931 0.3967 0.70346 0.0
C2293 C 0.39556 0.37897 0.70317 0.0
N2294 N 0.44395 0.3737 0.64648 0.0
N2295 N 0.40476 0.42094 0.72835 0.0
H2296 H 0.35726 0.34697 0.71081 0.0
H2297 H 0.36388 0.37551 0.7336 0.0
H2298 H 0.41753 0.4399 0.73804 0.0
H2299 H 0.38568 0.41701 0.72304 0.0
H2300 H 0.46409 0.38339 0.64306 0.0
H2301 H 0.43324 0.36351 0.62307 0.0
H2302 H 0.47929 0.387 0.69931 0.0
H2303 H 0.48474 0.40979 0.73422 0.0
C2304 C 0.61028 0.00822 0.69506 0.0
C2305 C 0.62954 0.03488 0.6915 0.0
C2306 C 0.59817 0.04843 0.71076 0.0
C2307 C 0.58096 0.0223 0.72115 0.0
N2308 N 0.56984 0.97674 0.72271 0.0
N2309 N 0.64229 0.08082 0.69515 0.0
C2310 C 0.5865 1.00191 0.71232 0.0
C2311 C 0.62345 0.05515 0.69829 0.0
N2312 N 0.61475 0.98901 0.68167 0.0
N2313 N 0.5903 0.06674 0.71368 0.0
H2314 H 0.66094 0.08651 0.68594 0.0
H2315 H 0.64004 0.09655 0.70363 0.0
H2316 H 0.57181 0.06189 0.72285 0.0
H2317 H 0.60089 0.08582 0.70402 0.0
H2318 H 0.60061 0.96927 0.68018 0.0
H2319 H 0.63201 0.99313 0.66883 0.0
H2320 H 0.57443 0.9617 0.72193 0.0
H2321 H 0.55173 0.97107 0.73393 0.0
loop_
_geom_bond_atom_site_label_1
_geom_bond_atom_site_label_2
_geom_bond_distance
_geom_bond_site_symmetry_2
_ccdc_geom_bond_type
Mn0 O5 2.095 1_655 S
Mn0 O15 2.162 . S
Mn0 O16 2.297 1_554 S
Mn0 O24 2.385 1_554 S
Mn0 O25 2.209 1_654 S
Mn0 O26 2.094 . S
Mn1 O6 2.121 . S
Mn1 N8 2.257 1_554 S
Mn1 N17 2.282 1_554 S
Mn1 O25 2.215 1_554 S
Mn1 O27 2.117 . S
C2 O24 1.234 1_455 S
C2 O25 1.283 . S
C3 O15 1.281 1_556 S
C3 O16 1.236 . S
C4 O26 1.240 1_455 S
C4 O27 1.264 . S
O5 Mn0 2.095 1_455 S
O5 C14 1.250 . S
O6 Mn1 2.121 . S
O6 C14 1.258 . S
C7 N8 1.326 . S
C7 C11 1.460 . S
C7 H13 0.929 . S
N8 Mn1 2.257 1_556 S
N8 C7 1.326 . S
N8 C12 1.362 . S
C9 C10 1.258 . S
C9 C12 1.431 . S
C9 C29 1.449 . S
C10 C9 1.258 . S
C10 C11 1.477 . S
C10 H30 0.931 . S
C11 C7 1.460 . S
C11 C10 1.477 . S
C11 H31 0.930 . S
C12 N8 1.362 . S
C12 C9 1.431 . S
C12 C22 1.476 . S
H13 C7 0.929 . S
C14 O5 1.250 . S
C14 O6 1.258 . S
O15 Mn0 2.162 . S
O15 C3 1.281 1_554 S
O16 Mn0 2.297 1_556 S
O16 C3 1.236 . S
N17 Mn1 2.282 1_556 S
N17 C18 1.328 1_556 S
N17 C22 1.318 . S
C18 N17 1.328 1_554 S
C18 C19 1.457 1_554 S
C18 H23 0.929 . S
C19 C18 1.457 1_556 S
C19 C20 1.291 . S
C19 H32 0.931 . S
C20 C19 1.291 . S
C20 C21 1.373 . S
C20 H33 0.929 . S
C21 C20 1.373 . S
C21 C22 1.396 . S
C21 C28 1.403 . S
C22 C12 1.476 . S
C22 N17 1.318 . S
C22 C21 1.396 . S
H23 C18 0.929 . S
O24 Mn0 2.385 1_556 S
O24 C2 1.234 1_655 S
O25 Mn0 2.209 1_456 S
O25 Mn1 2.215 1_556 S
O25 C2 1.283 . S
O26 Mn0 2.094 . S
O26 C4 1.240 1_655 S
O27 Mn1 2.117 . S
O27 C4 1.264 . S
C28 C21 1.403 . S
C28 C29 1.399 . S
C28 H34 0.929 . S
C29 C9 1.449 . S
C29 C28 1.399 . S
C29 H35 0.930 . S
H30 C10 0.931 . S
H31 C11 0.930 . S
H32 C19 0.931 . S
H33 C20 0.929 . S
H34 C28 0.929 . S
H35 C29 0.930 . S
Mn36 O41 2.095 1_554 S
Mn36 O51 2.162 . S
Mn36 O52 2.297 . S
Mn36 O60 2.385 . S
Mn36 O61 2.209 . S
Mn36 O62 2.094 1_554 S
Mn37 O42 2.121 . S
Mn37 N44 2.257 1_556 S
Mn37 N53 2.282 1_556 S
Mn37 O61 2.215 1_556 S
Mn37 O63 2.117 . S
C38 O60 1.234 . S
C38 O61 1.283 . S
C39 O51 1.281 . S
C39 O52 1.236 . S
C40 O62 1.240 . S
C40 O63 1.264 . S
O41 Mn36 2.095 1_556 S
O41 C50 1.250 . S
O42 Mn37 2.121 . S
O42 C50 1.258 . S
C43 N44 1.326 . S
C43 C47 1.460 . S
C43 H49 0.929 . S
N44 Mn37 2.257 1_554 S
N44 C43 1.326 . S
N44 C48 1.362 . S
C45 C46 1.258 . S
C45 C48 1.431 . S
C45 C65 1.449 . S
C46 C45 1.258 . S
C46 C47 1.477 . S
C46 H66 0.931 . S
C47 C43 1.460 . S
C47 C46 1.477 . S
C47 H67 0.930 . S
C48 N44 1.362 . S
C48 C45 1.431 . S
C48 C58 1.476 . S
H49 C43 0.929 . S
C50 O41 1.250 . S
C50 O42 1.258 . S
O51 Mn36 2.162 . S
O51 C39 1.281 . S
O52 Mn36 2.297 . S
O52 C39 1.236 . S
N53 Mn37 2.282 1_554 S
N53 C54 1.328 . S
N53 C58 1.318 . S
C54 N53 1.328 . S
C54 C55 1.457 . S
C54 H59 0.929 1_554 S
C55 C54 1.457 . S
C55 C56 1.291 . S
C55 H68 0.931 . S
C56 C55 1.291 . S
C56 C57 1.373 . S
C56 H69 0.929 . S
C57 C56 1.373 . S
C57 C58 1.396 . S
C57 C64 1.403 . S
C58 C48 1.476 . S
C58 N53 1.318 . S
C58 C57 1.396 . S
H59 C54 0.929 1_556 S
O60 Mn36 2.385 . S
O60 C38 1.234 . S
O61 Mn36 2.209 . S
O61 Mn37 2.215 1_554 S
O61 C38 1.283 . S
O62 Mn36 2.094 1_556 S
O62 C40 1.240 . S
O63 Mn37 2.117 . S
O63 C40 1.264 . S
C64 C57 1.403 . S
C64 C65 1.399 . S
C64 H70 0.929 . S
C65 C45 1.449 . S
C65 C64 1.399 . S
C65 H71 0.930 . S
H66 C46 0.931 . S
H67 C47 0.930 . S
H68 C55 0.931 . S
H69 C56 0.929 . S
H70 C64 0.929 . S
H71 C65 0.930 . S
Mn72 O77 2.095 1_564 S
Mn72 O87 2.162 . S
Mn72 O88 2.297 . S
Mn72 O96 2.385 . S
Mn72 O97 2.209 1_565 S
Mn72 O98 2.094 1_554 S
Mn73 O78 2.121 1_554 S
Mn73 N80 2.257 . S
Mn73 N89 2.282 . S
Mn73 O97 2.215 . S
Mn73 O99 2.117 1_554 S
C74 O96 1.207 1_545 S
C74 O97 1.311 . S
C75 O87 1.281 . S
C75 O88 1.236 . S
C76 O98 1.253 . S
C76 O99 1.237 1_565 S
O77 Mn72 2.095 1_546 S
O77 C86 1.250 . S
O78 Mn73 2.121 1_556 S
O78 C86 1.258 . S
C79 N80 1.326 . S
C79 C83 1.460 . S
C79 H85 0.929 . S
N80 Mn73 2.257 . S
N80 C79 1.326 . S
N80 C84 1.362 . S
C81 C82 1.258 . S
C81 C84 1.431 . S
C81 C101 1.449 . S
C82 C81 1.258 . S
C82 C83 1.477 . S
C82 H102 0.931 . S
C83 C79 1.460 . S
C83 C82 1.477 . S
C83 H103 0.930 . S
C84 N80 1.362 . S
C84 C81 1.431 . S
C84 C94 1.476 . S
H85 C79 0.929 . S
C86 O77 1.250 . S
C86 O78 1.258 . S
O87 Mn72 2.162 . S
O87 C75 1.281 . S
O88 Mn72 2.297 . S
O88 C75 1.236 . S
N89 Mn73 2.282 . S
N89 C90 1.328 . S
N89 C94 1.318 . S
C90 N89 1.328 . S
C90 C91 1.457 . S
C90 H95 0.929 . S
C91 C90 1.457 . S
C91 C92 1.291 . S
C91 H104 0.931 . S
C92 C91 1.291 . S
C92 C93 1.373 . S
C92 H105 0.929 . S
C93 C92 1.373 . S
C93 C94 1.396 . S
C93 C100 1.403 . S
C94 C84 1.476 . S
C94 N89 1.318 . S
C94 C93 1.396 . S
H95 C90 0.929 . S
O96 Mn72 2.385 . S
O96 C74 1.207 1_565 S
O97 Mn72 2.209 1_545 S
O97 Mn73 2.215 . S
O97 C74 1.311 . S
O98 Mn72 2.094 1_556 S
O98 C76 1.253 . S
O99 Mn73 2.117 1_556 S
O99 C76 1.237 1_545 S
C100 C93 1.403 . S
C100 C101 1.399 . S
C100 H106 0.929 . S
C101 C81 1.449 . S
C101 C100 1.399 . S
C101 H107 0.930 . S
H102 C82 0.931 . S
H103 C83 0.930 . S
H104 C91 0.931 . S
H105 C92 0.929 . S
H106 C100 0.929 . S
H107 C101 0.930 . S
Mn108 O113 2.095 1_655 S
Mn108 O123 2.162 . S
Mn108 O124 2.297 1_554 S
Mn108 O132 2.385 1_554 S
Mn108 O133 2.209 1_654 S
Mn108 O134 2.094 . S
Mn109 O114 2.121 . S
Mn109 N116 2.257 1_554 S
Mn109 N125 2.282 1_554 S
Mn109 O133 2.215 1_554 S
Mn109 O135 2.117 . S
C110 O132 1.191 1_455 S
C110 O133 1.301 . S
C111 O123 1.281 1_556 S
C111 O124 1.236 . S
C112 O134 1.212 1_455 S
C112 O135 1.290 . S
O113 Mn108 2.095 1_455 S
O113 C122 1.250 . S
O114 Mn109 2.121 . S
O114 C122 1.258 . S
C115 N116 1.326 . S
C115 C119 1.460 . S
C115 H121 0.929 . S
N116 Mn109 2.257 1_556 S
N116 C115 1.326 . S
N116 C120 1.362 . S
C117 C118 1.258 . S
C117 C120 1.431 . S
C117 C137 1.449 . S
C118 C117 1.258 . S
C118 C119 1.477 . S
C118 H138 0.931 . S
C119 C115 1.460 . S
C119 C118 1.477 . S
C119 H139 0.930 . S
C120 N116 1.362 . S
C120 C117 1.431 . S
C120 C130 1.476 . S
H121 C115 0.929 . S
C122 O113 1.250 . S
C122 O114 1.258 . S
O123 Mn108 2.162 . S
O123 C111 1.281 1_554 S
O124 Mn108 2.297 1_556 S
O124 C111 1.236 . S
N125 Mn109 2.282 1_556 S
N125 C126 1.328 1_556 S
N125 C130 1.318 . S
C126 N125 1.328 1_554 S
C126 C127 1.457 1_554 S
C126 H131 0.929 . S
C127 C126 1.457 1_556 S
C127 C128 1.291 . S
C127 H140 0.931 . S
C128 C127 1.291 . S
C128 C129 1.373 . S
C128 H141 0.929 . S
C129 C128 1.373 . S
C129 C130 1.396 . S
C129 C136 1.403 . S
C130 C120 1.476 . S
C130 N125 1.318 . S
C130 C129 1.396 . S
H131 C126 0.929 . S
O132 Mn108 2.385 1_556 S
O132 C110 1.191 1_655 S
O133 Mn108 2.209 1_456 S
O133 Mn109 2.215 1_556 S
O133 C110 1.301 . S
O134 Mn108 2.094 . S
O134 C112 1.212 1_655 S
O135 Mn109 2.117 . S
O135 C112 1.290 . S
C136 C129 1.403 . S
C136 C137 1.399 . S
C136 H142 0.929 . S
C137 C117 1.449 . S
C137 C136 1.399 . S
C137 H143 0.930 . S
H138 C118 0.931 . S
H139 C119 0.930 . S
H140 C127 0.931 . S
H141 C128 0.929 . S
H142 C136 0.929 . S
H143 C137 0.930 . S
Mn144 O149 2.095 1_554 S
Mn144 O159 2.162 . S
Mn144 O160 2.297 . S
Mn144 O168 2.385 . S
Mn144 O169 2.209 . S
Mn144 O170 2.094 1_554 S
Mn145 O150 2.126 . S
Mn145 N152 2.236 1_556 S
Mn145 N161 2.272 1_556 S
Mn145 O169 2.193 1_556 S
Mn145 O171 2.138 . S
C146 O168 1.234 . S
C146 O169 1.283 . S
C147 O159 1.281 . S
C147 O160 1.236 . S
C148 O170 1.240 . S
C148 O171 1.264 . S
O149 Mn144 2.095 1_556 S
O149 C158 1.250 . S
O150 Mn145 2.126 . S
O150 C158 1.258 . S
C151 N152 1.326 . S
C151 C155 1.460 . S
C151 H157 0.929 . S
N152 Mn145 2.236 1_554 S
N152 C151 1.326 . S
N152 C156 1.362 . S
C153 C154 1.258 . S
C153 C156 1.431 . S
C153 C173 1.449 . S
C154 C153 1.258 . S
C154 C155 1.477 . S
C154 H174 0.931 . S
C155 C151 1.460 . S
C155 C154 1.477 . S
C155 H175 0.930 . S
C156 N152 1.362 . S
C156 C153 1.431 . S
C156 C166 1.476 . S
H157 C151 0.929 . S
C158 O149 1.250 . S
C158 O150 1.258 . S
O159 Mn144 2.162 . S
O159 C147 1.281 . S
O160 Mn144 2.297 . S
O160 C147 1.236 . S
N161 Mn145 2.272 1_554 S
N161 C162 1.328 . S
N161 C166 1.318 . S
C162 N161 1.328 . S
C162 C163 1.457 . S
C162 H167 0.929 1_554 S
C163 C162 1.457 . S
C163 C164 1.291 . S
C163 H176 0.931 . S
C164 C163 1.291 . S
C164 C165 1.373 . S
C164 H177 0.929 . S
C165 C164 1.373 . S
C165 C166 1.396 . S
C165 C172 1.403 . S
C166 C156 1.476 . S
C166 N161 1.318 . S
C166 C165 1.396 . S
H167 C162 0.929 1_556 S
O168 Mn144 2.385 . S
O168 C146 1.234 . S
O169 Mn144 2.209 . S
O169 Mn145 2.193 1_554 S
O169 C146 1.283 . S
O170 Mn144 2.094 1_556 S
O170 C148 1.240 . S
O171 Mn145 2.138 . S
O171 C148 1.264 . S
C172 C165 1.403 . S
C172 C173 1.399 . S
C172 H178 0.929 . S
C173 C153 1.449 . S
C173 C172 1.399 . S
C173 H179 0.930 . S
H174 C154 0.931 . S
H175 C155 0.930 . S
H176 C163 0.931 . S
H177 C164 0.929 . S
H178 C172 0.929 . S
H179 C173 0.930 . S
Mn180 O185 2.095 1_545 S
Mn180 O195 2.162 . S
Mn180 O196 2.297 1_554 S
Mn180 O204 2.385 1_554 S
Mn180 O205 2.209 1_544 S
Mn180 O206 2.094 . S
Mn181 O186 2.121 . S
Mn181 N188 2.257 1_554 S
Mn181 N197 2.282 1_554 S
Mn181 O205 2.215 1_554 S
Mn181 O207 2.117 . S
C182 O204 1.229 . S
C182 O205 1.288 1_545 S
C183 O195 1.281 1_556 S
C183 O196 1.236 . S
C184 O206 1.240 . S
C184 O207 1.264 1_545 S
O185 Mn180 2.095 1_565 S
O185 C194 1.250 . S
O186 Mn181 2.121 . S
O186 C194 1.258 . S
C187 N188 1.326 . S
C187 C191 1.460 . S
C187 H193 0.929 . S
N188 Mn181 2.257 1_556 S
N188 C187 1.326 . S
N188 C192 1.362 . S
C189 C190 1.258 . S
C189 C192 1.431 . S
C189 C209 1.449 . S
C190 C189 1.258 . S
C190 C191 1.477 . S
C190 H210 0.931 . S
C191 C187 1.460 . S
C191 C190 1.477 . S
C191 H211 0.930 . S
C192 N188 1.362 . S
C192 C189 1.431 . S
C192 C202 1.476 . S
H193 C187 0.929 . S
C194 O185 1.250 . S
C194 O186 1.258 . S
O195 Mn180 2.162 . S
O195 C183 1.281 1_554 S
O196 Mn180 2.297 1_556 S
O196 C183 1.236 . S
N197 Mn181 2.282 1_556 S
N197 C198 1.331 . S
N197 C202 1.318 . S
C198 N197 1.331 . S
C198 C199 1.463 . S
C198 H203 0.920 1_556 S
C199 C198 1.463 . S
C199 C200 1.291 . S
C199 H212 0.931 . S
C200 C199 1.291 . S
C200 C201 1.373 . S
C200 H213 0.929 . S
C201 C200 1.373 . S
C201 C202 1.396 . S
C201 C208 1.403 . S
C202 C192 1.476 . S
C202 N197 1.318 . S
C202 C201 1.396 . S
H203 C198 0.920 1_554 S
O204 Mn180 2.385 1_556 S
O204 C182 1.229 . S
O205 Mn180 2.209 1_566 S
O205 Mn181 2.215 1_556 S
O205 C182 1.288 1_565 S
O206 Mn180 2.094 . S
O206 C184 1.240 . S
O207 Mn181 2.117 . S
O207 C184 1.264 1_565 S
C208 C201 1.403 . S
C208 C209 1.399 . S
C208 H214 0.929 . S
C209 C189 1.449 . S
C209 C208 1.399 . S
C209 H215 0.930 . S
H210 C190 0.931 . S
H211 C191 0.930 . S
H212 C199 0.931 . S
H213 C200 0.929 . S
H214 C208 0.929 . S
H215 C209 0.930 . S
Mn216 O221 2.095 . S
Mn216 O231 2.162 . S
Mn216 O232 2.297 . S
Mn216 O240 2.385 . S
Mn216 O241 2.209 . S
Mn216 O242 2.094 . S
Mn217 O222 2.121 . S
Mn217 N224 2.257 . S
Mn217 N233 2.282 . S
Mn217 O241 2.215 . S
Mn217 O243 2.117 . S
C218 O240 1.234 . S
C218 O241 1.283 . S
C219 O231 1.281 . S
C219 O232 1.236 . S
C220 O242 1.240 . S
C220 O243 1.264 . S
O221 Mn216 2.095 . S
O221 C230 1.250 . S
O222 Mn217 2.121 . S
O222 C230 1.258 . S
C223 N224 1.326 . S
C223 C227 1.460 . S
C223 H229 0.929 . S
N224 Mn217 2.257 . S
N224 C223 1.326 . S
N224 C228 1.362 . S
C225 C226 1.258 . S
C225 C228 1.431 . S
C225 C245 1.449 . S
C226 C225 1.258 . S
C226 C227 1.477 . S
C226 H246 0.931 . S
C227 C223 1.460 . S
C227 C226 1.477 . S
C227 H247 0.930 . S
C228 N224 1.362 . S
C228 C225 1.431 . S
C228 C238 1.476 . S
H229 C223 0.929 . S
C230 O221 1.250 . S
C230 O222 1.258 . S
O231 Mn216 2.162 . S
O231 C219 1.281 . S
O232 Mn216 2.297 . S
O232 C219 1.236 . S
N233 Mn217 2.282 . S
N233 C234 1.328 . S
N233 C238 1.318 . S
C234 N233 1.328 . S
C234 C235 1.457 . S
C234 H239 0.929 . S
C235 C234 1.457 . S
C235 C236 1.291 . S
C235 H248 0.931 . S
C236 C235 1.291 . S
C236 C237 1.373 . S
C236 H249 0.929 . S
C237 C236 1.373 . S
C237 C238 1.396 . S
C237 C244 1.403 . S
C238 C228 1.476 . S
C238 N233 1.318 . S
C238 C237 1.396 . S
H239 C234 0.929 . S
O240 Mn216 2.385 . S
O240 C218 1.234 . S
O241 Mn216 2.209 . S
O241 Mn217 2.215 . S
O241 C218 1.283 . S
O242 Mn216 2.094 . S
O242 C220 1.240 . S
O243 Mn217 2.117 . S
O243 C220 1.264 . S
C244 C237 1.403 . S
C244 C245 1.399 . S
C244 H250 0.929 . S
C245 C225 1.449 . S
C245 C244 1.399 . S
C245 H251 0.930 . S
H246 C226 0.931 . S
H247 C227 0.930 . S
H248 C235 0.931 . S
H249 C236 0.929 . S
H250 C244 0.929 . S
H251 C245 0.930 . S
Mn252 O257 2.095 . S
Mn252 O267 2.162 1_565 S
Mn252 O268 2.297 1_565 S
Mn252 O276 2.385 . S
Mn252 O277 2.209 . S
Mn252 O278 2.094 . S
Mn253 O258 2.121 . S
Mn253 N260 2.257 . S
Mn253 N269 2.282 . S
Mn253 O277 2.215 . S
Mn253 O279 2.117 . S
C254 O276 1.234 . S
C254 O277 1.283 . S
C255 O267 1.281 . S
C255 O268 1.236 . S
C256 O278 1.240 . S
C256 O279 1.264 . S
O257 Mn252 2.095 . S
O257 C266 1.250 . S
O258 Mn253 2.121 . S
O258 C266 1.258 . S
C259 N260 1.326 . S
C259 C263 1.460 . S
C259 H265 0.929 . S
N260 Mn253 2.257 . S
N260 C259 1.326 . S
N260 C264 1.362 . S
C261 C262 1.258 . S
C261 C264 1.431 . S
C261 C281 1.449 . S
C262 C261 1.258 . S
C262 C263 1.477 . S
C262 H282 0.931 . S
C263 C259 1.460 . S
C263 C262 1.477 . S
C263 H283 0.930 . S
C264 N260 1.362 . S
C264 C261 1.431 . S
C264 C274 1.476 . S
H265 C259 0.929 . S
C266 O257 1.250 . S
C266 O258 1.258 . S
O267 Mn252 2.162 1_545 S
O267 C255 1.281 . S
O268 Mn252 2.297 1_545 S
O268 C255 1.236 . S
N269 Mn253 2.282 . S
N269 C270 1.328 . S
N269 C274 1.318 . S
C270 N269 1.328 . S
C270 C271 1.457 . S
C270 H275 0.929 . S
C271 C270 1.457 . S
C271 C272 1.291 . S
C271 H284 0.931 . S
C272 C271 1.291 . S
C272 C273 1.373 . S
C272 H285 0.929 . S
C273 C272 1.373 . S
C273 C274 1.396 . S
C273 C280 1.403 . S
C274 C264 1.476 . S
C274 N269 1.318 . S
C274 C273 1.396 . S
H275 C270 0.929 . S
O276 Mn252 2.385 . S
O276 C254 1.234 . S
O277 Mn252 2.209 . S
O277 Mn253 2.215 . S
O277 C254 1.283 . S
O278 Mn252 2.094 . S
O278 C256 1.240 . S
O279 Mn253 2.117 . S
O279 C256 1.264 . S
C280 C273 1.403 . S
C280 C281 1.399 . S
C280 H286 0.929 . S
C281 C261 1.449 . S
C281 C280 1.399 . S
C281 H287 0.930 . S
H282 C262 0.931 . S
H283 C263 0.930 . S
H284 C271 0.931 . S
H285 C272 0.929 . S
H286 C280 0.929 . S
H287 C281 0.930 . S
Mn288 O293 2.095 . S
Mn288 O303 2.162 1_455 S
Mn288 O304 2.297 1_455 S
Mn288 O312 2.385 . S
Mn288 O313 2.209 . S
Mn288 O314 2.094 . S
Mn289 O294 2.121 . S
Mn289 N296 2.257 . S
Mn289 N305 2.282 . S
Mn289 O313 2.215 . S
Mn289 O315 2.117 . S
C290 O312 1.234 . S
C290 O313 1.283 . S
C291 O303 1.281 . S
C291 O304 1.236 . S
C292 O314 1.240 . S
C292 O315 1.264 . S
O293 Mn288 2.095 . S
O293 C302 1.250 . S
O294 Mn289 2.121 . S
O294 C302 1.258 . S
C295 N296 1.326 . S
C295 C299 1.460 . S
C295 H301 0.929 . S
N296 Mn289 2.257 . S
N296 C295 1.326 . S
N296 C300 1.362 . S
C297 C298 1.258 . S
C297 C300 1.431 . S
C297 C317 1.449 . S
C298 C297 1.258 . S
C298 C299 1.477 . S
C298 H318 0.931 . S
C299 C295 1.460 . S
C299 C298 1.477 . S
C299 H319 0.930 . S
C300 N296 1.362 . S
C300 C297 1.431 . S
C300 C310 1.476 . S
H301 C295 0.929 . S
C302 O293 1.250 . S
C302 O294 1.258 . S
O303 Mn288 2.162 1_655 S
O303 C291 1.281 . S
O304 Mn288 2.297 1_655 S
O304 C291 1.236 . S
N305 Mn289 2.282 . S
N305 C306 1.328 . S
N305 C310 1.318 . S
C306 N305 1.328 . S
C306 C307 1.457 . S
C306 H311 0.929 . S
C307 C306 1.457 . S
C307 C308 1.291 . S
C307 H320 0.931 . S
C308 C307 1.291 . S
C308 C309 1.373 . S
C308 H321 0.929 . S
C309 C308 1.373 . S
C309 C310 1.396 . S
C309 C316 1.403 . S
C310 C300 1.476 . S
C310 N305 1.318 . S
C310 C309 1.396 . S
H311 C306 0.929 . S
O312 Mn288 2.385 . S
O312 C290 1.234 . S
O313 Mn288 2.209 . S
O313 Mn289 2.215 . S
O313 C290 1.283 . S
O314 Mn288 2.094 . S
O314 C292 1.240 . S
O315 Mn289 2.117 . S
O315 C292 1.264 . S
C316 C309 1.403 . S
C316 C317 1.399 . S
C316 H322 0.929 . S
C317 C297 1.449 . S
C317 C316 1.399 . S
C317 H323 0.930 . S
H318 C298 0.931 . S
H319 C299 0.930 . S
H320 C307 0.931 . S
H321 C308 0.929 . S
H322 C316 0.929 . S
H323 C317 0.930 . S
Mn324 O329 2.095 1_565 S
Mn324 O339 2.162 . S
Mn324 O340 2.313 . S
Mn324 O348 2.385 . S
Mn324 O349 2.209 . S
Mn324 O350 2.094 . S
Mn325 O330 2.121 1_565 S
Mn325 N332 2.257 . S
Mn325 N341 2.282 . S
Mn325 O349 2.215 . S
Mn325 O351 2.117 . S
C326 O348 1.234 . S
C326 O349 1.283 . S
C327 O339 1.281 . S
C327 O340 1.233 . S
C328 O350 1.240 . S
C328 O351 1.264 . S
O329 Mn324 2.095 1_545 S
O329 C338 1.250 . S
O330 Mn325 2.121 1_545 S
O330 C338 1.258 . S
C331 N332 1.326 1_545 S
C331 C335 1.460 . S
C331 H337 0.929 . S
N332 Mn325 2.257 . S
N332 C331 1.326 1_565 S
N332 C336 1.362 . S
C333 C334 1.258 1_565 S
C333 C336 1.431 . S
C333 C353 1.449 . S
C334 C333 1.258 1_545 S
C334 C335 1.477 . S
C334 H354 0.931 . S
C335 C331 1.460 . S
C335 C334 1.477 . S
C335 H355 0.930 . S
C336 N332 1.362 . S
C336 C333 1.431 . S
C336 C346 1.476 . S
H337 C331 0.929 . S
C338 O329 1.250 . S
C338 O330 1.258 . S
O339 Mn324 2.162 . S
O339 C327 1.281 . S
O340 Mn324 2.313 . S
O340 C327 1.233 . S
N341 Mn325 2.282 . S
N341 C342 1.328 . S
N341 C346 1.318 . S
C342 N341 1.328 . S
C342 C343 1.457 . S
C342 H347 0.929 . S
C343 C342 1.457 . S
C343 C344 1.291 . S
C343 H356 0.931 . S
C344 C343 1.291 . S
C344 C345 1.373 . S
C344 H357 0.929 . S
C345 C344 1.373 . S
C345 C346 1.396 . S
C345 C352 1.403 . S
C346 C336 1.476 . S
C346 N341 1.318 . S
C346 C345 1.396 . S
H347 C342 0.929 . S
O348 Mn324 2.385 . S
O348 C326 1.234 . S
O349 Mn324 2.209 . S
O349 Mn325 2.215 . S
O349 C326 1.283 . S
O350 Mn324 2.094 . S
O350 C328 1.240 . S
O351 Mn325 2.117 . S
O351 C328 1.264 . S
C352 C345 1.403 . S
C352 C353 1.399 . S
C352 H358 0.929 . S
C353 C333 1.449 . S
C353 C352 1.399 . S
C353 H359 0.930 . S
H354 C334 0.931 . S
H355 C335 0.930 . S
H356 C343 0.931 . S
H357 C344 0.929 . S
H358 C352 0.929 . S
H359 C353 0.930 . S
Mn360 O365 2.095 . S
Mn360 O375 2.162 1_455 S
Mn360 O376 2.297 1_455 S
Mn360 O384 2.385 . S
Mn360 O385 2.209 . S
Mn360 O386 2.094 . S
Mn361 O366 2.121 . S
Mn361 N368 2.257 . S
Mn361 N377 2.282 . S
Mn361 O385 2.215 . S
Mn361 O387 2.117 . S
C362 O384 1.234 . S
C362 O385 1.283 . S
C363 O375 1.281 . S
C363 O376 1.236 . S
C364 O386 1.240 . S
C364 O387 1.264 . S
O365 Mn360 2.095 . S
O365 C374 1.250 . S
O366 Mn361 2.121 . S
O366 C374 1.258 . S
C367 N368 1.326 . S
C367 C371 1.460 . S
C367 H373 0.929 . S
N368 Mn361 2.257 . S
N368 C367 1.326 . S
N368 C372 1.362 . S
C369 C370 1.258 . S
C369 C372 1.431 . S
C369 C389 1.449 . S
C370 C369 1.258 . S
C370 C371 1.477 . S
C370 H390 0.931 . S
C371 C367 1.460 . S
C371 C370 1.477 . S
C371 H391 0.930 . S
C372 N368 1.362 . S
C372 C369 1.431 . S
C372 C382 1.476 . S
H373 C367 0.929 . S
C374 O365 1.250 . S
C374 O366 1.258 . S
O375 Mn360 2.162 1_655 S
O375 C363 1.281 . S
O376 Mn360 2.297 1_655 S
O376 C363 1.236 . S
N377 Mn361 2.282 . S
N377 C378 1.328 . S
N377 C382 1.318 . S
C378 N377 1.328 . S
C378 C379 1.457 . S
C378 H383 0.929 . S
C379 C378 1.457 . S
C379 C380 1.291 . S
C379 H392 0.931 . S
C380 C379 1.291 . S
C380 C381 1.373 . S
C380 H393 0.929 . S
C381 C380 1.373 . S
C381 C382 1.396 . S
C381 C388 1.403 . S
C382 C372 1.476 . S
C382 N377 1.318 . S
C382 C381 1.396 . S
H383 C378 0.929 . S
O384 Mn360 2.385 . S
O384 C362 1.234 . S
O385 Mn360 2.209 . S
O385 Mn361 2.215 . S
O385 C362 1.283 . S
O386 Mn360 2.094 . S
O386 C364 1.240 . S
O387 Mn361 2.117 . S
O387 C364 1.264 . S
C388 C381 1.403 . S
C388 C389 1.399 . S
C388 H394 0.929 . S
C389 C369 1.449 . S
C389 C388 1.399 . S
C389 H395 0.930 . S
H390 C370 0.931 . S
H391 C371 0.930 . S
H392 C379 0.931 . S
H393 C380 0.929 . S
H394 C388 0.929 . S
H395 C389 0.930 . S
Mn396 O401 2.095 . S
Mn396 O411 2.162 . S
Mn396 O412 2.297 . S
Mn396 O420 2.385 . S
Mn396 O421 2.209 . S
Mn396 O422 2.094 . S
Mn397 O402 2.121 . S
Mn397 N404 2.257 . S
Mn397 N413 2.282 . S
Mn397 O421 2.215 . S
Mn397 O423 2.117 . S
C398 O420 1.234 . S
C398 O421 1.283 . S
C399 O411 1.281 . S
C399 O412 1.236 . S
C400 O422 1.240 . S
C400 O423 1.264 . S
O401 Mn396 2.095 . S
O401 C410 1.250 . S
O402 Mn397 2.121 . S
O402 C410 1.258 . S
C403 N404 1.326 . S
C403 C407 1.460 . S
C403 H409 0.929 . S
N404 Mn397 2.257 . S
N404 C403 1.326 . S
N404 C408 1.362 . S
C405 C406 1.258 . S
C405 C408 1.431 . S
C405 C425 1.449 . S
C406 C405 1.258 . S
C406 C407 1.477 . S
C406 H426 0.931 . S
C407 C403 1.460 . S
C407 C406 1.477 . S
C407 H427 0.930 . S
C408 N404 1.362 . S
C408 C405 1.431 . S
C408 C418 1.476 . S
H409 C403 0.929 . S
C410 O401 1.250 . S
C410 O402 1.258 . S
O411 Mn396 2.162 . S
O411 C399 1.281 . S
O412 Mn396 2.297 . S
O412 C399 1.236 . S
N413 Mn397 2.282 . S
N413 C414 1.328 . S
N413 C418 1.318 . S
C414 N413 1.328 . S
C414 C415 1.457 . S
C414 H419 0.929 . S
C415 C414 1.457 . S
C415 C416 1.291 . S
C415 H428 0.931 . S
C416 C415 1.291 . S
C416 C417 1.373 . S
C416 H429 0.929 . S
C417 C416 1.373 . S
C417 C418 1.396 . S
C417 C424 1.403 . S
C418 C408 1.476 . S
C418 N413 1.318 . S
C418 C417 1.396 . S
H419 C414 0.929 . S
O420 Mn396 2.385 . S
O420 C398 1.234 . S
O421 Mn396 2.209 . S
O421 Mn397 2.215 . S
O421 C398 1.283 . S
O422 Mn396 2.094 . S
O422 C400 1.240 . S
O423 Mn397 2.117 . S
O423 C400 1.264 . S
C424 C417 1.403 . S
C424 C425 1.399 . S
C424 H430 0.929 . S
C425 C405 1.449 . S
C425 C424 1.399 . S
C425 H431 0.930 . S
H426 C406 0.931 . S
H427 C407 0.930 . S
H428 C415 0.931 . S
H429 C416 0.929 . S
H430 C424 0.929 . S
H431 C425 0.930 . S
Mn432 O437 2.095 . S
Mn432 O447 2.162 1_545 S
Mn432 O448 2.297 1_545 S
Mn432 O456 2.385 . S
Mn432 O457 2.209 . S
Mn432 O458 2.094 . S
Mn433 O438 2.121 . S
Mn433 N440 2.257 . S
Mn433 N449 2.282 . S
Mn433 O457 2.215 . S
Mn433 O459 2.117 . S
C434 O456 1.234 . S
C434 O457 1.283 . S
C435 O447 1.281 . S
C435 O448 1.236 . S
C436 O458 1.240 . S
C436 O459 1.264 . S
O437 Mn432 2.095 . S
O437 C446 1.250 . S
O438 Mn433 2.121 . S
O438 C446 1.258 . S
C439 N440 1.326 . S
C439 C443 1.460 . S
C439 H445 0.929 . S
N440 Mn433 2.257 . S
N440 C439 1.326 . S
N440 C444 1.362 . S
C441 C442 1.258 . S
C441 C444 1.431 . S
C441 C461 1.449 . S
C442 C441 1.258 . S
C442 C443 1.477 . S
C442 H462 0.931 . S
C443 C439 1.460 . S
C443 C442 1.477 . S
C443 H463 0.930 . S
C444 N440 1.362 . S
C444 C441 1.431 . S
C444 C454 1.476 . S
H445 C439 0.929 . S
C446 O437 1.250 . S
C446 O438 1.258 . S
O447 Mn432 2.162 1_565 S
O447 C435 1.281 . S
O448 Mn432 2.297 1_565 S
O448 C435 1.236 . S
N449 Mn433 2.282 . S
N449 C450 1.328 . S
N449 C454 1.318 . S
C450 N449 1.328 . S
C450 C451 1.457 . S
C450 H455 0.929 . S
C451 C450 1.457 . S
C451 C452 1.291 . S
C451 H464 0.931 . S
C452 C451 1.291 . S
C452 C453 1.373 . S
C452 H465 0.929 . S
C453 C452 1.373 . S
C453 C454 1.396 . S
C453 C460 1.403 . S
C454 C444 1.476 . S
C454 N449 1.318 . S
C454 C453 1.396 . S
H455 C450 0.929 . S
O456 Mn432 2.385 . S
O456 C434 1.234 . S
O457 Mn432 2.209 . S
O457 Mn433 2.215 . S
O457 C434 1.283 . S
O458 Mn432 2.094 . S
O458 C436 1.240 . S
O459 Mn433 2.117 . S
O459 C436 1.264 . S
C460 C453 1.403 . S
C460 C461 1.399 . S
C460 H466 0.929 . S
C461 C441 1.449 . S
C461 C460 1.399 . S
C461 H467 0.930 . S
H462 C442 0.931 . S
H463 C443 0.930 . S
H464 C451 0.931 . S
H465 C452 0.929 . S
H466 C460 0.929 . S
H467 C461 0.930 . S
Mn468 O473 2.095 1_655 S
Mn468 O483 2.162 . S
Mn468 O484 2.297 . S
Mn468 O492 2.385 . S
Mn468 O493 2.209 . S
Mn468 O494 2.094 . S
Mn469 O474 2.121 1_655 S
Mn469 N476 2.257 . S
Mn469 N485 2.282 . S
Mn469 O493 2.215 . S
Mn469 O495 2.117 . S
C470 O492 1.234 . S
C470 O493 1.283 . S
C471 O483 1.281 . S
C471 O484 1.236 . S
C472 O494 1.240 . S
C472 O495 1.264 . S
O473 Mn468 2.095 1_455 S
O473 C482 1.250 . S
O474 Mn469 2.121 1_455 S
O474 C482 1.258 . S
C475 N476 1.326 1_455 S
C475 C479 1.460 . S
C475 H481 0.929 . S
N476 Mn469 2.257 . S
N476 C475 1.326 1_655 S
N476 C480 1.362 . S
C477 C478 1.258 1_655 S
C477 C480 1.431 . S
C477 C497 1.449 . S
C478 C477 1.258 1_455 S
C478 C479 1.477 . S
C478 H498 0.931 . S
C479 C475 1.460 . S
C479 C478 1.477 . S
C479 H499 0.930 . S
C480 N476 1.362 . S
C480 C477 1.431 . S
C480 C490 1.476 . S
H481 C475 0.929 . S
C482 O473 1.250 . S
C482 O474 1.258 . S
O483 Mn468 2.162 . S
O483 C471 1.281 . S
O484 Mn468 2.297 . S
O484 C471 1.236 . S
N485 Mn469 2.282 . S
N485 C486 1.328 . S
N485 C490 1.318 . S
C486 N485 1.328 . S
C486 C487 1.457 . S
C486 H491 0.929 . S
C487 C486 1.457 . S
C487 C488 1.291 . S
C487 H500 0.931 . S
C488 C487 1.291 . S
C488 C489 1.373 . S
C488 H501 0.929 . S
C489 C488 1.373 . S
C489 C490 1.396 . S
C489 C496 1.403 . S
C490 C480 1.476 . S
C490 N485 1.318 . S
C490 C489 1.396 . S
H491 C486 0.929 . S
O492 Mn468 2.385 . S
O492 C470 1.234 . S
O493 Mn468 2.209 . S
O493 Mn469 2.215 . S
O493 C470 1.283 . S
O494 Mn468 2.094 . S
O494 C472 1.240 . S
O495 Mn469 2.117 . S
O495 C472 1.264 . S
C496 C489 1.403 . S
C496 C497 1.399 . S
C496 H502 0.929 . S
C497 C477 1.449 . S
C497 C496 1.399 . S
C497 H503 0.930 . S
H498 C478 0.931 . S
H499 C479 0.930 . S
H500 C487 0.931 . S
H501 C488 0.929 . S
H502 C496 0.929 . S
H503 C497 0.930 . S
Mn504 O509 2.095 . S
Mn504 O519 2.162 . S
Mn504 O520 2.297 . S
Mn504 O528 2.385 . S
Mn504 O529 2.209 . S
Mn504 O530 2.094 . S
Mn505 O510 2.121 . S
Mn505 N512 2.257 . S
Mn505 N521 2.282 . S
Mn505 O529 2.215 . S
Mn505 O531 2.117 . S
C506 O528 1.234 . S
C506 O529 1.283 . S
C507 O519 1.281 . S
C507 O520 1.236 . S
C508 O530 1.240 . S
C508 O531 1.264 . S
O509 Mn504 2.095 . S
O509 C518 1.250 . S
O510 Mn505 2.121 . S
O510 C518 1.258 . S
C511 N512 1.326 . S
C511 C515 1.460 . S
C511 H517 0.929 . S
N512 Mn505 2.257 . S
N512 C511 1.326 . S
N512 C516 1.362 . S
C513 C514 1.258 . S
C513 C516 1.431 . S
C513 C533 1.449 . S
C514 C513 1.258 . S
C514 C515 1.477 . S
C514 H534 0.931 . S
C515 C511 1.460 . S
C515 C514 1.477 . S
C515 H535 0.930 . S
C516 N512 1.362 . S
C516 C513 1.431 . S
C516 C526 1.476 . S
H517 C511 0.929 . S
C518 O509 1.250 . S
C518 O510 1.258 . S
O519 Mn504 2.162 . S
O519 C507 1.281 . S
O520 Mn504 2.297 . S
O520 C507 1.236 . S
N521 Mn505 2.282 . S
N521 C522 1.328 . S
N521 C526 1.318 . S
C522 N521 1.328 . S
C522 C523 1.457 . S
C522 H527 0.929 . S
C523 C522 1.457 . S
C523 C524 1.291 . S
C523 H536 0.931 . S
C524 C523 1.291 . S
C524 C525 1.373 . S
C524 H537 0.929 . S
C525 C524 1.373 . S
C525 C526 1.396 . S
C525 C532 1.403 . S
C526 C516 1.476 . S
C526 N521 1.318 . S
C526 C525 1.396 . S
H527 C522 0.929 . S
O528 Mn504 2.385 . S
O528 C506 1.234 . S
O529 Mn504 2.209 . S
O529 Mn505 2.215 . S
O529 C506 1.283 . S
O530 Mn504 2.094 . S
O530 C508 1.240 . S
O531 Mn505 2.117 . S
O531 C508 1.264 . S
C532 C525 1.403 . S
C532 C533 1.399 . S
C532 H538 0.929 . S
C533 C513 1.449 . S
C533 C532 1.399 . S
C533 H539 0.930 . S
H534 C514 0.931 . S
H535 C515 0.930 . S
H536 C523 0.931 . S
H537 C524 0.929 . S
H538 C532 0.929 . S
H539 C533 0.930 . S
Mn540 O545 2.095 . S
Mn540 O555 2.162 . S
Mn540 O556 2.297 . S
Mn540 O564 2.385 . S
Mn540 O565 2.209 . S
Mn540 O566 2.094 . S
Mn541 O546 2.121 . S
Mn541 N548 2.257 . S
Mn541 N557 2.282 . S
Mn541 O565 2.215 . S
Mn541 O567 2.117 . S
C542 O564 1.234 . S
C542 O565 1.283 . S
C543 O555 1.281 . S
C543 O556 1.236 . S
C544 O566 1.240 . S
C544 O567 1.264 . S
O545 Mn540 2.095 . S
O545 C554 1.250 . S
O546 Mn541 2.121 . S
O546 C554 1.258 . S
C547 N548 1.326 . S
C547 C551 1.460 . S
C547 H553 0.929 . S
N548 Mn541 2.257 . S
N548 C547 1.326 . S
N548 C552 1.362 . S
C549 C550 1.258 . S
C549 C552 1.431 . S
C549 C569 1.449 . S
C550 C549 1.258 . S
C550 C551 1.477 . S
C550 H570 0.931 . S
C551 C547 1.460 . S
C551 C550 1.477 . S
C551 H571 0.930 . S
C552 N548 1.362 . S
C552 C549 1.431 . S
C552 C562 1.476 . S
H553 C547 0.929 . S
C554 O545 1.250 . S
C554 O546 1.258 . S
O555 Mn540 2.162 . S
O555 C543 1.281 . S
O556 Mn540 2.297 . S
O556 C543 1.236 . S
N557 Mn541 2.282 . S
N557 C558 1.328 . S
N557 C562 1.318 . S
C558 N557 1.328 . S
C558 C559 1.457 . S
C558 H563 0.929 . S
C559 C558 1.457 . S
C559 C560 1.291 . S
C559 H572 0.931 . S
C560 C559 1.291 . S
C560 C561 1.373 . S
C560 H573 0.929 . S
C561 C560 1.373 . S
C561 C562 1.396 . S
C561 C568 1.403 . S
C562 C552 1.476 . S
C562 N557 1.318 . S
C562 C561 1.396 . S
H563 C558 0.929 . S
O564 Mn540 2.385 . S
O564 C542 1.234 . S
O565 Mn540 2.209 . S
O565 Mn541 2.215 . S
O565 C542 1.283 . S
O566 Mn540 2.094 . S
O566 C544 1.240 . S
O567 Mn541 2.117 . S
O567 C544 1.264 . S
C568 C561 1.403 . S
C568 C569 1.399 . S
C568 H574 0.929 . S
C569 C549 1.449 . S
C569 C568 1.399 . S
C569 H575 0.930 . S
H570 C550 0.931 . S
H571 C551 0.930 . S
H572 C559 0.931 . S
H573 C560 0.929 . S
H574 C568 0.929 . S
H575 C569 0.930 . S
Mn576 O581 2.095 1_545 S
Mn576 O591 2.162 . S
Mn576 O592 2.296 1_545 S
Mn576 O600 2.385 . S
Mn576 O601 2.209 . S
Mn576 O602 2.094 . S
Mn577 O582 2.121 1_545 S
Mn577 N584 2.257 . S
Mn577 N593 2.282 . S
Mn577 O601 2.215 . S
Mn577 O603 2.117 . S
C578 O600 1.234 . S
C578 O601 1.283 . S
C579 O591 1.281 . S
C579 O592 1.232 1_545 S
C580 O602 1.240 . S
C580 O603 1.264 . S
O581 Mn576 2.095 1_565 S
O581 C590 1.250 . S
O582 Mn577 2.121 1_565 S
O582 C590 1.258 . S
C583 N584 1.326 1_565 S
C583 C587 1.460 . S
C583 H589 0.929 . S
N584 Mn577 2.257 . S
N584 C583 1.326 1_545 S
N584 C588 1.362 . S
C585 C586 1.258 1_545 S
C585 C588 1.431 . S
C585 C605 1.449 . S
C586 C585 1.258 1_565 S
C586 C587 1.477 . S
C586 H606 0.931 . S
C587 C583 1.460 . S
C587 C586 1.477 . S
C587 H607 0.930 . S
C588 N584 1.362 . S
C588 C585 1.431 . S
C588 C598 1.476 . S
H589 C583 0.929 . S
C590 O581 1.250 . S
C590 O582 1.258 . S
O591 Mn576 2.162 . S
O591 C579 1.281 . S
O592 Mn576 2.296 1_565 S
O592 C579 1.232 1_565 S
N593 Mn577 2.282 . S
N593 C594 1.328 . S
N593 C598 1.318 . S
C594 N593 1.328 . S
C594 C595 1.457 . S
C594 H599 0.929 . S
C595 C594 1.457 . S
C595 C596 1.291 . S
C595 H608 0.931 . S
C596 C595 1.291 . S
C596 C597 1.373 . S
C596 H609 0.929 . S
C597 C596 1.373 . S
C597 C598 1.396 . S
C597 C604 1.403 . S
C598 C588 1.476 . S
C598 N593 1.318 . S
C598 C597 1.396 . S
H599 C594 0.929 . S
O600 Mn576 2.385 . S
O600 C578 1.234 . S
O601 Mn576 2.209 . S
O601 Mn577 2.215 . S
O601 C578 1.283 . S
O602 Mn576 2.094 . S
O602 C580 1.240 . S
O603 Mn577 2.117 . S
O603 C580 1.264 . S
C604 C597 1.403 . S
C604 C605 1.399 . S
C604 H610 0.929 . S
C605 C585 1.449 . S
C605 C604 1.399 . S
C605 H611 0.930 . S
H606 C586 0.931 . S
H607 C587 0.930 . S
H608 C595 0.931 . S
H609 C596 0.929 . S
H610 C604 0.929 . S
H611 C605 0.930 . S
Mn612 O617 2.095 . S
Mn612 O627 2.162 1_655 S
Mn612 O628 2.297 1_655 S
Mn612 O636 2.385 . S
Mn612 O637 2.209 . S
Mn612 O638 2.094 . S
Mn613 O618 2.121 . S
Mn613 N620 2.257 . S
Mn613 N629 2.282 . S
Mn613 O637 2.215 . S
Mn613 O639 2.117 . S
C614 O636 1.234 . S
C614 O637 1.283 . S
C615 O627 1.281 . S
C615 O628 1.236 . S
C616 O638 1.240 . S
C616 O639 1.264 . S
O617 Mn612 2.095 . S
O617 C626 1.250 . S
O618 Mn613 2.121 . S
O618 C626 1.258 . S
C619 N620 1.326 . S
C619 C623 1.460 . S
C619 H625 0.929 . S
N620 Mn613 2.257 . S
N620 C619 1.326 . S
N620 C624 1.362 . S
C621 C622 1.258 . S
C621 C624 1.431 . S
C621 C641 1.449 . S
C622 C621 1.258 . S
C622 C623 1.477 . S
C622 H642 0.931 . S
C623 C619 1.460 . S
C623 C622 1.477 . S
C623 H643 0.930 . S
C624 N620 1.362 . S
C624 C621 1.431 . S
C624 C634 1.476 . S
H625 C619 0.929 . S
C626 O617 1.250 . S
C626 O618 1.258 . S
O627 Mn612 2.162 1_455 S
O627 C615 1.281 . S
O628 Mn612 2.297 1_455 S
O628 C615 1.236 . S
N629 Mn613 2.282 . S
N629 C630 1.328 . S
N629 C634 1.318 . S
C630 N629 1.328 . S
C630 C631 1.457 . S
C630 H635 0.929 . S
C631 C630 1.457 . S
C631 C632 1.291 . S
C631 H644 0.931 . S
C632 C631 1.291 . S
C632 C633 1.373 . S
C632 H645 0.929 . S
C633 C632 1.373 . S
C633 C634 1.396 . S
C633 C640 1.403 . S
C634 C624 1.476 . S
C634 N629 1.318 . S
C634 C633 1.396 . S
H635 C630 0.929 . S
O636 Mn612 2.385 . S
O636 C614 1.234 . S
O637 Mn612 2.209 . S
O637 Mn613 2.215 . S
O637 C614 1.283 . S
O638 Mn612 2.094 . S
O638 C616 1.240 . S
O639 Mn613 2.117 . S
O639 C616 1.264 . S
C640 C633 1.403 . S
C640 C641 1.399 . S
C640 H646 0.929 . S
C641 C621 1.449 . S
C641 C640 1.399 . S
C641 H647 0.930 . S
H642 C622 0.931 . S
H643 C623 0.930 . S
H644 C631 0.931 . S
H645 C632 0.929 . S
H646 C640 0.929 . S
H647 C641 0.930 . S
H648 C656 0.930 . S
H649 C659 0.930 . S
H650 C661 0.930 . S
H651 C662 0.970 . S
H652 C662 0.970 . S
H653 C664 0.930 . S
H654 C666 0.930 . S
H655 C668 0.930 . S
C656 H648 0.930 . S
C656 C657 1.382 . S
C656 C658 1.426 . S
C657 C656 1.382 . S
C657 C661 1.389 . S
C658 C656 1.426 . S
C658 C659 1.375 . S
C658 C662 1.532 . S
C659 H649 0.930 . S
C659 C658 1.375 . S
C659 C660 1.416 . S
C660 C659 1.416 . S
C660 C661 1.371 . S
C661 H650 0.930 . S
C661 C657 1.389 . S
C661 C660 1.371 . S
C662 H651 0.970 . S
C662 H652 0.970 . S
C662 C658 1.532 . S
C662 C663 1.499 . S
C663 C662 1.499 . S
C663 C664 1.370 . S
C663 C668 1.415 . S
C664 H653 0.930 . S
C664 C663 1.370 . S
C664 C665 1.407 . S
C665 C664 1.407 . S
C665 C666 1.365 . S
C666 H654 0.930 . S
C666 C665 1.365 . S
C666 C667 1.393 . S
C667 C666 1.393 . S
C667 C668 1.387 . S
C668 H655 0.930 . S
C668 C663 1.415 . S
C668 C667 1.387 . S
H669 C677 0.930 . S
H670 C680 0.930 . S
H671 C682 0.930 . S
H672 C683 0.970 . S
H673 C683 0.970 . S
H674 C685 0.930 . S
H675 C687 0.930 . S
H676 C689 0.930 . S
C677 H669 0.930 . S
C677 C678 1.382 . S
C677 C679 1.426 . S
C678 C677 1.382 . S
C678 C682 1.389 . S
C679 C677 1.426 . S
C679 C680 1.375 . S
C679 C683 1.532 . S
C680 H670 0.930 . S
C680 C679 1.375 . S
C680 C681 1.416 . S
C681 C680 1.416 . S
C681 C682 1.371 . S
C682 H671 0.930 . S
C682 C678 1.389 . S
C682 C681 1.371 . S
C683 H672 0.970 . S
C683 H673 0.970 . S
C683 C679 1.532 . S
C683 C684 1.499 . S
C684 C683 1.499 . S
C684 C685 1.370 . S
C684 C689 1.415 . S
C685 H674 0.930 . S
C685 C684 1.370 . S
C685 C686 1.407 . S
C686 C685 1.407 . S
C686 C687 1.365 . S
C687 H675 0.930 . S
C687 C686 1.365 . S
C687 C688 1.393 . S
C688 C687 1.393 . S
C688 C689 1.387 . S
C689 H676 0.930 . S
C689 C684 1.415 . S
C689 C688 1.387 . S
H690 C698 0.930 . S
H691 C701 0.930 . S
H692 C703 0.930 . S
H693 C704 0.970 . S
H694 C704 0.970 . S
H695 C706 0.930 . S
H696 C708 0.930 . S
H697 C710 0.930 . S
C698 H690 0.930 . S
C698 C699 1.382 . S
C698 C700 1.426 . S
C699 C698 1.382 . S
C699 C703 1.389 . S
C700 C698 1.426 . S
C700 C701 1.375 . S
C700 C704 1.532 . S
C701 H691 0.930 . S
C701 C700 1.375 . S
C701 C702 1.416 . S
C702 C701 1.416 . S
C702 C703 1.371 . S
C703 H692 0.930 . S
C703 C699 1.389 . S
C703 C702 1.371 . S
C704 H693 0.970 . S
C704 H694 0.970 . S
C704 C700 1.532 . S
C704 C705 1.499 . S
C705 C704 1.499 . S
C705 C706 1.370 . S
C705 C710 1.415 . S
C706 H695 0.930 . S
C706 C705 1.370 . S
C706 C707 1.407 . S
C707 C706 1.407 . S
C707 C708 1.365 . S
C708 H696 0.930 . S
C708 C707 1.365 . S
C708 C709 1.393 . S
C709 C708 1.393 . S
C709 C710 1.387 . S
C710 H697 0.930 . S
C710 C705 1.415 . S
C710 C709 1.387 . S
H711 C719 0.930 . S
H712 C722 0.930 . S
H713 C724 0.930 . S
H714 C725 0.970 . S
H715 C725 0.970 . S
H716 C727 0.930 . S
H717 C729 0.930 . S
H718 C731 0.930 . S
C719 H711 0.930 . S
C719 C720 1.382 . S
C719 C721 1.426 . S
C720 C719 1.382 . S
C720 C724 1.389 . S
C721 C719 1.426 . S
C721 C722 1.375 . S
C721 C725 1.532 . S
C722 H712 0.930 . S
C722 C721 1.375 . S
C722 C723 1.416 . S
C723 C722 1.416 . S
C723 C724 1.371 . S
C724 H713 0.930 . S
C724 C720 1.389 . S
C724 C723 1.371 . S
C725 H714 0.970 . S
C725 H715 0.970 . S
C725 C721 1.532 . S
C725 C726 1.499 . S
C726 C725 1.499 . S
C726 C727 1.370 . S
C726 C731 1.415 . S
C727 H716 0.930 . S
C727 C726 1.370 . S
C727 C728 1.407 . S
C728 C727 1.407 . S
C728 C729 1.365 . S
C729 H717 0.930 . S
C729 C728 1.365 . S
C729 C730 1.393 . S
C730 C729 1.393 . S
C730 C731 1.387 . S
C731 H718 0.930 . S
C731 C726 1.415 . S
C731 C730 1.387 . S
H732 C740 0.930 . S
H733 C743 0.930 . S
H734 C745 0.930 . S
H735 C746 0.970 . S
H736 C746 0.970 . S
H737 C748 0.930 . S
H738 C750 0.930 . S
H739 C752 0.930 . S
C740 H732 0.930 . S
C740 C741 1.382 . S
C740 C742 1.426 . S
C741 C740 1.382 . S
C741 C745 1.389 . S
C742 C740 1.426 . S
C742 C743 1.375 . S
C742 C746 1.532 . S
C743 H733 0.930 . S
C743 C742 1.375 . S
C743 C744 1.416 . S
C744 C743 1.416 . S
C744 C745 1.371 . S
C745 H734 0.930 . S
C745 C741 1.389 . S
C745 C744 1.371 . S
C746 H735 0.970 . S
C746 H736 0.970 . S
C746 C742 1.532 . S
C746 C747 1.499 . S
C747 C746 1.499 . S
C747 C748 1.370 . S
C747 C752 1.415 . S
C748 H737 0.930 . S
C748 C747 1.370 . S
C748 C749 1.407 . S
C749 C748 1.407 . S
C749 C750 1.365 . S
C750 H738 0.930 . S
C750 C749 1.365 . S
C750 C751 1.393 . S
C751 C750 1.393 . S
C751 C752 1.387 . S
C752 H739 0.930 . S
C752 C747 1.415 . S
C752 C751 1.387 . S
H753 C761 0.930 . S
H754 C764 0.930 . S
H755 C766 0.930 . S
H756 C767 0.970 . S
H757 C767 0.970 . S
H758 C769 0.930 . S
H759 C771 0.930 . S
H760 C773 0.930 . S
C761 H753 0.930 . S
C761 C762 1.382 . S
C761 C763 1.426 . S
C762 C761 1.382 . S
C762 C766 1.389 . S
C763 C761 1.426 . S
C763 C764 1.375 . S
C763 C767 1.532 . S
C764 H754 0.930 . S
C764 C763 1.375 . S
C764 C765 1.416 . S
C765 C764 1.416 . S
C765 C766 1.371 . S
C766 H755 0.930 . S
C766 C762 1.389 . S
C766 C765 1.371 . S
C767 H756 0.970 . S
C767 H757 0.970 . S
C767 C763 1.532 . S
C767 C768 1.499 . S
C768 C767 1.499 . S
C768 C769 1.370 . S
C768 C773 1.415 . S
C769 H758 0.930 . S
C769 C768 1.370 . S
C769 C770 1.407 . S
C770 C769 1.407 . S
C770 C771 1.365 . S
C771 H759 0.930 . S
C771 C770 1.365 . S
C771 C772 1.393 . S
C772 C771 1.393 . S
C772 C773 1.387 . S
C773 H760 0.930 . S
C773 C768 1.415 . S
C773 C772 1.387 . S
H774 C782 0.930 . S
H775 C785 0.930 . S
H776 C787 0.930 . S
H777 C788 0.970 . S
H778 C788 0.970 . S
H779 C790 0.930 . S
H780 C792 0.930 . S
H781 C794 0.930 . S
C782 H774 0.930 . S
C782 C783 1.382 . S
C782 C784 1.426 . S
C783 C782 1.382 . S
C783 C787 1.389 . S
C784 C782 1.426 . S
C784 C785 1.375 . S
C784 C788 1.532 . S
C785 H775 0.930 . S
C785 C784 1.375 . S
C785 C786 1.416 . S
C786 C785 1.416 . S
C786 C787 1.371 . S
C787 H776 0.930 . S
C787 C783 1.389 . S
C787 C786 1.371 . S
C788 H777 0.970 . S
C788 H778 0.970 . S
C788 C784 1.532 . S
C788 C789 1.499 . S
C789 C788 1.499 . S
C789 C790 1.370 . S
C789 C794 1.415 . S
C790 H779 0.930 . S
C790 C789 1.370 . S
C790 C791 1.407 . S
C791 C790 1.407 . S
C791 C792 1.365 . S
C792 H780 0.930 . S
C792 C791 1.365 . S
C792 C793 1.393 . S
C793 C792 1.393 . S
C793 C794 1.387 . S
C794 H781 0.930 . S
C794 C789 1.415 . S
C794 C793 1.387 . S
H795 C803 0.930 . S
H796 C806 0.930 . S
H797 C808 0.930 . S
H798 C809 0.970 . S
H799 C809 0.970 . S
H800 C811 0.930 . S
H801 C813 0.930 . S
H802 C815 0.930 . S
C803 H795 0.930 . S
C803 C804 1.382 . S
C803 C805 1.426 . S
C804 C803 1.382 . S
C804 C808 1.389 . S
C805 C803 1.426 . S
C805 C806 1.375 . S
C805 C809 1.532 . S
C806 H796 0.930 . S
C806 C805 1.375 . S
C806 C807 1.416 . S
C807 C806 1.416 . S
C807 C808 1.371 . S
C808 H797 0.930 . S
C808 C804 1.389 . S
C808 C807 1.371 . S
C809 H798 0.970 . S
C809 H799 0.970 . S
C809 C805 1.532 . S
C809 C810 1.499 . S
C810 C809 1.499 . S
C810 C811 1.370 . S
C810 C815 1.415 . S
C811 H800 0.930 . S
C811 C810 1.370 . S
C811 C812 1.407 . S
C812 C811 1.407 . S
C812 C813 1.365 . S
C813 H801 0.930 . S
C813 C812 1.365 . S
C813 C814 1.393 . S
C814 C813 1.393 . S
C814 C815 1.387 . S
C815 H802 0.930 . S
C815 C810 1.415 . S
C815 C814 1.387 . S
H816 C824 0.930 . S
H817 C827 0.930 . S
H818 C829 0.930 . S
H819 C830 0.970 . S
H820 C830 0.970 . S
H821 C832 0.930 . S
H822 C834 0.930 . S
H823 C836 0.930 . S
C824 H816 0.930 . S
C824 C825 1.382 . S
C824 C826 1.426 . S
C825 C824 1.382 . S
C825 C829 1.389 . S
C826 C824 1.426 . S
C826 C827 1.375 . S
C826 C830 1.532 . S
C827 H817 0.930 . S
C827 C826 1.375 . S
C827 C828 1.416 . S
C828 C827 1.416 . S
C828 C829 1.371 . S
C829 H818 0.930 . S
C829 C825 1.389 . S
C829 C828 1.371 . S
C830 H819 0.970 . S
C830 H820 0.970 . S
C830 C826 1.532 . S
C830 C831 1.499 . S
C831 C830 1.499 . S
C831 C832 1.370 . S
C831 C836 1.415 . S
C832 H821 0.930 . S
C832 C831 1.370 . S
C832 C833 1.407 . S
C833 C832 1.407 . S
C833 C834 1.365 . S
C834 H822 0.930 . S
C834 C833 1.365 . S
C834 C835 1.393 . S
C835 C834 1.393 . S
C835 C836 1.387 . S
C836 H823 0.930 . S
C836 C831 1.415 . S
C836 C835 1.387 . S
H837 C845 0.930 . S
H838 C848 0.930 . S
H839 C850 0.930 . S
H840 C851 0.970 . S
H841 C851 0.970 . S
H842 C853 0.930 . S
H843 C855 0.930 . S
H844 C857 0.930 . S
C845 H837 0.930 . S
C845 C846 1.382 . S
C845 C847 1.426 . S
C846 C845 1.382 . S
C846 C850 1.389 1_455 S
C847 C845 1.426 . S
C847 C848 1.375 . S
C847 C851 1.532 . S
C848 H838 0.930 . S
C848 C847 1.375 . S
C848 C849 1.416 . S
C849 C848 1.416 . S
C849 C850 1.371 1_455 S
C850 H839 0.930 . S
C850 C846 1.389 1_655 S
C850 C849 1.371 1_655 S
C851 H840 0.970 . S
C851 H841 0.970 . S
C851 C847 1.532 . S
C851 C852 1.499 . S
C852 C851 1.499 . S
C852 C853 1.370 . S
C852 C857 1.415 . S
C853 H842 0.930 . S
C853 C852 1.370 . S
C853 C854 1.411 . S
C854 C853 1.411 . S
C854 C855 1.367 1_455 S
C855 H843 0.930 . S
C855 C854 1.367 1_655 S
C855 C856 1.393 1_655 S
C856 C855 1.393 1_455 S
C856 C857 1.387 . S
C857 H844 0.930 . S
C857 C852 1.415 . S
C857 C856 1.387 . S
H858 C866 0.930 . S
H859 C869 0.930 . S
H860 C871 0.930 . S
H861 C872 0.970 . S
H862 C872 0.970 . S
H863 C874 0.930 . S
H864 C876 0.930 . S
H865 C878 0.930 . S
C866 H858 0.930 . S
C866 C867 1.382 . S
C866 C868 1.426 . S
C867 C866 1.382 . S
C867 C871 1.389 . S
C868 C866 1.426 . S
C868 C869 1.375 . S
C868 C872 1.532 . S
C869 H859 0.930 . S
C869 C868 1.375 . S
C869 C870 1.416 . S
C870 C869 1.416 . S
C870 C871 1.371 . S
C871 H860 0.930 . S
C871 C867 1.389 . S
C871 C870 1.371 . S
C872 H861 0.970 . S
C872 H862 0.970 . S
C872 C868 1.532 . S
C872 C873 1.499 . S
C873 C872 1.499 . S
C873 C874 1.370 . S
C873 C878 1.415 . S
C874 H863 0.930 . S
C874 C873 1.370 . S
C874 C875 1.407 . S
C875 C874 1.407 . S
C875 C876 1.365 . S
C876 H864 0.930 . S
C876 C875 1.365 . S
C876 C877 1.393 . S
C877 C876 1.393 . S
C877 C878 1.387 . S
C878 H865 0.930 . S
C878 C873 1.415 . S
C878 C877 1.387 . S
H879 C887 0.930 . S
H880 C890 0.930 . S
H881 C892 0.930 . S
H882 C893 0.970 . S
H883 C893 0.970 . S
H884 C895 0.930 . S
H885 C897 0.930 . S
H886 C899 0.930 . S
C887 H879 0.930 . S
C887 C888 1.382 . S
C887 C889 1.426 . S
C888 C887 1.382 . S
C888 C892 1.389 1_565 S
C889 C887 1.426 . S
C889 C890 1.375 . S
C889 C893 1.532 . S
C890 H880 0.930 . S
C890 C889 1.375 . S
C890 C891 1.416 . S
C891 C890 1.416 . S
C891 C892 1.371 1_565 S
C892 H881 0.930 . S
C892 C888 1.389 1_545 S
C892 C891 1.371 1_545 S
C893 H882 0.970 . S
C893 H883 0.970 . S
C893 C889 1.532 . S
C893 C894 1.499 . S
C894 C893 1.499 . S
C894 C895 1.370 . S
C894 C899 1.415 . S
C895 H884 0.930 . S
C895 C894 1.370 . S
C895 C896 1.447 . S
C896 C895 1.447 . S
C896 C897 1.349 1_565 S
C897 H885 0.930 . S
C897 C896 1.349 1_545 S
C897 C898 1.393 1_545 S
C898 C897 1.393 1_565 S
C898 C899 1.387 . S
C899 H886 0.930 . S
C899 C894 1.415 . S
C899 C898 1.387 . S
H900 C908 0.930 . S
H901 C911 0.930 . S
H902 C913 0.930 . S
H903 C914 0.970 . S
H904 C914 0.970 . S
H905 C916 0.930 . S
H906 C918 0.930 . S
H907 C920 0.930 . S
C908 H900 0.930 . S
C908 C909 1.382 . S
C908 C910 1.426 . S
C909 C908 1.382 . S
C909 C913 1.389 1_565 S
C910 C908 1.426 . S
C910 C911 1.375 . S
C910 C914 1.532 . S
C911 H901 0.930 . S
C911 C910 1.375 . S
C911 C912 1.416 . S
C912 C911 1.416 . S
C912 C913 1.371 1_565 S
C913 H902 0.930 . S
C913 C909 1.389 1_545 S
C913 C912 1.371 1_545 S
C914 H903 0.970 . S
C914 H904 0.970 . S
C914 C910 1.532 . S
C914 C915 1.499 . S
C915 C914 1.499 . S
C915 C916 1.370 . S
C915 C920 1.415 . S
C916 H905 0.930 . S
C916 C915 1.370 . S
C916 C917 1.407 . S
C917 C916 1.407 . S
C917 C918 1.365 1_565 S
C918 H906 0.930 . S
C918 C917 1.365 1_545 S
C918 C919 1.393 1_545 S
C919 C918 1.393 1_565 S
C919 C920 1.387 . S
C920 H907 0.930 . S
C920 C915 1.415 . S
C920 C919 1.387 . S
H921 C929 0.930 . S
H922 C932 0.930 . S
H923 C934 0.930 . S
H924 C935 0.970 . S
H925 C935 0.970 . S
H926 C937 0.930 . S
H927 C939 0.930 . S
H928 C941 0.930 . S
C929 H921 0.930 . S
C929 C930 1.382 . S
C929 C931 1.426 . S
C930 C929 1.382 . S
C930 C934 1.389 1_455 S
C931 C929 1.426 . S
C931 C932 1.375 . S
C931 C935 1.532 . S
C932 H922 0.930 . S
C932 C931 1.375 . S
C932 C933 1.416 . S
C933 C932 1.416 . S
C933 C934 1.371 1_455 S
C934 H923 0.930 . S
C934 C930 1.389 1_655 S
C934 C933 1.371 1_655 S
C935 H924 0.970 . S
C935 H925 0.970 . S
C935 C931 1.532 . S
C935 C936 1.499 . S
C936 C935 1.499 . S
C936 C937 1.370 . S
C936 C941 1.415 . S
C937 H926 0.930 . S
C937 C936 1.370 . S
C937 C938 1.407 . S
C938 C937 1.407 . S
C938 C939 1.365 1_455 S
C939 H927 0.930 . S
C939 C938 1.365 1_655 S
C939 C940 1.393 1_655 S
C940 C939 1.393 1_455 S
C940 C941 1.387 . S
C941 H928 0.930 . S
C941 C936 1.415 . S
C941 C940 1.387 . S
H942 C950 0.930 . S
H943 C953 0.930 . S
H944 C955 0.930 . S
H945 C956 0.970 . S
H946 C956 0.970 . S
H947 C958 0.930 . S
H948 C960 0.930 . S
H949 C962 0.930 . S
C950 H942 0.930 . S
C950 C951 1.382 . S
C950 C952 1.426 . S
C951 C950 1.382 . S
C951 C955 1.389 . S
C952 C950 1.426 . S
C952 C953 1.375 . S
C952 C956 1.532 . S
C953 H943 0.930 . S
C953 C952 1.375 . S
C953 C954 1.416 . S
C954 C953 1.416 . S
C954 C955 1.371 . S
C955 H944 0.930 . S
C955 C951 1.389 . S
C955 C954 1.371 . S
C956 H945 0.970 . S
C956 H946 0.970 . S
C956 C952 1.532 . S
C956 C957 1.499 . S
C957 C956 1.499 . S
C957 C958 1.370 . S
C957 C962 1.415 . S
C958 H947 0.930 . S
C958 C957 1.370 . S
C958 C959 1.407 . S
C959 C958 1.407 . S
C959 C960 1.365 . S
C960 H948 0.930 . S
C960 C959 1.365 . S
C960 C961 1.393 . S
C961 C960 1.393 . S
C961 C962 1.387 . S
C962 H949 0.930 . S
C962 C957 1.415 . S
C962 C961 1.387 . S
H963 C971 0.930 . S
H964 C974 0.930 . S
H965 C976 0.930 . S
H966 C977 0.970 . S
H967 C977 0.970 . S
H968 C979 0.930 . S
H969 C981 0.930 . S
H970 C983 0.930 . S
C971 H963 0.930 . S
C971 C972 1.382 . S
C971 C973 1.426 . S
C972 C971 1.382 . S
C972 C976 1.389 . S
C973 C971 1.426 . S
C973 C974 1.375 . S
C973 C977 1.532 . S
C974 H964 0.930 . S
C974 C973 1.375 . S
C974 C975 1.416 . S
C975 C974 1.416 . S
C975 C976 1.371 . S
C976 H965 0.930 . S
C976 C972 1.389 . S
C976 C975 1.371 . S
C977 H966 0.970 . S
C977 H967 0.970 . S
C977 C973 1.532 . S
C977 C978 1.499 . S
C978 C977 1.499 . S
C978 C979 1.370 . S
C978 C983 1.415 . S
C979 H968 0.930 . S
C979 C978 1.370 . S
C979 C980 1.407 . S
C980 C979 1.407 . S
C980 C981 1.365 . S
C981 H969 0.930 . S
C981 C980 1.365 . S
C981 C982 1.393 . S
C982 C981 1.393 . S
C982 C983 1.387 . S
C983 H970 0.930 . S
C983 C978 1.415 . S
C983 C982 1.387 . S
H984 C992 0.930 . S
H985 C995 0.930 . S
H986 C997 0.930 . S
H987 C998 0.970 . S
H988 C998 0.970 . S
H989 C1000 0.930 . S
H990 C1002 0.930 . S
H991 C1004 0.930 . S
C992 H984 0.930 . S
C992 C993 1.382 . S
C992 C994 1.426 . S
C993 C992 1.382 . S
C993 C997 1.389 . S
C994 C992 1.426 . S
C994 C995 1.375 . S
C994 C998 1.532 . S
C995 H985 0.930 . S
C995 C994 1.375 . S
C995 C996 1.416 . S
C996 C995 1.416 . S
C996 C997 1.371 . S
C997 H986 0.930 . S
C997 C993 1.389 . S
C997 C996 1.371 . S
C998 H987 0.970 . S
C998 H988 0.970 . S
C998 C994 1.532 . S
C998 C999 1.499 . S
C999 C998 1.499 . S
C999 C1000 1.370 . S
C999 C1004 1.415 . S
C1000 H989 0.930 . S
C1000 C999 1.370 . S
C1000 C1001 1.407 . S
C1001 C1000 1.407 . S
C1001 C1002 1.365 . S
C1002 H990 0.930 . S
C1002 C1001 1.365 . S
C1002 C1003 1.393 . S
C1003 C1002 1.393 . S
C1003 C1004 1.387 . S
C1004 H991 0.930 . S
C1004 C999 1.415 . S
C1004 C1003 1.387 . S
H1005 C1013 0.930 . S
H1006 C1016 0.930 . S
H1007 C1018 0.930 . S
H1008 C1019 0.970 . S
H1009 C1019 0.970 . S
H1010 C1021 0.930 . S
H1011 C1023 0.930 . S
H1012 C1025 0.930 . S
C1013 H1005 0.930 . S
C1013 C1014 1.382 . S
C1013 C1015 1.426 . S
C1014 C1013 1.382 . S
C1014 C1018 1.389 . S
C1015 C1013 1.426 . S
C1015 C1016 1.375 . S
C1015 C1019 1.532 . S
C1016 H1006 0.930 . S
C1016 C1015 1.375 . S
C1016 C1017 1.416 . S
C1017 C1016 1.416 . S
C1017 C1018 1.371 . S
C1018 H1007 0.930 . S
C1018 C1014 1.389 . S
C1018 C1017 1.371 . S
C1019 H1008 0.970 . S
C1019 H1009 0.970 . S
C1019 C1015 1.532 . S
C1019 C1020 1.499 . S
C1020 C1019 1.499 . S
C1020 C1021 1.370 . S
C1020 C1025 1.415 . S
C1021 H1010 0.930 . S
C1021 C1020 1.370 . S
C1021 C1022 1.407 . S
C1022 C1021 1.407 . S
C1022 C1023 1.365 . S
C1023 H1011 0.930 . S
C1023 C1022 1.365 . S
C1023 C1024 1.393 . S
C1024 C1023 1.393 . S
C1024 C1025 1.387 . S
C1025 H1012 0.930 . S
C1025 C1020 1.415 . S
C1025 C1024 1.387 . S
C1026 C1027 1.363 . S
C1026 C1032 1.379 . S
C1026 N1034 1.356 . S
C1027 C1026 1.363 . S
C1027 C1033 1.363 1_655 S
C1028 C1029 1.363 1_455 S
C1028 C1033 1.379 . S
C1028 N1035 1.356 . S
C1029 C1028 1.363 1_655 S
C1029 C1032 1.363 . S
N1030 C1032 1.356 . S
N1030 H1042 0.984 . S
N1030 H1043 0.985 . S
N1031 C1033 1.356 . S
N1031 H1036 0.984 . S
N1031 H1037 0.985 . S
C1032 C1026 1.379 . S
C1032 C1029 1.363 . S
C1032 N1030 1.356 . S
C1033 C1027 1.363 1_455 S
C1033 C1028 1.379 . S
C1033 N1031 1.356 . S
N1034 C1026 1.356 . S
N1034 H1040 0.984 . S
N1034 H1041 0.984 . S
N1035 C1028 1.356 . S
N1035 H1038 0.984 . S
N1035 H1039 0.985 . S
H1036 N1031 0.984 . S
H1037 N1031 0.985 . S
H1038 N1035 0.984 . S
H1039 N1035 0.985 . S
H1040 N1034 0.984 . S
H1041 N1034 0.984 . S
H1042 N1030 0.984 . S
H1043 N1030 0.985 . S
C1044 C1045 1.363 . S
C1044 C1050 1.379 . S
C1044 N1052 1.356 . S
C1045 C1044 1.363 . S
C1045 C1051 1.363 . S
C1046 C1047 1.363 . S
C1046 C1051 1.379 . S
C1046 N1053 1.356 . S
C1047 C1046 1.363 . S
C1047 C1050 1.363 . S
N1048 C1050 1.356 . S
N1048 H1060 0.984 . S
N1048 H1061 0.985 . S
N1049 C1051 1.356 . S
N1049 H1054 0.984 . S
N1049 H1055 0.985 . S
C1050 C1044 1.379 . S
C1050 C1047 1.363 . S
C1050 N1048 1.356 . S
C1051 C1045 1.363 . S
C1051 C1046 1.379 . S
C1051 N1049 1.356 . S
N1052 C1044 1.356 . S
N1052 H1058 0.984 . S
N1052 H1059 0.984 . S
N1053 C1046 1.356 . S
N1053 H1056 0.984 . S
N1053 H1057 0.985 . S
H1054 N1049 0.984 . S
H1055 N1049 0.985 . S
H1056 N1053 0.984 . S
H1057 N1053 0.985 . S
H1058 N1052 0.984 . S
H1059 N1052 0.984 . S
H1060 N1048 0.984 . S
H1061 N1048 0.985 . S
C1062 C1063 1.363 . S
C1062 C1068 1.379 . S
C1062 N1070 1.356 . S
C1063 C1062 1.363 . S
C1063 C1069 1.363 1_545 S
C1064 C1065 1.363 1_565 S
C1064 C1069 1.379 . S
C1064 N1071 1.356 . S
C1065 C1064 1.363 1_545 S
C1065 C1068 1.363 . S
N1066 C1068 1.356 . S
N1066 H1078 0.984 . S
N1066 H1079 0.985 . S
N1067 C1069 1.356 . S
N1067 H1072 0.984 . S
N1067 H1073 0.985 . S
C1068 C1062 1.379 . S
C1068 C1065 1.363 . S
C1068 N1066 1.356 . S
C1069 C1063 1.363 1_565 S
C1069 C1064 1.379 . S
C1069 N1067 1.356 . S
N1070 C1062 1.356 . S
N1070 H1076 0.984 . S
N1070 H1077 0.984 . S
N1071 C1064 1.356 . S
N1071 H1074 0.984 . S
N1071 H1075 0.985 . S
H1072 N1067 0.984 . S
H1073 N1067 0.985 . S
H1074 N1071 0.984 . S
H1075 N1071 0.985 . S
H1076 N1070 0.984 . S
H1077 N1070 0.984 . S
H1078 N1066 0.984 . S
H1079 N1066 0.985 . S
C1080 C1081 1.363 1_545 S
C1080 C1086 1.379 . S
C1080 N1088 1.356 . S
C1081 C1080 1.363 1_565 S
C1081 C1087 1.363 . S
C1082 C1083 1.363 . S
C1082 C1087 1.379 . S
C1082 N1089 1.356 . S
C1083 C1082 1.363 . S
C1083 C1086 1.363 1_565 S
N1084 C1086 1.356 . S
N1084 H1096 0.984 . S
N1084 H1097 0.985 . S
N1085 C1087 1.356 . S
N1085 H1090 0.984 . S
N1085 H1091 0.985 . S
C1086 C1080 1.379 . S
C1086 C1083 1.363 1_545 S
C1086 N1084 1.356 . S
C1087 C1081 1.363 . S
C1087 C1082 1.379 . S
C1087 N1085 1.356 . S
N1088 C1080 1.356 . S
N1088 H1094 0.984 . S
N1088 H1095 0.984 . S
N1089 C1082 1.356 . S
N1089 H1092 0.984 . S
N1089 H1093 0.985 . S
H1090 N1085 0.984 . S
H1091 N1085 0.985 . S
H1092 N1089 0.984 . S
H1093 N1089 0.985 . S
H1094 N1088 0.984 . S
H1095 N1088 0.984 . S
H1096 N1084 0.984 . S
H1097 N1084 0.985 . S
C1098 C1099 1.363 1_655 S
C1098 C1104 1.379 . S
C1098 N1106 1.356 . S
C1099 C1098 1.363 1_455 S
C1099 C1105 1.363 . S
C1100 C1101 1.363 . S
C1100 C1105 1.379 . S
C1100 N1107 1.356 . S
C1101 C1100 1.363 . S
C1101 C1104 1.363 1_455 S
N1102 C1104 1.356 . S
N1102 H1114 0.984 . S
N1102 H1115 0.985 . S
N1103 C1105 1.356 . S
N1103 H1108 0.984 . S
N1103 H1109 0.985 . S
C1104 C1098 1.379 . S
C1104 C1101 1.363 1_655 S
C1104 N1102 1.356 . S
C1105 C1099 1.363 . S
C1105 C1100 1.379 . S
C1105 N1103 1.356 . S
N1106 C1098 1.356 . S
N1106 H1112 0.984 . S
N1106 H1113 0.984 . S
N1107 C1100 1.356 . S
N1107 H1110 0.984 . S
N1107 H1111 0.985 . S
H1108 N1103 0.984 . S
H1109 N1103 0.985 . S
H1110 N1107 0.984 . S
H1111 N1107 0.985 . S
H1112 N1106 0.984 . S
H1113 N1106 0.984 . S
H1114 N1102 0.984 . S
H1115 N1102 0.985 . S
C1116 C1117 1.363 . S
C1116 C1122 1.379 . S
C1116 N1124 1.356 . S
C1117 C1116 1.363 . S
C1117 C1123 1.363 . S
C1118 C1119 1.363 . S
C1118 C1123 1.379 . S
C1118 N1125 1.356 . S
C1119 C1118 1.363 . S
C1119 C1122 1.363 . S
N1120 C1122 1.356 . S
N1120 H1132 0.984 . S
N1120 H1133 0.985 . S
N1121 C1123 1.356 . S
N1121 H1126 0.984 . S
N1121 H1127 0.985 . S
C1122 C1116 1.379 . S
C1122 C1119 1.363 . S
C1122 N1120 1.356 . S
C1123 C1117 1.363 . S
C1123 C1118 1.379 . S
C1123 N1121 1.356 . S
N1124 C1116 1.356 . S
N1124 H1130 0.984 . S
N1124 H1131 0.984 . S
N1125 C1118 1.356 . S
N1125 H1128 0.984 . S
N1125 H1129 0.985 . S
H1126 N1121 0.984 . S
H1127 N1121 0.985 . S
H1128 N1125 0.984 . S
H1129 N1125 0.985 . S
H1130 N1124 0.984 . S
H1131 N1124 0.984 . S
H1132 N1120 0.984 . S
H1133 N1120 0.985 . S
C1134 C1135 1.363 1_655 S
C1134 C1140 1.379 . S
C1134 N1142 1.356 . S
C1135 C1134 1.363 1_455 S
C1135 C1141 1.363 . S
C1136 C1137 1.363 . S
C1136 C1141 1.379 . S
C1136 N1143 1.356 . S
C1137 C1136 1.363 . S
C1137 C1140 1.363 1_455 S
N1138 C1140 1.356 . S
N1138 H1150 0.984 . S
N1138 H1151 0.985 . S
N1139 C1141 1.356 . S
N1139 H1144 0.984 . S
N1139 H1145 0.985 . S
C1140 C1134 1.379 . S
C1140 C1137 1.363 1_655 S
C1140 N1138 1.356 . S
C1141 C1135 1.363 . S
C1141 C1136 1.379 . S
C1141 N1139 1.356 . S
N1142 C1134 1.356 . S
N1142 H1148 0.984 . S
N1142 H1149 0.984 . S
N1143 C1136 1.356 . S
N1143 H1146 0.984 . S
N1143 H1147 0.985 . S
H1144 N1139 0.984 . S
H1145 N1139 0.985 . S
H1146 N1143 0.984 . S
H1147 N1143 0.985 . S
H1148 N1142 0.984 . S
H1149 N1142 0.984 . S
H1150 N1138 0.984 . S
H1151 N1138 0.985 . S
C1152 C1153 1.363 . S
C1152 C1158 1.379 . S
C1152 N1160 1.356 . S
C1153 C1152 1.363 . S
C1153 C1159 1.363 . S
C1154 C1155 1.363 . S
C1154 C1159 1.379 . S
C1154 N1161 1.356 . S
C1155 C1154 1.363 . S
C1155 C1158 1.363 . S
N1156 C1158 1.356 . S
N1156 H1168 0.984 . S
N1156 H1169 0.985 . S
N1157 C1159 1.356 . S
N1157 H1162 0.984 . S
N1157 H1163 0.985 . S
C1158 C1152 1.379 . S
C1158 C1155 1.363 . S
C1158 N1156 1.356 . S
C1159 C1153 1.363 . S
C1159 C1154 1.379 . S
C1159 N1157 1.356 . S
N1160 C1152 1.356 . S
N1160 H1166 0.984 . S
N1160 H1167 0.984 . S
N1161 C1154 1.356 . S
N1161 H1164 0.984 . S
N1161 H1165 0.985 . S
H1162 N1157 0.984 . S
H1163 N1157 0.985 . S
H1164 N1161 0.984 . S
H1165 N1161 0.985 . S
H1166 N1160 0.984 . S
H1167 N1160 0.984 . S
H1168 N1156 0.984 . S
H1169 N1156 0.985 . S
C1170 C1171 1.363 . S
C1170 C1176 1.379 . S
C1170 N1178 1.356 . S
C1171 C1170 1.363 . S
C1171 C1177 1.363 1_565 S
C1172 C1173 1.363 1_545 S
C1172 C1177 1.379 . S
C1172 N1179 1.356 . S
C1173 C1172 1.363 1_565 S
C1173 C1176 1.363 . S
N1174 C1176 1.356 . S
N1174 H1186 0.984 . S
N1174 H1187 0.985 . S
N1175 C1177 1.356 . S
N1175 H1180 0.984 . S
N1175 H1181 0.985 . S
C1176 C1170 1.379 . S
C1176 C1173 1.363 . S
C1176 N1174 1.356 . S
C1177 C1171 1.363 1_545 S
C1177 C1172 1.379 . S
C1177 N1175 1.356 . S
N1178 C1170 1.356 . S
N1178 H1184 0.984 . S
N1178 H1185 0.984 . S
N1179 C1172 1.356 . S
N1179 H1182 0.984 . S
N1179 H1183 0.985 . S
H1180 N1175 0.984 . S
H1181 N1175 0.985 . S
H1182 N1179 0.984 . S
H1183 N1179 0.985 . S
H1184 N1178 0.984 . S
H1185 N1178 0.984 . S
H1186 N1174 0.984 . S
H1187 N1174 0.985 . S
C1188 C1189 1.363 . S
C1188 C1194 1.379 . S
C1188 N1196 1.356 . S
C1189 C1188 1.363 . S
C1189 C1195 1.363 1_545 S
C1190 C1191 1.363 1_565 S
C1190 C1195 1.379 . S
C1190 N1197 1.356 . S
C1191 C1190 1.363 1_545 S
C1191 C1194 1.363 . S
N1192 C1194 1.356 . S
N1192 H1204 0.984 . S
N1192 H1205 0.985 . S
N1193 C1195 1.356 . S
N1193 H1198 0.984 . S
N1193 H1199 0.985 . S
C1194 C1188 1.379 . S
C1194 C1191 1.363 . S
C1194 N1192 1.356 . S
C1195 C1189 1.363 1_565 S
C1195 C1190 1.379 . S
C1195 N1193 1.356 . S
N1196 C1188 1.356 . S
N1196 H1202 0.984 . S
N1196 H1203 0.984 . S
N1197 C1190 1.356 . S
N1197 H1200 0.984 . S
N1197 H1201 0.985 . S
H1198 N1193 0.984 . S
H1199 N1193 0.985 . S
H1200 N1197 0.984 . S
H1201 N1197 0.985 . S
H1202 N1196 0.984 . S
H1203 N1196 0.984 . S
H1204 N1192 0.984 . S
H1205 N1192 0.985 . S
C1206 C1207 1.363 . S
C1206 C1212 1.379 . S
C1206 N1214 1.356 . S
C1207 C1206 1.363 . S
C1207 C1213 1.363 1_655 S
C1208 C1209 1.347 1_455 S
C1208 C1213 1.379 . S
C1208 N1215 1.356 . S
C1209 C1208 1.347 1_655 S
C1209 C1212 1.393 . S
N1210 C1212 1.356 . S
N1210 H1222 0.984 . S
N1210 H1223 0.985 . S
N1211 C1213 1.356 . S
N1211 H1216 0.984 . S
N1211 H1217 0.985 . S
C1212 C1206 1.379 . S
C1212 C1209 1.393 . S
C1212 N1210 1.356 . S
C1213 C1207 1.363 1_455 S
C1213 C1208 1.379 . S
C1213 N1211 1.356 . S
N1214 C1206 1.356 . S
N1214 H1220 0.984 . S
N1214 H1221 0.984 . S
N1215 C1208 1.356 . S
N1215 H1218 0.984 . S
N1215 H1219 0.985 . S
H1216 N1211 0.984 . S
H1217 N1211 0.985 . S
H1218 N1215 0.984 . S
H1219 N1215 0.985 . S
H1220 N1214 0.984 . S
H1221 N1214 0.984 . S
H1222 N1210 0.984 . S
H1223 N1210 0.985 . S
C1224 C1225 1.363 . S
C1224 C1230 1.379 . S
C1224 N1232 1.356 . S
C1225 C1224 1.363 . S
C1225 C1231 1.363 . S
C1226 C1227 1.363 . S
C1226 C1231 1.379 . S
C1226 N1233 1.356 . S
C1227 C1226 1.363 . S
C1227 C1230 1.363 . S
N1228 C1230 1.356 . S
N1228 H1240 0.984 . S
N1228 H1241 0.985 . S
N1229 C1231 1.356 . S
N1229 H1234 0.984 . S
N1229 H1235 0.985 . S
C1230 C1224 1.379 . S
C1230 C1227 1.363 . S
C1230 N1228 1.356 . S
C1231 C1225 1.363 . S
C1231 C1226 1.379 . S
C1231 N1229 1.356 . S
N1232 C1224 1.356 . S
N1232 H1238 0.984 . S
N1232 H1239 0.984 . S
N1233 C1226 1.356 . S
N1233 H1236 0.984 . S
N1233 H1237 0.985 . S
H1234 N1229 0.984 . S
H1235 N1229 0.985 . S
H1236 N1233 0.984 . S
H1237 N1233 0.985 . S
H1238 N1232 0.984 . S
H1239 N1232 0.984 . S
H1240 N1228 0.984 . S
H1241 N1228 0.985 . S
C1242 C1243 1.363 . S
C1242 C1248 1.379 . S
C1242 N1250 1.356 . S
C1243 C1242 1.363 . S
C1243 C1249 1.363 . S
C1244 C1245 1.363 . S
C1244 C1249 1.379 . S
C1244 N1251 1.356 . S
C1245 C1244 1.363 . S
C1245 C1248 1.363 . S
N1246 C1248 1.356 . S
N1246 H1258 0.984 . S
N1246 H1259 0.985 . S
N1247 C1249 1.356 . S
N1247 H1252 0.984 . S
N1247 H1253 0.985 . S
C1248 C1242 1.379 . S
C1248 C1245 1.363 . S
C1248 N1246 1.356 . S
C1249 C1243 1.363 . S
C1249 C1244 1.379 . S
C1249 N1247 1.356 . S
N1250 C1242 1.356 . S
N1250 H1256 0.984 . S
N1250 H1257 0.984 . S
N1251 C1244 1.356 . S
N1251 H1254 0.984 . S
N1251 H1255 0.985 . S
H1252 N1247 0.984 . S
H1253 N1247 0.985 . S
H1254 N1251 0.984 . S
H1255 N1251 0.985 . S
H1256 N1250 0.984 . S
H1257 N1250 0.984 . S
H1258 N1246 0.984 . S
H1259 N1246 0.985 . S
C1260 C1261 1.363 . S
C1260 C1266 1.379 . S
C1260 N1268 1.356 . S
C1261 C1260 1.363 . S
C1261 C1267 1.363 . S
C1262 C1263 1.363 . S
C1262 C1267 1.379 . S
C1262 N1269 1.356 . S
C1263 C1262 1.363 . S
C1263 C1266 1.363 . S
N1264 C1266 1.356 . S
N1264 H1276 0.984 . S
N1264 H1277 0.985 . S
N1265 C1267 1.356 . S
N1265 H1270 0.984 . S
N1265 H1271 0.985 . S
C1266 C1260 1.379 . S
C1266 C1263 1.363 . S
C1266 N1264 1.356 . S
C1267 C1261 1.363 . S
C1267 C1262 1.379 . S
C1267 N1265 1.356 . S
N1268 C1260 1.356 . S
N1268 H1274 0.984 . S
N1268 H1275 0.984 . S
N1269 C1262 1.356 . S
N1269 H1272 0.984 . S
N1269 H1273 0.985 . S
H1270 N1265 0.984 . S
H1271 N1265 0.985 . S
H1272 N1269 0.984 . S
H1273 N1269 0.985 . S
H1274 N1268 0.984 . S
H1275 N1268 0.984 . S
H1276 N1264 0.984 . S
H1277 N1264 0.985 . S
C1278 C1279 1.363 . S
C1278 C1284 1.379 . S
C1278 N1286 1.356 . S
C1279 C1278 1.363 . S
C1279 C1285 1.363 . S
C1280 C1281 1.363 . S
C1280 C1285 1.379 . S
C1280 N1287 1.356 . S
C1281 C1280 1.363 . S
C1281 C1284 1.363 . S
N1282 C1284 1.356 . S
N1282 H1294 0.984 . S
N1282 H1295 0.985 . S
N1283 C1285 1.356 . S
N1283 H1288 0.984 . S
N1283 H1289 0.985 . S
C1284 C1278 1.379 . S
C1284 C1281 1.363 . S
C1284 N1282 1.356 . S
C1285 C1279 1.363 . S
C1285 C1280 1.379 . S
C1285 N1283 1.356 . S
N1286 C1278 1.356 . S
N1286 H1292 0.984 . S
N1286 H1293 0.984 . S
N1287 C1280 1.356 . S
N1287 H1290 0.984 . S
N1287 H1291 0.985 . S
H1288 N1283 0.984 . S
H1289 N1283 0.985 . S
H1290 N1287 0.984 . S
H1291 N1287 0.985 . S
H1292 N1286 0.984 . S
H1293 N1286 0.984 . S
H1294 N1282 0.984 . S
H1295 N1282 0.985 . S
C1296 C1297 1.363 . S
C1296 C1302 1.379 . S
C1296 N1304 1.356 . S
C1297 C1296 1.363 . S
C1297 C1303 1.363 . S
C1298 C1299 1.363 . S
C1298 C1303 1.379 . S
C1298 N1305 1.356 . S
C1299 C1298 1.363 . S
C1299 C1302 1.363 . S
N1300 C1302 1.356 . S
N1300 H1312 0.984 . S
N1300 H1313 0.985 . S
N1301 C1303 1.356 . S
N1301 H1306 0.984 . S
N1301 H1307 0.985 . S
C1302 C1296 1.379 . S
C1302 C1299 1.363 . S
C1302 N1300 1.356 . S
C1303 C1297 1.363 . S
C1303 C1298 1.379 . S
C1303 N1301 1.356 . S
N1304 C1296 1.356 . S
N1304 H1310 0.984 . S
N1304 H1311 0.984 . S
N1305 C1298 1.356 . S
N1305 H1308 0.984 . S
N1305 H1309 0.985 . S
H1306 N1301 0.984 . S
H1307 N1301 0.985 . S
H1308 N1305 0.984 . S
H1309 N1305 0.985 . S
H1310 N1304 0.984 . S
H1311 N1304 0.984 . S
H1312 N1300 0.984 . S
H1313 N1300 0.985 . S
C1314 C1315 1.363 . S
C1314 C1320 1.379 . S
C1314 N1322 1.356 . S
C1315 C1314 1.363 . S
C1315 C1321 1.363 . S
C1316 C1317 1.363 . S
C1316 C1321 1.379 . S
C1316 N1323 1.356 . S
C1317 C1316 1.363 . S
C1317 C1320 1.363 . S
N1318 C1320 1.356 . S
N1318 H1330 0.984 . S
N1318 H1331 0.985 . S
N1319 C1321 1.356 . S
N1319 H1324 0.984 . S
N1319 H1325 0.985 . S
C1320 C1314 1.379 . S
C1320 C1317 1.363 . S
C1320 N1318 1.356 . S
C1321 C1315 1.363 . S
C1321 C1316 1.379 . S
C1321 N1319 1.356 . S
N1322 C1314 1.356 . S
N1322 H1328 0.984 . S
N1322 H1329 0.984 . S
N1323 C1316 1.356 . S
N1323 H1326 0.984 . S
N1323 H1327 0.985 . S
H1324 N1319 0.984 . S
H1325 N1319 0.985 . S
H1326 N1323 0.984 . S
H1327 N1323 0.985 . S
H1328 N1322 0.984 . S
H1329 N1322 0.984 . S
H1330 N1318 0.984 . S
H1331 N1318 0.985 . S
C1332 C1333 1.363 . S
C1332 C1338 1.379 . S
C1332 N1340 1.356 . S
C1333 C1332 1.363 . S
C1333 C1339 1.363 . S
C1334 C1335 1.363 . S
C1334 C1339 1.379 . S
C1334 N1341 1.356 . S
C1335 C1334 1.363 . S
C1335 C1338 1.363 . S
N1336 C1338 1.356 . S
N1336 H1348 0.984 . S
N1336 H1349 0.985 . S
N1337 C1339 1.356 . S
N1337 H1342 0.984 . S
N1337 H1343 0.985 . S
C1338 C1332 1.379 . S
C1338 C1335 1.363 . S
C1338 N1336 1.356 . S
C1339 C1333 1.363 . S
C1339 C1334 1.379 . S
C1339 N1337 1.356 . S
N1340 C1332 1.356 . S
N1340 H1346 0.984 . S
N1340 H1347 0.984 . S
N1341 C1334 1.356 . S
N1341 H1344 0.984 . S
N1341 H1345 0.985 . S
H1342 N1337 0.984 . S
H1343 N1337 0.985 . S
H1344 N1341 0.984 . S
H1345 N1341 0.985 . S
H1346 N1340 0.984 . S
H1347 N1340 0.984 . S
H1348 N1336 0.984 . S
H1349 N1336 0.985 . S
C1350 C1351 1.363 . S
C1350 C1356 1.379 . S
C1350 N1358 1.356 . S
C1351 C1350 1.363 . S
C1351 C1357 1.363 . S
C1352 C1353 1.363 . S
C1352 C1357 1.379 . S
C1352 N1359 1.356 . S
C1353 C1352 1.363 . S
C1353 C1356 1.363 . S
N1354 C1356 1.356 . S
N1354 H1366 0.984 . S
N1354 H1367 0.985 . S
N1355 C1357 1.356 . S
N1355 H1360 0.984 . S
N1355 H1361 0.985 . S
C1356 C1350 1.379 . S
C1356 C1353 1.363 . S
C1356 N1354 1.356 . S
C1357 C1351 1.363 . S
C1357 C1352 1.379 . S
C1357 N1355 1.356 . S
N1358 C1350 1.356 . S
N1358 H1364 0.984 . S
N1358 H1365 0.984 . S
N1359 C1352 1.356 . S
N1359 H1362 0.984 . S
N1359 H1363 0.985 . S
H1360 N1355 0.984 . S
H1361 N1355 0.985 . S
H1362 N1359 0.984 . S
H1363 N1359 0.985 . S
H1364 N1358 0.984 . S
H1365 N1358 0.984 . S
H1366 N1354 0.984 . S
H1367 N1354 0.985 . S
C1368 C1369 1.363 . S
C1368 C1374 1.379 . S
C1368 N1376 1.356 . S
C1369 C1368 1.363 . S
C1369 C1375 1.363 . S
C1370 C1371 1.363 . S
C1370 C1375 1.379 . S
C1370 N1377 1.356 . S
C1371 C1370 1.363 . S
C1371 C1374 1.363 . S
N1372 C1374 1.356 . S
N1372 H1384 0.984 . S
N1372 H1385 0.985 . S
N1373 C1375 1.356 . S
N1373 H1378 0.984 . S
N1373 H1379 0.985 . S
C1374 C1368 1.379 . S
C1374 C1371 1.363 . S
C1374 N1372 1.356 . S
C1375 C1369 1.363 . S
C1375 C1370 1.379 . S
C1375 N1373 1.356 . S
N1376 C1368 1.356 . S
N1376 H1382 0.984 . S
N1376 H1383 0.984 . S
N1377 C1370 1.356 . S
N1377 H1380 0.984 . S
N1377 H1381 0.985 . S
H1378 N1373 0.984 . S
H1379 N1373 0.985 . S
H1380 N1377 0.984 . S
H1381 N1377 0.985 . S
H1382 N1376 0.984 . S
H1383 N1376 0.984 . S
H1384 N1372 0.984 . S
H1385 N1372 0.985 . S
C1386 C1387 1.363 . S
C1386 C1392 1.379 . S
C1386 N1394 1.356 . S
C1387 C1386 1.363 . S
C1387 C1393 1.363 . S
C1388 C1389 1.363 . S
C1388 C1393 1.379 . S
C1388 N1395 1.356 . S
C1389 C1388 1.363 . S
C1389 C1392 1.363 . S
N1390 C1392 1.356 . S
N1390 H1402 0.984 . S
N1390 H1403 0.985 . S
N1391 C1393 1.356 . S
N1391 H1396 0.984 . S
N1391 H1397 0.985 . S
C1392 C1386 1.379 . S
C1392 C1389 1.363 . S
C1392 N1390 1.356 . S
C1393 C1387 1.363 . S
C1393 C1388 1.379 . S
C1393 N1391 1.356 . S
N1394 C1386 1.356 . S
N1394 H1400 0.984 . S
N1394 H1401 0.984 . S
N1395 C1388 1.356 . S
N1395 H1398 0.984 . S
N1395 H1399 0.985 . S
H1396 N1391 0.984 . S
H1397 N1391 0.985 . S
H1398 N1395 0.984 . S
H1399 N1395 0.985 . S
H1400 N1394 0.984 . S
H1401 N1394 0.984 . S
H1402 N1390 0.984 . S
H1403 N1390 0.985 . S
C1404 C1405 1.363 . S
C1404 C1410 1.379 . S
C1404 N1412 1.356 . S
C1405 C1404 1.363 . S
C1405 C1411 1.363 . S
C1406 C1407 1.363 . S
C1406 C1411 1.379 . S
C1406 N1413 1.356 . S
C1407 C1406 1.363 . S
C1407 C1410 1.363 . S
N1408 C1410 1.356 . S
N1408 H1420 0.984 . S
N1408 H1421 0.985 . S
N1409 C1411 1.356 . S
N1409 H1414 0.984 . S
N1409 H1415 0.985 . S
C1410 C1404 1.379 . S
C1410 C1407 1.363 . S
C1410 N1408 1.356 . S
C1411 C1405 1.363 . S
C1411 C1406 1.379 . S
C1411 N1409 1.356 . S
N1412 C1404 1.356 . S
N1412 H1418 0.984 . S
N1412 H1419 0.984 . S
N1413 C1406 1.356 . S
N1413 H1416 0.984 . S
N1413 H1417 0.985 . S
H1414 N1409 0.984 . S
H1415 N1409 0.985 . S
H1416 N1413 0.984 . S
H1417 N1413 0.985 . S
H1418 N1412 0.984 . S
H1419 N1412 0.984 . S
H1420 N1408 0.984 . S
H1421 N1408 0.985 . S
C1422 C1423 1.363 . S
C1422 C1428 1.379 . S
C1422 N1430 1.356 . S
C1423 C1422 1.363 . S
C1423 C1429 1.363 . S
C1424 C1425 1.363 . S
C1424 C1429 1.379 . S
C1424 N1431 1.356 . S
C1425 C1424 1.363 . S
C1425 C1428 1.363 . S
N1426 C1428 1.356 . S
N1426 H1438 0.984 . S
N1426 H1439 0.985 . S
N1427 C1429 1.356 . S
N1427 H1432 0.984 . S
N1427 H1433 0.985 . S
C1428 C1422 1.379 . S
C1428 C1425 1.363 . S
C1428 N1426 1.356 . S
C1429 C1423 1.363 . S
C1429 C1424 1.379 . S
C1429 N1427 1.356 . S
N1430 C1422 1.356 . S
N1430 H1436 0.984 . S
N1430 H1437 0.984 . S
N1431 C1424 1.356 . S
N1431 H1434 0.984 . S
N1431 H1435 0.985 . S
H1432 N1427 0.984 . S
H1433 N1427 0.985 . S
H1434 N1431 0.984 . S
H1435 N1431 0.985 . S
H1436 N1430 0.984 . S
H1437 N1430 0.984 . S
H1438 N1426 0.984 . S
H1439 N1426 0.985 . S
C1440 C1441 1.363 . S
C1440 C1446 1.379 . S
C1440 N1448 1.356 . S
C1441 C1440 1.363 . S
C1441 C1447 1.363 . S
C1442 C1443 1.363 . S
C1442 C1447 1.379 . S
C1442 N1449 1.356 . S
C1443 C1442 1.363 . S
C1443 C1446 1.363 . S
N1444 C1446 1.356 . S
N1444 H1456 0.984 . S
N1444 H1457 0.985 . S
N1445 C1447 1.356 . S
N1445 H1450 0.984 . S
N1445 H1451 0.985 . S
C1446 C1440 1.379 . S
C1446 C1443 1.363 . S
C1446 N1444 1.356 . S
C1447 C1441 1.363 . S
C1447 C1442 1.379 . S
C1447 N1445 1.356 . S
N1448 C1440 1.356 . S
N1448 H1454 0.984 . S
N1448 H1455 0.984 . S
N1449 C1442 1.356 . S
N1449 H1452 0.984 . S
N1449 H1453 0.985 . S
H1450 N1445 0.984 . S
H1451 N1445 0.985 . S
H1452 N1449 0.984 . S
H1453 N1449 0.985 . S
H1454 N1448 0.984 . S
H1455 N1448 0.984 . S
H1456 N1444 0.984 . S
H1457 N1444 0.985 . S
C1458 C1459 1.363 . S
C1458 C1464 1.379 . S
C1458 N1466 1.356 . S
C1459 C1458 1.363 . S
C1459 C1465 1.363 . S
C1460 C1461 1.363 . S
C1460 C1465 1.379 . S
C1460 N1467 1.356 . S
C1461 C1460 1.363 . S
C1461 C1464 1.363 . S
N1462 C1464 1.356 . S
N1462 H1474 0.984 . S
N1462 H1475 0.985 . S
N1463 C1465 1.356 . S
N1463 H1468 0.984 . S
N1463 H1469 0.985 . S
C1464 C1458 1.379 . S
C1464 C1461 1.363 . S
C1464 N1462 1.356 . S
C1465 C1459 1.363 . S
C1465 C1460 1.379 . S
C1465 N1463 1.356 . S
N1466 C1458 1.356 . S
N1466 H1472 0.984 . S
N1466 H1473 0.984 . S
N1467 C1460 1.356 . S
N1467 H1470 0.984 . S
N1467 H1471 0.985 . S
H1468 N1463 0.984 . S
H1469 N1463 0.985 . S
H1470 N1467 0.984 . S
H1471 N1467 0.985 . S
H1472 N1466 0.984 . S
H1473 N1466 0.984 . S
H1474 N1462 0.984 . S
H1475 N1462 0.985 . S
C1476 C1477 1.363 . S
C1476 C1482 1.379 . S
C1476 N1484 1.356 . S
C1477 C1476 1.363 . S
C1477 C1483 1.363 . S
C1478 C1479 1.363 . S
C1478 C1483 1.379 . S
C1478 N1485 1.356 . S
C1479 C1478 1.363 . S
C1479 C1482 1.363 . S
N1480 C1482 1.356 . S
N1480 H1492 0.984 . S
N1480 H1493 0.985 . S
N1481 C1483 1.356 . S
N1481 H1486 0.984 . S
N1481 H1487 0.985 . S
C1482 C1476 1.379 . S
C1482 C1479 1.363 . S
C1482 N1480 1.356 . S
C1483 C1477 1.363 . S
C1483 C1478 1.379 . S
C1483 N1481 1.356 . S
N1484 C1476 1.356 . S
N1484 H1490 0.984 . S
N1484 H1491 0.984 . S
N1485 C1478 1.356 . S
N1485 H1488 0.984 . S
N1485 H1489 0.985 . S
H1486 N1481 0.984 . S
H1487 N1481 0.985 . S
H1488 N1485 0.984 . S
H1489 N1485 0.985 . S
H1490 N1484 0.984 . S
H1491 N1484 0.984 . S
H1492 N1480 0.984 . S
H1493 N1480 0.985 . S
C1494 C1495 1.363 . S
C1494 C1500 1.379 . S
C1494 N1502 1.356 . S
C1495 C1494 1.363 . S
C1495 C1501 1.363 . S
C1496 C1497 1.363 . S
C1496 C1501 1.379 . S
C1496 N1503 1.356 . S
C1497 C1496 1.363 . S
C1497 C1500 1.363 . S
N1498 C1500 1.356 . S
N1498 H1510 0.984 . S
N1498 H1511 0.985 . S
N1499 C1501 1.356 . S
N1499 H1504 0.984 . S
N1499 H1505 0.985 . S
C1500 C1494 1.379 . S
C1500 C1497 1.363 . S
C1500 N1498 1.356 . S
C1501 C1495 1.363 . S
C1501 C1496 1.379 . S
C1501 N1499 1.356 . S
N1502 C1494 1.356 . S
N1502 H1508 0.984 . S
N1502 H1509 0.984 . S
N1503 C1496 1.356 . S
N1503 H1506 0.984 . S
N1503 H1507 0.985 . S
H1504 N1499 0.984 . S
H1505 N1499 0.985 . S
H1506 N1503 0.984 . S
H1507 N1503 0.985 . S
H1508 N1502 0.984 . S
H1509 N1502 0.984 . S
H1510 N1498 0.984 . S
H1511 N1498 0.985 . S
C1512 C1513 1.363 . S
C1512 C1518 1.379 . S
C1512 N1520 1.356 . S
C1513 C1512 1.363 . S
C1513 C1519 1.363 . S
C1514 C1515 1.363 . S
C1514 C1519 1.379 . S
C1514 N1521 1.356 . S
C1515 C1514 1.363 . S
C1515 C1518 1.363 . S
N1516 C1518 1.356 . S
N1516 H1528 0.984 . S
N1516 H1529 0.985 . S
N1517 C1519 1.356 . S
N1517 H1522 0.984 . S
N1517 H1523 0.985 . S
C1518 C1512 1.379 . S
C1518 C1515 1.363 . S
C1518 N1516 1.356 . S
C1519 C1513 1.363 . S
C1519 C1514 1.379 . S
C1519 N1517 1.356 . S
N1520 C1512 1.356 . S
N1520 H1526 0.984 . S
N1520 H1527 0.984 . S
N1521 C1514 1.356 . S
N1521 H1524 0.984 . S
N1521 H1525 0.985 . S
H1522 N1517 0.984 . S
H1523 N1517 0.985 . S
H1524 N1521 0.984 . S
H1525 N1521 0.985 . S
H1526 N1520 0.984 . S
H1527 N1520 0.984 . S
H1528 N1516 0.984 . S
H1529 N1516 0.985 . S
C1530 C1531 1.363 . S
C1530 C1536 1.379 . S
C1530 N1538 1.356 . S
C1531 C1530 1.363 . S
C1531 C1537 1.363 . S
C1532 C1533 1.363 . S
C1532 C1537 1.379 . S
C1532 N1539 1.356 . S
C1533 C1532 1.363 . S
C1533 C1536 1.363 . S
N1534 C1536 1.356 . S
N1534 H1546 0.984 . S
N1534 H1547 0.985 . S
N1535 C1537 1.356 . S
N1535 H1540 0.984 . S
N1535 H1541 0.985 . S
C1536 C1530 1.379 . S
C1536 C1533 1.363 . S
C1536 N1534 1.356 . S
C1537 C1531 1.363 . S
C1537 C1532 1.379 . S
C1537 N1535 1.356 . S
N1538 C1530 1.356 . S
N1538 H1544 0.984 . S
N1538 H1545 0.984 . S
N1539 C1532 1.356 . S
N1539 H1542 0.984 . S
N1539 H1543 0.985 . S
H1540 N1535 0.984 . S
H1541 N1535 0.985 . S
H1542 N1539 0.984 . S
H1543 N1539 0.985 . S
H1544 N1538 0.984 . S
H1545 N1538 0.984 . S
H1546 N1534 0.984 . S
H1547 N1534 0.985 . S
C1548 C1549 1.363 . S
C1548 C1554 1.379 . S
C1548 N1556 1.356 . S
C1549 C1548 1.363 . S
C1549 C1555 1.363 . S
C1550 C1551 1.363 . S
C1550 C1555 1.379 . S
C1550 N1557 1.356 . S
C1551 C1550 1.363 . S
C1551 C1554 1.363 . S
N1552 C1554 1.356 . S
N1552 H1564 0.984 . S
N1552 H1565 0.985 . S
N1553 C1555 1.356 . S
N1553 H1558 0.984 . S
N1553 H1559 0.985 . S
C1554 C1548 1.379 . S
C1554 C1551 1.363 . S
C1554 N1552 1.356 . S
C1555 C1549 1.363 . S
C1555 C1550 1.379 . S
C1555 N1553 1.356 . S
N1556 C1548 1.356 . S
N1556 H1562 0.984 . S
N1556 H1563 0.984 . S
N1557 C1550 1.356 . S
N1557 H1560 0.984 . S
N1557 H1561 0.985 . S
H1558 N1553 0.984 . S
H1559 N1553 0.985 . S
H1560 N1557 0.984 . S
H1561 N1557 0.985 . S
H1562 N1556 0.984 . S
H1563 N1556 0.984 . S
H1564 N1552 0.984 . S
H1565 N1552 0.985 . S
C1566 C1567 1.363 . S
C1566 C1572 1.379 . S
C1566 N1574 1.356 . S
C1567 C1566 1.363 . S
C1567 C1573 1.363 . S
C1568 C1569 1.363 . S
C1568 C1573 1.379 . S
C1568 N1575 1.356 . S
C1569 C1568 1.363 . S
C1569 C1572 1.363 . S
N1570 C1572 1.356 . S
N1570 H1582 0.984 . S
N1570 H1583 0.985 . S
N1571 C1573 1.356 . S
N1571 H1576 0.984 . S
N1571 H1577 0.985 . S
C1572 C1566 1.379 . S
C1572 C1569 1.363 . S
C1572 N1570 1.356 . S
C1573 C1567 1.363 . S
C1573 C1568 1.379 . S
C1573 N1571 1.356 . S
N1574 C1566 1.356 . S
N1574 H1580 0.984 . S
N1574 H1581 0.984 . S
N1575 C1568 1.356 . S
N1575 H1578 0.984 . S
N1575 H1579 0.985 . S
H1576 N1571 0.984 . S
H1577 N1571 0.985 . S
H1578 N1575 0.984 . S
H1579 N1575 0.985 . S
H1580 N1574 0.984 . S
H1581 N1574 0.984 . S
H1582 N1570 0.984 . S
H1583 N1570 0.985 . S
C1584 C1585 1.363 . S
C1584 C1590 1.379 . S
C1584 N1592 1.356 . S
C1585 C1584 1.363 . S
C1585 C1591 1.363 . S
C1586 C1587 1.363 . S
C1586 C1591 1.379 . S
C1586 N1593 1.356 . S
C1587 C1586 1.363 . S
C1587 C1590 1.363 . S
N1588 C1590 1.356 . S
N1588 H1600 0.984 . S
N1588 H1601 0.985 . S
N1589 C1591 1.356 . S
N1589 H1594 0.984 . S
N1589 H1595 0.985 . S
C1590 C1584 1.379 . S
C1590 C1587 1.363 . S
C1590 N1588 1.356 . S
C1591 C1585 1.363 . S
C1591 C1586 1.379 . S
C1591 N1589 1.356 . S
N1592 C1584 1.356 . S
N1592 H1598 0.984 . S
N1592 H1599 0.984 . S
N1593 C1586 1.356 . S
N1593 H1596 0.984 . S
N1593 H1597 0.985 . S
H1594 N1589 0.984 . S
H1595 N1589 0.985 . S
H1596 N1593 0.984 . S
H1597 N1593 0.985 . S
H1598 N1592 0.984 . S
H1599 N1592 0.984 . S
H1600 N1588 0.984 . S
H1601 N1588 0.985 . S
C1602 C1603 1.363 . S
C1602 C1608 1.379 . S
C1602 N1610 1.356 . S
C1603 C1602 1.363 . S
C1603 C1609 1.363 . S
C1604 C1605 1.363 . S
C1604 C1609 1.379 . S
C1604 N1611 1.356 . S
C1605 C1604 1.363 . S
C1605 C1608 1.363 . S
N1606 C1608 1.356 . S
N1606 H1618 0.984 . S
N1606 H1619 0.985 . S
N1607 C1609 1.356 . S
N1607 H1612 0.984 . S
N1607 H1613 0.985 . S
C1608 C1602 1.379 . S
C1608 C1605 1.363 . S
C1608 N1606 1.356 . S
C1609 C1603 1.363 . S
C1609 C1604 1.379 . S
C1609 N1607 1.356 . S
N1610 C1602 1.356 . S
N1610 H1616 0.984 . S
N1610 H1617 0.984 . S
N1611 C1604 1.356 . S
N1611 H1614 0.984 . S
N1611 H1615 0.985 . S
H1612 N1607 0.984 . S
H1613 N1607 0.985 . S
H1614 N1611 0.984 . S
H1615 N1611 0.985 . S
H1616 N1610 0.984 . S
H1617 N1610 0.984 . S
H1618 N1606 0.984 . S
H1619 N1606 0.985 . S
C1620 C1621 1.363 . S
C1620 C1626 1.379 . S
C1620 N1628 1.356 . S
C1621 C1620 1.363 . S
C1621 C1627 1.363 . S
C1622 C1623 1.363 . S
C1622 C1627 1.379 . S
C1622 N1629 1.356 . S
C1623 C1622 1.363 . S
C1623 C1626 1.363 . S
N1624 C1626 1.356 . S
N1624 H1636 0.984 . S
N1624 H1637 0.985 . S
N1625 C1627 1.356 . S
N1625 H1630 0.984 . S
N1625 H1631 0.985 . S
C1626 C1620 1.379 . S
C1626 C1623 1.363 . S
C1626 N1624 1.356 . S
C1627 C1621 1.363 . S
C1627 C1622 1.379 . S
C1627 N1625 1.356 . S
N1628 C1620 1.356 . S
N1628 H1634 0.984 . S
N1628 H1635 0.984 . S
N1629 C1622 1.356 . S
N1629 H1632 0.984 . S
N1629 H1633 0.985 . S
H1630 N1625 0.984 . S
H1631 N1625 0.985 . S
H1632 N1629 0.984 . S
H1633 N1629 0.985 . S
H1634 N1628 0.984 . S
H1635 N1628 0.984 . S
H1636 N1624 0.984 . S
H1637 N1624 0.985 . S
C1638 C1639 1.363 . S
C1638 C1644 1.379 . S
C1638 N1646 1.356 . S
C1639 C1638 1.363 . S
C1639 C1645 1.363 . S
C1640 C1641 1.363 . S
C1640 C1645 1.379 . S
C1640 N1647 1.356 . S
C1641 C1640 1.363 . S
C1641 C1644 1.363 . S
N1642 C1644 1.356 . S
N1642 H1654 0.984 . S
N1642 H1655 0.985 . S
N1643 C1645 1.356 . S
N1643 H1648 0.984 . S
N1643 H1649 0.985 . S
C1644 C1638 1.379 . S
C1644 C1641 1.363 . S
C1644 N1642 1.356 . S
C1645 C1639 1.363 . S
C1645 C1640 1.379 . S
C1645 N1643 1.356 . S
N1646 C1638 1.356 . S
N1646 H1652 0.984 . S
N1646 H1653 0.984 . S
N1647 C1640 1.356 . S
N1647 H1650 0.984 . S
N1647 H1651 0.985 . S
H1648 N1643 0.984 . S
H1649 N1643 0.985 . S
H1650 N1647 0.984 . S
H1651 N1647 0.985 . S
H1652 N1646 0.984 . S
H1653 N1646 0.984 . S
H1654 N1642 0.984 . S
H1655 N1642 0.985 . S
C1656 C1657 1.363 . S
C1656 C1662 1.379 . S
C1656 N1664 1.356 . S
C1657 C1656 1.363 . S
C1657 C1663 1.363 . S
C1658 C1659 1.363 . S
C1658 C1663 1.379 . S
C1658 N1665 1.356 . S
C1659 C1658 1.363 . S
C1659 C1662 1.363 . S
N1660 C1662 1.356 . S
N1660 H1672 0.984 . S
N1660 H1673 0.985 . S
N1661 C1663 1.356 . S
N1661 H1666 0.984 . S
N1661 H1667 0.985 . S
C1662 C1656 1.379 . S
C1662 C1659 1.363 . S
C1662 N1660 1.356 . S
C1663 C1657 1.363 . S
C1663 C1658 1.379 . S
C1663 N1661 1.356 . S
N1664 C1656 1.356 . S
N1664 H1670 0.984 . S
N1664 H1671 0.984 . S
N1665 C1658 1.356 . S
N1665 H1668 0.984 . S
N1665 H1669 0.985 . S
H1666 N1661 0.984 . S
H1667 N1661 0.985 . S
H1668 N1665 0.984 . S
H1669 N1665 0.985 . S
H1670 N1664 0.984 . S
H1671 N1664 0.984 . S
H1672 N1660 0.984 . S
H1673 N1660 0.985 . S
C1674 C1675 1.363 . S
C1674 C1680 1.379 . S
C1674 N1682 1.356 1_554 S
C1675 C1674 1.363 . S
C1675 C1681 1.363 . S
C1676 C1677 1.363 . S
C1676 C1681 1.379 . S
C1676 N1683 1.356 . S
C1677 C1676 1.363 . S
C1677 C1680 1.363 . S
N1678 C1680 1.356 . S
N1678 H1690 0.984 . S
N1678 H1691 0.985 . S
N1679 C1681 1.356 . S
N1679 H1684 0.984 . S
N1679 H1685 0.985 . S
C1680 C1674 1.379 . S
C1680 C1677 1.363 . S
C1680 N1678 1.356 . S
C1681 C1675 1.363 . S
C1681 C1676 1.379 . S
C1681 N1679 1.356 . S
N1682 C1674 1.356 1_556 S
N1682 H1688 0.984 . S
N1682 H1689 0.984 . S
N1683 C1676 1.356 . S
N1683 H1686 0.984 . S
N1683 H1687 0.985 . S
H1684 N1679 0.984 . S
H1685 N1679 0.985 . S
H1686 N1683 0.984 . S
H1687 N1683 0.985 . S
H1688 N1682 0.984 . S
H1689 N1682 0.984 . S
H1690 N1678 0.984 . S
H1691 N1678 0.985 . S
C1692 C1693 1.363 . S
C1692 C1698 1.379 . S
C1692 N1700 1.356 . S
C1693 C1692 1.363 . S
C1693 C1699 1.363 . S
C1694 C1695 1.363 . S
C1694 C1699 1.379 . S
C1694 N1701 1.356 . S
C1695 C1694 1.363 . S
C1695 C1698 1.363 . S
N1696 C1698 1.356 . S
N1696 H1708 0.984 . S
N1696 H1709 0.985 . S
N1697 C1699 1.356 . S
N1697 H1702 0.984 . S
N1697 H1703 0.985 1_554 S
C1698 C1692 1.379 . S
C1698 C1695 1.363 . S
C1698 N1696 1.356 . S
C1699 C1693 1.363 . S
C1699 C1694 1.379 . S
C1699 N1697 1.356 . S
N1700 C1692 1.356 . S
N1700 H1706 0.984 . S
N1700 H1707 0.984 . S
N1701 C1694 1.356 . S
N1701 H1704 0.984 . S
N1701 H1705 0.985 . S
H1702 N1697 0.984 . S
H1703 N1697 0.985 1_556 S
H1704 N1701 0.984 . S
H1705 N1701 0.985 . S
H1706 N1700 0.984 . S
H1707 N1700 0.984 . S
H1708 N1696 0.984 . S
H1709 N1696 0.985 . S
C1710 C1711 1.363 . S
C1710 C1716 1.379 . S
C1710 N1718 1.344 1_554 S
C1711 C1710 1.363 . S
C1711 C1717 1.363 . S
C1712 C1713 1.363 . S
C1712 C1717 1.379 . S
C1712 N1719 1.356 . S
C1713 C1712 1.363 . S
C1713 C1716 1.363 . S
N1714 C1716 1.356 . S
N1714 H1726 0.984 . S
N1714 H1727 0.985 . S
N1715 C1717 1.356 . S
N1715 H1720 0.984 . S
N1715 H1721 0.985 . S
C1716 C1710 1.379 . S
C1716 C1713 1.363 . S
C1716 N1714 1.356 . S
C1717 C1711 1.363 . S
C1717 C1712 1.379 . S
C1717 N1715 1.356 . S
N1718 C1710 1.344 1_556 S
N1718 H1724 0.995 . S
N1718 H1725 0.986 . S
N1719 C1712 1.356 . S
N1719 H1722 0.984 . S
N1719 H1723 0.985 . S
H1720 N1715 0.984 . S
H1721 N1715 0.985 . S
H1722 N1719 0.984 . S
H1723 N1719 0.985 . S
H1724 N1718 0.995 . S
H1725 N1718 0.986 . S
H1726 N1714 0.984 . S
H1727 N1714 0.985 . S
C1728 C1729 1.363 . S
C1728 C1734 1.379 . S
C1728 N1736 1.356 1_556 S
C1729 C1728 1.363 . S
C1729 C1735 1.363 . S
C1730 C1731 1.363 . S
C1730 C1735 1.379 . S
C1730 N1737 1.356 . S
C1731 C1730 1.363 . S
C1731 C1734 1.363 . S
N1732 C1734 1.356 . S
N1732 H1744 0.984 1_556 S
N1732 H1745 0.985 . S
N1733 C1735 1.356 . S
N1733 H1738 0.984 . S
N1733 H1739 0.985 . S
C1734 C1728 1.379 . S
C1734 C1731 1.363 . S
C1734 N1732 1.356 . S
C1735 C1729 1.363 . S
C1735 C1730 1.379 . S
C1735 N1733 1.356 . S
N1736 C1728 1.356 1_554 S
N1736 H1742 0.984 . S
N1736 H1743 0.984 . S
N1737 C1730 1.356 . S
N1737 H1740 0.984 . S
N1737 H1741 0.985 . S
H1738 N1733 0.984 . S
H1739 N1733 0.985 . S
H1740 N1737 0.984 . S
H1741 N1737 0.985 . S
H1742 N1736 0.984 . S
H1743 N1736 0.984 . S
H1744 N1732 0.984 1_554 S
H1745 N1732 0.985 . S
C1746 C1747 1.363 . S
C1746 C1752 1.379 . S
C1746 N1754 1.356 . S
C1747 C1746 1.363 . S
C1747 C1753 1.363 . S
C1748 C1749 1.363 . S
C1748 C1753 1.379 . S
C1748 N1755 1.356 . S
C1749 C1748 1.363 . S
C1749 C1752 1.363 . S
N1750 C1752 1.356 . S
N1750 H1762 0.984 . S
N1750 H1763 0.985 . S
N1751 C1753 1.356 . S
N1751 H1756 0.984 . S
N1751 H1757 0.985 . S
C1752 C1746 1.379 . S
C1752 C1749 1.363 . S
C1752 N1750 1.356 . S
C1753 C1747 1.363 . S
C1753 C1748 1.379 . S
C1753 N1751 1.356 . S
N1754 C1746 1.356 . S
N1754 H1760 0.984 1_556 S
N1754 H1761 0.984 1_556 S
N1755 C1748 1.356 . S
N1755 H1758 0.984 . S
N1755 H1759 0.985 . S
H1756 N1751 0.984 . S
H1757 N1751 0.985 . S
H1758 N1755 0.984 . S
H1759 N1755 0.985 . S
H1760 N1754 0.984 1_554 S
H1761 N1754 0.984 1_554 S
H1762 N1750 0.984 . S
H1763 N1750 0.985 . S
C1764 C1765 1.363 . S
C1764 C1770 1.379 . S
C1764 N1772 1.356 . S
C1765 C1764 1.363 . S
C1765 C1771 1.363 . S
C1766 C1767 1.363 . S
C1766 C1771 1.379 . S
C1766 N1773 1.356 . S
C1767 C1766 1.363 . S
C1767 C1770 1.363 . S
N1768 C1770 1.356 . S
N1768 H1780 0.984 . S
N1768 H1781 0.985 . S
N1769 C1771 1.356 . S
N1769 H1774 0.984 . S
N1769 H1775 0.985 . S
C1770 C1764 1.379 . S
C1770 C1767 1.363 . S
C1770 N1768 1.356 . S
C1771 C1765 1.363 . S
C1771 C1766 1.379 . S
C1771 N1769 1.356 . S
N1772 C1764 1.356 . S
N1772 H1778 0.984 1_556 S
N1772 H1779 0.984 1_556 S
N1773 C1766 1.356 . S
N1773 H1776 0.984 . S
N1773 H1777 0.985 . S
H1774 N1769 0.984 . S
H1775 N1769 0.985 . S
H1776 N1773 0.984 . S
H1777 N1773 0.985 . S
H1778 N1772 0.984 1_554 S
H1779 N1772 0.984 1_554 S
H1780 N1768 0.984 . S
H1781 N1768 0.985 . S
C1782 C1783 1.363 . S
C1782 C1788 1.379 . S
C1782 N1790 1.356 1_556 S
C1783 C1782 1.363 . S
C1783 C1789 1.363 . S
C1784 C1785 1.363 . S
C1784 C1789 1.379 . S
C1784 N1791 1.356 . S
C1785 C1784 1.363 . S
C1785 C1788 1.363 . S
N1786 C1788 1.356 . S
N1786 H1798 0.984 1_556 S
N1786 H1799 0.985 . S
N1787 C1789 1.356 . S
N1787 H1792 0.984 . S
N1787 H1793 0.985 . S
C1788 C1782 1.379 . S
C1788 C1785 1.363 . S
C1788 N1786 1.356 . S
C1789 C1783 1.363 . S
C1789 C1784 1.379 . S
C1789 N1787 1.356 . S
N1790 C1782 1.356 1_554 S
N1790 H1796 0.984 . S
N1790 H1797 0.984 . S
N1791 C1784 1.356 . S
N1791 H1794 0.984 . S
N1791 H1795 0.985 . S
H1792 N1787 0.984 . S
H1793 N1787 0.985 . S
H1794 N1791 0.984 . S
H1795 N1791 0.985 . S
H1796 N1790 0.984 . S
H1797 N1790 0.984 . S
H1798 N1786 0.984 1_554 S
H1799 N1786 0.985 . S
C1800 C1801 1.363 . S
C1800 C1806 1.379 . S
C1800 N1808 1.356 . S
C1801 C1800 1.363 . S
C1801 C1807 1.363 . S
C1802 C1803 1.363 . S
C1802 C1807 1.379 . S
C1802 N1809 1.356 . S
C1803 C1802 1.363 . S
C1803 C1806 1.363 . S
N1804 C1806 1.356 . S
N1804 H1816 0.984 . S
N1804 H1817 0.985 . S
N1805 C1807 1.356 1_554 S
N1805 H1810 0.984 . S
N1805 H1811 0.985 . S
C1806 C1800 1.379 . S
C1806 C1803 1.363 . S
C1806 N1804 1.356 . S
C1807 C1801 1.363 . S
C1807 C1802 1.379 . S
C1807 N1805 1.356 1_556 S
N1808 C1800 1.356 . S
N1808 H1814 0.984 . S
N1808 H1815 0.984 . S
N1809 C1802 1.356 . S
N1809 H1812 0.984 . S
N1809 H1813 0.985 . S
H1810 N1805 0.984 . S
H1811 N1805 0.985 . S
H1812 N1809 0.984 . S
H1813 N1809 0.985 . S
H1814 N1808 0.984 . S
H1815 N1808 0.984 . S
H1816 N1804 0.984 . S
H1817 N1804 0.985 . S
C1818 C1819 1.363 . S
C1818 C1824 1.379 . S
C1818 N1826 1.356 . S
C1819 C1818 1.363 . S
C1819 C1825 1.363 . S
C1820 C1821 1.363 . S
C1820 C1825 1.379 . S
C1820 N1827 1.356 . S
C1821 C1820 1.363 . S
C1821 C1824 1.363 . S
N1822 C1824 1.356 . S
N1822 H1834 0.984 . S
N1822 H1835 0.985 . S
N1823 C1825 1.356 . S
N1823 H1828 0.984 . S
N1823 H1829 0.985 . S
C1824 C1818 1.379 . S
C1824 C1821 1.363 . S
C1824 N1822 1.356 . S
C1825 C1819 1.363 . S
C1825 C1820 1.379 . S
C1825 N1823 1.356 . S
N1826 C1818 1.356 . S
N1826 H1832 0.984 . S
N1826 H1833 0.984 . S
N1827 C1820 1.356 . S
N1827 H1830 0.984 . S
N1827 H1831 0.985 . S
H1828 N1823 0.984 . S
H1829 N1823 0.985 . S
H1830 N1827 0.984 . S
H1831 N1827 0.985 . S
H1832 N1826 0.984 . S
H1833 N1826 0.984 . S
H1834 N1822 0.984 . S
H1835 N1822 0.985 . S
C1836 C1837 1.363 . S
C1836 C1842 1.379 . S
C1836 N1844 1.356 1_554 S
C1837 C1836 1.363 . S
C1837 C1843 1.363 . S
C1838 C1839 1.363 . S
C1838 C1843 1.379 . S
C1838 N1845 1.356 . S
C1839 C1838 1.363 . S
C1839 C1842 1.363 . S
N1840 C1842 1.356 . S
N1840 H1852 0.984 . S
N1840 H1853 0.985 . S
N1841 C1843 1.356 . S
N1841 H1846 0.984 . S
N1841 H1847 0.985 . S
C1842 C1836 1.379 . S
C1842 C1839 1.363 . S
C1842 N1840 1.356 . S
C1843 C1837 1.363 . S
C1843 C1838 1.379 . S
C1843 N1841 1.356 . S
N1844 C1836 1.356 1_556 S
N1844 H1850 0.984 . S
N1844 H1851 0.984 . S
N1845 C1838 1.356 . S
N1845 H1848 0.984 . S
N1845 H1849 0.985 . S
H1846 N1841 0.984 . S
H1847 N1841 0.985 . S
H1848 N1845 0.984 . S
H1849 N1845 0.985 . S
H1850 N1844 0.984 . S
H1851 N1844 0.984 . S
H1852 N1840 0.984 . S
H1853 N1840 0.985 . S
C1854 C1855 1.363 . S
C1854 C1860 1.379 . S
C1854 N1862 1.356 1_554 S
C1855 C1854 1.363 . S
C1855 C1861 1.363 . S
C1856 C1857 1.363 . S
C1856 C1861 1.379 . S
C1856 N1863 1.356 . S
C1857 C1856 1.363 . S
C1857 C1860 1.363 . S
N1858 C1860 1.356 . S
N1858 H1870 0.984 1_554 S
N1858 H1871 0.985 . S
N1859 C1861 1.356 . S
N1859 H1864 0.984 . S
N1859 H1865 0.985 . S
C1860 C1854 1.379 . S
C1860 C1857 1.363 . S
C1860 N1858 1.356 . S
C1861 C1855 1.363 . S
C1861 C1856 1.379 . S
C1861 N1859 1.356 . S
N1862 C1854 1.356 1_556 S
N1862 H1868 0.984 . S
N1862 H1869 0.984 . S
N1863 C1856 1.356 . S
N1863 H1866 0.984 . S
N1863 H1867 0.985 . S
H1864 N1859 0.984 . S
H1865 N1859 0.985 . S
H1866 N1863 0.984 . S
H1867 N1863 0.985 . S
H1868 N1862 0.984 . S
H1869 N1862 0.984 . S
H1870 N1858 0.984 1_556 S
H1871 N1858 0.985 . S
C1872 C1873 1.363 . S
C1872 C1878 1.379 . S
C1872 N1880 1.356 1_554 S
C1873 C1872 1.363 . S
C1873 C1879 1.363 . S
C1874 C1875 1.363 . S
C1874 C1879 1.379 . S
C1874 N1881 1.356 . S
C1875 C1874 1.363 . S
C1875 C1878 1.363 . S
N1876 C1878 1.356 . S
N1876 H1888 0.984 . S
N1876 H1889 0.985 . S
N1877 C1879 1.356 . S
N1877 H1882 0.984 . S
N1877 H1883 0.985 . S
C1878 C1872 1.379 . S
C1878 C1875 1.363 . S
C1878 N1876 1.356 . S
C1879 C1873 1.363 . S
C1879 C1874 1.379 . S
C1879 N1877 1.356 . S
N1880 C1872 1.356 1_556 S
N1880 H1886 0.984 . S
N1880 H1887 0.984 . S
N1881 C1874 1.356 . S
N1881 H1884 0.984 . S
N1881 H1885 0.985 . S
H1882 N1877 0.984 . S
H1883 N1877 0.985 . S
H1884 N1881 0.984 . S
H1885 N1881 0.985 . S
H1886 N1880 0.984 . S
H1887 N1880 0.984 . S
H1888 N1876 0.984 . S
H1889 N1876 0.985 . S
C1890 C1891 1.363 . S
C1890 C1896 1.379 . S
C1890 N1898 1.356 . S
C1891 C1890 1.363 . S
C1891 C1897 1.363 . S
C1892 C1893 1.363 . S
C1892 C1897 1.379 . S
C1892 N1899 1.356 . S
C1893 C1892 1.363 . S
C1893 C1896 1.363 . S
N1894 C1896 1.356 . S
N1894 H1906 0.984 . S
N1894 H1907 0.985 . S
N1895 C1897 1.356 . S
N1895 H1900 0.984 . S
N1895 H1901 0.985 . S
C1896 C1890 1.379 . S
C1896 C1893 1.363 . S
C1896 N1894 1.356 . S
C1897 C1891 1.363 . S
C1897 C1892 1.379 . S
C1897 N1895 1.356 . S
N1898 C1890 1.356 . S
N1898 H1904 0.984 . S
N1898 H1905 0.984 . S
N1899 C1892 1.356 . S
N1899 H1902 0.984 . S
N1899 H1903 0.985 . S
H1900 N1895 0.984 . S
H1901 N1895 0.985 . S
H1902 N1899 0.984 . S
H1903 N1899 0.985 . S
H1904 N1898 0.984 . S
H1905 N1898 0.984 . S
H1906 N1894 0.984 . S
H1907 N1894 0.985 . S
C1908 C1909 1.363 . S
C1908 C1914 1.379 . S
C1908 N1916 1.356 . S
C1909 C1908 1.363 . S
C1909 C1915 1.363 . S
C1910 C1911 1.363 . S
C1910 C1915 1.379 . S
C1910 N1917 1.356 . S
C1911 C1910 1.363 . S
C1911 C1914 1.363 . S
N1912 C1914 1.356 . S
N1912 H1924 0.984 . S
N1912 H1925 0.985 . S
N1913 C1915 1.356 . S
N1913 H1918 0.984 . S
N1913 H1919 0.985 . S
C1914 C1908 1.379 . S
C1914 C1911 1.363 . S
C1914 N1912 1.356 . S
C1915 C1909 1.363 . S
C1915 C1910 1.379 . S
C1915 N1913 1.356 . S
N1916 C1908 1.356 . S
N1916 H1922 0.984 . S
N1916 H1923 0.984 . S
N1917 C1910 1.356 . S
N1917 H1920 0.984 . S
N1917 H1921 0.985 . S
H1918 N1913 0.984 . S
H1919 N1913 0.985 . S
H1920 N1917 0.984 . S
H1921 N1917 0.985 . S
H1922 N1916 0.984 . S
H1923 N1916 0.984 . S
H1924 N1912 0.984 . S
H1925 N1912 0.985 . S
C1926 C1927 1.363 . S
C1926 C1932 1.379 . S
C1926 N1934 1.356 . S
C1927 C1926 1.363 . S
C1927 C1933 1.363 . S
C1928 C1929 1.363 . S
C1928 C1933 1.379 . S
C1928 N1935 1.356 . S
C1929 C1928 1.363 . S
C1929 C1932 1.363 . S
N1930 C1932 1.356 . S
N1930 H1942 0.984 . S
N1930 H1943 0.985 . S
N1931 C1933 1.356 . S
N1931 H1936 0.984 . S
N1931 H1937 0.985 . S
C1932 C1926 1.379 . S
C1932 C1929 1.363 . S
C1932 N1930 1.356 . S
C1933 C1927 1.363 . S
C1933 C1928 1.379 . S
C1933 N1931 1.356 . S
N1934 C1926 1.356 . S
N1934 H1940 0.984 . S
N1934 H1941 0.984 . S
N1935 C1928 1.356 . S
N1935 H1938 0.984 . S
N1935 H1939 0.985 . S
H1936 N1931 0.984 . S
H1937 N1931 0.985 . S
H1938 N1935 0.984 . S
H1939 N1935 0.985 . S
H1940 N1934 0.984 . S
H1941 N1934 0.984 . S
H1942 N1930 0.984 . S
H1943 N1930 0.985 . S
C1944 C1945 1.363 1_655 S
C1944 C1950 1.379 . S
C1944 N1952 1.356 . S
C1945 C1944 1.363 1_455 S
C1945 C1951 1.363 . S
C1946 C1947 1.363 . S
C1946 C1951 1.379 . S
C1946 N1953 1.356 . S
C1947 C1946 1.363 . S
C1947 C1950 1.363 1_455 S
N1948 C1950 1.356 . S
N1948 H1960 0.984 . S
N1948 H1961 0.985 . S
N1949 C1951 1.356 . S
N1949 H1954 0.984 . S
N1949 H1955 0.985 . S
C1950 C1944 1.379 . S
C1950 C1947 1.363 1_655 S
C1950 N1948 1.356 . S
C1951 C1945 1.363 . S
C1951 C1946 1.379 . S
C1951 N1949 1.356 . S
N1952 C1944 1.356 . S
N1952 H1958 0.984 . S
N1952 H1959 0.984 . S
N1953 C1946 1.356 . S
N1953 H1956 0.984 . S
N1953 H1957 0.985 . S
H1954 N1949 0.984 . S
H1955 N1949 0.985 . S
H1956 N1953 0.984 . S
H1957 N1953 0.985 . S
H1958 N1952 0.984 . S
H1959 N1952 0.984 . S
H1960 N1948 0.984 . S
H1961 N1948 0.985 . S
C1962 C1963 1.363 . S
C1962 C1968 1.379 . S
C1962 N1970 1.356 . S
C1963 C1962 1.363 . S
C1963 C1969 1.363 . S
C1964 C1965 1.363 . S
C1964 C1969 1.379 . S
C1964 N1971 1.356 . S
C1965 C1964 1.363 . S
C1965 C1968 1.363 . S
N1966 C1968 1.356 . S
N1966 H1978 0.984 . S
N1966 H1979 0.985 . S
N1967 C1969 1.356 . S
N1967 H1972 0.984 . S
N1967 H1973 0.985 . S
C1968 C1962 1.379 . S
C1968 C1965 1.363 . S
C1968 N1966 1.356 . S
C1969 C1963 1.363 . S
C1969 C1964 1.379 . S
C1969 N1967 1.356 . S
N1970 C1962 1.356 . S
N1970 H1976 0.984 . S
N1970 H1977 0.984 . S
N1971 C1964 1.356 . S
N1971 H1974 0.984 . S
N1971 H1975 0.985 . S
H1972 N1967 0.984 . S
H1973 N1967 0.985 . S
H1974 N1971 0.984 . S
H1975 N1971 0.985 . S
H1976 N1970 0.984 . S
H1977 N1970 0.984 . S
H1978 N1966 0.984 . S
H1979 N1966 0.985 . S
C1980 C1981 1.363 . S
C1980 C1986 1.379 . S
C1980 N1988 1.356 . S
C1981 C1980 1.363 . S
C1981 C1987 1.363 1_565 S
C1982 C1983 1.363 1_545 S
C1982 C1987 1.379 . S
C1982 N1989 1.356 . S
C1983 C1982 1.363 1_565 S
C1983 C1986 1.363 . S
N1984 C1986 1.356 . S
N1984 H1996 0.984 . S
N1984 H1997 0.985 . S
N1985 C1987 1.356 . S
N1985 H1990 0.984 . S
N1985 H1991 0.985 . S
C1986 C1980 1.379 . S
C1986 C1983 1.363 . S
C1986 N1984 1.356 . S
C1987 C1981 1.363 1_545 S
C1987 C1982 1.379 . S
C1987 N1985 1.356 . S
N1988 C1980 1.356 . S
N1988 H1994 0.984 . S
N1988 H1995 0.984 . S
N1989 C1982 1.356 . S
N1989 H1992 0.984 . S
N1989 H1993 0.985 . S
H1990 N1985 0.984 . S
H1991 N1985 0.985 . S
H1992 N1989 0.984 . S
H1993 N1989 0.985 . S
H1994 N1988 0.984 . S
H1995 N1988 0.984 . S
H1996 N1984 0.984 . S
H1997 N1984 0.985 . S
C1998 C1999 1.363 1_545 S
C1998 C2004 1.379 . S
C1998 N2006 1.356 . S
C1999 C1998 1.363 1_565 S
C1999 C2005 1.363 . S
C2000 C2001 1.363 . S
C2000 C2005 1.379 . S
C2000 N2007 1.356 . S
C2001 C2000 1.363 . S
C2001 C2004 1.363 1_565 S
N2002 C2004 1.356 . S
N2002 H2014 0.984 . S
N2002 H2015 0.985 . S
N2003 C2005 1.356 . S
N2003 H2008 0.984 . S
N2003 H2009 0.985 . S
C2004 C1998 1.379 . S
C2004 C2001 1.363 1_545 S
C2004 N2002 1.356 . S
C2005 C1999 1.363 . S
C2005 C2000 1.379 . S
C2005 N2003 1.356 . S
N2006 C1998 1.356 . S
N2006 H2012 0.984 . S
N2006 H2013 0.984 . S
N2007 C2000 1.356 . S
N2007 H2010 0.984 . S
N2007 H2011 0.985 . S
H2008 N2003 0.984 . S
H2009 N2003 0.985 . S
H2010 N2007 0.984 . S
H2011 N2007 0.985 . S
H2012 N2006 0.984 . S
H2013 N2006 0.984 . S
H2014 N2002 0.984 . S
H2015 N2002 0.985 . S
C2016 C2017 1.363 . S
C2016 C2022 1.379 . S
C2016 N2024 1.356 . S
C2017 C2016 1.363 . S
C2017 C2023 1.363 1_455 S
C2018 C2019 1.363 1_655 S
C2018 C2023 1.379 . S
C2018 N2025 1.356 . S
C2019 C2018 1.363 1_455 S
C2019 C2022 1.363 . S
N2020 C2022 1.356 . S
N2020 H2032 0.984 . S
N2020 H2033 0.985 . S
N2021 C2023 1.356 . S
N2021 H2026 0.984 . S
N2021 H2027 0.985 . S
C2022 C2016 1.379 . S
C2022 C2019 1.363 . S
C2022 N2020 1.356 . S
C2023 C2017 1.363 1_655 S
C2023 C2018 1.379 . S
C2023 N2021 1.356 . S
N2024 C2016 1.356 . S
N2024 H2030 0.984 . S
N2024 H2031 0.984 . S
N2025 C2018 1.356 . S
N2025 H2028 0.984 . S
N2025 H2029 0.985 . S
H2026 N2021 0.984 . S
H2027 N2021 0.985 . S
H2028 N2025 0.984 . S
H2029 N2025 0.985 . S
H2030 N2024 0.984 . S
H2031 N2024 0.984 . S
H2032 N2020 0.984 . S
H2033 N2020 0.985 . S
C2034 C2035 1.363 . S
C2034 C2040 1.379 . S
C2034 N2042 1.356 . S
C2035 C2034 1.363 . S
C2035 C2041 1.363 . S
C2036 C2037 1.363 . S
C2036 C2041 1.379 . S
C2036 N2043 1.356 . S
C2037 C2036 1.363 . S
C2037 C2040 1.363 . S
N2038 C2040 1.356 . S
N2038 H2050 0.984 . S
N2038 H2051 0.985 . S
N2039 C2041 1.356 . S
N2039 H2044 0.984 . S
N2039 H2045 0.985 . S
C2040 C2034 1.379 . S
C2040 C2037 1.363 . S
C2040 N2038 1.356 . S
C2041 C2035 1.363 . S
C2041 C2036 1.379 . S
C2041 N2039 1.356 . S
N2042 C2034 1.356 . S
N2042 H2048 0.984 . S
N2042 H2049 0.984 . S
N2043 C2036 1.356 . S
N2043 H2046 0.984 . S
N2043 H2047 0.985 . S
H2044 N2039 0.984 . S
H2045 N2039 0.985 . S
H2046 N2043 0.984 . S
H2047 N2043 0.985 . S
H2048 N2042 0.984 . S
H2049 N2042 0.984 . S
H2050 N2038 0.984 . S
H2051 N2038 0.985 . S
C2052 C2053 1.363 . S
C2052 C2058 1.379 . S
C2052 N2060 1.356 . S
C2053 C2052 1.363 . S
C2053 C2059 1.363 . S
C2054 C2055 1.363 . S
C2054 C2059 1.379 . S
C2054 N2061 1.356 . S
C2055 C2054 1.363 . S
C2055 C2058 1.363 . S
N2056 C2058 1.356 . S
N2056 H2068 0.984 . S
N2056 H2069 0.985 . S
N2057 C2059 1.356 . S
N2057 H2062 0.984 . S
N2057 H2063 0.985 . S
C2058 C2052 1.379 . S
C2058 C2055 1.363 . S
C2058 N2056 1.356 . S
C2059 C2053 1.363 . S
C2059 C2054 1.379 . S
C2059 N2057 1.356 . S
N2060 C2052 1.356 . S
N2060 H2066 0.984 . S
N2060 H2067 0.984 . S
N2061 C2054 1.356 . S
N2061 H2064 0.984 . S
N2061 H2065 0.985 . S
H2062 N2057 0.984 . S
H2063 N2057 0.985 . S
H2064 N2061 0.984 . S
H2065 N2061 0.985 . S
H2066 N2060 0.984 . S
H2067 N2060 0.984 . S
H2068 N2056 0.984 . S
H2069 N2056 0.985 . S
C2070 C2071 1.363 . S
C2070 C2076 1.379 . S
C2070 N2078 1.356 . S
C2071 C2070 1.363 . S
C2071 C2077 1.363 . S
C2072 C2073 1.363 . S
C2072 C2077 1.379 . S
C2072 N2079 1.356 . S
C2073 C2072 1.363 . S
C2073 C2076 1.363 . S
N2074 C2076 1.356 . S
N2074 H2086 0.984 . S
N2074 H2087 0.985 . S
N2075 C2077 1.356 . S
N2075 H2080 0.984 . S
N2075 H2081 0.985 . S
C2076 C2070 1.379 . S
C2076 C2073 1.363 . S
C2076 N2074 1.356 . S
C2077 C2071 1.363 . S
C2077 C2072 1.379 . S
C2077 N2075 1.356 . S
N2078 C2070 1.356 . S
N2078 H2084 0.984 . S
N2078 H2085 0.984 . S
N2079 C2072 1.356 . S
N2079 H2082 0.984 . S
N2079 H2083 0.985 . S
H2080 N2075 0.984 . S
H2081 N2075 0.985 . S
H2082 N2079 0.984 . S
H2083 N2079 0.985 . S
H2084 N2078 0.984 . S
H2085 N2078 0.984 . S
H2086 N2074 0.984 . S
H2087 N2074 0.985 . S
C2088 C2089 1.363 . S
C2088 C2094 1.379 . S
C2088 N2096 1.356 . S
C2089 C2088 1.363 . S
C2089 C2095 1.363 . S
C2090 C2091 1.363 . S
C2090 C2095 1.379 . S
C2090 N2097 1.356 . S
C2091 C2090 1.363 . S
C2091 C2094 1.363 . S
N2092 C2094 1.356 . S
N2092 H2104 0.984 . S
N2092 H2105 0.985 . S
N2093 C2095 1.356 . S
N2093 H2098 0.984 . S
N2093 H2099 0.985 . S
C2094 C2088 1.379 . S
C2094 C2091 1.363 . S
C2094 N2092 1.356 . S
C2095 C2089 1.363 . S
C2095 C2090 1.379 . S
C2095 N2093 1.356 . S
N2096 C2088 1.356 . S
N2096 H2102 0.984 . S
N2096 H2103 0.984 . S
N2097 C2090 1.356 . S
N2097 H2100 0.984 . S
N2097 H2101 0.985 . S
H2098 N2093 0.984 . S
H2099 N2093 0.985 . S
H2100 N2097 0.984 . S
H2101 N2097 0.985 . S
H2102 N2096 0.984 . S
H2103 N2096 0.984 . S
H2104 N2092 0.984 . S
H2105 N2092 0.985 . S
C2106 C2107 1.363 1_565 S
C2106 C2112 1.379 . S
C2106 N2114 1.356 . S
C2107 C2106 1.363 1_545 S
C2107 C2113 1.363 . S
C2108 C2109 1.363 . S
C2108 C2113 1.379 . S
C2108 N2115 1.356 . S
C2109 C2108 1.363 . S
C2109 C2112 1.363 1_545 S
N2110 C2112 1.356 . S
N2110 H2122 0.984 . S
N2110 H2123 0.985 . S
N2111 C2113 1.356 . S
N2111 H2116 0.984 . S
N2111 H2117 0.985 . S
C2112 C2106 1.379 . S
C2112 C2109 1.363 1_565 S
C2112 N2110 1.356 . S
C2113 C2107 1.363 . S
C2113 C2108 1.379 . S
C2113 N2111 1.356 . S
N2114 C2106 1.356 . S
N2114 H2120 0.984 . S
N2114 H2121 0.984 . S
N2115 C2108 1.356 . S
N2115 H2118 0.984 . S
N2115 H2119 0.985 . S
H2116 N2111 0.984 . S
H2117 N2111 0.985 . S
H2118 N2115 0.984 . S
H2119 N2115 0.985 . S
H2120 N2114 0.984 . S
H2121 N2114 0.984 . S
H2122 N2110 0.984 . S
H2123 N2110 0.985 . S
C2124 C2125 1.363 . S
C2124 C2130 1.379 . S
C2124 N2132 1.356 . S
C2125 C2124 1.363 . S
C2125 C2131 1.363 1_655 S
C2126 C2127 1.363 1_455 S
C2126 C2131 1.379 . S
C2126 N2133 1.356 . S
C2127 C2126 1.363 1_655 S
C2127 C2130 1.363 . S
N2128 C2130 1.356 . S
N2128 H2140 0.984 . S
N2128 H2141 0.985 . S
N2129 C2131 1.356 . S
N2129 H2134 0.984 . S
N2129 H2135 0.985 . S
C2130 C2124 1.379 . S
C2130 C2127 1.363 . S
C2130 N2128 1.356 . S
C2131 C2125 1.363 1_455 S
C2131 C2126 1.379 . S
C2131 N2129 1.356 . S
N2132 C2124 1.356 . S
N2132 H2138 0.984 . S
N2132 H2139 0.984 . S
N2133 C2126 1.356 . S
N2133 H2136 0.984 . S
N2133 H2137 0.985 . S
H2134 N2129 0.984 . S
H2135 N2129 0.985 . S
H2136 N2133 0.984 . S
H2137 N2133 0.985 . S
H2138 N2132 0.984 . S
H2139 N2132 0.984 . S
H2140 N2128 0.984 . S
H2141 N2128 0.985 . S
C2142 C2143 1.363 . S
C2142 C2148 1.379 . S
C2142 N2150 1.356 . S
C2143 C2142 1.363 . S
C2143 C2149 1.363 . S
C2144 C2145 1.363 . S
C2144 C2149 1.379 . S
C2144 N2151 1.356 . S
C2145 C2144 1.363 . S
C2145 C2148 1.363 . S
N2146 C2148 1.356 . S
N2146 H2158 0.984 . S
N2146 H2159 0.985 . S
N2147 C2149 1.356 . S
N2147 H2152 0.984 . S
N2147 H2153 0.985 . S
C2148 C2142 1.379 . S
C2148 C2145 1.363 . S
C2148 N2146 1.356 . S
C2149 C2143 1.363 . S
C2149 C2144 1.379 . S
C2149 N2147 1.356 . S
N2150 C2142 1.356 . S
N2150 H2156 0.984 . S
N2150 H2157 0.984 . S
N2151 C2144 1.356 . S
N2151 H2154 0.984 . S
N2151 H2155 0.985 . S
H2152 N2147 0.984 . S
H2153 N2147 0.985 . S
H2154 N2151 0.984 . S
H2155 N2151 0.985 . S
H2156 N2150 0.984 . S
H2157 N2150 0.984 . S
H2158 N2146 0.984 . S
H2159 N2146 0.985 . S
C2160 C2161 1.363 . S
C2160 C2166 1.379 . S
C2160 N2168 1.356 . S
C2161 C2160 1.363 . S
C2161 C2167 1.363 . S
C2162 C2163 1.363 . S
C2162 C2167 1.379 . S
C2162 N2169 1.356 . S
C2163 C2162 1.363 . S
C2163 C2166 1.363 . S
N2164 C2166 1.356 . S
N2164 H2176 0.984 . S
N2164 H2177 0.985 . S
N2165 C2167 1.356 . S
N2165 H2170 0.984 . S
N2165 H2171 0.985 . S
C2166 C2160 1.379 . S
C2166 C2163 1.363 . S
C2166 N2164 1.356 . S
C2167 C2161 1.363 . S
C2167 C2162 1.379 . S
C2167 N2165 1.356 . S
N2168 C2160 1.356 . S
N2168 H2174 0.984 . S
N2168 H2175 0.984 . S
N2169 C2162 1.356 . S
N2169 H2172 0.984 . S
N2169 H2173 0.985 . S
H2170 N2165 0.984 . S
H2171 N2165 0.985 . S
H2172 N2169 0.984 . S
H2173 N2169 0.985 . S
H2174 N2168 0.984 . S
H2175 N2168 0.984 . S
H2176 N2164 0.984 . S
H2177 N2164 0.985 . S
C2178 C2179 1.363 . S
C2178 C2184 1.379 . S
C2178 N2186 1.356 . S
C2179 C2178 1.363 . S
C2179 C2185 1.363 . S
C2180 C2181 1.363 . S
C2180 C2185 1.379 . S
C2180 N2187 1.356 . S
C2181 C2180 1.363 . S
C2181 C2184 1.363 . S
N2182 C2184 1.356 . S
N2182 H2194 0.984 . S
N2182 H2195 0.985 . S
N2183 C2185 1.356 . S
N2183 H2188 0.984 . S
N2183 H2189 0.985 . S
C2184 C2178 1.379 . S
C2184 C2181 1.363 . S
C2184 N2182 1.356 . S
C2185 C2179 1.363 . S
C2185 C2180 1.379 . S
C2185 N2183 1.356 . S
N2186 C2178 1.356 . S
N2186 H2192 0.984 . S
N2186 H2193 0.984 . S
N2187 C2180 1.356 . S
N2187 H2190 0.984 . S
N2187 H2191 0.985 . S
H2188 N2183 0.984 . S
H2189 N2183 0.985 . S
H2190 N2187 0.984 . S
H2191 N2187 0.985 . S
H2192 N2186 0.984 . S
H2193 N2186 0.984 . S
H2194 N2182 0.984 . S
H2195 N2182 0.985 . S
C2196 C2197 1.363 . S
C2196 C2202 1.379 . S
C2196 N2204 1.356 . S
C2197 C2196 1.363 . S
C2197 C2203 1.363 . S
C2198 C2199 1.363 . S
C2198 C2203 1.379 . S
C2198 N2205 1.356 . S
C2199 C2198 1.363 . S
C2199 C2202 1.363 . S
N2200 C2202 1.356 . S
N2200 H2212 0.984 . S
N2200 H2213 0.985 . S
N2201 C2203 1.356 . S
N2201 H2206 0.984 . S
N2201 H2207 0.985 . S
C2202 C2196 1.379 . S
C2202 C2199 1.363 . S
C2202 N2200 1.356 . S
C2203 C2197 1.363 . S
C2203 C2198 1.379 . S
C2203 N2201 1.356 . S
N2204 C2196 1.356 . S
N2204 H2210 0.984 . S
N2204 H2211 0.984 . S
N2205 C2198 1.356 . S
N2205 H2208 0.984 . S
N2205 H2209 0.985 . S
H2206 N2201 0.984 . S
H2207 N2201 0.985 . S
H2208 N2205 0.984 . S
H2209 N2205 0.985 . S
H2210 N2204 0.984 . S
H2211 N2204 0.984 . S
H2212 N2200 0.984 . S
H2213 N2200 0.985 . S
C2214 C2215 1.363 . S
C2214 C2220 1.379 . S
C2214 N2222 1.356 . S
C2215 C2214 1.363 . S
C2215 C2221 1.363 . S
C2216 C2217 1.363 . S
C2216 C2221 1.379 . S
C2216 N2223 1.356 . S
C2217 C2216 1.363 . S
C2217 C2220 1.363 . S
N2218 C2220 1.356 . S
N2218 H2230 0.984 . S
N2218 H2231 0.985 . S
N2219 C2221 1.356 . S
N2219 H2224 0.984 . S
N2219 H2225 0.985 . S
C2220 C2214 1.379 . S
C2220 C2217 1.363 . S
C2220 N2218 1.356 . S
C2221 C2215 1.363 . S
C2221 C2216 1.379 . S
C2221 N2219 1.356 . S
N2222 C2214 1.356 . S
N2222 H2228 0.984 . S
N2222 H2229 0.984 . S
N2223 C2216 1.356 . S
N2223 H2226 0.984 . S
N2223 H2227 0.985 . S
H2224 N2219 0.984 . S
H2225 N2219 0.985 . S
H2226 N2223 0.984 . S
H2227 N2223 0.985 . S
H2228 N2222 0.984 . S
H2229 N2222 0.984 . S
H2230 N2218 0.984 . S
H2231 N2218 0.985 . S
C2232 C2233 1.363 . S
C2232 C2238 1.379 . S
C2232 N2240 1.356 . S
C2233 C2232 1.363 . S
C2233 C2239 1.363 . S
C2234 C2235 1.363 . S
C2234 C2239 1.379 . S
C2234 N2241 1.356 . S
C2235 C2234 1.363 . S
C2235 C2238 1.363 . S
N2236 C2238 1.356 . S
N2236 H2248 0.984 . S
N2236 H2249 0.985 . S
N2237 C2239 1.356 . S
N2237 H2242 0.984 . S
N2237 H2243 0.985 . S
C2238 C2232 1.379 . S
C2238 C2235 1.363 . S
C2238 N2236 1.356 . S
C2239 C2233 1.363 . S
C2239 C2234 1.379 . S
C2239 N2237 1.356 . S
N2240 C2232 1.356 . S
N2240 H2246 0.984 . S
N2240 H2247 0.984 . S
N2241 C2234 1.356 . S
N2241 H2244 0.984 . S
N2241 H2245 0.985 . S
H2242 N2237 0.984 . S
H2243 N2237 0.985 . S
H2244 N2241 0.984 . S
H2245 N2241 0.985 . S
H2246 N2240 0.984 . S
H2247 N2240 0.984 . S
H2248 N2236 0.984 . S
H2249 N2236 0.985 . S
C2250 C2251 1.363 . S
C2250 C2256 1.379 . S
C2250 N2258 1.356 . S
C2251 C2250 1.363 . S
C2251 C2257 1.363 . S
C2252 C2253 1.363 . S
C2252 C2257 1.379 . S
C2252 N2259 1.356 . S
C2253 C2252 1.363 . S
C2253 C2256 1.363 . S
N2254 C2256 1.356 . S
N2254 H2266 0.984 . S
N2254 H2267 0.985 . S
N2255 C2257 1.356 . S
N2255 H2260 0.984 . S
N2255 H2261 0.985 . S
C2256 C2250 1.379 . S
C2256 C2253 1.363 . S
C2256 N2254 1.356 . S
C2257 C2251 1.363 . S
C2257 C2252 1.379 . S
C2257 N2255 1.356 . S
N2258 C2250 1.356 . S
N2258 H2264 0.984 . S
N2258 H2265 0.984 . S
N2259 C2252 1.356 . S
N2259 H2262 0.984 . S
N2259 H2263 0.985 . S
H2260 N2255 0.984 . S
H2261 N2255 0.985 . S
H2262 N2259 0.984 . S
H2263 N2259 0.985 . S
H2264 N2258 0.984 . S
H2265 N2258 0.984 . S
H2266 N2254 0.984 . S
H2267 N2254 0.985 . S
C2268 C2269 1.363 . S
C2268 C2274 1.379 . S
C2268 N2276 1.356 . S
C2269 C2268 1.363 . S
C2269 C2275 1.363 1_655 S
C2270 C2271 1.363 1_455 S
C2270 C2275 1.379 . S
C2270 N2277 1.356 . S
C2271 C2270 1.363 1_655 S
C2271 C2274 1.363 . S
N2272 C2274 1.356 . S
N2272 H2284 0.984 . S
N2272 H2285 0.985 . S
N2273 C2275 1.356 . S
N2273 H2278 0.984 . S
N2273 H2279 0.985 . S
C2274 C2268 1.379 . S
C2274 C2271 1.363 . S
C2274 N2272 1.356 . S
C2275 C2269 1.363 1_455 S
C2275 C2270 1.379 . S
C2275 N2273 1.356 . S
N2276 C2268 1.356 . S
N2276 H2282 0.984 . S
N2276 H2283 0.984 . S
N2277 C2270 1.356 . S
N2277 H2280 0.984 . S
N2277 H2281 0.985 . S
H2278 N2273 0.984 . S
H2279 N2273 0.985 . S
H2280 N2277 0.984 . S
H2281 N2277 0.985 . S
H2282 N2276 0.984 . S
H2283 N2276 0.984 . S
H2284 N2272 0.984 . S
H2285 N2272 0.985 . S
C2286 C2287 1.363 . S
C2286 C2292 1.379 . S
C2286 N2294 1.356 . S
C2287 C2286 1.363 . S
C2287 C2293 1.363 . S
C2288 C2289 1.363 . S
C2288 C2293 1.379 . S
C2288 N2295 1.356 . S
C2289 C2288 1.363 . S
C2289 C2292 1.363 . S
N2290 C2292 1.356 . S
N2290 H2302 0.984 . S
N2290 H2303 0.985 . S
N2291 C2293 1.356 . S
N2291 H2296 0.984 . S
N2291 H2297 0.985 . S
C2292 C2286 1.379 . S
C2292 C2289 1.363 . S
C2292 N2290 1.356 . S
C2293 C2287 1.363 . S
C2293 C2288 1.379 . S
C2293 N2291 1.356 . S
N2294 C2286 1.356 . S
N2294 H2300 0.984 . S
N2294 H2301 0.984 . S
N2295 C2288 1.356 . S
N2295 H2298 0.984 . S
N2295 H2299 0.985 . S
H2296 N2291 0.984 . S
H2297 N2291 0.985 . S
H2298 N2295 0.984 . S
H2299 N2295 0.985 . S
H2300 N2294 0.984 . S
H2301 N2294 0.984 . S
H2302 N2290 0.984 . S
H2303 N2290 0.985 . S
C2304 C2305 1.363 1_565 S
C2304 C2310 1.379 . S
C2304 N2312 1.356 . S
C2305 C2304 1.363 1_545 S
C2305 C2311 1.363 . S
C2306 C2307 1.363 . S
C2306 C2311 1.379 . S
C2306 N2313 1.356 . S
C2307 C2306 1.363 . S
C2307 C2310 1.363 1_545 S
N2308 C2310 1.356 . S
N2308 H2320 0.984 . S
N2308 H2321 0.985 . S
N2309 C2311 1.356 . S
N2309 H2314 0.984 . S
N2309 H2315 0.985 . S
C2310 C2304 1.379 . S
C2310 C2307 1.363 1_565 S
C2310 N2308 1.356 . S
C2311 C2305 1.363 . S
C2311 C2306 1.379 . S
C2311 N2309 1.356 . S
N2312 C2304 1.356 . S
N2312 H2318 0.984 . S
N2312 H2319 0.984 . S
N2313 C2306 1.356 . S
N2313 H2316 0.984 . S
N2313 H2317 0.985 . S
H2314 N2309 0.984 . S
H2315 N2309 0.985 . S
H2316 N2313 0.984 . S
H2317 N2313 0.985 . S
H2318 N2312 0.984 . S
H2319 N2312 0.984 . S
H2320 N2308 0.984 . S
H2321 N2308 0.985 . S
C1027 C4 1.518 1_655 S
C1029 C854 1.474 1_655 S
C1045 C38 1.668 . S
C1047 C867 1.649 . S
C1065 C896 1.461 1_545 S
C1063 C74 1.515 . S
C1081 C76 1.508 . S
C1083 C909 1.466 . S
C1099 C2 1.608 . S
C1101 C930 1.591 . S
C1117 C40 1.525 . S
C1119 C959 1.447 . S
C1135 C110 1.607 . S
C1137 C938 1.551 . S
C1155 C951 1.440 . S
C1153 C148 1.503 . S
C1173 C917 1.535 . S
C1171 C182 1.556 1_565 S
C1189 C184 1.524 . S
C1191 C888 1.504 1_545 S
C1209 C846 1.442 1_655 S
C1207 C112 1.491 1_655 S
C1225 C146 1.599 . S
C1227 C875 1.572 . S
C1243 C220 1.582 . S
C1245 C980 1.499 . S
C1261 C254 1.703 . S
C1263 C993 1.682 . S
C1281 C1022 1.511 . S
C1279 C290 1.601 . S
C1297 C292 1.534 . S
C1299 C657 1.512 . S
C1315 C218 1.659 . S
C1317 C678 1.641 . S
C1333 C256 1.535 . S
C1335 C707 1.454 . S
C1351 C326 1.633 . S
C1353 C686 1.607 . S
C1369 C364 1.529 . S
C1371 C699 1.464 . S
C1389 C665 1.590 . S
C1387 C398 1.610 . S
C1407 C1014 1.518 . S
C1405 C400 1.576 . S
C1425 C972 1.446 . S
C1423 C328 1.499 . S
C1443 C1001 1.603 . S
C1441 C362 1.630 . S
C1459 C436 1.559 . S
C1461 C728 1.479 . S
C1477 C470 1.691 . S
C1479 C741 1.673 . S
C1495 C506 1.599 . S
C1497 C770 1.515 . S
C1513 C508 1.556 . S
C1515 C783 1.535 . S
C1533 C804 1.642 . S
C1531 C434 1.662 . S
C1551 C833 1.465 . S
C1549 C472 1.549 . S
C1569 C812 1.635 . S
C1567 C542 1.662 . S
C1587 C825 1.465 . S
C1585 C580 1.534 . S
C1603 C614 1.604 . S
C1605 C791 1.582 . S
C1623 C762 1.492 . S
C1621 C616 1.547 . S
C1639 C544 1.503 . S
C1641 C720 1.452 . S
C1659 C749 1.588 . S
C1657 C578 1.612 . S
C1677 C660 1.444 . S
C1675 C14 1.508 . S
C1693 C39 1.493 . S
C1695 C681 1.390 . S
C1713 C709 1.340 . S
C1711 C75 1.478 . S
C1731 C730 1.309 . S
C1729 C86 1.383 . S
C1749 C744 1.413 . S
C1747 C3 1.511 . S
C1767 C772 1.389 . S
C1765 C50 1.470 . S
C1783 C111 1.530 . S
C1785 C765 1.342 . S
C1801 C158 1.456 . S
C1803 C723 1.296 . S
C1819 C183 1.586 . S
C1821 C751 1.516 . S
C1837 C194 1.508 . S
C1839 C688 1.474 . S
C1857 C702 1.305 . S
C1855 C122 1.460 . S
C1873 C147 1.464 . S
C1875 C667 1.379 . S
C1893 C786 1.423 . S
C1891 C230 1.495 . S
C1909 C255 1.540 . S
C1911 C807 1.431 . S
C1927 C291 1.495 . S
C1929 C835 1.354 . S
C1947 C856 1.302 . S
C1945 C302 1.341 . S
C1963 C219 1.510 . S
C1965 C870 1.405 . S
C1981 C266 1.414 . S
C1983 C898 1.397 . S
C1999 C327 1.444 . S
C2001 C891 1.295 . S
C2017 C374 1.405 . S
C2019 C849 1.305 . S
C2037 C877 1.499 . S
C2035 C399 1.575 . S
C2053 C410 1.503 . S
C2055 C814 1.459 . S
C2071 C338 1.488 . S
C2073 C828 1.338 . S
C2091 C793 1.416 . S
C2089 C363 1.505 . S
C2109 C912 1.366 1_545 S
C2107 C446 1.426 . S
C2125 C471 1.469 . S
C2127 C933 1.348 1_655 S
C2143 C507 1.466 . S
C2145 C961 1.330 . S
C2163 C982 1.302 . S
C2161 C518 1.387 . S
C2181 C996 1.436 . S
C2179 C435 1.546 . S
C2197 C482 1.499 . S
C2199 C1024 1.428 . S
C2215 C543 1.507 . S
C2217 C1017 1.315 . S
C2233 C590 1.487 . S
C2235 C975 1.337 . S
C2253 C1003 1.519 . S
C2251 C615 1.600 . S
C2271 C940 1.396 1_655 S
C2269 C626 1.417 . S
C2289 C954 1.322 . S
C2287 C554 1.471 . S
C2305 C579 1.435 . S
C2307 C919 1.343 1_545 S
