# Generated by pormake.
# Topology dag, (6,3)-cn, num edge types: 1
# Building blocks:
#     Node 0, Type 0, BuildingBlock: MIDCAF_clean_sbu_0, # of connection points: 6
#     Node 1, Type 0, BuildingBlock: MIDCAF_clean_sbu_0, # of connection points: 6
#     Node 2, Type 0, BuildingBlock: MIDCAF_clean_sbu_0, # of connection points: 6
#     Node 3, Type 0, BuildingBlock: MIDCAF_clean_sbu_0, # of connection points: 6
#     Node 4, Type 1, BuildingBlock: BETDAH_clean_linker_0, # of connection points: 3
#     Node 5, Type 1, BuildingBlock: BETDAH_clean_linker_0, # of connection points: 3
#     Node 6, Type 1, BuildingBlock: BETDAH_clean_linker_0, # of connection points: 3
#     Node 7, Type 1, BuildingBlock: BETDAH_clean_linker_0, # of connection points: 3
#     Node 8, Type 1, BuildingBlock: BETDAH_clean_linker_0, # of connection points: 3
#     Node 9, Type 1, BuildingBlock: BETDAH_clean_linker_0, # of connection points: 3
#     Node 10, Type 1, BuildingBlock: BETDAH_clean_linker_0, # of connection points: 3
#     Node 11, Type 1, BuildingBlock: BETDAH_clean_linker_0, # of connection points: 3
#     Edge 12, Type (0, 1), BuildingBlock: KIFKEQ_clean_linker_1, # of connection points: 2
#     Edge 13, Type (0, 1), BuildingBlock: KIFKEQ_clean_linker_1, # of connection points: 2
#     Edge 14, Type (0, 1), BuildingBlock: KIFKEQ_clean_linker_1, # of connection points: 2
#     Edge 15, Type (0, 1), BuildingBlock: KIFKEQ_clean_linker_1, # of connection points: 2
#     Edge 16, Type (0, 1), BuildingBlock: KIFKEQ_clean_linker_1, # of connection points: 2
#     Edge 17, Type (0, 1), BuildingBlock: KIFKEQ_clean_linker_1, # of connection points: 2
#     Edge 18, Type (0, 1), BuildingBlock: KIFKEQ_clean_linker_1, # of connection points: 2
#     Edge 19, Type (0, 1), BuildingBlock: KIFKEQ_clean_linker_1, # of connection points: 2
#     Edge 20, Type (0, 1), BuildingBlock: KIFKEQ_clean_linker_1, # of connection points: 2
#     Edge 21, Type (0, 1), BuildingBlock: KIFKEQ_clean_linker_1, # of connection points: 2
#     Edge 22, Type (0, 1), BuildingBlock: KIFKEQ_clean_linker_1, # of connection points: 2
#     Edge 23, Type (0, 1), BuildingBlock: KIFKEQ_clean_linker_1, # of connection points: 2
#     Edge 24, Type (0, 1), BuildingBlock: KIFKEQ_clean_linker_1, # of connection points: 2
#     Edge 25, Type (0, 1), BuildingBlock: KIFKEQ_clean_linker_1, # of connection points: 2
#     Edge 26, Type (0, 1), BuildingBlock: KIFKEQ_clean_linker_1, # of connection points: 2
#     Edge 27, Type (0, 1), BuildingBlock: KIFKEQ_clean_linker_1, # of connection points: 2
#     Edge 28, Type (0, 1), BuildingBlock: KIFKEQ_clean_linker_1, # of connection points: 2
#     Edge 29, Type (0, 1), BuildingBlock: KIFKEQ_clean_linker_1, # of connection points: 2
#     Edge 30, Type (0, 1), BuildingBlock: KIFKEQ_clean_linker_1, # of connection points: 2
#     Edge 31, Type (0, 1), BuildingBlock: KIFKEQ_clean_linker_1, # of connection points: 2
#     Edge 32, Type (0, 1), BuildingBlock: KIFKEQ_clean_linker_1, # of connection points: 2
#     Edge 33, Type (0, 1), BuildingBlock: KIFKEQ_clean_linker_1, # of connection points: 2
#     Edge 34, Type (0, 1), BuildingBlock: KIFKEQ_clean_linker_1, # of connection points: 2
#     Edge 35, Type (0, 1), BuildingBlock: KIFKEQ_clean_linker_1, # of connection points: 2
# Relax obj value: 0.134
# Max RMSD: 0.141
# Mean RMSD: 0.110
data_MOF--net-dag--node1-MIDCAF_clean_sbu_0--node2-BETDAH_clean_linker_0--edge1-KIFKEQ_clean_linker_1
_symmetry_space_group_name_H-M    P1
_symmetry_Int_Tables_number       1
_symmetry_cell_setting            triclinic
loop_
_symmetry_equiv_pos_as_xyz
'x, y, z'
_cell_length_a     40.225689
_cell_length_b     42.145464
_cell_length_c     32.329522
_cell_angle_alpha  92.653529
_cell_angle_beta   90.084782
_cell_angle_gamma 90.132647
loop_
_atom_site_label
_atom_site_type_symbol
_atom_site_fract_x
_atom_site_fract_y
_atom_site_fract_z
_atom_type_partial_charge
Zn0 Zn 0.12181 0.86442 0.18776 0.0
Zn1 Zn 0.09465 0.8804 0.00747 0.0
Zn2 Zn 0.11828 0.86425 0.06522 0.0
C3 C 0.11713 0.93463 0.02993 0.0
C4 C 0.06908 0.82403 0.01338 0.0
O5 O 0.14806 0.82177 0.07286 0.0
O6 O 0.13552 0.84388 0.13184 0.0
C7 C 0.16002 0.90126 0.11681 0.0
O8 O 0.13527 0.91288 0.04522 0.0
O9 O 0.08876 0.92717 0.01584 0.0
O10 O 0.05548 0.85089 0.01138 0.0
O11 O 0.09888 0.82297 0.02705 0.0
O12 O 0.14201 0.88221 0.13602 0.0
O13 O 0.15598 0.90039 0.07759 0.0
O14 O 0.07425 0.86572 0.10639 0.0
O15 O 0.07214 0.86745 0.17633 0.0
C16 C 0.05789 0.86691 0.14077 0.0
O17 O 0.14029 0.82785 0.02525 0.0
O18 O 0.13866 0.86346 0.97785 0.0
C19 C 0.14963 0.82105 0.1121 0.0
C20 C 0.15176 0.83848 0.99132 0.0
Zn21 Zn 0.63721 0.66116 0.38541 0.0
Zn22 Zn 0.63944 0.63661 0.58503 0.0
Zn23 Zn 0.64389 0.64444 0.50777 0.0
C24 C 0.65086 0.57632 0.55048 0.0
C25 C 0.57952 0.66362 0.55702 0.0
O26 O 0.68397 0.67753 0.49513 0.0
O27 O 0.66046 0.66125 0.43891 0.0
C28 C 0.66053 0.59838 0.43741 0.0
O29 O 0.65096 0.5927 0.51778 0.0
O30 O 0.64654 0.58987 0.58569 0.0
O31 O 0.59376 0.65435 0.58911 0.0
O32 O 0.59395 0.66116 0.52165 0.0
O33 O 0.65165 0.62229 0.41772 0.0
O34 O 0.65842 0.59988 0.47698 0.0
O35 O 0.5961 0.66044 0.47468 0.0
O36 O 0.5918 0.67231 0.40679 0.0
C37 C 0.5792 0.66958 0.44276 0.0
O38 O 0.68292 0.67603 0.53772 0.0
O39 O 0.67604 0.66533 0.60342 0.0
C40 C 0.68196 0.67909 0.45604 0.0
C41 C 0.69116 0.68028 0.57616 0.0
Zn42 Zn 0.85468 0.11618 0.93173 0.0
Zn43 Zn 0.8438 0.14527 0.06645 0.0
Zn44 Zn 0.86276 0.13708 0.99799 0.0
C45 C 0.9118 0.12643 0.06872 0.0
C46 C 0.80046 0.10116 0.02947 0.0
O47 O 0.83945 0.17411 0.96086 0.0
O48 O 0.80936 0.13679 0.92898 0.0
C49 C 0.89807 0.16926 0.93071 0.0
O50 O 0.90882 0.12593 0.02924 0.0
O51 O 0.88655 0.13178 0.09126 0.0
O52 O 0.80388 0.11646 0.06378 0.0
O53 O 0.82069 0.106 1.00018 0.0
O54 O 0.89491 0.14208 0.91269 0.0
O55 O 0.8787 0.17668 0.96143 0.0
O56 O 0.90297 0.1027 0.98611 0.0
O57 O 0.86501 0.07358 0.95305 0.0
C58 C 0.89295 0.07555 0.97101 0.0
O59 O 0.85628 0.18968 0.99981 0.0
O60 O 0.83877 0.19203 0.06473 0.0
C61 C 0.8138 0.16593 0.93883 0.0
C62 C 0.84657 0.206 0.03239 0.0
Zn63 Zn 0.40714 0.36626 0.5916 0.0
Zn64 Zn 0.35492 0.35557 0.46627 0.0
Zn65 Zn 0.37572 0.35727 0.53551 0.0
C66 C 0.42405 0.3648 0.46231 0.0
C67 C 0.32025 0.4046 0.50809 0.0
O68 O 0.35572 0.32148 0.57628 0.0
O69 O 0.36738 0.35435 0.62893 0.0
C70 C 0.42103 0.30677 0.5643 0.0
O71 O 0.42095 0.3604 0.50086 0.0
O72 O 0.39842 0.36613 0.43976 0.0
O73 O 0.31996 0.38894 0.47381 0.0
O74 O 0.34067 0.39702 0.53657 0.0
O75 O 0.43805 0.3315 0.5728 0.0
O76 O 0.3897 0.3096 0.55715 0.0
O77 O 0.36511 0.40309 0.57108 0.0
O78 O 0.41721 0.41222 0.58909 0.0
C79 C 0.38754 0.4219 0.5871 0.0
O80 O 0.3517 0.30997 0.5334 0.0
O81 O 0.3411 0.31016 0.4662 0.0
C82 C 0.35019 0.3313 0.61408 0.0
C83 C 0.34069 0.296 0.4998 0.0
H84 H 0.15052 0.09467 0.18466 0.0
H85 H 0.20543 0.11517 0.29719 0.0
H86 H 0.11113 0.16009 0.27722 0.0
C87 C 0.15384 0.10849 0.2135 0.0
C88 C 0.12823 0.12867 0.22715 0.0
C89 C 0.18172 0.10319 0.23853 0.0
C90 C 0.18442 0.11963 0.27731 0.0
C91 C 0.15898 0.14054 0.29103 0.0
C92 C 0.13101 0.14465 0.266 0.0
N93 N 0.15951 0.15638 0.33071 0.0
C94 C 0.18756 0.16014 0.35554 0.0
H95 H 0.40233 0.6428 0.69295 0.0
H96 H 0.35027 0.73046 0.71689 0.0
H97 H 0.3036 0.64195 0.74381 0.0
C98 C 0.38114 0.65539 0.70636 0.0
C99 C 0.35362 0.6382 0.71978 0.0
C100 C 0.38007 0.68853 0.70503 0.0
C101 C 0.35187 0.70496 0.71951 0.0
C102 C 0.3248 0.68816 0.73502 0.0
C103 C 0.32548 0.65484 0.73449 0.0
N104 N 0.29477 0.70424 0.74415 0.0
C105 C 0.28754 0.71699 0.7834 0.0
H106 H 0.8084 0.90149 0.11026 0.0
H107 H 0.80026 0.84706 0.21945 0.0
H108 H 0.71946 0.90624 0.18301 0.0
C109 C 0.79381 0.89277 0.13552 0.0
C110 C 0.76184 0.90508 0.14229 0.0
C111 C 0.8083 0.8721 0.16332 0.0
C112 C 0.78954 0.86291 0.19767 0.0
C113 C 0.75737 0.87523 0.20464 0.0
C114 C 0.74386 0.89619 0.17692 0.0
N115 N 0.73842 0.86867 0.24023 0.0
C116 C 0.74657 0.84649 0.269 0.0
H117 H 0.60389 0.33445 0.60071 0.0
H118 H 0.65517 0.26879 0.67624 0.0
H119 H 0.70475 0.35338 0.63962 0.0
C120 C 0.62611 0.32794 0.61731 0.0
C121 C 0.6542 0.34785 0.61745 0.0
C122 C 0.6264 0.29941 0.63821 0.0
C123 C 0.65494 0.2907 0.65997 0.0
C124 C 0.68331 0.31032 0.65997 0.0
C125 C 0.68285 0.33834 0.63841 0.0
N126 N 0.71307 0.3026 0.6807 0.0
C127 C 0.71442 0.28611 0.71682 0.0
H128 H 0.6507 0.39763 0.34073 0.0
H129 H 0.70732 0.39231 0.22809 0.0
H130 H 0.62198 0.33178 0.24201 0.0
C131 C 0.65589 0.38595 0.31086 0.0
C132 C 0.63397 0.36256 0.29522 0.0
C133 C 0.68234 0.3969 0.28712 0.0
C134 C 0.68748 0.38343 0.24704 0.0
C135 C 0.66582 0.35955 0.23096 0.0
C136 C 0.63898 0.3496 0.25495 0.0
N137 N 0.66898 0.34634 0.18999 0.0
C138 C 0.69861 0.34471 0.16795 0.0
H139 H 0.11317 0.15559 0.93535 0.0
H140 H 0.15524 0.21247 0.84167 0.0
H141 H 0.21448 0.14067 0.89691 0.0
C142 C 0.13463 0.16234 0.91747 0.0
C143 C 0.16436 0.14519 0.92023 0.0
C144 C 0.13124 0.18661 0.88949 0.0
C145 C 0.15815 0.19433 0.86405 0.0
C146 C 0.18842 0.17776 0.86715 0.0
C147 C 0.19121 0.15347 0.89519 0.0
N148 N 0.21639 0.18357 0.84182 0.0
C149 C 0.21947 0.20733 0.81362 0.0
H150 H 0.33404 0.61598 0.43932 0.0
H151 H 0.33546 0.6655 0.32557 0.0
H152 H 0.2587 0.59775 0.34712 0.0
C153 C 0.32226 0.62213 0.41066 0.0
C154 C 0.29345 0.60556 0.39764 0.0
C155 C 0.33799 0.64384 0.38518 0.0
C156 C 0.32364 0.64949 0.34631 0.0
C157 C 0.29517 0.63265 0.33275 0.0
C158 C 0.2802 0.61104 0.35847 0.0
N159 N 0.2845 0.63305 0.29105 0.0
C160 C 0.27257 0.65998 0.27299 0.0
H161 H 0.9607 0.84774 0.85622 0.0
H162 H 0.91924 0.79497 0.75151 0.0
H163 H 0.89506 0.89395 0.77304 0.0
C164 C 0.94471 0.84698 0.82914 0.0
C165 C 0.9278 0.8744 0.8184 0.0
C166 C 0.94177 0.81842 0.80535 0.0
C167 C 0.92143 0.81699 0.76996 0.0
C168 C 0.90493 0.84465 0.75801 0.0
C169 C 0.90839 0.87308 0.78216 0.0
N170 N 0.88537 0.84529 0.72146 0.0
C171 C 0.87012 0.81903 0.70186 0.0
H172 H 0.20931 0.93821 0.08607 0.0
H173 H 0.15436 0.92109 0.19737 0.0
H174 H 0.2351 0.98488 0.1203 0.0
H175 H 0.17794 0.96826 0.23073 0.0
H176 H 0.20347 0.05558 0.28655 0.0
H177 H 0.21628 0.00207 0.26019 0.0
H178 H 0.21815 0.03539 0.13556 0.0
H179 H 0.2088 0.08893 0.16258 0.0
C180 C 0.20295 0.94439 0.11796 0.0
C181 C 0.17935 0.92653 0.13881 0.0
C182 C 0.21764 0.97117 0.13766 0.0
C183 C 0.20834 0.98107 0.17826 0.0
C184 C 0.18641 0.96159 0.19981 0.0
C185 C 0.17238 0.93453 0.18044 0.0
C186 C 0.2086 0.05174 0.25382 0.0
C187 C 0.20369 0.07613 0.22633 0.0
C188 C 0.21525 0.02084 0.23848 0.0
C189 C 0.21606 0.0138 0.19542 0.0
C190 C 0.21702 0.03932 0.16883 0.0
C191 C 0.21143 0.07028 0.18431 0.0
H192 H 0.56705 0.72472 0.58001 0.0
H193 H 0.51976 0.63436 0.55233 0.0
H194 H 0.51538 0.74476 0.61209 0.0
H195 H 0.46771 0.65495 0.58144 0.0
H196 H 0.37547 0.70471 0.62569 0.0
H197 H 0.42254 0.70917 0.57824 0.0
H198 H 0.49022 0.70897 0.68181 0.0
H199 H 0.44322 0.70324 0.72901 0.0
C200 C 0.54501 0.70988 0.57856 0.0
C201 C 0.54682 0.67842 0.56242 0.0
C202 C 0.51565 0.72129 0.59696 0.0
C203 C 0.48766 0.7015 0.59855 0.0
C204 C 0.48882 0.67085 0.57962 0.0
C205 C 0.51843 0.65915 0.5626 0.0
C206 C 0.40032 0.70733 0.63839 0.0
C207 C 0.40593 0.70397 0.68084 0.0
C208 C 0.42714 0.70973 0.6113 0.0
C209 C 0.45977 0.70954 0.62657 0.0
C210 C 0.46517 0.7097 0.66953 0.0
C211 C 0.43839 0.70653 0.69651 0.0
H212 H 0.81128 0.04453 0.98862 0.0
H213 H 0.74035 0.09476 0.06704 0.0
H214 H 0.78738 0.99445 0.00679 0.0
H215 H 0.71435 0.0445 0.08312 0.0
H216 H 0.75846 0.90598 0.05779 0.0
H217 H 0.75152 0.95283 0.01685 0.0
H218 H 0.7342 0.00966 0.12975 0.0
H219 H 0.73938 0.96284 0.16953 0.0
C220 C 0.78934 0.0449 0.00802 0.0
C221 C 0.77817 0.07339 0.02731 0.0
C222 C 0.7754 0.016 0.01849 0.0
C223 C 0.74956 0.01516 0.04782 0.0
C224 C 0.73513 0.04411 0.06185 0.0
C225 C 0.74972 0.07297 0.05231 0.0
C226 C 0.75208 0.92843 0.0734 0.0
C227 C 0.74989 0.93099 0.11676 0.0
C228 C 0.74828 0.95533 0.05008 0.0
C229 C 0.7431 0.98541 0.06984 0.0
C230 C 0.73784 0.98712 0.11298 0.0
C231 C 0.74102 0.96018 0.1361 0.0
H232 H 0.41992 0.27153 0.63208 0.0
H233 H 0.46295 0.27693 0.51081 0.0
H234 H 0.47179 0.24988 0.6578 0.0
H235 H 0.51479 0.25614 0.53604 0.0
H236 H 0.61267 0.24827 0.58646 0.0
H237 H 0.55712 0.22709 0.57011 0.0
H238 H 0.51633 0.2874 0.66926 0.0
H239 H 0.57161 0.3077 0.68548 0.0
C240 C 0.43966 0.26588 0.61018 0.0
C241 C 0.43777 0.2764 0.56969 0.0
C242 C 0.46968 0.25407 0.62509 0.0
C243 C 0.49802 0.25268 0.59953 0.0
C244 C 0.49378 0.25716 0.55695 0.0
C245 C 0.46377 0.26887 0.54216 0.0
C246 C 0.59186 0.25576 0.60576 0.0
C247 C 0.5961 0.2796 0.63706 0.0
C248 C 0.56006 0.24381 0.59633 0.0
C249 C 0.53202 0.25581 0.61787 0.0
C250 C 0.53713 0.27721 0.65213 0.0
C251 C 0.56884 0.2891 0.66144 0.0
H252 H 0.70557 0.55452 0.46226 0.0
H253 H 0.6432 0.57877 0.35982 0.0
H254 H 0.72691 0.50882 0.42145 0.0
H255 H 0.66193 0.53225 0.32031 0.0
H256 H 0.69339 0.45187 0.2476 0.0
H257 H 0.69987 0.50396 0.28239 0.0
H258 H 0.71279 0.45909 0.39914 0.0
H259 H 0.70969 0.40758 0.36347 0.0
C260 C 0.69618 0.54975 0.43116 0.0
C261 C 0.67261 0.56989 0.41422 0.0
C262 C 0.70835 0.52357 0.40764 0.0
C263 C 0.69636 0.51647 0.36719 0.0
C264 C 0.67279 0.53705 0.35059 0.0
C265 C 0.66145 0.56358 0.37359 0.0
C266 C 0.69955 0.45325 0.28027 0.0
C267 C 0.70006 0.42578 0.30313 0.0
C268 C 0.70241 0.48317 0.30057 0.0
C269 C 0.70491 0.48603 0.34414 0.0
C270 C 0.71042 0.45831 0.36579 0.0
C271 C 0.70858 0.42852 0.3453 0.0
H272 H 0.94115 0.19934 0.9837 0.0
H273 H 0.92024 0.18224 0.85384 0.0
H274 H 0.99747 0.21525 0.96737 0.0
H275 H 0.97574 0.20078 0.83664 0.0
H276 H 0.0855 0.16871 0.83218 0.0
H277 H 0.02602 0.17649 0.83777 0.0
H278 H 0.04156 0.24282 0.9424 0.0
H279 H 0.10134 0.23288 0.93787 0.0
C280 C 0.94815 0.20066 0.95146 0.0
C281 C 0.92657 0.18932 0.92004 0.0
C282 C 0.98062 0.20983 0.94189 0.0
C283 C 0.99192 0.20855 0.9005 0.0
C284 C 0.96864 0.20093 0.86892 0.0
C285 C 0.93657 0.19078 0.87863 0.0
C286 C 0.07616 0.18586 0.85531 0.0
C287 C 0.09782 0.20032 0.88442 0.0
C288 C 0.04186 0.19047 0.85868 0.0
C289 C 0.0284 0.20998 0.89111 0.0
C290 C 0.05066 0.22693 0.91773 0.0
C291 C 0.085 0.22176 0.91478 0.0
H292 H 0.25823 0.41642 0.47882 0.0
H293 H 0.34318 0.46146 0.5378 0.0
H294 H 0.23693 0.46856 0.46168 0.0
H295 H 0.32168 0.51314 0.52271 0.0
H296 H 0.28682 0.60401 0.48215 0.0
H297 H 0.27982 0.55665 0.52222 0.0
H298 H 0.26446 0.50024 0.40883 0.0
H299 H 0.27213 0.54689 0.36907 0.0
C300 C 0.27141 0.43753 0.49014 0.0
C301 C 0.30203 0.43493 0.51066 0.0
C302 C 0.25929 0.46733 0.48024 0.0
C303 C 0.27772 0.49497 0.49059 0.0
C304 C 0.30649 0.49246 0.51493 0.0
C305 C 0.31871 0.4627 0.52434 0.0
C306 C 0.28124 0.58157 0.4659 0.0
C307 C 0.28077 0.57917 0.42234 0.0
C308 C 0.27703 0.55454 0.48887 0.0
C309 C 0.27194 0.52466 0.46869 0.0
C310 C 0.26797 0.52292 0.42544 0.0
C311 C 0.27245 0.54982 0.40251 0.0
H312 H 0.00448 0.80718 0.01507 0.0
H313 H 0.09775 0.78256 0.95668 0.0
H314 H 0.9746 0.78242 0.95747 0.0
H315 H 0.0678 0.75682 0.89833 0.0
H316 H 0.00718 0.80749 0.79388 0.0
H317 H 0.04183 0.78625 0.8471 0.0
H318 H 0.95467 0.7475 0.90467 0.0
H319 H 0.91994 0.77047 0.85185 0.0
C320 C 0.01858 0.79478 0.99081 0.0
C321 C 0.05331 0.79723 0.98995 0.0
C322 C 0.00142 0.78037 0.95748 0.0
C323 C 0.01868 0.76835 0.92225 0.0
C324 C 0.05365 0.76652 0.92442 0.0
C325 C 0.07089 0.78092 0.9581 0.0
C326 C 0.99569 0.79271 0.81643 0.0
C327 C 0.96096 0.79114 0.81937 0.0
C328 C 0.0156 0.78049 0.84733 0.0
C329 C 0.00094 0.76638 0.88154 0.0
C330 C 0.96668 0.75931 0.87965 0.0
C331 C 0.94672 0.772 0.849 0.0
H332 H 0.88126 0.01885 1.00276 0.0
H333 H 0.94878 0.06812 0.92462 0.0
H334 H 0.89664 0.96852 0.96863 0.0
H335 H 0.96489 0.01746 0.89032 0.0
H336 H 0.9314 0.93654 0.7958 0.0
H337 H 0.93334 0.98443 0.84102 0.0
H338 H 0.93351 0.92685 0.94816 0.0
H339 H 0.92955 0.87922 0.90321 0.0
C340 C 0.90101 0.0186 0.97997 0.0
C341 C 0.91412 0.04726 0.96664 0.0
C342 C 0.90963 0.98972 0.95995 0.0
C343 C 0.93147 0.98892 0.92595 0.0
C344 C 0.94746 0.01731 0.9158 0.0
C345 C 0.93888 0.04627 0.93609 0.0
C346 C 0.93167 0.93409 0.82899 0.0
C347 C 0.9302 0.9039 0.84569 0.0
C348 C 0.93343 0.96158 0.85499 0.0
C349 C 0.93386 0.9596 0.89838 0.0
C350 C 0.9331 0.92937 0.91498 0.0
C351 C 0.93111 0.90196 0.88906 0.0
H352 H 0.44084 0.39587 0.39398 0.0
H353 H 0.48094 0.33448 0.48483 0.0
H354 H 0.49207 0.39134 0.35452 0.0
H355 H 0.53205 0.32859 0.44425 0.0
H356 H 0.63053 0.35349 0.37836 0.0
H357 H 0.5808 0.35399 0.4211 0.0
H358 H 0.51992 0.35382 0.31076 0.0
H359 H 0.56973 0.35548 0.26829 0.0
C360 C 0.46078 0.38146 0.40554 0.0
C361 C 0.45695 0.36549 0.44236 0.0
C362 C 0.49 0.37846 0.38263 0.0
C363 C 0.51595 0.35892 0.39554 0.0
C364 C 0.51262 0.34387 0.43335 0.0
C365 C 0.48342 0.3473 0.45671 0.0
C366 C 0.60647 0.35331 0.36324 0.0
C367 C 0.60409 0.35503 0.31995 0.0
C368 C 0.57792 0.35337 0.38777 0.0
C369 C 0.54628 0.35471 0.36951 0.0
C370 C 0.54391 0.35378 0.32598 0.0
C371 C 0.57249 0.3541 0.30148 0.0
H372 H 0.07993 0.98813 0.02914 0.0
H373 H 0.18137 0.95533 0.02109 0.0
H374 H 0.09774 0.04108 0.01181 0.0
H375 H 0.1994 0.00875 0.00344 0.0
H376 H 0.19377 0.08767 0.90142 0.0
H377 H 0.1882 0.03884 0.93824 0.0
H378 H 0.13178 0.08897 0.03396 0.0
H379 H 0.13796 0.13817 0.99764 0.0
C380 C 0.10619 0.99245 0.02447 0.0
C381 C 0.12925 0.96757 0.02629 0.0
C382 C 0.11644 0.02287 0.01481 0.0
C383 C 0.14997 0.02911 0.00613 0.0
C384 C 0.17337 0.0046 0.00983 0.0
C385 C 0.16312 0.97412 0.02021 0.0
C386 C 0.18111 0.08863 0.93098 0.0
C387 C 0.1659 0.11686 0.9462 0.0
C388 C 0.17792 0.06055 0.95211 0.0
C389 C 0.15927 0.05998 0.98879 0.0
C390 C 0.14592 0.0886 0.00545 0.0
C391 C 0.14933 0.11673 0.98451 0.0
H392 H 0.54262 0.71463 0.4066 0.0
H393 H 0.53402 0.63236 0.48027 0.0
H394 H 0.48239 0.71444 0.39598 0.0
H395 H 0.47341 0.63323 0.47167 0.0
H396 H 0.36135 0.66148 0.46324 0.0
H397 H 0.41896 0.67229 0.48366 0.0
H398 H 0.44826 0.66742 0.35532 0.0
H399 H 0.39146 0.65458 0.33468 0.0
C400 C 0.52765 0.69729 0.42193 0.0
C401 C 0.54284 0.67404 0.44537 0.0
C402 C 0.49328 0.69714 0.4157 0.0
C403 C 0.47334 0.67394 0.43316 0.0
C404 C 0.48823 0.6517 0.45845 0.0
C405 C 0.52279 0.65146 0.46391 0.0
C406 C 0.37999 0.66267 0.43924 0.0
C407 C 0.37153 0.65669 0.39721 0.0
C408 C 0.41292 0.66903 0.45106 0.0
C409 C 0.43793 0.67056 0.42106 0.0
C410 C 0.42931 0.66662 0.37903 0.0
C411 C 0.39658 0.65951 0.36722 0.0
H412 H 0.3277 0.44161 0.61953 0.0
H413 H 0.42871 0.47242 0.60022 0.0
H414 H 0.31606 0.49174 0.6583 0.0
H415 H 0.41714 0.52228 0.63821 0.0
H416 H 0.40109 0.59504 0.73866 0.0
H417 H 0.40654 0.54099 0.70908 0.0
H418 H 0.31105 0.54926 0.64924 0.0
H419 H 0.30545 0.60317 0.67948 0.0
C420 C 0.34725 0.45925 0.62317 0.0
C421 C 0.37909 0.45317 0.60685 0.0
C422 C 0.34063 0.48787 0.64542 0.0
C423 C 0.36584 0.51076 0.652 0.0
C424 C 0.3974 0.50483 0.63473 0.0
C425 C 0.40397 0.47637 0.61259 0.0
C426 C 0.38091 0.58495 0.72007 0.0
C427 C 0.35296 0.60334 0.71116 0.0
C428 C 0.38414 0.55415 0.70278 0.0
C429 C 0.35958 0.54112 0.67597 0.0
C430 C 0.3304 0.55858 0.66976 0.0
C431 C 0.3271 0.58941 0.68726 0.0
H432 H 0.0173 0.89871 0.19474 0.0
H433 H 0.01586 0.83554 0.0859 0.0
H434 H 0.95714 0.89634 0.19857 0.0
H435 H 0.95524 0.83159 0.09074 0.0
H436 H 0.84365 0.85905 0.09169 0.0
H437 H 0.90376 0.85731 0.08402 0.0
H438 H 0.91457 0.86255 0.21722 0.0
H439 H 0.85485 0.86708 0.22476 0.0
C440 C 0.00397 0.88416 0.17168 0.0
C441 C 0.02118 0.86725 0.1401 0.0
C442 C 0.96944 0.88244 0.17412 0.0
C443 C 0.95113 0.86312 0.14561 0.0
C444 C 0.96837 0.84679 0.11322 0.0
C445 C 0.00309 0.84905 0.11032 0.0
C446 C 0.85887 0.85989 0.11938 0.0
C447 C 0.84423 0.8639 0.15884 0.0
C448 C 0.89344 0.85851 0.11496 0.0
C449 C 0.91427 0.86059 0.14995 0.0
C450 C 0.89947 0.86198 0.18945 0.0
C451 C 0.86499 0.8639 0.19385 0.0
H452 H 0.60997 0.53247 0.5124 0.0
H453 H 0.69944 0.54232 0.58543 0.0
H454 H 0.61045 0.47479 0.52114 0.0
H455 H 0.70066 0.48483 0.5931 0.0
H456 H 0.70414 0.37694 0.57507 0.0
H457 H 0.70483 0.43088 0.55059 0.0
H458 H 0.60292 0.44353 0.58909 0.0
H459 H 0.60241 0.39014 0.61517 0.0
C460 C 0.63029 0.52209 0.5291 0.0
C461 C 0.65486 0.54156 0.54793 0.0
C462 C 0.63043 0.48924 0.5344 0.0
C463 C 0.6556 0.47537 0.55779 0.0
C464 C 0.68115 0.4948 0.57459 0.0
C465 C 0.6805 0.52764 0.57021 0.0
C466 C 0.68184 0.39116 0.57843 0.0
C467 C 0.65334 0.37917 0.59765 0.0
C468 C 0.68222 0.42198 0.5641 0.0
C469 C 0.65396 0.44138 0.56798 0.0
C470 C 0.62494 0.42895 0.58523 0.0
C471 C 0.62467 0.39828 0.6001 0.0
H472 H 0.92651 0.15103 0.14474 0.0
H473 H 0.97131 0.10084 0.03945 0.0
H474 H 0.97903 0.15257 0.18028 0.0
H475 H 0.02476 0.10093 0.0767 0.0
H476 H 0.12137 0.13615 0.1438 0.0
H477 H 0.06994 0.13421 0.10319 0.0
H478 H 0.01418 0.11887 0.21482 0.0
H479 H 0.06513 0.12193 0.25506 0.0
C480 C 0.94756 0.13964 0.12941 0.0
C481 C 0.94454 0.12526 0.08947 0.0
C482 C 0.97783 0.14045 0.15004 0.0
C483 C 0.00611 0.12633 0.13187 0.0
C484 C 0.00344 0.11214 0.09157 0.0
C485 C 0.97287 0.11183 0.07035 0.0
C486 C 0.09796 0.13269 0.15951 0.0
C487 C 0.09711 0.12978 0.20268 0.0
C488 C 0.06857 0.13124 0.13623 0.0
C489 C 0.03782 0.1266 0.15568 0.0
C490 C 0.03724 0.1233 0.19883 0.0
C491 C 0.06645 0.12513 0.22205 0.0
H492 H 0.18917 0.77263 0.08007 0.0
H493 H 0.15021 0.81363 0.19491 0.0
H494 H 0.21963 0.73333 0.119 0.0
H495 H 0.18081 0.77533 0.23337 0.0
H496 H 0.21093 0.68173 0.2867 0.0
H497 H 0.18043 0.7194 0.24579 0.0
H498 H 0.26671 0.73015 0.16801 0.0
H499 H 0.29685 0.69175 0.20885 0.0
C500 C 0.18704 0.7732 0.11348 0.0
C501 C 0.16727 0.79622 0.13436 0.0
C502 C 0.20466 0.75092 0.1358 0.0
C503 C 0.20263 0.75119 0.17933 0.0
C504 C 0.18261 0.77411 0.19991 0.0
C505 C 0.16518 0.79626 0.17776 0.0
C506 C 0.22336 0.69252 0.26113 0.0
C507 C 0.25617 0.68448 0.25106 0.0
C508 C 0.20599 0.71403 0.23767 0.0
C509 C 0.22116 0.72785 0.20363 0.0
C510 C 0.25421 0.71968 0.19373 0.0
C511 C 0.27158 0.69809 0.2173 0.0
H512 H 0.69683 0.71095 0.6509 0.0
H513 H 0.74679 0.69861 0.53313 0.0
H514 H 0.74302 0.74239 0.67825 0.0
H515 H 0.79389 0.73023 0.561 0.0
H516 H 0.85217 0.81867 0.62168 0.0
H517 H 0.81009 0.78443 0.58732 0.0
H518 H 0.79977 0.73296 0.69919 0.0
H519 H 0.84128 0.76771 0.73342 0.0
C520 C 0.71779 0.715 0.63078 0.0
C521 C 0.71825 0.70213 0.58992 0.0
C522 C 0.74444 0.73284 0.64662 0.0
C523 C 0.77254 0.73821 0.62219 0.0
C524 C 0.77261 0.72642 0.58066 0.0
C525 C 0.74564 0.70848 0.56462 0.0
C526 C 0.84125 0.79956 0.63844 0.0
C527 C 0.84973 0.79558 0.67997 0.0
C528 C 0.81726 0.77996 0.61882 0.0
C529 C 0.80122 0.75625 0.64066 0.0
C530 C 0.81117 0.75141 0.68173 0.0
C531 C 0.83511 0.77102 0.70126 0.0
H532 H 0.87594 0.2548 0.07562 0.0
H533 H 0.7945 0.23131 0.99319 0.0
H534 H 0.84548 0.30098 0.10352 0.0
H535 H 0.76358 0.2767 0.02129 0.0
H536 H 0.70577 0.35261 0.08614 0.0
H537 H 0.75035 0.33066 0.04183 0.0
H538 H 0.79976 0.29685 0.15021 0.0
H539 H 0.75568 0.31946 0.19388 0.0
C540 C 0.85235 0.26066 0.0617 0.0
C541 C 0.83772 0.23975 0.03188 0.0
C542 C 0.83457 0.28675 0.07822 0.0
C543 C 0.80163 0.29206 0.06561 0.0
C544 C 0.78888 0.27355 0.03179 0.0
C545 C 0.80683 0.2476 0.01509 0.0
C546 C 0.72683 0.34133 0.1003 0.0
C547 C 0.72766 0.33767 0.14315 0.0
C548 C 0.75223 0.32861 0.07502 0.0
C549 C 0.77871 0.31184 0.09228 0.0
C550 C 0.78023 0.31006 0.1357 0.0
C551 C 0.75489 0.32281 0.16085 0.0
H552 H 0.32091 0.3553 0.68427 0.0
H553 H 0.32508 0.27087 0.60362 0.0
H554 H 0.2832 0.3287 0.73014 0.0
H555 H 0.28843 0.2435 0.65058 0.0
H556 H 0.20747 0.20531 0.73115 0.0
H557 H 0.23477 0.23776 0.68001 0.0
H558 H 0.28638 0.28981 0.77923 0.0
H559 H 0.25813 0.25815 0.82966 0.0
C560 C 0.31388 0.33091 0.6765 0.0
C561 C 0.32628 0.31502 0.64066 0.0
C562 C 0.2923 0.31558 0.70289 0.0
C563 C 0.28298 0.28373 0.69455 0.0
C564 C 0.29469 0.26812 0.65791 0.0
C565 C 0.31594 0.28369 0.63109 0.0
C566 C 0.22397 0.22437 0.74175 0.0
C567 C 0.23053 0.22971 0.78408 0.0
C568 C 0.23996 0.24267 0.71255 0.0
C569 C 0.26304 0.26638 0.72529 0.0
C570 C 0.26845 0.27224 0.76806 0.0
C571 C 0.25232 0.25409 0.79709 0.0
H572 H 0.71463 0.73334 0.48452 0.0
H573 H 0.69135 0.67728 0.37306 0.0
H574 H 0.74035 0.77369 0.44257 0.0
H575 H 0.71458 0.71789 0.33146 0.0
H576 H 0.76826 0.78617 0.25897 0.0
H577 H 0.7619 0.74446 0.30857 0.0
H578 H 0.72114 0.81337 0.39789 0.0
H579 H 0.7289 0.85493 0.34862 0.0
C580 C 0.71517 0.72956 0.45118 0.0
C581 C 0.7003 0.70248 0.43207 0.0
C582 C 0.72964 0.75275 0.42709 0.0
C583 C 0.72943 0.74924 0.3835 0.0
C584 C 0.71574 0.7214 0.36482 0.0
C585 C 0.70169 0.69828 0.38877 0.0
C586 C 0.7589 0.79234 0.28971 0.0
C587 C 0.74896 0.82342 0.3003 0.0
C588 C 0.75492 0.76851 0.31801 0.0
C589 C 0.74039 0.77537 0.35708 0.0
C590 C 0.7326 0.80714 0.36835 0.0
C591 C 0.73686 0.83096 0.34012 0.0
H592 H 0.83173 0.22509 0.91563 0.0
H593 H 0.74959 0.15898 0.91482 0.0
H594 H 0.80187 0.25737 0.86694 0.0
H595 H 0.71935 0.19151 0.86708 0.0
H596 H 0.70932 0.22395 0.73206 0.0
H597 H 0.72858 0.19854 0.79417 0.0
H598 H 0.75474 0.29052 0.84984 0.0
H599 H 0.73589 0.31562 0.78709 0.0
C600 C 0.80684 0.21808 0.9061 0.0
C601 C 0.79309 0.1894 0.91845 0.0
C602 C 0.78968 0.23654 0.87823 0.0
C603 C 0.75847 0.22664 0.86249 0.0
C604 C 0.74367 0.19936 0.87781 0.0
C605 C 0.76087 0.18086 0.90535 0.0
C606 C 0.71858 0.23861 0.75801 0.0
C607 C 0.72112 0.27153 0.75532 0.0
C608 C 0.72948 0.2242 0.79365 0.0
C609 C 0.74321 0.24254 0.82706 0.0
C610 C 0.74457 0.27573 0.82459 0.0
C611 C 0.73361 0.2901 0.78893 0.0
H612 H 0.3653 0.24357 0.46033 0.0
H613 H 0.28196 0.27834 0.53247 0.0
H614 H 0.33143 0.19978 0.4316 0.0
H615 H 0.24744 0.23538 0.50277 0.0
H616 H 0.18803 0.15842 0.43867 0.0
H617 H 0.23062 0.18129 0.48563 0.0
H618 H 0.28952 0.20556 0.37975 0.0
H619 H 0.2473 0.18209 0.33352 0.0
C620 C 0.34011 0.24084 0.47153 0.0
C621 C 0.32613 0.26408 0.4986 0.0
C622 C 0.32053 0.21611 0.45459 0.0
C623 C 0.28645 0.2146 0.46388 0.0
C624 C 0.27359 0.23573 0.49489 0.0
C625 C 0.29337 0.2603 0.51221 0.0
C626 C 0.21063 0.16791 0.4258 0.0
C627 C 0.2148 0.16853 0.38283 0.0
C628 C 0.23486 0.18114 0.45255 0.0
C629 C 0.26355 0.19528 0.43659 0.0
C630 C 0.26816 0.19434 0.3933 0.0
C631 C 0.24395 0.1811 0.3667 0.0
H632 H 0.18516 0.85758 0.92357 0.0
H633 H 0.17441 0.77826 1.00253 0.0
H634 H 0.22362 0.82683 0.87982 0.0
H635 H 0.21345 0.74754 0.95897 0.0
H636 H 0.24022 0.69401 0.83221 0.0
H637 H 0.2116 0.72305 0.88882 0.0
H638 H 0.2785 0.80243 0.87609 0.0
H639 H 0.30658 0.7733 0.81883 0.0
C640 C 0.19124 0.83365 0.93178 0.0
C641 C 0.17651 0.82025 0.96626 0.0
C642 C 0.2136 0.81612 0.90696 0.0
C643 C 0.22167 0.78472 0.91593 0.0
C644 C 0.20756 0.77158 0.95106 0.0
C645 C 0.18529 0.78921 0.97607 0.0
C646 C 0.24918 0.71736 0.84235 0.0
C647 C 0.27534 0.73164 0.82151 0.0
C648 C 0.23293 0.73397 0.87479 0.0
C649 C 0.24254 0.76521 0.88666 0.0
C650 C 0.27018 0.77862 0.86721 0.0
C651 C 0.2864 0.76195 0.83474 0.0
loop_
_geom_bond_atom_site_label_1
_geom_bond_atom_site_label_2
_geom_bond_distance
_geom_bond_site_symmetry_2
_ccdc_geom_bond_type
Zn0 O6 1.920 . S
Zn0 O12 1.898 . S
Zn0 O15 1.905 . S
Zn1 O9 1.905 . S
Zn1 O10 1.898 . S
Zn1 O18 1.920 . S
Zn2 O5 2.080 . S
Zn2 O8 2.126 . S
Zn2 O11 2.120 1_554 S
Zn2 O13 2.120 . S
Zn2 O14 2.114 . S
Zn2 O17 2.080 . S
C3 O8 1.152 1_556 S
C3 O9 1.182 . S
C4 O10 1.167 . S
C4 O11 1.299 . S
O5 Zn2 2.080 . S
O5 C19 1.305 . S
O6 Zn0 1.920 . S
O6 C19 1.234 . S
C7 O12 1.167 . S
C7 O13 1.299 . S
O8 Zn2 2.126 . S
O8 C3 1.152 1_554 S
O9 Zn1 1.905 . S
O9 C3 1.182 . S
O10 Zn1 1.898 . S
O10 C4 1.167 . S
O11 Zn2 2.120 1_556 S
O11 C4 1.299 . S
O12 Zn0 1.898 . S
O12 C7 1.167 . S
O13 Zn2 2.120 . S
O13 C7 1.299 . S
O14 Zn2 2.114 . S
O14 C16 1.166 . S
O15 Zn0 1.905 . S
O15 C16 1.182 . S
C16 O14 1.166 . S
C16 O15 1.182 . S
O17 Zn2 2.080 . S
O17 C20 1.305 1_554 S
O18 Zn1 1.920 . S
O18 C20 1.234 . S
C19 O5 1.305 . S
C19 O6 1.234 . S
C20 O17 1.305 1_556 S
C20 O18 1.234 . S
Zn21 O27 1.920 . S
Zn21 O33 1.898 . S
Zn21 O36 1.905 . S
Zn22 O30 1.905 . S
Zn22 O31 1.898 . S
Zn22 O39 1.920 . S
Zn23 O26 2.080 . S
Zn23 O29 2.114 . S
Zn23 O32 2.120 . S
Zn23 O34 2.120 . S
Zn23 O35 2.114 . S
Zn23 O38 2.080 . S
C24 O29 1.166 . S
C24 O30 1.182 . S
C25 O31 1.167 . S
C25 O32 1.299 . S
O26 Zn23 2.080 . S
O26 C40 1.305 . S
O27 Zn21 1.920 . S
O27 C40 1.234 . S
C28 O33 1.167 . S
C28 O34 1.299 . S
O29 Zn23 2.114 . S
O29 C24 1.166 . S
O30 Zn22 1.905 . S
O30 C24 1.182 . S
O31 Zn22 1.898 . S
O31 C25 1.167 . S
O32 Zn23 2.120 . S
O32 C25 1.299 . S
O33 Zn21 1.898 . S
O33 C28 1.167 . S
O34 Zn23 2.120 . S
O34 C28 1.299 . S
O35 Zn23 2.114 . S
O35 C37 1.166 . S
O36 Zn21 1.905 . S
O36 C37 1.182 . S
C37 O35 1.166 . S
C37 O36 1.182 . S
O38 Zn23 2.080 . S
O38 C41 1.305 . S
O39 Zn22 1.920 . S
O39 C41 1.234 . S
C40 O26 1.305 . S
C40 O27 1.234 . S
C41 O38 1.305 . S
C41 O39 1.234 . S
Zn42 O48 1.920 . S
Zn42 O54 1.898 . S
Zn42 O57 1.905 . S
Zn43 O51 1.905 . S
Zn43 O52 1.898 . S
Zn43 O60 1.920 . S
Zn44 O47 2.080 1_554 S
Zn44 O50 2.114 . S
Zn44 O53 2.120 . S
Zn44 O55 2.120 1_554 S
Zn44 O56 2.114 1_554 S
Zn44 O59 2.081 . S
C45 O50 1.166 . S
C45 O51 1.182 . S
C46 O52 1.167 . S
C46 O53 1.299 . S
O47 Zn44 2.080 1_556 S
O47 C61 1.305 . S
O48 Zn42 1.920 . S
O48 C61 1.234 . S
C49 O54 1.167 . S
C49 O55 1.299 . S
O50 Zn44 2.114 . S
O50 C45 1.166 . S
O51 Zn43 1.905 . S
O51 C45 1.182 . S
O52 Zn43 1.898 . S
O52 C46 1.167 . S
O53 Zn44 2.120 . S
O53 C46 1.299 . S
O54 Zn42 1.898 . S
O54 C49 1.167 . S
O55 Zn44 2.120 1_556 S
O55 C49 1.299 . S
O56 Zn44 2.114 1_556 S
O56 C58 1.166 . S
O57 Zn42 1.905 . S
O57 C58 1.182 . S
C58 O56 1.166 . S
C58 O57 1.182 . S
O59 Zn44 2.081 . S
O59 C62 1.305 . S
O60 Zn43 1.920 . S
O60 C62 1.234 . S
C61 O47 1.305 . S
C61 O48 1.234 . S
C62 O59 1.305 . S
C62 O60 1.234 . S
Zn63 O69 1.920 . S
Zn63 O75 1.898 . S
Zn63 O78 1.905 . S
Zn64 O72 1.905 . S
Zn64 O73 1.898 . S
Zn64 O81 1.920 . S
Zn65 O68 2.080 . S
Zn65 O71 2.114 . S
Zn65 O74 2.120 . S
Zn65 O76 2.120 . S
Zn65 O77 2.114 . S
Zn65 O80 2.080 . S
C66 O71 1.166 . S
C66 O72 1.182 . S
C67 O73 1.167 . S
C67 O74 1.299 . S
O68 Zn65 2.080 . S
O68 C82 1.305 . S
O69 Zn63 1.920 . S
O69 C82 1.234 . S
C70 O75 1.167 . S
C70 O76 1.299 . S
O71 Zn65 2.114 . S
O71 C66 1.166 . S
O72 Zn64 1.905 . S
O72 C66 1.182 . S
O73 Zn64 1.898 . S
O73 C67 1.167 . S
O74 Zn65 2.120 . S
O74 C67 1.299 . S
O75 Zn63 1.898 . S
O75 C70 1.167 . S
O76 Zn65 2.120 . S
O76 C70 1.299 . S
O77 Zn65 2.114 . S
O77 C79 1.166 . S
O78 Zn63 1.905 . S
O78 C79 1.182 . S
C79 O77 1.166 . S
C79 O78 1.182 . S
O80 Zn65 2.080 . S
O80 C83 1.305 . S
O81 Zn64 1.920 . S
O81 C83 1.234 . S
C82 O68 1.305 . S
C82 O69 1.234 . S
C83 O80 1.305 . S
C83 O81 1.234 . S
H84 C87 0.929 . S
H85 C90 0.929 . S
H86 C92 0.930 . S
C87 H84 0.929 . S
C87 C88 1.398 . S
C87 C89 1.396 . S
C88 C87 1.398 . S
C88 C92 1.407 . S
C89 C87 1.396 . S
C89 C90 1.394 . S
C90 H85 0.929 . S
C90 C89 1.394 . S
C90 C91 1.382 . S
C91 C90 1.382 . S
C91 C92 1.392 . S
C91 N93 1.420 . S
C92 H86 0.930 . S
C92 C88 1.407 . S
C92 C91 1.392 . S
N93 C91 1.420 . S
N93 C94 1.244 . S
C94 N93 1.244 . S
H95 C98 0.929 . S
H96 C101 0.929 . S
H97 C103 0.930 . S
C98 H95 0.929 . S
C98 C99 1.398 . S
C98 C100 1.396 . S
C99 C98 1.398 . S
C99 C103 1.407 . S
C100 C98 1.396 . S
C100 C101 1.394 . S
C101 H96 0.929 . S
C101 C100 1.394 . S
C101 C102 1.382 . S
C102 C101 1.382 . S
C102 C103 1.392 . S
C102 N104 1.420 . S
C103 H97 0.930 . S
C103 C99 1.407 . S
C103 C102 1.392 . S
N104 C102 1.420 . S
N104 C105 1.244 . S
C105 N104 1.244 . S
H106 C109 0.929 . S
H107 C112 0.929 . S
H108 C114 0.930 . S
C109 H106 0.929 . S
C109 C110 1.398 . S
C109 C111 1.396 . S
C110 C109 1.398 . S
C110 C114 1.407 . S
C111 C109 1.396 . S
C111 C112 1.394 . S
C112 H107 0.929 . S
C112 C111 1.394 . S
C112 C113 1.382 . S
C113 C112 1.382 . S
C113 C114 1.392 . S
C113 N115 1.420 . S
C114 H108 0.930 . S
C114 C110 1.407 . S
C114 C113 1.392 . S
N115 C113 1.420 . S
N115 C116 1.244 . S
C116 N115 1.244 . S
H117 C120 0.929 . S
H118 C123 0.929 . S
H119 C125 0.930 . S
C120 H117 0.929 . S
C120 C121 1.398 . S
C120 C122 1.396 . S
C121 C120 1.398 . S
C121 C125 1.407 . S
C122 C120 1.396 . S
C122 C123 1.394 . S
C123 H118 0.929 . S
C123 C122 1.394 . S
C123 C124 1.382 . S
C124 C123 1.382 . S
C124 C125 1.392 . S
C124 N126 1.420 . S
C125 H119 0.930 . S
C125 C121 1.407 . S
C125 C124 1.392 . S
N126 C124 1.420 . S
N126 C127 1.244 . S
C127 N126 1.244 . S
H128 C131 0.929 . S
H129 C134 0.929 . S
H130 C136 0.930 . S
C131 H128 0.929 . S
C131 C132 1.398 . S
C131 C133 1.396 . S
C132 C131 1.398 . S
C132 C136 1.407 . S
C133 C131 1.396 . S
C133 C134 1.394 . S
C134 H129 0.929 . S
C134 C133 1.394 . S
C134 C135 1.382 . S
C135 C134 1.382 . S
C135 C136 1.392 . S
C135 N137 1.420 . S
C136 H130 0.930 . S
C136 C132 1.407 . S
C136 C135 1.392 . S
N137 C135 1.420 . S
N137 C138 1.244 . S
C138 N137 1.244 . S
H139 C142 0.929 . S
H140 C145 0.929 . S
H141 C147 0.930 . S
C142 H139 0.929 . S
C142 C143 1.398 . S
C142 C144 1.396 . S
C143 C142 1.398 . S
C143 C147 1.407 . S
C144 C142 1.396 . S
C144 C145 1.394 . S
C145 H140 0.929 . S
C145 C144 1.394 . S
C145 C146 1.382 . S
C146 C145 1.382 . S
C146 C147 1.392 . S
C146 N148 1.420 . S
C147 H141 0.930 . S
C147 C143 1.407 . S
C147 C146 1.392 . S
N148 C146 1.420 . S
N148 C149 1.244 . S
C149 N148 1.244 . S
H150 C153 0.929 . S
H151 C156 0.929 . S
H152 C158 0.930 . S
C153 H150 0.929 . S
C153 C154 1.398 . S
C153 C155 1.396 . S
C154 C153 1.398 . S
C154 C158 1.407 . S
C155 C153 1.396 . S
C155 C156 1.394 . S
C156 H151 0.929 . S
C156 C155 1.394 . S
C156 C157 1.382 . S
C157 C156 1.382 . S
C157 C158 1.392 . S
C157 N159 1.420 . S
C158 H152 0.930 . S
C158 C154 1.407 . S
C158 C157 1.392 . S
N159 C157 1.420 . S
N159 C160 1.244 . S
C160 N159 1.244 . S
H161 C164 0.929 . S
H162 C167 0.929 . S
H163 C169 0.930 . S
C164 H161 0.929 . S
C164 C165 1.398 . S
C164 C166 1.396 . S
C165 C164 1.398 . S
C165 C169 1.407 . S
C166 C164 1.396 . S
C166 C167 1.394 . S
C167 H162 0.929 . S
C167 C166 1.394 . S
C167 C168 1.382 . S
C168 C167 1.382 . S
C168 C169 1.392 . S
C168 N170 1.420 . S
C169 H163 0.930 . S
C169 C165 1.407 . S
C169 C168 1.392 . S
N170 C168 1.420 . S
N170 C171 1.244 . S
C171 N170 1.244 . S
H172 C180 0.950 . S
H173 C185 0.950 . S
H174 C182 0.950 . S
H175 C184 0.950 . S
H176 C186 0.950 . S
H177 C188 0.950 . S
H178 C190 0.950 . S
H179 C191 0.950 . S
C180 H172 0.950 . S
C180 C181 1.386 . S
C180 C182 1.391 . S
C181 C180 1.386 . S
C181 C185 1.393 . S
C182 H174 0.950 . S
C182 C180 1.391 . S
C182 C183 1.400 . S
C183 C182 1.400 . S
C183 C184 1.398 . S
C183 C189 1.491 1_565 S
C184 H175 0.950 . S
C184 C183 1.398 . S
C184 C185 1.391 . S
C185 H173 0.950 . S
C185 C181 1.393 . S
C185 C184 1.391 . S
C186 H176 0.950 . S
C186 C187 1.386 . S
C186 C188 1.391 . S
C187 C186 1.386 . S
C187 C191 1.393 . S
C188 H177 0.950 . S
C188 C186 1.391 . S
C188 C189 1.400 . S
C189 C183 1.491 1_545 S
C189 C188 1.400 . S
C189 C190 1.398 . S
C190 H178 0.950 . S
C190 C189 1.398 . S
C190 C191 1.391 . S
C191 H179 0.950 . S
C191 C187 1.393 . S
C191 C190 1.391 . S
H192 C200 0.950 . S
H193 C205 0.950 . S
H194 C202 0.950 . S
H195 C204 0.950 . S
H196 C206 0.950 . S
H197 C208 0.950 . S
H198 C210 0.950 . S
H199 C211 0.950 . S
C200 H192 0.950 . S
C200 C201 1.386 . S
C200 C202 1.391 . S
C201 C200 1.386 . S
C201 C205 1.393 . S
C202 H194 0.950 . S
C202 C200 1.391 . S
C202 C203 1.400 . S
C203 C202 1.400 . S
C203 C204 1.398 . S
C203 C209 1.491 . S
C204 H195 0.950 . S
C204 C203 1.398 . S
C204 C205 1.391 . S
C205 H193 0.950 . S
C205 C201 1.393 . S
C205 C204 1.391 . S
C206 H196 0.950 . S
C206 C207 1.386 . S
C206 C208 1.391 . S
C207 C206 1.386 . S
C207 C211 1.393 . S
C208 H197 0.950 . S
C208 C206 1.391 . S
C208 C209 1.400 . S
C209 C203 1.491 . S
C209 C208 1.400 . S
C209 C210 1.398 . S
C210 H198 0.950 . S
C210 C209 1.398 . S
C210 C211 1.391 . S
C211 H199 0.950 . S
C211 C207 1.393 . S
C211 C210 1.391 . S
H212 C220 0.950 . S
H213 C225 0.950 . S
H214 C222 0.950 . S
H215 C224 0.950 . S
H216 C226 0.950 . S
H217 C228 0.950 . S
H218 C230 0.950 . S
H219 C231 0.950 . S
C220 H212 0.950 . S
C220 C221 1.386 . S
C220 C222 1.391 . S
C221 C220 1.386 . S
C221 C225 1.393 . S
C222 H214 0.950 . S
C222 C220 1.391 . S
C222 C223 1.400 . S
C223 C222 1.400 . S
C223 C224 1.398 . S
C223 C229 1.491 1_545 S
C224 H215 0.950 . S
C224 C223 1.398 . S
C224 C225 1.391 . S
C225 H213 0.950 . S
C225 C221 1.393 . S
C225 C224 1.391 . S
C226 H216 0.950 . S
C226 C227 1.386 . S
C226 C228 1.391 . S
C227 C226 1.386 . S
C227 C231 1.393 . S
C228 H217 0.950 . S
C228 C226 1.391 . S
C228 C229 1.400 . S
C229 C223 1.491 1_565 S
C229 C228 1.400 . S
C229 C230 1.398 . S
C230 H218 0.950 . S
C230 C229 1.398 . S
C230 C231 1.391 . S
C231 H219 0.950 . S
C231 C227 1.393 . S
C231 C230 1.391 . S
H232 C240 0.950 . S
H233 C245 0.950 . S
H234 C242 0.950 . S
H235 C244 0.950 . S
H236 C246 0.950 . S
H237 C248 0.950 . S
H238 C250 0.950 . S
H239 C251 0.950 . S
C240 H232 0.950 . S
C240 C241 1.386 . S
C240 C242 1.391 . S
C241 C240 1.386 . S
C241 C245 1.393 . S
C242 H234 0.950 . S
C242 C240 1.391 . S
C242 C243 1.400 . S
C243 C242 1.400 . S
C243 C244 1.398 . S
C243 C249 1.491 . S
C244 H235 0.950 . S
C244 C243 1.398 . S
C244 C245 1.391 . S
C245 H233 0.950 . S
C245 C241 1.393 . S
C245 C244 1.391 . S
C246 H236 0.950 . S
C246 C247 1.386 . S
C246 C248 1.391 . S
C247 C246 1.386 . S
C247 C251 1.393 . S
C248 H237 0.950 . S
C248 C246 1.391 . S
C248 C249 1.400 . S
C249 C243 1.491 . S
C249 C248 1.400 . S
C249 C250 1.398 . S
C250 H238 0.950 . S
C250 C249 1.398 . S
C250 C251 1.391 . S
C251 H239 0.950 . S
C251 C247 1.393 . S
C251 C250 1.391 . S
H252 C260 0.950 . S
H253 C265 0.950 . S
H254 C262 0.950 . S
H255 C264 0.950 . S
H256 C266 0.950 . S
H257 C268 0.950 . S
H258 C270 0.950 . S
H259 C271 0.950 . S
C260 H252 0.950 . S
C260 C261 1.386 . S
C260 C262 1.391 . S
C261 C260 1.386 . S
C261 C265 1.393 . S
C262 H254 0.950 . S
C262 C260 1.391 . S
C262 C263 1.400 . S
C263 C262 1.400 . S
C263 C264 1.398 . S
C263 C269 1.491 . S
C264 H255 0.950 . S
C264 C263 1.398 . S
C264 C265 1.391 . S
C265 H253 0.950 . S
C265 C261 1.393 . S
C265 C264 1.391 . S
C266 H256 0.950 . S
C266 C267 1.386 . S
C266 C268 1.391 . S
C267 C266 1.386 . S
C267 C271 1.393 . S
C268 H257 0.950 . S
C268 C266 1.391 . S
C268 C269 1.400 . S
C269 C263 1.491 . S
C269 C268 1.400 . S
C269 C270 1.398 . S
C270 H258 0.950 . S
C270 C269 1.398 . S
C270 C271 1.391 . S
C271 H259 0.950 . S
C271 C267 1.393 . S
C271 C270 1.391 . S
H272 C280 0.950 1_554 S
H273 C285 0.950 . S
H274 C282 0.950 . S
H275 C284 0.950 . S
H276 C286 0.950 . S
H277 C288 0.950 . S
H278 C290 0.950 . S
H279 C291 0.950 . S
C280 H272 0.950 1_556 S
C280 C281 1.386 . S
C280 C282 1.391 1_655 S
C281 C280 1.386 . S
C281 C285 1.393 . S
C282 H274 0.950 . S
C282 C280 1.391 1_455 S
C282 C283 1.400 . S
C283 C282 1.400 . S
C283 C284 1.398 1_455 S
C283 C289 1.491 . S
C284 H275 0.950 . S
C284 C283 1.398 1_655 S
C284 C285 1.391 . S
C285 H273 0.950 . S
C285 C281 1.393 . S
C285 C284 1.391 . S
C286 H276 0.950 . S
C286 C287 1.386 . S
C286 C288 1.391 . S
C287 C286 1.386 . S
C287 C291 1.393 . S
C288 H277 0.950 . S
C288 C286 1.391 . S
C288 C289 1.400 . S
C289 C283 1.491 . S
C289 C288 1.400 . S
C289 C290 1.398 . S
C290 H278 0.950 . S
C290 C289 1.398 . S
C290 C291 1.391 . S
C291 H279 0.950 . S
C291 C287 1.393 . S
C291 C290 1.391 . S
H292 C300 0.950 . S
H293 C305 0.950 . S
H294 C302 0.950 . S
H295 C304 0.950 . S
H296 C306 0.950 . S
H297 C308 0.950 . S
H298 C310 0.950 . S
H299 C311 0.950 . S
C300 H292 0.950 . S
C300 C301 1.386 . S
C300 C302 1.391 . S
C301 C300 1.386 . S
C301 C305 1.393 . S
C302 H294 0.950 . S
C302 C300 1.391 . S
C302 C303 1.400 . S
C303 C302 1.400 . S
C303 C304 1.398 . S
C303 C309 1.491 . S
C304 H295 0.950 . S
C304 C303 1.398 . S
C304 C305 1.391 . S
C305 H293 0.950 . S
C305 C301 1.393 . S
C305 C304 1.391 . S
C306 H296 0.950 . S
C306 C307 1.386 . S
C306 C308 1.391 . S
C307 C306 1.386 . S
C307 C311 1.393 . S
C308 H297 0.950 . S
C308 C306 1.391 . S
C308 C309 1.400 . S
C309 C303 1.491 . S
C309 C308 1.400 . S
C309 C310 1.398 . S
C310 H298 0.950 . S
C310 C309 1.398 . S
C310 C311 1.391 . S
C311 H299 0.950 . S
C311 C307 1.393 . S
C311 C310 1.391 . S
H312 C320 0.950 . S
H313 C325 0.950 . S
H314 C322 0.950 1_655 S
H315 C324 0.950 . S
H316 C326 0.950 . S
H317 C328 0.950 . S
H318 C330 0.950 . S
H319 C331 0.950 . S
C320 H312 0.950 . S
C320 C321 1.386 . S
C320 C322 1.391 . S
C321 C320 1.386 . S
C321 C325 1.393 . S
C322 H314 0.950 1_455 S
C322 C320 1.391 . S
C322 C323 1.400 . S
C323 C322 1.400 . S
C323 C324 1.398 . S
C323 C329 1.491 1_455 S
C324 H315 0.950 . S
C324 C323 1.398 . S
C324 C325 1.391 . S
C325 H313 0.950 . S
C325 C321 1.393 . S
C325 C324 1.391 . S
C326 H316 0.950 . S
C326 C327 1.386 . S
C326 C328 1.391 1_655 S
C327 C326 1.386 . S
C327 C331 1.393 . S
C328 H317 0.950 . S
C328 C326 1.391 1_455 S
C328 C329 1.400 1_455 S
C329 C323 1.491 1_655 S
C329 C328 1.400 1_655 S
C329 C330 1.398 . S
C330 H318 0.950 . S
C330 C329 1.398 . S
C330 C331 1.391 . S
C331 H319 0.950 . S
C331 C327 1.393 . S
C331 C330 1.391 . S
H332 C340 0.950 . S
H333 C345 0.950 . S
H334 C342 0.950 . S
H335 C344 0.950 . S
H336 C346 0.950 . S
H337 C348 0.950 . S
H338 C350 0.950 . S
H339 C351 0.950 . S
C340 H332 0.950 . S
C340 C341 1.386 . S
C340 C342 1.391 1_545 S
C341 C340 1.386 . S
C341 C345 1.393 . S
C342 H334 0.950 . S
C342 C340 1.391 1_565 S
C342 C343 1.400 . S
C343 C342 1.400 . S
C343 C344 1.398 1_565 S
C343 C349 1.491 . S
C344 H335 0.950 . S
C344 C343 1.398 1_545 S
C344 C345 1.391 . S
C345 H333 0.950 . S
C345 C341 1.393 . S
C345 C344 1.391 . S
C346 H336 0.950 . S
C346 C347 1.386 . S
C346 C348 1.391 . S
C347 C346 1.386 . S
C347 C351 1.393 . S
C348 H337 0.950 . S
C348 C346 1.391 . S
C348 C349 1.400 . S
C349 C343 1.491 . S
C349 C348 1.400 . S
C349 C350 1.398 . S
C350 H338 0.950 . S
C350 C349 1.398 . S
C350 C351 1.391 . S
C351 H339 0.950 . S
C351 C347 1.393 . S
C351 C350 1.391 . S
H352 C360 0.950 . S
H353 C365 0.950 . S
H354 C362 0.950 . S
H355 C364 0.950 . S
H356 C366 0.950 . S
H357 C368 0.950 . S
H358 C370 0.950 . S
H359 C371 0.950 . S
C360 H352 0.950 . S
C360 C361 1.386 . S
C360 C362 1.391 . S
C361 C360 1.386 . S
C361 C365 1.393 . S
C362 H354 0.950 . S
C362 C360 1.391 . S
C362 C363 1.400 . S
C363 C362 1.400 . S
C363 C364 1.398 . S
C363 C369 1.491 . S
C364 H355 0.950 . S
C364 C363 1.398 . S
C364 C365 1.391 . S
C365 H353 0.950 . S
C365 C361 1.393 . S
C365 C364 1.391 . S
C366 H356 0.950 . S
C366 C367 1.386 . S
C366 C368 1.391 . S
C367 C366 1.386 . S
C367 C371 1.393 . S
C368 H357 0.950 . S
C368 C366 1.391 . S
C368 C369 1.400 . S
C369 C363 1.491 . S
C369 C368 1.400 . S
C369 C370 1.398 . S
C370 H358 0.950 . S
C370 C369 1.398 . S
C370 C371 1.391 . S
C371 H359 0.950 . S
C371 C367 1.393 . S
C371 C370 1.391 . S
H372 C380 0.950 . S
H373 C385 0.950 . S
H374 C382 0.950 . S
H375 C384 0.950 . S
H376 C386 0.950 . S
H377 C388 0.950 . S
H378 C390 0.950 . S
H379 C391 0.950 . S
C380 H372 0.950 . S
C380 C381 1.386 . S
C380 C382 1.391 1_565 S
C381 C380 1.386 . S
C381 C385 1.393 . S
C382 H374 0.950 . S
C382 C380 1.391 1_545 S
C382 C383 1.400 . S
C383 C382 1.400 . S
C383 C384 1.398 . S
C383 C389 1.491 . S
C384 H375 0.950 . S
C384 C383 1.398 . S
C384 C385 1.391 1_545 S
C385 H373 0.950 . S
C385 C381 1.393 . S
C385 C384 1.391 1_565 S
C386 H376 0.950 . S
C386 C387 1.386 . S
C386 C388 1.391 . S
C387 C386 1.386 . S
C387 C391 1.393 . S
C388 H377 0.950 . S
C388 C386 1.391 . S
C388 C389 1.400 . S
C389 C383 1.491 . S
C389 C388 1.400 . S
C389 C390 1.398 . S
C390 H378 0.950 . S
C390 C389 1.398 . S
C390 C391 1.391 . S
C391 H379 0.950 . S
C391 C387 1.393 . S
C391 C390 1.391 . S
H392 C400 0.950 . S
H393 C405 0.950 . S
H394 C402 0.950 . S
H395 C404 0.950 . S
H396 C406 0.950 . S
H397 C408 0.950 . S
H398 C410 0.950 . S
H399 C411 0.950 . S
C400 H392 0.950 . S
C400 C401 1.386 . S
C400 C402 1.391 . S
C401 C400 1.386 . S
C401 C405 1.393 . S
C402 H394 0.950 . S
C402 C400 1.391 . S
C402 C403 1.400 . S
C403 C402 1.400 . S
C403 C404 1.398 . S
C403 C409 1.491 . S
C404 H395 0.950 . S
C404 C403 1.398 . S
C404 C405 1.391 . S
C405 H393 0.950 . S
C405 C401 1.393 . S
C405 C404 1.391 . S
C406 H396 0.950 . S
C406 C407 1.386 . S
C406 C408 1.391 . S
C407 C406 1.386 . S
C407 C411 1.393 . S
C408 H397 0.950 . S
C408 C406 1.391 . S
C408 C409 1.400 . S
C409 C403 1.491 . S
C409 C408 1.400 . S
C409 C410 1.398 . S
C410 H398 0.950 . S
C410 C409 1.398 . S
C410 C411 1.391 . S
C411 H399 0.950 . S
C411 C407 1.393 . S
C411 C410 1.391 . S
H412 C420 0.950 . S
H413 C425 0.950 . S
H414 C422 0.950 . S
H415 C424 0.950 . S
H416 C426 0.950 . S
H417 C428 0.950 . S
H418 C430 0.950 . S
H419 C431 0.950 . S
C420 H412 0.950 . S
C420 C421 1.386 . S
C420 C422 1.391 . S
C421 C420 1.386 . S
C421 C425 1.393 . S
C422 H414 0.950 . S
C422 C420 1.391 . S
C422 C423 1.400 . S
C423 C422 1.400 . S
C423 C424 1.398 . S
C423 C429 1.491 . S
C424 H415 0.950 . S
C424 C423 1.398 . S
C424 C425 1.391 . S
C425 H413 0.950 . S
C425 C421 1.393 . S
C425 C424 1.391 . S
C426 H416 0.950 . S
C426 C427 1.386 . S
C426 C428 1.391 . S
C427 C426 1.386 . S
C427 C431 1.393 . S
C428 H417 0.950 . S
C428 C426 1.391 . S
C428 C429 1.400 . S
C429 C423 1.491 . S
C429 C428 1.400 . S
C429 C430 1.398 . S
C430 H418 0.950 . S
C430 C429 1.398 . S
C430 C431 1.391 . S
C431 H419 0.950 . S
C431 C427 1.393 . S
C431 C430 1.391 . S
H432 C440 0.950 . S
H433 C445 0.950 1_455 S
H434 C442 0.950 . S
H435 C444 0.950 . S
H436 C446 0.950 . S
H437 C448 0.950 . S
H438 C450 0.950 . S
H439 C451 0.950 . S
C440 H432 0.950 . S
C440 C441 1.386 . S
C440 C442 1.391 1_455 S
C441 C440 1.386 . S
C441 C445 1.393 1_455 S
C442 H434 0.950 . S
C442 C440 1.391 1_655 S
C442 C443 1.400 . S
C443 C442 1.400 . S
C443 C444 1.398 . S
C443 C449 1.491 . S
C444 H435 0.950 . S
C444 C443 1.398 . S
C444 C445 1.391 . S
C445 H433 0.950 1_655 S
C445 C441 1.393 1_655 S
C445 C444 1.391 . S
C446 H436 0.950 . S
C446 C447 1.386 . S
C446 C448 1.391 . S
C447 C446 1.386 . S
C447 C451 1.393 . S
C448 H437 0.950 . S
C448 C446 1.391 . S
C448 C449 1.400 . S
C449 C443 1.491 . S
C449 C448 1.400 . S
C449 C450 1.398 . S
C450 H438 0.950 . S
C450 C449 1.398 . S
C450 C451 1.391 . S
C451 H439 0.950 . S
C451 C447 1.393 . S
C451 C450 1.391 . S
H452 C460 0.950 . S
H453 C465 0.950 . S
H454 C462 0.950 . S
H455 C464 0.950 . S
H456 C466 0.950 . S
H457 C468 0.950 . S
H458 C470 0.950 . S
H459 C471 0.950 . S
C460 H452 0.950 . S
C460 C461 1.386 . S
C460 C462 1.391 . S
C461 C460 1.386 . S
C461 C465 1.393 . S
C462 H454 0.950 . S
C462 C460 1.391 . S
C462 C463 1.400 . S
C463 C462 1.400 . S
C463 C464 1.398 . S
C463 C469 1.491 . S
C464 H455 0.950 . S
C464 C463 1.398 . S
C464 C465 1.391 . S
C465 H453 0.950 . S
C465 C461 1.393 . S
C465 C464 1.391 . S
C466 H456 0.950 . S
C466 C467 1.386 . S
C466 C468 1.391 . S
C467 C466 1.386 . S
C467 C471 1.393 . S
C468 H457 0.950 . S
C468 C466 1.391 . S
C468 C469 1.400 . S
C469 C463 1.491 . S
C469 C468 1.400 . S
C469 C470 1.398 . S
C470 H458 0.950 . S
C470 C469 1.398 . S
C470 C471 1.391 . S
C471 H459 0.950 . S
C471 C467 1.393 . S
C471 C470 1.391 . S
H472 C480 0.950 . S
H473 C485 0.950 . S
H474 C482 0.950 . S
H475 C484 0.950 . S
H476 C486 0.950 . S
H477 C488 0.950 . S
H478 C490 0.950 . S
H479 C491 0.950 . S
C480 H472 0.950 . S
C480 C481 1.386 . S
C480 C482 1.391 . S
C481 C480 1.386 . S
C481 C485 1.393 . S
C482 H474 0.950 . S
C482 C480 1.391 . S
C482 C483 1.400 1_655 S
C483 C482 1.400 1_455 S
C483 C484 1.398 . S
C483 C489 1.491 . S
C484 H475 0.950 . S
C484 C483 1.398 . S
C484 C485 1.391 1_455 S
C485 H473 0.950 . S
C485 C481 1.393 . S
C485 C484 1.391 1_655 S
C486 H476 0.950 . S
C486 C487 1.386 . S
C486 C488 1.391 . S
C487 C486 1.386 . S
C487 C491 1.393 . S
C488 H477 0.950 . S
C488 C486 1.391 . S
C488 C489 1.400 . S
C489 C483 1.491 . S
C489 C488 1.400 . S
C489 C490 1.398 . S
C490 H478 0.950 . S
C490 C489 1.398 . S
C490 C491 1.391 . S
C491 H479 0.950 . S
C491 C487 1.393 . S
C491 C490 1.391 . S
H492 C500 0.950 . S
H493 C505 0.950 . S
H494 C502 0.950 . S
H495 C504 0.950 . S
H496 C506 0.950 . S
H497 C508 0.950 . S
H498 C510 0.950 . S
H499 C511 0.950 . S
C500 H492 0.950 . S
C500 C501 1.386 . S
C500 C502 1.391 . S
C501 C500 1.386 . S
C501 C505 1.393 . S
C502 H494 0.950 . S
C502 C500 1.391 . S
C502 C503 1.400 . S
C503 C502 1.400 . S
C503 C504 1.398 . S
C503 C509 1.491 . S
C504 H495 0.950 . S
C504 C503 1.398 . S
C504 C505 1.391 . S
C505 H493 0.950 . S
C505 C501 1.393 . S
C505 C504 1.391 . S
C506 H496 0.950 . S
C506 C507 1.386 . S
C506 C508 1.391 . S
C507 C506 1.386 . S
C507 C511 1.393 . S
C508 H497 0.950 . S
C508 C506 1.391 . S
C508 C509 1.400 . S
C509 C503 1.491 . S
C509 C508 1.400 . S
C509 C510 1.398 . S
C510 H498 0.950 . S
C510 C509 1.398 . S
C510 C511 1.391 . S
C511 H499 0.950 . S
C511 C507 1.393 . S
C511 C510 1.391 . S
H512 C520 0.950 . S
H513 C525 0.950 . S
H514 C522 0.950 . S
H515 C524 0.950 . S
H516 C526 0.950 . S
H517 C528 0.950 . S
H518 C530 0.950 . S
H519 C531 0.950 . S
C520 H512 0.950 . S
C520 C521 1.386 . S
C520 C522 1.391 . S
C521 C520 1.386 . S
C521 C525 1.393 . S
C522 H514 0.950 . S
C522 C520 1.391 . S
C522 C523 1.400 . S
C523 C522 1.400 . S
C523 C524 1.398 . S
C523 C529 1.491 . S
C524 H515 0.950 . S
C524 C523 1.398 . S
C524 C525 1.391 . S
C525 H513 0.950 . S
C525 C521 1.393 . S
C525 C524 1.391 . S
C526 H516 0.950 . S
C526 C527 1.386 . S
C526 C528 1.391 . S
C527 C526 1.386 . S
C527 C531 1.393 . S
C528 H517 0.950 . S
C528 C526 1.391 . S
C528 C529 1.400 . S
C529 C523 1.491 . S
C529 C528 1.400 . S
C529 C530 1.398 . S
C530 H518 0.950 . S
C530 C529 1.398 . S
C530 C531 1.391 . S
C531 H519 0.950 . S
C531 C527 1.393 . S
C531 C530 1.391 . S
H532 C540 0.950 . S
H533 C545 0.950 . S
H534 C542 0.950 . S
H535 C544 0.950 . S
H536 C546 0.950 . S
H537 C548 0.950 . S
H538 C550 0.950 . S
H539 C551 0.950 . S
C540 H532 0.950 . S
C540 C541 1.386 . S
C540 C542 1.391 . S
C541 C540 1.386 . S
C541 C545 1.393 . S
C542 H534 0.950 . S
C542 C540 1.391 . S
C542 C543 1.400 . S
C543 C542 1.400 . S
C543 C544 1.398 . S
C543 C549 1.491 . S
C544 H535 0.950 . S
C544 C543 1.398 . S
C544 C545 1.391 . S
C545 H533 0.950 . S
C545 C541 1.393 . S
C545 C544 1.391 . S
C546 H536 0.950 . S
C546 C547 1.386 . S
C546 C548 1.391 . S
C547 C546 1.386 . S
C547 C551 1.393 . S
C548 H537 0.950 . S
C548 C546 1.391 . S
C548 C549 1.400 . S
C549 C543 1.491 . S
C549 C548 1.400 . S
C549 C550 1.398 . S
C550 H538 0.950 . S
C550 C549 1.398 . S
C550 C551 1.391 . S
C551 H539 0.950 . S
C551 C547 1.393 . S
C551 C550 1.391 . S
H552 C560 0.950 . S
H553 C565 0.950 . S
H554 C562 0.950 . S
H555 C564 0.950 . S
H556 C566 0.950 . S
H557 C568 0.950 . S
H558 C570 0.950 . S
H559 C571 0.950 . S
C560 H552 0.950 . S
C560 C561 1.386 . S
C560 C562 1.391 . S
C561 C560 1.386 . S
C561 C565 1.393 . S
C562 H554 0.950 . S
C562 C560 1.391 . S
C562 C563 1.400 . S
C563 C562 1.400 . S
C563 C564 1.398 . S
C563 C569 1.491 . S
C564 H555 0.950 . S
C564 C563 1.398 . S
C564 C565 1.391 . S
C565 H553 0.950 . S
C565 C561 1.393 . S
C565 C564 1.391 . S
C566 H556 0.950 . S
C566 C567 1.386 . S
C566 C568 1.391 . S
C567 C566 1.386 . S
C567 C571 1.393 . S
C568 H557 0.950 . S
C568 C566 1.391 . S
C568 C569 1.400 . S
C569 C563 1.491 . S
C569 C568 1.400 . S
C569 C570 1.398 . S
C570 H558 0.950 . S
C570 C569 1.398 . S
C570 C571 1.391 . S
C571 H559 0.950 . S
C571 C567 1.393 . S
C571 C570 1.391 . S
H572 C580 0.950 . S
H573 C585 0.950 . S
H574 C582 0.950 . S
H575 C584 0.950 . S
H576 C586 0.950 . S
H577 C588 0.950 . S
H578 C590 0.950 . S
H579 C591 0.950 . S
C580 H572 0.950 . S
C580 C581 1.386 . S
C580 C582 1.391 . S
C581 C580 1.386 . S
C581 C585 1.393 . S
C582 H574 0.950 . S
C582 C580 1.391 . S
C582 C583 1.400 . S
C583 C582 1.400 . S
C583 C584 1.398 . S
C583 C589 1.491 . S
C584 H575 0.950 . S
C584 C583 1.398 . S
C584 C585 1.391 . S
C585 H573 0.950 . S
C585 C581 1.393 . S
C585 C584 1.391 . S
C586 H576 0.950 . S
C586 C587 1.386 . S
C586 C588 1.391 . S
C587 C586 1.386 . S
C587 C591 1.393 . S
C588 H577 0.950 . S
C588 C586 1.391 . S
C588 C589 1.400 . S
C589 C583 1.491 . S
C589 C588 1.400 . S
C589 C590 1.398 . S
C590 H578 0.950 . S
C590 C589 1.398 . S
C590 C591 1.391 . S
C591 H579 0.950 . S
C591 C587 1.393 . S
C591 C590 1.391 . S
H592 C600 0.950 . S
H593 C605 0.950 . S
H594 C602 0.950 . S
H595 C604 0.950 . S
H596 C606 0.950 . S
H597 C608 0.950 . S
H598 C610 0.950 . S
H599 C611 0.950 . S
C600 H592 0.950 . S
C600 C601 1.386 . S
C600 C602 1.391 . S
C601 C600 1.386 . S
C601 C605 1.393 . S
C602 H594 0.950 . S
C602 C600 1.391 . S
C602 C603 1.400 . S
C603 C602 1.400 . S
C603 C604 1.398 . S
C603 C609 1.491 . S
C604 H595 0.950 . S
C604 C603 1.398 . S
C604 C605 1.391 . S
C605 H593 0.950 . S
C605 C601 1.393 . S
C605 C604 1.391 . S
C606 H596 0.950 . S
C606 C607 1.386 . S
C606 C608 1.391 . S
C607 C606 1.386 . S
C607 C611 1.393 . S
C608 H597 0.950 . S
C608 C606 1.391 . S
C608 C609 1.400 . S
C609 C603 1.491 . S
C609 C608 1.400 . S
C609 C610 1.398 . S
C610 H598 0.950 . S
C610 C609 1.398 . S
C610 C611 1.391 . S
C611 H599 0.950 . S
C611 C607 1.393 . S
C611 C610 1.391 . S
H612 C620 0.950 . S
H613 C625 0.950 . S
H614 C622 0.950 . S
H615 C624 0.950 . S
H616 C626 0.950 . S
H617 C628 0.950 . S
H618 C630 0.950 . S
H619 C631 0.950 . S
C620 H612 0.950 . S
C620 C621 1.386 . S
C620 C622 1.391 . S
C621 C620 1.386 . S
C621 C625 1.393 . S
C622 H614 0.950 . S
C622 C620 1.391 . S
C622 C623 1.400 . S
C623 C622 1.400 . S
C623 C624 1.398 . S
C623 C629 1.491 . S
C624 H615 0.950 . S
C624 C623 1.398 . S
C624 C625 1.391 . S
C625 H613 0.950 . S
C625 C621 1.393 . S
C625 C624 1.391 . S
C626 H616 0.950 . S
C626 C627 1.386 . S
C626 C628 1.391 . S
C627 C626 1.386 . S
C627 C631 1.393 . S
C628 H617 0.950 . S
C628 C626 1.391 . S
C628 C629 1.400 . S
C629 C623 1.491 . S
C629 C628 1.400 . S
C629 C630 1.398 . S
C630 H618 0.950 . S
C630 C629 1.398 . S
C630 C631 1.391 . S
C631 H619 0.950 . S
C631 C627 1.393 . S
C631 C630 1.391 . S
H632 C640 0.950 . S
H633 C645 0.950 . S
H634 C642 0.950 . S
H635 C644 0.950 . S
H636 C646 0.950 . S
H637 C648 0.950 . S
H638 C650 0.950 . S
H639 C651 0.950 . S
C640 H632 0.950 . S
C640 C641 1.386 . S
C640 C642 1.391 . S
C641 C640 1.386 . S
C641 C645 1.393 . S
C642 H634 0.950 . S
C642 C640 1.391 . S
C642 C643 1.400 . S
C643 C642 1.400 . S
C643 C644 1.398 . S
C643 C649 1.491 . S
C644 H635 0.950 . S
C644 C643 1.398 . S
C644 C645 1.391 . S
C645 H633 0.950 . S
C645 C641 1.393 . S
C645 C644 1.391 . S
C646 H636 0.950 . S
C646 C647 1.386 . S
C646 C648 1.391 . S
C647 C646 1.386 . S
C647 C651 1.393 . S
C648 H637 0.950 . S
C648 C646 1.391 . S
C648 C649 1.400 . S
C649 C643 1.491 . S
C649 C648 1.400 . S
C649 C650 1.398 . S
C650 H638 0.950 . S
C650 C649 1.398 . S
C650 C651 1.391 . S
C651 H639 0.950 . S
C651 C647 1.393 . S
C651 C650 1.391 . S
C181 C7 0.810 . S
C187 C89 0.837 . S
C201 C25 0.883 . S
C207 C100 0.862 . S
C221 C46 0.830 . S
C227 C110 0.860 . S
C247 C122 0.725 . S
C241 C70 0.772 . S
C267 C133 0.837 . S
C261 C28 0.812 . S
C281 C49 0.725 . S
C287 C144 0.774 . S
C301 C67 0.876 . S
C307 C154 0.851 . S
C321 C4 0.817 . S
C327 C166 0.869 . S
C341 C58 1.567 . S
C347 C165 1.667 . S
C367 C132 1.575 . S
C361 C66 1.495 . S
C387 C143 1.662 . S
C381 C3 1.613 . S
C401 C37 1.698 . S
C407 C155 1.782 . S
C427 C99 1.664 . S
C421 C79 1.555 . S
C441 C16 1.721 . S
C447 C111 1.780 . S
C467 C121 1.665 . S
C461 C24 1.615 . S
C487 C88 1.571 . S
C481 C45 1.475 . S
C507 C160 1.466 . S
C501 C19 1.299 . S
C527 C171 1.455 . S
C521 C41 1.312 . S
C541 C62 1.235 . S
C547 C138 1.344 . S
C567 C149 1.329 . S
C561 C82 1.208 . S
C587 C116 1.466 . S
C581 C40 1.302 . S
C601 C61 1.164 . S
C607 C127 1.319 . S
C627 C94 1.346 . S
C621 C83 1.234 . S
C647 C105 1.455 . S
C641 C20 1.336 . S
